0:0
     RDKit          3D

 46 48  0  0  0  0  0  0  0  0999 V2000
   -6.3620   15.6507  -32.9715 H   0  0  0  0  0  0  0  0  0  0  0  0
   -6.3270   16.7210  -33.2230 C   0  0  0  0  0  0  0  0  0  0  0  0
   -7.2050   17.6140  -32.6000 C   0  0  0  0  0  0  0  0  0  0  0  0
   -7.9299   17.2453  -31.8593 H   0  0  0  0  0  0  0  0  0  0  0  0
   -7.1620   18.9800  -32.9190 C   0  0  0  0  0  0  0  0  0  0  0  0
   -8.2690   20.1150  -32.1560 S   0  0  0  0  0  0  0  0  0  0  0  0
   -8.7250   19.5410  -30.8440 O   0  0  0  0  0  0  0  0  0  0  0  0
   -9.4700   20.3550  -33.0270 O   0  0  0  0  0  0  0  0  0  0  0  0
   -7.4550   21.6220  -31.8880 N   0  0  0  0  0  0  0  0  0  0  0  0
   -7.9970   22.8600  -31.9460 C   0  0  0  0  0  0  0  0  0  0  0  0
   -9.4210   23.1650  -32.2910 C   0  0  0  0  0  0  0  0  0  0  0  0
  -10.0036   23.2898  -31.3664 H   0  0  0  0  0  0  0  0  0  0  0  0
   -9.4649   24.0929  -32.8801 H   0  0  0  0  0  0  0  0  0  0  0  0
   -9.8411   22.3365  -32.8801 H   0  0  0  0  0  0  0  0  0  0  0  0
   -7.0030   23.8000  -31.7350 C   0  0  0  0  0  0  0  0  0  0  0  0
   -7.0962   24.8960  -31.7269 H   0  0  0  0  0  0  0  0  0  0  0  0
   -5.8670   23.0400  -31.5370 C   0  0  0  0  0  0  0  0  0  0  0  0
   -4.6810   23.5260  -31.3230 N   0  0  0  0  0  0  0  0  0  0  0  0
   -3.5140   22.7190  -31.1060 C   0  0  0  0  0  0  0  0  0  0  0  0
   -2.8520   22.7770  -29.8640 C   0  0  0  0  0  0  0  0  0  0  0  0
   -3.3450   23.6970  -28.7800 C   0  0  0  0  0  0  0  0  0  0  0  0
   -3.1123   23.2627  -27.7965 H   0  0  0  0  0  0  0  0  0  0  0  0
   -2.8499   24.6746  -28.8755 H   0  0  0  0  0  0  0  0  0  0  0  0
   -4.4332   23.8262  -28.8755 H   0  0  0  0  0  0  0  0  0  0  0  0
   -1.6930   22.0130  -29.6560 C   0  0  0  0  0  0  0  0  0  0  0  0
   -1.1612   22.0790  -28.6954 H   0  0  0  0  0  0  0  0  0  0  0  0
   -1.2080   21.1670  -30.6620 C   0  0  0  0  0  0  0  0  0  0  0  0
    0.0560   20.3890  -30.4470 C   0  0  0  0  0  0  0  0  0  0  0  0
    0.2384   20.2767  -29.3681 H   0  0  0  0  0  0  0  0  0  0  0  0
   -0.0424   19.3950  -30.9076 H   0  0  0  0  0  0  0  0  0  0  0  0
    0.8991   20.9247  -30.9076 H   0  0  0  0  0  0  0  0  0  0  0  0
   -1.8720   21.1040  -31.8930 C   0  0  0  0  0  0  0  0  0  0  0  0
   -1.4760   20.4610  -32.6928 H   0  0  0  0  0  0  0  0  0  0  0  0
   -3.0380   21.8530  -32.1170 C   0  0  0  0  0  0  0  0  0  0  0  0
   -3.7310   21.7530  -33.4500 C   0  0  0  0  0  0  0  0  0  0  0  0
   -4.8085   21.5975  -33.2923 H   0  0  0  0  0  0  0  0  0  0  0  0
   -3.5737   22.6832  -34.0157 H   0  0  0  0  0  0  0  0  0  0  0  0
   -3.3171   20.9053  -34.0157 H   0  0  0  0  0  0  0  0  0  0  0  0
   -6.1600   21.7290  -31.6370 N   0  0  0  0  0  0  0  0  0  0  0  0
   -5.5000   20.9220  -31.5640 H   0  0  0  0  0  0  0  0  0  0  0  0
   -6.2330   19.4430  -33.8610 C   0  0  0  0  0  0  0  0  0  0  0  0
   -6.1924   20.5134  -34.1112 H   0  0  0  0  0  0  0  0  0  0  0  0
   -5.3570   18.5470  -34.4840 C   0  0  0  0  0  0  0  0  0  0  0  0
   -4.6307   18.9130  -35.2247 H   0  0  0  0  0  0  0  0  0  0  0  0
   -5.4050   17.1870  -34.1650 C   0  0  0  0  0  0  0  0  0  0  0  0
   -4.5560   16.3200  -34.7690 F   0  0  0  0  0  0  0  0  0  0  0  0
  1  2  1  0
  2  3  2  0
  3  4  1  0
  3  5  1  0
  5  6  1  0
  6  7  2  0
  6  8  2  0
  6  9  1  0
  9 10  1  0
 10 11  1  0
 11 12  1  0
 11 13  1  0
 11 14  1  0
 10 15  2  0
 15 16  1  0
 15 17  1  0
 17 18  2  0
 18 19  1  0
 19 20  2  0
 20 21  1  0
 21 22  1  0
 21 23  1  0
 21 24  1  0
 20 25  1  0
 25 26  1  0
 25 27  2  0
 27 28  1  0
 28 29  1  0
 28 30  1  0
 28 31  1  0
 27 32  1  0
 32 33  1  0
 32 34  2  0
 34 35  1  0
 35 36  1  0
 35 37  1  0
 35 38  1  0
 17 39  1  0
 39 40  1  0
  5 41  2  0
 41 42  1  0
 41 43  1  0
 43 44  1  0
 43 45  2  0
 45 46  1  0
 45  2  1  0
 39  9  1  0
 34 19  1  0
M  END
>  <UniqueID>  (1) 
1

>  <SMILES>  (1) 
Cc1cc(C)c(/N=c2/cc(C)n(S(=O)(=O)c3ccc(F)cc3)[nH]2)c(C)c1

>  <Energy>  (1) 
87.05874769086654

>  <Genealogy>  (1) 
Cc1cc(C)c(/N=c2/cc(C)n(S(=O)(=O)c3ccc(F)cc3)[nH]2)c(C)c1 (cis-trans isomerization)
Cc1cc(C)c(/N=c2/cc(C)n(S(=O)(=O)c3ccc(F)cc3)[nH]2)c(C)c1 (3D coordinates assigned)
Cc1cc(C)c(/N=c2/cc(C)n(S(=O)(=O)c3ccc(F)cc3)[nH]2)c(C)c1 (optimized conformer: 87.05874769086654 kcal/mol)

>  <smiles>  (1) 
Cc1cc(C)c(N=c2cc(C)n(S(=O)(=O)c3ccc(F)cc3)[nH]2)c(C)c1

>  <score_type>  (1) 
oracle

>  <origin>  (1) 
adgpu

>  <m_score__min__energy>  (1) 
-8.9100000000000001

>  <m_primary>  (1) 
energy

$$$$
1:0
     RDKit          3D

 61 64  0  0  0  0  0  0  0  0999 V2000
    0.2500   17.7170  -27.7910 C   0  0  0  0  0  0  0  0  0  0  0  0
   -0.9600   18.0120  -27.1080 O   0  0  0  0  0  0  0  0  0  0  0  0
   -1.6030   19.2420  -27.2520 C   0  0  0  0  0  0  0  0  0  0  0  0
   -1.0530   20.3290  -27.7280 O   0  0  0  0  0  0  0  0  0  0  0  0
   -1.9780   21.2660  -27.6800 C   0  0  0  0  0  0  0  0  0  0  0  0
   -1.7530   22.6590  -28.1140 C   0  0  0  0  0  0  0  0  0  0  0  0
   -0.6570   23.3850  -27.6180 C   0  0  0  0  0  0  0  0  0  0  0  0
   -0.4670   24.7180  -27.9920 C   0  0  0  0  0  0  0  0  0  0  0  0
   -1.3780   25.3440  -28.8460 C   0  0  0  0  0  0  0  0  0  0  0  0
   -2.4850   24.6340  -29.3360 C   0  0  0  0  0  0  0  0  0  0  0  0
   -3.4810   25.2760  -30.1410 N   0  0  0  0  0  0  0  0  0  0  0  0
   -4.6750   24.6470  -30.6320 C   0  0  0  0  0  0  0  0  0  0  0  0
   -5.7610   25.2790  -30.5850 O   0  0  0  0  0  0  0  0  0  0  0  0
   -4.6660   23.3150  -31.1640 N   0  0  0  0  0  0  0  0  0  0  0  0
   -5.8240   22.5260  -31.4720 C   0  0  0  0  0  0  0  0  0  0  0  0
   -7.0830   23.1130  -31.6500 C   0  0  0  0  0  0  0  0  0  0  0  0
   -8.1790   22.3390  -32.0540 C   0  0  0  0  0  0  0  0  0  0  0  0
   -9.5000   23.0010  -32.3340 C   0  0  0  0  0  0  0  0  0  0  0  0
   -8.0250   20.9530  -32.2480 C   0  0  0  0  0  0  0  0  0  0  0  0
   -9.1280   20.2120  -32.6850 O   0  0  0  0  0  0  0  0  0  0  0  0
   -6.7710   20.3470  -32.0010 C   0  0  0  0  0  0  0  0  0  0  0  0
   -6.5380   18.6020  -32.1780 S   0  0  0  0  0  0  0  0  0  0  0  0
   -7.8080   17.9570  -32.6590 O   0  0  0  0  0  0  0  0  0  0  0  0
   -6.1840   18.0250  -30.8370 O   0  0  0  0  0  0  0  0  0  0  0  0
   -5.2550   18.2860  -33.3190 N   0  0  0  0  0  0  0  0  0  0  0  0
   -5.2700   16.8590  -33.7080 C   0  0  0  0  0  0  0  0  0  0  0  0
   -3.9860   16.4380  -34.4570 C   0  0  0  0  0  0  0  0  0  0  0  0
   -3.1970   17.6520  -34.9550 C   0  0  0  0  0  0  0  0  0  0  0  0
   -2.8490   18.5990  -33.7950 C   0  0  0  0  0  0  0  0  0  0  0  0
   -3.9580   18.6570  -32.7290 C   0  0  0  0  0  0  0  0  0  0  0  0
   -5.6840   21.1430  -31.6100 C   0  0  0  0  0  0  0  0  0  0  0  0
   -2.6500   23.2870  -28.9940 C   0  0  0  0  0  0  0  0  0  0  0  0
   -3.1500   20.8170  -27.1710 N   0  0  0  0  0  0  0  0  0  0  0  0
   -2.9040   19.5200  -26.9140 C   0  0  0  0  0  0  0  0  0  0  0  0
   -3.8770   18.5900  -26.2710 C   0  0  0  0  0  0  0  0  0  0  0  0
    1.0468   17.5227  -27.0580 H   0  0  0  0  0  0  0  0  0  0  0  0
    0.1074   16.8273  -28.4220 H   0  0  0  0  0  0  0  0  0  0  0  0
    0.5328   18.5725  -28.4220 H   0  0  0  0  0  0  0  0  0  0  0  0
    0.0546   22.9019  -26.9323 H   0  0  0  0  0  0  0  0  0  0  0  0
    0.4021   25.2757  -27.6129 H   0  0  0  0  0  0  0  0  0  0  0  0
   -1.2276   26.3947  -29.1348 H   0  0  0  0  0  0  0  0  0  0  0  0
   -7.2126   24.1906  -31.4712 H   0  0  0  0  0  0  0  0  0  0  0  0
   -9.9947   23.2489  -31.3833 H   0  0  0  0  0  0  0  0  0  0  0  0
   -9.3334   23.9221  -32.9117 H   0  0  0  0  0  0  0  0  0  0  0  0
  -10.1382   22.3162  -32.9117 H   0  0  0  0  0  0  0  0  0  0  0  0
   -9.0840   19.5230  -33.4230 H   0  0  0  0  0  0  0  0  0  0  0  0
   -5.3656   16.2464  -32.7994 H   0  0  0  0  0  0  0  0  0  0  0  0
   -6.1202   16.7065  -34.3890 H   0  0  0  0  0  0  0  0  0  0  0  0
   -3.3501   15.8551  -33.7745 H   0  0  0  0  0  0  0  0  0  0  0  0
   -4.2799   15.8381  -35.3309 H   0  0  0  0  0  0  0  0  0  0  0  0
   -2.2661   17.3062  -35.4282 H   0  0  0  0  0  0  0  0  0  0  0  0
   -3.8182   18.1996  -35.6791 H   0  0  0  0  0  0  0  0  0  0  0  0
   -1.9208   18.2487  -33.3198 H   0  0  0  0  0  0  0  0  0  0  0  0
   -2.7329   19.6102  -34.2121 H   0  0  0  0  0  0  0  0  0  0  0  0
   -3.7161   17.9572  -31.9155 H   0  0  0  0  0  0  0  0  0  0  0  0
   -4.0239   19.6827  -32.3372 H   0  0  0  0  0  0  0  0  0  0  0  0
   -4.7100   20.6726  -31.4097 H   0  0  0  0  0  0  0  0  0  0  0  0
   -3.4889   22.7154  -29.4177 H   0  0  0  0  0  0  0  0  0  0  0  0
   -3.7930   18.6703  -25.1772 H   0  0  0  0  0  0  0  0  0  0  0  0
   -4.8983   18.8562  -26.5808 H   0  0  0  0  0  0  0  0  0  0  0  0
   -3.6572   17.5577  -26.5808 H   0  0  0  0  0  0  0  0  0  0  0  0
  1  2  1  0
  2  3  1  0
  3  4  1  0
  4  5  1  0
  5  6  1  0
  6  7  2  0
  7  8  1  0
  8  9  2  0
  9 10  1  0
 10 11  1  0
 11 12  1  0
 12 13  2  0
 12 14  1  0
 14 15  1  0
 15 16  2  0
 16 17  1  0
 17 18  1  0
 17 19  2  0
 19 20  1  0
 19 21  1  0
 21 22  1  0
 22 23  2  0
 22 24  2  0
 22 25  1  0
 25 26  1  0
 26 27  1  0
 27 28  1  0
 28 29  1  0
 29 30  1  0
 21 31  2  0
 10 32  2  0
  5 33  2  0
 33 34  1  0
 34 35  1  0
 34  3  2  0
 32  6  1  0
 31 15  1  0
 30 25  1  0
  1 36  1  0
  1 37  1  0
  1 38  1  0
  7 39  1  0
  8 40  1  0
  9 41  1  0
 16 42  1  0
 18 43  1  0
 18 44  1  0
 18 45  1  0
 20 46  1  0
 26 47  1  0
 26 48  1  0
 27 49  1  0
 27 50  1  0
 28 51  1  0
 28 52  1  0
 29 53  1  0
 29 54  1  0
 30 55  1  0
 30 56  1  0
 31 57  1  0
 32 58  1  0
 35 59  1  0
 35 60  1  0
 35 61  1  0
M  CHG  2  11  -1  14  -1
M  END
>  <UniqueID>  (2) 
2

>  <SMILES>  (2) 
COc1oc(-c2cccc([N-]C(=O)[N-]c3cc(C)c(O)c(S(=O)(=O)N4CCCCC4)c3)c2)nc1C

>  <Energy>  (2) 
100.49285093173096

>  <Genealogy>  (2) 
COc1oc(-c2cccc([N-]C(=O)[N-]c3cc(C)c(O)c(S(=O)(=O)N4CCCCC4)c3)c2)nc1C (protonated)
COc1oc(-c2cccc([N-]C(=O)[N-]c3cc(C)c(O)c(S(=O)(=O)N4CCCCC4)c3)c2)nc1C (3D coordinates assigned)
COc1oc(-c2cccc([N-]C(=O)[N-]c3cc(C)c(O)c(S(=O)(=O)N4CCCCC4)c3)c2)nc1C (nonaromatic ring conformer: 100.49285093173096 kcal/mol)

>  <smiles>  (2) 
COc1oc(-c2cccc(NC(=O)Nc3cc(C)c(O)c(S(=O)(=O)N4CCCCC4)c3)c2)nc1C

>  <score_type>  (2) 
oracle

>  <origin>  (2) 
adgpu

>  <m_score__min__energy>  (2) 
-12.18

>  <m_primary>  (2) 
energy

$$$$
2:0
     RDKit          3D

 48 51  0  0  0  0  0  0  0  0999 V2000
   -6.5840   16.6540  -33.9030 C   0  0  0  0  0  0  0  0  0  0  0  0
   -6.1910   18.0100  -33.4080 C   0  0  0  0  0  0  0  0  0  0  0  0
   -7.0460   18.8120  -32.7190 N   0  0  0  0  0  0  0  0  0  0  0  0
   -6.3100   19.9170  -32.4960 C   0  0  0  0  0  0  0  0  0  0  0  0
   -6.7090   21.0820  -31.8480 C   0  0  0  0  0  0  0  0  0  0  0  0
   -5.7810   22.1410  -31.7650 C   0  0  0  0  0  0  0  0  0  0  0  0
   -6.2610   23.6560  -31.0050 S   0  0  0  0  0  0  0  0  0  0  0  0
   -7.7590   23.7620  -30.9280 O   0  0  0  0  0  0  0  0  0  0  0  0
   -5.7300   24.7960  -31.8270 O   0  0  0  0  0  0  0  0  0  0  0  0
   -5.6030   23.7470  -29.4010 N   0  0  0  0  0  0  0  0  0  0  0  0
   -4.2340   23.4310  -29.0900 C   0  0  0  0  0  0  0  0  0  0  0  0
   -3.9080   22.3430  -28.2580 C   0  0  0  0  0  0  0  0  0  0  0  0
   -2.5700   22.0160  -27.9920 C   0  0  0  0  0  0  0  0  0  0  0  0
   -1.5400   22.8180  -28.5170 C   0  0  0  0  0  0  0  0  0  0  0  0
   -1.8630   23.9070  -29.3400 C   0  0  0  0  0  0  0  0  0  0  0  0
   -3.1960   24.2150  -29.6220 C   0  0  0  0  0  0  0  0  0  0  0  0
   -3.4800   25.2980  -30.4470 O   0  0  0  0  0  0  0  0  0  0  0  0
   -0.0860   22.4640  -28.2940 C   0  0  0  0  0  0  0  0  0  0  0  0
    0.1230   21.6040  -27.1130 N   0  0  0  0  0  0  0  0  0  0  0  0
    0.0610   22.3680  -25.8550 C   0  0  0  0  0  0  0  0  0  0  0  0
   -0.7920   20.4460  -27.1210 C   0  0  0  0  0  0  0  0  0  0  0  0
   -2.2690   20.8650  -27.0690 C   0  0  0  0  0  0  0  0  0  0  0  0
   -4.4870   21.9970  -32.3250 C   0  0  0  0  0  0  0  0  0  0  0  0
   -4.1190   20.8050  -32.9730 C   0  0  0  0  0  0  0  0  0  0  0  0
   -5.0640   19.7800  -33.0320 C   0  0  0  0  0  0  0  0  0  0  0  0
   -4.9660   18.5660  -33.6010 N   0  0  0  0  0  0  0  0  0  0  0  0
   -3.8440   18.0330  -34.3720 C   0  0  0  0  0  0  0  0  0  0  0  0
   -6.7758   15.9921  -33.0456 H   0  0  0  0  0  0  0  0  0  0  0  0
   -7.4952   16.7365  -34.5137 H   0  0  0  0  0  0  0  0  0  0  0  0
   -5.7699   16.2364  -34.5137 H   0  0  0  0  0  0  0  0  0  0  0  0
   -7.7157   21.1741  -31.4144 H   0  0  0  0  0  0  0  0  0  0  0  0
   -6.2130   24.1720  -28.6680 H   0  0  0  0  0  0  0  0  0  0  0  0
   -4.7130   21.7415  -27.8107 H   0  0  0  0  0  0  0  0  0  0  0  0
   -1.0590   24.5243  -29.7674 H   0  0  0  0  0  0  0  0  0  0  0  0
    0.2864   21.9347  -29.1835 H   0  0  0  0  0  0  0  0  0  0  0  0
    0.4583   23.4035  -28.1177 H   0  0  0  0  0  0  0  0  0  0  0  0
    0.1172   21.6754  -25.0023 H   0  0  0  0  0  0  0  0  0  0  0  0
    0.9050   23.0722  -25.8117 H   0  0  0  0  0  0  0  0  0  0  0  0
   -0.8855   22.9269  -25.8117 H   0  0  0  0  0  0  0  0  0  0  0  0
   -0.6213   19.8675  -28.0409 H   0  0  0  0  0  0  0  0  0  0  0  0
   -0.5820   19.8470  -26.2227 H   0  0  0  0  0  0  0  0  0  0  0  0
   -2.8908   20.0058  -27.3608 H   0  0  0  0  0  0  0  0  0  0  0  0
   -2.4901   21.1909  -26.0419 H   0  0  0  0  0  0  0  0  0  0  0  0
   -3.7654   22.8240  -32.2520 H   0  0  0  0  0  0  0  0  0  0  0  0
   -3.1204   20.6844  -33.4182 H   0  0  0  0  0  0  0  0  0  0  0  0
   -3.0686   17.6646  -33.6842 H   0  0  0  0  0  0  0  0  0  0  0  0
   -4.1950   17.2054  -35.0059 H   0  0  0  0  0  0  0  0  0  0  0  0
   -3.4242   18.8279  -35.0059 H   0  0  0  0  0  0  0  0  0  0  0  0
  1  2  1  0
  2  3  2  0
  3  4  1  0
  4  5  2  0
  5  6  1  0
  6  7  1  0
  7  8  2  0
  7  9  2  0
  7 10  1  0
 10 11  1  0
 11 12  2  0
 12 13  1  0
 13 14  2  0
 14 15  1  0
 15 16  2  0
 16 17  1  0
 14 18  1  0
 18 19  1  0
 19 20  1  0
 19 21  1  0
 21 22  1  0
  6 23  2  0
 23 24  1  0
 24 25  2  0
 25 26  1  0
 26 27  1  0
 26  2  1  0
 25  4  1  0
 16 11  1  0
 22 13  1  0
  1 28  1  0
  1 29  1  0
  1 30  1  0
  5 31  1  0
 10 32  1  0
 12 33  1  0
 15 34  1  0
 18 35  1  0
 18 36  1  0
 20 37  1  0
 20 38  1  0
 20 39  1  0
 21 40  1  0
 21 41  1  0
 22 42  1  0
 22 43  1  0
 23 44  1  0
 24 45  1  0
 27 46  1  0
 27 47  1  0
 27 48  1  0
M  CHG  1  17  -1
M  END
>  <UniqueID>  (3) 
3

>  <SMILES>  (3) 
Cc1nc2cc(S(=O)(=O)Nc3cc4c(cc3[O-])CN(C)CC4)ccc2n1C

>  <Energy>  (3) 
95.08145866155473

>  <Genealogy>  (3) 
Cc1nc2cc(S(=O)(=O)Nc3cc4c(cc3[O-])CN(C)CC4)ccc2n1C (protonated)
Cc1nc2cc(S(=O)(=O)Nc3cc4c(cc3[O-])CN(C)CC4)ccc2n1C (3D coordinates assigned)
Cc1nc2cc(S(=O)(=O)Nc3cc4c(cc3[O-])CN(C)CC4)ccc2n1C (nonaromatic ring conformer: 95.08145866155473 kcal/mol)

>  <smiles>  (3) 
Cc1nc2cc(S(=O)(=O)Nc3cc4c(cc3O)CN(C)CC4)ccc2n1C

>  <score_type>  (3) 
oracle

>  <origin>  (3) 
adgpu

>  <m_score__min__energy>  (3) 
-12.710000000000001

>  <m_primary>  (3) 
energy

$$$$
3:0
     RDKit          3D

 70 74  0  0  0  0  0  0  0  0999 V2000
    3.3600   19.6560  -35.2340 C   0  0  0  0  0  0  0  0  0  0  0  0
    2.1160   20.4360  -35.2510 N   0  0  0  0  0  0  0  0  0  0  0  0
    2.2010   21.8400  -35.5780 C   0  0  0  0  0  0  0  0  0  0  0  0
    3.4330   22.4450  -35.8900 C   0  0  0  0  0  0  0  0  0  0  0  0
    3.4760   23.8130  -36.1740 C   0  0  0  0  0  0  0  0  0  0  0  0
    2.3040   24.5670  -36.1470 C   0  0  0  0  0  0  0  0  0  0  0  0
    1.1000   23.9400  -35.8230 C   0  0  0  0  0  0  0  0  0  0  0  0
    1.0750   22.6080  -35.5440 N   0  0  0  0  0  0  0  0  0  0  0  0
    0.8110   19.8090  -34.9490 C   0  0  0  0  0  0  0  0  0  0  0  0
    0.3970   18.8150  -36.0540 C   0  0  0  0  0  0  0  0  0  0  0  0
   -0.6540   17.7860  -35.5820 C   0  0  0  0  0  0  0  0  0  0  0  0
   -1.3660   18.2350  -34.3770 N   0  0  0  0  0  0  0  0  0  0  0  0
   -2.7640   17.9170  -34.2270 C   0  0  0  0  0  0  0  0  0  0  0  0
   -3.2020   16.8160  -34.6570 O   0  0  0  0  0  0  0  0  0  0  0  0
   -3.6940   18.8640  -33.5780 C   0  0  0  0  0  0  0  0  0  0  0  0
   -5.0780   18.7300  -33.7530 C   0  0  0  0  0  0  0  0  0  0  0  0
   -5.9580   19.6320  -33.1500 C   0  0  0  0  0  0  0  0  0  0  0  0
   -5.4700   20.6890  -32.3720 C   0  0  0  0  0  0  0  0  0  0  0  0
   -6.6190   21.8290  -31.6540 S   0  0  0  0  0  0  0  0  0  0  0  0
   -7.5930   22.2510  -32.7200 O   0  0  0  0  0  0  0  0  0  0  0  0
   -7.3720   21.1540  -30.5400 O   0  0  0  0  0  0  0  0  0  0  0  0
   -5.7900   23.2300  -31.0270 N   0  0  0  0  0  0  0  0  0  0  0  0
   -5.7530   23.1940  -29.5580 C   0  0  0  0  0  0  0  0  0  0  0  0
   -5.0390   24.4520  -29.0180 C   0  0  0  0  0  0  0  0  0  0  0  0
   -4.6570   25.3360  -30.0560 O   0  0  0  0  0  0  0  0  0  0  0  0
   -5.7870   25.6940  -30.8280 C   0  0  0  0  0  0  0  0  0  0  0  0
   -6.4540   24.4630  -31.4750 C   0  0  0  0  0  0  0  0  0  0  0  0
   -4.0760   20.8330  -32.1920 C   0  0  0  0  0  0  0  0  0  0  0  0
   -3.5430   21.9510  -31.4700 N   0  0  0  0  0  0  0  0  0  0  0  0
   -2.5650   21.7950  -30.4280 C   0  0  0  0  0  0  0  0  0  0  0  0
   -2.0490   20.6660  -30.2130 O   0  0  0  0  0  0  0  0  0  0  0  0
   -2.1860   22.9270  -29.5600 C   0  0  0  0  0  0  0  0  0  0  0  0
   -1.8070   22.8520  -28.2290 C   0  0  0  0  0  0  0  0  0  0  0  0
   -1.5340   24.1400  -27.8290 C   0  0  0  0  0  0  0  0  0  0  0  0
   -1.7570   24.9260  -28.9360 C   0  0  0  0  0  0  0  0  0  0  0  0
   -1.6130   26.3070  -28.9620 O   0  0  0  0  0  0  0  0  0  0  0  0
   -2.1550   24.2030  -29.9980 N   0  0  0  0  0  0  0  0  0  0  0  0
   -3.2000   19.9070  -32.7810 C   0  0  0  0  0  0  0  0  0  0  0  0
   -0.6140   18.7110  -33.2010 C   0  0  0  0  0  0  0  0  0  0  0  0
    0.8140   19.1250  -33.5710 C   0  0  0  0  0  0  0  0  0  0  0  0
    3.6605   19.4676  -34.1927 H   0  0  0  0  0  0  0  0  0  0  0  0
    3.1986   18.6971  -35.7483 H   0  0  0  0  0  0  0  0  0  0  0  0
    4.1528   20.2190  -35.7483 H   0  0  0  0  0  0  0  0  0  0  0  0
    4.3552   21.8457  -35.9102 H   0  0  0  0  0  0  0  0  0  0  0  0
    4.4344   24.2943  -36.4187 H   0  0  0  0  0  0  0  0  0  0  0  0
    2.3278   25.6422  -36.3780 H   0  0  0  0  0  0  0  0  0  0  0  0
    0.1684   24.5241  -35.7930 H   0  0  0  0  0  0  0  0  0  0  0  0
    0.0637   20.6156  -34.9191 H   0  0  0  0  0  0  0  0  0  0  0  0
   -0.0237   19.3836  -36.8964 H   0  0  0  0  0  0  0  0  0  0  0  0
    1.2976   18.2539  -36.3441 H   0  0  0  0  0  0  0  0  0  0  0  0
   -1.3854   17.6307  -36.3888 H   0  0  0  0  0  0  0  0  0  0  0  0
   -0.1269   16.8525  -35.3356 H   0  0  0  0  0  0  0  0  0  0  0  0
   -5.4740   17.9093  -34.3691 H   0  0  0  0  0  0  0  0  0  0  0  0
   -7.0426   19.5109  -33.2874 H   0  0  0  0  0  0  0  0  0  0  0  0
   -6.7811   23.1628  -29.1681 H   0  0  0  0  0  0  0  0  0  0  0  0
   -5.2037   22.2985  -29.2320 H   0  0  0  0  0  0  0  0  0  0  0  0
   -5.7203   24.9806  -28.3351 H   0  0  0  0  0  0  0  0  0  0  0  0
   -4.1259   24.1258  -28.4985 H   0  0  0  0  0  0  0  0  0  0  0  0
   -6.5189   26.1940  -30.1766 H   0  0  0  0  0  0  0  0  0  0  0  0
   -5.4515   26.3633  -31.6339 H   0  0  0  0  0  0  0  0  0  0  0  0
   -7.5146   24.4303  -31.1850 H   0  0  0  0  0  0  0  0  0  0  0  0
   -6.3653   24.5407  -32.5687 H   0  0  0  0  0  0  0  0  0  0  0  0
   -3.9570   22.8880  -31.6590 H   0  0  0  0  0  0  0  0  0  0  0  0
   -1.7381   21.9426  -27.6140 H   0  0  0  0  0  0  0  0  0  0  0  0
   -1.2061   24.4717  -26.8328 H   0  0  0  0  0  0  0  0  0  0  0  0
   -2.1165   20.0005  -32.6158 H   0  0  0  0  0  0  0  0  0  0  0  0
   -1.1364   19.5782  -32.7709 H   0  0  0  0  0  0  0  0  0  0  0  0
   -0.5548   17.8866  -32.4751 H   0  0  0  0  0  0  0  0  0  0  0  0
    1.1998   19.8251  -32.8154 H   0  0  0  0  0  0  0  0  0  0  0  0
    1.4559   18.2325  -33.6070 H   0  0  0  0  0  0  0  0  0  0  0  0
  1  2  1  0
  2  3  1  0
  3  4  2  0
  4  5  1  0
  5  6  2  0
  6  7  1  0
  7  8  2  0
  2  9  1  0
  9 10  1  0
 10 11  1  0
 11 12  1  0
 12 13  1  0
 13 14  2  0
 13 15  1  0
 15 16  2  0
 16 17  1  0
 17 18  2  0
 18 19  1  0
 19 20  2  0
 19 21  2  0
 19 22  1  0
 22 23  1  0
 23 24  1  0
 24 25  1  0
 25 26  1  0
 26 27  1  0
 18 28  1  0
 28 29  1  0
 29 30  1  0
 30 31  2  0
 30 32  1  0
 32 33  2  0
 33 34  1  0
 34 35  2  0
 35 36  1  0
 35 37  1  0
 28 38  2  0
 12 39  1  0
 39 40  1  0
  8  3  1  0
 40  9  1  0
 38 15  1  0
 27 22  1  0
 37 32  1  0
  1 41  1  0
  1 42  1  0
  1 43  1  0
  4 44  1  0
  5 45  1  0
  6 46  1  0
  7 47  1  0
  9 48  1  0
 10 49  1  0
 10 50  1  0
 11 51  1  0
 11 52  1  0
 16 53  1  0
 17 54  1  0
 23 55  1  0
 23 56  1  0
 24 57  1  0
 24 58  1  0
 26 59  1  0
 26 60  1  0
 27 61  1  0
 27 62  1  0
 29 63  1  0
 33 64  1  0
 34 65  1  0
 38 66  1  0
 39 67  1  0
 39 68  1  0
 40 69  1  0
 40 70  1  0
M  CHG  2  36  -1  37  -1
M  END
>  <UniqueID>  (4) 
4

>  <SMILES>  (4) 
CN(c1ccccn1)C1CCN(C(=O)c2ccc(S(=O)(=O)N3CCOCC3)c(NC(=O)c3ccc([O-])[n-]3)c2)CC1

>  <Energy>  (4) 
120.5727752487074

>  <Genealogy>  (4) 
CN(c1ccccn1)C1CCN(C(=O)c2ccc(S(=O)(=O)N3CCOCC3)c(NC(=O)c3ccc([O-])[n-]3)c2)CC1 (protonated)
CN(c1ccccn1)C1CCN(C(=O)c2ccc(S(=O)(=O)N3CCOCC3)c(NC(=O)c3ccc([O-])[n-]3)c2)CC1 (3D coordinates assigned)
CN(c1ccccn1)C1CCN(C(=O)c2ccc(S(=O)(=O)N3CCOCC3)c(NC(=O)c3ccc([O-])[n-]3)c2)CC1 (nonaromatic ring conformer: 120.5727752487074 kcal/mol)

>  <smiles>  (4) 
CN(c1ccccn1)C1CCN(C(=O)c2ccc(S(=O)(=O)N3CCOCC3)c(NC(=O)c3ccc(O)[nH]3)c2)CC1

>  <score_type>  (4) 
oracle

>  <origin>  (4) 
adgpu

>  <m_score__min__energy>  (4) 
-13.74

>  <m_primary>  (4) 
energy

$$$$
4:0
     RDKit          3D

 45 48  0  0  0  0  0  0  0  0999 V2000
   -5.7800   25.8590  -30.1750 C   0  0  0  0  0  0  0  0  0  0  0  0
   -5.1300   24.5860  -30.6660 C   0  0  0  0  0  0  0  0  0  0  0  0
   -3.7610   24.3680  -30.4140 C   0  0  0  0  0  0  0  0  0  0  0  0
   -3.0070   25.2970  -29.7010 O   0  0  0  0  0  0  0  0  0  0  0  0
   -3.1330   23.2140  -30.8750 C   0  0  0  0  0  0  0  0  0  0  0  0
   -3.8470   22.2660  -31.5990 C   0  0  0  0  0  0  0  0  0  0  0  0
   -5.2140   22.4440  -31.8620 C   0  0  0  0  0  0  0  0  0  0  0  0
   -5.9290   21.3730  -32.6560 C   0  0  0  0  0  0  0  0  0  0  0  0
   -4.9950   20.2440  -32.9870 C   0  0  0  0  0  0  0  0  0  0  0  0
   -3.7840   20.4190  -33.5660 N   0  0  0  0  0  0  0  0  0  0  0  0
   -3.2950   19.1660  -33.7350 C   0  0  0  0  0  0  0  0  0  0  0  0
   -1.9610   18.9030  -34.3180 C   0  0  0  0  0  0  0  0  0  0  0  0
   -1.5990   17.5970  -34.6870 C   0  0  0  0  0  0  0  0  0  0  0  0
   -0.3290   17.3370  -35.2110 C   0  0  0  0  0  0  0  0  0  0  0  0
    0.5930   18.3750  -35.3580 C   0  0  0  0  0  0  0  0  0  0  0  0
    0.2510   19.6740  -34.9780 C   0  0  0  0  0  0  0  0  0  0  0  0
   -1.0210   19.9450  -34.4520 C   0  0  0  0  0  0  0  0  0  0  0  0
   -1.3570   21.2460  -34.0790 O   0  0  0  0  0  0  0  0  0  0  0  0
   -4.1620   18.2210  -33.3050 N   0  0  0  0  0  0  0  0  0  0  0  0
   -4.1030   16.8620  -33.3540 C   0  0  0  0  0  0  0  0  0  0  0  0
   -5.1900   16.1310  -32.8560 C   0  0  0  0  0  0  0  0  0  0  0  0
   -6.3080   16.8120  -32.3420 C   0  0  0  0  0  0  0  0  0  0  0  0
   -6.3420   18.2140  -32.3350 C   0  0  0  0  0  0  0  0  0  0  0  0
   -5.2270   18.8910  -32.8380 C   0  0  0  0  0  0  0  0  0  0  0  0
   -5.8840   23.5890  -31.3470 C   0  0  0  0  0  0  0  0  0  0  0  0
   -7.3700   23.7760  -31.5810 C   0  0  0  0  0  0  0  0  0  0  0  0
   -5.7845   25.8678  -29.0750 H   0  0  0  0  0  0  0  0  0  0  0  0
   -5.2144   26.7263  -30.5463 H   0  0  0  0  0  0  0  0  0  0  0  0
   -6.8142   25.9094  -30.5463 H   0  0  0  0  0  0  0  0  0  0  0  0
   -2.0655   23.0514  -30.6651 H   0  0  0  0  0  0  0  0  0  0  0  0
   -3.3346   21.3661  -31.9700 H   0  0  0  0  0  0  0  0  0  0  0  0
   -6.7694   20.9840  -32.0623 H   0  0  0  0  0  0  0  0  0  0  0  0
   -6.2962   21.8145  -33.5942 H   0  0  0  0  0  0  0  0  0  0  0  0
   -2.3185   16.7743  -34.5631 H   0  0  0  0  0  0  0  0  0  0  0  0
   -0.0560   16.3135  -35.5077 H   0  0  0  0  0  0  0  0  0  0  0  0
    1.5903   18.1690  -35.7738 H   0  0  0  0  0  0  0  0  0  0  0  0
    0.9818   20.4883  -35.0915 H   0  0  0  0  0  0  0  0  0  0  0  0
   -2.2300   21.6730  -34.3650 H   0  0  0  0  0  0  0  0  0  0  0  0
   -3.2243   16.3505  -33.7739 H   0  0  0  0  0  0  0  0  0  0  0  0
   -5.1689   15.0313  -32.8671 H   0  0  0  0  0  0  0  0  0  0  0  0
   -7.1602   16.2420  -31.9434 H   0  0  0  0  0  0  0  0  0  0  0  0
   -7.2142   18.7611  -31.9478 H   0  0  0  0  0  0  0  0  0  0  0  0
   -7.8883   23.8412  -30.6129 H   0  0  0  0  0  0  0  0  0  0  0  0
   -7.5379   24.7024  -32.1499 H   0  0  0  0  0  0  0  0  0  0  0  0
   -7.7622   22.9201  -32.1499 H   0  0  0  0  0  0  0  0  0  0  0  0
  1  2  1  0
  2  3  2  0
  3  4  1  0
  3  5  1  0
  5  6  2  0
  6  7  1  0
  7  8  1  0
  8  9  1  0
  9 10  1  0
 10 11  2  0
 11 12  1  0
 12 13  2  0
 13 14  1  0
 14 15  2  0
 15 16  1  0
 16 17  2  0
 17 18  1  0
 11 19  1  0
 19 20  1  0
 20 21  2  0
 21 22  1  0
 22 23  2  0
 23 24  1  0
  7 25  2  0
 25 26  1  0
 25  2  1  0
 24  9  2  0
 17 12  1  0
 24 19  1  0
  1 27  1  0
  1 28  1  0
  1 29  1  0
  5 30  1  0
  6 31  1  0
  8 32  1  0
  8 33  1  0
 13 34  1  0
 14 35  1  0
 15 36  1  0
 16 37  1  0
 18 38  1  0
 20 39  1  0
 21 40  1  0
 22 41  1  0
 23 42  1  0
 26 43  1  0
 26 44  1  0
 26 45  1  0
M  CHG  1   4  -1
M  END
>  <UniqueID>  (5) 
5

>  <SMILES>  (5) 
Cc1c([O-])ccc(Cc2nc(-c3ccccc3O)n3ccccc23)c1C

>  <Energy>  (5) 
94.25432415903211

>  <Genealogy>  (5) 
Cc1c([O-])ccc(Cc2nc(-c3ccccc3O)n3ccccc23)c1C (protonated)
Cc1c([O-])ccc(Cc2nc(-c3ccccc3O)n3ccccc23)c1C (3D coordinates assigned)
Cc1c([O-])ccc(Cc2nc(-c3ccccc3O)n3ccccc23)c1C (optimized conformer: 94.25432415903211 kcal/mol)

>  <smiles>  (5) 
Cc1c(O)ccc(Cc2nc(-c3ccccc3O)n3ccccc23)c1C

>  <score_type>  (5) 
oracle

>  <origin>  (5) 
adgpu

>  <m_score__min__energy>  (5) 
-11.4

>  <m_primary>  (5) 
energy

$$$$
5:0
     RDKit          3D

 56 59  0  0  0  0  0  0  0  0999 V2000
   -6.3660   25.4100  -30.0210 C   0  0  0  0  0  0  0  0  0  0  0  0
   -6.4790   24.7220  -31.2620 O   0  0  0  0  0  0  0  0  0  0  0  0
   -6.7170   23.3440  -31.3860 C   0  0  0  0  0  0  0  0  0  0  0  0
   -8.0230   22.8170  -31.4530 C   0  0  0  0  0  0  0  0  0  0  0  0
   -8.2250   21.4470  -31.6280 C   0  0  0  0  0  0  0  0  0  0  0  0
   -7.1300   20.5820  -31.7450 C   0  0  0  0  0  0  0  0  0  0  0  0
   -7.3690   18.8540  -32.0020 S   0  0  0  0  0  0  0  0  0  0  0  0
   -6.6870   18.1060  -30.8910 O   0  0  0  0  0  0  0  0  0  0  0  0
   -8.8370   18.5250  -31.9740 O   0  0  0  0  0  0  0  0  0  0  0  0
   -6.6890   18.3840  -33.5430 N   0  0  0  0  0  0  0  0  0  0  0  0
   -5.2750   18.8280  -33.6160 C   0  0  0  0  0  0  0  0  0  0  0  0
   -4.5050   18.0750  -34.7050 C   0  0  0  0  0  0  0  0  0  0  0  0
   -4.4560   16.5660  -34.4050 C   0  0  0  0  0  0  0  0  0  0  0  0
   -5.6250   16.0980  -33.5210 C   0  0  0  0  0  0  0  0  0  0  0  0
   -6.8880   16.9280  -33.7900 C   0  0  0  0  0  0  0  0  0  0  0  0
   -5.8310   21.0970  -31.6730 C   0  0  0  0  0  0  0  0  0  0  0  0
   -5.6190   22.4660  -31.4670 C   0  0  0  0  0  0  0  0  0  0  0  0
   -4.2730   22.9540  -31.4170 N   0  0  0  0  0  0  0  0  0  0  0  0
   -3.6730   23.6210  -30.3000 C   0  0  0  0  0  0  0  0  0  0  0  0
   -3.4750   24.8630  -30.3760 O   0  0  0  0  0  0  0  0  0  0  0  0
   -3.1440   22.8560  -29.1150 C   0  0  0  0  0  0  0  0  0  0  0  0
   -2.4360   23.7400  -28.1910 N   0  0  0  0  0  0  0  0  0  0  0  0
   -3.0460   24.5720  -27.1990 C   0  0  0  0  0  0  0  0  0  0  0  0
   -4.2900   24.7630  -27.1360 O   0  0  0  0  0  0  0  0  0  0  0  0
   -2.0810   25.1630  -26.2630 C   0  0  0  0  0  0  0  0  0  0  0  0
   -2.3510   26.0330  -25.2030 C   0  0  0  0  0  0  0  0  0  0  0  0
   -1.2790   26.4920  -24.4180 C   0  0  0  0  0  0  0  0  0  0  0  0
    0.0370   26.0780  -24.6980 C   0  0  0  0  0  0  0  0  0  0  0  0
    0.2930   25.2010  -25.7650 C   0  0  0  0  0  0  0  0  0  0  0  0
   -0.7820   24.7590  -26.5340 C   0  0  0  0  0  0  0  0  0  0  0  0
   -0.7360   23.6750  -27.8930 S   0  0  0  0  0  0  0  0  0  0  0  0
   -0.2890   22.2950  -27.5010 O   0  0  0  0  0  0  0  0  0  0  0  0
    0.0510   24.2270  -29.0480 O   0  0  0  0  0  0  0  0  0  0  0  0
   -6.4834   24.6950  -29.1934 H   0  0  0  0  0  0  0  0  0  0  0  0
   -5.3774   25.8878  -29.9553 H   0  0  0  0  0  0  0  0  0  0  0  0
   -7.1499   26.1789  -29.9553 H   0  0  0  0  0  0  0  0  0  0  0  0
   -8.8887   23.4901  -31.3668 H   0  0  0  0  0  0  0  0  0  0  0  0
   -9.2480   21.0454  -31.6742 H   0  0  0  0  0  0  0  0  0  0  0  0
   -7.2240   18.9080  -34.2740 H   0  0  0  0  0  0  0  0  0  0  0  0
   -5.2497   19.9046  -33.8400 H   0  0  0  0  0  0  0  0  0  0  0  0
   -4.7971   18.6178  -32.6478 H   0  0  0  0  0  0  0  0  0  0  0  0
   -5.0038   18.2331  -35.6726 H   0  0  0  0  0  0  0  0  0  0  0  0
   -3.4748   18.4594  -34.7343 H   0  0  0  0  0  0  0  0  0  0  0  0
   -4.4930   16.0165  -35.3572 H   0  0  0  0  0  0  0  0  0  0  0  0
   -3.5238   16.3665  -33.8561 H   0  0  0  0  0  0  0  0  0  0  0  0
   -5.8374   15.0404  -33.7365 H   0  0  0  0  0  0  0  0  0  0  0  0
   -5.3395   16.2279  -32.4667 H   0  0  0  0  0  0  0  0  0  0  0  0
   -7.1832   16.7874  -34.8403 H   0  0  0  0  0  0  0  0  0  0  0  0
   -7.6663   16.5789  -33.0955 H   0  0  0  0  0  0  0  0  0  0  0  0
   -4.9695   20.4213  -31.7790 H   0  0  0  0  0  0  0  0  0  0  0  0
   -3.9859   22.3844  -28.5870 H   0  0  0  0  0  0  0  0  0  0  0  0
   -2.4392   22.0935  -29.4780 H   0  0  0  0  0  0  0  0  0  0  0  0
   -3.3814   26.3521  -24.9874 H   0  0  0  0  0  0  0  0  0  0  0  0
   -1.4696   27.1787  -23.5801 H   0  0  0  0  0  0  0  0  0  0  0  0
    0.8691   26.4431  -24.0781 H   0  0  0  0  0  0  0  0  0  0  0  0
    1.3182   24.8707  -25.9884 H   0  0  0  0  0  0  0  0  0  0  0  0
  1  2  1  0
  2  3  1  0
  3  4  2  0
  4  5  1  0
  5  6  2  0
  6  7  1  0
  7  8  2  0
  7  9  2  0
  7 10  1  0
 10 11  1  0
 11 12  1  0
 12 13  1  0
 13 14  1  0
 14 15  1  0
  6 16  1  0
 16 17  2  0
 17 18  1  0
 18 19  1  0
 19 20  2  0
 19 21  1  0
 21 22  1  0
 22 23  1  0
 23 24  2  0
 23 25  1  0
 25 26  2  0
 26 27  1  0
 27 28  2  0
 28 29  1  0
 29 30  2  0
 30 31  1  0
 31 32  2  0
 31 33  2  0
 17  3  1  0
 31 22  1  0
 15 10  1  0
 30 25  1  0
  1 34  1  0
  1 35  1  0
  1 36  1  0
  4 37  1  0
  5 38  1  0
 10 39  1  0
 11 40  1  0
 11 41  1  0
 12 42  1  0
 12 43  1  0
 13 44  1  0
 13 45  1  0
 14 46  1  0
 14 47  1  0
 15 48  1  0
 15 49  1  0
 16 50  1  0
 21 51  1  0
 21 52  1  0
 26 53  1  0
 27 54  1  0
 28 55  1  0
 29 56  1  0
M  CHG  2  10   1  18  -1
M  END
>  <UniqueID>  (6) 
6

>  <SMILES>  (6) 
COc1ccc(S(=O)(=O)[NH+]2CCCCC2)cc1[N-]C(=O)CN1C(=O)c2ccccc2S1(=O)=O

>  <Energy>  (6) 
90.48670216517458

>  <Genealogy>  (6) 
COc1ccc(S(=O)(=O)[NH+]2CCCCC2)cc1[N-]C(=O)CN1C(=O)c2ccccc2S1(=O)=O (protonated)
COc1ccc(S(=O)(=O)[NH+]2CCCCC2)cc1[N-]C(=O)CN1C(=O)c2ccccc2S1(=O)=O (3D coordinates assigned)
COc1ccc(S(=O)(=O)[NH+]2CCCCC2)cc1[N-]C(=O)CN1C(=O)c2ccccc2S1(=O)=O (nonaromatic ring conformer: 90.48670216517458 kcal/mol)

>  <smiles>  (6) 
COc1ccc(S(=O)(=O)N2CCCCC2)cc1NC(=O)CN1C(=O)c2ccccc2S1(=O)=O

>  <score_type>  (6) 
oracle

>  <origin>  (6) 
adgpu

>  <m_score__min__energy>  (6) 
-11.35

>  <m_primary>  (6) 
energy

$$$$
6:0
     RDKit          3D

 53 56  0  0  0  0  0  0  0  0999 V2000
   -6.2820   18.2410  -31.2780 C   0  0  0  0  0  0  0  0  0  0  0  0
   -6.9250   19.1810  -32.6440 S   0  0  0  0  0  0  0  0  0  0  0  0
   -5.9510   19.1120  -33.7860 O   0  0  0  0  0  0  0  0  0  0  0  0
   -8.2310   18.5920  -33.0990 O   0  0  0  0  0  0  0  0  0  0  0  0
   -7.1520   20.8650  -32.1530 C   0  0  0  0  0  0  0  0  0  0  0  0
   -8.4590   21.3540  -31.9960 C   0  0  0  0  0  0  0  0  0  0  0  0
   -8.6810   22.6710  -31.5900 C   0  0  0  0  0  0  0  0  0  0  0  0
   -7.6010   23.5180  -31.3450 C   0  0  0  0  0  0  0  0  0  0  0  0
   -6.2960   23.0510  -31.5060 C   0  0  0  0  0  0  0  0  0  0  0  0
   -6.0560   21.7230  -31.9020 C   0  0  0  0  0  0  0  0  0  0  0  0
   -4.7060   21.2760  -32.1090 N   0  0  0  0  0  0  0  0  0  0  0  0
   -3.6410   21.5270  -31.1810 C   0  0  0  0  0  0  0  0  0  0  0  0
   -2.0980   21.5630  -31.7470 S   0  0  0  0  0  0  0  0  0  0  0  0
   -3.9240   21.7200  -29.7800 N   0  0  0  0  0  0  0  0  0  0  0  0
   -2.9200   22.0250  -28.8030 C   0  0  0  0  0  0  0  0  0  0  0  0
   -2.6030   21.0810  -27.8160 C   0  0  0  0  0  0  0  0  0  0  0  0
   -3.2690   19.8550  -27.7890 O   0  0  0  0  0  0  0  0  0  0  0  0
   -1.6280   21.3750  -26.8550 C   0  0  0  0  0  0  0  0  0  0  0  0
   -0.9670   22.6040  -26.8770 C   0  0  0  0  0  0  0  0  0  0  0  0
   -1.2590   23.5470  -27.8740 C   0  0  0  0  0  0  0  0  0  0  0  0
   -0.4350   25.1090  -27.8870 S   0  0  0  0  0  0  0  0  0  0  0  0
    1.0260   24.9240  -28.1860 O   0  0  0  0  0  0  0  0  0  0  0  0
   -1.0530   25.9500  -28.9710 O   0  0  0  0  0  0  0  0  0  0  0  0
   -0.5960   25.9180  -26.3210 C   0  0  0  0  0  0  0  0  0  0  0  0
   -0.7040   25.1520  -25.1490 C   0  0  0  0  0  0  0  0  0  0  0  0
   -0.8390   25.7700  -23.9030 C   0  0  0  0  0  0  0  0  0  0  0  0
   -0.8540   27.1630  -23.8060 C   0  0  0  0  0  0  0  0  0  0  0  0
   -0.7260   27.9460  -24.9610 C   0  0  0  0  0  0  0  0  0  0  0  0
   -0.7230   29.3460  -24.8860 C   0  0  0  0  0  0  0  0  0  0  0  0
   -0.5850   30.1040  -26.0490 C   0  0  0  0  0  0  0  0  0  0  0  0
   -0.4520   29.4560  -27.2780 C   0  0  0  0  0  0  0  0  0  0  0  0
   -0.4580   28.0980  -27.3380 N   0  0  0  0  0  0  0  0  0  0  0  0
   -0.5930   27.3250  -26.2260 C   0  0  0  0  0  0  0  0  0  0  0  0
   -2.2250   23.2470  -28.8490 C   0  0  0  0  0  0  0  0  0  0  0  0
   -2.4940   24.1570  -29.8690 O   0  0  0  0  0  0  0  0  0  0  0  0
   -6.5992   18.7047  -30.3323 H   0  0  0  0  0  0  0  0  0  0  0  0
   -6.6659   17.2114  -31.3284 H   0  0  0  0  0  0  0  0  0  0  0  0
   -5.1833   18.2256  -31.3284 H   0  0  0  0  0  0  0  0  0  0  0  0
   -9.3157   20.6932  -32.1948 H   0  0  0  0  0  0  0  0  0  0  0  0
   -9.7091   23.0409  -31.4632 H   0  0  0  0  0  0  0  0  0  0  0  0
   -7.7778   24.5553  -31.0245 H   0  0  0  0  0  0  0  0  0  0  0  0
   -5.4480   23.7270  -31.3217 H   0  0  0  0  0  0  0  0  0  0  0  0
   -4.4750   20.7920  -33.0050 H   0  0  0  0  0  0  0  0  0  0  0  0
   -4.9180   21.7430  -29.4600 H   0  0  0  0  0  0  0  0  0  0  0  0
   -3.8940   19.6080  -27.0320 H   0  0  0  0  0  0  0  0  0  0  0  0
   -1.3821   20.6344  -26.0797 H   0  0  0  0  0  0  0  0  0  0  0  0
   -0.2137   22.8344  -26.1092 H   0  0  0  0  0  0  0  0  0  0  0  0
   -0.6821   24.0541  -25.2124 H   0  0  0  0  0  0  0  0  0  0  0  0
   -0.9338   25.1567  -22.9948 H   0  0  0  0  0  0  0  0  0  0  0  0
   -0.9662   27.6452  -22.8237 H   0  0  0  0  0  0  0  0  0  0  0  0
   -0.8293   29.8458  -23.9119 H   0  0  0  0  0  0  0  0  0  0  0  0
   -0.5810   31.2028  -25.9979 H   0  0  0  0  0  0  0  0  0  0  0  0
   -0.3421   30.0455  -28.2001 H   0  0  0  0  0  0  0  0  0  0  0  0
  1  2  1  0
  2  3  2  0
  2  4  2  0
  2  5  1  0
  5  6  2  0
  6  7  1  0
  7  8  2  0
  8  9  1  0
  9 10  2  0
 10 11  1  0
 11 12  1  0
 12 13  2  0
 12 14  1  0
 14 15  1  0
 15 16  2  0
 16 17  1  0
 16 18  1  0
 18 19  2  0
 19 20  1  0
 20 21  1  0
 21 22  2  0
 21 23  2  0
 21 24  1  0
 24 25  2  0
 25 26  1  0
 26 27  2  0
 27 28  1  0
 28 29  2  0
 29 30  1  0
 30 31  2  0
 31 32  1  0
 32 33  2  0
 20 34  2  0
 34 35  1  0
 10  5  1  0
 34 15  1  0
 33 24  1  0
 33 28  1  0
  1 36  1  0
  1 37  1  0
  1 38  1  0
  6 39  1  0
  7 40  1  0
  8 41  1  0
  9 42  1  0
 11 43  1  0
 14 44  1  0
 17 45  1  0
 18 46  1  0
 19 47  1  0
 25 48  1  0
 26 49  1  0
 27 50  1  0
 29 51  1  0
 30 52  1  0
 31 53  1  0
M  CHG  1  35  -1
M  END
>  <UniqueID>  (7) 
7

>  <SMILES>  (7) 
CS(=O)(=O)c1ccccc1NC(=S)Nc1c(O)ccc(S(=O)(=O)c2cccc3cccnc23)c1[O-]

>  <Energy>  (7) 
74.46880635146283

>  <Genealogy>  (7) 
CS(=O)(=O)c1ccccc1NC(=S)Nc1c(O)ccc(S(=O)(=O)c2cccc3cccnc23)c1[O-] (protonated)
CS(=O)(=O)c1ccccc1NC(=S)Nc1c(O)ccc(S(=O)(=O)c2cccc3cccnc23)c1[O-] (3D coordinates assigned)
CS(=O)(=O)c1ccccc1NC(=S)Nc1c(O)ccc(S(=O)(=O)c2cccc3cccnc23)c1[O-] (optimized conformer: 74.46880635146283 kcal/mol)

>  <smiles>  (7) 
CS(=O)(=O)c1ccccc1NC(=S)Nc1c(O)ccc(S(=O)(=O)c2cccc3cccnc23)c1O

>  <score_type>  (7) 
oracle

>  <origin>  (7) 
adgpu

>  <m_score__min__energy>  (7) 
-12.83

>  <m_primary>  (7) 
energy

$$$$
7:0
     RDKit          3D

 41 43  0  0  0  0  0  0  0  0999 V2000
   -6.4930   26.8450  -29.9340 H   0  0  0  0  0  0  0  0  0  0  0  0
   -5.5550   26.4130  -30.0930 N   0  0  0  0  0  0  0  0  0  0  0  0
   -5.4340   25.1890  -30.4910 C   0  0  0  0  0  0  0  0  0  0  0  0
   -4.1990   24.6620  -30.6840 N   0  0  0  0  0  0  0  0  0  0  0  0
   -4.0270   23.3770  -31.0920 C   0  0  0  0  0  0  0  0  0  0  0  0
   -2.7160   22.9050  -31.2350 O   0  0  0  0  0  0  0  0  0  0  0  0
   -2.0910   21.9400  -30.4230 C   0  0  0  0  0  0  0  0  0  0  0  0
   -1.2210   21.0170  -31.0420 C   0  0  0  0  0  0  0  0  0  0  0  0
   -0.8940   21.1300  -32.5070 C   0  0  0  0  0  0  0  0  0  0  0  0
    0.1396   21.4872  -32.6255 H   0  0  0  0  0  0  0  0  0  0  0  0
   -0.9980   20.1438  -32.9830 H   0  0  0  0  0  0  0  0  0  0  0  0
   -1.5847   21.8416  -32.9830 H   0  0  0  0  0  0  0  0  0  0  0  0
   -0.6000   20.0180  -30.2790 C   0  0  0  0  0  0  0  0  0  0  0  0
    0.0830   19.3054  -30.7646 H   0  0  0  0  0  0  0  0  0  0  0  0
   -0.8420   19.9210  -28.9080 C   0  0  0  0  0  0  0  0  0  0  0  0
   -0.2150   18.8780  -28.1380 C   0  0  0  0  0  0  0  0  0  0  0  0
    0.2900   18.0410  -27.5200 N   0  0  0  0  0  0  0  0  0  0  0  0
   -1.6700   20.8530  -28.2790 C   0  0  0  0  0  0  0  0  0  0  0  0
   -1.8517   20.7760  -27.1969 H   0  0  0  0  0  0  0  0  0  0  0  0
   -2.2730   21.8870  -29.0120 C   0  0  0  0  0  0  0  0  0  0  0  0
   -3.0720   22.9210  -28.2640 C   0  0  0  0  0  0  0  0  0  0  0  0
   -2.9515   22.7651  -27.1818 H   0  0  0  0  0  0  0  0  0  0  0  0
   -2.7134   23.9258  -28.5319 H   0  0  0  0  0  0  0  0  0  0  0  0
   -4.1348   22.8275  -28.5319 H   0  0  0  0  0  0  0  0  0  0  0  0
   -5.1620   22.5820  -31.3720 C   0  0  0  0  0  0  0  0  0  0  0  0
   -5.0480   20.9530  -32.0570 S   0  0  0  0  0  0  0  0  0  0  0  0
   -4.5170   21.0220  -33.4600 O   0  0  0  0  0  0  0  0  0  0  0  0
   -4.1280   20.1060  -31.2240 O   0  0  0  0  0  0  0  0  0  0  0  0
   -6.6300   20.1880  -32.1310 C   0  0  0  0  0  0  0  0  0  0  0  0
   -7.7290   20.9460  -32.3940 N   0  0  0  0  0  0  0  0  0  0  0  0
   -8.9760   20.4050  -32.4480 C   0  0  0  0  0  0  0  0  0  0  0  0
   -9.8440   21.0454  -32.6635 H   0  0  0  0  0  0  0  0  0  0  0  0
   -9.1550   19.0370  -32.2300 C   0  0  0  0  0  0  0  0  0  0  0  0
  -10.1607   18.5937  -32.2746 H   0  0  0  0  0  0  0  0  0  0  0  0
   -8.0440   18.2390  -31.9550 C   0  0  0  0  0  0  0  0  0  0  0  0
   -8.1701   17.1604  -31.7795 H   0  0  0  0  0  0  0  0  0  0  0  0
   -6.7720   18.8120  -31.9030 C   0  0  0  0  0  0  0  0  0  0  0  0
   -5.8908   18.1906  -31.6855 H   0  0  0  0  0  0  0  0  0  0  0  0
   -6.4250   23.1470  -31.1430 C   0  0  0  0  0  0  0  0  0  0  0  0
   -7.3312   22.5474  -31.3140 H   0  0  0  0  0  0  0  0  0  0  0  0
   -6.5360   24.4280  -30.7120 N   0  0  0  0  0  0  0  0  0  0  0  0
  1  2  1  0
  2  3  2  0
  3  4  1  0
  4  5  2  0
  5  6  1  0
  6  7  1  0
  7  8  2  0
  8  9  1  0
  9 10  1  0
  9 11  1  0
  9 12  1  0
  8 13  1  0
 13 14  1  0
 13 15  2  0
 15 16  1  0
 16 17  3  0
 15 18  1  0
 18 19  1  0
 18 20  2  0
 20 21  1  0
 21 22  1  0
 21 23  1  0
 21 24  1  0
  5 25  1  0
 25 26  1  0
 26 27  2  0
 26 28  2  0
 26 29  1  0
 29 30  2  0
 30 31  1  0
 31 32  1  0
 31 33  2  0
 33 34  1  0
 33 35  1  0
 35 36  1  0
 35 37  2  0
 37 38  1  0
 25 39  2  0
 39 40  1  0
 39 41  1  0
 41  3  1  0
 20  7  1  0
 37 29  1  0
M  CHG  1  41  -1
M  END
>  <UniqueID>  (8) 
8

>  <SMILES>  (8) 
[H]/N=c1/nc(Oc2c(C)cc(C#N)cc2C)c(S(=O)(=O)c2ccccn2)c[n-]1

>  <Energy>  (8) 
58.67539089962269

>  <Genealogy>  (8) 
Cc1cc(C#N)cc(C)c1Oc1nc(=N)[n-]cc1S(=O)(=O)c1ccccn1 (protonated)
[H]/N=c1/nc(Oc2c(C)cc(C#N)cc2C)c(S(=O)(=O)c2ccccn2)c[n-]1 (cis-trans isomerization)
[H]/N=c1/nc(Oc2c(C)cc(C#N)cc2C)c(S(=O)(=O)c2ccccn2)c[n-]1 (3D coordinates assigned)
[H]/N=c1/nc(Oc2c(C)cc(C#N)cc2C)c(S(=O)(=O)c2ccccn2)c[n-]1 (optimized conformer: 58.67539089962269 kcal/mol)

>  <smiles>  (8) 
Cc1cc(C#N)cc(C)c1Oc1nc(=N)[nH]cc1S(=O)(=O)c1ccccn1

>  <score_type>  (8) 
oracle

>  <origin>  (8) 
adgpu

>  <m_score__min__energy>  (8) 
-9.5299999999999994

>  <m_primary>  (8) 
energy

$$$$
8:0
     RDKit          3D

 41 43  0  0  0  0  0  0  0  0999 V2000
   -0.1487   22.5980  -31.6518 H   0  0  0  0  0  0  0  0  0  0  0  0
   -0.8770   21.9080  -32.1030 C   0  0  0  0  0  0  0  0  0  0  0  0
   -2.1680   21.7820  -31.5690 C   0  0  0  0  0  0  0  0  0  0  0  0
   -2.5850   22.5470  -30.4170 N   0  0  0  0  0  0  0  0  0  0  0  0
   -3.8420   23.2470  -30.4090 C   0  0  0  0  0  0  0  0  0  0  0  0
   -5.0270   22.5690  -30.7440 C   0  0  0  0  0  0  0  0  0  0  0  0
   -4.9911   21.5025  -31.0112 H   0  0  0  0  0  0  0  0  0  0  0  0
   -6.2500   23.2440  -30.7390 C   0  0  0  0  0  0  0  0  0  0  0  0
   -7.1740   22.7087  -31.0031 H   0  0  0  0  0  0  0  0  0  0  0  0
   -6.3010   24.5980  -30.3990 C   0  0  0  0  0  0  0  0  0  0  0  0
   -7.2646   25.1285  -30.3973 H   0  0  0  0  0  0  0  0  0  0  0  0
   -5.1280   25.2790  -30.0610 C   0  0  0  0  0  0  0  0  0  0  0  0
   -5.1701   26.3452  -29.7936 H   0  0  0  0  0  0  0  0  0  0  0  0
   -3.9010   24.6080  -30.0620 C   0  0  0  0  0  0  0  0  0  0  0  0
   -2.7440   25.2950  -29.7060 O   0  0  0  0  0  0  0  0  0  0  0  0
   -1.6300   22.7980  -29.3350 C   0  0  0  0  0  0  0  0  0  0  0  0
   -2.1318   22.6661  -28.3651 H   0  0  0  0  0  0  0  0  0  0  0  0
   -0.7922   22.0895  -29.4137 H   0  0  0  0  0  0  0  0  0  0  0  0
   -1.2488   23.8268  -29.4137 H   0  0  0  0  0  0  0  0  0  0  0  0
   -3.0470   20.9310  -32.1690 N   0  0  0  0  0  0  0  0  0  0  0  0
   -2.6980   20.1850  -33.2520 C   0  0  0  0  0  0  0  0  0  0  0  0
   -3.5520   19.3890  -33.8270 N   0  0  0  0  0  0  0  0  0  0  0  0
   -4.8940   19.1060  -33.3920 C   0  0  0  0  0  0  0  0  0  0  0  0
   -5.1640   17.8560  -32.8210 C   0  0  0  0  0  0  0  0  0  0  0  0
   -4.3596   17.1109  -32.7328 H   0  0  0  0  0  0  0  0  0  0  0  0
   -6.4490   17.5480  -32.3620 C   0  0  0  0  0  0  0  0  0  0  0  0
   -6.6560   16.5574  -31.9309 H   0  0  0  0  0  0  0  0  0  0  0  0
   -7.4720   18.5000  -32.4510 C   0  0  0  0  0  0  0  0  0  0  0  0
   -8.7930   18.1840  -31.9760 C   0  0  0  0  0  0  0  0  0  0  0  0
   -9.8560   17.9310  -31.5940 N   0  0  0  0  0  0  0  0  0  0  0  0
   -7.2020   19.7630  -32.9890 C   0  0  0  0  0  0  0  0  0  0  0  0
   -8.0020   20.5155  -33.0512 H   0  0  0  0  0  0  0  0  0  0  0  0
   -5.9170   20.0710  -33.4480 C   0  0  0  0  0  0  0  0  0  0  0  0
   -5.7053   21.0711  -33.8542 H   0  0  0  0  0  0  0  0  0  0  0  0
   -1.4490   20.3020  -33.7700 N   0  0  0  0  0  0  0  0  0  0  0  0
   -0.5340   21.1410  -33.2180 C   0  0  0  0  0  0  0  0  0  0  0  0
    1.1040   21.2650  -33.9310 S   0  0  0  0  0  0  0  0  0  0  0  0
    0.4870   21.8670  -35.5330 C   0  0  0  0  0  0  0  0  0  0  0  0
   -0.2910   22.6261  -35.3645 H   0  0  0  0  0  0  0  0  0  0  0  0
    1.3167   22.3123  -36.1016 H   0  0  0  0  0  0  0  0  0  0  0  0
    0.0623   21.0266  -36.1016 H   0  0  0  0  0  0  0  0  0  0  0  0
  1  2  1  0
  2  3  1  0
  3  4  1  0
  4  5  1  0
  5  6  2  0
  6  7  1  0
  6  8  1  0
  8  9  1  0
  8 10  2  0
 10 11  1  0
 10 12  1  0
 12 13  1  0
 12 14  2  0
 14 15  1  0
  4 16  1  0
 16 17  1  0
 16 18  1  0
 16 19  1  0
  3 20  2  0
 20 21  1  0
 21 22  2  0
 22 23  1  0
 23 24  2  0
 24 25  1  0
 24 26  1  0
 26 27  1  0
 26 28  2  0
 28 29  1  0
 29 30  3  0
 28 31  1  0
 31 32  1  0
 31 33  2  0
 33 34  1  0
 21 35  1  0
 35 36  1  0
 36 37  1  0
 37 38  1  0
 38 39  1  0
 38 40  1  0
 38 41  1  0
 36  2  2  0
 14  5  1  0
 33 23  1  0
M  CHG  2  15  -1  35  -1
M  END
>  <UniqueID>  (9) 
9

>  <SMILES>  (9) 
CSc1cc(N(C)c2ccccc2[O-])n/c(=N\c2ccc(C#N)cc2)[n-]1

>  <Energy>  (9) 
52.48896302101604

>  <Genealogy>  (9) 
CSc1cc(N(C)c2ccccc2[O-])nc(=Nc2ccc(C#N)cc2)[n-]1 (protonated)
CSc1cc(N(C)c2ccccc2[O-])n/c(=N\c2ccc(C#N)cc2)[n-]1 (cis-trans isomerization)
CSc1cc(N(C)c2ccccc2[O-])n/c(=N\c2ccc(C#N)cc2)[n-]1 (3D coordinates assigned)
CSc1cc(N(C)c2ccccc2[O-])n/c(=N\c2ccc(C#N)cc2)[n-]1 (optimized conformer: 52.48896302101604 kcal/mol)

>  <smiles>  (9) 
CSc1cc(N(C)c2ccccc2O)nc(=Nc2ccc(C#N)cc2)[nH]1

>  <score_type>  (9) 
oracle

>  <origin>  (9) 
adgpu

>  <m_score__min__energy>  (9) 
-11.49

>  <m_primary>  (9) 
energy

$$$$
9:0
     RDKit          3D

 44 46  0  0  0  0  0  0  0  0999 V2000
   -1.2820   21.7990  -26.5620 C   0  0  0  0  0  0  0  0  0  0  0  0
   -1.9460   22.7550  -27.5190 C   0  0  0  0  0  0  0  0  0  0  0  0
   -3.1330   22.3520  -28.1490 C   0  0  0  0  0  0  0  0  0  0  0  0
   -3.7660   23.1800  -29.0730 C   0  0  0  0  0  0  0  0  0  0  0  0
   -3.2230   24.4240  -29.3930 C   0  0  0  0  0  0  0  0  0  0  0  0
   -3.8580   25.2160  -30.4050 N   0  0  0  0  0  0  0  0  0  0  0  0
   -5.1830   24.9740  -30.8870 C   0  0  0  0  0  0  0  0  0  0  0  0
   -6.1370   25.6520  -30.4230 O   0  0  0  0  0  0  0  0  0  0  0  0
   -5.4250   23.8870  -31.7960 N   0  0  0  0  0  0  0  0  0  0  0  0
   -6.3370   22.9580  -31.7280 C   0  0  0  0  0  0  0  0  0  0  0  0
   -7.3560   22.9540  -30.7510 C   0  0  0  0  0  0  0  0  0  0  0  0
   -8.3140   21.9380  -30.7630 C   0  0  0  0  0  0  0  0  0  0  0  0
   -8.2630   20.9430  -31.7400 C   0  0  0  0  0  0  0  0  0  0  0  0
   -7.2530   20.9820  -32.6980 C   0  0  0  0  0  0  0  0  0  0  0  0
   -6.3290   21.9790  -32.6730 N   0  0  0  0  0  0  0  0  0  0  0  0
   -2.0810   24.8830  -28.7090 C   0  0  0  0  0  0  0  0  0  0  0  0
   -1.6100   26.1670  -28.9600 O   0  0  0  0  0  0  0  0  0  0  0  0
   -1.4280   24.0530  -27.7700 C   0  0  0  0  0  0  0  0  0  0  0  0
    0.0620   24.6160  -26.9720 S   0  0  0  0  0  0  0  0  0  0  0  0
    0.3900   23.7560  -25.7830 O   0  0  0  0  0  0  0  0  0  0  0  0
    1.2090   24.5110  -27.9390 O   0  0  0  0  0  0  0  0  0  0  0  0
   -0.1580   26.2810  -26.4760 N   0  0  0  0  0  0  0  0  0  0  0  0
   -1.5270   26.5370  -25.9770 C   0  0  0  0  0  0  0  0  0  0  0  0
   -1.6160   26.5200  -24.4390 C   0  0  0  0  0  0  0  0  0  0  0  0
   -0.6710   25.6210  -23.9040 O   0  0  0  0  0  0  0  0  0  0  0  0
    0.6420   26.1160  -24.1030 C   0  0  0  0  0  0  0  0  0  0  0  0
    0.8750   26.7060  -25.5140 C   0  0  0  0  0  0  0  0  0  0  0  0
   -1.4962   22.1073  -25.5280 H   0  0  0  0  0  0  0  0  0  0  0  0
   -1.6702   20.7835  -26.7297 H   0  0  0  0  0  0  0  0  0  0  0  0
   -0.1949   21.8083  -26.7297 H   0  0  0  0  0  0  0  0  0  0  0  0
   -3.5689   21.3706  -27.9104 H   0  0  0  0  0  0  0  0  0  0  0  0
   -4.6994   22.8508  -29.5530 H   0  0  0  0  0  0  0  0  0  0  0  0
   -7.3951   23.7443  -29.9869 H   0  0  0  0  0  0  0  0  0  0  0  0
   -9.1086   21.9221  -30.0025 H   0  0  0  0  0  0  0  0  0  0  0  0
   -9.0118   20.1373  -31.7533 H   0  0  0  0  0  0  0  0  0  0  0  0
   -7.2028   20.2055  -33.4755 H   0  0  0  0  0  0  0  0  0  0  0  0
   -1.8532   27.5240  -26.3368 H   0  0  0  0  0  0  0  0  0  0  0  0
   -2.1728   25.7305  -26.3545 H   0  0  0  0  0  0  0  0  0  0  0  0
   -1.4150   27.5301  -24.0527 H   0  0  0  0  0  0  0  0  0  0  0  0
   -2.6248   26.1969  -24.1426 H   0  0  0  0  0  0  0  0  0  0  0  0
    0.8323   26.9050  -23.3605 H   0  0  0  0  0  0  0  0  0  0  0  0
    1.3280   25.2632  -23.9930 H   0  0  0  0  0  0  0  0  0  0  0  0
    0.8635   27.8038  -25.4447 H   0  0  0  0  0  0  0  0  0  0  0  0
    1.8453   26.3364  -25.8771 H   0  0  0  0  0  0  0  0  0  0  0  0
  1  2  1  0
  2  3  2  0
  3  4  1  0
  4  5  2  0
  5  6  1  0
  6  7  1  0
  7  8  2  0
  7  9  1  0
  9 10  2  3
 10 11  1  0
 11 12  2  0
 12 13  1  0
 13 14  2  0
 14 15  1  0
  5 16  1  0
 16 17  1  0
 16 18  2  0
 18 19  1  0
 19 20  2  0
 19 21  2  0
 19 22  1  0
 22 23  1  0
 23 24  1  0
 24 25  1  0
 25 26  1  0
 26 27  1  0
 18  2  1  0
 27 22  1  0
 15 10  1  0
  1 28  1  0
  1 29  1  0
  1 30  1  0
  3 31  1  0
  4 32  1  0
 11 33  1  0
 12 34  1  0
 13 35  1  0
 14 36  1  0
 23 37  1  0
 23 38  1  0
 24 39  1  0
 24 40  1  0
 26 41  1  0
 26 42  1  0
 27 43  1  0
 27 44  1  0
M  CHG  3   6  -1  15  -1  17  -1
M  END
>  <UniqueID>  (10) 
10

>  <SMILES>  (10) 
Cc1ccc([N-]C(=O)N=c2cccc[n-]2)c([O-])c1S(=O)(=O)N1CCOCC1

>  <Energy>  (10) 
71.38676060566488

>  <Genealogy>  (10) 
Cc1ccc([N-]C(=O)N=c2cccc[n-]2)c([O-])c1S(=O)(=O)N1CCOCC1 (protonated)
Cc1ccc([N-]C(=O)N=c2cccc[n-]2)c([O-])c1S(=O)(=O)N1CCOCC1 (3D coordinates assigned)
Cc1ccc([N-]C(=O)N=c2cccc[n-]2)c([O-])c1S(=O)(=O)N1CCOCC1 (nonaromatic ring conformer: 71.38676060566488 kcal/mol)

>  <smiles>  (10) 
Cc1ccc(NC(=O)N=c2cccc[nH]2)c(O)c1S(=O)(=O)N1CCOCC1

>  <score_type>  (10) 
oracle

>  <origin>  (10) 
adgpu

>  <m_score__min__energy>  (10) 
-13.380000000000001

>  <m_primary>  (10) 
energy

$$$$
10:0
     RDKit          3D

 51 53  0  0  0  0  0  0  0  0999 V2000
   -2.3300   24.3980  -28.9550 C   0  0  0  0  0  0  0  0  0  0  0  0
   -3.1290   24.9270  -30.0070 O   0  0  0  0  0  0  0  0  0  0  0  0
   -4.4470   24.5310  -30.2840 C   0  0  0  0  0  0  0  0  0  0  0  0
   -5.5570   25.2410  -29.7870 C   0  0  0  0  0  0  0  0  0  0  0  0
   -6.8560   24.8190  -30.0780 C   0  0  0  0  0  0  0  0  0  0  0  0
   -7.0650   23.6890  -30.8630 C   0  0  0  0  0  0  0  0  0  0  0  0
   -5.9750   22.9730  -31.3610 C   0  0  0  0  0  0  0  0  0  0  0  0
   -4.6620   23.3880  -31.0800 C   0  0  0  0  0  0  0  0  0  0  0  0
   -3.4940   22.6140  -31.6390 C   0  0  0  0  0  0  0  0  0  0  0  0
   -2.8480   21.8160  -30.5950 N   0  0  0  0  0  0  0  0  0  0  0  0
   -1.5740   20.8250  -31.2450 S   0  0  0  0  0  0  0  0  0  0  0  0
   -0.9750   20.0110  -30.1330 O   0  0  0  0  0  0  0  0  0  0  0  0
   -0.4910   21.6900  -31.8300 O   0  0  0  0  0  0  0  0  0  0  0  0
   -2.2140   19.7310  -32.4700 C   0  0  0  0  0  0  0  0  0  0  0  0
   -1.3910   19.3060  -33.5160 C   0  0  0  0  0  0  0  0  0  0  0  0
   -1.8790   18.4150  -34.4730 C   0  0  0  0  0  0  0  0  0  0  0  0
   -3.1910   17.9240  -34.3930 C   0  0  0  0  0  0  0  0  0  0  0  0
   -3.6410   16.9940  -35.3890 N   0  0  0  0  0  0  0  0  0  0  0  0
   -4.0290   18.3520  -33.3350 C   0  0  0  0  0  0  0  0  0  0  0  0
   -5.6990   17.7880  -33.1850 S   0  0  0  0  0  0  0  0  0  0  0  0
   -6.3010   17.6760  -34.5580 O   0  0  0  0  0  0  0  0  0  0  0  0
   -5.7350   16.4330  -32.5300 O   0  0  0  0  0  0  0  0  0  0  0  0
   -6.6140   18.9220  -32.2180 N   0  0  0  0  0  0  0  0  0  0  0  0
   -7.6940   18.2400  -31.4690 C   0  0  0  0  0  0  0  0  0  0  0  0
   -9.0940   18.6620  -31.9430 C   0  0  0  0  0  0  0  0  0  0  0  0
   -9.2920   20.0630  -31.8640 O   0  0  0  0  0  0  0  0  0  0  0  0
   -8.1830   20.8230  -32.3260 C   0  0  0  0  0  0  0  0  0  0  0  0
   -7.1010   20.0200  -33.0670 C   0  0  0  0  0  0  0  0  0  0  0  0
   -3.5300   19.2570  -32.3850 C   0  0  0  0  0  0  0  0  0  0  0  0
   -2.7634   24.6850  -27.9856 H   0  0  0  0  0  0  0  0  0  0  0  0
   -2.3003   23.3012  -29.0331 H   0  0  0  0  0  0  0  0  0  0  0  0
   -1.3087   24.7989  -29.0331 H   0  0  0  0  0  0  0  0  0  0  0  0
   -5.3997   26.1345  -29.1650 H   0  0  0  0  0  0  0  0  0  0  0  0
   -7.7163   25.3812  -29.6857 H   0  0  0  0  0  0  0  0  0  0  0  0
   -8.0895   23.3599  -31.0912 H   0  0  0  0  0  0  0  0  0  0  0  0
   -6.1449   22.0780  -31.9775 H   0  0  0  0  0  0  0  0  0  0  0  0
   -3.8534   21.9439  -32.4339 H   0  0  0  0  0  0  0  0  0  0  0  0
   -2.7596   23.3276  -32.0408 H   0  0  0  0  0  0  0  0  0  0  0  0
   -0.3568   19.6742  -33.5854 H   0  0  0  0  0  0  0  0  0  0  0  0
   -1.2277   18.0940  -35.2993 H   0  0  0  0  0  0  0  0  0  0  0  0
   -2.9800   16.6450  -36.1180 H   0  0  0  0  0  0  0  0  0  0  0  0
   -4.6150   16.6240  -35.4140 H   0  0  0  0  0  0  0  0  0  0  0  0
   -7.5873   17.1538  -31.6062 H   0  0  0  0  0  0  0  0  0  0  0  0
   -7.5988   18.5244  -30.4107 H   0  0  0  0  0  0  0  0  0  0  0  0
   -9.2232   18.3455  -32.9885 H   0  0  0  0  0  0  0  0  0  0  0  0
   -9.8306   18.1816  -31.2822 H   0  0  0  0  0  0  0  0  0  0  0  0
   -8.5620   21.5958  -33.0110 H   0  0  0  0  0  0  0  0  0  0  0  0
   -7.6977   21.2314  -31.4273 H   0  0  0  0  0  0  0  0  0  0  0  0
   -7.5269   19.6032  -33.9916 H   0  0  0  0  0  0  0  0  0  0  0  0
   -6.2606   20.6873  -33.3087 H   0  0  0  0  0  0  0  0  0  0  0  0
   -4.1791   19.5978  -31.5649 H   0  0  0  0  0  0  0  0  0  0  0  0
  1  2  1  0
  2  3  1  0
  3  4  2  0
  4  5  1  0
  5  6  2  0
  6  7  1  0
  7  8  2  0
  8  9  1  0
  9 10  1  0
 10 11  1  0
 11 12  2  0
 11 13  2  0
 11 14  1  0
 14 15  2  0
 15 16  1  0
 16 17  2  0
 17 18  1  0
 17 19  1  0
 19 20  1  0
 20 21  2  0
 20 22  2  0
 20 23  1  0
 23 24  1  0
 24 25  1  0
 25 26  1  0
 26 27  1  0
 27 28  1  0
 19 29  2  0
  8  3  1  0
 29 14  1  0
 28 23  1  0
  1 30  1  0
  1 31  1  0
  1 32  1  0
  4 33  1  0
  5 34  1  0
  6 35  1  0
  7 36  1  0
  9 37  1  0
  9 38  1  0
 15 39  1  0
 16 40  1  0
 18 41  1  0
 18 42  1  0
 24 43  1  0
 24 44  1  0
 25 45  1  0
 25 46  1  0
 27 47  1  0
 27 48  1  0
 28 49  1  0
 28 50  1  0
 29 51  1  0
M  CHG  1  10  -1
M  END
>  <UniqueID>  (11) 
11

>  <SMILES>  (11) 
COc1ccccc1C[N-]S(=O)(=O)c1ccc(N)c(S(=O)(=O)N2CCOCC2)c1

>  <Energy>  (11) 
63.713537970186366

>  <Genealogy>  (11) 
COc1ccccc1C[N-]S(=O)(=O)c1ccc(N)c(S(=O)(=O)N2CCOCC2)c1 (protonated)
COc1ccccc1C[N-]S(=O)(=O)c1ccc(N)c(S(=O)(=O)N2CCOCC2)c1 (3D coordinates assigned)
COc1ccccc1C[N-]S(=O)(=O)c1ccc(N)c(S(=O)(=O)N2CCOCC2)c1 (nonaromatic ring conformer: 63.713537970186366 kcal/mol)

>  <smiles>  (11) 
COc1ccccc1CNS(=O)(=O)c1ccc(N)c(S(=O)(=O)N2CCOCC2)c1

>  <score_type>  (11) 
oracle

>  <origin>  (11) 
adgpu

>  <m_score__min__energy>  (11) 
-10.27

>  <m_primary>  (11) 
energy

$$$$
11:0
     RDKit          3D

 69 73  0  0  0  0  0  0  0  0999 V2000
   -6.4750   22.7530  -29.8750 O   0  0  0  0  0  0  0  0  0  0  0  0
   -5.2730   22.8460  -30.7730 S   0  0  0  0  0  0  0  0  0  0  0  0
   -5.4320   24.0610  -31.6450 O   0  0  0  0  0  0  0  0  0  0  0  0
   -5.1490   21.4160  -31.7900 C   0  0  0  0  0  0  0  0  0  0  0  0
   -4.1520   21.3460  -32.7720 C   0  0  0  0  0  0  0  0  0  0  0  0
   -4.0240   20.2020  -33.5650 C   0  0  0  0  0  0  0  0  0  0  0  0
   -4.8920   19.1160  -33.3810 C   0  0  0  0  0  0  0  0  0  0  0  0
   -4.7130   17.6490  -34.3440 S   0  0  0  0  0  0  0  0  0  0  0  0
   -3.6500   17.8640  -35.3840 O   0  0  0  0  0  0  0  0  0  0  0  0
   -6.0260   17.4020  -35.0290 O   0  0  0  0  0  0  0  0  0  0  0  0
   -4.2630   16.2690  -33.3210 C   0  0  0  0  0  0  0  0  0  0  0  0
   -5.2710   15.6630  -32.5470 C   0  0  0  0  0  0  0  0  0  0  0  0
   -4.9890   14.5630  -31.7370 C   0  0  0  0  0  0  0  0  0  0  0  0
   -3.6970   14.0510  -31.6840 C   0  0  0  0  0  0  0  0  0  0  0  0
   -2.6780   14.6440  -32.4280 C   0  0  0  0  0  0  0  0  0  0  0  0
   -2.9350   15.7650  -33.2390 C   0  0  0  0  0  0  0  0  0  0  0  0
   -1.5760   16.4820  -34.1290 S   0  0  0  0  0  0  0  0  0  0  0  0
   -1.8510   16.4790  -35.6060 O   0  0  0  0  0  0  0  0  0  0  0  0
   -0.3290   15.6870  -33.8600 O   0  0  0  0  0  0  0  0  0  0  0  0
   -1.3090   18.1580  -33.6470 C   0  0  0  0  0  0  0  0  0  0  0  0
   -1.5320   18.5640  -32.3220 C   0  0  0  0  0  0  0  0  0  0  0  0
   -1.3310   19.8990  -31.9540 C   0  0  0  0  0  0  0  0  0  0  0  0
   -0.9120   20.8330  -32.9060 C   0  0  0  0  0  0  0  0  0  0  0  0
   -0.6960   20.4350  -34.2280 C   0  0  0  0  0  0  0  0  0  0  0  0
   -0.8950   19.1010  -34.5990 C   0  0  0  0  0  0  0  0  0  0  0  0
   -5.8840   19.1830  -32.3930 C   0  0  0  0  0  0  0  0  0  0  0  0
   -6.0120   20.3280  -31.6010 C   0  0  0  0  0  0  0  0  0  0  0  0
   -3.8130   22.9760  -29.7910 C   0  0  0  0  0  0  0  0  0  0  0  0
   -3.3880   21.8830  -29.0210 C   0  0  0  0  0  0  0  0  0  0  0  0
   -2.2340   21.9760  -28.2300 C   0  0  0  0  0  0  0  0  0  0  0  0
   -1.6890   20.5870  -27.2870 S   0  0  0  0  0  0  0  0  0  0  0  0
   -1.6140   20.9720  -25.8350 O   0  0  0  0  0  0  0  0  0  0  0  0
   -2.6910   19.4740  -27.4200 O   0  0  0  0  0  0  0  0  0  0  0  0
   -0.1230   20.0230  -27.8210 N   0  0  0  0  0  0  0  0  0  0  0  0
    0.0440   18.5670  -27.5840 C   0  0  0  0  0  0  0  0  0  0  0  0
   -0.1110   17.7300  -28.8620 C   0  0  0  0  0  0  0  0  0  0  0  0
    0.9060   18.1570  -29.9340 C   0  0  0  0  0  0  0  0  0  0  0  0
    1.2680   19.6510  -29.8490 C   0  0  0  0  0  0  0  0  0  0  0  0
    0.1330   20.4560  -29.2120 C   0  0  0  0  0  0  0  0  0  0  0  0
   -1.5130   23.1770  -28.1980 C   0  0  0  0  0  0  0  0  0  0  0  0
   -1.9370   24.2720  -28.9560 C   0  0  0  0  0  0  0  0  0  0  0  0
   -3.0850   24.1770  -29.7490 C   0  0  0  0  0  0  0  0  0  0  0  0
   -3.4950   25.2820  -30.4880 O   0  0  0  0  0  0  0  0  0  0  0  0
   -3.4675   22.1944  -32.9194 H   0  0  0  0  0  0  0  0  0  0  0  0
   -3.2403   20.1535  -34.3354 H   0  0  0  0  0  0  0  0  0  0  0  0
   -6.2953   16.0626  -32.5816 H   0  0  0  0  0  0  0  0  0  0  0  0
   -5.7887   14.1004  -31.1400 H   0  0  0  0  0  0  0  0  0  0  0  0
   -3.4787   13.1763  -31.0537 H   0  0  0  0  0  0  0  0  0  0  0  0
   -1.6599   14.2303  -32.3805 H   0  0  0  0  0  0  0  0  0  0  0  0
   -1.8652   17.8317  -31.5719 H   0  0  0  0  0  0  0  0  0  0  0  0
   -1.5029   20.2139  -30.9142 H   0  0  0  0  0  0  0  0  0  0  0  0
   -0.7523   21.8815  -32.6144 H   0  0  0  0  0  0  0  0  0  0  0  0
   -0.3693   21.1711  -34.9773 H   0  0  0  0  0  0  0  0  0  0  0  0
   -0.7262   18.7906  -35.6407 H   0  0  0  0  0  0  0  0  0  0  0  0
   -6.5640   18.3320  -32.2403 H   0  0  0  0  0  0  0  0  0  0  0  0
   -6.7924   20.3751  -30.8272 H   0  0  0  0  0  0  0  0  0  0  0  0
   -3.9643   20.9462  -29.0379 H   0  0  0  0  0  0  0  0  0  0  0  0
    1.0479   18.3920  -27.1699 H   0  0  0  0  0  0  0  0  0  0  0  0
   -0.7476   18.2539  -26.8873 H   0  0  0  0  0  0  0  0  0  0  0  0
    0.0492   16.6695  -28.6178 H   0  0  0  0  0  0  0  0  0  0  0  0
   -1.1240   17.8878  -29.2607 H   0  0  0  0  0  0  0  0  0  0  0  0
    1.8238   17.5647  -29.8040 H   0  0  0  0  0  0  0  0  0  0  0  0
    0.4448   17.9826  -30.9173 H   0  0  0  0  0  0  0  0  0  0  0  0
    2.1766   19.7667  -29.2399 H   0  0  0  0  0  0  0  0  0  0  0  0
    1.4360   20.0290  -30.8683 H   0  0  0  0  0  0  0  0  0  0  0  0
    0.4073   21.5212  -29.2102 H   0  0  0  0  0  0  0  0  0  0  0  0
   -0.7816   20.2887  -29.7999 H   0  0  0  0  0  0  0  0  0  0  0  0
   -0.6105   23.2583  -27.5744 H   0  0  0  0  0  0  0  0  0  0  0  0
   -1.3658   25.2117  -28.9287 H   0  0  0  0  0  0  0  0  0  0  0  0
  1  2  2  0
  2  3  2  0
  2  4  1  0
  4  5  2  0
  5  6  1  0
  6  7  2  0
  7  8  1  0
  8  9  2  0
  8 10  2  0
  8 11  1  0
 11 12  2  0
 12 13  1  0
 13 14  2  0
 14 15  1  0
 15 16  2  0
 16 17  1  0
 17 18  2  0
 17 19  2  0
 17 20  1  0
 20 21  2  0
 21 22  1  0
 22 23  2  0
 23 24  1  0
 24 25  2  0
  7 26  1  0
 26 27  2  0
  2 28  1  0
 28 29  2  0
 29 30  1  0
 30 31  1  0
 31 32  2  0
 31 33  2  0
 31 34  1  0
 34 35  1  0
 35 36  1  0
 36 37  1  0
 37 38  1  0
 38 39  1  0
 30 40  2  0
 40 41  1  0
 41 42  2  0
 42 43  1  0
 27  4  1  0
 42 28  1  0
 16 11  1  0
 25 20  1  0
 39 34  1  0
  5 44  1  0
  6 45  1  0
 12 46  1  0
 13 47  1  0
 14 48  1  0
 15 49  1  0
 21 50  1  0
 22 51  1  0
 23 52  1  0
 24 53  1  0
 25 54  1  0
 26 55  1  0
 27 56  1  0
 29 57  1  0
 35 58  1  0
 35 59  1  0
 36 60  1  0
 36 61  1  0
 37 62  1  0
 37 63  1  0
 38 64  1  0
 38 65  1  0
 39 66  1  0
 39 67  1  0
 40 68  1  0
 41 69  1  0
M  CHG  1  43  -1
M  END
>  <UniqueID>  (12) 
12

>  <SMILES>  (12) 
O=S(=O)(c1ccc(S(=O)(=O)c2ccccc2S(=O)(=O)c2ccccc2)cc1)c1cc(S(=O)(=O)N2CCCCC2)ccc1[O-]

>  <Energy>  (12) 
90.24782872939188

>  <Genealogy>  (12) 
O=S(=O)(c1ccc(S(=O)(=O)c2ccccc2S(=O)(=O)c2ccccc2)cc1)c1cc(S(=O)(=O)N2CCCCC2)ccc1[O-] (protonated)
O=S(=O)(c1ccc(S(=O)(=O)c2ccccc2S(=O)(=O)c2ccccc2)cc1)c1cc(S(=O)(=O)N2CCCCC2)ccc1[O-] (3D coordinates assigned)
O=S(=O)(c1ccc(S(=O)(=O)c2ccccc2S(=O)(=O)c2ccccc2)cc1)c1cc(S(=O)(=O)N2CCCCC2)ccc1[O-] (nonaromatic ring conformer: 90.24782872939188 kcal/mol)

>  <smiles>  (12) 
O=S(=O)(c1ccc(S(=O)(=O)c2ccccc2S(=O)(=O)c2ccccc2)cc1)c1cc(S(=O)(=O)N2CCCCC2)ccc1O

>  <score_type>  (12) 
oracle

>  <origin>  (12) 
adgpu

>  <m_score__min__energy>  (12) 
-14.68

>  <m_primary>  (12) 
energy

$$$$
12:0
     RDKit          3D

 57 60  0  0  0  0  0  0  0  0999 V2000
   -9.8670   21.6530  -31.0580 C   0  0  0  0  0  0  0  0  0  0  0  0
   -8.7380   20.8470  -31.6290 C   0  0  0  0  0  0  0  0  0  0  0  0
   -8.8460   19.4520  -31.7330 C   0  0  0  0  0  0  0  0  0  0  0  0
   -7.8090   18.7050  -32.3010 C   0  0  0  0  0  0  0  0  0  0  0  0
   -6.6590   19.3460  -32.7790 C   0  0  0  0  0  0  0  0  0  0  0  0
   -5.3830   18.4040  -33.5420 S   0  0  0  0  0  0  0  0  0  0  0  0
   -5.2080   18.8360  -34.9700 O   0  0  0  0  0  0  0  0  0  0  0  0
   -5.7480   16.9460  -33.5210 O   0  0  0  0  0  0  0  0  0  0  0  0
   -3.9070   18.6320  -32.6710 N   0  0  0  0  0  0  0  0  0  0  0  0
   -2.8840   19.4740  -33.2000 C   0  0  0  0  0  0  0  0  0  0  0  0
   -2.0080   18.9610  -34.1620 C   0  0  0  0  0  0  0  0  0  0  0  0
   -0.9400   19.7320  -34.6250 C   0  0  0  0  0  0  0  0  0  0  0  0
   -0.7370   21.0290  -34.1300 C   0  0  0  0  0  0  0  0  0  0  0  0
    0.4030   21.8420  -34.5910 C   0  0  0  0  0  0  0  0  0  0  0  0
    1.5670   21.5260  -34.2280 O   0  0  0  0  0  0  0  0  0  0  0  0
    0.2280   23.0050  -35.4100 N   0  0  0  0  0  0  0  0  0  0  0  0
    1.3080   23.8770  -35.8560 C   0  0  0  0  0  0  0  0  0  0  0  0
    0.7580   24.9060  -36.7930 C   0  0  0  0  0  0  0  0  0  0  0  0
   -0.4080   25.6160  -36.4720 C   0  0  0  0  0  0  0  0  0  0  0  0
   -0.9150   26.5470  -37.3810 C   0  0  0  0  0  0  0  0  0  0  0  0
   -0.2640   26.7550  -38.5990 C   0  0  0  0  0  0  0  0  0  0  0  0
    0.8890   26.0220  -38.8900 C   0  0  0  0  0  0  0  0  0  0  0  0
    1.3680   25.1190  -37.9930 N   0  0  0  0  0  0  0  0  0  0  0  0
   -1.6060   21.5360  -33.1530 C   0  0  0  0  0  0  0  0  0  0  0  0
   -2.6970   20.7810  -32.7060 C   0  0  0  0  0  0  0  0  0  0  0  0
   -3.5540   21.3400  -31.7520 O   0  0  0  0  0  0  0  0  0  0  0  0
   -3.3660   22.5930  -31.1560 C   0  0  0  0  0  0  0  0  0  0  0  0
   -4.2570   23.6420  -31.1820 C   0  0  0  0  0  0  0  0  0  0  0  0
   -5.5610   23.6860  -31.9060 C   0  0  0  0  0  0  0  0  0  0  0  0
   -3.7390   24.6830  -30.5020 N   0  0  0  0  0  0  0  0  0  0  0  0
   -2.5590   24.3220  -30.0160 N   0  0  0  0  0  0  0  0  0  0  0  0
   -2.3080   23.0510  -30.3860 C   0  0  0  0  0  0  0  0  0  0  0  0
   -1.0820   22.3030  -29.9740 C   0  0  0  0  0  0  0  0  0  0  0  0
   -6.5610   20.7410  -32.7020 C   0  0  0  0  0  0  0  0  0  0  0  0
   -7.5960   21.4880  -32.1310 C   0  0  0  0  0  0  0  0  0  0  0  0
   -9.8217   21.6206  -29.9594 H   0  0  0  0  0  0  0  0  0  0  0  0
   -9.7817   22.6957  -31.3979 H   0  0  0  0  0  0  0  0  0  0  0  0
  -10.8255   21.2337  -31.3979 H   0  0  0  0  0  0  0  0  0  0  0  0
   -9.7500   18.9437  -31.3663 H   0  0  0  0  0  0  0  0  0  0  0  0
   -7.8968   17.6108  -32.3726 H   0  0  0  0  0  0  0  0  0  0  0  0
   -2.1611   17.9453  -34.5557 H   0  0  0  0  0  0  0  0  0  0  0  0
   -0.2549   19.3208  -35.3810 H   0  0  0  0  0  0  0  0  0  0  0  0
    1.7601   24.3762  -34.9863 H   0  0  0  0  0  0  0  0  0  0  0  0
    2.0740   23.2801  -36.3727 H   0  0  0  0  0  0  0  0  0  0  0  0
   -0.9183   25.4412  -35.5134 H   0  0  0  0  0  0  0  0  0  0  0  0
   -1.8250   27.1153  -37.1383 H   0  0  0  0  0  0  0  0  0  0  0  0
   -0.6546   27.4875  -39.3207 H   0  0  0  0  0  0  0  0  0  0  0  0
    1.4104   26.1755  -39.8463 H   0  0  0  0  0  0  0  0  0  0  0  0
   -1.4286   22.5373  -32.7335 H   0  0  0  0  0  0  0  0  0  0  0  0
   -6.3843   23.7138  -31.1771 H   0  0  0  0  0  0  0  0  0  0  0  0
   -5.5997   24.5860  -32.5373 H   0  0  0  0  0  0  0  0  0  0  0  0
   -5.6603   22.7907  -32.5373 H   0  0  0  0  0  0  0  0  0  0  0  0
   -1.0253   22.2684  -28.8760 H   0  0  0  0  0  0  0  0  0  0  0  0
   -1.1268   21.2782  -30.3713 H   0  0  0  0  0  0  0  0  0  0  0  0
   -0.1913   22.8117  -30.3713 H   0  0  0  0  0  0  0  0  0  0  0  0
   -5.6674   21.2504  -33.0918 H   0  0  0  0  0  0  0  0  0  0  0  0
   -7.5141   22.5835  -32.0753 H   0  0  0  0  0  0  0  0  0  0  0  0
  1  2  1  0
  2  3  2  0
  3  4  1  0
  4  5  2  0
  5  6  1  0
  6  7  2  0
  6  8  2  0
  6  9  1  0
  9 10  1  0
 10 11  2  0
 11 12  1  0
 12 13  2  0
 13 14  1  0
 14 15  2  0
 14 16  1  0
 16 17  1  0
 17 18  1  0
 18 19  2  0
 19 20  1  0
 20 21  2  0
 21 22  1  0
 22 23  2  0
 13 24  1  0
 24 25  2  0
 25 26  1  0
 26 27  1  0
 27 28  1  0
 28 29  1  0
 28 30  2  0
 30 31  1  0
 31 32  1  0
 32 33  1  0
  5 34  1  0
 34 35  2  0
 35  2  1  0
 25 10  1  0
 32 27  2  0
 23 18  1  0
  1 36  1  0
  1 37  1  0
  1 38  1  0
  3 39  1  0
  4 40  1  0
 11 41  1  0
 12 42  1  0
 17 43  1  0
 17 44  1  0
 19 45  1  0
 20 46  1  0
 21 47  1  0
 22 48  1  0
 24 49  1  0
 29 50  1  0
 29 51  1  0
 29 52  1  0
 33 53  1  0
 33 54  1  0
 33 55  1  0
 34 56  1  0
 35 57  1  0
M  CHG  3   9  -1  16  -1  31  -1
M  END
>  <UniqueID>  (13) 
13

>  <SMILES>  (13) 
Cc1ccc(S(=O)(=O)[N-]c2ccc(C(=O)[N-]Cc3ccccn3)cc2Oc2c(C)n[n-]c2C)cc1

>  <Energy>  (13) 
108.15662445229975

>  <Genealogy>  (13) 
Cc1ccc(S(=O)(=O)[N-]c2ccc(C(=O)[N-]Cc3ccccn3)cc2Oc2c(C)n[n-]c2C)cc1 (protonated)
Cc1ccc(S(=O)(=O)[N-]c2ccc(C(=O)[N-]Cc3ccccn3)cc2Oc2c(C)n[n-]c2C)cc1 (3D coordinates assigned)
Cc1ccc(S(=O)(=O)[N-]c2ccc(C(=O)[N-]Cc3ccccn3)cc2Oc2c(C)n[n-]c2C)cc1 (optimized conformer: 108.15662445229975 kcal/mol)

>  <smiles>  (13) 
Cc1ccc(S(=O)(=O)Nc2ccc(C(=O)NCc3ccccn3)cc2Oc2c(C)n[nH]c2C)cc1

>  <score_type>  (13) 
oracle

>  <origin>  (13) 
adgpu

>  <m_score__min__energy>  (13) 
-12.359999999999999

>  <m_primary>  (13) 
energy

$$$$
13:0
     RDKit          3D

 31 32  0  0  0  0  0  0  0  0999 V2000
   -8.3710   23.1090  -31.6040 C   0  0  0  0  0  0  0  0  0  0  0  0
   -7.3800   22.5780  -30.5760 C   0  0  0  0  0  0  0  0  0  0  0  0
   -6.0400   22.4640  -31.1680 N   0  0  0  0  0  0  0  0  0  0  0  0
   -5.8410   21.7250  -32.4190 C   0  0  0  0  0  0  0  0  0  0  0  0
   -6.4560   20.3570  -32.3110 C   0  0  0  0  0  0  0  0  0  0  0  0
   -7.7810   20.1370  -32.7150 C   0  0  0  0  0  0  0  0  0  0  0  0
   -8.3550   18.8740  -32.5640 C   0  0  0  0  0  0  0  0  0  0  0  0
   -7.6010   17.8420  -32.0020 C   0  0  0  0  0  0  0  0  0  0  0  0
   -6.3220   18.0740  -31.6010 N   0  0  0  0  0  0  0  0  0  0  0  0
   -5.7400   19.2960  -31.7370 C   0  0  0  0  0  0  0  0  0  0  0  0
   -4.9480   23.2140  -30.6090 C   0  0  0  0  0  0  0  0  0  0  0  0
   -3.8800   22.5590  -29.9880 C   0  0  0  0  0  0  0  0  0  0  0  0
   -2.8630   23.2780  -29.4480 N   0  0  0  0  0  0  0  0  0  0  0  0
   -2.8600   24.6350  -29.5020 C   0  0  0  0  0  0  0  0  0  0  0  0
   -1.9030   25.2770  -28.9950 O   0  0  0  0  0  0  0  0  0  0  0  0
   -3.8850   25.2960  -30.1030 N   0  0  0  0  0  0  0  0  0  0  0  0
   -4.9260   24.6150  -30.6590 C   0  0  0  0  0  0  0  0  0  0  0  0
   -5.8580   25.2480  -31.2230 O   0  0  0  0  0  0  0  0  0  0  0  0
   -9.2264   23.5673  -31.0860 H   0  0  0  0  0  0  0  0  0  0  0  0
   -7.8769   23.8632  -32.2341 H   0  0  0  0  0  0  0  0  0  0  0  0
   -8.7253   22.2799  -32.2341 H   0  0  0  0  0  0  0  0  0  0  0  0
   -7.3407   23.2680  -29.7202 H   0  0  0  0  0  0  0  0  0  0  0  0
   -7.7093   21.5824  -30.2438 H   0  0  0  0  0  0  0  0  0  0  0  0
   -6.3157   22.2737  -33.2458 H   0  0  0  0  0  0  0  0  0  0  0  0
   -4.7627   21.6223  -32.6103 H   0  0  0  0  0  0  0  0  0  0  0  0
   -8.3673   20.9595  -33.1506 H   0  0  0  0  0  0  0  0  0  0  0  0
   -9.3916   18.6932  -32.8847 H   0  0  0  0  0  0  0  0  0  0  0  0
   -8.0414   16.8410  -31.8834 H   0  0  0  0  0  0  0  0  0  0  0  0
   -4.7059   19.4525  -31.3962 H   0  0  0  0  0  0  0  0  0  0  0  0
   -3.8639   21.4603  -29.9370 H   0  0  0  0  0  0  0  0  0  0  0  0
   -3.8720   26.3410  -30.1440 H   0  0  0  0  0  0  0  0  0  0  0  0
  1  2  1  0
  2  3  1  0
  3  4  1  0
  4  5  1  0
  5  6  2  0
  6  7  1  0
  7  8  2  0
  8  9  1  0
  9 10  2  0
  3 11  1  0
 11 12  2  0
 12 13  1  0
 13 14  1  0
 14 15  2  0
 14 16  1  0
 16 17  1  0
 17 18  2  0
 10  5  1  0
 17 11  1  0
  1 19  1  0
  1 20  1  0
  1 21  1  0
  2 22  1  0
  2 23  1  0
  4 24  1  0
  4 25  1  0
  6 26  1  0
  7 27  1  0
  8 28  1  0
 10 29  1  0
 12 30  1  0
 16 31  1  0
M  CHG  1  13  -1
M  END
>  <UniqueID>  (14) 
14

>  <SMILES>  (14) 
CCN(Cc1cccnc1)c1c[n-]c(=O)[nH]c1=O

>  <Energy>  (14) 
33.26249374097914

>  <Genealogy>  (14) 
CCN(Cc1cccnc1)c1c[n-]c(=O)[nH]c1=O (protonated)
CCN(Cc1cccnc1)c1c[n-]c(=O)[nH]c1=O (3D coordinates assigned)
CCN(Cc1cccnc1)c1c[n-]c(=O)[nH]c1=O (optimized conformer: 33.26249374097914 kcal/mol)

>  <smiles>  (14) 
CCN(Cc1cccnc1)c1c[nH]c(=O)[nH]c1=O

>  <score_type>  (14) 
oracle

>  <origin>  (14) 
adgpu

>  <m_score__min__energy>  (14) 
-7.79

>  <m_primary>  (14) 
energy

$$$$
14:0
     RDKit          3D

 44 46  0  0  0  0  0  0  0  0999 V2000
   -7.9597   16.5623  -32.9650 H   0  0  0  0  0  0  0  0  0  0  0  0
   -7.2600   17.4050  -33.0660 C   0  0  0  0  0  0  0  0  0  0  0  0
   -7.6080   18.6820  -32.6110 C   0  0  0  0  0  0  0  0  0  0  0  0
   -8.9380   18.9220  -31.9710 C   0  0  0  0  0  0  0  0  0  0  0  0
   -8.8273   18.9020  -30.8768 H   0  0  0  0  0  0  0  0  0  0  0  0
   -9.3230   19.9041  -32.2827 H   0  0  0  0  0  0  0  0  0  0  0  0
   -9.6420   18.1364  -32.2827 H   0  0  0  0  0  0  0  0  0  0  0  0
   -6.7190   19.7030  -32.7250 N   0  0  0  0  0  0  0  0  0  0  0  0
   -5.4980   19.5060  -33.2890 C   0  0  0  0  0  0  0  0  0  0  0  0
   -4.3580   20.8760  -33.4570 S   0  0  0  0  0  0  0  0  0  0  0  0
   -4.3070   21.2430  -31.6670 C   0  0  0  0  0  0  0  0  0  0  0  0
   -3.2665   21.4408  -31.3701 H   0  0  0  0  0  0  0  0  0  0  0  0
   -4.7061   20.3758  -31.1204 H   0  0  0  0  0  0  0  0  0  0  0  0
   -5.1540   22.4520  -31.3360 C   0  0  0  0  0  0  0  0  0  0  0  0
   -6.4560   22.5120  -31.8660 C   0  0  0  0  0  0  0  0  0  0  0  0
   -6.7964   21.7317  -32.5626 H   0  0  0  0  0  0  0  0  0  0  0  0
   -7.3210   23.5520  -31.5170 C   0  0  0  0  0  0  0  0  0  0  0  0
   -8.3347   23.5887  -31.9425 H   0  0  0  0  0  0  0  0  0  0  0  0
   -6.9030   24.5420  -30.6320 C   0  0  0  0  0  0  0  0  0  0  0  0
   -7.5913   25.3521  -30.3490 H   0  0  0  0  0  0  0  0  0  0  0  0
   -5.6110   24.5080  -30.1030 C   0  0  0  0  0  0  0  0  0  0  0  0
   -5.2895   25.2901  -29.3995 H   0  0  0  0  0  0  0  0  0  0  0  0
   -4.7180   23.4840  -30.4610 C   0  0  0  0  0  0  0  0  0  0  0  0
   -3.3520   23.5270  -29.8910 C   0  0  0  0  0  0  0  0  0  0  0  0
   -2.3820   23.2020  -30.6250 O   0  0  0  0  0  0  0  0  0  0  0  0
   -3.0870   23.9170  -28.5330 N   0  0  0  0  0  0  0  0  0  0  0  0
   -2.2870   24.8610  -28.1360 C   0  0  0  0  0  0  0  0  0  0  0  0
   -1.6040   25.6860  -28.9600 N   0  0  0  0  0  0  0  0  0  0  0  0
   -0.8620   26.5770  -28.3050 N   0  0  0  0  0  0  0  0  0  0  0  0
   -0.9670   26.4730  -26.9600 C   0  0  0  0  0  0  0  0  0  0  0  0
   -0.1850   27.3150  -26.0040 C   0  0  0  0  0  0  0  0  0  0  0  0
   -0.2138   28.3627  -26.3379 H   0  0  0  0  0  0  0  0  0  0  0  0
    0.8531   26.9521  -25.9789 H   0  0  0  0  0  0  0  0  0  0  0  0
   -0.7730   27.2200  -24.6010 C   0  0  0  0  0  0  0  0  0  0  0  0
    0.0280   27.3494  -23.8582 H   0  0  0  0  0  0  0  0  0  0  0  0
   -1.5289   28.0077  -24.4661 H   0  0  0  0  0  0  0  0  0  0  0  0
   -1.2424   26.2344  -24.4661 H   0  0  0  0  0  0  0  0  0  0  0  0
   -2.0010   25.2160  -26.5180 S   0  0  0  0  0  0  0  0  0  0  0  0
   -5.1470   18.2750  -33.7420 N   0  0  0  0  0  0  0  0  0  0  0  0
   -6.0030   17.2240  -33.6520 C   0  0  0  0  0  0  0  0  0  0  0  0
   -5.5880   15.8810  -34.1580 C   0  0  0  0  0  0  0  0  0  0  0  0
   -5.3824   15.2158  -33.3064 H   0  0  0  0  0  0  0  0  0  0  0  0
   -6.3961   15.4540  -34.7701 H   0  0  0  0  0  0  0  0  0  0  0  0
   -4.6799   15.9843  -34.7701 H   0  0  0  0  0  0  0  0  0  0  0  0
  1  2  1  0
  2  3  2  0
  3  4  1  0
  4  5  1  0
  4  6  1  0
  4  7  1  0
  3  8  1  0
  8  9  2  0
  9 10  1  0
 10 11  1  0
 11 12  1  0
 11 13  1  0
 11 14  1  0
 14 15  2  0
 15 16  1  0
 15 17  1  0
 17 18  1  0
 17 19  2  0
 19 20  1  0
 19 21  1  0
 21 22  1  0
 21 23  2  0
 23 24  1  0
 24 25  2  0
 24 26  1  0
 26 27  2  0
 27 28  1  0
 28 29  1  0
 29 30  2  0
 30 31  1  0
 31 32  1  0
 31 33  1  0
 31 34  1  0
 34 35  1  0
 34 36  1  0
 34 37  1  0
 30 38  1  0
  9 39  1  0
 39 40  2  0
 40 41  1  0
 41 42  1  0
 41 43  1  0
 41 44  1  0
 40  2  1  0
 23 14  1  0
 38 27  1  0
M  CHG  1  28  -1
M  END
>  <UniqueID>  (15) 
15

>  <SMILES>  (15) 
CCc1n[n-]/c(=N\C(=O)c2ccccc2CSc2nc(C)cc(C)n2)s1

>  <Energy>  (15) 
78.76230712138012

>  <Genealogy>  (15) 
CCc1n[n-]c(=NC(=O)c2ccccc2CSc2nc(C)cc(C)n2)s1 (protonated)
CCc1n[n-]/c(=N\C(=O)c2ccccc2CSc2nc(C)cc(C)n2)s1 (cis-trans isomerization)
CCc1n[n-]/c(=N\C(=O)c2ccccc2CSc2nc(C)cc(C)n2)s1 (3D coordinates assigned)
CCc1n[n-]/c(=N\C(=O)c2ccccc2CSc2nc(C)cc(C)n2)s1 (optimized conformer: 78.76230712138012 kcal/mol)

>  <smiles>  (15) 
CCc1n[nH]c(=NC(=O)c2ccccc2CSc2nc(C)cc(C)n2)s1

>  <score_type>  (15) 
oracle

>  <origin>  (15) 
adgpu

>  <m_score__min__energy>  (15) 
-10.710000000000001

>  <m_primary>  (15) 
energy

$$$$
15:0
     RDKit          3D

 45 47  0  0  0  0  0  0  0  0999 V2000
   -2.7400   18.9380  -26.6410 C   0  0  0  0  0  0  0  0  0  0  0  0
   -2.7290   20.2010  -27.4970 C   0  0  0  0  0  0  0  0  0  0  0  0
   -1.7840   20.0440  -28.7010 C   0  0  0  0  0  0  0  0  0  0  0  0
   -1.7490   21.2450  -29.5490 N   0  0  0  0  0  0  0  0  0  0  0  0
   -2.1810   22.4510  -28.8310 C   0  0  0  0  0  0  0  0  0  0  0  0
   -3.3060   23.1090  -29.5860 C   0  0  0  0  0  0  0  0  0  0  0  0
   -4.3850   22.3330  -30.0380 C   0  0  0  0  0  0  0  0  0  0  0  0
   -5.4470   22.9240  -30.7410 C   0  0  0  0  0  0  0  0  0  0  0  0
   -6.5640   22.0850  -31.2200 C   0  0  0  0  0  0  0  0  0  0  0  0
   -7.8520   22.2670  -30.6750 C   0  0  0  0  0  0  0  0  0  0  0  0
   -8.8970   21.3830  -31.0110 C   0  0  0  0  0  0  0  0  0  0  0  0
   -8.6730   20.3360  -31.8570 N   0  0  0  0  0  0  0  0  0  0  0  0
   -7.4390   20.1660  -32.3900 C   0  0  0  0  0  0  0  0  0  0  0  0
   -7.0840   19.1780  -33.2250 N   0  0  0  0  0  0  0  0  0  0  0  0
   -5.7850   19.3970  -33.5190 C   0  0  0  0  0  0  0  0  0  0  0  0
   -5.3200   20.5410  -32.8720 C   0  0  0  0  0  0  0  0  0  0  0  0
   -3.9890   21.1320  -33.0900 C   0  0  0  0  0  0  0  0  0  0  0  0
   -3.8790   22.1620  -33.8090 O   0  0  0  0  0  0  0  0  0  0  0  0
   -2.8410   20.5910  -32.4340 N   0  0  0  0  0  0  0  0  0  0  0  0
   -1.4790   20.9150  -32.8310 C   0  0  0  0  0  0  0  0  0  0  0  0
   -6.3950   21.0180  -32.1240 C   0  0  0  0  0  0  0  0  0  0  0  0
   -5.4450   24.3140  -30.9550 C   0  0  0  0  0  0  0  0  0  0  0  0
   -6.4850   24.9260  -31.6480 O   0  0  0  0  0  0  0  0  0  0  0  0
   -4.3850   25.0930  -30.4820 C   0  0  0  0  0  0  0  0  0  0  0  0
   -3.3200   24.5000  -29.7990 C   0  0  0  0  0  0  0  0  0  0  0  0
   -2.2810   25.3000  -29.3350 O   0  0  0  0  0  0  0  0  0  0  0  0
   -2.7376   19.2163  -25.5768 H   0  0  0  0  0  0  0  0  0  0  0  0
   -3.6433   18.3514  -26.8645 H   0  0  0  0  0  0  0  0  0  0  0  0
   -1.8471   18.3358  -26.8645 H   0  0  0  0  0  0  0  0  0  0  0  0
   -3.7479   20.3964  -27.8627 H   0  0  0  0  0  0  0  0  0  0  0  0
   -2.3733   21.0391  -26.8798 H   0  0  0  0  0  0  0  0  0  0  0  0
   -0.7682   19.8451  -28.3287 H   0  0  0  0  0  0  0  0  0  0  0  0
   -2.1595   19.2120  -29.3148 H   0  0  0  0  0  0  0  0  0  0  0  0
   -2.3680   21.1020  -30.3820 H   0  0  0  0  0  0  0  0  0  0  0  0
   -2.5276   22.1740  -27.8244 H   0  0  0  0  0  0  0  0  0  0  0  0
   -1.3363   23.1508  -28.7483 H   0  0  0  0  0  0  0  0  0  0  0  0
   -4.3986   21.2512  -29.8394 H   0  0  0  0  0  0  0  0  0  0  0  0
   -8.0417   23.1023  -29.9849 H   0  0  0  0  0  0  0  0  0  0  0  0
   -9.9006   21.5382  -30.5882 H   0  0  0  0  0  0  0  0  0  0  0  0
   -7.6880   18.4070  -33.5850 H   0  0  0  0  0  0  0  0  0  0  0  0
   -5.1769   18.7604  -34.1784 H   0  0  0  0  0  0  0  0  0  0  0  0
   -0.8606   21.0621  -31.9333 H   0  0  0  0  0  0  0  0  0  0  0  0
   -1.0656   20.0901  -33.4299 H   0  0  0  0  0  0  0  0  0  0  0  0
   -1.4813   21.8377  -33.4299 H   0  0  0  0  0  0  0  0  0  0  0  0
   -4.3894   26.1803  -30.6486 H   0  0  0  0  0  0  0  0  0  0  0  0
  1  2  1  0
  2  3  1  0
  3  4  1  0
  4  5  1  0
  5  6  1  0
  6  7  2  0
  7  8  1  0
  8  9  1  0
  9 10  2  0
 10 11  1  0
 11 12  2  0
 12 13  1  0
 13 14  1  0
 14 15  1  0
 15 16  2  0
 16 17  1  0
 17 18  2  0
 17 19  1  0
 19 20  1  0
 16 21  1  0
  8 22  2  0
 22 23  1  0
 22 24  1  0
 24 25  2  0
 25 26  1  0
 25  6  1  0
 21  9  1  0
 21 13  2  0
  1 27  1  0
  1 28  1  0
  1 29  1  0
  2 30  1  0
  2 31  1  0
  3 32  1  0
  3 33  1  0
  4 34  1  0
  5 35  1  0
  5 36  1  0
  7 37  1  0
 10 38  1  0
 11 39  1  0
 14 40  1  0
 15 41  1  0
 20 42  1  0
 20 43  1  0
 20 44  1  0
 24 45  1  0
M  CHG  3  19  -1  23  -1  26  -1
M  END
>  <UniqueID>  (16) 
16

>  <SMILES>  (16) 
CCCNCc1cc(-c2ccnc3[nH]cc(C(=O)[N-]C)c23)c([O-])cc1[O-]

>  <Energy>  (16) 
85.17514373107203

>  <Genealogy>  (16) 
CCCNCc1cc(-c2ccnc3[nH]cc(C(=O)[N-]C)c23)c([O-])cc1[O-] (protonated)
CCCNCc1cc(-c2ccnc3[nH]cc(C(=O)[N-]C)c23)c([O-])cc1[O-] (3D coordinates assigned)
CCCNCc1cc(-c2ccnc3[nH]cc(C(=O)[N-]C)c23)c([O-])cc1[O-] (optimized conformer: 85.17514373107203 kcal/mol)

>  <smiles>  (16) 
CCCNCc1cc(-c2ccnc3[nH]cc(C(=O)NC)c23)c(O)cc1O

>  <score_type>  (16) 
oracle

>  <origin>  (16) 
adgpu

>  <m_score__min__energy>  (16) 
-10.65

>  <m_primary>  (16) 
energy

$$$$
16:0
     RDKit          3D

 58 61  0  0  0  0  0  0  0  0999 V2000
  -10.0160   20.8680  -32.3390 C   0  0  0  0  0  0  0  0  0  0  0  0
   -9.4760   19.5040  -32.7570 C   0  0  0  0  0  0  0  0  0  0  0  0
   -8.3870   19.1110  -31.9200 O   0  0  0  0  0  0  0  0  0  0  0  0
   -7.0370   19.0520  -32.3090 C   0  0  0  0  0  0  0  0  0  0  0  0
   -6.3060   17.8360  -32.3170 C   0  0  0  0  0  0  0  0  0  0  0  0
   -4.9760   17.8730  -32.7330 C   0  0  0  0  0  0  0  0  0  0  0  0
   -4.3710   19.0390  -33.1180 C   0  0  0  0  0  0  0  0  0  0  0  0
   -5.0530   20.2530  -33.1180 C   0  0  0  0  0  0  0  0  0  0  0  0
   -6.4090   20.2510  -32.7320 C   0  0  0  0  0  0  0  0  0  0  0  0
   -7.1680   21.4610  -32.7810 N   0  0  0  0  0  0  0  0  0  0  0  0
   -7.4350   22.4550  -31.3840 S   0  0  0  0  0  0  0  0  0  0  0  0
   -7.9420   21.5900  -30.2630 O   0  0  0  0  0  0  0  0  0  0  0  0
   -8.4810   23.4870  -31.7050 O   0  0  0  0  0  0  0  0  0  0  0  0
   -5.9590   23.2720  -30.8710 C   0  0  0  0  0  0  0  0  0  0  0  0
   -6.0000   24.6300  -30.5280 C   0  0  0  0  0  0  0  0  0  0  0  0
   -4.8320   25.2930  -30.1480 C   0  0  0  0  0  0  0  0  0  0  0  0
   -3.6170   24.6050  -30.0900 C   0  0  0  0  0  0  0  0  0  0  0  0
   -2.4740   25.2870  -29.6890 O   0  0  0  0  0  0  0  0  0  0  0  0
   -3.5610   23.2390  -30.4340 C   0  0  0  0  0  0  0  0  0  0  0  0
   -2.0520   22.3170  -30.3200 S   0  0  0  0  0  0  0  0  0  0  0  0
   -0.9880   23.2030  -29.7350 O   0  0  0  0  0  0  0  0  0  0  0  0
   -1.6050   21.9170  -31.7000 O   0  0  0  0  0  0  0  0  0  0  0  0
   -2.1890   20.8830  -29.3310 N   0  0  0  0  0  0  0  0  0  0  0  0
   -3.0940   21.0720  -28.2020 C   0  0  0  0  0  0  0  0  0  0  0  0
   -2.6940   20.0300  -27.1700 C   0  0  0  0  0  0  0  0  0  0  0  0
   -1.2510   19.6750  -27.5020 C   0  0  0  0  0  0  0  0  0  0  0  0
   -0.9110   20.4940  -28.7380 C   0  0  0  0  0  0  0  0  0  0  0  0
   -4.7380   22.5830  -30.8250 C   0  0  0  0  0  0  0  0  0  0  0  0
   -3.1210   18.7750  -33.5470 N   0  0  0  0  0  0  0  0  0  0  0  0
   -2.1930   19.6920  -34.1980 C   0  0  0  0  0  0  0  0  0  0  0  0
   -3.0110   17.4290  -33.4330 C   0  0  0  0  0  0  0  0  0  0  0  0
   -1.9980   16.7810  -33.8100 O   0  0  0  0  0  0  0  0  0  0  0  0
   -4.1180   16.8480  -32.9070 N   0  0  0  0  0  0  0  0  0  0  0  0
   -4.3890   15.4220  -32.7480 C   0  0  0  0  0  0  0  0  0  0  0  0
  -10.0412   20.9316  -31.2411 H   0  0  0  0  0  0  0  0  0  0  0  0
   -9.3630   21.6586  -32.7372 H   0  0  0  0  0  0  0  0  0  0  0  0
  -11.0332   20.9974  -32.7372 H   0  0  0  0  0  0  0  0  0  0  0  0
  -10.2801   18.7578  -32.6766 H   0  0  0  0  0  0  0  0  0  0  0  0
   -9.1170   19.5700  -33.7947 H   0  0  0  0  0  0  0  0  0  0  0  0
   -6.7751   16.8915  -32.0041 H   0  0  0  0  0  0  0  0  0  0  0  0
   -4.5488   21.1859  -33.4105 H   0  0  0  0  0  0  0  0  0  0  0  0
   -6.9551   25.1749  -30.5583 H   0  0  0  0  0  0  0  0  0  0  0  0
   -4.8681   26.3624  -29.8929 H   0  0  0  0  0  0  0  0  0  0  0  0
   -2.9821   22.0845  -27.7870 H   0  0  0  0  0  0  0  0  0  0  0  0
   -4.1458   20.9594  -28.5036 H   0  0  0  0  0  0  0  0  0  0  0  0
   -2.7653   20.4457  -26.1541 H   0  0  0  0  0  0  0  0  0  0  0  0
   -3.3518   19.1488  -27.1983 H   0  0  0  0  0  0  0  0  0  0  0  0
   -0.5864   19.9428  -26.6674 H   0  0  0  0  0  0  0  0  0  0  0  0
   -1.1235   18.5964  -27.6766 H   0  0  0  0  0  0  0  0  0  0  0  0
   -0.3330   21.3868  -28.4572 H   0  0  0  0  0  0  0  0  0  0  0  0
   -0.2985   19.9169  -29.4464 H   0  0  0  0  0  0  0  0  0  0  0  0
   -4.7030   21.5180  -31.0981 H   0  0  0  0  0  0  0  0  0  0  0  0
   -1.6303   20.2481  -33.4337 H   0  0  0  0  0  0  0  0  0  0  0  0
   -1.4930   19.1210  -34.8257 H   0  0  0  0  0  0  0  0  0  0  0  0
   -2.7556   20.3987  -34.8257 H   0  0  0  0  0  0  0  0  0  0  0  0
   -4.4360   15.1749  -31.6772 H   0  0  0  0  0  0  0  0  0  0  0  0
   -5.3499   15.1761  -33.2235 H   0  0  0  0  0  0  0  0  0  0  0  0
   -3.5852   14.8408  -33.2235 H   0  0  0  0  0  0  0  0  0  0  0  0
  1  2  1  0
  2  3  1  0
  3  4  1  0
  4  5  2  0
  5  6  1  0
  6  7  2  0
  7  8  1  0
  8  9  2  0
  9 10  1  0
 10 11  1  0
 11 12  2  0
 11 13  2  0
 11 14  1  0
 14 15  2  0
 15 16  1  0
 16 17  2  0
 17 18  1  0
 17 19  1  0
 19 20  1  0
 20 21  2  0
 20 22  2  0
 20 23  1  0
 23 24  1  0
 24 25  1  0
 25 26  1  0
 26 27  1  0
 19 28  2  0
  7 29  1  0
 29 30  1  0
 29 31  1  0
 31 32  2  0
 31 33  1  0
 33 34  1  0
  9  4  1  0
 28 14  1  0
 33  6  1  0
 27 23  1  0
  1 35  1  0
  1 36  1  0
  1 37  1  0
  2 38  1  0
  2 39  1  0
  5 40  1  0
  8 41  1  0
 15 42  1  0
 16 43  1  0
 24 44  1  0
 24 45  1  0
 25 46  1  0
 25 47  1  0
 26 48  1  0
 26 49  1  0
 27 50  1  0
 27 51  1  0
 28 52  1  0
 30 53  1  0
 30 54  1  0
 30 55  1  0
 34 56  1  0
 34 57  1  0
 34 58  1  0
M  CHG  2  10  -1  18  -1
M  END
>  <UniqueID>  (17) 
17

>  <SMILES>  (17) 
CCOc1cc2c(cc1[N-]S(=O)(=O)c1ccc([O-])c(S(=O)(=O)N3CCCC3)c1)n(C)c(=O)n2C

>  <Energy>  (17) 
106.40352549211536

>  <Genealogy>  (17) 
CCOc1cc2c(cc1[N-]S(=O)(=O)c1ccc([O-])c(S(=O)(=O)N3CCCC3)c1)n(C)c(=O)n2C (protonated)
CCOc1cc2c(cc1[N-]S(=O)(=O)c1ccc([O-])c(S(=O)(=O)N3CCCC3)c1)n(C)c(=O)n2C (3D coordinates assigned)
CCOc1cc2c(cc1[N-]S(=O)(=O)c1ccc([O-])c(S(=O)(=O)N3CCCC3)c1)n(C)c(=O)n2C (nonaromatic ring conformer: 106.40352549211536 kcal/mol)

>  <smiles>  (17) 
CCOc1cc2c(cc1NS(=O)(=O)c1ccc(O)c(S(=O)(=O)N3CCCC3)c1)n(C)c(=O)n2C

>  <score_type>  (17) 
oracle

>  <origin>  (17) 
adgpu

>  <m_score__min__energy>  (17) 
-12.5

>  <m_primary>  (17) 
energy

$$$$
17:0
     RDKit          3D

 38 41  0  0  0  0  0  0  0  0999 V2000
   -5.9500   18.6900  -34.2590 O   0  0  0  0  0  0  0  0  0  0  0  0
   -6.1340   19.7210  -33.5600 C   0  0  0  0  0  0  0  0  0  0  0  0
   -5.0970   20.6490  -33.2350 N   0  0  0  0  0  0  0  0  0  0  0  0
   -5.7760   21.6350  -32.4510 C   0  0  0  0  0  0  0  0  0  0  0  0
   -5.1970   22.7710  -31.8890 C   0  0  0  0  0  0  0  0  0  0  0  0
   -6.0170   23.6470  -31.1500 C   0  0  0  0  0  0  0  0  0  0  0  0
   -5.3070   25.0860  -30.4230 S   0  0  0  0  0  0  0  0  0  0  0  0
   -5.7320   26.2880  -31.2190 O   0  0  0  0  0  0  0  0  0  0  0  0
   -5.7730   25.2610  -29.0040 O   0  0  0  0  0  0  0  0  0  0  0  0
   -3.5760   24.9710  -30.4480 N   0  0  0  0  0  0  0  0  0  0  0  0
   -2.7810   24.1800  -29.5530 C   0  0  0  0  0  0  0  0  0  0  0  0
   -3.1340   22.8640  -29.2080 C   0  0  0  0  0  0  0  0  0  0  0  0
   -2.3290   22.1120  -28.3390 C   0  0  0  0  0  0  0  0  0  0  0  0
   -1.1450   22.6740  -27.8230 C   0  0  0  0  0  0  0  0  0  0  0  0
   -0.8020   23.9920  -28.1560 C   0  0  0  0  0  0  0  0  0  0  0  0
   -1.6100   24.7360  -29.0210 C   0  0  0  0  0  0  0  0  0  0  0  0
   -1.2430   26.0370  -29.3480 O   0  0  0  0  0  0  0  0  0  0  0  0
   -0.2940   21.9100  -26.8360 C   0  0  0  0  0  0  0  0  0  0  0  0
   -0.5020   20.4570  -26.9240 N   0  0  0  0  0  0  0  0  0  0  0  0
   -1.9290   20.1270  -26.8430 C   0  0  0  0  0  0  0  0  0  0  0  0
   -2.6910   20.6780  -28.0520 C   0  0  0  0  0  0  0  0  0  0  0  0
   -7.3930   23.3640  -30.9880 C   0  0  0  0  0  0  0  0  0  0  0  0
   -7.9560   22.2110  -31.5590 C   0  0  0  0  0  0  0  0  0  0  0  0
   -7.1210   21.3680  -32.2860 C   0  0  0  0  0  0  0  0  0  0  0  0
   -7.4050   20.1340  -32.9870 C   0  0  0  0  0  0  0  0  0  0  0  0
   -8.5140   19.5470  -33.0820 O   0  0  0  0  0  0  0  0  0  0  0  0
   -4.1247   22.9792  -32.0192 H   0  0  0  0  0  0  0  0  0  0  0  0
   -4.0503   22.4193  -29.6233 H   0  0  0  0  0  0  0  0  0  0  0  0
    0.1082   24.4433  -27.7342 H   0  0  0  0  0  0  0  0  0  0  0  0
    0.7648   22.1283  -27.0391 H   0  0  0  0  0  0  0  0  0  0  0  0
   -0.5844   22.2299  -25.8244 H   0  0  0  0  0  0  0  0  0  0  0  0
   -0.1180   20.1190  -27.8380 H   0  0  0  0  0  0  0  0  0  0  0  0
   -2.0439   19.0334  -26.8137 H   0  0  0  0  0  0  0  0  0  0  0  0
   -2.3423   20.5834  -25.9315 H   0  0  0  0  0  0  0  0  0  0  0  0
   -2.4485   20.0668  -28.9338 H   0  0  0  0  0  0  0  0  0  0  0  0
   -3.7664   20.6371  -27.8244 H   0  0  0  0  0  0  0  0  0  0  0  0
   -8.0274   24.0523  -30.4102 H   0  0  0  0  0  0  0  0  0  0  0  0
   -9.0246   21.9813  -31.4353 H   0  0  0  0  0  0  0  0  0  0  0  0
  1  2  2  0
  2  3  1  0
  3  4  1  0
  4  5  2  0
  5  6  1  0
  6  7  1  0
  7  8  2  0
  7  9  2  0
  7 10  1  0
 10 11  1  0
 11 12  2  0
 12 13  1  0
 13 14  2  0
 14 15  1  0
 15 16  2  0
 16 17  1  0
 14 18  1  0
 18 19  1  0
 19 20  1  0
 20 21  1  0
  6 22  2  0
 22 23  1  0
 23 24  2  0
 24 25  1  0
 25 26  2  0
 25  2  1  0
 24  4  1  0
 16 11  1  0
 21 13  1  0
  5 27  1  0
 12 28  1  0
 15 29  1  0
 18 30  1  0
 18 31  1  0
 19 32  1  0
 20 33  1  0
 20 34  1  0
 21 35  1  0
 21 36  1  0
 22 37  1  0
 23 38  1  0
M  CHG  3   3  -1  10  -1  17  -1
M  END
>  <UniqueID>  (18) 
18

>  <SMILES>  (18) 
O=C1[N-]c2cc(S(=O)(=O)[N-]c3cc4c(cc3[O-])CNCC4)ccc2C1=O

>  <Energy>  (18) 
77.59187674192026

>  <Genealogy>  (18) 
O=C1[N-]c2cc(S(=O)(=O)[N-]c3cc4c(cc3[O-])CNCC4)ccc2C1=O (protonated)
O=C1[N-]c2cc(S(=O)(=O)[N-]c3cc4c(cc3[O-])CNCC4)ccc2C1=O (3D coordinates assigned)
O=C1[N-]c2cc(S(=O)(=O)[N-]c3cc4c(cc3[O-])CNCC4)ccc2C1=O (nonaromatic ring conformer: 77.59187674192026 kcal/mol)

>  <smiles>  (18) 
O=C1Nc2cc(S(=O)(=O)Nc3cc4c(cc3O)CNCC4)ccc2C1=O

>  <score_type>  (18) 
oracle

>  <origin>  (18) 
adgpu

>  <m_score__min__energy>  (18) 
-14.09

>  <m_primary>  (18) 
energy

$$$$
18:0
     RDKit          3D

 48 51  0  0  0  0  0  0  0  0999 V2000
    0.7910   27.8380  -26.7170 C   0  0  0  0  0  0  0  0  0  0  0  0
    0.0150   26.5900  -26.9640 C   0  0  0  0  0  0  0  0  0  0  0  0
   -0.6650   26.2780  -28.1260 C   0  0  0  0  0  0  0  0  0  0  0  0
   -1.2730   25.0770  -27.8360 C   0  0  0  0  0  0  0  0  0  0  0  0
   -2.1090   24.3480  -28.7440 N   0  0  0  0  0  0  0  0  0  0  0  0
   -1.5750   23.4450  -29.7240 C   0  0  0  0  0  0  0  0  0  0  0  0
   -0.3270   23.3260  -29.8650 O   0  0  0  0  0  0  0  0  0  0  0  0
   -2.4780   22.5470  -30.4810 C   0  0  0  0  0  0  0  0  0  0  0  0
   -2.0100   21.2480  -30.7160 C   0  0  0  0  0  0  0  0  0  0  0  0
   -2.8330   20.2900  -31.2900 C   0  0  0  0  0  0  0  0  0  0  0  0
   -4.1440   20.6010  -31.6290 C   0  0  0  0  0  0  0  0  0  0  0  0
   -4.6610   21.9050  -31.4360 C   0  0  0  0  0  0  0  0  0  0  0  0
   -3.7970   22.9070  -30.8910 C   0  0  0  0  0  0  0  0  0  0  0  0
   -4.2820   24.2320  -30.8270 C   0  0  0  0  0  0  0  0  0  0  0  0
   -3.4740   25.2980  -30.4530 O   0  0  0  0  0  0  0  0  0  0  0  0
   -5.5910   24.5140  -31.1860 C   0  0  0  0  0  0  0  0  0  0  0  0
   -6.4260   23.5040  -31.6500 C   0  0  0  0  0  0  0  0  0  0  0  0
   -7.6100   23.8080  -31.9630 O   0  0  0  0  0  0  0  0  0  0  0  0
   -5.9670   22.2160  -31.7780 N   0  0  0  0  0  0  0  0  0  0  0  0
   -6.8780   21.1720  -32.2910 C   0  0  0  0  0  0  0  0  0  0  0  0
   -0.9540   24.7010  -26.5780 N   0  0  0  0  0  0  0  0  0  0  0  0
   -1.2630   23.4370  -25.9080 C   0  0  0  0  0  0  0  0  0  0  0  0
   -0.7490   22.2850  -26.7260 C   0  0  0  0  0  0  0  0  0  0  0  0
    0.5990   22.2470  -27.1160 C   0  0  0  0  0  0  0  0  0  0  0  0
    1.0890   21.1650  -27.8550 C   0  0  0  0  0  0  0  0  0  0  0  0
    0.2390   20.1110  -28.2040 C   0  0  0  0  0  0  0  0  0  0  0  0
    0.8550   18.7550  -29.1290 Cl  0  0  0  0  0  0  0  0  0  0  0  0
   -1.1030   20.1380  -27.8080 C   0  0  0  0  0  0  0  0  0  0  0  0
   -1.5960   21.2170  -27.0700 C   0  0  0  0  0  0  0  0  0  0  0  0
   -0.1760   25.6270  -26.0390 N   0  0  0  0  0  0  0  0  0  0  0  0
    0.8912   27.9991  -25.6335 H   0  0  0  0  0  0  0  0  0  0  0  0
    1.7900   27.7438  -27.1676 H   0  0  0  0  0  0  0  0  0  0  0  0
    0.2646   28.6923  -27.1676 H   0  0  0  0  0  0  0  0  0  0  0  0
   -0.7100   26.8536  -29.0623 H   0  0  0  0  0  0  0  0  0  0  0  0
   -3.1220   24.2600  -28.5010 H   0  0  0  0  0  0  0  0  0  0  0  0
   -0.9778   20.9843  -30.4422 H   0  0  0  0  0  0  0  0  0  0  0  0
   -2.4452   19.2779  -31.4779 H   0  0  0  0  0  0  0  0  0  0  0  0
   -4.7917   19.8205  -32.0548 H   0  0  0  0  0  0  0  0  0  0  0  0
   -5.9712   25.5429  -31.1032 H   0  0  0  0  0  0  0  0  0  0  0  0
   -7.3408   20.6416  -31.4457 H   0  0  0  0  0  0  0  0  0  0  0  0
   -7.6624   21.6391  -32.9046 H   0  0  0  0  0  0  0  0  0  0  0  0
   -6.3090   20.4581  -32.9046 H   0  0  0  0  0  0  0  0  0  0  0  0
   -0.7849   23.4229  -24.9174 H   0  0  0  0  0  0  0  0  0  0  0  0
   -2.3533   23.3436  -25.7961 H   0  0  0  0  0  0  0  0  0  0  0  0
    1.2727   23.0714  -26.8394 H   0  0  0  0  0  0  0  0  0  0  0  0
    2.1450   21.1433  -28.1621 H   0  0  0  0  0  0  0  0  0  0  0  0
   -1.7715   19.3074  -28.0785 H   0  0  0  0  0  0  0  0  0  0  0  0
   -2.6505   21.2309  -26.7571 H   0  0  0  0  0  0  0  0  0  0  0  0
  1  2  1  0
  2  3  1  0
  3  4  2  0
  4  5  1  0
  5  6  1  0
  6  7  2  0
  6  8  1  0
  8  9  2  0
  9 10  1  0
 10 11  2  0
 11 12  1  0
 12 13  2  0
 13 14  1  0
 14 15  1  0
 14 16  2  0
 16 17  1  0
 17 18  2  0
 17 19  1  0
 19 20  1  0
  4 21  1  0
 21 22  1  0
 22 23  1  0
 23 24  2  0
 24 25  1  0
 25 26  2  0
 26 27  1  0
 26 28  1  0
 28 29  2  0
 21 30  1  0
 30  2  2  0
 13  8  1  0
 29 23  1  0
 19 12  1  0
  1 31  1  0
  1 32  1  0
  1 33  1  0
  3 34  1  0
  5 35  1  0
  9 36  1  0
 10 37  1  0
 11 38  1  0
 16 39  1  0
 20 40  1  0
 20 41  1  0
 20 42  1  0
 22 43  1  0
 22 44  1  0
 24 45  1  0
 25 46  1  0
 28 47  1  0
 29 48  1  0
M  CHG  1  15  -1
M  END
>  <UniqueID>  (19) 
19

>  <SMILES>  (19) 
Cc1cc(NC(=O)c2cccc3c2c([O-])cc(=O)n3C)n(Cc2ccc(Cl)cc2)n1

>  <Energy>  (19) 
106.9640501894728

>  <Genealogy>  (19) 
Cc1cc(NC(=O)c2cccc3c2c([O-])cc(=O)n3C)n(Cc2ccc(Cl)cc2)n1 (protonated)
Cc1cc(NC(=O)c2cccc3c2c([O-])cc(=O)n3C)n(Cc2ccc(Cl)cc2)n1 (3D coordinates assigned)
Cc1cc(NC(=O)c2cccc3c2c([O-])cc(=O)n3C)n(Cc2ccc(Cl)cc2)n1 (optimized conformer: 106.9640501894728 kcal/mol)

>  <smiles>  (19) 
Cc1cc(NC(=O)c2cccc3c2c(O)cc(=O)n3C)n(Cc2ccc(Cl)cc2)n1

>  <score_type>  (19) 
oracle

>  <origin>  (19) 
adgpu

>  <m_score__min__energy>  (19) 
-10.949999999999999

>  <m_primary>  (19) 
energy

$$$$
19:0
     RDKit          3D

 56 59  0  0  0  0  0  0  0  0999 V2000
    0.3090   17.8900  -27.9440 C   0  0  0  0  0  0  0  0  0  0  0  0
    0.6690   18.7910  -29.1210 C   0  0  0  0  0  0  0  0  0  0  0  0
   -0.0630   20.0530  -29.0430 N   0  0  0  0  0  0  0  0  0  0  0  0
   -0.5900   20.6500  -27.8070 C   0  0  0  0  0  0  0  0  0  0  0  0
   -1.4080   21.8110  -28.3020 C   0  0  0  0  0  0  0  0  0  0  0  0
   -2.1680   22.7120  -27.5560 C   0  0  0  0  0  0  0  0  0  0  0  0
   -2.8930   23.7120  -28.2360 C   0  0  0  0  0  0  0  0  0  0  0  0
   -3.6600   24.6250  -27.5190 O   0  0  0  0  0  0  0  0  0  0  0  0
   -2.8410   23.7990  -29.6470 C   0  0  0  0  0  0  0  0  0  0  0  0
   -3.5700   24.8400  -30.3090 N   0  0  0  0  0  0  0  0  0  0  0  0
   -5.2960   25.0010  -30.2770 S   0  0  0  0  0  0  0  0  0  0  0  0
   -5.7070   26.1000  -31.2150 O   0  0  0  0  0  0  0  0  0  0  0  0
   -5.7590   25.3570  -28.8920 O   0  0  0  0  0  0  0  0  0  0  0  0
   -6.0140   23.4870  -30.8180 C   0  0  0  0  0  0  0  0  0  0  0  0
   -5.3250   22.2730  -30.6700 C   0  0  0  0  0  0  0  0  0  0  0  0
   -5.8600   21.0930  -31.1950 C   0  0  0  0  0  0  0  0  0  0  0  0
   -7.0920   21.1140  -31.8650 C   0  0  0  0  0  0  0  0  0  0  0  0
   -7.7330   19.6220  -32.5420 S   0  0  0  0  0  0  0  0  0  0  0  0
   -9.1130   19.8920  -33.0750 O   0  0  0  0  0  0  0  0  0  0  0  0
   -7.8190   18.5600  -31.4800 O   0  0  0  0  0  0  0  0  0  0  0  0
   -6.6880   19.0820  -33.8330 N   0  0  0  0  0  0  0  0  0  0  0  0
   -5.4160   19.8480  -33.8440 C   0  0  0  0  0  0  0  0  0  0  0  0
   -4.2430   19.0680  -33.2260 C   0  0  0  0  0  0  0  0  0  0  0  0
   -4.0040   17.7360  -33.9660 C   0  0  0  0  0  0  0  0  0  0  0  0
   -5.2970   17.1480  -34.5610 C   0  0  0  0  0  0  0  0  0  0  0  0
   -6.5240   17.6110  -33.7680 C   0  0  0  0  0  0  0  0  0  0  0  0
   -7.7920   22.3240  -31.9940 C   0  0  0  0  0  0  0  0  0  0  0  0
   -7.2520   23.5060  -31.4770 C   0  0  0  0  0  0  0  0  0  0  0  0
   -2.0710   22.8660  -30.3780 C   0  0  0  0  0  0  0  0  0  0  0  0
   -1.3670   21.8890  -29.6800 C   0  0  0  0  0  0  0  0  0  0  0  0
   -0.5570   20.8000  -30.1530 C   0  0  0  0  0  0  0  0  0  0  0  0
   -0.3370   20.5130  -31.3630 O   0  0  0  0  0  0  0  0  0  0  0  0
    0.5194   18.4165  -27.0014 H   0  0  0  0  0  0  0  0  0  0  0  0
   -0.7600   17.6351  -27.9909 H   0  0  0  0  0  0  0  0  0  0  0  0
    0.9080   16.9686  -27.9909 H   0  0  0  0  0  0  0  0  0  0  0  0
    1.7493   18.9975  -29.1015 H   0  0  0  0  0  0  0  0  0  0  0  0
    0.3971   18.2796  -30.0562 H   0  0  0  0  0  0  0  0  0  0  0  0
   -1.2175   19.9315  -27.2593 H   0  0  0  0  0  0  0  0  0  0  0  0
    0.2009   20.9506  -27.1041 H   0  0  0  0  0  0  0  0  0  0  0  0
   -2.2010   22.6437  -26.4586 H   0  0  0  0  0  0  0  0  0  0  0  0
   -4.2500   25.3070  -27.9860 H   0  0  0  0  0  0  0  0  0  0  0  0
   -4.3616   22.2501  -30.1396 H   0  0  0  0  0  0  0  0  0  0  0  0
   -5.3131   20.1452  -31.0823 H   0  0  0  0  0  0  0  0  0  0  0  0
   -5.1636   20.0945  -34.8859 H   0  0  0  0  0  0  0  0  0  0  0  0
   -5.5691   20.7515  -33.2355 H   0  0  0  0  0  0  0  0  0  0  0  0
   -3.3321   19.6814  -33.2890 H   0  0  0  0  0  0  0  0  0  0  0  0
   -4.4893   18.8435  -32.1777 H   0  0  0  0  0  0  0  0  0  0  0  0
   -3.2880   17.9104  -34.7827 H   0  0  0  0  0  0  0  0  0  0  0  0
   -3.6160   17.0131  -33.2333 H   0  0  0  0  0  0  0  0  0  0  0  0
   -5.3966   17.4801  -35.6049 H   0  0  0  0  0  0  0  0  0  0  0  0
   -5.2397   16.0507  -34.5107 H   0  0  0  0  0  0  0  0  0  0  0  0
   -7.4217   17.1323  -34.1863 H   0  0  0  0  0  0  0  0  0  0  0  0
   -6.3830   17.3252  -32.7152 H   0  0  0  0  0  0  0  0  0  0  0  0
   -8.7671   22.3425  -32.5027 H   0  0  0  0  0  0  0  0  0  0  0  0
   -7.7999   24.4534  -31.5875 H   0  0  0  0  0  0  0  0  0  0  0  0
   -2.0290   22.9111  -31.4763 H   0  0  0  0  0  0  0  0  0  0  0  0
  1  2  1  0
  2  3  1  0
  3  4  1  0
  4  5  1  0
  5  6  2  0
  6  7  1  0
  7  8  1  0
  7  9  2  0
  9 10  1  0
 10 11  1  0
 11 12  2  0
 11 13  2  0
 11 14  1  0
 14 15  2  0
 15 16  1  0
 16 17  2  0
 17 18  1  0
 18 19  2  0
 18 20  2  0
 18 21  1  0
 21 22  1  0
 22 23  1  0
 23 24  1  0
 24 25  1  0
 25 26  1  0
 17 27  1  0
 27 28  2  0
  9 29  1  0
 29 30  2  0
 30 31  1  0
 31 32  2  0
 31  3  1  0
 30  5  1  0
 28 14  1  0
 26 21  1  0
  1 33  1  0
  1 34  1  0
  1 35  1  0
  2 36  1  0
  2 37  1  0
  4 38  1  0
  4 39  1  0
  6 40  1  0
  8 41  1  0
 15 42  1  0
 16 43  1  0
 22 44  1  0
 22 45  1  0
 23 46  1  0
 23 47  1  0
 24 48  1  0
 24 49  1  0
 25 50  1  0
 25 51  1  0
 26 52  1  0
 26 53  1  0
 27 54  1  0
 28 55  1  0
 29 56  1  0
M  CHG  1  10  -1
M  END
>  <UniqueID>  (20) 
20

>  <SMILES>  (20) 
CCN1Cc2cc(O)c([N-]S(=O)(=O)c3ccc(S(=O)(=O)N4CCCCC4)cc3)cc2C1=O

>  <Energy>  (20) 
85.18294272672165

>  <Genealogy>  (20) 
CCN1Cc2cc(O)c([N-]S(=O)(=O)c3ccc(S(=O)(=O)N4CCCCC4)cc3)cc2C1=O (protonated)
CCN1Cc2cc(O)c([N-]S(=O)(=O)c3ccc(S(=O)(=O)N4CCCCC4)cc3)cc2C1=O (3D coordinates assigned)
CCN1Cc2cc(O)c([N-]S(=O)(=O)c3ccc(S(=O)(=O)N4CCCCC4)cc3)cc2C1=O (nonaromatic ring conformer: 85.18294272672165 kcal/mol)

>  <smiles>  (20) 
CCN1Cc2cc(O)c(NS(=O)(=O)c3ccc(S(=O)(=O)N4CCCCC4)cc3)cc2C1=O

>  <score_type>  (20) 
oracle

>  <origin>  (20) 
adgpu

>  <m_score__min__energy>  (20) 
-12.81

>  <m_primary>  (20) 
energy

$$$$
20:0
     RDKit          3D

 43 44  0  0  0  0  0  0  0  0999 V2000
   -2.8800   21.0460  -27.8920 C   0  0  0  0  0  0  0  0  0  0  0  0
   -2.6300   22.5210  -27.5940 C   0  0  0  0  0  0  0  0  0  0  0  0
   -3.3770   23.4000  -28.5700 C   0  0  0  0  0  0  0  0  0  0  0  0
   -4.6930   23.0590  -28.9160 C   0  0  0  0  0  0  0  0  0  0  0  0
   -5.3990   23.8050  -29.8650 C   0  0  0  0  0  0  0  0  0  0  0  0
   -6.7330   23.4160  -30.2220 N   0  0  0  0  0  0  0  0  0  0  0  0
   -7.1290   23.2220  -31.6150 C   0  0  0  0  0  0  0  0  0  0  0  0
   -7.4200   21.7630  -31.8670 C   0  0  0  0  0  0  0  0  0  0  0  0
   -8.7600   21.3380  -31.9080 C   0  0  0  0  0  0  0  0  0  0  0  0
   -9.0730   19.9870  -32.0680 C   0  0  0  0  0  0  0  0  0  0  0  0
   -8.0540   19.0400  -32.1750 C   0  0  0  0  0  0  0  0  0  0  0  0
   -6.7190   19.4420  -32.1230 C   0  0  0  0  0  0  0  0  0  0  0  0
   -6.3870   20.7980  -31.9670 C   0  0  0  0  0  0  0  0  0  0  0  0
   -5.0030   21.1830  -31.9180 N   0  0  0  0  0  0  0  0  0  0  0  0
   -4.0890   20.4400  -31.0510 C   0  0  0  0  0  0  0  0  0  0  0  0
   -4.4360   21.9230  -33.0440 C   0  0  0  0  0  0  0  0  0  0  0  0
   -4.7810   24.9290  -30.4360 C   0  0  0  0  0  0  0  0  0  0  0  0
   -5.4010   25.6640  -31.2480 O   0  0  0  0  0  0  0  0  0  0  0  0
   -3.5040   25.2440  -30.0970 N   0  0  0  0  0  0  0  0  0  0  0  0
   -2.7810   24.5150  -29.2050 C   0  0  0  0  0  0  0  0  0  0  0  0
   -1.3740   24.9440  -28.9090 C   0  0  0  0  0  0  0  0  0  0  0  0
   -2.9739   20.4917  -26.9465 H   0  0  0  0  0  0  0  0  0  0  0  0
   -3.8087   20.9414  -28.4722 H   0  0  0  0  0  0  0  0  0  0  0  0
   -2.0376   20.6412  -28.4722 H   0  0  0  0  0  0  0  0  0  0  0  0
   -2.9711   22.7454  -26.5726 H   0  0  0  0  0  0  0  0  0  0  0  0
   -1.5530   22.7226  -27.6911 H   0  0  0  0  0  0  0  0  0  0  0  0
   -5.1751   22.1950  -28.4354 H   0  0  0  0  0  0  0  0  0  0  0  0
   -7.2960   22.9060  -29.5020 H   0  0  0  0  0  0  0  0  0  0  0  0
   -8.0314   23.8154  -31.8238 H   0  0  0  0  0  0  0  0  0  0  0  0
   -6.3099   23.5472  -32.2733 H   0  0  0  0  0  0  0  0  0  0  0  0
   -9.5691   22.0771  -31.8131 H   0  0  0  0  0  0  0  0  0  0  0  0
  -10.1250   19.6685  -32.1098 H   0  0  0  0  0  0  0  0  0  0  0  0
   -8.3033   17.9760  -32.3004 H   0  0  0  0  0  0  0  0  0  0  0  0
   -5.9197   18.6908  -32.2049 H   0  0  0  0  0  0  0  0  0  0  0  0
   -4.3369   20.6415  -29.9984 H   0  0  0  0  0  0  0  0  0  0  0  0
   -4.1879   19.3629  -31.2513 H   0  0  0  0  0  0  0  0  0  0  0  0
   -3.0548   20.7568  -31.2513 H   0  0  0  0  0  0  0  0  0  0  0  0
   -3.8079   22.7427  -32.6650 H   0  0  0  0  0  0  0  0  0  0  0  0
   -3.8238   21.2453  -33.6571 H   0  0  0  0  0  0  0  0  0  0  0  0
   -5.2496   22.3378  -33.6571 H   0  0  0  0  0  0  0  0  0  0  0  0
   -1.2259   24.9892  -27.8200 H   0  0  0  0  0  0  0  0  0  0  0  0
   -0.6704   24.2196  -29.3450 H   0  0  0  0  0  0  0  0  0  0  0  0
   -1.1943   25.9378  -29.3450 H   0  0  0  0  0  0  0  0  0  0  0  0
  1  2  1  0
  2  3  1  0
  3  4  1  0
  4  5  2  0
  5  6  1  0
  6  7  1  0
  7  8  1  0
  8  9  2  0
  9 10  1  0
 10 11  2  0
 11 12  1  0
 12 13  2  0
 13 14  1  0
 14 15  1  0
 14 16  1  0
  5 17  1  0
 17 18  2  0
 17 19  1  0
 19 20  1  0
 20 21  1  0
 20  3  2  0
 13  8  1  0
  1 22  1  0
  1 23  1  0
  1 24  1  0
  2 25  1  0
  2 26  1  0
  4 27  1  0
  6 28  1  0
  7 29  1  0
  7 30  1  0
  9 31  1  0
 10 32  1  0
 11 33  1  0
 12 34  1  0
 15 35  1  0
 15 36  1  0
 15 37  1  0
 16 38  1  0
 16 39  1  0
 16 40  1  0
 21 41  1  0
 21 42  1  0
 21 43  1  0
M  CHG  1  19  -1
M  END
>  <UniqueID>  (21) 
21

>  <SMILES>  (21) 
CCc1cc(NCc2ccccc2N(C)C)c(=O)[n-]c1C

>  <Energy>  (21) 
45.28497594820071

>  <Genealogy>  (21) 
CCc1cc(NCc2ccccc2N(C)C)c(=O)[n-]c1C (protonated)
CCc1cc(NCc2ccccc2N(C)C)c(=O)[n-]c1C (3D coordinates assigned)
CCc1cc(NCc2ccccc2N(C)C)c(=O)[n-]c1C (optimized conformer: 45.28497594820071 kcal/mol)

>  <smiles>  (21) 
CCc1cc(NCc2ccccc2N(C)C)c(=O)[nH]c1C

>  <score_type>  (21) 
oracle

>  <origin>  (21) 
adgpu

>  <m_score__min__energy>  (21) 
-9.3399999999999999

>  <m_primary>  (21) 
energy

$$$$
21:0
     RDKit          3D

 52 55  0  0  0  0  0  0  0  0999 V2000
    5.0050   24.1820  -25.6410 N   0  0  0  0  0  0  0  0  0  0  0  0
    3.9870   25.5200  -25.2470 S   0  0  0  0  0  0  0  0  0  0  0  0
    4.7290   26.8010  -25.5090 O   0  0  0  0  0  0  0  0  0  0  0  0
    3.6210   25.4600  -23.7910 O   0  0  0  0  0  0  0  0  0  0  0  0
    2.5250   25.4640  -26.2270 C   0  0  0  0  0  0  0  0  0  0  0  0
    2.2440   24.3390  -27.0160 C   0  0  0  0  0  0  0  0  0  0  0  0
    1.0870   24.2990  -27.7960 C   0  0  0  0  0  0  0  0  0  0  0  0
    0.1810   25.3670  -27.7770 C   0  0  0  0  0  0  0  0  0  0  0  0
   -0.9690   25.3120  -28.6340 N   0  0  0  0  0  0  0  0  0  0  0  0
   -1.9780   24.4950  -28.5360 C   0  0  0  0  0  0  0  0  0  0  0  0
   -3.0290   24.5540  -29.3760 N   0  0  0  0  0  0  0  0  0  0  0  0
   -3.9490   23.5770  -29.1310 C   0  0  0  0  0  0  0  0  0  0  0  0
   -5.1940   23.4720  -29.9360 C   0  0  0  0  0  0  0  0  0  0  0  0
   -6.0080   24.6080  -30.1070 C   0  0  0  0  0  0  0  0  0  0  0  0
   -7.1970   24.5310  -30.8360 C   0  0  0  0  0  0  0  0  0  0  0  0
   -7.5930   23.3220  -31.4190 C   0  0  0  0  0  0  0  0  0  0  0  0
   -8.8000   23.2440  -32.1120 O   0  0  0  0  0  0  0  0  0  0  0  0
   -6.7770   22.1850  -31.2870 C   0  0  0  0  0  0  0  0  0  0  0  0
   -7.1700   20.8980  -31.8930 C   0  0  0  0  0  0  0  0  0  0  0  0
   -8.1210   20.8760  -32.7200 O   0  0  0  0  0  0  0  0  0  0  0  0
   -6.5200   19.6680  -31.5510 N   0  0  0  0  0  0  0  0  0  0  0  0
   -6.0060   18.6980  -32.5200 C   0  0  0  0  0  0  0  0  0  0  0  0
   -6.8150   17.3860  -32.4490 C   0  0  0  0  0  0  0  0  0  0  0  0
   -6.8580   16.6490  -33.8020 C   0  0  0  0  0  0  0  0  0  0  0  0
   -5.6470   16.9010  -34.5920 N   0  0  0  0  0  0  0  0  0  0  0  0
   -5.5330   18.3180  -34.9820 C   0  0  0  0  0  0  0  0  0  0  0  0
   -6.0760   19.3030  -33.9220 C   0  0  0  0  0  0  0  0  0  0  0  0
   -5.5970   22.2590  -30.5320 C   0  0  0  0  0  0  0  0  0  0  0  0
   -3.6070   22.7190  -28.0780 C   0  0  0  0  0  0  0  0  0  0  0  0
   -2.1230   23.2100  -27.4580 S   0  0  0  0  0  0  0  0  0  0  0  0
    0.4740   26.5030  -27.0020 C   0  0  0  0  0  0  0  0  0  0  0  0
    1.6330   26.5430  -26.2210 C   0  0  0  0  0  0  0  0  0  0  0  0
    4.3840   23.4220  -26.0000 H   0  0  0  0  0  0  0  0  0  0  0  0
    2.9377   23.4853  -27.0202 H   0  0  0  0  0  0  0  0  0  0  0  0
    0.8855   23.4228  -28.4298 H   0  0  0  0  0  0  0  0  0  0  0  0
   -5.7042   25.5668  -29.6616 H   0  0  0  0  0  0  0  0  0  0  0  0
   -7.8258   25.4260  -30.9525 H   0  0  0  0  0  0  0  0  0  0  0  0
   -9.1290   22.3730  -32.5090 H   0  0  0  0  0  0  0  0  0  0  0  0
   -4.9585   18.4615  -32.2818 H   0  0  0  0  0  0  0  0  0  0  0  0
   -6.3519   16.7253  -31.7013 H   0  0  0  0  0  0  0  0  0  0  0  0
   -7.8485   17.6434  -32.1740 H   0  0  0  0  0  0  0  0  0  0  0  0
   -6.9455   15.5681  -33.6174 H   0  0  0  0  0  0  0  0  0  0  0  0
   -7.7234   17.0213  -34.3698 H   0  0  0  0  0  0  0  0  0  0  0  0
   -4.8110   16.6330  -34.0200 H   0  0  0  0  0  0  0  0  0  0  0  0
   -4.4708   18.5456  -35.1549 H   0  0  0  0  0  0  0  0  0  0  0  0
   -6.1451   18.4514  -35.8862 H   0  0  0  0  0  0  0  0  0  0  0  0
   -5.4747   20.2238  -33.9461 H   0  0  0  0  0  0  0  0  0  0  0  0
   -7.1285   19.5216  -34.1555 H   0  0  0  0  0  0  0  0  0  0  0  0
   -4.9778   21.3590  -30.4031 H   0  0  0  0  0  0  0  0  0  0  0  0
   -4.2064   21.8697  -27.7183 H   0  0  0  0  0  0  0  0  0  0  0  0
   -0.2112   27.3635  -27.0102 H   0  0  0  0  0  0  0  0  0  0  0  0
    1.8448   27.4256  -25.5995 H   0  0  0  0  0  0  0  0  0  0  0  0
  1  2  1  0
  2  3  2  0
  2  4  2  0
  2  5  1  0
  5  6  2  0
  6  7  1  0
  7  8  2  0
  8  9  1  0
  9 10  2  3
 10 11  1  0
 11 12  1  0
 12 13  1  0
 13 14  2  0
 14 15  1  0
 15 16  2  0
 16 17  1  0
 16 18  1  0
 18 19  1  0
 19 20  2  0
 19 21  1  0
 21 22  1  0
 22 23  1  0
 23 24  1  0
 24 25  1  0
 25 26  1  0
 26 27  1  0
 18 28  2  0
 12 29  2  0
 29 30  1  0
  8 31  1  0
 31 32  2  0
 32  5  1  0
 30 10  1  0
 28 13  1  0
 27 22  1  0
  1 33  1  0
  6 34  1  0
  7 35  1  0
 14 36  1  0
 15 37  1  0
 17 38  1  0
 22 39  1  0
 23 40  1  0
 23 41  1  0
 24 42  1  0
 24 43  1  0
 25 44  1  0
 26 45  1  0
 26 46  1  0
 27 47  1  0
 27 48  1  0
 28 49  1  0
 29 50  1  0
 31 51  1  0
 32 52  1  0
M  CHG  3   1  -1  11  -1  21  -1
M  END
>  <UniqueID>  (22) 
22

>  <SMILES>  (22) 
[NH-]S(=O)(=O)c1ccc(N=c2[n-]c(-c3ccc(O)c(C(=O)[N-]C4CCNCC4)c3)cs2)cc1

>  <Energy>  (22) 
103.53425446000533

>  <Genealogy>  (22) 
[NH-]S(=O)(=O)c1ccc(N=c2[n-]c(-c3ccc(O)c(C(=O)[N-]C4CCNCC4)c3)cs2)cc1 (protonated)
[NH-]S(=O)(=O)c1ccc(N=c2[n-]c(-c3ccc(O)c(C(=O)[N-]C4CCNCC4)c3)cs2)cc1 (3D coordinates assigned)
[NH-]S(=O)(=O)c1ccc(N=c2[n-]c(-c3ccc(O)c(C(=O)[N-]C4CCNCC4)c3)cs2)cc1 (nonaromatic ring conformer: 103.53425446000533 kcal/mol)

>  <smiles>  (22) 
NS(=O)(=O)c1ccc(N=c2[nH]c(-c3ccc(O)c(C(=O)NC4CCNCC4)c3)cs2)cc1

>  <score_type>  (22) 
oracle

>  <origin>  (22) 
adgpu

>  <m_score__min__energy>  (22) 
-9.5500000000000007

>  <m_primary>  (22) 
energy

$$$$
22:0
     RDKit          3D

 35 37  0  0  0  0  0  0  0  0999 V2000
   -0.7420   23.0070  -29.3570 C   0  0  0  0  0  0  0  0  0  0  0  0
   -2.0010   23.7200  -29.7270 C   0  0  0  0  0  0  0  0  0  0  0  0
   -2.2960   24.9710  -29.3190 N   0  0  0  0  0  0  0  0  0  0  0  0
   -3.4970   25.2910  -29.7800 N   0  0  0  0  0  0  0  0  0  0  0  0
   -3.9740   24.2490  -30.4890 C   0  0  0  0  0  0  0  0  0  0  0  0
   -5.3360   24.2210  -31.1030 C   0  0  0  0  0  0  0  0  0  0  0  0
   -3.0550   23.2200  -30.4660 C   0  0  0  0  0  0  0  0  0  0  0  0
   -3.2270   21.6170  -31.1790 S   0  0  0  0  0  0  0  0  0  0  0  0
   -3.7510   20.6300  -30.1740 O   0  0  0  0  0  0  0  0  0  0  0  0
   -1.8810   21.1560  -31.6610 O   0  0  0  0  0  0  0  0  0  0  0  0
   -4.3190   21.6880  -32.5240 N   0  0  0  0  0  0  0  0  0  0  0  0
   -5.5730   20.9920  -32.6170 C   0  0  0  0  0  0  0  0  0  0  0  0
   -6.7760   21.6120  -32.2420 C   0  0  0  0  0  0  0  0  0  0  0  0
   -7.9950   20.9410  -32.3460 C   0  0  0  0  0  0  0  0  0  0  0  0
   -9.4560   21.7930  -31.8620 Cl  0  0  0  0  0  0  0  0  0  0  0  0
   -8.0370   19.6200  -32.8280 C   0  0  0  0  0  0  0  0  0  0  0  0
   -9.2520   18.9370  -32.9390 O   0  0  0  0  0  0  0  0  0  0  0  0
   -6.8410   18.9770  -33.2050 C   0  0  0  0  0  0  0  0  0  0  0  0
   -6.8580   17.6560  -33.6920 C   0  0  0  0  0  0  0  0  0  0  0  0
   -5.6710   17.0250  -34.0700 C   0  0  0  0  0  0  0  0  0  0  0  0
   -4.4560   17.6980  -33.9680 C   0  0  0  0  0  0  0  0  0  0  0  0
   -4.4160   19.0080  -33.4870 C   0  0  0  0  0  0  0  0  0  0  0  0
   -5.6020   19.6650  -33.0980 C   0  0  0  0  0  0  0  0  0  0  0  0
   -0.6565   22.9586  -28.2614 H   0  0  0  0  0  0  0  0  0  0  0  0
   -0.7637   21.9871  -29.7685 H   0  0  0  0  0  0  0  0  0  0  0  0
    0.1215   23.5502  -29.7685 H   0  0  0  0  0  0  0  0  0  0  0  0
   -6.0963   24.2054  -30.3082 H   0  0  0  0  0  0  0  0  0  0  0  0
   -5.4756   25.1165  -31.7264 H   0  0  0  0  0  0  0  0  0  0  0  0
   -5.4387   23.3206  -31.7264 H   0  0  0  0  0  0  0  0  0  0  0  0
   -6.7570   22.6434  -31.8601 H   0  0  0  0  0  0  0  0  0  0  0  0
   -9.8170   18.9470  -33.7770 H   0  0  0  0  0  0  0  0  0  0  0  0
   -7.8133   17.1171  -33.7753 H   0  0  0  0  0  0  0  0  0  0  0  0
   -5.6957   15.9929  -34.4496 H   0  0  0  0  0  0  0  0  0  0  0  0
   -3.5244   17.1955  -34.2675 H   0  0  0  0  0  0  0  0  0  0  0  0
   -3.4518   19.5320  -33.4108 H   0  0  0  0  0  0  0  0  0  0  0  0
  1  2  1  0
  2  3  2  0
  3  4  1  0
  4  5  1  0
  5  6  1  0
  5  7  2  0
  7  8  1  0
  8  9  2  0
  8 10  2  0
  8 11  1  0
 11 12  1  0
 12 13  2  0
 13 14  1  0
 14 15  1  0
 14 16  2  0
 16 17  1  0
 16 18  1  0
 18 19  2  0
 19 20  1  0
 20 21  2  0
 21 22  1  0
 22 23  2  0
  7  2  1  0
 23 12  1  0
 23 18  1  0
  1 24  1  0
  1 25  1  0
  1 26  1  0
  6 27  1  0
  6 28  1  0
  6 29  1  0
 13 30  1  0
 17 31  1  0
 19 32  1  0
 20 33  1  0
 21 34  1  0
 22 35  1  0
M  CHG  2   4  -1  11  -1
M  END
>  <UniqueID>  (23) 
23

>  <SMILES>  (23) 
Cc1n[n-]c(C)c1S(=O)(=O)[N-]c1cc(Cl)c(O)c2ccccc12

>  <Energy>  (23) 
73.85392493526543

>  <Genealogy>  (23) 
Cc1n[n-]c(C)c1S(=O)(=O)[N-]c1cc(Cl)c(O)c2ccccc12 (protonated)
Cc1n[n-]c(C)c1S(=O)(=O)[N-]c1cc(Cl)c(O)c2ccccc12 (3D coordinates assigned)
Cc1n[n-]c(C)c1S(=O)(=O)[N-]c1cc(Cl)c(O)c2ccccc12 (optimized conformer: 73.85392493526543 kcal/mol)

>  <smiles>  (23) 
Cc1n[nH]c(C)c1S(=O)(=O)Nc1cc(Cl)c(O)c2ccccc12

>  <score_type>  (23) 
oracle

>  <origin>  (23) 
adgpu

>  <m_score__min__energy>  (23) 
-10.050000000000001

>  <m_primary>  (23) 
energy

$$$$
23:0
     RDKit          3D

 62 65  0  0  0  0  0  0  0  0999 V2000
   -8.3170   20.7820  -31.2790 C   0  0  0  0  0  0  0  0  0  0  0  0
   -7.0000   21.4640  -31.5350 C   0  0  0  0  0  0  0  0  0  0  0  0
   -6.7090   22.6630  -30.8620 C   0  0  0  0  0  0  0  0  0  0  0  0
   -5.5050   23.3380  -31.0960 C   0  0  0  0  0  0  0  0  0  0  0  0
   -5.1590   24.8380  -30.2370 S   0  0  0  0  0  0  0  0  0  0  0  0
   -3.5110   25.2900  -30.5010 N   0  0  0  0  0  0  0  0  0  0  0  0
   -6.0660   25.9260  -30.7370 O   0  0  0  0  0  0  0  0  0  0  0  0
   -5.3960   24.6520  -28.7640 O   0  0  0  0  0  0  0  0  0  0  0  0
   -4.5930   22.8260  -32.0250 C   0  0  0  0  0  0  0  0  0  0  0  0
   -4.8610   21.6240  -32.6830 C   0  0  0  0  0  0  0  0  0  0  0  0
   -6.0430   20.9180  -32.4210 C   0  0  0  0  0  0  0  0  0  0  0  0
   -6.2570   19.6570  -33.0720 N   0  0  0  0  0  0  0  0  0  0  0  0
   -5.2170   18.6730  -33.1750 C   0  0  0  0  0  0  0  0  0  0  0  0
   -4.0260   18.9950  -32.9150 O   0  0  0  0  0  0  0  0  0  0  0  0
   -5.5210   17.2900  -33.6050 C   0  0  0  0  0  0  0  0  0  0  0  0
   -6.8500   16.8320  -33.6690 C   0  0  0  0  0  0  0  0  0  0  0  0
   -7.1250   15.5130  -34.0410 C   0  0  0  0  0  0  0  0  0  0  0  0
   -6.0810   14.6430  -34.3660 C   0  0  0  0  0  0  0  0  0  0  0  0
   -4.7540   15.0950  -34.3420 C   0  0  0  0  0  0  0  0  0  0  0  0
   -3.6660   14.2280  -34.6720 N   0  0  0  0  0  0  0  0  0  0  0  0
   -2.0890   14.7760  -35.1600 S   0  0  0  0  0  0  0  0  0  0  0  0
   -1.2110   13.5790  -35.4080 O   0  0  0  0  0  0  0  0  0  0  0  0
   -2.2180   15.5520  -36.4440 O   0  0  0  0  0  0  0  0  0  0  0  0
   -1.3320   15.7930  -33.9370 C   0  0  0  0  0  0  0  0  0  0  0  0
   -0.6930   15.2030  -32.8370 C   0  0  0  0  0  0  0  0  0  0  0  0
   -0.1150   16.0050  -31.8480 C   0  0  0  0  0  0  0  0  0  0  0  0
   -0.1760   17.3990  -31.9520 C   0  0  0  0  0  0  0  0  0  0  0  0
   -0.8200   17.9980  -33.0430 C   0  0  0  0  0  0  0  0  0  0  0  0
   -0.8810   19.7540  -33.1720 S   0  0  0  0  0  0  0  0  0  0  0  0
    0.5170   20.3050  -33.2610 O   0  0  0  0  0  0  0  0  0  0  0  0
   -1.6260   20.1300  -34.4220 O   0  0  0  0  0  0  0  0  0  0  0  0
   -1.7070   20.4070  -31.7810 N   0  0  0  0  0  0  0  0  0  0  0  0
   -1.1000   19.9340  -30.5370 C   0  0  0  0  0  0  0  0  0  0  0  0
   -1.3970   20.9870  -29.4860 C   0  0  0  0  0  0  0  0  0  0  0  0
   -1.6690   22.2650  -30.2660 C   0  0  0  0  0  0  0  0  0  0  0  0
   -1.6070   21.8660  -31.7350 C   0  0  0  0  0  0  0  0  0  0  0  0
   -1.3890   17.1910  -34.0390 C   0  0  0  0  0  0  0  0  0  0  0  0
   -4.4780   16.4040  -33.9280 C   0  0  0  0  0  0  0  0  0  0  0  0
   -8.4812   20.6970  -30.1947 H   0  0  0  0  0  0  0  0  0  0  0  0
   -9.1292   21.3728  -31.7276 H   0  0  0  0  0  0  0  0  0  0  0  0
   -8.3032   19.7777  -31.7276 H   0  0  0  0  0  0  0  0  0  0  0  0
   -7.4341   23.0750  -30.1447 H   0  0  0  0  0  0  0  0  0  0  0  0
   -3.5150   26.0490  -31.2220 H   0  0  0  0  0  0  0  0  0  0  0  0
   -3.6620   23.3719  -32.2377 H   0  0  0  0  0  0  0  0  0  0  0  0
   -4.1390   21.2282  -33.4125 H   0  0  0  0  0  0  0  0  0  0  0  0
   -7.1140   19.5420  -33.6550 H   0  0  0  0  0  0  0  0  0  0  0  0
   -7.6767   17.5154  -33.4250 H   0  0  0  0  0  0  0  0  0  0  0  0
   -8.1658   15.1590  -34.0780 H   0  0  0  0  0  0  0  0  0  0  0  0
   -6.3008   13.6009  -34.6414 H   0  0  0  0  0  0  0  0  0  0  0  0
   -0.6463   14.1073  -32.7520 H   0  0  0  0  0  0  0  0  0  0  0  0
    0.3880   15.5396  -30.9876 H   0  0  0  0  0  0  0  0  0  0  0  0
    0.2833   18.0271  -31.1745 H   0  0  0  0  0  0  0  0  0  0  0  0
   -1.5386   18.9691  -30.2429 H   0  0  0  0  0  0  0  0  0  0  0  0
   -0.0167   19.7835  -30.6547 H   0  0  0  0  0  0  0  0  0  0  0  0
   -2.2787   20.7021  -28.8931 H   0  0  0  0  0  0  0  0  0  0  0  0
   -0.5637   21.1073  -28.7781 H   0  0  0  0  0  0  0  0  0  0  0  0
   -2.6639   22.6628  -30.0173 H   0  0  0  0  0  0  0  0  0  0  0  0
   -0.9398   23.0528  -30.0259 H   0  0  0  0  0  0  0  0  0  0  0  0
   -2.4432   22.3205  -32.2865 H   0  0  0  0  0  0  0  0  0  0  0  0
   -0.6718   22.2125  -32.1991 H   0  0  0  0  0  0  0  0  0  0  0  0
   -1.8826   17.6567  -34.9047 H   0  0  0  0  0  0  0  0  0  0  0  0
   -3.4340   16.7428  -33.8547 H   0  0  0  0  0  0  0  0  0  0  0  0
  1  2  1  0
  2  3  2  0
  3  4  1  0
  4  5  1  0
  5  6  1  0
  5  7  2  0
  5  8  2  0
  4  9  2  0
  9 10  1  0
 10 11  2  0
 11 12  1  0
 12 13  1  0
 13 14  2  0
 13 15  1  0
 15 16  2  0
 16 17  1  0
 17 18  2  0
 18 19  1  0
 19 20  1  0
 20 21  1  0
 21 22  2  0
 21 23  2  0
 21 24  1  0
 24 25  2  0
 25 26  1  0
 26 27  2  0
 27 28  1  0
 28 29  1  0
 29 30  2  0
 29 31  2  0
 29 32  1  0
 32 33  1  0
 33 34  1  0
 34 35  1  0
 35 36  1  0
 28 37  2  0
 19 38  2  0
 11  2  1  0
 38 15  1  0
 37 24  1  0
 36 32  1  0
  1 39  1  0
  1 40  1  0
  1 41  1  0
  3 42  1  0
  6 43  1  0
  9 44  1  0
 10 45  1  0
 12 46  1  0
 16 47  1  0
 17 48  1  0
 18 49  1  0
 25 50  1  0
 26 51  1  0
 27 52  1  0
 33 53  1  0
 33 54  1  0
 34 55  1  0
 34 56  1  0
 35 57  1  0
 35 58  1  0
 36 59  1  0
 36 60  1  0
 37 61  1  0
 38 62  1  0
M  CHG  2   6  -1  20  -1
M  END
>  <UniqueID>  (24) 
24

>  <SMILES>  (24) 
Cc1cc(S([NH-])(=O)=O)ccc1NC(=O)c1cccc([N-]S(=O)(=O)c2cccc(S(=O)(=O)N3CCCC3)c2)c1

>  <Energy>  (24) 
81.40501645663855

>  <Genealogy>  (24) 
Cc1cc(S([NH-])(=O)=O)ccc1NC(=O)c1cccc([N-]S(=O)(=O)c2cccc(S(=O)(=O)N3CCCC3)c2)c1 (protonated)
Cc1cc(S([NH-])(=O)=O)ccc1NC(=O)c1cccc([N-]S(=O)(=O)c2cccc(S(=O)(=O)N3CCCC3)c2)c1 (3D coordinates assigned)
Cc1cc(S([NH-])(=O)=O)ccc1NC(=O)c1cccc([N-]S(=O)(=O)c2cccc(S(=O)(=O)N3CCCC3)c2)c1 (nonaromatic ring conformer: 81.40501645663855 kcal/mol)

>  <smiles>  (24) 
Cc1cc(S(N)(=O)=O)ccc1NC(=O)c1cccc(NS(=O)(=O)c2cccc(S(=O)(=O)N3CCCC3)c2)c1

>  <score_type>  (24) 
oracle

>  <origin>  (24) 
adgpu

>  <m_score__min__energy>  (24) 
-12.09

>  <m_primary>  (24) 
energy

$$$$
24:0
     RDKit          3D

 65 69  0  0  0  0  0  0  0  0999 V2000
   -3.3580   16.7970  -34.4150 C   0  0  0  0  0  0  0  0  0  0  0  0
   -4.6130   17.4670  -34.7910 N   0  0  0  0  0  0  0  0  0  0  0  0
   -5.7860   16.5850  -34.5640 C   0  0  0  0  0  0  0  0  0  0  0  0
   -6.6020   17.0010  -33.3310 C   0  0  0  0  0  0  0  0  0  0  0  0
   -7.1100   18.3870  -33.4690 N   0  0  0  0  0  0  0  0  0  0  0  0
   -7.5640   19.0020  -31.8930 S   0  0  0  0  0  0  0  0  0  0  0  0
   -8.9750   18.5880  -31.5790 O   0  0  0  0  0  0  0  0  0  0  0  0
   -6.6410   18.4250  -30.8550 O   0  0  0  0  0  0  0  0  0  0  0  0
   -7.4750   20.7650  -31.8380 C   0  0  0  0  0  0  0  0  0  0  0  0
   -8.6400   21.5320  -31.9730 C   0  0  0  0  0  0  0  0  0  0  0  0
   -8.5720   22.9280  -31.9380 C   0  0  0  0  0  0  0  0  0  0  0  0
   -7.3380   23.5660  -31.7800 C   0  0  0  0  0  0  0  0  0  0  0  0
   -6.1620   22.8150  -31.6710 C   0  0  0  0  0  0  0  0  0  0  0  0
   -4.9440   23.4920  -31.5030 O   0  0  0  0  0  0  0  0  0  0  0  0
   -4.3210   23.7230  -30.2690 C   0  0  0  0  0  0  0  0  0  0  0  0
   -5.0260   24.2680  -29.1830 C   0  0  0  0  0  0  0  0  0  0  0  0
   -4.3710   24.5310  -27.9780 C   0  0  0  0  0  0  0  0  0  0  0  0
   -3.0060   24.2330  -27.8360 C   0  0  0  0  0  0  0  0  0  0  0  0
   -2.3060   23.6350  -28.9060 C   0  0  0  0  0  0  0  0  0  0  0  0
   -2.9730   23.3870  -30.1160 C   0  0  0  0  0  0  0  0  0  0  0  0
   -0.8220   23.3680  -28.8000 C   0  0  0  0  0  0  0  0  0  0  0  0
   -0.4020   23.1000  -27.3500 C   0  0  0  0  0  0  0  0  0  0  0  0
   -0.8980   24.1640  -26.4710 N   0  0  0  0  0  0  0  0  0  0  0  0
    0.0310   24.9500  -25.6530 C   0  0  0  0  0  0  0  0  0  0  0  0
   -0.2640   26.4160  -25.8150 C   0  0  0  0  0  0  0  0  0  0  0  0
   -0.0790   27.0400  -27.0590 C   0  0  0  0  0  0  0  0  0  0  0  0
   -0.2880   28.4160  -27.1960 C   0  0  0  0  0  0  0  0  0  0  0  0
   -0.6710   29.1800  -26.0900 C   0  0  0  0  0  0  0  0  0  0  0  0
   -0.8470   28.5680  -24.8460 C   0  0  0  0  0  0  0  0  0  0  0  0
   -0.6380   27.1920  -24.7060 C   0  0  0  0  0  0  0  0  0  0  0  0
   -2.2760   24.5540  -26.5930 C   0  0  0  0  0  0  0  0  0  0  0  0
   -2.8460   25.1810  -25.6590 O   0  0  0  0  0  0  0  0  0  0  0  0
   -6.2390   21.4110  -31.6870 C   0  0  0  0  0  0  0  0  0  0  0  0
   -6.1570   19.3050  -34.1470 C   0  0  0  0  0  0  0  0  0  0  0  0
   -4.7140   18.7800  -34.1170 C   0  0  0  0  0  0  0  0  0  0  0  0
   -3.2791   16.7549  -33.3186 H   0  0  0  0  0  0  0  0  0  0  0  0
   -3.3514   15.7753  -34.8226 H   0  0  0  0  0  0  0  0  0  0  0  0
   -2.5054   17.3600  -34.8226 H   0  0  0  0  0  0  0  0  0  0  0  0
   -6.4371   16.6284  -35.4495 H   0  0  0  0  0  0  0  0  0  0  0  0
   -5.4104   15.5660  -34.3892 H   0  0  0  0  0  0  0  0  0  0  0  0
   -7.4548   16.3157  -33.2168 H   0  0  0  0  0  0  0  0  0  0  0  0
   -5.9478   16.9553  -32.4478 H   0  0  0  0  0  0  0  0  0  0  0  0
   -7.9820   18.3390  -34.0430 H   0  0  0  0  0  0  0  0  0  0  0  0
   -9.6116   21.0339  -32.1070 H   0  0  0  0  0  0  0  0  0  0  0  0
   -9.4907   23.5252  -32.0349 H   0  0  0  0  0  0  0  0  0  0  0  0
   -7.2911   24.6643  -31.7411 H   0  0  0  0  0  0  0  0  0  0  0  0
   -6.0991   24.4886  -29.2823 H   0  0  0  0  0  0  0  0  0  0  0  0
   -4.9260   24.9730  -27.1374 H   0  0  0  0  0  0  0  0  0  0  0  0
   -2.4292   22.9235  -30.9523 H   0  0  0  0  0  0  0  0  0  0  0  0
   -0.5721   22.4894  -29.4128 H   0  0  0  0  0  0  0  0  0  0  0  0
   -0.2845   24.2592  -29.1562 H   0  0  0  0  0  0  0  0  0  0  0  0
   -0.8192   22.1359  -27.0237 H   0  0  0  0  0  0  0  0  0  0  0  0
    0.6963   23.0736  -27.2949 H   0  0  0  0  0  0  0  0  0  0  0  0
   -0.0850   24.6686  -24.5959 H   0  0  0  0  0  0  0  0  0  0  0  0
    1.0622   24.7485  -25.9787 H   0  0  0  0  0  0  0  0  0  0  0  0
    0.2317   26.4440  -27.9298 H   0  0  0  0  0  0  0  0  0  0  0  0
   -0.1508   28.8976  -28.1754 H   0  0  0  0  0  0  0  0  0  0  0  0
   -0.8338   30.2624  -26.1987 H   0  0  0  0  0  0  0  0  0  0  0  0
   -1.1502   29.1690  -23.9760 H   0  0  0  0  0  0  0  0  0  0  0  0
   -0.7672   26.7157  -23.7229 H   0  0  0  0  0  0  0  0  0  0  0  0
   -5.3215   20.8137  -31.5801 H   0  0  0  0  0  0  0  0  0  0  0  0
   -6.4674   19.4245  -35.1955 H   0  0  0  0  0  0  0  0  0  0  0  0
   -6.1755   20.2640  -33.6085 H   0  0  0  0  0  0  0  0  0  0  0  0
   -4.0589   19.4992  -34.6305 H   0  0  0  0  0  0  0  0  0  0  0  0
   -4.4068   18.6596  -33.0676 H   0  0  0  0  0  0  0  0  0  0  0  0
  1  2  1  0
  2  3  1  0
  3  4  1  0
  4  5  1  0
  5  6  1  0
  6  7  2  0
  6  8  2  0
  6  9  1  0
  9 10  2  0
 10 11  1  0
 11 12  2  0
 12 13  1  0
 13 14  1  0
 14 15  1  0
 15 16  2  0
 16 17  1  0
 17 18  2  0
 18 19  1  0
 19 20  2  0
 19 21  1  0
 21 22  1  0
 22 23  1  0
 23 24  1  0
 24 25  1  0
 25 26  2  0
 26 27  1  0
 27 28  2  0
 28 29  1  0
 29 30  2  0
 23 31  1  0
 31 32  2  0
 13 33  2  0
  5 34  1  0
 34 35  1  0
 35  2  1  0
 33  9  1  0
 20 15  1  0
 30 25  1  0
 31 18  1  0
  1 36  1  0
  1 37  1  0
  1 38  1  0
  3 39  1  0
  3 40  1  0
  4 41  1  0
  4 42  1  0
  5 43  1  0
 10 44  1  0
 11 45  1  0
 12 46  1  0
 16 47  1  0
 17 48  1  0
 20 49  1  0
 21 50  1  0
 21 51  1  0
 22 52  1  0
 22 53  1  0
 24 54  1  0
 24 55  1  0
 26 56  1  0
 27 57  1  0
 28 58  1  0
 29 59  1  0
 30 60  1  0
 33 61  1  0
 34 62  1  0
 34 63  1  0
 35 64  1  0
 35 65  1  0
M  CHG  1   5   1
M  END
>  <UniqueID>  (25) 
25

>  <SMILES>  (25) 
CN1CC[NH+](S(=O)(=O)c2cccc(Oc3ccc4c(c3)CCN(Cc3ccccc3)C4=O)c2)CC1

>  <Energy>  (25) 
85.5851722972051

>  <Genealogy>  (25) 
CN1CC[NH+](S(=O)(=O)c2cccc(Oc3ccc4c(c3)CCN(Cc3ccccc3)C4=O)c2)CC1 (protonated)
CN1CC[NH+](S(=O)(=O)c2cccc(Oc3ccc4c(c3)CCN(Cc3ccccc3)C4=O)c2)CC1 (3D coordinates assigned)
CN1CC[NH+](S(=O)(=O)c2cccc(Oc3ccc4c(c3)CCN(Cc3ccccc3)C4=O)c2)CC1 (nonaromatic ring conformer: 85.5851722972051 kcal/mol)

>  <smiles>  (25) 
CN1CCN(S(=O)(=O)c2cccc(Oc3ccc4c(c3)CCN(Cc3ccccc3)C4=O)c2)CC1

>  <score_type>  (25) 
oracle

>  <origin>  (25) 
adgpu

>  <m_score__min__energy>  (25) 
-10.35

>  <m_primary>  (25) 
energy

$$$$
25:0
     RDKit          3D

 46 48  0  0  0  0  0  0  0  0999 V2000
   -7.5305   23.0797  -29.7836 H   0  0  0  0  0  0  0  0  0  0  0  0
   -6.9030   22.6160  -30.5590 C   0  0  0  0  0  0  0  0  0  0  0  0
   -7.1850   21.3630  -31.0020 N   0  0  0  0  0  0  0  0  0  0  0  0
   -6.4500   20.7600  -31.9790 C   0  0  0  0  0  0  0  0  0  0  0  0
   -6.7040   19.5400  -32.3510 N   0  0  0  0  0  0  0  0  0  0  0  0
   -7.7390   18.6830  -31.7690 C   0  0  0  0  0  0  0  0  0  0  0  0
   -7.5657   17.6449  -32.0888 H   0  0  0  0  0  0  0  0  0  0  0  0
   -7.6837   18.7682  -30.6737 H   0  0  0  0  0  0  0  0  0  0  0  0
   -9.1410   19.1160  -32.2170 C   0  0  0  0  0  0  0  0  0  0  0  0
   -9.6226   18.2828  -32.7499 H   0  0  0  0  0  0  0  0  0  0  0  0
   -9.7261   19.3908  -31.3270 H   0  0  0  0  0  0  0  0  0  0  0  0
   -9.0680   20.2740  -33.1050 N   0  0  0  0  0  0  0  0  0  0  0  0
   -8.3960   20.0410  -33.8710 H   0  0  0  0  0  0  0  0  0  0  0  0
   -8.6410   21.0690  -32.5760 H   0  0  0  0  0  0  0  0  0  0  0  0
   -5.3890   21.4520  -32.5720 C   0  0  0  0  0  0  0  0  0  0  0  0
   -4.8138   20.9921  -33.3891 H   0  0  0  0  0  0  0  0  0  0  0  0
   -5.0670   22.7320  -32.1170 C   0  0  0  0  0  0  0  0  0  0  0  0
   -4.2261   23.2802  -32.5668 H   0  0  0  0  0  0  0  0  0  0  0  0
   -5.8130   23.3170  -31.0900 C   0  0  0  0  0  0  0  0  0  0  0  0
   -5.2920   24.8480  -30.3900 S   0  0  0  0  0  0  0  0  0  0  0  0
   -5.7920   24.9930  -28.9800 O   0  0  0  0  0  0  0  0  0  0  0  0
   -5.8370   25.9750  -31.2230 O   0  0  0  0  0  0  0  0  0  0  0  0
   -3.5580   24.9120  -30.3950 N   0  0  0  0  0  0  0  0  0  0  0  0
   -2.7190   24.1550  -29.5090 C   0  0  0  0  0  0  0  0  0  0  0  0
   -3.0340   22.8330  -29.1470 C   0  0  0  0  0  0  0  0  0  0  0  0
   -3.9801   22.3863  -29.4867 H   0  0  0  0  0  0  0  0  0  0  0  0
   -2.1550   22.0790  -28.3580 C   0  0  0  0  0  0  0  0  0  0  0  0
   -0.9490   22.6540  -27.9130 C   0  0  0  0  0  0  0  0  0  0  0  0
   -0.6680   23.9940  -28.2210 C   0  0  0  0  0  0  0  0  0  0  0  0
    0.2480   24.4631  -27.8326 H   0  0  0  0  0  0  0  0  0  0  0  0
   -1.5440   24.7370  -29.0180 C   0  0  0  0  0  0  0  0  0  0  0  0
   -1.2310   26.0550  -29.3350 O   0  0  0  0  0  0  0  0  0  0  0  0
   -0.0020   21.8800  -27.0250 C   0  0  0  0  0  0  0  0  0  0  0  0
    1.0302   22.1455  -27.2973 H   0  0  0  0  0  0  0  0  0  0  0  0
   -0.2330   22.1483  -25.9835 H   0  0  0  0  0  0  0  0  0  0  0  0
   -0.1610   20.4170  -27.1510 N   0  0  0  0  0  0  0  0  0  0  0  0
    0.4570   19.9000  -28.3840 C   0  0  0  0  0  0  0  0  0  0  0  0
    1.2767   19.2142  -28.1236 H   0  0  0  0  0  0  0  0  0  0  0  0
   -0.2984   19.3609  -28.9746 H   0  0  0  0  0  0  0  0  0  0  0  0
    0.8542   20.7387  -28.9746 H   0  0  0  0  0  0  0  0  0  0  0  0
   -1.5760   20.0180  -27.0130 C   0  0  0  0  0  0  0  0  0  0  0  0
   -1.6410   18.9217  -27.0763 H   0  0  0  0  0  0  0  0  0  0  0  0
   -1.9343   20.3895  -26.0416 H   0  0  0  0  0  0  0  0  0  0  0  0
   -2.4680   20.6270  -28.1020 C   0  0  0  0  0  0  0  0  0  0  0  0
   -2.3197   20.0641  -29.0354 H   0  0  0  0  0  0  0  0  0  0  0  0
   -3.5098   20.5655  -27.7544 H   0  0  0  0  0  0  0  0  0  0  0  0
  1  2  1  0
  2  3  1  0
  3  4  1  0
  4  5  2  0
  5  6  1  0
  6  7  1  0
  6  8  1  0
  6  9  1  0
  9 10  1  0
  9 11  1  0
  9 12  1  0
 12 13  1  0
 12 14  1  0
  4 15  1  0
 15 16  1  0
 15 17  2  0
 17 18  1  0
 17 19  1  0
 19 20  1  0
 20 21  2  0
 20 22  2  0
 20 23  1  0
 23 24  1  0
 24 25  2  0
 25 26  1  0
 25 27  1  0
 27 28  2  0
 28 29  1  0
 29 30  1  0
 29 31  2  0
 31 32  1  0
 28 33  1  0
 33 34  1  0
 33 35  1  0
 33 36  1  0
 36 37  1  0
 37 38  1  0
 37 39  1  0
 37 40  1  0
 36 41  1  0
 41 42  1  0
 41 43  1  0
 41 44  1  0
 44 45  1  0
 44 46  1  0
 19  2  2  0
 31 24  1  0
 44 27  1  0
M  CHG  3   3  -1  23  -1  32  -1
M  END
>  <UniqueID>  (26) 
26

>  <SMILES>  (26) 
CN1CCc2cc([N-]S(=O)(=O)c3cc/c(=N/CCN)[n-]c3)c([O-])cc2C1

>  <Energy>  (26) 
52.31813480041135

>  <Genealogy>  (26) 
CN1CCc2cc([N-]S(=O)(=O)c3ccc(=NCCN)[n-]c3)c([O-])cc2C1 (protonated)
CN1CCc2cc([N-]S(=O)(=O)c3cc/c(=N/CCN)[n-]c3)c([O-])cc2C1 (cis-trans isomerization)
CN1CCc2cc([N-]S(=O)(=O)c3cc/c(=N/CCN)[n-]c3)c([O-])cc2C1 (3D coordinates assigned)
CN1CCc2cc([N-]S(=O)(=O)c3cc/c(=N/CCN)[n-]c3)c([O-])cc2C1 (nonaromatic ring conformer: 52.31813480041135 kcal/mol)

>  <smiles>  (26) 
CN1CCc2cc(NS(=O)(=O)c3ccc(=NCCN)[nH]c3)c(O)cc2C1

>  <score_type>  (26) 
oracle

>  <origin>  (26) 
adgpu

>  <m_score__min__energy>  (26) 
-13.27

>  <m_primary>  (26) 
energy

$$$$
26:0
     RDKit          3D

 52 56  0  0  0  0  0  0  0  0999 V2000
   -7.9650   18.2360  -32.7210 O   0  0  0  0  0  0  0  0  0  0  0  0
   -7.7570   19.4250  -32.3630 C   0  0  0  0  0  0  0  0  0  0  0  0
   -8.6670   20.3790  -32.4610 O   0  0  0  0  0  0  0  0  0  0  0  0
   -8.0870   21.4650  -32.0050 C   0  0  0  0  0  0  0  0  0  0  0  0
   -8.6130   22.7480  -31.8910 C   0  0  0  0  0  0  0  0  0  0  0  0
   -7.7800   23.7490  -31.3580 C   0  0  0  0  0  0  0  0  0  0  0  0
   -6.4540   23.4480  -30.9580 C   0  0  0  0  0  0  0  0  0  0  0  0
   -5.4380   24.6970  -30.2430 S   0  0  0  0  0  0  0  0  0  0  0  0
   -4.2510   24.9220  -31.1380 O   0  0  0  0  0  0  0  0  0  0  0  0
   -6.2060   25.9830  -30.1080 O   0  0  0  0  0  0  0  0  0  0  0  0
   -4.8860   24.2010  -28.6740 N   0  0  0  0  0  0  0  0  0  0  0  0
   -3.6740   23.4510  -28.4640 C   0  0  0  0  0  0  0  0  0  0  0  0
   -3.7080   22.1510  -27.9270 C   0  0  0  0  0  0  0  0  0  0  0  0
   -2.5280   21.4090  -27.7670 C   0  0  0  0  0  0  0  0  0  0  0  0
   -1.2950   21.9660  -28.1630 C   0  0  0  0  0  0  0  0  0  0  0  0
   -1.2570   23.2750  -28.6620 C   0  0  0  0  0  0  0  0  0  0  0  0
   -2.4340   24.0110  -28.8180 C   0  0  0  0  0  0  0  0  0  0  0  0
   -2.3640   25.2980  -29.3390 O   0  0  0  0  0  0  0  0  0  0  0  0
   -0.0040   21.2080  -27.9600 C   0  0  0  0  0  0  0  0  0  0  0  0
   -0.2170   19.7590  -27.8420 N   0  0  0  0  0  0  0  0  0  0  0  0
   -1.2390   19.4630  -26.8300 C   0  0  0  0  0  0  0  0  0  0  0  0
   -2.6110   19.9900  -27.2690 C   0  0  0  0  0  0  0  0  0  0  0  0
   -5.9510   22.1380  -31.1060 C   0  0  0  0  0  0  0  0  0  0  0  0
   -6.8070   21.1680  -31.6270 C   0  0  0  0  0  0  0  0  0  0  0  0
   -6.5820   19.8590  -31.8410 N   0  0  0  0  0  0  0  0  0  0  0  0
   -5.3500   19.0990  -31.6300 C   0  0  0  0  0  0  0  0  0  0  0  0
   -4.1530   19.9470  -31.9660 C   0  0  0  0  0  0  0  0  0  0  0  0
   -3.3290   20.4380  -30.9390 C   0  0  0  0  0  0  0  0  0  0  0  0
   -2.1930   21.1930  -31.2470 C   0  0  0  0  0  0  0  0  0  0  0  0
   -1.8710   21.4640  -32.5810 C   0  0  0  0  0  0  0  0  0  0  0  0
   -2.6860   20.9780  -33.6080 C   0  0  0  0  0  0  0  0  0  0  0  0
   -3.8230   20.2210  -33.3040 C   0  0  0  0  0  0  0  0  0  0  0  0
   -9.6429   22.9718  -32.2062 H   0  0  0  0  0  0  0  0  0  0  0  0
   -8.1616   24.7751  -31.2507 H   0  0  0  0  0  0  0  0  0  0  0  0
   -5.3910   24.5990  -27.8500 H   0  0  0  0  0  0  0  0  0  0  0  0
   -4.6712   21.7111  -27.6290 H   0  0  0  0  0  0  0  0  0  0  0  0
   -0.2916   23.7270  -28.9333 H   0  0  0  0  0  0  0  0  0  0  0  0
    0.6564   21.3991  -28.8187 H   0  0  0  0  0  0  0  0  0  0  0  0
    0.4458   21.5582  -27.0193 H   0  0  0  0  0  0  0  0  0  0  0  0
   -0.5340   19.3860  -28.7680 H   0  0  0  0  0  0  0  0  0  0  0  0
   -1.3001   18.3740  -26.6873 H   0  0  0  0  0  0  0  0  0  0  0  0
   -0.9564   19.9579  -25.8892 H   0  0  0  0  0  0  0  0  0  0  0  0
   -2.9970   19.3506  -28.0765 H   0  0  0  0  0  0  0  0  0  0  0  0
   -3.2814   19.9707  -26.3971 H   0  0  0  0  0  0  0  0  0  0  0  0
   -4.9182   21.8901  -30.8200 H   0  0  0  0  0  0  0  0  0  0  0  0
   -5.2908   18.7878  -30.5766 H   0  0  0  0  0  0  0  0  0  0  0  0
   -5.3578   18.2138  -32.2829 H   0  0  0  0  0  0  0  0  0  0  0  0
   -3.5786   20.2276  -29.8886 H   0  0  0  0  0  0  0  0  0  0  0  0
   -1.5515   21.5744  -30.4389 H   0  0  0  0  0  0  0  0  0  0  0  0
   -0.9776   22.0588  -32.8218 H   0  0  0  0  0  0  0  0  0  0  0  0
   -2.4329   21.1912  -34.6570 H   0  0  0  0  0  0  0  0  0  0  0  0
   -4.4604   19.8392  -34.1151 H   0  0  0  0  0  0  0  0  0  0  0  0
  1  2  2  0
  2  3  1  0
  3  4  1  0
  4  5  2  0
  5  6  1  0
  6  7  2  0
  7  8  1  0
  8  9  2  0
  8 10  2  0
  8 11  1  0
 11 12  1  0
 12 13  2  0
 13 14  1  0
 14 15  2  0
 15 16  1  0
 16 17  2  0
 17 18  1  0
 15 19  1  0
 19 20  1  0
 20 21  1  0
 21 22  1  0
  7 23  1  0
 23 24  2  0
 24 25  1  0
 25 26  1  0
 26 27  1  0
 27 28  2  0
 28 29  1  0
 29 30  2  0
 30 31  1  0
 31 32  2  0
 25  2  1  0
 32 27  1  0
 24  4  1  0
 17 12  1  0
 22 14  1  0
  5 33  1  0
  6 34  1  0
 11 35  1  0
 13 36  1  0
 16 37  1  0
 19 38  1  0
 19 39  1  0
 20 40  1  0
 21 41  1  0
 21 42  1  0
 22 43  1  0
 22 44  1  0
 23 45  1  0
 26 46  1  0
 26 47  1  0
 28 48  1  0
 29 49  1  0
 30 50  1  0
 31 51  1  0
 32 52  1  0
M  CHG  1  18  -1
M  END
>  <UniqueID>  (27) 
27

>  <SMILES>  (27) 
O=c1oc2ccc(S(=O)(=O)Nc3cc4c(cc3[O-])CNCC4)cc2n1Cc1ccccc1

>  <Energy>  (27) 
101.80202554080253

>  <Genealogy>  (27) 
O=c1oc2ccc(S(=O)(=O)Nc3cc4c(cc3[O-])CNCC4)cc2n1Cc1ccccc1 (protonated)
O=c1oc2ccc(S(=O)(=O)Nc3cc4c(cc3[O-])CNCC4)cc2n1Cc1ccccc1 (3D coordinates assigned)
O=c1oc2ccc(S(=O)(=O)Nc3cc4c(cc3[O-])CNCC4)cc2n1Cc1ccccc1 (nonaromatic ring conformer: 101.80202554080253 kcal/mol)

>  <smiles>  (27) 
O=c1oc2ccc(S(=O)(=O)Nc3cc4c(cc3O)CNCC4)cc2n1Cc1ccccc1

>  <score_type>  (27) 
oracle

>  <origin>  (27) 
adgpu

>  <m_score__min__energy>  (27) 
-13.84

>  <m_primary>  (27) 
energy

$$$$
27:0
     RDKit          3D

 48 51  0  0  0  0  0  0  0  0999 V2000
   -0.9190   21.3170  -27.9950 C   0  0  0  0  0  0  0  0  0  0  0  0
   -1.3220   22.6630  -28.4180 N   0  0  0  0  0  0  0  0  0  0  0  0
   -0.3860   23.7480  -28.2790 C   0  0  0  0  0  0  0  0  0  0  0  0
    0.6230   23.7900  -29.0330 O   0  0  0  0  0  0  0  0  0  0  0  0
   -0.5820   24.8160  -27.2700 C   0  0  0  0  0  0  0  0  0  0  0  0
   -0.2810   24.5590  -25.9210 C   0  0  0  0  0  0  0  0  0  0  0  0
   -0.4590   25.5500  -24.9520 C   0  0  0  0  0  0  0  0  0  0  0  0
   -0.9310   26.8110  -25.3200 C   0  0  0  0  0  0  0  0  0  0  0  0
   -1.2190   27.0860  -26.6590 C   0  0  0  0  0  0  0  0  0  0  0  0
   -1.0390   26.1010  -27.6360 C   0  0  0  0  0  0  0  0  0  0  0  0
   -1.2980   26.4170  -28.9660 O   0  0  0  0  0  0  0  0  0  0  0  0
   -2.5370   22.8590  -29.1750 C   0  0  0  0  0  0  0  0  0  0  0  0
   -3.4180   21.7860  -29.3860 C   0  0  0  0  0  0  0  0  0  0  0  0
   -4.5930   21.9590  -30.1210 C   0  0  0  0  0  0  0  0  0  0  0  0
   -4.9280   23.2140  -30.6650 C   0  0  0  0  0  0  0  0  0  0  0  0
   -6.1760   23.4520  -31.4630 C   0  0  0  0  0  0  0  0  0  0  0  0
   -6.7660   24.5590  -31.3220 O   0  0  0  0  0  0  0  0  0  0  0  0
   -6.7450   22.4940  -32.3970 N   0  0  0  0  0  0  0  0  0  0  0  0
   -8.0410   21.9150  -31.9540 C   0  0  0  0  0  0  0  0  0  0  0  0
   -7.8960   20.4550  -32.1490 C   0  0  0  0  0  0  0  0  0  0  0  0
   -8.8470   19.4590  -31.9180 C   0  0  0  0  0  0  0  0  0  0  0  0
   -8.4860   18.1220  -32.1490 C   0  0  0  0  0  0  0  0  0  0  0  0
   -7.1890   17.8070  -32.5980 C   0  0  0  0  0  0  0  0  0  0  0  0
   -6.2500   18.8290  -32.8180 C   0  0  0  0  0  0  0  0  0  0  0  0
   -6.6390   20.1500  -32.5870 C   0  0  0  0  0  0  0  0  0  0  0  0
   -5.8210   21.3770  -32.7190 C   0  0  0  0  0  0  0  0  0  0  0  0
   -4.0370   24.2860  -30.4550 C   0  0  0  0  0  0  0  0  0  0  0  0
   -2.8610   24.1120  -29.7220 C   0  0  0  0  0  0  0  0  0  0  0  0
   -0.9040   21.2671  -26.8962 H   0  0  0  0  0  0  0  0  0  0  0  0
   -1.6358   20.5798  -28.3858 H   0  0  0  0  0  0  0  0  0  0  0  0
    0.0850   21.0951  -28.3858 H   0  0  0  0  0  0  0  0  0  0  0  0
    0.0979   23.5694  -25.6258 H   0  0  0  0  0  0  0  0  0  0  0  0
   -0.2269   25.3361  -23.8982 H   0  0  0  0  0  0  0  0  0  0  0  0
   -1.0762   27.5884  -24.5554 H   0  0  0  0  0  0  0  0  0  0  0  0
   -1.5889   28.0813  -26.9464 H   0  0  0  0  0  0  0  0  0  0  0  0
   -3.1798   20.7971  -28.9673 H   0  0  0  0  0  0  0  0  0  0  0  0
   -5.2661   21.1031  -30.2771 H   0  0  0  0  0  0  0  0  0  0  0  0
   -6.9340   23.0030  -33.2960 H   0  0  0  0  0  0  0  0  0  0  0  0
   -8.2259   22.1469  -30.8948 H   0  0  0  0  0  0  0  0  0  0  0  0
   -8.8909   22.3246  -32.5196 H   0  0  0  0  0  0  0  0  0  0  0  0
   -9.8560   19.7160  -31.5631 H   0  0  0  0  0  0  0  0  0  0  0  0
   -9.2180   17.3187  -31.9789 H   0  0  0  0  0  0  0  0  0  0  0  0
   -6.9102   16.7581  -32.7770 H   0  0  0  0  0  0  0  0  0  0  0  0
   -5.2326   18.5939  -33.1640 H   0  0  0  0  0  0  0  0  0  0  0  0
   -4.9781   21.3571  -32.0125 H   0  0  0  0  0  0  0  0  0  0  0  0
   -5.3877   21.4774  -33.7251 H   0  0  0  0  0  0  0  0  0  0  0  0
   -4.2717   25.2752  -30.8751 H   0  0  0  0  0  0  0  0  0  0  0  0
   -2.1819   24.9641  -29.5715 H   0  0  0  0  0  0  0  0  0  0  0  0
  1  2  1  0
  2  3  1  0
  3  4  2  0
  3  5  1  0
  5  6  2  0
  6  7  1  0
  7  8  2  0
  8  9  1  0
  9 10  2  0
 10 11  1  0
  2 12  1  0
 12 13  2  0
 13 14  1  0
 14 15  2  0
 15 16  1  0
 16 17  2  0
 16 18  1  0
 18 19  1  0
 19 20  1  0
 20 21  2  0
 21 22  1  0
 22 23  2  0
 23 24  1  0
 24 25  2  0
 25 26  1  0
 15 27  1  0
 27 28  2  0
 10  5  1  0
 28 12  1  0
 26 18  1  0
 25 20  1  0
  1 29  1  0
  1 30  1  0
  1 31  1  0
  6 32  1  0
  7 33  1  0
  8 34  1  0
  9 35  1  0
 13 36  1  0
 14 37  1  0
 18 38  1  0
 19 39  1  0
 19 40  1  0
 21 41  1  0
 22 42  1  0
 23 43  1  0
 24 44  1  0
 26 45  1  0
 26 46  1  0
 27 47  1  0
 28 48  1  0
M  CHG  2  11  -1  18   1
M  END
>  <UniqueID>  (28) 
28

>  <SMILES>  (28) 
CN(C(=O)c1ccccc1[O-])c1ccc(C(=O)[NH+]2Cc3ccccc3C2)cc1

>  <Energy>  (28) 
83.228242146815

>  <Genealogy>  (28) 
CN(C(=O)c1ccccc1[O-])c1ccc(C(=O)[NH+]2Cc3ccccc3C2)cc1 (protonated)
CN(C(=O)c1ccccc1[O-])c1ccc(C(=O)[NH+]2Cc3ccccc3C2)cc1 (3D coordinates assigned)
CN(C(=O)c1ccccc1[O-])c1ccc(C(=O)[NH+]2Cc3ccccc3C2)cc1 (nonaromatic ring conformer: 83.228242146815 kcal/mol)

>  <smiles>  (28) 
CN(C(=O)c1ccccc1O)c1ccc(C(=O)N2Cc3ccccc3C2)cc1

>  <score_type>  (28) 
oracle

>  <origin>  (28) 
adgpu

>  <m_score__min__energy>  (28) 
-13.19

>  <m_primary>  (28) 
energy

$$$$
28:0
     RDKit          3D

 50 53  0  0  0  0  0  0  0  0999 V2000
   -9.4520   21.7090  -31.7200 C   0  0  0  0  0  0  0  0  0  0  0  0
   -8.1040   22.2780  -31.3930 C   0  0  0  0  0  0  0  0  0  0  0  0
   -7.2890   22.7940  -32.4130 C   0  0  0  0  0  0  0  0  0  0  0  0
   -6.0350   23.3280  -32.1080 C   0  0  0  0  0  0  0  0  0  0  0  0
   -5.5790   23.3530  -30.7850 C   0  0  0  0  0  0  0  0  0  0  0  0
   -3.9570   23.9450  -30.4350 S   0  0  0  0  0  0  0  0  0  0  0  0
   -3.6670   23.8450  -28.9640 O   0  0  0  0  0  0  0  0  0  0  0  0
   -3.8770   25.3900  -30.8400 O   0  0  0  0  0  0  0  0  0  0  0  0
   -2.7680   23.0390  -31.3290 N   0  0  0  0  0  0  0  0  0  0  0  0
   -2.5850   21.6950  -30.7750 C   0  0  0  0  0  0  0  0  0  0  0  0
   -3.3320   20.6680  -31.5910 C   0  0  0  0  0  0  0  0  0  0  0  0
   -4.6030   20.3670  -31.2160 N   0  0  0  0  0  0  0  0  0  0  0  0
   -5.3800   19.5250  -31.9380 C   0  0  0  0  0  0  0  0  0  0  0  0
   -6.6910   19.2590  -31.5280 C   0  0  0  0  0  0  0  0  0  0  0  0
   -7.5070   18.4220  -32.2950 C   0  0  0  0  0  0  0  0  0  0  0  0
   -7.0140   17.8480  -33.4690 C   0  0  0  0  0  0  0  0  0  0  0  0
   -5.7030   18.1040  -33.8810 C   0  0  0  0  0  0  0  0  0  0  0  0
   -4.8740   18.9470  -33.1160 C   0  0  0  0  0  0  0  0  0  0  0  0
   -3.5510   19.2400  -33.4840 C   0  0  0  0  0  0  0  0  0  0  0  0
   -3.0600   18.7150  -34.5240 O   0  0  0  0  0  0  0  0  0  0  0  0
   -2.7920   20.0870  -32.7160 N   0  0  0  0  0  0  0  0  0  0  0  0
   -1.4270   20.3500  -33.0990 C   0  0  0  0  0  0  0  0  0  0  0  0
   -0.3690   19.7530  -32.3960 C   0  0  0  0  0  0  0  0  0  0  0  0
    0.9520   19.9970  -32.7760 C   0  0  0  0  0  0  0  0  0  0  0  0
    1.2280   20.8340  -33.8600 C   0  0  0  0  0  0  0  0  0  0  0  0
    0.1790   21.4390  -34.5720 C   0  0  0  0  0  0  0  0  0  0  0  0
    0.4710   22.2990  -35.7640 C   0  0  0  0  0  0  0  0  0  0  0  0
   -1.1480   21.1750  -34.1990 C   0  0  0  0  0  0  0  0  0  0  0  0
   -6.4060   22.8720  -29.7600 C   0  0  0  0  0  0  0  0  0  0  0  0
   -7.6660   22.3460  -30.0610 C   0  0  0  0  0  0  0  0  0  0  0  0
   -9.9901   21.4819  -30.7878 H   0  0  0  0  0  0  0  0  0  0  0  0
  -10.0268   22.4413  -32.3060 H   0  0  0  0  0  0  0  0  0  0  0  0
   -9.3282   20.7864  -32.3060 H   0  0  0  0  0  0  0  0  0  0  0  0
   -7.6391   22.7777  -33.4557 H   0  0  0  0  0  0  0  0  0  0  0  0
   -5.4021   23.7313  -32.9122 H   0  0  0  0  0  0  0  0  0  0  0  0
   -1.5133   21.4472  -30.7785 H   0  0  0  0  0  0  0  0  0  0  0  0
   -2.9798   21.6820  -29.7484 H   0  0  0  0  0  0  0  0  0  0  0  0
   -7.0797   19.7084  -30.6023 H   0  0  0  0  0  0  0  0  0  0  0  0
   -8.5385   18.2153  -31.9735 H   0  0  0  0  0  0  0  0  0  0  0  0
   -7.6597   17.1922  -34.0715 H   0  0  0  0  0  0  0  0  0  0  0  0
   -5.3183   17.6462  -34.8043 H   0  0  0  0  0  0  0  0  0  0  0  0
   -0.5812   19.0911  -31.5434 H   0  0  0  0  0  0  0  0  0  0  0  0
    1.7779   19.5289  -32.2203 H   0  0  0  0  0  0  0  0  0  0  0  0
    2.2707   21.0200  -34.1571 H   0  0  0  0  0  0  0  0  0  0  0  0
    0.8077   23.2905  -35.4271 H   0  0  0  0  0  0  0  0  0  0  0  0
    1.2603   21.8301  -36.3699 H   0  0  0  0  0  0  0  0  0  0  0  0
   -0.4406   22.4076  -36.3699 H   0  0  0  0  0  0  0  0  0  0  0  0
   -1.9751   21.6180  -34.7731 H   0  0  0  0  0  0  0  0  0  0  0  0
   -6.0624   22.9086  -28.7157 H   0  0  0  0  0  0  0  0  0  0  0  0
   -8.3165   21.9841  -29.2511 H   0  0  0  0  0  0  0  0  0  0  0  0
  1  2  1  0
  2  3  2  0
  3  4  1  0
  4  5  2  0
  5  6  1  0
  6  7  2  0
  6  8  2  0
  6  9  1  0
  9 10  1  0
 10 11  1  0
 11 12  2  0
 12 13  1  0
 13 14  2  0
 14 15  1  0
 15 16  2  0
 16 17  1  0
 17 18  2  0
 18 19  1  0
 19 20  2  0
 19 21  1  0
 21 22  1  0
 22 23  2  0
 23 24  1  0
 24 25  2  0
 25 26  1  0
 26 27  1  0
 26 28  2  0
  5 29  1  0
 29 30  2  0
 30  2  1  0
 21 11  1  0
 28 22  1  0
 18 13  1  0
  1 31  1  0
  1 32  1  0
  1 33  1  0
  3 34  1  0
  4 35  1  0
 10 36  1  0
 10 37  1  0
 14 38  1  0
 15 39  1  0
 16 40  1  0
 17 41  1  0
 23 42  1  0
 24 43  1  0
 25 44  1  0
 27 45  1  0
 27 46  1  0
 27 47  1  0
 28 48  1  0
 29 49  1  0
 30 50  1  0
M  CHG  1   9  -1
M  END
>  <UniqueID>  (29) 
29

>  <SMILES>  (29) 
Cc1ccc(S(=O)(=O)[N-]Cc2nc3ccccc3c(=O)n2-c2cccc(C)c2)cc1

>  <Energy>  (29) 
59.83017172868811

>  <Genealogy>  (29) 
Cc1ccc(S(=O)(=O)[N-]Cc2nc3ccccc3c(=O)n2-c2cccc(C)c2)cc1 (protonated)
Cc1ccc(S(=O)(=O)[N-]Cc2nc3ccccc3c(=O)n2-c2cccc(C)c2)cc1 (3D coordinates assigned)
Cc1ccc(S(=O)(=O)[N-]Cc2nc3ccccc3c(=O)n2-c2cccc(C)c2)cc1 (optimized conformer: 59.83017172868811 kcal/mol)

>  <smiles>  (29) 
Cc1ccc(S(=O)(=O)NCc2nc3ccccc3c(=O)n2-c2cccc(C)c2)cc1

>  <score_type>  (29) 
oracle

>  <origin>  (29) 
adgpu

>  <m_score__min__energy>  (29) 
-11.18

>  <m_primary>  (29) 
energy

$$$$
29:0
     RDKit          3D

 47 50  0  0  0  0  0  0  0  0999 V2000
   -4.5830   25.6670  -31.2090 O   0  0  0  0  0  0  0  0  0  0  0  0
   -4.3730   24.6560  -30.4870 C   0  0  0  0  0  0  0  0  0  0  0  0
   -3.6500   24.7750  -29.2550 N   0  0  0  0  0  0  0  0  0  0  0  0
   -2.4260   24.1050  -28.9140 C   0  0  0  0  0  0  0  0  0  0  0  0
   -2.3950   22.7340  -28.5950 C   0  0  0  0  0  0  0  0  0  0  0  0
   -1.1790   22.1050  -28.2910 C   0  0  0  0  0  0  0  0  0  0  0  0
   -1.1310   20.3900  -27.8900 S   0  0  0  0  0  0  0  0  0  0  0  0
    0.1590   20.1050  -27.1730 O   0  0  0  0  0  0  0  0  0  0  0  0
   -2.2830   20.0400  -26.9880 O   0  0  0  0  0  0  0  0  0  0  0  0
   -1.2170   19.4380  -29.3580 N   0  0  0  0  0  0  0  0  0  0  0  0
    0.1270   19.0510  -29.8000 C   0  0  0  0  0  0  0  0  0  0  0  0
    0.6120   20.0820  -30.8080 C   0  0  0  0  0  0  0  0  0  0  0  0
   -0.6220   20.8600  -31.2230 C   0  0  0  0  0  0  0  0  0  0  0  0
   -1.7770   20.2340  -30.4550 C   0  0  0  0  0  0  0  0  0  0  0  0
    0.0100   22.8440  -28.3120 C   0  0  0  0  0  0  0  0  0  0  0  0
   -0.0130   24.1980  -28.6520 C   0  0  0  0  0  0  0  0  0  0  0  0
   -1.2230   24.8260  -28.9600 C   0  0  0  0  0  0  0  0  0  0  0  0
   -1.2280   26.1730  -29.3040 O   0  0  0  0  0  0  0  0  0  0  0  0
   -4.8230   23.3330  -30.9340 C   0  0  0  0  0  0  0  0  0  0  0  0
   -6.1300   22.9020  -31.0160 C   0  0  0  0  0  0  0  0  0  0  0  0
   -6.0240   21.6050  -31.4760 C   0  0  0  0  0  0  0  0  0  0  0  0
   -7.1500   20.6990  -31.8000 C   0  0  0  0  0  0  0  0  0  0  0  0
   -8.4350   21.2500  -31.9740 C   0  0  0  0  0  0  0  0  0  0  0  0
   -9.5110   20.4420  -32.3490 C   0  0  0  0  0  0  0  0  0  0  0  0
   -9.3200   19.0770  -32.5590 C   0  0  0  0  0  0  0  0  0  0  0  0
   -8.0570   18.5110  -32.3770 C   0  0  0  0  0  0  0  0  0  0  0  0
   -6.9730   19.3040  -31.9810 C   0  0  0  0  0  0  0  0  0  0  0  0
   -5.7520   18.6670  -31.7470 O   0  0  0  0  0  0  0  0  0  0  0  0
   -4.7240   21.3010  -31.6710 N   0  0  0  0  0  0  0  0  0  0  0  0
   -3.9930   22.3520  -31.3330 N   0  0  0  0  0  0  0  0  0  0  0  0
   -3.3292   22.1534  -28.5842 H   0  0  0  0  0  0  0  0  0  0  0  0
    0.8092   19.0242  -28.9375 H   0  0  0  0  0  0  0  0  0  0  0  0
    0.1023   18.0523  -30.2604 H   0  0  0  0  0  0  0  0  0  0  0  0
    1.3511   20.7528  -30.3456 H   0  0  0  0  0  0  0  0  0  0  0  0
    1.1028   19.6077  -31.6706 H   0  0  0  0  0  0  0  0  0  0  0  0
   -0.5143   21.9218  -30.9566 H   0  0  0  0  0  0  0  0  0  0  0  0
   -0.7845   20.8164  -32.3101 H   0  0  0  0  0  0  0  0  0  0  0  0
   -2.4261   21.0237  -30.0489 H   0  0  0  0  0  0  0  0  0  0  0  0
   -2.3761   19.5960  -31.1213 H   0  0  0  0  0  0  0  0  0  0  0  0
    0.9637   22.3571  -28.0603 H   0  0  0  0  0  0  0  0  0  0  0  0
    0.9247   24.7726  -28.6775 H   0  0  0  0  0  0  0  0  0  0  0  0
   -7.0448   23.4618  -30.7716 H   0  0  0  0  0  0  0  0  0  0  0  0
   -8.5924   22.3267  -31.8130 H   0  0  0  0  0  0  0  0  0  0  0  0
  -10.5102   20.8832  -32.4788 H   0  0  0  0  0  0  0  0  0  0  0  0
  -10.1656   18.4452  -32.8685 H   0  0  0  0  0  0  0  0  0  0  0  0
   -7.9122   17.4337  -32.5460 H   0  0  0  0  0  0  0  0  0  0  0  0
   -4.8870   19.1630  -31.5860 H   0  0  0  0  0  0  0  0  0  0  0  0
  1  2  2  0
  2  3  1  0
  3  4  1  0
  4  5  2  0
  5  6  1  0
  6  7  1  0
  7  8  2  0
  7  9  2  0
  7 10  1  0
 10 11  1  0
 11 12  1  0
 12 13  1  0
 13 14  1  0
  6 15  2  0
 15 16  1  0
 16 17  2  0
 17 18  1  0
  2 19  1  0
 19 20  1  0
 20 21  2  0
 21 22  1  0
 22 23  2  0
 23 24  1  0
 24 25  2  0
 25 26  1  0
 26 27  2  0
 27 28  1  0
 21 29  1  0
 29 30  1  0
 17  4  1  0
 30 19  2  0
 14 10  1  0
 27 22  1  0
  5 31  1  0
 11 32  1  0
 11 33  1  0
 12 34  1  0
 12 35  1  0
 13 36  1  0
 13 37  1  0
 14 38  1  0
 14 39  1  0
 15 40  1  0
 16 41  1  0
 20 42  1  0
 23 43  1  0
 24 44  1  0
 25 45  1  0
 26 46  1  0
 28 47  1  0
M  CHG  3   3  -1  18  -1  29  -1
M  END
>  <UniqueID>  (30) 
30

>  <SMILES>  (30) 
O=C([N-]c1cc(S(=O)(=O)N2CCCC2)ccc1[O-])c1cc(-c2ccccc2O)[n-]n1

>  <Energy>  (30) 
89.60543695668665

>  <Genealogy>  (30) 
O=C([N-]c1cc(S(=O)(=O)N2CCCC2)ccc1[O-])c1cc(-c2ccccc2O)[n-]n1 (protonated)
O=C([N-]c1cc(S(=O)(=O)N2CCCC2)ccc1[O-])c1cc(-c2ccccc2O)[n-]n1 (3D coordinates assigned)
O=C([N-]c1cc(S(=O)(=O)N2CCCC2)ccc1[O-])c1cc(-c2ccccc2O)[n-]n1 (nonaromatic ring conformer: 89.60543695668665 kcal/mol)

>  <smiles>  (30) 
O=C(Nc1cc(S(=O)(=O)N2CCCC2)ccc1O)c1cc(-c2ccccc2O)[nH]n1

>  <score_type>  (30) 
oracle

>  <origin>  (30) 
adgpu

>  <m_score__min__energy>  (30) 
-14.25

>  <m_primary>  (30) 
energy

$$$$
30:0
     RDKit          3D

 63 66  0  0  0  0  0  0  0  0999 V2000
    2.8060   18.5860  -32.7010 C   0  0  0  0  0  0  0  0  0  0  0  0
    1.9950   19.6290  -33.2300 O   0  0  0  0  0  0  0  0  0  0  0  0
    0.7650   20.0290  -32.6860 C   0  0  0  0  0  0  0  0  0  0  0  0
   -0.2380   20.4480  -33.5570 C   0  0  0  0  0  0  0  0  0  0  0  0
   -1.4800   20.8460  -33.0680 C   0  0  0  0  0  0  0  0  0  0  0  0
   -1.7560   20.8320  -31.6910 C   0  0  0  0  0  0  0  0  0  0  0  0
   -3.3710   21.3560  -31.1840 S   0  0  0  0  0  0  0  0  0  0  0  0
   -3.8780   20.4520  -30.0990 O   0  0  0  0  0  0  0  0  0  0  0  0
   -4.3260   21.2850  -32.3410 O   0  0  0  0  0  0  0  0  0  0  0  0
   -3.3120   23.0180  -30.6210 C   0  0  0  0  0  0  0  0  0  0  0  0
   -4.2580   23.9930  -30.8560 C   0  0  0  0  0  0  0  0  0  0  0  0
   -3.8910   25.1540  -30.2750 N   0  0  0  0  0  0  0  0  0  0  0  0
   -2.7100   24.8920  -29.6820 C   0  0  0  0  0  0  0  0  0  0  0  0
   -1.9910   25.8400  -28.9660 O   0  0  0  0  0  0  0  0  0  0  0  0
   -2.3110   23.5860  -29.8690 C   0  0  0  0  0  0  0  0  0  0  0  0
   -0.7330   20.4240  -30.7880 C   0  0  0  0  0  0  0  0  0  0  0  0
   -0.9060   20.3300  -29.0200 S   0  0  0  0  0  0  0  0  0  0  0  0
   -1.1280   18.9360  -28.5120 O   0  0  0  0  0  0  0  0  0  0  0  0
   -2.1010   21.1520  -28.6230 O   0  0  0  0  0  0  0  0  0  0  0  0
    0.5390   21.0320  -28.2360 C   0  0  0  0  0  0  0  0  0  0  0  0
    0.2090   22.3030  -27.5010 C   0  0  0  0  0  0  0  0  0  0  0  0
   -0.3370   22.2520  -26.2090 C   0  0  0  0  0  0  0  0  0  0  0  0
   -0.6130   23.4320  -25.5120 C   0  0  0  0  0  0  0  0  0  0  0  0
   -0.3370   24.6790  -26.0900 C   0  0  0  0  0  0  0  0  0  0  0  0
   -0.5330   26.1590  -25.1400 S   0  0  0  0  0  0  0  0  0  0  0  0
   -1.9780   26.2620  -24.7270 O   0  0  0  0  0  0  0  0  0  0  0  0
   -0.2410   27.3270  -26.0410 O   0  0  0  0  0  0  0  0  0  0  0  0
    0.5160   26.2770  -23.7300 N   0  0  0  0  0  0  0  0  0  0  0  0
    0.3180   27.5280  -22.9560 C   0  0  0  0  0  0  0  0  0  0  0  0
    1.3920   28.5960  -23.2430 C   0  0  0  0  0  0  0  0  0  0  0  0
    1.8440   28.4810  -24.6370 N   0  0  0  0  0  0  0  0  0  0  0  0
    2.6950   29.6230  -25.0020 C   0  0  0  0  0  0  0  0  0  0  0  0
    2.5640   27.2090  -24.8530 C   0  0  0  0  0  0  0  0  0  0  0  0
    1.9350   26.0380  -24.0660 C   0  0  0  0  0  0  0  0  0  0  0  0
    0.2020   24.7310  -27.3840 C   0  0  0  0  0  0  0  0  0  0  0  0
    0.4580   23.5520  -28.0910 C   0  0  0  0  0  0  0  0  0  0  0  0
    0.5100   20.0210  -31.3050 C   0  0  0  0  0  0  0  0  0  0  0  0
    2.7783   18.6216  -31.6019 H   0  0  0  0  0  0  0  0  0  0  0  0
    2.4242   17.6138  -33.0461 H   0  0  0  0  0  0  0  0  0  0  0  0
    3.8423   18.7164  -33.0461 H   0  0  0  0  0  0  0  0  0  0  0  0
   -0.0476   20.4647  -34.6403 H   0  0  0  0  0  0  0  0  0  0  0  0
   -2.2577   21.1768  -33.7721 H   0  0  0  0  0  0  0  0  0  0  0  0
   -5.1814   23.8452  -31.4353 H   0  0  0  0  0  0  0  0  0  0  0  0
   -1.3941   23.1045  -29.4984 H   0  0  0  0  0  0  0  0  0  0  0  0
    0.9472   20.3022  -27.5213 H   0  0  0  0  0  0  0  0  0  0  0  0
    1.2741   21.2689  -29.0193 H   0  0  0  0  0  0  0  0  0  0  0  0
   -0.5488   21.2786  -25.7425 H   0  0  0  0  0  0  0  0  0  0  0  0
   -1.0495   23.3817  -24.5036 H   0  0  0  0  0  0  0  0  0  0  0  0
    0.2270   25.4850  -23.1080 H   0  0  0  0  0  0  0  0  0  0  0  0
   -0.6671   27.9452  -23.2119 H   0  0  0  0  0  0  0  0  0  0  0  0
    0.3923   27.2680  -21.8898 H   0  0  0  0  0  0  0  0  0  0  0  0
    0.9660   29.5967  -23.0780 H   0  0  0  0  0  0  0  0  0  0  0  0
    2.2475   28.4432  -22.5686 H   0  0  0  0  0  0  0  0  0  0  0  0
    3.0611   30.1143  -24.0884 H   0  0  0  0  0  0  0  0  0  0  0  0
    3.5505   29.2679  -25.5953 H   0  0  0  0  0  0  0  0  0  0  0  0
    2.1101   30.3412  -25.5953 H   0  0  0  0  0  0  0  0  0  0  0  0
    2.5406   26.9671  -25.9258 H   0  0  0  0  0  0  0  0  0  0  0  0
    3.5951   27.3408  -24.4931 H   0  0  0  0  0  0  0  0  0  0  0  0
    2.0037   25.1257  -24.6768 H   0  0  0  0  0  0  0  0  0  0  0  0
    2.4887   25.9359  -23.1210 H   0  0  0  0  0  0  0  0  0  0  0  0
    0.4245   25.7046  -27.8451 H   0  0  0  0  0  0  0  0  0  0  0  0
    0.8566   23.6037  -29.1149 H   0  0  0  0  0  0  0  0  0  0  0  0
    1.2998   19.6924  -30.6135 H   0  0  0  0  0  0  0  0  0  0  0  0
  1  2  1  0
  2  3  1  0
  3  4  2  0
  4  5  1  0
  5  6  2  0
  6  7  1  0
  7  8  2  0
  7  9  2  0
  7 10  1  0
 10 11  2  0
 11 12  1  0
 12 13  1  0
 13 14  1  0
 13 15  2  0
  6 16  1  0
 16 17  1  0
 17 18  2  0
 17 19  2  0
 17 20  1  0
 20 21  1  0
 21 22  2  0
 22 23  1  0
 23 24  2  0
 24 25  1  0
 25 26  2  0
 25 27  2  0
 25 28  1  0
 28 29  1  0
 29 30  1  0
 30 31  1  0
 31 32  1  0
 31 33  1  0
 33 34  1  0
 24 35  1  0
 35 36  2  0
 16 37  2  0
 37  3  1  0
 15 10  1  0
 36 21  1  0
 34 28  1  0
  1 38  1  0
  1 39  1  0
  1 40  1  0
  4 41  1  0
  5 42  1  0
 11 43  1  0
 15 44  1  0
 20 45  1  0
 20 46  1  0
 22 47  1  0
 23 48  1  0
 28 49  1  0
 29 50  1  0
 29 51  1  0
 30 52  1  0
 30 53  1  0
 32 54  1  0
 32 55  1  0
 32 56  1  0
 33 57  1  0
 33 58  1  0
 34 59  1  0
 34 60  1  0
 35 61  1  0
 36 62  1  0
 37 63  1  0
M  CHG  3  12  -1  14  -1  28   1
M  END
>  <UniqueID>  (31) 
31

>  <SMILES>  (31) 
COc1ccc(S(=O)(=O)c2c[n-]c([O-])c2)c(S(=O)(=O)Cc2ccc(S(=O)(=O)[NH+]3CCN(C)CC3)cc2)c1

>  <Energy>  (31) 
101.99518794015603

>  <Genealogy>  (31) 
COc1ccc(S(=O)(=O)c2c[n-]c([O-])c2)c(S(=O)(=O)Cc2ccc(S(=O)(=O)[NH+]3CCN(C)CC3)cc2)c1 (protonated)
COc1ccc(S(=O)(=O)c2c[n-]c([O-])c2)c(S(=O)(=O)Cc2ccc(S(=O)(=O)[NH+]3CCN(C)CC3)cc2)c1 (3D coordinates assigned)
COc1ccc(S(=O)(=O)c2c[n-]c([O-])c2)c(S(=O)(=O)Cc2ccc(S(=O)(=O)[NH+]3CCN(C)CC3)cc2)c1 (nonaromatic ring conformer: 101.99518794015603 kcal/mol)

>  <smiles>  (31) 
COc1ccc(S(=O)(=O)c2c[nH]c(O)c2)c(S(=O)(=O)Cc2ccc(S(=O)(=O)N3CCN(C)CC3)cc2)c1

>  <score_type>  (31) 
oracle

>  <origin>  (31) 
adgpu

>  <m_score__min__energy>  (31) 
-13.380000000000001

>  <m_primary>  (31) 
energy

$$$$
31:0
     RDKit          3D

 45 47  0  0  0  0  0  0  0  0999 V2000
   -3.2910   24.8990  -26.6560 C   0  0  0  0  0  0  0  0  0  0  0  0
   -2.0670   25.4210  -26.5420 C   0  0  0  0  0  0  0  0  0  0  0  0
   -1.2410   25.7620  -27.7510 C   0  0  0  0  0  0  0  0  0  0  0  0
   -1.7400   25.0770  -28.9470 N   0  0  0  0  0  0  0  0  0  0  0  0
   -1.8170   23.6370  -29.0630 C   0  0  0  0  0  0  0  0  0  0  0  0
   -0.7820   22.8260  -28.5480 C   0  0  0  0  0  0  0  0  0  0  0  0
   -0.8410   21.4360  -28.6560 C   0  0  0  0  0  0  0  0  0  0  0  0
   -1.9270   20.8280  -29.2760 C   0  0  0  0  0  0  0  0  0  0  0  0
   -2.9630   21.6070  -29.7920 C   0  0  0  0  0  0  0  0  0  0  0  0
   -2.9270   23.0080  -29.6940 C   0  0  0  0  0  0  0  0  0  0  0  0
   -4.2780   23.9350  -30.3660 S   0  0  0  0  0  0  0  0  0  0  0  0
   -5.4180   23.9220  -29.3870 O   0  0  0  0  0  0  0  0  0  0  0  0
   -3.8270   25.3460  -30.6240 O   0  0  0  0  0  0  0  0  0  0  0  0
   -4.8100   23.2310  -31.8600 N   0  0  0  0  0  0  0  0  0  0  0  0
   -5.6100   22.0480  -31.9730 C   0  0  0  0  0  0  0  0  0  0  0  0
   -6.8640   22.0170  -31.3140 C   0  0  0  0  0  0  0  0  0  0  0  0
   -7.6950   20.8840  -31.3930 C   0  0  0  0  0  0  0  0  0  0  0  0
   -7.2390   19.7980  -32.1360 C   0  0  0  0  0  0  0  0  0  0  0  0
   -6.0280   19.8160  -32.7740 C   0  0  0  0  0  0  0  0  0  0  0  0
   -5.1820   20.9240  -32.7210 C   0  0  0  0  0  0  0  0  0  0  0  0
   -5.8450   18.6460  -33.4180 N   0  0  0  0  0  0  0  0  0  0  0  0
   -4.7150   18.2550  -34.2560 C   0  0  0  0  0  0  0  0  0  0  0  0
   -6.9760   17.9420  -33.1580 C   0  0  0  0  0  0  0  0  0  0  0  0
   -7.1980   16.7870  -33.6110 O   0  0  0  0  0  0  0  0  0  0  0  0
   -7.8480   18.6170  -32.3660 N   0  0  0  0  0  0  0  0  0  0  0  0
   -9.1630   18.1860  -31.9000 C   0  0  0  0  0  0  0  0  0  0  0  0
   -3.8729   24.6592  -25.7538 H   0  0  0  0  0  0  0  0  0  0  0  0
   -3.7172   24.7088  -27.6521 H   0  0  0  0  0  0  0  0  0  0  0  0
   -1.6534   25.6058  -25.5396 H   0  0  0  0  0  0  0  0  0  0  0  0
   -1.2809   26.8486  -27.9174 H   0  0  0  0  0  0  0  0  0  0  0  0
   -0.2069   25.4341  -27.5689 H   0  0  0  0  0  0  0  0  0  0  0  0
   -2.0540   25.6740  -29.7430 H   0  0  0  0  0  0  0  0  0  0  0  0
    0.0819   23.2961  -28.0553 H   0  0  0  0  0  0  0  0  0  0  0  0
   -0.0259   20.8194  -28.2494 H   0  0  0  0  0  0  0  0  0  0  0  0
   -1.9693   19.7320  -29.3597 H   0  0  0  0  0  0  0  0  0  0  0  0
   -3.8184   21.1184  -30.2815 H   0  0  0  0  0  0  0  0  0  0  0  0
   -7.1926   22.8909  -30.7324 H   0  0  0  0  0  0  0  0  0  0  0  0
   -8.6706   20.8572  -30.8856 H   0  0  0  0  0  0  0  0  0  0  0  0
   -4.2139   20.9247  -33.2432 H   0  0  0  0  0  0  0  0  0  0  0  0
   -3.8688   17.9622  -33.6171 H   0  0  0  0  0  0  0  0  0  0  0  0
   -5.0062   17.4054  -34.8911 H   0  0  0  0  0  0  0  0  0  0  0  0
   -4.4188   19.1029  -34.8911 H   0  0  0  0  0  0  0  0  0  0  0  0
   -9.1787   18.1809  -30.8001 H   0  0  0  0  0  0  0  0  0  0  0  0
   -9.9302   18.8797  -32.2744 H   0  0  0  0  0  0  0  0  0  0  0  0
   -9.3707   17.1728  -32.2744 H   0  0  0  0  0  0  0  0  0  0  0  0
  1  2  2  0
  2  3  1  0
  3  4  1  0
  4  5  1  0
  5  6  2  0
  6  7  1  0
  7  8  2  0
  8  9  1  0
  9 10  2  0
 10 11  1  0
 11 12  2  0
 11 13  2  0
 11 14  1  0
 14 15  1  0
 15 16  2  0
 16 17  1  0
 17 18  2  0
 18 19  1  0
 19 20  2  0
 19 21  1  0
 21 22  1  0
 21 23  1  0
 23 24  2  0
 23 25  1  0
 25 26  1  0
 10  5  1  0
 20 15  1  0
 25 18  1  0
  1 27  1  0
  1 28  1  0
  2 29  1  0
  3 30  1  0
  3 31  1  0
  4 32  1  0
  6 33  1  0
  7 34  1  0
  8 35  1  0
  9 36  1  0
 16 37  1  0
 17 38  1  0
 20 39  1  0
 22 40  1  0
 22 41  1  0
 22 42  1  0
 26 43  1  0
 26 44  1  0
 26 45  1  0
M  CHG  1  14  -1
M  END
>  <UniqueID>  (32) 
32

>  <SMILES>  (32) 
C=CCNc1ccccc1S(=O)(=O)[N-]c1ccc2c(c1)n(C)c(=O)n2C

>  <Energy>  (32) 
91.47210701264204

>  <Genealogy>  (32) 
C=CCNc1ccccc1S(=O)(=O)[N-]c1ccc2c(c1)n(C)c(=O)n2C (protonated)
C=CCNc1ccccc1S(=O)(=O)[N-]c1ccc2c(c1)n(C)c(=O)n2C (3D coordinates assigned)
C=CCNc1ccccc1S(=O)(=O)[N-]c1ccc2c(c1)n(C)c(=O)n2C (optimized conformer: 91.47210701264204 kcal/mol)

>  <smiles>  (32) 
C=CCNc1ccccc1S(=O)(=O)Nc1ccc2c(c1)n(C)c(=O)n2C

>  <score_type>  (32) 
oracle

>  <origin>  (32) 
adgpu

>  <m_score__min__energy>  (32) 
-9.8599999999999994

>  <m_primary>  (32) 
energy

$$$$
32:0
     RDKit          3D

 29 30  0  0  0  0  0  0  0  0999 V2000
   -2.9660   20.4490  -27.5150 C   0  0  0  0  0  0  0  0  0  0  0  0
   -2.5980   21.8100  -28.0300 C   0  0  0  0  0  0  0  0  0  0  0  0
   -1.5080   22.4980  -27.4860 C   0  0  0  0  0  0  0  0  0  0  0  0
   -1.1890   23.7780  -27.9390 C   0  0  0  0  0  0  0  0  0  0  0  0
   -1.9590   24.3930  -28.9310 C   0  0  0  0  0  0  0  0  0  0  0  0
   -1.6050   25.6720  -29.3450 O   0  0  0  0  0  0  0  0  0  0  0  0
   -3.0740   23.7200  -29.4850 C   0  0  0  0  0  0  0  0  0  0  0  0
   -3.9270   24.3370  -30.5380 C   0  0  0  0  0  0  0  0  0  0  0  0
   -4.2120   25.5650  -30.4730 O   0  0  0  0  0  0  0  0  0  0  0  0
   -4.4770   23.5430  -31.5960 N   0  0  0  0  0  0  0  0  0  0  0  0
   -5.6920   22.7830  -31.5240 C   0  0  0  0  0  0  0  0  0  0  0  0
   -5.7250   21.5160  -32.1200 C   0  0  0  0  0  0  0  0  0  0  0  0
   -6.8880   20.7440  -32.0800 C   0  0  0  0  0  0  0  0  0  0  0  0
   -8.0350   21.2390  -31.4580 C   0  0  0  0  0  0  0  0  0  0  0  0
   -8.0250   22.5150  -30.8880 C   0  0  0  0  0  0  0  0  0  0  0  0
   -6.8630   23.3010  -30.9310 C   0  0  0  0  0  0  0  0  0  0  0  0
   -6.8850   24.5970  -30.4180 O   0  0  0  0  0  0  0  0  0  0  0  0
   -3.3850   22.4280  -29.0140 C   0  0  0  0  0  0  0  0  0  0  0  0
   -2.9630   20.4600  -26.4151 H   0  0  0  0  0  0  0  0  0  0  0  0
   -3.9693   20.1792  -27.8763 H   0  0  0  0  0  0  0  0  0  0  0  0
   -2.2353   19.7103  -27.8763 H   0  0  0  0  0  0  0  0  0  0  0  0
   -0.9006   22.0279  -26.6985 H   0  0  0  0  0  0  0  0  0  0  0  0
   -0.3246   24.3080  -27.5124 H   0  0  0  0  0  0  0  0  0  0  0  0
   -4.8280   21.1261  -32.6234 H   0  0  0  0  0  0  0  0  0  0  0  0
   -6.9000   19.7446  -32.5393 H   0  0  0  0  0  0  0  0  0  0  0  0
   -8.9467   20.6250  -31.4164 H   0  0  0  0  0  0  0  0  0  0  0  0
   -8.9321   22.9052  -30.4034 H   0  0  0  0  0  0  0  0  0  0  0  0
   -6.0480   25.1660  -30.3770 H   0  0  0  0  0  0  0  0  0  0  0  0
   -4.2568   21.8969  -29.4236 H   0  0  0  0  0  0  0  0  0  0  0  0
  1  2  1  0
  2  3  2  0
  3  4  1  0
  4  5  2  0
  5  6  1  0
  5  7  1  0
  7  8  1  0
  8  9  2  0
  8 10  1  0
 10 11  1  0
 11 12  2  0
 12 13  1  0
 13 14  2  0
 14 15  1  0
 15 16  2  0
 16 17  1  0
  7 18  2  0
 18  2  1  0
 16 11  1  0
  1 19  1  0
  1 20  1  0
  1 21  1  0
  3 22  1  0
  4 23  1  0
 12 24  1  0
 13 25  1  0
 14 26  1  0
 15 27  1  0
 17 28  1  0
 18 29  1  0
M  CHG  2   6  -1  10  -1
M  END
>  <UniqueID>  (33) 
33

>  <SMILES>  (33) 
Cc1ccc([O-])c(C(=O)[N-]c2ccccc2O)c1

>  <Energy>  (33) 
37.10402976367515

>  <Genealogy>  (33) 
Cc1ccc([O-])c(C(=O)[N-]c2ccccc2O)c1 (protonated)
Cc1ccc([O-])c(C(=O)[N-]c2ccccc2O)c1 (3D coordinates assigned)
Cc1ccc([O-])c(C(=O)[N-]c2ccccc2O)c1 (optimized conformer: 37.10402976367515 kcal/mol)

>  <smiles>  (33) 
Cc1ccc(O)c(C(=O)Nc2ccccc2O)c1

>  <score_type>  (33) 
oracle

>  <origin>  (33) 
adgpu

>  <m_score__min__energy>  (33) 
-10.859999999999999

>  <m_primary>  (33) 
energy

$$$$
33:0
     RDKit          3D

 44 46  0  0  0  0  0  0  0  0999 V2000
   -9.1760   21.4500  -31.9130 C   0  0  0  0  0  0  0  0  0  0  0  0
   -7.6930   21.6720  -31.9140 C   0  0  0  0  0  0  0  0  0  0  0  0
   -6.8320   20.6990  -32.4470 C   0  0  0  0  0  0  0  0  0  0  0  0
   -5.4480   20.8920  -32.4150 C   0  0  0  0  0  0  0  0  0  0  0  0
   -4.9130   22.0520  -31.8450 C   0  0  0  0  0  0  0  0  0  0  0  0
   -3.1370   22.3010  -31.8120 S   0  0  0  0  0  0  0  0  0  0  0  0
   -3.0350   22.0560  -30.0300 C   0  0  0  0  0  0  0  0  0  0  0  0
   -3.0730   20.7440  -29.5410 C   0  0  0  0  0  0  0  0  0  0  0  0
   -2.9230   20.4910  -28.1770 C   0  0  0  0  0  0  0  0  0  0  0  0
   -2.7280   21.5490  -27.2890 C   0  0  0  0  0  0  0  0  0  0  0  0
   -2.6970   22.8630  -27.7610 C   0  0  0  0  0  0  0  0  0  0  0  0
   -2.8730   23.1350  -29.1290 C   0  0  0  0  0  0  0  0  0  0  0  0
   -2.8840   24.5470  -29.5730 C   0  0  0  0  0  0  0  0  0  0  0  0
   -3.6590   24.8880  -30.5050 O   0  0  0  0  0  0  0  0  0  0  0  0
   -2.0510   25.5460  -28.9680 N   0  0  0  0  0  0  0  0  0  0  0  0
   -1.0430   25.3290  -27.9700 C   0  0  0  0  0  0  0  0  0  0  0  0
   -0.0590   24.3620  -28.2030 C   0  0  0  0  0  0  0  0  0  0  0  0
    0.9410   24.1290  -27.2550 C   0  0  0  0  0  0  0  0  0  0  0  0
    0.9590   24.8540  -26.0620 C   0  0  0  0  0  0  0  0  0  0  0  0
   -0.0320   25.8110  -25.8070 C   0  0  0  0  0  0  0  0  0  0  0  0
   -0.0360   26.7190  -24.2990 S   0  0  0  0  0  0  0  0  0  0  0  0
    1.4440   26.4330  -23.4530 N   0  0  0  0  0  0  0  0  0  0  0  0
   -0.1710   28.1890  -24.5830 O   0  0  0  0  0  0  0  0  0  0  0  0
   -1.1980   26.2820  -23.4530 O   0  0  0  0  0  0  0  0  0  0  0  0
   -1.0430   26.0320  -26.7520 C   0  0  0  0  0  0  0  0  0  0  0  0
   -5.7660   23.0120  -31.2890 C   0  0  0  0  0  0  0  0  0  0  0  0
   -7.1510   22.8220  -31.3190 C   0  0  0  0  0  0  0  0  0  0  0  0
   -9.5379   21.3958  -30.8757 H   0  0  0  0  0  0  0  0  0  0  0  0
   -9.6719   22.2839  -32.4313 H   0  0  0  0  0  0  0  0  0  0  0  0
   -9.4060   20.5074  -32.4313 H   0  0  0  0  0  0  0  0  0  0  0  0
   -7.2479   19.7825  -32.8909 H   0  0  0  0  0  0  0  0  0  0  0  0
   -4.7778   20.1298  -32.8391 H   0  0  0  0  0  0  0  0  0  0  0  0
   -3.2223   19.9062  -30.2380 H   0  0  0  0  0  0  0  0  0  0  0  0
   -2.9585   19.4575  -27.8020 H   0  0  0  0  0  0  0  0  0  0  0  0
   -2.5984   21.3480  -26.2153 H   0  0  0  0  0  0  0  0  0  0  0  0
   -2.5335   23.6919  -27.0566 H   0  0  0  0  0  0  0  0  0  0  0  0
   -0.0726   23.7819  -29.1375 H   0  0  0  0  0  0  0  0  0  0  0  0
    1.7157   23.3726  -27.4492 H   0  0  0  0  0  0  0  0  0  0  0  0
    1.7521   24.6737  -25.3214 H   0  0  0  0  0  0  0  0  0  0  0  0
    1.4360   25.4330  -23.1530 H   0  0  0  0  0  0  0  0  0  0  0  0
    1.4130   27.0080  -22.5810 H   0  0  0  0  0  0  0  0  0  0  0  0
   -1.8407   26.7591  -26.5399 H   0  0  0  0  0  0  0  0  0  0  0  0
   -5.3461   23.9179  -30.8274 H   0  0  0  0  0  0  0  0  0  0  0  0
   -7.8177   23.5759  -30.8750 H   0  0  0  0  0  0  0  0  0  0  0  0
  1  2  1  0
  2  3  2  0
  3  4  1  0
  4  5  2  0
  5  6  1  0
  6  7  1  0
  7  8  2  0
  8  9  1  0
  9 10  2  0
 10 11  1  0
 11 12  2  0
 12 13  1  0
 13 14  2  0
 13 15  1  0
 15 16  1  0
 16 17  2  0
 17 18  1  0
 18 19  2  0
 19 20  1  0
 20 21  1  0
 21 22  1  0
 21 23  2  0
 21 24  2  0
 20 25  2  0
  5 26  1  0
 26 27  2  0
 27  2  1  0
 12  7  1  0
 25 16  1  0
  1 28  1  0
  1 29  1  0
  1 30  1  0
  3 31  1  0
  4 32  1  0
  8 33  1  0
  9 34  1  0
 10 35  1  0
 11 36  1  0
 17 37  1  0
 18 38  1  0
 19 39  1  0
 22 40  1  0
 22 41  1  0
 25 42  1  0
 26 43  1  0
 27 44  1  0
M  CHG  1  15  -1
M  END
>  <UniqueID>  (34) 
34

>  <SMILES>  (34) 
Cc1ccc(Sc2ccccc2C(=O)[N-]c2cccc(S(N)(=O)=O)c2)cc1

>  <Energy>  (34) 
48.06193244150611

>  <Genealogy>  (34) 
Cc1ccc(Sc2ccccc2C(=O)[N-]c2cccc(S(N)(=O)=O)c2)cc1 (protonated)
Cc1ccc(Sc2ccccc2C(=O)[N-]c2cccc(S(N)(=O)=O)c2)cc1 (3D coordinates assigned)
Cc1ccc(Sc2ccccc2C(=O)[N-]c2cccc(S(N)(=O)=O)c2)cc1 (optimized conformer: 48.06193244150611 kcal/mol)

>  <smiles>  (34) 
Cc1ccc(Sc2ccccc2C(=O)Nc2cccc(S(N)(=O)=O)c2)cc1

>  <score_type>  (34) 
oracle

>  <origin>  (34) 
adgpu

>  <m_score__min__energy>  (34) 
-11.01

>  <m_primary>  (34) 
energy

$$$$
34:0
     RDKit          3D

 58 61  0  0  0  0  0  0  0  0999 V2000
    1.1380   27.9270  -22.6580 C   0  0  0  0  0  0  0  0  0  0  0  0
    0.6140   26.8300  -23.4840 N   0  0  0  0  0  0  0  0  0  0  0  0
    1.5540   26.5030  -24.5690 C   0  0  0  0  0  0  0  0  0  0  0  0
    1.1020   25.2020  -25.2370 C   0  0  0  0  0  0  0  0  0  0  0  0
   -0.3360   25.2340  -25.5200 N   0  0  0  0  0  0  0  0  0  0  0  0
   -0.9820   24.0470  -26.0200 C   0  0  0  0  0  0  0  0  0  0  0  0
   -0.6560   22.9190  -25.5560 O   0  0  0  0  0  0  0  0  0  0  0  0
   -2.0370   24.1210  -27.0550 C   0  0  0  0  0  0  0  0  0  0  0  0
   -3.3490   24.4800  -26.7130 C   0  0  0  0  0  0  0  0  0  0  0  0
   -4.3430   24.5450  -27.6940 C   0  0  0  0  0  0  0  0  0  0  0  0
   -4.0440   24.2510  -29.0330 C   0  0  0  0  0  0  0  0  0  0  0  0
   -5.3620   24.3100  -30.2170 S   0  0  0  0  0  0  0  0  0  0  0  0
   -6.6090   24.7570  -29.5030 O   0  0  0  0  0  0  0  0  0  0  0  0
   -5.0120   25.3460  -31.2500 O   0  0  0  0  0  0  0  0  0  0  0  0
   -5.7070   22.8080  -31.0430 N   0  0  0  0  0  0  0  0  0  0  0  0
   -6.8520   22.9300  -31.9610 C   0  0  0  0  0  0  0  0  0  0  0  0
   -7.2500   21.5420  -32.4770 C   0  0  0  0  0  0  0  0  0  0  0  0
   -6.0660   20.7630  -32.8580 N   0  0  0  0  0  0  0  0  0  0  0  0
   -6.1990   19.3630  -33.1730 C   0  0  0  0  0  0  0  0  0  0  0  0
   -5.4950   18.8160  -34.2590 C   0  0  0  0  0  0  0  0  0  0  0  0
   -5.6230   17.4590  -34.5740 C   0  0  0  0  0  0  0  0  0  0  0  0
   -6.4520   16.6370  -33.8060 C   0  0  0  0  0  0  0  0  0  0  0  0
   -7.1610   17.1710  -32.7280 C   0  0  0  0  0  0  0  0  0  0  0  0
   -7.0450   18.5300  -32.4130 C   0  0  0  0  0  0  0  0  0  0  0  0
   -7.7920   19.0470  -31.3590 O   0  0  0  0  0  0  0  0  0  0  0  0
   -4.7600   21.4270  -32.9270 C   0  0  0  0  0  0  0  0  0  0  0  0
   -4.4890   22.1920  -31.6220 C   0  0  0  0  0  0  0  0  0  0  0  0
   -2.7300   23.8970  -29.3740 C   0  0  0  0  0  0  0  0  0  0  0  0
   -1.7340   23.8450  -28.3950 C   0  0  0  0  0  0  0  0  0  0  0  0
   -1.0890   26.4790  -25.3320 C   0  0  0  0  0  0  0  0  0  0  0  0
   -0.7480   27.1450  -23.9810 C   0  0  0  0  0  0  0  0  0  0  0  0
    1.0175   27.6748  -21.5941 H   0  0  0  0  0  0  0  0  0  0  0  0
    2.2048   28.0765  -22.8809 H   0  0  0  0  0  0  0  0  0  0  0  0
    0.5839   28.8507  -22.8809 H   0  0  0  0  0  0  0  0  0  0  0  0
    1.5610   27.3161  -25.3098 H   0  0  0  0  0  0  0  0  0  0  0  0
    2.5683   26.3812  -24.1611 H   0  0  0  0  0  0  0  0  0  0  0  0
    1.6523   25.0710  -26.1804 H   0  0  0  0  0  0  0  0  0  0  0  0
    1.3082   24.3649  -24.5538 H   0  0  0  0  0  0  0  0  0  0  0  0
   -3.5974   24.7118  -25.6668 H   0  0  0  0  0  0  0  0  0  0  0  0
   -5.3681   24.8290  -27.4138 H   0  0  0  0  0  0  0  0  0  0  0  0
   -7.7024   23.3795  -31.4274 H   0  0  0  0  0  0  0  0  0  0  0  0
   -6.5709   23.5684  -32.8116 H   0  0  0  0  0  0  0  0  0  0  0  0
   -7.7936   21.0061  -31.6850 H   0  0  0  0  0  0  0  0  0  0  0  0
   -7.8873   21.6677  -33.3647 H   0  0  0  0  0  0  0  0  0  0  0  0
   -4.8394   19.4585  -34.8651 H   0  0  0  0  0  0  0  0  0  0  0  0
   -5.0705   17.0386  -35.4272 H   0  0  0  0  0  0  0  0  0  0  0  0
   -6.5461   15.5687  -34.0508 H   0  0  0  0  0  0  0  0  0  0  0  0
   -7.8126   16.5219  -32.1246 H   0  0  0  0  0  0  0  0  0  0  0  0
   -3.9747   20.6713  -33.0759 H   0  0  0  0  0  0  0  0  0  0  0  0
   -4.7598   22.1363  -33.7677 H   0  0  0  0  0  0  0  0  0  0  0  0
   -4.0683   21.4906  -30.8864 H   0  0  0  0  0  0  0  0  0  0  0  0
   -3.7912   23.0083  -31.8602 H   0  0  0  0  0  0  0  0  0  0  0  0
   -2.4820   23.6588  -30.4189 H   0  0  0  0  0  0  0  0  0  0  0  0
   -0.7035   23.5852  -28.6787 H   0  0  0  0  0  0  0  0  0  0  0  0
   -0.8398   27.1745  -26.1469 H   0  0  0  0  0  0  0  0  0  0  0  0
   -2.1624   26.2388  -25.3385 H   0  0  0  0  0  0  0  0  0  0  0  0
   -0.8294   28.2353  -24.1017 H   0  0  0  0  0  0  0  0  0  0  0  0
   -1.4584   26.7487  -23.2406 H   0  0  0  0  0  0  0  0  0  0  0  0
  1  2  1  0
  2  3  1  0
  3  4  1  0
  4  5  1  0
  5  6  1  0
  6  7  2  0
  6  8  1  0
  8  9  2  0
  9 10  1  0
 10 11  2  0
 11 12  1  0
 12 13  2  0
 12 14  2  0
 12 15  1  0
 15 16  1  0
 16 17  1  0
 17 18  1  0
 18 19  1  0
 19 20  2  0
 20 21  1  0
 21 22  2  0
 22 23  1  0
 23 24  2  0
 24 25  1  0
 18 26  1  0
 26 27  1  0
 11 28  1  0
 28 29  2  0
  5 30  1  0
 30 31  1  0
 31  2  1  0
 29  8  1  0
 27 15  1  0
 24 19  1  0
  1 32  1  0
  1 33  1  0
  1 34  1  0
  3 35  1  0
  3 36  1  0
  4 37  1  0
  4 38  1  0
  9 39  1  0
 10 40  1  0
 16 41  1  0
 16 42  1  0
 17 43  1  0
 17 44  1  0
 20 45  1  0
 21 46  1  0
 22 47  1  0
 23 48  1  0
 26 49  1  0
 26 50  1  0
 27 51  1  0
 27 52  1  0
 28 53  1  0
 29 54  1  0
 30 55  1  0
 30 56  1  0
 31 57  1  0
 31 58  1  0
M  CHG  1  25  -1
M  END
>  <UniqueID>  (35) 
35

>  <SMILES>  (35) 
CN1CCN(C(=O)c2ccc(S(=O)(=O)N3CCN(c4ccccc4[O-])CC3)cc2)CC1

>  <Energy>  (35) 
83.66225402643325

>  <Genealogy>  (35) 
CN1CCN(C(=O)c2ccc(S(=O)(=O)N3CCN(c4ccccc4[O-])CC3)cc2)CC1 (protonated)
CN1CCN(C(=O)c2ccc(S(=O)(=O)N3CCN(c4ccccc4[O-])CC3)cc2)CC1 (3D coordinates assigned)
CN1CCN(C(=O)c2ccc(S(=O)(=O)N3CCN(c4ccccc4[O-])CC3)cc2)CC1 (nonaromatic ring conformer: 83.66225402643325 kcal/mol)

>  <smiles>  (35) 
CN1CCN(C(=O)c2ccc(S(=O)(=O)N3CCN(c4ccccc4O)CC3)cc2)CC1

>  <score_type>  (35) 
oracle

>  <origin>  (35) 
adgpu

>  <m_score__min__energy>  (35) 
-12.1

>  <m_primary>  (35) 
energy

$$$$
35:0
     RDKit          3D

 56 59  0  0  0  0  0  0  0  0999 V2000
   -2.4500   15.6180  -34.3650 C   0  0  0  0  0  0  0  0  0  0  0  0
   -1.3170   16.3090  -33.6090 C   0  0  0  0  0  0  0  0  0  0  0  0
   -1.7750   17.5610  -33.0150 N   0  0  0  0  0  0  0  0  0  0  0  0
   -0.9470   18.3650  -32.1650 C   0  0  0  0  0  0  0  0  0  0  0  0
    0.2730   18.0860  -32.0310 O   0  0  0  0  0  0  0  0  0  0  0  0
   -1.4850   19.5740  -31.5130 C   0  0  0  0  0  0  0  0  0  0  0  0
   -1.0010   20.0450  -30.3410 N   0  0  0  0  0  0  0  0  0  0  0  0
   -1.6340   21.2070  -30.1150 C   0  0  0  0  0  0  0  0  0  0  0  0
   -1.4180   22.0950  -29.0640 C   0  0  0  0  0  0  0  0  0  0  0  0
   -2.1280   23.3080  -29.0650 C   0  0  0  0  0  0  0  0  0  0  0  0
   -3.0250   23.6180  -30.1180 C   0  0  0  0  0  0  0  0  0  0  0  0
   -3.6560   24.9020  -30.2210 N   0  0  0  0  0  0  0  0  0  0  0  0
   -5.3620   25.1690  -30.0950 S   0  0  0  0  0  0  0  0  0  0  0  0
   -5.7180   26.4350  -30.8260 O   0  0  0  0  0  0  0  0  0  0  0  0
   -5.7350   25.3200  -28.6460 O   0  0  0  0  0  0  0  0  0  0  0  0
   -6.2300   23.7860  -30.7600 C   0  0  0  0  0  0  0  0  0  0  0  0
   -6.1360   23.4930  -32.1290 C   0  0  0  0  0  0  0  0  0  0  0  0
   -6.8490   22.4200  -32.6740 C   0  0  0  0  0  0  0  0  0  0  0  0
   -7.6710   21.6340  -31.8570 C   0  0  0  0  0  0  0  0  0  0  0  0
   -8.4310   20.4730  -32.4270 C   0  0  0  0  0  0  0  0  0  0  0  0
   -7.7450   21.9130  -30.4820 C   0  0  0  0  0  0  0  0  0  0  0  0
   -7.0330   22.9870  -29.9370 C   0  0  0  0  0  0  0  0  0  0  0  0
   -3.2570   22.6740  -31.1370 C   0  0  0  0  0  0  0  0  0  0  0  0
   -2.5330   21.4810  -31.1110 C   0  0  0  0  0  0  0  0  0  0  0  0
   -2.4680   20.4350  -32.0120 C   0  0  0  0  0  0  0  0  0  0  0  0
   -3.5000   20.2120  -33.4310 S   0  0  0  0  0  0  0  0  0  0  0  0
   -4.0520   21.5500  -33.8410 O   0  0  0  0  0  0  0  0  0  0  0  0
   -2.6830   19.6730  -34.5760 O   0  0  0  0  0  0  0  0  0  0  0  0
   -4.8180   19.0930  -33.0800 C   0  0  0  0  0  0  0  0  0  0  0  0
   -5.3120   18.9760  -31.7710 C   0  0  0  0  0  0  0  0  0  0  0  0
   -6.3750   18.1110  -31.4960 C   0  0  0  0  0  0  0  0  0  0  0  0
   -6.9500   17.3630  -32.5250 C   0  0  0  0  0  0  0  0  0  0  0  0
   -6.4610   17.4740  -33.8310 C   0  0  0  0  0  0  0  0  0  0  0  0
   -5.3980   18.3340  -34.1090 C   0  0  0  0  0  0  0  0  0  0  0  0
   -3.1603   15.1848  -33.6454 H   0  0  0  0  0  0  0  0  0  0  0  0
   -2.9705   16.3525  -34.9971 H   0  0  0  0  0  0  0  0  0  0  0  0
   -2.0352   14.8190  -34.9971 H   0  0  0  0  0  0  0  0  0  0  0  0
   -0.9571   15.6424  -32.8114 H   0  0  0  0  0  0  0  0  0  0  0  0
   -0.5062   16.5323  -34.3181 H   0  0  0  0  0  0  0  0  0  0  0  0
   -2.7020   17.9350  -33.3180 H   0  0  0  0  0  0  0  0  0  0  0  0
   -0.2440   19.6240  -29.7590 H   0  0  0  0  0  0  0  0  0  0  0  0
   -0.7117   21.8538  -28.2560 H   0  0  0  0  0  0  0  0  0  0  0  0
   -1.9864   24.0232  -28.2413 H   0  0  0  0  0  0  0  0  0  0  0  0
   -5.4977   24.1109  -32.7777 H   0  0  0  0  0  0  0  0  0  0  0  0
   -6.7638   22.1931  -33.7470 H   0  0  0  0  0  0  0  0  0  0  0  0
   -8.8326   19.8595  -31.6070 H   0  0  0  0  0  0  0  0  0  0  0  0
   -9.2603   20.8460  -33.0460 H   0  0  0  0  0  0  0  0  0  0  0  0
   -7.7574   19.8622  -33.0460 H   0  0  0  0  0  0  0  0  0  0  0  0
   -8.3670   21.2827  -29.8295 H   0  0  0  0  0  0  0  0  0  0  0  0
   -7.1041   23.2039  -28.8609 H   0  0  0  0  0  0  0  0  0  0  0  0
   -3.9900   22.8718  -31.9330 H   0  0  0  0  0  0  0  0  0  0  0  0
   -4.8613   19.5666  -30.9597 H   0  0  0  0  0  0  0  0  0  0  0  0
   -6.7584   18.0197  -30.4690 H   0  0  0  0  0  0  0  0  0  0  0  0
   -7.7889   16.6852  -32.3085 H   0  0  0  0  0  0  0  0  0  0  0  0
   -6.9151   16.8826  -34.6397 H   0  0  0  0  0  0  0  0  0  0  0  0
   -5.0136   18.4175  -35.1363 H   0  0  0  0  0  0  0  0  0  0  0  0
  1  2  1  0
  2  3  1  0
  3  4  1  0
  4  5  2  0
  4  6  1  0
  6  7  1  0
  7  8  1  0
  8  9  2  0
  9 10  1  0
 10 11  2  0
 11 12  1  0
 12 13  1  0
 13 14  2  0
 13 15  2  0
 13 16  1  0
 16 17  2  0
 17 18  1  0
 18 19  2  0
 19 20  1  0
 19 21  1  0
 21 22  2  0
 11 23  1  0
 23 24  2  0
 24 25  1  0
 25 26  1  0
 26 27  2  0
 26 28  2  0
 26 29  1  0
 29 30  2  0
 30 31  1  0
 31 32  2  0
 32 33  1  0
 33 34  2  0
 25  6  2  0
 34 29  1  0
 24  8  1  0
 22 16  1  0
  1 35  1  0
  1 36  1  0
  1 37  1  0
  2 38  1  0
  2 39  1  0
  3 40  1  0
  7 41  1  0
  9 42  1  0
 10 43  1  0
 17 44  1  0
 18 45  1  0
 20 46  1  0
 20 47  1  0
 20 48  1  0
 21 49  1  0
 22 50  1  0
 23 51  1  0
 30 52  1  0
 31 53  1  0
 32 54  1  0
 33 55  1  0
 34 56  1  0
M  CHG  1  12  -1
M  END
>  <UniqueID>  (36) 
36

>  <SMILES>  (36) 
CCNC(=O)c1[nH]c2ccc([N-]S(=O)(=O)c3ccc(C)cc3)cc2c1S(=O)(=O)c1ccccc1

>  <Energy>  (36) 
96.01103261876196

>  <Genealogy>  (36) 
CCNC(=O)c1[nH]c2ccc([N-]S(=O)(=O)c3ccc(C)cc3)cc2c1S(=O)(=O)c1ccccc1 (protonated)
CCNC(=O)c1[nH]c2ccc([N-]S(=O)(=O)c3ccc(C)cc3)cc2c1S(=O)(=O)c1ccccc1 (3D coordinates assigned)
CCNC(=O)c1[nH]c2ccc([N-]S(=O)(=O)c3ccc(C)cc3)cc2c1S(=O)(=O)c1ccccc1 (optimized conformer: 96.01103261876196 kcal/mol)

>  <smiles>  (36) 
CCNC(=O)c1[nH]c2ccc(NS(=O)(=O)c3ccc(C)cc3)cc2c1S(=O)(=O)c1ccccc1

>  <score_type>  (36) 
oracle

>  <origin>  (36) 
adgpu

>  <m_score__min__energy>  (36) 
-10.99

>  <m_primary>  (36) 
energy

$$$$
36:0
     RDKit          3D

 61 65  0  0  0  0  0  0  0  0999 V2000
   -4.3850   17.7920  -34.8720 O   0  0  0  0  0  0  0  0  0  0  0  0
   -4.2740   18.6680  -33.9700 C   0  0  0  0  0  0  0  0  0  0  0  0
   -2.9520   19.2750  -33.6780 C   0  0  0  0  0  0  0  0  0  0  0  0
   -1.7910   18.8080  -34.3170 C   0  0  0  0  0  0  0  0  0  0  0  0
   -0.5520   19.3880  -34.0450 C   0  0  0  0  0  0  0  0  0  0  0  0
   -0.4520   20.4580  -33.1520 C   0  0  0  0  0  0  0  0  0  0  0  0
    0.8050   20.9770  -32.8800 O   0  0  0  0  0  0  0  0  0  0  0  0
   -1.6110   20.9670  -32.5310 C   0  0  0  0  0  0  0  0  0  0  0  0
   -1.5950   22.0870  -31.6330 N   0  0  0  0  0  0  0  0  0  0  0  0
   -2.7930   22.4830  -30.4420 S   0  0  0  0  0  0  0  0  0  0  0  0
   -4.1340   21.9940  -30.9140 O   0  0  0  0  0  0  0  0  0  0  0  0
   -2.8700   23.9790  -30.2950 O   0  0  0  0  0  0  0  0  0  0  0  0
   -2.4090   21.7060  -28.8950 C   0  0  0  0  0  0  0  0  0  0  0  0
   -2.9230   20.4230  -28.6430 C   0  0  0  0  0  0  0  0  0  0  0  0
   -2.6610   19.7720  -27.4390 C   0  0  0  0  0  0  0  0  0  0  0  0
   -1.8760   20.3850  -26.4640 C   0  0  0  0  0  0  0  0  0  0  0  0
   -1.3370   21.6570  -26.6940 C   0  0  0  0  0  0  0  0  0  0  0  0
   -0.5340   22.2700  -25.7230 C   0  0  0  0  0  0  0  0  0  0  0  0
   -0.0050   23.5000  -25.9490 N   0  0  0  0  0  0  0  0  0  0  0  0
   -0.2290   24.1710  -27.1070 C   0  0  0  0  0  0  0  0  0  0  0  0
   -1.0230   23.6070  -28.1080 C   0  0  0  0  0  0  0  0  0  0  0  0
   -1.5950   22.3340  -27.9140 C   0  0  0  0  0  0  0  0  0  0  0  0
   -2.8450   20.3520  -32.7780 C   0  0  0  0  0  0  0  0  0  0  0  0
   -5.4330   19.0240  -33.2090 N   0  0  0  0  0  0  0  0  0  0  0  0
   -5.9150   18.1060  -32.1740 C   0  0  0  0  0  0  0  0  0  0  0  0
   -6.8140   18.8490  -31.1830 C   0  0  0  0  0  0  0  0  0  0  0  0
   -8.0170   19.5250  -31.8870 C   0  0  0  0  0  0  0  0  0  0  0  0
   -8.6000   20.6370  -30.9820 C   0  0  0  0  0  0  0  0  0  0  0  0
   -7.7440   21.8800  -30.9850 C   0  0  0  0  0  0  0  0  0  0  0  0
   -7.6010   22.6540  -32.1500 C   0  0  0  0  0  0  0  0  0  0  0  0
   -6.8210   23.8160  -32.1330 C   0  0  0  0  0  0  0  0  0  0  0  0
   -6.1760   24.2100  -30.9590 C   0  0  0  0  0  0  0  0  0  0  0  0
   -6.3080   23.4420  -29.7980 C   0  0  0  0  0  0  0  0  0  0  0  0
   -7.0890   22.2840  -29.8090 C   0  0  0  0  0  0  0  0  0  0  0  0
   -7.6620   20.0580  -33.3060 C   0  0  0  0  0  0  0  0  0  0  0  0
   -6.1570   20.2660  -33.5080 C   0  0  0  0  0  0  0  0  0  0  0  0
   -1.8597   17.9791  -35.0369 H   0  0  0  0  0  0  0  0  0  0  0  0
    0.3524   19.0005  -34.5368 H   0  0  0  0  0  0  0  0  0  0  0  0
   -3.5402   19.9259  -29.4059 H   0  0  0  0  0  0  0  0  0  0  0  0
   -3.0757   18.7695  -27.2573 H   0  0  0  0  0  0  0  0  0  0  0  0
   -1.6795   19.8690  -25.5126 H   0  0  0  0  0  0  0  0  0  0  0  0
   -0.3313   21.7526  -24.7737 H   0  0  0  0  0  0  0  0  0  0  0  0
    0.2174   25.1649  -27.2582 H   0  0  0  0  0  0  0  0  0  0  0  0
   -1.2013   24.1549  -29.0450 H   0  0  0  0  0  0  0  0  0  0  0  0
   -3.7447   20.7164  -32.2605 H   0  0  0  0  0  0  0  0  0  0  0  0
   -6.4883   17.2949  -32.6466 H   0  0  0  0  0  0  0  0  0  0  0  0
   -5.0518   17.6911  -31.6330 H   0  0  0  0  0  0  0  0  0  0  0  0
   -7.1939   18.1315  -30.4408 H   0  0  0  0  0  0  0  0  0  0  0  0
   -6.2140   19.6364  -30.7034 H   0  0  0  0  0  0  0  0  0  0  0  0
   -8.7890   18.7573  -32.0440 H   0  0  0  0  0  0  0  0  0  0  0  0
   -9.6053   20.8980  -31.3442 H   0  0  0  0  0  0  0  0  0  0  0  0
   -8.6336   20.2520  -29.9521 H   0  0  0  0  0  0  0  0  0  0  0  0
   -8.1040   22.3452  -33.0782 H   0  0  0  0  0  0  0  0  0  0  0  0
   -6.7159   24.4200  -33.0463 H   0  0  0  0  0  0  0  0  0  0  0  0
   -5.5643   25.1242  -30.9474 H   0  0  0  0  0  0  0  0  0  0  0  0
   -5.7960   23.7503  -28.8745 H   0  0  0  0  0  0  0  0  0  0  0  0
   -7.1920   21.6850  -28.8922 H   0  0  0  0  0  0  0  0  0  0  0  0
   -8.0190   19.3330  -34.0523 H   0  0  0  0  0  0  0  0  0  0  0  0
   -8.1481   21.0381  -33.4206 H   0  0  0  0  0  0  0  0  0  0  0  0
   -5.9664   20.5563  -34.5517 H   0  0  0  0  0  0  0  0  0  0  0  0
   -5.8082   21.0590  -32.8301 H   0  0  0  0  0  0  0  0  0  0  0  0
  1  2  2  0
  2  3  1  0
  3  4  2  0
  4  5  1  0
  5  6  2  0
  6  7  1  0
  6  8  1  0
  8  9  1  0
  9 10  1  0
 10 11  2  0
 10 12  2  0
 10 13  1  0
 13 14  2  0
 14 15  1  0
 15 16  2  0
 16 17  1  0
 17 18  2  0
 18 19  1  0
 19 20  2  0
 20 21  1  0
 21 22  2  0
  8 23  2  0
  2 24  1  0
 24 25  1  0
 25 26  1  0
 26 27  1  0
 27 28  1  0
 28 29  1  0
 29 30  2  0
 30 31  1  0
 31 32  2  0
 32 33  1  0
 33 34  2  0
 27 35  1  0
 35 36  1  0
 23  3  1  0
 36 24  1  0
 22 13  1  0
 34 29  1  0
 22 17  1  0
  4 37  1  0
  5 38  1  0
 14 39  1  0
 15 40  1  0
 16 41  1  0
 18 42  1  0
 20 43  1  0
 21 44  1  0
 23 45  1  0
 25 46  1  0
 25 47  1  0
 26 48  1  0
 26 49  1  0
 27 50  1  0
 28 51  1  0
 28 52  1  0
 30 53  1  0
 31 54  1  0
 32 55  1  0
 33 56  1  0
 34 57  1  0
 35 58  1  0
 35 59  1  0
 36 60  1  0
 36 61  1  0
M  CHG  2   7  -1   9  -1
M  END
>  <UniqueID>  (37) 
37

>  <SMILES>  (37) 
O=C(c1ccc([O-])c([N-]S(=O)(=O)c2cccc3cnccc23)c1)N1CCC(Cc2ccccc2)CC1

>  <Energy>  (37) 
88.63758262868546

>  <Genealogy>  (37) 
O=C(c1ccc([O-])c([N-]S(=O)(=O)c2cccc3cnccc23)c1)N1CCC(Cc2ccccc2)CC1 (protonated)
O=C(c1ccc([O-])c([N-]S(=O)(=O)c2cccc3cnccc23)c1)N1CCC(Cc2ccccc2)CC1 (3D coordinates assigned)
O=C(c1ccc([O-])c([N-]S(=O)(=O)c2cccc3cnccc23)c1)N1CCC(Cc2ccccc2)CC1 (nonaromatic ring conformer: 88.63758262868546 kcal/mol)

>  <smiles>  (37) 
O=C(c1ccc(O)c(NS(=O)(=O)c2cccc3cnccc23)c1)N1CCC(Cc2ccccc2)CC1

>  <score_type>  (37) 
oracle

>  <origin>  (37) 
adgpu

>  <m_score__min__energy>  (37) 
-14.35

>  <m_primary>  (37) 
energy

$$$$
37:0
     RDKit          3D

 40 43  0  0  0  0  0  0  0  0999 V2000
   -4.2380   16.6750  -33.2020 C   0  0  0  0  0  0  0  0  0  0  0  0
   -5.7510   17.1540  -34.0030 S   0  0  0  0  0  0  0  0  0  0  0  0
   -5.4400   17.8500  -35.2990 O   0  0  0  0  0  0  0  0  0  0  0  0
   -6.5650   15.9250  -34.2970 O   0  0  0  0  0  0  0  0  0  0  0  0
   -6.6490   18.2430  -32.9510 C   0  0  0  0  0  0  0  0  0  0  0  0
   -7.7780   17.7960  -32.2540 C   0  0  0  0  0  0  0  0  0  0  0  0
   -8.4750   18.6670  -31.4160 C   0  0  0  0  0  0  0  0  0  0  0  0
   -8.0490   19.9890  -31.2650 C   0  0  0  0  0  0  0  0  0  0  0  0
   -6.9130   20.4540  -31.9530 C   0  0  0  0  0  0  0  0  0  0  0  0
   -6.4470   21.8540  -31.7860 C   0  0  0  0  0  0  0  0  0  0  0  0
   -7.1420   22.9320  -32.4030 C   0  0  0  0  0  0  0  0  0  0  0  0
   -6.7200   24.2220  -32.2400 N   0  0  0  0  0  0  0  0  0  0  0  0
   -5.6170   24.4630  -31.4920 C   0  0  0  0  0  0  0  0  0  0  0  0
   -5.0950   25.6670  -31.2060 N   0  0  0  0  0  0  0  0  0  0  0  0
   -4.0410   25.4530  -30.4240 N   0  0  0  0  0  0  0  0  0  0  0  0
   -3.8970   24.1200  -30.2190 C   0  0  0  0  0  0  0  0  0  0  0  0
   -2.8150   23.5190  -29.4070 C   0  0  0  0  0  0  0  0  0  0  0  0
   -2.8670   22.1610  -29.0520 C   0  0  0  0  0  0  0  0  0  0  0  0
   -1.8470   21.5810  -28.2900 C   0  0  0  0  0  0  0  0  0  0  0  0
   -1.9730   19.8780  -27.8720 Cl  0  0  0  0  0  0  0  0  0  0  0  0
   -0.7460   22.3590  -27.8850 C   0  0  0  0  0  0  0  0  0  0  0  0
    0.2940   21.8230  -27.1250 O   0  0  0  0  0  0  0  0  0  0  0  0
   -0.6830   23.7070  -28.2520 C   0  0  0  0  0  0  0  0  0  0  0  0
   -1.7050   24.2880  -29.0090 C   0  0  0  0  0  0  0  0  0  0  0  0
   -1.6140   25.6340  -29.3460 O   0  0  0  0  0  0  0  0  0  0  0  0
   -4.9080   23.4680  -30.8980 C   0  0  0  0  0  0  0  0  0  0  0  0
   -5.3050   22.1380  -31.0030 C   0  0  0  0  0  0  0  0  0  0  0  0
   -6.2200   19.5690  -32.7980 C   0  0  0  0  0  0  0  0  0  0  0  0
   -4.3714   16.7172  -32.1109 H   0  0  0  0  0  0  0  0  0  0  0  0
   -3.9743   15.6494  -33.4997 H   0  0  0  0  0  0  0  0  0  0  0  0
   -3.4321   17.3619  -33.4997 H   0  0  0  0  0  0  0  0  0  0  0  0
   -8.1164   16.7555  -32.3674 H   0  0  0  0  0  0  0  0  0  0  0  0
   -9.3628   18.3117  -30.8724 H   0  0  0  0  0  0  0  0  0  0  0  0
   -8.6050   20.6705  -30.6043 H   0  0  0  0  0  0  0  0  0  0  0  0
   -8.0297   22.7245  -33.0186 H   0  0  0  0  0  0  0  0  0  0  0  0
   -3.7195   21.5464  -29.3768 H   0  0  0  0  0  0  0  0  0  0  0  0
    0.2330   21.7030  -26.1220 H   0  0  0  0  0  0  0  0  0  0  0  0
    0.1789   24.3161  -27.9421 H   0  0  0  0  0  0  0  0  0  0  0  0
   -4.7495   21.3362  -30.4945 H   0  0  0  0  0  0  0  0  0  0  0  0
   -5.3324   19.9206  -33.3444 H   0  0  0  0  0  0  0  0  0  0  0  0
  1  2  1  0
  2  3  2  0
  2  4  2  0
  2  5  1  0
  5  6  2  0
  6  7  1  0
  7  8  2  0
  8  9  1  0
  9 10  1  0
 10 11  1  0
 11 12  2  0
 12 13  1  0
 13 14  2  0
 14 15  1  0
 15 16  1  0
 16 17  1  0
 17 18  2  0
 18 19  1  0
 19 20  1  0
 19 21  2  0
 21 22  1  0
 21 23  1  0
 23 24  2  0
 24 25  1  0
 16 26  2  0
 26 27  1  0
  9 28  2  0
 28  5  1  0
 27 10  2  0
 26 13  1  0
 24 17  1  0
  1 29  1  0
  1 30  1  0
  1 31  1  0
  6 32  1  0
  7 33  1  0
  8 34  1  0
 11 35  1  0
 18 36  1  0
 22 37  1  0
 23 38  1  0
 27 39  1  0
 28 40  1  0
M  CHG  2  15  -1  25  -1
M  END
>  <UniqueID>  (38) 
38

>  <SMILES>  (38) 
CS(=O)(=O)c1cccc(-c2cnc3n[n-]c(-c4cc(Cl)c(O)cc4[O-])c3c2)c1

>  <Energy>  (38) 
93.05039752680398

>  <Genealogy>  (38) 
CS(=O)(=O)c1cccc(-c2cnc3n[n-]c(-c4cc(Cl)c(O)cc4[O-])c3c2)c1 (protonated)
CS(=O)(=O)c1cccc(-c2cnc3n[n-]c(-c4cc(Cl)c(O)cc4[O-])c3c2)c1 (3D coordinates assigned)
CS(=O)(=O)c1cccc(-c2cnc3n[n-]c(-c4cc(Cl)c(O)cc4[O-])c3c2)c1 (optimized conformer: 93.05039752680398 kcal/mol)

>  <smiles>  (38) 
CS(=O)(=O)c1cccc(-c2cnc3n[nH]c(-c4cc(Cl)c(O)cc4O)c3c2)c1

>  <score_type>  (38) 
oracle

>  <origin>  (38) 
adgpu

>  <m_score__min__energy>  (38) 
-14.85

>  <m_primary>  (38) 
energy

$$$$
38:0
     RDKit          3D

 54 57  0  0  0  0  0  0  0  0999 V2000
   -5.9570   19.3290  -33.8800 C   0  0  0  0  0  0  0  0  0  0  0  0
   -5.7180   20.5660  -33.0620 C   0  0  0  0  0  0  0  0  0  0  0  0
   -6.7850   21.3900  -32.7040 C   0  0  0  0  0  0  0  0  0  0  0  0
   -6.5840   22.5320  -31.9110 C   0  0  0  0  0  0  0  0  0  0  0  0
   -7.7800   23.4020  -31.6220 C   0  0  0  0  0  0  0  0  0  0  0  0
   -5.2820   22.8240  -31.4120 C   0  0  0  0  0  0  0  0  0  0  0  0
   -4.9940   24.2280  -30.3420 S   0  0  0  0  0  0  0  0  0  0  0  0
   -3.8590   25.0840  -30.8310 O   0  0  0  0  0  0  0  0  0  0  0  0
   -6.2170   25.1010  -30.3120 O   0  0  0  0  0  0  0  0  0  0  0  0
   -4.6460   23.7020  -28.7290 N   0  0  0  0  0  0  0  0  0  0  0  0
   -3.3180   23.7140  -28.1980 C   0  0  0  0  0  0  0  0  0  0  0  0
   -2.6170   24.9210  -28.1150 C   0  0  0  0  0  0  0  0  0  0  0  0
   -1.3310   24.9590  -27.5830 C   0  0  0  0  0  0  0  0  0  0  0  0
   -0.7090   23.7880  -27.1380 C   0  0  0  0  0  0  0  0  0  0  0  0
    0.6100   23.8850  -26.5820 N   0  0  0  0  0  0  0  0  0  0  0  0
    0.7990   23.8310  -25.1310 C   0  0  0  0  0  0  0  0  0  0  0  0
    2.0110   24.6820  -24.7420 C   0  0  0  0  0  0  0  0  0  0  0  0
    3.1430   24.3290  -25.5170 O   0  0  0  0  0  0  0  0  0  0  0  0
    2.9140   24.6490  -26.8770 C   0  0  0  0  0  0  0  0  0  0  0  0
    1.7810   23.7960  -27.4540 C   0  0  0  0  0  0  0  0  0  0  0  0
   -1.3840   22.5500  -27.2430 C   0  0  0  0  0  0  0  0  0  0  0  0
   -0.7800   21.3470  -26.8280 C   0  0  0  0  0  0  0  0  0  0  0  0
   -1.4660   20.1360  -26.9340 C   0  0  0  0  0  0  0  0  0  0  0  0
   -2.7580   20.1030  -27.4530 C   0  0  0  0  0  0  0  0  0  0  0  0
   -3.3750   21.2820  -27.8750 C   0  0  0  0  0  0  0  0  0  0  0  0
   -2.7010   22.5150  -27.7810 C   0  0  0  0  0  0  0  0  0  0  0  0
   -4.1930   22.0040  -31.8230 C   0  0  0  0  0  0  0  0  0  0  0  0
   -2.7680   22.2960  -31.4260 C   0  0  0  0  0  0  0  0  0  0  0  0
   -4.4330   20.8710  -32.6140 C   0  0  0  0  0  0  0  0  0  0  0  0
   -6.1225   18.4726  -33.2098 H   0  0  0  0  0  0  0  0  0  0  0  0
   -6.8436   19.4747  -34.5146 H   0  0  0  0  0  0  0  0  0  0  0  0
   -5.0799   19.1339  -34.5146 H   0  0  0  0  0  0  0  0  0  0  0  0
   -7.7999   21.1417  -33.0481 H   0  0  0  0  0  0  0  0  0  0  0  0
   -7.9102   23.4967  -30.5338 H   0  0  0  0  0  0  0  0  0  0  0  0
   -7.6231   24.3985  -32.0606 H   0  0  0  0  0  0  0  0  0  0  0  0
   -8.6798   22.9459  -32.0606 H   0  0  0  0  0  0  0  0  0  0  0  0
   -3.0860   25.8492  -28.4734 H   0  0  0  0  0  0  0  0  0  0  0  0
   -0.7990   25.9192  -27.5120 H   0  0  0  0  0  0  0  0  0  0  0  0
   -0.0990   24.2210  -24.6295 H   0  0  0  0  0  0  0  0  0  0  0  0
    0.9683   22.7890  -24.8219 H   0  0  0  0  0  0  0  0  0  0  0  0
    1.7755   25.7432  -24.9102 H   0  0  0  0  0  0  0  0  0  0  0  0
    2.2407   24.5043  -23.6810 H   0  0  0  0  0  0  0  0  0  0  0  0
    2.6414   25.7117  -26.9563 H   0  0  0  0  0  0  0  0  0  0  0  0
    3.8330   24.4455  -27.4462 H   0  0  0  0  0  0  0  0  0  0  0  0
    1.5197   24.1638  -28.4572 H   0  0  0  0  0  0  0  0  0  0  0  0
    2.1090   22.7482  -27.5211 H   0  0  0  0  0  0  0  0  0  0  0  0
    0.2403   21.3620  -26.4172 H   0  0  0  0  0  0  0  0  0  0  0  0
   -0.9839   19.2033  -26.6061 H   0  0  0  0  0  0  0  0  0  0  0  0
   -3.2937   19.1454  -27.5306 H   0  0  0  0  0  0  0  0  0  0  0  0
   -4.3955   21.2477  -28.2841 H   0  0  0  0  0  0  0  0  0  0  0  0
   -2.6890   22.3122  -30.3290 H   0  0  0  0  0  0  0  0  0  0  0  0
   -2.1074   21.5146  -31.8297 H   0  0  0  0  0  0  0  0  0  0  0  0
   -2.4680   23.2743  -31.8297 H   0  0  0  0  0  0  0  0  0  0  0  0
   -3.5946   20.2126  -32.8853 H   0  0  0  0  0  0  0  0  0  0  0  0
  1  2  1  0
  2  3  2  0
  3  4  1  0
  4  5  1  0
  4  6  2  0
  6  7  1  0
  7  8  2  0
  7  9  2  0
  7 10  1  0
 10 11  1  0
 11 12  2  0
 12 13  1  0
 13 14  2  0
 14 15  1  0
 15 16  1  0
 16 17  1  0
 17 18  1  0
 18 19  1  0
 19 20  1  0
 14 21  1  0
 21 22  2  0
 22 23  1  0
 23 24  2  0
 24 25  1  0
 25 26  2  0
  6 27  1  0
 27 28  1  0
 27 29  2  0
 29  2  1  0
 26 11  1  0
 20 15  1  0
 26 21  1  0
  1 30  1  0
  1 31  1  0
  1 32  1  0
  3 33  1  0
  5 34  1  0
  5 35  1  0
  5 36  1  0
 12 37  1  0
 13 38  1  0
 16 39  1  0
 16 40  1  0
 17 41  1  0
 17 42  1  0
 19 43  1  0
 19 44  1  0
 20 45  1  0
 20 46  1  0
 22 47  1  0
 23 48  1  0
 24 49  1  0
 25 50  1  0
 28 51  1  0
 28 52  1  0
 28 53  1  0
 29 54  1  0
M  CHG  1  10  -1
M  END
>  <UniqueID>  (39) 
39

>  <SMILES>  (39) 
Cc1cc(C)c(S(=O)(=O)[N-]c2ccc(N3CCOCC3)c3ccccc23)c(C)c1

>  <Energy>  (39) 
81.6565142359221

>  <Genealogy>  (39) 
Cc1cc(C)c(S(=O)(=O)[N-]c2ccc(N3CCOCC3)c3ccccc23)c(C)c1 (protonated)
Cc1cc(C)c(S(=O)(=O)[N-]c2ccc(N3CCOCC3)c3ccccc23)c(C)c1 (3D coordinates assigned)
Cc1cc(C)c(S(=O)(=O)[N-]c2ccc(N3CCOCC3)c3ccccc23)c(C)c1 (nonaromatic ring conformer: 81.6565142359221 kcal/mol)

>  <smiles>  (39) 
Cc1cc(C)c(S(=O)(=O)Nc2ccc(N3CCOCC3)c3ccccc23)c(C)c1

>  <score_type>  (39) 
oracle

>  <origin>  (39) 
adgpu

>  <m_score__min__energy>  (39) 
-10.66

>  <m_primary>  (39) 
energy

$$$$
39:0
     RDKit          3D

 72 76  0  0  0  0  0  0  0  0999 V2000
   -4.8430   18.9760  -34.2130 O   0  0  0  0  0  0  0  0  0  0  0  0
   -4.5350   19.8530  -33.3620 C   0  0  0  0  0  0  0  0  0  0  0  0
   -5.5690   20.8040  -32.9010 C   0  0  0  0  0  0  0  0  0  0  0  0
   -6.8790   20.3650  -32.6540 C   0  0  0  0  0  0  0  0  0  0  0  0
   -7.8600   21.2670  -32.2370 C   0  0  0  0  0  0  0  0  0  0  0  0
   -7.5460   22.6150  -32.0450 C   0  0  0  0  0  0  0  0  0  0  0  0
   -8.5740   23.4950  -31.7080 O   0  0  0  0  0  0  0  0  0  0  0  0
   -6.2150   23.0520  -32.2220 C   0  0  0  0  0  0  0  0  0  0  0  0
   -5.8310   24.4090  -31.9760 N   0  0  0  0  0  0  0  0  0  0  0  0
   -5.6470   25.0480  -30.3720 S   0  0  0  0  0  0  0  0  0  0  0  0
   -6.9270   24.8720  -29.6040 O   0  0  0  0  0  0  0  0  0  0  0  0
   -5.3220   26.5130  -30.4710 O   0  0  0  0  0  0  0  0  0  0  0  0
   -4.3570   24.2110  -29.5200 C   0  0  0  0  0  0  0  0  0  0  0  0
   -3.3090   23.6340  -30.2480 C   0  0  0  0  0  0  0  0  0  0  0  0
   -2.2650   22.9820  -29.5850 C   0  0  0  0  0  0  0  0  0  0  0  0
   -2.2640   22.8990  -28.1850 C   0  0  0  0  0  0  0  0  0  0  0  0
   -0.9410   22.1100  -27.3310 S   0  0  0  0  0  0  0  0  0  0  0  0
   -0.6970   22.7900  -26.0110 O   0  0  0  0  0  0  0  0  0  0  0  0
    0.3070   22.2100  -28.1650 O   0  0  0  0  0  0  0  0  0  0  0  0
   -1.3480   20.4320  -27.0830 N   0  0  0  0  0  0  0  0  0  0  0  0
   -1.6760   20.1650  -25.6830 C   0  0  0  0  0  0  0  0  0  0  0  0
   -2.5990   18.9580  -25.6810 C   0  0  0  0  0  0  0  0  0  0  0  0
   -3.1770   18.8950  -27.0890 C   0  0  0  0  0  0  0  0  0  0  0  0
   -2.5460   20.0580  -27.8360 C   0  0  0  0  0  0  0  0  0  0  0  0
   -3.3100   23.4770  -27.4560 C   0  0  0  0  0  0  0  0  0  0  0  0
   -4.3540   24.1300  -28.1190 C   0  0  0  0  0  0  0  0  0  0  0  0
   -5.2420   22.1480  -32.6680 C   0  0  0  0  0  0  0  0  0  0  0  0
   -3.1870   19.9130  -32.8600 N   0  0  0  0  0  0  0  0  0  0  0  0
   -2.0770   19.4980  -33.7260 C   0  0  0  0  0  0  0  0  0  0  0  0
   -0.8150   20.3160  -33.4180 C   0  0  0  0  0  0  0  0  0  0  0  0
   -0.5090   20.4630  -31.8970 C   0  0  0  0  0  0  0  0  0  0  0  0
    0.9360   20.0130  -31.5840 C   0  0  0  0  0  0  0  0  0  0  0  0
    1.0010   19.0800  -30.4010 C   0  0  0  0  0  0  0  0  0  0  0  0
    1.1450   19.5930  -29.1020 C   0  0  0  0  0  0  0  0  0  0  0  0
    1.1720   18.7310  -28.0030 C   0  0  0  0  0  0  0  0  0  0  0  0
    1.0500   17.3520  -28.1920 C   0  0  0  0  0  0  0  0  0  0  0  0
    0.9020   16.8340  -29.4800 C   0  0  0  0  0  0  0  0  0  0  0  0
    0.8770   17.6920  -30.5820 C   0  0  0  0  0  0  0  0  0  0  0  0
   -1.5330   19.7150  -31.0170 C   0  0  0  0  0  0  0  0  0  0  0  0
   -2.9650   20.0850  -31.4150 C   0  0  0  0  0  0  0  0  0  0  0  0
   -7.1345   19.3037  -32.7898 H   0  0  0  0  0  0  0  0  0  0  0  0
   -8.8865   20.9142  -32.0585 H   0  0  0  0  0  0  0  0  0  0  0  0
   -8.4130   24.3420  -31.1810 H   0  0  0  0  0  0  0  0  0  0  0  0
   -3.3072   23.6940  -31.3464 H   0  0  0  0  0  0  0  0  0  0  0  0
   -1.4431   22.5334  -30.1623 H   0  0  0  0  0  0  0  0  0  0  0  0
   -0.7611   19.9452  -25.1132 H   0  0  0  0  0  0  0  0  0  0  0  0
   -2.1571   21.0356  -25.2132 H   0  0  0  0  0  0  0  0  0  0  0  0
   -2.0348   18.0413  -25.4542 H   0  0  0  0  0  0  0  0  0  0  0  0
   -3.3858   19.0433  -24.9170 H   0  0  0  0  0  0  0  0  0  0  0  0
   -2.9154   17.9411  -27.5702 H   0  0  0  0  0  0  0  0  0  0  0  0
   -4.2751   18.9593  -27.0839 H   0  0  0  0  0  0  0  0  0  0  0  0
   -2.2735   19.7515  -28.8567 H   0  0  0  0  0  0  0  0  0  0  0  0
   -3.2443   20.9038  -27.9199 H   0  0  0  0  0  0  0  0  0  0  0  0
   -3.3108   23.4174  -26.3576 H   0  0  0  0  0  0  0  0  0  0  0  0
   -5.1743   24.5809  -27.5413 H   0  0  0  0  0  0  0  0  0  0  0  0
   -4.2121   22.4954  -32.8370 H   0  0  0  0  0  0  0  0  0  0  0  0
   -1.8664   18.4316  -33.5574 H   0  0  0  0  0  0  0  0  0  0  0  0
   -2.3627   19.6689  -34.7744 H   0  0  0  0  0  0  0  0  0  0  0  0
    0.0429   19.8215  -33.8970 H   0  0  0  0  0  0  0  0  0  0  0  0
   -0.9911   21.3301  -33.8061 H   0  0  0  0  0  0  0  0  0  0  0  0
   -0.6013   21.5304  -31.6476 H   0  0  0  0  0  0  0  0  0  0  0  0
    1.3443   19.4962  -32.4650 H   0  0  0  0  0  0  0  0  0  0  0  0
    1.5222   20.9106  -31.3375 H   0  0  0  0  0  0  0  0  0  0  0  0
    1.2370   20.6784  -28.9490 H   0  0  0  0  0  0  0  0  0  0  0  0
    1.2894   19.1383  -26.9879 H   0  0  0  0  0  0  0  0  0  0  0  0
    1.0706   16.6743  -27.3258 H   0  0  0  0  0  0  0  0  0  0  0  0
    0.8049   15.7482  -29.6273 H   0  0  0  0  0  0  0  0  0  0  0  0
    0.7598   17.2797  -31.5951 H   0  0  0  0  0  0  0  0  0  0  0  0
   -1.3925   18.6312  -31.1422 H   0  0  0  0  0  0  0  0  0  0  0  0
   -1.3731   20.0031  -29.9675 H   0  0  0  0  0  0  0  0  0  0  0  0
   -3.6663   19.4388  -30.8666 H   0  0  0  0  0  0  0  0  0  0  0  0
   -3.1291   21.1436  -31.1651 H   0  0  0  0  0  0  0  0  0  0  0  0
  1  2  2  0
  2  3  1  0
  3  4  2  0
  4  5  1  0
  5  6  2  0
  6  7  1  0
  6  8  1  0
  8  9  1  0
  9 10  1  0
 10 11  2  0
 10 12  2  0
 10 13  1  0
 13 14  2  0
 14 15  1  0
 15 16  2  0
 16 17  1  0
 17 18  2  0
 17 19  2  0
 17 20  1  0
 20 21  1  0
 21 22  1  0
 22 23  1  0
 23 24  1  0
 16 25  1  0
 25 26  2  0
  8 27  2  0
  2 28  1  0
 28 29  1  0
 29 30  1  0
 30 31  1  0
 31 32  1  0
 32 33  1  0
 33 34  2  0
 34 35  1  0
 35 36  2  0
 36 37  1  0
 37 38  2  0
 31 39  1  0
 39 40  1  0
 27  3  1  0
 40 28  1  0
 26 13  1  0
 38 33  1  0
 24 20  1  0
  4 41  1  0
  5 42  1  0
  7 43  1  0
 14 44  1  0
 15 45  1  0
 21 46  1  0
 21 47  1  0
 22 48  1  0
 22 49  1  0
 23 50  1  0
 23 51  1  0
 24 52  1  0
 24 53  1  0
 25 54  1  0
 26 55  1  0
 27 56  1  0
 29 57  1  0
 29 58  1  0
 30 59  1  0
 30 60  1  0
 31 61  1  0
 32 62  1  0
 32 63  1  0
 34 64  1  0
 35 65  1  0
 36 66  1  0
 37 67  1  0
 38 68  1  0
 39 69  1  0
 39 70  1  0
 40 71  1  0
 40 72  1  0
M  CHG  1   9  -1
M  END
>  <UniqueID>  (40) 
40

>  <SMILES>  (40) 
O=C(c1ccc(O)c([N-]S(=O)(=O)c2ccc(S(=O)(=O)N3CCCC3)cc2)c1)N1CCC(Cc2ccccc2)CC1

>  <Energy>  (40) 
92.46107627116986

>  <Genealogy>  (40) 
O=C(c1ccc(O)c([N-]S(=O)(=O)c2ccc(S(=O)(=O)N3CCCC3)cc2)c1)N1CCC(Cc2ccccc2)CC1 (protonated)
O=C(c1ccc(O)c([N-]S(=O)(=O)c2ccc(S(=O)(=O)N3CCCC3)cc2)c1)N1CCC(Cc2ccccc2)CC1 (3D coordinates assigned)
O=C(c1ccc(O)c([N-]S(=O)(=O)c2ccc(S(=O)(=O)N3CCCC3)cc2)c1)N1CCC(Cc2ccccc2)CC1 (nonaromatic ring conformer: 92.46107627116986 kcal/mol)

>  <smiles>  (40) 
O=C(c1ccc(O)c(NS(=O)(=O)c2ccc(S(=O)(=O)N3CCCC3)cc2)c1)N1CCC(Cc2ccccc2)CC1

>  <score_type>  (40) 
oracle

>  <origin>  (40) 
adgpu

>  <m_score__min__energy>  (40) 
-12.49

>  <m_primary>  (40) 
energy

$$$$
40:0
     RDKit          3D

 31 32  0  0  0  0  0  0  0  0999 V2000
   -0.2310   21.6310  -27.7950 C   0  0  0  0  0  0  0  0  0  0  0  0
   -1.4110   22.3680  -28.3580 C   0  0  0  0  0  0  0  0  0  0  0  0
   -2.2490   23.0970  -27.5100 C   0  0  0  0  0  0  0  0  0  0  0  0
   -3.3680   23.7640  -28.0280 C   0  0  0  0  0  0  0  0  0  0  0  0
   -4.2400   24.5490  -27.0820 C   0  0  0  0  0  0  0  0  0  0  0  0
   -3.6630   23.6520  -29.4090 C   0  0  0  0  0  0  0  0  0  0  0  0
   -5.0820   24.4650  -30.1180 S   0  0  0  0  0  0  0  0  0  0  0  0
   -4.6260   25.3830  -31.2180 O   0  0  0  0  0  0  0  0  0  0  0  0
   -5.8060   25.2950  -29.0950 O   0  0  0  0  0  0  0  0  0  0  0  0
   -6.1950   23.2550  -30.7470 C   0  0  0  0  0  0  0  0  0  0  0  0
   -7.3300   22.8990  -30.0040 C   0  0  0  0  0  0  0  0  0  0  0  0
   -8.2160   21.9350  -30.4920 C   0  0  0  0  0  0  0  0  0  0  0  0
   -7.9760   21.3230  -31.7270 C   0  0  0  0  0  0  0  0  0  0  0  0
   -9.0890   20.1120  -32.3380 Cl  0  0  0  0  0  0  0  0  0  0  0  0
   -6.8480   21.6770  -32.4730 C   0  0  0  0  0  0  0  0  0  0  0  0
   -5.9600   22.6420  -31.9860 C   0  0  0  0  0  0  0  0  0  0  0  0
   -2.7870   22.9020  -30.2250 C   0  0  0  0  0  0  0  0  0  0  0  0
   -2.9950   22.8010  -31.4640 O   0  0  0  0  0  0  0  0  0  0  0  0
   -1.7040   22.2800  -29.6840 N   0  0  0  0  0  0  0  0  0  0  0  0
   -0.2727   21.6570  -26.6961 H   0  0  0  0  0  0  0  0  0  0  0  0
   -0.2535   20.5861  -28.1381 H   0  0  0  0  0  0  0  0  0  0  0  0
    0.6980   22.1097  -28.1381 H   0  0  0  0  0  0  0  0  0  0  0  0
   -2.0301   23.1476  -26.4332 H   0  0  0  0  0  0  0  0  0  0  0  0
   -3.9683   24.3044  -26.0445 H   0  0  0  0  0  0  0  0  0  0  0  0
   -4.0931   25.6253  -27.2555 H   0  0  0  0  0  0  0  0  0  0  0  0
   -5.2950   24.2902  -27.2555 H   0  0  0  0  0  0  0  0  0  0  0  0
   -7.5233   23.3802  -29.0339 H   0  0  0  0  0  0  0  0  0  0  0  0
   -9.1033   21.6569  -29.9044 H   0  0  0  0  0  0  0  0  0  0  0  0
   -6.6585   21.1962  -33.4440 H   0  0  0  0  0  0  0  0  0  0  0  0
   -5.0749   22.9207  -32.5767 H   0  0  0  0  0  0  0  0  0  0  0  0
   -1.0810   21.7200  -30.3100 H   0  0  0  0  0  0  0  0  0  0  0  0
  1  2  1  0
  2  3  2  0
  3  4  1  0
  4  5  1  0
  4  6  2  0
  6  7  1  0
  7  8  2  0
  7  9  2  0
  7 10  1  0
 10 11  2  0
 11 12  1  0
 12 13  2  0
 13 14  1  0
 13 15  1  0
 15 16  2  0
  6 17  1  0
 17 18  2  0
 17 19  1  0
 19  2  1  0
 16 10  1  0
  1 20  1  0
  1 21  1  0
  1 22  1  0
  3 23  1  0
  5 24  1  0
  5 25  1  0
  5 26  1  0
 11 27  1  0
 12 28  1  0
 15 29  1  0
 16 30  1  0
 19 31  1  0
M  END
>  <UniqueID>  (41) 
41

>  <SMILES>  (41) 
Cc1cc(C)c(S(=O)(=O)c2ccc(Cl)cc2)c(=O)[nH]1

>  <Energy>  (41) 
36.02328047453777

>  <Genealogy>  (41) 
Cc1cc(C)c(S(=O)(=O)c2ccc(Cl)cc2)c(=O)[nH]1 (3D coordinates assigned)
Cc1cc(C)c(S(=O)(=O)c2ccc(Cl)cc2)c(=O)[nH]1 (optimized conformer: 36.02328047453777 kcal/mol)

>  <smiles>  (41) 
Cc1cc(C)c(S(=O)(=O)c2ccc(Cl)cc2)c(=O)[nH]1

>  <score_type>  (41) 
oracle

>  <origin>  (41) 
adgpu

>  <m_score__min__energy>  (41) 
-7.5999999999999996

>  <m_primary>  (41) 
energy

$$$$
41:0
     RDKit          3D

 62 65  0  0  0  0  0  0  0  0999 V2000
   -7.7290   23.0680  -31.8720 C   0  0  0  0  0  0  0  0  0  0  0  0
   -7.5500   21.6230  -32.1350 N   0  0  0  0  0  0  0  0  0  0  0  0
   -8.6140   20.7710  -31.9960 C   0  0  0  0  0  0  0  0  0  0  0  0
   -9.7470   21.2070  -31.6450 O   0  0  0  0  0  0  0  0  0  0  0  0
   -8.4690   19.4020  -32.2400 C   0  0  0  0  0  0  0  0  0  0  0  0
   -9.4740   18.6500  -32.0920 O   0  0  0  0  0  0  0  0  0  0  0  0
   -7.2610   18.8880  -32.6340 N   0  0  0  0  0  0  0  0  0  0  0  0
   -7.1320   17.4370  -32.8850 C   0  0  0  0  0  0  0  0  0  0  0  0
   -6.1780   19.7300  -32.7890 C   0  0  0  0  0  0  0  0  0  0  0  0
   -4.9130   19.2410  -33.2050 C   0  0  0  0  0  0  0  0  0  0  0  0
   -3.8130   20.0950  -33.3390 C   0  0  0  0  0  0  0  0  0  0  0  0
   -2.2420   19.4650  -33.8450 S   0  0  0  0  0  0  0  0  0  0  0  0
   -2.4500   18.1680  -34.5790 O   0  0  0  0  0  0  0  0  0  0  0  0
   -1.5890   20.4340  -34.7940 O   0  0  0  0  0  0  0  0  0  0  0  0
   -1.1850   19.1940  -32.4820 N   0  0  0  0  0  0  0  0  0  0  0  0
    0.1320   19.7890  -32.7170 C   0  0  0  0  0  0  0  0  0  0  0  0
    0.9150   19.8140  -31.3980 C   0  0  0  0  0  0  0  0  0  0  0  0
    0.6540   18.6370  -30.5250 N   0  0  0  0  0  0  0  0  0  0  0  0
   -0.1300   18.9950  -29.3550 C   0  0  0  0  0  0  0  0  0  0  0  0
   -0.4390   18.1020  -28.5220 O   0  0  0  0  0  0  0  0  0  0  0  0
   -0.5390   20.3800  -29.0620 C   0  0  0  0  0  0  0  0  0  0  0  0
    0.1520   21.1360  -28.1120 C   0  0  0  0  0  0  0  0  0  0  0  0
   -0.2170   22.4570  -27.8650 C   0  0  0  0  0  0  0  0  0  0  0  0
   -1.3190   23.0320  -28.5220 C   0  0  0  0  0  0  0  0  0  0  0  0
   -1.6810   24.7440  -28.2320 S   0  0  0  0  0  0  0  0  0  0  0  0
   -2.5710   24.9360  -26.7010 C   0  0  0  0  0  0  0  0  0  0  0  0
   -2.5510   25.2720  -29.3370 O   0  0  0  0  0  0  0  0  0  0  0  0
   -0.4030   25.5380  -28.2130 O   0  0  0  0  0  0  0  0  0  0  0  0
   -2.0820   22.2360  -29.4150 C   0  0  0  0  0  0  0  0  0  0  0  0
   -3.2700   22.7300  -30.0530 N   0  0  0  0  0  0  0  0  0  0  0  0
   -3.1820   23.4870  -31.0410 O   0  0  0  0  0  0  0  0  0  0  0  0
   -4.4940   22.5540  -29.4500 O   0  0  0  0  0  0  0  0  0  0  0  0
   -1.6680   20.9210  -29.6890 C   0  0  0  0  0  0  0  0  0  0  0  0
    0.1310   17.4480  -31.2470 C   0  0  0  0  0  0  0  0  0  0  0  0
   -1.0570   17.7560  -32.1950 C   0  0  0  0  0  0  0  0  0  0  0  0
   -3.9600   21.4520  -33.0610 C   0  0  0  0  0  0  0  0  0  0  0  0
   -5.1950   21.9640  -32.6670 C   0  0  0  0  0  0  0  0  0  0  0  0
   -6.3240   21.1230  -32.5250 C   0  0  0  0  0  0  0  0  0  0  0  0
   -7.7507   23.2431  -30.7862 H   0  0  0  0  0  0  0  0  0  0  0  0
   -6.8934   23.6280  -32.3171 H   0  0  0  0  0  0  0  0  0  0  0  0
   -8.6760   23.4072  -32.3171 H   0  0  0  0  0  0  0  0  0  0  0  0
   -7.0844   16.9017  -31.9252 H   0  0  0  0  0  0  0  0  0  0  0  0
   -8.0024   17.0852  -33.4583 H   0  0  0  0  0  0  0  0  0  0  0  0
   -6.2132   17.2443  -33.4583 H   0  0  0  0  0  0  0  0  0  0  0  0
   -4.7947   18.1700  -33.4264 H   0  0  0  0  0  0  0  0  0  0  0  0
    0.6798   19.1896  -33.4591 H   0  0  0  0  0  0  0  0  0  0  0  0
    0.0126   20.8146  -33.0962 H   0  0  0  0  0  0  0  0  0  0  0  0
    1.9894   19.8411  -31.6324 H   0  0  0  0  0  0  0  0  0  0  0  0
    0.5837   20.7048  -30.8442 H   0  0  0  0  0  0  0  0  0  0  0  0
    1.5860   18.3370  -30.1510 H   0  0  0  0  0  0  0  0  0  0  0  0
    0.9895   20.6875  -27.5575 H   0  0  0  0  0  0  0  0  0  0  0  0
    0.3611   23.0573  -27.1471 H   0  0  0  0  0  0  0  0  0  0  0  0
   -1.8829   24.7875  -25.8558 H   0  0  0  0  0  0  0  0  0  0  0  0
   -3.0005   25.9475  -26.6509 H   0  0  0  0  0  0  0  0  0  0  0  0
   -3.3793   24.1916  -26.6509 H   0  0  0  0  0  0  0  0  0  0  0  0
   -2.2377   20.3097  -30.4044 H   0  0  0  0  0  0  0  0  0  0  0  0
    0.9486   17.0197  -31.8454 H   0  0  0  0  0  0  0  0  0  0  0  0
   -0.2449   16.7521  -30.4825 H   0  0  0  0  0  0  0  0  0  0  0  0
   -0.9020   17.2187  -33.1423 H   0  0  0  0  0  0  0  0  0  0  0  0
   -1.9803   17.4295  -31.6941 H   0  0  0  0  0  0  0  0  0  0  0  0
   -3.0946   22.1248  -33.1531 H   0  0  0  0  0  0  0  0  0  0  0  0
   -5.2937   23.0404  -32.4629 H   0  0  0  0  0  0  0  0  0  0  0  0
  1  2  1  0
  2  3  1  0
  3  4  2  0
  3  5  1  0
  5  6  2  0
  5  7  1  0
  7  8  1  0
  7  9  1  0
  9 10  2  0
 10 11  1  0
 11 12  1  0
 12 13  2  0
 12 14  2  0
 12 15  1  0
 15 16  1  0
 16 17  1  0
 17 18  1  0
 18 19  1  0
 19 20  2  0
 19 21  1  0
 21 22  2  0
 22 23  1  0
 23 24  2  0
 24 25  1  0
 25 26  1  0
 25 27  2  0
 25 28  2  0
 24 29  1  0
 29 30  1  0
 30 31  2  0
 30 32  1  0
 29 33  2  0
 18 34  1  0
 34 35  1  0
 11 36  2  0
 36 37  1  0
 37 38  2  0
 38  2  1  0
 38  9  1  0
 35 15  1  0
 33 21  1  0
  1 39  1  0
  1 40  1  0
  1 41  1  0
  8 42  1  0
  8 43  1  0
  8 44  1  0
 10 45  1  0
 16 46  1  0
 16 47  1  0
 17 48  1  0
 17 49  1  0
 18 50  1  0
 22 51  1  0
 23 52  1  0
 26 53  1  0
 26 54  1  0
 26 55  1  0
 33 56  1  0
 34 57  1  0
 34 58  1  0
 35 59  1  0
 35 60  1  0
 36 61  1  0
 37 62  1  0
M  CHG  3  18   1  30   1  32  -1
M  END
>  <UniqueID>  (42) 
42

>  <SMILES>  (42) 
Cn1c(=O)c(=O)n(C)c2cc(S(=O)(=O)N3CC[NH+](C(=O)c4ccc(S(C)(=O)=O)c([N+](=O)[O-])c4)CC3)ccc21

>  <Energy>  (42) 
106.12165806722439

>  <Genealogy>  (42) 
Cn1c(=O)c(=O)n(C)c2cc(S(=O)(=O)N3CC[NH+](C(=O)c4ccc(S(C)(=O)=O)c([N+](=O)[O-])c4)CC3)ccc21 (protonated)
Cn1c(=O)c(=O)n(C)c2cc(S(=O)(=O)N3CC[NH+](C(=O)c4ccc(S(C)(=O)=O)c([N+](=O)[O-])c4)CC3)ccc21 (3D coordinates assigned)
Cn1c(=O)c(=O)n(C)c2cc(S(=O)(=O)N3CC[NH+](C(=O)c4ccc(S(C)(=O)=O)c([N+](=O)[O-])c4)CC3)ccc21 (nonaromatic ring conformer: 106.12165806722439 kcal/mol)

>  <smiles>  (42) 
Cn1c(=O)c(=O)n(C)c2cc(S(=O)(=O)N3CCN(C(=O)c4ccc(S(C)(=O)=O)c([N+](=O)[O-])c4)CC3)ccc21

>  <score_type>  (42) 
oracle

>  <origin>  (42) 
adgpu

>  <m_score__min__energy>  (42) 
-10.9

>  <m_primary>  (42) 
energy

$$$$
42:0
     RDKit          3D

 45 48  0  0  0  0  0  0  0  0999 V2000
    0.9484   17.9582  -33.4260 H   0  0  0  0  0  0  0  0  0  0  0  0
   -0.1440   18.0210  -33.5390 C   0  0  0  0  0  0  0  0  0  0  0  0
   -0.9310   17.0030  -33.1030 N   0  0  0  0  0  0  0  0  0  0  0  0
   -2.2890   17.0420  -33.2150 C   0  0  0  0  0  0  0  0  0  0  0  0
   -3.0700   15.9670  -32.7750 O   0  0  0  0  0  0  0  0  0  0  0  0
   -3.0470   14.6900  -33.4020 C   0  0  0  0  0  0  0  0  0  0  0  0
   -3.0328   13.9040  -32.6326 H   0  0  0  0  0  0  0  0  0  0  0  0
   -3.9432   14.5732  -34.0291 H   0  0  0  0  0  0  0  0  0  0  0  0
   -2.1472   14.6056  -34.0291 H   0  0  0  0  0  0  0  0  0  0  0  0
   -2.9090   18.1650  -33.7900 C   0  0  0  0  0  0  0  0  0  0  0  0
   -4.3410   18.2320  -33.9200 N   0  0  0  0  0  0  0  0  0  0  0  0
   -5.1250   19.2500  -33.2560 C   0  0  0  0  0  0  0  0  0  0  0  0
   -4.5400   20.4050  -32.7050 C   0  0  0  0  0  0  0  0  0  0  0  0
   -3.4497   20.5430  -32.7528 H   0  0  0  0  0  0  0  0  0  0  0  0
   -5.3390   21.3780  -32.0970 C   0  0  0  0  0  0  0  0  0  0  0  0
   -4.8731   22.2719  -31.6566 H   0  0  0  0  0  0  0  0  0  0  0  0
   -6.7300   21.2200  -32.0460 C   0  0  0  0  0  0  0  0  0  0  0  0
   -7.7210   22.4490  -31.2690 S   0  0  0  0  0  0  0  0  0  0  0  0
   -7.9610   22.0800  -29.8310 O   0  0  0  0  0  0  0  0  0  0  0  0
   -9.0400   22.5440  -31.9850 O   0  0  0  0  0  0  0  0  0  0  0  0
   -6.8900   23.9690  -31.3530 N   0  0  0  0  0  0  0  0  0  0  0  0
   -5.7540   24.2120  -30.7730 C   0  0  0  0  0  0  0  0  0  0  0  0
   -4.9360   25.6560  -30.8350 S   0  0  0  0  0  0  0  0  0  0  0  0
   -3.6110   25.2650  -29.9100 N   0  0  0  0  0  0  0  0  0  0  0  0
   -3.8040   23.9710  -29.5310 C   0  0  0  0  0  0  0  0  0  0  0  0
   -2.8010   23.2450  -28.6970 C   0  0  0  0  0  0  0  0  0  0  0  0
   -3.0240   23.4064  -27.6320 H   0  0  0  0  0  0  0  0  0  0  0  0
   -2.8466   22.1693  -28.9222 H   0  0  0  0  0  0  0  0  0  0  0  0
   -1.7934   23.6244  -28.9222 H   0  0  0  0  0  0  0  0  0  0  0  0
   -4.9850   23.3520  -29.9990 C   0  0  0  0  0  0  0  0  0  0  0  0
   -5.2629   22.3112  -29.7765 H   0  0  0  0  0  0  0  0  0  0  0  0
   -7.3190   20.0750  -32.6010 C   0  0  0  0  0  0  0  0  0  0  0  0
   -8.4110   19.9475  -32.5650 H   0  0  0  0  0  0  0  0  0  0  0  0
   -6.5220   19.0950  -33.2000 C   0  0  0  0  0  0  0  0  0  0  0  0
   -7.1170   17.9610  -33.7650 O   0  0  0  0  0  0  0  0  0  0  0  0
   -6.3440   16.8340  -34.1770 C   0  0  0  0  0  0  0  0  0  0  0  0
   -6.9182   16.2500  -34.9113 H   0  0  0  0  0  0  0  0  0  0  0  0
   -6.1173   16.2163  -33.2955 H   0  0  0  0  0  0  0  0  0  0  0  0
   -5.0280   17.2910  -34.8140 C   0  0  0  0  0  0  0  0  0  0  0  0
   -5.2396   17.7870  -35.7728 H   0  0  0  0  0  0  0  0  0  0  0  0
   -4.3838   16.4155  -34.9829 H   0  0  0  0  0  0  0  0  0  0  0  0
   -2.1070   19.2150  -34.2590 C   0  0  0  0  0  0  0  0  0  0  0  0
   -2.5721   20.0940  -34.7291 H   0  0  0  0  0  0  0  0  0  0  0  0
   -0.7200   19.1460  -34.1300 C   0  0  0  0  0  0  0  0  0  0  0  0
   -0.0867   19.9700  -34.4905 H   0  0  0  0  0  0  0  0  0  0  0  0
  1  2  1  0
  2  3  2  0
  3  4  1  0
  4  5  1  0
  5  6  1  0
  6  7  1  0
  6  8  1  0
  6  9  1  0
  4 10  2  0
 10 11  1  0
 11 12  1  0
 12 13  2  0
 13 14  1  0
 13 15  1  0
 15 16  1  0
 15 17  2  0
 17 18  1  0
 18 19  2  0
 18 20  2  0
 18 21  1  0
 21 22  2  0
 22 23  1  0
 23 24  1  0
 24 25  1  0
 25 26  1  0
 26 27  1  0
 26 28  1  0
 26 29  1  0
 25 30  2  0
 30 31  1  0
 17 32  1  0
 32 33  1  0
 32 34  2  0
 34 35  1  0
 35 36  1  0
 36 37  1  0
 36 38  1  0
 36 39  1  0
 39 40  1  0
 39 41  1  0
 10 42  1  0
 42 43  1  0
 42 44  2  0
 44 45  1  0
 44  2  1  0
 39 11  1  0
 34 12  1  0
 30 22  1  0
M  CHG  1  24  -1
M  END
>  <UniqueID>  (43) 
43

>  <SMILES>  (43) 
COc1ncccc1N1CCOc2cc(S(=O)(=O)/N=c3\cc(C)[n-]s3)ccc21

>  <Energy>  (43) 
91.10407874250899

>  <Genealogy>  (43) 
COc1ncccc1N1CCOc2cc(S(=O)(=O)N=c3cc(C)[n-]s3)ccc21 (protonated)
COc1ncccc1N1CCOc2cc(S(=O)(=O)/N=c3\cc(C)[n-]s3)ccc21 (cis-trans isomerization)
COc1ncccc1N1CCOc2cc(S(=O)(=O)/N=c3\cc(C)[n-]s3)ccc21 (3D coordinates assigned)
COc1ncccc1N1CCOc2cc(S(=O)(=O)/N=c3\cc(C)[n-]s3)ccc21 (nonaromatic ring conformer: 91.10407874250899 kcal/mol)

>  <smiles>  (43) 
COc1ncccc1N1CCOc2cc(S(=O)(=O)N=c3cc(C)[nH]s3)ccc21

>  <score_type>  (43) 
oracle

>  <origin>  (43) 
adgpu

>  <m_score__min__energy>  (43) 
-9.5700000000000003

>  <m_primary>  (43) 
energy

$$$$
43:0
     RDKit          3D

 53 57  0  0  0  0  0  0  0  0999 V2000
   -1.2010   23.8740  -29.6130 O   0  0  0  0  0  0  0  0  0  0  0  0
   -2.5480   23.5540  -29.7490 C   0  0  0  0  0  0  0  0  0  0  0  0
   -3.5030   24.5660  -29.6180 C   0  0  0  0  0  0  0  0  0  0  0  0
   -4.8630   24.2760  -29.7540 C   0  0  0  0  0  0  0  0  0  0  0  0
   -5.2740   22.9680  -30.0230 C   0  0  0  0  0  0  0  0  0  0  0  0
   -7.1330   22.5710  -30.2130 Br  0  0  0  0  0  0  0  0  0  0  0  0
   -4.3250   21.9500  -30.1550 C   0  0  0  0  0  0  0  0  0  0  0  0
   -2.9550   22.2290  -30.0140 C   0  0  0  0  0  0  0  0  0  0  0  0
   -1.9490   21.1030  -30.1540 C   0  0  0  0  0  0  0  0  0  0  0  0
   -1.1940   21.1810  -31.4330 N   0  0  0  0  0  0  0  0  0  0  0  0
   -1.9510   21.9040  -32.4960 C   0  0  0  0  0  0  0  0  0  0  0  0
   -2.7150   20.9780  -33.4670 C   0  0  0  0  0  0  0  0  0  0  0  0
   -3.0390   19.7060  -32.8180 N   0  0  0  0  0  0  0  0  0  0  0  0
   -4.3870   19.2010  -32.7900 C   0  0  0  0  0  0  0  0  0  0  0  0
   -5.3620   19.9930  -32.4100 N   0  0  0  0  0  0  0  0  0  0  0  0
   -6.7620   19.6510  -32.4070 C   0  0  0  0  0  0  0  0  0  0  0  0
   -7.6790   20.5170  -33.0200 C   0  0  0  0  0  0  0  0  0  0  0  0
   -9.0400   20.2000  -33.0480 C   0  0  0  0  0  0  0  0  0  0  0  0
   -9.4990   19.0220  -32.4540 C   0  0  0  0  0  0  0  0  0  0  0  0
   -8.5970   18.1660  -31.8150 C   0  0  0  0  0  0  0  0  0  0  0  0
   -7.2360   18.4870  -31.7690 C   0  0  0  0  0  0  0  0  0  0  0  0
   -6.0990   17.4120  -30.9060 S   0  0  0  0  0  0  0  0  0  0  0  0
   -5.3950   16.8980  -32.4680 C   0  0  0  0  0  0  0  0  0  0  0  0
   -5.6320   15.6010  -32.9370 C   0  0  0  0  0  0  0  0  0  0  0  0
   -5.0720   15.1790  -34.1450 C   0  0  0  0  0  0  0  0  0  0  0  0
   -4.2780   16.0520  -34.8900 C   0  0  0  0  0  0  0  0  0  0  0  0
   -4.0530   17.3550  -34.4370 C   0  0  0  0  0  0  0  0  0  0  0  0
   -4.6220   17.7980  -33.2300 C   0  0  0  0  0  0  0  0  0  0  0  0
   -1.9560   18.9280  -32.2110 C   0  0  0  0  0  0  0  0  0  0  0  0
   -0.7590   19.8370  -31.8830 C   0  0  0  0  0  0  0  0  0  0  0  0
   -3.1821   25.5967  -29.4066 H   0  0  0  0  0  0  0  0  0  0  0  0
   -5.6097   25.0770  -29.6494 H   0  0  0  0  0  0  0  0  0  0  0  0
   -4.6533   20.9226  -30.3709 H   0  0  0  0  0  0  0  0  0  0  0  0
   -1.2364   21.1584  -29.3179 H   0  0  0  0  0  0  0  0  0  0  0  0
   -2.5023   20.1523  -30.1455 H   0  0  0  0  0  0  0  0  0  0  0  0
   -0.3140   21.7210  -31.2530 H   0  0  0  0  0  0  0  0  0  0  0  0
   -2.6787   22.5701  -32.0094 H   0  0  0  0  0  0  0  0  0  0  0  0
   -1.2096   22.4510  -33.0969 H   0  0  0  0  0  0  0  0  0  0  0  0
   -3.6467   21.4719  -33.7799 H   0  0  0  0  0  0  0  0  0  0  0  0
   -2.0783   20.7781  -34.3414 H   0  0  0  0  0  0  0  0  0  0  0  0
   -5.1340   20.9780  -32.1500 H   0  0  0  0  0  0  0  0  0  0  0  0
   -7.3253   21.4508  -33.4813 H   0  0  0  0  0  0  0  0  0  0  0  0
   -9.7516   20.8800  -33.5391 H   0  0  0  0  0  0  0  0  0  0  0  0
  -10.5687   18.7682  -32.4889 H   0  0  0  0  0  0  0  0  0  0  0  0
   -8.9581   17.2381  -31.3474 H   0  0  0  0  0  0  0  0  0  0  0  0
   -6.2606   14.9125  -32.3532 H   0  0  0  0  0  0  0  0  0  0  0  0
   -5.2570   14.1577  -34.5094 H   0  0  0  0  0  0  0  0  0  0  0  0
   -3.8285   15.7141  -35.8354 H   0  0  0  0  0  0  0  0  0  0  0  0
   -3.4265   18.0385  -35.0288 H   0  0  0  0  0  0  0  0  0  0  0  0
   -2.3209   18.4612  -31.2842 H   0  0  0  0  0  0  0  0  0  0  0  0
   -1.6313   18.1544  -32.9224 H   0  0  0  0  0  0  0  0  0  0  0  0
   -0.1653   19.3691  -31.0839 H   0  0  0  0  0  0  0  0  0  0  0  0
   -0.1626   19.9601  -32.7991 H   0  0  0  0  0  0  0  0  0  0  0  0
  1  2  1  0
  2  3  2  0
  3  4  1  0
  4  5  2  0
  5  6  1  0
  5  7  1  0
  7  8  2  0
  8  9  1  0
  9 10  1  0
 10 11  1  0
 11 12  1  0
 12 13  1  0
 13 14  1  0
 14 15  2  0
 15 16  1  0
 16 17  2  0
 17 18  1  0
 18 19  2  0
 19 20  1  0
 20 21  2  0
 21 22  1  0
 22 23  1  0
 23 24  2  0
 24 25  1  0
 25 26  2  0
 26 27  1  0
 27 28  2  0
 13 29  1  0
 29 30  1  0
  8  2  1  0
 30 10  1  0
 28 14  1  0
 21 16  1  0
 28 23  1  0
  3 31  1  0
  4 32  1  0
  7 33  1  0
  9 34  1  0
  9 35  1  0
 10 36  1  0
 11 37  1  0
 11 38  1  0
 12 39  1  0
 12 40  1  0
 15 41  1  0
 17 42  1  0
 18 43  1  0
 19 44  1  0
 20 45  1  0
 24 46  1  0
 25 47  1  0
 26 48  1  0
 27 49  1  0
 29 50  1  0
 29 51  1  0
 30 52  1  0
 30 53  1  0
M  CHG  3   1  -1  10   1  15   1
M  END
>  <UniqueID>  (44) 
44

>  <SMILES>  (44) 
[O-]c1ccc(Br)cc1C[NH+]1CCN(C2=[NH+]c3ccccc3Sc3ccccc32)CC1

>  <Energy>  (44) 
85.12793169167837

>  <Genealogy>  (44) 
[O-]c1ccc(Br)cc1C[NH+]1CCN(C2=[NH+]c3ccccc3Sc3ccccc32)CC1 (protonated)
[O-]c1ccc(Br)cc1C[NH+]1CCN(C2=[NH+]c3ccccc3Sc3ccccc32)CC1 (3D coordinates assigned)
[O-]c1ccc(Br)cc1C[NH+]1CCN(C2=[NH+]c3ccccc3Sc3ccccc32)CC1 (nonaromatic ring conformer: 85.12793169167837 kcal/mol)

>  <smiles>  (44) 
Oc1ccc(Br)cc1CN1CCN(C2=Nc3ccccc3Sc3ccccc32)CC1

>  <score_type>  (44) 
oracle

>  <origin>  (44) 
adgpu

>  <m_score__min__energy>  (44) 
-8.8300000000000001

>  <m_primary>  (44) 
energy

$$$$
44:0
     RDKit          3D

 63 67  0  0  0  0  0  0  0  0999 V2000
   -4.2540   23.4990  -27.2800 O   0  0  0  0  0  0  0  0  0  0  0  0
   -3.6900   23.9180  -28.3270 C   0  0  0  0  0  0  0  0  0  0  0  0
   -2.2950   24.2690  -28.3080 N   0  0  0  0  0  0  0  0  0  0  0  0
   -1.5210   24.3250  -27.0990 C   0  0  0  0  0  0  0  0  0  0  0  0
   -1.3170   25.5550  -26.4480 C   0  0  0  0  0  0  0  0  0  0  0  0
   -0.5220   25.6290  -25.2970 C   0  0  0  0  0  0  0  0  0  0  0  0
   -0.2480   27.1730  -24.4970 S   0  0  0  0  0  0  0  0  0  0  0  0
    1.2300   27.3880  -24.3400 O   0  0  0  0  0  0  0  0  0  0  0  0
   -0.8810   27.1650  -23.1310 O   0  0  0  0  0  0  0  0  0  0  0  0
   -0.9270   28.4490  -25.4740 N   0  0  0  0  0  0  0  0  0  0  0  0
   -0.7310   29.7590  -24.8500 C   0  0  0  0  0  0  0  0  0  0  0  0
   -0.6280   30.7780  -25.9800 C   0  0  0  0  0  0  0  0  0  0  0  0
   -0.4360   29.9610  -27.2480 C   0  0  0  0  0  0  0  0  0  0  0  0
   -0.2660   28.5290  -26.7760 C   0  0  0  0  0  0  0  0  0  0  0  0
    0.0950   24.4760  -24.8070 C   0  0  0  0  0  0  0  0  0  0  0  0
   -0.0900   23.2540  -25.4510 C   0  0  0  0  0  0  0  0  0  0  0  0
   -0.8950   23.1640  -26.5960 C   0  0  0  0  0  0  0  0  0  0  0  0
   -1.1050   21.8780  -27.2040 N   0  0  0  0  0  0  0  0  0  0  0  0
   -1.5940   20.7550  -26.3940 C   0  0  0  0  0  0  0  0  0  0  0  0
   -2.5980   19.8780  -27.1820 C   0  0  0  0  0  0  0  0  0  0  0  0
   -2.7220   20.2300  -28.5480 O   0  0  0  0  0  0  0  0  0  0  0  0
   -1.4440   20.3910  -29.1290 C   0  0  0  0  0  0  0  0  0  0  0  0
   -0.8310   21.6980  -28.6360 C   0  0  0  0  0  0  0  0  0  0  0  0
   -4.4660   24.0160  -29.5720 C   0  0  0  0  0  0  0  0  0  0  0  0
   -5.6950   23.4380  -29.8090 C   0  0  0  0  0  0  0  0  0  0  0  0
   -5.9970   23.8260  -31.0970 C   0  0  0  0  0  0  0  0  0  0  0  0
   -7.2320   23.4630  -31.8620 C   0  0  0  0  0  0  0  0  0  0  0  0
   -7.3850   21.9690  -31.9420 C   0  0  0  0  0  0  0  0  0  0  0  0
   -6.3560   21.1780  -32.4820 C   0  0  0  0  0  0  0  0  0  0  0  0
   -6.5140   19.7930  -32.5850 C   0  0  0  0  0  0  0  0  0  0  0  0
   -7.7010   19.1910  -32.1600 C   0  0  0  0  0  0  0  0  0  0  0  0
   -8.7330   19.9710  -31.6330 C   0  0  0  0  0  0  0  0  0  0  0  0
   -8.5790   21.3560  -31.5260 C   0  0  0  0  0  0  0  0  0  0  0  0
   -5.0020   24.5840  -31.5920 N   0  0  0  0  0  0  0  0  0  0  0  0
   -4.0670   24.7010  -30.6610 N   0  0  0  0  0  0  0  0  0  0  0  0
   -1.7970   24.3840  -29.2190 H   0  0  0  0  0  0  0  0  0  0  0  0
   -1.7859   26.4669  -26.8462 H   0  0  0  0  0  0  0  0  0  0  0  0
   -1.5853   30.0000  -24.2003 H   0  0  0  0  0  0  0  0  0  0  0  0
    0.1770   29.7671  -24.2291 H   0  0  0  0  0  0  0  0  0  0  0  0
   -1.5492   31.3758  -26.0437 H   0  0  0  0  0  0  0  0  0  0  0  0
    0.2011   31.4829  -25.8194 H   0  0  0  0  0  0  0  0  0  0  0  0
   -1.3165   30.0500  -27.9013 H   0  0  0  0  0  0  0  0  0  0  0  0
    0.4290   30.3067  -27.8331 H   0  0  0  0  0  0  0  0  0  0  0  0
   -0.7376   27.8344  -27.4867 H   0  0  0  0  0  0  0  0  0  0  0  0
    0.7965   28.2533  -26.7045 H   0  0  0  0  0  0  0  0  0  0  0  0
    0.7290   24.5325  -23.9099 H   0  0  0  0  0  0  0  0  0  0  0  0
    0.4001   22.3513  -25.0575 H   0  0  0  0  0  0  0  0  0  0  0  0
   -0.7381   20.1337  -26.0916 H   0  0  0  0  0  0  0  0  0  0  0  0
   -2.1120   21.1652  -25.5146 H   0  0  0  0  0  0  0  0  0  0  0  0
   -2.2635   18.8317  -27.1234 H   0  0  0  0  0  0  0  0  0  0  0  0
   -3.5852   20.0335  -26.7225 H   0  0  0  0  0  0  0  0  0  0  0  0
   -0.7987   19.5490  -28.8381 H   0  0  0  0  0  0  0  0  0  0  0  0
   -1.5362   20.4158  -30.2248 H   0  0  0  0  0  0  0  0  0  0  0  0
    0.2568   21.6729  -28.7975 H   0  0  0  0  0  0  0  0  0  0  0  0
   -1.2742   22.5357  -29.1945 H   0  0  0  0  0  0  0  0  0  0  0  0
   -6.2941   22.8137  -29.1298 H   0  0  0  0  0  0  0  0  0  0  0  0
   -8.1099   23.8897  -31.3548 H   0  0  0  0  0  0  0  0  0  0  0  0
   -7.1486   23.8661  -32.8821 H   0  0  0  0  0  0  0  0  0  0  0  0
   -5.4236   21.6505  -32.8246 H   0  0  0  0  0  0  0  0  0  0  0  0
   -5.7033   19.1767  -33.0009 H   0  0  0  0  0  0  0  0  0  0  0  0
   -7.8231   18.1008  -32.2405 H   0  0  0  0  0  0  0  0  0  0  0  0
   -9.6677   19.4948  -31.3019 H   0  0  0  0  0  0  0  0  0  0  0  0
   -9.3952   21.9682  -31.1148 H   0  0  0  0  0  0  0  0  0  0  0  0
  1  2  2  0
  2  3  1  0
  3  4  1  0
  4  5  2  0
  5  6  1  0
  6  7  1  0
  7  8  2  0
  7  9  2  0
  7 10  1  0
 10 11  1  0
 11 12  1  0
 12 13  1  0
 13 14  1  0
  6 15  2  0
 15 16  1  0
 16 17  2  0
 17 18  1  0
 18 19  1  0
 19 20  1  0
 20 21  1  0
 21 22  1  0
 22 23  1  0
  2 24  1  0
 24 25  1  0
 25 26  2  0
 26 27  1  0
 27 28  1  0
 28 29  2  0
 29 30  1  0
 30 31  2  0
 31 32  1  0
 32 33  2  0
 26 34  1  0
 34 35  1  0
 17  4  1  0
 23 18  1  0
 35 24  2  0
 14 10  1  0
 33 28  1  0
  3 36  1  0
  5 37  1  0
 11 38  1  0
 11 39  1  0
 12 40  1  0
 12 41  1  0
 13 42  1  0
 13 43  1  0
 14 44  1  0
 14 45  1  0
 15 46  1  0
 16 47  1  0
 19 48  1  0
 19 49  1  0
 20 50  1  0
 20 51  1  0
 22 52  1  0
 22 53  1  0
 23 54  1  0
 23 55  1  0
 25 56  1  0
 27 57  1  0
 27 58  1  0
 29 59  1  0
 30 60  1  0
 31 61  1  0
 32 62  1  0
 33 63  1  0
M  CHG  1  34  -1
M  END
>  <UniqueID>  (45) 
45

>  <SMILES>  (45) 
O=C(Nc1cc(S(=O)(=O)N2CCCC2)ccc1N1CCOCC1)c1cc(Cc2ccccc2)[n-]n1

>  <Energy>  (45) 
109.7091875467153

>  <Genealogy>  (45) 
O=C(Nc1cc(S(=O)(=O)N2CCCC2)ccc1N1CCOCC1)c1cc(Cc2ccccc2)[n-]n1 (protonated)
O=C(Nc1cc(S(=O)(=O)N2CCCC2)ccc1N1CCOCC1)c1cc(Cc2ccccc2)[n-]n1 (3D coordinates assigned)
O=C(Nc1cc(S(=O)(=O)N2CCCC2)ccc1N1CCOCC1)c1cc(Cc2ccccc2)[n-]n1 (nonaromatic ring conformer: 109.7091875467153 kcal/mol)

>  <smiles>  (45) 
O=C(Nc1cc(S(=O)(=O)N2CCCC2)ccc1N1CCOCC1)c1cc(Cc2ccccc2)[nH]n1

>  <score_type>  (45) 
oracle

>  <origin>  (45) 
adgpu

>  <m_score__min__energy>  (45) 
-12.27

>  <m_primary>  (45) 
energy

$$$$
45:0
     RDKit          3D

 49 52  0  0  0  0  0  0  0  0999 V2000
   -6.0320   25.7700  -30.5370 O   0  0  0  0  0  0  0  0  0  0  0  0
   -5.1050   24.9480  -30.7580 C   0  0  0  0  0  0  0  0  0  0  0  0
   -3.7650   25.3000  -30.3850 N   0  0  0  0  0  0  0  0  0  0  0  0
   -2.8020   24.4150  -29.7910 C   0  0  0  0  0  0  0  0  0  0  0  0
   -2.8840   23.0230  -29.9720 C   0  0  0  0  0  0  0  0  0  0  0  0
   -1.9420   22.1720  -29.3770 C   0  0  0  0  0  0  0  0  0  0  0  0
   -2.0580   20.4260  -29.6050 S   0  0  0  0  0  0  0  0  0  0  0  0
   -1.5740   19.7360  -28.3610 O   0  0  0  0  0  0  0  0  0  0  0  0
   -3.5000   20.0520  -29.8090 O   0  0  0  0  0  0  0  0  0  0  0  0
   -1.1280   19.8830  -30.9830 N   0  0  0  0  0  0  0  0  0  0  0  0
   -1.9620   19.2010  -31.9980 C   0  0  0  0  0  0  0  0  0  0  0  0
   -2.5370   20.1460  -33.0730 C   0  0  0  0  0  0  0  0  0  0  0  0
   -1.5340   21.1940  -33.5870 C   0  0  0  0  0  0  0  0  0  0  0  0
   -0.1350   20.9870  -33.0160 C   0  0  0  0  0  0  0  0  0  0  0  0
   -0.2070   20.9290  -31.4860 C   0  0  0  0  0  0  0  0  0  0  0  0
   -0.9020   22.7180  -28.6130 C   0  0  0  0  0  0  0  0  0  0  0  0
   -0.7960   24.1030  -28.4600 C   0  0  0  0  0  0  0  0  0  0  0  0
   -1.7380   24.9520  -29.0510 C   0  0  0  0  0  0  0  0  0  0  0  0
   -1.6210   26.3280  -28.8890 O   0  0  0  0  0  0  0  0  0  0  0  0
   -5.4330   23.6380  -31.3500 C   0  0  0  0  0  0  0  0  0  0  0  0
   -6.5100   22.8370  -31.0310 C   0  0  0  0  0  0  0  0  0  0  0  0
   -6.3690   21.7340  -31.8540 C   0  0  0  0  0  0  0  0  0  0  0  0
   -7.2590   20.5440  -31.9020 C   0  0  0  0  0  0  0  0  0  0  0  0
   -6.7260   19.2510  -31.7300 C   0  0  0  0  0  0  0  0  0  0  0  0
   -7.5550   18.1270  -31.7630 C   0  0  0  0  0  0  0  0  0  0  0  0
   -8.9240   18.2730  -31.9810 C   0  0  0  0  0  0  0  0  0  0  0  0
   -9.4690   19.5440  -32.1580 C   0  0  0  0  0  0  0  0  0  0  0  0
   -8.6510   20.6780  -32.1180 C   0  0  0  0  0  0  0  0  0  0  0  0
   -9.2370   21.9280  -32.2810 O   0  0  0  0  0  0  0  0  0  0  0  0
   -5.2740   21.8970  -32.6230 N   0  0  0  0  0  0  0  0  0  0  0  0
   -4.7070   23.0540  -32.3220 N   0  0  0  0  0  0  0  0  0  0  0  0
   -3.6930   22.5987  -30.5848 H   0  0  0  0  0  0  0  0  0  0  0  0
   -1.3447   18.4411  -32.4995 H   0  0  0  0  0  0  0  0  0  0  0  0
   -2.8197   18.7646  -31.4652 H   0  0  0  0  0  0  0  0  0  0  0  0
   -2.8690   19.5371  -33.9269 H   0  0  0  0  0  0  0  0  0  0  0  0
   -3.3620   20.6999  -32.6012 H   0  0  0  0  0  0  0  0  0  0  0  0
   -1.4819   21.1254  -34.6836 H   0  0  0  0  0  0  0  0  0  0  0  0
   -1.8864   22.1840  -33.2620 H   0  0  0  0  0  0  0  0  0  0  0  0
    0.2806   20.0433  -33.3989 H   0  0  0  0  0  0  0  0  0  0  0  0
    0.5108   21.8241  -33.3197 H   0  0  0  0  0  0  0  0  0  0  0  0
    0.8010   20.7237  -31.0963 H   0  0  0  0  0  0  0  0  0  0  0  0
   -0.5947   21.8987  -31.1406 H   0  0  0  0  0  0  0  0  0  0  0  0
   -0.1674   22.0550  -28.1326 H   0  0  0  0  0  0  0  0  0  0  0  0
    0.0315   24.5274  -27.8725 H   0  0  0  0  0  0  0  0  0  0  0  0
   -7.3005   23.0311  -30.2911 H   0  0  0  0  0  0  0  0  0  0  0  0
   -5.6453   19.1253  -31.5680 H   0  0  0  0  0  0  0  0  0  0  0  0
   -7.1265   17.1245  -31.6166 H   0  0  0  0  0  0  0  0  0  0  0  0
   -9.5739   17.3861  -32.0134 H   0  0  0  0  0  0  0  0  0  0  0  0
  -10.5497   19.6558  -32.3303 H   0  0  0  0  0  0  0  0  0  0  0  0
  1  2  2  0
  2  3  1  0
  3  4  1  0
  4  5  2  0
  5  6  1  0
  6  7  1  0
  7  8  2  0
  7  9  2  0
  7 10  1  0
 10 11  1  0
 11 12  1  0
 12 13  1  0
 13 14  1  0
 14 15  1  0
  6 16  2  0
 16 17  1  0
 17 18  2  0
 18 19  1  0
  2 20  1  0
 20 21  1  0
 21 22  2  0
 22 23  1  0
 23 24  2  0
 24 25  1  0
 25 26  2  0
 26 27  1  0
 27 28  2  0
 28 29  1  0
 22 30  1  0
 30 31  1  0
 18  4  1  0
 31 20  2  0
 15 10  1  0
 28 23  1  0
  5 32  1  0
 11 33  1  0
 11 34  1  0
 12 35  1  0
 12 36  1  0
 13 37  1  0
 13 38  1  0
 14 39  1  0
 14 40  1  0
 15 41  1  0
 15 42  1  0
 16 43  1  0
 17 44  1  0
 21 45  1  0
 24 46  1  0
 25 47  1  0
 26 48  1  0
 27 49  1  0
M  CHG  4   3  -1  19  -1  29  -1  30  -1
M  END
>  <UniqueID>  (46) 
46

>  <SMILES>  (46) 
O=C([N-]c1cc(S(=O)(=O)N2CCCCC2)ccc1[O-])c1cc(-c2ccccc2[O-])[n-]n1

>  <Energy>  (46) 
96.55207807001274

>  <Genealogy>  (46) 
O=C([N-]c1cc(S(=O)(=O)N2CCCCC2)ccc1[O-])c1cc(-c2ccccc2[O-])[n-]n1 (protonated)
O=C([N-]c1cc(S(=O)(=O)N2CCCCC2)ccc1[O-])c1cc(-c2ccccc2[O-])[n-]n1 (3D coordinates assigned)
O=C([N-]c1cc(S(=O)(=O)N2CCCCC2)ccc1[O-])c1cc(-c2ccccc2[O-])[n-]n1 (nonaromatic ring conformer: 96.55207807001274 kcal/mol)

>  <smiles>  (46) 
O=C(Nc1cc(S(=O)(=O)N2CCCCC2)ccc1O)c1cc(-c2ccccc2O)[nH]n1

>  <score_type>  (46) 
oracle

>  <origin>  (46) 
adgpu

>  <m_score__min__energy>  (46) 
-15.08

>  <m_primary>  (46) 
energy

$$$$
46:0
     RDKit          3D

 34 36  0  0  0  0  0  0  0  0999 V2000
    0.3750   24.0540  -28.0960 C   0  0  0  0  0  0  0  0  0  0  0  0
   -1.0510   23.5990  -28.2350 C   0  0  0  0  0  0  0  0  0  0  0  0
   -1.4420   22.3430  -27.7470 C   0  0  0  0  0  0  0  0  0  0  0  0
   -2.7660   21.9200  -27.8700 C   0  0  0  0  0  0  0  0  0  0  0  0
   -3.7130   22.7450  -28.4790 C   0  0  0  0  0  0  0  0  0  0  0  0
   -3.3430   24.0060  -28.9750 C   0  0  0  0  0  0  0  0  0  0  0  0
   -4.3960   24.8810  -29.6080 C   0  0  0  0  0  0  0  0  0  0  0  0
   -4.4480   24.6540  -31.0480 N   0  0  0  0  0  0  0  0  0  0  0  0
   -4.9050   23.4370  -31.6430 C   0  0  0  0  0  0  0  0  0  0  0  0
   -4.1840   22.4030  -31.6130 O   0  0  0  0  0  0  0  0  0  0  0  0
   -6.1680   23.4190  -32.3130 N   0  0  0  0  0  0  0  0  0  0  0  0
   -7.1360   22.3660  -32.2150 C   0  0  0  0  0  0  0  0  0  0  0  0
   -8.3730   22.6100  -31.5860 C   0  0  0  0  0  0  0  0  0  0  0  0
   -9.3370   21.5840  -31.4700 C   0  0  0  0  0  0  0  0  0  0  0  0
   -9.0690   20.2940  -31.9630 C   0  0  0  0  0  0  0  0  0  0  0  0
   -7.8270   20.0710  -32.5540 C   0  0  0  0  0  0  0  0  0  0  0  0
   -7.3430   18.9110  -33.0250 N   0  0  0  0  0  0  0  0  0  0  0  0
   -6.1010   19.1440  -33.4390 N   0  0  0  0  0  0  0  0  0  0  0  0
   -5.7950   20.4450  -33.2300 C   0  0  0  0  0  0  0  0  0  0  0  0
   -6.8940   21.0630  -32.6730 C   0  0  0  0  0  0  0  0  0  0  0  0
   -2.0050   24.4330  -28.8490 C   0  0  0  0  0  0  0  0  0  0  0  0
   -1.6190   25.6830  -29.3290 O   0  0  0  0  0  0  0  0  0  0  0  0
    0.6315   24.1358  -27.0294 H   0  0  0  0  0  0  0  0  0  0  0  0
    1.0415   23.3239  -28.5784 H   0  0  0  0  0  0  0  0  0  0  0  0
    0.4955   25.0352  -28.5784 H   0  0  0  0  0  0  0  0  0  0  0  0
   -0.7010   21.6884  -27.2650 H   0  0  0  0  0  0  0  0  0  0  0  0
   -3.0644   20.9334  -27.4859 H   0  0  0  0  0  0  0  0  0  0  0  0
   -4.7553   22.4056  -28.5711 H   0  0  0  0  0  0  0  0  0  0  0  0
   -5.3761   24.6443  -29.1682 H   0  0  0  0  0  0  0  0  0  0  0  0
   -4.1427   25.9352  -29.4221 H   0  0  0  0  0  0  0  0  0  0  0  0
   -8.5902   23.6095  -31.1812 H   0  0  0  0  0  0  0  0  0  0  0  0
  -10.3043   21.7953  -30.9907 H   0  0  0  0  0  0  0  0  0  0  0  0
   -9.8144   19.4889  -31.8846 H   0  0  0  0  0  0  0  0  0  0  0  0
   -4.8343   20.9269  -33.4643 H   0  0  0  0  0  0  0  0  0  0  0  0
  1  2  1  0
  2  3  2  0
  3  4  1  0
  4  5  2  0
  5  6  1  0
  6  7  1  0
  7  8  1  0
  8  9  1  0
  9 10  2  0
  9 11  1  0
 11 12  1  0
 12 13  2  0
 13 14  1  0
 14 15  2  0
 15 16  1  0
 16 17  1  0
 17 18  1  0
 18 19  2  0
 19 20  1  0
  6 21  2  0
 21 22  1  0
 21  2  1  0
 20 12  1  0
 20 16  2  0
  1 23  1  0
  1 24  1  0
  1 25  1  0
  3 26  1  0
  4 27  1  0
  5 28  1  0
  7 29  1  0
  7 30  1  0
 13 31  1  0
 14 32  1  0
 15 33  1  0
 19 34  1  0
M  CHG  4   8  -1  11  -1  17  -1  22  -1
M  END
>  <UniqueID>  (47) 
47

>  <SMILES>  (47) 
Cc1cccc(C[N-]C(=O)[N-]c2cccc3[n-]ncc23)c1[O-]

>  <Energy>  (47) 
77.9052191984349

>  <Genealogy>  (47) 
Cc1cccc(C[N-]C(=O)[N-]c2cccc3[n-]ncc23)c1[O-] (protonated)
Cc1cccc(C[N-]C(=O)[N-]c2cccc3[n-]ncc23)c1[O-] (3D coordinates assigned)
Cc1cccc(C[N-]C(=O)[N-]c2cccc3[n-]ncc23)c1[O-] (optimized conformer: 77.9052191984349 kcal/mol)

>  <smiles>  (47) 
Cc1cccc(CNC(=O)Nc2cccc3[nH]ncc23)c1O

>  <score_type>  (47) 
oracle

>  <origin>  (47) 
adgpu

>  <m_score__min__energy>  (47) 
-12.449999999999999

>  <m_primary>  (47) 
energy

$$$$
47:0
     RDKit          3D

 55 58  0  0  0  0  0  0  0  0999 V2000
   -4.9610   14.8920  -32.6580 C   0  0  0  0  0  0  0  0  0  0  0  0
   -5.6630   15.8980  -33.9630 S   0  0  0  0  0  0  0  0  0  0  0  0
   -6.8590   15.1800  -34.5360 O   0  0  0  0  0  0  0  0  0  0  0  0
   -4.6380   16.0790  -35.0520 O   0  0  0  0  0  0  0  0  0  0  0  0
   -6.1620   17.4680  -33.3720 N   0  0  0  0  0  0  0  0  0  0  0  0
   -6.4640   17.4020  -31.9370 C   0  0  0  0  0  0  0  0  0  0  0  0
   -7.1630   18.6980  -31.5280 C   0  0  0  0  0  0  0  0  0  0  0  0
   -6.4610   19.8660  -32.0780 N   0  0  0  0  0  0  0  0  0  0  0  0
   -7.0390   21.1730  -31.9140 C   0  0  0  0  0  0  0  0  0  0  0  0
   -8.2750   21.3280  -32.1010 O   0  0  0  0  0  0  0  0  0  0  0  0
   -6.2140   22.3410  -31.5240 C   0  0  0  0  0  0  0  0  0  0  0  0
   -6.8140   23.5880  -31.2850 C   0  0  0  0  0  0  0  0  0  0  0  0
   -6.0280   24.6930  -30.9460 C   0  0  0  0  0  0  0  0  0  0  0  0
   -4.6430   24.5600  -30.8210 C   0  0  0  0  0  0  0  0  0  0  0  0
   -3.8720   25.6690  -30.4940 O   0  0  0  0  0  0  0  0  0  0  0  0
   -4.0360   23.3100  -31.0110 C   0  0  0  0  0  0  0  0  0  0  0  0
   -2.6120   23.1930  -30.8980 N   0  0  0  0  0  0  0  0  0  0  0  0
   -1.7840   21.7180  -30.5140 S   0  0  0  0  0  0  0  0  0  0  0  0
   -0.3530   22.0390  -30.1860 O   0  0  0  0  0  0  0  0  0  0  0  0
   -2.4200   21.1050  -29.2960 O   0  0  0  0  0  0  0  0  0  0  0  0
   -1.8020   20.5670  -31.8480 C   0  0  0  0  0  0  0  0  0  0  0  0
   -2.0970   20.9990  -33.1590 C   0  0  0  0  0  0  0  0  0  0  0  0
   -2.1010   20.0850  -34.2220 C   0  0  0  0  0  0  0  0  0  0  0  0
   -1.8110   18.7450  -33.9580 C   0  0  0  0  0  0  0  0  0  0  0  0
   -1.5090   18.3210  -32.6890 C   0  0  0  0  0  0  0  0  0  0  0  0
   -1.4930   19.2130  -31.6130 C   0  0  0  0  0  0  0  0  0  0  0  0
   -1.2330   16.8660  -32.6390 C   0  0  0  0  0  0  0  0  0  0  0  0
   -1.5600   16.3810  -34.0660 C   0  0  0  0  0  0  0  0  0  0  0  0
   -1.8000   17.6320  -34.9350 C   0  0  0  0  0  0  0  0  0  0  0  0
   -4.8250   22.2100  -31.3780 C   0  0  0  0  0  0  0  0  0  0  0  0
   -5.1520   19.6990  -32.7270 C   0  0  0  0  0  0  0  0  0  0  0  0
   -5.1380   18.4910  -33.6890 C   0  0  0  0  0  0  0  0  0  0  0  0
   -5.2497   15.3057  -31.6805 H   0  0  0  0  0  0  0  0  0  0  0  0
   -5.3376   13.8622  -32.7460 H   0  0  0  0  0  0  0  0  0  0  0  0
   -3.8645   14.8902  -32.7460 H   0  0  0  0  0  0  0  0  0  0  0  0
   -7.1238   16.5452  -31.7358 H   0  0  0  0  0  0  0  0  0  0  0  0
   -5.5347   17.2775  -31.3618 H   0  0  0  0  0  0  0  0  0  0  0  0
   -8.1954   18.6861  -31.9075 H   0  0  0  0  0  0  0  0  0  0  0  0
   -7.1592   18.7692  -30.4303 H   0  0  0  0  0  0  0  0  0  0  0  0
   -7.9058   23.6955  -31.3648 H   0  0  0  0  0  0  0  0  0  0  0  0
   -6.5019   25.6712  -30.7770 H   0  0  0  0  0  0  0  0  0  0  0  0
   -2.3250   22.0585  -33.3476 H   0  0  0  0  0  0  0  0  0  0  0  0
   -2.3285   20.4175  -35.2456 H   0  0  0  0  0  0  0  0  0  0  0  0
   -1.2434   18.8636  -30.6002 H   0  0  0  0  0  0  0  0  0  0  0  0
   -0.1781   16.6754  -32.3923 H   0  0  0  0  0  0  0  0  0  0  0  0
   -1.8215   16.3474  -31.8678 H   0  0  0  0  0  0  0  0  0  0  0  0
   -0.7168   15.8001  -34.4681 H   0  0  0  0  0  0  0  0  0  0  0  0
   -2.4500   15.7346  -34.0619 H   0  0  0  0  0  0  0  0  0  0  0  0
   -0.9895   17.7616  -35.6674 H   0  0  0  0  0  0  0  0  0  0  0  0
   -2.7293   17.5710  -35.5204 H   0  0  0  0  0  0  0  0  0  0  0  0
   -4.3493   21.2338  -31.5533 H   0  0  0  0  0  0  0  0  0  0  0  0
   -4.9183   20.6105  -33.2968 H   0  0  0  0  0  0  0  0  0  0  0  0
   -4.4021   19.5196  -31.9425 H   0  0  0  0  0  0  0  0  0  0  0  0
   -5.3175   18.8578  -34.7104 H   0  0  0  0  0  0  0  0  0  0  0  0
   -4.1557   18.0071  -33.5847 H   0  0  0  0  0  0  0  0  0  0  0  0
  1  2  1  0
  2  3  2  0
  2  4  2  0
  2  5  1  0
  5  6  1  0
  6  7  1  0
  7  8  1  0
  8  9  1  0
  9 10  2  0
  9 11  1  0
 11 12  2  0
 12 13  1  0
 13 14  2  0
 14 15  1  0
 14 16  1  0
 16 17  1  0
 17 18  1  0
 18 19  2  0
 18 20  2  0
 18 21  1  0
 21 22  2  0
 22 23  1  0
 23 24  2  0
 24 25  1  0
 25 26  2  0
 25 27  1  0
 27 28  1  0
 28 29  1  0
 16 30  2  0
  8 31  1  0
 31 32  1  0
 32  5  1  0
 30 11  1  0
 26 21  1  0
 29 24  1  0
  1 33  1  0
  1 34  1  0
  1 35  1  0
  6 36  1  0
  6 37  1  0
  7 38  1  0
  7 39  1  0
 12 40  1  0
 13 41  1  0
 22 42  1  0
 23 43  1  0
 26 44  1  0
 27 45  1  0
 27 46  1  0
 28 47  1  0
 28 48  1  0
 29 49  1  0
 29 50  1  0
 30 51  1  0
 31 52  1  0
 31 53  1  0
 32 54  1  0
 32 55  1  0
M  CHG  2  15  -1  17  -1
M  END
>  <UniqueID>  (48) 
48

>  <SMILES>  (48) 
CS(=O)(=O)N1CCN(C(=O)c2ccc([O-])c([N-]S(=O)(=O)c3ccc4c(c3)CCC4)c2)CC1

>  <Energy>  (48) 
72.31073333285013

>  <Genealogy>  (48) 
CS(=O)(=O)N1CCN(C(=O)c2ccc([O-])c([N-]S(=O)(=O)c3ccc4c(c3)CCC4)c2)CC1 (protonated)
CS(=O)(=O)N1CCN(C(=O)c2ccc([O-])c([N-]S(=O)(=O)c3ccc4c(c3)CCC4)c2)CC1 (3D coordinates assigned)
CS(=O)(=O)N1CCN(C(=O)c2ccc([O-])c([N-]S(=O)(=O)c3ccc4c(c3)CCC4)c2)CC1 (nonaromatic ring conformer: 72.31073333285013 kcal/mol)

>  <smiles>  (48) 
CS(=O)(=O)N1CCN(C(=O)c2ccc(O)c(NS(=O)(=O)c3ccc4c(c3)CCC4)c2)CC1

>  <score_type>  (48) 
oracle

>  <origin>  (48) 
adgpu

>  <m_score__min__energy>  (48) 
-15.01

>  <m_primary>  (48) 
energy

$$$$
48:0
     RDKit          3D

 56 58  0  0  0  0  0  0  0  0999 V2000
   -2.3340   18.5710  -32.7250 C   0  0  0  0  0  0  0  0  0  0  0  0
   -2.9830   19.7160  -32.1020 N   0  0  0  0  0  0  0  0  0  0  0  0
   -3.3680   20.8680  -32.8640 C   0  0  0  0  0  0  0  0  0  0  0  0
   -2.9830   20.9890  -34.0590 O   0  0  0  0  0  0  0  0  0  0  0  0
   -4.1860   21.9390  -32.2510 C   0  0  0  0  0  0  0  0  0  0  0  0
   -3.5330   22.9740  -31.5600 C   0  0  0  0  0  0  0  0  0  0  0  0
   -4.2610   23.9310  -30.8470 C   0  0  0  0  0  0  0  0  0  0  0  0
   -3.5460   24.9170  -30.0920 N   0  0  0  0  0  0  0  0  0  0  0  0
   -2.7430   24.6050  -28.5860 S   0  0  0  0  0  0  0  0  0  0  0  0
   -1.6470   25.6130  -28.3880 O   0  0  0  0  0  0  0  0  0  0  0  0
   -3.7350   24.7260  -27.4620 O   0  0  0  0  0  0  0  0  0  0  0  0
   -2.0340   22.9940  -28.6320 C   0  0  0  0  0  0  0  0  0  0  0  0
   -2.5130   22.0020  -27.7660 C   0  0  0  0  0  0  0  0  0  0  0  0
   -1.9220   20.7350  -27.7490 C   0  0  0  0  0  0  0  0  0  0  0  0
   -0.8450   20.4500  -28.5980 C   0  0  0  0  0  0  0  0  0  0  0  0
   -0.0840   18.8620  -28.5700 S   0  0  0  0  0  0  0  0  0  0  0  0
   -0.0790   18.1780  -30.2110 C   0  0  0  0  0  0  0  0  0  0  0  0
   -0.8430   17.9450  -27.6500 O   0  0  0  0  0  0  0  0  0  0  0  0
    1.3270   18.9870  -28.0680 O   0  0  0  0  0  0  0  0  0  0  0  0
   -0.3780   21.4350  -29.4790 C   0  0  0  0  0  0  0  0  0  0  0  0
   -0.9690   22.7030  -29.4960 C   0  0  0  0  0  0  0  0  0  0  0  0
   -5.6630   23.8790  -30.8580 C   0  0  0  0  0  0  0  0  0  0  0  0
   -6.3290   22.8820  -31.5740 C   0  0  0  0  0  0  0  0  0  0  0  0
   -8.0880   22.8570  -31.5770 Cl  0  0  0  0  0  0  0  0  0  0  0  0
   -5.6040   21.9200  -32.2940 C   0  0  0  0  0  0  0  0  0  0  0  0
   -6.3220   20.9580  -33.0230 O   0  0  0  0  0  0  0  0  0  0  0  0
   -6.0540   19.5810  -33.0320 C   0  0  0  0  0  0  0  0  0  0  0  0
   -6.0900   18.7990  -31.8610 C   0  0  0  0  0  0  0  0  0  0  0  0
   -5.8330   17.4260  -31.9220 C   0  0  0  0  0  0  0  0  0  0  0  0
   -5.5240   16.8220  -33.1480 C   0  0  0  0  0  0  0  0  0  0  0  0
   -5.1730   15.0990  -33.2270 S   0  0  0  0  0  0  0  0  0  0  0  0
   -3.6860   14.8460  -34.1700 C   0  0  0  0  0  0  0  0  0  0  0  0
   -6.3160   14.3770  -33.8840 O   0  0  0  0  0  0  0  0  0  0  0  0
   -4.9880   14.5490  -31.8400 O   0  0  0  0  0  0  0  0  0  0  0  0
   -5.4600   17.6040  -34.3080 C   0  0  0  0  0  0  0  0  0  0  0  0
   -5.7210   18.9750  -34.2480 C   0  0  0  0  0  0  0  0  0  0  0  0
   -1.9518   17.8967  -31.9445 H   0  0  0  0  0  0  0  0  0  0  0  0
   -3.0613   18.0328  -33.3506 H   0  0  0  0  0  0  0  0  0  0  0  0
   -1.4986   18.9186  -33.3506 H   0  0  0  0  0  0  0  0  0  0  0  0
   -3.1640   19.6920  -31.0730 H   0  0  0  0  0  0  0  0  0  0  0  0
   -2.4347   23.0318  -31.5805 H   0  0  0  0  0  0  0  0  0  0  0  0
   -3.3578   22.2211  -27.0965 H   0  0  0  0  0  0  0  0  0  0  0  0
   -2.3036   19.9604  -27.0675 H   0  0  0  0  0  0  0  0  0  0  0  0
   -0.0710   17.0797  -30.1504 H   0  0  0  0  0  0  0  0  0  0  0  0
   -0.9796   18.5090  -30.7490 H   0  0  0  0  0  0  0  0  0  0  0  0
    0.8167   18.5221  -30.7490 H   0  0  0  0  0  0  0  0  0  0  0  0
    0.4564   21.2102  -30.1597 H   0  0  0  0  0  0  0  0  0  0  0  0
   -0.5975   23.4728  -30.1884 H   0  0  0  0  0  0  0  0  0  0  0  0
   -6.2417   24.6288  -30.2987 H   0  0  0  0  0  0  0  0  0  0  0  0
   -6.3213   19.2705  -30.8945 H   0  0  0  0  0  0  0  0  0  0  0  0
   -5.8735   16.8188  -31.0057 H   0  0  0  0  0  0  0  0  0  0  0  0
   -2.8375   14.7016  -33.4850 H   0  0  0  0  0  0  0  0  0  0  0  0
   -3.8011   13.9545  -34.8041 H   0  0  0  0  0  0  0  0  0  0  0  0
   -3.4998   15.7254  -34.8041 H   0  0  0  0  0  0  0  0  0  0  0  0
   -5.2032   17.1368  -35.2702 H   0  0  0  0  0  0  0  0  0  0  0  0
   -5.6643   19.5823  -35.1634 H   0  0  0  0  0  0  0  0  0  0  0  0
  1  2  1  0
  2  3  1  0
  3  4  2  0
  3  5  1  0
  5  6  2  0
  6  7  1  0
  7  8  1  0
  8  9  1  0
  9 10  2  0
  9 11  2  0
  9 12  1  0
 12 13  2  0
 13 14  1  0
 14 15  2  0
 15 16  1  0
 16 17  1  0
 16 18  2  0
 16 19  2  0
 15 20  1  0
 20 21  2  0
  7 22  2  0
 22 23  1  0
 23 24  1  0
 23 25  2  0
 25 26  1  0
 26 27  1  0
 27 28  2  0
 28 29  1  0
 29 30  2  0
 30 31  1  0
 31 32  1  0
 31 33  2  0
 31 34  2  0
 30 35  1  0
 35 36  2  0
 25  5  1  0
 36 27  1  0
 21 12  1  0
  1 37  1  0
  1 38  1  0
  1 39  1  0
  2 40  1  0
  6 41  1  0
 13 42  1  0
 14 43  1  0
 17 44  1  0
 17 45  1  0
 17 46  1  0
 20 47  1  0
 21 48  1  0
 22 49  1  0
 28 50  1  0
 29 51  1  0
 32 52  1  0
 32 53  1  0
 32 54  1  0
 35 55  1  0
 36 56  1  0
M  CHG  1   8  -1
M  END
>  <UniqueID>  (49) 
49

>  <SMILES>  (49) 
CNC(=O)c1cc([N-]S(=O)(=O)c2ccc(S(C)(=O)=O)cc2)cc(Cl)c1Oc1ccc(S(C)(=O)=O)cc1

>  <Energy>  (49) 
64.16558278342839

>  <Genealogy>  (49) 
CNC(=O)c1cc([N-]S(=O)(=O)c2ccc(S(C)(=O)=O)cc2)cc(Cl)c1Oc1ccc(S(C)(=O)=O)cc1 (protonated)
CNC(=O)c1cc([N-]S(=O)(=O)c2ccc(S(C)(=O)=O)cc2)cc(Cl)c1Oc1ccc(S(C)(=O)=O)cc1 (3D coordinates assigned)
CNC(=O)c1cc([N-]S(=O)(=O)c2ccc(S(C)(=O)=O)cc2)cc(Cl)c1Oc1ccc(S(C)(=O)=O)cc1 (optimized conformer: 64.16558278342839 kcal/mol)

>  <smiles>  (49) 
CNC(=O)c1cc(NS(=O)(=O)c2ccc(S(C)(=O)=O)cc2)cc(Cl)c1Oc1ccc(S(C)(=O)=O)cc1

>  <score_type>  (49) 
oracle

>  <origin>  (49) 
adgpu

>  <m_score__min__energy>  (49) 
-11.35

>  <m_primary>  (49) 
energy

$$$$
49:0
     RDKit          3D

 41 43  0  0  0  0  0  0  0  0999 V2000
   -0.2950   20.6850  -30.0850 H   0  0  0  0  0  0  0  0  0  0  0  0
   -0.1890   21.6580  -29.8210 O   0  0  0  0  0  0  0  0  0  0  0  0
   -1.2780   22.5310  -29.7870 C   0  0  0  0  0  0  0  0  0  0  0  0
   -1.0980   23.8460  -29.3380 C   0  0  0  0  0  0  0  0  0  0  0  0
   -0.1104   24.1712  -28.9789 H   0  0  0  0  0  0  0  0  0  0  0  0
   -2.1660   24.7460  -29.3440 C   0  0  0  0  0  0  0  0  0  0  0  0
   -1.9760   26.0480  -28.9050 O   0  0  0  0  0  0  0  0  0  0  0  0
   -3.4210   24.3370  -29.7980 C   0  0  0  0  0  0  0  0  0  0  0  0
   -4.2597   25.0487  -29.8087 H   0  0  0  0  0  0  0  0  0  0  0  0
   -3.6140   23.0250  -30.2390 C   0  0  0  0  0  0  0  0  0  0  0  0
   -4.6037   22.7105  -30.6018 H   0  0  0  0  0  0  0  0  0  0  0  0
   -2.5520   22.1050  -30.2220 C   0  0  0  0  0  0  0  0  0  0  0  0
   -2.7800   20.7210  -30.7040 C   0  0  0  0  0  0  0  0  0  0  0  0
   -1.9350   19.8290  -30.4290 O   0  0  0  0  0  0  0  0  0  0  0  0
   -3.9530   20.3530  -31.4450 N   0  0  0  0  0  0  0  0  0  0  0  0
   -4.2090   20.7590  -32.6520 C   0  0  0  0  0  0  0  0  0  0  0  0
   -3.4691   21.3610  -33.1999 H   0  0  0  0  0  0  0  0  0  0  0  0
   -5.5190   20.4040  -33.2980 C   0  0  0  0  0  0  0  0  0  0  0  0
   -5.4893   20.7851  -34.3294 H   0  0  0  0  0  0  0  0  0  0  0  0
   -6.7120   21.0960  -32.6570 C   0  0  0  0  0  0  0  0  0  0  0  0
   -7.9380   20.4120  -32.5860 C   0  0  0  0  0  0  0  0  0  0  0  0
   -8.0312   19.4111  -33.0327 H   0  0  0  0  0  0  0  0  0  0  0  0
   -9.0400   20.9940  -31.9520 C   0  0  0  0  0  0  0  0  0  0  0  0
   -9.9970   20.4535  -31.9066 H   0  0  0  0  0  0  0  0  0  0  0  0
   -8.9260   22.2620  -31.3760 C   0  0  0  0  0  0  0  0  0  0  0  0
   -9.7953   22.7207  -30.8821 H   0  0  0  0  0  0  0  0  0  0  0  0
   -7.7110   22.9480  -31.4260 C   0  0  0  0  0  0  0  0  0  0  0  0
   -7.6232   23.9448  -30.9691 H   0  0  0  0  0  0  0  0  0  0  0  0
   -6.6070   22.3690  -32.0560 C   0  0  0  0  0  0  0  0  0  0  0  0
   -5.6490   22.9088  -32.0840 H   0  0  0  0  0  0  0  0  0  0  0  0
   -5.6870   18.8960  -33.3490 C   0  0  0  0  0  0  0  0  0  0  0  0
   -5.7620   18.1960  -34.5720 C   0  0  0  0  0  0  0  0  0  0  0  0
   -5.6838   18.7446  -35.5222 H   0  0  0  0  0  0  0  0  0  0  0  0
   -5.9350   16.8100  -34.5820 C   0  0  0  0  0  0  0  0  0  0  0  0
   -5.9673   16.2685  -35.5389 H   0  0  0  0  0  0  0  0  0  0  0  0
   -6.0670   16.1100  -33.3820 C   0  0  0  0  0  0  0  0  0  0  0  0
   -6.1980   15.0179  -33.3944 H   0  0  0  0  0  0  0  0  0  0  0  0
   -6.0330   16.7940  -32.1670 C   0  0  0  0  0  0  0  0  0  0  0  0
   -6.1536   16.2422  -31.2231 H   0  0  0  0  0  0  0  0  0  0  0  0
   -5.8460   18.1790  -32.1460 C   0  0  0  0  0  0  0  0  0  0  0  0
   -5.8228   18.7128  -31.1845 H   0  0  0  0  0  0  0  0  0  0  0  0
  1  2  1  0
  2  3  1  0
  3  4  2  0
  4  5  1  0
  4  6  1  0
  6  7  1  0
  6  8  2  0
  8  9  1  0
  8 10  1  0
 10 11  1  0
 10 12  2  0
 12 13  1  0
 13 14  2  0
 13 15  1  0
 15 16  2  0
 16 17  1  0
 16 18  1  0
 18 19  1  0
 18 20  1  0
 20 21  2  0
 21 22  1  0
 21 23  1  0
 23 24  1  0
 23 25  2  0
 25 26  1  0
 25 27  1  0
 27 28  1  0
 27 29  2  0
 29 30  1  0
 18 31  1  0
 31 32  2  0
 32 33  1  0
 32 34  1  0
 34 35  1  0
 34 36  2  0
 36 37  1  0
 36 38  1  0
 38 39  1  0
 38 40  2  0
 40 41  1  0
 12  3  1  0
 29 20  1  0
 40 31  1  0
M  CHG  1   7  -1
M  END
>  <UniqueID>  (50) 
50

>  <SMILES>  (50) 
O=C(/N=C/C(c1ccccc1)c1ccccc1)c1ccc([O-])cc1O

>  <Energy>  (50) 
51.94630042507402

>  <Genealogy>  (50) 
O=C(N=CC(c1ccccc1)c1ccccc1)c1ccc([O-])cc1O (protonated)
O=C(/N=C/C(c1ccccc1)c1ccccc1)c1ccc([O-])cc1O (cis-trans isomerization)
O=C(/N=C/C(c1ccccc1)c1ccccc1)c1ccc([O-])cc1O (3D coordinates assigned)
O=C(/N=C/C(c1ccccc1)c1ccccc1)c1ccc([O-])cc1O (optimized conformer: 51.94630042507402 kcal/mol)

>  <smiles>  (50) 
O=C(N=CC(c1ccccc1)c1ccccc1)c1ccc(O)cc1O

>  <score_type>  (50) 
oracle

>  <origin>  (50) 
adgpu

>  <m_score__min__energy>  (50) 
-10.43

>  <m_primary>  (50) 
energy

$$$$
