0:0
     RDKit          3D

 49 51  0  0  0  0  0  0  0  0999 V2000
   -9.0670   19.7820  -32.1770 C   0  0  0  0  0  0  0  0  0  0  0  0
   -8.1210   20.9450  -32.1450 C   0  0  0  0  0  0  0  0  0  0  0  0
   -6.7560   20.7520  -32.4040 C   0  0  0  0  0  0  0  0  0  0  0  0
   -5.8650   21.8270  -32.3380 C   0  0  0  0  0  0  0  0  0  0  0  0
   -6.3210   23.1010  -31.9800 C   0  0  0  0  0  0  0  0  0  0  0  0
   -5.3800   24.1800  -31.8900 N   0  0  0  0  0  0  0  0  0  0  0  0
   -4.6390   24.5410  -30.7160 C   0  0  0  0  0  0  0  0  0  0  0  0
   -3.9450   25.5910  -30.7290 O   0  0  0  0  0  0  0  0  0  0  0  0
   -4.6680   23.7380  -29.5280 N   0  0  0  0  0  0  0  0  0  0  0  0
   -3.5430   23.0370  -28.9800 C   0  0  0  0  0  0  0  0  0  0  0  0
   -3.4770   21.6420  -29.0290 C   0  0  0  0  0  0  0  0  0  0  0  0
   -2.4190   20.9690  -28.4320 C   0  0  0  0  0  0  0  0  0  0  0  0
   -1.3850   21.6710  -27.7930 C   0  0  0  0  0  0  0  0  0  0  0  0
   -0.3000   20.8650  -27.1290 C   0  0  0  0  0  0  0  0  0  0  0  0
   -1.3960   23.0960  -27.8010 C   0  0  0  0  0  0  0  0  0  0  0  0
   -0.0820   24.0660  -27.0810 S   0  0  0  0  0  0  0  0  0  0  0  0
    0.9910   23.2200  -26.4550 O   0  0  0  0  0  0  0  0  0  0  0  0
    0.5620   24.8750  -28.1730 O   0  0  0  0  0  0  0  0  0  0  0  0
   -0.7600   25.1350  -25.8790 N   0  0  0  0  0  0  0  0  0  0  0  0
   -0.0090   25.0160  -24.6180 C   0  0  0  0  0  0  0  0  0  0  0  0
   -0.5030   26.0590  -23.5940 C   0  0  0  0  0  0  0  0  0  0  0  0
   -1.5990   26.8020  -24.0920 O   0  0  0  0  0  0  0  0  0  0  0  0
   -1.2120   27.4910  -25.2660 C   0  0  0  0  0  0  0  0  0  0  0  0
   -0.7230   26.5240  -26.3630 C   0  0  0  0  0  0  0  0  0  0  0  0
   -2.5070   23.7670  -28.3810 C   0  0  0  0  0  0  0  0  0  0  0  0
   -2.6370   25.1600  -28.3530 O   0  0  0  0  0  0  0  0  0  0  0  0
   -7.6910   23.2980  -31.7290 C   0  0  0  0  0  0  0  0  0  0  0  0
   -8.5810   22.2230  -31.7990 C   0  0  0  0  0  0  0  0  0  0  0  0
   -9.3123   19.4805  -31.1480 H   0  0  0  0  0  0  0  0  0  0  0  0
   -9.9881   20.0729  -32.7033 H   0  0  0  0  0  0  0  0  0  0  0  0
   -8.5946   18.9395  -32.7033 H   0  0  0  0  0  0  0  0  0  0  0  0
   -6.3846   19.7489  -32.6605 H   0  0  0  0  0  0  0  0  0  0  0  0
   -4.8008   21.6711  -32.5684 H   0  0  0  0  0  0  0  0  0  0  0  0
   -4.2667   21.0743  -29.5428 H   0  0  0  0  0  0  0  0  0  0  0  0
   -2.3909   19.8697  -28.4603 H   0  0  0  0  0  0  0  0  0  0  0  0
   -0.4029   20.9414  -26.0365 H   0  0  0  0  0  0  0  0  0  0  0  0
   -0.3879   19.8114  -27.4327 H   0  0  0  0  0  0  0  0  0  0  0  0
    0.6833   21.2534  -27.4327 H   0  0  0  0  0  0  0  0  0  0  0  0
   -0.1530   24.0068  -24.2048 H   0  0  0  0  0  0  0  0  0  0  0  0
    1.0573   25.1943  -24.8210 H   0  0  0  0  0  0  0  0  0  0  0  0
   -0.8129   25.5384  -22.6759 H   0  0  0  0  0  0  0  0  0  0  0  0
    0.3217   26.7581  -23.3912 H   0  0  0  0  0  0  0  0  0  0  0  0
   -2.0751   28.0558  -25.6482 H   0  0  0  0  0  0  0  0  0  0  0  0
   -0.3811   28.1644  -25.0089 H   0  0  0  0  0  0  0  0  0  0  0  0
   -1.3741   26.6176  -27.2447 H   0  0  0  0  0  0  0  0  0  0  0  0
    0.3132   26.7811  -26.6280 H   0  0  0  0  0  0  0  0  0  0  0  0
   -3.4830   25.6580  -28.5910 H   0  0  0  0  0  0  0  0  0  0  0  0
   -8.0631   24.3019  -31.4767 H   0  0  0  0  0  0  0  0  0  0  0  0
   -9.6477   22.3805  -31.5815 H   0  0  0  0  0  0  0  0  0  0  0  0
  1  2  1  0
  2  3  2  0
  3  4  1  0
  4  5  2  0
  5  6  1  0
  6  7  1  0
  7  8  2  0
  7  9  1  0
  9 10  1  0
 10 11  2  0
 11 12  1  0
 12 13  2  0
 13 14  1  0
 13 15  1  0
 15 16  1  0
 16 17  2  0
 16 18  2  0
 16 19  1  0
 19 20  1  0
 20 21  1  0
 21 22  1  0
 22 23  1  0
 23 24  1  0
 15 25  2  0
 25 26  1  0
  5 27  1  0
 27 28  2  0
 28  2  1  0
 25 10  1  0
 24 19  1  0
  1 29  1  0
  1 30  1  0
  1 31  1  0
  3 32  1  0
  4 33  1  0
 11 34  1  0
 12 35  1  0
 14 36  1  0
 14 37  1  0
 14 38  1  0
 20 39  1  0
 20 40  1  0
 21 41  1  0
 21 42  1  0
 23 43  1  0
 23 44  1  0
 24 45  1  0
 24 46  1  0
 26 47  1  0
 27 48  1  0
 28 49  1  0
M  CHG  2   6  -1   9  -1
M  END
>  <UniqueID>  (1) 
1

>  <SMILES>  (1) 
Cc1ccc([N-]C(=O)[N-]c2ccc(C)c(S(=O)(=O)N3CCOCC3)c2O)cc1

>  <Energy>  (1) 
67.28600733179317

>  <Genealogy>  (1) 
Cc1ccc([N-]C(=O)[N-]c2ccc(C)c(S(=O)(=O)N3CCOCC3)c2O)cc1 (protonated)
Cc1ccc([N-]C(=O)[N-]c2ccc(C)c(S(=O)(=O)N3CCOCC3)c2O)cc1 (3D coordinates assigned)
Cc1ccc([N-]C(=O)[N-]c2ccc(C)c(S(=O)(=O)N3CCOCC3)c2O)cc1 (nonaromatic ring conformer: 67.28600733179317 kcal/mol)

>  <smiles>  (1) 
Cc1ccc(NC(=O)Nc2ccc(C)c(S(=O)(=O)N3CCOCC3)c2O)cc1

>  <score_type>  (1) 
oracle

>  <origin>  (1) 
adgpu

>  <m_score__min__energy>  (1) 
-13

>  <m_primary>  (1) 
energy

$$$$
1:0
     RDKit          3D

 53 56  0  0  0  0  0  0  0  0999 V2000
   -0.4890   27.9730  -25.9910 C   0  0  0  0  0  0  0  0  0  0  0  0
   -0.5530   27.2470  -27.2140 O   0  0  0  0  0  0  0  0  0  0  0  0
   -1.0380   25.9360  -27.3330 C   0  0  0  0  0  0  0  0  0  0  0  0
   -0.3990   24.9630  -28.1270 C   0  0  0  0  0  0  0  0  0  0  0  0
   -0.9210   23.6700  -28.2120 C   0  0  0  0  0  0  0  0  0  0  0  0
   -2.0780   23.3310  -27.5030 C   0  0  0  0  0  0  0  0  0  0  0  0
   -2.7420   21.6690  -27.6040 S   0  0  0  0  0  0  0  0  0  0  0  0
   -2.4780   21.5650  -29.3800 C   0  0  0  0  0  0  0  0  0  0  0  0
   -1.4320   20.7600  -29.8520 C   0  0  0  0  0  0  0  0  0  0  0  0
   -1.1170   20.7360  -31.2120 C   0  0  0  0  0  0  0  0  0  0  0  0
   -1.8350   21.5280  -32.1090 C   0  0  0  0  0  0  0  0  0  0  0  0
   -2.8830   22.3270  -31.6510 C   0  0  0  0  0  0  0  0  0  0  0  0
   -3.2420   22.3240  -30.2970 C   0  0  0  0  0  0  0  0  0  0  0  0
   -4.3300   23.1570  -29.8750 N   0  0  0  0  0  0  0  0  0  0  0  0
   -4.5090   24.5390  -30.2150 C   0  0  0  0  0  0  0  0  0  0  0  0
   -3.4900   25.2360  -30.4580 O   0  0  0  0  0  0  0  0  0  0  0  0
   -5.8780   25.1740  -30.2800 C   0  0  0  0  0  0  0  0  0  0  0  0
   -7.0090   24.1410  -30.4350 C   0  0  0  0  0  0  0  0  0  0  0  0
   -7.3100   23.7750  -31.8960 C   0  0  0  0  0  0  0  0  0  0  0  0
   -7.3130   22.3290  -32.1040 N   0  0  0  0  0  0  0  0  0  0  0  0
   -8.3600   21.4120  -31.7820 C   0  0  0  0  0  0  0  0  0  0  0  0
   -9.4760   21.7450  -31.3030 O   0  0  0  0  0  0  0  0  0  0  0  0
   -7.9400   20.0510  -32.1020 C   0  0  0  0  0  0  0  0  0  0  0  0
   -8.6050   18.8350  -31.9490 C   0  0  0  0  0  0  0  0  0  0  0  0
   -7.9340   17.6630  -32.3410 C   0  0  0  0  0  0  0  0  0  0  0  0
   -6.6270   17.7310  -32.8720 C   0  0  0  0  0  0  0  0  0  0  0  0
   -5.9790   18.9700  -33.0180 C   0  0  0  0  0  0  0  0  0  0  0  0
   -6.6650   20.1170  -32.6230 C   0  0  0  0  0  0  0  0  0  0  0  0
   -6.2650   21.5200  -32.6410 C   0  0  0  0  0  0  0  0  0  0  0  0
   -5.1670   21.9680  -33.0670 O   0  0  0  0  0  0  0  0  0  0  0  0
   -2.7210   24.2960  -26.7180 C   0  0  0  0  0  0  0  0  0  0  0  0
   -2.2010   25.5900  -26.6340 C   0  0  0  0  0  0  0  0  0  0  0  0
   -0.5508   27.2725  -25.1451 H   0  0  0  0  0  0  0  0  0  0  0  0
    0.4613   28.5248  -25.9415 H   0  0  0  0  0  0  0  0  0  0  0  0
   -1.3281   28.6826  -25.9415 H   0  0  0  0  0  0  0  0  0  0  0  0
    0.5145   25.2226  -28.6821 H   0  0  0  0  0  0  0  0  0  0  0  0
   -0.4208   22.9165  -28.8382 H   0  0  0  0  0  0  0  0  0  0  0  0
   -0.8558   20.1434  -29.1465 H   0  0  0  0  0  0  0  0  0  0  0  0
   -0.3026   20.0926  -31.5765 H   0  0  0  0  0  0  0  0  0  0  0  0
   -1.5745   21.5223  -33.1777 H   0  0  0  0  0  0  0  0  0  0  0  0
   -3.4321   22.9648  -32.3593 H   0  0  0  0  0  0  0  0  0  0  0  0
   -6.0460   25.7424  -29.3533 H   0  0  0  0  0  0  0  0  0  0  0  0
   -5.8995   25.8237  -31.1674 H   0  0  0  0  0  0  0  0  0  0  0  0
   -6.7194   23.2249  -29.8994 H   0  0  0  0  0  0  0  0  0  0  0  0
   -7.9211   24.5961  -30.0215 H   0  0  0  0  0  0  0  0  0  0  0  0
   -8.2979   24.1757  -32.1671 H   0  0  0  0  0  0  0  0  0  0  0  0
   -6.5203   24.2093  -32.5267 H   0  0  0  0  0  0  0  0  0  0  0  0
   -9.6231   18.7938  -31.5345 H   0  0  0  0  0  0  0  0  0  0  0  0
   -8.4301   16.6872  -32.2334 H   0  0  0  0  0  0  0  0  0  0  0  0
   -6.1120   16.8071  -33.1738 H   0  0  0  0  0  0  0  0  0  0  0  0
   -4.9615   19.0322  -33.4314 H   0  0  0  0  0  0  0  0  0  0  0  0
   -3.6365   24.0349  -26.1669 H   0  0  0  0  0  0  0  0  0  0  0  0
   -2.7092   26.3430  -26.0138 H   0  0  0  0  0  0  0  0  0  0  0  0
  1  2  1  0
  2  3  1  0
  3  4  2  0
  4  5  1  0
  5  6  2  0
  6  7  1  0
  7  8  1  0
  8  9  2  0
  9 10  1  0
 10 11  2  0
 11 12  1  0
 12 13  2  0
 13 14  1  0
 14 15  1  0
 15 16  2  0
 15 17  1  0
 17 18  1  0
 18 19  1  0
 19 20  1  0
 20 21  1  0
 21 22  2  0
 21 23  1  0
 23 24  2  0
 24 25  1  0
 25 26  2  0
 26 27  1  0
 27 28  2  0
 28 29  1  0
 29 30  2  0
  6 31  1  0
 31 32  2  0
 32  3  1  0
 13  8  1  0
 29 20  1  0
 28 23  1  0
  1 33  1  0
  1 34  1  0
  1 35  1  0
  4 36  1  0
  5 37  1  0
  9 38  1  0
 10 39  1  0
 11 40  1  0
 12 41  1  0
 17 42  1  0
 17 43  1  0
 18 44  1  0
 18 45  1  0
 19 46  1  0
 19 47  1  0
 24 48  1  0
 25 49  1  0
 26 50  1  0
 27 51  1  0
 31 52  1  0
 32 53  1  0
M  CHG  1  14  -1
M  END
>  <UniqueID>  (2) 
2

>  <SMILES>  (2) 
COc1ccc(Sc2ccccc2[N-]C(=O)CCCN2C(=O)c3ccccc3C2=O)cc1

>  <Energy>  (2) 
85.11832536161171

>  <Genealogy>  (2) 
COc1ccc(Sc2ccccc2[N-]C(=O)CCCN2C(=O)c3ccccc3C2=O)cc1 (protonated)
COc1ccc(Sc2ccccc2[N-]C(=O)CCCN2C(=O)c3ccccc3C2=O)cc1 (3D coordinates assigned)
COc1ccc(Sc2ccccc2[N-]C(=O)CCCN2C(=O)c3ccccc3C2=O)cc1 (nonaromatic ring conformer: 85.11832536161171 kcal/mol)

>  <smiles>  (2) 
COc1ccc(Sc2ccccc2NC(=O)CCCN2C(=O)c3ccccc3C2=O)cc1

>  <score_type>  (2) 
oracle

>  <origin>  (2) 
adgpu

>  <m_score__min__energy>  (2) 
-11.84

>  <m_primary>  (2) 
energy

$$$$
2:0
     RDKit          3D

 53 56  0  0  0  0  0  0  0  0999 V2000
    0.6260   24.9150  -27.8930 O   0  0  0  0  0  0  0  0  0  0  0  0
   -0.8740   24.8330  -27.9310 S   0  0  0  0  0  0  0  0  0  0  0  0
   -1.3360   25.1980  -29.3140 O   0  0  0  0  0  0  0  0  0  0  0  0
   -1.3550   23.1760  -27.5450 C   0  0  0  0  0  0  0  0  0  0  0  0
   -0.9190   22.5770  -26.3550 C   0  0  0  0  0  0  0  0  0  0  0  0
   -1.2640   21.2950  -26.0650 N   0  0  0  0  0  0  0  0  0  0  0  0
   -2.0350   20.5550  -26.9050 C   0  0  0  0  0  0  0  0  0  0  0  0
   -2.4940   21.1060  -28.1010 C   0  0  0  0  0  0  0  0  0  0  0  0
   -2.1570   22.4260  -28.4280 C   0  0  0  0  0  0  0  0  0  0  0  0
   -2.6300   22.9990  -29.6560 N   0  0  0  0  0  0  0  0  0  0  0  0
   -2.0060   22.6610  -30.9230 C   0  0  0  0  0  0  0  0  0  0  0  0
   -2.8490   21.6330  -31.6930 C   0  0  0  0  0  0  0  0  0  0  0  0
   -4.3060   21.6410  -31.3980 N   0  0  0  0  0  0  0  0  0  0  0  0
   -5.1660   20.6880  -32.1000 C   0  0  0  0  0  0  0  0  0  0  0  0
   -4.6260   19.7230  -32.9880 C   0  0  0  0  0  0  0  0  0  0  0  0
   -5.4530   18.8150  -33.6550 C   0  0  0  0  0  0  0  0  0  0  0  0
   -6.8300   18.8390  -33.4560 C   0  0  0  0  0  0  0  0  0  0  0  0
   -7.3900   19.7720  -32.5830 C   0  0  0  0  0  0  0  0  0  0  0  0
   -9.1250   19.7950  -32.3260 Cl  0  0  0  0  0  0  0  0  0  0  0  0
   -6.5710   20.6850  -31.9110 C   0  0  0  0  0  0  0  0  0  0  0  0
   -4.9000   22.4530  -30.3060 C   0  0  0  0  0  0  0  0  0  0  0  0
   -3.9760   23.5290  -29.7480 C   0  0  0  0  0  0  0  0  0  0  0  0
   -1.5520   25.9480  -26.7630 N   0  0  0  0  0  0  0  0  0  0  0  0
   -1.6960   25.3320  -25.4200 C   0  0  0  0  0  0  0  0  0  0  0  0
   -0.8790   26.0290  -24.3200 C   0  0  0  0  0  0  0  0  0  0  0  0
    0.5300   26.3370  -24.8210 C   0  0  0  0  0  0  0  0  0  0  0  0
    0.5090   27.2230  -26.0780 C   0  0  0  0  0  0  0  0  0  0  0  0
   -0.8620   27.2550  -26.7770 C   0  0  0  0  0  0  0  0  0  0  0  0
   -0.2943   23.1477  -25.6522 H   0  0  0  0  0  0  0  0  0  0  0  0
   -2.2973   19.5199  -26.6409 H   0  0  0  0  0  0  0  0  0  0  0  0
   -3.1165   20.5083  -28.7831 H   0  0  0  0  0  0  0  0  0  0  0  0
   -1.9072   23.5729  -31.5302 H   0  0  0  0  0  0  0  0  0  0  0  0
   -1.0168   22.2239  -30.7218 H   0  0  0  0  0  0  0  0  0  0  0  0
   -2.7211   21.8286  -32.7679 H   0  0  0  0  0  0  0  0  0  0  0  0
   -2.4842   20.6462  -31.3717 H   0  0  0  0  0  0  0  0  0  0  0  0
   -3.5392   19.6886  -33.1544 H   0  0  0  0  0  0  0  0  0  0  0  0
   -5.0127   18.0769  -34.3415 H   0  0  0  0  0  0  0  0  0  0  0  0
   -7.4758   18.1236  -33.9861 H   0  0  0  0  0  0  0  0  0  0  0  0
   -7.0251   21.4138  -31.2235 H   0  0  0  0  0  0  0  0  0  0  0  0
   -5.8043   22.9438  -30.6950 H   0  0  0  0  0  0  0  0  0  0  0  0
   -5.1109   21.7599  -29.4783 H   0  0  0  0  0  0  0  0  0  0  0  0
   -3.9827   24.4027  -30.4162 H   0  0  0  0  0  0  0  0  0  0  0  0
   -4.3229   23.8333  -28.7495 H   0  0  0  0  0  0  0  0  0  0  0  0
   -2.7581   25.3665  -25.1360 H   0  0  0  0  0  0  0  0  0  0  0  0
   -1.3110   24.3046  -25.4989 H   0  0  0  0  0  0  0  0  0  0  0  0
   -1.3772   26.9683  -24.0380 H   0  0  0  0  0  0  0  0  0  0  0  0
   -0.8108   25.3620  -23.4480 H   0  0  0  0  0  0  0  0  0  0  0  0
    1.0840   26.8590  -24.0268 H   0  0  0  0  0  0  0  0  0  0  0  0
    1.0155   25.3851  -25.0821 H   0  0  0  0  0  0  0  0  0  0  0  0
    0.7763   28.2494  -25.7863 H   0  0  0  0  0  0  0  0  0  0  0  0
    1.2285   26.7943  -26.7911 H   0  0  0  0  0  0  0  0  0  0  0  0
   -1.4984   27.9921  -26.2654 H   0  0  0  0  0  0  0  0  0  0  0  0
   -0.6866   27.5214  -27.8297 H   0  0  0  0  0  0  0  0  0  0  0  0
  1  2  2  0
  2  3  2  0
  2  4  1  0
  4  5  2  0
  5  6  1  0
  6  7  2  0
  7  8  1  0
  8  9  2  0
  9 10  1  0
 10 11  1  0
 11 12  1  0
 12 13  1  0
 13 14  1  0
 14 15  2  0
 15 16  1  0
 16 17  2  0
 17 18  1  0
 18 19  1  0
 18 20  2  0
 13 21  1  0
 21 22  1  0
  2 23  1  0
 23 24  1  0
 24 25  1  0
 25 26  1  0
 26 27  1  0
 27 28  1  0
  9  4  1  0
 22 10  1  0
 28 23  1  0
 20 14  1  0
  5 29  1  0
  7 30  1  0
  8 31  1  0
 11 32  1  0
 11 33  1  0
 12 34  1  0
 12 35  1  0
 15 36  1  0
 16 37  1  0
 17 38  1  0
 20 39  1  0
 21 40  1  0
 21 41  1  0
 22 42  1  0
 22 43  1  0
 24 44  1  0
 24 45  1  0
 25 46  1  0
 25 47  1  0
 26 48  1  0
 26 49  1  0
 27 50  1  0
 27 51  1  0
 28 52  1  0
 28 53  1  0
M  END
>  <UniqueID>  (3) 
3

>  <SMILES>  (3) 
O=S(=O)(c1cnccc1N1CCN(c2cccc(Cl)c2)CC1)N1CCCCC1

>  <Energy>  (3) 
76.50864933676817

>  <Genealogy>  (3) 
O=S(=O)(c1cnccc1N1CCN(c2cccc(Cl)c2)CC1)N1CCCCC1 (3D coordinates assigned)
O=S(=O)(c1cnccc1N1CCN(c2cccc(Cl)c2)CC1)N1CCCCC1 (nonaromatic ring conformer: 76.50864933676817 kcal/mol)

>  <smiles>  (3) 
O=S(=O)(c1cnccc1N1CCN(c2cccc(Cl)c2)CC1)N1CCCCC1

>  <score_type>  (3) 
oracle

>  <origin>  (3) 
adgpu

>  <m_score__min__energy>  (3) 
-9.7100000000000009

>  <m_primary>  (3) 
energy

$$$$
3:0
     RDKit          3D

 38 40  0  0  0  0  0  0  0  0999 V2000
   -0.3960   21.9460  -34.6040 N   0  0  0  0  0  0  0  0  0  0  0  0
   -0.7880   20.9480  -33.2500 S   0  0  0  0  0  0  0  0  0  0  0  0
   -0.7650   21.7720  -31.9930 O   0  0  0  0  0  0  0  0  0  0  0  0
    0.2310   19.8510  -33.1260 O   0  0  0  0  0  0  0  0  0  0  0  0
   -2.3900   20.2530  -33.4760 C   0  0  0  0  0  0  0  0  0  0  0  0
   -3.5350   21.0340  -33.2680 C   0  0  0  0  0  0  0  0  0  0  0  0
   -4.8070   20.4770  -33.4370 C   0  0  0  0  0  0  0  0  0  0  0  0
   -4.9480   19.1400  -33.8280 C   0  0  0  0  0  0  0  0  0  0  0  0
   -6.2650   18.5920  -33.9620 N   0  0  0  0  0  0  0  0  0  0  0  0
   -6.9990   17.8600  -32.9690 C   0  0  0  0  0  0  0  0  0  0  0  0
   -6.9570   16.6020  -32.9940 O   0  0  0  0  0  0  0  0  0  0  0  0
   -7.7200   18.5440  -31.8410 C   0  0  0  0  0  0  0  0  0  0  0  0
   -9.1220   19.5390  -32.4630 S   0  0  0  0  0  0  0  0  0  0  0  0
   -8.4000   21.1230  -32.0360 C   0  0  0  0  0  0  0  0  0  0  0  0
   -9.0670   22.2870  -32.1110 N   0  0  0  0  0  0  0  0  0  0  0  0
   -8.2250   23.2250  -31.7130 N   0  0  0  0  0  0  0  0  0  0  0  0
   -7.0680   22.6050  -31.4050 C   0  0  0  0  0  0  0  0  0  0  0  0
   -5.8610   23.3070  -30.9200 C   0  0  0  0  0  0  0  0  0  0  0  0
   -5.7960   24.7120  -30.9390 C   0  0  0  0  0  0  0  0  0  0  0  0
   -4.6520   25.3730  -30.4810 C   0  0  0  0  0  0  0  0  0  0  0  0
   -3.5630   24.6400  -30.0020 C   0  0  0  0  0  0  0  0  0  0  0  0
   -2.4260   25.2980  -29.5470 O   0  0  0  0  0  0  0  0  0  0  0  0
   -3.6180   23.2440  -29.9780 C   0  0  0  0  0  0  0  0  0  0  0  0
   -4.7600   22.5780  -30.4350 C   0  0  0  0  0  0  0  0  0  0  0  0
   -7.1380   21.2710  -31.5920 N   0  0  0  0  0  0  0  0  0  0  0  0
   -3.8000   18.3480  -33.9970 C   0  0  0  0  0  0  0  0  0  0  0  0
   -2.5290   18.9050  -33.8290 C   0  0  0  0  0  0  0  0  0  0  0  0
   -1.2490   22.5060  -34.8270 H   0  0  0  0  0  0  0  0  0  0  0  0
   -3.4331   22.0882  -32.9709 H   0  0  0  0  0  0  0  0  0  0  0  0
   -5.7014   21.0928  -33.2617 H   0  0  0  0  0  0  0  0  0  0  0  0
   -8.1009   17.7829  -31.1442 H   0  0  0  0  0  0  0  0  0  0  0  0
   -7.0137   19.2159  -31.3314 H   0  0  0  0  0  0  0  0  0  0  0  0
   -6.6498   25.2940  -31.3162 H   0  0  0  0  0  0  0  0  0  0  0  0
   -4.6093   26.4720  -30.4978 H   0  0  0  0  0  0  0  0  0  0  0  0
   -2.7613   22.6675  -29.5989 H   0  0  0  0  0  0  0  0  0  0  0  0
   -4.7973   21.4788  -30.4150 H   0  0  0  0  0  0  0  0  0  0  0  0
   -3.9017   17.2854  -34.2626 H   0  0  0  0  0  0  0  0  0  0  0  0
   -1.6343   18.2819  -33.9747 H   0  0  0  0  0  0  0  0  0  0  0  0
  1  2  1  0
  2  3  2  0
  2  4  2  0
  2  5  1  0
  5  6  2  0
  6  7  1  0
  7  8  2  0
  8  9  1  0
  9 10  1  0
 10 11  2  0
 10 12  1  0
 12 13  1  0
 13 14  1  0
 14 15  2  0
 15 16  1  0
 16 17  1  0
 17 18  1  0
 18 19  2  0
 19 20  1  0
 20 21  2  0
 21 22  1  0
 21 23  1  0
 23 24  2  0
 17 25  2  0
  8 26  1  0
 26 27  2  0
 27  5  1  0
 25 14  1  0
 24 18  1  0
  1 28  1  0
  6 29  1  0
  7 30  1  0
 12 31  1  0
 12 32  1  0
 19 33  1  0
 20 34  1  0
 23 35  1  0
 24 36  1  0
 26 37  1  0
 27 38  1  0
M  CHG  4   1  -1   9  -1  16  -1  22  -1
M  END
>  <UniqueID>  (4) 
4

>  <SMILES>  (4) 
[NH-]S(=O)(=O)c1ccc([N-]C(=O)CSc2n[n-]c(-c3ccc([O-])cc3)n2)cc1

>  <Energy>  (4) 
74.3903013185686

>  <Genealogy>  (4) 
[NH-]S(=O)(=O)c1ccc([N-]C(=O)CSc2n[n-]c(-c3ccc([O-])cc3)n2)cc1 (protonated)
[NH-]S(=O)(=O)c1ccc([N-]C(=O)CSc2n[n-]c(-c3ccc([O-])cc3)n2)cc1 (3D coordinates assigned)
[NH-]S(=O)(=O)c1ccc([N-]C(=O)CSc2n[n-]c(-c3ccc([O-])cc3)n2)cc1 (optimized conformer: 74.3903013185686 kcal/mol)

>  <smiles>  (4) 
NS(=O)(=O)c1ccc(NC(=O)CSc2n[nH]c(-c3ccc(O)cc3)n2)cc1

>  <score_type>  (4) 
oracle

>  <origin>  (4) 
adgpu

>  <m_score__min__energy>  (4) 
-11.800000000000001

>  <m_primary>  (4) 
energy

$$$$
4:0
     RDKit          3D

 59 62  0  0  0  0  0  0  0  0999 V2000
   -5.1220   26.4720  -30.4830 O   0  0  0  0  0  0  0  0  0  0  0  0
   -4.8010   25.2580  -30.3990 C   0  0  0  0  0  0  0  0  0  0  0  0
   -3.4550   24.9190  -30.0500 N   0  0  0  0  0  0  0  0  0  0  0  0
   -2.8850   23.6130  -30.2000 C   0  0  0  0  0  0  0  0  0  0  0  0
   -2.1350   23.0710  -29.1490 C   0  0  0  0  0  0  0  0  0  0  0  0
   -1.6170   21.7780  -29.2500 C   0  0  0  0  0  0  0  0  0  0  0  0
   -1.8630   21.0100  -30.3910 C   0  0  0  0  0  0  0  0  0  0  0  0
   -2.6190   21.5370  -31.4500 C   0  0  0  0  0  0  0  0  0  0  0  0
   -3.0060   20.5310  -32.8520 S   0  0  0  0  0  0  0  0  0  0  0  0
   -4.0340   21.2380  -33.6940 O   0  0  0  0  0  0  0  0  0  0  0  0
   -3.6240   19.2500  -32.3600 O   0  0  0  0  0  0  0  0  0  0  0  0
   -1.6120   20.1330  -33.8400 N   0  0  0  0  0  0  0  0  0  0  0  0
   -1.1430   18.7380  -33.6580 C   0  0  0  0  0  0  0  0  0  0  0  0
    0.2980   18.6280  -33.1350 C   0  0  0  0  0  0  0  0  0  0  0  0
    0.5530   19.6640  -32.0440 C   0  0  0  0  0  0  0  0  0  0  0  0
    0.3340   21.0940  -32.5630 C   0  0  0  0  0  0  0  0  0  0  0  0
   -0.5570   21.1660  -33.8140 C   0  0  0  0  0  0  0  0  0  0  0  0
   -3.1340   22.8380  -31.3470 C   0  0  0  0  0  0  0  0  0  0  0  0
   -5.7980   24.2110  -30.7170 C   0  0  0  0  0  0  0  0  0  0  0  0
   -6.2470   23.3290  -29.7200 C   0  0  0  0  0  0  0  0  0  0  0  0
   -7.1380   22.3000  -30.0350 C   0  0  0  0  0  0  0  0  0  0  0  0
   -7.6090   22.1480  -31.3460 C   0  0  0  0  0  0  0  0  0  0  0  0
   -8.7320   20.8460  -31.7330 S   0  0  0  0  0  0  0  0  0  0  0  0
   -9.1170   20.1350  -30.4640 O   0  0  0  0  0  0  0  0  0  0  0  0
   -9.9770   21.4400  -32.3350 O   0  0  0  0  0  0  0  0  0  0  0  0
   -7.9580   19.7370  -32.8470 N   0  0  0  0  0  0  0  0  0  0  0  0
   -7.8010   18.4080  -32.2310 C   0  0  0  0  0  0  0  0  0  0  0  0
   -7.0860   17.4700  -33.2100 C   0  0  0  0  0  0  0  0  0  0  0  0
   -5.8150   17.9890  -33.5550 O   0  0  0  0  0  0  0  0  0  0  0  0
   -5.9690   19.2400  -34.1990 C   0  0  0  0  0  0  0  0  0  0  0  0
   -6.6460   20.2540  -33.2670 C   0  0  0  0  0  0  0  0  0  0  0  0
   -7.1770   23.0380  -32.3400 C   0  0  0  0  0  0  0  0  0  0  0  0
   -6.2670   24.0540  -32.0310 C   0  0  0  0  0  0  0  0  0  0  0  0
   -1.9534   23.6653  -28.2414 H   0  0  0  0  0  0  0  0  0  0  0  0
   -1.0137   21.3631  -28.4291 H   0  0  0  0  0  0  0  0  0  0  0  0
   -1.4625   19.9878  -30.4598 H   0  0  0  0  0  0  0  0  0  0  0  0
   -1.8108   18.2391  -32.9403 H   0  0  0  0  0  0  0  0  0  0  0  0
   -1.1592   18.2640  -34.6505 H   0  0  0  0  0  0  0  0  0  0  0  0
    0.4569   17.6210  -32.7218 H   0  0  0  0  0  0  0  0  0  0  0  0
    0.9929   18.8111  -33.9678 H   0  0  0  0  0  0  0  0  0  0  0  0
   -0.1357   19.4782  -31.2067 H   0  0  0  0  0  0  0  0  0  0  0  0
    1.5995   19.5716  -31.7181 H   0  0  0  0  0  0  0  0  0  0  0  0
   -0.1391   21.6848  -31.7648 H   0  0  0  0  0  0  0  0  0  0  0  0
    1.3208   21.4883  -32.8471 H   0  0  0  0  0  0  0  0  0  0  0  0
   -1.0364   22.1555  -33.8447 H   0  0  0  0  0  0  0  0  0  0  0  0
    0.0908   20.9921  -34.6858 H   0  0  0  0  0  0  0  0  0  0  0  0
   -3.7360   23.2543  -32.1681 H   0  0  0  0  0  0  0  0  0  0  0  0
   -5.8949   23.4493  -28.6849 H   0  0  0  0  0  0  0  0  0  0  0  0
   -7.4715   21.6055  -29.2498 H   0  0  0  0  0  0  0  0  0  0  0  0
   -7.2061   18.4990  -31.3102 H   0  0  0  0  0  0  0  0  0  0  0  0
   -8.7925   17.9975  -31.9891 H   0  0  0  0  0  0  0  0  0  0  0  0
   -6.9588   16.4840  -32.7392 H   0  0  0  0  0  0  0  0  0  0  0  0
   -7.6928   17.3788  -34.1229 H   0  0  0  0  0  0  0  0  0  0  0  0
   -4.9784   19.6212  -34.4877 H   0  0  0  0  0  0  0  0  0  0  0  0
   -6.6011   19.1027  -35.0887 H   0  0  0  0  0  0  0  0  0  0  0  0
   -6.0149   20.4151  -32.3806 H   0  0  0  0  0  0  0  0  0  0  0  0
   -6.7816   21.2068  -33.7997 H   0  0  0  0  0  0  0  0  0  0  0  0
   -7.5558   22.9365  -33.3677 H   0  0  0  0  0  0  0  0  0  0  0  0
   -5.9168   24.7338  -32.8217 H   0  0  0  0  0  0  0  0  0  0  0  0
  1  2  2  0
  2  3  1  0
  3  4  1  0
  4  5  2  0
  5  6  1  0
  6  7  2  0
  7  8  1  0
  8  9  1  0
  9 10  2  0
  9 11  2  0
  9 12  1  0
 12 13  1  0
 13 14  1  0
 14 15  1  0
 15 16  1  0
 16 17  1  0
  8 18  2  0
  2 19  1  0
 19 20  2  0
 20 21  1  0
 21 22  2  0
 22 23  1  0
 23 24  2  0
 23 25  2  0
 23 26  1  0
 26 27  1  0
 27 28  1  0
 28 29  1  0
 29 30  1  0
 30 31  1  0
 22 32  1  0
 32 33  2  0
 18  4  1  0
 33 19  1  0
 17 12  1  0
 31 26  1  0
  5 34  1  0
  6 35  1  0
  7 36  1  0
 13 37  1  0
 13 38  1  0
 14 39  1  0
 14 40  1  0
 15 41  1  0
 15 42  1  0
 16 43  1  0
 16 44  1  0
 17 45  1  0
 17 46  1  0
 18 47  1  0
 20 48  1  0
 21 49  1  0
 27 50  1  0
 27 51  1  0
 28 52  1  0
 28 53  1  0
 30 54  1  0
 30 55  1  0
 31 56  1  0
 31 57  1  0
 32 58  1  0
 33 59  1  0
M  CHG  1   3  -1
M  END
>  <UniqueID>  (5) 
5

>  <SMILES>  (5) 
O=C([N-]c1cccc(S(=O)(=O)N2CCCCC2)c1)c1ccc(S(=O)(=O)N2CCOCC2)cc1

>  <Energy>  (5) 
72.4287230246141

>  <Genealogy>  (5) 
O=C([N-]c1cccc(S(=O)(=O)N2CCCCC2)c1)c1ccc(S(=O)(=O)N2CCOCC2)cc1 (protonated)
O=C([N-]c1cccc(S(=O)(=O)N2CCCCC2)c1)c1ccc(S(=O)(=O)N2CCOCC2)cc1 (3D coordinates assigned)
O=C([N-]c1cccc(S(=O)(=O)N2CCCCC2)c1)c1ccc(S(=O)(=O)N2CCOCC2)cc1 (nonaromatic ring conformer: 72.4287230246141 kcal/mol)

>  <smiles>  (5) 
O=C(Nc1cccc(S(=O)(=O)N2CCCCC2)c1)c1ccc(S(=O)(=O)N2CCOCC2)cc1

>  <score_type>  (5) 
oracle

>  <origin>  (5) 
adgpu

>  <m_score__min__energy>  (5) 
-13.369999999999999

>  <m_primary>  (5) 
energy

$$$$
5:0
     RDKit          3D

 48 50  0  0  0  0  0  0  0  0999 V2000
   -8.3150   19.4890  -31.6190 C   0  0  0  0  0  0  0  0  0  0  0  0
   -7.6210   20.8270  -31.6680 C   0  0  0  0  0  0  0  0  0  0  0  0
   -8.2910   21.9310  -31.1190 C   0  0  0  0  0  0  0  0  0  0  0  0
   -7.7170   23.1990  -31.1430 C   0  0  0  0  0  0  0  0  0  0  0  0
   -6.4620   23.3960  -31.7150 C   0  0  0  0  0  0  0  0  0  0  0  0
   -5.9060   24.7180  -31.7060 N   0  0  0  0  0  0  0  0  0  0  0  0
   -5.2890   25.3410  -30.5760 C   0  0  0  0  0  0  0  0  0  0  0  0
   -5.9860   25.9900  -29.7490 O   0  0  0  0  0  0  0  0  0  0  0  0
   -3.8640   25.2980  -30.4510 N   0  0  0  0  0  0  0  0  0  0  0  0
   -3.1000   24.3050  -29.7470 C   0  0  0  0  0  0  0  0  0  0  0  0
   -3.4210   22.9370  -29.8170 C   0  0  0  0  0  0  0  0  0  0  0  0
   -2.6430   21.9940  -29.1380 C   0  0  0  0  0  0  0  0  0  0  0  0
   -1.5320   22.4050  -28.3930 C   0  0  0  0  0  0  0  0  0  0  0  0
   -0.7310   21.4330  -27.6950 C   0  0  0  0  0  0  0  0  0  0  0  0
   -0.0870   20.6520  -27.1350 N   0  0  0  0  0  0  0  0  0  0  0  0
   -1.1920   23.7620  -28.3420 C   0  0  0  0  0  0  0  0  0  0  0  0
   -1.9690   24.7070  -29.0210 C   0  0  0  0  0  0  0  0  0  0  0  0
   -1.6130   26.0500  -28.9690 O   0  0  0  0  0  0  0  0  0  0  0  0
   -5.8030   22.3170  -32.3340 C   0  0  0  0  0  0  0  0  0  0  0  0
   -4.6130   22.5500  -33.0160 O   0  0  0  0  0  0  0  0  0  0  0  0
   -6.3590   21.0170  -32.2970 C   0  0  0  0  0  0  0  0  0  0  0  0
   -5.4460   19.6660  -33.0310 S   0  0  0  0  0  0  0  0  0  0  0  0
   -6.0390   19.3310  -34.3700 O   0  0  0  0  0  0  0  0  0  0  0  0
   -5.5490   18.4300  -32.1820 O   0  0  0  0  0  0  0  0  0  0  0  0
   -3.7050   20.0600  -33.2620 C   0  0  1  0  0  0  0  0  0  0  0  0
   -2.9720   20.3380  -31.9660 C   0  0  0  0  0  0  0  0  0  0  0  0
   -1.5220   19.9730  -32.2670 C   0  0  0  0  0  0  0  0  0  0  0  0
   -1.4990   19.2010  -33.5220 N   0  0  0  0  0  0  0  0  0  0  0  0
   -0.7290   17.9550  -33.3900 C   0  0  0  0  0  0  0  0  0  0  0  0
   -2.8960   18.9380  -33.8810 C   0  0  0  0  0  0  0  0  0  0  0  0
   -8.4682   19.1936  -30.5705 H   0  0  0  0  0  0  0  0  0  0  0  0
   -9.2888   19.5623  -32.1254 H   0  0  0  0  0  0  0  0  0  0  0  0
   -7.6942   18.7352  -32.1254 H   0  0  0  0  0  0  0  0  0  0  0  0
   -9.2828   21.7927  -30.6637 H   0  0  0  0  0  0  0  0  0  0  0  0
   -8.2583   24.0517  -30.7071 H   0  0  0  0  0  0  0  0  0  0  0  0
   -4.2879   22.6077  -30.4086 H   0  0  0  0  0  0  0  0  0  0  0  0
   -2.9049   20.9269  -29.1896 H   0  0  0  0  0  0  0  0  0  0  0  0
   -0.3121   24.0861  -27.7669 H   0  0  0  0  0  0  0  0  0  0  0  0
   -3.7624   20.9422  -33.9165 H   0  0  0  0  0  0  0  0  0  0  0  0
   -3.0574   21.3994  -31.6900 H   0  0  0  0  0  0  0  0  0  0  0  0
   -3.3823   19.7665  -31.1204 H   0  0  0  0  0  0  0  0  0  0  0  0
   -0.9223   20.8882  -32.3804 H   0  0  0  0  0  0  0  0  0  0  0  0
   -1.0984   19.3783  -31.4442 H   0  0  0  0  0  0  0  0  0  0  0  0
   -0.5860   17.7235  -32.3242 H   0  0  0  0  0  0  0  0  0  0  0  0
   -1.2766   17.1326  -33.8735 H   0  0  0  0  0  0  0  0  0  0  0  0
    0.2515   18.0769  -33.8735 H   0  0  0  0  0  0  0  0  0  0  0  0
   -3.0162   18.9384  -34.9744 H   0  0  0  0  0  0  0  0  0  0  0  0
   -3.2271   17.9543  -33.5168 H   0  0  0  0  0  0  0  0  0  0  0  0
  1  2  1  0
  2  3  2  0
  3  4  1  0
  4  5  2  0
  5  6  1  0
  6  7  1  0
  7  8  2  0
  7  9  1  0
  9 10  1  0
 10 11  2  0
 11 12  1  0
 12 13  2  0
 13 14  1  0
 14 15  3  0
 13 16  1  0
 16 17  2  0
 17 18  1  0
  5 19  1  0
 19 20  1  0
 19 21  2  0
 21 22  1  0
 22 23  2  0
 22 24  2  0
 22 25  1  0
 25 26  1  0
 26 27  1  0
 27 28  1  0
 28 29  1  0
 28 30  1  0
 21  2  1  0
 30 25  1  0
 17 10  1  0
  1 31  1  0
  1 32  1  0
  1 33  1  0
  3 34  1  0
  4 35  1  0
 11 36  1  0
 12 37  1  0
 16 38  1  0
 25 39  1  6
 26 40  1  0
 26 41  1  0
 27 42  1  0
 27 43  1  0
 29 44  1  0
 29 45  1  0
 29 46  1  0
 30 47  1  0
 30 48  1  0
M  CHG  4   6  -1   9  -1  18  -1  20  -1
M  END
>  <UniqueID>  (6) 
6

>  <SMILES>  (6) 
Cc1ccc([N-]C(=O)[N-]c2ccc(C#N)cc2[O-])c([O-])c1S(=O)(=O)[C@H]1CCN(C)C1

>  <Energy>  (6) 
62.29074636265609

>  <Genealogy>  (6) 
Cc1ccc([N-]C(=O)[N-]c2ccc(C#N)cc2[O-])c([O-])c1S(=O)(=O)C1CCN(C)C1 (protonated)
Cc1ccc([N-]C(=O)[N-]c2ccc(C#N)cc2[O-])c([O-])c1S(=O)(=O)[C@H]1CCN(C)C1 (chirality)
Cc1ccc([N-]C(=O)[N-]c2ccc(C#N)cc2[O-])c([O-])c1S(=O)(=O)[C@H]1CCN(C)C1 (3D coordinates assigned)
Cc1ccc([N-]C(=O)[N-]c2ccc(C#N)cc2[O-])c([O-])c1S(=O)(=O)[C@H]1CCN(C)C1 (nonaromatic ring conformer: 62.29074636265609 kcal/mol)

>  <smiles>  (6) 
Cc1ccc(NC(=O)Nc2ccc(C#N)cc2O)c(O)c1S(=O)(=O)C1CCN(C)C1

>  <score_type>  (6) 
oracle

>  <origin>  (6) 
adgpu

>  <m_score__min__energy>  (6) 
-15.77

>  <m_primary>  (6) 
energy

$$$$
6:0
     RDKit          3D

 44 46  0  0  0  0  0  0  0  0999 V2000
   -6.2070   15.9070  -33.9320 C   0  0  0  0  0  0  0  0  0  0  0  0
   -7.2800   16.7290  -33.4790 O   0  0  0  0  0  0  0  0  0  0  0  0
   -7.1300   18.0460  -33.0210 C   0  0  0  0  0  0  0  0  0  0  0  0
   -8.0310   18.6380  -32.1130 C   0  0  0  0  0  0  0  0  0  0  0  0
   -7.8440   19.9610  -31.6930 C   0  0  0  0  0  0  0  0  0  0  0  0
   -6.7590   20.7080  -32.1770 C   0  0  0  0  0  0  0  0  0  0  0  0
   -6.4970   22.3690  -31.6540 S   0  0  0  0  0  0  0  0  0  0  0  0
   -6.7160   22.4870  -30.1710 O   0  0  0  0  0  0  0  0  0  0  0  0
   -7.4640   23.2650  -32.3780 O   0  0  0  0  0  0  0  0  0  0  0  0
   -4.8670   22.8210  -32.0370 N   0  0  0  0  0  0  0  0  0  0  0  0
   -3.8180   23.0200  -31.0790 C   0  0  0  0  0  0  0  0  0  0  0  0
   -3.0030   21.9360  -30.7490 C   0  0  0  0  0  0  0  0  0  0  0  0
   -1.9620   22.0860  -29.8300 C   0  0  0  0  0  0  0  0  0  0  0  0
   -1.7090   23.3310  -29.2230 C   0  0  0  0  0  0  0  0  0  0  0  0
   -0.5740   23.4620  -28.2720 C   0  0  0  0  0  0  0  0  0  0  0  0
    0.5840   23.6970  -28.7130 O   0  0  0  0  0  0  0  0  0  0  0  0
   -0.7980   23.3990  -26.8560 N   0  0  0  0  0  0  0  0  0  0  0  0
   -0.7480   24.4910  -25.9240 C   0  0  0  0  0  0  0  0  0  0  0  0
    0.3740   24.7230  -25.1050 C   0  0  0  0  0  0  0  0  0  0  0  0
    0.3820   25.7970  -24.2080 C   0  0  0  0  0  0  0  0  0  0  0  0
   -0.7330   26.6320  -24.1040 C   0  0  0  0  0  0  0  0  0  0  0  0
   -1.8600   26.3910  -24.8920 C   0  0  0  0  0  0  0  0  0  0  0  0
   -1.8760   25.3180  -25.7950 C   0  0  0  0  0  0  0  0  0  0  0  0
   -3.0040   25.0730  -26.5780 O   0  0  0  0  0  0  0  0  0  0  0  0
   -2.5440   24.4250  -29.5500 C   0  0  0  0  0  0  0  0  0  0  0  0
   -2.3580   25.6760  -28.9730 O   0  0  0  0  0  0  0  0  0  0  0  0
   -3.5860   24.2660  -30.4730 C   0  0  0  0  0  0  0  0  0  0  0  0
   -5.8600   20.1170  -33.0760 C   0  0  0  0  0  0  0  0  0  0  0  0
   -6.0440   18.7950  -33.4940 C   0  0  0  0  0  0  0  0  0  0  0  0
   -5.6694   15.4952  -33.0652 H   0  0  0  0  0  0  0  0  0  0  0  0
   -6.6080   15.0828  -34.5402 H   0  0  0  0  0  0  0  0  0  0  0  0
   -5.5156   16.5088  -34.5402 H   0  0  0  0  0  0  0  0  0  0  0  0
   -8.8849   18.0583  -31.7325 H   0  0  0  0  0  0  0  0  0  0  0  0
   -8.5494   20.4157  -30.9819 H   0  0  0  0  0  0  0  0  0  0  0  0
   -3.1819   20.9563  -31.2162 H   0  0  0  0  0  0  0  0  0  0  0  0
   -1.3318   21.2206  -29.5772 H   0  0  0  0  0  0  0  0  0  0  0  0
    1.2473   24.0574  -25.1707 H   0  0  0  0  0  0  0  0  0  0  0  0
    1.2680   25.9841  -23.5836 H   0  0  0  0  0  0  0  0  0  0  0  0
   -0.7231   27.4787  -23.4018 H   0  0  0  0  0  0  0  0  0  0  0  0
   -2.7395   27.0458  -24.8042 H   0  0  0  0  0  0  0  0  0  0  0  0
   -3.0480   25.3570  -27.5490 H   0  0  0  0  0  0  0  0  0  0  0  0
   -4.2274   25.1234  -30.7251 H   0  0  0  0  0  0  0  0  0  0  0  0
   -5.0051   20.6963  -33.4548 H   0  0  0  0  0  0  0  0  0  0  0  0
   -5.3319   18.3403  -34.1984 H   0  0  0  0  0  0  0  0  0  0  0  0
  1  2  1  0
  2  3  1  0
  3  4  2  0
  4  5  1  0
  5  6  2  0
  6  7  1  0
  7  8  2  0
  7  9  2  0
  7 10  1  0
 10 11  1  0
 11 12  2  0
 12 13  1  0
 13 14  2  0
 14 15  1  0
 15 16  2  0
 15 17  1  0
 17 18  1  0
 18 19  2  0
 19 20  1  0
 20 21  2  0
 21 22  1  0
 22 23  2  0
 23 24  1  0
 14 25  1  0
 25 26  1  0
 25 27  2  0
  6 28  1  0
 28 29  2  0
 29  3  1  0
 27 11  1  0
 23 18  1  0
  1 30  1  0
  1 31  1  0
  1 32  1  0
  4 33  1  0
  5 34  1  0
 12 35  1  0
 13 36  1  0
 19 37  1  0
 20 38  1  0
 21 39  1  0
 22 40  1  0
 24 41  1  0
 27 42  1  0
 28 43  1  0
 29 44  1  0
M  CHG  3  10  -1  17  -1  26  -1
M  END
>  <UniqueID>  (7) 
7

>  <SMILES>  (7) 
COc1ccc(S(=O)(=O)[N-]c2ccc(C(=O)[N-]c3ccccc3O)c([O-])c2)cc1

>  <Energy>  (7) 
57.044893320251894

>  <Genealogy>  (7) 
COc1ccc(S(=O)(=O)[N-]c2ccc(C(=O)[N-]c3ccccc3O)c([O-])c2)cc1 (protonated)
COc1ccc(S(=O)(=O)[N-]c2ccc(C(=O)[N-]c3ccccc3O)c([O-])c2)cc1 (3D coordinates assigned)
COc1ccc(S(=O)(=O)[N-]c2ccc(C(=O)[N-]c3ccccc3O)c([O-])c2)cc1 (optimized conformer: 57.044893320251894 kcal/mol)

>  <smiles>  (7) 
COc1ccc(S(=O)(=O)Nc2ccc(C(=O)Nc3ccccc3O)c(O)c2)cc1

>  <score_type>  (7) 
oracle

>  <origin>  (7) 
adgpu

>  <m_score__min__energy>  (7) 
-13.02

>  <m_primary>  (7) 
energy

$$$$
7:0
     RDKit          3D

 55 58  0  0  0  0  0  0  0  0999 V2000
   -8.5140   18.2680  -31.6480 C   0  0  0  0  0  0  0  0  0  0  0  0
   -7.1930   17.8860  -32.3160 C   0  0  0  0  0  0  0  0  0  0  0  0
   -6.8020   18.8950  -33.3270 N   0  0  0  0  0  0  0  0  0  0  0  0
   -6.3410   20.1640  -32.6960 C   0  0  0  0  0  0  0  0  0  0  0  0
   -5.1290   20.7930  -33.3910 C   0  0  0  0  0  0  0  0  0  0  0  0
   -4.0710   19.7900  -33.5110 N   0  0  0  0  0  0  0  0  0  0  0  0
   -2.6950   20.1370  -33.2830 C   0  0  0  0  0  0  0  0  0  0  0  0
   -1.8550   19.9600  -34.2060 O   0  0  0  0  0  0  0  0  0  0  0  0
   -2.2500   20.6850  -31.9800 C   0  0  0  0  0  0  0  0  0  0  0  0
   -1.6100   19.8610  -31.0380 C   0  0  0  0  0  0  0  0  0  0  0  0
   -1.2240   20.3760  -29.7970 C   0  0  0  0  0  0  0  0  0  0  0  0
   -1.4710   21.7140  -29.4830 C   0  0  0  0  0  0  0  0  0  0  0  0
   -2.0940   22.5530  -30.4120 C   0  0  0  0  0  0  0  0  0  0  0  0
   -2.3120   23.8990  -30.0780 O   0  0  0  0  0  0  0  0  0  0  0  0
   -2.3610   24.3800  -28.7610 C   0  0  0  0  0  0  0  0  0  0  0  0
   -1.1630   24.7270  -28.1290 C   0  0  0  0  0  0  0  0  0  0  0  0
   -1.1800   25.1260  -26.7920 C   0  0  0  0  0  0  0  0  0  0  0  0
   -2.3550   25.1930  -26.1150 N   0  0  0  0  0  0  0  0  0  0  0  0
   -3.5400   24.8940  -26.7090 C   0  0  0  0  0  0  0  0  0  0  0  0
   -3.5790   24.5100  -28.0550 C   0  0  0  0  0  0  0  0  0  0  0  0
   -4.8470   24.2470  -28.6760 N   0  0  0  0  0  0  0  0  0  0  0  0
   -5.0870   24.4890  -30.0700 C   0  0  0  0  0  0  0  0  0  0  0  0
   -4.3510   25.2910  -30.7060 O   0  0  0  0  0  0  0  0  0  0  0  0
   -6.1790   23.8080  -30.7770 C   0  0  0  0  0  0  0  0  0  0  0  0
   -6.4050   23.8180  -32.1410 C   0  0  0  0  0  0  0  0  0  0  0  0
   -7.5430   23.0630  -32.3330 C   0  0  0  0  0  0  0  0  0  0  0  0
   -7.9430   22.6470  -31.0790 C   0  0  0  0  0  0  0  0  0  0  0  0
   -7.1110   23.1070  -30.1730 O   0  0  0  0  0  0  0  0  0  0  0  0
   -2.5020   22.0280  -31.6510 C   0  0  0  0  0  0  0  0  0  0  0  0
   -4.4080   18.4400  -33.9640 C   0  0  0  0  0  0  0  0  0  0  0  0
   -5.8890   18.3430  -34.3600 C   0  0  0  0  0  0  0  0  0  0  0  0
   -8.3955   18.2337  -30.5549 H   0  0  0  0  0  0  0  0  0  0  0  0
   -8.7990   19.2854  -31.9542 H   0  0  0  0  0  0  0  0  0  0  0  0
   -9.2980   17.5598  -31.9542 H   0  0  0  0  0  0  0  0  0  0  0  0
   -6.4070   17.8209  -31.5492 H   0  0  0  0  0  0  0  0  0  0  0  0
   -7.3203   16.9157  -32.8182 H   0  0  0  0  0  0  0  0  0  0  0  0
   -7.1702   20.8863  -32.7228 H   0  0  0  0  0  0  0  0  0  0  0  0
   -6.0311   19.9184  -31.6695 H   0  0  0  0  0  0  0  0  0  0  0  0
   -5.4196   21.1432  -34.3924 H   0  0  0  0  0  0  0  0  0  0  0  0
   -4.7649   21.6462  -32.7999 H   0  0  0  0  0  0  0  0  0  0  0  0
   -1.4120   18.8060  -31.2785 H   0  0  0  0  0  0  0  0  0  0  0  0
   -0.7238   19.7248  -29.0651 H   0  0  0  0  0  0  0  0  0  0  0  0
   -1.1742   22.1097  -28.5005 H   0  0  0  0  0  0  0  0  0  0  0  0
   -0.2132   24.6857  -28.6823 H   0  0  0  0  0  0  0  0  0  0  0  0
   -0.2392   25.3869  -26.2853 H   0  0  0  0  0  0  0  0  0  0  0  0
   -4.4732   24.9539  -26.1297 H   0  0  0  0  0  0  0  0  0  0  0  0
   -5.6570   24.0030  -28.0650 H   0  0  0  0  0  0  0  0  0  0  0  0
   -5.8033   24.3224  -32.9114 H   0  0  0  0  0  0  0  0  0  0  0  0
   -8.0330   22.8378  -33.2917 H   0  0  0  0  0  0  0  0  0  0  0  0
   -8.8254   22.0243  -30.8702 H   0  0  0  0  0  0  0  0  0  0  0  0
   -3.0242   22.6756  -32.3707 H   0  0  0  0  0  0  0  0  0  0  0  0
   -3.7859   18.1877  -34.8354 H   0  0  0  0  0  0  0  0  0  0  0  0
   -4.2204   17.7376  -33.1385 H   0  0  0  0  0  0  0  0  0  0  0  0
   -6.0392   18.9017  -35.2956 H   0  0  0  0  0  0  0  0  0  0  0  0
   -6.1298   17.2760  -34.4764 H   0  0  0  0  0  0  0  0  0  0  0  0
  1  2  1  0
  2  3  1  0
  3  4  1  0
  4  5  1  0
  5  6  1  0
  6  7  1  0
  7  8  2  0
  7  9  1  0
  9 10  2  0
 10 11  1  0
 11 12  2  0
 12 13  1  0
 13 14  1  0
 14 15  1  0
 15 16  2  0
 16 17  1  0
 17 18  2  0
 18 19  1  0
 19 20  2  0
 20 21  1  0
 21 22  1  0
 22 23  2  0
 22 24  1  0
 24 25  2  0
 25 26  1  0
 26 27  2  0
 27 28  1  0
 13 29  2  0
  6 30  1  0
 30 31  1  0
 31  3  1  0
 29  9  1  0
 20 15  1  0
 28 24  1  0
  1 32  1  0
  1 33  1  0
  1 34  1  0
  2 35  1  0
  2 36  1  0
  4 37  1  0
  4 38  1  0
  5 39  1  0
  5 40  1  0
 10 41  1  0
 11 42  1  0
 12 43  1  0
 16 44  1  0
 17 45  1  0
 19 46  1  0
 21 47  1  0
 25 48  1  0
 26 49  1  0
 27 50  1  0
 29 51  1  0
 30 52  1  0
 30 53  1  0
 31 54  1  0
 31 55  1  0
M  END
>  <UniqueID>  (8) 
8

>  <SMILES>  (8) 
CCN1CCN(C(=O)c2cccc(Oc3ccncc3NC(=O)c3ccco3)c2)CC1

>  <Energy>  (8) 
103.10921545080049

>  <Genealogy>  (8) 
CCN1CCN(C(=O)c2cccc(Oc3ccncc3NC(=O)c3ccco3)c2)CC1 (3D coordinates assigned)
CCN1CCN(C(=O)c2cccc(Oc3ccncc3NC(=O)c3ccco3)c2)CC1 (nonaromatic ring conformer: 103.10921545080049 kcal/mol)

>  <smiles>  (8) 
CCN1CCN(C(=O)c2cccc(Oc3ccncc3NC(=O)c3ccco3)c2)CC1

>  <score_type>  (8) 
oracle

>  <origin>  (8) 
adgpu

>  <m_score__min__energy>  (8) 
-9.7599999999999998

>  <m_primary>  (8) 
energy

$$$$
8:0
     RDKit          3D

 75 79  0  0  0  0  0  0  0  0999 V2000
    3.6600   19.4020  -28.3270 O   0  0  0  0  0  0  0  0  0  0  0  0
    2.2510   18.9080  -28.4960 S   0  0  0  0  0  0  0  0  0  0  0  0
    2.0420   17.7260  -27.5900 O   0  0  0  0  0  0  0  0  0  0  0  0
    1.1460   20.1740  -28.0600 N   0  0  0  0  0  0  0  0  0  0  0  0
   -0.2450   19.9840  -27.7720 C   0  0  0  0  0  0  0  0  0  0  0  0
   -1.1320   21.0390  -28.0330 C   0  0  0  0  0  0  0  0  0  0  0  0
   -2.4980   20.8930  -27.7690 C   0  0  0  0  0  0  0  0  0  0  0  0
   -2.9860   19.6920  -27.2390 C   0  0  0  0  0  0  0  0  0  0  0  0
   -2.1090   18.6370  -26.9790 C   0  0  0  0  0  0  0  0  0  0  0  0
   -0.7430   18.7770  -27.2450 C   0  0  0  0  0  0  0  0  0  0  0  0
    1.9970   18.4720  -30.1840 C   0  0  0  0  0  0  0  0  0  0  0  0
    3.0480   18.6200  -31.0970 C   0  0  0  0  0  0  0  0  0  0  0  0
    2.8690   18.2820  -32.4400 C   0  0  0  0  0  0  0  0  0  0  0  0
    1.6390   17.7820  -32.8780 C   0  0  0  0  0  0  0  0  0  0  0  0
    0.5700   17.6220  -31.9740 C   0  0  0  0  0  0  0  0  0  0  0  0
   -0.7260   17.0620  -32.4350 C   0  0  0  0  0  0  0  0  0  0  0  0
   -1.0120   15.6950  -32.2790 C   0  0  0  0  0  0  0  0  0  0  0  0
   -2.2090   15.1620  -32.7670 C   0  0  0  0  0  0  0  0  0  0  0  0
   -3.1410   15.9860  -33.4100 C   0  0  0  0  0  0  0  0  0  0  0  0
   -4.6280   15.3100  -34.0750 S   0  0  0  0  0  0  0  0  0  0  0  0
   -5.3280   14.4470  -33.0620 O   0  0  0  0  0  0  0  0  0  0  0  0
   -4.2830   14.4700  -35.2740 O   0  0  0  0  0  0  0  0  0  0  0  0
   -5.6920   16.5910  -34.5640 N   0  0  0  0  0  0  0  0  0  0  0  0
   -5.9710   17.7570  -33.7690 C   0  0  0  0  0  0  0  0  0  0  0  0
   -6.0420   17.6310  -32.3730 C   0  0  0  0  0  0  0  0  0  0  0  0
   -6.3110   18.7440  -31.5730 C   0  0  0  0  0  0  0  0  0  0  0  0
   -6.5080   20.0050  -32.1540 C   0  0  0  0  0  0  0  0  0  0  0  0
   -6.8550   21.1940  -31.2950 C   0  0  0  0  0  0  0  0  0  0  0  0
   -6.5340   22.5160  -32.0030 C   0  0  0  0  0  0  0  0  0  0  0  0
   -5.1990   22.9960  -31.6210 N   0  0  0  0  0  0  0  0  0  0  0  0
   -4.2470   21.8890  -31.4280 C   0  0  0  0  0  0  0  0  0  0  0  0
   -3.6370   21.3970  -32.7640 C   0  0  1  0  0  0  0  0  0  0  0  0
   -3.9300   22.2800  -33.8200 O   0  0  0  0  0  0  0  0  0  0  0  0
   -2.1380   21.1940  -32.6540 C   0  0  0  0  0  0  0  0  0  0  0  0
   -1.4960   21.1710  -31.4050 C   0  0  0  0  0  0  0  0  0  0  0  0
   -0.1100   21.0260  -31.3330 C   0  0  0  0  0  0  0  0  0  0  0  0
    0.6270   20.9090  -32.5110 C   0  0  0  0  0  0  0  0  0  0  0  0
   -0.0050   20.9260  -33.7140 N   0  0  0  0  0  0  0  0  0  0  0  0
   -1.3530   21.0630  -33.8100 C   0  0  0  0  0  0  0  0  0  0  0  0
   -6.4430   20.1350  -33.5500 C   0  0  0  0  0  0  0  0  0  0  0  0
   -6.1750   19.0220  -34.3510 C   0  0  0  0  0  0  0  0  0  0  0  0
   -2.8720   17.3520  -33.5530 C   0  0  0  0  0  0  0  0  0  0  0  0
   -1.6750   17.8870  -33.0710 C   0  0  0  0  0  0  0  0  0  0  0  0
    0.7580   17.9760  -30.6240 C   0  0  0  0  0  0  0  0  0  0  0  0
   -0.7520   21.9847  -28.4468 H   0  0  0  0  0  0  0  0  0  0  0  0
   -3.1896   21.7225  -27.9779 H   0  0  0  0  0  0  0  0  0  0  0  0
   -4.0597   19.5799  -27.0276 H   0  0  0  0  0  0  0  0  0  0  0  0
   -2.4933   17.6936  -26.5640 H   0  0  0  0  0  0  0  0  0  0  0  0
   -0.0561   17.9422  -27.0420 H   0  0  0  0  0  0  0  0  0  0  0  0
    4.0200   19.0046  -30.7546 H   0  0  0  0  0  0  0  0  0  0  0  0
    3.6962   18.4092  -33.1538 H   0  0  0  0  0  0  0  0  0  0  0  0
    1.5048   17.5116  -33.9358 H   0  0  0  0  0  0  0  0  0  0  0  0
   -0.2896   15.0401  -31.7698 H   0  0  0  0  0  0  0  0  0  0  0  0
   -2.4198   14.0893  -32.6451 H   0  0  0  0  0  0  0  0  0  0  0  0
   -6.1350   16.5000  -35.5050 H   0  0  0  0  0  0  0  0  0  0  0  0
   -5.8846   16.6480  -31.9052 H   0  0  0  0  0  0  0  0  0  0  0  0
   -6.3687   18.6306  -30.4804 H   0  0  0  0  0  0  0  0  0  0  0  0
   -7.9299   21.1652  -31.0632 H   0  0  0  0  0  0  0  0  0  0  0  0
   -6.2530   21.1414  -30.3759 H   0  0  0  0  0  0  0  0  0  0  0  0
   -6.5643   22.3599  -33.0914 H   0  0  0  0  0  0  0  0  0  0  0  0
   -7.2798   23.2679  -31.7056 H   0  0  0  0  0  0  0  0  0  0  0  0
   -4.8460   23.6550  -32.3560 H   0  0  0  0  0  0  0  0  0  0  0  0
   -3.4329   22.2330  -30.7731 H   0  0  0  0  0  0  0  0  0  0  0  0
   -4.7961   21.0480  -30.9795 H   0  0  0  0  0  0  0  0  0  0  0  0
   -4.1003   20.4242  -32.9855 H   0  0  0  0  0  0  0  0  0  0  0  0
   -4.8680   22.5870  -33.7110 H   0  0  0  0  0  0  0  0  0  0  0  0
   -2.0867   21.2674  -30.4821 H   0  0  0  0  0  0  0  0  0  0  0  0
    0.3962   21.0042  -30.3566 H   0  0  0  0  0  0  0  0  0  0  0  0
    1.7210   20.8028  -32.4665 H   0  0  0  0  0  0  0  0  0  0  0  0
   -1.8324   21.0713  -34.8000 H   0  0  0  0  0  0  0  0  0  0  0  0
   -6.6039   21.1184  -34.0159 H   0  0  0  0  0  0  0  0  0  0  0  0
   -6.1231   19.1353  -35.4439 H   0  0  0  0  0  0  0  0  0  0  0  0
   -3.6055   18.0065  -34.0466 H   0  0  0  0  0  0  0  0  0  0  0  0
   -1.4715   18.9616  -33.1889 H   0  0  0  0  0  0  0  0  0  0  0  0
   -0.0705   17.8635  -29.9092 H   0  0  0  0  0  0  0  0  0  0  0  0
  1  2  2  0
  2  3  2  0
  2  4  1  0
  4  5  1  0
  5  6  2  0
  6  7  1  0
  7  8  2  0
  8  9  1  0
  9 10  2  0
  2 11  1  0
 11 12  2  0
 12 13  1  0
 13 14  2  0
 14 15  1  0
 15 16  1  0
 16 17  2  0
 17 18  1  0
 18 19  2  0
 19 20  1  0
 20 21  2  0
 20 22  2  0
 20 23  1  0
 23 24  1  0
 24 25  2  0
 25 26  1  0
 26 27  2  0
 27 28  1  0
 28 29  1  0
 29 30  1  0
 30 31  1  0
 31 32  1  0
 32 33  1  0
 32 34  1  0
 34 35  2  0
 35 36  1  0
 36 37  2  0
 37 38  1  0
 38 39  2  0
 27 40  1  0
 40 41  2  0
 19 42  1  0
 42 43  2  0
 15 44  2  0
 10  5  1  0
 44 11  1  0
 43 16  1  0
 41 24  1  0
 39 34  1  0
  6 45  1  0
  7 46  1  0
  8 47  1  0
  9 48  1  0
 10 49  1  0
 12 50  1  0
 13 51  1  0
 14 52  1  0
 17 53  1  0
 18 54  1  0
 23 55  1  0
 25 56  1  0
 26 57  1  0
 28 58  1  0
 28 59  1  0
 29 60  1  0
 29 61  1  0
 30 62  1  0
 31 63  1  0
 31 64  1  0
 32 65  1  6
 33 66  1  0
 35 67  1  0
 36 68  1  0
 37 69  1  0
 39 70  1  0
 40 71  1  0
 41 72  1  0
 42 73  1  0
 43 74  1  0
 44 75  1  0
M  CHG  1   4  -1
M  END
>  <UniqueID>  (9) 
9

>  <SMILES>  (9) 
O=S(=O)([N-]c1ccccc1)c1cccc(-c2ccc(S(=O)(=O)Nc3ccc(CCNC[C@@H](O)c4cccnc4)cc3)cc2)c1

>  <Energy>  (9) 
90.49443466241108

>  <Genealogy>  (9) 
O=S(=O)([N-]c1ccccc1)c1cccc(-c2ccc(S(=O)(=O)Nc3ccc(CCNCC(O)c4cccnc4)cc3)cc2)c1 (protonated)
O=S(=O)([N-]c1ccccc1)c1cccc(-c2ccc(S(=O)(=O)Nc3ccc(CCNC[C@@H](O)c4cccnc4)cc3)cc2)c1 (chirality)
O=S(=O)([N-]c1ccccc1)c1cccc(-c2ccc(S(=O)(=O)Nc3ccc(CCNC[C@@H](O)c4cccnc4)cc3)cc2)c1 (3D coordinates assigned)
O=S(=O)([N-]c1ccccc1)c1cccc(-c2ccc(S(=O)(=O)Nc3ccc(CCNC[C@@H](O)c4cccnc4)cc3)cc2)c1 (optimized conformer: 90.49443466241108 kcal/mol)

>  <smiles>  (9) 
O=S(=O)(Nc1ccc(CCNCC(O)c2cccnc2)cc1)c1ccc(-c2cccc(S(=O)(=O)Nc3ccccc3)c2)cc1

>  <score_type>  (9) 
oracle

>  <origin>  (9) 
adgpu

>  <m_score__min__energy>  (9) 
-11.699999999999999

>  <m_primary>  (9) 
energy

$$$$
9:0
     RDKit          3D

 43 45  0  0  0  0  0  0  0  0999 V2000
   -2.6160   20.3470  -27.0130 O   0  0  0  0  0  0  0  0  0  0  0  0
   -1.5130   20.6800  -27.9770 S   0  0  0  0  0  0  0  0  0  0  0  0
   -0.2010   20.2410  -27.3930 O   0  0  0  0  0  0  0  0  0  0  0  0
   -1.7840   19.8280  -29.4630 N   0  0  0  0  0  0  0  0  0  0  0  0
   -2.2720   20.4190  -30.6770 C   0  0  0  0  0  0  0  0  0  0  0  0
   -1.4500   20.6000  -31.8040 C   0  0  0  0  0  0  0  0  0  0  0  0
   -1.9700   21.1710  -32.9680 C   0  0  0  0  0  0  0  0  0  0  0  0
   -3.3100   21.5630  -33.0200 C   0  0  0  0  0  0  0  0  0  0  0  0
   -4.1370   21.3860  -31.9040 C   0  0  0  0  0  0  0  0  0  0  0  0
   -5.8280   21.8750  -31.9610 S   0  0  0  0  0  0  0  0  0  0  0  0
   -5.9540   23.1920  -32.6760 O   0  0  0  0  0  0  0  0  0  0  0  0
   -6.3350   22.0250  -30.5530 O   0  0  0  0  0  0  0  0  0  0  0  0
   -6.7650   20.6650  -32.8050 N   0  0  0  0  0  0  0  0  0  0  0  0
   -8.1840   20.6930  -32.3790 C   0  0  0  0  0  0  0  0  0  0  0  0
   -8.5810   19.4440  -31.5770 C   0  0  0  0  0  0  0  0  0  0  0  0
   -8.3550   18.2420  -32.2940 O   0  0  0  0  0  0  0  0  0  0  0  0
   -7.1260   18.2260  -33.0130 C   0  0  0  0  0  0  0  0  0  0  0  0
   -6.1370   19.3420  -32.6350 C   0  0  0  0  0  0  0  0  0  0  0  0
   -3.6110   20.8210  -30.7340 C   0  0  0  0  0  0  0  0  0  0  0  0
   -1.4510   22.4140  -28.2780 C   0  0  0  0  0  0  0  0  0  0  0  0
   -0.4590   23.2020  -27.6760 C   0  0  0  0  0  0  0  0  0  0  0  0
   -0.4200   24.5780  -27.9100 C   0  0  0  0  0  0  0  0  0  0  0  0
   -1.3680   25.1780  -28.7470 C   0  0  0  0  0  0  0  0  0  0  0  0
   -1.3160   26.5500  -28.9680 O   0  0  0  0  0  0  0  0  0  0  0  0
   -2.3600   24.3930  -29.3580 C   0  0  0  0  0  0  0  0  0  0  0  0
   -3.3160   24.9630  -30.1970 O   0  0  0  0  0  0  0  0  0  0  0  0
   -2.3950   23.0130  -29.1220 C   0  0  0  0  0  0  0  0  0  0  0  0
   -0.3949   20.2911  -31.7686 H   0  0  0  0  0  0  0  0  0  0  0  0
   -1.3227   21.3124  -33.8461 H   0  0  0  0  0  0  0  0  0  0  0  0
   -3.7159   22.0113  -33.9389 H   0  0  0  0  0  0  0  0  0  0  0  0
   -8.3468   21.5818  -31.7517 H   0  0  0  0  0  0  0  0  0  0  0  0
   -8.8054   20.7198  -33.2862 H   0  0  0  0  0  0  0  0  0  0  0  0
   -7.9897   19.4178  -30.6498 H   0  0  0  0  0  0  0  0  0  0  0  0
   -9.6590   19.5103  -31.3685 H   0  0  0  0  0  0  0  0  0  0  0  0
   -6.6356   17.2587  -32.8290 H   0  0  0  0  0  0  0  0  0  0  0  0
   -7.3856   18.3901  -34.0692 H   0  0  0  0  0  0  0  0  0  0  0  0
   -5.8337   19.2171  -31.5851 H   0  0  0  0  0  0  0  0  0  0  0  0
   -5.2578   19.2773  -33.2929 H   0  0  0  0  0  0  0  0  0  0  0  0
   -4.2567   20.6925  -29.8528 H   0  0  0  0  0  0  0  0  0  0  0  0
    0.2893   22.7353  -27.0186 H   0  0  0  0  0  0  0  0  0  0  0  0
    0.3586   25.1928  -27.4348 H   0  0  0  0  0  0  0  0  0  0  0  0
   -3.0870   25.7090  -30.8430 H   0  0  0  0  0  0  0  0  0  0  0  0
   -3.1685   22.3957  -29.6023 H   0  0  0  0  0  0  0  0  0  0  0  0
  1  2  2  0
  2  3  2  0
  2  4  1  0
  4  5  1  0
  5  6  2  0
  6  7  1  0
  7  8  2  0
  8  9  1  0
  9 10  1  0
 10 11  2  0
 10 12  2  0
 10 13  1  0
 13 14  1  0
 14 15  1  0
 15 16  1  0
 16 17  1  0
 17 18  1  0
  9 19  2  0
  2 20  1  0
 20 21  2  0
 21 22  1  0
 22 23  2  0
 23 24  1  0
 23 25  1  0
 25 26  1  0
 25 27  2  0
 19  5  1  0
 27 20  1  0
 18 13  1  0
  6 28  1  0
  7 29  1  0
  8 30  1  0
 14 31  1  0
 14 32  1  0
 15 33  1  0
 15 34  1  0
 17 35  1  0
 17 36  1  0
 18 37  1  0
 18 38  1  0
 19 39  1  0
 21 40  1  0
 22 41  1  0
 26 42  1  0
 27 43  1  0
M  CHG  2   4  -1  24  -1
M  END
>  <UniqueID>  (10) 
10

>  <SMILES>  (10) 
O=S(=O)([N-]c1cccc(S(=O)(=O)N2CCOCC2)c1)c1ccc([O-])c(O)c1

>  <Energy>  (10) 
59.78902845427262

>  <Genealogy>  (10) 
O=S(=O)([N-]c1cccc(S(=O)(=O)N2CCOCC2)c1)c1ccc([O-])c(O)c1 (protonated)
O=S(=O)([N-]c1cccc(S(=O)(=O)N2CCOCC2)c1)c1ccc([O-])c(O)c1 (3D coordinates assigned)
O=S(=O)([N-]c1cccc(S(=O)(=O)N2CCOCC2)c1)c1ccc([O-])c(O)c1 (nonaromatic ring conformer: 59.78902845427262 kcal/mol)

>  <smiles>  (10) 
O=S(=O)(Nc1cccc(S(=O)(=O)N2CCOCC2)c1)c1ccc(O)c(O)c1

>  <score_type>  (10) 
oracle

>  <origin>  (10) 
adgpu

>  <m_score__min__energy>  (10) 
-11.77

>  <m_primary>  (10) 
energy

$$$$
10:0
     RDKit          3D

 62 64  0  0  0  0  0  0  0  0999 V2000
   -6.8700   23.4630  -30.1040 C   0  0  0  0  0  0  0  0  0  0  0  0
   -6.0750   24.3200  -31.0880 C   0  0  0  0  0  0  0  0  0  0  0  0
   -5.2880   25.4240  -30.3790 C   0  0  0  0  0  0  0  0  0  0  0  0
   -3.8550   25.2400  -30.6040 N   0  0  0  0  0  0  0  0  0  0  0  0
   -3.1070   24.6210  -29.1630 S   0  0  0  0  0  0  0  0  0  0  0  0
   -2.0010   25.5480  -28.7440 O   0  0  0  0  0  0  0  0  0  0  0  0
   -4.1180   24.5520  -28.0510 O   0  0  0  0  0  0  0  0  0  0  0  0
   -2.4350   23.0230  -29.4740 C   0  0  0  0  0  0  0  0  0  0  0  0
   -2.0140   22.2240  -28.4030 C   0  0  0  0  0  0  0  0  0  0  0  0
   -1.4520   20.9690  -28.6420 C   0  0  0  0  0  0  0  0  0  0  0  0
   -1.2940   20.5080  -29.9520 C   0  0  0  0  0  0  0  0  0  0  0  0
   -1.6900   21.3100  -31.0360 C   0  0  0  0  0  0  0  0  0  0  0  0
   -1.5230   20.8380  -32.4270 C   0  0  0  0  0  0  0  0  0  0  0  0
   -0.3350   20.7840  -33.0530 N   0  0  0  0  0  0  0  0  0  0  0  0
   -0.6120   20.4080  -34.3190 C   0  0  0  0  0  0  0  0  0  0  0  0
    0.4470   20.2430  -35.3960 C   0  0  0  0  0  0  0  0  0  0  0  0
    0.3180   18.8670  -36.0830 C   0  0  0  0  0  0  0  0  0  0  0  0
    1.8440   20.3530  -34.7570 C   0  0  0  0  0  0  0  0  0  0  0  0
    0.2720   21.3490  -36.4530 C   0  0  0  0  0  0  0  0  0  0  0  0
   -1.9340   20.2110  -34.5270 N   0  0  0  0  0  0  0  0  0  0  0  0
   -2.5080   20.4720  -33.3340 C   0  0  0  0  0  0  0  0  0  0  0  0
   -3.9550   20.3030  -33.0890 C   0  0  0  0  0  0  0  0  0  0  0  0
   -4.5830   19.0650  -33.2860 C   0  0  0  0  0  0  0  0  0  0  0  0
   -5.9550   18.9210  -33.0620 C   0  0  0  0  0  0  0  0  0  0  0  0
   -6.7390   20.0180  -32.6490 C   0  0  0  0  0  0  0  0  0  0  0  0
   -8.1630   19.8710  -32.4140 N   0  0  0  0  0  0  0  0  0  0  0  0
   -8.7650   18.5380  -32.2840 C   0  0  0  0  0  0  0  0  0  0  0  0
   -9.0270   21.0530  -32.2970 C   0  0  0  0  0  0  0  0  0  0  0  0
   -6.1020   21.2650  -32.4770 C   0  0  0  0  0  0  0  0  0  0  0  0
   -4.7290   21.4040  -32.7010 C   0  0  0  0  0  0  0  0  0  0  0  0
   -2.2760   22.5620  -30.7880 C   0  0  0  0  0  0  0  0  0  0  0  0
   -6.6066   23.7470  -29.0745 H   0  0  0  0  0  0  0  0  0  0  0  0
   -7.9463   23.6233  -30.2646 H   0  0  0  0  0  0  0  0  0  0  0  0
   -6.6294   22.4017  -30.2646 H   0  0  0  0  0  0  0  0  0  0  0  0
   -5.3700   23.6745  -31.6323 H   0  0  0  0  0  0  0  0  0  0  0  0
   -6.7879   24.7984  -31.7757 H   0  0  0  0  0  0  0  0  0  0  0  0
   -5.5962   26.4029  -30.7750 H   0  0  0  0  0  0  0  0  0  0  0  0
   -5.4929   25.3771  -29.2993 H   0  0  0  0  0  0  0  0  0  0  0  0
   -2.1267   22.5868  -27.3707 H   0  0  0  0  0  0  0  0  0  0  0  0
   -1.1326   20.3411  -27.7972 H   0  0  0  0  0  0  0  0  0  0  0  0
   -0.8585   19.5146  -30.1350 H   0  0  0  0  0  0  0  0  0  0  0  0
    0.5980   21.0250  -32.6520 H   0  0  0  0  0  0  0  0  0  0  0  0
    0.2443   18.0805  -35.3175 H   0  0  0  0  0  0  0  0  0  0  0  0
   -0.5853   18.8537  -36.7106 H   0  0  0  0  0  0  0  0  0  0  0  0
    1.2031   18.6861  -36.7106 H   0  0  0  0  0  0  0  0  0  0  0  0
    1.7476   20.3454  -33.6613 H   0  0  0  0  0  0  0  0  0  0  0  0
    2.4616   19.5007  -35.0767 H   0  0  0  0  0  0  0  0  0  0  0  0
    2.3206   21.2915  -35.0767 H   0  0  0  0  0  0  0  0  0  0  0  0
    0.1191   22.3155  -35.9505 H   0  0  0  0  0  0  0  0  0  0  0  0
    1.1731   21.4012  -37.0818 H   0  0  0  0  0  0  0  0  0  0  0  0
   -0.6012   21.1204  -37.0818 H   0  0  0  0  0  0  0  0  0  0  0  0
   -3.9910   18.2000  -33.6196 H   0  0  0  0  0  0  0  0  0  0  0  0
   -6.4293   17.9396  -33.2097 H   0  0  0  0  0  0  0  0  0  0  0  0
   -8.8775   18.2888  -31.2185 H   0  0  0  0  0  0  0  0  0  0  0  0
   -9.7528   18.5330  -32.7680 H   0  0  0  0  0  0  0  0  0  0  0  0
   -8.1157   17.7936  -32.7680 H   0  0  0  0  0  0  0  0  0  0  0  0
   -9.1939   21.2814  -31.2340 H   0  0  0  0  0  0  0  0  0  0  0  0
   -8.5420   21.9114  -32.7847 H   0  0  0  0  0  0  0  0  0  0  0  0
   -9.9922   20.8514  -32.7847 H   0  0  0  0  0  0  0  0  0  0  0  0
   -6.6926   22.1383  -32.1629 H   0  0  0  0  0  0  0  0  0  0  0  0
   -4.2523   22.3868  -32.5714 H   0  0  0  0  0  0  0  0  0  0  0  0
   -2.6122   23.1846  -31.6302 H   0  0  0  0  0  0  0  0  0  0  0  0
  1  2  1  0
  2  3  1  0
  3  4  1  0
  4  5  1  0
  5  6  2  0
  5  7  2  0
  5  8  1  0
  8  9  2  0
  9 10  1  0
 10 11  2  0
 11 12  1  0
 12 13  1  0
 13 14  1  0
 14 15  1  0
 15 16  1  0
 16 17  1  0
 16 18  1  0
 16 19  1  0
 15 20  2  0
 20 21  1  0
 21 22  1  0
 22 23  2  0
 23 24  1  0
 24 25  2  0
 25 26  1  0
 26 27  1  0
 26 28  1  0
 25 29  1  0
 29 30  2  0
 12 31  2  0
 31  8  1  0
 21 13  2  0
 30 22  1  0
  1 32  1  0
  1 33  1  0
  1 34  1  0
  2 35  1  0
  2 36  1  0
  3 37  1  0
  3 38  1  0
  9 39  1  0
 10 40  1  0
 11 41  1  0
 14 42  1  0
 17 43  1  0
 17 44  1  0
 17 45  1  0
 18 46  1  0
 18 47  1  0
 18 48  1  0
 19 49  1  0
 19 50  1  0
 19 51  1  0
 23 52  1  0
 24 53  1  0
 27 54  1  0
 27 55  1  0
 27 56  1  0
 28 57  1  0
 28 58  1  0
 28 59  1  0
 29 60  1  0
 30 61  1  0
 31 62  1  0
M  CHG  1   4  -1
M  END
>  <UniqueID>  (11) 
11

>  <SMILES>  (11) 
CCC[N-]S(=O)(=O)c1cccc(-c2[nH]c(C(C)(C)C)nc2-c2ccc(N(C)C)cc2)c1

>  <Energy>  (11) 
89.41614398574306

>  <Genealogy>  (11) 
CCC[N-]S(=O)(=O)c1cccc(-c2[nH]c(C(C)(C)C)nc2-c2ccc(N(C)C)cc2)c1 (protonated)
CCC[N-]S(=O)(=O)c1cccc(-c2[nH]c(C(C)(C)C)nc2-c2ccc(N(C)C)cc2)c1 (3D coordinates assigned)
CCC[N-]S(=O)(=O)c1cccc(-c2[nH]c(C(C)(C)C)nc2-c2ccc(N(C)C)cc2)c1 (optimized conformer: 89.41614398574306 kcal/mol)

>  <smiles>  (11) 
CCCNS(=O)(=O)c1cccc(-c2[nH]c(C(C)(C)C)nc2-c2ccc(N(C)C)cc2)c1

>  <score_type>  (11) 
oracle

>  <origin>  (11) 
adgpu

>  <m_score__min__energy>  (11) 
-10.949999999999999

>  <m_primary>  (11) 
energy

$$$$
11:0
     RDKit          3D

 37 40  0  0  0  0  0  0  0  0999 V2000
    0.9720   22.3060  -34.9840 O   0  0  0  0  0  0  0  0  0  0  0  0
    1.4300   21.2050  -34.5770 C   0  0  0  0  0  0  0  0  0  0  0  0
    0.5460   20.1840  -34.0870 N   0  0  0  0  0  0  0  0  0  0  0  0
   -0.8400   20.4040  -33.7700 C   0  0  0  0  0  0  0  0  0  0  0  0
   -1.2540   21.5140  -33.0150 C   0  0  0  0  0  0  0  0  0  0  0  0
   -2.6040   21.6920  -32.7000 C   0  0  0  0  0  0  0  0  0  0  0  0
   -3.5630   20.7580  -33.1220 C   0  0  0  0  0  0  0  0  0  0  0  0
   -4.9520   20.9430  -32.7990 N   0  0  0  0  0  0  0  0  0  0  0  0
   -5.5750   22.1030  -32.2370 C   0  0  0  0  0  0  0  0  0  0  0  0
   -4.9750   23.1820  -31.9800 O   0  0  0  0  0  0  0  0  0  0  0  0
   -7.0040   21.8710  -32.0630 C   0  0  0  0  0  0  0  0  0  0  0  0
   -8.0060   22.6990  -31.5620 C   0  0  0  0  0  0  0  0  0  0  0  0
   -9.3180   22.1940  -31.5180 C   0  0  0  0  0  0  0  0  0  0  0  0
   -9.5980   20.8860  -31.9700 C   0  0  0  0  0  0  0  0  0  0  0  0
   -8.5690   20.0710  -32.4720 C   0  0  0  0  0  0  0  0  0  0  0  0
   -7.2770   20.5950  -32.5090 C   0  0  0  0  0  0  0  0  0  0  0  0
   -6.0230   20.0050  -32.9640 C   0  0  0  0  0  0  0  0  0  0  0  0
   -5.8840   18.8280  -33.3930 O   0  0  0  0  0  0  0  0  0  0  0  0
   -3.1460   19.6370  -33.8570 C   0  0  0  0  0  0  0  0  0  0  0  0
   -1.7960   19.4580  -34.1710 C   0  0  0  0  0  0  0  0  0  0  0  0
    2.8770   20.9540  -34.6450 C   0  0  0  0  0  0  0  0  0  0  0  0
    3.8110   21.7530  -35.2740 C   0  0  0  0  0  0  0  0  0  0  0  0
    5.0250   21.1320  -35.0780 C   0  0  0  0  0  0  0  0  0  0  0  0
    4.7590   19.9940  -34.3440 C   0  0  0  0  0  0  0  0  0  0  0  0
    3.4710   19.9150  -34.1010 O   0  0  0  0  0  0  0  0  0  0  0  0
    0.9070   19.2040  -34.0410 H   0  0  0  0  0  0  0  0  0  0  0  0
   -0.5109   22.2478  -32.6695 H   0  0  0  0  0  0  0  0  0  0  0  0
   -2.9173   22.5706  -32.1170 H   0  0  0  0  0  0  0  0  0  0  0  0
   -7.7781   23.7165  -31.2116 H   0  0  0  0  0  0  0  0  0  0  0  0
  -10.1321   22.8229  -31.1285 H   0  0  0  0  0  0  0  0  0  0  0  0
  -10.6281   20.5024  -31.9290 H   0  0  0  0  0  0  0  0  0  0  0  0
   -8.7764   19.0501  -32.8253 H   0  0  0  0  0  0  0  0  0  0  0  0
   -3.8869   18.8944  -34.1880 H   0  0  0  0  0  0  0  0  0  0  0  0
   -1.4804   18.5690  -34.7367 H   0  0  0  0  0  0  0  0  0  0  0  0
    3.6245   22.6905  -35.8184 H   0  0  0  0  0  0  0  0  0  0  0  0
    6.0078   21.4741  -35.4345 H   0  0  0  0  0  0  0  0  0  0  0  0
    5.5119   19.2637  -34.0127 H   0  0  0  0  0  0  0  0  0  0  0  0
  1  2  2  0
  2  3  1  0
  3  4  1  0
  4  5  2  0
  5  6  1  0
  6  7  2  0
  7  8  1  0
  8  9  1  0
  9 10  2  0
  9 11  1  0
 11 12  2  0
 12 13  1  0
 13 14  2  0
 14 15  1  0
 15 16  2  0
 16 17  1  0
 17 18  2  0
  7 19  1  0
 19 20  2  0
  2 21  1  0
 21 22  2  0
 22 23  1  0
 23 24  2  0
 24 25  1  0
 20  4  1  0
 25 21  1  0
 17  8  1  0
 16 11  1  0
  3 26  1  0
  5 27  1  0
  6 28  1  0
 12 29  1  0
 13 30  1  0
 14 31  1  0
 15 32  1  0
 19 33  1  0
 20 34  1  0
 22 35  1  0
 23 36  1  0
 24 37  1  0
M  END
>  <UniqueID>  (12) 
12

>  <SMILES>  (12) 
O=C(Nc1ccc(N2C(=O)c3ccccc3C2=O)cc1)c1ccco1

>  <Energy>  (12) 
107.18729388644095

>  <Genealogy>  (12) 
O=C(Nc1ccc(N2C(=O)c3ccccc3C2=O)cc1)c1ccco1 (3D coordinates assigned)
O=C(Nc1ccc(N2C(=O)c3ccccc3C2=O)cc1)c1ccco1 (nonaromatic ring conformer: 107.18729388644095 kcal/mol)

>  <smiles>  (12) 
O=C(Nc1ccc(N2C(=O)c3ccccc3C2=O)cc1)c1ccco1

>  <score_type>  (12) 
oracle

>  <origin>  (12) 
adgpu

>  <m_score__min__energy>  (12) 
-7.5

>  <m_primary>  (12) 
energy

$$$$
12:0
     RDKit          3D

 47 49  0  0  0  0  0  0  0  0999 V2000
   -0.3060   20.0040  -33.7970 C   0  0  0  0  0  0  0  0  0  0  0  0
   -1.7240   20.2580  -33.3810 C   0  0  0  0  0  0  0  0  0  0  0  0
   -2.2570   21.5550  -33.4420 C   0  0  0  0  0  0  0  0  0  0  0  0
   -3.5680   21.7990  -33.0220 C   0  0  0  0  0  0  0  0  0  0  0  0
   -4.3640   20.7520  -32.5360 C   0  0  0  0  0  0  0  0  0  0  0  0
   -5.7470   21.0270  -32.0810 C   0  0  0  0  0  0  0  0  0  0  0  0
   -6.7380   20.2010  -32.5080 N   0  0  0  0  0  0  0  0  0  0  0  0
   -8.0350   20.4400  -32.1930 C   0  0  0  0  0  0  0  0  0  0  0  0
   -9.3190   19.3430  -32.7840 S   0  0  0  0  0  0  0  0  0  0  0  0
   -8.7030   17.8790  -31.8770 C   0  0  0  0  0  0  0  0  0  0  0  0
   -7.2550   17.5600  -32.2650 C   0  0  0  0  0  0  0  0  0  0  0  0
   -7.1660   17.1920  -33.6950 N   0  0  0  0  0  0  0  0  0  0  0  0
   -6.1330   18.0010  -34.3620 C   0  0  0  0  0  0  0  0  0  0  0  0
   -6.8440   15.7620  -33.8540 C   0  0  0  0  0  0  0  0  0  0  0  0
   -8.3530   21.5200  -31.4380 N   0  0  0  0  0  0  0  0  0  0  0  0
   -7.4040   22.3410  -30.9890 N   0  0  0  0  0  0  0  0  0  0  0  0
   -6.0890   22.1330  -31.2690 C   0  0  0  0  0  0  0  0  0  0  0  0
   -5.0890   23.0470  -30.6720 C   0  0  0  0  0  0  0  0  0  0  0  0
   -4.0210   22.5480  -29.9050 C   0  0  0  0  0  0  0  0  0  0  0  0
   -3.0860   23.4240  -29.3440 C   0  0  0  0  0  0  0  0  0  0  0  0
   -3.2190   24.8030  -29.5310 C   0  0  0  0  0  0  0  0  0  0  0  0
   -2.2880   25.6720  -28.9750 O   0  0  0  0  0  0  0  0  0  0  0  0
   -4.2890   25.3070  -30.2740 C   0  0  0  0  0  0  0  0  0  0  0  0
   -5.2260   24.4340  -30.8370 C   0  0  0  0  0  0  0  0  0  0  0  0
   -3.8140   19.4620  -32.4350 C   0  0  0  0  0  0  0  0  0  0  0  0
   -2.5040   19.2170  -32.8570 C   0  0  0  0  0  0  0  0  0  0  0  0
    0.3240   19.8912  -32.9023 H   0  0  0  0  0  0  0  0  0  0  0  0
   -0.2592   19.0832  -34.3969 H   0  0  0  0  0  0  0  0  0  0  0  0
    0.0575   20.8513  -34.3969 H   0  0  0  0  0  0  0  0  0  0  0  0
   -1.6406   22.3831  -33.8219 H   0  0  0  0  0  0  0  0  0  0  0  0
   -3.9775   22.8186  -33.0731 H   0  0  0  0  0  0  0  0  0  0  0  0
   -8.7497   18.0797  -30.7965 H   0  0  0  0  0  0  0  0  0  0  0  0
   -9.3332   17.0157  -32.1369 H   0  0  0  0  0  0  0  0  0  0  0  0
   -6.6283   18.4449  -32.0802 H   0  0  0  0  0  0  0  0  0  0  0  0
   -6.9052   16.7113  -31.6589 H   0  0  0  0  0  0  0  0  0  0  0  0
   -5.5057   18.4923  -33.6037 H   0  0  0  0  0  0  0  0  0  0  0  0
   -5.5069   17.3505  -34.9904 H   0  0  0  0  0  0  0  0  0  0  0  0
   -6.6144   18.7648  -34.9904 H   0  0  0  0  0  0  0  0  0  0  0  0
   -6.7394   15.2973  -32.8625 H   0  0  0  0  0  0  0  0  0  0  0  0
   -7.6524   15.2636  -34.4091 H   0  0  0  0  0  0  0  0  0  0  0  0
   -5.9000   15.6582  -34.4091 H   0  0  0  0  0  0  0  0  0  0  0  0
   -3.9206   21.4642  -29.7456 H   0  0  0  0  0  0  0  0  0  0  0  0
   -2.2455   23.0276  -28.7553 H   0  0  0  0  0  0  0  0  0  0  0  0
   -4.3951   26.3925  -30.4167 H   0  0  0  0  0  0  0  0  0  0  0  0
   -6.0736   24.8363  -31.4113 H   0  0  0  0  0  0  0  0  0  0  0  0
   -4.4180   18.6408  -32.0216 H   0  0  0  0  0  0  0  0  0  0  0  0
   -2.0834   18.2037  -32.7777 H   0  0  0  0  0  0  0  0  0  0  0  0
  1  2  1  0
  2  3  2  0
  3  4  1  0
  4  5  2  0
  5  6  1  0
  6  7  2  0
  7  8  1  0
  8  9  1  0
  9 10  1  0
 10 11  1  0
 11 12  1  0
 12 13  1  0
 12 14  1  0
  8 15  2  0
 15 16  1  0
 16 17  2  0
 17 18  1  0
 18 19  2  0
 19 20  1  0
 20 21  2  0
 21 22  1  0
 21 23  1  0
 23 24  2  0
  5 25  1  0
 25 26  2  0
 26  2  1  0
 17  6  1  0
 24 18  1  0
  1 27  1  0
  1 28  1  0
  1 29  1  0
  3 30  1  0
  4 31  1  0
 10 32  1  0
 10 33  1  0
 11 34  1  0
 11 35  1  0
 13 36  1  0
 13 37  1  0
 13 38  1  0
 14 39  1  0
 14 40  1  0
 14 41  1  0
 19 42  1  0
 20 43  1  0
 23 44  1  0
 24 45  1  0
 25 46  1  0
 26 47  1  0
M  CHG  1  22  -1
M  END
>  <UniqueID>  (13) 
13

>  <SMILES>  (13) 
Cc1ccc(-c2nc(SCCN(C)C)nnc2-c2ccc([O-])cc2)cc1

>  <Energy>  (13) 
56.644442709519055

>  <Genealogy>  (13) 
Cc1ccc(-c2nc(SCCN(C)C)nnc2-c2ccc([O-])cc2)cc1 (protonated)
Cc1ccc(-c2nc(SCCN(C)C)nnc2-c2ccc([O-])cc2)cc1 (3D coordinates assigned)
Cc1ccc(-c2nc(SCCN(C)C)nnc2-c2ccc([O-])cc2)cc1 (optimized conformer: 56.644442709519055 kcal/mol)

>  <smiles>  (13) 
Cc1ccc(-c2nc(SCCN(C)C)nnc2-c2ccc(O)cc2)cc1

>  <score_type>  (13) 
oracle

>  <origin>  (13) 
adgpu

>  <m_score__min__energy>  (13) 
-10.68

>  <m_primary>  (13) 
energy

$$$$
13:0
     RDKit          3D

 38 40  0  0  0  0  0  0  0  0999 V2000
   -4.7800   26.1350  -30.2040 O   0  0  0  0  0  0  0  0  0  0  0  0
   -4.5990   24.9050  -30.4110 C   0  0  0  0  0  0  0  0  0  0  0  0
   -5.0690   24.3120  -31.6310 N   0  0  0  0  0  0  0  0  0  0  0  0
   -5.5990   22.9890  -31.7910 C   0  0  0  0  0  0  0  0  0  0  0  0
   -4.8390   21.9400  -32.3410 C   0  0  0  0  0  0  0  0  0  0  0  0
   -5.4020   20.6710  -32.5020 C   0  0  0  0  0  0  0  0  0  0  0  0
   -6.7330   20.4380  -32.1330 C   0  0  0  0  0  0  0  0  0  0  0  0
   -7.4320   18.8330  -32.3120 S   0  0  0  0  0  0  0  0  0  0  0  0
   -8.7480   18.9240  -33.0320 O   0  0  0  0  0  0  0  0  0  0  0  0
   -7.6810   18.2290  -30.9570 O   0  0  0  0  0  0  0  0  0  0  0  0
   -6.3180   17.8200  -33.2230 C   0  0  0  0  0  0  0  0  0  0  0  0
   -5.8700   18.2280  -34.4880 C   0  0  0  0  0  0  0  0  0  0  0  0
   -4.9680   17.4310  -35.2030 C   0  0  0  0  0  0  0  0  0  0  0  0
   -4.5080   16.2310  -34.6540 C   0  0  0  0  0  0  0  0  0  0  0  0
   -4.9450   15.8260  -33.3900 C   0  0  0  0  0  0  0  0  0  0  0  0
   -5.8460   16.6190  -32.6730 C   0  0  0  0  0  0  0  0  0  0  0  0
   -7.4960   21.4830  -31.5980 C   0  0  0  0  0  0  0  0  0  0  0  0
   -6.9340   22.7540  -31.4390 C   0  0  0  0  0  0  0  0  0  0  0  0
   -3.8540   24.0780  -29.4240 C   0  0  0  0  0  0  0  0  0  0  0  0
   -4.4110   22.8660  -28.9680 C   0  0  0  0  0  0  0  0  0  0  0  0
   -3.7320   22.0730  -28.0410 C   0  0  0  0  0  0  0  0  0  0  0  0
   -2.4880   22.4730  -27.5530 C   0  0  0  0  0  0  0  0  0  0  0  0
   -1.9210   23.6700  -27.9920 C   0  0  0  0  0  0  0  0  0  0  0  0
   -2.5910   24.4740  -28.9200 C   0  0  0  0  0  0  0  0  0  0  0  0
   -1.9910   25.6610  -29.3280 O   0  0  0  0  0  0  0  0  0  0  0  0
   -3.7974   22.1196  -32.6455 H   0  0  0  0  0  0  0  0  0  0  0  0
   -4.7978   19.8523  -32.9200 H   0  0  0  0  0  0  0  0  0  0  0  0
   -6.2276   19.1749  -34.9186 H   0  0  0  0  0  0  0  0  0  0  0  0
   -4.6213   17.7494  -36.1972 H   0  0  0  0  0  0  0  0  0  0  0  0
   -3.8010   15.6045  -35.2176 H   0  0  0  0  0  0  0  0  0  0  0  0
   -4.5797   14.8823  -32.9587 H   0  0  0  0  0  0  0  0  0  0  0  0
   -6.1852   16.3007  -31.6762 H   0  0  0  0  0  0  0  0  0  0  0  0
   -8.5402   21.3040  -31.3019 H   0  0  0  0  0  0  0  0  0  0  0  0
   -7.5448   23.5746  -31.0347 H   0  0  0  0  0  0  0  0  0  0  0  0
   -5.3914   22.5414  -29.3467 H   0  0  0  0  0  0  0  0  0  0  0  0
   -4.1795   21.1298  -27.6944 H   0  0  0  0  0  0  0  0  0  0  0  0
   -1.9549   21.8459  -26.8233 H   0  0  0  0  0  0  0  0  0  0  0  0
   -0.9400   23.9836  -27.6055 H   0  0  0  0  0  0  0  0  0  0  0  0
  1  2  2  0
  2  3  1  0
  3  4  1  0
  4  5  2  0
  5  6  1  0
  6  7  2  0
  7  8  1  0
  8  9  2  0
  8 10  2  0
  8 11  1  0
 11 12  2  0
 12 13  1  0
 13 14  2  0
 14 15  1  0
 15 16  2  0
  7 17  1  0
 17 18  2  0
  2 19  1  0
 19 20  2  0
 20 21  1  0
 21 22  2  0
 22 23  1  0
 23 24  2  0
 24 25  1  0
 18  4  1  0
 24 19  1  0
 16 11  1  0
  5 26  1  0
  6 27  1  0
 12 28  1  0
 13 29  1  0
 14 30  1  0
 15 31  1  0
 16 32  1  0
 17 33  1  0
 18 34  1  0
 20 35  1  0
 21 36  1  0
 22 37  1  0
 23 38  1  0
M  CHG  2   3  -1  25  -1
M  END
>  <UniqueID>  (14) 
14

>  <SMILES>  (14) 
O=C([N-]c1ccc(S(=O)(=O)c2ccccc2)cc1)c1ccccc1[O-]

>  <Energy>  (14) 
49.1404578470478

>  <Genealogy>  (14) 
O=C([N-]c1ccc(S(=O)(=O)c2ccccc2)cc1)c1ccccc1[O-] (protonated)
O=C([N-]c1ccc(S(=O)(=O)c2ccccc2)cc1)c1ccccc1[O-] (3D coordinates assigned)
O=C([N-]c1ccc(S(=O)(=O)c2ccccc2)cc1)c1ccccc1[O-] (optimized conformer: 49.1404578470478 kcal/mol)

>  <smiles>  (14) 
O=C(Nc1ccc(S(=O)(=O)c2ccccc2)cc1)c1ccccc1O

>  <score_type>  (14) 
oracle

>  <origin>  (14) 
adgpu

>  <m_score__min__energy>  (14) 
-13.75

>  <m_primary>  (14) 
energy

$$$$
14:0
     RDKit          3D

 34 35  0  0  0  0  0  0  0  0999 V2000
   -5.4110   22.2100  -33.4960 H   0  0  0  0  0  0  0  0  0  0  0  0
   -4.6150   22.6490  -32.9810 N   0  0  0  0  0  0  0  0  0  0  0  0
   -4.7190   23.1420  -31.7860 C   0  0  0  0  0  0  0  0  0  0  0  0
   -3.6320   23.7170  -31.2130 N   0  0  0  0  0  0  0  0  0  0  0  0
   -3.6760   24.2900  -29.9810 C   0  0  0  0  0  0  0  0  0  0  0  0
   -2.4740   24.8480  -29.4390 N   0  0  0  0  0  0  0  0  0  0  0  0
   -2.5280   25.4550  -28.5900 H   0  0  0  0  0  0  0  0  0  0  0  0
   -1.5430   24.7400  -29.8900 H   0  0  0  0  0  0  0  0  0  0  0  0
   -4.9030   24.3040  -29.2810 C   0  0  0  0  0  0  0  0  0  0  0  0
   -5.0550   24.9260  -28.0010 N   0  0  0  0  0  0  0  0  0  0  0  0
   -6.0070   25.0110  -27.5810 H   0  0  0  0  0  0  0  0  0  0  0  0
   -4.2660   25.3720  -27.4880 H   0  0  0  0  0  0  0  0  0  0  0  0
   -5.9880   23.7150  -29.8520 N   0  0  0  0  0  0  0  0  0  0  0  0
   -5.9350   23.1230  -31.0740 C   0  0  0  0  0  0  0  0  0  0  0  0
   -7.1200   22.5150  -31.6110 N   0  0  0  0  0  0  0  0  0  0  0  0
   -7.2080   21.0730  -31.6930 C   0  0  0  0  0  0  0  0  0  0  0  0
   -8.4410   20.4260  -31.4810 C   0  0  0  0  0  0  0  0  0  0  0  0
   -9.3363   21.0216  -31.2495 H   0  0  0  0  0  0  0  0  0  0  0  0
   -8.5370   19.0370  -31.5620 C   0  0  0  0  0  0  0  0  0  0  0  0
   -9.5059   18.5442  -31.3936 H   0  0  0  0  0  0  0  0  0  0  0  0
   -7.4080   18.2690  -31.8560 C   0  0  0  0  0  0  0  0  0  0  0  0
   -7.4906   17.1739  -31.9180 H   0  0  0  0  0  0  0  0  0  0  0  0
   -6.1660   18.8920  -32.0730 C   0  0  0  0  0  0  0  0  0  0  0  0
   -5.0030   18.1670  -32.3690 O   0  0  0  0  0  0  0  0  0  0  0  0
   -4.3330   18.2000  -33.6260 C   0  0  0  0  0  0  0  0  0  0  0  0
   -3.2467   18.2535  -33.4612 H   0  0  0  0  0  0  0  0  0  0  0  0
   -4.5733   17.2889  -34.1936 H   0  0  0  0  0  0  0  0  0  0  0  0
   -4.6617   19.0830  -34.1936 H   0  0  0  0  0  0  0  0  0  0  0  0
   -6.0760   20.2870  -31.9920 C   0  0  0  0  0  0  0  0  0  0  0  0
   -5.1067   20.7777  -32.1644 H   0  0  0  0  0  0  0  0  0  0  0  0
   -8.0890   23.3750  -32.2980 C   0  0  0  0  0  0  0  0  0  0  0  0
   -8.6947   23.9125  -31.5535 H   0  0  0  0  0  0  0  0  0  0  0  0
   -7.5534   24.1005  -32.9279 H   0  0  0  0  0  0  0  0  0  0  0  0
   -8.7458   22.7570  -32.9279 H   0  0  0  0  0  0  0  0  0  0  0  0
  1  2  1  0
  2  3  2  0
  3  4  1  0
  4  5  1  0
  5  6  1  0
  6  7  1  0
  6  8  1  0
  5  9  2  0
  9 10  1  0
 10 11  1  0
 10 12  1  0
  9 13  1  0
 13 14  2  0
 14 15  1  0
 15 16  1  0
 16 17  2  0
 17 18  1  0
 17 19  1  0
 19 20  1  0
 19 21  2  0
 21 22  1  0
 21 23  1  0
 23 24  1  0
 24 25  1  0
 25 26  1  0
 25 27  1  0
 25 28  1  0
 23 29  2  0
 29 30  1  0
 15 31  1  0
 31 32  1  0
 31 33  1  0
 31 34  1  0
 14  3  1  0
 29 16  1  0
M  CHG  1   4  -1
M  END
>  <UniqueID>  (15) 
15

>  <SMILES>  (15) 
[H]/N=c1/[n-]c(N)c(N)nc1N(C)c1cccc(OC)c1

>  <Energy>  (15) 
46.17304821252129

>  <Genealogy>  (15) 
COc1cccc(N(C)c2nc(N)c(N)[n-]c2=N)c1 (protonated)
[H]/N=c1/[n-]c(N)c(N)nc1N(C)c1cccc(OC)c1 (cis-trans isomerization)
[H]/N=c1/[n-]c(N)c(N)nc1N(C)c1cccc(OC)c1 (3D coordinates assigned)
[H]/N=c1/[n-]c(N)c(N)nc1N(C)c1cccc(OC)c1 (optimized conformer: 46.17304821252129 kcal/mol)

>  <smiles>  (15) 
COc1cccc(N(C)c2nc(N)c(N)[nH]c2=N)c1

>  <score_type>  (15) 
oracle

>  <origin>  (15) 
adgpu

>  <m_score__min__energy>  (15) 
-7.8499999999999996

>  <m_primary>  (15) 
energy

$$$$
15:0
     RDKit          3D

 37 38  0  0  0  0  0  0  0  0999 V2000
   -9.8940   21.1520  -31.8310 C   0  0  0  0  0  0  0  0  0  0  0  0
   -8.9770   22.3440  -31.8560 C   0  0  0  0  0  0  0  0  0  0  0  0
   -9.4360   23.6540  -32.4170 C   0  0  0  0  0  0  0  0  0  0  0  0
   -7.7710   22.2580  -31.3880 N   0  0  0  0  0  0  0  0  0  0  0  0
   -7.2750   21.0890  -30.8520 O   0  0  0  0  0  0  0  0  0  0  0  0
   -6.9000   20.0050  -31.6550 C   0  0  0  0  0  0  0  0  0  0  0  0
   -7.6320   18.8210  -31.5250 C   0  0  0  0  0  0  0  0  0  0  0  0
   -7.3770   17.7300  -32.3570 C   0  0  0  0  0  0  0  0  0  0  0  0
   -6.3850   17.8060  -33.3450 C   0  0  0  0  0  0  0  0  0  0  0  0
   -6.0830   16.6160  -34.2210 C   0  0  0  0  0  0  0  0  0  0  0  0
   -7.2540   15.9900  -34.6110 F   0  0  0  0  0  0  0  0  0  0  0  0
   -5.3050   15.6930  -33.5430 F   0  0  0  0  0  0  0  0  0  0  0  0
   -5.4020   17.0400  -35.3460 F   0  0  0  0  0  0  0  0  0  0  0  0
   -5.6010   18.9690  -33.4340 C   0  0  0  0  0  0  0  0  0  0  0  0
   -5.8380   20.0690  -32.5920 C   0  0  0  0  0  0  0  0  0  0  0  0
   -4.9120   21.2230  -32.6570 C   0  0  0  0  0  0  0  0  0  0  0  0
   -3.7560   21.0600  -33.1320 O   0  0  0  0  0  0  0  0  0  0  0  0
   -5.3420   22.5550  -32.3360 N   0  0  0  0  0  0  0  0  0  0  0  0
   -4.7720   23.4060  -31.5260 C   0  0  0  0  0  0  0  0  0  0  0  0
   -3.5160   23.1720  -30.9270 C   0  0  0  0  0  0  0  0  0  0  0  0
   -2.9680   24.1350  -30.0750 C   0  0  0  0  0  0  0  0  0  0  0  0
   -3.6350   25.2950  -29.8370 N   0  0  0  0  0  0  0  0  0  0  0  0
   -4.8370   25.5550  -30.4140 C   0  0  0  0  0  0  0  0  0  0  0  0
   -5.4210   24.6210  -31.2710 C   0  0  0  0  0  0  0  0  0  0  0  0
  -10.1070   20.8751  -30.7880 H   0  0  0  0  0  0  0  0  0  0  0  0
  -10.8347   21.4022  -32.3434 H   0  0  0  0  0  0  0  0  0  0  0  0
   -9.4109   20.3070  -32.3434 H   0  0  0  0  0  0  0  0  0  0  0  0
   -9.6769   24.3416  -31.5929 H   0  0  0  0  0  0  0  0  0  0  0  0
   -8.6365   24.0884  -33.0352 H   0  0  0  0  0  0  0  0  0  0  0  0
  -10.3318   23.4945  -33.0352 H   0  0  0  0  0  0  0  0  0  0  0  0
   -8.4176   18.7486  -30.7585 H   0  0  0  0  0  0  0  0  0  0  0  0
   -7.9583   16.8039  -32.2369 H   0  0  0  0  0  0  0  0  0  0  0  0
   -4.7890   19.0191  -34.1744 H   0  0  0  0  0  0  0  0  0  0  0  0
   -2.9717   22.2378  -31.1293 H   0  0  0  0  0  0  0  0  0  0  0  0
   -1.9945   23.9536  -29.5960 H   0  0  0  0  0  0  0  0  0  0  0  0
   -5.3516   26.5045  -30.2052 H   0  0  0  0  0  0  0  0  0  0  0  0
   -6.3893   24.8385  -31.7454 H   0  0  0  0  0  0  0  0  0  0  0  0
  1  2  1  0
  2  3  1  0
  2  4  2  3
  4  5  1  0
  5  6  1  0
  6  7  2  0
  7  8  1  0
  8  9  2  0
  9 10  1  0
 10 11  1  0
 10 12  1  0
 10 13  1  0
  9 14  1  0
 14 15  2  0
 15 16  1  0
 16 17  2  0
 16 18  1  0
 18 19  2  3
 19 20  1  0
 20 21  2  0
 21 22  1  0
 22 23  1  0
 23 24  2  0
 15  6  1  0
 24 19  1  0
  1 25  1  0
  1 26  1  0
  1 27  1  0
  3 28  1  0
  3 29  1  0
  3 30  1  0
  7 31  1  0
  8 32  1  0
 14 33  1  0
 20 34  1  0
 21 35  1  0
 23 36  1  0
 24 37  1  0
M  CHG  1  22  -1
M  END
>  <UniqueID>  (16) 
16

>  <SMILES>  (16) 
CC(C)=NOc1ccc(C(F)(F)F)cc1C(=O)N=c1cc[n-]cc1

>  <Energy>  (16) 
49.21346051148336

>  <Genealogy>  (16) 
CC(C)=NOc1ccc(C(F)(F)F)cc1C(=O)N=c1cc[n-]cc1 (protonated)
CC(C)=NOc1ccc(C(F)(F)F)cc1C(=O)N=c1cc[n-]cc1 (3D coordinates assigned)
CC(C)=NOc1ccc(C(F)(F)F)cc1C(=O)N=c1cc[n-]cc1 (optimized conformer: 49.21346051148336 kcal/mol)

>  <smiles>  (16) 
CC(C)=NOc1ccc(C(F)(F)F)cc1C(=O)N=c1cc[nH]cc1

>  <score_type>  (16) 
oracle

>  <origin>  (16) 
adgpu

>  <m_score__min__energy>  (16) 
-8.8800000000000008

>  <m_primary>  (16) 
energy

$$$$
16:0
     RDKit          3D

 41 43  0  0  0  0  0  0  0  0999 V2000
    0.0270   19.7680  -28.1550 C   0  0  0  0  0  0  0  0  0  0  0  0
   -0.4570   19.6140  -29.5630 C   0  0  0  0  0  0  0  0  0  0  0  0
   -0.3560   18.4550  -30.2480 N   0  0  0  0  0  0  0  0  0  0  0  0
   -0.8630   18.7380  -31.4650 C   0  0  0  0  0  0  0  0  0  0  0  0
   -1.2500   20.0600  -31.5050 C   0  0  0  0  0  0  0  0  0  0  0  0
   -1.8270   20.7680  -32.7060 C   0  0  0  0  0  0  0  0  0  0  0  0
   -3.3280   20.8810  -32.6170 C   0  0  0  0  0  0  0  0  0  0  0  0
   -4.1160   19.7380  -32.4070 C   0  0  0  0  0  0  0  0  0  0  0  0
   -5.4950   19.8550  -32.2250 C   0  0  0  0  0  0  0  0  0  0  0  0
   -6.1100   21.1120  -32.2750 C   0  0  0  0  0  0  0  0  0  0  0  0
   -7.8370   21.2600  -31.9760 S   0  0  0  0  0  0  0  0  0  0  0  0
   -8.6820   20.0640  -32.8910 N   0  0  0  0  0  0  0  0  0  0  0  0
   -8.1220   21.0650  -30.5140 O   0  0  0  0  0  0  0  0  0  0  0  0
   -8.3070   22.6290  -32.3790 O   0  0  0  0  0  0  0  0  0  0  0  0
   -5.3330   22.2530  -32.5190 C   0  0  0  0  0  0  0  0  0  0  0  0
   -3.9510   22.1370  -32.6980 C   0  0  0  0  0  0  0  0  0  0  0  0
   -1.0000   20.6100  -30.2990 N   0  0  0  0  0  0  0  0  0  0  0  0
   -1.1910   21.9770  -29.9040 C   0  0  0  0  0  0  0  0  0  0  0  0
   -0.1350   22.6950  -29.3340 C   0  0  0  0  0  0  0  0  0  0  0  0
   -0.2930   24.0450  -29.0240 C   0  0  0  0  0  0  0  0  0  0  0  0
   -1.5080   24.6920  -29.2760 C   0  0  0  0  0  0  0  0  0  0  0  0
   -1.6210   26.0420  -28.9620 O   0  0  0  0  0  0  0  0  0  0  0  0
   -2.5890   23.9780  -29.8410 C   0  0  0  0  0  0  0  0  0  0  0  0
   -3.8920   24.6280  -30.1360 C   0  0  0  0  0  0  0  0  0  0  0  0
   -3.9530   25.6660  -30.8450 O   0  0  0  0  0  0  0  0  0  0  0  0
   -5.0720   24.0930  -29.6310 O   0  0  0  0  0  0  0  0  0  0  0  0
   -2.4150   22.6150  -30.1480 C   0  0  0  0  0  0  0  0  0  0  0  0
   -0.7841   19.5099  -27.4582 H   0  0  0  0  0  0  0  0  0  0  0  0
    0.8827   19.0978  -27.9860 H   0  0  0  0  0  0  0  0  0  0  0  0
    0.3381   20.8095  -27.9860 H   0  0  0  0  0  0  0  0  0  0  0  0
   -0.9536   18.0242  -32.2970 H   0  0  0  0  0  0  0  0  0  0  0  0
   -1.3961   21.7783  -32.7657 H   0  0  0  0  0  0  0  0  0  0  0  0
   -1.5792   20.1810  -33.6027 H   0  0  0  0  0  0  0  0  0  0  0  0
   -3.6439   18.7447  -32.3858 H   0  0  0  0  0  0  0  0  0  0  0  0
   -6.1013   18.9557  -32.0415 H   0  0  0  0  0  0  0  0  0  0  0  0
   -8.2620   20.0590  -33.8470 H   0  0  0  0  0  0  0  0  0  0  0  0
   -5.8116   23.2421  -32.5698 H   0  0  0  0  0  0  0  0  0  0  0  0
   -3.3487   23.0343  -32.9033 H   0  0  0  0  0  0  0  0  0  0  0  0
    0.8225   22.1935  -29.1298 H   0  0  0  0  0  0  0  0  0  0  0  0
    0.5425   24.6050  -28.5786 H   0  0  0  0  0  0  0  0  0  0  0  0
   -3.2485   22.0447  -30.5840 H   0  0  0  0  0  0  0  0  0  0  0  0
  1  2  1  0
  2  3  2  0
  3  4  1  0
  4  5  2  0
  5  6  1  0
  6  7  1  0
  7  8  2  0
  8  9  1  0
  9 10  2  0
 10 11  1  0
 11 12  1  0
 11 13  2  0
 11 14  2  0
 10 15  1  0
 15 16  2  0
  5 17  1  0
 17 18  1  0
 18 19  2  0
 19 20  1  0
 20 21  2  0
 21 22  1  0
 21 23  1  0
 23 24  1  0
 24 25  2  0
 24 26  1  0
 23 27  2  0
 17  2  1  0
 27 18  1  0
 16  7  1  0
  1 28  1  0
  1 29  1  0
  1 30  1  0
  4 31  1  0
  6 32  1  0
  6 33  1  0
  8 34  1  0
  9 35  1  0
 12 36  1  0
 15 37  1  0
 16 38  1  0
 19 39  1  0
 20 40  1  0
 27 41  1  0
M  CHG  3  12  -1  22  -1  26  -1
M  END
>  <UniqueID>  (17) 
17

>  <SMILES>  (17) 
Cc1ncc(Cc2ccc(S([NH-])(=O)=O)cc2)n1-c1ccc([O-])c(C(=O)[O-])c1

>  <Energy>  (17) 
76.16580353180021

>  <Genealogy>  (17) 
Cc1ncc(Cc2ccc(S([NH-])(=O)=O)cc2)n1-c1ccc([O-])c(C(=O)[O-])c1 (protonated)
Cc1ncc(Cc2ccc(S([NH-])(=O)=O)cc2)n1-c1ccc([O-])c(C(=O)[O-])c1 (3D coordinates assigned)
Cc1ncc(Cc2ccc(S([NH-])(=O)=O)cc2)n1-c1ccc([O-])c(C(=O)[O-])c1 (optimized conformer: 76.16580353180021 kcal/mol)

>  <smiles>  (17) 
Cc1ncc(Cc2ccc(S(N)(=O)=O)cc2)n1-c1ccc(O)c(C(=O)O)c1

>  <score_type>  (17) 
oracle

>  <origin>  (17) 
adgpu

>  <m_score__min__energy>  (17) 
-12.32

>  <m_primary>  (17) 
energy

$$$$
17:0
     RDKit          3D

 60 63  0  0  0  0  0  0  0  0999 V2000
   -1.3200   25.5550  -28.6520 O   0  0  0  0  0  0  0  0  0  0  0  0
   -2.4810   24.6040  -28.7240 S   0  0  0  0  0  0  0  0  0  0  0  0
   -3.2620   24.6990  -27.4430 O   0  0  0  0  0  0  0  0  0  0  0  0
   -3.4980   25.0350  -30.0620 N   0  0  0  0  0  0  0  0  0  0  0  0
   -4.6940   24.3060  -30.3710 C   0  0  0  0  0  0  0  0  0  0  0  0
   -5.6590   24.8800  -31.2100 C   0  0  0  0  0  0  0  0  0  0  0  0
   -6.8020   24.1620  -31.5710 C   0  0  0  0  0  0  0  0  0  0  0  0
   -6.9970   22.8530  -31.0970 C   0  0  0  0  0  0  0  0  0  0  0  0
   -8.2070   22.0530  -31.5190 C   0  0  0  0  0  0  0  0  0  0  0  0
   -7.8290   20.7150  -32.1980 C   0  0  0  0  0  0  0  0  0  0  0  0
   -6.9100   20.8560  -33.3420 N   0  0  0  0  0  0  0  0  0  0  0  0
   -5.6500   20.1040  -33.2270 C   0  0  0  0  0  0  0  0  0  0  0  0
   -4.4880   20.9320  -32.6330 C   0  0  2  0  0  0  0  0  0  0  0  0
   -4.6050   22.2670  -33.0510 O   0  0  0  0  0  0  0  0  0  0  0  0
   -3.1430   20.3990  -33.0700 C   0  0  0  0  0  0  0  0  0  0  0  0
   -2.9100   19.0170  -33.1660 C   0  0  0  0  0  0  0  0  0  0  0  0
   -1.6550   18.5430  -33.5510 C   0  0  0  0  0  0  0  0  0  0  0  0
   -0.6390   19.4550  -33.8380 C   0  0  0  0  0  0  0  0  0  0  0  0
   -0.8790   20.7890  -33.7570 N   0  0  0  0  0  0  0  0  0  0  0  0
   -2.0930   21.2770  -33.3880 C   0  0  0  0  0  0  0  0  0  0  0  0
   -6.0630   22.3060  -30.2020 C   0  0  0  0  0  0  0  0  0  0  0  0
   -4.9170   23.0210  -29.8510 C   0  0  0  0  0  0  0  0  0  0  0  0
   -1.8660   22.9710  -28.9720 C   0  0  0  0  0  0  0  0  0  0  0  0
   -1.9740   22.0310  -27.9410 C   0  0  0  0  0  0  0  0  0  0  0  0
   -1.4530   20.7450  -28.1020 C   0  0  0  0  0  0  0  0  0  0  0  0
   -0.8050   20.3860  -29.2930 C   0  0  0  0  0  0  0  0  0  0  0  0
   -0.2380   19.0310  -29.4490 C   0  0  0  0  0  0  0  0  0  0  0  0
   -0.1640   18.3780  -30.6290 N   0  0  0  0  0  0  0  0  0  0  0  0
    0.4210   17.2110  -30.2950 C   0  0  0  0  0  0  0  0  0  0  0  0
    0.6630   16.0890  -31.2530 C   0  0  0  0  0  0  0  0  0  0  0  0
   -0.4750   15.8540  -32.0040 F   0  0  0  0  0  0  0  0  0  0  0  0
    1.7060   16.4100  -32.1030 F   0  0  0  0  0  0  0  0  0  0  0  0
    0.9860   14.9450  -30.5480 F   0  0  0  0  0  0  0  0  0  0  0  0
    0.6630   17.1870  -28.9410 C   0  0  0  0  0  0  0  0  0  0  0  0
    0.2490   18.3280  -28.4480 O   0  0  0  0  0  0  0  0  0  0  0  0
   -0.6950   21.3330  -30.3260 C   0  0  0  0  0  0  0  0  0  0  0  0
   -1.2240   22.6180  -30.1650 C   0  0  0  0  0  0  0  0  0  0  0  0
   -3.0930   25.6760  -30.7810 H   0  0  0  0  0  0  0  0  0  0  0  0
   -5.5154   25.9033  -31.5870 H   0  0  0  0  0  0  0  0  0  0  0  0
   -7.5529   24.6233  -32.2293 H   0  0  0  0  0  0  0  0  0  0  0  0
   -8.8144   21.8365  -30.6278 H   0  0  0  0  0  0  0  0  0  0  0  0
   -8.7636   22.6536  -32.2535 H   0  0  0  0  0  0  0  0  0  0  0  0
   -7.3485   20.0708  -31.4470 H   0  0  0  0  0  0  0  0  0  0  0  0
   -8.7619   20.2866  -32.5931 H   0  0  0  0  0  0  0  0  0  0  0  0
   -6.6760   21.8710  -33.4550 H   0  0  0  0  0  0  0  0  0  0  0  0
   -5.8230   19.2324  -32.5787 H   0  0  0  0  0  0  0  0  0  0  0  0
   -5.3525   19.8148  -34.2457 H   0  0  0  0  0  0  0  0  0  0  0  0
   -4.5498   20.8614  -31.5370 H   0  0  0  0  0  0  0  0  0  0  0  0
   -5.3110   22.2890  -33.7490 H   0  0  0  0  0  0  0  0  0  0  0  0
   -3.7184   18.3069  -32.9373 H   0  0  0  0  0  0  0  0  0  0  0  0
   -1.4689   17.4616  -33.6274 H   0  0  0  0  0  0  0  0  0  0  0  0
    0.3577   19.0929  -34.1303 H   0  0  0  0  0  0  0  0  0  0  0  0
   -2.2541   22.3640  -33.3381 H   0  0  0  0  0  0  0  0  0  0  0  0
   -6.2359   21.3072  -29.7748 H   0  0  0  0  0  0  0  0  0  0  0  0
   -4.1839   22.5751  -29.1627 H   0  0  0  0  0  0  0  0  0  0  0  0
   -2.4715   22.3061  -26.9993 H   0  0  0  0  0  0  0  0  0  0  0  0
   -1.5515   20.0095  -27.2900 H   0  0  0  0  0  0  0  0  0  0  0  0
    1.1202   16.3613  -28.3760 H   0  0  0  0  0  0  0  0  0  0  0  0
   -0.1906   21.0624  -31.2653 H   0  0  0  0  0  0  0  0  0  0  0  0
   -1.1353   23.3533  -30.9783 H   0  0  0  0  0  0  0  0  0  0  0  0
  1  2  2  0
  2  3  2  0
  2  4  1  0
  4  5  1  0
  5  6  2  0
  6  7  1  0
  7  8  2  0
  8  9  1  0
  9 10  1  0
 10 11  1  0
 11 12  1  0
 12 13  1  0
 13 14  1  0
 13 15  1  0
 15 16  2  0
 16 17  1  0
 17 18  2  0
 18 19  1  0
 19 20  2  0
  8 21  1  0
 21 22  2  0
  2 23  1  0
 23 24  2  0
 24 25  1  0
 25 26  2  0
 26 27  1  0
 27 28  2  0
 28 29  1  0
 29 30  1  0
 30 31  1  0
 30 32  1  0
 30 33  1  0
 29 34  2  0
 34 35  1  0
 26 36  1  0
 36 37  2  0
 22  5  1  0
 37 23  1  0
 20 15  1  0
 35 27  1  0
  4 38  1  0
  6 39  1  0
  7 40  1  0
  9 41  1  0
  9 42  1  0
 10 43  1  0
 10 44  1  0
 11 45  1  0
 12 46  1  0
 12 47  1  0
 13 48  1  1
 14 49  1  0
 16 50  1  0
 17 51  1  0
 18 52  1  0
 20 53  1  0
 21 54  1  0
 22 55  1  0
 24 56  1  0
 25 57  1  0
 34 58  1  0
 36 59  1  0
 37 60  1  0
M  END
>  <UniqueID>  (18) 
18

>  <SMILES>  (18) 
O=S(=O)(Nc1ccc(CCNC[C@H](O)c2cccnc2)cc1)c1ccc(-c2nc(C(F)(F)F)co2)cc1

>  <Energy>  (18) 
89.34037238673818

>  <Genealogy>  (18) 
O=S(=O)(Nc1ccc(CCNC[C@H](O)c2cccnc2)cc1)c1ccc(-c2nc(C(F)(F)F)co2)cc1 (chirality)
O=S(=O)(Nc1ccc(CCNC[C@H](O)c2cccnc2)cc1)c1ccc(-c2nc(C(F)(F)F)co2)cc1 (3D coordinates assigned)
O=S(=O)(Nc1ccc(CCNC[C@H](O)c2cccnc2)cc1)c1ccc(-c2nc(C(F)(F)F)co2)cc1 (optimized conformer: 89.34037238673818 kcal/mol)

>  <smiles>  (18) 
O=S(=O)(Nc1ccc(CCNCC(O)c2cccnc2)cc1)c1ccc(-c2nc(C(F)(F)F)co2)cc1

>  <score_type>  (18) 
oracle

>  <origin>  (18) 
adgpu

>  <m_score__min__energy>  (18) 
-9.5500000000000007

>  <m_primary>  (18) 
energy

$$$$
18:0
     RDKit          3D

 51 54  0  0  0  0  0  0  0  0999 V2000
    3.8956   18.7376  -40.1310 H   0  0  0  0  0  0  0  0  0  0  0  0
    3.6930   19.3530  -39.2420 C   0  0  0  0  0  0  0  0  0  0  0  0
    2.7660   19.0490  -38.3140 N   0  0  0  0  0  0  0  0  0  0  0  0
    2.8900   20.0720  -37.4450 C   0  0  0  0  0  0  0  0  0  0  0  0
    2.0760   20.2160  -36.2180 C   0  0  0  0  0  0  0  0  0  0  0  0
    2.5840   20.9020  -35.1030 C   0  0  0  0  0  0  0  0  0  0  0  0
    3.5942   21.3352  -35.1443 H   0  0  0  0  0  0  0  0  0  0  0  0
    1.8190   21.0400  -33.9410 C   0  0  0  0  0  0  0  0  0  0  0  0
    2.2306   21.5826  -33.0772 H   0  0  0  0  0  0  0  0  0  0  0  0
    0.5250   20.4890  -33.8690 C   0  0  0  0  0  0  0  0  0  0  0  0
   -0.2790   20.6110  -32.7130 C   0  0  0  0  0  0  0  0  0  0  0  0
    0.1920   21.2370  -31.6660 N   0  0  0  0  0  0  0  0  0  0  0  0
   -0.4920   21.5390  -30.4390 C   0  0  0  0  0  0  0  0  0  0  0  0
   -1.2260   22.7290  -30.3080 C   0  0  0  0  0  0  0  0  0  0  0  0
   -1.2839   23.4294  -31.1542 H   0  0  0  0  0  0  0  0  0  0  0  0
   -1.8840   23.0320  -29.1120 C   0  0  0  0  0  0  0  0  0  0  0  0
   -2.8050   24.5290  -28.9810 S   0  0  0  0  0  0  0  0  0  0  0  0
   -1.9140   25.6550  -28.5340 O   0  0  0  0  0  0  0  0  0  0  0  0
   -3.8920   24.3430  -27.9600 O   0  0  0  0  0  0  0  0  0  0  0  0
   -3.5220   24.9260  -30.5120 N   0  0  0  0  0  0  0  0  0  0  0  0
   -4.9590   25.1120  -30.3510 C   0  0  0  0  0  0  0  0  0  0  0  0
   -5.2068   25.1441  -29.2798 H   0  0  0  0  0  0  0  0  0  0  0  0
   -5.2619   26.0568  -30.8259 H   0  0  0  0  0  0  0  0  0  0  0  0
   -5.4925   24.2754  -30.8259 H   0  0  0  0  0  0  0  0  0  0  0  0
   -1.7860   22.1530  -28.0270 C   0  0  0  0  0  0  0  0  0  0  0  0
   -2.3058   22.3841  -27.0855 H   0  0  0  0  0  0  0  0  0  0  0  0
   -1.0300   20.9830  -28.1360 C   0  0  0  0  0  0  0  0  0  0  0  0
   -0.9557   20.2991  -27.2777 H   0  0  0  0  0  0  0  0  0  0  0  0
   -0.3650   20.6740  -29.3320 C   0  0  0  0  0  0  0  0  0  0  0  0
    0.4080   19.4640  -29.4250 N   0  0  0  0  0  0  0  0  0  0  0  0
   -0.0800   18.3580  -30.2480 C   0  0  0  0  0  0  0  0  0  0  0  0
   -0.4380   17.5467  -29.5971 H   0  0  0  0  0  0  0  0  0  0  0  0
   -0.9063   18.7102  -30.8830 H   0  0  0  0  0  0  0  0  0  0  0  0
    0.7372   17.9851  -30.8830 H   0  0  0  0  0  0  0  0  0  0  0  0
    1.7220   19.3650  -28.7870 C   0  0  0  0  0  0  0  0  0  0  0  0
    1.6004   19.3742  -27.6938 H   0  0  0  0  0  0  0  0  0  0  0  0
    2.2089   18.4276  -29.0939 H   0  0  0  0  0  0  0  0  0  0  0  0
    2.3439   20.2188  -29.0939 H   0  0  0  0  0  0  0  0  0  0  0  0
   -1.5570   20.0140  -32.7100 C   0  0  0  0  0  0  0  0  0  0  0  0
   -2.1884   20.0712  -31.8111 H   0  0  0  0  0  0  0  0  0  0  0  0
   -2.0220   19.3490  -33.8500 C   0  0  0  0  0  0  0  0  0  0  0  0
   -3.3720   18.7040  -33.8490 C   0  0  0  0  0  0  0  0  0  0  0  0
   -3.7022   18.5462  -32.8117 H   0  0  0  0  0  0  0  0  0  0  0  0
   -4.0904   19.3562  -34.3673 H   0  0  0  0  0  0  0  0  0  0  0  0
   -3.3160   17.7354  -34.3673 H   0  0  0  0  0  0  0  0  0  0  0  0
   -1.2310   19.2560  -34.9500 N   0  0  0  0  0  0  0  0  0  0  0  0
    0.0130   19.7990  -34.9920 C   0  0  0  0  0  0  0  0  0  0  0  0
    0.7850   19.6670  -36.1520 C   0  0  0  0  0  0  0  0  0  0  0  0
    0.3768   19.1283  -37.0199 H   0  0  0  0  0  0  0  0  0  0  0  0
    3.8380   20.9500  -37.8230 N   0  0  0  0  0  0  0  0  0  0  0  0
    4.3430   20.4960  -38.9570 N   0  0  0  0  0  0  0  0  0  0  0  0
  1  2  1  0
  2  3  2  0
  3  4  1  0
  4  5  1  0
  5  6  2  0
  6  7  1  0
  6  8  1  0
  8  9  1  0
  8 10  2  0
 10 11  1  0
 11 12  2  0
 12 13  1  0
 13 14  2  0
 14 15  1  0
 14 16  1  0
 16 17  1  0
 17 18  2  0
 17 19  2  0
 17 20  1  0
 20 21  1  0
 21 22  1  0
 21 23  1  0
 21 24  1  0
 16 25  2  0
 25 26  1  0
 25 27  1  0
 27 28  1  0
 27 29  2  0
 29 30  1  0
 30 31  1  0
 31 32  1  0
 31 33  1  0
 31 34  1  0
 30 35  1  0
 35 36  1  0
 35 37  1  0
 35 38  1  0
 11 39  1  0
 39 40  1  0
 39 41  2  0
 41 42  1  0
 42 43  1  0
 42 44  1  0
 42 45  1  0
 41 46  1  0
 46 47  1  0
 47 48  2  0
 48 49  1  0
  4 50  2  0
 50 51  1  0
 51  2  1  0
 48  5  1  0
 47 10  1  0
 29 13  1  0
M  CHG  3  20  -1  46  -1  51  -1
M  END
>  <UniqueID>  (19) 
19

>  <SMILES>  (19) 
C[N-]S(=O)(=O)c1ccc(N(C)C)c(/N=c2\cc(C)[n-]c3cc(-c4nc[n-]n4)ccc23)c1

>  <Energy>  (19) 
100.73363109769564

>  <Genealogy>  (19) 
C[N-]S(=O)(=O)c1ccc(N(C)C)c(N=c2cc(C)[n-]c3cc(-c4nc[n-]n4)ccc23)c1 (protonated)
C[N-]S(=O)(=O)c1ccc(N(C)C)c(/N=c2\cc(C)[n-]c3cc(-c4nc[n-]n4)ccc23)c1 (cis-trans isomerization)
C[N-]S(=O)(=O)c1ccc(N(C)C)c(/N=c2\cc(C)[n-]c3cc(-c4nc[n-]n4)ccc23)c1 (3D coordinates assigned)
C[N-]S(=O)(=O)c1ccc(N(C)C)c(/N=c2\cc(C)[n-]c3cc(-c4nc[n-]n4)ccc23)c1 (optimized conformer: 100.73363109769564 kcal/mol)

>  <smiles>  (19) 
CNS(=O)(=O)c1ccc(N(C)C)c(N=c2cc(C)[nH]c3cc(-c4nc[nH]n4)ccc23)c1

>  <score_type>  (19) 
oracle

>  <origin>  (19) 
adgpu

>  <m_score__min__energy>  (19) 
-11.01

>  <m_primary>  (19) 
energy

$$$$
19:0
     RDKit          3D

 46 48  0  0  0  0  0  0  0  0999 V2000
   -0.4940   22.3690  -29.1080 C   0  0  0  0  0  0  0  0  0  0  0  0
   -0.2390   23.5700  -28.2550 C   0  0  0  0  0  0  0  0  0  0  0  0
    0.6800   23.5970  -27.2670 N   0  0  0  0  0  0  0  0  0  0  0  0
    0.6810   24.8170  -26.7480 N   0  0  0  0  0  0  0  0  0  0  0  0
    1.5570   25.2220  -25.6550 C   0  0  0  0  0  0  0  0  0  0  0  0
   -0.2110   25.5960  -27.3990 C   0  0  0  0  0  0  0  0  0  0  0  0
   -0.5310   27.0210  -27.0540 C   0  0  0  0  0  0  0  0  0  0  0  0
   -0.8460   24.8150  -28.3440 C   0  0  0  0  0  0  0  0  0  0  0  0
   -1.8400   25.2470  -29.2850 N   0  0  0  0  0  0  0  0  0  0  0  0
   -3.1750   24.7240  -29.3080 C   0  0  0  0  0  0  0  0  0  0  0  0
   -3.6660   24.2000  -28.2730 O   0  0  0  0  0  0  0  0  0  0  0  0
   -4.0040   24.8770  -30.4660 N   0  0  0  0  0  0  0  0  0  0  0  0
   -4.6780   23.8200  -31.1640 C   0  0  0  0  0  0  0  0  0  0  0  0
   -6.0620   23.9120  -31.3560 C   0  0  0  0  0  0  0  0  0  0  0  0
   -6.7550   22.8890  -32.0090 C   0  0  0  0  0  0  0  0  0  0  0  0
   -6.0700   21.7600  -32.4670 C   0  0  0  0  0  0  0  0  0  0  0  0
   -4.6880   21.6460  -32.2640 C   0  0  0  0  0  0  0  0  0  0  0  0
   -3.8420   20.2000  -32.8000 S   0  0  0  0  0  0  0  0  0  0  0  0
   -3.0990   20.4970  -34.0730 O   0  0  0  0  0  0  0  0  0  0  0  0
   -2.8410   19.7660  -31.7650 O   0  0  0  0  0  0  0  0  0  0  0  0
   -5.0140   18.9140  -33.0620 C   0  0  0  0  0  0  0  0  0  0  0  0
   -5.1600   18.3360  -34.3310 C   0  0  0  0  0  0  0  0  0  0  0  0
   -6.1060   17.3270  -34.5370 C   0  0  0  0  0  0  0  0  0  0  0  0
   -6.9130   16.8960  -33.4790 C   0  0  0  0  0  0  0  0  0  0  0  0
   -6.7770   17.4780  -32.2140 C   0  0  0  0  0  0  0  0  0  0  0  0
   -5.8310   18.4870  -32.0060 C   0  0  0  0  0  0  0  0  0  0  0  0
   -3.9980   22.6670  -31.5980 C   0  0  0  0  0  0  0  0  0  0  0  0
   -0.6794   21.4956  -28.4655 H   0  0  0  0  0  0  0  0  0  0  0  0
   -1.3737   22.5504  -29.7431 H   0  0  0  0  0  0  0  0  0  0  0  0
    0.3835   22.1773  -29.7431 H   0  0  0  0  0  0  0  0  0  0  0  0
    1.0716   24.9976  -24.6937 H   0  0  0  0  0  0  0  0  0  0  0  0
    2.5070   24.6717  -25.7234 H   0  0  0  0  0  0  0  0  0  0  0  0
    1.7532   26.3022  -25.7234 H   0  0  0  0  0  0  0  0  0  0  0  0
   -0.5569   27.1365  -25.9604 H   0  0  0  0  0  0  0  0  0  0  0  0
    0.2410   27.6823  -27.4744 H   0  0  0  0  0  0  0  0  0  0  0  0
   -1.5116   27.2887  -27.4744 H   0  0  0  0  0  0  0  0  0  0  0  0
   -1.6090   26.0390  -29.9250 H   0  0  0  0  0  0  0  0  0  0  0  0
   -6.6071   24.7948  -30.9906 H   0  0  0  0  0  0  0  0  0  0  0  0
   -7.8410   22.9724  -32.1627 H   0  0  0  0  0  0  0  0  0  0  0  0
   -6.6165   20.9597  -32.9876 H   0  0  0  0  0  0  0  0  0  0  0  0
   -4.5296   18.6767  -35.1656 H   0  0  0  0  0  0  0  0  0  0  0  0
   -6.2156   16.8717  -35.5323 H   0  0  0  0  0  0  0  0  0  0  0  0
   -7.6543   16.0997  -33.6415 H   0  0  0  0  0  0  0  0  0  0  0  0
   -7.4143   17.1419  -31.3828 H   0  0  0  0  0  0  0  0  0  0  0  0
   -5.7279   18.9464  -31.0118 H   0  0  0  0  0  0  0  0  0  0  0  0
   -2.9183   22.5669  -31.4132 H   0  0  0  0  0  0  0  0  0  0  0  0
  1  2  1  0
  2  3  2  0
  3  4  1  0
  4  5  1  0
  4  6  1  0
  6  7  1  0
  6  8  2  0
  8  9  1  0
  9 10  1  0
 10 11  2  0
 10 12  1  0
 12 13  1  0
 13 14  2  0
 14 15  1  0
 15 16  2  0
 16 17  1  0
 17 18  1  0
 18 19  2  0
 18 20  2  0
 18 21  1  0
 21 22  2  0
 22 23  1  0
 23 24  2  0
 24 25  1  0
 25 26  2  0
 17 27  2  0
  8  2  1  0
 27 13  1  0
 26 21  1  0
  1 28  1  0
  1 29  1  0
  1 30  1  0
  5 31  1  0
  5 32  1  0
  5 33  1  0
  7 34  1  0
  7 35  1  0
  7 36  1  0
  9 37  1  0
 14 38  1  0
 15 39  1  0
 16 40  1  0
 22 41  1  0
 23 42  1  0
 24 43  1  0
 25 44  1  0
 26 45  1  0
 27 46  1  0
M  CHG  1  12  -1
M  END
>  <UniqueID>  (20) 
20

>  <SMILES>  (20) 
Cc1nn(C)c(C)c1NC(=O)[N-]c1cccc(S(=O)(=O)c2ccccc2)c1

>  <Energy>  (20) 
85.72563051851257

>  <Genealogy>  (20) 
Cc1nn(C)c(C)c1NC(=O)[N-]c1cccc(S(=O)(=O)c2ccccc2)c1 (protonated)
Cc1nn(C)c(C)c1NC(=O)[N-]c1cccc(S(=O)(=O)c2ccccc2)c1 (3D coordinates assigned)
Cc1nn(C)c(C)c1NC(=O)[N-]c1cccc(S(=O)(=O)c2ccccc2)c1 (optimized conformer: 85.72563051851257 kcal/mol)

>  <smiles>  (20) 
Cc1nn(C)c(C)c1NC(=O)Nc1cccc(S(=O)(=O)c2ccccc2)c1

>  <score_type>  (20) 
oracle

>  <origin>  (20) 
adgpu

>  <m_score__min__energy>  (20) 
-10.390000000000001

>  <m_primary>  (20) 
energy

$$$$
20:0
     RDKit          3D

 42 44  0  0  0  0  0  0  0  0999 V2000
   -5.0920   15.8330  -34.1550 C   0  0  0  0  0  0  0  0  0  0  0  0
   -6.5520   16.0990  -33.8110 C   0  0  0  0  0  0  0  0  0  0  0  0
   -6.7440   17.5230  -33.4030 C   0  0  0  0  0  0  0  0  0  0  0  0
   -7.3580   17.8930  -32.2570 N   0  0  0  0  0  0  0  0  0  0  0  0
   -7.3420   19.2100  -32.0590 N   0  0  0  0  0  0  0  0  0  0  0  0
   -6.6980   19.8920  -33.0360 C   0  0  0  0  0  0  0  0  0  0  0  0
   -6.5070   21.1780  -33.0480 N   0  0  0  0  0  0  0  0  0  0  0  0
   -7.0290   22.2620  -31.7980 S   0  0  0  0  0  0  0  0  0  0  0  0
   -7.6850   21.4690  -30.7010 O   0  0  0  0  0  0  0  0  0  0  0  0
   -8.0250   23.2310  -32.3680 O   0  0  0  0  0  0  0  0  0  0  0  0
   -5.6490   23.1590  -31.1730 C   0  0  0  0  0  0  0  0  0  0  0  0
   -5.7070   24.5520  -31.0410 C   0  0  0  0  0  0  0  0  0  0  0  0
   -4.6470   25.2470  -30.4530 C   0  0  0  0  0  0  0  0  0  0  0  0
   -3.5200   24.5580  -29.9870 C   0  0  0  0  0  0  0  0  0  0  0  0
   -2.4880   25.2990  -29.3220 N   0  0  0  0  0  0  0  0  0  0  0  0
   -1.3840   24.6340  -28.1610 S   0  0  0  0  0  0  0  0  0  0  0  0
   -1.9490   23.3470  -27.6300 O   0  0  0  0  0  0  0  0  0  0  0  0
   -0.0710   24.3560  -28.8380 O   0  0  0  0  0  0  0  0  0  0  0  0
   -1.1130   25.7760  -26.8460 C   0  0  0  0  0  0  0  0  0  0  0  0
   -0.5380   27.0270  -27.1080 C   0  0  0  0  0  0  0  0  0  0  0  0
   -0.3150   27.9310  -26.0650 C   0  0  0  0  0  0  0  0  0  0  0  0
   -0.6650   27.5900  -24.7560 C   0  0  0  0  0  0  0  0  0  0  0  0
   -1.2430   26.3460  -24.4890 C   0  0  0  0  0  0  0  0  0  0  0  0
   -1.4720   25.4420  -25.5320 C   0  0  0  0  0  0  0  0  0  0  0  0
   -3.4450   23.1650  -30.1590 C   0  0  0  0  0  0  0  0  0  0  0  0
   -4.5050   22.4730  -30.7500 C   0  0  0  0  0  0  0  0  0  0  0  0
   -6.1140   18.8580  -34.2250 S   0  0  0  0  0  0  0  0  0  0  0  0
   -4.5102   15.7270  -33.2275 H   0  0  0  0  0  0  0  0  0  0  0  0
   -5.0168   14.9064  -34.7429 H   0  0  0  0  0  0  0  0  0  0  0  0
   -4.6948   16.6736  -34.7429 H   0  0  0  0  0  0  0  0  0  0  0  0
   -7.1755   15.8881  -34.6924 H   0  0  0  0  0  0  0  0  0  0  0  0
   -6.8440   15.4475  -32.9742 H   0  0  0  0  0  0  0  0  0  0  0  0
   -7.7890   19.6380  -31.2200 H   0  0  0  0  0  0  0  0  0  0  0  0
   -6.5897   25.1007  -31.4013 H   0  0  0  0  0  0  0  0  0  0  0  0
   -4.6979   26.3415  -30.3555 H   0  0  0  0  0  0  0  0  0  0  0  0
   -0.2613   27.2985  -28.1374 H   0  0  0  0  0  0  0  0  0  0  0  0
    0.1365   28.9118  -26.2752 H   0  0  0  0  0  0  0  0  0  0  0  0
   -0.4856   28.3006  -23.9358 H   0  0  0  0  0  0  0  0  0  0  0  0
   -1.5180   26.0774  -23.4584 H   0  0  0  0  0  0  0  0  0  0  0  0
   -1.9348   24.4667  -25.3209 H   0  0  0  0  0  0  0  0  0  0  0  0
   -2.5497   22.6185  -29.8275 H   0  0  0  0  0  0  0  0  0  0  0  0
   -4.4400   21.3831  -30.8835 H   0  0  0  0  0  0  0  0  0  0  0  0
  1  2  1  0
  2  3  1  0
  3  4  2  0
  4  5  1  0
  5  6  1  0
  6  7  2  3
  7  8  1  0
  8  9  2  0
  8 10  2  0
  8 11  1  0
 11 12  2  0
 12 13  1  0
 13 14  2  0
 14 15  1  0
 15 16  1  0
 16 17  2  0
 16 18  2  0
 16 19  1  0
 19 20  2  0
 20 21  1  0
 21 22  2  0
 22 23  1  0
 23 24  2  0
 14 25  1  0
 25 26  2  0
  6 27  1  0
 27  3  1  0
 26 11  1  0
 24 19  1  0
  1 28  1  0
  1 29  1  0
  1 30  1  0
  2 31  1  0
  2 32  1  0
  5 33  1  0
 12 34  1  0
 13 35  1  0
 20 36  1  0
 21 37  1  0
 22 38  1  0
 23 39  1  0
 24 40  1  0
 25 41  1  0
 26 42  1  0
M  CHG  1  15  -1
M  END
>  <UniqueID>  (21) 
21

>  <SMILES>  (21) 
CCc1n[nH]c(=NS(=O)(=O)c2ccc([N-]S(=O)(=O)c3ccccc3)cc2)s1

>  <Energy>  (21) 
79.33637073839824

>  <Genealogy>  (21) 
CCc1n[nH]c(=NS(=O)(=O)c2ccc([N-]S(=O)(=O)c3ccccc3)cc2)s1 (protonated)
CCc1n[nH]c(=NS(=O)(=O)c2ccc([N-]S(=O)(=O)c3ccccc3)cc2)s1 (3D coordinates assigned)
CCc1n[nH]c(=NS(=O)(=O)c2ccc([N-]S(=O)(=O)c3ccccc3)cc2)s1 (optimized conformer: 79.33637073839824 kcal/mol)

>  <smiles>  (21) 
CCc1n[nH]c(=NS(=O)(=O)c2ccc(NS(=O)(=O)c3ccccc3)cc2)s1

>  <score_type>  (21) 
oracle

>  <origin>  (21) 
adgpu

>  <m_score__min__energy>  (21) 
-11.050000000000001

>  <m_primary>  (21) 
energy

$$$$
21:0
     RDKit          3D

 73 78  0  0  0  0  0  0  0  0999 V2000
   -3.0030   24.5080  -26.3600 O   0  0  0  0  0  0  0  0  0  0  0  0
   -1.8890   24.9840  -26.7030 C   0  0  0  0  0  0  0  0  0  0  0  0
   -1.4630   24.9350  -28.0730 N   0  0  0  0  0  0  0  0  0  0  0  0
   -2.1570   24.2120  -29.1020 C   0  0  0  0  0  0  0  0  0  0  0  0
   -1.5510   23.1410  -29.7810 C   0  0  0  0  0  0  0  0  0  0  0  0
   -2.2360   22.4770  -30.8030 C   0  0  0  0  0  0  0  0  0  0  0  0
   -3.5400   22.8530  -31.1470 C   0  0  0  0  0  0  0  0  0  0  0  0
   -4.1680   22.1990  -32.2190 O   0  0  0  0  0  0  0  0  0  0  0  0
   -3.6130   21.1480  -32.9570 C   0  0  0  0  0  0  0  0  0  0  0  0
   -4.2360   19.9440  -33.0430 N   0  0  0  0  0  0  0  0  0  0  0  0
   -3.6490   18.9150  -33.7030 C   0  0  0  0  0  0  0  0  0  0  0  0
   -4.4470   17.3150  -33.7450 S   0  0  0  0  0  0  0  0  0  0  0  0
   -5.9960   17.9470  -34.4920 C   0  0  0  0  0  0  0  0  0  0  0  0
   -6.8750   18.5770  -33.4410 C   0  0  0  0  0  0  0  0  0  0  0  0
   -7.5300   17.7710  -32.4910 C   0  0  0  0  0  0  0  0  0  0  0  0
   -8.4030   18.3460  -31.5600 C   0  0  0  0  0  0  0  0  0  0  0  0
   -8.6330   19.7250  -31.5740 C   0  0  0  0  0  0  0  0  0  0  0  0
   -7.9830   20.5330  -32.5110 C   0  0  0  0  0  0  0  0  0  0  0  0
   -7.1050   19.9640  -33.4410 C   0  0  0  0  0  0  0  0  0  0  0  0
   -2.4400   19.0890  -34.2900 N   0  0  0  0  0  0  0  0  0  0  0  0
   -1.8140   20.2940  -34.2200 C   0  0  0  0  0  0  0  0  0  0  0  0
   -0.5330   20.4800  -34.8370 N   0  0  0  0  0  0  0  0  0  0  0  0
    0.1030   21.7760  -34.9910 C   0  0  0  0  0  0  0  0  0  0  0  0
    1.3390   21.5210  -35.8410 C   0  0  0  0  0  0  0  0  0  0  0  0
    1.6030   20.0200  -35.7470 C   0  0  0  0  0  0  0  0  0  0  0  0
    0.2700   19.3900  -35.3620 C   0  0  0  0  0  0  0  0  0  0  0  0
   -2.4020   21.3180  -33.5450 N   0  0  0  0  0  0  0  0  0  0  0  0
   -4.1590   23.9050  -30.4490 C   0  0  0  0  0  0  0  0  0  0  0  0
   -3.4740   24.5700  -29.4250 C   0  0  0  0  0  0  0  0  0  0  0  0
   -1.0240   25.5900  -25.6730 C   0  0  0  0  0  0  0  0  0  0  0  0
   -1.6240   26.4070  -24.7020 C   0  0  0  0  0  0  0  0  0  0  0  0
   -0.8510   27.0220  -23.7140 C   0  0  0  0  0  0  0  0  0  0  0  0
    0.5290   26.8280  -23.6850 C   0  0  0  0  0  0  0  0  0  0  0  0
    1.1380   26.0030  -24.6310 C   0  0  0  0  0  0  0  0  0  0  0  0
    0.3760   25.3550  -25.6190 C   0  0  0  0  0  0  0  0  0  0  0  0
    1.1980   24.2220  -26.7100 S   0  0  0  0  0  0  0  0  0  0  0  0
    1.2190   24.7510  -28.1180 O   0  0  0  0  0  0  0  0  0  0  0  0
    2.6130   24.0210  -26.2430 O   0  0  0  0  0  0  0  0  0  0  0  0
    0.3510   22.6750  -26.7380 C   0  0  0  0  0  0  0  0  0  0  0  0
   -0.5610   22.3380  -25.7250 C   0  0  0  0  0  0  0  0  0  0  0  0
   -1.2410   21.1160  -25.7730 C   0  0  0  0  0  0  0  0  0  0  0  0
   -1.0150   20.2290  -26.8300 C   0  0  0  0  0  0  0  0  0  0  0  0
   -0.1090   20.5630  -27.8410 C   0  0  0  0  0  0  0  0  0  0  0  0
    0.5710   21.7840  -27.7980 C   0  0  0  0  0  0  0  0  0  0  0  0
   -0.5360   25.3560  -28.3150 H   0  0  0  0  0  0  0  0  0  0  0  0
   -0.5339   22.8240  -29.5073 H   0  0  0  0  0  0  0  0  0  0  0  0
   -1.7463   21.6522  -31.3414 H   0  0  0  0  0  0  0  0  0  0  0  0
   -5.7483   18.7000  -35.2546 H   0  0  0  0  0  0  0  0  0  0  0  0
   -6.5377   17.1057  -34.9489 H   0  0  0  0  0  0  0  0  0  0  0  0
   -7.3552   16.6850  -32.4801 H   0  0  0  0  0  0  0  0  0  0  0  0
   -8.9086   17.7122  -30.8166 H   0  0  0  0  0  0  0  0  0  0  0  0
   -9.3258   20.1742  -30.8472 H   0  0  0  0  0  0  0  0  0  0  0  0
   -8.1617   21.6184  -32.5177 H   0  0  0  0  0  0  0  0  0  0  0  0
   -6.5932   20.6044  -34.1745 H   0  0  0  0  0  0  0  0  0  0  0  0
   -0.5742   22.4793  -35.4978 H   0  0  0  0  0  0  0  0  0  0  0  0
    0.3598   22.2237  -34.0196 H   0  0  0  0  0  0  0  0  0  0  0  0
    1.1533   21.8131  -36.8851 H   0  0  0  0  0  0  0  0  0  0  0  0
    2.2009   22.1075  -35.4901 H   0  0  0  0  0  0  0  0  0  0  0  0
    1.9460   19.6295  -36.7165 H   0  0  0  0  0  0  0  0  0  0  0  0
    2.3878   19.7912  -35.0109 H   0  0  0  0  0  0  0  0  0  0  0  0
   -0.2144   18.9448  -36.2436 H   0  0  0  0  0  0  0  0  0  0  0  0
    0.3961   18.5826  -34.6256 H   0  0  0  0  0  0  0  0  0  0  0  0
   -5.1846   24.2064  -30.7083 H   0  0  0  0  0  0  0  0  0  0  0  0
   -3.9721   25.3787  -28.8701 H   0  0  0  0  0  0  0  0  0  0  0  0
   -2.7125   26.5644  -24.7191 H   0  0  0  0  0  0  0  0  0  0  0  0
   -1.3320   27.6601  -22.9581 H   0  0  0  0  0  0  0  0  0  0  0  0
    1.1381   27.3256  -22.9160 H   0  0  0  0  0  0  0  0  0  0  0  0
    2.2280   25.8577  -24.6035 H   0  0  0  0  0  0  0  0  0  0  0  0
   -0.7410   23.0350  -24.8932 H   0  0  0  0  0  0  0  0  0  0  0  0
   -1.9543   20.8528  -24.9781 H   0  0  0  0  0  0  0  0  0  0  0  0
   -1.5500   19.2685  -26.8661 H   0  0  0  0  0  0  0  0  0  0  0  0
    0.0692   19.8642  -28.6716 H   0  0  0  0  0  0  0  0  0  0  0  0
    1.2799   22.0460  -28.5973 H   0  0  0  0  0  0  0  0  0  0  0  0
  1  2  2  0
  2  3  1  0
  3  4  1  0
  4  5  2  0
  5  6  1  0
  6  7  2  0
  7  8  1  0
  8  9  1  0
  9 10  2  0
 10 11  1  0
 11 12  1  0
 12 13  1  0
 13 14  1  0
 14 15  2  0
 15 16  1  0
 16 17  2  0
 17 18  1  0
 18 19  2  0
 11 20  2  0
 20 21  1  0
 21 22  1  0
 22 23  1  0
 23 24  1  0
 24 25  1  0
 25 26  1  0
 21 27  2  0
  7 28  1  0
 28 29  2  0
  2 30  1  0
 30 31  2  0
 31 32  1  0
 32 33  2  0
 33 34  1  0
 34 35  2  0
 35 36  1  0
 36 37  2  0
 36 38  2  0
 36 39  1  0
 39 40  2  0
 40 41  1  0
 41 42  2  0
 42 43  1  0
 43 44  2  0
 29  4  1  0
 35 30  1  0
 44 39  1  0
 27  9  1  0
 19 14  1  0
 26 22  1  0
  3 45  1  0
  5 46  1  0
  6 47  1  0
 13 48  1  0
 13 49  1  0
 15 50  1  0
 16 51  1  0
 17 52  1  0
 18 53  1  0
 19 54  1  0
 23 55  1  0
 23 56  1  0
 24 57  1  0
 24 58  1  0
 25 59  1  0
 25 60  1  0
 26 61  1  0
 26 62  1  0
 28 63  1  0
 29 64  1  0
 31 65  1  0
 32 66  1  0
 33 67  1  0
 34 68  1  0
 40 69  1  0
 41 70  1  0
 42 71  1  0
 43 72  1  0
 44 73  1  0
M  END
>  <UniqueID>  (22) 
22

>  <SMILES>  (22) 
O=C(Nc1ccc(Oc2nc(SCc3ccccc3)nc(N3CCCC3)n2)cc1)c1ccccc1S(=O)(=O)c1ccccc1

>  <Energy>  (22) 
91.46061514175877

>  <Genealogy>  (22) 
O=C(Nc1ccc(Oc2nc(SCc3ccccc3)nc(N3CCCC3)n2)cc1)c1ccccc1S(=O)(=O)c1ccccc1 (3D coordinates assigned)
O=C(Nc1ccc(Oc2nc(SCc3ccccc3)nc(N3CCCC3)n2)cc1)c1ccccc1S(=O)(=O)c1ccccc1 (nonaromatic ring conformer: 91.46061514175877 kcal/mol)

>  <smiles>  (22) 
O=C(Nc1ccc(Oc2nc(SCc3ccccc3)nc(N3CCCC3)n2)cc1)c1ccccc1S(=O)(=O)c1ccccc1

>  <score_type>  (22) 
oracle

>  <origin>  (22) 
adgpu

>  <m_score__min__energy>  (22) 
-11.68

>  <m_primary>  (22) 
energy

$$$$
22:0
     RDKit          3D

 43 46  0  0  0  0  0  0  0  0999 V2000
   -1.0200   21.2630  -29.7870 H   0  0  0  0  0  0  0  0  0  0  0  0
   -0.9040   21.9730  -29.0760 O   0  0  0  0  0  0  0  0  0  0  0  0
   -1.5040   23.2250  -29.1850 C   0  0  0  0  0  0  0  0  0  0  0  0
   -0.9400   24.4190  -28.7820 C   0  0  0  0  0  0  0  0  0  0  0  0
    0.0238   24.5125  -28.2602 H   0  0  0  0  0  0  0  0  0  0  0  0
   -1.7370   25.4560  -29.1180 N   0  0  0  0  0  0  0  0  0  0  0  0
   -2.8100   24.9070  -29.7220 C   0  0  0  0  0  0  0  0  0  0  0  0
   -3.8670   25.6500  -30.2310 O   0  0  0  0  0  0  0  0  0  0  0  0
   -2.7190   23.5350  -29.7600 C   0  0  0  0  0  0  0  0  0  0  0  0
   -3.6680   22.6500  -30.3720 N   0  0  0  0  0  0  0  0  0  0  0  0
   -3.4160   21.8600  -31.3720 C   0  0  0  0  0  0  0  0  0  0  0  0
   -2.1600   21.7480  -31.8800 N   0  0  0  0  0  0  0  0  0  0  0  0
   -1.9030   20.9050  -32.9150 C   0  0  0  0  0  0  0  0  0  0  0  0
   -0.5700   20.8120  -33.4590 N   0  0  0  0  0  0  0  0  0  0  0  0
    0.4570   20.0810  -32.7060 C   0  0  0  0  0  0  0  0  0  0  0  0
    0.5855   20.5538  -31.7211 H   0  0  0  0  0  0  0  0  0  0  0  0
    0.1312   19.0365  -32.5930 H   0  0  0  0  0  0  0  0  0  0  0  0
    1.7970   20.0960  -33.4470 C   0  0  0  0  0  0  0  0  0  0  0  0
    2.2534   21.0924  -33.3526 H   0  0  0  0  0  0  0  0  0  0  0  0
    2.4595   19.3364  -33.0064 H   0  0  0  0  0  0  0  0  0  0  0  0
    1.5940   19.7890  -34.8650 N   0  0  0  0  0  0  0  0  0  0  0  0
    1.1100   18.8630  -34.9390 H   0  0  0  0  0  0  0  0  0  0  0  0
    0.7800   20.8080  -35.5570 C   0  0  0  0  0  0  0  0  0  0  0  0
    1.4628   21.5237  -36.0382 H   0  0  0  0  0  0  0  0  0  0  0  0
    0.1467   20.2662  -36.2750 H   0  0  0  0  0  0  0  0  0  0  0  0
   -0.1780   21.5990  -34.6380 C   0  0  0  0  0  0  0  0  0  0  0  0
    0.3261   22.5174  -34.3027 H   0  0  0  0  0  0  0  0  0  0  0  0
   -1.0866   21.8364  -35.2109 H   0  0  0  0  0  0  0  0  0  0  0  0
   -2.9180   20.1630  -33.4330 N   0  0  0  0  0  0  0  0  0  0  0  0
   -4.1710   20.2500  -32.9200 C   0  0  0  0  0  0  0  0  0  0  0  0
   -5.1240   19.5390  -33.4500 N   0  0  0  0  0  0  0  0  0  0  0  0
   -6.4910   19.4630  -33.0130 C   0  0  0  0  0  0  0  0  0  0  0  0
   -7.3350   20.5910  -32.9970 C   0  0  0  0  0  0  0  0  0  0  0  0
   -6.9596   21.5618  -33.3528 H   0  0  0  0  0  0  0  0  0  0  0  0
   -8.6490   20.4800  -32.5300 C   0  0  0  0  0  0  0  0  0  0  0  0
   -9.3087   21.3602  -32.5330 H   0  0  0  0  0  0  0  0  0  0  0  0
   -9.1250   19.2540  -32.0600 C   0  0  0  0  0  0  0  0  0  0  0  0
  -10.1617   19.1662  -31.7028 H   0  0  0  0  0  0  0  0  0  0  0  0
   -8.2830   18.1390  -32.0440 C   0  0  0  0  0  0  0  0  0  0  0  0
   -8.6549   17.1758  -31.6647 H   0  0  0  0  0  0  0  0  0  0  0  0
   -6.9690   18.2450  -32.5090 C   0  0  0  0  0  0  0  0  0  0  0  0
   -6.3061   17.3677  -32.4793 H   0  0  0  0  0  0  0  0  0  0  0  0
   -4.4150   21.1050  -31.8920 N   0  0  0  0  0  0  0  0  0  0  0  0
  1  2  1  0
  2  3  1  0
  3  4  2  0
  4  5  1  0
  4  6  1  0
  6  7  1  0
  7  8  1  0
  7  9  2  0
  9 10  1  0
 10 11  2  0
 11 12  1  0
 12 13  1  0
 13 14  1  0
 14 15  1  0
 15 16  1  0
 15 17  1  0
 15 18  1  0
 18 19  1  0
 18 20  1  0
 18 21  1  0
 21 22  1  0
 21 23  1  0
 23 24  1  0
 23 25  1  0
 23 26  1  0
 26 27  1  0
 26 28  1  0
 13 29  2  0
 29 30  1  0
 30 31  2  0
 31 32  1  0
 32 33  2  0
 33 34  1  0
 33 35  1  0
 35 36  1  0
 35 37  2  0
 37 38  1  0
 37 39  1  0
 39 40  1  0
 39 41  2  0
 41 42  1  0
 30 43  1  0
  9  3  1  0
 43 11  1  0
 26 14  1  0
 41 32  1  0
M  CHG  4   6  -1   8  -1  12  -1  43  -1
M  END
>  <UniqueID>  (23) 
23

>  <SMILES>  (23) 
[O-]c1[n-]cc(O)c1/N=c1\[n-]c(N2CCNCC2)n/c(=N/c2ccccc2)[n-]1

>  <Energy>  (23) 
92.10569022932911

>  <Genealogy>  (23) 
[O-]c1[n-]cc(O)c1N=c1[n-]c(N2CCNCC2)nc(=Nc2ccccc2)[n-]1 (protonated)
[O-]c1[n-]cc(O)c1/N=c1\[n-]c(N2CCNCC2)n/c(=N/c2ccccc2)[n-]1 (cis-trans isomerization)
[O-]c1[n-]cc(O)c1/N=c1\[n-]c(N2CCNCC2)n/c(=N/c2ccccc2)[n-]1 (3D coordinates assigned)
[O-]c1[n-]cc(O)c1/N=c1\[n-]c(N2CCNCC2)n/c(=N/c2ccccc2)[n-]1 (nonaromatic ring conformer: 92.10569022932911 kcal/mol)

>  <smiles>  (23) 
Oc1c[nH]c(O)c1N=c1[nH]c(N2CCNCC2)nc(=Nc2ccccc2)[nH]1

>  <score_type>  (23) 
oracle

>  <origin>  (23) 
adgpu

>  <m_score__min__energy>  (23) 
-12.6

>  <m_primary>  (23) 
energy

$$$$
23:0
     RDKit          3D

 46 49  0  0  0  0  0  0  0  0999 V2000
    1.5060   20.6370  -33.6440 O   0  0  0  0  0  0  0  0  0  0  0  0
    0.2500   20.9230  -34.4210 S   0  0  0  0  0  0  0  0  0  0  0  0
   -0.0350   19.7520  -35.3190 O   0  0  0  0  0  0  0  0  0  0  0  0
    0.4850   22.3410  -35.3920 N   0  0  0  0  0  0  0  0  0  0  0  0
    1.6440   22.7800  -35.7780 C   0  0  0  0  0  0  0  0  0  0  0  0
    1.7770   23.8860  -36.5390 N   0  0  0  0  0  0  0  0  0  0  0  0
    3.0810   24.1480  -36.8200 C   0  0  0  0  0  0  0  0  0  0  0  0
    3.9950   23.2490  -36.2800 C   0  0  0  0  0  0  0  0  0  0  0  0
    3.1380   22.0840  -35.4210 S   0  0  0  0  0  0  0  0  0  0  0  0
   -1.1200   21.1550  -33.3380 C   0  0  0  0  0  0  0  0  0  0  0  0
   -0.9200   21.4720  -31.9880 C   0  0  0  0  0  0  0  0  0  0  0  0
   -2.0160   21.6640  -31.1420 C   0  0  0  0  0  0  0  0  0  0  0  0
   -3.3210   21.5280  -31.6300 C   0  0  0  0  0  0  0  0  0  0  0  0
   -4.3940   21.7380  -30.7520 O   0  0  0  0  0  0  0  0  0  0  0  0
   -5.7220   21.9860  -31.1300 C   0  0  0  0  0  0  0  0  0  0  0  0
   -6.5160   20.9780  -31.7070 C   0  0  0  0  0  0  0  0  0  0  0  0
   -7.8430   21.2380  -32.0570 C   0  0  0  0  0  0  0  0  0  0  0  0
   -8.3930   22.4990  -31.8240 C   0  0  0  0  0  0  0  0  0  0  0  0
   -7.6200   23.5010  -31.2340 C   0  0  0  0  0  0  0  0  0  0  0  0
   -6.2850   23.2520  -30.8800 C   0  0  0  0  0  0  0  0  0  0  0  0
   -5.3030   24.5190  -30.1340 S   0  0  0  0  0  0  0  0  0  0  0  0
   -4.6970   25.3730  -31.2130 O   0  0  0  0  0  0  0  0  0  0  0  0
   -6.1780   25.3830  -29.2700 O   0  0  0  0  0  0  0  0  0  0  0  0
   -4.0100   23.8450  -29.1420 C   0  0  0  0  0  0  0  0  0  0  0  0
   -4.2850   22.8060  -28.2410 C   0  0  0  0  0  0  0  0  0  0  0  0
   -3.2560   22.2520  -27.4730 C   0  0  0  0  0  0  0  0  0  0  0  0
   -1.9500   22.7340  -27.6010 C   0  0  0  0  0  0  0  0  0  0  0  0
   -1.6700   23.7650  -28.5030 C   0  0  0  0  0  0  0  0  0  0  0  0
   -2.6960   24.3180  -29.2750 C   0  0  0  0  0  0  0  0  0  0  0  0
   -3.5190   21.2310  -32.9910 C   0  0  0  0  0  0  0  0  0  0  0  0
   -2.4230   21.0410  -33.8360 C   0  0  0  0  0  0  0  0  0  0  0  0
    3.3911   25.0089  -37.4304 H   0  0  0  0  0  0  0  0  0  0  0  0
    5.0881   23.2924  -36.3948 H   0  0  0  0  0  0  0  0  0  0  0  0
    0.1019   21.5700  -31.5929 H   0  0  0  0  0  0  0  0  0  0  0  0
   -1.8520   21.9237  -30.0858 H   0  0  0  0  0  0  0  0  0  0  0  0
   -6.0894   19.9796  -31.8835 H   0  0  0  0  0  0  0  0  0  0  0  0
   -8.4550   20.4480  -32.5167 H   0  0  0  0  0  0  0  0  0  0  0  0
   -9.4365   22.7039  -32.1054 H   0  0  0  0  0  0  0  0  0  0  0  0
   -8.0600   24.4914  -31.0456 H   0  0  0  0  0  0  0  0  0  0  0  0
   -5.3122   22.4261  -28.1382 H   0  0  0  0  0  0  0  0  0  0  0  0
   -3.4743   21.4365  -26.7678 H   0  0  0  0  0  0  0  0  0  0  0  0
   -1.1423   22.3020  -26.9919 H   0  0  0  0  0  0  0  0  0  0  0  0
   -0.6415   24.1414  -28.6053 H   0  0  0  0  0  0  0  0  0  0  0  0
   -2.4726   25.1254  -29.9879 H   0  0  0  0  0  0  0  0  0  0  0  0
   -4.5403   21.1481  -33.3910 H   0  0  0  0  0  0  0  0  0  0  0  0
   -2.5847   20.8008  -34.8972 H   0  0  0  0  0  0  0  0  0  0  0  0
  1  2  2  0
  2  3  2  0
  2  4  1  0
  4  5  2  3
  5  6  1  0
  6  7  1  0
  7  8  2  0
  8  9  1  0
  2 10  1  0
 10 11  2  0
 11 12  1  0
 12 13  2  0
 13 14  1  0
 14 15  1  0
 15 16  2  0
 16 17  1  0
 17 18  2  0
 18 19  1  0
 19 20  2  0
 20 21  1  0
 21 22  2  0
 21 23  2  0
 21 24  1  0
 24 25  2  0
 25 26  1  0
 26 27  2  0
 27 28  1  0
 28 29  2  0
 13 30  1  0
 30 31  2  0
  9  5  1  0
 31 10  1  0
 20 15  1  0
 29 24  1  0
  7 32  1  0
  8 33  1  0
 11 34  1  0
 12 35  1  0
 16 36  1  0
 17 37  1  0
 18 38  1  0
 19 39  1  0
 25 40  1  0
 26 41  1  0
 27 42  1  0
 28 43  1  0
 29 44  1  0
 30 45  1  0
 31 46  1  0
M  CHG  1   6  -1
M  END
>  <UniqueID>  (24) 
24

>  <SMILES>  (24) 
O=S(=O)(N=c1[n-]ccs1)c1ccc(Oc2ccccc2S(=O)(=O)c2ccccc2)cc1

>  <Energy>  (24) 
93.68862826199847

>  <Genealogy>  (24) 
O=S(=O)(N=c1[n-]ccs1)c1ccc(Oc2ccccc2S(=O)(=O)c2ccccc2)cc1 (protonated)
O=S(=O)(N=c1[n-]ccs1)c1ccc(Oc2ccccc2S(=O)(=O)c2ccccc2)cc1 (3D coordinates assigned)
O=S(=O)(N=c1[n-]ccs1)c1ccc(Oc2ccccc2S(=O)(=O)c2ccccc2)cc1 (optimized conformer: 93.68862826199847 kcal/mol)

>  <smiles>  (24) 
O=S(=O)(N=c1[nH]ccs1)c1ccc(Oc2ccccc2S(=O)(=O)c2ccccc2)cc1

>  <score_type>  (24) 
oracle

>  <origin>  (24) 
adgpu

>  <m_score__min__energy>  (24) 
-11.02

>  <m_primary>  (24) 
energy

$$$$
24:0
     RDKit          3D

 43 45  0  0  0  0  0  0  0  0999 V2000
   -5.7930   25.3290  -29.8000 O   0  0  0  0  0  0  0  0  0  0  0  0
   -4.8180   24.9340  -30.4950 C   0  0  0  0  0  0  0  0  0  0  0  0
   -3.4910   25.2930  -30.0960 N   0  0  0  0  0  0  0  0  0  0  0  0
   -2.5830   24.4780  -29.3430 C   0  0  0  0  0  0  0  0  0  0  0  0
   -1.7030   25.0280  -28.3940 C   0  0  0  0  0  0  0  0  0  0  0  0
   -0.8540   24.1970  -27.6580 C   0  0  0  0  0  0  0  0  0  0  0  0
   -0.8830   22.8140  -27.8520 C   0  0  0  0  0  0  0  0  0  0  0  0
   -1.7700   22.2530  -28.7810 C   0  0  0  0  0  0  0  0  0  0  0  0
   -1.8330   20.5070  -29.0030 S   0  0  0  0  0  0  0  0  0  0  0  0
   -0.5540   20.0290  -29.6330 O   0  0  0  0  0  0  0  0  0  0  0  0
   -2.9770   20.1530  -29.9120 O   0  0  0  0  0  0  0  0  0  0  0  0
   -2.0550   19.7120  -27.4260 C   0  0  0  0  0  0  0  0  0  0  0  0
   -3.2910   19.0950  -27.3870 F   0  0  0  0  0  0  0  0  0  0  0  0
   -1.0650   18.7660  -27.2410 F   0  0  0  0  0  0  0  0  0  0  0  0
   -1.9810   20.6540  -26.4180 F   0  0  0  0  0  0  0  0  0  0  0  0
   -2.6270   23.0880  -29.5110 C   0  0  0  0  0  0  0  0  0  0  0  0
   -5.0370   24.1270  -31.6580 N   0  0  0  0  0  0  0  0  0  0  0  0
   -5.9530   23.0260  -31.7460 C   0  0  0  0  0  0  0  0  0  0  0  0
   -7.3170   23.2930  -31.6280 C   0  0  0  0  0  0  0  0  0  0  0  0
   -8.2470   22.2660  -31.7430 C   0  0  0  0  0  0  0  0  0  0  0  0
   -7.8330   20.9490  -31.9560 C   0  0  0  0  0  0  0  0  0  0  0  0
   -9.1010   19.7400  -32.1370 Cl  0  0  0  0  0  0  0  0  0  0  0  0
   -6.4520   20.6470  -32.0630 C   0  0  0  0  0  0  0  0  0  0  0  0
   -5.8890   18.9660  -32.2340 S   0  0  0  0  0  0  0  0  0  0  0  0
   -4.3870   18.9330  -32.2220 O   0  0  0  0  0  0  0  0  0  0  0  0
   -6.3600   18.1170  -31.0860 O   0  0  0  0  0  0  0  0  0  0  0  0
   -6.4820   18.3180  -33.7970 C   0  0  0  0  0  0  0  0  0  0  0  0
   -6.0090   16.9140  -34.1320 C   0  0  0  0  0  0  0  0  0  0  0  0
   -5.4050   18.1110  -34.8500 C   0  0  0  0  0  0  0  0  0  0  0  0
   -5.5160   21.7160  -32.0340 C   0  0  0  0  0  0  0  0  0  0  0  0
   -4.1660   21.5220  -32.3390 O   0  0  0  0  0  0  0  0  0  0  0  0
   -1.6828   26.1156  -28.2305 H   0  0  0  0  0  0  0  0  0  0  0  0
   -0.1608   24.6333  -26.9237 H   0  0  0  0  0  0  0  0  0  0  0  0
   -0.2087   22.1642  -27.2748 H   0  0  0  0  0  0  0  0  0  0  0  0
   -3.3409   22.6476  -30.2226 H   0  0  0  0  0  0  0  0  0  0  0  0
   -7.6588   24.3220  -31.4429 H   0  0  0  0  0  0  0  0  0  0  0  0
   -9.3205   22.4930  -31.6654 H   0  0  0  0  0  0  0  0  0  0  0  0
   -7.4585   18.8235  -33.7671 H   0  0  0  0  0  0  0  0  0  0  0  0
   -5.4080   16.3480  -33.4050 H   0  0  0  0  0  0  0  0  0  0  0  0
   -6.5007   15.9830  -34.4504 H   0  0  0  0  0  0  0  0  0  0  0  0
   -4.3674   18.4112  -34.6421 H   0  0  0  0  0  0  0  0  0  0  0  0
   -5.2789   18.4049  -35.9025 H   0  0  0  0  0  0  0  0  0  0  0  0
   -3.5600   20.8900  -31.8360 H   0  0  0  0  0  0  0  0  0  0  0  0
  1  2  2  0
  2  3  1  0
  3  4  1  0
  4  5  2  0
  5  6  1  0
  6  7  2  0
  7  8  1  0
  8  9  1  0
  9 10  2  0
  9 11  2  0
  9 12  1  0
 12 13  1  0
 12 14  1  0
 12 15  1  0
  8 16  2  0
  2 17  1  0
 17 18  1  0
 18 19  2  0
 19 20  1  0
 20 21  2  0
 21 22  1  0
 21 23  1  0
 23 24  1  0
 24 25  2  0
 24 26  2  0
 24 27  1  0
 27 28  1  0
 28 29  1  0
 23 30  2  0
 30 31  1  0
 16  4  1  0
 30 18  1  0
 29 27  1  0
  5 32  1  0
  6 33  1  0
  7 34  1  0
 16 35  1  0
 19 36  1  0
 20 37  1  0
 27 38  1  0
 28 39  1  0
 28 40  1  0
 29 41  1  0
 29 42  1  0
 31 43  1  0
M  CHG  2   3  -1  17  -1
M  END
>  <UniqueID>  (25) 
25

>  <SMILES>  (25) 
O=C([N-]c1cccc(S(=O)(=O)C(F)(F)F)c1)[N-]c1ccc(Cl)c(S(=O)(=O)C2CC2)c1O

>  <Energy>  (25) 
319.7262485323141

>  <Genealogy>  (25) 
O=C([N-]c1cccc(S(=O)(=O)C(F)(F)F)c1)[N-]c1ccc(Cl)c(S(=O)(=O)C2CC2)c1O (protonated)
O=C([N-]c1cccc(S(=O)(=O)C(F)(F)F)c1)[N-]c1ccc(Cl)c(S(=O)(=O)C2CC2)c1O (3D coordinates assigned)
O=C([N-]c1cccc(S(=O)(=O)C(F)(F)F)c1)[N-]c1ccc(Cl)c(S(=O)(=O)C2CC2)c1O (nonaromatic ring conformer: 319.7262485323141 kcal/mol)

>  <smiles>  (25) 
O=C(Nc1cccc(S(=O)(=O)C(F)(F)F)c1)Nc1ccc(Cl)c(S(=O)(=O)C2CC2)c1O

>  <score_type>  (25) 
oracle

>  <origin>  (25) 
adgpu

>  <m_score__min__energy>  (25) 
-13.49

>  <m_primary>  (25) 
energy

$$$$
25:0
     RDKit          3D

 33 34  0  0  0  0  0  0  0  0999 V2000
   -6.8840   17.3650  -33.8470 C   0  0  0  0  0  0  0  0  0  0  0  0
   -6.5470   18.5150  -32.9550 C   0  0  0  0  0  0  0  0  0  0  0  0
   -6.0130   18.2910  -31.8350 O   0  0  0  0  0  0  0  0  0  0  0  0
   -6.9190   19.8470  -33.3370 N   0  0  0  0  0  0  0  0  0  0  0  0
   -6.4930   21.0340  -32.6440 C   0  0  0  0  0  0  0  0  0  0  0  0
   -7.4490   21.8360  -32.0010 C   0  0  0  0  0  0  0  0  0  0  0  0
   -7.0630   23.0030  -31.3370 C   0  0  0  0  0  0  0  0  0  0  0  0
   -5.7180   23.3910  -31.3170 C   0  0  0  0  0  0  0  0  0  0  0  0
   -5.2250   24.8540  -30.4710 S   0  0  0  0  0  0  0  0  0  0  0  0
   -5.7380   26.0490  -31.2230 O   0  0  0  0  0  0  0  0  0  0  0  0
   -5.7870   24.8740  -29.0760 O   0  0  0  0  0  0  0  0  0  0  0  0
   -3.4950   24.9370  -30.3850 N   0  0  0  0  0  0  0  0  0  0  0  0
   -2.6800   24.2630  -29.4150 C   0  0  0  0  0  0  0  0  0  0  0  0
   -2.9830   22.9660  -28.9590 C   0  0  0  0  0  0  0  0  0  0  0  0
   -2.1590   22.3400  -28.0180 C   0  0  0  0  0  0  0  0  0  0  0  0
   -1.0320   23.0000  -27.5240 C   0  0  0  0  0  0  0  0  0  0  0  0
   -0.7270   24.2880  -27.9670 C   0  0  0  0  0  0  0  0  0  0  0  0
   -1.5470   24.9200  -28.9100 C   0  0  0  0  0  0  0  0  0  0  0  0
   -1.2300   26.2020  -29.3430 O   0  0  0  0  0  0  0  0  0  0  0  0
   -4.7640   22.6120  -31.9820 C   0  0  0  0  0  0  0  0  0  0  0  0
   -5.1470   21.4430  -32.6460 C   0  0  0  0  0  0  0  0  0  0  0  0
   -7.1409   16.4885  -33.2340 H   0  0  0  0  0  0  0  0  0  0  0  0
   -7.7415   17.6324  -34.4819 H   0  0  0  0  0  0  0  0  0  0  0  0
   -6.0177   17.1273  -34.4819 H   0  0  0  0  0  0  0  0  0  0  0  0
   -7.6090   19.9540  -34.1140 H   0  0  0  0  0  0  0  0  0  0  0  0
   -8.5093   21.5436  -32.0201 H   0  0  0  0  0  0  0  0  0  0  0  0
   -7.8187   23.6193  -30.8280 H   0  0  0  0  0  0  0  0  0  0  0  0
   -3.8709   22.4431  -29.3441 H   0  0  0  0  0  0  0  0  0  0  0  0
   -2.3993   21.3258  -27.6664 H   0  0  0  0  0  0  0  0  0  0  0  0
   -0.3844   22.5048  -26.7855 H   0  0  0  0  0  0  0  0  0  0  0  0
    0.1594   24.8078  -27.5745 H   0  0  0  0  0  0  0  0  0  0  0  0
   -3.7083   22.9210  -31.9821 H   0  0  0  0  0  0  0  0  0  0  0  0
   -4.3924   20.8402  -33.1725 H   0  0  0  0  0  0  0  0  0  0  0  0
  1  2  1  0
  2  3  2  0
  2  4  1  0
  4  5  1  0
  5  6  2  0
  6  7  1  0
  7  8  2  0
  8  9  1  0
  9 10  2  0
  9 11  2  0
  9 12  1  0
 12 13  1  0
 13 14  2  0
 14 15  1  0
 15 16  2  0
 16 17  1  0
 17 18  2  0
 18 19  1  0
  8 20  1  0
 20 21  2  0
 21  5  1  0
 18 13  1  0
  1 22  1  0
  1 23  1  0
  1 24  1  0
  4 25  1  0
  6 26  1  0
  7 27  1  0
 14 28  1  0
 15 29  1  0
 16 30  1  0
 17 31  1  0
 20 32  1  0
 21 33  1  0
M  CHG  2  12  -1  19  -1
M  END
>  <UniqueID>  (26) 
26

>  <SMILES>  (26) 
CC(=O)Nc1ccc(S(=O)(=O)[N-]c2ccccc2[O-])cc1

>  <Energy>  (26) 
38.4096597195173

>  <Genealogy>  (26) 
CC(=O)Nc1ccc(S(=O)(=O)[N-]c2ccccc2[O-])cc1 (protonated)
CC(=O)Nc1ccc(S(=O)(=O)[N-]c2ccccc2[O-])cc1 (3D coordinates assigned)
CC(=O)Nc1ccc(S(=O)(=O)[N-]c2ccccc2[O-])cc1 (optimized conformer: 38.4096597195173 kcal/mol)

>  <smiles>  (26) 
CC(=O)Nc1ccc(S(=O)(=O)Nc2ccccc2O)cc1

>  <score_type>  (26) 
oracle

>  <origin>  (26) 
adgpu

>  <m_score__min__energy>  (26) 
-12.890000000000001

>  <m_primary>  (26) 
energy

$$$$
26:0
     RDKit          3D

 49 52  0  0  0  0  0  0  0  0999 V2000
   -8.1960   19.6600  -32.6760 C   0  0  0  0  0  0  0  0  0  0  0  0
   -7.1490   20.0260  -33.5690 O   0  0  0  0  0  0  0  0  0  0  0  0
   -6.0170   19.2370  -33.8310 C   0  0  0  0  0  0  0  0  0  0  0  0
   -6.0990   18.0090  -34.5050 C   0  0  0  0  0  0  0  0  0  0  0  0
   -4.9470   17.2650  -34.7360 C   0  0  0  0  0  0  0  0  0  0  0  0
   -3.7160   17.7420  -34.2870 C   0  0  0  0  0  0  0  0  0  0  0  0
   -3.6250   18.9430  -33.6280 N   0  0  0  0  0  0  0  0  0  0  0  0
   -2.4060   19.4110  -33.1980 C   0  0  0  0  0  0  0  0  0  0  0  0
   -1.3580   18.7330  -33.3970 O   0  0  0  0  0  0  0  0  0  0  0  0
   -2.3060   20.6550  -32.5360 C   0  0  0  0  0  0  0  0  0  0  0  0
   -0.9440   21.2110  -32.1610 C   0  0  0  0  0  0  0  0  0  0  0  0
    0.0000   21.1280  -33.3320 C   0  0  0  0  0  0  0  0  0  0  0  0
    1.2360   20.4650  -33.2030 C   0  0  0  0  0  0  0  0  0  0  0  0
    2.0960   20.3570  -34.3000 C   0  0  0  0  0  0  0  0  0  0  0  0
    1.7290   20.9030  -35.5350 C   0  0  0  0  0  0  0  0  0  0  0  0
    0.5000   21.5600  -35.6740 C   0  0  0  0  0  0  0  0  0  0  0  0
   -0.3620   21.6730  -34.5790 C   0  0  0  0  0  0  0  0  0  0  0  0
   -3.4890   21.3970  -32.3460 C   0  0  0  0  0  0  0  0  0  0  0  0
   -3.4820   22.6750  -31.6930 N   0  0  0  0  0  0  0  0  0  0  0  0
   -4.6720   23.2770  -31.1470 C   0  0  0  0  0  0  0  0  0  0  0  0
   -5.8660   22.5370  -31.1270 C   0  0  0  0  0  0  0  0  0  0  0  0
   -7.0380   23.0820  -30.5770 C   0  0  0  0  0  0  0  0  0  0  0  0
   -8.3190   22.3000  -30.6010 C   0  0  0  0  0  0  0  0  0  0  0  0
   -7.0160   24.3860  -30.0600 C   0  0  0  0  0  0  0  0  0  0  0  0
   -5.8260   25.1190  -30.0510 C   0  0  0  0  0  0  0  0  0  0  0  0
   -4.6520   24.5670  -30.5770 C   0  0  0  0  0  0  0  0  0  0  0  0
   -3.4720   25.2990  -30.5020 O   0  0  0  0  0  0  0  0  0  0  0  0
   -4.6700   20.8890  -32.7780 N   0  0  0  0  0  0  0  0  0  0  0  0
   -4.7590   19.6910  -33.4060 C   0  0  0  0  0  0  0  0  0  0  0  0
   -7.8516   19.7804  -31.6382 H   0  0  0  0  0  0  0  0  0  0  0  0
   -9.0690   20.3063  -32.8500 H   0  0  0  0  0  0  0  0  0  0  0  0
   -8.4762   18.6106  -32.8500 H   0  0  0  0  0  0  0  0  0  0  0  0
   -7.0741   17.6350  -34.8505 H   0  0  0  0  0  0  0  0  0  0  0  0
   -5.0065   16.3052  -35.2701 H   0  0  0  0  0  0  0  0  0  0  0  0
   -2.8066   17.1487  -34.4630 H   0  0  0  0  0  0  0  0  0  0  0  0
   -1.0532   22.2627  -31.8579 H   0  0  0  0  0  0  0  0  0  0  0  0
   -0.5338   20.6178  -31.3304 H   0  0  0  0  0  0  0  0  0  0  0  0
    1.5259   20.0303  -32.2350 H   0  0  0  0  0  0  0  0  0  0  0  0
    3.0621   19.8423  -34.1921 H   0  0  0  0  0  0  0  0  0  0  0  0
    2.4063   20.8161  -36.3974 H   0  0  0  0  0  0  0  0  0  0  0  0
    0.2125   21.9876  -36.6458 H   0  0  0  0  0  0  0  0  0  0  0  0
   -1.3266   22.1896  -34.6920 H   0  0  0  0  0  0  0  0  0  0  0  0
   -2.5640   23.1080  -31.4480 H   0  0  0  0  0  0  0  0  0  0  0  0
   -5.8833   21.5202  -31.5464 H   0  0  0  0  0  0  0  0  0  0  0  0
   -8.6461   22.1003  -29.5699 H   0  0  0  0  0  0  0  0  0  0  0  0
   -9.0928   22.8799  -31.1253 H   0  0  0  0  0  0  0  0  0  0  0  0
   -8.1569   21.3467  -31.1253 H   0  0  0  0  0  0  0  0  0  0  0  0
   -7.9383   24.8330  -29.6604 H   0  0  0  0  0  0  0  0  0  0  0  0
   -5.8119   26.1345  -29.6286 H   0  0  0  0  0  0  0  0  0  0  0  0
  1  2  1  0
  2  3  1  0
  3  4  2  0
  4  5  1  0
  5  6  2  0
  6  7  1  0
  7  8  1  0
  8  9  2  0
  8 10  1  0
 10 11  1  0
 11 12  1  0
 12 13  2  0
 13 14  1  0
 14 15  2  0
 15 16  1  0
 16 17  2  0
 10 18  2  0
 18 19  1  0
 19 20  1  0
 20 21  2  0
 21 22  1  0
 22 23  1  0
 22 24  2  0
 24 25  1  0
 25 26  2  0
 26 27  1  0
 18 28  1  0
 28 29  2  0
 29  3  1  0
 29  7  1  0
 17 12  1  0
 26 20  1  0
  1 30  1  0
  1 31  1  0
  1 32  1  0
  4 33  1  0
  5 34  1  0
  6 35  1  0
 11 36  1  0
 11 37  1  0
 13 38  1  0
 14 39  1  0
 15 40  1  0
 16 41  1  0
 17 42  1  0
 19 43  1  0
 21 44  1  0
 23 45  1  0
 23 46  1  0
 23 47  1  0
 24 48  1  0
 25 49  1  0
M  CHG  1  27  -1
M  END
>  <UniqueID>  (27) 
27

>  <SMILES>  (27) 
COc1cccn2c(=O)c(Cc3ccccc3)c(Nc3cc(C)ccc3[O-])nc12

>  <Energy>  (27) 
64.9412449166114

>  <Genealogy>  (27) 
COc1cccn2c(=O)c(Cc3ccccc3)c(Nc3cc(C)ccc3[O-])nc12 (protonated)
COc1cccn2c(=O)c(Cc3ccccc3)c(Nc3cc(C)ccc3[O-])nc12 (3D coordinates assigned)
COc1cccn2c(=O)c(Cc3ccccc3)c(Nc3cc(C)ccc3[O-])nc12 (optimized conformer: 64.9412449166114 kcal/mol)

>  <smiles>  (27) 
COc1cccn2c(=O)c(Cc3ccccc3)c(Nc3cc(C)ccc3O)nc12

>  <score_type>  (27) 
oracle

>  <origin>  (27) 
adgpu

>  <m_score__min__energy>  (27) 
-11.58

>  <m_primary>  (27) 
energy

$$$$
27:0
     RDKit          3D

 50 52  0  0  0  0  0  0  0  0999 V2000
   -9.5380   18.9290  -32.6570 C   0  0  0  0  0  0  0  0  0  0  0  0
   -9.2500   20.3100  -32.8530 O   0  0  0  0  0  0  0  0  0  0  0  0
   -8.1530   20.9780  -32.2870 C   0  0  0  0  0  0  0  0  0  0  0  0
   -6.8780   20.7160  -32.8000 C   0  0  0  0  0  0  0  0  0  0  0  0
   -5.7540   21.3540  -32.2680 C   0  0  0  0  0  0  0  0  0  0  0  0
   -5.8850   22.2540  -31.2010 C   0  0  0  0  0  0  0  0  0  0  0  0
   -4.7150   22.9130  -30.6900 N   0  0  0  0  0  0  0  0  0  0  0  0
   -4.5190   24.3380  -30.7100 C   0  0  0  0  0  0  0  0  0  0  0  0
   -5.3750   25.0950  -31.2420 O   0  0  0  0  0  0  0  0  0  0  0  0
   -3.3360   24.9240  -30.1550 N   0  0  0  0  0  0  0  0  0  0  0  0
   -2.6090   24.4370  -29.0170 C   0  0  0  0  0  0  0  0  0  0  0  0
   -2.9880   23.2540  -28.3710 C   0  0  0  0  0  0  0  0  0  0  0  0
   -2.3000   22.8180  -27.2420 C   0  0  0  0  0  0  0  0  0  0  0  0
   -1.2320   23.5640  -26.7190 C   0  0  0  0  0  0  0  0  0  0  0  0
   -0.5250   23.0450  -25.4930 C   0  0  0  0  0  0  0  0  0  0  0  0
   -0.8370   24.7650  -27.3640 C   0  0  0  0  0  0  0  0  0  0  0  0
    0.5150   25.7360  -26.7260 S   0  0  0  0  0  0  0  0  0  0  0  0
    1.2310   24.9310  -25.6790 O   0  0  0  0  0  0  0  0  0  0  0  0
    1.5080   26.0570  -27.8090 O   0  0  0  0  0  0  0  0  0  0  0  0
   -0.0860   27.2170  -26.0050 N   0  0  0  0  0  0  0  0  0  0  0  0
    0.9140   27.8470  -25.1240 C   0  0  0  0  0  0  0  0  0  0  0  0
    1.0690   27.0970  -23.7790 C   0  0  0  0  0  0  0  0  0  0  0  0
   -0.0140   26.2320  -23.4850 O   0  0  0  0  0  0  0  0  0  0  0  0
   -1.2370   26.8570  -23.7990 C   0  0  0  0  0  0  0  0  0  0  0  0
   -1.3830   27.0100  -25.3240 C   0  0  0  0  0  0  0  0  0  0  0  0
   -1.5550   25.2030  -28.5000 C   0  0  0  0  0  0  0  0  0  0  0  0
   -1.2330   26.4010  -29.1290 O   0  0  0  0  0  0  0  0  0  0  0  0
   -7.1670   22.5370  -30.6990 C   0  0  0  0  0  0  0  0  0  0  0  0
   -8.2920   21.9000  -31.2320 C   0  0  0  0  0  0  0  0  0  0  0  0
   -9.5830   18.7132  -31.5793 H   0  0  0  0  0  0  0  0  0  0  0  0
  -10.5059   18.6870  -33.1202 H   0  0  0  0  0  0  0  0  0  0  0  0
   -8.7475   18.3203  -33.1202 H   0  0  0  0  0  0  0  0  0  0  0  0
   -6.7592   20.0023  -33.6285 H   0  0  0  0  0  0  0  0  0  0  0  0
   -4.7590   21.1484  -32.6897 H   0  0  0  0  0  0  0  0  0  0  0  0
   -4.0010   22.3180  -30.2140 H   0  0  0  0  0  0  0  0  0  0  0  0
   -3.8336   22.6662  -28.7575 H   0  0  0  0  0  0  0  0  0  0  0  0
   -2.5967   21.8779  -26.7540 H   0  0  0  0  0  0  0  0  0  0  0  0
   -1.0330   23.4179  -24.5914 H   0  0  0  0  0  0  0  0  0  0  0  0
   -0.5445   21.9452  -25.4965 H   0  0  0  0  0  0  0  0  0  0  0  0
    0.5184   23.3932  -25.4965 H   0  0  0  0  0  0  0  0  0  0  0  0
    1.8857   27.8529  -25.6396 H   0  0  0  0  0  0  0  0  0  0  0  0
    0.5704   28.8680  -24.9018 H   0  0  0  0  0  0  0  0  0  0  0  0
    1.9913   26.4988  -23.8184 H   0  0  0  0  0  0  0  0  0  0  0  0
    1.0986   27.8587  -22.9859 H   0  0  0  0  0  0  0  0  0  0  0  0
   -2.0664   26.2451  -23.4147 H   0  0  0  0  0  0  0  0  0  0  0  0
   -1.2583   27.8545  -23.3357 H   0  0  0  0  0  0  0  0  0  0  0  0
   -1.8497   26.0985  -25.7258 H   0  0  0  0  0  0  0  0  0  0  0  0
   -2.0014   27.9005  -25.5104 H   0  0  0  0  0  0  0  0  0  0  0  0
   -7.2861   23.2639  -29.8820 H   0  0  0  0  0  0  0  0  0  0  0  0
   -9.2900   22.1202  -30.8252 H   0  0  0  0  0  0  0  0  0  0  0  0
  1  2  1  0
  2  3  1  0
  3  4  2  0
  4  5  1  0
  5  6  2  0
  6  7  1  0
  7  8  1  0
  8  9  2  0
  8 10  1  0
 10 11  1  0
 11 12  2  0
 12 13  1  0
 13 14  2  0
 14 15  1  0
 14 16  1  0
 16 17  1  0
 17 18  2  0
 17 19  2  0
 17 20  1  0
 20 21  1  0
 21 22  1  0
 22 23  1  0
 23 24  1  0
 24 25  1  0
 16 26  2  0
 26 27  1  0
  6 28  1  0
 28 29  2  0
 29  3  1  0
 26 11  1  0
 25 20  1  0
  1 30  1  0
  1 31  1  0
  1 32  1  0
  4 33  1  0
  5 34  1  0
  7 35  1  0
 12 36  1  0
 13 37  1  0
 15 38  1  0
 15 39  1  0
 15 40  1  0
 21 41  1  0
 21 42  1  0
 22 43  1  0
 22 44  1  0
 24 45  1  0
 24 46  1  0
 25 47  1  0
 25 48  1  0
 28 49  1  0
 29 50  1  0
M  CHG  2  10  -1  27  -1
M  END
>  <UniqueID>  (28) 
28

>  <SMILES>  (28) 
COc1ccc(NC(=O)[N-]c2ccc(C)c(S(=O)(=O)N3CCOCC3)c2[O-])cc1

>  <Energy>  (28) 
73.20699629944127

>  <Genealogy>  (28) 
COc1ccc(NC(=O)[N-]c2ccc(C)c(S(=O)(=O)N3CCOCC3)c2[O-])cc1 (protonated)
COc1ccc(NC(=O)[N-]c2ccc(C)c(S(=O)(=O)N3CCOCC3)c2[O-])cc1 (3D coordinates assigned)
COc1ccc(NC(=O)[N-]c2ccc(C)c(S(=O)(=O)N3CCOCC3)c2[O-])cc1 (nonaromatic ring conformer: 73.20699629944127 kcal/mol)

>  <smiles>  (28) 
COc1ccc(NC(=O)Nc2ccc(C)c(S(=O)(=O)N3CCOCC3)c2O)cc1

>  <score_type>  (28) 
oracle

>  <origin>  (28) 
adgpu

>  <m_score__min__energy>  (28) 
-12.51

>  <m_primary>  (28) 
energy

$$$$
28:0
     RDKit          3D

 55 58  0  0  0  0  0  0  0  0999 V2000
   -8.6250   19.8820  -32.2750 C   0  0  0  0  0  0  0  0  0  0  0  0
   -7.7830   21.1240  -32.1390 C   0  0  0  0  0  0  0  0  0  0  0  0
   -8.3790   22.2790  -31.6070 C   0  0  0  0  0  0  0  0  0  0  0  0
   -7.6460   23.4520  -31.4480 C   0  0  0  0  0  0  0  0  0  0  0  0
   -6.2990   23.5020  -31.8300 C   0  0  0  0  0  0  0  0  0  0  0  0
   -5.5080   24.6840  -31.6350 N   0  0  0  0  0  0  0  0  0  0  0  0
   -4.9300   25.1240  -30.4010 C   0  0  0  0  0  0  0  0  0  0  0  0
   -5.6920   25.4490  -29.4540 O   0  0  0  0  0  0  0  0  0  0  0  0
   -3.5060   25.1870  -30.2460 N   0  0  0  0  0  0  0  0  0  0  0  0
   -2.6600   24.1850  -29.6650 C   0  0  0  0  0  0  0  0  0  0  0  0
   -2.1790   24.3870  -28.3640 C   0  0  0  0  0  0  0  0  0  0  0  0
   -1.3330   23.4470  -27.7690 C   0  0  0  0  0  0  0  0  0  0  0  0
   -0.9430   22.3080  -28.4760 C   0  0  0  0  0  0  0  0  0  0  0  0
   -1.3930   22.1060  -29.7870 C   0  0  0  0  0  0  0  0  0  0  0  0
   -0.9010   20.6770  -30.6940 S   0  0  0  0  0  0  0  0  0  0  0  0
    0.5010   20.8920  -31.1980 O   0  0  0  0  0  0  0  0  0  0  0  0
   -0.9040   19.4750  -29.7890 O   0  0  0  0  0  0  0  0  0  0  0  0
   -1.9980   20.4440  -32.0390 N   0  0  0  0  0  0  0  0  0  0  0  0
   -2.0030   19.0410  -32.5120 C   0  0  0  0  0  0  0  0  0  0  0  0
   -1.1310   18.8340  -33.7650 C   0  0  0  0  0  0  0  0  0  0  0  0
   -0.0270   19.7080  -33.7430 O   0  0  0  0  0  0  0  0  0  0  0  0
   -0.4580   21.0460  -33.9280 C   0  0  0  0  0  0  0  0  0  0  0  0
   -1.7350   21.4010  -33.1270 C   0  0  0  0  0  0  0  0  0  0  0  0
   -2.2480   23.0450  -30.3810 C   0  0  0  0  0  0  0  0  0  0  0  0
   -5.6850   22.3540  -32.3520 C   0  0  0  0  0  0  0  0  0  0  0  0
   -4.3330   22.4080  -32.6700 O   0  0  0  0  0  0  0  0  0  0  0  0
   -6.4240   21.1660  -32.5450 C   0  0  0  0  0  0  0  0  0  0  0  0
   -5.6290   19.7280  -33.2380 S   0  0  0  0  0  0  0  0  0  0  0  0
   -4.2980   20.0910  -33.8360 O   0  0  0  0  0  0  0  0  0  0  0  0
   -6.4820   19.1800  -34.3490 O   0  0  0  0  0  0  0  0  0  0  0  0
   -5.3900   18.4360  -32.0130 C   0  0  0  0  0  0  0  0  0  0  0  0
   -6.5680   17.4840  -31.8700 C   0  0  0  0  0  0  0  0  0  0  0  0
   -5.2920   17.0140  -32.5440 C   0  0  0  0  0  0  0  0  0  0  0  0
   -8.8824   19.5023  -31.2752 H   0  0  0  0  0  0  0  0  0  0  0  0
   -9.5471   20.1225  -32.8245 H   0  0  0  0  0  0  0  0  0  0  0  0
   -8.0602   19.1145  -32.8245 H   0  0  0  0  0  0  0  0  0  0  0  0
   -9.4385   22.2566  -31.3121 H   0  0  0  0  0  0  0  0  0  0  0  0
   -8.1269   24.3440  -31.0203 H   0  0  0  0  0  0  0  0  0  0  0  0
   -2.4691   25.2907  -27.8080 H   0  0  0  0  0  0  0  0  0  0  0  0
   -0.9736   23.6049  -26.7414 H   0  0  0  0  0  0  0  0  0  0  0  0
   -0.2811   21.5679  -28.0026 H   0  0  0  0  0  0  0  0  0  0  0  0
   -1.6208   18.3966  -31.7066 H   0  0  0  0  0  0  0  0  0  0  0  0
   -3.0382   18.7843  -32.7810 H   0  0  0  0  0  0  0  0  0  0  0  0
   -0.7706   17.7950  -33.7885 H   0  0  0  0  0  0  0  0  0  0  0  0
   -1.7354   19.0440  -34.6598 H   0  0  0  0  0  0  0  0  0  0  0  0
    0.3512   21.7195  -33.6092 H   0  0  0  0  0  0  0  0  0  0  0  0
   -0.7026   21.1622  -34.9942 H   0  0  0  0  0  0  0  0  0  0  0  0
   -1.6127   22.4044  -32.6933 H   0  0  0  0  0  0  0  0  0  0  0  0
   -2.5879   21.3637  -33.8207 H   0  0  0  0  0  0  0  0  0  0  0  0
   -2.5988   22.8902  -31.4120 H   0  0  0  0  0  0  0  0  0  0  0  0
   -4.7781   19.0468  -31.3328 H   0  0  0  0  0  0  0  0  0  0  0  0
   -6.8422   17.0936  -30.8789 H   0  0  0  0  0  0  0  0  0  0  0  0
   -7.6307   17.5142  -32.1524 H   0  0  0  0  0  0  0  0  0  0  0  0
   -4.6418   16.2830  -32.0412 H   0  0  0  0  0  0  0  0  0  0  0  0
   -5.0476   16.5627  -33.5169 H   0  0  0  0  0  0  0  0  0  0  0  0
  1  2  1  0
  2  3  2  0
  3  4  1  0
  4  5  2  0
  5  6  1  0
  6  7  1  0
  7  8  2  0
  7  9  1  0
  9 10  1  0
 10 11  2  0
 11 12  1  0
 12 13  2  0
 13 14  1  0
 14 15  1  0
 15 16  2  0
 15 17  2  0
 15 18  1  0
 18 19  1  0
 19 20  1  0
 20 21  1  0
 21 22  1  0
 22 23  1  0
 14 24  2  0
  5 25  1  0
 25 26  1  0
 25 27  2  0
 27 28  1  0
 28 29  2  0
 28 30  2  0
 28 31  1  0
 31 32  1  0
 32 33  1  0
 27  2  1  0
 33 31  1  0
 24 10  1  0
 23 18  1  0
  1 34  1  0
  1 35  1  0
  1 36  1  0
  3 37  1  0
  4 38  1  0
 11 39  1  0
 12 40  1  0
 13 41  1  0
 19 42  1  0
 19 43  1  0
 20 44  1  0
 20 45  1  0
 22 46  1  0
 22 47  1  0
 23 48  1  0
 23 49  1  0
 24 50  1  0
 31 51  1  0
 32 52  1  0
 32 53  1  0
 33 54  1  0
 33 55  1  0
M  CHG  3   6  -1   9  -1  26  -1
M  END
>  <UniqueID>  (29) 
29

>  <SMILES>  (29) 
Cc1ccc([N-]C(=O)[N-]c2cccc(S(=O)(=O)N3CCOCC3)c2)c([O-])c1S(=O)(=O)C1CC1

>  <Energy>  (29) 
341.95496695686853

>  <Genealogy>  (29) 
Cc1ccc([N-]C(=O)[N-]c2cccc(S(=O)(=O)N3CCOCC3)c2)c([O-])c1S(=O)(=O)C1CC1 (protonated)
Cc1ccc([N-]C(=O)[N-]c2cccc(S(=O)(=O)N3CCOCC3)c2)c([O-])c1S(=O)(=O)C1CC1 (3D coordinates assigned)
Cc1ccc([N-]C(=O)[N-]c2cccc(S(=O)(=O)N3CCOCC3)c2)c([O-])c1S(=O)(=O)C1CC1 (nonaromatic ring conformer: 341.95496695686853 kcal/mol)

>  <smiles>  (29) 
Cc1ccc(NC(=O)Nc2cccc(S(=O)(=O)N3CCOCC3)c2)c(O)c1S(=O)(=O)C1CC1

>  <score_type>  (29) 
oracle

>  <origin>  (29) 
adgpu

>  <m_score__min__energy>  (29) 
-16.550000000000001

>  <m_primary>  (29) 
energy

$$$$
29:0
     RDKit          3D

 45 47  0  0  0  0  0  0  0  0999 V2000
   -6.4980   25.6810  -29.3220 C   0  0  0  0  0  0  0  0  0  0  0  0
   -5.3520   25.6150  -30.1680 O   0  0  0  0  0  0  0  0  0  0  0  0
   -4.8580   24.4340  -30.7450 C   0  0  0  0  0  0  0  0  0  0  0  0
   -5.6480   23.6230  -31.5830 C   0  0  0  0  0  0  0  0  0  0  0  0
   -5.1270   22.4500  -32.1320 C   0  0  0  0  0  0  0  0  0  0  0  0
   -3.8070   22.0680  -31.8640 C   0  0  0  0  0  0  0  0  0  0  0  0
   -3.2580   20.8180  -32.4280 C   0  0  0  0  0  0  0  0  0  0  0  0
   -2.0010   20.6870  -32.9000 N   0  0  0  0  0  0  0  0  0  0  0  0
   -1.9330   19.4660  -33.3410 O   0  0  0  0  0  0  0  0  0  0  0  0
   -3.0840   18.8680  -33.1510 C   0  0  0  0  0  0  0  0  0  0  0  0
   -3.3900   17.4670  -33.5710 C   0  0  0  0  0  0  0  0  0  0  0  0
   -4.6570   17.0030  -32.9940 N   0  0  0  0  0  0  0  0  0  0  0  0
   -6.0310   17.5170  -33.9420 S   0  0  0  0  0  0  0  0  0  0  0  0
   -6.8740   16.3160  -34.2670 O   0  0  0  0  0  0  0  0  0  0  0  0
   -5.5480   18.1130  -35.2340 O   0  0  0  0  0  0  0  0  0  0  0  0
   -7.0240   18.6830  -33.0700 C   0  0  0  0  0  0  0  0  0  0  0  0
   -7.8710   18.2390  -32.0470 C   0  0  0  0  0  0  0  0  0  0  0  0
   -8.6570   19.1500  -31.3330 C   0  0  0  0  0  0  0  0  0  0  0  0
   -8.5880   20.5210  -31.6260 C   0  0  0  0  0  0  0  0  0  0  0  0
   -9.4540   21.5020  -30.8910 C   0  0  0  0  0  0  0  0  0  0  0  0
   -7.7510   20.9620  -32.6610 C   0  0  0  0  0  0  0  0  0  0  0  0
   -6.9710   20.0490  -33.3790 C   0  0  0  0  0  0  0  0  0  0  0  0
   -3.9790   19.6840  -32.5660 N   0  0  0  0  0  0  0  0  0  0  0  0
   -3.0130   22.8790  -31.0340 C   0  0  0  0  0  0  0  0  0  0  0  0
   -3.5340   24.0600  -30.4700 C   0  0  0  0  0  0  0  0  0  0  0  0
   -2.7660   24.8830  -29.6290 O   0  0  0  0  0  0  0  0  0  0  0  0
   -2.3930   24.5490  -28.2960 C   0  0  0  0  0  0  0  0  0  0  0  0
   -6.1784   25.6626  -28.2696 H   0  0  0  0  0  0  0  0  0  0  0  0
   -7.0482   26.6123  -29.5219 H   0  0  0  0  0  0  0  0  0  0  0  0
   -7.1515   24.8190  -29.5219 H   0  0  0  0  0  0  0  0  0  0  0  0
   -6.6843   23.9164  -31.8067 H   0  0  0  0  0  0  0  0  0  0  0  0
   -5.7573   21.8221  -32.7790 H   0  0  0  0  0  0  0  0  0  0  0  0
   -3.4605   17.4289  -34.6681 H   0  0  0  0  0  0  0  0  0  0  0  0
   -2.5833   16.8119  -33.2103 H   0  0  0  0  0  0  0  0  0  0  0  0
   -7.9186   17.1674  -31.8033 H   0  0  0  0  0  0  0  0  0  0  0  0
   -9.3303   18.7912  -30.5406 H   0  0  0  0  0  0  0  0  0  0  0  0
   -9.3294   21.3609  -29.8072 H   0  0  0  0  0  0  0  0  0  0  0  0
   -9.1603   22.5264  -31.1635 H   0  0  0  0  0  0  0  0  0  0  0  0
  -10.5070   21.3377  -31.1635 H   0  0  0  0  0  0  0  0  0  0  0  0
   -7.7074   22.0326  -32.9100 H   0  0  0  0  0  0  0  0  0  0  0  0
   -6.3150   20.4039  -34.1875 H   0  0  0  0  0  0  0  0  0  0  0  0
   -1.9734   22.5880  -30.8227 H   0  0  0  0  0  0  0  0  0  0  0  0
   -3.0202   25.1106  -27.5881 H   0  0  0  0  0  0  0  0  0  0  0  0
   -2.5345   23.4701  -28.1351 H   0  0  0  0  0  0  0  0  0  0  0  0
   -1.3362   24.8083  -28.1351 H   0  0  0  0  0  0  0  0  0  0  0  0
  1  2  1  0
  2  3  1  0
  3  4  2  0
  4  5  1  0
  5  6  2  0
  6  7  1  0
  7  8  2  0
  8  9  1  0
  9 10  1  0
 10 11  1  0
 11 12  1  0
 12 13  1  0
 13 14  2  0
 13 15  2  0
 13 16  1  0
 16 17  2  0
 17 18  1  0
 18 19  2  0
 19 20  1  0
 19 21  1  0
 21 22  2  0
 10 23  2  0
  6 24  1  0
 24 25  2  0
 25 26  1  0
 26 27  1  0
 25  3  1  0
 23  7  1  0
 22 16  1  0
  1 28  1  0
  1 29  1  0
  1 30  1  0
  4 31  1  0
  5 32  1  0
 11 33  1  0
 11 34  1  0
 17 35  1  0
 18 36  1  0
 20 37  1  0
 20 38  1  0
 20 39  1  0
 21 40  1  0
 22 41  1  0
 24 42  1  0
 27 43  1  0
 27 44  1  0
 27 45  1  0
M  CHG  1  12  -1
M  END
>  <UniqueID>  (30) 
30

>  <SMILES>  (30) 
COc1ccc(-c2noc(C[N-]S(=O)(=O)c3ccc(C)cc3)n2)cc1OC

>  <Energy>  (30) 
75.90510275884486

>  <Genealogy>  (30) 
COc1ccc(-c2noc(C[N-]S(=O)(=O)c3ccc(C)cc3)n2)cc1OC (protonated)
COc1ccc(-c2noc(C[N-]S(=O)(=O)c3ccc(C)cc3)n2)cc1OC (3D coordinates assigned)
COc1ccc(-c2noc(C[N-]S(=O)(=O)c3ccc(C)cc3)n2)cc1OC (optimized conformer: 75.90510275884486 kcal/mol)

>  <smiles>  (30) 
COc1ccc(-c2noc(CNS(=O)(=O)c3ccc(C)cc3)n2)cc1OC

>  <score_type>  (30) 
oracle

>  <origin>  (30) 
adgpu

>  <m_score__min__energy>  (30) 
-10.130000000000001

>  <m_primary>  (30) 
energy

$$$$
30:0
     RDKit          3D

 39 41  0  0  0  0  0  0  0  0999 V2000
    2.1178   20.0317  -28.6602 H   0  0  0  0  0  0  0  0  0  0  0  0
    1.1260   19.8330  -28.2280 C   0  0  0  0  0  0  0  0  0  0  0  0
    0.3350   20.8950  -27.7840 C   0  0  0  0  0  0  0  0  0  0  0  0
    0.7129   21.9255  -27.8563 H   0  0  0  0  0  0  0  0  0  0  0  0
   -0.9370   20.6560  -27.2470 C   0  0  0  0  0  0  0  0  0  0  0  0
   -1.7260   21.7680  -26.8010 N   0  0  0  0  0  0  0  0  0  0  0  0
   -1.4950   22.1800  -25.8690 H   0  0  0  0  0  0  0  0  0  0  0  0
   -2.6930   22.4430  -27.6270 C   0  0  0  0  0  0  0  0  0  0  0  0
   -3.3100   23.6090  -27.1490 C   0  0  0  0  0  0  0  0  0  0  0  0
   -3.0542   23.9924  -26.1502 H   0  0  0  0  0  0  0  0  0  0  0  0
   -4.2480   24.2870  -27.9340 C   0  0  0  0  0  0  0  0  0  0  0  0
   -4.7358   25.1927  -27.5444 H   0  0  0  0  0  0  0  0  0  0  0  0
   -4.5690   23.8180  -29.2140 C   0  0  0  0  0  0  0  0  0  0  0  0
   -5.7630   24.6610  -30.1940 S   0  0  0  0  0  0  0  0  0  0  0  0
   -6.0810   25.9890  -29.5650 O   0  0  0  0  0  0  0  0  0  0  0  0
   -5.2080   24.8880  -31.5730 O   0  0  0  0  0  0  0  0  0  0  0  0
   -7.1970   23.6910  -30.2860 N   0  0  0  0  0  0  0  0  0  0  0  0
   -7.3090   22.6240  -31.0150 C   0  0  0  0  0  0  0  0  0  0  0  0
   -6.1130   21.9670  -32.0110 S   0  0  0  0  0  0  0  0  0  0  0  0
   -7.1500   20.7150  -32.4640 C   0  0  0  0  0  0  0  0  0  0  0  0
   -6.8240   19.6590  -33.4640 C   0  0  0  0  0  0  0  0  0  0  0  0
   -6.5385   18.7343  -32.9410 H   0  0  0  0  0  0  0  0  0  0  0  0
   -7.7046   19.4667  -34.0945 H   0  0  0  0  0  0  0  0  0  0  0  0
   -5.9882   19.9966  -34.0945 H   0  0  0  0  0  0  0  0  0  0  0  0
   -8.3620   20.8370  -31.8750 N   0  0  0  0  0  0  0  0  0  0  0  0
   -8.4430   21.8910  -31.0650 N   0  0  0  0  0  0  0  0  0  0  0  0
   -9.3110   22.1210  -30.5330 H   0  0  0  0  0  0  0  0  0  0  0  0
   -3.9510   22.6580  -29.6990 C   0  0  0  0  0  0  0  0  0  0  0  0
   -4.2048   22.2807  -30.7006 H   0  0  0  0  0  0  0  0  0  0  0  0
   -3.0140   21.9780  -28.9170 C   0  0  0  0  0  0  0  0  0  0  0  0
   -2.5246   21.0750  -29.3108 H   0  0  0  0  0  0  0  0  0  0  0  0
   -1.3980   19.3300  -27.1170 C   0  0  0  0  0  0  0  0  0  0  0  0
   -3.0690   18.9190  -26.2730 Br  0  0  0  0  0  0  0  0  0  0  0  0
   -0.6000   18.2700  -27.5640 C   0  0  0  0  0  0  0  0  0  0  0  0
   -0.9652   17.2363  -27.4743 H   0  0  0  0  0  0  0  0  0  0  0  0
    0.6610   18.5160  -28.1250 C   0  0  0  0  0  0  0  0  0  0  0  0
    1.4710   17.4290  -28.5790 N   0  0  0  0  0  0  0  0  0  0  0  0
    1.7600   16.6680  -27.9250 H   0  0  0  0  0  0  0  0  0  0  0  0
    1.7860   17.3760  -29.5740 H   0  0  0  0  0  0  0  0  0  0  0  0
  1  2  1  0
  2  3  2  0
  3  4  1  0
  3  5  1  0
  5  6  1  0
  6  7  1  0
  6  8  1  0
  8  9  2  0
  9 10  1  0
  9 11  1  0
 11 12  1  0
 11 13  2  0
 13 14  1  0
 14 15  2  0
 14 16  2  0
 14 17  1  0
 17 18  2  0
 18 19  1  0
 19 20  1  0
 20 21  1  0
 21 22  1  0
 21 23  1  0
 21 24  1  0
 20 25  2  0
 25 26  1  0
 26 27  1  0
 13 28  1  0
 28 29  1  0
 28 30  2  0
 30 31  1  0
  5 32  2  0
 32 33  1  0
 32 34  1  0
 34 35  1  0
 34 36  2  0
 36 37  1  0
 37 38  1  0
 37 39  1  0
 36  2  1  0
 30  8  1  0
 26 18  1  0
M  END
>  <UniqueID>  (31) 
31

>  <SMILES>  (31) 
Cc1n[nH]/c(=N/S(=O)(=O)c2ccc(Nc3ccc(N)cc3Br)cc2)s1

>  <Energy>  (31) 
84.4997505573635

>  <Genealogy>  (31) 
Cc1n[nH]/c(=N/S(=O)(=O)c2ccc(Nc3ccc(N)cc3Br)cc2)s1 (cis-trans isomerization)
Cc1n[nH]/c(=N/S(=O)(=O)c2ccc(Nc3ccc(N)cc3Br)cc2)s1 (3D coordinates assigned)
Cc1n[nH]/c(=N/S(=O)(=O)c2ccc(Nc3ccc(N)cc3Br)cc2)s1 (optimized conformer: 84.4997505573635 kcal/mol)

>  <smiles>  (31) 
Cc1n[nH]c(=NS(=O)(=O)c2ccc(Nc3ccc(N)cc3Br)cc2)s1

>  <score_type>  (31) 
oracle

>  <origin>  (31) 
adgpu

>  <m_score__min__energy>  (31) 
-9.3300000000000001

>  <m_primary>  (31) 
energy

$$$$
31:0
     RDKit          3D

 50 53  0  0  0  0  0  0  0  0999 V2000
   -1.4380   25.8700  -28.9650 N   0  0  0  0  0  0  0  0  0  0  0  0
   -1.9940   24.2390  -28.8380 S   0  0  0  0  0  0  0  0  0  0  0  0
   -1.0900   23.3350  -29.6320 O   0  0  0  0  0  0  0  0  0  0  0  0
   -1.9600   23.8110  -27.3980 O   0  0  0  0  0  0  0  0  0  0  0  0
   -3.6400   24.1260  -29.4570 C   0  0  0  0  0  0  0  0  0  0  0  0
   -4.5210   23.1530  -28.9610 C   0  0  0  0  0  0  0  0  0  0  0  0
   -5.8330   23.0800  -29.4420 C   0  0  0  0  0  0  0  0  0  0  0  0
   -6.2860   23.9980  -30.3970 C   0  0  0  0  0  0  0  0  0  0  0  0
   -7.6480   23.9320  -30.8440 N   0  0  0  0  0  0  0  0  0  0  0  0
   -8.1460   23.0140  -31.8250 C   0  0  0  0  0  0  0  0  0  0  0  0
   -9.1190   23.3700  -32.5450 O   0  0  0  0  0  0  0  0  0  0  0  0
   -7.5170   21.6880  -32.0500 C   0  0  0  0  0  0  0  0  0  0  0  0
   -8.1850   20.5030  -31.6900 C   0  0  0  0  0  0  0  0  0  0  0  0
   -7.6040   19.2570  -31.9270 C   0  0  0  0  0  0  0  0  0  0  0  0
   -6.3120   19.1670  -32.4760 C   0  0  0  0  0  0  0  0  0  0  0  0
   -5.6940   17.8940  -32.7360 N   0  0  0  0  0  0  0  0  0  0  0  0
   -6.3760   16.7810  -33.3380 C   0  0  0  0  0  0  0  0  0  0  0  0
   -7.6100   16.6040  -33.1410 O   0  0  0  0  0  0  0  0  0  0  0  0
   -5.6150   15.8060  -34.1850 C   0  0  0  0  0  0  0  0  0  0  0  0
   -4.2040   15.6450  -33.6730 C   0  0  0  0  0  0  0  0  0  0  0  0
   -3.3310   16.6650  -33.8890 N   0  0  0  0  0  0  0  0  0  0  0  0
   -2.0590   16.6070  -33.4990 N   0  0  0  0  0  0  0  0  0  0  0  0
   -1.5520   15.5220  -32.8660 C   0  0  0  0  0  0  0  0  0  0  0  0
   -0.3410   15.5190  -32.5200 O   0  0  0  0  0  0  0  0  0  0  0  0
   -2.3850   14.4190  -32.6120 C   0  0  0  0  0  0  0  0  0  0  0  0
   -1.8930   13.2630  -31.9710 C   0  0  0  0  0  0  0  0  0  0  0  0
   -2.7340   12.1740  -31.7440 C   0  0  0  0  0  0  0  0  0  0  0  0
   -4.0700   12.2270  -32.1390 C   0  0  0  0  0  0  0  0  0  0  0  0
   -4.5780   13.3690  -32.7620 C   0  0  0  0  0  0  0  0  0  0  0  0
   -3.7420   14.4770  -33.0170 C   0  0  0  0  0  0  0  0  0  0  0  0
   -5.6440   20.3470  -32.8360 C   0  0  0  0  0  0  0  0  0  0  0  0
   -6.2350   21.5960  -32.6190 C   0  0  0  0  0  0  0  0  0  0  0  0
   -5.3940   24.9570  -30.9130 C   0  0  0  0  0  0  0  0  0  0  0  0
   -4.0800   25.0210  -30.4420 C   0  0  0  0  0  0  0  0  0  0  0  0
   -1.2080   26.0370  -29.9690 H   0  0  0  0  0  0  0  0  0  0  0  0
   -4.1791   22.4452  -28.1915 H   0  0  0  0  0  0  0  0  0  0  0  0
   -6.5109   22.2985  -29.0684 H   0  0  0  0  0  0  0  0  0  0  0  0
   -9.1762   20.5597  -31.2165 H   0  0  0  0  0  0  0  0  0  0  0  0
   -8.1595   18.3394  -31.6831 H   0  0  0  0  0  0  0  0  0  0  0  0
   -4.6780   17.7830  -32.5200 H   0  0  0  0  0  0  0  0  0  0  0  0
   -6.1228   14.8306  -34.1581 H   0  0  0  0  0  0  0  0  0  0  0  0
   -5.5766   16.1869  -35.2162 H   0  0  0  0  0  0  0  0  0  0  0  0
   -0.8421   13.2203  -31.6490 H   0  0  0  0  0  0  0  0  0  0  0  0
   -2.3425   11.2713  -31.2523 H   0  0  0  0  0  0  0  0  0  0  0  0
   -4.7280   11.3641  -31.9589 H   0  0  0  0  0  0  0  0  0  0  0  0
   -5.6374   13.4051  -33.0561 H   0  0  0  0  0  0  0  0  0  0  0  0
   -4.6453   20.2894  -33.2936 H   0  0  0  0  0  0  0  0  0  0  0  0
   -5.6929   22.5124  -32.8955 H   0  0  0  0  0  0  0  0  0  0  0  0
   -5.7326   25.6585  -31.6897 H   0  0  0  0  0  0  0  0  0  0  0  0
   -3.3890   25.7758  -30.8453 H   0  0  0  0  0  0  0  0  0  0  0  0
  1  2  1  0
  2  3  2  0
  2  4  2  0
  2  5  1  0
  5  6  2  0
  6  7  1  0
  7  8  2  0
  8  9  1  0
  9 10  1  0
 10 11  2  0
 10 12  1  0
 12 13  2  0
 13 14  1  0
 14 15  2  0
 15 16  1  0
 16 17  1  0
 17 18  2  0
 17 19  1  0
 19 20  1  0
 20 21  2  0
 21 22  1  0
 22 23  1  0
 23 24  2  0
 23 25  1  0
 25 26  2  0
 26 27  1  0
 27 28  2  0
 28 29  1  0
 29 30  2  0
 15 31  1  0
 31 32  2  0
  8 33  1  0
 33 34  2  0
 34  5  1  0
 32 12  1  0
 30 20  1  0
 30 25  1  0
  1 35  1  0
  6 36  1  0
  7 37  1  0
 13 38  1  0
 14 39  1  0
 16 40  1  0
 19 41  1  0
 19 42  1  0
 26 43  1  0
 27 44  1  0
 28 45  1  0
 29 46  1  0
 31 47  1  0
 32 48  1  0
 33 49  1  0
 34 50  1  0
M  CHG  3   1  -1   9  -1  22  -1
M  END
>  <UniqueID>  (32) 
32

>  <SMILES>  (32) 
[NH-]S(=O)(=O)c1ccc([N-]C(=O)c2ccc(NC(=O)Cc3n[n-]c(=O)c4ccccc34)cc2)cc1

>  <Energy>  (32) 
69.69248421321372

>  <Genealogy>  (32) 
[NH-]S(=O)(=O)c1ccc([N-]C(=O)c2ccc(NC(=O)Cc3n[n-]c(=O)c4ccccc34)cc2)cc1 (protonated)
[NH-]S(=O)(=O)c1ccc([N-]C(=O)c2ccc(NC(=O)Cc3n[n-]c(=O)c4ccccc34)cc2)cc1 (3D coordinates assigned)
[NH-]S(=O)(=O)c1ccc([N-]C(=O)c2ccc(NC(=O)Cc3n[n-]c(=O)c4ccccc34)cc2)cc1 (optimized conformer: 69.69248421321372 kcal/mol)

>  <smiles>  (32) 
NS(=O)(=O)c1ccc(NC(=O)c2ccc(NC(=O)Cc3n[nH]c(=O)c4ccccc34)cc2)cc1

>  <score_type>  (32) 
oracle

>  <origin>  (32) 
adgpu

>  <m_score__min__energy>  (32) 
-12.720000000000001

>  <m_primary>  (32) 
energy

$$$$
32:0
     RDKit          3D

 46 48  0  0  0  0  0  0  0  0999 V2000
    0.0110   24.4430  -24.7270 C   0  0  0  0  0  0  0  0  0  0  0  0
   -0.7220   24.5200  -26.0400 C   0  0  0  0  0  0  0  0  0  0  0  0
   -1.5900   23.4660  -26.3760 C   0  0  0  0  0  0  0  0  0  0  0  0
   -2.2950   23.4760  -27.5760 C   0  0  0  0  0  0  0  0  0  0  0  0
   -2.1430   24.5290  -28.4780 C   0  0  0  0  0  0  0  0  0  0  0  0
   -2.8920   24.5100  -29.7040 N   0  0  0  0  0  0  0  0  0  0  0  0
   -4.2910   24.2080  -29.7680 C   0  0  0  0  0  0  0  0  0  0  0  0
   -4.9690   24.1110  -28.7090 O   0  0  0  0  0  0  0  0  0  0  0  0
   -4.9240   24.1020  -31.0490 N   0  0  0  0  0  0  0  0  0  0  0  0
   -5.8790   23.1070  -31.4470 C   0  0  0  0  0  0  0  0  0  0  0  0
   -7.2000   23.2220  -30.9930 C   0  0  0  0  0  0  0  0  0  0  0  0
   -8.1650   22.2850  -31.3750 C   0  0  0  0  0  0  0  0  0  0  0  0
   -7.8200   21.2330  -32.2280 C   0  0  0  0  0  0  0  0  0  0  0  0
   -9.0310   20.0590  -32.7100 Cl  0  0  0  0  0  0  0  0  0  0  0  0
   -6.5100   21.1240  -32.7060 C   0  0  0  0  0  0  0  0  0  0  0  0
   -5.5440   22.0590  -32.3250 C   0  0  0  0  0  0  0  0  0  0  0  0
   -1.3090   25.6120  -28.1450 C   0  0  0  0  0  0  0  0  0  0  0  0
   -1.2320   26.7070  -29.0000 O   0  0  0  0  0  0  0  0  0  0  0  0
   -0.5750   25.6110  -26.9390 C   0  0  0  0  0  0  0  0  0  0  0  0
    0.4640   27.0200  -26.6140 S   0  0  0  0  0  0  0  0  0  0  0  0
    0.2770   27.4170  -25.1750 O   0  0  0  0  0  0  0  0  0  0  0  0
    0.1300   28.2090  -27.4710 O   0  0  0  0  0  0  0  0  0  0  0  0
    2.1300   26.5660  -26.8810 N   0  0  0  0  0  0  0  0  0  0  0  0
    2.9190   26.6680  -25.6320 C   0  0  0  0  0  0  0  0  0  0  0  0
    3.2130   25.2880  -25.0170 C   0  0  0  0  0  0  0  0  0  0  0  0
    3.9160   24.4220  -25.8960 O   0  0  0  0  0  0  0  0  0  0  0  0
    3.5760   24.5920  -27.2670 C   0  0  0  0  0  0  0  0  0  0  0  0
    2.1950   25.2280  -27.4970 C   0  0  0  0  0  0  0  0  0  0  0  0
   -0.7099   24.5187  -23.8996 H   0  0  0  0  0  0  0  0  0  0  0  0
    0.5454   23.4838  -24.6611 H   0  0  0  0  0  0  0  0  0  0  0  0
    0.7330   25.2702  -24.6611 H   0  0  0  0  0  0  0  0  0  0  0  0
   -1.7135   22.6223  -25.6811 H   0  0  0  0  0  0  0  0  0  0  0  0
   -2.9774   22.6470  -27.8149 H   0  0  0  0  0  0  0  0  0  0  0  0
   -2.4320   24.8690  -30.5720 H   0  0  0  0  0  0  0  0  0  0  0  0
   -7.4796   24.0552  -30.3315 H   0  0  0  0  0  0  0  0  0  0  0  0
   -9.1965   22.3759  -31.0039 H   0  0  0  0  0  0  0  0  0  0  0  0
   -6.2397   20.3005  -33.3833 H   0  0  0  0  0  0  0  0  0  0  0  0
   -4.5179   21.9758  -32.7126 H   0  0  0  0  0  0  0  0  0  0  0  0
    3.8735   27.1671  -25.8554 H   0  0  0  0  0  0  0  0  0  0  0  0
    2.3277   27.2434  -24.9045 H   0  0  0  0  0  0  0  0  0  0  0  0
    3.8180   25.4314  -24.1096 H   0  0  0  0  0  0  0  0  0  0  0  0
    2.2445   24.8149  -24.7975 H   0  0  0  0  0  0  0  0  0  0  0  0
    4.3353   25.2366  -27.7339 H   0  0  0  0  0  0  0  0  0  0  0  0
    3.5404   23.5867  -27.7121 H   0  0  0  0  0  0  0  0  0  0  0  0
    2.0145   25.3188  -28.5783 H   0  0  0  0  0  0  0  0  0  0  0  0
    1.4288   24.5878  -27.0354 H   0  0  0  0  0  0  0  0  0  0  0  0
  1  2  1  0
  2  3  2  0
  3  4  1  0
  4  5  2  0
  5  6  1  0
  6  7  1  0
  7  8  2  0
  7  9  1  0
  9 10  1  0
 10 11  2  0
 11 12  1  0
 12 13  2  0
 13 14  1  0
 13 15  1  0
 15 16  2  0
  5 17  1  0
 17 18  1  0
 17 19  2  0
 19 20  1  0
 20 21  2  0
 20 22  2  0
 20 23  1  0
 23 24  1  0
 24 25  1  0
 25 26  1  0
 26 27  1  0
 27 28  1  0
 19  2  1  0
 28 23  1  0
 16 10  1  0
  1 29  1  0
  1 30  1  0
  1 31  1  0
  3 32  1  0
  4 33  1  0
  6 34  1  0
 11 35  1  0
 12 36  1  0
 15 37  1  0
 16 38  1  0
 24 39  1  0
 24 40  1  0
 25 41  1  0
 25 42  1  0
 27 43  1  0
 27 44  1  0
 28 45  1  0
 28 46  1  0
M  CHG  2   9  -1  18  -1
M  END
>  <UniqueID>  (33) 
33

>  <SMILES>  (33) 
Cc1ccc(NC(=O)[N-]c2ccc(Cl)cc2)c([O-])c1S(=O)(=O)N1CCOCC1

>  <Energy>  (33) 
72.07609266660451

>  <Genealogy>  (33) 
Cc1ccc(NC(=O)[N-]c2ccc(Cl)cc2)c([O-])c1S(=O)(=O)N1CCOCC1 (protonated)
Cc1ccc(NC(=O)[N-]c2ccc(Cl)cc2)c([O-])c1S(=O)(=O)N1CCOCC1 (3D coordinates assigned)
Cc1ccc(NC(=O)[N-]c2ccc(Cl)cc2)c([O-])c1S(=O)(=O)N1CCOCC1 (nonaromatic ring conformer: 72.07609266660451 kcal/mol)

>  <smiles>  (33) 
Cc1ccc(NC(=O)Nc2ccc(Cl)cc2)c(O)c1S(=O)(=O)N1CCOCC1

>  <score_type>  (33) 
oracle

>  <origin>  (33) 
adgpu

>  <m_score__min__energy>  (33) 
-12.99

>  <m_primary>  (33) 
energy

$$$$
33:0
     RDKit          3D

 52 55  0  0  0  0  0  0  0  0999 V2000
   -1.2490   25.9170  -27.6770 C   0  0  0  0  0  0  0  0  0  0  0  0
   -1.9510   25.6410  -28.8840 O   0  0  0  0  0  0  0  0  0  0  0  0
   -2.2030   24.3510  -29.3790 C   0  0  0  0  0  0  0  0  0  0  0  0
   -1.4280   23.2400  -28.9970 C   0  0  0  0  0  0  0  0  0  0  0  0
   -1.7060   21.9730  -29.5140 C   0  0  0  0  0  0  0  0  0  0  0  0
   -2.7460   21.7940  -30.4330 C   0  0  0  0  0  0  0  0  0  0  0  0
   -3.0230   20.4770  -30.9370 N   0  0  0  0  0  0  0  0  0  0  0  0
   -2.4140   19.9290  -32.1150 C   0  0  0  0  0  0  0  0  0  0  0  0
   -1.4460   20.5160  -32.6680 O   0  0  0  0  0  0  0  0  0  0  0  0
   -2.9270   18.6540  -32.7020 C   0  0  0  0  0  0  0  0  0  0  0  0
   -3.8760   19.0270  -34.2110 S   0  0  0  0  0  0  0  0  0  0  0  0
   -5.3410   19.5400  -33.3010 C   0  0  0  0  0  0  0  0  0  0  0  0
   -5.5300   20.8720  -33.0930 N   0  0  0  0  0  0  0  0  0  0  0  0
   -6.6000   21.3100  -32.3890 C   0  0  0  0  0  0  0  0  0  0  0  0
   -7.4960   20.4250  -31.8510 C   0  0  0  0  0  0  0  0  0  0  0  0
   -7.3250   19.0610  -32.0740 C   0  0  0  0  0  0  0  0  0  0  0  0
   -8.1630   18.2410  -31.6070 O   0  0  0  0  0  0  0  0  0  0  0  0
   -6.2440   18.6270  -32.8030 N   0  0  0  0  0  0  0  0  0  0  0  0
   -6.0640   17.2180  -33.0370 C   0  0  0  0  0  0  0  0  0  0  0  0
   -5.1310   16.4890  -32.2810 C   0  0  0  0  0  0  0  0  0  0  0  0
   -4.9620   15.1190  -32.5060 C   0  0  0  0  0  0  0  0  0  0  0  0
   -5.7190   14.4720  -33.4860 C   0  0  0  0  0  0  0  0  0  0  0  0
   -6.6430   15.1940  -34.2470 C   0  0  0  0  0  0  0  0  0  0  0  0
   -6.8140   16.5640  -34.0270 C   0  0  0  0  0  0  0  0  0  0  0  0
   -8.8290   21.1760  -30.9430 S   0  0  0  0  0  0  0  0  0  0  0  0
   -8.3530   22.7960  -31.6650 C   0  0  0  0  0  0  0  0  0  0  0  0
   -6.8930   22.7390  -32.1340 C   0  0  0  0  0  0  0  0  0  0  0  0
   -3.5370   22.8960  -30.7980 C   0  0  0  0  0  0  0  0  0  0  0  0
   -3.2670   24.1770  -30.2770 C   0  0  0  0  0  0  0  0  0  0  0  0
   -4.0350   25.3000  -30.6250 O   0  0  0  0  0  0  0  0  0  0  0  0
   -5.4410   25.4110  -30.4220 C   0  0  0  0  0  0  0  0  0  0  0  0
   -1.8866   25.6663  -26.8164 H   0  0  0  0  0  0  0  0  0  0  0  0
   -0.3303   25.3131  -27.6409 H   0  0  0  0  0  0  0  0  0  0  0  0
   -0.9875   26.9849  -27.6409 H   0  0  0  0  0  0  0  0  0  0  0  0
   -0.5982   23.3706  -28.2868 H   0  0  0  0  0  0  0  0  0  0  0  0
   -1.1031   21.1094  -29.1966 H   0  0  0  0  0  0  0  0  0  0  0  0
   -3.6320   19.8520  -30.3630 H   0  0  0  0  0  0  0  0  0  0  0  0
   -2.0805   17.9979  -32.9528 H   0  0  0  0  0  0  0  0  0  0  0  0
   -3.5767   18.1473  -31.9732 H   0  0  0  0  0  0  0  0  0  0  0  0
   -4.5322   16.9967  -31.5105 H   0  0  0  0  0  0  0  0  0  0  0  0
   -4.2324   14.5503  -31.9108 H   0  0  0  0  0  0  0  0  0  0  0  0
   -5.5878   13.3936  -33.6589 H   0  0  0  0  0  0  0  0  0  0  0  0
   -7.2363   14.6835  -35.0199 H   0  0  0  0  0  0  0  0  0  0  0  0
   -7.5379   17.1307  -34.6311 H   0  0  0  0  0  0  0  0  0  0  0  0
   -9.0047   23.0209  -32.5221 H   0  0  0  0  0  0  0  0  0  0  0  0
   -8.4627   23.5826  -30.9039 H   0  0  0  0  0  0  0  0  0  0  0  0
   -6.7648   23.3255  -33.0557 H   0  0  0  0  0  0  0  0  0  0  0  0
   -6.2117   23.1611  -31.3805 H   0  0  0  0  0  0  0  0  0  0  0  0
   -4.3750   22.7576  -31.4970 H   0  0  0  0  0  0  0  0  0  0  0  0
   -5.6555   25.4279  -29.3433 H   0  0  0  0  0  0  0  0  0  0  0  0
   -5.8058   26.3407  -30.8830 H   0  0  0  0  0  0  0  0  0  0  0  0
   -5.9471   24.5500  -30.8830 H   0  0  0  0  0  0  0  0  0  0  0  0
  1  2  1  0
  2  3  1  0
  3  4  2  0
  4  5  1  0
  5  6  2  0
  6  7  1  0
  7  8  1  0
  8  9  2  0
  8 10  1  0
 10 11  1  0
 11 12  1  0
 12 13  2  0
 13 14  1  0
 14 15  2  0
 15 16  1  0
 16 17  2  0
 16 18  1  0
 18 19  1  0
 19 20  2  0
 20 21  1  0
 21 22  2  0
 22 23  1  0
 23 24  2  0
 15 25  1  0
 25 26  1  0
 26 27  1  0
  6 28  1  0
 28 29  2  0
 29 30  1  0
 30 31  1  0
 29  3  1  0
 18 12  1  0
 24 19  1  0
 27 14  1  0
  1 32  1  0
  1 33  1  0
  1 34  1  0
  4 35  1  0
  5 36  1  0
  7 37  1  0
 10 38  1  0
 10 39  1  0
 20 40  1  0
 21 41  1  0
 22 42  1  0
 23 43  1  0
 24 44  1  0
 26 45  1  0
 26 46  1  0
 27 47  1  0
 27 48  1  0
 28 49  1  0
 31 50  1  0
 31 51  1  0
 31 52  1  0
M  END
>  <UniqueID>  (34) 
34

>  <SMILES>  (34) 
COc1ccc(NC(=O)CSc2nc3c(c(=O)n2-c2ccccc2)SCC3)cc1OC

>  <Energy>  (34) 
71.08058810457827

>  <Genealogy>  (34) 
COc1ccc(NC(=O)CSc2nc3c(c(=O)n2-c2ccccc2)SCC3)cc1OC (3D coordinates assigned)
COc1ccc(NC(=O)CSc2nc3c(c(=O)n2-c2ccccc2)SCC3)cc1OC (nonaromatic ring conformer: 71.08058810457827 kcal/mol)

>  <smiles>  (34) 
COc1ccc(NC(=O)CSc2nc3c(c(=O)n2-c2ccccc2)SCC3)cc1OC

>  <score_type>  (34) 
oracle

>  <origin>  (34) 
adgpu

>  <m_score__min__energy>  (34) 
-10.07

>  <m_primary>  (34) 
energy

$$$$
34:0
     RDKit          3D

 43 45  0  0  0  0  0  0  0  0999 V2000
   -8.7770   19.5450  -32.3410 C   0  0  0  0  0  0  0  0  0  0  0  0
   -8.5460   20.9390  -32.5210 O   0  0  0  0  0  0  0  0  0  0  0  0
   -7.5880   21.6810  -31.8150 C   0  0  0  0  0  0  0  0  0  0  0  0
   -6.2850   21.7380  -32.3220 C   0  0  0  0  0  0  0  0  0  0  0  0
   -5.2940   22.4620  -31.6520 C   0  0  0  0  0  0  0  0  0  0  0  0
   -5.5980   23.1440  -30.4680 C   0  0  0  0  0  0  0  0  0  0  0  0
   -4.3490   24.0350  -29.6050 S   0  0  0  0  0  0  0  0  0  0  0  0
   -5.0090   24.9140  -28.5810 O   0  0  0  0  0  0  0  0  0  0  0  0
   -3.5780   24.9040  -30.5580 O   0  0  0  0  0  0  0  0  0  0  0  0
   -3.2500   22.8840  -28.8520 C   0  0  0  0  0  0  0  0  0  0  0  0
   -3.4990   21.5340  -28.7090 C   0  0  0  0  0  0  0  0  0  0  0  0
   -2.4630   20.9400  -28.0890 N   0  0  0  0  0  0  0  0  0  0  0  0
   -1.5490   21.8940  -27.8290 C   0  0  0  0  0  0  0  0  0  0  0  0
   -2.0020   23.1140  -28.2910 C   0  0  0  0  0  0  0  0  0  0  0  0
   -1.1450   24.6430  -28.1410 S   0  0  0  0  0  0  0  0  0  0  0  0
    0.2400   24.4830  -28.7010 O   0  0  0  0  0  0  0  0  0  0  0  0
   -1.8860   25.6690  -28.9510 O   0  0  0  0  0  0  0  0  0  0  0  0
   -1.0200   25.1490  -26.4450 C   0  0  0  0  0  0  0  0  0  0  0  0
   -1.7040   26.3040  -26.0280 C   0  0  0  0  0  0  0  0  0  0  0  0
   -1.6100   26.7500  -24.7080 C   0  0  0  0  0  0  0  0  0  0  0  0
   -0.8400   26.0460  -23.7860 C   0  0  0  0  0  0  0  0  0  0  0  0
   -0.1690   24.8860  -24.1770 C   0  0  0  0  0  0  0  0  0  0  0  0
   -0.2620   24.4150  -25.4980 C   0  0  0  0  0  0  0  0  0  0  0  0
    0.4850   23.1620  -25.8750 C   0  0  0  0  0  0  0  0  0  0  0  0
   -6.8990   23.0880  -29.9520 C   0  0  0  0  0  0  0  0  0  0  0  0
   -7.8910   22.3630  -30.6190 C   0  0  0  0  0  0  0  0  0  0  0  0
   -8.8150   19.3155  -31.2659 H   0  0  0  0  0  0  0  0  0  0  0  0
   -9.7332   19.2683  -32.8091 H   0  0  0  0  0  0  0  0  0  0  0  0
   -7.9611   18.9747  -32.8091 H   0  0  0  0  0  0  0  0  0  0  0  0
   -6.0385   21.2093  -33.2546 H   0  0  0  0  0  0  0  0  0  0  0  0
   -4.2718   22.4957  -32.0568 H   0  0  0  0  0  0  0  0  0  0  0  0
   -4.4093   21.0199  -29.0511 H   0  0  0  0  0  0  0  0  0  0  0  0
   -2.3840   19.9280  -27.8490 H   0  0  0  0  0  0  0  0  0  0  0  0
   -0.5860   21.7267  -27.3243 H   0  0  0  0  0  0  0  0  0  0  0  0
   -2.3196   26.8622  -26.7487 H   0  0  0  0  0  0  0  0  0  0  0  0
   -2.1452   27.6590  -24.3961 H   0  0  0  0  0  0  0  0  0  0  0  0
   -0.7604   26.4041  -22.7490 H   0  0  0  0  0  0  0  0  0  0  0  0
    0.4386   24.3351  -23.4440 H   0  0  0  0  0  0  0  0  0  0  0  0
    0.7997   22.6342  -24.9626 H   0  0  0  0  0  0  0  0  0  0  0  0
   -0.1711   22.5086  -26.4688 H   0  0  0  0  0  0  0  0  0  0  0  0
    1.3718   23.4284  -26.4688 H   0  0  0  0  0  0  0  0  0  0  0  0
   -7.1412   23.6166  -29.0182 H   0  0  0  0  0  0  0  0  0  0  0  0
   -8.9111   22.3246  -30.2093 H   0  0  0  0  0  0  0  0  0  0  0  0
  1  2  1  0
  2  3  1  0
  3  4  2  0
  4  5  1  0
  5  6  2  0
  6  7  1  0
  7  8  2  0
  7  9  2  0
  7 10  1  0
 10 11  2  0
 11 12  1  0
 12 13  1  0
 13 14  2  0
 14 15  1  0
 15 16  2  0
 15 17  2  0
 15 18  1  0
 18 19  2  0
 19 20  1  0
 20 21  2  0
 21 22  1  0
 22 23  2  0
 23 24  1  0
  6 25  1  0
 25 26  2  0
 26  3  1  0
 14 10  1  0
 23 18  1  0
  1 27  1  0
  1 28  1  0
  1 29  1  0
  4 30  1  0
  5 31  1  0
 11 32  1  0
 12 33  1  0
 13 34  1  0
 19 35  1  0
 20 36  1  0
 21 37  1  0
 22 38  1  0
 24 39  1  0
 24 40  1  0
 24 41  1  0
 25 42  1  0
 26 43  1  0
M  END
>  <UniqueID>  (35) 
35

>  <SMILES>  (35) 
COc1ccc(S(=O)(=O)c2c[nH]cc2S(=O)(=O)c2ccccc2C)cc1

>  <Energy>  (35) 
75.4673075507593

>  <Genealogy>  (35) 
COc1ccc(S(=O)(=O)c2c[nH]cc2S(=O)(=O)c2ccccc2C)cc1 (3D coordinates assigned)
COc1ccc(S(=O)(=O)c2c[nH]cc2S(=O)(=O)c2ccccc2C)cc1 (optimized conformer: 75.4673075507593 kcal/mol)

>  <smiles>  (35) 
COc1ccc(S(=O)(=O)c2c[nH]cc2S(=O)(=O)c2ccccc2C)cc1

>  <score_type>  (35) 
oracle

>  <origin>  (35) 
adgpu

>  <m_score__min__energy>  (35) 
-9.0399999999999991

>  <m_primary>  (35) 
energy

$$$$
35:0
     RDKit          3D

 54 57  0  0  0  0  0  0  0  0999 V2000
   -0.3392   26.3248  -29.3022 H   0  0  0  0  0  0  0  0  0  0  0  0
   -0.9720   25.7750  -28.5900 C   0  0  0  0  0  0  0  0  0  0  0  0
   -2.1750   25.2860  -28.9870 N   0  0  0  0  0  0  0  0  0  0  0  0
   -2.9870   24.5930  -28.1390 C   0  0  0  0  0  0  0  0  0  0  0  0
   -4.1340   24.1380  -28.5380 N   0  0  0  0  0  0  0  0  0  0  0  0
   -4.7550   24.3620  -30.1490 S   0  0  0  0  0  0  0  0  0  0  0  0
   -6.2650   24.4080  -30.1030 O   0  0  0  0  0  0  0  0  0  0  0  0
   -4.2480   25.6580  -30.7210 O   0  0  0  0  0  0  0  0  0  0  0  0
   -4.2300   23.0030  -31.1560 C   0  0  0  0  0  0  0  0  0  0  0  0
   -2.9890   22.4040  -30.8790 C   0  0  0  0  0  0  0  0  0  0  0  0
   -2.3940   22.7547  -30.0229 H   0  0  0  0  0  0  0  0  0  0  0  0
   -2.5040   21.3680  -31.6800 C   0  0  0  0  0  0  0  0  0  0  0  0
   -1.5237   20.9191  -31.4620 H   0  0  0  0  0  0  0  0  0  0  0  0
   -3.2620   20.8990  -32.7600 C   0  0  0  0  0  0  0  0  0  0  0  0
   -2.7860   19.8610  -33.5710 O   0  0  0  0  0  0  0  0  0  0  0  0
   -3.2060   18.5290  -33.4380 C   0  0  0  0  0  0  0  0  0  0  0  0
   -2.2870   17.4880  -33.2600 C   0  0  0  0  0  0  0  0  0  0  0  0
   -1.2153   17.7159  -33.1628 H   0  0  0  0  0  0  0  0  0  0  0  0
   -2.7220   16.1620  -33.2050 C   0  0  0  0  0  0  0  0  0  0  0  0
   -1.9904   15.3529  -33.0631 H   0  0  0  0  0  0  0  0  0  0  0  0
   -4.0810   15.8550  -33.3290 C   0  0  0  0  0  0  0  0  0  0  0  0
   -4.5220   14.1490  -33.3560 Cl  0  0  0  0  0  0  0  0  0  0  0  0
   -5.0260   16.8950  -33.5020 C   0  0  0  0  0  0  0  0  0  0  0  0
   -6.4770   16.6200  -33.6520 C   0  0  0  0  0  0  0  0  0  0  0  0
   -6.8750   15.8690  -34.5870 O   0  0  0  0  0  0  0  0  0  0  0  0
   -7.4410   17.0920  -32.6920 N   0  0  0  0  0  0  0  0  0  0  0  0
   -7.8000   18.3260  -32.4520 C   0  0  0  0  0  0  0  0  0  0  0  0
   -7.3400   19.4150  -33.2220 C   0  0  0  0  0  0  0  0  0  0  0  0
   -6.6372   19.2481  -34.0516 H   0  0  0  0  0  0  0  0  0  0  0  0
   -7.7700   20.6710  -32.9330 N   0  0  0  0  0  0  0  0  0  0  0  0
   -8.6370   20.9060  -31.9120 C   0  0  0  0  0  0  0  0  0  0  0  0
   -9.1100   22.2950  -31.6270 C   0  0  0  0  0  0  0  0  0  0  0  0
   -9.1623   22.4485  -30.5390 H   0  0  0  0  0  0  0  0  0  0  0  0
   -8.4077   23.0188  -32.0661 H   0  0  0  0  0  0  0  0  0  0  0  0
  -10.1081   22.4398  -32.0661 H   0  0  0  0  0  0  0  0  0  0  0  0
   -9.0930   19.8280  -31.1440 C   0  0  0  0  0  0  0  0  0  0  0  0
   -9.7858   20.0002  -30.3071 H   0  0  0  0  0  0  0  0  0  0  0  0
   -8.6770   18.5700  -31.4360 N   0  0  0  0  0  0  0  0  0  0  0  0
   -9.0310   17.7770  -30.8590 H   0  0  0  0  0  0  0  0  0  0  0  0
   -4.5730   18.2290  -33.5480 C   0  0  0  0  0  0  0  0  0  0  0  0
   -5.2998   19.0453  -33.6717 H   0  0  0  0  0  0  0  0  0  0  0  0
   -4.5070   21.4710  -33.0350 C   0  0  0  0  0  0  0  0  0  0  0  0
   -5.1203   21.0732  -33.8570 H   0  0  0  0  0  0  0  0  0  0  0  0
   -4.9830   22.5520  -32.2690 C   0  0  0  0  0  0  0  0  0  0  0  0
   -6.2830   23.2090  -32.6680 C   0  0  0  0  0  0  0  0  0  0  0  0
   -6.8432   23.4921  -31.7646 H   0  0  0  0  0  0  0  0  0  0  0  0
   -6.0712   24.1083  -33.2650 H   0  0  0  0  0  0  0  0  0  0  0  0
   -6.8815   22.5051  -33.2650 H   0  0  0  0  0  0  0  0  0  0  0  0
   -2.5780   24.3690  -26.8180 C   0  0  0  0  0  0  0  0  0  0  0  0
   -3.2196   23.8044  -26.1255 H   0  0  0  0  0  0  0  0  0  0  0  0
   -1.3500   24.8690  -26.3910 C   0  0  0  0  0  0  0  0  0  0  0  0
   -1.0183   24.7046  -25.3552 H   0  0  0  0  0  0  0  0  0  0  0  0
   -0.5400   25.5800  -27.2810 C   0  0  0  0  0  0  0  0  0  0  0  0
    0.4293   25.9815  -26.9504 H   0  0  0  0  0  0  0  0  0  0  0  0
  1  2  1  0
  2  3  1  0
  3  4  1  0
  4  5  2  0
  5  6  1  0
  6  7  2  0
  6  8  2  0
  6  9  1  0
  9 10  2  0
 10 11  1  0
 10 12  1  0
 12 13  1  0
 12 14  2  0
 14 15  1  0
 15 16  1  0
 16 17  2  0
 17 18  1  0
 17 19  1  0
 19 20  1  0
 19 21  2  0
 21 22  1  0
 21 23  1  0
 23 24  1  0
 24 25  2  0
 24 26  1  0
 26 27  2  3
 27 28  1  0
 28 29  1  0
 28 30  2  0
 30 31  1  0
 31 32  1  0
 32 33  1  0
 32 34  1  0
 32 35  1  0
 31 36  2  0
 36 37  1  0
 36 38  1  0
 38 39  1  0
 23 40  2  0
 40 41  1  0
 14 42  1  0
 42 43  1  0
 42 44  2  0
 44 45  1  0
 45 46  1  0
 45 47  1  0
 45 48  1  0
  4 49  1  0
 49 50  1  0
 49 51  2  0
 51 52  1  0
 51 53  1  0
 53 54  1  0
 53  2  2  0
 44  9  1  0
 40 16  1  0
 38 27  1  0
M  CHG  1   3  -1
M  END
>  <UniqueID>  (36) 
36

>  <SMILES>  (36) 
Cc1c[nH]c(=NC(=O)c2cc(Oc3ccc(S(=O)(=O)/N=c4/cccc[n-]4)c(C)c3)ccc2Cl)cn1

>  <Energy>  (36) 
86.80916506455438

>  <Genealogy>  (36) 
Cc1c[nH]c(=NC(=O)c2cc(Oc3ccc(S(=O)(=O)N=c4cccc[n-]4)c(C)c3)ccc2Cl)cn1 (protonated)
Cc1c[nH]c(=NC(=O)c2cc(Oc3ccc(S(=O)(=O)/N=c4/cccc[n-]4)c(C)c3)ccc2Cl)cn1 (cis-trans isomerization)
Cc1c[nH]c(=NC(=O)c2cc(Oc3ccc(S(=O)(=O)/N=c4/cccc[n-]4)c(C)c3)ccc2Cl)cn1 (3D coordinates assigned)
Cc1c[nH]c(=NC(=O)c2cc(Oc3ccc(S(=O)(=O)/N=c4/cccc[n-]4)c(C)c3)ccc2Cl)cn1 (optimized conformer: 86.80916506455438 kcal/mol)

>  <smiles>  (36) 
Cc1c[nH]c(=NC(=O)c2cc(Oc3ccc(S(=O)(=O)N=c4cccc[nH]4)c(C)c3)ccc2Cl)cn1

>  <score_type>  (36) 
oracle

>  <origin>  (36) 
adgpu

>  <m_score__min__energy>  (36) 
-12.1

>  <m_primary>  (36) 
energy

$$$$
36:0
     RDKit          3D

 51 53  0  0  0  0  0  0  0  0999 V2000
   -0.3350   19.6660  -31.4550 C   0  0  0  0  0  0  0  0  0  0  0  0
   -1.4150   20.7030  -31.3000 C   0  0  0  0  0  0  0  0  0  0  0  0
   -1.7310   21.1850  -30.0180 C   0  0  0  0  0  0  0  0  0  0  0  0
   -2.7020   22.1720  -29.8480 C   0  0  0  0  0  0  0  0  0  0  0  0
   -3.3930   22.6780  -30.9530 C   0  0  0  0  0  0  0  0  0  0  0  0
   -4.5740   23.9690  -30.7340 S   0  0  0  0  0  0  0  0  0  0  0  0
   -3.8750   25.2960  -30.8440 O   0  0  0  0  0  0  0  0  0  0  0  0
   -5.2030   23.8940  -29.3720 O   0  0  0  0  0  0  0  0  0  0  0  0
   -5.7840   23.8760  -31.9760 N   0  0  0  0  0  0  0  0  0  0  0  0
   -6.8860   22.9580  -32.0180 C   0  0  0  0  0  0  0  0  0  0  0  0
   -8.2230   23.3850  -31.9470 C   0  0  0  0  0  0  0  0  0  0  0  0
   -9.2620   22.4520  -31.9650 C   0  0  0  0  0  0  0  0  0  0  0  0
   -8.9830   21.0910  -32.0660 C   0  0  0  0  0  0  0  0  0  0  0  0
   -7.6560   20.6530  -32.1640 C   0  0  0  0  0  0  0  0  0  0  0  0
   -7.2910   18.9360  -32.3310 S   0  0  0  0  0  0  0  0  0  0  0  0
   -6.3810   18.5260  -31.2050 O   0  0  0  0  0  0  0  0  0  0  0  0
   -8.5650   18.1420  -32.2320 O   0  0  0  0  0  0  0  0  0  0  0  0
   -6.5060   18.6540  -33.8740 N   0  0  0  0  0  0  0  0  0  0  0  0
   -6.4740   17.2000  -34.2180 C   0  0  0  0  0  0  0  0  0  0  0  0
   -5.0560   16.6060  -34.3190 C   0  0  0  0  0  0  0  0  0  0  0  0
   -4.1850   17.0850  -33.1600 C   0  0  0  0  0  0  0  0  0  0  0  0
   -4.1030   18.6200  -33.0940 C   0  0  0  0  0  0  0  0  0  0  0  0
   -5.1850   19.3250  -33.9370 C   0  0  0  0  0  0  0  0  0  0  0  0
   -6.6140   21.5890  -32.1450 C   0  0  0  0  0  0  0  0  0  0  0  0
   -3.1020   22.1890  -32.2320 C   0  0  0  0  0  0  0  0  0  0  0  0
   -2.1140   21.2060  -32.4210 C   0  0  0  0  0  0  0  0  0  0  0  0
   -1.7670   20.7730  -33.8220 C   0  0  0  0  0  0  0  0  0  0  0  0
    0.0051   19.3394  -30.4612 H   0  0  0  0  0  0  0  0  0  0  0  0
   -0.7325   18.8025  -32.0085 H   0  0  0  0  0  0  0  0  0  0  0  0
    0.5116   20.0982  -32.0085 H   0  0  0  0  0  0  0  0  0  0  0  0
   -1.2072   20.7797  -29.1397 H   0  0  0  0  0  0  0  0  0  0  0  0
   -2.9248   22.5536  -28.8407 H   0  0  0  0  0  0  0  0  0  0  0  0
   -8.4521   24.4586  -31.8770 H   0  0  0  0  0  0  0  0  0  0  0  0
  -10.3056   22.7935  -31.8991 H   0  0  0  0  0  0  0  0  0  0  0  0
   -9.8049   20.3600  -32.0688 H   0  0  0  0  0  0  0  0  0  0  0  0
   -7.1120   19.1320  -34.5800 H   0  0  0  0  0  0  0  0  0  0  0  0
   -7.0241   16.6494  -33.4407 H   0  0  0  0  0  0  0  0  0  0  0  0
   -6.9300   17.1007  -35.2141 H   0  0  0  0  0  0  0  0  0  0  0  0
   -5.1218   15.5083  -34.2913 H   0  0  0  0  0  0  0  0  0  0  0  0
   -4.6006   16.9380  -35.2637 H   0  0  0  0  0  0  0  0  0  0  0  0
   -4.6120   16.7117  -32.2175 H   0  0  0  0  0  0  0  0  0  0  0  0
   -3.1676   16.6978  -33.3181 H   0  0  0  0  0  0  0  0  0  0  0  0
   -4.2195   18.9312  -32.0454 H   0  0  0  0  0  0  0  0  0  0  0  0
   -3.1262   18.9123  -33.5068 H   0  0  0  0  0  0  0  0  0  0  0  0
   -5.2986   20.3553  -33.5687 H   0  0  0  0  0  0  0  0  0  0  0  0
   -4.8532   19.2944  -34.9853 H   0  0  0  0  0  0  0  0  0  0  0  0
   -5.5723   21.2463  -32.2306 H   0  0  0  0  0  0  0  0  0  0  0  0
   -3.6532   22.5786  -33.1005 H   0  0  0  0  0  0  0  0  0  0  0  0
   -1.0796   19.9152  -33.7810 H   0  0  0  0  0  0  0  0  0  0  0  0
   -2.6849   20.4822  -34.3538 H   0  0  0  0  0  0  0  0  0  0  0  0
   -1.2832   21.6055  -34.3538 H   0  0  0  0  0  0  0  0  0  0  0  0
  1  2  1  0
  2  3  2  0
  3  4  1  0
  4  5  2  0
  5  6  1  0
  6  7  2  0
  6  8  2  0
  6  9  1  0
  9 10  1  0
 10 11  2  0
 11 12  1  0
 12 13  2  0
 13 14  1  0
 14 15  1  0
 15 16  2  0
 15 17  2  0
 15 18  1  0
 18 19  1  0
 19 20  1  0
 20 21  1  0
 21 22  1  0
 22 23  1  0
 14 24  2  0
  5 25  1  0
 25 26  2  0
 26 27  1  0
 26  2  1  0
 24 10  1  0
 23 18  1  0
  1 28  1  0
  1 29  1  0
  1 30  1  0
  3 31  1  0
  4 32  1  0
 11 33  1  0
 12 34  1  0
 13 35  1  0
 18 36  1  0
 19 37  1  0
 19 38  1  0
 20 39  1  0
 20 40  1  0
 21 41  1  0
 21 42  1  0
 22 43  1  0
 22 44  1  0
 23 45  1  0
 23 46  1  0
 24 47  1  0
 25 48  1  0
 27 49  1  0
 27 50  1  0
 27 51  1  0
M  CHG  2   9  -1  18   1
M  END
>  <UniqueID>  (37) 
37

>  <SMILES>  (37) 
Cc1ccc(S(=O)(=O)[N-]c2cccc(S(=O)(=O)[NH+]3CCCCC3)c2)cc1C

>  <Energy>  (37) 
64.05831776735273

>  <Genealogy>  (37) 
Cc1ccc(S(=O)(=O)[N-]c2cccc(S(=O)(=O)[NH+]3CCCCC3)c2)cc1C (protonated)
Cc1ccc(S(=O)(=O)[N-]c2cccc(S(=O)(=O)[NH+]3CCCCC3)c2)cc1C (3D coordinates assigned)
Cc1ccc(S(=O)(=O)[N-]c2cccc(S(=O)(=O)[NH+]3CCCCC3)c2)cc1C (nonaromatic ring conformer: 64.05831776735273 kcal/mol)

>  <smiles>  (37) 
Cc1ccc(S(=O)(=O)Nc2cccc(S(=O)(=O)N3CCCCC3)c2)cc1C

>  <score_type>  (37) 
oracle

>  <origin>  (37) 
adgpu

>  <m_score__min__energy>  (37) 
-10.789999999999999

>  <m_primary>  (37) 
energy

$$$$
37:0
     RDKit          3D

 45 47  0  0  0  0  0  0  0  0999 V2000
   -4.0810   16.8870  -34.6380 N   0  0  0  0  0  0  0  0  0  0  0  0
   -3.1790   17.9020  -34.1800 C   0  0  0  0  0  0  0  0  0  0  0  0
   -1.8450   17.8760  -34.6170 C   0  0  0  0  0  0  0  0  0  0  0  0
   -0.9480   18.8680  -34.2190 C   0  0  0  0  0  0  0  0  0  0  0  0
   -1.3720   19.8970  -33.3790 C   0  0  0  0  0  0  0  0  0  0  0  0
   -2.6920   19.9320  -32.9290 C   0  0  0  0  0  0  0  0  0  0  0  0
   -3.6120   18.9440  -33.3270 C   0  0  0  0  0  0  0  0  0  0  0  0
   -4.9500   18.9530  -32.8010 N   0  0  0  0  0  0  0  0  0  0  0  0
   -6.1010   19.2650  -33.5990 C   0  0  0  0  0  0  0  0  0  0  0  0
   -6.1130   18.9980  -34.8310 O   0  0  0  0  0  0  0  0  0  0  0  0
   -7.2790   19.9490  -32.9750 C   0  0  0  0  0  0  0  0  0  0  0  0
   -6.8550   21.3080  -32.4880 C   0  0  0  0  0  0  0  0  0  0  0  0
   -7.7170   22.0770  -31.6900 C   0  0  0  0  0  0  0  0  0  0  0  0
   -7.2660   23.2630  -31.1070 C   0  0  0  0  0  0  0  0  0  0  0  0
   -5.9450   23.6880  -31.3060 C   0  0  0  0  0  0  0  0  0  0  0  0
   -5.3130   25.0910  -30.4520 S   0  0  0  0  0  0  0  0  0  0  0  0
   -5.7480   26.3360  -31.1700 O   0  0  0  0  0  0  0  0  0  0  0  0
   -5.8240   25.1380  -29.0400 O   0  0  0  0  0  0  0  0  0  0  0  0
   -3.5810   25.0120  -30.4320 N   0  0  0  0  0  0  0  0  0  0  0  0
   -2.8010   24.2410  -29.5050 C   0  0  0  0  0  0  0  0  0  0  0  0
   -3.1840   22.9460  -29.1080 C   0  0  0  0  0  0  0  0  0  0  0  0
   -2.3930   22.2200  -28.2120 C   0  0  0  0  0  0  0  0  0  0  0  0
   -1.2250   22.7830  -27.6960 C   0  0  0  0  0  0  0  0  0  0  0  0
   -0.8400   24.0690  -28.0800 C   0  0  0  0  0  0  0  0  0  0  0  0
   -1.6250   24.7980  -28.9810 C   0  0  0  0  0  0  0  0  0  0  0  0
   -1.2280   26.0770  -29.3560 O   0  0  0  0  0  0  0  0  0  0  0  0
   -5.0920   22.9380  -32.1240 C   0  0  0  0  0  0  0  0  0  0  0  0
   -5.5420   21.7540  -32.7120 C   0  0  0  0  0  0  0  0  0  0  0  0
   -3.7770   15.9000  -34.7870 H   0  0  0  0  0  0  0  0  0  0  0  0
   -5.0940   17.1040  -34.7790 H   0  0  0  0  0  0  0  0  0  0  0  0
   -1.5039   17.0664  -35.2790 H   0  0  0  0  0  0  0  0  0  0  0  0
    0.0947   18.8382  -34.5683 H   0  0  0  0  0  0  0  0  0  0  0  0
   -0.6653   20.6816  -33.0710 H   0  0  0  0  0  0  0  0  0  0  0  0
   -3.0170   20.7396  -32.2566 H   0  0  0  0  0  0  0  0  0  0  0  0
   -5.0820   18.8570  -31.7700 H   0  0  0  0  0  0  0  0  0  0  0  0
   -8.0800   20.0579  -33.7210 H   0  0  0  0  0  0  0  0  0  0  0  0
   -7.6514   19.3510  -32.1302 H   0  0  0  0  0  0  0  0  0  0  0  0
   -8.7520   21.7438  -31.5233 H   0  0  0  0  0  0  0  0  0  0  0  0
   -7.9490   23.8653  -30.4900 H   0  0  0  0  0  0  0  0  0  0  0  0
   -4.1096   22.5031  -29.5043 H   0  0  0  0  0  0  0  0  0  0  0  0
   -2.6917   21.2042  -27.9137 H   0  0  0  0  0  0  0  0  0  0  0  0
   -0.6072   22.2132  -26.9863 H   0  0  0  0  0  0  0  0  0  0  0  0
    0.0821   24.5102  -27.6737 H   0  0  0  0  0  0  0  0  0  0  0  0
   -4.0631   23.2826  -32.3044 H   0  0  0  0  0  0  0  0  0  0  0  0
   -4.8660   21.1687  -33.3527 H   0  0  0  0  0  0  0  0  0  0  0  0
  1  2  1  0
  2  3  2  0
  3  4  1  0
  4  5  2  0
  5  6  1  0
  6  7  2  0
  7  8  1  0
  8  9  1  0
  9 10  2  0
  9 11  1  0
 11 12  1  0
 12 13  2  0
 13 14  1  0
 14 15  2  0
 15 16  1  0
 16 17  2  0
 16 18  2  0
 16 19  1  0
 19 20  1  0
 20 21  2  0
 21 22  1  0
 22 23  2  0
 23 24  1  0
 24 25  2  0
 25 26  1  0
 15 27  1  0
 27 28  2  0
  7  2  1  0
 28 12  1  0
 25 20  1  0
  1 29  1  0
  1 30  1  0
  3 31  1  0
  4 32  1  0
  5 33  1  0
  6 34  1  0
  8 35  1  0
 11 36  1  0
 11 37  1  0
 13 38  1  0
 14 39  1  0
 21 40  1  0
 22 41  1  0
 23 42  1  0
 24 43  1  0
 27 44  1  0
 28 45  1  0
M  CHG  2  19  -1  26  -1
M  END
>  <UniqueID>  (38) 
38

>  <SMILES>  (38) 
Nc1ccccc1NC(=O)Cc1ccc(S(=O)(=O)[N-]c2ccccc2[O-])cc1

>  <Energy>  (38) 
51.242587847172054

>  <Genealogy>  (38) 
Nc1ccccc1NC(=O)Cc1ccc(S(=O)(=O)[N-]c2ccccc2[O-])cc1 (protonated)
Nc1ccccc1NC(=O)Cc1ccc(S(=O)(=O)[N-]c2ccccc2[O-])cc1 (3D coordinates assigned)
Nc1ccccc1NC(=O)Cc1ccc(S(=O)(=O)[N-]c2ccccc2[O-])cc1 (optimized conformer: 51.242587847172054 kcal/mol)

>  <smiles>  (38) 
Nc1ccccc1NC(=O)Cc1ccc(S(=O)(=O)Nc2ccccc2O)cc1

>  <score_type>  (38) 
oracle

>  <origin>  (38) 
adgpu

>  <m_score__min__energy>  (38) 
-14.06

>  <m_primary>  (38) 
energy

$$$$
38:0
     RDKit          3D

 40 42  0  0  0  0  0  0  0  0999 V2000
   -0.2730   22.6220  -27.3720 C   0  0  0  0  0  0  0  0  0  0  0  0
   -1.2810   23.6690  -27.2040 N   0  0  0  0  0  0  0  0  0  0  0  0
   -1.1550   24.7030  -26.1770 C   0  0  0  0  0  0  0  0  0  0  0  0
   -2.4430   23.6560  -28.0400 C   0  0  0  0  0  0  0  0  0  0  0  0
   -3.4420   22.7000  -27.8170 C   0  0  0  0  0  0  0  0  0  0  0  0
   -4.5820   22.6710  -28.6240 C   0  0  0  0  0  0  0  0  0  0  0  0
   -4.7330   23.5960  -29.6640 C   0  0  0  0  0  0  0  0  0  0  0  0
   -6.1680   23.5290  -30.6830 S   0  0  0  0  0  0  0  0  0  0  0  0
   -7.3350   23.1840  -29.8000 O   0  0  0  0  0  0  0  0  0  0  0  0
   -6.4210   24.8600  -31.3330 O   0  0  0  0  0  0  0  0  0  0  0  0
   -5.9660   22.3200  -31.9230 N   0  0  0  0  0  0  0  0  0  0  0  0
   -4.7270   22.2860  -32.7100 C   0  0  0  0  0  0  0  0  0  0  0  0
   -4.1920   20.8850  -32.7690 C   0  0  0  0  0  0  0  0  0  0  0  0
   -2.9580   20.6790  -32.9010 O   0  0  0  0  0  0  0  0  0  0  0  0
   -5.1030   19.7820  -32.7500 N   0  0  0  0  0  0  0  0  0  0  0  0
   -6.4970   20.0010  -32.5170 C   0  0  0  0  0  0  0  0  0  0  0  0
   -7.4110   18.9550  -32.6800 C   0  0  0  0  0  0  0  0  0  0  0  0
   -8.7750   19.1810  -32.4740 C   0  0  0  0  0  0  0  0  0  0  0  0
   -9.2280   20.4520  -32.1110 C   0  0  0  0  0  0  0  0  0  0  0  0
   -8.3170   21.5000  -31.9370 C   0  0  0  0  0  0  0  0  0  0  0  0
   -6.9420   21.2770  -32.1200 C   0  0  0  0  0  0  0  0  0  0  0  0
   -3.7360   24.5560  -29.8900 C   0  0  0  0  0  0  0  0  0  0  0  0
   -2.5900   24.5910  -29.0840 C   0  0  0  0  0  0  0  0  0  0  0  0
   -1.6190   25.5580  -29.3380 O   0  0  0  0  0  0  0  0  0  0  0  0
    0.0622   22.2738  -26.3839 H   0  0  0  0  0  0  0  0  0  0  0  0
   -0.7087   21.7796  -27.9292 H   0  0  0  0  0  0  0  0  0  0  0  0
    0.5853   23.0254  -27.9292 H   0  0  0  0  0  0  0  0  0  0  0  0
   -1.2115   24.2394  -25.1811 H   0  0  0  0  0  0  0  0  0  0  0  0
   -0.1878   25.2149  -26.2888 H   0  0  0  0  0  0  0  0  0  0  0  0
   -1.9709   25.4322  -26.2888 H   0  0  0  0  0  0  0  0  0  0  0  0
   -3.3285   21.9689  -27.0030 H   0  0  0  0  0  0  0  0  0  0  0  0
   -5.3636   21.9188  -28.4417 H   0  0  0  0  0  0  0  0  0  0  0  0
   -4.9345   22.6395  -33.7308 H   0  0  0  0  0  0  0  0  0  0  0  0
   -3.9795   22.9371  -32.2332 H   0  0  0  0  0  0  0  0  0  0  0  0
   -7.0567   17.9549  -32.9702 H   0  0  0  0  0  0  0  0  0  0  0  0
   -9.4930   18.3569  -32.5979 H   0  0  0  0  0  0  0  0  0  0  0  0
  -10.3033   20.6293  -31.9616 H   0  0  0  0  0  0  0  0  0  0  0  0
   -8.6782   22.5004  -31.6564 H   0  0  0  0  0  0  0  0  0  0  0  0
   -3.8541   25.2857  -30.7046 H   0  0  0  0  0  0  0  0  0  0  0  0
   -0.7310   25.3350  -29.7730 H   0  0  0  0  0  0  0  0  0  0  0  0
  1  2  1  0
  2  3  1  0
  2  4  1  0
  4  5  2  0
  5  6  1  0
  6  7  2  0
  7  8  1  0
  8  9  2  0
  8 10  2  0
  8 11  1  0
 11 12  1  0
 12 13  1  0
 13 14  2  0
 13 15  1  0
 15 16  1  0
 16 17  2  0
 17 18  1  0
 18 19  2  0
 19 20  1  0
 20 21  2  0
  7 22  1  0
 22 23  2  0
 23 24  1  0
 23  4  1  0
 21 11  1  0
 21 16  1  0
  1 25  1  0
  1 26  1  0
  1 27  1  0
  3 28  1  0
  3 29  1  0
  3 30  1  0
  5 31  1  0
  6 32  1  0
 12 33  1  0
 12 34  1  0
 17 35  1  0
 18 36  1  0
 19 37  1  0
 20 38  1  0
 22 39  1  0
 24 40  1  0
M  CHG  1  15  -1
M  END
>  <UniqueID>  (39) 
39

>  <SMILES>  (39) 
CN(C)c1ccc(S(=O)(=O)N2CC(=O)[N-]c3ccccc32)cc1O

>  <Energy>  (39) 
51.59731737199558

>  <Genealogy>  (39) 
CN(C)c1ccc(S(=O)(=O)N2CC(=O)[N-]c3ccccc32)cc1O (protonated)
CN(C)c1ccc(S(=O)(=O)N2CC(=O)[N-]c3ccccc32)cc1O (3D coordinates assigned)
CN(C)c1ccc(S(=O)(=O)N2CC(=O)[N-]c3ccccc32)cc1O (nonaromatic ring conformer: 51.59731737199558 kcal/mol)

>  <smiles>  (39) 
CN(C)c1ccc(S(=O)(=O)N2CC(=O)Nc3ccccc32)cc1O

>  <score_type>  (39) 
oracle

>  <origin>  (39) 
adgpu

>  <m_score__min__energy>  (39) 
-8.9399999999999995

>  <m_primary>  (39) 
energy

$$$$
39:0
     RDKit          3D

 69 73  0  0  0  0  0  0  0  0999 V2000
   -3.1600   21.7020  -32.3760 O   0  0  0  0  0  0  0  0  0  0  0  0
   -2.6580   20.6850  -31.8190 C   0  0  0  0  0  0  0  0  0  0  0  0
   -2.5910   20.6220  -30.3860 N   0  0  0  0  0  0  0  0  0  0  0  0
   -3.0170   21.7180  -29.5720 C   0  0  0  0  0  0  0  0  0  0  0  0
   -3.9230   22.6450  -30.1040 C   0  0  0  0  0  0  0  0  0  0  0  0
   -4.4000   23.7010  -29.3210 C   0  0  0  0  0  0  0  0  0  0  0  0
   -5.5900   24.8160  -29.9890 S   0  0  0  0  0  0  0  0  0  0  0  0
   -4.9240   25.6710  -31.0320 O   0  0  0  0  0  0  0  0  0  0  0  0
   -6.1200   25.7110  -28.9010 O   0  0  0  0  0  0  0  0  0  0  0  0
   -6.8970   23.9140  -30.7180 N   0  0  0  0  0  0  0  0  0  0  0  0
   -6.5270   23.5230  -32.0980 C   0  0  0  0  0  0  0  0  0  0  0  0
   -7.4630   22.4360  -32.6770 C   0  0  0  0  0  0  0  0  0  0  0  0
   -8.7700   22.3370  -31.8860 C   0  0  0  0  0  0  0  0  0  0  0  0
   -8.4930   22.0480  -30.4000 C   0  0  0  0  0  0  0  0  0  0  0  0
   -7.2040   22.7300  -29.8990 C   0  0  0  0  0  0  0  0  0  0  0  0
   -3.9670   23.8290  -27.9960 C   0  0  0  0  0  0  0  0  0  0  0  0
   -3.0610   22.9130  -27.4600 C   0  0  0  0  0  0  0  0  0  0  0  0
   -2.5780   21.8450  -28.2380 C   0  0  0  0  0  0  0  0  0  0  0  0
   -1.6420   20.9060  -27.6680 N   0  0  0  0  0  0  0  0  0  0  0  0
   -0.2060   21.0270  -27.9480 C   0  0  0  0  0  0  0  0  0  0  0  0
    0.2820   19.8350  -28.7910 C   0  0  0  0  0  0  0  0  0  0  0  0
   -0.4770   18.5260  -28.4880 C   0  0  0  0  0  0  0  0  0  0  0  0
   -1.1230   18.5400  -27.0980 C   0  0  0  0  0  0  0  0  0  0  0  0
   -2.1350   19.6940  -26.9930 C   0  0  0  0  0  0  0  0  0  0  0  0
   -2.1090   19.5840  -32.6480 C   0  0  0  0  0  0  0  0  0  0  0  0
   -0.7140   19.4950  -32.8230 C   0  0  0  0  0  0  0  0  0  0  0  0
   -0.1610   18.5300  -33.6650 C   0  0  0  0  0  0  0  0  0  0  0  0
   -0.9880   17.6420  -34.3500 C   0  0  0  0  0  0  0  0  0  0  0  0
   -2.3720   17.7080  -34.1880 C   0  0  0  0  0  0  0  0  0  0  0  0
   -2.9500   18.6640  -33.3350 C   0  0  0  0  0  0  0  0  0  0  0  0
   -4.4220   18.6490  -33.1610 C   0  0  0  0  0  0  0  0  0  0  0  0
   -5.0270   17.6800  -32.3430 C   0  0  0  0  0  0  0  0  0  0  0  0
   -6.4150   17.6710  -32.1640 C   0  0  0  0  0  0  0  0  0  0  0  0
   -7.2080   18.6350  -32.7940 C   0  0  0  0  0  0  0  0  0  0  0  0
   -6.6140   19.6120  -33.6000 C   0  0  0  0  0  0  0  0  0  0  0  0
   -5.2260   19.6220  -33.7830 C   0  0  0  0  0  0  0  0  0  0  0  0
   -2.2280   19.7650  -29.9070 H   0  0  0  0  0  0  0  0  0  0  0  0
   -4.2617   22.5414  -31.1454 H   0  0  0  0  0  0  0  0  0  0  0  0
   -6.5787   24.4128  -32.7426 H   0  0  0  0  0  0  0  0  0  0  0  0
   -5.5098   23.1055  -32.0657 H   0  0  0  0  0  0  0  0  0  0  0  0
   -7.6966   22.6862  -33.7224 H   0  0  0  0  0  0  0  0  0  0  0  0
   -6.9468   21.4669  -32.6105 H   0  0  0  0  0  0  0  0  0  0  0  0
   -9.3158   23.2881  -31.9721 H   0  0  0  0  0  0  0  0  0  0  0  0
   -9.3684   21.5114  -32.2986 H   0  0  0  0  0  0  0  0  0  0  0  0
   -9.3416   22.4157  -29.8044 H   0  0  0  0  0  0  0  0  0  0  0  0
   -8.3629   20.9615  -30.2882 H   0  0  0  0  0  0  0  0  0  0  0  0
   -7.3411   23.0392  -28.8523 H   0  0  0  0  0  0  0  0  0  0  0  0
   -6.3701   22.0169  -29.9769 H   0  0  0  0  0  0  0  0  0  0  0  0
   -4.3426   24.6553  -27.3746 H   0  0  0  0  0  0  0  0  0  0  0  0
   -2.7215   23.0270  -26.4199 H   0  0  0  0  0  0  0  0  0  0  0  0
   -0.0225   21.9602  -28.5006 H   0  0  0  0  0  0  0  0  0  0  0  0
    0.3425   21.0363  -26.9946 H   0  0  0  0  0  0  0  0  0  0  0  0
    0.1460   20.0799  -29.8547 H   0  0  0  0  0  0  0  0  0  0  0  0
    1.3392   19.6663  -28.5381 H   0  0  0  0  0  0  0  0  0  0  0  0
   -1.2649   18.3903  -29.2435 H   0  0  0  0  0  0  0  0  0  0  0  0
    0.2494   17.7004  -28.5146 H   0  0  0  0  0  0  0  0  0  0  0  0
   -1.6423   17.5851  -26.9292 H   0  0  0  0  0  0  0  0  0  0  0  0
   -0.3388   18.6807  -26.3396 H   0  0  0  0  0  0  0  0  0  0  0  0
   -3.0809   19.3838  -27.4609 H   0  0  0  0  0  0  0  0  0  0  0  0
   -2.2834   19.9276  -25.9284 H   0  0  0  0  0  0  0  0  0  0  0  0
   -0.0533   20.1943  -32.2897 H   0  0  0  0  0  0  0  0  0  0  0  0
    0.9304   18.4699  -33.7885 H   0  0  0  0  0  0  0  0  0  0  0  0
   -0.5488   16.8878  -35.0195 H   0  0  0  0  0  0  0  0  0  0  0  0
   -3.0179   17.0044  -34.7336 H   0  0  0  0  0  0  0  0  0  0  0  0
   -4.4060   16.9239  -31.8403 H   0  0  0  0  0  0  0  0  0  0  0  0
   -6.8823   16.9052  -31.5274 H   0  0  0  0  0  0  0  0  0  0  0  0
   -8.2992   18.6252  -32.6558 H   0  0  0  0  0  0  0  0  0  0  0  0
   -7.2382   20.3733  -34.0906 H   0  0  0  0  0  0  0  0  0  0  0  0
   -4.7622   20.3934  -34.4154 H   0  0  0  0  0  0  0  0  0  0  0  0
  1  2  2  0
  2  3  1  0
  3  4  1  0
  4  5  2  0
  5  6  1  0
  6  7  1  0
  7  8  2  0
  7  9  2  0
  7 10  1  0
 10 11  1  0
 11 12  1  0
 12 13  1  0
 13 14  1  0
 14 15  1  0
  6 16  2  0
 16 17  1  0
 17 18  2  0
 18 19  1  0
 19 20  1  0
 20 21  1  0
 21 22  1  0
 22 23  1  0
 23 24  1  0
  2 25  1  0
 25 26  2  0
 26 27  1  0
 27 28  2  0
 28 29  1  0
 29 30  2  0
 30 31  1  0
 31 32  2  0
 32 33  1  0
 33 34  2  0
 34 35  1  0
 35 36  2  0
 18  4  1  0
 24 19  1  0
 30 25  1  0
 36 31  1  0
 15 10  1  0
  3 37  1  0
  5 38  1  0
 11 39  1  0
 11 40  1  0
 12 41  1  0
 12 42  1  0
 13 43  1  0
 13 44  1  0
 14 45  1  0
 14 46  1  0
 15 47  1  0
 15 48  1  0
 16 49  1  0
 17 50  1  0
 20 51  1  0
 20 52  1  0
 21 53  1  0
 21 54  1  0
 22 55  1  0
 22 56  1  0
 23 57  1  0
 23 58  1  0
 24 59  1  0
 24 60  1  0
 26 61  1  0
 27 62  1  0
 28 63  1  0
 29 64  1  0
 32 65  1  0
 33 66  1  0
 34 67  1  0
 35 68  1  0
 36 69  1  0
M  END
>  <UniqueID>  (40) 
40

>  <SMILES>  (40) 
O=C(Nc1cc(S(=O)(=O)N2CCCCC2)ccc1N1CCCCC1)c1ccccc1-c1ccccc1

>  <Energy>  (40) 
97.37016175216576

>  <Genealogy>  (40) 
O=C(Nc1cc(S(=O)(=O)N2CCCCC2)ccc1N1CCCCC1)c1ccccc1-c1ccccc1 (3D coordinates assigned)
O=C(Nc1cc(S(=O)(=O)N2CCCCC2)ccc1N1CCCCC1)c1ccccc1-c1ccccc1 (nonaromatic ring conformer: 97.37016175216576 kcal/mol)

>  <smiles>  (40) 
O=C(Nc1cc(S(=O)(=O)N2CCCCC2)ccc1N1CCCCC1)c1ccccc1-c1ccccc1

>  <score_type>  (40) 
oracle

>  <origin>  (40) 
adgpu

>  <m_score__min__energy>  (40) 
-11.539999999999999

>  <m_primary>  (40) 
energy

$$$$
40:0
     RDKit          3D

 53 56  0  0  0  0  0  0  0  0999 V2000
   -5.2870   26.4380  -30.4510 O   0  0  0  0  0  0  0  0  0  0  0  0
   -4.9270   25.2380  -30.5760 C   0  0  0  0  0  0  0  0  0  0  0  0
   -3.5310   24.9270  -30.4460 N   0  0  0  0  0  0  0  0  0  0  0  0
   -2.9340   24.0450  -29.4840 C   0  0  0  0  0  0  0  0  0  0  0  0
   -2.8300   24.4930  -28.1600 C   0  0  0  0  0  0  0  0  0  0  0  0
   -2.3210   23.6560  -27.1650 C   0  0  0  0  0  0  0  0  0  0  0  0
   -1.8950   22.3690  -27.4860 C   0  0  0  0  0  0  0  0  0  0  0  0
   -1.9570   21.9210  -28.8080 C   0  0  0  0  0  0  0  0  0  0  0  0
   -2.4640   22.7510  -29.8230 C   0  0  0  0  0  0  0  0  0  0  0  0
   -2.3980   22.3070  -31.1930 N   0  0  0  0  0  0  0  0  0  0  0  0
   -1.2030   21.6000  -31.6680 C   0  0  0  0  0  0  0  0  0  0  0  0
   -1.6060   20.5070  -32.6650 C   0  0  0  0  0  0  0  0  0  0  0  0
   -2.8070   19.8970  -32.2340 O   0  0  0  0  0  0  0  0  0  0  0  0
   -3.9110   20.7750  -32.4070 C   0  0  0  0  0  0  0  0  0  0  0  0
   -3.6110   22.2390  -32.0150 C   0  0  0  0  0  0  0  0  0  0  0  0
   -5.9520   24.2000  -30.8360 C   0  0  0  0  0  0  0  0  0  0  0  0
   -6.4930   24.0620  -32.1260 C   0  0  0  0  0  0  0  0  0  0  0  0
   -7.3910   23.0300  -32.4080 C   0  0  0  0  0  0  0  0  0  0  0  0
   -7.7710   22.1290  -31.4050 C   0  0  0  0  0  0  0  0  0  0  0  0
   -8.8280   20.7670  -31.7830 S   0  0  0  0  0  0  0  0  0  0  0  0
  -10.1340   21.2900  -32.3110 O   0  0  0  0  0  0  0  0  0  0  0  0
   -9.1090   19.9980  -30.5210 O   0  0  0  0  0  0  0  0  0  0  0  0
   -8.1270   19.6830  -32.9640 N   0  0  0  0  0  0  0  0  0  0  0  0
   -7.9000   18.3440  -32.4210 C   0  0  0  0  0  0  0  0  0  0  0  0
   -6.7460   17.7420  -33.2120 C   0  0  0  0  0  0  0  0  0  0  0  0
   -6.0900   18.9130  -33.9280 C   0  0  0  0  0  0  0  0  0  0  0  0
   -6.8200   20.1450  -33.4240 C   0  0  0  0  0  0  0  0  0  0  0  0
   -7.2950   22.3130  -30.0990 C   0  0  0  0  0  0  0  0  0  0  0  0
   -6.3980   23.3440  -29.8160 C   0  0  0  0  0  0  0  0  0  0  0  0
   -3.1521   25.5128  -27.9025 H   0  0  0  0  0  0  0  0  0  0  0  0
   -2.2563   24.0132  -26.1266 H   0  0  0  0  0  0  0  0  0  0  0  0
   -1.5096   21.7051  -26.6982 H   0  0  0  0  0  0  0  0  0  0  0  0
   -1.6056   20.9088  -29.0570 H   0  0  0  0  0  0  0  0  0  0  0  0
   -0.5288   22.3146  -32.1628 H   0  0  0  0  0  0  0  0  0  0  0  0
   -0.6906   21.1380  -30.8112 H   0  0  0  0  0  0  0  0  0  0  0  0
   -1.7577   20.9544  -33.6584 H   0  0  0  0  0  0  0  0  0  0  0  0
   -0.8097   19.7503  -32.7220 H   0  0  0  0  0  0  0  0  0  0  0  0
   -4.2086   20.7535  -33.4658 H   0  0  0  0  0  0  0  0  0  0  0  0
   -4.7093   20.4214  -31.7379 H   0  0  0  0  0  0  0  0  0  0  0  0
   -3.4654   22.8364  -32.9271 H   0  0  0  0  0  0  0  0  0  0  0  0
   -4.4583   22.6356  -31.4364 H   0  0  0  0  0  0  0  0  0  0  0  0
   -6.2077   24.7705  -32.9176 H   0  0  0  0  0  0  0  0  0  0  0  0
   -7.8019   22.9243  -33.4229 H   0  0  0  0  0  0  0  0  0  0  0  0
   -7.6371   18.4067  -31.3547 H   0  0  0  0  0  0  0  0  0  0  0  0
   -8.8044   17.7237  -32.5056 H   0  0  0  0  0  0  0  0  0  0  0  0
   -6.0288   17.2546  -32.5352 H   0  0  0  0  0  0  0  0  0  0  0  0
   -7.0925   16.9736  -33.9188 H   0  0  0  0  0  0  0  0  0  0  0  0
   -5.0204   18.9686  -33.6773 H   0  0  0  0  0  0  0  0  0  0  0  0
   -6.1540   18.8151  -35.0218 H   0  0  0  0  0  0  0  0  0  0  0  0
   -6.2640   20.6050  -32.5938 H   0  0  0  0  0  0  0  0  0  0  0  0
   -6.9179   20.9046  -34.2136 H   0  0  0  0  0  0  0  0  0  0  0  0
   -7.6299   21.6420  -29.2943 H   0  0  0  0  0  0  0  0  0  0  0  0
   -6.0378   23.4871  -28.7866 H   0  0  0  0  0  0  0  0  0  0  0  0
  1  2  2  0
  2  3  1  0
  3  4  1  0
  4  5  2  0
  5  6  1  0
  6  7  2  0
  7  8  1  0
  8  9  2  0
  9 10  1  0
 10 11  1  0
 11 12  1  0
 12 13  1  0
 13 14  1  0
 14 15  1  0
  2 16  1  0
 16 17  2  0
 17 18  1  0
 18 19  2  0
 19 20  1  0
 20 21  2  0
 20 22  2  0
 20 23  1  0
 23 24  1  0
 24 25  1  0
 25 26  1  0
 26 27  1  0
 19 28  1  0
 28 29  2  0
  9  4  1  0
 15 10  1  0
 29 16  1  0
 27 23  1  0
  5 30  1  0
  6 31  1  0
  7 32  1  0
  8 33  1  0
 11 34  1  0
 11 35  1  0
 12 36  1  0
 12 37  1  0
 14 38  1  0
 14 39  1  0
 15 40  1  0
 15 41  1  0
 17 42  1  0
 18 43  1  0
 24 44  1  0
 24 45  1  0
 25 46  1  0
 25 47  1  0
 26 48  1  0
 26 49  1  0
 27 50  1  0
 27 51  1  0
 28 52  1  0
 29 53  1  0
M  CHG  1   3  -1
M  END
>  <UniqueID>  (41) 
41

>  <SMILES>  (41) 
O=C([N-]c1ccccc1N1CCOCC1)c1ccc(S(=O)(=O)N2CCCC2)cc1

>  <Energy>  (41) 
72.8077375193622

>  <Genealogy>  (41) 
O=C([N-]c1ccccc1N1CCOCC1)c1ccc(S(=O)(=O)N2CCCC2)cc1 (protonated)
O=C([N-]c1ccccc1N1CCOCC1)c1ccc(S(=O)(=O)N2CCCC2)cc1 (3D coordinates assigned)
O=C([N-]c1ccccc1N1CCOCC1)c1ccc(S(=O)(=O)N2CCCC2)cc1 (nonaromatic ring conformer: 72.8077375193622 kcal/mol)

>  <smiles>  (41) 
O=C(Nc1ccccc1N1CCOCC1)c1ccc(S(=O)(=O)N2CCCC2)cc1

>  <score_type>  (41) 
oracle

>  <origin>  (41) 
adgpu

>  <m_score__min__energy>  (41) 
-11.81

>  <m_primary>  (41) 
energy

$$$$
41:0
     RDKit          3D

 56 58  0  0  0  0  0  0  0  0999 V2000
   -0.5190   24.6280  -24.5460 C   0  0  0  0  0  0  0  0  0  0  0  0
   -0.3020   26.0990  -24.8770 C   0  0  0  0  0  0  0  0  0  0  0  0
   -0.6740   26.3720  -26.2260 O   0  0  0  0  0  0  0  0  0  0  0  0
   -0.6320   25.4140  -27.2480 C   0  0  0  0  0  0  0  0  0  0  0  0
    0.4540   25.1740  -27.8450 O   0  0  0  0  0  0  0  0  0  0  0  0
   -1.8350   24.7120  -27.6160 N   0  0  0  0  0  0  0  0  0  0  0  0
   -3.0520   24.9360  -26.8220 C   0  0  0  0  0  0  0  0  0  0  0  0
   -4.2310   24.1050  -27.3410 C   0  0  0  0  0  0  0  0  0  0  0  0
   -4.3390   24.2410  -28.8680 C   0  0  0  0  0  0  0  0  0  0  0  0
   -5.4900   23.4790  -29.3690 N   0  0  0  0  0  0  0  0  0  0  0  0
   -5.7720   23.3640  -30.7730 C   0  0  0  0  0  0  0  0  0  0  0  0
   -5.0640   23.9870  -31.6100 O   0  0  0  0  0  0  0  0  0  0  0  0
   -6.8810   22.5300  -31.2660 C   0  0  0  0  0  0  0  0  0  0  0  0
   -8.2330   22.7080  -31.0190 C   0  0  0  0  0  0  0  0  0  0  0  0
   -8.8750   21.6810  -31.6770 C   0  0  0  0  0  0  0  0  0  0  0  0
   -7.8780   20.9450  -32.2860 C   0  0  0  0  0  0  0  0  0  0  0  0
   -8.0760   19.7070  -33.0970 C   0  0  0  0  0  0  0  0  0  0  0  0
   -6.9120   18.4540  -32.5970 S   0  0  0  0  0  0  0  0  0  0  0  0
   -7.0050   17.2730  -33.5240 O   0  0  0  0  0  0  0  0  0  0  0  0
   -7.2220   17.9950  -31.2000 O   0  0  0  0  0  0  0  0  0  0  0  0
   -5.2870   19.1270  -32.6500 C   0  0  0  0  0  0  0  0  0  0  0  0
   -4.5490   19.1020  -33.8410 C   0  0  0  0  0  0  0  0  0  0  0  0
   -3.2670   19.6570  -33.8860 C   0  0  0  0  0  0  0  0  0  0  0  0
   -2.7070   20.2380  -32.7380 C   0  0  0  0  0  0  0  0  0  0  0  0
   -1.3480   20.8720  -32.8010 C   0  0  0  0  0  0  0  0  0  0  0  0
   -3.4570   20.2850  -31.5530 C   0  0  0  0  0  0  0  0  0  0  0  0
   -4.7380   19.7280  -31.5090 C   0  0  0  0  0  0  0  0  0  0  0  0
   -6.7030   21.4690  -32.0210 O   0  0  0  0  0  0  0  0  0  0  0  0
   -3.0390   23.7880  -29.5840 C   0  0  0  0  0  0  0  0  0  0  0  0
   -1.8180   23.6720  -28.6560 C   0  0  0  0  0  0  0  0  0  0  0  0
   -0.5383   24.4969  -23.4540 H   0  0  0  0  0  0  0  0  0  0  0  0
   -1.4762   24.2935  -24.9725 H   0  0  0  0  0  0  0  0  0  0  0  0
    0.3009   24.0314  -24.9725 H   0  0  0  0  0  0  0  0  0  0  0  0
   -0.9140   26.7152  -24.2019 H   0  0  0  0  0  0  0  0  0  0  0  0
    0.7643   26.3368  -24.7491 H   0  0  0  0  0  0  0  0  0  0  0  0
   -2.8519   24.6565  -25.7771 H   0  0  0  0  0  0  0  0  0  0  0  0
   -3.3216   25.9994  -26.9020 H   0  0  0  0  0  0  0  0  0  0  0  0
   -4.0745   23.0480  -27.0797 H   0  0  0  0  0  0  0  0  0  0  0  0
   -5.1605   24.4700  -26.8796 H   0  0  0  0  0  0  0  0  0  0  0  0
   -4.4863   25.3073  -29.0945 H   0  0  0  0  0  0  0  0  0  0  0  0
   -6.1400   23.0370  -28.6810 H   0  0  0  0  0  0  0  0  0  0  0  0
   -8.6983   23.5052  -30.4207 H   0  0  0  0  0  0  0  0  0  0  0  0
   -9.9574   21.4878  -31.7101 H   0  0  0  0  0  0  0  0  0  0  0  0
   -9.0996   19.3334  -32.9465 H   0  0  0  0  0  0  0  0  0  0  0  0
   -7.9160   19.9434  -34.1593 H   0  0  0  0  0  0  0  0  0  0  0  0
   -4.9801   18.6441  -34.7435 H   0  0  0  0  0  0  0  0  0  0  0  0
   -2.6947   19.6383  -34.8252 H   0  0  0  0  0  0  0  0  0  0  0  0
   -0.9766   21.0453  -31.7802 H   0  0  0  0  0  0  0  0  0  0  0  0
   -0.6560   20.2037  -33.3345 H   0  0  0  0  0  0  0  0  0  0  0  0
   -1.4154   21.8316  -33.3345 H   0  0  0  0  0  0  0  0  0  0  0  0
   -3.0353   20.7618  -30.6558 H   0  0  0  0  0  0  0  0  0  0  0  0
   -5.3179   19.7614  -30.5749 H   0  0  0  0  0  0  0  0  0  0  0  0
   -3.2210   22.8036  -30.0400 H   0  0  0  0  0  0  0  0  0  0  0  0
   -2.7999   24.5631  -30.3270 H   0  0  0  0  0  0  0  0  0  0  0  0
   -1.8272   22.6833  -28.1739 H   0  0  0  0  0  0  0  0  0  0  0  0
   -0.9088   23.8020  -29.2614 H   0  0  0  0  0  0  0  0  0  0  0  0
  1  2  1  0
  2  3  1  0
  3  4  1  0
  4  5  2  0
  4  6  1  0
  6  7  1  0
  7  8  1  0
  8  9  1  0
  9 10  1  0
 10 11  1  0
 11 12  2  0
 11 13  1  0
 13 14  2  0
 14 15  1  0
 15 16  2  0
 16 17  1  0
 17 18  1  0
 18 19  2  0
 18 20  2  0
 18 21  1  0
 21 22  2  0
 22 23  1  0
 23 24  2  0
 24 25  1  0
 24 26  1  0
 26 27  2  0
 16 28  1  0
  9 29  1  0
 29 30  1  0
 30  6  1  0
 28 13  1  0
 27 21  1  0
  1 31  1  0
  1 32  1  0
  1 33  1  0
  2 34  1  0
  2 35  1  0
  7 36  1  0
  7 37  1  0
  8 38  1  0
  8 39  1  0
  9 40  1  0
 10 41  1  0
 14 42  1  0
 15 43  1  0
 17 44  1  0
 17 45  1  0
 22 46  1  0
 23 47  1  0
 25 48  1  0
 25 49  1  0
 25 50  1  0
 26 51  1  0
 27 52  1  0
 29 53  1  0
 29 54  1  0
 30 55  1  0
 30 56  1  0
M  END
>  <UniqueID>  (42) 
42

>  <SMILES>  (42) 
CCOC(=O)N1CCC(NC(=O)c2ccc(CS(=O)(=O)c3ccc(C)cc3)o2)CC1

>  <Energy>  (42) 
73.22444333119607

>  <Genealogy>  (42) 
CCOC(=O)N1CCC(NC(=O)c2ccc(CS(=O)(=O)c3ccc(C)cc3)o2)CC1 (3D coordinates assigned)
CCOC(=O)N1CCC(NC(=O)c2ccc(CS(=O)(=O)c3ccc(C)cc3)o2)CC1 (nonaromatic ring conformer: 73.22444333119607 kcal/mol)

>  <smiles>  (42) 
CCOC(=O)N1CCC(NC(=O)c2ccc(CS(=O)(=O)c3ccc(C)cc3)o2)CC1

>  <score_type>  (42) 
oracle

>  <origin>  (42) 
adgpu

>  <m_score__min__energy>  (42) 
-9.8399999999999999

>  <m_primary>  (42) 
energy

$$$$
42:0
     RDKit          3D

 56 59  0  0  0  0  0  0  0  0999 V2000
   -5.0090   17.4270  -32.4160 O   0  0  0  0  0  0  0  0  0  0  0  0
   -5.3490   18.6680  -33.1930 S   0  0  0  0  0  0  0  0  0  0  0  0
   -5.1120   18.4020  -34.6540 O   0  0  0  0  0  0  0  0  0  0  0  0
   -4.2400   19.9690  -32.6790 C   0  0  0  0  0  0  0  0  0  0  0  0
   -4.6570   20.9570  -31.7680 C   0  0  0  0  0  0  0  0  0  0  0  0
   -3.7810   21.9620  -31.3430 C   0  0  0  0  0  0  0  0  0  0  0  0
   -4.3620   23.1980  -30.2340 S   0  0  0  0  0  0  0  0  0  0  0  0
   -4.1390   24.5530  -30.8440 O   0  0  0  0  0  0  0  0  0  0  0  0
   -5.8330   23.0320  -29.9760 O   0  0  0  0  0  0  0  0  0  0  0  0
   -3.4850   23.0490  -28.7420 N   0  0  0  0  0  0  0  0  0  0  0  0
   -3.7520   23.9920  -27.6530 C   0  0  0  0  0  0  0  0  0  0  0  0
   -2.5410   24.8480  -27.4040 C   0  0  0  0  0  0  0  0  0  0  0  0
   -2.3630   25.4880  -26.1700 C   0  0  0  0  0  0  0  0  0  0  0  0
   -1.2560   26.3130  -25.9660 C   0  0  0  0  0  0  0  0  0  0  0  0
   -0.3420   26.5020  -27.0040 C   0  0  0  0  0  0  0  0  0  0  0  0
   -0.5350   25.8880  -28.2020 N   0  0  0  0  0  0  0  0  0  0  0  0
   -1.6040   25.0770  -28.4250 C   0  0  0  0  0  0  0  0  0  0  0  0
   -2.6460   21.9050  -28.5250 C   0  0  0  0  0  0  0  0  0  0  0  0
   -1.3350   21.8780  -29.0290 C   0  0  0  0  0  0  0  0  0  0  0  0
   -0.5310   20.7510  -28.8350 C   0  0  0  0  0  0  0  0  0  0  0  0
   -1.0260   19.6490  -28.1320 C   0  0  0  0  0  0  0  0  0  0  0  0
   -2.3280   19.6710  -27.6260 C   0  0  0  0  0  0  0  0  0  0  0  0
   -3.1370   20.7940  -27.8240 C   0  0  0  0  0  0  0  0  0  0  0  0
   -2.4760   22.0000  -31.8370 C   0  0  0  0  0  0  0  0  0  0  0  0
   -2.0510   21.0430  -32.7560 C   0  0  0  0  0  0  0  0  0  0  0  0
   -2.9220   20.0390  -33.1970 C   0  0  0  0  0  0  0  0  0  0  0  0
   -2.4420   19.1460  -34.1580 O   0  0  0  0  0  0  0  0  0  0  0  0
   -7.0560   18.9730  -32.9610 N   0  0  0  0  0  0  0  0  0  0  0  0
   -7.3870   20.4090  -33.0500 C   0  0  0  0  0  0  0  0  0  0  0  0
   -8.6350   20.7510  -32.2310 C   0  0  0  0  0  0  0  0  0  0  0  0
   -9.5580   19.6870  -32.3160 O   0  0  0  0  0  0  0  0  0  0  0  0
   -9.0890   18.5730  -31.5770 C   0  0  0  0  0  0  0  0  0  0  0  0
   -7.5800   18.2880  -31.7660 C   0  0  0  0  0  0  0  0  0  0  0  0
   -5.6876   20.9390  -31.3840 H   0  0  0  0  0  0  0  0  0  0  0  0
   -4.6016   24.6344  -27.9277 H   0  0  0  0  0  0  0  0  0  0  0  0
   -3.9898   23.4289  -26.7385 H   0  0  0  0  0  0  0  0  0  0  0  0
   -3.0954   25.3402  -25.3627 H   0  0  0  0  0  0  0  0  0  0  0  0
   -1.1051   26.8097  -24.9962 H   0  0  0  0  0  0  0  0  0  0  0  0
    0.5352   27.1482  -26.8528 H   0  0  0  0  0  0  0  0  0  0  0  0
   -1.7350   24.5994  -29.4072 H   0  0  0  0  0  0  0  0  0  0  0  0
   -0.9401   22.7458  -29.5776 H   0  0  0  0  0  0  0  0  0  0  0  0
    0.4930   20.7314  -29.2363 H   0  0  0  0  0  0  0  0  0  0  0  0
   -0.3905   18.7646  -27.9772 H   0  0  0  0  0  0  0  0  0  0  0  0
   -2.7169   18.8043  -27.0715 H   0  0  0  0  0  0  0  0  0  0  0  0
   -4.1632   20.8062  -27.4282 H   0  0  0  0  0  0  0  0  0  0  0  0
   -1.7832   22.7855  -31.5007 H   0  0  0  0  0  0  0  0  0  0  0  0
   -1.0205   21.0764  -33.1392 H   0  0  0  0  0  0  0  0  0  0  0  0
   -2.9630   18.3470  -34.4910 H   0  0  0  0  0  0  0  0  0  0  0  0
   -6.5380   20.9954  -32.6689 H   0  0  0  0  0  0  0  0  0  0  0  0
   -7.5897   20.6510  -34.1037 H   0  0  0  0  0  0  0  0  0  0  0  0
   -8.3522   20.9083  -31.1797 H   0  0  0  0  0  0  0  0  0  0  0  0
   -9.0945   21.6684  -32.6276 H   0  0  0  0  0  0  0  0  0  0  0  0
   -9.2751   18.7619  -30.5094 H   0  0  0  0  0  0  0  0  0  0  0  0
   -9.6305   17.6909  -31.9494 H   0  0  0  0  0  0  0  0  0  0  0  0
   -7.0336   18.6432  -30.8798 H   0  0  0  0  0  0  0  0  0  0  0  0
   -7.4429   17.2044  -31.8963 H   0  0  0  0  0  0  0  0  0  0  0  0
  1  2  2  0
  2  3  2  0
  2  4  1  0
  4  5  2  0
  5  6  1  0
  6  7  1  0
  7  8  2  0
  7  9  2  0
  7 10  1  0
 10 11  1  0
 11 12  1  0
 12 13  2  0
 13 14  1  0
 14 15  2  0
 15 16  1  0
 16 17  2  0
 10 18  1  0
 18 19  2  0
 19 20  1  0
 20 21  2  0
 21 22  1  0
 22 23  2  0
  6 24  2  0
 24 25  1  0
 25 26  2  0
 26 27  1  0
  2 28  1  0
 28 29  1  0
 29 30  1  0
 30 31  1  0
 31 32  1  0
 32 33  1  0
 26  4  1  0
 33 28  1  0
 17 12  1  0
 23 18  1  0
  5 34  1  0
 11 35  1  0
 11 36  1  0
 13 37  1  0
 14 38  1  0
 15 39  1  0
 17 40  1  0
 19 41  1  0
 20 42  1  0
 21 43  1  0
 22 44  1  0
 23 45  1  0
 24 46  1  0
 25 47  1  0
 27 48  1  0
 29 49  1  0
 29 50  1  0
 30 51  1  0
 30 52  1  0
 32 53  1  0
 32 54  1  0
 33 55  1  0
 33 56  1  0
M  END
>  <UniqueID>  (43) 
43

>  <SMILES>  (43) 
O=S(=O)(c1cc(S(=O)(=O)N(Cc2cccnc2)c2ccccc2)ccc1O)N1CCOCC1

>  <Energy>  (43) 
76.45638648567237

>  <Genealogy>  (43) 
O=S(=O)(c1cc(S(=O)(=O)N(Cc2cccnc2)c2ccccc2)ccc1O)N1CCOCC1 (3D coordinates assigned)
O=S(=O)(c1cc(S(=O)(=O)N(Cc2cccnc2)c2ccccc2)ccc1O)N1CCOCC1 (nonaromatic ring conformer: 76.45638648567237 kcal/mol)

>  <smiles>  (43) 
O=S(=O)(c1cc(S(=O)(=O)N(Cc2cccnc2)c2ccccc2)ccc1O)N1CCOCC1

>  <score_type>  (43) 
oracle

>  <origin>  (43) 
adgpu

>  <m_score__min__energy>  (43) 
-9.9399999999999995

>  <m_primary>  (43) 
energy

$$$$
43:0
     RDKit          3D

 35 36  0  0  0  0  0  0  0  0999 V2000
   -2.6720   24.6700  -29.1760 O   0  0  0  0  0  0  0  0  0  0  0  0
   -3.5350   24.5570  -30.0890 C   0  0  0  0  0  0  0  0  0  0  0  0
   -3.8610   25.6650  -30.8600 O   0  0  0  0  0  0  0  0  0  0  0  0
   -4.2550   23.2480  -30.3140 C   0  0  2  0  0  0  0  0  0  0  0  0
   -3.3000   22.0650  -30.0400 C   0  0  0  0  0  0  0  0  0  0  0  0
   -2.8940   21.3250  -31.2910 C   0  0  0  0  0  0  0  0  0  0  0  0
   -3.4690   20.0800  -31.5990 C   0  0  0  0  0  0  0  0  0  0  0  0
   -3.0800   19.3880  -32.7510 C   0  0  0  0  0  0  0  0  0  0  0  0
   -2.1160   19.9340  -33.6030 C   0  0  0  0  0  0  0  0  0  0  0  0
   -1.5400   21.1710  -33.3050 C   0  0  0  0  0  0  0  0  0  0  0  0
   -1.9250   21.8650  -32.1540 C   0  0  0  0  0  0  0  0  0  0  0  0
   -4.8140   23.1650  -31.6800 N   0  0  0  0  0  0  0  0  0  0  0  0
   -6.5390   22.9170  -31.6570 S   0  0  0  0  0  0  0  0  0  0  0  0
   -7.0850   23.2830  -30.3040 O   0  0  0  0  0  0  0  0  0  0  0  0
   -7.1750   23.8150  -32.6810 O   0  0  0  0  0  0  0  0  0  0  0  0
   -6.9480   21.2460  -32.0350 C   0  0  0  0  0  0  0  0  0  0  0  0
   -7.9990   20.6120  -31.3570 C   0  0  0  0  0  0  0  0  0  0  0  0
   -8.3470   19.2960  -31.6740 C   0  0  0  0  0  0  0  0  0  0  0  0
   -7.6470   18.6070  -32.6690 C   0  0  0  0  0  0  0  0  0  0  0  0
   -6.5970   19.2340  -33.3470 C   0  0  0  0  0  0  0  0  0  0  0  0
   -5.7240   18.3710  -34.6010 Cl  0  0  0  0  0  0  0  0  0  0  0  0
   -6.2470   20.5510  -33.0310 C   0  0  0  0  0  0  0  0  0  0  0  0
   -5.0987   23.1956  -29.6102 H   0  0  0  0  0  0  0  0  0  0  0  0
   -2.3929   22.4536  -29.5540 H   0  0  0  0  0  0  0  0  0  0  0  0
   -3.8395   21.3517  -29.3995 H   0  0  0  0  0  0  0  0  0  0  0  0
   -4.2285   19.6476  -30.9310 H   0  0  0  0  0  0  0  0  0  0  0  0
   -3.5331   18.4137  -32.9863 H   0  0  0  0  0  0  0  0  0  0  0  0
   -1.8108   19.3893  -34.5086 H   0  0  0  0  0  0  0  0  0  0  0  0
   -0.7821   21.5999  -33.9771 H   0  0  0  0  0  0  0  0  0  0  0  0
   -1.4674   22.8382  -31.9228 H   0  0  0  0  0  0  0  0  0  0  0  0
   -4.6760   24.0720  -32.1850 H   0  0  0  0  0  0  0  0  0  0  0  0
   -8.5511   21.1518  -30.5735 H   0  0  0  0  0  0  0  0  0  0  0  0
   -9.1723   18.8020  -31.1402 H   0  0  0  0  0  0  0  0  0  0  0  0
   -7.9223   17.5716  -32.9185 H   0  0  0  0  0  0  0  0  0  0  0  0
   -5.4203   21.0424  -33.5649 H   0  0  0  0  0  0  0  0  0  0  0  0
  1  2  2  0
  2  3  1  0
  2  4  1  0
  4  5  1  0
  5  6  1  0
  6  7  2  0
  7  8  1  0
  8  9  2  0
  9 10  1  0
 10 11  2  0
  4 12  1  0
 12 13  1  0
 13 14  2  0
 13 15  2  0
 13 16  1  0
 16 17  2  0
 17 18  1  0
 18 19  2  0
 19 20  1  0
 20 21  1  0
 20 22  2  0
 11  6  1  0
 22 16  1  0
  4 23  1  1
  5 24  1  0
  5 25  1  0
  7 26  1  0
  8 27  1  0
  9 28  1  0
 10 29  1  0
 11 30  1  0
 12 31  1  0
 17 32  1  0
 18 33  1  0
 19 34  1  0
 22 35  1  0
M  CHG  1   3  -1
M  END
>  <UniqueID>  (44) 
44

>  <SMILES>  (44) 
O=C([O-])[C@H](Cc1ccccc1)NS(=O)(=O)c1cccc(Cl)c1

>  <Energy>  (44) 
33.71255442766364

>  <Genealogy>  (44) 
O=C([O-])C(Cc1ccccc1)NS(=O)(=O)c1cccc(Cl)c1 (protonated)
O=C([O-])[C@H](Cc1ccccc1)NS(=O)(=O)c1cccc(Cl)c1 (chirality)
O=C([O-])[C@H](Cc1ccccc1)NS(=O)(=O)c1cccc(Cl)c1 (3D coordinates assigned)
O=C([O-])[C@H](Cc1ccccc1)NS(=O)(=O)c1cccc(Cl)c1 (optimized conformer: 33.71255442766364 kcal/mol)

>  <smiles>  (44) 
O=C(O)C(Cc1ccccc1)NS(=O)(=O)c1cccc(Cl)c1

>  <score_type>  (44) 
oracle

>  <origin>  (44) 
adgpu

>  <m_score__min__energy>  (44) 
-10.52

>  <m_primary>  (44) 
energy

$$$$
44:0
     RDKit          3D

 55 58  0  0  0  0  0  0  0  0999 V2000
   -6.0980   25.6810  -29.7390 C   0  0  0  0  0  0  0  0  0  0  0  0
   -6.1640   24.4010  -30.5200 C   0  0  0  0  0  0  0  0  0  0  0  0
   -7.4040   23.8560  -30.8780 C   0  0  0  0  0  0  0  0  0  0  0  0
   -7.4730   22.6460  -31.5820 C   0  0  0  0  0  0  0  0  0  0  0  0
   -8.8040   22.0560  -31.9430 C   0  0  0  0  0  0  0  0  0  0  0  0
   -6.2900   21.9550  -31.8870 C   0  0  0  0  0  0  0  0  0  0  0  0
   -5.0390   22.4800  -31.5180 C   0  0  0  0  0  0  0  0  0  0  0  0
   -3.7940   21.7480  -31.8430 C   0  0  0  0  0  0  0  0  0  0  0  0
   -2.6260   21.9460  -31.1740 N   0  0  0  0  0  0  0  0  0  0  0  0
   -1.7880   21.0950  -31.7840 C   0  0  0  0  0  0  0  0  0  0  0  0
   -0.4430   20.8760  -31.5040 C   0  0  0  0  0  0  0  0  0  0  0  0
    0.2460   19.9100  -32.2720 C   0  0  0  0  0  0  0  0  0  0  0  0
    1.6750   19.6320  -31.9970 C   0  0  0  0  0  0  0  0  0  0  0  0
    2.5040   19.6770  -32.9440 O   0  0  0  0  0  0  0  0  0  0  0  0
    2.1430   19.2710  -30.6910 N   0  0  0  0  0  0  0  0  0  0  0  0
    1.3400   18.7680  -29.6110 C   0  0  0  0  0  0  0  0  0  0  0  0
    1.6340   17.5070  -29.0790 C   0  0  0  0  0  0  0  0  0  0  0  0
    0.8810   16.9960  -28.0180 C   0  0  0  0  0  0  0  0  0  0  0  0
   -0.1650   17.7460  -27.4750 C   0  0  0  0  0  0  0  0  0  0  0  0
   -0.4610   19.0140  -27.9890 C   0  0  0  0  0  0  0  0  0  0  0  0
   -1.7710   19.9680  -27.2950 S   0  0  0  0  0  0  0  0  0  0  0  0
   -1.3180   20.5210  -25.9710 O   0  0  0  0  0  0  0  0  0  0  0  0
   -2.9650   19.0840  -27.0580 O   0  0  0  0  0  0  0  0  0  0  0  0
   -2.1950   21.2810  -28.3640 N   0  0  0  0  0  0  0  0  0  0  0  0
   -3.4970   21.8450  -27.9830 C   0  0  0  0  0  0  0  0  0  0  0  0
   -1.1530   22.3170  -28.3180 C   0  0  0  0  0  0  0  0  0  0  0  0
    0.3050   19.5310  -29.0430 C   0  0  0  0  0  0  0  0  0  0  0  0
   -0.4400   19.2200  -33.3090 C   0  0  0  0  0  0  0  0  0  0  0  0
   -1.8000   19.4750  -33.5620 C   0  0  0  0  0  0  0  0  0  0  0  0
   -2.4390   20.4230  -32.7720 C   0  0  0  0  0  0  0  0  0  0  0  0
   -3.7180   20.8180  -32.8350 N   0  0  0  0  0  0  0  0  0  0  0  0
   -4.9870   23.7040  -30.8310 C   0  0  0  0  0  0  0  0  0  0  0  0
   -6.1097   25.4548  -28.6626 H   0  0  0  0  0  0  0  0  0  0  0  0
   -5.1710   26.2169  -29.9910 H   0  0  0  0  0  0  0  0  0  0  0  0
   -6.9649   26.3094  -29.9910 H   0  0  0  0  0  0  0  0  0  0  0  0
   -8.3307   24.3818  -30.6044 H   0  0  0  0  0  0  0  0  0  0  0  0
   -9.3575   21.8106  -31.0246 H   0  0  0  0  0  0  0  0  0  0  0  0
   -9.3792   22.7834  -32.5346 H   0  0  0  0  0  0  0  0  0  0  0  0
   -8.6513   21.1413  -32.5346 H   0  0  0  0  0  0  0  0  0  0  0  0
   -6.3421   20.9939  -32.4196 H   0  0  0  0  0  0  0  0  0  0  0  0
    0.0689   21.4378  -30.7088 H   0  0  0  0  0  0  0  0  0  0  0  0
    2.4614   16.9155  -29.4979 H   0  0  0  0  0  0  0  0  0  0  0  0
    1.1126   16.0012  -27.6097 H   0  0  0  0  0  0  0  0  0  0  0  0
   -0.7572   17.3394  -26.6419 H   0  0  0  0  0  0  0  0  0  0  0  0
   -2.2580   20.9080  -29.3400 H   0  0  0  0  0  0  0  0  0  0  0  0
   -3.5752   21.8789  -26.8863 H   0  0  0  0  0  0  0  0  0  0  0  0
   -3.5883   22.8634  -28.3887 H   0  0  0  0  0  0  0  0  0  0  0  0
   -4.3023   21.2151  -28.3887 H   0  0  0  0  0  0  0  0  0  0  0  0
   -0.9161   22.5525  -27.2699 H   0  0  0  0  0  0  0  0  0  0  0  0
   -0.2484   21.9499  -28.8248 H   0  0  0  0  0  0  0  0  0  0  0  0
   -1.5148   23.2238  -28.8248 H   0  0  0  0  0  0  0  0  0  0  0  0
    0.0949   20.5398  -29.4279 H   0  0  0  0  0  0  0  0  0  0  0  0
    0.0981   18.4797  -33.9192 H   0  0  0  0  0  0  0  0  0  0  0  0
   -2.3397   18.9418  -34.3586 H   0  0  0  0  0  0  0  0  0  0  0  0
   -4.0132   24.1204  -30.5337 H   0  0  0  0  0  0  0  0  0  0  0  0
  1  2  1  0
  2  3  2  0
  3  4  1  0
  4  5  1  0
  4  6  2  0
  6  7  1  0
  7  8  1  0
  8  9  2  0
  9 10  1  0
 10 11  2  0
 11 12  1  0
 12 13  1  0
 13 14  2  0
 13 15  1  0
 15 16  1  0
 16 17  2  0
 17 18  1  0
 18 19  2  0
 19 20  1  0
 20 21  1  0
 21 22  2  0
 21 23  2  0
 21 24  1  0
 24 25  1  0
 24 26  1  0
 20 27  2  0
 12 28  2  0
 28 29  1  0
 29 30  2  0
 30 31  1  0
  7 32  2  0
 32  2  1  0
 31  8  1  0
 30 10  1  0
 27 16  1  0
  1 33  1  0
  1 34  1  0
  1 35  1  0
  3 36  1  0
  5 37  1  0
  5 38  1  0
  5 39  1  0
  6 40  1  0
 11 41  1  0
 17 42  1  0
 18 43  1  0
 19 44  1  0
 24 45  1  0
 25 46  1  0
 25 47  1  0
 25 48  1  0
 26 49  1  0
 26 50  1  0
 26 51  1  0
 27 52  1  0
 28 53  1  0
 29 54  1  0
 32 55  1  0
M  CHG  3  15  -1  24   1  31  -1
M  END
>  <UniqueID>  (45) 
45

>  <SMILES>  (45) 
Cc1cc(C)cc(-c2nc3cc(C(=O)[N-]c4cccc(S(=O)(=O)[NH+](C)C)c4)ccc3[n-]2)c1

>  <Energy>  (45) 
96.20793624749433

>  <Genealogy>  (45) 
Cc1cc(C)cc(-c2nc3cc(C(=O)[N-]c4cccc(S(=O)(=O)[NH+](C)C)c4)ccc3[n-]2)c1 (protonated)
Cc1cc(C)cc(-c2nc3cc(C(=O)[N-]c4cccc(S(=O)(=O)[NH+](C)C)c4)ccc3[n-]2)c1 (3D coordinates assigned)
Cc1cc(C)cc(-c2nc3cc(C(=O)[N-]c4cccc(S(=O)(=O)[NH+](C)C)c4)ccc3[n-]2)c1 (optimized conformer: 96.20793624749433 kcal/mol)

>  <smiles>  (45) 
Cc1cc(C)cc(-c2nc3cc(C(=O)Nc4cccc(S(=O)(=O)N(C)C)c4)ccc3[nH]2)c1

>  <score_type>  (45) 
oracle

>  <origin>  (45) 
adgpu

>  <m_score__min__energy>  (45) 
-11.35

>  <m_primary>  (45) 
energy

$$$$
45:0
     RDKit          3D

 55 58  0  0  0  0  0  0  0  0999 V2000
   -9.1370   21.1450  -31.5250 C   0  0  0  0  0  0  0  0  0  0  0  0
   -8.1820   20.1360  -31.2150 O   0  0  0  0  0  0  0  0  0  0  0  0
   -7.3370   19.5230  -32.1550 C   0  0  0  0  0  0  0  0  0  0  0  0
   -7.5900   18.2290  -32.6520 C   0  0  0  0  0  0  0  0  0  0  0  0
   -6.7530   17.6670  -33.6180 C   0  0  0  0  0  0  0  0  0  0  0  0
   -5.6610   18.3870  -34.1030 C   0  0  0  0  0  0  0  0  0  0  0  0
   -5.3950   19.6670  -33.6150 C   0  0  0  0  0  0  0  0  0  0  0  0
   -6.2150   20.2340  -32.6270 C   0  0  0  0  0  0  0  0  0  0  0  0
   -5.9230   21.5530  -32.1430 N   0  0  0  0  0  0  0  0  0  0  0  0
   -6.5460   22.6410  -32.5690 N   0  0  0  0  0  0  0  0  0  0  0  0
   -6.0750   23.7170  -31.9540 N   0  0  0  0  0  0  0  0  0  0  0  0
   -5.1080   23.3030  -31.1100 C   0  0  0  0  0  0  0  0  0  0  0  0
   -4.3420   24.2060  -30.2300 C   0  0  0  0  0  0  0  0  0  0  0  0
   -3.8760   25.2830  -30.6890 O   0  0  0  0  0  0  0  0  0  0  0  0
   -4.1560   23.8700  -28.8450 N   0  0  0  0  0  0  0  0  0  0  0  0
   -3.2270   24.5400  -27.9750 C   0  0  0  0  0  0  0  0  0  0  0  0
   -3.6420   24.9240  -26.6910 C   0  0  0  0  0  0  0  0  0  0  0  0
   -2.7540   25.5600  -25.8200 C   0  0  0  0  0  0  0  0  0  0  0  0
   -1.4340   25.8120  -26.2150 C   0  0  0  0  0  0  0  0  0  0  0  0
   -0.3170   26.6340  -25.1220 S   0  0  0  0  0  0  0  0  0  0  0  0
   -0.9880   26.8400  -23.7920 O   0  0  0  0  0  0  0  0  0  0  0  0
    0.8930   25.7680  -24.9060 O   0  0  0  0  0  0  0  0  0  0  0  0
    0.1840   28.1840  -25.7600 N   0  0  0  0  0  0  0  0  0  0  0  0
   -0.0060   29.2680  -24.7720 C   0  0  0  0  0  0  0  0  0  0  0  0
   -1.2210   30.1520  -25.1110 C   0  0  0  0  0  0  0  0  0  0  0  0
   -1.1350   30.7570  -26.3930 O   0  0  0  0  0  0  0  0  0  0  0  0
   -0.4690   29.9560  -27.3630 C   0  0  0  0  0  0  0  0  0  0  0  0
   -0.4820   28.4510  -27.0490 C   0  0  0  0  0  0  0  0  0  0  0  0
   -1.0060   25.4000  -27.4850 C   0  0  0  0  0  0  0  0  0  0  0  0
   -1.8940   24.7650  -28.3580 C   0  0  0  0  0  0  0  0  0  0  0  0
   -4.9970   21.9270  -31.2340 C   0  0  0  0  0  0  0  0  0  0  0  0
   -4.0080   21.0250  -30.5550 C   0  0  0  0  0  0  0  0  0  0  0  0
   -9.5383   21.5689  -30.5927 H   0  0  0  0  0  0  0  0  0  0  0  0
   -8.6531   21.9403  -32.1110 H   0  0  0  0  0  0  0  0  0  0  0  0
   -9.9577   20.7055  -32.1110 H   0  0  0  0  0  0  0  0  0  0  0  0
   -8.4521   17.6581  -32.2767 H   0  0  0  0  0  0  0  0  0  0  0  0
   -6.9551   16.6545  -33.9974 H   0  0  0  0  0  0  0  0  0  0  0  0
   -5.0089   17.9453  -34.8709 H   0  0  0  0  0  0  0  0  0  0  0  0
   -4.5381   20.2347  -34.0067 H   0  0  0  0  0  0  0  0  0  0  0  0
   -4.7950   23.1590  -28.4230 H   0  0  0  0  0  0  0  0  0  0  0  0
   -4.6740   24.7228  -26.3678 H   0  0  0  0  0  0  0  0  0  0  0  0
   -3.0932   25.8644  -24.8189 H   0  0  0  0  0  0  0  0  0  0  0  0
   -0.1586   28.8204  -23.7788 H   0  0  0  0  0  0  0  0  0  0  0  0
    0.8916   29.9037  -24.7886 H   0  0  0  0  0  0  0  0  0  0  0  0
   -2.1264   29.5281  -25.0793 H   0  0  0  0  0  0  0  0  0  0  0  0
   -1.2508   30.9635  -24.3690 H   0  0  0  0  0  0  0  0  0  0  0  0
   -0.9602   30.1105  -28.3350 H   0  0  0  0  0  0  0  0  0  0  0  0
    0.5850   30.2708  -27.3653 H   0  0  0  0  0  0  0  0  0  0  0  0
   -1.5237   28.1015  -26.9970 H   0  0  0  0  0  0  0  0  0  0  0  0
    0.0588   27.9179  -27.8448 H   0  0  0  0  0  0  0  0  0  0  0  0
    0.0341   25.5774  -27.7960 H   0  0  0  0  0  0  0  0  0  0  0  0
   -1.5474   24.4397  -29.3500 H   0  0  0  0  0  0  0  0  0  0  0  0
   -4.1130   21.1208  -29.4642 H   0  0  0  0  0  0  0  0  0  0  0  0
   -4.1983   19.9830  -30.8516 H   0  0  0  0  0  0  0  0  0  0  0  0
   -2.9878   21.3102  -30.8516 H   0  0  0  0  0  0  0  0  0  0  0  0
  1  2  1  0
  2  3  1  0
  3  4  2  0
  4  5  1  0
  5  6  2  0
  6  7  1  0
  7  8  2  0
  8  9  1  0
  9 10  1  0
 10 11  2  0
 11 12  1  0
 12 13  1  0
 13 14  2  0
 13 15  1  0
 15 16  1  0
 16 17  2  0
 17 18  1  0
 18 19  2  0
 19 20  1  0
 20 21  2  0
 20 22  2  0
 20 23  1  0
 23 24  1  0
 24 25  1  0
 25 26  1  0
 26 27  1  0
 27 28  1  0
 19 29  1  0
 29 30  2  0
 12 31  2  0
 31 32  1  0
  8  3  1  0
 31  9  1  0
 30 16  1  0
 28 23  1  0
  1 33  1  0
  1 34  1  0
  1 35  1  0
  4 36  1  0
  5 37  1  0
  6 38  1  0
  7 39  1  0
 15 40  1  0
 17 41  1  0
 18 42  1  0
 24 43  1  0
 24 44  1  0
 25 45  1  0
 25 46  1  0
 27 47  1  0
 27 48  1  0
 28 49  1  0
 28 50  1  0
 29 51  1  0
 30 52  1  0
 32 53  1  0
 32 54  1  0
 32 55  1  0
M  END
>  <UniqueID>  (46) 
46

>  <SMILES>  (46) 
COc1ccccc1-n1nnc(C(=O)Nc2ccc(S(=O)(=O)N3CCOCC3)cc2)c1C

>  <Energy>  (46) 
114.05482617506199

>  <Genealogy>  (46) 
COc1ccccc1-n1nnc(C(=O)Nc2ccc(S(=O)(=O)N3CCOCC3)cc2)c1C (3D coordinates assigned)
COc1ccccc1-n1nnc(C(=O)Nc2ccc(S(=O)(=O)N3CCOCC3)cc2)c1C (nonaromatic ring conformer: 114.05482617506199 kcal/mol)

>  <smiles>  (46) 
COc1ccccc1-n1nnc(C(=O)Nc2ccc(S(=O)(=O)N3CCOCC3)cc2)c1C

>  <score_type>  (46) 
oracle

>  <origin>  (46) 
adgpu

>  <m_score__min__energy>  (46) 
-9.6999999999999993

>  <m_primary>  (46) 
energy

$$$$
46:0
     RDKit          3D

 60 63  0  0  1  0  0  0  0  0999 V2000
   -4.1380   16.0740  -34.9190 C   0  0  0  0  0  0  0  0  0  0  0  0
   -5.1910   16.8880  -34.2350 C   0  0  0  0  0  0  0  0  0  0  0  0
   -5.9510   16.3560  -33.2120 C   0  0  0  0  0  0  0  0  0  0  0  0
   -6.9000   17.1700  -32.6310 C   0  0  0  0  0  0  0  0  0  0  0  0
   -7.1210   18.4760  -33.0250 C   0  0  0  0  0  0  0  0  0  0  0  0
   -8.3580   19.3690  -32.1890 S   0  0  0  0  0  0  0  0  0  0  0  0
   -9.3370   20.0300  -33.0850 O   0  0  0  0  0  0  0  0  0  0  0  0
   -9.1290   18.4820  -31.2290 O   0  0  0  0  0  0  0  0  0  0  0  0
   -7.6210   20.5990  -31.2020 N   0  0  0  0  0  0  0  0  0  0  0  0
   -6.8830   21.6340  -31.8380 C   0  0  0  0  0  0  0  0  0  0  0  0
   -6.7900   21.6240  -33.0910 O   0  0  0  0  0  0  0  0  0  0  0  0
   -6.2260   22.7120  -31.1080 C   0  0  0  0  0  0  0  0  0  0  0  0
   -6.9770   23.8320  -30.8170 C   0  0  0  0  0  0  0  0  0  0  0  0
   -6.4590   24.9190  -30.1280 C   0  0  0  0  0  0  0  0  0  0  0  0
   -5.1380   24.8320  -29.7360 C   0  0  0  0  0  0  0  0  0  0  0  0
   -4.3700   23.7180  -30.0200 C   0  0  0  0  0  0  0  0  0  0  0  0
   -2.9870   23.7400  -29.5570 C   0  0  0  0  0  0  0  0  0  0  0  0
   -2.2230   22.5920  -29.6900 C   0  0  0  0  0  0  0  0  0  0  0  0
   -0.8940   22.5430  -29.2690 C   0  0  0  0  0  0  0  0  0  0  0  0
   -0.3580   23.6860  -28.7100 C   0  0  0  0  0  0  0  0  0  0  0  0
   -1.1230   24.8420  -28.5750 C   0  0  0  0  0  0  0  0  0  0  0  0
   -0.4620   25.9560  -27.9840 N   0  0  0  0  0  0  0  0  0  0  0  0
   -0.7170   26.4020  -26.8020 C   0  0  0  0  0  0  0  0  0  0  0  0
   -0.0500   27.4970  -26.2560 C   0  0  0  0  0  0  0  0  0  0  0  0
   -0.3690   27.9250  -24.9840 C   0  0  0  0  0  0  0  0  0  0  0  0
    0.3300   29.0420  -24.4610 N   0  0  0  0  0  0  0  0  0  0  0  0
    1.4020   28.7830  -23.5110 C   0  0  0  0  0  0  0  0  0  0  0  0
    0.0570   30.4110  -24.8000 C   0  0  0  0  0  0  0  0  0  0  0  0
   -1.3220   27.2550  -24.3310 N   0  0  0  0  0  0  0  0  0  0  0  0
   -1.9730   26.1950  -24.8490 C   0  0  0  0  0  0  0  0  0  0  0  0
   -1.6760   25.7600  -26.0910 N   0  0  0  0  0  0  0  0  0  0  0  0
   -2.4370   24.8780  -28.9940 C   0  0  0  0  0  0  0  0  0  0  0  0
   -4.9140   22.6590  -30.7050 C   0  0  0  0  0  0  0  0  0  0  0  0
   -6.3600   19.0060  -34.0470 C   0  0  0  0  0  0  0  0  0  0  0  0
   -5.4070   18.1930  -34.6310 C   0  0  0  0  0  0  0  0  0  0  0  0
   -3.5049   15.5846  -34.1642 H   0  0  0  0  0  0  0  0  0  0  0  0
   -4.6168   15.3089  -35.5478 H   0  0  0  0  0  0  0  0  0  0  0  0
   -3.5182   16.7301  -35.5478 H   0  0  0  0  0  0  0  0  0  0  0  0
   -5.8044   15.3199  -32.8729 H   0  0  0  0  0  0  0  0  0  0  0  0
   -7.5113   16.7597  -31.8137 H   0  0  0  0  0  0  0  0  0  0  0  0
   -7.7120   20.5860  -30.1640 H   0  0  0  0  0  0  0  0  0  0  0  0
   -8.0268   23.8644  -31.1438 H   0  0  0  0  0  0  0  0  0  0  0  0
   -7.0702   25.8060  -29.9051 H   0  0  0  0  0  0  0  0  0  0  0  0
   -4.6856   25.6693  -29.1844 H   0  0  0  0  0  0  0  0  0  0  0  0
   -2.6761   21.6959  -30.1392 H   0  0  0  0  0  0  0  0  0  0  0  0
   -0.2948   21.6270  -29.3784 H   0  0  0  0  0  0  0  0  0  0  0  0
    0.6871   23.6836  -28.3667 H   0  0  0  0  0  0  0  0  0  0  0  0
    0.7265   28.0171  -26.8361 H   0  0  0  0  0  0  0  0  0  0  0  0
    1.0141   28.8767  -22.4859 H   0  0  0  0  0  0  0  0  0  0  0  0
    1.7901   27.7653  -23.6646 H   0  0  0  0  0  0  0  0  0  0  0  0
    2.2119   29.5113  -23.6646 H   0  0  0  0  0  0  0  0  0  0  0  0
   -0.0605   31.0004  -23.8787 H   0  0  0  0  0  0  0  0  0  0  0  0
    0.8921   30.8161  -25.3904 H   0  0  0  0  0  0  0  0  0  0  0  0
   -0.8696   30.4648  -25.3904 H   0  0  0  0  0  0  0  0  0  0  0  0
   -1.5850   27.5470  -23.3800 H   0  0  0  0  0  0  0  0  0  0  0  0
   -2.7475   25.6838  -24.2585 H   0  0  0  0  0  0  0  0  0  0  0  0
   -3.0360   25.7939  -28.8826 H   0  0  0  0  0  0  0  0  0  0  0  0
   -4.3021   21.7730  -30.9297 H   0  0  0  0  0  0  0  0  0  0  0  0
   -6.5072   20.0421  -34.3859 H   0  0  0  0  0  0  0  0  0  0  0  0
   -4.7939   18.6035  -35.4468 H   0  0  0  0  0  0  0  0  0  0  0  0
  1  2  1  0
  2  3  2  0
  3  4  1  0
  4  5  2  0
  5  6  1  0
  6  7  2  0
  6  8  2  0
  6  9  1  0
  9 10  1  0
 10 11  2  0
 10 12  1  0
 12 13  2  0
 13 14  1  0
 14 15  2  0
 15 16  1  0
 16 17  1  0
 17 18  2  0
 18 19  1  0
 19 20  2  0
 20 21  1  0
 21 22  1  0
 22 23  2  0
 23 24  1  0
 24 25  2  0
 25 26  1  0
 26 27  1  0
 26 28  1  0
 25 29  1  0
 29 30  1  0
 30 31  2  0
 21 32  2  0
 16 33  2  0
  5 34  1  0
 34 35  2  0
 35  2  1  0
 33 12  1  0
 32 17  1  0
 31 23  1  0
  1 36  1  0
  1 37  1  0
  1 38  1  0
  3 39  1  0
  4 40  1  0
  9 41  1  0
 13 42  1  0
 14 43  1  0
 15 44  1  0
 18 45  1  0
 19 46  1  0
 20 47  1  0
 24 48  1  0
 27 49  1  0
 27 50  1  0
 27 51  1  0
 28 52  1  0
 28 53  1  0
 28 54  1  0
 29 55  1  0
 30 56  1  0
 32 57  1  0
 33 58  1  0
 34 59  1  0
 35 60  1  0
M  END
>  <smiles>  (47) 
Cc1ccc(S(=O)(=O)NC(=O)c2cccc(-c3cccc(N=c4cc(N(C)C)[nH]cn4)c3)c2)cc1

>  <score_type>  (47) 
oracle

>  <origin>  (47) 
adgpu

>  <m_score__min__energy>  (47) 
-11.050000000000001

>  <m_primary>  (47) 
energy

$$$$
47:0
     RDKit          3D

 64 66  0  0  0  0  0  0  0  0999 V2000
   -1.5061   16.7521  -32.7893 H   0  0  0  0  0  0  0  0  0  0  0  0
   -2.1670   17.5830  -33.0770 C   0  0  0  0  0  0  0  0  0  0  0  0
   -1.6470   18.8190  -33.2920 N   0  0  0  0  0  0  0  0  0  0  0  0
   -2.4250   19.8760  -33.6560 C   0  0  0  0  0  0  0  0  0  0  0  0
   -1.9140   21.0560  -33.8540 N   0  0  0  0  0  0  0  0  0  0  0  0
   -0.5310   21.4310  -33.7340 C   0  0  0  0  0  0  0  0  0  0  0  0
    0.0900   21.9590  -34.6950 O   0  0  0  0  0  0  0  0  0  0  0  0
    0.1940   21.1520  -32.4500 C   0  0  0  0  0  0  0  0  0  0  0  0
    0.9101   20.3339  -32.6170 H   0  0  0  0  0  0  0  0  0  0  0  0
    0.7085   22.0744  -32.1428 H   0  0  0  0  0  0  0  0  0  0  0  0
   -0.7250   20.7650  -31.3730 N   0  0  0  0  0  0  0  0  0  0  0  0
   -1.6110   20.3920  -31.7880 H   0  0  0  0  0  0  0  0  0  0  0  0
   -0.1430   19.7340  -30.5110 C   0  0  0  0  0  0  0  0  0  0  0  0
   -0.2974   20.0075  -29.4568 H   0  0  0  0  0  0  0  0  0  0  0  0
   -0.6294   18.7686  -30.7144 H   0  0  0  0  0  0  0  0  0  0  0  0
    0.9349   19.6516  -30.7144 H   0  0  0  0  0  0  0  0  0  0  0  0
   -3.8050   19.6930  -33.8140 C   0  0  0  0  0  0  0  0  0  0  0  0
   -4.4415   20.5390  -34.1125 H   0  0  0  0  0  0  0  0  0  0  0  0
   -4.3760   18.4280  -33.5910 C   0  0  0  0  0  0  0  0  0  0  0  0
   -5.8000   18.2170  -33.7160 N   0  0  0  0  0  0  0  0  0  0  0  0
   -6.7150   19.0980  -33.0290 C   0  0  0  0  0  0  0  0  0  0  0  0
   -7.9620   18.6250  -32.6040 C   0  0  0  0  0  0  0  0  0  0  0  0
   -8.2448   17.5798  -32.7981 H   0  0  0  0  0  0  0  0  0  0  0  0
   -8.8500   19.4710  -31.9350 C   0  0  0  0  0  0  0  0  0  0  0  0
   -9.8290   19.0869  -31.6123 H   0  0  0  0  0  0  0  0  0  0  0  0
   -8.5060   20.8070  -31.6700 C   0  0  0  0  0  0  0  0  0  0  0  0
   -9.4870   21.6730  -30.9210 C   0  0  0  0  0  0  0  0  0  0  0  0
   -9.3393   21.5426  -29.8388 H   0  0  0  0  0  0  0  0  0  0  0  0
   -9.3243   22.7274  -31.1889 H   0  0  0  0  0  0  0  0  0  0  0  0
  -10.5131   21.3808  -31.1889 H   0  0  0  0  0  0  0  0  0  0  0  0
   -7.2510   21.2980  -32.1060 C   0  0  0  0  0  0  0  0  0  0  0  0
   -6.8260   22.7010  -31.9010 C   0  0  0  0  0  0  0  0  0  0  0  0
   -7.3220   23.6300  -32.5970 O   0  0  0  0  0  0  0  0  0  0  0  0
   -5.8140   22.9950  -30.9310 N   0  0  0  0  0  0  0  0  0  0  0  0
   -4.4880   22.3910  -30.9340 C   0  0  0  0  0  0  0  0  0  0  0  0
   -4.5582   21.3543  -30.5731 H   0  0  0  0  0  0  0  0  0  0  0  0
   -4.0869   22.4007  -31.9582 H   0  0  0  0  0  0  0  0  0  0  0  0
   -3.5630   23.1780  -30.0270 C   0  0  0  0  0  0  0  0  0  0  0  0
   -2.7090   22.5210  -29.1050 C   0  0  0  0  0  0  0  0  0  0  0  0
   -2.7240   21.0240  -28.9360 C   0  0  0  0  0  0  0  0  0  0  0  0
   -2.7265   20.7760  -27.8643 H   0  0  0  0  0  0  0  0  0  0  0  0
   -3.6263   20.6105  -29.4101 H   0  0  0  0  0  0  0  0  0  0  0  0
   -1.8301   20.5925  -29.4101 H   0  0  0  0  0  0  0  0  0  0  0  0
   -1.8370   23.2840  -28.3140 C   0  0  0  0  0  0  0  0  0  0  0  0
   -1.1731   22.7867  -27.5916 H   0  0  0  0  0  0  0  0  0  0  0  0
   -1.8110   24.6750  -28.4430 C   0  0  0  0  0  0  0  0  0  0  0  0
   -0.8670   25.4930  -27.6230 C   0  0  0  0  0  0  0  0  0  0  0  0
   -1.0655   25.3210  -26.5548 H   0  0  0  0  0  0  0  0  0  0  0  0
    0.1679   25.2013  -27.8553 H   0  0  0  0  0  0  0  0  0  0  0  0
   -1.0085   26.5589  -27.8553 H   0  0  0  0  0  0  0  0  0  0  0  0
   -2.6280   25.2820  -29.3430 N   0  0  0  0  0  0  0  0  0  0  0  0
   -3.4910   24.5850  -30.1250 C   0  0  0  0  0  0  0  0  0  0  0  0
   -4.2210   25.2130  -30.9370 O   0  0  0  0  0  0  0  0  0  0  0  0
   -6.3670   20.4320  -32.7720 C   0  0  0  0  0  0  0  0  0  0  0  0
   -5.3853   20.8069  -33.0973 H   0  0  0  0  0  0  0  0  0  0  0  0
   -6.3270   17.1670  -34.6040 C   0  0  0  0  0  0  0  0  0  0  0  0
   -5.6308   17.0228  -35.4434 H   0  0  0  0  0  0  0  0  0  0  0  0
   -7.3144   17.4823  -34.9724 H   0  0  0  0  0  0  0  0  0  0  0  0
   -6.4860   15.8470  -33.8550 C   0  0  0  0  0  0  0  0  0  0  0  0
   -6.4633   16.0352  -32.7715 H   0  0  0  0  0  0  0  0  0  0  0  0
   -7.4463   15.3846  -34.1268 H   0  0  0  0  0  0  0  0  0  0  0  0
   -5.6629   15.1697  -34.1268 H   0  0  0  0  0  0  0  0  0  0  0  0
   -3.5360   17.3650  -33.2200 C   0  0  0  0  0  0  0  0  0  0  0  0
   -3.9572   16.3644  -33.0430 H   0  0  0  0  0  0  0  0  0  0  0  0
  1  2  1  0
  2  3  1  0
  3  4  1  0
  4  5  2  0
  5  6  1  0
  6  7  2  0
  6  8  1  0
  8  9  1  0
  8 10  1  0
  8 11  1  0
 11 12  1  0
 11 13  1  0
 13 14  1  0
 13 15  1  0
 13 16  1  0
  4 17  1  0
 17 18  1  0
 17 19  2  0
 19 20  1  0
 20 21  1  0
 21 22  2  0
 22 23  1  0
 22 24  1  0
 24 25  1  0
 24 26  2  0
 26 27  1  0
 27 28  1  0
 27 29  1  0
 27 30  1  0
 26 31  1  0
 31 32  1  0
 32 33  2  0
 32 34  1  0
 34 35  1  0
 35 36  1  0
 35 37  1  0
 35 38  1  0
 38 39  2  0
 39 40  1  0
 40 41  1  0
 40 42  1  0
 40 43  1  0
 39 44  1  0
 44 45  1  0
 44 46  2  0
 46 47  1  0
 47 48  1  0
 47 49  1  0
 47 50  1  0
 46 51  1  0
 51 52  1  0
 52 53  2  0
 31 54  2  0
 54 55  1  0
 20 56  1  0
 56 57  1  0
 56 58  1  0
 56 59  1  0
 59 60  1  0
 59 61  1  0
 59 62  1  0
 19 63  1  0
 63 64  1  0
 63  2  2  0
 54 21  1  0
 52 38  1  0
M  CHG  3   3  -1  34  -1  51  -1
M  END
>  <UniqueID>  (48) 
47

>  <SMILES>  (48) 
CCN(c1ccc(C)c(C(=O)[N-]Cc2c(C)cc(C)[n-]c2=O)c1)c1cc[n-]/c(=N\C(=O)CNC)c1

>  <Energy>  (48) 
76.80736067230382

>  <Genealogy>  (48) 
CCN(c1ccc(C)c(C(=O)[N-]Cc2c(C)cc(C)[n-]c2=O)c1)c1cc[n-]c(=NC(=O)CNC)c1 (protonated)
CCN(c1ccc(C)c(C(=O)[N-]Cc2c(C)cc(C)[n-]c2=O)c1)c1cc[n-]/c(=N\C(=O)CNC)c1 (cis-trans isomerization)
CCN(c1ccc(C)c(C(=O)[N-]Cc2c(C)cc(C)[n-]c2=O)c1)c1cc[n-]/c(=N\C(=O)CNC)c1 (3D coordinates assigned)
CCN(c1ccc(C)c(C(=O)[N-]Cc2c(C)cc(C)[n-]c2=O)c1)c1cc[n-]/c(=N\C(=O)CNC)c1 (optimized conformer: 76.80736067230382 kcal/mol)

>  <smiles>  (48) 
CCN(c1ccc(C)c(C(=O)NCc2c(C)cc(C)[nH]c2=O)c1)c1cc[nH]c(=NC(=O)CNC)c1

>  <score_type>  (48) 
oracle

>  <origin>  (48) 
adgpu

>  <m_score__min__energy>  (48) 
-12.609999999999999

>  <m_primary>  (48) 
energy

$$$$
48:0
     RDKit          3D

 46 48  0  0  0  0  0  0  0  0999 V2000
   -6.9040   15.2250  -34.2260 C   0  0  0  0  0  0  0  0  0  0  0  0
   -5.6450   16.0370  -34.1910 C   0  0  0  0  0  0  0  0  0  0  0  0
   -4.5370   15.7180  -34.8860 N   0  0  0  0  0  0  0  0  0  0  0  0
   -3.6510   16.6860  -34.6880 N   0  0  0  0  0  0  0  0  0  0  0  0
   -2.3330   16.6910  -35.3060 C   0  0  0  0  0  0  0  0  0  0  0  0
   -4.1630   17.6210  -33.8560 C   0  0  0  0  0  0  0  0  0  0  0  0
   -3.4710   18.8970  -33.4820 C   0  0  0  0  0  0  0  0  0  0  0  0
   -5.4550   17.2370  -33.5250 C   0  0  0  0  0  0  0  0  0  0  0  0
   -6.6840   18.0960  -32.5900 S   0  0  0  0  0  0  0  0  0  0  0  0
   -7.9910   17.3730  -32.7370 O   0  0  0  0  0  0  0  0  0  0  0  0
   -6.3380   18.1670  -31.1290 O   0  0  0  0  0  0  0  0  0  0  0  0
   -6.8500   19.6990  -33.2290 N   0  0  0  0  0  0  0  0  0  0  0  0
   -6.4610   20.8830  -32.5220 C   0  0  0  0  0  0  0  0  0  0  0  0
   -7.3900   21.9180  -32.3630 C   0  0  0  0  0  0  0  0  0  0  0  0
   -7.0170   23.1090  -31.7260 C   0  0  0  0  0  0  0  0  0  0  0  0
   -5.7240   23.2660  -31.2220 C   0  0  0  0  0  0  0  0  0  0  0  0
   -5.2490   24.7900  -30.4750 S   0  0  0  0  0  0  0  0  0  0  0  0
   -5.7890   25.9500  -31.2640 O   0  0  0  0  0  0  0  0  0  0  0  0
   -5.8150   24.8350  -29.0830 O   0  0  0  0  0  0  0  0  0  0  0  0
   -3.5210   24.9220  -30.3770 N   0  0  0  0  0  0  0  0  0  0  0  0
   -2.6750   24.4590  -29.3080 C   0  0  0  0  0  0  0  0  0  0  0  0
   -3.0000   23.2310  -28.7130 C   0  0  0  0  0  0  0  0  0  0  0  0
   -2.1970   22.6940  -27.7020 C   0  0  0  0  0  0  0  0  0  0  0  0
   -1.0630   23.3800  -27.2690 C   0  0  0  0  0  0  0  0  0  0  0  0
   -0.7430   24.6180  -27.8300 C   0  0  0  0  0  0  0  0  0  0  0  0
   -1.5480   25.1660  -28.8370 C   0  0  0  0  0  0  0  0  0  0  0  0
   -1.2210   26.4190  -29.3340 O   0  0  0  0  0  0  0  0  0  0  0  0
   -4.8070   22.2090  -31.3310 C   0  0  0  0  0  0  0  0  0  0  0  0
   -5.1700   21.0300  -31.9850 C   0  0  0  0  0  0  0  0  0  0  0  0
   -7.2324   15.0132  -33.1978 H   0  0  0  0  0  0  0  0  0  0  0  0
   -7.6887   15.7877  -34.7530 H   0  0  0  0  0  0  0  0  0  0  0  0
   -6.7151   14.2781  -34.7530 H   0  0  0  0  0  0  0  0  0  0  0  0
   -1.5607   16.6939  -34.5227 H   0  0  0  0  0  0  0  0  0  0  0  0
   -2.2178   15.7933  -35.9312 H   0  0  0  0  0  0  0  0  0  0  0  0
   -2.2246   17.5896  -35.9312 H   0  0  0  0  0  0  0  0  0  0  0  0
   -3.4251   18.9817  -32.3862 H   0  0  0  0  0  0  0  0  0  0  0  0
   -2.4505   18.8947  -33.8927 H   0  0  0  0  0  0  0  0  0  0  0  0
   -4.0296   19.7510  -33.8927 H   0  0  0  0  0  0  0  0  0  0  0  0
   -8.4164   21.7959  -32.7394 H   0  0  0  0  0  0  0  0  0  0  0  0
   -7.7470   23.9253  -31.6223 H   0  0  0  0  0  0  0  0  0  0  0  0
   -3.8954   22.6851  -29.0450 H   0  0  0  0  0  0  0  0  0  0  0  0
   -2.4607   21.7278  -27.2471 H   0  0  0  0  0  0  0  0  0  0  0  0
   -0.4218   22.9469  -26.4871 H   0  0  0  0  0  0  0  0  0  0  0  0
    0.1447   25.1651  -27.4798 H   0  0  0  0  0  0  0  0  0  0  0  0
   -3.7999   22.3097  -30.9001 H   0  0  0  0  0  0  0  0  0  0  0  0
   -4.4416   20.2113  -32.0807 H   0  0  0  0  0  0  0  0  0  0  0  0
  1  2  1  0
  2  3  2  0
  3  4  1  0
  4  5  1  0
  4  6  1  0
  6  7  1  0
  6  8  2  0
  8  9  1  0
  9 10  2  0
  9 11  2  0
  9 12  1  0
 12 13  1  0
 13 14  2  0
 14 15  1  0
 15 16  2  0
 16 17  1  0
 17 18  2  0
 17 19  2  0
 17 20  1  0
 20 21  1  0
 21 22  2  0
 22 23  1  0
 23 24  2  0
 24 25  1  0
 25 26  2  0
 26 27  1  0
 16 28  1  0
 28 29  2  0
  8  2  1  0
 29 13  1  0
 26 21  1  0
  1 30  1  0
  1 31  1  0
  1 32  1  0
  5 33  1  0
  5 34  1  0
  5 35  1  0
  7 36  1  0
  7 37  1  0
  7 38  1  0
 14 39  1  0
 15 40  1  0
 22 41  1  0
 23 42  1  0
 24 43  1  0
 25 44  1  0
 28 45  1  0
 29 46  1  0
M  CHG  3  12  -1  20  -1  27  -1
M  END
>  <UniqueID>  (49) 
48

>  <SMILES>  (49) 
Cc1nn(C)c(C)c1S(=O)(=O)[N-]c1ccc(S(=O)(=O)[N-]c2ccccc2[O-])cc1

>  <Energy>  (49) 
85.98297883347236

>  <Genealogy>  (49) 
Cc1nn(C)c(C)c1S(=O)(=O)[N-]c1ccc(S(=O)(=O)[N-]c2ccccc2[O-])cc1 (protonated)
Cc1nn(C)c(C)c1S(=O)(=O)[N-]c1ccc(S(=O)(=O)[N-]c2ccccc2[O-])cc1 (3D coordinates assigned)
Cc1nn(C)c(C)c1S(=O)(=O)[N-]c1ccc(S(=O)(=O)[N-]c2ccccc2[O-])cc1 (optimized conformer: 85.98297883347236 kcal/mol)

>  <smiles>  (49) 
Cc1nn(C)c(C)c1S(=O)(=O)Nc1ccc(S(=O)(=O)Nc2ccccc2O)cc1

>  <score_type>  (49) 
oracle

>  <origin>  (49) 
adgpu

>  <m_score__min__energy>  (49) 
-13.76

>  <m_primary>  (49) 
energy

$$$$
49:0
     RDKit          3D

 61 64  0  0  0  0  0  0  0  0999 V2000
   -3.9300   25.6740  -30.1410 O   0  0  0  0  0  0  0  0  0  0  0  0
   -3.5060   24.4940  -30.2450 C   0  0  0  0  0  0  0  0  0  0  0  0
   -3.9620   23.6900  -31.3400 N   0  0  0  0  0  0  0  0  0  0  0  0
   -5.3030   23.2160  -31.5340 C   0  0  0  0  0  0  0  0  0  0  0  0
   -6.4200   24.0110  -31.2210 C   0  0  0  0  0  0  0  0  0  0  0  0
   -7.7110   23.5220  -31.4280 C   0  0  0  0  0  0  0  0  0  0  0  0
   -7.9000   22.2440  -31.9610 C   0  0  0  0  0  0  0  0  0  0  0  0
   -6.7940   21.4530  -32.3000 C   0  0  0  0  0  0  0  0  0  0  0  0
   -7.0100   19.8300  -32.9490 S   0  0  0  0  0  0  0  0  0  0  0  0
   -6.7990   19.8790  -34.4370 O   0  0  0  0  0  0  0  0  0  0  0  0
   -8.4080   19.3500  -32.6760 O   0  0  0  0  0  0  0  0  0  0  0  0
   -5.8410   18.7620  -32.2040 N   0  0  0  0  0  0  0  0  0  0  0  0
   -6.3940   17.4010  -31.9830 C   0  0  0  0  0  0  0  0  0  0  0  0
   -5.6620   16.2920  -32.7610 C   0  0  0  0  0  0  0  0  0  0  0  0
   -5.3820   16.7390  -34.1940 C   0  0  0  0  0  0  0  0  0  0  0  0
   -4.5590   18.0390  -34.2430 C   0  0  0  0  0  0  0  0  0  0  0  0
   -4.5410   18.7940  -32.9010 C   0  0  0  0  0  0  0  0  0  0  0  0
   -5.4990   21.9470  -32.0920 C   0  0  0  0  0  0  0  0  0  0  0  0
   -2.5200   23.9890  -29.2630 C   0  0  0  0  0  0  0  0  0  0  0  0
   -2.6880   22.7080  -28.7130 C   0  0  0  0  0  0  0  0  0  0  0  0
   -1.7520   22.1940  -27.8060 C   0  0  0  0  0  0  0  0  0  0  0  0
   -1.9450   20.5530  -27.1980 S   0  0  0  0  0  0  0  0  0  0  0  0
   -1.3310   20.4280  -25.8300 O   0  0  0  0  0  0  0  0  0  0  0  0
   -3.4130   20.2440  -27.0990 O   0  0  0  0  0  0  0  0  0  0  0  0
   -1.1700   19.4390  -28.2990 N   0  0  0  0  0  0  0  0  0  0  0  0
   -1.2580   19.9230  -29.7010 C   0  0  0  0  0  0  0  0  0  0  0  0
    0.0540   20.5420  -30.2070 C   0  0  0  0  0  0  0  0  0  0  0  0
    1.2120   19.5340  -30.1230 C   0  0  0  0  0  0  0  0  0  0  0  0
    1.0580   18.5470  -28.9510 C   0  0  0  0  0  0  0  0  0  0  0  0
    0.2040   19.1480  -27.8310 C   0  0  0  0  0  0  0  0  0  0  0  0
   -0.6490   22.9720  -27.4330 C   0  0  0  0  0  0  0  0  0  0  0  0
   -0.4860   24.2560  -27.9570 C   0  0  0  0  0  0  0  0  0  0  0  0
   -1.4170   24.7710  -28.8650 C   0  0  0  0  0  0  0  0  0  0  0  0
   -1.2460   26.0640  -29.3480 O   0  0  0  0  0  0  0  0  0  0  0  0
   -6.2759   25.0218  -30.8116 H   0  0  0  0  0  0  0  0  0  0  0  0
   -8.5813   24.1438  -31.1711 H   0  0  0  0  0  0  0  0  0  0  0  0
   -8.9186   21.8583  -32.1147 H   0  0  0  0  0  0  0  0  0  0  0  0
   -6.3279   17.1712  -30.9093 H   0  0  0  0  0  0  0  0  0  0  0  0
   -7.4306   17.4158  -32.3508 H   0  0  0  0  0  0  0  0  0  0  0  0
   -4.7093   16.0665  -32.2595 H   0  0  0  0  0  0  0  0  0  0  0  0
   -6.2990   15.3955  -32.7862 H   0  0  0  0  0  0  0  0  0  0  0  0
   -4.8227   15.9451  -34.7106 H   0  0  0  0  0  0  0  0  0  0  0  0
   -6.3477   16.9299  -34.6848 H   0  0  0  0  0  0  0  0  0  0  0  0
   -3.5238   17.7877  -34.5171 H   0  0  0  0  0  0  0  0  0  0  0  0
   -5.0329   18.6993  -34.9843 H   0  0  0  0  0  0  0  0  0  0  0  0
   -3.7829   18.3339  -32.2501 H   0  0  0  0  0  0  0  0  0  0  0  0
   -4.3105   19.8472  -33.1191 H   0  0  0  0  0  0  0  0  0  0  0  0
   -4.6297   21.3328  -32.3694 H   0  0  0  0  0  0  0  0  0  0  0  0
   -3.5618   22.1030  -28.9966 H   0  0  0  0  0  0  0  0  0  0  0  0
   -1.5173   19.0731  -30.3494 H   0  0  0  0  0  0  0  0  0  0  0  0
   -2.0253   20.7107  -29.7291 H   0  0  0  0  0  0  0  0  0  0  0  0
   -0.0761   20.8528  -31.2541 H   0  0  0  0  0  0  0  0  0  0  0  0
    0.2984   21.4074  -29.5735 H   0  0  0  0  0  0  0  0  0  0  0  0
    1.2494   18.9621  -31.0619 H   0  0  0  0  0  0  0  0  0  0  0  0
    2.1375   20.1048  -29.9568 H   0  0  0  0  0  0  0  0  0  0  0  0
    0.5760   17.6282  -29.3164 H   0  0  0  0  0  0  0  0  0  0  0  0
    2.0572   18.3260  -28.5475 H   0  0  0  0  0  0  0  0  0  0  0  0
    0.1543   18.4338  -26.9958 H   0  0  0  0  0  0  0  0  0  0  0  0
    0.6682   20.0919  -27.5090 H   0  0  0  0  0  0  0  0  0  0  0  0
    0.0911   22.5705  -26.7252 H   0  0  0  0  0  0  0  0  0  0  0  0
    0.3784   24.8652  -27.6544 H   0  0  0  0  0  0  0  0  0  0  0  0
  1  2  2  0
  2  3  1  0
  3  4  1  0
  4  5  2  0
  5  6  1  0
  6  7  2  0
  7  8  1  0
  8  9  1  0
  9 10  2  0
  9 11  2  0
  9 12  1  0
 12 13  1  0
 13 14  1  0
 14 15  1  0
 15 16  1  0
 16 17  1  0
  8 18  2  0
  2 19  1  0
 19 20  2  0
 20 21  1  0
 21 22  1  0
 22 23  2  0
 22 24  2  0
 22 25  1  0
 25 26  1  0
 26 27  1  0
 27 28  1  0
 28 29  1  0
 29 30  1  0
 21 31  2  0
 31 32  1  0
 32 33  2  0
 33 34  1  0
 18  4  1  0
 33 19  1  0
 17 12  1  0
 30 25  1  0
  5 35  1  0
  6 36  1  0
  7 37  1  0
 13 38  1  0
 13 39  1  0
 14 40  1  0
 14 41  1  0
 15 42  1  0
 15 43  1  0
 16 44  1  0
 16 45  1  0
 17 46  1  0
 17 47  1  0
 18 48  1  0
 20 49  1  0
 26 50  1  0
 26 51  1  0
 27 52  1  0
 27 53  1  0
 28 54  1  0
 28 55  1  0
 29 56  1  0
 29 57  1  0
 30 58  1  0
 30 59  1  0
 31 60  1  0
 32 61  1  0
M  CHG  2   3  -1  34  -1
M  END
>  <UniqueID>  (50) 
49

>  <SMILES>  (50) 
O=C([N-]c1cccc(S(=O)(=O)N2CCCCC2)c1)c1cc(S(=O)(=O)N2CCCCC2)ccc1[O-]

>  <Energy>  (50) 
83.15455089855003

>  <Genealogy>  (50) 
O=C([N-]c1cccc(S(=O)(=O)N2CCCCC2)c1)c1cc(S(=O)(=O)N2CCCCC2)ccc1[O-] (protonated)
O=C([N-]c1cccc(S(=O)(=O)N2CCCCC2)c1)c1cc(S(=O)(=O)N2CCCCC2)ccc1[O-] (3D coordinates assigned)
O=C([N-]c1cccc(S(=O)(=O)N2CCCCC2)c1)c1cc(S(=O)(=O)N2CCCCC2)ccc1[O-] (nonaromatic ring conformer: 83.15455089855003 kcal/mol)

>  <smiles>  (50) 
O=C(Nc1cccc(S(=O)(=O)N2CCCCC2)c1)c1cc(S(=O)(=O)N2CCCCC2)ccc1O

>  <score_type>  (50) 
oracle

>  <origin>  (50) 
adgpu

>  <m_score__min__energy>  (50) 
-15.58

>  <m_primary>  (50) 
energy

$$$$
