0:0
     RDKit          3D

 40 42  0  0  0  0  0  0  0  0999 V2000
   -1.8540   25.2920  -29.3300 O   0  0  0  0  0  0  0  0  0  0  0  0
   -2.8200   24.5220  -29.5800 C   0  0  0  0  0  0  0  0  0  0  0  0
   -2.8070   23.1250  -29.0460 C   0  0  0  0  0  0  0  0  0  0  0  0
   -2.7040   22.1490  -30.1730 C   0  0  0  0  0  0  0  0  0  0  0  0
   -1.6060   21.9820  -31.0100 C   0  0  0  0  0  0  0  0  0  0  0  0
   -1.7310   20.9800  -31.9190 N   0  0  0  0  0  0  0  0  0  0  0  0
   -2.9150   20.3430  -31.7970 C   0  0  0  0  0  0  0  0  0  0  0  0
   -3.4120   19.0170  -32.8290 S   0  0  0  0  0  0  0  0  0  0  0  0
   -3.4530   19.4930  -34.2540 O   0  0  0  0  0  0  0  0  0  0  0  0
   -2.3960   17.9150  -32.7130 O   0  0  0  0  0  0  0  0  0  0  0  0
   -4.9890   18.4500  -32.3190 N   0  0  0  0  0  0  0  0  0  0  0  0
   -5.9710   19.5540  -32.2400 C   0  0  0  0  0  0  0  0  0  0  0  0
   -6.8860   19.6250  -33.4760 C   0  0  0  0  0  0  0  0  0  0  0  0
   -6.1890   19.2000  -34.6260 O   0  0  0  0  0  0  0  0  0  0  0  0
   -5.9290   17.8090  -34.5540 C   0  0  0  0  0  0  0  0  0  0  0  0
   -5.4630   17.3350  -33.1560 C   0  0  0  0  0  0  0  0  0  0  0  0
   -3.8590   20.9890  -30.5650 S   0  0  0  0  0  0  0  0  0  0  0  0
   -3.8790   24.9300  -30.4550 N   0  0  0  0  0  0  0  0  0  0  0  0
   -5.0790   24.1980  -30.7470 C   0  0  0  0  0  0  0  0  0  0  0  0
   -5.3830   23.7490  -32.0450 C   0  0  0  0  0  0  0  0  0  0  0  0
   -6.5740   23.0550  -32.2880 C   0  0  0  0  0  0  0  0  0  0  0  0
   -7.4730   22.8160  -31.2430 C   0  0  0  0  0  0  0  0  0  0  0  0
   -8.9660   21.9470  -31.5510 Cl  0  0  0  0  0  0  0  0  0  0  0  0
   -7.1860   23.2820  -29.9570 C   0  0  0  0  0  0  0  0  0  0  0  0
   -5.9970   23.9770  -29.7130 C   0  0  0  0  0  0  0  0  0  0  0  0
   -1.9444   22.9993  -28.3750 H   0  0  0  0  0  0  0  0  0  0  0  0
   -3.7396   22.9409  -28.4924 H   0  0  0  0  0  0  0  0  0  0  0  0
   -0.7068   22.6118  -30.9415 H   0  0  0  0  0  0  0  0  0  0  0  0
   -6.5963   19.4055  -31.3473 H   0  0  0  0  0  0  0  0  0  0  0  0
   -5.4072   20.4971  -32.1895 H   0  0  0  0  0  0  0  0  0  0  0  0
   -7.7587   18.9740  -33.3193 H   0  0  0  0  0  0  0  0  0  0  0  0
   -7.2130   20.6654  -33.6199 H   0  0  0  0  0  0  0  0  0  0  0  0
   -6.8515   17.2693  -34.8141 H   0  0  0  0  0  0  0  0  0  0  0  0
   -5.1080   17.5985  -35.2552 H   0  0  0  0  0  0  0  0  0  0  0  0
   -6.3072   16.8454  -32.6485 H   0  0  0  0  0  0  0  0  0  0  0  0
   -4.6229   16.6394  -33.2984 H   0  0  0  0  0  0  0  0  0  0  0  0
   -4.6831   23.9438  -32.8710 H   0  0  0  0  0  0  0  0  0  0  0  0
   -6.8036   22.6969  -33.3024 H   0  0  0  0  0  0  0  0  0  0  0  0
   -7.8958   23.1020  -29.1361 H   0  0  0  0  0  0  0  0  0  0  0  0
   -5.7816   24.3526  -28.7018 H   0  0  0  0  0  0  0  0  0  0  0  0
  1  2  2  0
  2  3  1  0
  3  4  1  0
  4  5  2  0
  5  6  1  0
  6  7  2  0
  7  8  1  0
  8  9  2  0
  8 10  2  0
  8 11  1  0
 11 12  1  0
 12 13  1  0
 13 14  1  0
 14 15  1  0
 15 16  1  0
  7 17  1  0
  2 18  1  0
 18 19  1  0
 19 20  2  0
 20 21  1  0
 21 22  2  0
 22 23  1  0
 22 24  1  0
 24 25  2  0
 17  4  1  0
 25 19  1  0
 16 11  1  0
  3 26  1  0
  3 27  1  0
  5 28  1  0
 12 29  1  0
 12 30  1  0
 13 31  1  0
 13 32  1  0
 15 33  1  0
 15 34  1  0
 16 35  1  0
 16 36  1  0
 20 37  1  0
 21 38  1  0
 24 39  1  0
 25 40  1  0
M  CHG  1  18  -1
M  END
>  <UniqueID>  (1) 
1

>  <SMILES>  (1) 
O=C(Cc1cnc(S(=O)(=O)N2CCOCC2)s1)[N-]c1ccc(Cl)cc1

>  <Energy>  (1) 
82.58010778430265

>  <Genealogy>  (1) 
O=C(Cc1cnc(S(=O)(=O)N2CCOCC2)s1)[N-]c1ccc(Cl)cc1 (protonated)
O=C(Cc1cnc(S(=O)(=O)N2CCOCC2)s1)[N-]c1ccc(Cl)cc1 (3D coordinates assigned)
O=C(Cc1cnc(S(=O)(=O)N2CCOCC2)s1)[N-]c1ccc(Cl)cc1 (nonaromatic ring conformer: 82.58010778430265 kcal/mol)

>  <smiles>  (1) 
O=C(Cc1cnc(S(=O)(=O)N2CCOCC2)s1)Nc1ccc(Cl)cc1

>  <score_type>  (1) 
oracle

>  <origin>  (1) 
adgpu

>  <m_score__min__energy>  (1) 
-9.8800000000000008

>  <m_primary>  (1) 
energy

$$$$
1:0
     RDKit          3D

 35 37  0  0  0  0  0  0  0  0999 V2000
   -0.8160   23.6350  -26.2060 C   0  0  0  0  0  0  0  0  0  0  0  0
   -1.4330   24.9260  -26.7260 C   0  0  0  0  0  0  0  0  0  0  0  0
   -1.3890   24.9930  -28.5110 S   0  0  0  0  0  0  0  0  0  0  0  0
   -0.2110   24.2020  -29.0040 O   0  0  0  0  0  0  0  0  0  0  0  0
   -1.2370   26.4170  -28.9660 O   0  0  0  0  0  0  0  0  0  0  0  0
   -2.8600   24.3070  -29.1850 C   0  0  0  0  0  0  0  0  0  0  0  0
   -3.4330   23.1580  -28.6360 C   0  0  0  0  0  0  0  0  0  0  0  0
   -4.5900   22.6360  -29.2080 C   0  0  0  0  0  0  0  0  0  0  0  0
   -5.1620   23.2830  -30.3110 C   0  0  0  0  0  0  0  0  0  0  0  0
   -6.3360   22.7650  -30.9540 N   0  0  0  0  0  0  0  0  0  0  0  0
   -7.5910   23.5070  -31.0660 C   0  0  0  0  0  0  0  0  0  0  0  0
   -8.5140   22.6550  -31.9710 C   0  0  0  0  0  0  0  0  0  0  0  0
   -7.7080   21.4290  -32.2250 C   0  0  0  0  0  0  0  0  0  0  0  0
   -8.0950   20.2780  -32.9150 C   0  0  0  0  0  0  0  0  0  0  0  0
   -7.1970   19.2000  -32.9770 C   0  0  0  0  0  0  0  0  0  0  0  0
   -5.9460   19.2840  -32.3370 C   0  0  0  0  0  0  0  0  0  0  0  0
   -5.5810   20.4490  -31.6440 C   0  0  0  0  0  0  0  0  0  0  0  0
   -6.4790   21.5240  -31.6300 C   0  0  0  0  0  0  0  0  0  0  0  0
   -4.5460   24.3840  -30.8190 N   0  0  0  0  0  0  0  0  0  0  0  0
   -3.4350   24.8820  -30.2730 N   0  0  0  0  0  0  0  0  0  0  0  0
   -0.8201   23.6437  -25.1060 H   0  0  0  0  0  0  0  0  0  0  0  0
   -1.4014   22.7770  -26.5681 H   0  0  0  0  0  0  0  0  0  0  0  0
    0.2193   23.5516  -26.5681 H   0  0  0  0  0  0  0  0  0  0  0  0
   -2.4791   24.9837  -26.3909 H   0  0  0  0  0  0  0  0  0  0  0  0
   -0.8512   25.7724  -26.3321 H   0  0  0  0  0  0  0  0  0  0  0  0
   -2.9757   22.6711  -27.7620 H   0  0  0  0  0  0  0  0  0  0  0  0
   -5.0503   21.7249  -28.7980 H   0  0  0  0  0  0  0  0  0  0  0  0
   -8.0461   23.6394  -30.0734 H   0  0  0  0  0  0  0  0  0  0  0  0
   -7.4288   24.5098  -31.4880 H   0  0  0  0  0  0  0  0  0  0  0  0
   -9.4537   22.4089  -31.4549 H   0  0  0  0  0  0  0  0  0  0  0  0
   -8.8101   23.1744  -32.8943 H   0  0  0  0  0  0  0  0  0  0  0  0
   -9.0809   20.2172  -33.3990 H   0  0  0  0  0  0  0  0  0  0  0  0
   -7.4718   18.2879  -33.5270 H   0  0  0  0  0  0  0  0  0  0  0  0
   -5.2510   18.4325  -32.3801 H   0  0  0  0  0  0  0  0  0  0  0  0
   -4.6136   20.5161  -31.1247 H   0  0  0  0  0  0  0  0  0  0  0  0
  1  2  1  0
  2  3  1  0
  3  4  2  0
  3  5  2  0
  3  6  1  0
  6  7  2  0
  7  8  1  0
  8  9  2  0
  9 10  1  0
 10 11  1  0
 11 12  1  0
 12 13  1  0
 13 14  2  0
 14 15  1  0
 15 16  2  0
 16 17  1  0
 17 18  2  0
  9 19  1  0
 19 20  2  0
 20  6  1  0
 18 10  1  0
 18 13  1  0
  1 21  1  0
  1 22  1  0
  1 23  1  0
  2 24  1  0
  2 25  1  0
  7 26  1  0
  8 27  1  0
 11 28  1  0
 11 29  1  0
 12 30  1  0
 12 31  1  0
 14 32  1  0
 15 33  1  0
 16 34  1  0
 17 35  1  0
M  END
>  <UniqueID>  (2) 
2

>  <SMILES>  (2) 
CCS(=O)(=O)c1ccc(N2CCc3ccccc32)nn1

>  <Energy>  (2) 
51.34927767901129

>  <Genealogy>  (2) 
CCS(=O)(=O)c1ccc(N2CCc3ccccc32)nn1 (3D coordinates assigned)
CCS(=O)(=O)c1ccc(N2CCc3ccccc32)nn1 (nonaromatic ring conformer: 51.34927767901129 kcal/mol)

>  <smiles>  (2) 
CCS(=O)(=O)c1ccc(N2CCc3ccccc32)nn1

>  <score_type>  (2) 
oracle

>  <origin>  (2) 
adgpu

>  <m_score__min__energy>  (2) 
-8.75

>  <m_primary>  (2) 
energy

$$$$
2:0
     RDKit          3D

 40 42  0  0  0  0  0  0  0  0999 V2000
   -5.0540   24.3170  -28.7420 N   0  0  0  0  0  0  0  0  0  0  0  0
   -4.8900   24.3750  -30.4620 S   0  0  0  0  0  0  0  0  0  0  0  0
   -3.7550   25.2940  -30.8200 O   0  0  0  0  0  0  0  0  0  0  0  0
   -6.1650   24.8870  -31.0690 O   0  0  0  0  0  0  0  0  0  0  0  0
   -4.5560   22.7680  -31.0720 C   0  0  0  0  0  0  0  0  0  0  0  0
   -4.1690   21.7360  -30.2940 N   0  0  0  0  0  0  0  0  0  0  0  0
   -3.9720   20.6100  -30.9770 N   0  0  0  0  0  0  0  0  0  0  0  0
   -4.2030   20.7360  -32.3040 C   0  0  0  0  0  0  0  0  0  0  0  0
   -4.0270   19.6550  -33.2450 N   0  0  0  0  0  0  0  0  0  0  0  0
   -2.8280   19.6020  -34.0920 C   0  0  0  0  0  0  0  0  0  0  0  0
   -1.5930   19.7640  -33.2470 C   0  0  0  0  0  0  0  0  0  0  0  0
   -0.9150   20.9940  -33.2090 C   0  0  0  0  0  0  0  0  0  0  0  0
    0.1820   21.1660  -32.3590 C   0  0  0  0  0  0  0  0  0  0  0  0
    0.6090   20.1140  -31.5430 C   0  0  0  0  0  0  0  0  0  0  0  0
   -0.0590   18.8880  -31.5780 C   0  0  0  0  0  0  0  0  0  0  0  0
   -1.1570   18.7120  -32.4250 C   0  0  0  0  0  0  0  0  0  0  0  0
   -5.3030   18.5050  -33.5600 S   0  0  0  0  0  0  0  0  0  0  0  0
   -4.9410   17.1460  -33.0300 O   0  0  0  0  0  0  0  0  0  0  0  0
   -5.4900   18.3900  -35.0480 O   0  0  0  0  0  0  0  0  0  0  0  0
   -6.8080   19.0520  -32.8230 C   0  0  0  0  0  0  0  0  0  0  0  0
   -7.2380   20.3750  -32.9990 C   0  0  0  0  0  0  0  0  0  0  0  0
   -8.4070   20.8250  -32.3780 C   0  0  0  0  0  0  0  0  0  0  0  0
   -9.1540   19.9550  -31.5780 C   0  0  0  0  0  0  0  0  0  0  0  0
   -8.7360   18.6330  -31.4060 C   0  0  0  0  0  0  0  0  0  0  0  0
   -7.5700   18.1800  -32.0290 C   0  0  0  0  0  0  0  0  0  0  0  0
   -4.6730   22.3140  -32.6870 S   0  0  0  0  0  0  0  0  0  0  0  0
   -6.0540   24.0990  -28.5360 H   0  0  0  0  0  0  0  0  0  0  0  0
   -4.8750   25.2820  -28.3840 H   0  0  0  0  0  0  0  0  0  0  0  0
   -2.7904   18.6322  -34.6098 H   0  0  0  0  0  0  0  0  0  0  0  0
   -2.8705   20.4173  -34.8292 H   0  0  0  0  0  0  0  0  0  0  0  0
   -1.2480   21.8239  -33.8496 H   0  0  0  0  0  0  0  0  0  0  0  0
    0.7099   22.1307  -32.3323 H   0  0  0  0  0  0  0  0  0  0  0  0
    1.4709   20.2519  -30.8736 H   0  0  0  0  0  0  0  0  0  0  0  0
    0.2794   18.0597  -30.9381 H   0  0  0  0  0  0  0  0  0  0  0  0
   -1.6818   17.7455  -32.4478 H   0  0  0  0  0  0  0  0  0  0  0  0
   -6.6530   21.0618  -33.6284 H   0  0  0  0  0  0  0  0  0  0  0  0
   -8.7392   21.8641  -32.5189 H   0  0  0  0  0  0  0  0  0  0  0  0
  -10.0702   20.3112  -31.0843 H   0  0  0  0  0  0  0  0  0  0  0  0
   -9.3256   17.9477  -30.7793 H   0  0  0  0  0  0  0  0  0  0  0  0
   -7.2480   17.1365  -31.8969 H   0  0  0  0  0  0  0  0  0  0  0  0
  1  2  1  0
  2  3  2  0
  2  4  2  0
  2  5  1  0
  5  6  2  0
  6  7  1  0
  7  8  2  0
  8  9  1  0
  9 10  1  0
 10 11  1  0
 11 12  2  0
 12 13  1  0
 13 14  2  0
 14 15  1  0
 15 16  2  0
  9 17  1  0
 17 18  2  0
 17 19  2  0
 17 20  1  0
 20 21  2  0
 21 22  1  0
 22 23  2  0
 23 24  1  0
 24 25  2  0
  8 26  1  0
 26  5  1  0
 16 11  1  0
 25 20  1  0
  1 27  1  0
  1 28  1  0
 10 29  1  0
 10 30  1  0
 12 31  1  0
 13 32  1  0
 14 33  1  0
 15 34  1  0
 16 35  1  0
 21 36  1  0
 22 37  1  0
 23 38  1  0
 24 39  1  0
 25 40  1  0
M  END
>  <UniqueID>  (3) 
3

>  <SMILES>  (3) 
NS(=O)(=O)c1nnc(N(Cc2ccccc2)S(=O)(=O)c2ccccc2)s1

>  <Energy>  (3) 
73.79236162506558

>  <Genealogy>  (3) 
NS(=O)(=O)c1nnc(N(Cc2ccccc2)S(=O)(=O)c2ccccc2)s1 (3D coordinates assigned)
NS(=O)(=O)c1nnc(N(Cc2ccccc2)S(=O)(=O)c2ccccc2)s1 (optimized conformer: 73.79236162506558 kcal/mol)

>  <smiles>  (3) 
NS(=O)(=O)c1nnc(N(Cc2ccccc2)S(=O)(=O)c2ccccc2)s1

>  <score_type>  (3) 
oracle

>  <origin>  (3) 
adgpu

>  <m_score__min__energy>  (3) 
-9.2100000000000009

>  <m_primary>  (3) 
energy

$$$$
3:0
     RDKit          3D

 53 56  0  0  0  0  0  0  0  0999 V2000
   -0.6080   20.5650  -28.6530 C   0  0  0  0  0  0  0  0  0  0  0  0
   -1.6040   20.8690  -29.7340 C   0  0  0  0  0  0  0  0  0  0  0  0
   -1.1590   21.2270  -31.0130 C   0  0  0  0  0  0  0  0  0  0  0  0
   -2.0780   21.5480  -32.0170 C   0  0  0  0  0  0  0  0  0  0  0  0
   -3.4570   21.5310  -31.7500 C   0  0  0  0  0  0  0  0  0  0  0  0
   -4.4510   21.9060  -32.8220 C   0  0  0  0  0  0  0  0  0  0  0  0
   -5.8300   21.9050  -32.3110 N   0  0  0  0  0  0  0  0  0  0  0  0
   -6.4820   22.9130  -31.6950 C   0  0  0  0  0  0  0  0  0  0  0  0
   -5.8090   24.5490  -31.3840 S   0  0  0  0  0  0  0  0  0  0  0  0
   -5.8420   24.4000  -29.5650 C   0  0  0  0  0  0  0  0  0  0  0  0
   -4.4470   24.3540  -29.0020 C   0  0  0  0  0  0  0  0  0  0  0  0
   -4.2490   24.1430  -27.6280 C   0  0  0  0  0  0  0  0  0  0  0  0
   -2.9540   24.0700  -27.1040 C   0  0  0  0  0  0  0  0  0  0  0  0
   -1.8430   24.1930  -27.9500 C   0  0  0  0  0  0  0  0  0  0  0  0
   -0.2100   24.1310  -27.2970 S   0  0  0  0  0  0  0  0  0  0  0  0
   -0.0760   25.2840  -25.9480 C   0  0  0  0  0  0  0  0  0  0  0  0
    0.0980   22.7460  -26.8030 O   0  0  0  0  0  0  0  0  0  0  0  0
    0.7770   24.4930  -28.3710 O   0  0  0  0  0  0  0  0  0  0  0  0
   -2.0370   24.4020  -29.3210 C   0  0  0  0  0  0  0  0  0  0  0  0
   -3.3310   24.4820  -29.8460 C   0  0  0  0  0  0  0  0  0  0  0  0
   -7.7340   22.5580  -31.3490 N   0  0  0  0  0  0  0  0  0  0  0  0
   -7.9040   21.3050  -31.7440 N   0  0  0  0  0  0  0  0  0  0  0  0
   -6.7580   20.9190  -32.3390 C   0  0  0  0  0  0  0  0  0  0  0  0
   -6.5710   19.5740  -32.9100 C   0  0  0  0  0  0  0  0  0  0  0  0
   -5.9340   19.3990  -34.1470 C   0  0  0  0  0  0  0  0  0  0  0  0
   -5.7530   18.1080  -34.6510 C   0  0  0  0  0  0  0  0  0  0  0  0
   -6.2040   17.0340  -33.9520 N   0  0  0  0  0  0  0  0  0  0  0  0
   -6.8420   17.1760  -32.7590 C   0  0  0  0  0  0  0  0  0  0  0  0
   -7.0440   18.4490  -32.2200 C   0  0  0  0  0  0  0  0  0  0  0  0
   -3.9010   21.1580  -30.4720 C   0  0  0  0  0  0  0  0  0  0  0  0
   -2.9820   20.8400  -29.4670 C   0  0  0  0  0  0  0  0  0  0  0  0
   -1.0791   20.7088  -27.6694 H   0  0  0  0  0  0  0  0  0  0  0  0
   -0.2697   19.5227  -28.7487 H   0  0  0  0  0  0  0  0  0  0  0  0
    0.2547   21.2407  -28.7487 H   0  0  0  0  0  0  0  0  0  0  0  0
   -0.0808   21.2558  -31.2288 H   0  0  0  0  0  0  0  0  0  0  0  0
   -1.7189   21.8154  -33.0218 H   0  0  0  0  0  0  0  0  0  0  0  0
   -4.2100   22.9124  -33.1950 H   0  0  0  0  0  0  0  0  0  0  0  0
   -4.3838   21.1599  -33.6274 H   0  0  0  0  0  0  0  0  0  0  0  0
   -6.3719   25.2665  -29.1427 H   0  0  0  0  0  0  0  0  0  0  0  0
   -6.3580   23.4656  -29.2993 H   0  0  0  0  0  0  0  0  0  0  0  0
   -5.1165   24.0346  -26.9604 H   0  0  0  0  0  0  0  0  0  0  0  0
   -2.8070   23.9156  -26.0248 H   0  0  0  0  0  0  0  0  0  0  0  0
   -0.1391   24.7407  -24.9936 H   0  0  0  0  0  0  0  0  0  0  0  0
    0.8891   25.8083  -26.0083 H   0  0  0  0  0  0  0  0  0  0  0  0
   -0.8952   26.0157  -26.0083 H   0  0  0  0  0  0  0  0  0  0  0  0
   -1.1681   24.5037  -29.9879 H   0  0  0  0  0  0  0  0  0  0  0  0
   -3.4755   24.6458  -30.9241 H   0  0  0  0  0  0  0  0  0  0  0  0
   -5.5795   20.2710  -34.7162 H   0  0  0  0  0  0  0  0  0  0  0  0
   -5.2445   17.9613  -35.6153 H   0  0  0  0  0  0  0  0  0  0  0  0
   -7.1993   16.2874  -32.2180 H   0  0  0  0  0  0  0  0  0  0  0  0
   -7.5703   18.5677  -31.2614 H   0  0  0  0  0  0  0  0  0  0  0  0
   -4.9794   21.1155  -30.2593 H   0  0  0  0  0  0  0  0  0  0  0  0
   -3.3401   20.5661  -28.4636 H   0  0  0  0  0  0  0  0  0  0  0  0
  1  2  1  0
  2  3  2  0
  3  4  1  0
  4  5  2  0
  5  6  1  0
  6  7  1  0
  7  8  1  0
  8  9  1  0
  9 10  1  0
 10 11  1  0
 11 12  2  0
 12 13  1  0
 13 14  2  0
 14 15  1  0
 15 16  1  0
 15 17  2  0
 15 18  2  0
 14 19  1  0
 19 20  2  0
  8 21  2  0
 21 22  1  0
 22 23  2  0
 23 24  1  0
 24 25  2  0
 25 26  1  0
 26 27  2  0
 27 28  1  0
 28 29  2  0
  5 30  1  0
 30 31  2  0
 31  2  1  0
 23  7  1  0
 29 24  1  0
 20 11  1  0
  1 32  1  0
  1 33  1  0
  1 34  1  0
  3 35  1  0
  4 36  1  0
  6 37  1  0
  6 38  1  0
 10 39  1  0
 10 40  1  0
 12 41  1  0
 13 42  1  0
 16 43  1  0
 16 44  1  0
 16 45  1  0
 19 46  1  0
 20 47  1  0
 25 48  1  0
 26 49  1  0
 28 50  1  0
 29 51  1  0
 30 52  1  0
 31 53  1  0
M  END
>  <UniqueID>  (4) 
4

>  <SMILES>  (4) 
Cc1ccc(Cn2c(SCc3ccc(S(C)(=O)=O)cc3)nnc2-c2ccncc2)cc1

>  <Energy>  (4) 
87.59218997431661

>  <Genealogy>  (4) 
Cc1ccc(Cn2c(SCc3ccc(S(C)(=O)=O)cc3)nnc2-c2ccncc2)cc1 (3D coordinates assigned)
Cc1ccc(Cn2c(SCc3ccc(S(C)(=O)=O)cc3)nnc2-c2ccncc2)cc1 (optimized conformer: 87.59218997431661 kcal/mol)

>  <smiles>  (4) 
Cc1ccc(Cn2c(SCc3ccc(S(C)(=O)=O)cc3)nnc2-c2ccncc2)cc1

>  <score_type>  (4) 
oracle

>  <origin>  (4) 
adgpu

>  <m_score__min__energy>  (4) 
-10.16

>  <m_primary>  (4) 
energy

$$$$
4:0
     RDKit          3D

 51 53  0  0  0  0  0  0  0  0999 V2000
   -1.2170   21.2700  -26.8970 C   0  0  0  0  0  0  0  0  0  0  0  0
   -1.2550   22.6390  -27.5110 C   0  0  0  0  0  0  0  0  0  0  0  0
   -0.2740   23.5840  -27.1800 C   0  0  0  0  0  0  0  0  0  0  0  0
   -0.2750   24.8400  -27.7890 C   0  0  0  0  0  0  0  0  0  0  0  0
   -1.2530   25.1660  -28.7330 C   0  0  0  0  0  0  0  0  0  0  0  0
   -1.2350   26.4230  -29.3270 O   0  0  0  0  0  0  0  0  0  0  0  0
   -2.2480   24.2310  -29.0730 C   0  0  0  0  0  0  0  0  0  0  0  0
   -3.2330   24.5630  -30.0690 N   0  0  0  0  0  0  0  0  0  0  0  0
   -4.6300   24.2510  -29.9440 C   0  0  0  0  0  0  0  0  0  0  0  0
   -5.1250   24.0080  -28.8120 O   0  0  0  0  0  0  0  0  0  0  0  0
   -5.4980   24.3120  -31.0810 N   0  0  0  0  0  0  0  0  0  0  0  0
   -6.4100   23.2870  -31.4980 C   0  0  0  0  0  0  0  0  0  0  0  0
   -7.7970   23.5060  -31.5330 C   0  0  0  0  0  0  0  0  0  0  0  0
   -8.6570   22.4940  -31.9660 C   0  0  0  0  0  0  0  0  0  0  0  0
   -8.1410   21.2650  -32.3840 C   0  0  0  0  0  0  0  0  0  0  0  0
   -6.7530   21.0360  -32.3810 C   0  0  0  0  0  0  0  0  0  0  0  0
   -6.2060   19.7340  -32.8300 C   0  0  0  0  0  0  0  0  0  0  0  0
   -6.8520   19.0320  -33.6540 O   0  0  0  0  0  0  0  0  0  0  0  0
   -4.9200   19.2960  -32.3640 N   0  0  0  0  0  0  0  0  0  0  0  0
   -3.6430   19.6480  -32.9150 C   0  0  0  0  0  0  0  0  0  0  0  0
   -3.2730   20.9950  -32.9430 C   0  0  0  0  0  0  0  0  0  0  0  0
   -2.0300   21.3840  -33.4510 C   0  0  0  0  0  0  0  0  0  0  0  0
   -1.1150   20.4250  -33.9350 C   0  0  0  0  0  0  0  0  0  0  0  0
    0.1790   20.8250  -34.4640 N   0  0  0  0  0  0  0  0  0  0  0  0
    1.4210   20.3230  -33.8610 C   0  0  0  0  0  0  0  0  0  0  0  0
    0.2680   21.7400  -35.6100 C   0  0  0  0  0  0  0  0  0  0  0  0
   -1.4900   19.0650  -33.8820 C   0  0  0  0  0  0  0  0  0  0  0  0
   -2.7330   18.6810  -33.3700 C   0  0  0  0  0  0  0  0  0  0  0  0
   -5.8950   22.0630  -31.9430 C   0  0  0  0  0  0  0  0  0  0  0  0
   -2.2270   22.9590  -28.4720 C   0  0  0  0  0  0  0  0  0  0  0  0
   -1.2195   21.3597  -25.8007 H   0  0  0  0  0  0  0  0  0  0  0  0
   -2.0996   20.6986  -27.2202 H   0  0  0  0  0  0  0  0  0  0  0  0
   -0.3040   20.7484  -27.2202 H   0  0  0  0  0  0  0  0  0  0  0  0
    0.4990   23.3350  -26.4380 H   0  0  0  0  0  0  0  0  0  0  0  0
    0.4977   25.5769  -27.5247 H   0  0  0  0  0  0  0  0  0  0  0  0
   -2.9360   25.1410  -30.8880 H   0  0  0  0  0  0  0  0  0  0  0  0
   -8.2071   24.4771  -31.2186 H   0  0  0  0  0  0  0  0  0  0  0  0
   -9.7435   22.6653  -31.9779 H   0  0  0  0  0  0  0  0  0  0  0  0
   -8.8248   20.4707  -32.7178 H   0  0  0  0  0  0  0  0  0  0  0  0
   -3.9674   21.7579  -32.5611 H   0  0  0  0  0  0  0  0  0  0  0  0
   -1.7620   22.4506  -33.4737 H   0  0  0  0  0  0  0  0  0  0  0  0
    1.3363   20.3572  -32.7648 H   0  0  0  0  0  0  0  0  0  0  0  0
    1.5918   19.2852  -34.1833 H   0  0  0  0  0  0  0  0  0  0  0  0
    2.2649   20.9506  -34.1833 H   0  0  0  0  0  0  0  0  0  0  0  0
    0.3685   22.7735  -35.2471 H   0  0  0  0  0  0  0  0  0  0  0  0
    1.1450   21.4788  -36.2205 H   0  0  0  0  0  0  0  0  0  0  0  0
   -0.6429   21.6527  -36.2205 H   0  0  0  0  0  0  0  0  0  0  0  0
   -0.7940   18.2962  -34.2489 H   0  0  0  0  0  0  0  0  0  0  0  0
   -2.9994   17.6148  -33.3235 H   0  0  0  0  0  0  0  0  0  0  0  0
   -4.8069   21.9019  -31.9504 H   0  0  0  0  0  0  0  0  0  0  0  0
   -2.9789   22.2086  -28.7577 H   0  0  0  0  0  0  0  0  0  0  0  0
  1  2  1  0
  2  3  2  0
  3  4  1  0
  4  5  2  0
  5  6  1  0
  5  7  1  0
  7  8  1  0
  8  9  1  0
  9 10  2  0
  9 11  1  0
 11 12  1  0
 12 13  2  0
 13 14  1  0
 14 15  2  0
 15 16  1  0
 16 17  1  0
 17 18  2  0
 17 19  1  0
 19 20  1  0
 20 21  2  0
 21 22  1  0
 22 23  2  0
 23 24  1  0
 24 25  1  0
 24 26  1  0
 23 27  1  0
 27 28  2  0
 16 29  2  0
  7 30  2  0
 30  2  1  0
 29 12  1  0
 28 20  1  0
  1 31  1  0
  1 32  1  0
  1 33  1  0
  3 34  1  0
  4 35  1  0
  8 36  1  0
 13 37  1  0
 14 38  1  0
 15 39  1  0
 21 40  1  0
 22 41  1  0
 25 42  1  0
 25 43  1  0
 25 44  1  0
 26 45  1  0
 26 46  1  0
 26 47  1  0
 27 48  1  0
 28 49  1  0
 29 50  1  0
 30 51  1  0
M  CHG  3   6  -1  11  -1  19  -1
M  END
>  <UniqueID>  (5) 
5

>  <SMILES>  (5) 
Cc1ccc([O-])c(NC(=O)[N-]c2cccc(C(=O)[N-]c3ccc(N(C)C)cc3)c2)c1

>  <Energy>  (5) 
65.92011919685869

>  <Genealogy>  (5) 
Cc1ccc([O-])c(NC(=O)[N-]c2cccc(C(=O)[N-]c3ccc(N(C)C)cc3)c2)c1 (protonated)
Cc1ccc([O-])c(NC(=O)[N-]c2cccc(C(=O)[N-]c3ccc(N(C)C)cc3)c2)c1 (3D coordinates assigned)
Cc1ccc([O-])c(NC(=O)[N-]c2cccc(C(=O)[N-]c3ccc(N(C)C)cc3)c2)c1 (optimized conformer: 65.92011919685869 kcal/mol)

>  <smiles>  (5) 
Cc1ccc(O)c(NC(=O)Nc2cccc(C(=O)Nc3ccc(N(C)C)cc3)c2)c1

>  <score_type>  (5) 
oracle

>  <origin>  (5) 
adgpu

>  <m_score__min__energy>  (5) 
-12.98

>  <m_primary>  (5) 
energy

$$$$
5:0
     RDKit          3D

 51 53  0  0  0  0  0  0  0  0999 V2000
   -3.6330   23.5680  -27.7710 C   0  0  0  0  0  0  0  0  0  0  0  0
   -2.3930   23.3280  -28.5050 N   0  0  0  0  0  0  0  0  0  0  0  0
   -2.4110   22.4360  -29.6260 C   0  0  0  0  0  0  0  0  0  0  0  0
   -1.4640   21.4050  -29.6920 C   0  0  0  0  0  0  0  0  0  0  0  0
   -1.4570   20.5180  -30.7690 C   0  0  0  0  0  0  0  0  0  0  0  0
   -2.3980   20.6510  -31.7960 C   0  0  0  0  0  0  0  0  0  0  0  0
   -2.3850   19.5360  -33.1640 S   0  0  0  0  0  0  0  0  0  0  0  0
   -1.3270   18.4910  -32.9360 O   0  0  0  0  0  0  0  0  0  0  0  0
   -2.0300   20.2910  -34.4150 O   0  0  0  0  0  0  0  0  0  0  0  0
   -3.9320   18.7540  -33.3780 N   0  0  0  0  0  0  0  0  0  0  0  0
   -3.9240   17.9050  -34.5860 C   0  0  0  0  0  0  0  0  0  0  0  0
   -5.3520   17.4620  -34.9700 C   0  0  0  0  0  0  0  0  0  0  0  0
   -6.2540   17.6690  -33.9000 O   0  0  0  0  0  0  0  0  0  0  0  0
   -6.3820   19.0570  -33.6390 C   0  0  0  0  0  0  0  0  0  0  0  0
   -5.0130   19.7520  -33.4520 C   0  0  0  0  0  0  0  0  0  0  0  0
   -3.3500   21.6780  -31.7340 C   0  0  0  0  0  0  0  0  0  0  0  0
   -3.3610   22.5820  -30.6610 C   0  0  0  0  0  0  0  0  0  0  0  0
   -4.5870   23.8550  -30.6310 S   0  0  0  0  0  0  0  0  0  0  0  0
   -3.8640   25.4030  -30.3710 N   0  0  0  0  0  0  0  0  0  0  0  0
   -5.5740   23.5660  -29.5360 O   0  0  0  0  0  0  0  0  0  0  0  0
   -5.3100   23.8890  -31.9490 O   0  0  0  0  0  0  0  0  0  0  0  0
   -1.1250   24.5090  -28.4060 S   0  0  0  0  0  0  0  0  0  0  0  0
    0.1700   23.9080  -28.8790 O   0  0  0  0  0  0  0  0  0  0  0  0
   -1.4580   25.6780  -29.2890 O   0  0  0  0  0  0  0  0  0  0  0  0
   -0.9370   25.0510  -26.7400 C   0  0  0  0  0  0  0  0  0  0  0  0
   -0.4780   24.1640  -25.7530 C   0  0  0  0  0  0  0  0  0  0  0  0
   -0.3480   24.5940  -24.4290 C   0  0  0  0  0  0  0  0  0  0  0  0
   -0.6780   25.9070  -24.0830 C   0  0  0  0  0  0  0  0  0  0  0  0
   -1.1380   26.7940  -25.0630 C   0  0  0  0  0  0  0  0  0  0  0  0
   -1.2670   26.3670  -26.3880 C   0  0  0  0  0  0  0  0  0  0  0  0
   -3.4326   23.5292  -26.6901 H   0  0  0  0  0  0  0  0  0  0  0  0
   -4.0294   24.5595  -28.0351 H   0  0  0  0  0  0  0  0  0  0  0  0
   -4.3707   22.7960  -28.0351 H   0  0  0  0  0  0  0  0  0  0  0  0
   -0.7207   21.2943  -28.8887 H   0  0  0  0  0  0  0  0  0  0  0  0
   -0.7097   19.7119  -30.8108 H   0  0  0  0  0  0  0  0  0  0  0  0
   -4.0890   18.1490  -32.5380 H   0  0  0  0  0  0  0  0  0  0  0  0
   -3.4887   18.4738  -35.4208 H   0  0  0  0  0  0  0  0  0  0  0  0
   -3.3268   17.0058  -34.3743 H   0  0  0  0  0  0  0  0  0  0  0  0
   -5.6872   18.0450  -35.8405 H   0  0  0  0  0  0  0  0  0  0  0  0
   -5.3327   16.3883  -35.2083 H   0  0  0  0  0  0  0  0  0  0  0  0
   -6.9046   19.5284  -34.4844 H   0  0  0  0  0  0  0  0  0  0  0  0
   -6.9460   19.1707  -32.7014 H   0  0  0  0  0  0  0  0  0  0  0  0
   -4.8284   20.4227  -34.3041 H   0  0  0  0  0  0  0  0  0  0  0  0
   -5.0313   20.3260  -32.5138 H   0  0  0  0  0  0  0  0  0  0  0  0
   -4.0969   21.7763  -32.5356 H   0  0  0  0  0  0  0  0  0  0  0  0
   -2.8390   25.2940  -30.5340 H   0  0  0  0  0  0  0  0  0  0  0  0
   -0.2202   23.1290  -26.0219 H   0  0  0  0  0  0  0  0  0  0  0  0
    0.0146   23.8977  -23.6585 H   0  0  0  0  0  0  0  0  0  0  0  0
   -0.5763   26.2434  -23.0406 H   0  0  0  0  0  0  0  0  0  0  0  0
   -1.3981   27.8275  -24.7906 H   0  0  0  0  0  0  0  0  0  0  0  0
   -1.6286   27.0659  -27.1566 H   0  0  0  0  0  0  0  0  0  0  0  0
  1  2  1  0
  2  3  1  0
  3  4  2  0
  4  5  1  0
  5  6  2  0
  6  7  1  0
  7  8  2  0
  7  9  2  0
  7 10  1  0
 10 11  1  0
 11 12  1  0
 12 13  1  0
 13 14  1  0
 14 15  1  0
  6 16  1  0
 16 17  2  0
 17 18  1  0
 18 19  1  0
 18 20  2  0
 18 21  2  0
  2 22  1  0
 22 23  2  0
 22 24  2  0
 22 25  1  0
 25 26  2  0
 26 27  1  0
 27 28  2  0
 28 29  1  0
 29 30  2  0
 17  3  1  0
 30 25  1  0
 15 10  1  0
  1 31  1  0
  1 32  1  0
  1 33  1  0
  4 34  1  0
  5 35  1  0
 10 36  1  0
 11 37  1  0
 11 38  1  0
 12 39  1  0
 12 40  1  0
 14 41  1  0
 14 42  1  0
 15 43  1  0
 15 44  1  0
 16 45  1  0
 19 46  1  0
 26 47  1  0
 27 48  1  0
 28 49  1  0
 29 50  1  0
 30 51  1  0
M  CHG  2  10   1  19  -1
M  END
>  <UniqueID>  (6) 
6

>  <SMILES>  (6) 
CN(c1ccc(S(=O)(=O)[NH+]2CCOCC2)cc1S([NH-])(=O)=O)S(=O)(=O)c1ccccc1

>  <Energy>  (6) 
65.66181216059871

>  <Genealogy>  (6) 
CN(c1ccc(S(=O)(=O)[NH+]2CCOCC2)cc1S([NH-])(=O)=O)S(=O)(=O)c1ccccc1 (protonated)
CN(c1ccc(S(=O)(=O)[NH+]2CCOCC2)cc1S([NH-])(=O)=O)S(=O)(=O)c1ccccc1 (3D coordinates assigned)
CN(c1ccc(S(=O)(=O)[NH+]2CCOCC2)cc1S([NH-])(=O)=O)S(=O)(=O)c1ccccc1 (nonaromatic ring conformer: 65.66181216059871 kcal/mol)

>  <smiles>  (6) 
CN(c1ccc(S(=O)(=O)N2CCOCC2)cc1S(N)(=O)=O)S(=O)(=O)c1ccccc1

>  <score_type>  (6) 
oracle

>  <origin>  (6) 
adgpu

>  <m_score__min__energy>  (6) 
-11.140000000000001

>  <m_primary>  (6) 
energy

$$$$
6:0
     RDKit          3D

 74 79  0  0  0  0  0  0  0  0999 V2000
   -0.2200   29.8340  -27.0770 C   0  0  0  0  0  0  0  0  0  0  0  0
   -0.8000   29.4030  -25.7980 N   0  0  0  0  0  0  0  0  0  0  0  0
   -1.2890   30.4280  -24.8670 C   0  0  0  0  0  0  0  0  0  0  0  0
   -0.8560   27.9920  -25.4490 C   0  0  0  0  0  0  0  0  0  0  0  0
   -0.5040   27.5490  -24.1530 C   0  0  0  0  0  0  0  0  0  0  0  0
   -0.5450   26.1930  -23.8240 C   0  0  0  0  0  0  0  0  0  0  0  0
   -0.9150   25.2500  -24.7820 C   0  0  0  0  0  0  0  0  0  0  0  0
   -1.2520   25.6590  -26.0790 C   0  0  0  0  0  0  0  0  0  0  0  0
   -1.6180   24.7000  -27.0780 N   0  0  0  0  0  0  0  0  0  0  0  0
   -1.6090   24.9910  -28.4830 C   0  0  0  0  0  0  0  0  0  0  0  0
   -1.2240   26.1170  -28.9010 O   0  0  0  0  0  0  0  0  0  0  0  0
   -2.0970   24.0120  -29.4050 N   0  0  0  0  0  0  0  0  0  0  0  0
   -1.2280   23.0730  -30.1110 C   0  0  2  0  0  0  0  0  0  0  0  0
   -2.0210   21.9470  -30.6950 C   0  0  0  0  0  0  0  0  0  0  0  0
   -3.2090   21.7310  -30.3240 O   0  0  0  0  0  0  0  0  0  0  0  0
   -1.4350   21.1290  -31.7130 N   0  0  0  0  0  0  0  0  0  0  0  0
   -1.9980   21.1830  -33.0670 C   0  0  0  0  0  0  0  0  0  0  0  0
   -3.3330   20.4930  -33.1050 C   0  0  0  0  0  0  0  0  0  0  0  0
   -3.4290   19.1770  -33.5770 C   0  0  0  0  0  0  0  0  0  0  0  0
   -4.6620   18.5150  -33.5830 C   0  0  0  0  0  0  0  0  0  0  0  0
   -5.8150   19.1680  -33.1280 C   0  0  0  0  0  0  0  0  0  0  0  0
   -7.0610   18.5190  -33.1540 C   0  0  0  0  0  0  0  0  0  0  0  0
   -8.2030   19.1780  -32.6950 C   0  0  0  0  0  0  0  0  0  0  0  0
   -8.1100   20.4790  -32.1810 C   0  0  0  0  0  0  0  0  0  0  0  0
   -9.2880   21.1330  -31.6790 C   0  0  0  0  0  0  0  0  0  0  0  0
  -10.2360   21.6580  -31.2800 N   0  0  0  0  0  0  0  0  0  0  0  0
   -6.8730   21.1360  -32.1530 C   0  0  0  0  0  0  0  0  0  0  0  0
   -5.7220   20.4920  -32.6340 C   0  0  0  0  0  0  0  0  0  0  0  0
   -4.4780   21.1420  -32.6200 C   0  0  0  0  0  0  0  0  0  0  0  0
   -0.3360   20.2450  -31.4040 C   0  0  0  0  0  0  0  0  0  0  0  0
    0.1550   19.3860  -32.4050 C   0  0  0  0  0  0  0  0  0  0  0  0
    1.2320   18.5360  -32.1540 C   0  0  0  0  0  0  0  0  0  0  0  0
    1.8290   18.5220  -30.9010 C   0  0  0  0  0  0  0  0  0  0  0  0
    1.3580   19.3630  -29.8910 C   0  0  0  0  0  0  0  0  0  0  0  0
    0.2830   20.2350  -30.1250 C   0  0  0  0  0  0  0  0  0  0  0  0
   -0.1860   21.0700  -29.0520 N   0  0  0  0  0  0  0  0  0  0  0  0
   -0.8780   20.5020  -27.9340 C   0  0  0  0  0  0  0  0  0  0  0  0
   -0.8620   21.1580  -26.6940 C   0  0  0  0  0  0  0  0  0  0  0  0
   -1.5820   20.6350  -25.6130 C   0  0  0  0  0  0  0  0  0  0  0  0
   -2.3100   19.4450  -25.7610 C   0  0  0  0  0  0  0  0  0  0  0  0
   -2.3190   18.7820  -26.9950 C   0  0  0  0  0  0  0  0  0  0  0  0
   -1.6070   19.3110  -28.0800 C   0  0  0  0  0  0  0  0  0  0  0  0
   -0.1950   22.4880  -29.2170 C   0  0  0  0  0  0  0  0  0  0  0  0
    0.5860   23.2070  -28.5400 O   0  0  0  0  0  0  0  0  0  0  0  0
   -1.2420   27.0230  -26.4020 C   0  0  0  0  0  0  0  0  0  0  0  0
    0.6495   30.4801  -26.8861 H   0  0  0  0  0  0  0  0  0  0  0  0
    0.0981   28.9514  -27.6513 H   0  0  0  0  0  0  0  0  0  0  0  0
   -0.9733   30.3932  -27.6513 H   0  0  0  0  0  0  0  0  0  0  0  0
   -1.1280   30.0905  -23.8325 H   0  0  0  0  0  0  0  0  0  0  0  0
   -0.7420   31.3674  -25.0356 H   0  0  0  0  0  0  0  0  0  0  0  0
   -2.3633   30.5939  -25.0356 H   0  0  0  0  0  0  0  0  0  0  0  0
   -0.1938   28.2825  -23.3942 H   0  0  0  0  0  0  0  0  0  0  0  0
   -0.2846   25.8675  -22.8060 H   0  0  0  0  0  0  0  0  0  0  0  0
   -0.9424   24.1823  -24.5189 H   0  0  0  0  0  0  0  0  0  0  0  0
   -2.1410   23.8470  -26.7690 H   0  0  0  0  0  0  0  0  0  0  0  0
   -0.7353   23.6506  -30.9070 H   0  0  0  0  0  0  0  0  0  0  0  0
   -2.1242   22.2341  -33.3658 H   0  0  0  0  0  0  0  0  0  0  0  0
   -1.3123   20.6738  -33.7601 H   0  0  0  0  0  0  0  0  0  0  0  0
   -2.5298   18.6612  -33.9450 H   0  0  0  0  0  0  0  0  0  0  0  0
   -4.7261   17.4786  -33.9461 H   0  0  0  0  0  0  0  0  0  0  0  0
   -7.1367   17.4904  -33.5365 H   0  0  0  0  0  0  0  0  0  0  0  0
   -9.1800   18.6743  -32.7368 H   0  0  0  0  0  0  0  0  0  0  0  0
   -6.8034   22.1585  -31.7534 H   0  0  0  0  0  0  0  0  0  0  0  0
   -4.4006   22.1663  -32.2264 H   0  0  0  0  0  0  0  0  0  0  0  0
   -0.3170   19.3850  -33.3986 H   0  0  0  0  0  0  0  0  0  0  0  0
    1.6085   17.8763  -32.9496 H   0  0  0  0  0  0  0  0  0  0  0  0
    2.6748   17.8470  -30.7034 H   0  0  0  0  0  0  0  0  0  0  0  0
    1.8350   19.3421  -28.9000 H   0  0  0  0  0  0  0  0  0  0  0  0
   -0.2827   22.0850  -26.5708 H   0  0  0  0  0  0  0  0  0  0  0  0
   -1.5768   21.1584  -24.6455 H   0  0  0  0  0  0  0  0  0  0  0  0
   -2.8725   19.0334  -24.9100 H   0  0  0  0  0  0  0  0  0  0  0  0
   -2.8850   17.8461  -27.1124 H   0  0  0  0  0  0  0  0  0  0  0  0
   -1.6193   18.7913  -29.0494 H   0  0  0  0  0  0  0  0  0  0  0  0
   -1.5388   27.3434  -27.4116 H   0  0  0  0  0  0  0  0  0  0  0  0
  1  2  1  0
  2  3  1  0
  2  4  1  0
  4  5  2  0
  5  6  1  0
  6  7  2  0
  7  8  1  0
  8  9  1  0
  9 10  1  0
 10 11  2  0
 10 12  1  0
 12 13  1  0
 13 14  1  0
 14 15  2  0
 14 16  1  0
 16 17  1  0
 17 18  1  0
 18 19  2  0
 19 20  1  0
 20 21  2  0
 21 22  1  0
 22 23  2  0
 23 24  1  0
 24 25  1  0
 25 26  3  0
 24 27  2  0
 27 28  1  0
 28 29  2  0
 16 30  1  0
 30 31  2  0
 31 32  1  0
 32 33  2  0
 33 34  1  0
 34 35  2  0
 35 36  1  0
 36 37  1  0
 37 38  2  0
 38 39  1  0
 39 40  2  0
 40 41  1  0
 41 42  2  0
 36 43  1  0
 43 44  2  0
  8 45  2  0
 45  4  1  0
 43 13  1  0
 29 18  1  0
 35 30  1  0
 42 37  1  0
 28 21  1  0
  1 46  1  0
  1 47  1  0
  1 48  1  0
  3 49  1  0
  3 50  1  0
  3 51  1  0
  5 52  1  0
  6 53  1  0
  7 54  1  0
  9 55  1  0
 13 56  1  6
 17 57  1  0
 17 58  1  0
 19 59  1  0
 20 60  1  0
 22 61  1  0
 23 62  1  0
 27 63  1  0
 29 64  1  0
 31 65  1  0
 32 66  1  0
 33 67  1  0
 34 68  1  0
 38 69  1  0
 39 70  1  0
 40 71  1  0
 41 72  1  0
 42 73  1  0
 45 74  1  0
M  CHG  1  12  -1
M  END
>  <UniqueID>  (7) 
7

>  <SMILES>  (7) 
CN(C)c1cccc(NC(=O)[N-][C@@H]2C(=O)N(Cc3ccc4ccc(C#N)cc4c3)c3ccccc3N(c3ccccc3)C2=O)c1

>  <Energy>  (7) 
118.04775380977404

>  <Genealogy>  (7) 
CN(C)c1cccc(NC(=O)[N-]C2C(=O)N(Cc3ccc4ccc(C#N)cc4c3)c3ccccc3N(c3ccccc3)C2=O)c1 (protonated)
CN(C)c1cccc(NC(=O)[N-][C@@H]2C(=O)N(Cc3ccc4ccc(C#N)cc4c3)c3ccccc3N(c3ccccc3)C2=O)c1 (chirality)
CN(C)c1cccc(NC(=O)[N-][C@@H]2C(=O)N(Cc3ccc4ccc(C#N)cc4c3)c3ccccc3N(c3ccccc3)C2=O)c1 (3D coordinates assigned)
CN(C)c1cccc(NC(=O)[N-][C@@H]2C(=O)N(Cc3ccc4ccc(C#N)cc4c3)c3ccccc3N(c3ccccc3)C2=O)c1 (nonaromatic ring conformer: 118.04775380977404 kcal/mol)

>  <smiles>  (7) 
CN(C)c1cccc(NC(=O)NC2C(=O)N(Cc3ccc4ccc(C#N)cc4c3)c3ccccc3N(c3ccccc3)C2=O)c1

>  <score_type>  (7) 
oracle

>  <origin>  (7) 
adgpu

>  <m_score__min__energy>  (7) 
-9.1999999999999993

>  <m_primary>  (7) 
energy

$$$$
7:0
     RDKit          3D

 48 50  0  0  0  0  0  0  0  0999 V2000
   -0.5540   21.1690  -29.9260 C   0  0  0  0  0  0  0  0  0  0  0  0
   -1.2980   22.3310  -29.2720 C   0  0  2  0  0  0  0  0  0  0  0  0
   -2.6560   22.5640  -29.9560 C   0  0  0  0  0  0  0  0  0  0  0  0
   -3.2190   23.8490  -29.5280 N   0  0  0  0  0  0  0  0  0  0  0  0
   -4.2820   24.4650  -30.2780 C   0  0  0  0  0  0  0  0  0  0  0  0
   -4.2400   25.7030  -30.5130 O   0  0  0  0  0  0  0  0  0  0  0  0
   -5.4190   23.6730  -30.7950 C   0  0  0  0  0  0  0  0  0  0  0  0
   -5.8450   23.8150  -32.1250 C   0  0  0  0  0  0  0  0  0  0  0  0
   -6.9090   23.0540  -32.6140 C   0  0  0  0  0  0  0  0  0  0  0  0
   -7.5600   22.1220  -31.7850 C   0  0  0  0  0  0  0  0  0  0  0  0
   -8.6560   21.3170  -32.2560 N   0  0  0  0  0  0  0  0  0  0  0  0
   -8.6660   19.5830  -32.2350 S   0  0  0  0  0  0  0  0  0  0  0  0
   -8.8070   19.1040  -30.8180 O   0  0  0  0  0  0  0  0  0  0  0  0
   -9.8380   19.0880  -33.0370 O   0  0  0  0  0  0  0  0  0  0  0  0
   -7.1540   18.9630  -32.8940 C   0  0  0  0  0  0  0  0  0  0  0  0
   -7.0930   17.6520  -33.3870 C   0  0  0  0  0  0  0  0  0  0  0  0
   -5.8920   17.1510  -33.8990 C   0  0  0  0  0  0  0  0  0  0  0  0
   -4.7500   17.9580  -33.9250 C   0  0  0  0  0  0  0  0  0  0  0  0
   -4.8090   19.2670  -33.4400 C   0  0  0  0  0  0  0  0  0  0  0  0
   -6.0080   19.7710  -32.9260 C   0  0  0  0  0  0  0  0  0  0  0  0
   -7.1240   21.9740  -30.4590 C   0  0  0  0  0  0  0  0  0  0  0  0
   -6.0590   22.7360  -29.9710 C   0  0  0  0  0  0  0  0  0  0  0  0
   -2.5800   24.5600  -28.4180 C   0  0  0  0  0  0  0  0  0  0  0  0
   -1.0410   24.5900  -28.6200 C   0  0  1  0  0  0  0  0  0  0  0  0
   -0.3050   24.6990  -27.2830 C   0  0  0  0  0  0  0  0  0  0  0  0
   -0.5100   23.5020  -29.3770 O   0  0  0  0  0  0  0  0  0  0  0  0
   -0.1358   20.5159  -29.1459 H   0  0  0  0  0  0  0  0  0  0  0  0
   -1.2515   20.5927  -30.5516 H   0  0  0  0  0  0  0  0  0  0  0  0
    0.2613   21.5613  -30.5516 H   0  0  0  0  0  0  0  0  0  0  0  0
   -1.4780   22.0878  -28.2144 H   0  0  0  0  0  0  0  0  0  0  0  0
   -2.5177   22.5722  -31.0472 H   0  0  0  0  0  0  0  0  0  0  0  0
   -3.3461   21.7553  -29.6737 H   0  0  0  0  0  0  0  0  0  0  0  0
   -5.3367   24.5313  -32.7872 H   0  0  0  0  0  0  0  0  0  0  0  0
   -7.2405   23.1842  -33.6548 H   0  0  0  0  0  0  0  0  0  0  0  0
   -9.5320   21.7900  -32.5730 H   0  0  0  0  0  0  0  0  0  0  0  0
   -7.9909   17.0167  -33.3711 H   0  0  0  0  0  0  0  0  0  0  0  0
   -5.8454   16.1208  -34.2818 H   0  0  0  0  0  0  0  0  0  0  0  0
   -3.8057   17.5623  -34.3271 H   0  0  0  0  0  0  0  0  0  0  0  0
   -3.9111   19.9020  -33.4625 H   0  0  0  0  0  0  0  0  0  0  0  0
   -6.0524   20.8024  -32.5463 H   0  0  0  0  0  0  0  0  0  0  0  0
   -7.6252   21.2516  -29.7979 H   0  0  0  0  0  0  0  0  0  0  0  0
   -5.7204   22.5998  -28.9333 H   0  0  0  0  0  0  0  0  0  0  0  0
   -2.9620   25.5908  -28.3780 H   0  0  0  0  0  0  0  0  0  0  0  0
   -2.8098   24.0393  -27.4767 H   0  0  0  0  0  0  0  0  0  0  0  0
   -0.8649   25.4932  -29.2226 H   0  0  0  0  0  0  0  0  0  0  0  0
   -1.0251   24.5924  -26.4583 H   0  0  0  0  0  0  0  0  0  0  0  0
    0.4512   23.9030  -27.2148 H   0  0  0  0  0  0  0  0  0  0  0  0
    0.1880   25.6800  -27.2148 H   0  0  0  0  0  0  0  0  0  0  0  0
  1  2  1  0
  2  3  1  0
  3  4  1  0
  4  5  1  0
  5  6  2  0
  5  7  1  0
  7  8  2  0
  8  9  1  0
  9 10  2  0
 10 11  1  0
 11 12  1  0
 12 13  2  0
 12 14  2  0
 12 15  1  0
 15 16  2  0
 16 17  1  0
 17 18  2  0
 18 19  1  0
 19 20  2  0
 10 21  1  0
 21 22  2  0
  4 23  1  0
 23 24  1  0
 24 25  1  0
 24 26  1  0
 26  2  1  0
 22  7  1  0
 20 15  1  0
  1 27  1  0
  1 28  1  0
  1 29  1  0
  2 30  1  1
  3 31  1  0
  3 32  1  0
  8 33  1  0
  9 34  1  0
 11 35  1  0
 16 36  1  0
 17 37  1  0
 18 38  1  0
 19 39  1  0
 20 40  1  0
 21 41  1  0
 22 42  1  0
 23 43  1  0
 23 44  1  0
 24 45  1  6
 25 46  1  0
 25 47  1  0
 25 48  1  0
M  END
>  <UniqueID>  (8) 
8

>  <SMILES>  (8) 
C[C@@H]1CN(C(=O)c2ccc(NS(=O)(=O)c3ccccc3)cc2)C[C@@H](C)O1

>  <Energy>  (8) 
60.76656504447177

>  <Genealogy>  (8) 
C[C@@H]1CN(C(=O)c2ccc(NS(=O)(=O)c3ccccc3)cc2)C[C@@H](C)O1 (chirality)
C[C@@H]1CN(C(=O)c2ccc(NS(=O)(=O)c3ccccc3)cc2)C[C@@H](C)O1 (3D coordinates assigned)
C[C@@H]1CN(C(=O)c2ccc(NS(=O)(=O)c3ccccc3)cc2)C[C@@H](C)O1 (nonaromatic ring conformer: 60.76656504447177 kcal/mol)

>  <smiles>  (8) 
CC1CN(C(=O)c2ccc(NS(=O)(=O)c3ccccc3)cc2)CC(C)O1

>  <score_type>  (8) 
oracle

>  <origin>  (8) 
adgpu

>  <m_score__min__energy>  (8) 
-9.7899999999999991

>  <m_primary>  (8) 
energy

$$$$
8:0
     RDKit          3D

 35 36  0  0  0  0  0  0  0  0999 V2000
   -2.8530   21.6660  -29.1250 C   0  0  0  0  0  0  0  0  0  0  0  0
   -3.4120   22.8700  -28.3740 C   0  0  0  0  0  0  0  0  0  0  0  0
   -3.9160   23.9050  -29.3350 C   0  0  0  0  0  0  0  0  0  0  0  0
   -3.1430   24.9010  -29.8230 N   0  0  0  0  0  0  0  0  0  0  0  0
   -3.8670   25.5910  -30.6900 N   0  0  0  0  0  0  0  0  0  0  0  0
   -5.0890   25.0420  -30.7720 C   0  0  0  0  0  0  0  0  0  0  0  0
   -6.0030   25.4630  -31.5270 O   0  0  0  0  0  0  0  0  0  0  0  0
   -5.1760   23.9610  -29.9210 C   0  0  0  0  0  0  0  0  0  0  0  0
   -6.3430   23.0330  -29.7350 C   0  0  0  0  0  0  0  0  0  0  0  0
   -6.4440   22.0610  -30.8810 C   0  0  0  0  0  0  0  0  0  0  0  0
   -7.6800   21.4820  -31.2040 C   0  0  0  0  0  0  0  0  0  0  0  0
   -7.7870   20.5870  -32.2790 C   0  0  0  0  0  0  0  0  0  0  0  0
   -9.1210   20.0080  -32.6460 C   0  0  0  0  0  0  0  0  0  0  0  0
   -6.6530   20.2940  -33.0510 C   0  0  0  0  0  0  0  0  0  0  0  0
   -5.4060   20.8640  -32.7320 C   0  0  0  0  0  0  0  0  0  0  0  0
   -4.2440   20.5940  -33.4700 O   0  0  0  0  0  0  0  0  0  0  0  0
   -2.9850   21.2190  -33.2450 C   0  0  0  0  0  0  0  0  0  0  0  0
   -5.3120   21.7380  -31.6440 C   0  0  0  0  0  0  0  0  0  0  0  0
   -2.5036   20.9134  -28.4029 H   0  0  0  0  0  0  0  0  0  0  0  0
   -3.6408   21.2299  -29.7569 H   0  0  0  0  0  0  0  0  0  0  0  0
   -2.0115   21.9864  -29.7569 H   0  0  0  0  0  0  0  0  0  0  0  0
   -4.2407   22.5411  -27.7297 H   0  0  0  0  0  0  0  0  0  0  0  0
   -2.6091   23.3123  -27.7659 H   0  0  0  0  0  0  0  0  0  0  0  0
   -3.5200   26.4180  -31.2240 H   0  0  0  0  0  0  0  0  0  0  0  0
   -6.2117   22.4725  -28.7977 H   0  0  0  0  0  0  0  0  0  0  0  0
   -7.2655   23.6310  -29.6987 H   0  0  0  0  0  0  0  0  0  0  0  0
   -8.5717   21.7314  -30.6102 H   0  0  0  0  0  0  0  0  0  0  0  0
   -9.6799   19.7654  -31.7302 H   0  0  0  0  0  0  0  0  0  0  0  0
   -9.6883   20.7409  -33.2385 H   0  0  0  0  0  0  0  0  0  0  0  0
   -8.9731   19.0931  -33.2385 H   0  0  0  0  0  0  0  0  0  0  0  0
   -6.7388   19.6142  -33.9115 H   0  0  0  0  0  0  0  0  0  0  0  0
   -2.8075   21.3071  -32.1630 H   0  0  0  0  0  0  0  0  0  0  0  0
   -2.1879   20.6120  -33.6991 H   0  0  0  0  0  0  0  0  0  0  0  0
   -2.9866   22.2209  -33.6991 H   0  0  0  0  0  0  0  0  0  0  0  0
   -4.3380   22.1777  -31.3833 H   0  0  0  0  0  0  0  0  0  0  0  0
  1  2  1  0
  2  3  1  0
  3  4  1  0
  4  5  1  0
  5  6  1  0
  6  7  2  0
  6  8  1  0
  8  9  1  0
  9 10  1  0
 10 11  2  0
 11 12  1  0
 12 13  1  0
 12 14  2  0
 14 15  1  0
 15 16  1  0
 16 17  1  0
 15 18  2  0
  8  3  2  0
 18 10  1  0
  1 19  1  0
  1 20  1  0
  1 21  1  0
  2 22  1  0
  2 23  1  0
  5 24  1  0
  9 25  1  0
  9 26  1  0
 11 27  1  0
 13 28  1  0
 13 29  1  0
 13 30  1  0
 14 31  1  0
 17 32  1  0
 17 33  1  0
 17 34  1  0
 18 35  1  0
M  CHG  1   4  -1
M  END
>  <UniqueID>  (9) 
9

>  <SMILES>  (9) 
CCc1[n-][nH]c(=O)c1Cc1cc(C)cc(OC)c1

>  <Energy>  (9) 
58.999614879236546

>  <Genealogy>  (9) 
CCc1[n-][nH]c(=O)c1Cc1cc(C)cc(OC)c1 (protonated)
CCc1[n-][nH]c(=O)c1Cc1cc(C)cc(OC)c1 (3D coordinates assigned)
CCc1[n-][nH]c(=O)c1Cc1cc(C)cc(OC)c1 (optimized conformer: 58.999614879236546 kcal/mol)

>  <smiles>  (9) 
CCc1[nH][nH]c(=O)c1Cc1cc(C)cc(OC)c1

>  <score_type>  (9) 
oracle

>  <origin>  (9) 
adgpu

>  <m_score__min__energy>  (9) 
-8.4000000000000004

>  <m_primary>  (9) 
energy

$$$$
9:0
     RDKit          3D

 28 30  0  0  0  0  0  0  0  0999 V2000
   -3.1321   23.1085  -30.5070 H   0  0  0  0  0  0  0  0  0  0  0  0
   -4.1930   23.2820  -30.7400 C   0  0  0  0  0  0  0  0  0  0  0  0
   -5.0340   22.2000  -31.0150 C   0  0  0  0  0  0  0  0  0  0  0  0
   -4.6266   21.1782  -31.0124 H   0  0  0  0  0  0  0  0  0  0  0  0
   -6.3920   22.4060  -31.2940 C   0  0  0  0  0  0  0  0  0  0  0  0
   -7.2110   21.2650  -31.6010 N   0  0  0  0  0  0  0  0  0  0  0  0
   -6.8420   20.1960  -32.2410 C   0  0  0  0  0  0  0  0  0  0  0  0
   -5.6280   20.0240  -32.8110 N   0  0  0  0  0  0  0  0  0  0  0  0
   -5.5130   18.8600  -33.4480 N   0  0  0  0  0  0  0  0  0  0  0  0
   -6.6390   18.1150  -33.3940 C   0  0  0  0  0  0  0  0  0  0  0  0
   -6.7970   16.5030  -34.1600 S   0  0  0  0  0  0  0  0  0  0  0  0
   -5.0300   16.0780  -33.9830 C   0  0  0  0  0  0  0  0  0  0  0  0
   -4.5034   16.9155  -33.5021 H   0  0  0  0  0  0  0  0  0  0  0  0
   -4.6101   15.8868  -34.9815 H   0  0  0  0  0  0  0  0  0  0  0  0
   -4.8640   14.8480  -33.1470 C   0  0  0  0  0  0  0  0  0  0  0  0
   -4.3050   14.8490  -31.9820 N   0  0  0  0  0  0  0  0  0  0  0  0
   -4.4000   13.5020  -31.5190 C   0  0  0  0  0  0  0  0  0  0  0  0
   -3.9480   13.1310  -30.4050 O   0  0  0  0  0  0  0  0  0  0  0  0
   -5.0540   12.6100  -32.4220 N   0  0  0  0  0  0  0  0  0  0  0  0
   -5.3490   13.5160  -33.4720 C   0  0  0  0  0  0  0  0  0  0  0  0
   -5.9510   13.1910  -34.5290 O   0  0  0  0  0  0  0  0  0  0  0  0
   -7.8600   18.8860  -32.5250 S   0  0  0  0  0  0  0  0  0  0  0  0
   -6.8900   23.7230  -31.3420 C   0  0  0  0  0  0  0  0  0  0  0  0
   -7.9450   23.9012  -31.5973 H   0  0  0  0  0  0  0  0  0  0  0  0
   -6.0470   24.8050  -31.0660 C   0  0  0  0  0  0  0  0  0  0  0  0
   -6.4444   25.8305  -31.0889 H   0  0  0  0  0  0  0  0  0  0  0  0
   -4.7000   24.5850  -30.7610 C   0  0  0  0  0  0  0  0  0  0  0  0
   -3.8660   25.6610  -30.4860 O   0  0  0  0  0  0  0  0  0  0  0  0
  1  2  1  0
  2  3  2  0
  3  4  1  0
  3  5  1  0
  5  6  1  0
  6  7  2  0
  7  8  1  0
  8  9  1  0
  9 10  2  0
 10 11  1  0
 11 12  1  0
 12 13  1  0
 12 14  1  0
 12 15  1  0
 15 16  2  0
 16 17  1  0
 17 18  2  0
 17 19  1  0
 19 20  1  0
 20 21  2  0
 10 22  1  0
  5 23  2  0
 23 24  1  0
 23 25  1  0
 25 26  1  0
 25 27  2  0
 27 28  1  0
 27  2  1  0
 22  7  1  0
 20 15  1  0
M  CHG  3   8  -1  19  -1  28  -1
M  END
>  <UniqueID>  (10) 
10

>  <SMILES>  (10) 
O=C1N=C(CSc2n[n-]/c(=N\c3ccc([O-])cc3)s2)C(=O)[N-]1

>  <Energy>  (10) 
92.33589106616057

>  <Genealogy>  (10) 
O=C1N=C(CSc2n[n-]c(=Nc3ccc([O-])cc3)s2)C(=O)[N-]1 (protonated)
O=C1N=C(CSc2n[n-]/c(=N\c3ccc([O-])cc3)s2)C(=O)[N-]1 (cis-trans isomerization)
O=C1N=C(CSc2n[n-]/c(=N\c3ccc([O-])cc3)s2)C(=O)[N-]1 (3D coordinates assigned)
O=C1N=C(CSc2n[n-]/c(=N\c3ccc([O-])cc3)s2)C(=O)[N-]1 (nonaromatic ring conformer: 92.33589106616057 kcal/mol)

>  <smiles>  (10) 
O=C1N=C(CSc2n[nH]c(=Nc3ccc(O)cc3)s2)C(=O)N1

>  <score_type>  (10) 
oracle

>  <origin>  (10) 
adgpu

>  <m_score__min__energy>  (10) 
-9.8300000000000001

>  <m_primary>  (10) 
energy

$$$$
10:0
     RDKit          3D

 49 51  0  0  0  0  0  0  0  0999 V2000
    2.5650   21.7400  -34.9360 C   0  0  0  0  0  0  0  0  0  0  0  0
    1.1010   21.5420  -34.6970 C   0  0  0  0  0  0  0  0  0  0  0  0
    0.2850   22.3770  -35.1730 O   0  0  0  0  0  0  0  0  0  0  0  0
    0.6460   20.4760  -33.8480 N   0  0  0  0  0  0  0  0  0  0  0  0
   -0.7200   20.0240  -33.7700 C   0  0  0  0  0  0  0  0  0  0  0  0
   -1.8000   20.9310  -33.7510 C   0  0  0  0  0  0  0  0  0  0  0  0
   -3.1190   20.4620  -33.7080 C   0  0  0  0  0  0  0  0  0  0  0  0
   -3.3800   19.0840  -33.7040 C   0  0  0  0  0  0  0  0  0  0  0  0
   -5.0450   18.4990  -33.6680 S   0  0  0  0  0  0  0  0  0  0  0  0
   -5.0700   16.9970  -33.5540 O   0  0  0  0  0  0  0  0  0  0  0  0
   -5.7180   18.8830  -34.9560 O   0  0  0  0  0  0  0  0  0  0  0  0
   -5.9410   19.1810  -32.3460 N   0  0  0  0  0  0  0  0  0  0  0  0
   -5.7630   20.5210  -31.8720 C   0  0  0  0  0  0  0  0  0  0  0  0
   -6.7140   21.5160  -32.1180 C   0  0  0  0  0  0  0  0  0  0  0  0
   -6.5270   22.8090  -31.6260 C   0  0  0  0  0  0  0  0  0  0  0  0
   -5.3770   23.1340  -30.8940 C   0  0  0  0  0  0  0  0  0  0  0  0
   -5.1580   24.7920  -30.3150 S   0  0  0  0  0  0  0  0  0  0  0  0
   -3.5070   25.2820  -30.4870 N   0  0  0  0  0  0  0  0  0  0  0  0
   -5.5320   24.8730  -28.8620 O   0  0  0  0  0  0  0  0  0  0  0  0
   -6.0290   25.7180  -31.1150 O   0  0  0  0  0  0  0  0  0  0  0  0
   -4.4060   22.1370  -30.6490 C   0  0  0  0  0  0  0  0  0  0  0  0
   -3.2130   22.4360  -29.8940 N   0  0  0  0  0  0  0  0  0  0  0  0
   -2.3850   21.4350  -29.2690 C   0  0  0  0  0  0  0  0  0  0  0  0
   -1.2880   20.9120  -29.9700 C   0  0  0  0  0  0  0  0  0  0  0  0
   -0.4890   19.9170  -29.3950 C   0  0  0  0  0  0  0  0  0  0  0  0
   -0.7850   19.4280  -28.1200 C   0  0  0  0  0  0  0  0  0  0  0  0
   -1.8840   19.9270  -27.4210 C   0  0  0  0  0  0  0  0  0  0  0  0
   -2.6880   20.9200  -27.9930 C   0  0  0  0  0  0  0  0  0  0  0  0
   -4.6290   20.8280  -31.1150 C   0  0  0  0  0  0  0  0  0  0  0  0
   -2.3090   18.1770  -33.7460 C   0  0  0  0  0  0  0  0  0  0  0  0
   -0.9900   18.6450  -33.7810 C   0  0  0  0  0  0  0  0  0  0  0  0
    3.0878   21.8107  -33.9708 H   0  0  0  0  0  0  0  0  0  0  0  0
    2.9620   20.8874  -35.5064 H   0  0  0  0  0  0  0  0  0  0  0  0
    2.7213   22.6675  -35.5064 H   0  0  0  0  0  0  0  0  0  0  0  0
    1.3440   20.0490  -33.1960 H   0  0  0  0  0  0  0  0  0  0  0  0
   -1.6051   22.0134  -33.7701 H   0  0  0  0  0  0  0  0  0  0  0  0
   -3.9539   21.1776  -33.6772 H   0  0  0  0  0  0  0  0  0  0  0  0
   -7.6149   21.2785  -32.7027 H   0  0  0  0  0  0  0  0  0  0  0  0
   -7.2891   23.5795  -31.8146 H   0  0  0  0  0  0  0  0  0  0  0  0
   -3.4880   26.0420  -31.2040 H   0  0  0  0  0  0  0  0  0  0  0  0
   -2.9450   23.4390  -29.7740 H   0  0  0  0  0  0  0  0  0  0  0  0
   -1.0544   21.2862  -30.9777 H   0  0  0  0  0  0  0  0  0  0  0  0
    0.3743   19.5189  -29.9484 H   0  0  0  0  0  0  0  0  0  0  0  0
   -0.1519   18.6503  -27.6680 H   0  0  0  0  0  0  0  0  0  0  0  0
   -2.1193   19.5397  -26.4187 H   0  0  0  0  0  0  0  0  0  0  0  0
   -3.5614   21.3004  -27.4431 H   0  0  0  0  0  0  0  0  0  0  0  0
   -3.9018   20.0367  -30.8805 H   0  0  0  0  0  0  0  0  0  0  0  0
   -2.5070   17.0950  -33.7514 H   0  0  0  0  0  0  0  0  0  0  0  0
   -0.1576   17.9268  -33.8174 H   0  0  0  0  0  0  0  0  0  0  0  0
  1  2  1  0
  2  3  2  0
  2  4  1  0
  4  5  1  0
  5  6  2  0
  6  7  1  0
  7  8  2  0
  8  9  1  0
  9 10  2  0
  9 11  2  0
  9 12  1  0
 12 13  1  0
 13 14  2  0
 14 15  1  0
 15 16  2  0
 16 17  1  0
 17 18  1  0
 17 19  2  0
 17 20  2  0
 16 21  1  0
 21 22  1  0
 22 23  1  0
 23 24  2  0
 24 25  1  0
 25 26  2  0
 26 27  1  0
 27 28  2  0
 21 29  2  0
  8 30  1  0
 30 31  2  0
 31  5  1  0
 29 13  1  0
 28 23  1  0
  1 32  1  0
  1 33  1  0
  1 34  1  0
  4 35  1  0
  6 36  1  0
  7 37  1  0
 14 38  1  0
 15 39  1  0
 18 40  1  0
 22 41  1  0
 24 42  1  0
 25 43  1  0
 26 44  1  0
 27 45  1  0
 28 46  1  0
 29 47  1  0
 30 48  1  0
 31 49  1  0
M  CHG  2  12  -1  18  -1
M  END
>  <UniqueID>  (11) 
11

>  <SMILES>  (11) 
CC(=O)Nc1ccc(S(=O)(=O)[N-]c2ccc(S([NH-])(=O)=O)c(Nc3ccccc3)c2)cc1

>  <Energy>  (11) 
67.13548098577492

>  <Genealogy>  (11) 
CC(=O)Nc1ccc(S(=O)(=O)[N-]c2ccc(S([NH-])(=O)=O)c(Nc3ccccc3)c2)cc1 (protonated)
CC(=O)Nc1ccc(S(=O)(=O)[N-]c2ccc(S([NH-])(=O)=O)c(Nc3ccccc3)c2)cc1 (3D coordinates assigned)
CC(=O)Nc1ccc(S(=O)(=O)[N-]c2ccc(S([NH-])(=O)=O)c(Nc3ccccc3)c2)cc1 (optimized conformer: 67.13548098577492 kcal/mol)

>  <smiles>  (11) 
CC(=O)Nc1ccc(S(=O)(=O)Nc2ccc(S(N)(=O)=O)c(Nc3ccccc3)c2)cc1

>  <score_type>  (11) 
oracle

>  <origin>  (11) 
adgpu

>  <m_score__min__energy>  (11) 
-11.800000000000001

>  <m_primary>  (11) 
energy

$$$$
11:0
     RDKit          3D

 60 64  0  0  0  0  0  0  0  0999 V2000
   -8.0720   22.2990  -30.1600 C   0  0  0  0  0  0  0  0  0  0  0  0
   -8.2530   21.9290  -31.8860 S   0  0  0  0  0  0  0  0  0  0  0  0
   -7.5990   23.0080  -32.7010 O   0  0  0  0  0  0  0  0  0  0  0  0
   -9.7130   21.8730  -32.2390 O   0  0  0  0  0  0  0  0  0  0  0  0
   -7.5030   20.3750  -32.2310 C   0  0  0  0  0  0  0  0  0  0  0  0
   -6.4990   20.2890  -33.2050 C   0  0  0  0  0  0  0  0  0  0  0  0
   -5.9160   19.0540  -33.5040 C   0  0  0  0  0  0  0  0  0  0  0  0
   -6.3380   17.8930  -32.8380 C   0  0  0  0  0  0  0  0  0  0  0  0
   -5.6230   16.3360  -33.2370 S   0  0  0  0  0  0  0  0  0  0  0  0
   -5.3800   15.5620  -31.9710 O   0  0  0  0  0  0  0  0  0  0  0  0
   -6.5600   15.5500  -34.1100 O   0  0  0  0  0  0  0  0  0  0  0  0
   -4.1060   16.5800  -34.0750 C   0  0  0  0  0  0  0  0  0  0  0  0
   -3.9390   16.3750  -35.3930 N   0  0  0  0  0  0  0  0  0  0  0  0
   -2.6830   16.6810  -35.6660 N   0  0  0  0  0  0  0  0  0  0  0  0
   -2.1240   17.0700  -34.5040 C   0  0  0  0  0  0  0  0  0  0  0  0
   -0.6900   17.4650  -34.3640 C   0  0  0  0  0  0  0  0  0  0  0  0
   -0.4490   19.1700  -34.9710 S   0  0  0  0  0  0  0  0  0  0  0  0
   -1.2320   19.9360  -33.5550 C   0  0  0  0  0  0  0  0  0  0  0  0
   -0.7770   19.6670  -32.3050 N   0  0  0  0  0  0  0  0  0  0  0  0
   -1.3550   20.2250  -31.2120 C   0  0  0  0  0  0  0  0  0  0  0  0
   -0.9110   19.9460  -30.0680 O   0  0  0  0  0  0  0  0  0  0  0  0
   -2.4380   21.1080  -31.3660 C   0  0  0  0  0  0  0  0  0  0  0  0
   -2.9130   21.3460  -32.6690 C   0  0  0  0  0  0  0  0  0  0  0  0
   -2.2870   20.7710  -33.7290 N   0  0  0  0  0  0  0  0  0  0  0  0
   -4.0580   22.2870  -32.9210 C   0  0  0  0  0  0  0  0  0  0  0  0
   -4.8560   22.5780  -31.6480 C   0  0  0  0  0  0  0  0  0  0  0  0
   -3.9270   22.8860  -30.5500 N   0  0  0  0  0  0  0  0  0  0  0  0
   -4.5890   23.5360  -29.3950 C   0  0  0  0  0  0  0  0  0  0  0  0
   -3.6320   24.2560  -28.4640 C   0  0  0  0  0  0  0  0  0  0  0  0
   -2.3520   24.6320  -28.9070 C   0  0  0  0  0  0  0  0  0  0  0  0
   -1.4780   25.3070  -28.0480 C   0  0  0  0  0  0  0  0  0  0  0  0
   -1.8710   25.6020  -26.7390 C   0  0  0  0  0  0  0  0  0  0  0  0
   -3.1360   25.2200  -26.2860 C   0  0  0  0  0  0  0  0  0  0  0  0
   -4.0140   24.5490  -27.1430 C   0  0  0  0  0  0  0  0  0  0  0  0
   -3.1500   21.6920  -30.1680 C   0  0  0  0  0  0  0  0  0  0  0  0
   -2.9870   17.0180  -33.4700 N   0  0  0  0  0  0  0  0  0  0  0  0
   -7.3380   17.9830  -31.8600 C   0  0  0  0  0  0  0  0  0  0  0  0
   -7.9220   19.2180  -31.5600 C   0  0  0  0  0  0  0  0  0  0  0  0
   -8.4779   21.4693  -29.5626 H   0  0  0  0  0  0  0  0  0  0  0  0
   -7.0062   22.4339  -29.9237 H   0  0  0  0  0  0  0  0  0  0  0  0
   -8.6197   23.2232  -29.9237 H   0  0  0  0  0  0  0  0  0  0  0  0
   -6.1692   21.1947  -33.7351 H   0  0  0  0  0  0  0  0  0  0  0  0
   -5.1234   18.9920  -34.2642 H   0  0  0  0  0  0  0  0  0  0  0  0
   -0.3992   17.4111  -33.3045 H   0  0  0  0  0  0  0  0  0  0  0  0
   -0.0673   16.7794  -34.9574 H   0  0  0  0  0  0  0  0  0  0  0  0
   -3.6589   23.2339  -33.3135 H   0  0  0  0  0  0  0  0  0  0  0  0
   -4.7360   21.8091  -33.6435 H   0  0  0  0  0  0  0  0  0  0  0  0
   -5.5200   23.4381  -31.8194 H   0  0  0  0  0  0  0  0  0  0  0  0
   -5.4598   21.6976  -31.3830 H   0  0  0  0  0  0  0  0  0  0  0  0
   -5.3153   24.2676  -29.7787 H   0  0  0  0  0  0  0  0  0  0  0  0
   -5.0650   22.7366  -28.8081 H   0  0  0  0  0  0  0  0  0  0  0  0
   -2.0362   24.3945  -29.9336 H   0  0  0  0  0  0  0  0  0  0  0  0
   -0.4806   25.6059  -28.4028 H   0  0  0  0  0  0  0  0  0  0  0  0
   -1.1838   26.1351  -26.0656 H   0  0  0  0  0  0  0  0  0  0  0  0
   -3.4418   25.4472  -25.2541 H   0  0  0  0  0  0  0  0  0  0  0  0
   -5.0087   24.2489  -26.7817 H   0  0  0  0  0  0  0  0  0  0  0  0
   -2.4059   21.9740  -29.4086 H   0  0  0  0  0  0  0  0  0  0  0  0
   -3.8407   20.9362  -29.7659 H   0  0  0  0  0  0  0  0  0  0  0  0
   -7.6649   17.0785  -31.3261 H   0  0  0  0  0  0  0  0  0  0  0  0
   -8.7112   19.2813  -30.7964 H   0  0  0  0  0  0  0  0  0  0  0  0
  1  2  1  0
  2  3  2  0
  2  4  2  0
  2  5  1  0
  5  6  2  0
  6  7  1  0
  7  8  2  0
  8  9  1  0
  9 10  2  0
  9 11  2  0
  9 12  1  0
 12 13  2  0
 13 14  1  0
 14 15  1  0
 15 16  1  0
 16 17  1  0
 17 18  1  0
 18 19  2  0
 19 20  1  0
 20 21  2  0
 20 22  1  0
 22 23  2  0
 23 24  1  0
 23 25  1  0
 25 26  1  0
 26 27  1  0
 27 28  1  0
 28 29  1  0
 29 30  2  0
 30 31  1  0
 31 32  2  0
 32 33  1  0
 33 34  2  0
 27 35  1  0
 15 36  2  0
  8 37  1  0
 37 38  2  0
 38  5  1  0
 36 12  1  0
 24 18  1  0
 34 29  1  0
 35 22  1  0
  1 39  1  0
  1 40  1  0
  1 41  1  0
  6 42  1  0
  7 43  1  0
 16 44  1  0
 16 45  1  0
 25 46  1  0
 25 47  1  0
 26 48  1  0
 26 49  1  0
 28 50  1  0
 28 51  1  0
 30 52  1  0
 31 53  1  0
 32 54  1  0
 33 55  1  0
 34 56  1  0
 35 57  1  0
 35 58  1  0
 37 59  1  0
 38 60  1  0
M  CHG  2  14  -1  24  -1
M  END
>  <UniqueID>  (12) 
12

>  <SMILES>  (12) 
CS(=O)(=O)c1ccc(S(=O)(=O)c2n[n-]c(CSc3nc(=O)c4c([n-]3)CCN(Cc3ccccc3)C4)n2)cc1

>  <Energy>  (12) 
98.20716894579758

>  <Genealogy>  (12) 
CS(=O)(=O)c1ccc(S(=O)(=O)c2n[n-]c(CSc3nc(=O)c4c([n-]3)CCN(Cc3ccccc3)C4)n2)cc1 (protonated)
CS(=O)(=O)c1ccc(S(=O)(=O)c2n[n-]c(CSc3nc(=O)c4c([n-]3)CCN(Cc3ccccc3)C4)n2)cc1 (3D coordinates assigned)
CS(=O)(=O)c1ccc(S(=O)(=O)c2n[n-]c(CSc3nc(=O)c4c([n-]3)CCN(Cc3ccccc3)C4)n2)cc1 (nonaromatic ring conformer: 98.20716894579758 kcal/mol)

>  <smiles>  (12) 
CS(=O)(=O)c1ccc(S(=O)(=O)c2n[nH]c(CSc3nc(=O)c4c([nH]3)CCN(Cc3ccccc3)C4)n2)cc1

>  <score_type>  (12) 
oracle

>  <origin>  (12) 
adgpu

>  <m_score__min__energy>  (12) 
-12

>  <m_primary>  (12) 
energy

$$$$
12:0
     RDKit          3D

 47 49  0  0  0  0  0  0  0  0999 V2000
   -0.6234   21.7211  -29.6947 H   0  0  0  0  0  0  0  0  0  0  0  0
   -0.8110   21.9550  -30.7530 C   0  0  0  0  0  0  0  0  0  0  0  0
   -1.0399   22.9874  -31.0559 H   0  0  0  0  0  0  0  0  0  0  0  0
   -0.7610   20.9890  -31.6670 C   0  0  0  0  0  0  0  0  0  0  0  0
   -0.5303   19.9639  -31.3416 H   0  0  0  0  0  0  0  0  0  0  0  0
   -1.0040   21.2420  -33.1040 C   0  0  0  0  0  0  0  0  0  0  0  0
   -0.0600   21.6470  -33.8400 O   0  0  0  0  0  0  0  0  0  0  0  0
   -2.3080   20.9850  -33.6810 N   0  0  1  0  0  0  0  0  0  0  0  0
   -2.3720   21.5030  -34.5900 H   0  0  0  0  0  0  0  0  0  0  0  0
   -2.4770   19.5360  -34.0030 C   0  0  0  0  0  0  0  0  0  0  0  0
   -2.9472   19.4499  -34.9937 H   0  0  0  0  0  0  0  0  0  0  0  0
   -1.4781   19.0759  -33.9803 H   0  0  0  0  0  0  0  0  0  0  0  0
   -3.3490   18.7900  -32.9810 C   0  0  0  0  0  0  0  0  0  0  0  0
   -3.4273   17.7336  -33.2774 H   0  0  0  0  0  0  0  0  0  0  0  0
   -2.8808   18.8771  -31.9894 H   0  0  0  0  0  0  0  0  0  0  0  0
   -4.7590   19.4000  -32.9140 C   0  0  0  0  0  0  0  0  0  0  0  0
   -5.3778   18.9507  -33.7047 H   0  0  0  0  0  0  0  0  0  0  0  0
   -5.1718   19.1900  -31.9163 H   0  0  0  0  0  0  0  0  0  0  0  0
   -4.7390   20.9360  -33.1080 C   0  0  1  0  0  0  0  0  0  0  0  0
   -4.9326   21.1200  -34.1751 H   0  0  0  0  0  0  0  0  0  0  0  0
   -5.8120   21.6040  -32.3610 N   0  0  0  0  0  0  0  0  0  0  0  0
   -7.0490   21.2210  -32.2060 C   0  0  0  0  0  0  0  0  0  0  0  0
   -7.4990   20.0940  -32.8270 N   0  0  0  0  0  0  0  0  0  0  0  0
   -8.7950   19.7030  -32.7590 C   0  0  0  0  0  0  0  0  0  0  0  0
   -9.1241   18.7805  -33.2596 H   0  0  0  0  0  0  0  0  0  0  0  0
   -9.7040   20.4800  -32.0500 C   0  0  0  0  0  0  0  0  0  0  0  0
  -10.7648   20.1922  -32.0057 H   0  0  0  0  0  0  0  0  0  0  0  0
   -9.2700   21.5970  -31.4130 N   0  0  0  0  0  0  0  0  0  0  0  0
   -7.9690   21.9910  -31.4390 C   0  0  0  0  0  0  0  0  0  0  0  0
   -7.6490   23.0650  -30.7660 N   0  0  0  0  0  0  0  0  0  0  0  0
   -6.3460   23.6080  -30.5070 C   0  0  0  0  0  0  0  0  0  0  0  0
   -5.9920   24.8430  -31.0580 C   0  0  0  0  0  0  0  0  0  0  0  0
   -6.7029   25.3794  -31.7037 H   0  0  0  0  0  0  0  0  0  0  0  0
   -4.7380   25.3980  -30.7910 C   0  0  0  0  0  0  0  0  0  0  0  0
   -4.4582   26.3617  -31.2416 H   0  0  0  0  0  0  0  0  0  0  0  0
   -3.8370   24.7330  -29.9530 C   0  0  0  0  0  0  0  0  0  0  0  0
   -2.5870   25.2950  -29.7110 O   0  0  0  0  0  0  0  0  0  0  0  0
   -4.1970   23.5090  -29.3600 C   0  0  0  0  0  0  0  0  0  0  0  0
   -3.2310   22.7850  -28.4660 C   0  0  0  0  0  0  0  0  0  0  0  0
   -3.4891   22.9784  -27.4144 H   0  0  0  0  0  0  0  0  0  0  0  0
   -3.2869   21.7045  -28.6645 H   0  0  0  0  0  0  0  0  0  0  0  0
   -2.2096   23.1419  -28.6645 H   0  0  0  0  0  0  0  0  0  0  0  0
   -5.4610   22.9600  -29.6300 C   0  0  0  0  0  0  0  0  0  0  0  0
   -5.7600   22.0159  -29.1513 H   0  0  0  0  0  0  0  0  0  0  0  0
   -3.3580   21.5400  -32.7890 C   0  0  0  0  0  0  0  0  0  0  0  0
   -3.4038   22.6307  -32.9246 H   0  0  0  0  0  0  0  0  0  0  0  0
   -3.1001   21.2879  -31.7498 H   0  0  0  0  0  0  0  0  0  0  0  0
  1  2  1  0
  2  3  1  0
  2  4  2  0
  4  5  1  0
  4  6  1  0
  6  7  2  0
  6  8  1  0
  8  9  1  6
  8 10  1  0
 10 11  1  0
 10 12  1  0
 10 13  1  0
 13 14  1  0
 13 15  1  0
 13 16  1  0
 16 17  1  0
 16 18  1  0
 16 19  1  0
 19 20  1  6
 19 21  1  0
 21 22  2  3
 22 23  1  0
 23 24  1  0
 24 25  1  0
 24 26  2  0
 26 27  1  0
 26 28  1  0
 28 29  1  0
 29 30  2  0
 30 31  1  0
 31 32  2  0
 32 33  1  0
 32 34  1  0
 34 35  1  0
 34 36  2  0
 36 37  1  0
 36 38  1  0
 38 39  1  0
 39 40  1  0
 39 41  1  0
 39 42  1  0
 38 43  2  0
 43 44  1  0
 19 45  1  0
 45 46  1  0
 45 47  1  0
 45  8  1  0
 29 22  1  0
 43 31  1  0
M  CHG  4   8   1  23  -1  28  -1  37  -1
M  END
>  <UniqueID>  (13) 
13

>  <SMILES>  (13) 
C=CC(=O)[N@H+]1CCC[C@@H](N=c2[n-]cc[n-]/c2=N/c2ccc([O-])c(C)c2)C1

>  <Energy>  (13) 
73.02525587433352

>  <Genealogy>  (13) 
C=CC(=O)[NH+]1CCCC(N=c2[n-]cc[n-]c2=Nc2ccc([O-])c(C)c2)C1 (protonated)
C=CC(=O)[N@H+]1CCC[C@@H](N=c2[n-]cc[n-]c2=Nc2ccc([O-])c(C)c2)C1 (chirality)
C=CC(=O)[N@H+]1CCC[C@@H](N=c2[n-]cc[n-]/c2=N/c2ccc([O-])c(C)c2)C1 (cis-trans isomerization)
C=CC(=O)[N@H+]1CCC[C@@H](N=c2[n-]cc[n-]/c2=N/c2ccc([O-])c(C)c2)C1 (3D coordinates assigned)
C=CC(=O)[N@H+]1CCC[C@@H](N=c2[n-]cc[n-]/c2=N/c2ccc([O-])c(C)c2)C1 (nonaromatic ring conformer: 73.02525587433352 kcal/mol)

>  <smiles>  (13) 
C=CC(=O)N1CCCC(N=c2[nH]cc[nH]c2=Nc2ccc(O)c(C)c2)C1

>  <score_type>  (13) 
oracle

>  <origin>  (13) 
adgpu

>  <m_score__min__energy>  (13) 
-11.380000000000001

>  <m_primary>  (13) 
energy

$$$$
13:0
     RDKit          3D

 61 64  0  0  0  0  0  0  0  0999 V2000
   -0.8880   21.8690  -25.8790 C   0  0  0  0  0  0  0  0  0  0  0  0
   -1.4560   22.6600  -27.0260 C   0  0  0  0  0  0  0  0  0  0  0  0
   -2.6880   22.2710  -27.5760 C   0  0  0  0  0  0  0  0  0  0  0  0
   -3.2600   22.9920  -28.6260 C   0  0  0  0  0  0  0  0  0  0  0  0
   -2.5880   24.0950  -29.1710 C   0  0  0  0  0  0  0  0  0  0  0  0
   -3.1540   24.9200  -30.2020 N   0  0  0  0  0  0  0  0  0  0  0  0
   -4.5330   25.2050  -30.4770 C   0  0  0  0  0  0  0  0  0  0  0  0
   -4.9520   26.3910  -30.4740 O   0  0  0  0  0  0  0  0  0  0  0  0
   -5.4610   24.0790  -30.7480 C   0  0  0  0  0  0  0  0  0  0  0  0
   -4.9810   22.9450  -31.4280 C   0  0  0  0  0  0  0  0  0  0  0  0
   -5.8490   21.9190  -31.8270 C   0  0  0  0  0  0  0  0  0  0  0  0
   -5.2220   20.5450  -32.7430 S   0  0  0  0  0  0  0  0  0  0  0  0
   -4.5820   19.5670  -31.7940 O   0  0  0  0  0  0  0  0  0  0  0  0
   -4.1560   21.0390  -33.6850 O   0  0  0  0  0  0  0  0  0  0  0  0
   -6.4690   19.7100  -33.6520 N   0  0  0  0  0  0  0  0  0  0  0  0
   -7.6000   19.2490  -32.8160 C   0  0  0  0  0  0  0  0  0  0  0  0
   -7.6070   17.7260  -32.6090 C   0  0  0  0  0  0  0  0  0  0  0  0
   -6.2900   17.2320  -32.5510 O   0  0  0  0  0  0  0  0  0  0  0  0
   -5.6790   17.3220  -33.8230 C   0  0  0  0  0  0  0  0  0  0  0  0
   -5.9200   18.6700  -34.5410 C   0  0  0  0  0  0  0  0  0  0  0  0
   -7.2000   21.9940  -31.4900 C   0  0  0  0  0  0  0  0  0  0  0  0
   -7.6830   23.0860  -30.7670 C   0  0  0  0  0  0  0  0  0  0  0  0
   -6.8280   24.1380  -30.4050 C   0  0  0  0  0  0  0  0  0  0  0  0
   -7.3440   25.2390  -29.7200 O   0  0  0  0  0  0  0  0  0  0  0  0
   -1.3540   24.4760  -28.6330 C   0  0  0  0  0  0  0  0  0  0  0  0
   -0.7790   23.7780  -27.5650 C   0  0  0  0  0  0  0  0  0  0  0  0
    0.7230   24.3970  -26.8580 S   0  0  0  0  0  0  0  0  0  0  0  0
    1.6100   24.9460  -27.9450 O   0  0  0  0  0  0  0  0  0  0  0  0
    1.4600   23.2810  -26.1720 O   0  0  0  0  0  0  0  0  0  0  0  0
    0.3390   25.6580  -25.7150 N   0  0  0  0  0  0  0  0  0  0  0  0
   -0.7410   26.5050  -26.2510 C   0  0  0  0  0  0  0  0  0  0  0  0
   -1.1520   27.5450  -25.2010 C   0  0  0  0  0  0  0  0  0  0  0  0
   -1.5870   26.9100  -24.0110 O   0  0  0  0  0  0  0  0  0  0  0  0
   -0.5240   26.1550  -23.4610 C   0  0  0  0  0  0  0  0  0  0  0  0
   -0.0770   25.0550  -24.4350 C   0  0  0  0  0  0  0  0  0  0  0  0
   -1.2107   22.3184  -24.9283 H   0  0  0  0  0  0  0  0  0  0  0  0
   -1.2486   20.8313  -25.9351 H   0  0  0  0  0  0  0  0  0  0  0  0
    0.2105   21.8790  -25.9351 H   0  0  0  0  0  0  0  0  0  0  0  0
   -3.2082   21.3885  -27.1752 H   0  0  0  0  0  0  0  0  0  0  0  0
   -4.2402   22.6939  -29.0265 H   0  0  0  0  0  0  0  0  0  0  0  0
   -3.9069   22.8619  -31.6503 H   0  0  0  0  0  0  0  0  0  0  0  0
   -7.5315   19.7369  -31.8325 H   0  0  0  0  0  0  0  0  0  0  0  0
   -8.5293   19.5157  -33.3406 H   0  0  0  0  0  0  0  0  0  0  0  0
   -8.1240   17.4907  -31.6670 H   0  0  0  0  0  0  0  0  0  0  0  0
   -8.1281   17.2536  -33.4548 H   0  0  0  0  0  0  0  0  0  0  0  0
   -4.5948   17.1861  -33.6966 H   0  0  0  0  0  0  0  0  0  0  0  0
   -6.1327   16.5409  -34.4506 H   0  0  0  0  0  0  0  0  0  0  0  0
   -4.9617   19.0266  -34.9466 H   0  0  0  0  0  0  0  0  0  0  0  0
   -6.6621   18.4911  -35.3330 H   0  0  0  0  0  0  0  0  0  0  0  0
   -7.8868   21.1906  -31.7947 H   0  0  0  0  0  0  0  0  0  0  0  0
   -8.7438   23.1221  -30.4783 H   0  0  0  0  0  0  0  0  0  0  0  0
   -6.7450   25.9720  -29.3680 H   0  0  0  0  0  0  0  0  0  0  0  0
   -0.8250   25.3417  -29.0581 H   0  0  0  0  0  0  0  0  0  0  0  0
   -0.3868   27.0197  -27.1563 H   0  0  0  0  0  0  0  0  0  0  0  0
   -1.6083   25.8756  -26.4992 H   0  0  0  0  0  0  0  0  0  0  0  0
   -0.2893   28.1881  -24.9726 H   0  0  0  0  0  0  0  0  0  0  0  0
   -1.9800   28.1466  -25.6041 H   0  0  0  0  0  0  0  0  0  0  0  0
    0.3255   26.8234  -23.2570 H   0  0  0  0  0  0  0  0  0  0  0  0
   -0.8710   25.6827  -22.5301 H   0  0  0  0  0  0  0  0  0  0  0  0
    0.7692   24.5036  -23.9993 H   0  0  0  0  0  0  0  0  0  0  0  0
   -0.9160   24.3666  -24.6142 H   0  0  0  0  0  0  0  0  0  0  0  0
  1  2  1  0
  2  3  2  0
  3  4  1  0
  4  5  2  0
  5  6  1  0
  6  7  1  0
  7  8  2  0
  7  9  1  0
  9 10  2  0
 10 11  1  0
 11 12  1  0
 12 13  2  0
 12 14  2  0
 12 15  1  0
 15 16  1  0
 16 17  1  0
 17 18  1  0
 18 19  1  0
 19 20  1  0
 11 21  2  0
 21 22  1  0
 22 23  2  0
 23 24  1  0
  5 25  1  0
 25 26  2  0
 26 27  1  0
 27 28  2  0
 27 29  2  0
 27 30  1  0
 30 31  1  0
 31 32  1  0
 32 33  1  0
 33 34  1  0
 34 35  1  0
 26  2  1  0
 35 30  1  0
 23  9  1  0
 20 15  1  0
  1 36  1  0
  1 37  1  0
  1 38  1  0
  3 39  1  0
  4 40  1  0
 10 41  1  0
 16 42  1  0
 16 43  1  0
 17 44  1  0
 17 45  1  0
 19 46  1  0
 19 47  1  0
 20 48  1  0
 20 49  1  0
 21 50  1  0
 22 51  1  0
 24 52  1  0
 25 53  1  0
 31 54  1  0
 31 55  1  0
 32 56  1  0
 32 57  1  0
 34 58  1  0
 34 59  1  0
 35 60  1  0
 35 61  1  0
M  CHG  1   6  -1
M  END
>  <UniqueID>  (14) 
14

>  <SMILES>  (14) 
Cc1ccc([N-]C(=O)c2cc(S(=O)(=O)N3CCOCC3)ccc2O)cc1S(=O)(=O)N1CCOCC1

>  <Energy>  (14) 
81.5853567398061

>  <Genealogy>  (14) 
Cc1ccc([N-]C(=O)c2cc(S(=O)(=O)N3CCOCC3)ccc2O)cc1S(=O)(=O)N1CCOCC1 (protonated)
Cc1ccc([N-]C(=O)c2cc(S(=O)(=O)N3CCOCC3)ccc2O)cc1S(=O)(=O)N1CCOCC1 (3D coordinates assigned)
Cc1ccc([N-]C(=O)c2cc(S(=O)(=O)N3CCOCC3)ccc2O)cc1S(=O)(=O)N1CCOCC1 (nonaromatic ring conformer: 81.5853567398061 kcal/mol)

>  <smiles>  (14) 
Cc1ccc(NC(=O)c2cc(S(=O)(=O)N3CCOCC3)ccc2O)cc1S(=O)(=O)N1CCOCC1

>  <score_type>  (14) 
oracle

>  <origin>  (14) 
adgpu

>  <m_score__min__energy>  (14) 
-12.529999999999999

>  <m_primary>  (14) 
energy

$$$$
14:0
     RDKit          3D

 60 63  0  0  0  0  0  0  0  0999 V2000
   -1.4860   21.8590  -26.4930 C   0  0  0  0  0  0  0  0  0  0  0  0
   -2.0340   22.7870  -27.5470 C   0  0  0  0  0  0  0  0  0  0  0  0
   -3.2980   22.5090  -28.0910 C   0  0  0  0  0  0  0  0  0  0  0  0
   -3.8530   23.3380  -29.0610 C   0  0  0  0  0  0  0  0  0  0  0  0
   -3.1560   24.4540  -29.5230 C   0  0  0  0  0  0  0  0  0  0  0  0
   -3.7870   25.2950  -30.4980 N   0  0  0  0  0  0  0  0  0  0  0  0
   -5.1860   25.3060  -30.8110 C   0  0  0  0  0  0  0  0  0  0  0  0
   -5.9940   25.9530  -30.0940 O   0  0  0  0  0  0  0  0  0  0  0  0
   -5.6860   24.5760  -31.9360 N   0  0  0  0  0  0  0  0  0  0  0  0
   -6.0660   23.1930  -31.9440 C   0  0  0  0  0  0  0  0  0  0  0  0
   -7.4120   22.7950  -32.0180 C   0  0  0  0  0  0  0  0  0  0  0  0
   -7.7460   21.4380  -32.0000 C   0  0  0  0  0  0  0  0  0  0  0  0
   -6.7440   20.4620  -31.9000 C   0  0  0  0  0  0  0  0  0  0  0  0
   -7.1640   18.7480  -31.8890 S   0  0  0  0  0  0  0  0  0  0  0  0
   -8.5670   18.5850  -31.3720 O   0  0  0  0  0  0  0  0  0  0  0  0
   -6.2390   18.0180  -30.9570 O   0  0  0  0  0  0  0  0  0  0  0  0
   -7.0520   18.0360  -33.4860 N   0  0  0  0  0  0  0  0  0  0  0  0
   -6.5720   16.6510  -33.4150 C   0  0  0  0  0  0  0  0  0  0  0  0
   -5.1030   16.6470  -33.7900 C   0  0  0  0  0  0  0  0  0  0  0  0
   -4.9360   17.8580  -34.6780 C   0  0  0  0  0  0  0  0  0  0  0  0
   -6.1050   18.7750  -34.3370 C   0  0  0  0  0  0  0  0  0  0  0  0
   -5.4040   20.8600  -31.7930 C   0  0  0  0  0  0  0  0  0  0  0  0
   -5.0700   22.2170  -31.8090 C   0  0  0  0  0  0  0  0  0  0  0  0
   -1.9000   24.7690  -28.9670 C   0  0  0  0  0  0  0  0  0  0  0  0
   -1.2680   25.9510  -29.3380 O   0  0  0  0  0  0  0  0  0  0  0  0
   -1.3090   23.9170  -28.0060 C   0  0  0  0  0  0  0  0  0  0  0  0
    0.2900   24.3110  -27.3270 S   0  0  0  0  0  0  0  0  0  0  0  0
    0.7720   23.1570  -26.4930 O   0  0  0  0  0  0  0  0  0  0  0  0
    1.2980   24.5410  -28.4190 O   0  0  0  0  0  0  0  0  0  0  0  0
    0.1680   25.7420  -26.3320 N   0  0  0  0  0  0  0  0  0  0  0  0
    0.4880   25.4080  -24.9320 C   0  0  0  0  0  0  0  0  0  0  0  0
   -0.0810   26.4710  -23.9790 C   0  0  0  0  0  0  0  0  0  0  0  0
   -1.4940   26.6190  -24.0500 O   0  0  0  0  0  0  0  0  0  0  0  0
   -2.0610   26.1530  -25.2650 C   0  0  0  0  0  0  0  0  0  0  0  0
   -1.1520   26.3890  -26.4840 C   0  0  0  0  0  0  0  0  0  0  0  0
   -1.7214   22.2577  -25.4952 H   0  0  0  0  0  0  0  0  0  0  0  0
   -1.9417   20.8644  -26.6074 H   0  0  0  0  0  0  0  0  0  0  0  0
   -0.3950   21.7778  -26.6074 H   0  0  0  0  0  0  0  0  0  0  0  0
   -3.8560   21.6258  -27.7465 H   0  0  0  0  0  0  0  0  0  0  0  0
   -4.8499   23.1111  -29.4668 H   0  0  0  0  0  0  0  0  0  0  0  0
   -8.2050   23.5539  -32.0903 H   0  0  0  0  0  0  0  0  0  0  0  0
   -8.8011   21.1337  -32.0647 H   0  0  0  0  0  0  0  0  0  0  0  0
   -6.6979   16.2638  -32.3931 H   0  0  0  0  0  0  0  0  0  0  0  0
   -7.1447   16.0113  -34.1026 H   0  0  0  0  0  0  0  0  0  0  0  0
   -4.4724   16.7328  -32.8928 H   0  0  0  0  0  0  0  0  0  0  0  0
   -4.8019   15.7156  -34.2918 H   0  0  0  0  0  0  0  0  0  0  0  0
   -3.9797   18.3597  -34.4687 H   0  0  0  0  0  0  0  0  0  0  0  0
   -4.9275   17.5855  -35.7437 H   0  0  0  0  0  0  0  0  0  0  0  0
   -5.7361   19.6602  -33.7981 H   0  0  0  0  0  0  0  0  0  0  0  0
   -6.6066   19.1017  -35.2598 H   0  0  0  0  0  0  0  0  0  0  0  0
   -4.6130   20.1018  -31.6961 H   0  0  0  0  0  0  0  0  0  0  0  0
   -4.0171   22.5211  -31.7149 H   0  0  0  0  0  0  0  0  0  0  0  0
    0.0507   24.4294  -24.6847 H   0  0  0  0  0  0  0  0  0  0  0  0
    1.5814   25.3762  -24.8159 H   0  0  0  0  0  0  0  0  0  0  0  0
    0.1854   26.1898  -22.9495 H   0  0  0  0  0  0  0  0  0  0  0  0
    0.3542   27.4345  -24.2829 H   0  0  0  0  0  0  0  0  0  0  0  0
   -2.2491   25.0732  -25.1722 H   0  0  0  0  0  0  0  0  0  0  0  0
   -2.9889   26.7194  -25.4328 H   0  0  0  0  0  0  0  0  0  0  0  0
   -1.6456   25.9802  -27.3780 H   0  0  0  0  0  0  0  0  0  0  0  0
   -0.9873   27.4727  -26.5766 H   0  0  0  0  0  0  0  0  0  0  0  0
  1  2  1  0
  2  3  2  0
  3  4  1  0
  4  5  2  0
  5  6  1  0
  6  7  1  0
  7  8  2  0
  7  9  1  0
  9 10  1  0
 10 11  2  0
 11 12  1  0
 12 13  2  0
 13 14  1  0
 14 15  2  0
 14 16  2  0
 14 17  1  0
 17 18  1  0
 18 19  1  0
 19 20  1  0
 20 21  1  0
 13 22  1  0
 22 23  2  0
  5 24  1  0
 24 25  1  0
 24 26  2  0
 26 27  1  0
 27 28  2  0
 27 29  2  0
 27 30  1  0
 30 31  1  0
 31 32  1  0
 32 33  1  0
 33 34  1  0
 34 35  1  0
 26  2  1  0
 35 30  1  0
 23 10  1  0
 21 17  1  0
  1 36  1  0
  1 37  1  0
  1 38  1  0
  3 39  1  0
  4 40  1  0
 11 41  1  0
 12 42  1  0
 18 43  1  0
 18 44  1  0
 19 45  1  0
 19 46  1  0
 20 47  1  0
 20 48  1  0
 21 49  1  0
 21 50  1  0
 22 51  1  0
 23 52  1  0
 31 53  1  0
 31 54  1  0
 32 55  1  0
 32 56  1  0
 34 57  1  0
 34 58  1  0
 35 59  1  0
 35 60  1  0
M  CHG  3   6  -1   9  -1  25  -1
M  END
>  <UniqueID>  (15) 
15

>  <SMILES>  (15) 
Cc1ccc([N-]C(=O)[N-]c2ccc(S(=O)(=O)N3CCCC3)cc2)c([O-])c1S(=O)(=O)N1CCOCC1

>  <Energy>  (15) 
86.69966270485027

>  <Genealogy>  (15) 
Cc1ccc([N-]C(=O)[N-]c2ccc(S(=O)(=O)N3CCCC3)cc2)c([O-])c1S(=O)(=O)N1CCOCC1 (protonated)
Cc1ccc([N-]C(=O)[N-]c2ccc(S(=O)(=O)N3CCCC3)cc2)c([O-])c1S(=O)(=O)N1CCOCC1 (3D coordinates assigned)
Cc1ccc([N-]C(=O)[N-]c2ccc(S(=O)(=O)N3CCCC3)cc2)c([O-])c1S(=O)(=O)N1CCOCC1 (nonaromatic ring conformer: 86.69966270485027 kcal/mol)

>  <smiles>  (15) 
Cc1ccc(NC(=O)Nc2ccc(S(=O)(=O)N3CCCC3)cc2)c(O)c1S(=O)(=O)N1CCOCC1

>  <score_type>  (15) 
oracle

>  <origin>  (15) 
adgpu

>  <m_score__min__energy>  (15) 
-17.34

>  <m_primary>  (15) 
energy

$$$$
15:0
     RDKit          3D

 68 72  0  0  0  0  0  0  0  0999 V2000
   -3.3440   25.0720  -26.3430 C   0  0  0  0  0  0  0  0  0  0  0  0
   -2.0960   25.6800  -26.6600 O   0  0  0  0  0  0  0  0  0  0  0  0
   -1.0390   25.8510  -25.7510 C   0  0  0  0  0  0  0  0  0  0  0  0
   -1.2620   26.2900  -24.4310 C   0  0  0  0  0  0  0  0  0  0  0  0
   -0.1910   26.4490  -23.5480 C   0  0  0  0  0  0  0  0  0  0  0  0
    1.1100   26.1720  -23.9670 C   0  0  0  0  0  0  0  0  0  0  0  0
    1.3450   25.7330  -25.2710 C   0  0  0  0  0  0  0  0  0  0  0  0
    0.2790   25.5710  -26.1720 C   0  0  0  0  0  0  0  0  0  0  0  0
    0.5580   25.0490  -27.5600 C   0  0  0  0  0  0  0  0  0  0  0  0
   -0.0510   23.6580  -27.7910 C   0  0  0  0  0  0  0  0  0  0  0  0
   -1.2830   23.7240  -28.5890 N   0  0  0  0  0  0  0  0  0  0  0  0
   -1.7780   24.8070  -29.2330 C   0  0  0  0  0  0  0  0  0  0  0  0
   -1.1670   26.0580  -29.3010 O   0  0  0  0  0  0  0  0  0  0  0  0
   -2.9970   24.5150  -29.7940 C   0  0  0  0  0  0  0  0  0  0  0  0
   -3.7950   25.3950  -30.5140 O   0  0  0  0  0  0  0  0  0  0  0  0
   -3.2890   23.2000  -29.4950 C   0  0  0  0  0  0  0  0  0  0  0  0
   -4.5560   22.4980  -29.8080 C   0  0  0  0  0  0  0  0  0  0  0  0
   -5.5610   22.6860  -29.0700 O   0  0  0  0  0  0  0  0  0  0  0  0
   -4.6700   21.5690  -30.9470 C   0  0  0  0  0  0  0  0  0  0  0  0
   -3.5400   21.2320  -31.7050 C   0  0  0  0  0  0  0  0  0  0  0  0
   -3.6380   20.2930  -32.7350 C   0  0  0  0  0  0  0  0  0  0  0  0
   -4.8670   19.6890  -33.0250 C   0  0  0  0  0  0  0  0  0  0  0  0
   -4.9640   18.4850  -34.3040 S   0  0  0  0  0  0  0  0  0  0  0  0
   -3.6120   18.2930  -34.9350 O   0  0  0  0  0  0  0  0  0  0  0  0
   -5.9210   18.9700  -35.3570 O   0  0  0  0  0  0  0  0  0  0  0  0
   -5.5430   16.9820  -33.6350 N   0  0  0  0  0  0  0  0  0  0  0  0
   -4.6090   15.8880  -33.9000 C   0  0  0  0  0  0  0  0  0  0  0  0
   -5.4320   14.6090  -33.9250 C   0  0  0  0  0  0  0  0  0  0  0  0
   -6.8670   15.0590  -34.1530 C   0  0  0  0  0  0  0  0  0  0  0  0
   -6.8040   16.5760  -34.2520 C   0  0  0  0  0  0  0  0  0  0  0  0
   -6.0080   20.0590  -32.2990 C   0  0  0  0  0  0  0  0  0  0  0  0
   -5.9110   21.0000  -31.2690 C   0  0  0  0  0  0  0  0  0  0  0  0
   -2.2030   22.7360  -28.7470 C   0  0  0  0  0  0  0  0  0  0  0  0
   -2.1310   21.4240  -28.0760 C   0  0  0  0  0  0  0  0  0  0  0  0
   -3.2320   20.9490  -27.3490 C   0  0  0  0  0  0  0  0  0  0  0  0
   -3.1970   19.6740  -26.7760 C   0  0  0  0  0  0  0  0  0  0  0  0
   -2.0660   18.8670  -26.9310 C   0  0  0  0  0  0  0  0  0  0  0  0
   -0.9650   19.3370  -27.6550 C   0  0  0  0  0  0  0  0  0  0  0  0
    0.5610   18.2190  -27.9030 Br  0  0  0  0  0  0  0  0  0  0  0  0
   -0.9960   20.6140  -28.2230 C   0  0  0  0  0  0  0  0  0  0  0  0
   -3.4578   25.0166  -25.2503 H   0  0  0  0  0  0  0  0  0  0  0  0
   -4.1625   25.6723  -26.7669 H   0  0  0  0  0  0  0  0  0  0  0  0
   -3.3758   24.0575  -26.7669 H   0  0  0  0  0  0  0  0  0  0  0  0
   -2.2858   26.5090  -24.0935 H   0  0  0  0  0  0  0  0  0  0  0  0
   -0.3744   26.7936  -22.5196 H   0  0  0  0  0  0  0  0  0  0  0  0
    1.9512   26.2995  -23.2697 H   0  0  0  0  0  0  0  0  0  0  0  0
    2.3725   25.5122  -25.5958 H   0  0  0  0  0  0  0  0  0  0  0  0
    0.1313   25.7486  -28.2938 H   0  0  0  0  0  0  0  0  0  0  0  0
    1.6486   24.9631  -27.6752 H   0  0  0  0  0  0  0  0  0  0  0  0
    0.6825   23.0323  -28.3206 H   0  0  0  0  0  0  0  0  0  0  0  0
   -0.3034   23.2295  -26.8098 H   0  0  0  0  0  0  0  0  0  0  0  0
   -1.2360   26.6510  -30.1170 H   0  0  0  0  0  0  0  0  0  0  0  0
   -2.5726   21.7085  -31.4881 H   0  0  0  0  0  0  0  0  0  0  0  0
   -2.7455   20.0273  -33.3205 H   0  0  0  0  0  0  0  0  0  0  0  0
   -4.1132   16.0391  -34.8702 H   0  0  0  0  0  0  0  0  0  0  0  0
   -3.8257   15.8402  -33.1292 H   0  0  0  0  0  0  0  0  0  0  0  0
   -5.0995   13.9529  -34.7429 H   0  0  0  0  0  0  0  0  0  0  0  0
   -5.3256   14.0348  -32.9928 H   0  0  0  0  0  0  0  0  0  0  0  0
   -7.2618   14.6286  -35.0851 H   0  0  0  0  0  0  0  0  0  0  0  0
   -7.5328   14.7294  -33.3418 H   0  0  0  0  0  0  0  0  0  0  0  0
   -6.8290   16.8890  -35.3062 H   0  0  0  0  0  0  0  0  0  0  0  0
   -7.6619   17.0428  -33.7460 H   0  0  0  0  0  0  0  0  0  0  0  0
   -6.9819   19.6080  -32.5402 H   0  0  0  0  0  0  0  0  0  0  0  0
   -6.8110   21.2949  -30.7095 H   0  0  0  0  0  0  0  0  0  0  0  0
   -4.1247   21.5805  -27.2293 H   0  0  0  0  0  0  0  0  0  0  0  0
   -4.0604   19.3055  -26.2026 H   0  0  0  0  0  0  0  0  0  0  0  0
   -2.0418   17.8624  -26.4837 H   0  0  0  0  0  0  0  0  0  0  0  0
   -0.1273   20.9845  -28.7870 H   0  0  0  0  0  0  0  0  0  0  0  0
  1  2  1  0
  2  3  1  0
  3  4  2  0
  4  5  1  0
  5  6  2  0
  6  7  1  0
  7  8  2  0
  8  9  1  0
  9 10  1  0
 10 11  1  0
 11 12  1  0
 12 13  1  0
 12 14  2  0
 14 15  1  0
 14 16  1  0
 16 17  1  0
 17 18  2  0
 17 19  1  0
 19 20  2  0
 20 21  1  0
 21 22  2  0
 22 23  1  0
 23 24  2  0
 23 25  2  0
 23 26  1  0
 26 27  1  0
 27 28  1  0
 28 29  1  0
 29 30  1  0
 22 31  1  0
 31 32  2  0
 16 33  2  0
 33 34  1  0
 34 35  2  0
 35 36  1  0
 36 37  2  0
 37 38  1  0
 38 39  1  0
 38 40  2  0
  8  3  1  0
 33 11  1  0
 40 34  1  0
 32 19  1  0
 30 26  1  0
  1 41  1  0
  1 42  1  0
  1 43  1  0
  4 44  1  0
  5 45  1  0
  6 46  1  0
  7 47  1  0
  9 48  1  0
  9 49  1  0
 10 50  1  0
 10 51  1  0
 13 52  1  0
 20 53  1  0
 21 54  1  0
 27 55  1  0
 27 56  1  0
 28 57  1  0
 28 58  1  0
 29 59  1  0
 29 60  1  0
 30 61  1  0
 30 62  1  0
 31 63  1  0
 32 64  1  0
 35 65  1  0
 36 66  1  0
 37 67  1  0
 40 68  1  0
M  CHG  1  15  -1
M  END
>  <UniqueID>  (16) 
16

>  <SMILES>  (16) 
COc1ccccc1CCn1c(O)c([O-])c(C(=O)c2ccc(S(=O)(=O)N3CCCC3)cc2)c1-c1cccc(Br)c1

>  <Energy>  (16) 
106.21765153773462

>  <Genealogy>  (16) 
COc1ccccc1CCn1c(O)c([O-])c(C(=O)c2ccc(S(=O)(=O)N3CCCC3)cc2)c1-c1cccc(Br)c1 (protonated)
COc1ccccc1CCn1c(O)c([O-])c(C(=O)c2ccc(S(=O)(=O)N3CCCC3)cc2)c1-c1cccc(Br)c1 (3D coordinates assigned)
COc1ccccc1CCn1c(O)c([O-])c(C(=O)c2ccc(S(=O)(=O)N3CCCC3)cc2)c1-c1cccc(Br)c1 (nonaromatic ring conformer: 106.21765153773462 kcal/mol)

>  <smiles>  (16) 
COc1ccccc1CCn1c(O)c(O)c(C(=O)c2ccc(S(=O)(=O)N3CCCC3)cc2)c1-c1cccc(Br)c1

>  <score_type>  (16) 
oracle

>  <origin>  (16) 
adgpu

>  <m_score__min__energy>  (16) 
-14.08

>  <m_primary>  (16) 
energy

$$$$
16:0
     RDKit          3D

 53 55  0  0  0  0  0  0  0  0999 V2000
   -4.9220   25.2400  -30.3370 C   0  0  0  0  0  0  0  0  0  0  0  0
   -3.5020   25.1750  -30.4070 O   0  0  0  0  0  0  0  0  0  0  0  0
   -2.6850   24.5560  -29.4470 C   0  0  0  0  0  0  0  0  0  0  0  0
   -1.8930   25.3020  -28.5510 C   0  0  0  0  0  0  0  0  0  0  0  0
   -1.0890   24.6540  -27.6120 C   0  0  0  0  0  0  0  0  0  0  0  0
   -1.0710   23.2610  -27.5470 C   0  0  0  0  0  0  0  0  0  0  0  0
   -1.8520   22.5100  -28.4280 C   0  0  0  0  0  0  0  0  0  0  0  0
   -2.6530   23.1490  -29.3920 C   0  0  0  0  0  0  0  0  0  0  0  0
   -3.4800   22.3810  -30.2830 N   0  0  0  0  0  0  0  0  0  0  0  0
   -3.3670   20.9580  -30.4460 C   0  0  0  0  0  0  0  0  0  0  0  0
   -2.4530   20.3160  -29.8620 O   0  0  0  0  0  0  0  0  0  0  0  0
   -4.3330   20.2190  -31.3250 C   0  0  0  0  0  0  0  0  0  0  0  0
   -4.9350   21.1360  -32.3120 N   0  0  0  0  0  0  0  0  0  0  0  0
   -5.3610   20.4030  -33.5200 C   0  0  0  0  0  0  0  0  0  0  0  0
   -4.4850   19.2050  -33.7880 C   0  0  0  0  0  0  0  0  0  0  0  0
   -3.0920   19.3510  -33.9090 C   0  0  0  0  0  0  0  0  0  0  0  0
   -2.2810   18.2310  -34.1180 C   0  0  0  0  0  0  0  0  0  0  0  0
   -2.8500   16.9560  -34.1860 C   0  0  0  0  0  0  0  0  0  0  0  0
   -4.2320   16.7990  -34.0390 C   0  0  0  0  0  0  0  0  0  0  0  0
   -5.0460   17.9160  -33.8330 C   0  0  0  0  0  0  0  0  0  0  0  0
   -6.2530   22.0670  -31.6030 S   0  0  0  0  0  0  0  0  0  0  0  0
   -6.2490   23.4260  -32.2420 O   0  0  0  0  0  0  0  0  0  0  0  0
   -6.0400   22.2630  -30.1270 O   0  0  0  0  0  0  0  0  0  0  0  0
   -7.8450   21.3260  -31.8270 C   0  0  0  0  0  0  0  0  0  0  0  0
   -8.1800   19.9820  -31.7950 C   0  0  0  0  0  0  0  0  0  0  0  0
   -7.2600   18.8220  -31.5920 C   0  0  0  0  0  0  0  0  0  0  0  0
   -9.4930   19.8450  -32.0640 N   0  0  0  0  0  0  0  0  0  0  0  0
   -9.9720   21.0410  -32.2560 O   0  0  0  0  0  0  0  0  0  0  0  0
   -9.0370   21.9540  -32.1400 C   0  0  0  0  0  0  0  0  0  0  0  0
   -9.2780   23.4180  -32.3120 C   0  0  0  0  0  0  0  0  0  0  0  0
   -5.2369   25.2544  -29.2831 H   0  0  0  0  0  0  0  0  0  0  0  0
   -5.2722   26.1551  -30.8369 H   0  0  0  0  0  0  0  0  0  0  0  0
   -5.3544   24.3607  -30.8369 H   0  0  0  0  0  0  0  0  0  0  0  0
   -1.9086   26.4011  -28.5920 H   0  0  0  0  0  0  0  0  0  0  0  0
   -0.4680   25.2435  -26.9215 H   0  0  0  0  0  0  0  0  0  0  0  0
   -0.4413   22.7536  -26.8014 H   0  0  0  0  0  0  0  0  0  0  0  0
   -1.8408   21.4117  -28.3678 H   0  0  0  0  0  0  0  0  0  0  0  0
   -4.1260   22.8980  -30.9210 H   0  0  0  0  0  0  0  0  0  0  0  0
   -3.7998   19.4157  -31.8546 H   0  0  0  0  0  0  0  0  0  0  0  0
   -5.1316   19.7938  -30.6993 H   0  0  0  0  0  0  0  0  0  0  0  0
   -6.3977   20.0620  -33.3822 H   0  0  0  0  0  0  0  0  0  0  0  0
   -5.2792   21.0847  -34.3794 H   0  0  0  0  0  0  0  0  0  0  0  0
   -2.6380   20.3505  -33.8390 H   0  0  0  0  0  0  0  0  0  0  0  0
   -1.1935   18.3536  -34.2291 H   0  0  0  0  0  0  0  0  0  0  0  0
   -2.2112   16.0766  -34.3550 H   0  0  0  0  0  0  0  0  0  0  0  0
   -4.6788   15.7949  -34.0856 H   0  0  0  0  0  0  0  0  0  0  0  0
   -6.1309   17.7865  -33.7054 H   0  0  0  0  0  0  0  0  0  0  0  0
   -7.1218   18.6478  -30.5147 H   0  0  0  0  0  0  0  0  0  0  0  0
   -7.6942   17.9241  -32.0559 H   0  0  0  0  0  0  0  0  0  0  0  0
   -6.2868   19.0403  -32.0559 H   0  0  0  0  0  0  0  0  0  0  0  0
   -9.3566   23.8952  -31.3240 H   0  0  0  0  0  0  0  0  0  0  0  0
   -8.4412   23.8644  -32.8693 H   0  0  0  0  0  0  0  0  0  0  0  0
  -10.2137   23.5726  -32.8693 H   0  0  0  0  0  0  0  0  0  0  0  0
  1  2  1  0
  2  3  1  0
  3  4  2  0
  4  5  1  0
  5  6  2  0
  6  7  1  0
  7  8  2  0
  8  9  1  0
  9 10  1  0
 10 11  2  0
 10 12  1  0
 12 13  1  0
 13 14  1  0
 14 15  1  0
 15 16  2  0
 16 17  1  0
 17 18  2  0
 18 19  1  0
 19 20  2  0
 13 21  1  0
 21 22  2  0
 21 23  2  0
 21 24  1  0
 24 25  1  0
 25 26  1  0
 25 27  2  0
 27 28  1  0
 28 29  1  0
 29 30  1  0
  8  3  1  0
 20 15  1  0
 29 24  2  0
  1 31  1  0
  1 32  1  0
  1 33  1  0
  4 34  1  0
  5 35  1  0
  6 36  1  0
  7 37  1  0
  9 38  1  0
 12 39  1  0
 12 40  1  0
 14 41  1  0
 14 42  1  0
 16 43  1  0
 17 44  1  0
 18 45  1  0
 19 46  1  0
 20 47  1  0
 26 48  1  0
 26 49  1  0
 26 50  1  0
 30 51  1  0
 30 52  1  0
 30 53  1  0
M  END
>  <UniqueID>  (17) 
17

>  <SMILES>  (17) 
COc1ccccc1NC(=O)CN(Cc1ccccc1)S(=O)(=O)c1c(C)noc1C

>  <Energy>  (17) 
86.9779776538806

>  <Genealogy>  (17) 
COc1ccccc1NC(=O)CN(Cc1ccccc1)S(=O)(=O)c1c(C)noc1C (3D coordinates assigned)
COc1ccccc1NC(=O)CN(Cc1ccccc1)S(=O)(=O)c1c(C)noc1C (optimized conformer: 86.9779776538806 kcal/mol)

>  <smiles>  (17) 
COc1ccccc1NC(=O)CN(Cc1ccccc1)S(=O)(=O)c1c(C)noc1C

>  <score_type>  (17) 
oracle

>  <origin>  (17) 
adgpu

>  <m_score__min__energy>  (17) 
-8.7699999999999996

>  <m_primary>  (17) 
energy

$$$$
17:0
     RDKit          3D

 55 57  0  0  0  0  0  0  0  0999 V2000
   -1.2010   26.3220  -27.9730 C   0  0  0  0  0  0  0  0  0  0  0  0
   -1.9460   25.5910  -28.9420 O   0  0  0  0  0  0  0  0  0  0  0  0
   -2.0980   24.1940  -28.9420 C   0  0  0  0  0  0  0  0  0  0  0  0
   -1.0290   23.3320  -29.2650 C   0  0  0  0  0  0  0  0  0  0  0  0
   -1.2190   21.9480  -29.2880 C   0  0  0  0  0  0  0  0  0  0  0  0
   -2.4710   21.4080  -28.9980 C   0  0  0  0  0  0  0  0  0  0  0  0
   -3.5340   22.2480  -28.6680 C   0  0  0  0  0  0  0  0  0  0  0  0
   -3.3570   23.6420  -28.6230 C   0  0  0  0  0  0  0  0  0  0  0  0
   -4.5380   24.5230  -28.2820 C   0  0  0  0  0  0  0  0  0  0  0  0
   -5.5800   24.5330  -29.4060 C   0  0  0  0  0  0  0  0  0  0  0  0
   -4.9490   24.8060  -30.7480 C   0  0  0  0  0  0  0  0  0  0  0  0
   -4.0410   25.6750  -30.8250 O   0  0  0  0  0  0  0  0  0  0  0  0
   -5.2610   24.0330  -31.9150 N   0  0  0  0  0  0  0  0  0  0  0  0
   -4.9350   22.6540  -32.1320 C   0  0  0  0  0  0  0  0  0  0  0  0
   -3.5880   22.3010  -32.2680 C   0  0  0  0  0  0  0  0  0  0  0  0
   -3.2190   20.9700  -32.5030 C   0  0  0  0  0  0  0  0  0  0  0  0
   -1.5190   20.5430  -32.7180 S   0  0  0  0  0  0  0  0  0  0  0  0
   -0.6550   21.5790  -32.0560 O   0  0  0  0  0  0  0  0  0  0  0  0
   -1.2520   19.2200  -32.0520 O   0  0  0  0  0  0  0  0  0  0  0  0
   -1.0920   20.4390  -34.4100 N   0  0  0  0  0  0  0  0  0  0  0  0
   -0.5690   19.1000  -34.7590 C   0  0  0  0  0  0  0  0  0  0  0  0
    0.9610   19.1030  -34.9330 C   0  0  0  0  0  0  0  0  0  0  0  0
    1.4130   20.0080  -35.9300 O   0  0  0  0  0  0  0  0  0  0  0  0
    0.6080   21.1750  -36.0560 C   0  0  0  0  0  0  0  0  0  0  0  0
   -0.1730   21.5330  -34.7810 C   0  0  0  0  0  0  0  0  0  0  0  0
   -4.2110   19.9880  -32.5970 C   0  0  0  0  0  0  0  0  0  0  0  0
   -5.5600   20.3380  -32.5110 C   0  0  0  0  0  0  0  0  0  0  0  0
   -5.9380   21.6790  -32.3090 C   0  0  0  0  0  0  0  0  0  0  0  0
   -7.2840   22.0790  -32.3070 O   0  0  0  0  0  0  0  0  0  0  0  0
   -8.3750   21.2430  -31.9330 C   0  0  0  0  0  0  0  0  0  0  0  0
   -1.5129   26.0160  -26.9635 H   0  0  0  0  0  0  0  0  0  0  0  0
   -0.1283   26.1162  -28.1035 H   0  0  0  0  0  0  0  0  0  0  0  0
   -1.3864   27.3984  -28.1035 H   0  0  0  0  0  0  0  0  0  0  0  0
   -0.0399   23.7520  -29.5002 H   0  0  0  0  0  0  0  0  0  0  0  0
   -0.3786   21.2829  -29.5356 H   0  0  0  0  0  0  0  0  0  0  0  0
   -2.6205   20.3187  -29.0295 H   0  0  0  0  0  0  0  0  0  0  0  0
   -4.5198   21.8161  -28.4409 H   0  0  0  0  0  0  0  0  0  0  0  0
   -5.0094   24.1471  -27.3620 H   0  0  0  0  0  0  0  0  0  0  0  0
   -4.1712   25.5509  -28.1449 H   0  0  0  0  0  0  0  0  0  0  0  0
   -6.0784   23.5529  -29.4390 H   0  0  0  0  0  0  0  0  0  0  0  0
   -6.3027   25.3355  -29.1969 H   0  0  0  0  0  0  0  0  0  0  0  0
   -2.8112   23.0759  -32.1897 H   0  0  0  0  0  0  0  0  0  0  0  0
   -0.8333   18.3957  -33.9564 H   0  0  0  0  0  0  0  0  0  0  0  0
   -1.0183   18.8001  -35.7172 H   0  0  0  0  0  0  0  0  0  0  0  0
    1.4206   19.3830  -33.9736 H   0  0  0  0  0  0  0  0  0  0  0  0
    1.2535   18.0926  -35.2546 H   0  0  0  0  0  0  0  0  0  0  0  0
    1.2626   22.0216  -36.3105 H   0  0  0  0  0  0  0  0  0  0  0  0
   -0.1363   20.9668  -36.8388 H   0  0  0  0  0  0  0  0  0  0  0  0
    0.5369   21.7035  -33.9582 H   0  0  0  0  0  0  0  0  0  0  0  0
   -0.7623   22.4424  -34.9698 H   0  0  0  0  0  0  0  0  0  0  0  0
   -3.9268   18.9349  -32.7394 H   0  0  0  0  0  0  0  0  0  0  0  0
   -6.3328   19.5605  -32.6017 H   0  0  0  0  0  0  0  0  0  0  0  0
   -8.4397   21.1934  -30.8360 H   0  0  0  0  0  0  0  0  0  0  0  0
   -9.3102   21.6579  -32.3371 H   0  0  0  0  0  0  0  0  0  0  0  0
   -8.2176   20.2321  -32.3371 H   0  0  0  0  0  0  0  0  0  0  0  0
  1  2  1  0
  2  3  1  0
  3  4  2  0
  4  5  1  0
  5  6  2  0
  6  7  1  0
  7  8  2  0
  8  9  1  0
  9 10  1  0
 10 11  1  0
 11 12  2  0
 11 13  1  0
 13 14  1  0
 14 15  2  0
 15 16  1  0
 16 17  1  0
 17 18  2  0
 17 19  2  0
 17 20  1  0
 20 21  1  0
 21 22  1  0
 22 23  1  0
 23 24  1  0
 24 25  1  0
 16 26  2  0
 26 27  1  0
 27 28  2  0
 28 29  1  0
 29 30  1  0
  8  3  1  0
 28 14  1  0
 25 20  1  0
  1 31  1  0
  1 32  1  0
  1 33  1  0
  4 34  1  0
  5 35  1  0
  6 36  1  0
  7 37  1  0
  9 38  1  0
  9 39  1  0
 10 40  1  0
 10 41  1  0
 15 42  1  0
 21 43  1  0
 21 44  1  0
 22 45  1  0
 22 46  1  0
 24 47  1  0
 24 48  1  0
 25 49  1  0
 25 50  1  0
 26 51  1  0
 27 52  1  0
 30 53  1  0
 30 54  1  0
 30 55  1  0
M  CHG  1  13  -1
M  END
>  <UniqueID>  (18) 
18

>  <SMILES>  (18) 
COc1ccccc1CCC(=O)[N-]c1cc(S(=O)(=O)N2CCOCC2)ccc1OC

>  <Energy>  (18) 
65.53976634497519

>  <Genealogy>  (18) 
COc1ccccc1CCC(=O)[N-]c1cc(S(=O)(=O)N2CCOCC2)ccc1OC (protonated)
COc1ccccc1CCC(=O)[N-]c1cc(S(=O)(=O)N2CCOCC2)ccc1OC (3D coordinates assigned)
COc1ccccc1CCC(=O)[N-]c1cc(S(=O)(=O)N2CCOCC2)ccc1OC (nonaromatic ring conformer: 65.53976634497519 kcal/mol)

>  <smiles>  (18) 
COc1ccccc1CCC(=O)Nc1cc(S(=O)(=O)N2CCOCC2)ccc1OC

>  <score_type>  (18) 
oracle

>  <origin>  (18) 
adgpu

>  <m_score__min__energy>  (18) 
-10.720000000000001

>  <m_primary>  (18) 
energy

$$$$
18:0
     RDKit          3D

 35 36  0  0  0  0  0  0  0  0999 V2000
   -0.2300   30.1720  -26.7010 C   0  0  0  0  0  0  0  0  0  0  0  0
    0.1890   28.9460  -26.1090 O   0  0  0  0  0  0  0  0  0  0  0  0
   -0.5110   27.7360  -26.2150 C   0  0  0  0  0  0  0  0  0  0  0  0
   -1.0860   27.0960  -25.1000 C   0  0  0  0  0  0  0  0  0  0  0  0
   -1.7880   25.8990  -25.2620 C   0  0  0  0  0  0  0  0  0  0  0  0
   -1.9140   25.3230  -26.5290 C   0  0  0  0  0  0  0  0  0  0  0  0
   -1.3240   25.9320  -27.6420 C   0  0  0  0  0  0  0  0  0  0  0  0
   -1.4920   25.3270  -28.9320 N   0  0  0  0  0  0  0  0  0  0  0  0
   -2.5950   24.5080  -29.3370 C   0  0  0  0  0  0  0  0  0  0  0  0
   -2.7310   23.3700  -28.8150 O   0  0  0  0  0  0  0  0  0  0  0  0
   -3.4780   24.9300  -30.3890 N   0  0  0  0  0  0  0  0  0  0  0  0
   -4.7600   24.3240  -30.6360 C   0  0  0  0  0  0  0  0  0  0  0  0
   -5.9390   24.9530  -30.1970 C   0  0  0  0  0  0  0  0  0  0  0  0
   -7.1870   24.3820  -30.4580 C   0  0  0  0  0  0  0  0  0  0  0  0
   -7.2740   23.1830  -31.1660 C   0  0  0  0  0  0  0  0  0  0  0  0
   -6.1120   22.5540  -31.6190 C   0  0  0  0  0  0  0  0  0  0  0  0
   -4.8550   23.1170  -31.3610 C   0  0  0  0  0  0  0  0  0  0  0  0
   -3.3890   22.2580  -31.9510 S   0  0  0  0  0  0  0  0  0  0  0  0
   -4.3320   21.1360  -33.0300 C   0  0  0  0  0  0  0  0  0  0  0  0
   -0.6410   27.1510  -27.4810 C   0  0  0  0  0  0  0  0  0  0  0  0
   -0.4772   30.8954  -25.9101 H   0  0  0  0  0  0  0  0  0  0  0  0
    0.5817   30.5741  -27.3250 H   0  0  0  0  0  0  0  0  0  0  0  0
   -1.1180   29.9932  -27.3250 H   0  0  0  0  0  0  0  0  0  0  0  0
   -0.9821   27.5398  -24.0989 H   0  0  0  0  0  0  0  0  0  0  0  0
   -2.2432   25.4082  -24.3891 H   0  0  0  0  0  0  0  0  0  0  0  0
   -2.4792   24.3873  -26.6518 H   0  0  0  0  0  0  0  0  0  0  0  0
   -3.1350   25.6670  -31.0430 H   0  0  0  0  0  0  0  0  0  0  0  0
   -5.8779   25.9019  -29.6439 H   0  0  0  0  0  0  0  0  0  0  0  0
   -8.1027   24.8786  -30.1047 H   0  0  0  0  0  0  0  0  0  0  0  0
   -8.2574   22.7331  -31.3674 H   0  0  0  0  0  0  0  0  0  0  0  0
   -6.1841   21.6114  -32.1814 H   0  0  0  0  0  0  0  0  0  0  0  0
   -4.9176   20.4393  -32.4122 H   0  0  0  0  0  0  0  0  0  0  0  0
   -5.0117   21.7232  -33.6650 H   0  0  0  0  0  0  0  0  0  0  0  0
   -3.6366   20.5674  -33.6650 H   0  0  0  0  0  0  0  0  0  0  0  0
   -0.2043   27.6502  -28.3586 H   0  0  0  0  0  0  0  0  0  0  0  0
  1  2  1  0
  2  3  1  0
  3  4  2  0
  4  5  1  0
  5  6  2  0
  6  7  1  0
  7  8  1  0
  8  9  1  0
  9 10  2  0
  9 11  1  0
 11 12  1  0
 12 13  2  0
 13 14  1  0
 14 15  2  0
 15 16  1  0
 16 17  2  0
 17 18  1  0
 18 19  1  0
  7 20  2  0
 20  3  1  0
 17 12  1  0
  1 21  1  0
  1 22  1  0
  1 23  1  0
  4 24  1  0
  5 25  1  0
  6 26  1  0
 11 27  1  0
 13 28  1  0
 14 29  1  0
 15 30  1  0
 16 31  1  0
 19 32  1  0
 19 33  1  0
 19 34  1  0
 20 35  1  0
M  CHG  1   8  -1
M  END
>  <UniqueID>  (19) 
19

>  <SMILES>  (19) 
COc1cccc([N-]C(=O)Nc2ccccc2SC)c1

>  <Energy>  (19) 
38.19212242558682

>  <Genealogy>  (19) 
COc1cccc([N-]C(=O)Nc2ccccc2SC)c1 (protonated)
COc1cccc([N-]C(=O)Nc2ccccc2SC)c1 (3D coordinates assigned)
COc1cccc([N-]C(=O)Nc2ccccc2SC)c1 (optimized conformer: 38.19212242558682 kcal/mol)

>  <smiles>  (19) 
COc1cccc(NC(=O)Nc2ccccc2SC)c1

>  <score_type>  (19) 
oracle

>  <origin>  (19) 
adgpu

>  <m_score__min__energy>  (19) 
-7.9800000000000004

>  <m_primary>  (19) 
energy

$$$$
19:0
     RDKit          3D

 55 58  0  0  0  0  0  0  0  0999 V2000
   -0.6820   21.8300  -26.1420 C   0  0  0  0  0  0  0  0  0  0  0  0
   -1.4100   22.7880  -27.0500 C   0  0  0  0  0  0  0  0  0  0  0  0
   -2.6620   22.3950  -27.5440 C   0  0  0  0  0  0  0  0  0  0  0  0
   -3.3780   23.2140  -28.4100 C   0  0  0  0  0  0  0  0  0  0  0  0
   -2.8530   24.4460  -28.8140 C   0  0  0  0  0  0  0  0  0  0  0  0
   -3.5450   25.2760  -29.7600 N   0  0  0  0  0  0  0  0  0  0  0  0
   -4.4420   24.8220  -30.7790 C   0  0  0  0  0  0  0  0  0  0  0  0
   -5.5620   25.3870  -30.8980 O   0  0  0  0  0  0  0  0  0  0  0  0
   -4.1180   23.6750  -31.5740 N   0  0  0  0  0  0  0  0  0  0  0  0
   -4.9420   22.5190  -31.7810 C   0  0  0  0  0  0  0  0  0  0  0  0
   -6.2550   22.7020  -32.2310 C   0  0  0  0  0  0  0  0  0  0  0  0
   -7.0970   21.6030  -32.4280 C   0  0  0  0  0  0  0  0  0  0  0  0
   -6.6370   20.3060  -32.1670 C   0  0  0  0  0  0  0  0  0  0  0  0
   -7.6900   18.9160  -32.4390 S   0  0  0  0  0  0  0  0  0  0  0  0
   -9.0650   19.4040  -32.8060 O   0  0  0  0  0  0  0  0  0  0  0  0
   -7.8060   18.1270  -31.1640 O   0  0  0  0  0  0  0  0  0  0  0  0
   -7.0880   17.8750  -33.7110 N   0  0  0  0  0  0  0  0  0  0  0  0
   -6.3930   16.7080  -33.1560 C   0  0  0  0  0  0  0  0  0  0  0  0
   -4.8960   16.9820  -33.1830 C   0  0  0  0  0  0  0  0  0  0  0  0
   -4.7130   18.1900  -34.0800 C   0  0  0  0  0  0  0  0  0  0  0  0
   -6.1090   18.5740  -34.5500 C   0  0  0  0  0  0  0  0  0  0  0  0
   -5.3340   20.1210  -31.6840 C   0  0  0  0  0  0  0  0  0  0  0  0
   -4.4920   21.2190  -31.4870 C   0  0  0  0  0  0  0  0  0  0  0  0
   -1.5880   24.8480  -28.3590 C   0  0  0  0  0  0  0  0  0  0  0  0
   -1.0640   26.0340  -28.8810 O   0  0  0  0  0  0  0  0  0  0  0  0
   -0.8790   24.0570  -27.4120 C   0  0  0  0  0  0  0  0  0  0  0  0
    0.6370   24.6790  -26.7020 S   0  0  0  0  0  0  0  0  0  0  0  0
    1.4830   25.3830  -27.7250 O   0  0  0  0  0  0  0  0  0  0  0  0
    1.4490   23.5290  -26.1770 O   0  0  0  0  0  0  0  0  0  0  0  0
    0.2270   25.7790  -25.3470 C   0  0  0  0  0  0  0  0  0  0  0  0
   -0.7860   26.8540  -25.7010 C   0  0  0  0  0  0  0  0  0  0  0  0
   -1.1970   25.6820  -24.8240 C   0  0  0  0  0  0  0  0  0  0  0  0
   -0.8829   22.0944  -25.0933 H   0  0  0  0  0  0  0  0  0  0  0  0
   -1.0310   20.8049  -26.3350 H   0  0  0  0  0  0  0  0  0  0  0  0
    0.3992   21.8917  -26.3350 H   0  0  0  0  0  0  0  0  0  0  0  0
   -3.0838   21.4250  -27.2422 H   0  0  0  0  0  0  0  0  0  0  0  0
   -4.3626   22.8913  -28.7794 H   0  0  0  0  0  0  0  0  0  0  0  0
   -6.6270   23.7177  -32.4311 H   0  0  0  0  0  0  0  0  0  0  0  0
   -8.1244   21.7577  -32.7893 H   0  0  0  0  0  0  0  0  0  0  0  0
   -6.7209   16.5385  -32.1198 H   0  0  0  0  0  0  0  0  0  0  0  0
   -6.6239   15.8124  -33.7514 H   0  0  0  0  0  0  0  0  0  0  0  0
   -4.5279   17.1985  -32.1693 H   0  0  0  0  0  0  0  0  0  0  0  0
   -4.3322   16.1134  -33.5540 H   0  0  0  0  0  0  0  0  0  0  0  0
   -4.2567   19.0184  -33.5183 H   0  0  0  0  0  0  0  0  0  0  0  0
   -4.0478   17.9675  -34.9274 H   0  0  0  0  0  0  0  0  0  0  0  0
   -6.2471   19.6611  -34.4550 H   0  0  0  0  0  0  0  0  0  0  0  0
   -6.2442   18.2912  -35.6044 H   0  0  0  0  0  0  0  0  0  0  0  0
   -4.9725   19.1067  -31.4590 H   0  0  0  0  0  0  0  0  0  0  0  0
   -3.4735   21.0661  -31.1006 H   0  0  0  0  0  0  0  0  0  0  0  0
   -1.6150   26.7360  -29.3510 H   0  0  0  0  0  0  0  0  0  0  0  0
    1.2227   25.7570  -24.8801 H   0  0  0  0  0  0  0  0  0  0  0  0
   -0.6944   27.8604  -25.2666 H   0  0  0  0  0  0  0  0  0  0  0  0
   -1.1593   27.2925  -26.6382 H   0  0  0  0  0  0  0  0  0  0  0  0
   -1.4025   25.8403  -23.7550 H   0  0  0  0  0  0  0  0  0  0  0  0
   -1.9904   24.9211  -24.8636 H   0  0  0  0  0  0  0  0  0  0  0  0
  1  2  1  0
  2  3  2  0
  3  4  1  0
  4  5  2  0
  5  6  1  0
  6  7  1  0
  7  8  2  0
  7  9  1  0
  9 10  1  0
 10 11  2  0
 11 12  1  0
 12 13  2  0
 13 14  1  0
 14 15  2  0
 14 16  2  0
 14 17  1  0
 17 18  1  0
 18 19  1  0
 19 20  1  0
 20 21  1  0
 13 22  1  0
 22 23  2  0
  5 24  1  0
 24 25  1  0
 24 26  2  0
 26 27  1  0
 27 28  2  0
 27 29  2  0
 27 30  1  0
 30 31  1  0
 31 32  1  0
 26  2  1  0
 32 30  1  0
 23 10  1  0
 21 17  1  0
  1 33  1  0
  1 34  1  0
  1 35  1  0
  3 36  1  0
  4 37  1  0
 11 38  1  0
 12 39  1  0
 18 40  1  0
 18 41  1  0
 19 42  1  0
 19 43  1  0
 20 44  1  0
 20 45  1  0
 21 46  1  0
 21 47  1  0
 22 48  1  0
 23 49  1  0
 25 50  1  0
 30 51  1  0
 31 52  1  0
 31 53  1  0
 32 54  1  0
 32 55  1  0
M  CHG  2   6  -1   9  -1
M  END
>  <UniqueID>  (20) 
20

>  <SMILES>  (20) 
Cc1ccc([N-]C(=O)[N-]c2ccc(S(=O)(=O)N3CCCC3)cc2)c(O)c1S(=O)(=O)C1CC1

>  <Energy>  (20) 
333.12219979134045

>  <Genealogy>  (20) 
Cc1ccc([N-]C(=O)[N-]c2ccc(S(=O)(=O)N3CCCC3)cc2)c(O)c1S(=O)(=O)C1CC1 (protonated)
Cc1ccc([N-]C(=O)[N-]c2ccc(S(=O)(=O)N3CCCC3)cc2)c(O)c1S(=O)(=O)C1CC1 (3D coordinates assigned)
Cc1ccc([N-]C(=O)[N-]c2ccc(S(=O)(=O)N3CCCC3)cc2)c(O)c1S(=O)(=O)C1CC1 (nonaromatic ring conformer: 333.12219979134045 kcal/mol)

>  <smiles>  (20) 
Cc1ccc(NC(=O)Nc2ccc(S(=O)(=O)N3CCCC3)cc2)c(O)c1S(=O)(=O)C1CC1

>  <score_type>  (20) 
oracle

>  <origin>  (20) 
adgpu

>  <m_score__min__energy>  (20) 
-14.58

>  <m_primary>  (20) 
energy

$$$$
20:0
     RDKit          3D

 38 42  0  0  0  0  0  0  0  0999 V2000
   -3.8590   25.2950  -29.7970 O   0  0  0  0  0  0  0  0  0  0  0  0
   -4.3250   24.1180  -30.3790 C   0  0  0  0  0  0  0  0  0  0  0  0
   -5.6220   23.6590  -30.1180 C   0  0  0  0  0  0  0  0  0  0  0  0
   -6.0910   22.4810  -30.7050 C   0  0  0  0  0  0  0  0  0  0  0  0
   -5.2730   21.7420  -31.5840 C   0  0  0  0  0  0  0  0  0  0  0  0
   -5.7090   20.5270  -32.2160 C   0  0  0  0  0  0  0  0  0  0  0  0
   -7.0860   20.0110  -32.1010 C   0  0  0  0  0  0  0  0  0  0  0  0
   -8.2590   20.7020  -32.3910 C   0  0  0  0  0  0  0  0  0  0  0  0
   -9.4070   19.9070  -32.2980 C   0  0  0  0  0  0  0  0  0  0  0  0
   -9.1460   18.5860  -31.9620 C   0  0  0  0  0  0  0  0  0  0  0  0
   -7.4830   18.4070  -31.7870 S   0  0  0  0  0  0  0  0  0  0  0  0
   -4.8320   19.8060  -32.9820 N   0  0  0  0  0  0  0  0  0  0  0  0
   -3.5750   20.2650  -33.1670 C   0  0  0  0  0  0  0  0  0  0  0  0
   -2.5340   19.7320  -33.8820 C   0  0  0  0  0  0  0  0  0  0  0  0
   -1.4860   20.5880  -33.7450 N   0  0  0  0  0  0  0  0  0  0  0  0
   -0.1680   20.4410  -34.3130 C   0  0  0  0  0  0  0  0  0  0  0  0
    0.7910   19.6360  -33.6670 C   0  0  0  0  0  0  0  0  0  0  0  0
    2.0720   19.4860  -34.2040 C   0  0  0  0  0  0  0  0  0  0  0  0
    2.4150   20.1380  -35.3900 C   0  0  0  0  0  0  0  0  0  0  0  0
    1.4780   20.9440  -36.0390 C   0  0  0  0  0  0  0  0  0  0  0  0
    0.1940   21.0980  -35.5070 C   0  0  0  0  0  0  0  0  0  0  0  0
   -1.8390   21.6200  -32.9760 N   0  0  0  0  0  0  0  0  0  0  0  0
   -3.1230   21.4230  -32.6250 C   0  0  0  0  0  0  0  0  0  0  0  0
   -3.9430   22.2040  -31.8150 C   0  0  0  0  0  0  0  0  0  0  0  0
   -3.4840   23.3880  -31.2220 C   0  0  0  0  0  0  0  0  0  0  0  0
   -4.2440   25.6440  -28.9260 H   0  0  0  0  0  0  0  0  0  0  0  0
   -6.2775   24.2310  -29.4448 H   0  0  0  0  0  0  0  0  0  0  0  0
   -7.1077   22.1269  -30.4793 H   0  0  0  0  0  0  0  0  0  0  0  0
   -8.2814   21.7669  -32.6659 H   0  0  0  0  0  0  0  0  0  0  0  0
  -10.4217   20.2932  -32.4748 H   0  0  0  0  0  0  0  0  0  0  0  0
   -9.8972   17.7929  -31.8325 H   0  0  0  0  0  0  0  0  0  0  0  0
   -2.5442   18.7935  -34.4556 H   0  0  0  0  0  0  0  0  0  0  0  0
    0.5287   19.1208  -32.7312 H   0  0  0  0  0  0  0  0  0  0  0  0
    2.8116   18.8532  -33.6916 H   0  0  0  0  0  0  0  0  0  0  0  0
    3.4232   20.0166  -35.8129 H   0  0  0  0  0  0  0  0  0  0  0  0
    1.7505   21.4595  -36.9717 H   0  0  0  0  0  0  0  0  0  0  0  0
   -0.5385   21.7359  -36.0233 H   0  0  0  0  0  0  0  0  0  0  0  0
   -2.4617   23.7423  -31.4204 H   0  0  0  0  0  0  0  0  0  0  0  0
  1  2  1  0
  2  3  2  0
  3  4  1  0
  4  5  2  0
  5  6  1  0
  6  7  1  0
  7  8  2  0
  8  9  1  0
  9 10  2  0
 10 11  1  0
  6 12  2  0
 12 13  1  0
 13 14  2  0
 14 15  1  0
 15 16  1  0
 16 17  2  0
 17 18  1  0
 18 19  2  0
 19 20  1  0
 20 21  2  0
 15 22  1  0
 22 23  2  0
 23 24  1  0
 24 25  2  0
 25  2  1  0
 24  5  1  0
 11  7  1  0
 23 13  1  0
 21 16  1  0
  1 26  1  0
  3 27  1  0
  4 28  1  0
  8 29  1  0
  9 30  1  0
 10 31  1  0
 14 32  1  0
 17 33  1  0
 18 34  1  0
 19 35  1  0
 20 36  1  0
 21 37  1  0
 25 38  1  0
M  END
>  <UniqueID>  (21) 
21

>  <SMILES>  (21) 
Oc1ccc2c(-c3cccs3)nc3cn(-c4ccccc4)nc3c2c1

>  <Energy>  (21) 
123.99045158753009

>  <Genealogy>  (21) 
Oc1ccc2c(-c3cccs3)nc3cn(-c4ccccc4)nc3c2c1 (3D coordinates assigned)
Oc1ccc2c(-c3cccs3)nc3cn(-c4ccccc4)nc3c2c1 (optimized conformer: 123.99045158753009 kcal/mol)

>  <smiles>  (21) 
Oc1ccc2c(-c3cccs3)nc3cn(-c4ccccc4)nc3c2c1

>  <score_type>  (21) 
oracle

>  <origin>  (21) 
adgpu

>  <m_score__min__energy>  (21) 
-8.8800000000000008

>  <m_primary>  (21) 
energy

$$$$
21:0
     RDKit          3D

 43 45  0  0  0  0  0  0  0  0999 V2000
   -1.0130   20.1110  -28.5550 O   0  0  0  0  0  0  0  0  0  0  0  0
   -1.9460   20.9350  -27.7110 S   0  0  0  0  0  0  0  0  0  0  0  0
   -3.1170   20.0760  -27.3250 O   0  0  0  0  0  0  0  0  0  0  0  0
   -1.1500   21.4820  -26.2720 N   0  0  0  0  0  0  0  0  0  0  0  0
   -0.3880   22.6920  -26.1650 C   0  0  0  0  0  0  0  0  0  0  0  0
   -0.8960   23.8330  -25.5170 C   0  0  0  0  0  0  0  0  0  0  0  0
   -0.1370   25.0090  -25.4520 C   0  0  0  0  0  0  0  0  0  0  0  0
   -0.8110   26.4610  -24.7010 S   0  0  0  0  0  0  0  0  0  0  0  0
   -0.4840   26.4390  -23.2330 O   0  0  0  0  0  0  0  0  0  0  0  0
   -2.3070   26.4350  -24.8410 O   0  0  0  0  0  0  0  0  0  0  0  0
   -0.2220   27.9370  -25.4320 N   0  0  0  0  0  0  0  0  0  0  0  0
   -0.8670   29.1200  -24.8450 C   0  0  0  0  0  0  0  0  0  0  0  0
   -0.2570   30.4010  -25.4530 C   0  0  0  0  0  0  0  0  0  0  0  0
    0.5650   30.1300  -26.5770 O   0  0  0  0  0  0  0  0  0  0  0  0
   -0.1290   29.3100  -27.4970 C   0  0  0  0  0  0  0  0  0  0  0  0
   -0.4010   27.9170  -26.8930 C   0  0  0  0  0  0  0  0  0  0  0  0
    1.1470   25.0360  -26.0150 C   0  0  0  0  0  0  0  0  0  0  0  0
    1.6520   23.9090  -26.6630 C   0  0  0  0  0  0  0  0  0  0  0  0
    0.8870   22.7400  -26.7510 C   0  0  0  0  0  0  0  0  0  0  0  0
    1.3930   21.6170  -27.4060 O   0  0  0  0  0  0  0  0  0  0  0  0
   -2.5340   22.3360  -28.6020 C   0  0  0  0  0  0  0  0  0  0  0  0
   -3.7170   22.2590  -29.3520 C   0  0  0  0  0  0  0  0  0  0  0  0
   -4.1620   23.3700  -30.0750 C   0  0  0  0  0  0  0  0  0  0  0  0
   -3.4240   24.5580  -30.0610 C   0  0  0  0  0  0  0  0  0  0  0  0
   -3.8770   25.6580  -30.7780 O   0  0  0  0  0  0  0  0  0  0  0  0
   -2.2360   24.6360  -29.3240 C   0  0  0  0  0  0  0  0  0  0  0  0
   -1.4960   25.8150  -29.3090 O   0  0  0  0  0  0  0  0  0  0  0  0
   -1.7900   23.5270  -28.5980 C   0  0  0  0  0  0  0  0  0  0  0  0
   -1.8954   23.8016  -25.0585 H   0  0  0  0  0  0  0  0  0  0  0  0
   -1.9457   29.0919  -25.0583 H   0  0  0  0  0  0  0  0  0  0  0  0
   -0.7054   29.1207  -23.7569 H   0  0  0  0  0  0  0  0  0  0  0  0
   -1.0746   31.0669  -25.7661 H   0  0  0  0  0  0  0  0  0  0  0  0
    0.3733   30.8695  -24.6828 H   0  0  0  0  0  0  0  0  0  0  0  0
   -1.0874   29.7857  -27.7523 H   0  0  0  0  0  0  0  0  0  0  0  0
    0.4905   29.1886  -28.3979 H   0  0  0  0  0  0  0  0  0  0  0  0
   -1.4338   27.6183  -27.1258 H   0  0  0  0  0  0  0  0  0  0  0  0
    0.3117   27.1996  -27.3259 H   0  0  0  0  0  0  0  0  0  0  0  0
    1.7575   25.9484  -25.9454 H   0  0  0  0  0  0  0  0  0  0  0  0
    2.6577   23.9389  -27.1077 H   0  0  0  0  0  0  0  0  0  0  0  0
    0.8060   20.8200  -27.6210 H   0  0  0  0  0  0  0  0  0  0  0  0
   -4.2953   21.3235  -29.3713 H   0  0  0  0  0  0  0  0  0  0  0  0
   -5.0942   23.3096  -30.6558 H   0  0  0  0  0  0  0  0  0  0  0  0
   -0.8545   23.5878  -28.0226 H   0  0  0  0  0  0  0  0  0  0  0  0
  1  2  2  0
  2  3  2  0
  2  4  1  0
  4  5  1  0
  5  6  2  0
  6  7  1  0
  7  8  1  0
  8  9  2  0
  8 10  2  0
  8 11  1  0
 11 12  1  0
 12 13  1  0
 13 14  1  0
 14 15  1  0
 15 16  1  0
  7 17  2  0
 17 18  1  0
 18 19  2  0
 19 20  1  0
  2 21  1  0
 21 22  2  0
 22 23  1  0
 23 24  2  0
 24 25  1  0
 24 26  1  0
 26 27  1  0
 26 28  2  0
 19  5  1  0
 28 21  1  0
 16 11  1  0
  6 29  1  0
 12 30  1  0
 12 31  1  0
 13 32  1  0
 13 33  1  0
 15 34  1  0
 15 35  1  0
 16 36  1  0
 16 37  1  0
 17 38  1  0
 18 39  1  0
 20 40  1  0
 22 41  1  0
 23 42  1  0
 28 43  1  0
M  CHG  3   4  -1  25  -1  27  -1
M  END
>  <UniqueID>  (22) 
22

>  <SMILES>  (22) 
O=S(=O)([N-]c1cc(S(=O)(=O)N2CCOCC2)ccc1O)c1ccc([O-])c([O-])c1

>  <Energy>  (22) 
55.920873698713486

>  <Genealogy>  (22) 
O=S(=O)([N-]c1cc(S(=O)(=O)N2CCOCC2)ccc1O)c1ccc([O-])c([O-])c1 (protonated)
O=S(=O)([N-]c1cc(S(=O)(=O)N2CCOCC2)ccc1O)c1ccc([O-])c([O-])c1 (3D coordinates assigned)
O=S(=O)([N-]c1cc(S(=O)(=O)N2CCOCC2)ccc1O)c1ccc([O-])c([O-])c1 (nonaromatic ring conformer: 55.920873698713486 kcal/mol)

>  <smiles>  (22) 
O=S(=O)(Nc1cc(S(=O)(=O)N2CCOCC2)ccc1O)c1ccc(O)c(O)c1

>  <score_type>  (22) 
oracle

>  <origin>  (22) 
adgpu

>  <m_score__min__energy>  (22) 
-13.67

>  <m_primary>  (22) 
energy

$$$$
22:0
     RDKit          3D

 37 39  0  0  0  0  0  0  0  0999 V2000
   -9.1820   22.4170  -31.5510 C   0  0  0  0  0  0  0  0  0  0  0  0
   -7.8050   22.9690  -31.3260 C   0  0  0  0  0  0  0  0  0  0  0  0
   -7.2820   23.0550  -30.0280 C   0  0  0  0  0  0  0  0  0  0  0  0
   -5.9850   23.5350  -29.8200 C   0  0  0  0  0  0  0  0  0  0  0  0
   -5.1880   23.9270  -30.9130 C   0  0  0  0  0  0  0  0  0  0  0  0
   -3.8800   24.4170  -30.7650 O   0  0  0  0  0  0  0  0  0  0  0  0
   -2.8450   23.8040  -29.9970 C   0  0  0  0  0  0  0  0  0  0  0  0
   -2.8800   22.2870  -30.1620 C   0  0  0  0  0  0  0  0  0  0  0  0
   -1.8890   21.7970  -31.6100 S   0  0  0  0  0  0  0  0  0  0  0  0
   -3.2520   20.9400  -32.3900 C   0  0  0  0  0  0  0  0  0  0  0  0
   -3.2090   20.4280  -33.6330 N   0  0  0  0  0  0  0  0  0  0  0  0
   -4.3940   19.8770  -33.8440 N   0  0  0  0  0  0  0  0  0  0  0  0
   -5.1120   20.0760  -32.7200 C   0  0  0  0  0  0  0  0  0  0  0  0
   -6.5010   19.6160  -32.5230 C   0  0  0  0  0  0  0  0  0  0  0  0
   -6.7960   18.6020  -31.5970 C   0  0  0  0  0  0  0  0  0  0  0  0
   -8.1200   18.1870  -31.4300 C   0  0  0  0  0  0  0  0  0  0  0  0
   -9.1130   18.7600  -32.1600 N   0  0  0  0  0  0  0  0  0  0  0  0
   -8.8560   19.7430  -33.0630 C   0  0  0  0  0  0  0  0  0  0  0  0
   -7.5470   20.1890  -33.2620 C   0  0  0  0  0  0  0  0  0  0  0  0
   -4.4140   20.7310  -31.8230 O   0  0  0  0  0  0  0  0  0  0  0  0
   -5.7090   23.8170  -32.2080 C   0  0  0  0  0  0  0  0  0  0  0  0
   -7.0050   23.3380  -32.4160 C   0  0  0  0  0  0  0  0  0  0  0  0
   -9.6628   22.2242  -30.5806 H   0  0  0  0  0  0  0  0  0  0  0  0
   -9.7805   23.1447  -32.1187 H   0  0  0  0  0  0  0  0  0  0  0  0
   -9.1121   21.4774  -32.1187 H   0  0  0  0  0  0  0  0  0  0  0  0
   -7.8947   22.7435  -29.1692 H   0  0  0  0  0  0  0  0  0  0  0  0
   -5.5854   23.6067  -28.7977 H   0  0  0  0  0  0  0  0  0  0  0  0
   -1.8698   24.1822  -30.3376 H   0  0  0  0  0  0  0  0  0  0  0  0
   -2.9986   24.0488  -28.9357 H   0  0  0  0  0  0  0  0  0  0  0  0
   -2.4667   21.8125  -29.2598 H   0  0  0  0  0  0  0  0  0  0  0  0
   -3.9208   21.9629  -30.3094 H   0  0  0  0  0  0  0  0  0  0  0  0
   -5.9912   18.1381  -31.0078 H   0  0  0  0  0  0  0  0  0  0  0  0
   -8.3591   17.3944  -30.7057 H   0  0  0  0  0  0  0  0  0  0  0  0
   -9.6808   20.1885  -33.6386 H   0  0  0  0  0  0  0  0  0  0  0  0
   -7.3379   20.9839  -33.9930 H   0  0  0  0  0  0  0  0  0  0  0  0
   -5.0920   24.1106  -33.0700 H   0  0  0  0  0  0  0  0  0  0  0  0
   -7.3989   23.2502  -33.4393 H   0  0  0  0  0  0  0  0  0  0  0  0
  1  2  1  0
  2  3  2  0
  3  4  1  0
  4  5  2  0
  5  6  1  0
  6  7  1  0
  7  8  1  0
  8  9  1  0
  9 10  1  0
 10 11  2  0
 11 12  1  0
 12 13  2  0
 13 14  1  0
 14 15  2  0
 15 16  1  0
 16 17  2  0
 17 18  1  0
 18 19  2  0
 13 20  1  0
  5 21  1  0
 21 22  2  0
 22  2  1  0
 20 10  1  0
 19 14  1  0
  1 23  1  0
  1 24  1  0
  1 25  1  0
  3 26  1  0
  4 27  1  0
  7 28  1  0
  7 29  1  0
  8 30  1  0
  8 31  1  0
 15 32  1  0
 16 33  1  0
 18 34  1  0
 19 35  1  0
 21 36  1  0
 22 37  1  0
M  END
>  <UniqueID>  (23) 
23

>  <SMILES>  (23) 
Cc1ccc(OCCSc2nnc(-c3ccncc3)o2)cc1

>  <Energy>  (23) 
68.83537847856583

>  <Genealogy>  (23) 
Cc1ccc(OCCSc2nnc(-c3ccncc3)o2)cc1 (3D coordinates assigned)
Cc1ccc(OCCSc2nnc(-c3ccncc3)o2)cc1 (optimized conformer: 68.83537847856583 kcal/mol)

>  <smiles>  (23) 
Cc1ccc(OCCSc2nnc(-c3ccncc3)o2)cc1

>  <score_type>  (23) 
oracle

>  <origin>  (23) 
adgpu

>  <m_score__min__energy>  (23) 
-8.0899999999999999

>  <m_primary>  (23) 
energy

$$$$
23:0
     RDKit          3D

 48 50  0  0  0  0  0  0  0  0999 V2000
   -3.2960   23.0460  -31.1050 C   0  0  0  0  0  0  0  0  0  0  0  0
   -3.4770   24.3720  -30.5350 N   0  0  0  0  0  0  0  0  0  0  0  0
   -4.1820   24.5970  -29.3120 C   0  0  0  0  0  0  0  0  0  0  0  0
   -3.6310   24.3610  -28.2030 O   0  0  0  0  0  0  0  0  0  0  0  0
   -5.6020   25.0630  -29.3520 C   0  0  0  0  0  0  0  0  0  0  0  0
   -6.3500   24.2890  -30.3360 N   0  0  0  0  0  0  0  0  0  0  0  0
   -7.1720   23.2570  -30.0680 C   0  0  0  0  0  0  0  0  0  0  0  0
   -7.7280   22.8510  -31.2580 C   0  0  0  0  0  0  0  0  0  0  0  0
   -8.8510   21.5290  -31.5040 S   0  0  0  0  0  0  0  0  0  0  0  0
   -9.9280   21.9520  -32.4630 O   0  0  0  0  0  0  0  0  0  0  0  0
   -9.4980   21.1690  -30.1950 O   0  0  0  0  0  0  0  0  0  0  0  0
   -7.9810   20.1430  -32.1490 C   0  0  0  0  0  0  0  0  0  0  0  0
   -6.9160   20.3310  -33.0410 C   0  0  0  0  0  0  0  0  0  0  0  0
   -6.2380   19.2290  -33.5690 C   0  0  0  0  0  0  0  0  0  0  0  0
   -6.6110   17.9230  -33.2050 C   0  0  0  0  0  0  0  0  0  0  0  0
   -5.9490   16.7720  -33.7550 N   0  0  0  0  0  0  0  0  0  0  0  0
   -5.2480   15.7940  -32.9620 C   0  0  0  0  0  0  0  0  0  0  0  0
   -5.2730   15.8710  -31.7030 O   0  0  0  0  0  0  0  0  0  0  0  0
   -4.4990   14.6830  -33.5970 C   0  0  0  0  0  0  0  0  0  0  0  0
   -4.3950   13.4210  -32.9830 C   0  0  0  0  0  0  0  0  0  0  0  0
   -3.6790   12.3900  -33.5980 C   0  0  0  0  0  0  0  0  0  0  0  0
   -3.0600   12.5990  -34.8380 C   0  0  0  0  0  0  0  0  0  0  0  0
   -2.2590   11.5030  -35.4770 C   0  0  0  0  0  0  0  0  0  0  0  0
   -3.1320   13.8630  -35.4380 C   0  0  0  0  0  0  0  0  0  0  0  0
   -3.8470   14.8960  -34.8250 C   0  0  0  0  0  0  0  0  0  0  0  0
   -7.6990   17.7410  -32.3390 C   0  0  0  0  0  0  0  0  0  0  0  0
   -8.3770   18.8440  -31.8100 C   0  0  0  0  0  0  0  0  0  0  0  0
   -7.2020   23.6850  -32.2230 C   0  0  0  0  0  0  0  0  0  0  0  0
   -6.3670   24.5630  -31.6320 N   0  0  0  0  0  0  0  0  0  0  0  0
   -3.1954   22.3091  -30.2945 H   0  0  0  0  0  0  0  0  0  0  0  0
   -4.1677   22.7916  -31.7258 H   0  0  0  0  0  0  0  0  0  0  0  0
   -2.3880   23.0346  -31.7258 H   0  0  0  0  0  0  0  0  0  0  0  0
   -6.0579   24.9297  -28.3598 H   0  0  0  0  0  0  0  0  0  0  0  0
   -5.6268   26.1264  -29.6323 H   0  0  0  0  0  0  0  0  0  0  0  0
   -7.3638   22.8186  -29.0775 H   0  0  0  0  0  0  0  0  0  0  0  0
   -6.6130   21.3493  -33.3262 H   0  0  0  0  0  0  0  0  0  0  0  0
   -5.4076   19.3841  -34.2735 H   0  0  0  0  0  0  0  0  0  0  0  0
   -6.0350   16.6270  -34.7850 H   0  0  0  0  0  0  0  0  0  0  0  0
   -4.8807   13.2446  -32.0120 H   0  0  0  0  0  0  0  0  0  0  0  0
   -3.6009   11.4092  -33.1061 H   0  0  0  0  0  0  0  0  0  0  0  0
   -1.8026   10.8786  -34.6948 H   0  0  0  0  0  0  0  0  0  0  0  0
   -2.9187   10.8835  -36.1023 H   0  0  0  0  0  0  0  0  0  0  0  0
   -1.4684   11.9434  -36.1023 H   0  0  0  0  0  0  0  0  0  0  0  0
   -2.6232   14.0435  -36.3964 H   0  0  0  0  0  0  0  0  0  0  0  0
   -3.9002   15.8834  -35.3069 H   0  0  0  0  0  0  0  0  0  0  0  0
   -8.0215   16.7233  -32.0739 H   0  0  0  0  0  0  0  0  0  0  0  0
   -9.2241   18.6901  -31.1254 H   0  0  0  0  0  0  0  0  0  0  0  0
   -7.4271   23.6408  -33.2988 H   0  0  0  0  0  0  0  0  0  0  0  0
  1  2  1  0
  2  3  1  0
  3  4  2  0
  3  5  1  0
  5  6  1  0
  6  7  1  0
  7  8  2  0
  8  9  1  0
  9 10  2  0
  9 11  2  0
  9 12  1  0
 12 13  2  0
 13 14  1  0
 14 15  2  0
 15 16  1  0
 16 17  1  0
 17 18  2  0
 17 19  1  0
 19 20  2  0
 20 21  1  0
 21 22  2  0
 22 23  1  0
 22 24  1  0
 24 25  2  0
 15 26  1  0
 26 27  2  0
  8 28  1  0
 28 29  2  0
 29  6  1  0
 27 12  1  0
 25 19  1  0
  1 30  1  0
  1 31  1  0
  1 32  1  0
  5 33  1  0
  5 34  1  0
  7 35  1  0
 13 36  1  0
 14 37  1  0
 16 38  1  0
 20 39  1  0
 21 40  1  0
 23 41  1  0
 23 42  1  0
 23 43  1  0
 24 44  1  0
 25 45  1  0
 26 46  1  0
 27 47  1  0
 28 48  1  0
M  CHG  1   2  -1
M  END
>  <UniqueID>  (24) 
24

>  <SMILES>  (24) 
C[N-]C(=O)Cn1cc(S(=O)(=O)c2ccc(NC(=O)c3ccc(C)cc3)cc2)cn1

>  <Energy>  (24) 
83.38745583678426

>  <Genealogy>  (24) 
C[N-]C(=O)Cn1cc(S(=O)(=O)c2ccc(NC(=O)c3ccc(C)cc3)cc2)cn1 (protonated)
C[N-]C(=O)Cn1cc(S(=O)(=O)c2ccc(NC(=O)c3ccc(C)cc3)cc2)cn1 (3D coordinates assigned)
C[N-]C(=O)Cn1cc(S(=O)(=O)c2ccc(NC(=O)c3ccc(C)cc3)cc2)cn1 (optimized conformer: 83.38745583678426 kcal/mol)

>  <smiles>  (24) 
CNC(=O)Cn1cc(S(=O)(=O)c2ccc(NC(=O)c3ccc(C)cc3)cc2)cn1

>  <score_type>  (24) 
oracle

>  <origin>  (24) 
adgpu

>  <m_score__min__energy>  (24) 
-10.51

>  <m_primary>  (24) 
energy

$$$$
24:0
     RDKit          3D

 43 45  0  0  0  0  0  0  0  0999 V2000
   -5.7420   26.4950  -30.5100 O   0  0  0  0  0  0  0  0  0  0  0  0
   -5.2080   25.3670  -30.6850 C   0  0  0  0  0  0  0  0  0  0  0  0
   -3.7830   25.2580  -30.5660 N   0  0  0  0  0  0  0  0  0  0  0  0
   -3.0710   24.3550  -29.7070 C   0  0  0  0  0  0  0  0  0  0  0  0
   -3.5390   23.0400  -29.5820 C   0  0  0  0  0  0  0  0  0  0  0  0
   -2.8710   22.1260  -28.7610 C   0  0  0  0  0  0  0  0  0  0  0  0
   -1.7400   22.5250  -28.0440 C   0  0  0  0  0  0  0  0  0  0  0  0
   -1.2840   23.8420  -28.1370 C   0  0  0  0  0  0  0  0  0  0  0  0
   -1.9510   24.7650  -28.9520 C   0  0  0  0  0  0  0  0  0  0  0  0
   -1.5100   26.0820  -28.9810 O   0  0  0  0  0  0  0  0  0  0  0  0
   -6.0680   24.1900  -30.9570 C   0  0  0  0  0  0  0  0  0  0  0  0
   -6.5880   23.4160  -29.9050 C   0  0  0  0  0  0  0  0  0  0  0  0
   -7.3970   22.3090  -30.1730 C   0  0  0  0  0  0  0  0  0  0  0  0
   -7.7130   21.9670  -31.4950 C   0  0  0  0  0  0  0  0  0  0  0  0
   -8.7550   20.5820  -31.8320 S   0  0  0  0  0  0  0  0  0  0  0  0
  -10.0480   21.0680  -32.4260 O   0  0  0  0  0  0  0  0  0  0  0  0
   -9.0720   19.8760  -30.5430 O   0  0  0  0  0  0  0  0  0  0  0  0
   -7.9960   19.4620  -32.9400 N   0  0  0  0  0  0  0  0  0  0  0  0
   -7.8520   18.1310  -32.3080 C   0  0  0  0  0  0  0  0  0  0  0  0
   -6.8420   17.2620  -33.0630 C   0  0  0  0  0  0  0  0  0  0  0  0
   -5.4390   17.8940  -33.0390 C   0  0  0  0  0  0  0  0  0  0  0  0
   -5.4790   19.4230  -32.8720 C   0  0  0  0  0  0  0  0  0  0  0  0
   -6.7430   20.0180  -33.5080 C   0  0  0  0  0  0  0  0  0  0  0  0
   -7.2050   22.7410  -32.5460 C   0  0  0  0  0  0  0  0  0  0  0  0
   -6.3950   23.8480  -32.2800 C   0  0  0  0  0  0  0  0  0  0  0  0
   -4.4373   22.7248  -30.1331 H   0  0  0  0  0  0  0  0  0  0  0  0
   -3.2364   21.0917  -28.6796 H   0  0  0  0  0  0  0  0  0  0  0  0
   -1.2091   21.8025  -27.4068 H   0  0  0  0  0  0  0  0  0  0  0  0
   -0.3968   24.1556  -27.5674 H   0  0  0  0  0  0  0  0  0  0  0  0
   -6.3563   23.6838  -28.8636 H   0  0  0  0  0  0  0  0  0  0  0  0
   -7.7879   21.7028  -29.3425 H   0  0  0  0  0  0  0  0  0  0  0  0
   -7.5076   18.2620  -31.2715 H   0  0  0  0  0  0  0  0  0  0  0  0
   -8.8297   17.6276  -32.3329 H   0  0  0  0  0  0  0  0  0  0  0  0
   -6.7972   16.2700  -32.5897 H   0  0  0  0  0  0  0  0  0  0  0  0
   -7.1686   17.1769  -34.1099 H   0  0  0  0  0  0  0  0  0  0  0  0
   -4.8733   17.4631  -32.1998 H   0  0  0  0  0  0  0  0  0  0  0  0
   -4.9608   17.6779  -34.0058 H   0  0  0  0  0  0  0  0  0  0  0  0
   -5.4680   19.6672  -31.7995 H   0  0  0  0  0  0  0  0  0  0  0  0
   -4.6004   19.8516  -33.3764 H   0  0  0  0  0  0  0  0  0  0  0  0
   -6.7376   21.1060  -33.3462 H   0  0  0  0  0  0  0  0  0  0  0  0
   -6.7248   19.7611  -34.5774 H   0  0  0  0  0  0  0  0  0  0  0  0
   -7.4450   22.4760  -33.5863 H   0  0  0  0  0  0  0  0  0  0  0  0
   -6.0106   24.4560  -33.1122 H   0  0  0  0  0  0  0  0  0  0  0  0
  1  2  2  0
  2  3  1  0
  3  4  1  0
  4  5  2  0
  5  6  1  0
  6  7  2  0
  7  8  1  0
  8  9  2  0
  9 10  1  0
  2 11  1  0
 11 12  2  0
 12 13  1  0
 13 14  2  0
 14 15  1  0
 15 16  2  0
 15 17  2  0
 15 18  1  0
 18 19  1  0
 19 20  1  0
 20 21  1  0
 21 22  1  0
 22 23  1  0
 14 24  1  0
 24 25  2  0
  9  4  1  0
 25 11  1  0
 23 18  1  0
  5 26  1  0
  6 27  1  0
  7 28  1  0
  8 29  1  0
 12 30  1  0
 13 31  1  0
 19 32  1  0
 19 33  1  0
 20 34  1  0
 20 35  1  0
 21 36  1  0
 21 37  1  0
 22 38  1  0
 22 39  1  0
 23 40  1  0
 23 41  1  0
 24 42  1  0
 25 43  1  0
M  CHG  2   3  -1  10  -1
M  END
>  <UniqueID>  (25) 
25

>  <SMILES>  (25) 
O=C([N-]c1ccccc1[O-])c1ccc(S(=O)(=O)N2CCCCC2)cc1

>  <Energy>  (25) 
57.6064654326441

>  <Genealogy>  (25) 
O=C([N-]c1ccccc1[O-])c1ccc(S(=O)(=O)N2CCCCC2)cc1 (protonated)
O=C([N-]c1ccccc1[O-])c1ccc(S(=O)(=O)N2CCCCC2)cc1 (3D coordinates assigned)
O=C([N-]c1ccccc1[O-])c1ccc(S(=O)(=O)N2CCCCC2)cc1 (nonaromatic ring conformer: 57.6064654326441 kcal/mol)

>  <smiles>  (25) 
O=C(Nc1ccccc1O)c1ccc(S(=O)(=O)N2CCCCC2)cc1

>  <score_type>  (25) 
oracle

>  <origin>  (25) 
adgpu

>  <m_score__min__energy>  (25) 
-15.16

>  <m_primary>  (25) 
energy

$$$$
25:0
     RDKit          3D

 49 52  0  0  0  0  0  0  0  0999 V2000
   -4.5980   24.3770  -28.5900 O   0  0  0  0  0  0  0  0  0  0  0  0
   -3.7690   24.6120  -29.5090 C   0  0  0  0  0  0  0  0  0  0  0  0
   -2.3760   24.4080  -29.2540 N   0  0  0  0  0  0  0  0  0  0  0  0
   -1.7870   23.2170  -28.7160 C   0  0  0  0  0  0  0  0  0  0  0  0
   -0.3900   23.0530  -28.6410 C   0  0  0  0  0  0  0  0  0  0  0  0
    0.1560   21.8660  -28.1430 C   0  0  0  0  0  0  0  0  0  0  0  0
   -0.6870   20.8280  -27.7390 C   0  0  0  0  0  0  0  0  0  0  0  0
   -2.0770   20.9850  -27.8070 C   0  0  0  0  0  0  0  0  0  0  0  0
   -2.6250   22.1660  -28.3170 C   0  0  0  0  0  0  0  0  0  0  0  0
   -2.9010   19.9470  -27.3630 O   0  0  0  0  0  0  0  0  0  0  0  0
   -2.3740   18.8630  -26.5940 C   0  0  0  0  0  0  0  0  0  0  0  0
   -0.9880   18.4640  -27.1200 C   0  0  0  0  0  0  0  0  0  0  0  0
   -0.1620   19.6210  -27.2660 O   0  0  0  0  0  0  0  0  0  0  0  0
   -4.2210   25.1350  -30.7680 N   0  0  0  0  0  0  0  0  0  0  0  0
   -5.6380   25.2840  -31.0910 C   0  0  0  0  0  0  0  0  0  0  0  0
   -6.2550   23.9410  -31.3690 C   0  0  0  0  0  0  0  0  0  0  0  0
   -7.6450   23.7730  -31.2660 C   0  0  0  0  0  0  0  0  0  0  0  0
   -8.2230   22.5220  -31.5060 C   0  0  0  0  0  0  0  0  0  0  0  0
   -7.4190   21.4260  -31.8440 C   0  0  0  0  0  0  0  0  0  0  0  0
   -8.1550   19.8610  -32.1640 S   0  0  0  0  0  0  0  0  0  0  0  0
   -9.3260   20.0330  -33.0910 O   0  0  0  0  0  0  0  0  0  0  0  0
   -8.6590   19.2540  -30.8830 O   0  0  0  0  0  0  0  0  0  0  0  0
   -6.9560   18.7990  -32.8910 C   0  0  0  0  0  0  0  0  0  0  0  0
   -6.2580   19.2000  -34.0400 C   0  0  0  0  0  0  0  0  0  0  0  0
   -5.2930   18.3600  -34.6040 C   0  0  0  0  0  0  0  0  0  0  0  0
   -5.0170   17.1200  -34.0200 C   0  0  0  0  0  0  0  0  0  0  0  0
   -5.7030   16.7210  -32.8700 C   0  0  0  0  0  0  0  0  0  0  0  0
   -6.6690   17.5580  -32.3030 C   0  0  0  0  0  0  0  0  0  0  0  0
   -6.0310   21.5930  -31.9530 C   0  0  0  0  0  0  0  0  0  0  0  0
   -5.4520   22.8420  -31.7110 C   0  0  0  0  0  0  0  0  0  0  0  0
    0.2748   23.8629  -28.9759 H   0  0  0  0  0  0  0  0  0  0  0  0
    1.2474   21.7498  -28.0695 H   0  0  0  0  0  0  0  0  0  0  0  0
   -3.7164   22.2708  -28.4054 H   0  0  0  0  0  0  0  0  0  0  0  0
   -2.2881   19.1720  -25.5418 H   0  0  0  0  0  0  0  0  0  0  0  0
   -3.0516   18.0006  -26.6782 H   0  0  0  0  0  0  0  0  0  0  0  0
   -0.5166   17.7686  -26.4099 H   0  0  0  0  0  0  0  0  0  0  0  0
   -1.1029   17.9798  -28.1010 H   0  0  0  0  0  0  0  0  0  0  0  0
   -3.5190   25.4710  -31.4660 H   0  0  0  0  0  0  0  0  0  0  0  0
   -6.1564   25.7524  -30.2414 H   0  0  0  0  0  0  0  0  0  0  0  0
   -5.7359   25.9146  -31.9869 H   0  0  0  0  0  0  0  0  0  0  0  0
   -8.2818   24.6282  -30.9956 H   0  0  0  0  0  0  0  0  0  0  0  0
   -9.3133   22.3985  -31.4290 H   0  0  0  0  0  0  0  0  0  0  0  0
   -6.4703   20.1773  -34.4981 H   0  0  0  0  0  0  0  0  0  0  0  0
   -4.7506   18.6749  -35.5077 H   0  0  0  0  0  0  0  0  0  0  0  0
   -4.2597   16.4585  -34.4659 H   0  0  0  0  0  0  0  0  0  0  0  0
   -5.4827   15.7465  -32.4098 H   0  0  0  0  0  0  0  0  0  0  0  0
   -7.2044   17.2431  -31.3951 H   0  0  0  0  0  0  0  0  0  0  0  0
   -5.3959   20.7385  -32.2298 H   0  0  0  0  0  0  0  0  0  0  0  0
   -4.3616   22.9641  -31.7890 H   0  0  0  0  0  0  0  0  0  0  0  0
  1  2  2  0
  2  3  1  0
  3  4  1  0
  4  5  2  0
  5  6  1  0
  6  7  2  0
  7  8  1  0
  8  9  2  0
  8 10  1  0
 10 11  1  0
 11 12  1  0
 12 13  1  0
  2 14  1  0
 14 15  1  0
 15 16  1  0
 16 17  2  0
 17 18  1  0
 18 19  2  0
 19 20  1  0
 20 21  2  0
 20 22  2  0
 20 23  1  0
 23 24  2  0
 24 25  1  0
 25 26  2  0
 26 27  1  0
 27 28  2  0
 19 29  1  0
 29 30  2  0
  9  4  1  0
 30 16  1  0
 13  7  1  0
 28 23  1  0
  5 31  1  0
  6 32  1  0
  9 33  1  0
 11 34  1  0
 11 35  1  0
 12 36  1  0
 12 37  1  0
 14 38  1  0
 15 39  1  0
 15 40  1  0
 17 41  1  0
 18 42  1  0
 24 43  1  0
 25 44  1  0
 26 45  1  0
 27 46  1  0
 28 47  1  0
 29 48  1  0
 30 49  1  0
M  CHG  1   3  -1
M  END
>  <UniqueID>  (26) 
26

>  <SMILES>  (26) 
O=C([N-]c1ccc2c(c1)OCCO2)NCc1ccc(S(=O)(=O)c2ccccc2)cc1

>  <Energy>  (26) 
57.49211706448066

>  <Genealogy>  (26) 
O=C([N-]c1ccc2c(c1)OCCO2)NCc1ccc(S(=O)(=O)c2ccccc2)cc1 (protonated)
O=C([N-]c1ccc2c(c1)OCCO2)NCc1ccc(S(=O)(=O)c2ccccc2)cc1 (3D coordinates assigned)
O=C([N-]c1ccc2c(c1)OCCO2)NCc1ccc(S(=O)(=O)c2ccccc2)cc1 (nonaromatic ring conformer: 57.49211706448066 kcal/mol)

>  <smiles>  (26) 
O=C(NCc1ccc(S(=O)(=O)c2ccccc2)cc1)Nc1ccc2c(c1)OCCO2

>  <score_type>  (26) 
oracle

>  <origin>  (26) 
adgpu

>  <m_score__min__energy>  (26) 
-11.41

>  <m_primary>  (26) 
energy

$$$$
26:0
     RDKit          3D

 38 40  0  0  0  0  0  0  0  0999 V2000
   -0.4780   25.6800  -29.8810 H   0  0  0  0  0  0  0  0  0  0  0  0
   -1.2220   26.0250  -29.2890 O   0  0  0  0  0  0  0  0  0  0  0  0
   -1.0930   26.1770  -27.9070 C   0  0  0  0  0  0  0  0  0  0  0  0
   -0.1560   27.1020  -27.4320 C   0  0  0  0  0  0  0  0  0  0  0  0
    0.4606   27.6685  -28.1454 H   0  0  0  0  0  0  0  0  0  0  0  0
    0.0030   27.3120  -26.0620 C   0  0  0  0  0  0  0  0  0  0  0  0
    0.7446   28.0394  -25.7001 H   0  0  0  0  0  0  0  0  0  0  0  0
   -0.7780   26.6000  -25.1500 C   0  0  0  0  0  0  0  0  0  0  0  0
   -0.5820   26.8710  -23.4280 Cl  0  0  0  0  0  0  0  0  0  0  0  0
   -1.7160   25.6710  -25.6100 C   0  0  0  0  0  0  0  0  0  0  0  0
   -2.3339   25.1179  -24.8872 H   0  0  0  0  0  0  0  0  0  0  0  0
   -1.8780   25.4360  -26.9880 C   0  0  0  0  0  0  0  0  0  0  0  0
   -2.8700   24.3940  -27.4470 C   0  0  0  0  0  0  0  0  0  0  0  0
   -3.8596   24.6293  -27.0282 H   0  0  0  0  0  0  0  0  0  0  0  0
   -2.5308   23.4074  -27.0985 H   0  0  0  0  0  0  0  0  0  0  0  0
   -2.9610   24.3690  -28.9080 N   0  0  0  0  0  0  0  0  0  0  0  0
   -2.1240   24.6890  -29.4470 H   0  0  0  0  0  0  0  0  0  0  0  0
   -4.0880   23.8570  -29.6440 C   0  0  0  0  0  0  0  0  0  0  0  0
   -4.0110   22.6620  -30.3830 C   0  0  0  0  0  0  0  0  0  0  0  0
   -3.0706   22.0918  -30.4036 H   0  0  0  0  0  0  0  0  0  0  0  0
   -5.1220   22.1950  -31.0910 C   0  0  0  0  0  0  0  0  0  0  0  0
   -5.0481   21.2658  -31.6751 H   0  0  0  0  0  0  0  0  0  0  0  0
   -6.3290   22.9050  -31.0600 C   0  0  0  0  0  0  0  0  0  0  0  0
   -7.7250   22.3040  -31.9500 S   0  0  0  0  0  0  0  0  0  0  0  0
   -8.7290   21.6980  -31.0090 O   0  0  0  0  0  0  0  0  0  0  0  0
   -8.3650   23.4460  -32.6840 O   0  0  0  0  0  0  0  0  0  0  0  0
   -7.2260   21.0980  -33.0920 N   0  0  0  0  0  0  0  0  0  0  0  0
   -6.9780   19.8700  -32.7620 C   0  0  0  0  0  0  0  0  0  0  0  0
   -7.0800   19.3900  -31.5030 N   0  0  0  0  0  0  0  0  0  0  0  0
   -6.7530   18.0720  -31.4480 C   0  0  0  0  0  0  0  0  0  0  0  0
   -6.7732   17.4978  -30.5100 H   0  0  0  0  0  0  0  0  0  0  0  0
   -6.3910   17.5020  -32.6640 C   0  0  0  0  0  0  0  0  0  0  0  0
   -6.0950   16.4545  -32.8226 H   0  0  0  0  0  0  0  0  0  0  0  0
   -6.4840   18.6920  -33.8510 S   0  0  0  0  0  0  0  0  0  0  0  0
   -6.4140   24.0890  -30.3180 C   0  0  0  0  0  0  0  0  0  0  0  0
   -7.3582   24.6528  -30.2913 H   0  0  0  0  0  0  0  0  0  0  0  0
   -5.3030   24.5570  -29.6110 C   0  0  0  0  0  0  0  0  0  0  0  0
   -5.3822   25.4833  -29.0230 H   0  0  0  0  0  0  0  0  0  0  0  0
  1  2  1  0
  2  3  1  0
  3  4  2  0
  4  5  1  0
  4  6  1  0
  6  7  1  0
  6  8  2  0
  8  9  1  0
  8 10  1  0
 10 11  1  0
 10 12  2  0
 12 13  1  0
 13 14  1  0
 13 15  1  0
 13 16  1  0
 16 17  1  0
 16 18  1  0
 18 19  2  0
 19 20  1  0
 19 21  1  0
 21 22  1  0
 21 23  2  0
 23 24  1  0
 24 25  2  0
 24 26  2  0
 24 27  1  0
 27 28  2  0
 28 29  1  0
 29 30  1  0
 30 31  1  0
 30 32  2  0
 32 33  1  0
 32 34  1  0
 23 35  1  0
 35 36  1  0
 35 37  2  0
 37 38  1  0
 12  3  1  0
 37 18  1  0
 34 28  1  0
M  CHG  1  29  -1
M  END
>  <UniqueID>  (27) 
27

>  <SMILES>  (27) 
O=S(=O)(/N=c1\[n-]ccs1)c1ccc(NCc2cc(Cl)ccc2O)cc1

>  <Energy>  (27) 
73.91725629350819

>  <Genealogy>  (27) 
O=S(=O)(N=c1[n-]ccs1)c1ccc(NCc2cc(Cl)ccc2O)cc1 (protonated)
O=S(=O)(/N=c1\[n-]ccs1)c1ccc(NCc2cc(Cl)ccc2O)cc1 (cis-trans isomerization)
O=S(=O)(/N=c1\[n-]ccs1)c1ccc(NCc2cc(Cl)ccc2O)cc1 (3D coordinates assigned)
O=S(=O)(/N=c1\[n-]ccs1)c1ccc(NCc2cc(Cl)ccc2O)cc1 (optimized conformer: 73.91725629350819 kcal/mol)

>  <smiles>  (27) 
O=S(=O)(N=c1[nH]ccs1)c1ccc(NCc2cc(Cl)ccc2O)cc1

>  <score_type>  (27) 
oracle

>  <origin>  (27) 
adgpu

>  <m_score__min__energy>  (27) 
-10.880000000000001

>  <m_primary>  (27) 
energy

$$$$
27:0
     RDKit          3D

 47 49  0  0  0  0  0  0  0  0999 V2000
   -5.6820   20.1190  -31.6170 O   0  0  0  0  0  0  0  0  0  0  0  0
   -5.2500   21.2170  -32.0670 C   0  0  0  0  0  0  0  0  0  0  0  0
   -4.4480   21.2270  -33.3450 C   0  0  0  0  0  0  0  0  0  0  0  0
   -3.0280   21.4580  -33.0910 N   0  0  0  0  0  0  0  0  0  0  0  0
   -2.2260   20.6350  -32.2350 C   0  0  0  0  0  0  0  0  0  0  0  0
   -1.8110   19.5190  -32.6500 O   0  0  0  0  0  0  0  0  0  0  0  0
   -1.8840   21.0940  -30.8680 C   0  0  0  0  0  0  0  0  0  0  0  0
   -2.7340   20.8090  -29.7840 C   0  0  0  0  0  0  0  0  0  0  0  0
   -2.4040   21.2370  -28.4930 C   0  0  0  0  0  0  0  0  0  0  0  0
   -1.2280   21.9580  -28.2670 C   0  0  0  0  0  0  0  0  0  0  0  0
   -0.8190   22.4720  -26.6310 S   0  0  0  0  0  0  0  0  0  0  0  0
   -1.1910   21.3940  -25.6510 O   0  0  0  0  0  0  0  0  0  0  0  0
    0.6670   22.6940  -26.5590 O   0  0  0  0  0  0  0  0  0  0  0  0
   -1.6700   23.9590  -26.2660 N   0  0  0  0  0  0  0  0  0  0  0  0
   -2.5510   24.3680  -27.3730 C   0  0  0  0  0  0  0  0  0  0  0  0
   -1.7610   24.9580  -28.5680 C   0  0  0  0  0  0  0  0  0  0  0  0
   -0.4380   25.3430  -28.2360 O   0  0  0  0  0  0  0  0  0  0  0  0
   -0.4250   26.0180  -26.9990 C   0  0  0  0  0  0  0  0  0  0  0  0
   -0.7450   25.0400  -25.8550 C   0  0  0  0  0  0  0  0  0  0  0  0
   -0.3760   22.2450  -29.3390 C   0  0  0  0  0  0  0  0  0  0  0  0
   -0.7000   21.8160  -30.6310 C   0  0  0  0  0  0  0  0  0  0  0  0
   -5.5500   22.4750  -31.3290 C   0  0  0  0  0  0  0  0  0  0  0  0
   -6.8040   22.6910  -30.7230 C   0  0  0  0  0  0  0  0  0  0  0  0
   -7.0740   23.8870  -30.0500 C   0  0  0  0  0  0  0  0  0  0  0  0
   -6.0980   24.8850  -29.9620 C   0  0  0  0  0  0  0  0  0  0  0  0
   -6.3960   26.0700  -29.2890 O   0  0  0  0  0  0  0  0  0  0  0  0
   -4.8410   24.6790  -30.5520 C   0  0  0  0  0  0  0  0  0  0  0  0
   -3.8580   25.6610  -30.4790 O   0  0  0  0  0  0  0  0  0  0  0  0
   -4.5710   23.4830  -31.2270 C   0  0  0  0  0  0  0  0  0  0  0  0
   -4.5667   20.2558  -33.8478 H   0  0  0  0  0  0  0  0  0  0  0  0
   -4.8207   22.0466  -33.9769 H   0  0  0  0  0  0  0  0  0  0  0  0
   -3.6640   20.2461  -29.9521 H   0  0  0  0  0  0  0  0  0  0  0  0
   -3.0736   21.0048  -27.6517 H   0  0  0  0  0  0  0  0  0  0  0  0
   -3.1133   23.4888  -27.7206 H   0  0  0  0  0  0  0  0  0  0  0  0
   -3.2234   25.1522  -26.9949 H   0  0  0  0  0  0  0  0  0  0  0  0
   -1.7137   24.1991  -29.3629 H   0  0  0  0  0  0  0  0  0  0  0  0
   -2.2913   25.8664  -28.8897 H   0  0  0  0  0  0  0  0  0  0  0  0
    0.5707   26.4557  -26.8347 H   0  0  0  0  0  0  0  0  0  0  0  0
   -1.1867   26.8114  -27.0157 H   0  0  0  0  0  0  0  0  0  0  0  0
    0.1947   24.5855  -25.5080 H   0  0  0  0  0  0  0  0  0  0  0  0
   -1.2397   25.6137  -25.0574 H   0  0  0  0  0  0  0  0  0  0  0  0
    0.5518   22.8099  -29.1656 H   0  0  0  0  0  0  0  0  0  0  0  0
   -0.0237   22.0451  -31.4678 H   0  0  0  0  0  0  0  0  0  0  0  0
   -7.5779   21.9114  -30.7799 H   0  0  0  0  0  0  0  0  0  0  0  0
   -8.0596   24.0436  -29.5873 H   0  0  0  0  0  0  0  0  0  0  0  0
   -5.6760   26.7230  -29.0010 H   0  0  0  0  0  0  0  0  0  0  0  0
   -3.5822   23.3281  -31.6835 H   0  0  0  0  0  0  0  0  0  0  0  0
  1  2  2  0
  2  3  1  0
  3  4  1  0
  4  5  1  0
  5  6  2  0
  5  7  1  0
  7  8  2  0
  8  9  1  0
  9 10  2  0
 10 11  1  0
 11 12  2  0
 11 13  2  0
 11 14  1  0
 14 15  1  0
 15 16  1  0
 16 17  1  0
 17 18  1  0
 18 19  1  0
 10 20  1  0
 20 21  2  0
  2 22  1  0
 22 23  2  0
 23 24  1  0
 24 25  2  0
 25 26  1  0
 25 27  1  0
 27 28  1  0
 27 29  2  0
 21  7  1  0
 29 22  1  0
 19 14  1  0
  3 30  1  0
  3 31  1  0
  8 32  1  0
  9 33  1  0
 15 34  1  0
 15 35  1  0
 16 36  1  0
 16 37  1  0
 18 38  1  0
 18 39  1  0
 19 40  1  0
 19 41  1  0
 20 42  1  0
 21 43  1  0
 23 44  1  0
 24 45  1  0
 26 46  1  0
 29 47  1  0
M  CHG  2   4  -1  28  -1
M  END
>  <UniqueID>  (28) 
28

>  <SMILES>  (28) 
O=C(C[N-]C(=O)c1ccc(S(=O)(=O)N2CCOCC2)cc1)c1ccc(O)c([O-])c1

>  <Energy>  (28) 
61.08806304976479

>  <Genealogy>  (28) 
O=C(C[N-]C(=O)c1ccc(S(=O)(=O)N2CCOCC2)cc1)c1ccc(O)c([O-])c1 (protonated)
O=C(C[N-]C(=O)c1ccc(S(=O)(=O)N2CCOCC2)cc1)c1ccc(O)c([O-])c1 (3D coordinates assigned)
O=C(C[N-]C(=O)c1ccc(S(=O)(=O)N2CCOCC2)cc1)c1ccc(O)c([O-])c1 (nonaromatic ring conformer: 61.08806304976479 kcal/mol)

>  <smiles>  (28) 
O=C(CNC(=O)c1ccc(S(=O)(=O)N2CCOCC2)cc1)c1ccc(O)c(O)c1

>  <score_type>  (28) 
oracle

>  <origin>  (28) 
adgpu

>  <m_score__min__energy>  (28) 
-12.19

>  <m_primary>  (28) 
energy

$$$$
28:0
     RDKit          3D

 41 44  0  0  0  0  0  0  0  0999 V2000
   -5.7260   25.8920  -29.7130 O   0  0  0  0  0  0  0  0  0  0  0  0
   -4.7890   25.3120  -30.3230 C   0  0  0  0  0  0  0  0  0  0  0  0
   -3.4940   25.2590  -29.7170 N   0  0  0  0  0  0  0  0  0  0  0  0
   -2.6360   24.1090  -29.6580 C   0  0  0  0  0  0  0  0  0  0  0  0
   -1.6500   24.0520  -28.6500 C   0  0  0  0  0  0  0  0  0  0  0  0
   -0.7740   22.9570  -28.5640 C   0  0  0  0  0  0  0  0  0  0  0  0
   -0.8870   21.9330  -29.5050 C   0  0  0  0  0  0  0  0  0  0  0  0
   -1.8360   21.9990  -30.5080 C   0  0  0  0  0  0  0  0  0  0  0  0
   -2.7140   23.0740  -30.6160 C   0  0  0  0  0  0  0  0  0  0  0  0
   -1.7270   20.6100  -31.5460 S   0  0  0  0  0  0  0  0  0  0  0  0
   -1.3370   20.9770  -32.9500 O   0  0  0  0  0  0  0  0  0  0  0  0
   -2.9660   19.7620  -31.5000 O   0  0  0  0  0  0  0  0  0  0  0  0
   -0.4180   19.8650  -30.7010 N   0  0  0  0  0  0  0  0  0  0  0  0
   -0.0710   20.7170  -29.6050 C   0  0  0  0  0  0  0  0  0  0  0  0
    0.8580   20.4330  -28.8050 O   0  0  0  0  0  0  0  0  0  0  0  0
   -5.0310   24.6900  -31.5910 N   0  0  0  0  0  0  0  0  0  0  0  0
   -5.8680   23.5430  -31.7790 C   0  0  0  0  0  0  0  0  0  0  0  0
   -7.2040   23.6300  -31.3840 C   0  0  0  0  0  0  0  0  0  0  0  0
   -8.0520   22.5340  -31.5170 C   0  0  0  0  0  0  0  0  0  0  0  0
   -7.5780   21.3320  -32.0460 C   0  0  0  0  0  0  0  0  0  0  0  0
   -8.7300   20.0100  -32.2180 Cl  0  0  0  0  0  0  0  0  0  0  0  0
   -6.2330   21.2230  -32.4670 C   0  0  0  0  0  0  0  0  0  0  0  0
   -5.6260   19.7010  -33.1630 S   0  0  0  0  0  0  0  0  0  0  0  0
   -6.4740   19.2850  -34.3330 O   0  0  0  0  0  0  0  0  0  0  0  0
   -4.2310   19.9200  -33.6780 O   0  0  0  0  0  0  0  0  0  0  0  0
   -5.5930   18.3510  -31.9800 C   0  0  0  0  0  0  0  0  0  0  0  0
   -6.7890   17.4100  -31.9640 C   0  0  0  0  0  0  0  0  0  0  0  0
   -5.4940   16.9790  -32.6270 C   0  0  0  0  0  0  0  0  0  0  0  0
   -5.3880   22.3530  -32.3740 C   0  0  0  0  0  0  0  0  0  0  0  0
   -4.1010   22.2960  -32.9130 O   0  0  0  0  0  0  0  0  0  0  0  0
   -1.5664   24.8739  -27.9237 H   0  0  0  0  0  0  0  0  0  0  0  0
   -0.0139   22.9079  -27.7704 H   0  0  0  0  0  0  0  0  0  0  0  0
   -3.4527   23.1164  -31.4300 H   0  0  0  0  0  0  0  0  0  0  0  0
   -7.5894   24.5711  -30.9647 H   0  0  0  0  0  0  0  0  0  0  0  0
   -9.1031   22.6156  -31.2030 H   0  0  0  0  0  0  0  0  0  0  0  0
   -5.0559   18.9098  -31.1995 H   0  0  0  0  0  0  0  0  0  0  0  0
   -7.1069   16.9407  -31.0213 H   0  0  0  0  0  0  0  0  0  0  0  0
   -7.8394   17.4819  -32.2826 H   0  0  0  0  0  0  0  0  0  0  0  0
   -4.8737   16.1969  -32.1649 H   0  0  0  0  0  0  0  0  0  0  0  0
   -5.2179   16.6088  -33.6254 H   0  0  0  0  0  0  0  0  0  0  0  0
   -3.4490   21.5500  -32.7080 H   0  0  0  0  0  0  0  0  0  0  0  0
  1  2  2  0
  2  3  1  0
  3  4  1  0
  4  5  2  0
  5  6  1  0
  6  7  2  0
  7  8  1  0
  8  9  2  0
  8 10  1  0
 10 11  2  0
 10 12  2  0
 10 13  1  0
 13 14  1  0
 14 15  2  0
  2 16  1  0
 16 17  1  0
 17 18  2  0
 18 19  1  0
 19 20  2  0
 20 21  1  0
 20 22  1  0
 22 23  1  0
 23 24  2  0
 23 25  2  0
 23 26  1  0
 26 27  1  0
 27 28  1  0
 22 29  2  0
 29 30  1  0
  9  4  1  0
 29 17  1  0
 14  7  1  0
 28 26  1  0
  5 31  1  0
  6 32  1  0
  9 33  1  0
 18 34  1  0
 19 35  1  0
 26 36  1  0
 27 37  1  0
 27 38  1  0
 28 39  1  0
 28 40  1  0
 30 41  1  0
M  CHG  3   3  -1  13  -1  16  -1
M  END
>  <UniqueID>  (29) 
29

>  <SMILES>  (29) 
O=C([N-]c1ccc2c(c1)S(=O)(=O)[N-]C2=O)[N-]c1ccc(Cl)c(S(=O)(=O)C2CC2)c1O

>  <Energy>  (29) 
344.1988169386608

>  <Genealogy>  (29) 
O=C([N-]c1ccc2c(c1)S(=O)(=O)[N-]C2=O)[N-]c1ccc(Cl)c(S(=O)(=O)C2CC2)c1O (protonated)
O=C([N-]c1ccc2c(c1)S(=O)(=O)[N-]C2=O)[N-]c1ccc(Cl)c(S(=O)(=O)C2CC2)c1O (3D coordinates assigned)
O=C([N-]c1ccc2c(c1)S(=O)(=O)[N-]C2=O)[N-]c1ccc(Cl)c(S(=O)(=O)C2CC2)c1O (nonaromatic ring conformer: 344.1988169386608 kcal/mol)

>  <smiles>  (29) 
O=C(Nc1ccc2c(c1)S(=O)(=O)NC2=O)Nc1ccc(Cl)c(S(=O)(=O)C2CC2)c1O

>  <score_type>  (29) 
oracle

>  <origin>  (29) 
adgpu

>  <m_score__min__energy>  (29) 
-13.42

>  <m_primary>  (29) 
energy

$$$$
29:0
     RDKit          3D

 39 41  0  0  0  0  0  0  0  0999 V2000
   -5.7150   17.0491  -35.2130 H   0  0  0  0  0  0  0  0  0  0  0  0
   -5.9860   17.5290  -34.2610 C   0  0  0  0  0  0  0  0  0  0  0  0
   -6.4950   18.7900  -34.2570 N   0  0  0  0  0  0  0  0  0  0  0  0
   -6.8460   19.4290  -33.1070 C   0  0  0  0  0  0  0  0  0  0  0  0
   -7.3320   20.6340  -33.1930 N   0  0  0  0  0  0  0  0  0  0  0  0
   -7.8560   21.6350  -31.8720 S   0  0  0  0  0  0  0  0  0  0  0  0
   -8.5420   20.7740  -30.8490 O   0  0  0  0  0  0  0  0  0  0  0  0
   -8.8350   22.6550  -32.3850 O   0  0  0  0  0  0  0  0  0  0  0  0
   -6.4740   22.4210  -31.1150 C   0  0  0  0  0  0  0  0  0  0  0  0
   -6.5410   23.7760  -30.7700 C   0  0  0  0  0  0  0  0  0  0  0  0
   -7.4554   24.3500  -30.9806 H   0  0  0  0  0  0  0  0  0  0  0  0
   -5.4510   24.4030  -30.1590 C   0  0  0  0  0  0  0  0  0  0  0  0
   -5.5169   25.4645  -29.8780 H   0  0  0  0  0  0  0  0  0  0  0  0
   -4.2710   23.6830  -29.9020 C   0  0  0  0  0  0  0  0  0  0  0  0
   -3.1440   24.2940  -29.2500 N   0  0  0  0  0  0  0  0  0  0  0  0
   -2.3410   24.5780  -29.8530 H   0  0  0  0  0  0  0  0  0  0  0  0
   -3.0920   24.5920  -27.8440 C   0  0  0  0  0  0  0  0  0  0  0  0
   -4.0800   24.3410  -27.1010 O   0  0  0  0  0  0  0  0  0  0  0  0
   -1.8810   25.1910  -27.2420 C   0  0  0  0  0  0  0  0  0  0  0  0
   -1.6330   25.0050  -25.8710 C   0  0  0  0  0  0  0  0  0  0  0  0
   -2.3414   24.4247  -25.2616 H   0  0  0  0  0  0  0  0  0  0  0  0
   -0.4930   25.5520  -25.2770 C   0  0  0  0  0  0  0  0  0  0  0  0
   -0.3030   25.3942  -24.2051 H   0  0  0  0  0  0  0  0  0  0  0  0
    0.4060   26.2990  -26.0420 C   0  0  0  0  0  0  0  0  0  0  0  0
    1.3081   26.7208  -25.5748 H   0  0  0  0  0  0  0  0  0  0  0  0
    0.1590   26.5100  -27.4000 C   0  0  0  0  0  0  0  0  0  0  0  0
    0.8654   27.1035  -27.9989 H   0  0  0  0  0  0  0  0  0  0  0  0
   -0.9830   25.9700  -28.0030 C   0  0  0  0  0  0  0  0  0  0  0  0
   -1.2280   26.2420  -29.3440 O   0  0  0  0  0  0  0  0  0  0  0  0
   -4.2170   22.3210  -30.2310 C   0  0  0  0  0  0  0  0  0  0  0  0
   -3.3099   21.7410  -30.0059 H   0  0  0  0  0  0  0  0  0  0  0  0
   -5.3070   21.6940  -30.8430 C   0  0  0  0  0  0  0  0  0  0  0  0
   -5.2484   20.6288  -31.1113 H   0  0  0  0  0  0  0  0  0  0  0  0
   -6.6740   18.7640  -31.8750 C   0  0  0  0  0  0  0  0  0  0  0  0
   -6.9470   19.2618  -30.9329 H   0  0  0  0  0  0  0  0  0  0  0  0
   -6.1540   17.4680  -31.8620 C   0  0  0  0  0  0  0  0  0  0  0  0
   -6.0181   16.9399  -30.9067 H   0  0  0  0  0  0  0  0  0  0  0  0
   -5.8070   16.8430  -33.0590 C   0  0  0  0  0  0  0  0  0  0  0  0
   -5.3973   15.8221  -33.0560 H   0  0  0  0  0  0  0  0  0  0  0  0
  1  2  1  0
  2  3  1  0
  3  4  1  0
  4  5  2  0
  5  6  1  0
  6  7  2  0
  6  8  2  0
  6  9  1  0
  9 10  2  0
 10 11  1  0
 10 12  1  0
 12 13  1  0
 12 14  2  0
 14 15  1  0
 15 16  1  0
 15 17  1  0
 17 18  2  0
 17 19  1  0
 19 20  2  0
 20 21  1  0
 20 22  1  0
 22 23  1  0
 22 24  2  0
 24 25  1  0
 24 26  1  0
 26 27  1  0
 26 28  2  0
 28 29  1  0
 14 30  1  0
 30 31  1  0
 30 32  2  0
 32 33  1  0
  4 34  1  0
 34 35  1  0
 34 36  2  0
 36 37  1  0
 36 38  1  0
 38 39  1  0
 38  2  2  0
 32  9  1  0
 28 19  1  0
M  CHG  2   3  -1  29  -1
M  END
>  <UniqueID>  (30) 
30

>  <SMILES>  (30) 
O=C(Nc1ccc(S(=O)(=O)/N=c2\cccc[n-]2)cc1)c1ccccc1[O-]

>  <Energy>  (30) 
57.02885553928443

>  <Genealogy>  (30) 
O=C(Nc1ccc(S(=O)(=O)N=c2cccc[n-]2)cc1)c1ccccc1[O-] (protonated)
O=C(Nc1ccc(S(=O)(=O)/N=c2\cccc[n-]2)cc1)c1ccccc1[O-] (cis-trans isomerization)
O=C(Nc1ccc(S(=O)(=O)/N=c2\cccc[n-]2)cc1)c1ccccc1[O-] (3D coordinates assigned)
O=C(Nc1ccc(S(=O)(=O)/N=c2\cccc[n-]2)cc1)c1ccccc1[O-] (optimized conformer: 57.02885553928443 kcal/mol)

>  <smiles>  (30) 
O=C(Nc1ccc(S(=O)(=O)N=c2cccc[nH]2)cc1)c1ccccc1O

>  <score_type>  (30) 
oracle

>  <origin>  (30) 
adgpu

>  <m_score__min__energy>  (30) 
-12.18

>  <m_primary>  (30) 
energy

$$$$
30:0
     RDKit          3D

 63 67  0  0  0  0  0  0  0  0999 V2000
   -6.7640   15.7410  -34.2160 C   0  0  0  0  0  0  0  0  0  0  0  0
   -6.4150   17.0970  -33.6790 C   0  0  0  0  0  0  0  0  0  0  0  0
   -6.3260   17.3090  -32.2940 C   0  0  0  0  0  0  0  0  0  0  0  0
   -5.9680   18.5640  -31.7950 C   0  0  0  0  0  0  0  0  0  0  0  0
   -5.6840   19.6200  -32.6750 C   0  0  0  0  0  0  0  0  0  0  0  0
   -5.3210   20.9140  -32.1590 N   0  0  0  0  0  0  0  0  0  0  0  0
   -4.0670   21.4380  -32.4090 C   0  0  0  0  0  0  0  0  0  0  0  0
   -2.8520   20.5540  -33.4030 S   0  0  0  0  0  0  0  0  0  0  0  0
   -2.4860   19.3420  -32.0830 C   0  0  0  0  0  0  0  0  0  0  0  0
   -1.3670   19.8020  -31.1840 C   0  0  0  0  0  0  0  0  0  0  0  0
   -0.2960   19.1330  -31.1320 O   0  0  0  0  0  0  0  0  0  0  0  0
   -1.5150   21.0050  -30.3210 C   0  0  0  0  0  0  0  0  0  0  0  0
   -0.7260   22.1550  -30.5220 C   0  0  0  0  0  0  0  0  0  0  0  0
   -0.8830   23.2770  -29.7040 C   0  0  0  0  0  0  0  0  0  0  0  0
   -1.8280   23.2730  -28.6710 C   0  0  0  0  0  0  0  0  0  0  0  0
   -2.0410   24.7080  -27.6710 S   0  0  0  0  0  0  0  0  0  0  0  0
   -1.8680   25.9450  -28.5110 O   0  0  0  0  0  0  0  0  0  0  0  0
   -3.4340   24.7050  -27.1070 O   0  0  0  0  0  0  0  0  0  0  0  0
   -0.8760   24.6960  -26.3700 N   0  0  0  0  0  0  0  0  0  0  0  0
   -1.2040   25.7410  -25.3790 C   0  0  0  0  0  0  0  0  0  0  0  0
   -0.4270   25.5320  -24.0610 C   0  0  0  0  0  0  0  0  0  0  0  0
    0.6560   24.6430  -24.2480 O   0  0  0  0  0  0  0  0  0  0  0  0
    0.1670   23.3500  -24.5610 C   0  0  0  0  0  0  0  0  0  0  0  0
   -0.8370   23.3660  -25.7380 C   0  0  0  0  0  0  0  0  0  0  0  0
   -2.6250   22.1400  -28.4700 C   0  0  0  0  0  0  0  0  0  0  0  0
   -2.4690   21.0160  -29.2850 C   0  0  0  0  0  0  0  0  0  0  0  0
   -3.7200   22.6650  -31.9240 N   0  0  0  0  0  0  0  0  0  0  0  0
   -4.6190   23.3660  -31.2010 C   0  0  0  0  0  0  0  0  0  0  0  0
   -4.4030   24.8790  -30.5110 S   0  0  0  0  0  0  0  0  0  0  0  0
   -5.9650   24.9380  -29.8580 C   0  0  0  0  0  0  0  0  0  0  0  0
   -6.4860   26.0400  -28.9980 C   0  0  0  0  0  0  0  0  0  0  0  0
   -6.6520   23.7600  -30.1600 C   0  0  0  0  0  0  0  0  0  0  0  0
   -5.8780   22.8840  -30.9310 C   0  0  0  0  0  0  0  0  0  0  0  0
   -6.2350   21.6300  -31.4200 C   0  0  0  0  0  0  0  0  0  0  0  0
   -7.3810   21.1580  -31.1760 O   0  0  0  0  0  0  0  0  0  0  0  0
   -5.7470   19.4020  -34.0590 C   0  0  0  0  0  0  0  0  0  0  0  0
   -6.1080   18.1470  -34.5590 C   0  0  0  0  0  0  0  0  0  0  0  0
   -6.9419   15.0498  -33.3790 H   0  0  0  0  0  0  0  0  0  0  0  0
   -7.6728   15.8131  -34.8315 H   0  0  0  0  0  0  0  0  0  0  0  0
   -5.9333   15.3654  -34.8315 H   0  0  0  0  0  0  0  0  0  0  0  0
   -6.5390   16.4836  -31.5988 H   0  0  0  0  0  0  0  0  0  0  0  0
   -5.9085   18.7251  -30.7085 H   0  0  0  0  0  0  0  0  0  0  0  0
   -3.3912   19.1952  -31.4755 H   0  0  0  0  0  0  0  0  0  0  0  0
   -2.1705   18.4039  -32.5630 H   0  0  0  0  0  0  0  0  0  0  0  0
    0.0202   22.1697  -31.3301 H   0  0  0  0  0  0  0  0  0  0  0  0
   -0.2607   24.1682  -29.8726 H   0  0  0  0  0  0  0  0  0  0  0  0
    0.0630   24.9020  -26.7890 H   0  0  0  0  0  0  0  0  0  0  0  0
   -0.9426   26.7246  -25.7964 H   0  0  0  0  0  0  0  0  0  0  0  0
   -2.2802   25.6836  -25.1590 H   0  0  0  0  0  0  0  0  0  0  0  0
   -0.0409   26.5015  -23.7132 H   0  0  0  0  0  0  0  0  0  0  0  0
   -1.1107   25.1002  -23.3153 H   0  0  0  0  0  0  0  0  0  0  0  0
    1.0175   22.7069  -24.8314 H   0  0  0  0  0  0  0  0  0  0  0  0
   -0.3621   22.9689  -23.6751 H   0  0  0  0  0  0  0  0  0  0  0  0
   -0.5294   22.6198  -26.4854 H   0  0  0  0  0  0  0  0  0  0  0  0
   -1.8391   23.1281  -25.3518 H   0  0  0  0  0  0  0  0  0  0  0  0
   -3.3771   22.1346  -27.6673 H   0  0  0  0  0  0  0  0  0  0  0  0
   -3.0983   20.1298  -29.1156 H   0  0  0  0  0  0  0  0  0  0  0  0
   -6.3585   25.7704  -27.9392 H   0  0  0  0  0  0  0  0  0  0  0  0
   -5.9299   26.9650  -29.2103 H   0  0  0  0  0  0  0  0  0  0  0  0
   -7.5538   26.1972  -29.2103 H   0  0  0  0  0  0  0  0  0  0  0  0
   -7.6796   23.5457  -29.8311 H   0  0  0  0  0  0  0  0  0  0  0  0
   -5.5115   20.2215  -34.7539 H   0  0  0  0  0  0  0  0  0  0  0  0
   -6.1516   17.9818  -35.6457 H   0  0  0  0  0  0  0  0  0  0  0  0
  1  2  1  0
  2  3  2  0
  3  4  1  0
  4  5  2  0
  5  6  1  0
  6  7  1  0
  7  8  1  0
  8  9  1  0
  9 10  1  0
 10 11  2  0
 10 12  1  0
 12 13  2  0
 13 14  1  0
 14 15  2  0
 15 16  1  0
 16 17  2  0
 16 18  2  0
 16 19  1  0
 19 20  1  0
 20 21  1  0
 21 22  1  0
 22 23  1  0
 23 24  1  0
 15 25  1  0
 25 26  2  0
  7 27  2  0
 27 28  1  0
 28 29  1  0
 29 30  1  0
 30 31  1  0
 30 32  2  0
 32 33  1  0
 33 34  1  0
 34 35  2  0
  5 36  1  0
 36 37  2  0
 37  2  1  0
 34  6  1  0
 26 12  1  0
 33 28  2  0
 24 19  1  0
  1 38  1  0
  1 39  1  0
  1 40  1  0
  3 41  1  0
  4 42  1  0
  9 43  1  0
  9 44  1  0
 13 45  1  0
 14 46  1  0
 19 47  1  0
 20 48  1  0
 20 49  1  0
 21 50  1  0
 21 51  1  0
 23 52  1  0
 23 53  1  0
 24 54  1  0
 24 55  1  0
 25 56  1  0
 26 57  1  0
 31 58  1  0
 31 59  1  0
 31 60  1  0
 32 61  1  0
 36 62  1  0
 37 63  1  0
M  CHG  1  19   1
M  END
>  <UniqueID>  (31) 
31

>  <SMILES>  (31) 
Cc1ccc(-n2c(SCC(=O)c3ccc(S(=O)(=O)[NH+]4CCOCC4)cc3)nc3sc(C)cc3c2=O)cc1

>  <Energy>  (31) 
114.11447054600167

>  <Genealogy>  (31) 
Cc1ccc(-n2c(SCC(=O)c3ccc(S(=O)(=O)[NH+]4CCOCC4)cc3)nc3sc(C)cc3c2=O)cc1 (protonated)
Cc1ccc(-n2c(SCC(=O)c3ccc(S(=O)(=O)[NH+]4CCOCC4)cc3)nc3sc(C)cc3c2=O)cc1 (3D coordinates assigned)
Cc1ccc(-n2c(SCC(=O)c3ccc(S(=O)(=O)[NH+]4CCOCC4)cc3)nc3sc(C)cc3c2=O)cc1 (nonaromatic ring conformer: 114.11447054600167 kcal/mol)

>  <smiles>  (31) 
Cc1ccc(-n2c(SCC(=O)c3ccc(S(=O)(=O)N4CCOCC4)cc3)nc3sc(C)cc3c2=O)cc1

>  <score_type>  (31) 
oracle

>  <origin>  (31) 
adgpu

>  <m_score__min__energy>  (31) 
-11.6

>  <m_primary>  (31) 
energy

$$$$
31:0
     RDKit          3D

 40 42  0  0  0  0  0  0  0  0999 V2000
    1.9600   27.1840  -21.9810 H   0  0  0  0  0  0  0  0  0  0  0  0
    2.0530   27.1890  -22.9880 O   0  0  0  0  0  0  0  0  0  0  0  0
    1.3530   26.3360  -23.8190 N   0  0  0  0  0  0  0  0  0  0  0  0
    1.9130   25.6030  -24.3080 H   0  0  0  0  0  0  0  0  0  0  0  0
    0.0650   26.4240  -24.0280 C   0  0  0  0  0  0  0  0  0  0  0  0
   -0.5860   25.5420  -25.0270 C   0  0  0  0  0  0  0  0  0  0  0  0
   -1.5680   26.0440  -26.3010 S   0  0  0  0  0  0  0  0  0  0  0  0
   -1.8930   24.5140  -26.9330 C   0  0  0  0  0  0  0  0  0  0  0  0
   -2.7400   24.2350  -28.1250 C   0  0  0  0  0  0  0  0  0  0  0  0
   -4.1400   24.3790  -28.0760 C   0  0  0  0  0  0  0  0  0  0  0  0
   -4.6213   24.7073  -27.1429 H   0  0  0  0  0  0  0  0  0  0  0  0
   -4.9240   24.1090  -29.2010 C   0  0  0  0  0  0  0  0  0  0  0  0
   -6.0156   24.2350  -29.1497 H   0  0  0  0  0  0  0  0  0  0  0  0
   -4.3270   23.6780  -30.3960 C   0  0  0  0  0  0  0  0  0  0  0  0
   -5.0800   23.4110  -31.5500 O   0  0  0  0  0  0  0  0  0  0  0  0
   -5.9150   22.3000  -31.7370 C   0  0  0  0  0  0  0  0  0  0  0  0
   -7.2940   22.4610  -31.5730 C   0  0  0  0  0  0  0  0  0  0  0  0
   -7.6986   23.4437  -31.2891 H   0  0  0  0  0  0  0  0  0  0  0  0
   -8.1630   21.3830  -31.7670 C   0  0  0  0  0  0  0  0  0  0  0  0
   -9.2435   21.5166  -31.6097 H   0  0  0  0  0  0  0  0  0  0  0  0
   -7.6640   20.1290  -32.1620 C   0  0  0  0  0  0  0  0  0  0  0  0
   -8.5990   18.9570  -32.3240 C   0  0  0  0  0  0  0  0  0  0  0  0
   -9.6770   19.3390  -33.1000 F   0  0  0  0  0  0  0  0  0  0  0  0
   -7.9510   17.9010  -32.9390 F   0  0  0  0  0  0  0  0  0  0  0  0
   -9.0620   18.5220  -31.0940 F   0  0  0  0  0  0  0  0  0  0  0  0
   -6.2770   19.9680  -32.3210 C   0  0  0  0  0  0  0  0  0  0  0  0
   -5.8701   18.9852  -32.6011 H   0  0  0  0  0  0  0  0  0  0  0  0
   -5.4110   21.0470  -32.1260 C   0  0  0  0  0  0  0  0  0  0  0  0
   -4.3295   20.9152  -32.2777 H   0  0  0  0  0  0  0  0  0  0  0  0
   -2.9370   23.5540  -30.4580 C   0  0  0  0  0  0  0  0  0  0  0  0
   -2.4586   23.2429  -31.3984 H   0  0  0  0  0  0  0  0  0  0  0  0
   -2.1490   23.8220  -29.3350 C   0  0  0  0  0  0  0  0  0  0  0  0
   -1.0565   23.7092  -29.3968 H   0  0  0  0  0  0  0  0  0  0  0  0
   -1.2230   23.5830  -26.1380 C   0  0  0  0  0  0  0  0  0  0  0  0
   -1.2593   22.4994  -26.3238 H   0  0  0  0  0  0  0  0  0  0  0  0
   -0.5000   24.1530  -25.0820 C   0  0  0  0  0  0  0  0  0  0  0  0
    0.0820   23.5583  -24.3626 H   0  0  0  0  0  0  0  0  0  0  0  0
   -0.7420   27.3520  -23.2880 N   0  0  0  0  0  0  0  0  0  0  0  0
   -0.4620   27.7040  -22.3470 H   0  0  0  0  0  0  0  0  0  0  0  0
   -1.6890   27.6260  -23.6300 H   0  0  0  0  0  0  0  0  0  0  0  0
  1  2  1  0
  2  3  1  0
  3  4  1  0
  3  5  2  0
  5  6  1  0
  6  7  1  0
  7  8  1  0
  8  9  1  0
  9 10  2  0
 10 11  1  0
 10 12  1  0
 12 13  1  0
 12 14  2  0
 14 15  1  0
 15 16  1  0
 16 17  2  0
 17 18  1  0
 17 19  1  0
 19 20  1  0
 19 21  2  0
 21 22  1  0
 22 23  1  0
 22 24  1  0
 22 25  1  0
 21 26  1  0
 26 27  1  0
 26 28  2  0
 28 29  1  0
 14 30  1  0
 30 31  1  0
 30 32  2  0
 32 33  1  0
  8 34  2  0
 34 35  1  0
 34 36  1  0
 36 37  1  0
  5 38  1  0
 38 39  1  0
 38 40  1  0
 36  6  2  0
 32  9  1  0
 28 16  1  0
M  CHG  1   3   1
M  END
>  <UniqueID>  (32) 
32

>  <SMILES>  (32) 
N/C(=[NH+]\O)c1ccc(-c2ccc(Oc3ccc(C(F)(F)F)cc3)cc2)s1

>  <Energy>  (32) 
81.79608380390324

>  <Genealogy>  (32) 
NC(=[NH+]O)c1ccc(-c2ccc(Oc3ccc(C(F)(F)F)cc3)cc2)s1 (protonated)
N/C(=[NH+]\O)c1ccc(-c2ccc(Oc3ccc(C(F)(F)F)cc3)cc2)s1 (cis-trans isomerization)
N/C(=[NH+]\O)c1ccc(-c2ccc(Oc3ccc(C(F)(F)F)cc3)cc2)s1 (3D coordinates assigned)
N/C(=[NH+]\O)c1ccc(-c2ccc(Oc3ccc(C(F)(F)F)cc3)cc2)s1 (optimized conformer: 81.79608380390324 kcal/mol)

>  <smiles>  (32) 
NC(=NO)c1ccc(-c2ccc(Oc3ccc(C(F)(F)F)cc3)cc2)s1

>  <score_type>  (32) 
oracle

>  <origin>  (32) 
adgpu

>  <m_score__min__energy>  (32) 
-8.7200000000000006

>  <m_primary>  (32) 
energy

$$$$
32:0
     RDKit          3D

 59 62  0  0  0  0  0  0  0  0999 V2000
   -0.1200   22.3300  -35.3070 N   0  0  0  0  0  0  0  0  0  0  0  0
   -0.0610   21.0420  -34.1560 S   0  0  0  0  0  0  0  0  0  0  0  0
    0.6950   19.8810  -34.7360 O   0  0  0  0  0  0  0  0  0  0  0  0
    0.6480   21.5150  -32.9170 O   0  0  0  0  0  0  0  0  0  0  0  0
   -1.6900   20.5330  -33.7410 C   0  0  0  0  0  0  0  0  0  0  0  0
   -2.2840   20.9660  -32.5550 C   0  0  0  0  0  0  0  0  0  0  0  0
   -3.5760   20.5490  -32.2490 C   0  0  0  0  0  0  0  0  0  0  0  0
   -4.2660   19.7150  -33.1510 C   0  0  0  0  0  0  0  0  0  0  0  0
   -5.4850   19.2940  -32.9410 N   0  0  0  0  0  0  0  0  0  0  0  0
   -6.3720   19.6740  -31.8750 C   0  0  0  0  0  0  0  0  0  0  0  0
   -6.8140   18.7810  -31.1020 O   0  0  0  0  0  0  0  0  0  0  0  0
   -6.8330   21.0710  -31.7100 C   0  0  0  0  0  0  0  0  0  0  0  0
   -8.1510   21.4280  -32.0320 C   0  0  0  0  0  0  0  0  0  0  0  0
   -8.5540   22.7630  -31.9710 C   0  0  0  0  0  0  0  0  0  0  0  0
   -7.6420   23.7560  -31.6090 C   0  0  0  0  0  0  0  0  0  0  0  0
   -6.3200   23.4180  -31.2740 C   0  0  0  0  0  0  0  0  0  0  0  0
   -5.3250   24.4740  -31.0030 C   0  0  0  0  0  0  0  0  0  0  0  0
   -5.6970   25.6710  -30.8380 O   0  0  0  0  0  0  0  0  0  0  0  0
   -3.9420   24.1220  -30.8620 N   0  0  0  0  0  0  0  0  0  0  0  0
   -3.1330   24.4680  -29.7000 C   0  0  0  0  0  0  0  0  0  0  0  0
   -2.7880   23.2070  -28.9500 C   0  0  0  0  0  0  0  0  0  0  0  0
   -3.2850   21.9720  -29.3990 C   0  0  0  0  0  0  0  0  0  0  0  0
   -3.0610   20.8080  -28.6620 C   0  0  0  0  0  0  0  0  0  0  0  0
   -2.3430   20.8800  -27.4630 C   0  0  0  0  0  0  0  0  0  0  0  0
   -2.1110   19.6440  -26.6390 C   0  0  0  0  0  0  0  0  0  0  0  0
   -1.1680   18.8290  -27.2420 F   0  0  0  0  0  0  0  0  0  0  0  0
   -3.2970   18.9360  -26.5110 F   0  0  0  0  0  0  0  0  0  0  0  0
   -1.6530   20.0030  -25.3840 F   0  0  0  0  0  0  0  0  0  0  0  0
   -1.8790   22.0870  -27.0320 N   0  0  0  0  0  0  0  0  0  0  0  0
   -2.0720   23.2410  -27.7330 C   0  0  0  0  0  0  0  0  0  0  0  0
   -1.5410   24.4670  -27.2130 N   0  0  0  0  0  0  0  0  0  0  0  0
   -2.3640   25.2600  -26.2930 C   0  0  0  0  0  0  0  0  0  0  0  0
   -1.6040   26.5080  -25.8380 C   0  0  0  0  0  0  0  0  0  0  0  0
   -0.8570   27.0250  -26.9190 O   0  0  0  0  0  0  0  0  0  0  0  0
    0.2580   26.1900  -27.1900 C   0  0  0  0  0  0  0  0  0  0  0  0
   -0.0890   24.6830  -27.2500 C   0  0  0  0  0  0  0  0  0  0  0  0
   -5.9310   22.0670  -31.2980 C   0  0  0  0  0  0  0  0  0  0  0  0
   -3.6200   19.3060  -34.2780 N   0  0  0  0  0  0  0  0  0  0  0  0
   -2.3780   19.7010  -34.5640 N   0  0  0  0  0  0  0  0  0  0  0  0
   -0.8590   22.9960  -34.9840 H   0  0  0  0  0  0  0  0  0  0  0  0
   -0.4510   21.9200  -36.2090 H   0  0  0  0  0  0  0  0  0  0  0  0
   -1.7370   21.6298  -31.8693 H   0  0  0  0  0  0  0  0  0  0  0  0
   -4.0543   20.8677  -31.3111 H   0  0  0  0  0  0  0  0  0  0  0  0
   -8.8701   20.6523  -32.3339 H   0  0  0  0  0  0  0  0  0  0  0  0
   -9.5934   23.0334  -32.2089 H   0  0  0  0  0  0  0  0  0  0  0  0
   -7.9601   24.8088  -31.5859 H   0  0  0  0  0  0  0  0  0  0  0  0
   -2.2090   24.9661  -30.0289 H   0  0  0  0  0  0  0  0  0  0  0  0
   -3.6959   25.1485  -29.0442 H   0  0  0  0  0  0  0  0  0  0  0  0
   -3.8550   21.9220  -30.3385 H   0  0  0  0  0  0  0  0  0  0  0  0
   -3.4457   19.8419  -29.0207 H   0  0  0  0  0  0  0  0  0  0  0  0
   -3.2885   25.5652  -26.8051 H   0  0  0  0  0  0  0  0  0  0  0  0
   -2.6047   24.6476  -25.4115 H   0  0  0  0  0  0  0  0  0  0  0  0
   -2.3203   27.2673  -25.4911 H   0  0  0  0  0  0  0  0  0  0  0  0
   -0.9232   26.2430  -25.0156 H   0  0  0  0  0  0  0  0  0  0  0  0
    0.6854   26.4862  -28.1594 H   0  0  0  0  0  0  0  0  0  0  0  0
    0.9664   26.3224  -26.3589 H   0  0  0  0  0  0  0  0  0  0  0  0
    0.3124   24.2599  -28.1827 H   0  0  0  0  0  0  0  0  0  0  0  0
    0.3575   24.1892  -26.3743 H   0  0  0  0  0  0  0  0  0  0  0  0
   -4.9122   21.7873  -30.9918 H   0  0  0  0  0  0  0  0  0  0  0  0
  1  2  1  0
  2  3  2  0
  2  4  2  0
  2  5  1  0
  5  6  1  0
  6  7  2  0
  7  8  1  0
  8  9  2  3
  9 10  1  0
 10 11  2  0
 10 12  1  0
 12 13  2  0
 13 14  1  0
 14 15  2  0
 15 16  1  0
 16 17  1  0
 17 18  2  0
 17 19  1  0
 19 20  1  0
 20 21  1  0
 21 22  2  0
 22 23  1  0
 23 24  2  0
 24 25  1  0
 25 26  1  0
 25 27  1  0
 25 28  1  0
 24 29  1  0
 29 30  2  0
 30 31  1  0
 31 32  1  0
 32 33  1  0
 33 34  1  0
 34 35  1  0
 35 36  1  0
 16 37  2  0
  8 38  1  0
 38 39  1  0
 39  5  2  0
 37 12  1  0
 30 21  1  0
 36 31  1  0
  1 40  1  0
  1 41  1  0
  6 42  1  0
  7 43  1  0
 13 44  1  0
 14 45  1  0
 15 46  1  0
 20 47  1  0
 20 48  1  0
 22 49  1  0
 23 50  1  0
 32 51  1  0
 32 52  1  0
 33 53  1  0
 33 54  1  0
 35 55  1  0
 35 56  1  0
 36 57  1  0
 36 58  1  0
 37 59  1  0
M  CHG  2  19  -1  38  -1
M  END
>  <UniqueID>  (33) 
33

>  <SMILES>  (33) 
NS(=O)(=O)c1ccc(=NC(=O)c2cccc(C(=O)[N-]Cc3ccc(C(F)(F)F)nc3N3CCOCC3)c2)[n-]n1

>  <Energy>  (33) 
83.44650208102262

>  <Genealogy>  (33) 
NS(=O)(=O)c1ccc(=NC(=O)c2cccc(C(=O)[N-]Cc3ccc(C(F)(F)F)nc3N3CCOCC3)c2)[n-]n1 (protonated)
NS(=O)(=O)c1ccc(=NC(=O)c2cccc(C(=O)[N-]Cc3ccc(C(F)(F)F)nc3N3CCOCC3)c2)[n-]n1 (3D coordinates assigned)
NS(=O)(=O)c1ccc(=NC(=O)c2cccc(C(=O)[N-]Cc3ccc(C(F)(F)F)nc3N3CCOCC3)c2)[n-]n1 (nonaromatic ring conformer: 83.44650208102262 kcal/mol)

>  <smiles>  (33) 
NS(=O)(=O)c1ccc(=NC(=O)c2cccc(C(=O)NCc3ccc(C(F)(F)F)nc3N3CCOCC3)c2)[nH]n1

>  <score_type>  (33) 
oracle

>  <origin>  (33) 
adgpu

>  <m_score__min__energy>  (33) 
-13.039999999999999

>  <m_primary>  (33) 
energy

$$$$
33:0
     RDKit          3D

 32 34  0  0  0  0  0  0  0  0999 V2000
   -3.0218   25.1879  -25.6379 H   0  0  0  0  0  0  0  0  0  0  0  0
   -2.8730   24.7570  -26.6390 C   0  0  0  0  0  0  0  0  0  0  0  0
   -1.8250   25.2090  -27.4450 C   0  0  0  0  0  0  0  0  0  0  0  0
   -1.1555   26.0029  -27.0825 H   0  0  0  0  0  0  0  0  0  0  0  0
   -1.6270   24.6520  -28.7130 C   0  0  0  0  0  0  0  0  0  0  0  0
   -0.8123   25.0229  -29.3523 H   0  0  0  0  0  0  0  0  0  0  0  0
   -2.4610   23.6240  -29.1730 C   0  0  0  0  0  0  0  0  0  0  0  0
   -2.2490   23.0940  -30.4920 N   0  0  0  0  0  0  0  0  0  0  0  0
   -3.1150   23.0720  -31.4350 N   0  0  0  0  0  0  0  0  0  0  0  0
   -4.4990   23.4400  -31.3000 C   0  0  0  0  0  0  0  0  0  0  0  0
   -4.8490   24.7190  -30.8250 C   0  0  0  0  0  0  0  0  0  0  0  0
   -3.8650   25.6330  -30.4690 O   0  0  0  0  0  0  0  0  0  0  0  0
   -6.1920   25.0760  -30.6890 C   0  0  0  0  0  0  0  0  0  0  0  0
   -6.4561   26.0845  -30.3380 H   0  0  0  0  0  0  0  0  0  0  0  0
   -7.2010   24.1630  -30.9950 C   0  0  0  0  0  0  0  0  0  0  0  0
   -8.2560   24.4564  -30.8906 H   0  0  0  0  0  0  0  0  0  0  0  0
   -6.8750   22.8730  -31.4350 C   0  0  0  0  0  0  0  0  0  0  0  0
   -7.8910   21.9500  -31.7300 C   0  0  0  0  0  0  0  0  0  0  0  0
   -8.9454   22.2411  -31.6135 H   0  0  0  0  0  0  0  0  0  0  0  0
   -7.5690   20.6600  -32.1720 C   0  0  0  0  0  0  0  0  0  0  0  0
   -8.6080   19.7230  -32.4710 N   0  0  0  0  0  0  0  0  0  0  0  0
   -9.1700   19.2850  -31.7070 H   0  0  0  0  0  0  0  0  0  0  0  0
   -8.8230   19.4590  -33.4580 H   0  0  0  0  0  0  0  0  0  0  0  0
   -6.2270   20.2910  -32.3200 C   0  0  0  0  0  0  0  0  0  0  0  0
   -5.9737   19.2780  -32.6661 H   0  0  0  0  0  0  0  0  0  0  0  0
   -5.2070   21.2010  -32.0310 C   0  0  0  0  0  0  0  0  0  0  0  0
   -4.1560   20.9008  -32.1545 H   0  0  0  0  0  0  0  0  0  0  0  0
   -5.5150   22.4990  -31.5830 C   0  0  0  0  0  0  0  0  0  0  0  0
   -3.5360   23.1990  -28.3710 C   0  0  0  0  0  0  0  0  0  0  0  0
   -4.2242   22.4250  -28.7414 H   0  0  0  0  0  0  0  0  0  0  0  0
   -3.7320   23.7580  -27.1040 C   0  0  0  0  0  0  0  0  0  0  0  0
   -4.5634   23.4107  -26.4729 H   0  0  0  0  0  0  0  0  0  0  0  0
  1  2  1  0
  2  3  2  0
  3  4  1  0
  3  5  1  0
  5  6  1  0
  5  7  2  0
  7  8  1  0
  8  9  2  0
  9 10  1  0
 10 11  2  0
 11 12  1  0
 11 13  1  0
 13 14  1  0
 13 15  2  0
 15 16  1  0
 15 17  1  0
 17 18  2  0
 18 19  1  0
 18 20  1  0
 20 21  1  0
 21 22  1  0
 21 23  1  0
 20 24  2  0
 24 25  1  0
 24 26  1  0
 26 27  1  0
 26 28  2  0
  7 29  1  0
 29 30  1  0
 29 31  2  0
 31 32  1  0
 31  2  1  0
 28 10  1  0
 28 17  1  0
M  CHG  1  12  -1
M  END
>  <UniqueID>  (34) 
34

>  <SMILES>  (34) 
Nc1ccc2c(/N=N\c3ccccc3)c([O-])ccc2c1

>  <Energy>  (34) 
52.33868458046588

>  <Genealogy>  (34) 
Nc1ccc2c(N=Nc3ccccc3)c([O-])ccc2c1 (protonated)
Nc1ccc2c(/N=N\c3ccccc3)c([O-])ccc2c1 (cis-trans isomerization)
Nc1ccc2c(/N=N\c3ccccc3)c([O-])ccc2c1 (3D coordinates assigned)
Nc1ccc2c(/N=N\c3ccccc3)c([O-])ccc2c1 (optimized conformer: 52.33868458046588 kcal/mol)

>  <smiles>  (34) 
Nc1ccc2c(N=Nc3ccccc3)c(O)ccc2c1

>  <score_type>  (34) 
oracle

>  <origin>  (34) 
adgpu

>  <m_score__min__energy>  (34) 
-10.76

>  <m_primary>  (34) 
energy

$$$$
34:0
     RDKit          3D

 67 71  0  0  0  0  0  0  0  0999 V2000
   -5.7480   23.3760  -29.7290 O   0  0  0  0  0  0  0  0  0  0  0  0
   -4.8780   24.0020  -30.7820 S   0  0  0  0  0  0  0  0  0  0  0  0
   -5.7000   24.8800  -31.6810 O   0  0  0  0  0  0  0  0  0  0  0  0
   -3.6510   24.9670  -30.0250 N   0  0  0  0  0  0  0  0  0  0  0  0
   -2.7010   24.5130  -29.0490 C   0  0  0  0  0  0  0  0  0  0  0  0
   -2.9300   23.2720  -28.4390 C   0  0  0  0  0  0  0  0  0  0  0  0
   -2.0450   22.7760  -27.4780 C   0  0  0  0  0  0  0  0  0  0  0  0
   -0.9120   23.5120  -27.1270 C   0  0  0  0  0  0  0  0  0  0  0  0
   -0.6580   24.7380  -27.7450 C   0  0  0  0  0  0  0  0  0  0  0  0
   -1.5370   25.2410  -28.7120 C   0  0  0  0  0  0  0  0  0  0  0  0
   -1.2190   26.4370  -29.3420 O   0  0  0  0  0  0  0  0  0  0  0  0
   -4.1000   22.7160  -31.7160 C   0  0  0  0  0  0  0  0  0  0  0  0
   -2.7120   22.5410  -31.5970 C   0  0  0  0  0  0  0  0  0  0  0  0
   -2.0490   21.5770  -32.3610 C   0  0  0  0  0  0  0  0  0  0  0  0
   -2.7640   20.7810  -33.2560 C   0  0  0  0  0  0  0  0  0  0  0  0
   -4.1480   20.9330  -33.3740 C   0  0  0  0  0  0  0  0  0  0  0  0
   -4.8290   21.8780  -32.5940 C   0  0  0  0  0  0  0  0  0  0  0  0
   -6.2540   21.9790  -32.7250 N   0  0  0  0  0  0  0  0  0  0  0  0
   -7.1540   20.8810  -32.4850 C   0  0  0  0  0  0  0  0  0  0  0  0
   -8.4140   21.1360  -31.9270 C   0  0  0  0  0  0  0  0  0  0  0  0
   -9.3010   20.0880  -31.6720 C   0  0  0  0  0  0  0  0  0  0  0  0
   -8.9450   18.7690  -31.9700 C   0  0  0  0  0  0  0  0  0  0  0  0
   -9.8400   17.7470  -31.6450 O   0  0  0  0  0  0  0  0  0  0  0  0
   -7.6940   18.5020  -32.5660 C   0  0  0  0  0  0  0  0  0  0  0  0
   -7.2870   17.1650  -32.8860 N   0  0  0  0  0  0  0  0  0  0  0  0
   -5.9700   16.8210  -33.3530 C   0  0  0  0  0  0  0  0  0  0  0  0
   -5.2000   15.9050  -32.6220 C   0  0  0  0  0  0  0  0  0  0  0  0
   -3.9170   15.5570  -33.0510 C   0  0  0  0  0  0  0  0  0  0  0  0
   -3.3840   16.1210  -34.2170 C   0  0  0  0  0  0  0  0  0  0  0  0
   -1.7570   15.6950  -34.7470 S   0  0  0  0  0  0  0  0  0  0  0  0
   -1.5350   16.2540  -36.1250 O   0  0  0  0  0  0  0  0  0  0  0  0
   -1.6530   14.1970  -34.8430 O   0  0  0  0  0  0  0  0  0  0  0  0
   -0.5060   16.2930  -33.6780 N   0  0  0  0  0  0  0  0  0  0  0  0
    0.4000   17.2650  -34.3210 C   0  0  0  0  0  0  0  0  0  0  0  0
   -0.0610   18.7180  -34.1340 C   0  0  0  0  0  0  0  0  0  0  0  0
   -0.2910   18.9980  -32.7700 O   0  0  0  0  0  0  0  0  0  0  0  0
   -1.3720   18.2130  -32.3160 C   0  0  0  0  0  0  0  0  0  0  0  0
   -1.0140   16.7210  -32.3590 C   0  0  0  0  0  0  0  0  0  0  0  0
   -4.1380   17.0580  -34.9370 C   0  0  0  0  0  0  0  0  0  0  0  0
   -5.4240   17.4030  -34.5120 C   0  0  0  0  0  0  0  0  0  0  0  0
   -6.8070   19.5580  -32.8130 C   0  0  0  0  0  0  0  0  0  0  0  0
   -3.8153   22.6825  -28.7196 H   0  0  0  0  0  0  0  0  0  0  0  0
   -2.2411   21.8058  -26.9982 H   0  0  0  0  0  0  0  0  0  0  0  0
   -0.2198   23.1264  -26.3641 H   0  0  0  0  0  0  0  0  0  0  0  0
    0.2388   25.3127  -27.4703 H   0  0  0  0  0  0  0  0  0  0  0  0
   -2.1415   23.1682  -30.8962 H   0  0  0  0  0  0  0  0  0  0  0  0
   -0.9619   21.4457  -32.2565 H   0  0  0  0  0  0  0  0  0  0  0  0
   -2.2384   20.0338  -33.8687 H   0  0  0  0  0  0  0  0  0  0  0  0
   -4.7074   20.3064  -34.0843 H   0  0  0  0  0  0  0  0  0  0  0  0
   -6.6380   22.8640  -33.1270 H   0  0  0  0  0  0  0  0  0  0  0  0
   -8.7064   22.1692  -31.6881 H   0  0  0  0  0  0  0  0  0  0  0  0
  -10.2869   20.3016  -31.2335 H   0  0  0  0  0  0  0  0  0  0  0  0
  -10.0810   17.5130  -30.6920 H   0  0  0  0  0  0  0  0  0  0  0  0
   -7.9520   16.3910  -32.6580 H   0  0  0  0  0  0  0  0  0  0  0  0
   -5.6092   15.4573  -31.7043 H   0  0  0  0  0  0  0  0  0  0  0  0
   -3.3224   14.8365  -32.4702 H   0  0  0  0  0  0  0  0  0  0  0  0
    1.4029   17.1547  -33.8827 H   0  0  0  0  0  0  0  0  0  0  0  0
    0.4025   17.0534  -35.4004 H   0  0  0  0  0  0  0  0  0  0  0  0
    0.7173   19.3954  -34.5152 H   0  0  0  0  0  0  0  0  0  0  0  0
   -1.0001   18.8646  -34.6878 H   0  0  0  0  0  0  0  0  0  0  0  0
   -1.6148   18.4965  -31.2813 H   0  0  0  0  0  0  0  0  0  0  0  0
   -2.2370   18.3884  -32.9725 H   0  0  0  0  0  0  0  0  0  0  0  0
   -0.2398   16.5232  -31.6030 H   0  0  0  0  0  0  0  0  0  0  0  0
   -1.9345   16.1532  -32.1580 H   0  0  0  0  0  0  0  0  0  0  0  0
   -3.7160   17.5235  -35.8399 H   0  0  0  0  0  0  0  0  0  0  0  0
   -6.0125   18.1334  -35.0866 H   0  0  0  0  0  0  0  0  0  0  0  0
   -5.8277   19.3500  -33.2688 H   0  0  0  0  0  0  0  0  0  0  0  0
  1  2  2  0
  2  3  2  0
  2  4  1  0
  4  5  1  0
  5  6  2  0
  6  7  1  0
  7  8  2  0
  8  9  1  0
  9 10  2  0
 10 11  1  0
  2 12  1  0
 12 13  2  0
 13 14  1  0
 14 15  2  0
 15 16  1  0
 16 17  2  0
 17 18  1  0
 18 19  1  0
 19 20  2  0
 20 21  1  0
 21 22  2  0
 22 23  1  0
 22 24  1  0
 24 25  1  0
 25 26  1  0
 26 27  2  0
 27 28  1  0
 28 29  2  0
 29 30  1  0
 30 31  2  0
 30 32  2  0
 30 33  1  0
 33 34  1  0
 34 35  1  0
 35 36  1  0
 36 37  1  0
 37 38  1  0
 29 39  1  0
 39 40  2  0
 24 41  2  0
 10  5  1  0
 17 12  1  0
 41 19  1  0
 40 26  1  0
 38 33  1  0
  6 42  1  0
  7 43  1  0
  8 44  1  0
  9 45  1  0
 13 46  1  0
 14 47  1  0
 15 48  1  0
 16 49  1  0
 18 50  1  0
 20 51  1  0
 21 52  1  0
 23 53  1  0
 25 54  1  0
 27 55  1  0
 28 56  1  0
 34 57  1  0
 34 58  1  0
 35 59  1  0
 35 60  1  0
 37 61  1  0
 37 62  1  0
 38 63  1  0
 38 64  1  0
 39 65  1  0
 40 66  1  0
 41 67  1  0
M  CHG  2   4  -1  11  -1
M  END
>  <UniqueID>  (35) 
35

>  <SMILES>  (35) 
O=S(=O)([N-]c1ccccc1[O-])c1ccccc1Nc1ccc(O)c(Nc2ccc(S(=O)(=O)N3CCOCC3)cc2)c1

>  <Energy>  (35) 
100.9275585629665

>  <Genealogy>  (35) 
O=S(=O)([N-]c1ccccc1[O-])c1ccccc1Nc1ccc(O)c(Nc2ccc(S(=O)(=O)N3CCOCC3)cc2)c1 (protonated)
O=S(=O)([N-]c1ccccc1[O-])c1ccccc1Nc1ccc(O)c(Nc2ccc(S(=O)(=O)N3CCOCC3)cc2)c1 (3D coordinates assigned)
O=S(=O)([N-]c1ccccc1[O-])c1ccccc1Nc1ccc(O)c(Nc2ccc(S(=O)(=O)N3CCOCC3)cc2)c1 (nonaromatic ring conformer: 100.9275585629665 kcal/mol)

>  <smiles>  (35) 
O=S(=O)(Nc1ccccc1O)c1ccccc1Nc1ccc(O)c(Nc2ccc(S(=O)(=O)N3CCOCC3)cc2)c1

>  <score_type>  (35) 
oracle

>  <origin>  (35) 
adgpu

>  <m_score__min__energy>  (35) 
-14.75

>  <m_primary>  (35) 
energy

$$$$
35:0
     RDKit          3D

 48 51  0  0  0  0  0  0  0  0999 V2000
   -0.4800   23.3300  -25.1560 C   0  0  0  0  0  0  0  0  0  0  0  0
   -0.7840   24.7440  -24.9650 N   0  0  0  0  0  0  0  0  0  0  0  0
   -0.4260   25.4130  -23.8790 N   0  0  0  0  0  0  0  0  0  0  0  0
   -0.9130   26.6650  -23.9870 C   0  0  0  0  0  0  0  0  0  0  0  0
   -1.6040   26.7950  -25.1750 C   0  0  0  0  0  0  0  0  0  0  0  0
   -1.4860   25.5610  -25.7830 C   0  0  0  0  0  0  0  0  0  0  0  0
   -2.0890   25.2020  -27.0810 C   0  0  0  0  0  0  0  0  0  0  0  0
   -1.6820   25.7920  -28.1190 O   0  0  0  0  0  0  0  0  0  0  0  0
   -3.1050   24.1890  -27.1710 N   0  0  0  0  0  0  0  0  0  0  0  0
   -3.7520   23.8030  -28.3950 C   0  0  0  0  0  0  0  0  0  0  0  0
   -3.3000   22.6660  -29.0800 C   0  0  0  0  0  0  0  0  0  0  0  0
   -3.8910   22.2860  -30.2880 C   0  0  0  0  0  0  0  0  0  0  0  0
   -4.9290   23.0490  -30.8350 C   0  0  0  0  0  0  0  0  0  0  0  0
   -5.6520   22.5730  -32.3680 S   0  0  0  0  0  0  0  0  0  0  0  0
   -4.6130   22.0080  -33.2970 O   0  0  0  0  0  0  0  0  0  0  0  0
   -6.2550   23.7900  -33.0110 O   0  0  0  0  0  0  0  0  0  0  0  0
   -6.8810   21.3660  -32.0840 N   0  0  0  0  0  0  0  0  0  0  0  0
   -8.2360   21.8460  -31.7810 C   0  0  0  0  0  0  0  0  0  0  0  0
   -9.0590   20.7800  -31.0580 C   0  0  0  0  0  0  0  0  0  0  0  0
   -9.0850   19.4910  -31.8720 C   0  0  0  0  0  0  0  0  0  0  0  0
   -7.6860   19.0210  -32.1720 C   0  0  0  0  0  0  0  0  0  0  0  0
   -7.4540   17.6530  -32.3880 C   0  0  0  0  0  0  0  0  0  0  0  0
   -6.1710   17.1960  -32.6850 C   0  0  0  0  0  0  0  0  0  0  0  0
   -5.1130   18.0980  -32.7770 C   0  0  0  0  0  0  0  0  0  0  0  0
   -5.3330   19.4630  -32.5840 C   0  0  0  0  0  0  0  0  0  0  0  0
   -6.6260   19.9510  -32.2940 C   0  0  0  0  0  0  0  0  0  0  0  0
   -5.3720   24.1970  -30.1660 C   0  0  0  0  0  0  0  0  0  0  0  0
   -4.7810   24.5780  -28.9570 C   0  0  0  0  0  0  0  0  0  0  0  0
   -0.3751   22.8419  -24.1758 H   0  0  0  0  0  0  0  0  0  0  0  0
   -1.2959   22.8522  -25.7181 H   0  0  0  0  0  0  0  0  0  0  0  0
    0.4602   23.2298  -25.7181 H   0  0  0  0  0  0  0  0  0  0  0  0
   -0.7800   27.4627  -23.2413 H   0  0  0  0  0  0  0  0  0  0  0  0
   -2.1310   27.6835  -25.5529 H   0  0  0  0  0  0  0  0  0  0  0  0
   -3.4360   23.7310  -26.2930 H   0  0  0  0  0  0  0  0  0  0  0  0
   -2.4749   22.0693  -28.6638 H   0  0  0  0  0  0  0  0  0  0  0  0
   -3.5392   21.3843  -30.8106 H   0  0  0  0  0  0  0  0  0  0  0  0
   -8.1646   22.7377  -31.1408 H   0  0  0  0  0  0  0  0  0  0  0  0
   -8.7380   22.0848  -32.7302 H   0  0  0  0  0  0  0  0  0  0  0  0
   -8.6093   20.5793  -30.0744 H   0  0  0  0  0  0  0  0  0  0  0  0
  -10.0888   21.1459  -30.9333 H   0  0  0  0  0  0  0  0  0  0  0  0
   -9.6120   18.7134  -31.2997 H   0  0  0  0  0  0  0  0  0  0  0  0
   -9.6041   19.6840  -32.8224 H   0  0  0  0  0  0  0  0  0  0  0  0
   -8.2882   16.9390  -32.3226 H   0  0  0  0  0  0  0  0  0  0  0  0
   -5.9937   16.1225  -32.8469 H   0  0  0  0  0  0  0  0  0  0  0  0
   -4.1002   17.7330  -33.0027 H   0  0  0  0  0  0  0  0  0  0  0  0
   -4.4902   20.1659  -32.6586 H   0  0  0  0  0  0  0  0  0  0  0  0
   -6.1868   24.8005  -30.5925 H   0  0  0  0  0  0  0  0  0  0  0  0
   -5.1232   25.4886  -28.4435 H   0  0  0  0  0  0  0  0  0  0  0  0
  1  2  1  0
  2  3  1  0
  3  4  2  0
  4  5  1  0
  5  6  2  0
  6  7  1  0
  7  8  2  0
  7  9  1  0
  9 10  1  0
 10 11  2  0
 11 12  1  0
 12 13  2  0
 13 14  1  0
 14 15  2  0
 14 16  2  0
 14 17  1  0
 17 18  1  0
 18 19  1  0
 19 20  1  0
 20 21  1  0
 21 22  2  0
 22 23  1  0
 23 24  2  0
 24 25  1  0
 25 26  2  0
 13 27  1  0
 27 28  2  0
  6  2  1  0
 28 10  1  0
 26 17  1  0
 26 21  1  0
  1 29  1  0
  1 30  1  0
  1 31  1  0
  4 32  1  0
  5 33  1  0
  9 34  1  0
 11 35  1  0
 12 36  1  0
 18 37  1  0
 18 38  1  0
 19 39  1  0
 19 40  1  0
 20 41  1  0
 20 42  1  0
 22 43  1  0
 23 44  1  0
 24 45  1  0
 25 46  1  0
 27 47  1  0
 28 48  1  0
M  END
>  <UniqueID>  (36) 
36

>  <SMILES>  (36) 
Cn1nccc1C(=O)Nc1ccc(S(=O)(=O)N2CCCc3ccccc32)cc1

>  <Energy>  (36) 
91.58564972590895

>  <Genealogy>  (36) 
Cn1nccc1C(=O)Nc1ccc(S(=O)(=O)N2CCCc3ccccc32)cc1 (3D coordinates assigned)
Cn1nccc1C(=O)Nc1ccc(S(=O)(=O)N2CCCc3ccccc32)cc1 (nonaromatic ring conformer: 91.58564972590895 kcal/mol)

>  <smiles>  (36) 
Cn1nccc1C(=O)Nc1ccc(S(=O)(=O)N2CCCc3ccccc32)cc1

>  <score_type>  (36) 
oracle

>  <origin>  (36) 
adgpu

>  <m_score__min__energy>  (36) 
-9.4199999999999999

>  <m_primary>  (36) 
energy

$$$$
36:0
     RDKit          3D

 44 46  0  0  1  0  0  0  0  0999 V2000
   -5.0350   25.0630  -30.2830 C   0  0  0  0  0  0  0  0  0  0  0  0
   -3.6410   25.2690  -30.1420 O   0  0  0  0  0  0  0  0  0  0  0  0
   -2.7710   24.2850  -29.7250 C   0  0  0  0  0  0  0  0  0  0  0  0
   -3.1020   22.9410  -29.7560 C   0  0  0  0  0  0  0  0  0  0  0  0
   -2.1650   22.0280  -29.3180 C   0  0  0  0  0  0  0  0  0  0  0  0
   -2.4450   20.5460  -29.3180 C   0  0  0  0  0  0  0  0  0  0  0  0
   -2.0860   20.1150  -30.6570 N   0  0  0  0  0  0  0  0  0  0  0  0
   -2.9680   20.0770  -31.5720 C   0  0  0  0  0  0  0  0  0  0  0  0
   -4.3030   20.4350  -31.3600 C   0  0  0  0  0  0  0  0  0  0  0  0
   -5.2390   20.3800  -32.3810 C   0  0  0  0  0  0  0  0  0  0  0  0
   -6.6250   20.7570  -32.1420 C   0  0  0  0  0  0  0  0  0  0  0  0
   -7.6750   19.8670  -32.2100 C   0  0  0  0  0  0  0  0  0  0  0  0
   -8.9930   20.2390  -31.9790 C   0  0  0  0  0  0  0  0  0  0  0  0
   -9.3130   21.5380  -31.6680 C   0  0  0  0  0  0  0  0  0  0  0  0
   -8.2810   22.4440  -31.5960 C   0  0  0  0  0  0  0  0  0  0  0  0
   -6.9550   22.0680  -31.8280 C   0  0  0  0  0  0  0  0  0  0  0  0
   -4.7780   19.9640  -33.5770 N   0  0  0  0  0  0  0  0  0  0  0  0
   -3.4880   19.6180  -33.7870 C   0  0  0  0  0  0  0  0  0  0  0  0
   -2.5750   19.6680  -32.7990 N   0  0  0  0  0  0  0  0  0  0  0  0
   -0.9160   22.4550  -28.8540 C   0  0  0  0  0  0  0  0  0  0  0  0
   -0.5870   23.8000  -28.8250 C   0  0  0  0  0  0  0  0  0  0  0  0
    0.6650   24.1770  -28.3580 O   0  0  0  0  0  0  0  0  0  0  0  0
    0.8340   24.3730  -26.9820 C   0  0  0  0  0  0  0  0  0  0  0  0
   -1.5260   24.7150  -29.2640 C   0  0  0  0  0  0  0  0  0  0  0  0
   -1.2110   26.0630  -29.2400 O   0  0  0  0  0  0  0  0  0  0  0  0
   -5.4981   24.9946  -29.2876 H   0  0  0  0  0  0  0  0  0  0  0  0
   -5.4762   25.9057  -30.8355 H   0  0  0  0  0  0  0  0  0  0  0  0
   -5.2136   24.1287  -30.8355 H   0  0  0  0  0  0  0  0  0  0  0  0
   -4.0858   22.6100  -30.1201 H   0  0  0  0  0  0  0  0  0  0  0  0
   -1.8291   20.0327  -28.5648 H   0  0  0  0  0  0  0  0  0  0  0  0
   -3.4910   20.3151  -29.0676 H   0  0  0  0  0  0  0  0  0  0  0  0
   -4.6177   20.7680  -30.3599 H   0  0  0  0  0  0  0  0  0  0  0  0
   -7.4600   18.8171  -32.4578 H   0  0  0  0  0  0  0  0  0  0  0  0
   -9.7903   19.4841  -32.0459 H   0  0  0  0  0  0  0  0  0  0  0  0
  -10.3541   21.8417  -31.4837 H   0  0  0  0  0  0  0  0  0  0  0  0
   -8.5050   23.4923  -31.3493 H   0  0  0  0  0  0  0  0  0  0  0  0
   -6.1591   22.8243  -31.7605 H   0  0  0  0  0  0  0  0  0  0  0  0
   -5.4070   19.8920  -34.4020 H   0  0  0  0  0  0  0  0  0  0  0  0
   -3.1771   19.2877  -34.7891 H   0  0  0  0  0  0  0  0  0  0  0  0
   -0.1840   21.7109  -28.5069 H   0  0  0  0  0  0  0  0  0  0  0  0
    0.2127   23.6524  -26.4300 H   0  0  0  0  0  0  0  0  0  0  0  0
    1.8912   24.2238  -26.7175 H   0  0  0  0  0  0  0  0  0  0  0  0
    0.5308   25.3968  -26.7175 H   0  0  0  0  0  0  0  0  0  0  0  0
   -1.2280   26.6000  -30.0950 H   0  0  0  0  0  0  0  0  0  0  0  0
  1  2  1  0
  2  3  1  0
  3  4  2  0
  4  5  1  0
  5  6  1  0
  6  7  1  0
  7  8  2  0
  8  9  1  0
  9 10  2  0
 10 11  1  0
 11 12  2  0
 12 13  1  0
 13 14  2  0
 14 15  1  0
 15 16  2  0
 10 17  1  0
 17 18  1  0
 18 19  2  0
  5 20  2  0
 20 21  1  0
 21 22  1  0
 22 23  1  0
 21 24  2  0
 24 25  1  0
 24  3  1  0
 19  8  1  0
 16 11  1  0
  1 26  1  0
  1 27  1  0
  1 28  1  0
  4 29  1  0
  6 30  1  0
  6 31  1  0
  9 32  1  0
 12 33  1  0
 13 34  1  0
 14 35  1  0
 15 36  1  0
 16 37  1  0
 17 38  1  0
 18 39  1  0
 20 40  1  0
 23 41  1  0
 23 42  1  0
 23 43  1  0
 25 44  1  0
M  END
>  <smiles>  (37) 
COc1cc(CN=c2cc(-c3ccccc3)[nH]cn2)cc(OC)c1O

>  <score_type>  (37) 
oracle

>  <origin>  (37) 
adgpu

>  <m_score__min__energy>  (37) 
-9.1500000000000004

>  <m_primary>  (37) 
energy

$$$$
37:0
     RDKit          3D

 50 53  0  0  0  0  0  0  0  0999 V2000
   -5.7030   25.9260  -30.8100 O   0  0  0  0  0  0  0  0  0  0  0  0
   -4.8260   25.0230  -30.8260 C   0  0  0  0  0  0  0  0  0  0  0  0
   -3.5400   25.2970  -30.2530 N   0  0  0  0  0  0  0  0  0  0  0  0
   -2.8980   24.5470  -29.2120 C   0  0  0  0  0  0  0  0  0  0  0  0
   -3.6270   23.5560  -28.5410 C   0  0  0  0  0  0  0  0  0  0  0  0
   -3.0330   22.8180  -27.5130 C   0  0  0  0  0  0  0  0  0  0  0  0
   -1.7110   23.0740  -27.1380 C   0  0  0  0  0  0  0  0  0  0  0  0
   -0.9820   24.0850  -27.7790 C   0  0  0  0  0  0  0  0  0  0  0  0
    0.6860   24.4060  -27.3140 S   0  0  0  0  0  0  0  0  0  0  0  0
    1.2070   23.2530  -26.5000 O   0  0  0  0  0  0  0  0  0  0  0  0
    1.5090   24.5430  -28.5640 O   0  0  0  0  0  0  0  0  0  0  0  0
    0.7620   25.8830  -26.3760 N   0  0  0  0  0  0  0  0  0  0  0  0
   -0.1580   26.9250  -26.9010 C   0  0  0  0  0  0  0  0  0  0  0  0
   -1.2610   27.3440  -25.9130 C   0  0  0  0  0  0  0  0  0  0  0  0
   -1.8690   26.1170  -25.2350 C   0  0  0  0  0  0  0  0  0  0  0  0
   -0.8040   25.2760  -24.5070 C   0  0  0  0  0  0  0  0  0  0  0  0
    0.6360   25.6230  -24.9280 C   0  0  0  0  0  0  0  0  0  0  0  0
   -1.5790   24.8240  -28.8090 C   0  0  0  0  0  0  0  0  0  0  0  0
   -5.1650   23.6960  -31.3740 C   0  0  0  0  0  0  0  0  0  0  0  0
   -6.3740   23.0500  -31.2360 C   0  0  0  0  0  0  0  0  0  0  0  0
   -6.1930   21.8500  -31.8990 C   0  0  0  0  0  0  0  0  0  0  0  0
   -7.1730   20.7470  -32.0470 C   0  0  0  0  0  0  0  0  0  0  0  0
   -8.5420   21.0600  -32.1290 C   0  0  0  0  0  0  0  0  0  0  0  0
   -9.4970   20.0520  -32.2810 C   0  0  0  0  0  0  0  0  0  0  0  0
   -9.1000   18.7160  -32.3440 C   0  0  0  0  0  0  0  0  0  0  0  0
   -7.7480   18.3860  -32.2470 C   0  0  0  0  0  0  0  0  0  0  0  0
   -6.7790   19.3890  -32.0890 C   0  0  0  0  0  0  0  0  0  0  0  0
   -5.4390   19.0300  -31.9500 O   0  0  0  0  0  0  0  0  0  0  0  0
   -4.9330   21.7930  -32.3780 N   0  0  0  0  0  0  0  0  0  0  0  0
   -4.3080   22.9160  -32.0600 N   0  0  0  0  0  0  0  0  0  0  0  0
   -4.6712   23.3579  -28.8244 H   0  0  0  0  0  0  0  0  0  0  0  0
   -3.6074   22.0339  -26.9979 H   0  0  0  0  0  0  0  0  0  0  0  0
   -1.2422   22.4812  -26.3388 H   0  0  0  0  0  0  0  0  0  0  0  0
    0.4364   27.8155  -27.1533 H   0  0  0  0  0  0  0  0  0  0  0  0
   -0.6638   26.4904  -27.7758 H   0  0  0  0  0  0  0  0  0  0  0  0
   -0.8283   28.0036  -25.1464 H   0  0  0  0  0  0  0  0  0  0  0  0
   -2.0515   27.8719  -26.4665 H   0  0  0  0  0  0  0  0  0  0  0  0
   -2.6198   26.4504  -24.5035 H   0  0  0  0  0  0  0  0  0  0  0  0
   -2.3256   25.4886  -26.0138 H   0  0  0  0  0  0  0  0  0  0  0  0
   -0.9027   25.4477  -23.4250 H   0  0  0  0  0  0  0  0  0  0  0  0
   -0.9785   24.2239  -24.7764 H   0  0  0  0  0  0  0  0  0  0  0  0
    0.9553   26.5220  -24.3804 H   0  0  0  0  0  0  0  0  0  0  0  0
    1.2686   24.7548  -24.6912 H   0  0  0  0  0  0  0  0  0  0  0  0
   -1.0127   25.6257  -29.3055 H   0  0  0  0  0  0  0  0  0  0  0  0
   -7.2761   23.4068  -30.7175 H   0  0  0  0  0  0  0  0  0  0  0  0
   -8.8641   22.1103  -32.0728 H   0  0  0  0  0  0  0  0  0  0  0  0
  -10.5635   20.3119  -32.3511 H   0  0  0  0  0  0  0  0  0  0  0  0
   -9.8524   17.9235  -32.4701 H   0  0  0  0  0  0  0  0  0  0  0  0
   -7.4390   17.3314  -32.2947 H   0  0  0  0  0  0  0  0  0  0  0  0
   -4.6980   19.7190  -31.9640 H   0  0  0  0  0  0  0  0  0  0  0  0
  1  2  2  0
  2  3  1  0
  3  4  1  0
  4  5  2  0
  5  6  1  0
  6  7  2  0
  7  8  1  0
  8  9  1  0
  9 10  2  0
  9 11  2  0
  9 12  1  0
 12 13  1  0
 13 14  1  0
 14 15  1  0
 15 16  1  0
 16 17  1  0
  8 18  2  0
  2 19  1  0
 19 20  1  0
 20 21  2  0
 21 22  1  0
 22 23  2  0
 23 24  1  0
 24 25  2  0
 25 26  1  0
 26 27  2  0
 27 28  1  0
 21 29  1  0
 29 30  1  0
 18  4  1  0
 30 19  2  0
 17 12  1  0
 27 22  1  0
  5 31  1  0
  6 32  1  0
  7 33  1  0
 13 34  1  0
 13 35  1  0
 14 36  1  0
 14 37  1  0
 15 38  1  0
 15 39  1  0
 16 40  1  0
 16 41  1  0
 17 42  1  0
 17 43  1  0
 18 44  1  0
 20 45  1  0
 23 46  1  0
 24 47  1  0
 25 48  1  0
 26 49  1  0
 28 50  1  0
M  CHG  2   3  -1  29  -1
M  END
>  <UniqueID>  (38) 
37

>  <SMILES>  (38) 
O=C([N-]c1cccc(S(=O)(=O)N2CCCCC2)c1)c1cc(-c2ccccc2O)[n-]n1

>  <Energy>  (38) 
97.54156865762644

>  <Genealogy>  (38) 
O=C([N-]c1cccc(S(=O)(=O)N2CCCCC2)c1)c1cc(-c2ccccc2O)[n-]n1 (protonated)
O=C([N-]c1cccc(S(=O)(=O)N2CCCCC2)c1)c1cc(-c2ccccc2O)[n-]n1 (3D coordinates assigned)
O=C([N-]c1cccc(S(=O)(=O)N2CCCCC2)c1)c1cc(-c2ccccc2O)[n-]n1 (nonaromatic ring conformer: 97.54156865762644 kcal/mol)

>  <smiles>  (38) 
O=C(Nc1cccc(S(=O)(=O)N2CCCCC2)c1)c1cc(-c2ccccc2O)[nH]n1

>  <score_type>  (38) 
oracle

>  <origin>  (38) 
adgpu

>  <m_score__min__energy>  (38) 
-13.16

>  <m_primary>  (38) 
energy

$$$$
38:0
     RDKit          3D

 37 39  0  0  0  0  0  0  0  0999 V2000
   -0.3790   16.0990  -30.7230 H   0  0  0  0  0  0  0  0  0  0  0  0
   -0.0940   16.8900  -31.3430 N   0  0  0  0  0  0  0  0  0  0  0  0
   -0.0830   18.1190  -30.9310 C   0  0  0  0  0  0  0  0  0  0  0  0
    0.3070   19.1380  -31.8080 C   0  0  0  0  0  0  0  0  0  0  0  0
    0.6165   18.8967  -32.8356 H   0  0  0  0  0  0  0  0  0  0  0  0
    0.3000   20.4630  -31.3680 C   0  0  0  0  0  0  0  0  0  0  0  0
    0.6249   21.2691  -32.0422 H   0  0  0  0  0  0  0  0  0  0  0  0
   -0.1200   20.7630  -30.0710 C   0  0  0  0  0  0  0  0  0  0  0  0
   -0.1380   22.1240  -29.6210 N   0  0  0  0  0  0  0  0  0  0  0  0
   -1.0970   23.0140  -29.7140 C   0  0  0  0  0  0  0  0  0  0  0  0
   -0.9530   24.2140  -28.9830 C   0  0  0  0  0  0  0  0  0  0  0  0
    0.2340   24.4790  -28.2030 C   0  0  0  0  0  0  0  0  0  0  0  0
    1.1840   24.6920  -27.5770 N   0  0  0  0  0  0  0  0  0  0  0  0
   -1.9880   25.1510  -28.9690 C   0  0  0  0  0  0  0  0  0  0  0  0
   -1.8820   26.0752  -28.3820 H   0  0  0  0  0  0  0  0  0  0  0  0
   -3.1220   24.9270  -29.6750 N   0  0  0  0  0  0  0  0  0  0  0  0
   -3.2890   23.8120  -30.4270 C   0  0  0  0  0  0  0  0  0  0  0  0
   -4.2233   23.6702  -30.9901 H   0  0  0  0  0  0  0  0  0  0  0  0
   -2.2810   22.8350  -30.4950 C   0  0  0  0  0  0  0  0  0  0  0  0
   -2.4270   21.7550  -31.4960 C   0  0  0  0  0  0  0  0  0  0  0  0
   -1.5264   21.3620  -31.9905 H   0  0  0  0  0  0  0  0  0  0  0  0
   -3.6200   21.2410  -31.8190 C   0  0  0  0  0  0  0  0  0  0  0  0
   -4.5289   21.7064  -31.4100 H   0  0  0  0  0  0  0  0  0  0  0  0
   -3.7550   20.0650  -32.7100 C   0  0  0  0  0  0  0  0  0  0  0  0
   -2.6410   19.3720  -33.0830 N   0  0  0  0  0  0  0  0  0  0  0  0
   -2.6990   18.2660  -33.8680 C   0  0  0  0  0  0  0  0  0  0  0  0
   -1.7740   17.7399  -34.1467 H   0  0  0  0  0  0  0  0  0  0  0  0
   -3.9320   17.7970  -34.3210 C   0  0  0  0  0  0  0  0  0  0  0  0
   -4.0200   16.3660  -35.3310 Cl  0  0  0  0  0  0  0  0  0  0  0  0
   -5.0940   18.4800  -33.9620 C   0  0  0  0  0  0  0  0  0  0  0  0
   -6.0721   18.1221  -34.3159 H   0  0  0  0  0  0  0  0  0  0  0  0
   -5.0190   19.6190  -33.1530 C   0  0  0  0  0  0  0  0  0  0  0  0
   -6.5150   20.4430  -32.7250 Cl  0  0  0  0  0  0  0  0  0  0  0  0
   -0.4560   19.7110  -29.2050 C   0  0  0  0  0  0  0  0  0  0  0  0
   -0.7278   19.9265  -28.1611 H   0  0  0  0  0  0  0  0  0  0  0  0
   -0.4470   18.4260  -29.6510 N   0  0  0  0  0  0  0  0  0  0  0  0
   -0.7300   17.6680  -28.9880 H   0  0  0  0  0  0  0  0  0  0  0  0
  1  2  1  0
  2  3  2  0
  3  4  1  0
  4  5  1  0
  4  6  2  0
  6  7  1  0
  6  8  1  0
  8  9  1  0
  9 10  2  0
 10 11  1  0
 11 12  1  0
 12 13  3  0
 11 14  2  0
 14 15  1  0
 14 16  1  0
 16 17  1  0
 17 18  1  0
 17 19  2  0
 19 20  1  0
 20 21  1  0
 20 22  2  3
 22 23  1  0
 22 24  1  0
 24 25  2  0
 25 26  1  0
 26 27  1  0
 26 28  2  0
 28 29  1  0
 28 30  1  0
 30 31  1  0
 30 32  2  0
 32 33  1  0
  8 34  2  0
 34 35  1  0
 34 36  1  0
 36 37  1  0
 36  3  1  0
 19 10  1  0
 32 24  1  0
M  CHG  1  16  -1
M  END
>  <UniqueID>  (39) 
38

>  <SMILES>  (39) 
[H]/N=c1/ccc(/N=c2/c(C#N)c[n-]cc2C=Cc2ncc(Cl)cc2Cl)c[nH]1

>  <Energy>  (39) 
61.655153299174316

>  <Genealogy>  (39) 
N#Cc1c[n-]cc(C=Cc2ncc(Cl)cc2Cl)c1=Nc1ccc(=N)[nH]c1 (protonated)
[H]/N=c1/ccc(/N=c2/c(C#N)c[n-]cc2C=Cc2ncc(Cl)cc2Cl)c[nH]1 (cis-trans isomerization)
[H]/N=c1/ccc(/N=c2/c(C#N)c[n-]cc2C=Cc2ncc(Cl)cc2Cl)c[nH]1 (3D coordinates assigned)
[H]/N=c1/ccc(/N=c2/c(C#N)c[n-]cc2C=Cc2ncc(Cl)cc2Cl)c[nH]1 (optimized conformer: 61.655153299174316 kcal/mol)

>  <smiles>  (39) 
N#Cc1c[nH]cc(C=Cc2ncc(Cl)cc2Cl)c1=Nc1ccc(=N)[nH]c1

>  <score_type>  (39) 
oracle

>  <origin>  (39) 
adgpu

>  <m_score__min__energy>  (39) 
-8.5600000000000005

>  <m_primary>  (39) 
energy

$$$$
39:0
     RDKit          3D

 34 36  0  0  0  0  0  0  0  0999 V2000
   -5.7230   21.5550  -32.7480 O   0  0  0  0  0  0  0  0  0  0  0  0
   -4.8370   21.1060  -31.9720 C   0  0  0  0  0  0  0  0  0  0  0  0
   -4.4500   19.7200  -32.0480 N   0  0  0  0  0  0  0  0  0  0  0  0
   -5.0940   18.7540  -32.8980 C   0  0  0  0  0  0  0  0  0  0  0  0
   -6.2000   18.0390  -32.4190 C   0  0  0  0  0  0  0  0  0  0  0  0
   -6.8490   17.1170  -33.2410 C   0  0  0  0  0  0  0  0  0  0  0  0
   -6.3970   16.9300  -34.5480 C   0  0  0  0  0  0  0  0  0  0  0  0
   -5.3410   17.6500  -35.0120 N   0  0  0  0  0  0  0  0  0  0  0  0
   -4.6890   18.5510  -34.2290 C   0  0  0  0  0  0  0  0  0  0  0  0
   -4.2030   22.0280  -30.9980 C   0  0  0  0  0  0  0  0  0  0  0  0
   -3.4870   21.5450  -29.8890 C   0  0  0  0  0  0  0  0  0  0  0  0
   -2.8910   22.4320  -28.9890 C   0  0  0  0  0  0  0  0  0  0  0  0
   -2.9890   23.8200  -29.1800 C   0  0  0  0  0  0  0  0  0  0  0  0
   -2.3410   24.7410  -28.2160 C   0  0  0  0  0  0  0  0  0  0  0  0
   -2.8380   24.8790  -26.9090 C   0  0  0  0  0  0  0  0  0  0  0  0
   -2.2160   25.7620  -26.0230 C   0  0  0  0  0  0  0  0  0  0  0  0
   -1.1400   26.4880  -26.4260 N   0  0  0  0  0  0  0  0  0  0  0  0
   -0.6400   26.3820  -27.6840 C   0  0  0  0  0  0  0  0  0  0  0  0
   -1.2320   25.5120  -28.6030 C   0  0  0  0  0  0  0  0  0  0  0  0
   -3.7050   24.3080  -30.2910 C   0  0  0  0  0  0  0  0  0  0  0  0
   -3.8570   25.6750  -30.4970 O   0  0  0  0  0  0  0  0  0  0  0  0
   -4.2950   23.4160  -31.1940 C   0  0  0  0  0  0  0  0  0  0  0  0
   -3.6280   19.3880  -31.5000 H   0  0  0  0  0  0  0  0  0  0  0  0
   -6.5575   18.2051  -31.3921 H   0  0  0  0  0  0  0  0  0  0  0  0
   -7.7080   16.5435  -32.8627 H   0  0  0  0  0  0  0  0  0  0  0  0
   -6.8951   16.2000  -35.2030 H   0  0  0  0  0  0  0  0  0  0  0  0
   -3.8427   19.1223  -34.6381 H   0  0  0  0  0  0  0  0  0  0  0  0
   -3.3953   20.4606  -29.7285 H   0  0  0  0  0  0  0  0  0  0  0  0
   -2.3394   22.0393  -28.1221 H   0  0  0  0  0  0  0  0  0  0  0  0
   -3.7121   24.2949  -26.5852 H   0  0  0  0  0  0  0  0  0  0  0  0
   -2.5979   25.8699  -24.9971 H   0  0  0  0  0  0  0  0  0  0  0  0
    0.2329   26.9823  -27.9801 H   0  0  0  0  0  0  0  0  0  0  0  0
   -0.8319   25.4310  -29.6244 H   0  0  0  0  0  0  0  0  0  0  0  0
   -4.8373   23.8066  -32.0677 H   0  0  0  0  0  0  0  0  0  0  0  0
  1  2  2  0
  2  3  1  0
  3  4  1  0
  4  5  2  0
  5  6  1  0
  6  7  2  0
  7  8  1  0
  8  9  2  0
  2 10  1  0
 10 11  2  0
 11 12  1  0
 12 13  2  0
 13 14  1  0
 14 15  2  0
 15 16  1  0
 16 17  2  0
 17 18  1  0
 18 19  2  0
 13 20  1  0
 20 21  1  0
 20 22  2  0
  9  4  1  0
 22 10  1  0
 19 14  1  0
  3 23  1  0
  5 24  1  0
  6 25  1  0
  7 26  1  0
  9 27  1  0
 11 28  1  0
 12 29  1  0
 15 30  1  0
 16 31  1  0
 18 32  1  0
 19 33  1  0
 22 34  1  0
M  CHG  1  21  -1
M  END
>  <UniqueID>  (40) 
39

>  <SMILES>  (40) 
O=C(Nc1cccnc1)c1ccc(-c2ccncc2)c([O-])c1

>  <Energy>  (40) 
52.51753456094352

>  <Genealogy>  (40) 
O=C(Nc1cccnc1)c1ccc(-c2ccncc2)c([O-])c1 (protonated)
O=C(Nc1cccnc1)c1ccc(-c2ccncc2)c([O-])c1 (3D coordinates assigned)
O=C(Nc1cccnc1)c1ccc(-c2ccncc2)c([O-])c1 (optimized conformer: 52.51753456094352 kcal/mol)

>  <smiles>  (40) 
O=C(Nc1cccnc1)c1ccc(-c2ccncc2)c(O)c1

>  <score_type>  (40) 
oracle

>  <origin>  (40) 
adgpu

>  <m_score__min__energy>  (40) 
-9.6799999999999997

>  <m_primary>  (40) 
energy

$$$$
40:0
     RDKit          3D

 53 55  0  0  0  0  0  0  0  0999 V2000
   -1.1270   27.3510  -25.6700 C   0  0  0  0  0  0  0  0  0  0  0  0
   -1.3830   25.9030  -25.7200 N   0  0  0  0  0  0  0  0  0  0  0  0
   -2.6970   25.6330  -26.3530 C   0  0  0  0  0  0  0  0  0  0  0  0
   -2.7840   24.2150  -26.9250 C   0  0  0  0  0  0  0  0  0  0  0  0
   -1.7190   24.0200  -27.9160 N   0  0  0  0  0  0  0  0  0  0  0  0
   -1.9320   23.1750  -29.0640 C   0  0  0  0  0  0  0  0  0  0  0  0
   -1.3660   21.8890  -29.0950 C   0  0  0  0  0  0  0  0  0  0  0  0
   -1.5590   21.0540  -30.1960 C   0  0  0  0  0  0  0  0  0  0  0  0
   -2.3190   21.4920  -31.2820 C   0  0  0  0  0  0  0  0  0  0  0  0
   -2.8930   22.7640  -31.2640 C   0  0  0  0  0  0  0  0  0  0  0  0
   -2.7250   23.6080  -30.1500 C   0  0  0  0  0  0  0  0  0  0  0  0
   -3.3390   24.9060  -30.1120 N   0  0  0  0  0  0  0  0  0  0  0  0
   -4.6940   25.2110  -30.4690 C   0  0  0  0  0  0  0  0  0  0  0  0
   -5.0610   26.4170  -30.4680 O   0  0  0  0  0  0  0  0  0  0  0  0
   -5.6790   24.1490  -30.7760 C   0  0  0  0  0  0  0  0  0  0  0  0
   -6.0990   23.9380  -32.1000 C   0  0  0  0  0  0  0  0  0  0  0  0
   -7.0260   22.9340  -32.3960 C   0  0  0  0  0  0  0  0  0  0  0  0
   -7.5560   22.1390  -31.3720 C   0  0  0  0  0  0  0  0  0  0  0  0
   -8.7040   20.8580  -31.7560 S   0  0  0  0  0  0  0  0  0  0  0  0
   -9.0910   20.1290  -30.4980 O   0  0  0  0  0  0  0  0  0  0  0  0
   -9.9400   21.4800  -32.3460 O   0  0  0  0  0  0  0  0  0  0  0  0
   -7.9960   19.7490  -32.9050 N   0  0  0  0  0  0  0  0  0  0  0  0
   -6.5530   20.0040  -33.0070 C   0  0  0  0  0  0  0  0  0  0  0  0
   -8.2320   18.3710  -32.4580 C   0  0  0  0  0  0  0  0  0  0  0  0
   -7.1490   22.3530  -30.0490 C   0  0  0  0  0  0  0  0  0  0  0  0
   -6.2220   23.3540  -29.7520 C   0  0  0  0  0  0  0  0  0  0  0  0
   -0.4730   24.7840  -27.7890 C   0  0  0  0  0  0  0  0  0  0  0  0
   -0.2380   25.1710  -26.3230 C   0  0  0  0  0  0  0  0  0  0  0  0
   -1.0693   27.6771  -24.6210 H   0  0  0  0  0  0  0  0  0  0  0  0
   -0.1757   27.5728  -26.1758 H   0  0  0  0  0  0  0  0  0  0  0  0
   -1.9446   27.8856  -26.1758 H   0  0  0  0  0  0  0  0  0  0  0  0
   -3.4866   25.7592  -25.5976 H   0  0  0  0  0  0  0  0  0  0  0  0
   -2.8222   26.3409  -27.1856 H   0  0  0  0  0  0  0  0  0  0  0  0
   -2.6661   23.4839  -26.1117 H   0  0  0  0  0  0  0  0  0  0  0  0
   -3.7628   24.0738  -27.4066 H   0  0  0  0  0  0  0  0  0  0  0  0
   -0.7652   21.5375  -28.2433 H   0  0  0  0  0  0  0  0  0  0  0  0
   -1.1117   20.0491  -30.2083 H   0  0  0  0  0  0  0  0  0  0  0  0
   -2.4654   20.8347  -32.1518 H   0  0  0  0  0  0  0  0  0  0  0  0
   -3.4812   23.1097  -32.1269 H   0  0  0  0  0  0  0  0  0  0  0  0
   -5.6963   24.5662  -32.9082 H   0  0  0  0  0  0  0  0  0  0  0  0
   -7.3402   22.7679  -33.4370 H   0  0  0  0  0  0  0  0  0  0  0  0
   -6.1219   20.0802  -31.9979 H   0  0  0  0  0  0  0  0  0  0  0  0
   -6.0720   19.1769  -33.5498 H   0  0  0  0  0  0  0  0  0  0  0  0
   -6.3845   20.9458  -33.5498 H   0  0  0  0  0  0  0  0  0  0  0  0
   -8.2376   18.3381  -31.3585 H   0  0  0  0  0  0  0  0  0  0  0  0
   -9.2029   18.0227  -32.8402 H   0  0  0  0  0  0  0  0  0  0  0  0
   -7.4324   17.7195  -32.8402 H   0  0  0  0  0  0  0  0  0  0  0  0
   -7.5611   21.7304  -29.2412 H   0  0  0  0  0  0  0  0  0  0  0  0
   -5.9145   23.5216  -28.7092 H   0  0  0  0  0  0  0  0  0  0  0  0
    0.3681   24.1693  -28.1422 H   0  0  0  0  0  0  0  0  0  0  0  0
   -0.5488   25.6990  -28.3949 H   0  0  0  0  0  0  0  0  0  0  0  0
   -0.0652   24.2528  -25.7424 H   0  0  0  0  0  0  0  0  0  0  0  0
    0.6308   25.8452  -26.2980 H   0  0  0  0  0  0  0  0  0  0  0  0
  1  2  1  0
  2  3  1  0
  3  4  1  0
  4  5  1  0
  5  6  1  0
  6  7  2  0
  7  8  1  0
  8  9  2  0
  9 10  1  0
 10 11  2  0
 11 12  1  0
 12 13  1  0
 13 14  2  0
 13 15  1  0
 15 16  2  0
 16 17  1  0
 17 18  2  0
 18 19  1  0
 19 20  2  0
 19 21  2  0
 19 22  1  0
 22 23  1  0
 22 24  1  0
 18 25  1  0
 25 26  2  0
  5 27  1  0
 27 28  1  0
 28  2  1  0
 11  6  1  0
 26 15  1  0
  1 29  1  0
  1 30  1  0
  1 31  1  0
  3 32  1  0
  3 33  1  0
  4 34  1  0
  4 35  1  0
  7 36  1  0
  8 37  1  0
  9 38  1  0
 10 39  1  0
 16 40  1  0
 17 41  1  0
 23 42  1  0
 23 43  1  0
 23 44  1  0
 24 45  1  0
 24 46  1  0
 24 47  1  0
 25 48  1  0
 26 49  1  0
 27 50  1  0
 27 51  1  0
 28 52  1  0
 28 53  1  0
M  CHG  1  12  -1
M  END
>  <UniqueID>  (41) 
40

>  <SMILES>  (41) 
CN1CCN(c2ccccc2[N-]C(=O)c2ccc(S(=O)(=O)N(C)C)cc2)CC1

>  <Energy>  (41) 
69.49712373192247

>  <Genealogy>  (41) 
CN1CCN(c2ccccc2[N-]C(=O)c2ccc(S(=O)(=O)N(C)C)cc2)CC1 (protonated)
CN1CCN(c2ccccc2[N-]C(=O)c2ccc(S(=O)(=O)N(C)C)cc2)CC1 (3D coordinates assigned)
CN1CCN(c2ccccc2[N-]C(=O)c2ccc(S(=O)(=O)N(C)C)cc2)CC1 (nonaromatic ring conformer: 69.49712373192247 kcal/mol)

>  <smiles>  (41) 
CN1CCN(c2ccccc2NC(=O)c2ccc(S(=O)(=O)N(C)C)cc2)CC1

>  <score_type>  (41) 
oracle

>  <origin>  (41) 
adgpu

>  <m_score__min__energy>  (41) 
-10.73

>  <m_primary>  (41) 
energy

$$$$
41:0
     RDKit          3D

 44 46  0  0  0  0  0  0  0  0999 V2000
   -9.4820   21.0400  -31.9660 C   0  0  0  0  0  0  0  0  0  0  0  0
   -8.9670   21.9120  -31.0930 C   0  0  0  0  0  0  0  0  0  0  0  0
   -8.0530   23.0220  -31.5300 C   0  0  0  0  0  0  0  0  0  0  0  0
   -6.6380   22.5260  -31.6610 C   0  0  0  0  0  0  0  0  0  0  0  0
   -6.2930   21.6460  -32.6990 C   0  0  0  0  0  0  0  0  0  0  0  0
   -4.9750   21.2090  -32.8410 C   0  0  0  0  0  0  0  0  0  0  0  0
   -3.9840   21.6530  -31.9590 C   0  0  0  0  0  0  0  0  0  0  0  0
   -2.6730   21.2200  -32.1370 O   0  0  0  0  0  0  0  0  0  0  0  0
   -4.3130   22.5430  -30.9190 C   0  0  0  0  0  0  0  0  0  0  0  0
   -3.2800   23.0220  -29.9690 C   0  0  0  0  0  0  0  0  0  0  0  0
   -2.6510   22.1120  -29.1080 C   0  0  0  0  0  0  0  0  0  0  0  0
   -1.6900   22.5400  -28.1870 C   0  0  0  0  0  0  0  0  0  0  0  0
   -1.1300   21.5920  -27.3290 O   0  0  0  0  0  0  0  0  0  0  0  0
   -1.3300   23.9060  -28.1330 C   0  0  0  0  0  0  0  0  0  0  0  0
   -0.2880   24.3850  -27.1970 C   0  0  0  0  0  0  0  0  0  0  0  0
   -0.6420   25.1530  -26.0790 C   0  0  0  0  0  0  0  0  0  0  0  0
    0.3420   25.5940  -25.1910 C   0  0  0  0  0  0  0  0  0  0  0  0
    1.6830   25.2670  -25.4080 C   0  0  0  0  0  0  0  0  0  0  0  0
    2.0510   24.4890  -26.5230 C   0  0  0  0  0  0  0  0  0  0  0  0
    3.3820   24.1330  -26.7850 O   0  0  0  0  0  0  0  0  0  0  0  0
    4.1520   24.6420  -27.8690 C   0  0  0  0  0  0  0  0  0  0  0  0
    1.0590   24.0520  -27.4090 C   0  0  0  0  0  0  0  0  0  0  0  0
   -1.9630   24.8220  -28.9950 C   0  0  0  0  0  0  0  0  0  0  0  0
   -1.6190   26.1700  -28.9630 O   0  0  0  0  0  0  0  0  0  0  0  0
   -2.9310   24.3830  -29.9060 C   0  0  0  0  0  0  0  0  0  0  0  0
   -3.5280   25.3050  -30.7620 O   0  0  0  0  0  0  0  0  0  0  0  0
   -5.6440   22.9740  -30.7780 C   0  0  0  0  0  0  0  0  0  0  0  0
  -10.1481   20.2383  -31.6146 H   0  0  0  0  0  0  0  0  0  0  0  0
   -9.2396   21.1243  -33.0356 H   0  0  0  0  0  0  0  0  0  0  0  0
   -9.2190   21.8143  -30.0267 H   0  0  0  0  0  0  0  0  0  0  0  0
   -8.3922   23.4070  -32.5030 H   0  0  0  0  0  0  0  0  0  0  0  0
   -8.0792   23.8201  -30.7734 H   0  0  0  0  0  0  0  0  0  0  0  0
   -7.0641   21.2997  -33.4029 H   0  0  0  0  0  0  0  0  0  0  0  0
   -4.7141   20.5117  -33.6508 H   0  0  0  0  0  0  0  0  0  0  0  0
   -2.9173   21.0459  -29.1577 H   0  0  0  0  0  0  0  0  0  0  0  0
   -1.2190   20.5950  -27.4750 H   0  0  0  0  0  0  0  0  0  0  0  0
   -1.6968   25.4089  -25.9006 H   0  0  0  0  0  0  0  0  0  0  0  0
    0.0602   26.2008  -24.3179 H   0  0  0  0  0  0  0  0  0  0  0  0
    2.4536   25.6182  -24.7060 H   0  0  0  0  0  0  0  0  0  0  0  0
    5.0090   25.2085  -27.4758 H   0  0  0  0  0  0  0  0  0  0  0  0
    4.5162   23.8061  -28.4844 H   0  0  0  0  0  0  0  0  0  0  0  0
    3.5257   25.3046  -28.4844 H   0  0  0  0  0  0  0  0  0  0  0  0
    1.3381   23.4413  -28.2803 H   0  0  0  0  0  0  0  0  0  0  0  0
   -5.9085   23.6691  -29.9675 H   0  0  0  0  0  0  0  0  0  0  0  0
  1  2  2  0
  2  3  1  0
  3  4  1  0
  4  5  2  0
  5  6  1  0
  6  7  2  0
  7  8  1  0
  7  9  1  0
  9 10  1  0
 10 11  2  0
 11 12  1  0
 12 13  1  0
 12 14  2  0
 14 15  1  0
 15 16  2  0
 16 17  1  0
 17 18  2  0
 18 19  1  0
 19 20  1  0
 20 21  1  0
 19 22  2  0
 14 23  1  0
 23 24  1  0
 23 25  2  0
 25 26  1  0
  9 27  2  0
 27  4  1  0
 25 10  1  0
 22 15  1  0
  1 28  1  0
  1 29  1  0
  2 30  1  0
  3 31  1  0
  3 32  1  0
  5 33  1  0
  6 34  1  0
 11 35  1  0
 13 36  1  0
 16 37  1  0
 17 38  1  0
 18 39  1  0
 21 40  1  0
 21 41  1  0
 21 42  1  0
 22 43  1  0
 27 44  1  0
M  CHG  3   8  -1  24  -1  26  -1
M  END
>  <UniqueID>  (42) 
41

>  <SMILES>  (42) 
C=CCc1ccc([O-])c(-c2cc(O)c(-c3cccc(OC)c3)c([O-])c2[O-])c1

>  <Energy>  (42) 
58.888529090340576

>  <Genealogy>  (42) 
C=CCc1ccc([O-])c(-c2cc(O)c(-c3cccc(OC)c3)c([O-])c2[O-])c1 (protonated)
C=CCc1ccc([O-])c(-c2cc(O)c(-c3cccc(OC)c3)c([O-])c2[O-])c1 (3D coordinates assigned)
C=CCc1ccc([O-])c(-c2cc(O)c(-c3cccc(OC)c3)c([O-])c2[O-])c1 (optimized conformer: 58.888529090340576 kcal/mol)

>  <smiles>  (42) 
C=CCc1ccc(O)c(-c2cc(O)c(-c3cccc(OC)c3)c(O)c2O)c1

>  <score_type>  (42) 
oracle

>  <origin>  (42) 
adgpu

>  <m_score__min__energy>  (42) 
-13.5

>  <m_primary>  (42) 
energy

$$$$
42:0
     RDKit          3D

 44 46  0  0  0  0  0  0  0  0999 V2000
   -9.0180   18.6180  -31.9430 C   0  0  0  0  0  0  0  0  0  0  0  0
   -8.4960   20.0320  -31.9600 C   0  0  0  0  0  0  0  0  0  0  0  0
   -9.1010   20.9870  -31.1240 C   0  0  0  0  0  0  0  0  0  0  0  0
   -8.6320   22.3010  -31.0890 C   0  0  0  0  0  0  0  0  0  0  0  0
   -7.5520   22.6780  -31.8830 C   0  0  0  0  0  0  0  0  0  0  0  0
   -6.9450   21.7480  -32.7270 C   0  0  0  0  0  0  0  0  0  0  0  0
   -7.4230   20.4250  -32.8040 C   0  0  0  0  0  0  0  0  0  0  0  0
   -6.7240   19.4420  -33.7250 C   0  0  0  0  0  0  0  0  0  0  0  0
   -6.0720   18.3710  -32.9680 N   0  0  0  0  0  0  0  0  0  0  0  0
   -4.8400   17.7250  -33.3650 C   0  0  0  0  0  0  0  0  0  0  0  0
   -4.8330   16.3670  -33.7480 C   0  0  0  0  0  0  0  0  0  0  0  0
   -3.6610   15.7580  -34.2000 C   0  0  0  0  0  0  0  0  0  0  0  0
   -2.4780   16.4880  -34.2780 C   0  0  0  0  0  0  0  0  0  0  0  0
   -2.4570   17.8280  -33.8930 C   0  0  0  0  0  0  0  0  0  0  0  0
   -3.6250   18.4580  -33.4280 C   0  0  0  0  0  0  0  0  0  0  0  0
   -3.5360   19.8610  -32.9720 C   0  0  0  0  0  0  0  0  0  0  0  0
   -3.3750   20.7780  -33.8240 O   0  0  0  0  0  0  0  0  0  0  0  0
   -3.6970   20.1840  -31.5800 N   0  0  0  0  0  0  0  0  0  0  0  0
   -3.4490   21.4850  -31.0240 C   0  0  0  0  0  0  0  0  0  0  0  0
   -4.4550   22.4690  -30.9760 C   0  0  0  0  0  0  0  0  0  0  0  0
   -4.1790   23.7350  -30.4530 C   0  0  0  0  0  0  0  0  0  0  0  0
   -2.8960   24.0390  -29.9900 C   0  0  0  0  0  0  0  0  0  0  0  0
   -2.6240   25.2990  -29.4690 O   0  0  0  0  0  0  0  0  0  0  0  0
   -1.8850   23.0760  -30.0540 C   0  0  0  0  0  0  0  0  0  0  0  0
   -2.1580   21.8080  -30.5780 C   0  0  0  0  0  0  0  0  0  0  0  0
   -9.1409   18.2850  -30.9018 H   0  0  0  0  0  0  0  0  0  0  0  0
   -9.9896   18.5796  -32.4574 H   0  0  0  0  0  0  0  0  0  0  0  0
   -8.3044   17.9575  -32.4574 H   0  0  0  0  0  0  0  0  0  0  0  0
   -9.9524   20.6956  -30.4913 H   0  0  0  0  0  0  0  0  0  0  0  0
   -9.1161   23.0398  -30.4334 H   0  0  0  0  0  0  0  0  0  0  0  0
   -7.1768   23.7113  -31.8446 H   0  0  0  0  0  0  0  0  0  0  0  0
   -6.0831   22.0511  -33.3396 H   0  0  0  0  0  0  0  0  0  0  0  0
   -7.4664   18.9988  -34.4050 H   0  0  0  0  0  0  0  0  0  0  0  0
   -5.9525   19.9856  -34.2900 H   0  0  0  0  0  0  0  0  0  0  0  0
   -6.5330   18.0980  -32.0720 H   0  0  0  0  0  0  0  0  0  0  0  0
   -5.7622   15.7812  -33.6897 H   0  0  0  0  0  0  0  0  0  0  0  0
   -3.6722   14.6985  -34.4954 H   0  0  0  0  0  0  0  0  0  0  0  0
   -1.5588   16.0071  -34.6438 H   0  0  0  0  0  0  0  0  0  0  0  0
   -1.5179   18.3976  -33.9536 H   0  0  0  0  0  0  0  0  0  0  0  0
   -4.0630   19.4450  -30.9390 H   0  0  0  0  0  0  0  0  0  0  0  0
   -5.4630   22.2400  -31.3520 H   0  0  0  0  0  0  0  0  0  0  0  0
   -4.9736   24.4942  -30.4056 H   0  0  0  0  0  0  0  0  0  0  0  0
   -0.8742   23.3153  -29.6922 H   0  0  0  0  0  0  0  0  0  0  0  0
   -1.3551   21.0587  -30.6409 H   0  0  0  0  0  0  0  0  0  0  0  0
  1  2  1  0
  2  3  2  0
  3  4  1  0
  4  5  2  0
  5  6  1  0
  6  7  2  0
  7  8  1  0
  8  9  1  0
  9 10  1  0
 10 11  2  0
 11 12  1  0
 12 13  2  0
 13 14  1  0
 14 15  2  0
 15 16  1  0
 16 17  2  0
 16 18  1  0
 18 19  1  0
 19 20  2  0
 20 21  1  0
 21 22  2  0
 22 23  1  0
 22 24  1  0
 24 25  2  0
  7  2  1  0
 15 10  1  0
 25 19  1  0
  1 26  1  0
  1 27  1  0
  1 28  1  0
  3 29  1  0
  4 30  1  0
  5 31  1  0
  6 32  1  0
  8 33  1  0
  8 34  1  0
  9 35  1  0
 11 36  1  0
 12 37  1  0
 13 38  1  0
 14 39  1  0
 18 40  1  0
 20 41  1  0
 21 42  1  0
 24 43  1  0
 25 44  1  0
M  CHG  1  23  -1
M  END
>  <UniqueID>  (43) 
42

>  <SMILES>  (43) 
Cc1ccccc1CNc1ccccc1C(=O)Nc1ccc([O-])cc1

>  <Energy>  (43) 
58.340368852950405

>  <Genealogy>  (43) 
Cc1ccccc1CNc1ccccc1C(=O)Nc1ccc([O-])cc1 (protonated)
Cc1ccccc1CNc1ccccc1C(=O)Nc1ccc([O-])cc1 (3D coordinates assigned)
Cc1ccccc1CNc1ccccc1C(=O)Nc1ccc([O-])cc1 (optimized conformer: 58.340368852950405 kcal/mol)

>  <smiles>  (43) 
Cc1ccccc1CNc1ccccc1C(=O)Nc1ccc(O)cc1

>  <score_type>  (43) 
oracle

>  <origin>  (43) 
adgpu

>  <m_score__min__energy>  (43) 
-10.74

>  <m_primary>  (43) 
energy

$$$$
43:0
     RDKit          3D

 49 51  0  0  0  0  0  0  0  0999 V2000
   -1.5410   22.5640  -26.7130 C   0  0  0  0  0  0  0  0  0  0  0  0
   -1.8280   22.4010  -28.1520 N   0  0  0  0  0  0  0  0  0  0  0  0
   -2.7550   23.2170  -28.7590 C   0  0  0  0  0  0  0  0  0  0  0  0
   -3.4760   24.2000  -27.9900 N   0  0  0  0  0  0  0  0  0  0  0  0
   -3.0430   23.0520  -30.1290 C   0  0  0  0  0  0  0  0  0  0  0  0
   -3.9960   23.9450  -30.8340 C   0  0  0  0  0  0  0  0  0  0  0  0
   -4.0880   25.1550  -30.4930 O   0  0  0  0  0  0  0  0  0  0  0  0
   -4.7480   23.4470  -31.9490 N   0  0  0  0  0  0  0  0  0  0  0  0
   -6.0010   22.7500  -31.8880 C   0  0  0  0  0  0  0  0  0  0  0  0
   -7.2300   23.4310  -31.8040 C   0  0  0  0  0  0  0  0  0  0  0  0
   -8.4260   22.7130  -31.7250 C   0  0  0  0  0  0  0  0  0  0  0  0
   -8.4070   21.3160  -31.7150 C   0  0  0  0  0  0  0  0  0  0  0  0
   -7.1890   20.6300  -31.7710 C   0  0  0  0  0  0  0  0  0  0  0  0
   -7.1830   18.8680  -31.7750 S   0  0  0  0  0  0  0  0  0  0  0  0
   -8.4860   18.3790  -31.2050 O   0  0  0  0  0  0  0  0  0  0  0  0
   -6.0590   18.3540  -30.9150 O   0  0  0  0  0  0  0  0  0  0  0  0
   -6.9960   18.2800  -33.4100 N   0  0  0  0  0  0  0  0  0  0  0  0
   -5.8730   18.9740  -34.0700 C   0  0  0  0  0  0  0  0  0  0  0  0
   -5.3610   18.1580  -35.2680 C   0  0  0  0  0  0  0  0  0  0  0  0
   -4.8900   16.8580  -34.9300 O   0  0  0  0  0  0  0  0  0  0  0  0
   -5.4080   16.3620  -33.7040 C   0  0  0  0  0  0  0  0  0  0  0  0
   -6.8570   16.8060  -33.4330 C   0  0  0  0  0  0  0  0  0  0  0  0
   -5.9890   21.3510  -31.8510 C   0  0  0  0  0  0  0  0  0  0  0  0
   -2.3750   22.0410  -30.8360 C   0  0  0  0  0  0  0  0  0  0  0  0
   -2.6310   21.8650  -32.0610 O   0  0  0  0  0  0  0  0  0  0  0  0
   -1.4360   21.2650  -30.2150 N   0  0  0  0  0  0  0  0  0  0  0  0
   -0.7510   20.1960  -30.9670 C   0  0  0  0  0  0  0  0  0  0  0  0
   -1.1770   21.4330  -28.8790 C   0  0  0  0  0  0  0  0  0  0  0  0
   -0.3320   20.6810  -28.3130 O   0  0  0  0  0  0  0  0  0  0  0  0
   -2.3487   22.1053  -26.1238 H   0  0  0  0  0  0  0  0  0  0  0  0
   -0.5867   22.0731  -26.4715 H   0  0  0  0  0  0  0  0  0  0  0  0
   -1.4738   23.6351  -26.4715 H   0  0  0  0  0  0  0  0  0  0  0  0
   -3.5920   24.1060  -26.9580 H   0  0  0  0  0  0  0  0  0  0  0  0
   -3.8690   25.0650  -28.4200 H   0  0  0  0  0  0  0  0  0  0  0  0
   -7.2489   24.5308  -31.8005 H   0  0  0  0  0  0  0  0  0  0  0  0
   -9.3850   23.2490  -31.6705 H   0  0  0  0  0  0  0  0  0  0  0  0
   -9.3514   20.7545  -31.6630 H   0  0  0  0  0  0  0  0  0  0  0  0
   -6.2137   19.9587  -34.4226 H   0  0  0  0  0  0  0  0  0  0  0  0
   -5.0539   19.0916  -33.3452 H   0  0  0  0  0  0  0  0  0  0  0  0
   -6.1847   18.0498  -35.9890 H   0  0  0  0  0  0  0  0  0  0  0  0
   -4.5024   18.7077  -35.6811 H   0  0  0  0  0  0  0  0  0  0  0  0
   -5.3787   15.2627  -33.7315 H   0  0  0  0  0  0  0  0  0  0  0  0
   -4.7843   16.7723  -32.8962 H   0  0  0  0  0  0  0  0  0  0  0  0
   -7.5052   16.4015  -34.2243 H   0  0  0  0  0  0  0  0  0  0  0  0
   -7.1473   16.4242  -32.4431 H   0  0  0  0  0  0  0  0  0  0  0  0
   -5.0304   20.8126  -31.8850 H   0  0  0  0  0  0  0  0  0  0  0  0
   -0.2956   19.4854  -30.2615 H   0  0  0  0  0  0  0  0  0  0  0  0
   -1.4796   19.6683  -31.6000 H   0  0  0  0  0  0  0  0  0  0  0  0
    0.0328   20.6374  -31.6000 H   0  0  0  0  0  0  0  0  0  0  0  0
  1  2  1  0
  2  3  1  0
  3  4  1  0
  3  5  2  0
  5  6  1  0
  6  7  2  0
  6  8  1  0
  8  9  1  0
  9 10  2  0
 10 11  1  0
 11 12  2  0
 12 13  1  0
 13 14  1  0
 14 15  2  0
 14 16  2  0
 14 17  1  0
 17 18  1  0
 18 19  1  0
 19 20  1  0
 20 21  1  0
 21 22  1  0
 13 23  2  0
  5 24  1  0
 24 25  2  0
 24 26  1  0
 26 27  1  0
 26 28  1  0
 28 29  2  0
 28  2  1  0
 23  9  1  0
 22 17  1  0
  1 30  1  0
  1 31  1  0
  1 32  1  0
  4 33  1  0
  4 34  1  0
 10 35  1  0
 11 36  1  0
 12 37  1  0
 18 38  1  0
 18 39  1  0
 19 40  1  0
 19 41  1  0
 21 42  1  0
 21 43  1  0
 22 44  1  0
 22 45  1  0
 23 46  1  0
 27 47  1  0
 27 48  1  0
 27 49  1  0
M  CHG  1   8  -1
M  END
>  <UniqueID>  (44) 
43

>  <SMILES>  (44) 
Cn1c(N)c(C(=O)[N-]c2cccc(S(=O)(=O)N3CCOCC3)c2)c(=O)n(C)c1=O

>  <Energy>  (44) 
82.60440769620564

>  <Genealogy>  (44) 
Cn1c(N)c(C(=O)[N-]c2cccc(S(=O)(=O)N3CCOCC3)c2)c(=O)n(C)c1=O (protonated)
Cn1c(N)c(C(=O)[N-]c2cccc(S(=O)(=O)N3CCOCC3)c2)c(=O)n(C)c1=O (3D coordinates assigned)
Cn1c(N)c(C(=O)[N-]c2cccc(S(=O)(=O)N3CCOCC3)c2)c(=O)n(C)c1=O (nonaromatic ring conformer: 82.60440769620564 kcal/mol)

>  <smiles>  (44) 
Cn1c(N)c(C(=O)Nc2cccc(S(=O)(=O)N3CCOCC3)c2)c(=O)n(C)c1=O

>  <score_type>  (44) 
oracle

>  <origin>  (44) 
adgpu

>  <m_score__min__energy>  (44) 
-9.7899999999999991

>  <m_primary>  (44) 
energy

$$$$
44:0
     RDKit          3D

 28 29  0  0  0  0  0  0  0  0999 V2000
   -4.2220   25.3660  -30.8990 O   0  0  0  0  0  0  0  0  0  0  0  0
   -4.4950   24.4820  -30.0420 C   0  0  0  0  0  0  0  0  0  0  0  0
   -5.9420   24.1820  -29.7480 C   0  0  0  0  0  0  0  0  0  0  0  0
   -6.4600   23.1050  -30.6620 C   0  0  0  0  0  0  0  0  0  0  0  0
   -7.6990   22.4890  -30.4130 C   0  0  0  0  0  0  0  0  0  0  0  0
   -8.1580   21.4650  -31.2480 C   0  0  0  0  0  0  0  0  0  0  0  0
   -7.3830   21.0460  -32.3320 C   0  0  0  0  0  0  0  0  0  0  0  0
   -6.1480   21.6490  -32.5850 C   0  0  0  0  0  0  0  0  0  0  0  0
   -5.6850   22.6730  -31.7520 C   0  0  0  0  0  0  0  0  0  0  0  0
   -3.3870   23.7200  -29.4170 C   0  0  0  0  0  0  0  0  0  0  0  0
   -3.5610   22.3450  -29.1770 C   0  0  0  0  0  0  0  0  0  0  0  0
   -2.5510   21.5950  -28.5620 C   0  0  0  0  0  0  0  0  0  0  0  0
   -2.7280   20.2360  -28.3130 O   0  0  0  0  0  0  0  0  0  0  0  0
   -1.3550   22.2130  -28.1900 C   0  0  0  0  0  0  0  0  0  0  0  0
   -1.1620   23.5730  -28.4400 C   0  0  0  0  0  0  0  0  0  0  0  0
   -2.1640   24.3280  -29.0590 C   0  0  0  0  0  0  0  0  0  0  0  0
   -1.9180   25.6670  -29.3360 O   0  0  0  0  0  0  0  0  0  0  0  0
   -6.0360   23.8459  -28.7048 H   0  0  0  0  0  0  0  0  0  0  0  0
   -6.5319   25.0962  -29.9100 H   0  0  0  0  0  0  0  0  0  0  0  0
   -8.3100   22.8137  -29.5579 H   0  0  0  0  0  0  0  0  0  0  0  0
   -9.1300   20.9893  -31.0509 H   0  0  0  0  0  0  0  0  0  0  0  0
   -7.7453   20.2403  -32.9874 H   0  0  0  0  0  0  0  0  0  0  0  0
   -5.5396   21.3182  -33.4397 H   0  0  0  0  0  0  0  0  0  0  0  0
   -4.7101   23.1421  -31.9509 H   0  0  0  0  0  0  0  0  0  0  0  0
   -4.4992   21.8543  -29.4752 H   0  0  0  0  0  0  0  0  0  0  0  0
   -2.6100   19.8460  -27.3850 H   0  0  0  0  0  0  0  0  0  0  0  0
   -0.5638   21.6272  -27.6992 H   0  0  0  0  0  0  0  0  0  0  0  0
   -0.2165   24.0537  -28.1485 H   0  0  0  0  0  0  0  0  0  0  0  0
  1  2  2  0
  2  3  1  0
  3  4  1  0
  4  5  2  0
  5  6  1  0
  6  7  2  0
  7  8  1  0
  8  9  2  0
  2 10  1  0
 10 11  2  0
 11 12  1  0
 12 13  1  0
 12 14  2  0
 14 15  1  0
 15 16  2  0
 16 17  1  0
  9  4  1  0
 16 10  1  0
  3 18  1  0
  3 19  1  0
  5 20  1  0
  6 21  1  0
  7 22  1  0
  8 23  1  0
  9 24  1  0
 11 25  1  0
 13 26  1  0
 14 27  1  0
 15 28  1  0
M  CHG  1  17  -1
M  END
>  <UniqueID>  (45) 
44

>  <SMILES>  (45) 
O=C(Cc1ccccc1)c1cc(O)ccc1[O-]

>  <Energy>  (45) 
32.37197760173554

>  <Genealogy>  (45) 
O=C(Cc1ccccc1)c1cc(O)ccc1[O-] (protonated)
O=C(Cc1ccccc1)c1cc(O)ccc1[O-] (3D coordinates assigned)
O=C(Cc1ccccc1)c1cc(O)ccc1[O-] (optimized conformer: 32.37197760173554 kcal/mol)

>  <smiles>  (45) 
O=C(Cc1ccccc1)c1cc(O)ccc1O

>  <score_type>  (45) 
oracle

>  <origin>  (45) 
adgpu

>  <m_score__min__energy>  (45) 
-9.7599999999999998

>  <m_primary>  (45) 
energy

$$$$
45:0
     RDKit          3D

 45 47  0  0  0  0  0  0  0  0999 V2000
    0.2550   24.4370  -24.4280 N   0  0  0  0  0  0  0  0  0  0  0  0
   -0.7800   25.3440  -24.8230 C   0  0  0  0  0  0  0  0  0  0  0  0
   -1.1530   26.2830  -24.0050 N   0  0  0  0  0  0  0  0  0  0  0  0
   -1.4040   25.2140  -26.1650 C   0  0  0  0  0  0  0  0  0  0  0  0
   -0.7150   25.6460  -27.3100 C   0  0  0  0  0  0  0  0  0  0  0  0
   -1.2960   25.5270  -28.5770 C   0  0  0  0  0  0  0  0  0  0  0  0
   -2.5730   24.9590  -28.7210 C   0  0  0  0  0  0  0  0  0  0  0  0
   -3.2200   24.8480  -29.9970 N   0  0  0  0  0  0  0  0  0  0  0  0
   -4.5860   25.1610  -30.3020 C   0  0  0  0  0  0  0  0  0  0  0  0
   -4.9440   26.3530  -30.4990 O   0  0  0  0  0  0  0  0  0  0  0  0
   -5.5680   24.0740  -30.4260 C   0  0  0  0  0  0  0  0  0  0  0  0
   -5.9160   23.1830  -29.4250 C   0  0  0  0  0  0  0  0  0  0  0  0
   -6.8410   22.3200  -29.9780 C   0  0  0  0  0  0  0  0  0  0  0  0
   -7.0280   22.7340  -31.2810 C   0  0  0  0  0  0  0  0  0  0  0  0
   -7.8930   22.0510  -32.2950 C   0  0  0  0  0  0  0  0  0  0  0  0
   -7.6910   20.5720  -32.2220 C   0  0  0  0  0  0  0  0  0  0  0  0
   -8.6710   19.6320  -31.9280 C   0  0  0  0  0  0  0  0  0  0  0  0
   -8.1790   18.3230  -31.8550 C   0  0  0  0  0  0  0  0  0  0  0  0
   -6.8040   18.2280  -32.0770 C   0  0  0  0  0  0  0  0  0  0  0  0
   -5.9960   16.9840  -32.0740 C   0  0  0  0  0  0  0  0  0  0  0  0
   -5.7500   16.2850  -30.8480 N   0  0  0  0  0  0  0  0  0  0  0  0
   -5.5020   16.5160  -33.1810 N   0  0  0  0  0  0  0  0  0  0  0  0
   -6.2160   19.7850  -32.3650 S   0  0  0  0  0  0  0  0  0  0  0  0
   -6.2470   23.7960  -31.5560 N   0  0  0  0  0  0  0  0  0  0  0  0
   -3.2690   24.5470  -27.5800 C   0  0  0  0  0  0  0  0  0  0  0  0
   -2.6900   24.6640  -26.3120 C   0  0  0  0  0  0  0  0  0  0  0  0
    0.7300   24.5370  -23.5020 H   0  0  0  0  0  0  0  0  0  0  0  0
    0.5170   23.6240  -25.0280 H   0  0  0  0  0  0  0  0  0  0  0  0
   -0.7150   26.3750  -23.0610 H   0  0  0  0  0  0  0  0  0  0  0  0
   -1.8760   26.9890  -24.2710 H   0  0  0  0  0  0  0  0  0  0  0  0
    0.2901   26.0816  -27.2097 H   0  0  0  0  0  0  0  0  0  0  0  0
   -0.7505   25.8798  -29.4647 H   0  0  0  0  0  0  0  0  0  0  0  0
   -5.5320   23.1661  -28.3944 H   0  0  0  0  0  0  0  0  0  0  0  0
   -7.3314   21.4711  -29.4791 H   0  0  0  0  0  0  0  0  0  0  0  0
   -8.9483   22.2855  -32.0915 H   0  0  0  0  0  0  0  0  0  0  0  0
   -7.6208   22.4046  -33.3004 H   0  0  0  0  0  0  0  0  0  0  0  0
   -9.7283   19.8904  -31.7684 H   0  0  0  0  0  0  0  0  0  0  0  0
   -8.8159   17.4517  -31.6427 H   0  0  0  0  0  0  0  0  0  0  0  0
   -5.2510   15.3670  -30.8490 H   0  0  0  0  0  0  0  0  0  0  0  0
   -6.0100   16.6900  -29.9230 H   0  0  0  0  0  0  0  0  0  0  0  0
   -4.9340   15.6390  -33.1830 H   0  0  0  0  0  0  0  0  0  0  0  0
   -5.6550   16.9860  -34.1010 H   0  0  0  0  0  0  0  0  0  0  0  0
   -6.1780   24.2960  -32.4710 H   0  0  0  0  0  0  0  0  0  0  0  0
   -4.2808   24.1272  -27.6806 H   0  0  0  0  0  0  0  0  0  0  0  0
   -3.2438   24.3238  -25.4246 H   0  0  0  0  0  0  0  0  0  0  0  0
  1  2  1  0
  2  3  2  0
  2  4  1  0
  4  5  2  0
  5  6  1  0
  6  7  2  0
  7  8  1  0
  8  9  1  0
  9 10  2  0
  9 11  1  0
 11 12  2  0
 12 13  1  0
 13 14  2  0
 14 15  1  0
 15 16  1  0
 16 17  2  0
 17 18  1  0
 18 19  2  0
 19 20  1  0
 20 21  1  0
 20 22  2  0
 19 23  1  0
 14 24  1  0
  7 25  1  0
 25 26  2  0
 26  4  1  0
 24 11  1  0
 23 16  1  0
  1 27  1  0
  1 28  1  0
  3 29  1  0
  3 30  1  0
  5 31  1  0
  6 32  1  0
 12 33  1  0
 13 34  1  0
 15 35  1  0
 15 36  1  0
 17 37  1  0
 18 38  1  0
 21 39  1  0
 21 40  1  0
 22 41  1  0
 22 42  1  0
 24 43  1  0
 25 44  1  0
 26 45  1  0
M  CHG  3   3   1   8  -1  22   1
M  END
>  <UniqueID>  (46) 
45

>  <SMILES>  (46) 
NC(=[NH2+])c1ccc([N-]C(=O)c2ccc(Cc3ccc(C(N)=[NH2+])s3)[nH]2)cc1

>  <Energy>  (46) 
99.84295660638413

>  <Genealogy>  (46) 
NC(=[NH2+])c1ccc([N-]C(=O)c2ccc(Cc3ccc(C(N)=[NH2+])s3)[nH]2)cc1 (protonated)
NC(=[NH2+])c1ccc([N-]C(=O)c2ccc(Cc3ccc(C(N)=[NH2+])s3)[nH]2)cc1 (3D coordinates assigned)
NC(=[NH2+])c1ccc([N-]C(=O)c2ccc(Cc3ccc(C(N)=[NH2+])s3)[nH]2)cc1 (optimized conformer: 99.84295660638413 kcal/mol)

>  <smiles>  (46) 
N=C(N)c1ccc(NC(=O)c2ccc(Cc3ccc(C(=N)N)s3)[nH]2)cc1

>  <score_type>  (46) 
oracle

>  <origin>  (46) 
adgpu

>  <m_score__min__energy>  (46) 
-10.85

>  <m_primary>  (46) 
energy

$$$$
46:0
     RDKit          3D

 47 50  0  0  0  0  0  0  0  0999 V2000
   -2.3410   18.2290  -26.0430 C   0  0  0  0  0  0  0  0  0  0  0  0
   -2.0360   19.3530  -26.9880 C   0  0  0  0  0  0  0  0  0  0  0  0
   -2.6540   20.5940  -26.8220 C   0  0  0  0  0  0  0  0  0  0  0  0
   -2.4050   21.6520  -27.7130 C   0  0  0  0  0  0  0  0  0  0  0  0
   -3.1220   22.9530  -27.4690 C   0  0  0  0  0  0  0  0  0  0  0  0
   -1.4860   21.4690  -28.7860 C   0  0  0  0  0  0  0  0  0  0  0  0
   -1.0180   22.8210  -29.8630 S   0  0  0  0  0  0  0  0  0  0  0  0
   -0.6450   22.3740  -31.2480 O   0  0  0  0  0  0  0  0  0  0  0  0
    0.1620   23.5270  -29.2590 O   0  0  0  0  0  0  0  0  0  0  0  0
   -2.3320   23.9410  -30.0160 N   0  0  0  0  0  0  0  0  0  0  0  0
   -3.6640   23.5970  -30.4260 C   0  0  0  0  0  0  0  0  0  0  0  0
   -4.0630   22.2600  -30.6070 C   0  0  0  0  0  0  0  0  0  0  0  0
   -5.3680   21.9600  -31.0060 C   0  0  0  0  0  0  0  0  0  0  0  0
   -6.3030   22.9930  -31.2060 C   0  0  0  0  0  0  0  0  0  0  0  0
   -5.9040   24.3250  -31.0250 C   0  0  0  0  0  0  0  0  0  0  0  0
   -4.5910   24.6250  -30.6470 C   0  0  0  0  0  0  0  0  0  0  0  0
   -4.2130   25.9540  -30.4890 O   0  0  0  0  0  0  0  0  0  0  0  0
   -7.7320   22.6880  -31.5850 C   0  0  0  0  0  0  0  0  0  0  0  0
   -7.9860   21.2320  -31.8940 C   0  0  0  0  0  0  0  0  0  0  0  0
   -9.2500   20.8330  -32.3550 C   0  0  0  0  0  0  0  0  0  0  0  0
   -9.5100   19.4850  -32.6210 C   0  0  0  0  0  0  0  0  0  0  0  0
   -8.5170   18.5260  -32.4150 C   0  0  0  0  0  0  0  0  0  0  0  0
   -7.2600   18.9110  -31.9410 C   0  0  0  0  0  0  0  0  0  0  0  0
   -6.9890   20.2590  -31.6810 C   0  0  0  0  0  0  0  0  0  0  0  0
   -5.7270   20.6270  -31.2160 O   0  0  0  0  0  0  0  0  0  0  0  0
   -0.9330   20.1750  -28.9980 C   0  0  0  0  0  0  0  0  0  0  0  0
   -0.0200   19.8580  -30.1540 C   0  0  0  0  0  0  0  0  0  0  0  0
   -1.2030   19.1440  -28.0860 C   0  0  0  0  0  0  0  0  0  0  0  0
   -2.2444   18.5849  -25.0066 H   0  0  0  0  0  0  0  0  0  0  0  0
   -3.3679   17.8741  -26.2146 H   0  0  0  0  0  0  0  0  0  0  0  0
   -1.6343   17.4037  -26.2146 H   0  0  0  0  0  0  0  0  0  0  0  0
   -3.3464   20.7459  -25.9809 H   0  0  0  0  0  0  0  0  0  0  0  0
   -3.2155   23.1227  -26.3862 H   0  0  0  0  0  0  0  0  0  0  0  0
   -2.5506   23.7770  -27.9213 H   0  0  0  0  0  0  0  0  0  0  0  0
   -4.1238   22.9100  -27.9213 H   0  0  0  0  0  0  0  0  0  0  0  0
   -3.3435   21.4463  -30.4334 H   0  0  0  0  0  0  0  0  0  0  0  0
   -6.6276   25.1387  -31.1811 H   0  0  0  0  0  0  0  0  0  0  0  0
   -8.3826   22.9831  -30.7486 H   0  0  0  0  0  0  0  0  0  0  0  0
   -7.9453   23.2515  -32.5053 H   0  0  0  0  0  0  0  0  0  0  0  0
  -10.0394   21.5837  -32.5077 H   0  0  0  0  0  0  0  0  0  0  0  0
  -10.4991   19.1798  -32.9933 H   0  0  0  0  0  0  0  0  0  0  0  0
   -8.7240   17.4664  -32.6259 H   0  0  0  0  0  0  0  0  0  0  0  0
   -6.4816   18.1524  -31.7718 H   0  0  0  0  0  0  0  0  0  0  0  0
    0.9538   19.5199  -29.7701 H   0  0  0  0  0  0  0  0  0  0  0  0
   -0.4682   19.0629  -30.7679 H   0  0  0  0  0  0  0  0  0  0  0  0
    0.1209   20.7598  -30.7679 H   0  0  0  0  0  0  0  0  0  0  0  0
   -0.7497   18.1536  -28.2399 H   0  0  0  0  0  0  0  0  0  0  0  0
  1  2  1  0
  2  3  2  0
  3  4  1  0
  4  5  1  0
  4  6  2  0
  6  7  1  0
  7  8  2  0
  7  9  2  0
  7 10  1  0
 10 11  1  0
 11 12  2  0
 12 13  1  0
 13 14  2  0
 14 15  1  0
 15 16  2  0
 16 17  1  0
 14 18  1  0
 18 19  1  0
 19 20  2  0
 20 21  1  0
 21 22  2  0
 22 23  1  0
 23 24  2  0
 24 25  1  0
  6 26  1  0
 26 27  1  0
 26 28  2  0
 28  2  1  0
 16 11  1  0
 24 19  1  0
 25 13  1  0
  1 29  1  0
  1 30  1  0
  1 31  1  0
  3 32  1  0
  5 33  1  0
  5 34  1  0
  5 35  1  0
 12 36  1  0
 15 37  1  0
 18 38  1  0
 18 39  1  0
 20 40  1  0
 21 41  1  0
 22 42  1  0
 23 43  1  0
 27 44  1  0
 27 45  1  0
 27 46  1  0
 28 47  1  0
M  CHG  2  10  -1  17  -1
M  END
>  <UniqueID>  (47) 
46

>  <SMILES>  (47) 
Cc1cc(C)c(S(=O)(=O)[N-]c2cc3c(cc2[O-])Cc2ccccc2O3)c(C)c1

>  <Energy>  (47) 
61.82206181552618

>  <Genealogy>  (47) 
Cc1cc(C)c(S(=O)(=O)[N-]c2cc3c(cc2[O-])Cc2ccccc2O3)c(C)c1 (protonated)
Cc1cc(C)c(S(=O)(=O)[N-]c2cc3c(cc2[O-])Cc2ccccc2O3)c(C)c1 (3D coordinates assigned)
Cc1cc(C)c(S(=O)(=O)[N-]c2cc3c(cc2[O-])Cc2ccccc2O3)c(C)c1 (nonaromatic ring conformer: 61.82206181552618 kcal/mol)

>  <smiles>  (47) 
Cc1cc(C)c(S(=O)(=O)Nc2cc3c(cc2O)Cc2ccccc2O3)c(C)c1

>  <score_type>  (47) 
oracle

>  <origin>  (47) 
adgpu

>  <m_score__min__energy>  (47) 
-13.640000000000001

>  <m_primary>  (47) 
energy

$$$$
47:0
     RDKit          3D

 57 60  0  0  0  0  0  0  0  0999 V2000
   -3.9700   24.7820  -30.8660 O   0  0  0  0  0  0  0  0  0  0  0  0
   -3.9410   23.6110  -30.3980 C   0  0  0  0  0  0  0  0  0  0  0  0
   -4.8260   22.6120  -30.9150 N   0  0  0  0  0  0  0  0  0  0  0  0
   -4.4180   21.5740  -31.8130 C   0  0  0  0  0  0  0  0  0  0  0  0
   -3.1060   21.5890  -32.2990 C   0  0  0  0  0  0  0  0  0  0  0  0
   -2.6500   20.5800  -33.1570 C   0  0  0  0  0  0  0  0  0  0  0  0
   -0.9980   20.6190  -33.7770 S   0  0  0  0  0  0  0  0  0  0  0  0
   -0.8720   19.6450  -34.9160 O   0  0  0  0  0  0  0  0  0  0  0  0
   -0.7000   21.9950  -34.3090 O   0  0  0  0  0  0  0  0  0  0  0  0
    0.1620   20.2090  -32.5360 N   0  0  0  0  0  0  0  0  0  0  0  0
    0.4310   18.7490  -32.4990 C   0  0  0  0  0  0  0  0  0  0  0  0
   -0.2810   18.0380  -31.3400 C   0  0  0  0  0  0  0  0  0  0  0  0
    0.1350   18.6310  -29.9830 C   0  0  0  0  0  0  0  0  0  0  0  0
    0.4860   20.1270  -30.0700 C   0  0  0  0  0  0  0  0  0  0  0  0
   -0.2430   20.7960  -31.2390 C   0  0  0  0  0  0  0  0  0  0  0  0
   -3.5190   19.5480  -33.5290 C   0  0  0  0  0  0  0  0  0  0  0  0
   -4.8390   19.5420  -33.0770 C   0  0  0  0  0  0  0  0  0  0  0  0
   -5.3080   20.5570  -32.2310 C   0  0  0  0  0  0  0  0  0  0  0  0
   -6.7050   20.5940  -31.8880 N   0  0  0  0  0  0  0  0  0  0  0  0
   -7.4310   19.3490  -31.6060 C   0  0  0  0  0  0  0  0  0  0  0  0
   -8.8080   19.3240  -32.3160 C   0  0  0  0  0  0  0  0  0  0  0  0
   -9.2030   20.5700  -32.8680 O   0  0  0  0  0  0  0  0  0  0  0  0
   -8.9340   21.6190  -31.9630 C   0  0  0  0  0  0  0  0  0  0  0  0
   -7.4280   21.8700  -31.9240 C   0  0  0  0  0  0  0  0  0  0  0  0
   -2.9560   23.2640  -29.3550 C   0  0  0  0  0  0  0  0  0  0  0  0
   -2.7840   21.9080  -29.0240 C   0  0  0  0  0  0  0  0  0  0  0  0
   -1.9260   21.5330  -27.9880 C   0  0  0  0  0  0  0  0  0  0  0  0
   -1.2310   22.5060  -27.2700 C   0  0  0  0  0  0  0  0  0  0  0  0
   -1.3770   23.8550  -27.5980 C   0  0  0  0  0  0  0  0  0  0  0  0
   -2.2210   24.2460  -28.6470 C   0  0  0  0  0  0  0  0  0  0  0  0
   -2.2740   25.6010  -28.9730 O   0  0  0  0  0  0  0  0  0  0  0  0
   -2.4256   22.4015  -32.0043 H   0  0  0  0  0  0  0  0  0  0  0  0
    0.0890   18.3053  -33.4457 H   0  0  0  0  0  0  0  0  0  0  0  0
    1.5130   18.6171  -32.3514 H   0  0  0  0  0  0  0  0  0  0  0  0
   -1.3682   18.1519  -31.4630 H   0  0  0  0  0  0  0  0  0  0  0  0
    0.0025   16.9753  -31.3570 H   0  0  0  0  0  0  0  0  0  0  0  0
   -0.6970   18.5055  -29.2744 H   0  0  0  0  0  0  0  0  0  0  0  0
    1.0374   18.0972  -29.6502 H   0  0  0  0  0  0  0  0  0  0  0  0
    0.1907   20.6206  -29.1324 H   0  0  0  0  0  0  0  0  0  0  0  0
    1.5697   20.2233  -30.2323 H   0  0  0  0  0  0  0  0  0  0  0  0
   -1.3270   20.6618  -31.1085 H   0  0  0  0  0  0  0  0  0  0  0  0
    0.0206   21.8639  -31.2453 H   0  0  0  0  0  0  0  0  0  0  0  0
   -3.1597   18.7379  -34.1807 H   0  0  0  0  0  0  0  0  0  0  0  0
   -5.5177   18.7338  -33.3871 H   0  0  0  0  0  0  0  0  0  0  0  0
   -6.8310   18.4972  -31.9587 H   0  0  0  0  0  0  0  0  0  0  0  0
   -7.5999   19.2850  -30.5209 H   0  0  0  0  0  0  0  0  0  0  0  0
   -8.7625   18.5855  -33.1300 H   0  0  0  0  0  0  0  0  0  0  0  0
   -9.5536   19.0689  -31.5485 H   0  0  0  0  0  0  0  0  0  0  0  0
   -9.4514   22.5320  -32.2928 H   0  0  0  0  0  0  0  0  0  0  0  0
   -9.2904   21.3438  -30.9594 H   0  0  0  0  0  0  0  0  0  0  0  0
   -7.1295   22.4321  -32.8212 H   0  0  0  0  0  0  0  0  0  0  0  0
   -7.1827   22.4484  -31.0211 H   0  0  0  0  0  0  0  0  0  0  0  0
   -3.3301   21.1361  -29.5861 H   0  0  0  0  0  0  0  0  0  0  0  0
   -1.7982   20.4694  -27.7380 H   0  0  0  0  0  0  0  0  0  0  0  0
   -0.5671   22.2101  -26.4444 H   0  0  0  0  0  0  0  0  0  0  0  0
   -0.8253   24.6176  -27.0287 H   0  0  0  0  0  0  0  0  0  0  0  0
   -3.1000   26.0520  -29.3410 H   0  0  0  0  0  0  0  0  0  0  0  0
  1  2  2  0
  2  3  1  0
  3  4  1  0
  4  5  2  0
  5  6  1  0
  6  7  1  0
  7  8  2  0
  7  9  2  0
  7 10  1  0
 10 11  1  0
 11 12  1  0
 12 13  1  0
 13 14  1  0
 14 15  1  0
  6 16  2  0
 16 17  1  0
 17 18  2  0
 18 19  1  0
 19 20  1  0
 20 21  1  0
 21 22  1  0
 22 23  1  0
 23 24  1  0
  2 25  1  0
 25 26  2  0
 26 27  1  0
 27 28  2  0
 28 29  1  0
 29 30  2  0
 30 31  1  0
 18  4  1  0
 24 19  1  0
 30 25  1  0
 15 10  1  0
  5 32  1  0
 11 33  1  0
 11 34  1  0
 12 35  1  0
 12 36  1  0
 13 37  1  0
 13 38  1  0
 14 39  1  0
 14 40  1  0
 15 41  1  0
 15 42  1  0
 16 43  1  0
 17 44  1  0
 20 45  1  0
 20 46  1  0
 21 47  1  0
 21 48  1  0
 23 49  1  0
 23 50  1  0
 24 51  1  0
 24 52  1  0
 26 53  1  0
 27 54  1  0
 28 55  1  0
 29 56  1  0
 31 57  1  0
M  CHG  1   3  -1
M  END
>  <UniqueID>  (48) 
47

>  <SMILES>  (48) 
O=C([N-]c1cc(S(=O)(=O)N2CCCCC2)ccc1N1CCOCC1)c1ccccc1O

>  <Energy>  (48) 
85.6886265883519

>  <Genealogy>  (48) 
O=C([N-]c1cc(S(=O)(=O)N2CCCCC2)ccc1N1CCOCC1)c1ccccc1O (protonated)
O=C([N-]c1cc(S(=O)(=O)N2CCCCC2)ccc1N1CCOCC1)c1ccccc1O (3D coordinates assigned)
O=C([N-]c1cc(S(=O)(=O)N2CCCCC2)ccc1N1CCOCC1)c1ccccc1O (nonaromatic ring conformer: 85.6886265883519 kcal/mol)

>  <smiles>  (48) 
O=C(Nc1cc(S(=O)(=O)N2CCCCC2)ccc1N1CCOCC1)c1ccccc1O

>  <score_type>  (48) 
oracle

>  <origin>  (48) 
adgpu

>  <m_score__min__energy>  (48) 
-10.81

>  <m_primary>  (48) 
energy

$$$$
