0:0
     RDKit          3D

 52 55  0  0  0  0  0  0  0  0999 V2000
    0.0152   18.7189  -35.1888 H   0  0  0  0  0  0  0  0  0  0  0  0
   -0.5730   19.4770  -34.6510 C   0  0  0  0  0  0  0  0  0  0  0  0
   -1.7880   19.1510  -34.1400 N   0  0  0  0  0  0  0  0  0  0  0  0
   -2.5620   20.0550  -33.4800 C   0  0  0  0  0  0  0  0  0  0  0  0
   -3.8210   19.6960  -32.9770 O   0  0  0  0  0  0  0  0  0  0  0  0
   -4.8620   20.5960  -32.7010 C   0  0  0  0  0  0  0  0  0  0  0  0
   -6.1800   20.1250  -32.7280 C   0  0  0  0  0  0  0  0  0  0  0  0
   -6.3787   19.0695  -32.9655 H   0  0  0  0  0  0  0  0  0  0  0  0
   -7.2450   20.9880  -32.4550 C   0  0  0  0  0  0  0  0  0  0  0  0
   -8.2772   20.6081  -32.4724 H   0  0  0  0  0  0  0  0  0  0  0  0
   -7.0020   22.3320  -32.1600 C   0  0  0  0  0  0  0  0  0  0  0  0
   -7.8446   23.0065  -31.9478 H   0  0  0  0  0  0  0  0  0  0  0  0
   -5.6910   22.8250  -32.1330 C   0  0  0  0  0  0  0  0  0  0  0  0
   -5.4800   24.2090  -31.8140 N   0  0  0  0  0  0  0  0  0  0  0  0
   -4.9670   24.7290  -30.5790 C   0  0  0  0  0  0  0  0  0  0  0  0
   -3.8350   25.2800  -30.5270 O   0  0  0  0  0  0  0  0  0  0  0  0
   -5.7870   24.6180  -29.3370 C   0  0  0  0  0  0  0  0  0  0  0  0
   -5.1332   24.7065  -28.4568 H   0  0  0  0  0  0  0  0  0  0  0  0
   -6.5366   25.4229  -29.3194 H   0  0  0  0  0  0  0  0  0  0  0  0
   -6.2956   23.6428  -29.3194 H   0  0  0  0  0  0  0  0  0  0  0  0
   -4.6210   21.9430  -32.3630 C   0  0  0  0  0  0  0  0  0  0  0  0
   -3.5865   22.3072  -32.2785 H   0  0  0  0  0  0  0  0  0  0  0  0
   -2.0860   21.3530  -33.2820 C   0  0  0  0  0  0  0  0  0  0  0  0
   -2.6902   22.0856  -32.7267 H   0  0  0  0  0  0  0  0  0  0  0  0
   -0.8370   21.7150  -33.7940 C   0  0  0  0  0  0  0  0  0  0  0  0
   -0.4589   22.7374  -33.6464 H   0  0  0  0  0  0  0  0  0  0  0  0
   -0.0630   20.7760  -34.4970 C   0  0  0  0  0  0  0  0  0  0  0  0
    1.2360   21.1340  -35.1140 C   0  0  0  0  0  0  0  0  0  0  0  0
    1.3670   22.3490  -35.7110 N   0  0  0  0  0  0  0  0  0  0  0  0
    2.5250   22.7350  -36.3120 C   0  0  0  0  0  0  0  0  0  0  0  0
    2.6410   23.9160  -36.8470 N   0  0  0  0  0  0  0  0  0  0  0  0
    1.6050   24.9090  -36.9450 C   0  0  0  0  0  0  0  0  0  0  0  0
    0.6430   25.0870  -35.9320 C   0  0  0  0  0  0  0  0  0  0  0  0
    0.6577   24.4383  -35.0437 H   0  0  0  0  0  0  0  0  0  0  0  0
   -0.3300   26.0830  -36.0490 C   0  0  0  0  0  0  0  0  0  0  0  0
   -1.0606   26.2333  -35.2406 H   0  0  0  0  0  0  0  0  0  0  0  0
   -0.3780   26.8910  -37.1930 C   0  0  0  0  0  0  0  0  0  0  0  0
   -1.5650   28.1850  -37.3260 S   0  0  0  0  0  0  0  0  0  0  0  0
   -2.0470   28.5870  -35.9610 O   0  0  0  0  0  0  0  0  0  0  0  0
   -2.7370   27.7050  -38.1350 O   0  0  0  0  0  0  0  0  0  0  0  0
   -0.8420   29.5470  -38.1080 N   0  0  0  0  0  0  0  0  0  0  0  0
   -0.7960   29.3280  -39.1290 H   0  0  0  0  0  0  0  0  0  0  0  0
   -1.5000   30.3490  -37.9980 H   0  0  0  0  0  0  0  0  0  0  0  0
    0.5470   26.6830  -38.2250 C   0  0  0  0  0  0  0  0  0  0  0  0
    0.5031   27.3019  -39.1333 H   0  0  0  0  0  0  0  0  0  0  0  0
    1.5260   25.6910  -38.1040 C   0  0  0  0  0  0  0  0  0  0  0  0
    2.2387   25.5241  -38.9251 H   0  0  0  0  0  0  0  0  0  0  0  0
    3.5900   21.8930  -36.3110 N   0  0  0  0  0  0  0  0  0  0  0  0
    3.5130   20.6680  -35.7290 C   0  0  0  0  0  0  0  0  0  0  0  0
    4.3856   19.9983  -35.7426 H   0  0  0  0  0  0  0  0  0  0  0  0
    2.3300   20.2570  -35.1140 C   0  0  0  0  0  0  0  0  0  0  0  0
    2.2572   19.2671  -34.6398 H   0  0  0  0  0  0  0  0  0  0  0  0
  1  2  1  0
  2  3  2  0
  3  4  1  0
  4  5  1  0
  5  6  1  0
  6  7  2  0
  7  8  1  0
  7  9  1  0
  9 10  1  0
  9 11  2  0
 11 12  1  0
 11 13  1  0
 13 14  1  0
 14 15  1  0
 15 16  2  0
 15 17  1  0
 17 18  1  0
 17 19  1  0
 17 20  1  0
 13 21  2  0
 21 22  1  0
  4 23  2  0
 23 24  1  0
 23 25  1  0
 25 26  1  0
 25 27  2  0
 27 28  1  0
 28 29  2  0
 29 30  1  0
 30 31  2  0
 31 32  1  0
 32 33  2  0
 33 34  1  0
 33 35  1  0
 35 36  1  0
 35 37  2  0
 37 38  1  0
 38 39  2  0
 38 40  2  0
 38 41  1  0
 41 42  1  0
 41 43  1  0
 37 44  1  0
 44 45  1  0
 44 46  2  0
 46 47  1  0
 30 48  1  0
 48 49  1  0
 49 50  1  0
 49 51  2  0
 51 52  1  0
 27  2  1  0
 51 28  1  0
 21  6  1  0
 46 32  1  0
M  CHG  2  14  -1  48  -1
M  END
>  <UniqueID>  (1) 
1

>  <SMILES>  (1) 
CC(=O)[N-]c1cccc(Oc2ccc(-c3cc[n-]/c(=N/c4ccc(S(N)(=O)=O)cc4)n3)cn2)c1

>  <Energy>  (1) 
71.67271581887708

>  <Genealogy>  (1) 
CC(=O)[N-]c1cccc(Oc2ccc(-c3cc[n-]c(=Nc4ccc(S(N)(=O)=O)cc4)n3)cn2)c1 (protonated)
CC(=O)[N-]c1cccc(Oc2ccc(-c3cc[n-]/c(=N/c4ccc(S(N)(=O)=O)cc4)n3)cn2)c1 (cis-trans isomerization)
CC(=O)[N-]c1cccc(Oc2ccc(-c3cc[n-]/c(=N/c4ccc(S(N)(=O)=O)cc4)n3)cn2)c1 (3D coordinates assigned)
CC(=O)[N-]c1cccc(Oc2ccc(-c3cc[n-]/c(=N/c4ccc(S(N)(=O)=O)cc4)n3)cn2)c1 (optimized conformer: 71.67271581887708 kcal/mol)

>  <smiles>  (1) 
CC(=O)Nc1cccc(Oc2ccc(-c3cc[nH]c(=Nc4ccc(S(N)(=O)=O)cc4)n3)cn2)c1

>  <score_type>  (1) 
oracle

>  <origin>  (1) 
adgpu

>  <m_score__min__energy>  (1) 
-12.48

>  <m_primary>  (1) 
energy

$$$$
1:0
     RDKit          3D

 32 34  0  0  0  0  0  0  0  0999 V2000
   -7.8840   17.1380  -32.3810 O   0  0  0  0  0  0  0  0  0  0  0  0
   -6.9670   17.6830  -33.0530 C   0  0  0  0  0  0  0  0  0  0  0  0
   -6.2140   16.9130  -34.0060 N   0  0  0  0  0  0  0  0  0  0  0  0
   -6.1690   15.4760  -34.0170 C   0  0  0  0  0  0  0  0  0  0  0  0
   -5.0920   14.8160  -33.4030 C   0  0  0  0  0  0  0  0  0  0  0  0
   -5.0370   13.4180  -33.3830 C   0  0  0  0  0  0  0  0  0  0  0  0
   -6.0650   12.6690  -33.9610 C   0  0  0  0  0  0  0  0  0  0  0  0
   -7.1520   13.3150  -34.5550 C   0  0  0  0  0  0  0  0  0  0  0  0
   -7.2100   14.7120  -34.5780 C   0  0  0  0  0  0  0  0  0  0  0  0
   -6.7140   19.1220  -32.8760 C   0  0  0  0  0  0  0  0  0  0  0  0
   -5.7990   19.7030  -32.0200 C   0  0  0  0  0  0  0  0  0  0  0  0
   -5.9710   21.0600  -32.2280 C   0  0  0  0  0  0  0  0  0  0  0  0
   -5.2480   22.1740  -31.5730 C   0  0  0  0  0  0  0  0  0  0  0  0
   -3.8460   22.1350  -31.4850 C   0  0  0  0  0  0  0  0  0  0  0  0
   -3.1450   23.1760  -30.8710 C   0  0  0  0  0  0  0  0  0  0  0  0
   -3.8330   24.2680  -30.3360 C   0  0  0  0  0  0  0  0  0  0  0  0
   -3.1240   25.2960  -29.7260 O   0  0  0  0  0  0  0  0  0  0  0  0
   -5.2310   24.3180  -30.4160 C   0  0  0  0  0  0  0  0  0  0  0  0
   -6.1130   25.6830  -29.7480 Cl  0  0  0  0  0  0  0  0  0  0  0  0
   -5.9350   23.2770  -31.0320 C   0  0  0  0  0  0  0  0  0  0  0  0
   -6.9130   21.2250  -33.1310 O   0  0  0  0  0  0  0  0  0  0  0  0
   -7.3830   20.0830  -33.5400 N   0  0  0  0  0  0  0  0  0  0  0  0
   -5.7530   17.4200  -34.7940 H   0  0  0  0  0  0  0  0  0  0  0  0
   -4.2869   15.4016  -32.9351 H   0  0  0  0  0  0  0  0  0  0  0  0
   -4.1837   12.9083  -32.9118 H   0  0  0  0  0  0  0  0  0  0  0  0
   -6.0185   11.5701  -33.9484 H   0  0  0  0  0  0  0  0  0  0  0  0
   -7.9632   12.7240  -35.0052 H   0  0  0  0  0  0  0  0  0  0  0  0
   -8.0732   15.2165  -35.0367 H   0  0  0  0  0  0  0  0  0  0  0  0
   -5.0983   19.2042  -31.3342 H   0  0  0  0  0  0  0  0  0  0  0  0
   -3.2964   21.2785  -31.9026 H   0  0  0  0  0  0  0  0  0  0  0  0
   -2.0475   23.1357  -30.8086 H   0  0  0  0  0  0  0  0  0  0  0  0
   -7.0324   23.3211  -31.0938 H   0  0  0  0  0  0  0  0  0  0  0  0
  1  2  2  0
  2  3  1  0
  3  4  1  0
  4  5  2  0
  5  6  1  0
  6  7  2  0
  7  8  1  0
  8  9  2  0
  2 10  1  0
 10 11  1  0
 11 12  2  0
 12 13  1  0
 13 14  2  0
 14 15  1  0
 15 16  2  0
 16 17  1  0
 16 18  1  0
 18 19  1  0
 18 20  2  0
 12 21  1  0
 21 22  1  0
  9  4  1  0
 22 10  2  0
 20 13  1  0
  3 23  1  0
  5 24  1  0
  6 25  1  0
  7 26  1  0
  8 27  1  0
  9 28  1  0
 11 29  1  0
 14 30  1  0
 15 31  1  0
 20 32  1  0
M  CHG  1  17  -1
M  END
>  <UniqueID>  (2) 
2

>  <SMILES>  (2) 
O=C(Nc1ccccc1)c1cc(-c2ccc([O-])c(Cl)c2)on1

>  <Energy>  (2) 
69.63164877849626

>  <Genealogy>  (2) 
O=C(Nc1ccccc1)c1cc(-c2ccc([O-])c(Cl)c2)on1 (protonated)
O=C(Nc1ccccc1)c1cc(-c2ccc([O-])c(Cl)c2)on1 (3D coordinates assigned)
O=C(Nc1ccccc1)c1cc(-c2ccc([O-])c(Cl)c2)on1 (optimized conformer: 69.63164877849626 kcal/mol)

>  <smiles>  (2) 
O=C(Nc1ccccc1)c1cc(-c2ccc(O)c(Cl)c2)on1

>  <score_type>  (2) 
oracle

>  <origin>  (2) 
adgpu

>  <m_score__min__energy>  (2) 
-10.140000000000001

>  <m_primary>  (2) 
energy

$$$$
2:0
     RDKit          3D

 43 45  0  0  1  0  0  0  0  0999 V2000
   -9.4840   19.8690  -32.9960 C   0  0  0  0  0  0  0  0  0  0  0  0
   -8.1440   20.2650  -32.4730 C   0  0  0  0  0  0  0  0  0  0  0  0
   -6.9810   19.8120  -33.0670 C   0  0  0  0  0  0  0  0  0  0  0  0
   -5.7530   20.2170  -32.5320 C   0  0  0  0  0  0  0  0  0  0  0  0
   -5.7100   21.0540  -31.4280 C   0  0  0  0  0  0  0  0  0  0  0  0
   -4.4440   21.4520  -30.9000 N   0  0  0  0  0  0  0  0  0  0  0  0
   -4.2300   22.7160  -30.6310 C   0  0  0  0  0  0  0  0  0  0  0  0
   -5.2460   23.5800  -30.8750 N   0  0  0  0  0  0  0  0  0  0  0  0
   -5.1010   24.8960  -30.6260 C   0  0  0  0  0  0  0  0  0  0  0  0
   -3.9120   25.3310  -30.1250 N   0  0  0  0  0  0  0  0  0  0  0  0
   -2.8820   24.5280  -29.8640 C   0  0  0  0  0  0  0  0  0  0  0  0
   -1.6560   24.9940  -29.3300 N   0  0  0  0  0  0  0  0  0  0  0  0
   -1.4600   25.4280  -27.9960 C   0  0  0  0  0  0  0  0  0  0  0  0
   -2.0720   24.7560  -26.9480 C   0  0  0  0  0  0  0  0  0  0  0  0
   -1.9330   25.1470  -25.6340 C   0  0  0  0  0  0  0  0  0  0  0  0
   -1.1670   26.2400  -25.3060 C   0  0  0  0  0  0  0  0  0  0  0  0
   -0.9470   26.7940  -23.6540 Cl  0  0  0  0  0  0  0  0  0  0  0  0
   -0.5430   26.9310  -26.3340 C   0  0  0  0  0  0  0  0  0  0  0  0
   -0.6940   26.5250  -27.6510 C   0  0  0  0  0  0  0  0  0  0  0  0
   -3.0290   23.1650  -30.1220 C   0  0  0  0  0  0  0  0  0  0  0  0
   -1.9700   22.1740  -29.8780 C   0  0  0  0  0  0  0  0  0  0  0  0
   -6.8900   21.4900  -30.8540 C   0  0  0  0  0  0  0  0  0  0  0  0
   -8.1240   21.1020  -31.3690 C   0  0  0  0  0  0  0  0  0  0  0  0
   -9.3580   21.6010  -30.7140 C   0  0  0  0  0  0  0  0  0  0  0  0
  -10.1620   19.6686  -32.1532 H   0  0  0  0  0  0  0  0  0  0  0  0
   -9.8935   20.6845  -33.6102 H   0  0  0  0  0  0  0  0  0  0  0  0
   -9.3845   18.9619  -33.6102 H   0  0  0  0  0  0  0  0  0  0  0  0
   -7.0200   19.1468  -33.9422 H   0  0  0  0  0  0  0  0  0  0  0  0
   -4.8157   19.8688  -32.9906 H   0  0  0  0  0  0  0  0  0  0  0  0
   -5.9222   25.6011  -30.8224 H   0  0  0  0  0  0  0  0  0  0  0  0
   -3.8680   26.3700  -29.9700 H   0  0  0  0  0  0  0  0  0  0  0  0
   -0.8000   25.0330  -29.9480 H   0  0  0  0  0  0  0  0  0  0  0  0
   -2.6926   23.8765  -27.1748 H   0  0  0  0  0  0  0  0  0  0  0  0
   -2.4399   24.5790  -24.8400 H   0  0  0  0  0  0  0  0  0  0  0  0
    0.0774   27.8093  -26.1022 H   0  0  0  0  0  0  0  0  0  0  0  0
   -0.1886   27.0936  -28.4455 H   0  0  0  0  0  0  0  0  0  0  0  0
   -1.8316   22.0445  -28.7945 H   0  0  0  0  0  0  0  0  0  0  0  0
   -2.2569   21.2124  -30.3285 H   0  0  0  0  0  0  0  0  0  0  0  0
   -1.0295   22.5239  -30.3285 H   0  0  0  0  0  0  0  0  0  0  0  0
   -6.8532   22.1534  -29.9773 H   0  0  0  0  0  0  0  0  0  0  0  0
   -9.2385   21.5527  -29.6216 H   0  0  0  0  0  0  0  0  0  0  0  0
   -9.5386   22.6428  -31.0174 H   0  0  0  0  0  0  0  0  0  0  0  0
  -10.2120   20.9775  -31.0174 H   0  0  0  0  0  0  0  0  0  0  0  0
  1  2  1  0
  2  3  2  0
  3  4  1  0
  4  5  2  0
  5  6  1  0
  6  7  2  0
  7  8  1  0
  8  9  2  0
  9 10  1  0
 10 11  1  0
 11 12  1  0
 12 13  1  0
 13 14  2  0
 14 15  1  0
 15 16  2  0
 16 17  1  0
 16 18  1  0
 18 19  2  0
 11 20  2  0
 20 21  1  0
  5 22  1  0
 22 23  2  0
 23 24  1  0
 23  2  1  0
 20  7  1  0
 19 13  1  0
  1 25  1  0
  1 26  1  0
  1 27  1  0
  3 28  1  0
  4 29  1  0
  9 30  1  0
 10 31  1  0
 12 32  1  0
 14 33  1  0
 15 34  1  0
 18 35  1  0
 19 36  1  0
 21 37  1  0
 21 38  1  0
 21 39  1  0
 22 40  1  0
 24 41  1  0
 24 42  1  0
 24 43  1  0
M  END
>  <smiles>  (3) 
Cc1ccc(N=c2nc[nH]c(Nc3ccc(Cl)cc3)c2C)cc1C

>  <score_type>  (3) 
oracle

>  <origin>  (3) 
adgpu

>  <m_score__min__energy>  (3) 
-9.0800000000000001

>  <m_primary>  (3) 
energy

$$$$
3:0
     RDKit          3D

 32 33  0  0  0  0  0  0  0  0999 V2000
   -2.6440   24.9070  -26.9850 C   0  0  0  0  0  0  0  0  0  0  0  0
   -1.6430   25.1380  -28.1070 C   0  0  0  0  0  0  0  0  0  0  0  0
   -2.3380   25.2990  -29.3400 O   0  0  0  0  0  0  0  0  0  0  0  0
   -3.3130   24.4140  -29.8230 C   0  0  0  0  0  0  0  0  0  0  0  0
   -4.5330   24.9360  -30.2500 C   0  0  0  0  0  0  0  0  0  0  0  0
   -5.5250   24.0810  -30.7330 C   0  0  0  0  0  0  0  0  0  0  0  0
   -5.3160   22.7310  -30.7930 N   0  0  0  0  0  0  0  0  0  0  0  0
   -6.3730   21.8860  -31.2900 C   0  0  0  0  0  0  0  0  0  0  0  0
   -7.6630   21.9620  -30.7390 C   0  0  0  0  0  0  0  0  0  0  0  0
   -8.6850   21.1370  -31.2140 C   0  0  0  0  0  0  0  0  0  0  0  0
   -8.4360   20.2300  -32.2550 C   0  0  0  0  0  0  0  0  0  0  0  0
   -9.5230   19.3160  -32.7380 C   0  0  0  0  0  0  0  0  0  0  0  0
   -7.1430   20.1340  -32.7920 C   0  0  0  0  0  0  0  0  0  0  0  0
   -6.1210   20.9600  -32.3170 C   0  0  0  0  0  0  0  0  0  0  0  0
   -4.1190   22.1970  -30.3860 C   0  0  0  0  0  0  0  0  0  0  0  0
   -3.9070   20.9560  -30.4640 O   0  0  0  0  0  0  0  0  0  0  0  0
   -3.1050   23.0270  -29.8940 C   0  0  0  0  0  0  0  0  0  0  0  0
   -2.1400   25.0233  -26.0142 H   0  0  0  0  0  0  0  0  0  0  0  0
   -3.4599   25.6405  -27.0647 H   0  0  0  0  0  0  0  0  0  0  0  0
   -3.0560   23.8902  -27.0647 H   0  0  0  0  0  0  0  0  0  0  0  0
   -1.0580   26.0451  -27.8950 H   0  0  0  0  0  0  0  0  0  0  0  0
   -0.9671   24.2731  -28.1782 H   0  0  0  0  0  0  0  0  0  0  0  0
   -4.7137   26.0202  -30.2064 H   0  0  0  0  0  0  0  0  0  0  0  0
   -6.4858   24.4980  -31.0692 H   0  0  0  0  0  0  0  0  0  0  0  0
   -7.8696   22.6760  -29.9281 H   0  0  0  0  0  0  0  0  0  0  0  0
   -9.6895   21.1986  -30.7700 H   0  0  0  0  0  0  0  0  0  0  0  0
  -10.0443   18.8777  -31.8742 H   0  0  0  0  0  0  0  0  0  0  0  0
  -10.2389   19.8875  -33.3470 H   0  0  0  0  0  0  0  0  0  0  0  0
   -9.0829   18.5126  -33.3470 H   0  0  0  0  0  0  0  0  0  0  0  0
   -6.9334   19.4060  -33.5896 H   0  0  0  0  0  0  0  0  0  0  0  0
   -5.1124   20.8851  -32.7497 H   0  0  0  0  0  0  0  0  0  0  0  0
   -2.1489   22.5945  -29.5642 H   0  0  0  0  0  0  0  0  0  0  0  0
  1  2  1  0
  2  3  1  0
  3  4  1  0
  4  5  1  0
  5  6  2  0
  6  7  1  0
  7  8  1  0
  8  9  2  0
  9 10  1  0
 10 11  2  0
 11 12  1  0
 11 13  1  0
 13 14  2  0
  7 15  1  0
 15 16  2  0
 15 17  1  0
 17  4  2  0
 14  8  1  0
  1 18  1  0
  1 19  1  0
  1 20  1  0
  2 21  1  0
  2 22  1  0
  5 23  1  0
  6 24  1  0
  9 25  1  0
 10 26  1  0
 12 27  1  0
 12 28  1  0
 12 29  1  0
 13 30  1  0
 14 31  1  0
 17 32  1  0
M  END
>  <UniqueID>  (4) 
3

>  <SMILES>  (4) 
CCOc1ccn(-c2ccc(C)cc2)c(=O)c1

>  <Energy>  (4) 
36.85555846985259

>  <Genealogy>  (4) 
CCOc1ccn(-c2ccc(C)cc2)c(=O)c1 (3D coordinates assigned)
CCOc1ccn(-c2ccc(C)cc2)c(=O)c1 (optimized conformer: 36.85555846985259 kcal/mol)

>  <smiles>  (4) 
CCOc1ccn(-c2ccc(C)cc2)c(=O)c1

>  <score_type>  (4) 
oracle

>  <origin>  (4) 
adgpu

>  <m_score__min__energy>  (4) 
-6.8300000000000001

>  <m_primary>  (4) 
energy

$$$$
4:0
     RDKit          3D

 32 34  0  0  0  0  0  0  0  0999 V2000
   -1.4162   28.7481  -24.6047 H   0  0  0  0  0  0  0  0  0  0  0  0
   -1.1870   27.9780  -25.3560 C   0  0  0  0  0  0  0  0  0  0  0  0
   -0.4880   28.3200  -26.5160 C   0  0  0  0  0  0  0  0  0  0  0  0
   -0.1778   29.3620  -26.6831 H   0  0  0  0  0  0  0  0  0  0  0  0
   -0.1820   27.3400  -27.4650 C   0  0  0  0  0  0  0  0  0  0  0  0
    0.3569   27.6153  -28.3836 H   0  0  0  0  0  0  0  0  0  0  0  0
   -0.5620   26.0010  -27.2480 C   0  0  0  0  0  0  0  0  0  0  0  0
   -0.3010   24.9670  -28.2140 N   0  0  0  0  0  0  0  0  0  0  0  0
   -1.1800   24.3230  -28.9280 C   0  0  0  0  0  0  0  0  0  0  0  0
   -2.4990   24.6500  -28.8830 N   0  0  0  0  0  0  0  0  0  0  0  0
   -3.4020   23.9930  -29.6520 C   0  0  0  0  0  0  0  0  0  0  0  0
   -4.6610   24.3110  -29.5620 N   0  0  0  0  0  0  0  0  0  0  0  0
   -5.7480   23.7630  -30.3280 C   0  0  0  0  0  0  0  0  0  0  0  0
   -6.6220   22.8610  -29.7040 C   0  0  0  0  0  0  0  0  0  0  0  0
   -6.4506   22.5693  -28.6573 H   0  0  0  0  0  0  0  0  0  0  0  0
   -7.7100   22.3300  -30.4040 C   0  0  0  0  0  0  0  0  0  0  0  0
   -8.3821   21.6119  -29.9114 H   0  0  0  0  0  0  0  0  0  0  0  0
   -7.9450   22.7100  -31.7280 C   0  0  0  0  0  0  0  0  0  0  0  0
   -9.0010   22.1970  -32.4040 F   0  0  0  0  0  0  0  0  0  0  0  0
   -7.0980   23.6340  -32.3490 C   0  0  0  0  0  0  0  0  0  0  0  0
   -7.2892   23.9423  -33.3875 H   0  0  0  0  0  0  0  0  0  0  0  0
   -6.0080   24.1670  -31.6520 C   0  0  0  0  0  0  0  0  0  0  0  0
   -5.3524   24.9036  -32.1395 H   0  0  0  0  0  0  0  0  0  0  0  0
   -2.9820   22.9910  -30.4660 N   0  0  0  0  0  0  0  0  0  0  0  0
   -1.6670   22.6640  -30.5270 C   0  0  0  0  0  0  0  0  0  0  0  0
   -1.1440   21.3750  -31.5940 Cl  0  0  0  0  0  0  0  0  0  0  0  0
   -0.7650   23.3330  -29.7630 N   0  0  0  0  0  0  0  0  0  0  0  0
    0.2470   23.0790  -29.8180 H   0  0  0  0  0  0  0  0  0  0  0  0
   -1.2920   25.6750  -26.0970 C   0  0  0  0  0  0  0  0  0  0  0  0
   -1.6285   24.6399  -25.9377 H   0  0  0  0  0  0  0  0  0  0  0  0
   -1.5950   26.6580  -25.1500 C   0  0  0  0  0  0  0  0  0  0  0  0
   -2.1553   26.3916  -24.2417 H   0  0  0  0  0  0  0  0  0  0  0  0
  1  2  1  0
  2  3  2  0
  3  4  1  0
  3  5  1  0
  5  6  1  0
  5  7  2  0
  7  8  1  0
  8  9  2  0
  9 10  1  0
 10 11  1  0
 11 12  2  0
 12 13  1  0
 13 14  2  0
 14 15  1  0
 14 16  1  0
 16 17  1  0
 16 18  2  0
 18 19  1  0
 18 20  1  0
 20 21  1  0
 20 22  2  0
 22 23  1  0
 11 24  1  0
 24 25  2  0
 25 26  1  0
 25 27  1  0
 27 28  1  0
  7 29  1  0
 29 30  1  0
 29 31  2  0
 31 32  1  0
 31  2  1  0
 27  9  1  0
 22 13  1  0
M  CHG  1  10  -1
M  END
>  <UniqueID>  (5) 
4

>  <SMILES>  (5) 
Fc1ccc(/N=c2\nc(Cl)[nH]/c(=N/c3ccccc3)[n-]2)cc1

>  <Energy>  (5) 
47.805772559620856

>  <Genealogy>  (5) 
Fc1ccc(N=c2nc(Cl)[nH]c(=Nc3ccccc3)[n-]2)cc1 (protonated)
Fc1ccc(/N=c2\nc(Cl)[nH]/c(=N/c3ccccc3)[n-]2)cc1 (cis-trans isomerization)
Fc1ccc(/N=c2\nc(Cl)[nH]/c(=N/c3ccccc3)[n-]2)cc1 (3D coordinates assigned)
Fc1ccc(/N=c2\nc(Cl)[nH]/c(=N/c3ccccc3)[n-]2)cc1 (optimized conformer: 47.805772559620856 kcal/mol)

>  <smiles>  (5) 
Fc1ccc(N=c2nc(Cl)[nH]c(=Nc3ccccc3)[nH]2)cc1

>  <score_type>  (5) 
oracle

>  <origin>  (5) 
adgpu

>  <m_score__min__energy>  (5) 
-7.6699999999999999

>  <m_primary>  (5) 
energy

$$$$
5:0
     RDKit          3D

 24 26  0  0  0  0  0  0  0  0999 V2000
   -8.6490   20.5640  -32.3400 C   0  0  0  0  0  0  0  0  0  0  0  0
   -9.0200   21.6810  -31.5890 C   0  0  0  0  0  0  0  0  0  0  0  0
   -8.0500   22.5900  -31.1570 C   0  0  0  0  0  0  0  0  0  0  0  0
   -6.6930   22.3870  -31.4730 C   0  0  0  0  0  0  0  0  0  0  0  0
   -5.6650   23.3460  -31.0170 C   0  0  0  0  0  0  0  0  0  0  0  0
   -5.4470   24.5460  -31.5950 N   0  0  0  0  0  0  0  0  0  0  0  0
   -4.4790   25.0760  -30.9130 O   0  0  0  0  0  0  0  0  0  0  0  0
   -4.1100   24.2550  -29.9630 C   0  0  0  0  0  0  0  0  0  0  0  0
   -3.0400   24.5390  -29.0030 C   0  0  0  0  0  0  0  0  0  0  0  0
   -2.9620   24.0620  -27.7100 C   0  0  0  0  0  0  0  0  0  0  0  0
   -1.7960   24.5850  -27.1930 C   0  0  0  0  0  0  0  0  0  0  0  0
   -1.2370   25.3450  -28.2000 C   0  0  0  0  0  0  0  0  0  0  0  0
   -2.0020   25.2980  -29.2670 O   0  0  0  0  0  0  0  0  0  0  0  0
   -4.8370   23.1210  -29.9740 N   0  0  0  0  0  0  0  0  0  0  0  0
   -6.3300   21.2580  -32.2300 C   0  0  0  0  0  0  0  0  0  0  0  0
   -7.3050   20.3530  -32.6590 C   0  0  0  0  0  0  0  0  0  0  0  0
   -9.4141   19.8506  -32.6803 H   0  0  0  0  0  0  0  0  0  0  0  0
  -10.0779   21.8460  -31.3367 H   0  0  0  0  0  0  0  0  0  0  0  0
   -8.3485   23.4690  -30.5668 H   0  0  0  0  0  0  0  0  0  0  0  0
   -3.6796   23.4029  -27.1994 H   0  0  0  0  0  0  0  0  0  0  0  0
   -1.3926   24.4281  -26.1817 H   0  0  0  0  0  0  0  0  0  0  0  0
   -0.2937   25.9053  -28.1213 H   0  0  0  0  0  0  0  0  0  0  0  0
   -5.2739   21.0867  -32.4855 H   0  0  0  0  0  0  0  0  0  0  0  0
   -7.0134   19.4720  -33.2496 H   0  0  0  0  0  0  0  0  0  0  0  0
  1  2  2  0
  2  3  1  0
  3  4  2  0
  4  5  1  0
  5  6  2  0
  6  7  1  0
  7  8  1  0
  8  9  1  0
  9 10  2  0
 10 11  1  0
 11 12  2  0
 12 13  1  0
  8 14  2  0
  4 15  1  0
 15 16  2  0
 16  1  1  0
 14  5  1  0
 13  9  1  0
  1 17  1  0
  2 18  1  0
  3 19  1  0
 10 20  1  0
 11 21  1  0
 12 22  1  0
 15 23  1  0
 16 24  1  0
M  END
>  <UniqueID>  (6) 
5

>  <SMILES>  (6) 
c1ccc(-c2noc(-c3ccco3)n2)cc1

>  <Energy>  (6) 
85.0664013756733

>  <Genealogy>  (6) 
c1ccc(-c2noc(-c3ccco3)n2)cc1 (3D coordinates assigned)
c1ccc(-c2noc(-c3ccco3)n2)cc1 (optimized conformer: 85.0664013756733 kcal/mol)

>  <smiles>  (6) 
c1ccc(-c2noc(-c3ccco3)n2)cc1

>  <score_type>  (6) 
oracle

>  <origin>  (6) 
adgpu

>  <m_score__min__energy>  (6) 
-7.9500000000000002

>  <m_primary>  (6) 
energy

$$$$
6:0
     RDKit          3D

 35 36  0  0  0  0  0  0  0  0999 V2000
   -5.7290   18.8880  -34.3750 C   0  0  0  0  0  0  0  0  0  0  0  0
   -6.3140   19.8330  -33.3770 C   0  0  0  0  0  0  0  0  0  0  0  0
   -7.3850   19.5240  -32.7890 O   0  0  0  0  0  0  0  0  0  0  0  0
   -5.7070   21.1170  -33.1670 N   0  0  0  0  0  0  0  0  0  0  0  0
   -6.0840   22.0220  -32.1140 C   0  0  0  0  0  0  0  0  0  0  0  0
   -7.2350   21.7580  -31.3600 C   0  0  0  0  0  0  0  0  0  0  0  0
   -7.6280   22.6300  -30.3420 C   0  0  0  0  0  0  0  0  0  0  0  0
   -6.8770   23.7750  -30.0700 C   0  0  0  0  0  0  0  0  0  0  0  0
   -5.7250   24.0630  -30.8200 C   0  0  0  0  0  0  0  0  0  0  0  0
   -4.9350   25.2850  -30.5320 C   0  0  0  0  0  0  0  0  0  0  0  0
   -5.5200   26.3970  -30.4640 O   0  0  0  0  0  0  0  0  0  0  0  0
   -3.5090   25.2500  -30.3770 N   0  0  0  0  0  0  0  0  0  0  0  0
   -2.7900   24.5500  -29.3510 C   0  0  0  0  0  0  0  0  0  0  0  0
   -1.7530   25.1630  -28.6270 C   0  0  0  0  0  0  0  0  0  0  0  0
   -1.0660   24.4510  -27.6410 C   0  0  0  0  0  0  0  0  0  0  0  0
   -1.4010   23.1220  -27.3740 C   0  0  0  0  0  0  0  0  0  0  0  0
   -2.4310   22.4960  -28.0920 C   0  0  0  0  0  0  0  0  0  0  0  0
   -2.7600   21.0540  -27.8380 C   0  0  0  0  0  0  0  0  0  0  0  0
   -3.1040   23.2080  -29.0970 C   0  0  0  0  0  0  0  0  0  0  0  0
   -5.3510   23.1950  -31.8610 C   0  0  0  0  0  0  0  0  0  0  0  0
   -5.2207   18.0669  -33.8483 H   0  0  0  0  0  0  0  0  0  0  0  0
   -6.5314   18.4779  -35.0058 H   0  0  0  0  0  0  0  0  0  0  0  0
   -5.0041   19.4234  -35.0058 H   0  0  0  0  0  0  0  0  0  0  0  0
   -5.0110   21.4470  -33.8730 H   0  0  0  0  0  0  0  0  0  0  0  0
   -7.8326   20.8589  -31.5709 H   0  0  0  0  0  0  0  0  0  0  0  0
   -8.5316   22.4139  -29.7531 H   0  0  0  0  0  0  0  0  0  0  0  0
   -7.1892   24.4553  -29.2639 H   0  0  0  0  0  0  0  0  0  0  0  0
   -1.4813   26.2079  -28.8377 H   0  0  0  0  0  0  0  0  0  0  0  0
   -0.2594   24.9383  -27.0737 H   0  0  0  0  0  0  0  0  0  0  0  0
   -0.8557   22.5642  -26.5984 H   0  0  0  0  0  0  0  0  0  0  0  0
   -2.8013   20.8728  -26.7538 H   0  0  0  0  0  0  0  0  0  0  0  0
   -3.7356   20.8159  -28.2870 H   0  0  0  0  0  0  0  0  0  0  0  0
   -1.9843   20.4163  -28.2870 H   0  0  0  0  0  0  0  0  0  0  0  0
   -3.8843   22.7086  -29.6901 H   0  0  0  0  0  0  0  0  0  0  0  0
   -4.4766   23.4359  -32.4835 H   0  0  0  0  0  0  0  0  0  0  0  0
  1  2  1  0
  2  3  2  0
  2  4  1  0
  4  5  1  0
  5  6  2  0
  6  7  1  0
  7  8  2  0
  8  9  1  0
  9 10  1  0
 10 11  2  0
 10 12  1  0
 12 13  1  0
 13 14  2  0
 14 15  1  0
 15 16  2  0
 16 17  1  0
 17 18  1  0
 17 19  2  0
  9 20  2  0
 20  5  1  0
 19 13  1  0
  1 21  1  0
  1 22  1  0
  1 23  1  0
  4 24  1  0
  6 25  1  0
  7 26  1  0
  8 27  1  0
 14 28  1  0
 15 29  1  0
 16 30  1  0
 18 31  1  0
 18 32  1  0
 18 33  1  0
 19 34  1  0
 20 35  1  0
M  CHG  1  12  -1
M  END
>  <UniqueID>  (7) 
6

>  <SMILES>  (7) 
CC(=O)Nc1cccc(C(=O)[N-]c2cccc(C)c2)c1

>  <Energy>  (7) 
41.82526733654611

>  <Genealogy>  (7) 
CC(=O)Nc1cccc(C(=O)[N-]c2cccc(C)c2)c1 (protonated)
CC(=O)Nc1cccc(C(=O)[N-]c2cccc(C)c2)c1 (3D coordinates assigned)
CC(=O)Nc1cccc(C(=O)[N-]c2cccc(C)c2)c1 (optimized conformer: 41.82526733654611 kcal/mol)

>  <smiles>  (7) 
CC(=O)Nc1cccc(C(=O)Nc2cccc(C)c2)c1

>  <score_type>  (7) 
oracle

>  <origin>  (7) 
adgpu

>  <m_score__min__energy>  (7) 
-9.2799999999999994

>  <m_primary>  (7) 
energy

$$$$
7:0
     RDKit          3D

 45 48  0  0  0  0  0  0  0  0999 V2000
   -2.3701   14.5992  -34.8760 H   0  0  0  0  0  0  0  0  0  0  0  0
   -2.6650   15.6110  -34.5610 C   0  0  0  0  0  0  0  0  0  0  0  0
   -3.8440   16.1770  -35.0490 C   0  0  0  0  0  0  0  0  0  0  0  0
   -4.4717   15.6126  -35.7543 H   0  0  0  0  0  0  0  0  0  0  0  0
   -4.2310   17.4610  -34.6440 C   0  0  0  0  0  0  0  0  0  0  0  0
   -5.6950   18.1590  -35.3230 Cl  0  0  0  0  0  0  0  0  0  0  0  0
   -3.4360   18.1750  -33.7230 C   0  0  0  0  0  0  0  0  0  0  0  0
   -3.7940   19.5020  -33.3230 N   0  0  0  0  0  0  0  0  0  0  0  0
   -4.9230   19.9420  -32.8300 C   0  0  0  0  0  0  0  0  0  0  0  0
   -5.1150   21.3440  -32.7120 C   0  0  0  0  0  0  0  0  0  0  0  0
   -4.0060   22.2960  -33.1010 C   0  0  0  0  0  0  0  0  0  0  0  0
   -3.5348   22.7005  -32.1931 H   0  0  0  0  0  0  0  0  0  0  0  0
   -3.2533   21.7584  -33.6964 H   0  0  0  0  0  0  0  0  0  0  0  0
   -4.4233   23.1214  -33.6964 H   0  0  0  0  0  0  0  0  0  0  0  0
   -6.3890   21.8460  -32.3230 C   0  0  0  0  0  0  0  0  0  0  0  0
   -6.6110   23.2660  -32.2620 N   0  0  0  0  0  0  0  0  0  0  0  0
   -6.4790   23.8130  -33.1440 H   0  0  0  0  0  0  0  0  0  0  0  0
   -6.7830   23.9810  -30.9870 C   0  0  0  0  0  0  0  0  0  0  0  0
   -7.8255   24.3316  -30.9726 H   0  0  0  0  0  0  0  0  0  0  0  0
   -5.7850   25.1270  -30.8690 C   0  0  0  0  0  0  0  0  0  0  0  0
   -5.5664   25.5500  -31.8606 H   0  0  0  0  0  0  0  0  0  0  0  0
   -6.1771   25.9474  -30.2499 H   0  0  0  0  0  0  0  0  0  0  0  0
   -4.5320   24.5140  -30.2650 C   0  0  0  0  0  0  0  0  0  0  0  0
   -3.8421   24.1957  -31.0604 H   0  0  0  0  0  0  0  0  0  0  0  0
   -3.9958   25.2388  -29.6348 H   0  0  0  0  0  0  0  0  0  0  0  0
   -4.9950   23.3080  -29.4530 C   0  0  0  0  0  0  0  0  0  0  0  0
   -4.3962   22.4235  -29.7158 H   0  0  0  0  0  0  0  0  0  0  0  0
   -4.8729   23.4908  -28.3752 H   0  0  0  0  0  0  0  0  0  0  0  0
   -6.4630   23.0700  -29.8020 C   0  0  0  0  0  0  0  0  0  0  0  0
   -6.6215   22.0173  -30.0788 H   0  0  0  0  0  0  0  0  0  0  0  0
   -7.1156   23.2905  -28.9444 H   0  0  0  0  0  0  0  0  0  0  0  0
   -7.4420   20.9470  -32.0390 C   0  0  0  0  0  0  0  0  0  0  0  0
   -8.7780   21.4000  -31.7400 C   0  0  0  0  0  0  0  0  0  0  0  0
   -9.8520   21.7620  -31.5010 N   0  0  0  0  0  0  0  0  0  0  0  0
   -7.1670   19.5840  -32.0960 C   0  0  0  0  0  0  0  0  0  0  0  0
   -8.0180   18.5940  -31.7500 N   0  0  0  0  0  0  0  0  0  0  0  0
   -7.2420   17.4960  -31.8990 C   0  0  0  0  0  0  0  0  0  0  0  0
   -7.5879   16.4695  -31.7074 H   0  0  0  0  0  0  0  0  0  0  0  0
   -5.9970   17.8050  -32.3090 N   0  0  0  0  0  0  0  0  0  0  0  0
   -5.2120   17.1280  -32.3940 H   0  0  0  0  0  0  0  0  0  0  0  0
   -5.9600   19.1210  -32.4570 N   0  0  0  0  0  0  0  0  0  0  0  0
   -2.2340   17.6110  -33.2610 C   0  0  0  0  0  0  0  0  0  0  0  0
   -1.2000   18.4910  -32.1450 Cl  0  0  0  0  0  0  0  0  0  0  0  0
   -1.8590   16.3280  -33.6730 C   0  0  0  0  0  0  0  0  0  0  0  0
   -0.9265   15.8820  -33.2967 H   0  0  0  0  0  0  0  0  0  0  0  0
  1  2  1  0
  2  3  2  0
  3  4  1  0
  3  5  1  0
  5  6  1  0
  5  7  2  0
  7  8  1  0
  8  9  2  0
  9 10  1  0
 10 11  1  0
 11 12  1  0
 11 13  1  0
 11 14  1  0
 10 15  2  0
 15 16  1  0
 16 17  1  0
 16 18  1  0
 18 19  1  0
 18 20  1  0
 20 21  1  0
 20 22  1  0
 20 23  1  0
 23 24  1  0
 23 25  1  0
 23 26  1  0
 26 27  1  0
 26 28  1  0
 26 29  1  0
 29 30  1  0
 29 31  1  0
 15 32  1  0
 32 33  1  0
 33 34  3  0
 32 35  2  0
 35 36  1  0
 36 37  2  0
 37 38  1  0
 37 39  1  0
 39 40  1  0
 39 41  1  0
  7 42  1  0
 42 43  1  0
 42 44  2  0
 44 45  1  0
 44  2  1  0
 41  9  1  0
 29 18  1  0
 41 35  1  0
M  END
>  <UniqueID>  (8) 
7

>  <SMILES>  (8) 
Cc1c(NC2CCCC2)c(C#N)c2nc[nH]n2/c1=N\c1c(Cl)cccc1Cl

>  <Energy>  (8) 
110.35142400465517

>  <Genealogy>  (8) 
Cc1c(NC2CCCC2)c(C#N)c2nc[nH]n2/c1=N\c1c(Cl)cccc1Cl (cis-trans isomerization)
Cc1c(NC2CCCC2)c(C#N)c2nc[nH]n2/c1=N\c1c(Cl)cccc1Cl (3D coordinates assigned)
Cc1c(NC2CCCC2)c(C#N)c2nc[nH]n2/c1=N\c1c(Cl)cccc1Cl (nonaromatic ring conformer: 110.35142400465517 kcal/mol)

>  <smiles>  (8) 
Cc1c(NC2CCCC2)c(C#N)c2nc[nH]n2c1=Nc1c(Cl)cccc1Cl

>  <score_type>  (8) 
oracle

>  <origin>  (8) 
adgpu

>  <m_score__min__energy>  (8) 
-8.6099999999999994

>  <m_primary>  (8) 
energy

$$$$
8:0
     RDKit          3D

 43 45  0  0  0  0  0  0  0  0999 V2000
   -5.3770   26.4750  -30.4620 O   0  0  0  0  0  0  0  0  0  0  0  0
   -4.9630   25.2900  -30.5930 C   0  0  0  0  0  0  0  0  0  0  0  0
   -3.5660   25.0080  -30.4570 N   0  0  0  0  0  0  0  0  0  0  0  0
   -3.0330   23.9470  -29.6130 C   0  0  0  0  0  0  0  0  0  0  0  0
   -2.8020   22.7000  -30.4190 C   0  0  0  0  0  0  0  0  0  0  0  0
   -3.8760   21.8680  -30.7760 C   0  0  0  0  0  0  0  0  0  0  0  0
   -3.6510   20.7120  -31.5280 C   0  0  0  0  0  0  0  0  0  0  0  0
   -2.3560   20.3810  -31.9350 C   0  0  0  0  0  0  0  0  0  0  0  0
   -1.2810   21.2070  -31.5900 C   0  0  0  0  0  0  0  0  0  0  0  0
   -0.0250   20.8850  -31.9860 F   0  0  0  0  0  0  0  0  0  0  0  0
   -1.5030   22.3640  -30.8370 C   0  0  0  0  0  0  0  0  0  0  0  0
   -5.9190   24.1980  -30.8930 C   0  0  0  0  0  0  0  0  0  0  0  0
   -6.1670   23.8050  -32.2200 C   0  0  0  0  0  0  0  0  0  0  0  0
   -7.0750   22.7800  -32.5000 C   0  0  0  0  0  0  0  0  0  0  0  0
   -7.7490   22.1310  -31.4580 C   0  0  0  0  0  0  0  0  0  0  0  0
   -8.9160   20.8580  -31.7990 S   0  0  0  0  0  0  0  0  0  0  0  0
   -9.1110   19.9740  -30.5980 O   0  0  0  0  0  0  0  0  0  0  0  0
  -10.2300   21.4920  -32.1580 O   0  0  0  0  0  0  0  0  0  0  0  0
   -8.3650   19.8930  -33.1320 N   0  0  0  0  0  0  0  0  0  0  0  0
   -7.1930   19.0610  -33.0790 C   0  0  0  0  0  0  0  0  0  0  0  0
   -7.0790   18.0000  -32.1590 C   0  0  0  0  0  0  0  0  0  0  0  0
   -5.9180   17.2210  -32.1200 C   0  0  0  0  0  0  0  0  0  0  0  0
   -4.8670   17.4830  -33.0040 C   0  0  0  0  0  0  0  0  0  0  0  0
   -4.9810   18.5190  -33.9340 C   0  0  0  0  0  0  0  0  0  0  0  0
   -6.1380   19.3020  -33.9730 C   0  0  0  0  0  0  0  0  0  0  0  0
   -7.5030   22.5110  -30.1340 C   0  0  0  0  0  0  0  0  0  0  0  0
   -6.5970   23.5370  -29.8510 C   0  0  0  0  0  0  0  0  0  0  0  0
   -2.0793   24.2771  -29.1753 H   0  0  0  0  0  0  0  0  0  0  0  0
   -3.7593   23.7268  -28.8168 H   0  0  0  0  0  0  0  0  0  0  0  0
   -4.8979   22.1275  -30.4624 H   0  0  0  0  0  0  0  0  0  0  0  0
   -4.4951   20.0613  -31.8001 H   0  0  0  0  0  0  0  0  0  0  0  0
   -2.1817   19.4704  -32.5270 H   0  0  0  0  0  0  0  0  0  0  0  0
   -0.6568   23.0144  -30.5705 H   0  0  0  0  0  0  0  0  0  0  0  0
   -5.6418   24.3086  -33.0450 H   0  0  0  0  0  0  0  0  0  0  0  0
   -7.2609   22.4820  -33.5424 H   0  0  0  0  0  0  0  0  0  0  0  0
   -8.8490   20.0300  -34.0480 H   0  0  0  0  0  0  0  0  0  0  0  0
   -7.9071   17.7833  -31.4681 H   0  0  0  0  0  0  0  0  0  0  0  0
   -5.8317   16.4006  -31.3924 H   0  0  0  0  0  0  0  0  0  0  0  0
   -3.9516   16.8742  -32.9672 H   0  0  0  0  0  0  0  0  0  0  0  0
   -4.1588   18.7189  -34.6368 H   0  0  0  0  0  0  0  0  0  0  0  0
   -6.2226   20.1139  -34.7104 H   0  0  0  0  0  0  0  0  0  0  0  0
   -8.0252   21.9998  -29.3118 H   0  0  0  0  0  0  0  0  0  0  0  0
   -6.4124   23.8301  -28.8070 H   0  0  0  0  0  0  0  0  0  0  0  0
  1  2  2  0
  2  3  1  0
  3  4  1  0
  4  5  1  0
  5  6  2  0
  6  7  1  0
  7  8  2  0
  8  9  1  0
  9 10  1  0
  9 11  2  0
  2 12  1  0
 12 13  2  0
 13 14  1  0
 14 15  2  0
 15 16  1  0
 16 17  2  0
 16 18  2  0
 16 19  1  0
 19 20  1  0
 20 21  2  0
 21 22  1  0
 22 23  2  0
 23 24  1  0
 24 25  2  0
 15 26  1  0
 26 27  2  0
 11  5  1  0
 27 12  1  0
 25 20  1  0
  4 28  1  0
  4 29  1  0
  6 30  1  0
  7 31  1  0
  8 32  1  0
 11 33  1  0
 13 34  1  0
 14 35  1  0
 19 36  1  0
 21 37  1  0
 22 38  1  0
 23 39  1  0
 24 40  1  0
 25 41  1  0
 26 42  1  0
 27 43  1  0
M  CHG  1   3  -1
M  END
>  <UniqueID>  (9) 
8

>  <SMILES>  (9) 
O=C([N-]Cc1cccc(F)c1)c1ccc(S(=O)(=O)Nc2ccccc2)cc1

>  <Energy>  (9) 
46.94496765950707

>  <Genealogy>  (9) 
O=C([N-]Cc1cccc(F)c1)c1ccc(S(=O)(=O)Nc2ccccc2)cc1 (protonated)
O=C([N-]Cc1cccc(F)c1)c1ccc(S(=O)(=O)Nc2ccccc2)cc1 (3D coordinates assigned)
O=C([N-]Cc1cccc(F)c1)c1ccc(S(=O)(=O)Nc2ccccc2)cc1 (optimized conformer: 46.94496765950707 kcal/mol)

>  <smiles>  (9) 
O=C(NCc1cccc(F)c1)c1ccc(S(=O)(=O)Nc2ccccc2)cc1

>  <score_type>  (9) 
oracle

>  <origin>  (9) 
adgpu

>  <m_score__min__energy>  (9) 
-11.68

>  <m_primary>  (9) 
energy

$$$$
9:0
     RDKit          3D

 59 62  0  0  0  0  0  0  0  0999 V2000
    0.0430   19.2240  -31.7250 C   0  0  0  0  0  0  0  0  0  0  0  0
   -0.3690   20.5860  -31.7630 O   0  0  0  0  0  0  0  0  0  0  0  0
   -1.7060   21.0100  -31.8420 C   0  0  0  0  0  0  0  0  0  0  0  0
   -2.2640   21.5020  -33.0370 C   0  0  0  0  0  0  0  0  0  0  0  0
   -3.5970   21.9160  -33.0770 C   0  0  0  0  0  0  0  0  0  0  0  0
   -4.3890   21.8530  -31.9260 C   0  0  0  0  0  0  0  0  0  0  0  0
   -5.8010   22.2830  -31.9660 C   0  0  0  0  0  0  0  0  0  0  0  0
   -6.9060   21.4830  -32.2240 C   0  0  0  0  0  0  0  0  0  0  0  0
   -6.9180   20.0620  -32.6380 C   0  0  0  0  0  0  0  0  0  0  0  0
   -7.6930   19.1080  -31.9520 C   0  0  0  0  0  0  0  0  0  0  0  0
   -7.6940   17.7720  -32.3620 C   0  0  0  0  0  0  0  0  0  0  0  0
   -6.9130   17.3710  -33.4490 C   0  0  0  0  0  0  0  0  0  0  0  0
   -6.9140   16.0750  -33.8440 F   0  0  0  0  0  0  0  0  0  0  0  0
   -6.1250   18.3070  -34.1230 C   0  0  0  0  0  0  0  0  0  0  0  0
   -6.1210   19.6440  -33.7180 C   0  0  0  0  0  0  0  0  0  0  0  0
   -8.0320   22.1950  -32.0110 N   0  0  0  0  0  0  0  0  0  0  0  0
   -7.5970   23.4160  -31.6360 C   0  0  0  0  0  0  0  0  0  0  0  0
   -6.2530   23.5020  -31.5970 N   0  0  0  0  0  0  0  0  0  0  0  0
   -5.4930   24.6420  -31.0720 C   0  0  0  0  0  0  0  0  0  0  0  0
   -5.6390   24.7580  -29.5490 C   0  0  0  0  0  0  0  0  0  0  0  0
   -4.6230   23.8680  -28.7990 C   0  0  0  0  0  0  0  0  0  0  0  0
   -3.2790   24.4660  -28.6450 N   0  0  0  0  0  0  0  0  0  0  0  0
   -2.9740   24.8780  -27.2610 C   0  0  0  0  0  0  0  0  0  0  0  0
   -1.4980   25.3010  -27.1310 C   0  0  0  0  0  0  0  0  0  0  0  0
   -0.9640   25.6390  -28.3960 O   0  0  0  0  0  0  0  0  0  0  0  0
   -0.8820   24.4830  -29.2150 C   0  0  0  0  0  0  0  0  0  0  0  0
   -2.1910   23.6640  -29.2250 C   0  0  0  0  0  0  0  0  0  0  0  0
   -3.8410   21.3550  -30.7360 C   0  0  0  0  0  0  0  0  0  0  0  0
   -2.4980   20.9340  -30.6860 C   0  0  0  0  0  0  0  0  0  0  0  0
   -1.9180   20.4340  -29.5100 O   0  0  0  0  0  0  0  0  0  0  0  0
   -2.5510   20.4370  -28.2350 C   0  0  0  0  0  0  0  0  0  0  0  0
    0.1411   18.8997  -30.6785 H   0  0  0  0  0  0  0  0  0  0  0  0
   -0.7065   18.5999  -32.2336 H   0  0  0  0  0  0  0  0  0  0  0  0
    1.0128   19.1200  -32.2336 H   0  0  0  0  0  0  0  0  0  0  0  0
   -1.6460   21.5607  -33.9451 H   0  0  0  0  0  0  0  0  0  0  0  0
   -4.0257   22.2931  -34.0172 H   0  0  0  0  0  0  0  0  0  0  0  0
   -8.3011   19.4157  -31.0886 H   0  0  0  0  0  0  0  0  0  0  0  0
   -8.3110   17.0345  -31.8278 H   0  0  0  0  0  0  0  0  0  0  0  0
   -5.5058   17.9904  -34.9752 H   0  0  0  0  0  0  0  0  0  0  0  0
   -5.4907   20.3738  -34.2472 H   0  0  0  0  0  0  0  0  0  0  0  0
   -8.2680   24.2518  -31.3886 H   0  0  0  0  0  0  0  0  0  0  0  0
   -4.4298   24.5084  -31.3205 H   0  0  0  0  0  0  0  0  0  0  0  0
   -5.8879   25.5614  -31.5288 H   0  0  0  0  0  0  0  0  0  0  0  0
   -5.4771   25.8058  -29.2558 H   0  0  0  0  0  0  0  0  0  0  0  0
   -6.6502   24.4199  -29.2786 H   0  0  0  0  0  0  0  0  0  0  0  0
   -5.0234   23.6602  -27.7958 H   0  0  0  0  0  0  0  0  0  0  0  0
   -4.4935   22.9607  -29.4074 H   0  0  0  0  0  0  0  0  0  0  0  0
   -3.6182   25.7264  -26.9866 H   0  0  0  0  0  0  0  0  0  0  0  0
   -3.1580   24.0261  -26.5899 H   0  0  0  0  0  0  0  0  0  0  0  0
   -1.4293   26.1736  -26.4647 H   0  0  0  0  0  0  0  0  0  0  0  0
   -0.9231   24.4597  -26.7166 H   0  0  0  0  0  0  0  0  0  0  0  0
   -0.6557   24.7969  -30.2447 H   0  0  0  0  0  0  0  0  0  0  0  0
   -0.0913   23.8394  -28.8021 H   0  0  0  0  0  0  0  0  0  0  0  0
   -2.4465   23.3948  -30.2605 H   0  0  0  0  0  0  0  0  0  0  0  0
   -2.0542   22.7491  -28.6298 H   0  0  0  0  0  0  0  0  0  0  0  0
   -4.4657   21.2924  -29.8327 H   0  0  0  0  0  0  0  0  0  0  0  0
   -1.7852   20.4334  -27.4454 H   0  0  0  0  0  0  0  0  0  0  0  0
   -3.1742   21.3381  -28.1372 H   0  0  0  0  0  0  0  0  0  0  0  0
   -3.1828   19.5418  -28.1372 H   0  0  0  0  0  0  0  0  0  0  0  0
  1  2  1  0
  2  3  1  0
  3  4  2  0
  4  5  1  0
  5  6  2  0
  6  7  1  0
  7  8  2  0
  8  9  1  0
  9 10  2  0
 10 11  1  0
 11 12  2  0
 12 13  1  0
 12 14  1  0
 14 15  2  0
  8 16  1  0
 16 17  2  0
 17 18  1  0
 18 19  1  0
 19 20  1  0
 20 21  1  0
 21 22  1  0
 22 23  1  0
 23 24  1  0
 24 25  1  0
 25 26  1  0
 26 27  1  0
  6 28  1  0
 28 29  2  0
 29 30  1  0
 30 31  1  0
 29  3  1  0
 18  7  1  0
 27 22  1  0
 15  9  1  0
  1 32  1  0
  1 33  1  0
  1 34  1  0
  4 35  1  0
  5 36  1  0
 10 37  1  0
 11 38  1  0
 14 39  1  0
 15 40  1  0
 17 41  1  0
 19 42  1  0
 19 43  1  0
 20 44  1  0
 20 45  1  0
 21 46  1  0
 21 47  1  0
 23 48  1  0
 23 49  1  0
 24 50  1  0
 24 51  1  0
 26 52  1  0
 26 53  1  0
 27 54  1  0
 27 55  1  0
 28 56  1  0
 31 57  1  0
 31 58  1  0
 31 59  1  0
M  END
>  <UniqueID>  (10) 
9

>  <SMILES>  (10) 
COc1ccc(-c2c(-c3ccc(F)cc3)ncn2CCCN2CCOCC2)cc1OC

>  <Energy>  (10) 
106.5487026950327

>  <Genealogy>  (10) 
COc1ccc(-c2c(-c3ccc(F)cc3)ncn2CCCN2CCOCC2)cc1OC (3D coordinates assigned)
COc1ccc(-c2c(-c3ccc(F)cc3)ncn2CCCN2CCOCC2)cc1OC (nonaromatic ring conformer: 106.5487026950327 kcal/mol)

>  <smiles>  (10) 
COc1ccc(-c2c(-c3ccc(F)cc3)ncn2CCCN2CCOCC2)cc1OC

>  <score_type>  (10) 
oracle

>  <origin>  (10) 
adgpu

>  <m_score__min__energy>  (10) 
-9.3800000000000008

>  <m_primary>  (10) 
energy

$$$$
10:0
     RDKit          3D

 43 45  0  0  0  0  0  0  0  0999 V2000
   -9.0790   18.2020  -31.7570 C   0  0  0  0  0  0  0  0  0  0  0  0
   -7.7660   18.8010  -32.1630 C   0  0  0  0  0  0  0  0  0  0  0  0
   -7.7300   19.8550  -33.0880 C   0  0  0  0  0  0  0  0  0  0  0  0
   -6.5120   20.4340  -33.4510 C   0  0  0  0  0  0  0  0  0  0  0  0
   -5.3110   19.9730  -32.8880 C   0  0  0  0  0  0  0  0  0  0  0  0
   -3.9880   20.5680  -33.3110 C   0  0  0  0  0  0  0  0  0  0  0  0
   -3.6180   21.7310  -32.4890 N   0  0  0  0  0  0  0  0  0  0  0  0
   -3.5840   21.3950  -31.0590 C   0  0  0  0  0  0  0  0  0  0  0  0
   -3.0730   22.5660  -30.2550 C   0  0  0  0  0  0  0  0  0  0  0  0
   -2.0050   22.3840  -29.3620 C   0  0  0  0  0  0  0  0  0  0  0  0
   -1.4920   23.4660  -28.6480 C   0  0  0  0  0  0  0  0  0  0  0  0
   -2.0380   24.7330  -28.8420 C   0  0  0  0  0  0  0  0  0  0  0  0
   -3.0630   24.9060  -29.7160 N   0  0  0  0  0  0  0  0  0  0  0  0
   -3.5990   23.8700  -30.4180 C   0  0  0  0  0  0  0  0  0  0  0  0
   -4.6350   24.1370  -31.3180 O   0  0  0  0  0  0  0  0  0  0  0  0
   -5.9170   23.5710  -31.2490 C   0  0  0  0  0  0  0  0  0  0  0  0
   -6.7720   23.7190  -32.3470 C   0  0  0  0  0  0  0  0  0  0  0  0
   -8.0570   23.1670  -32.3240 C   0  0  0  0  0  0  0  0  0  0  0  0
   -8.4930   22.4570  -31.2040 C   0  0  0  0  0  0  0  0  0  0  0  0
   -7.6510   22.3120  -30.0970 C   0  0  0  0  0  0  0  0  0  0  0  0
   -6.3710   22.8720  -30.1120 C   0  0  0  0  0  0  0  0  0  0  0  0
   -5.3480   18.9230  -31.9570 C   0  0  0  0  0  0  0  0  0  0  0  0
   -6.5680   18.3480  -31.5890 C   0  0  0  0  0  0  0  0  0  0  0  0
   -9.1446   18.1721  -30.6594 H   0  0  0  0  0  0  0  0  0  0  0  0
   -9.9007   18.8143  -32.1569 H   0  0  0  0  0  0  0  0  0  0  0  0
   -9.1551   17.1801  -32.1569 H   0  0  0  0  0  0  0  0  0  0  0  0
   -8.6660   20.2274  -33.5298 H   0  0  0  0  0  0  0  0  0  0  0  0
   -6.4934   21.2557  -34.1820 H   0  0  0  0  0  0  0  0  0  0  0  0
   -3.2060   19.8006  -33.2128 H   0  0  0  0  0  0  0  0  0  0  0  0
   -4.0855   20.9061  -34.3532 H   0  0  0  0  0  0  0  0  0  0  0  0
   -4.3140   22.4960  -32.6530 H   0  0  0  0  0  0  0  0  0  0  0  0
   -4.5997   21.1400  -30.7224 H   0  0  0  0  0  0  0  0  0  0  0  0
   -2.9100   20.5386  -30.9098 H   0  0  0  0  0  0  0  0  0  0  0  0
   -1.5708   21.3826  -29.2250 H   0  0  0  0  0  0  0  0  0  0  0  0
   -0.6642   23.3208  -27.9384 H   0  0  0  0  0  0  0  0  0  0  0  0
   -1.6384   25.5943  -28.2866 H   0  0  0  0  0  0  0  0  0  0  0  0
   -6.4312   24.2731  -33.2340 H   0  0  0  0  0  0  0  0  0  0  0  0
   -8.7246   23.2925  -33.1892 H   0  0  0  0  0  0  0  0  0  0  0  0
   -9.4987   22.0117  -31.1922 H   0  0  0  0  0  0  0  0  0  0  0  0
   -7.9969   21.7562  -29.2130 H   0  0  0  0  0  0  0  0  0  0  0  0
   -5.7160   22.7672  -29.2345 H   0  0  0  0  0  0  0  0  0  0  0  0
   -4.4122   18.5507  -31.5147 H   0  0  0  0  0  0  0  0  0  0  0  0
   -6.5891   17.5369  -30.8463 H   0  0  0  0  0  0  0  0  0  0  0  0
  1  2  1  0
  2  3  2  0
  3  4  1  0
  4  5  2  0
  5  6  1  0
  6  7  1  0
  7  8  1  0
  8  9  1  0
  9 10  2  0
 10 11  1  0
 11 12  2  0
 12 13  1  0
 13 14  2  0
 14 15  1  0
 15 16  1  0
 16 17  2  0
 17 18  1  0
 18 19  2  0
 19 20  1  0
 20 21  2  0
  5 22  1  0
 22 23  2  0
 23  2  1  0
 14  9  1  0
 21 16  1  0
  1 24  1  0
  1 25  1  0
  1 26  1  0
  3 27  1  0
  4 28  1  0
  6 29  1  0
  6 30  1  0
  7 31  1  0
  8 32  1  0
  8 33  1  0
 10 34  1  0
 11 35  1  0
 12 36  1  0
 17 37  1  0
 18 38  1  0
 19 39  1  0
 20 40  1  0
 21 41  1  0
 22 42  1  0
 23 43  1  0
M  END
>  <UniqueID>  (11) 
10

>  <SMILES>  (11) 
Cc1ccc(CNCc2cccnc2Oc2ccccc2)cc1

>  <Energy>  (11) 
49.732968472502506

>  <Genealogy>  (11) 
Cc1ccc(CNCc2cccnc2Oc2ccccc2)cc1 (3D coordinates assigned)
Cc1ccc(CNCc2cccnc2Oc2ccccc2)cc1 (optimized conformer: 49.732968472502506 kcal/mol)

>  <smiles>  (11) 
Cc1ccc(CNCc2cccnc2Oc2ccccc2)cc1

>  <score_type>  (11) 
oracle

>  <origin>  (11) 
adgpu

>  <m_score__min__energy>  (11) 
-9.0399999999999991

>  <m_primary>  (11) 
energy

$$$$
11:0
     RDKit          3D

 37 39  0  0  0  0  0  0  0  0999 V2000
   -1.1980   21.4940  -31.2560 O   0  0  0  0  0  0  0  0  0  0  0  0
   -2.0960   22.2890  -30.8740 C   0  0  0  0  0  0  0  0  0  0  0  0
   -3.3420   22.3830  -31.5870 N   0  0  0  0  0  0  0  0  0  0  0  0
   -4.0270   21.2530  -32.1520 C   0  0  0  0  0  0  0  0  0  0  0  0
   -3.4550   20.5910  -33.2510 C   0  0  0  0  0  0  0  0  0  0  0  0
   -4.0980   19.4940  -33.8320 C   0  0  0  0  0  0  0  0  0  0  0  0
   -5.3110   19.0370  -33.3110 C   0  0  0  0  0  0  0  0  0  0  0  0
   -6.1170   17.6600  -34.0400 Cl  0  0  0  0  0  0  0  0  0  0  0  0
   -5.8750   19.6720  -32.2000 C   0  0  0  0  0  0  0  0  0  0  0  0
   -5.2360   20.7710  -31.6170 C   0  0  0  0  0  0  0  0  0  0  0  0
   -1.8480   23.1470  -29.6920 C   0  0  0  0  0  0  0  0  0  0  0  0
   -0.5270   23.3890  -29.2810 C   0  0  0  0  0  0  0  0  0  0  0  0
   -0.2660   24.2020  -28.1770 C   0  0  0  0  0  0  0  0  0  0  0  0
   -1.3210   24.7750  -27.4660 C   0  0  0  0  0  0  0  0  0  0  0  0
   -2.6410   24.5270  -27.8480 C   0  0  0  0  0  0  0  0  0  0  0  0
   -2.9190   23.7060  -28.9570 C   0  0  0  0  0  0  0  0  0  0  0  0
   -4.2680   23.3840  -29.3260 N   0  0  0  0  0  0  0  0  0  0  0  0
   -5.4110   24.4530  -30.0660 S   0  0  0  0  0  0  0  0  0  0  0  0
   -4.7630   25.1720  -31.2140 O   0  0  0  0  0  0  0  0  0  0  0  0
   -5.9230   25.4480  -29.0620 O   0  0  0  0  0  0  0  0  0  0  0  0
   -6.7470   23.4870  -30.6600 C   0  0  0  0  0  0  0  0  0  0  0  0
   -7.5150   22.6240  -29.8950 C   0  0  0  0  0  0  0  0  0  0  0  0
   -8.4700   21.9310  -30.6480 C   0  0  0  0  0  0  0  0  0  0  0  0
   -8.4470   22.2460  -32.0010 C   0  0  0  0  0  0  0  0  0  0  0  0
   -7.2360   23.3850  -32.2630 S   0  0  0  0  0  0  0  0  0  0  0  0
   -3.8980   23.2580  -31.4540 H   0  0  0  0  0  0  0  0  0  0  0  0
   -2.4938   20.9384  -33.6576 H   0  0  0  0  0  0  0  0  0  0  0  0
   -3.6484   18.9901  -34.7003 H   0  0  0  0  0  0  0  0  0  0  0  0
   -6.8248   19.3057  -31.7831 H   0  0  0  0  0  0  0  0  0  0  0  0
   -5.6799   21.2602  -30.7374 H   0  0  0  0  0  0  0  0  0  0  0  0
    0.3084   22.9342  -29.8335 H   0  0  0  0  0  0  0  0  0  0  0  0
    0.7724   24.3912  -27.8671 H   0  0  0  0  0  0  0  0  0  0  0  0
   -1.1124   25.4237  -26.6025 H   0  0  0  0  0  0  0  0  0  0  0  0
   -3.4684   24.9759  -27.2789 H   0  0  0  0  0  0  0  0  0  0  0  0
   -7.3876   22.4968  -28.8098 H   0  0  0  0  0  0  0  0  0  0  0  0
   -9.1719   21.2060  -30.2102 H   0  0  0  0  0  0  0  0  0  0  0  0
   -9.1086   21.8224  -32.7710 H   0  0  0  0  0  0  0  0  0  0  0  0
  1  2  2  0
  2  3  1  0
  3  4  1  0
  4  5  2  0
  5  6  1  0
  6  7  2  0
  7  8  1  0
  7  9  1  0
  9 10  2  0
  2 11  1  0
 11 12  2  0
 12 13  1  0
 13 14  2  0
 14 15  1  0
 15 16  2  0
 16 17  1  0
 17 18  1  0
 18 19  2  0
 18 20  2  0
 18 21  1  0
 21 22  2  0
 22 23  1  0
 23 24  2  0
 24 25  1  0
 10  4  1  0
 16 11  1  0
 25 21  1  0
  3 26  1  0
  5 27  1  0
  6 28  1  0
  9 29  1  0
 10 30  1  0
 12 31  1  0
 13 32  1  0
 14 33  1  0
 15 34  1  0
 22 35  1  0
 23 36  1  0
 24 37  1  0
M  CHG  1  17  -1
M  END
>  <UniqueID>  (12) 
11

>  <SMILES>  (12) 
O=C(Nc1ccc(Cl)cc1)c1ccccc1[N-]S(=O)(=O)c1cccs1

>  <Energy>  (12) 
77.45485483515456

>  <Genealogy>  (12) 
O=C(Nc1ccc(Cl)cc1)c1ccccc1[N-]S(=O)(=O)c1cccs1 (protonated)
O=C(Nc1ccc(Cl)cc1)c1ccccc1[N-]S(=O)(=O)c1cccs1 (3D coordinates assigned)
O=C(Nc1ccc(Cl)cc1)c1ccccc1[N-]S(=O)(=O)c1cccs1 (optimized conformer: 77.45485483515456 kcal/mol)

>  <smiles>  (12) 
O=C(Nc1ccc(Cl)cc1)c1ccccc1NS(=O)(=O)c1cccs1

>  <score_type>  (12) 
oracle

>  <origin>  (12) 
adgpu

>  <m_score__min__energy>  (12) 
-9.3800000000000008

>  <m_primary>  (12) 
energy

$$$$
12:0
     RDKit          3D

 43 45  0  0  0  0  0  0  0  0999 V2000
   -4.6040   15.8730  -33.1710 C   0  0  0  0  0  0  0  0  0  0  0  0
   -5.7160   16.3290  -34.0230 N   0  0  0  0  0  0  0  0  0  0  0  0
   -5.2790   17.3750  -34.9880 C   0  0  0  0  0  0  0  0  0  0  0  0
   -5.9320   18.7530  -34.7710 C   0  0  0  0  0  0  0  0  0  0  0  0
   -6.0880   19.0200  -33.3410 N   0  0  0  0  0  0  0  0  0  0  0  0
   -5.7440   20.3040  -32.8100 C   0  0  0  0  0  0  0  0  0  0  0  0
   -4.4030   20.7070  -32.7980 C   0  0  0  0  0  0  0  0  0  0  0  0
   -4.0470   21.9590  -32.2870 C   0  0  0  0  0  0  0  0  0  0  0  0
   -5.0260   22.8140  -31.7690 C   0  0  0  0  0  0  0  0  0  0  0  0
   -4.6290   24.0950  -31.2590 N   0  0  0  0  0  0  0  0  0  0  0  0
   -4.4880   24.4460  -29.8750 C   0  0  0  0  0  0  0  0  0  0  0  0
   -5.2170   25.3620  -29.4100 O   0  0  0  0  0  0  0  0  0  0  0  0
   -3.4670   23.8130  -29.0050 C   0  0  0  0  0  0  0  0  0  0  0  0
   -3.7290   22.5650  -28.4090 C   0  0  0  0  0  0  0  0  0  0  0  0
   -2.7740   21.9540  -27.5910 C   0  0  0  0  0  0  0  0  0  0  0  0
   -1.5410   22.5770  -27.3640 C   0  0  0  0  0  0  0  0  0  0  0  0
   -0.5800   21.9750  -26.5530 O   0  0  0  0  0  0  0  0  0  0  0  0
   -1.2670   23.8120  -27.9580 C   0  0  0  0  0  0  0  0  0  0  0  0
   -2.2200   24.4310  -28.7760 C   0  0  0  0  0  0  0  0  0  0  0  0
   -1.9230   25.6670  -29.3420 O   0  0  0  0  0  0  0  0  0  0  0  0
   -6.3760   22.4220  -31.8070 C   0  0  0  0  0  0  0  0  0  0  0  0
   -6.7360   21.1710  -32.3190 C   0  0  0  0  0  0  0  0  0  0  0  0
   -8.4340   20.7140  -32.3490 Cl  0  0  0  0  0  0  0  0  0  0  0  0
   -6.6970   18.0170  -32.4670 C   0  0  0  0  0  0  0  0  0  0  0  0
   -6.9040   16.6970  -33.2220 C   0  0  0  0  0  0  0  0  0  0  0  0
   -4.8822   15.9871  -32.1129 H   0  0  0  0  0  0  0  0  0  0  0  0
   -4.3905   14.8147  -33.3820 H   0  0  0  0  0  0  0  0  0  0  0  0
   -3.7090   16.4767  -33.3820 H   0  0  0  0  0  0  0  0  0  0  0  0
   -4.1890   17.4927  -34.8977 H   0  0  0  0  0  0  0  0  0  0  0  0
   -5.5920   17.0326  -35.9854 H   0  0  0  0  0  0  0  0  0  0  0  0
   -5.2957   19.5308  -35.2183 H   0  0  0  0  0  0  0  0  0  0  0  0
   -6.9237   18.7586  -35.2469 H   0  0  0  0  0  0  0  0  0  0  0  0
   -3.6260   20.0356  -33.1924 H   0  0  0  0  0  0  0  0  0  0  0  0
   -2.9928   22.2731  -32.2923 H   0  0  0  0  0  0  0  0  0  0  0  0
   -4.6930   22.0664  -28.5883 H   0  0  0  0  0  0  0  0  0  0  0  0
   -2.9918   20.9818  -27.1248 H   0  0  0  0  0  0  0  0  0  0  0  0
   -0.7190   21.8750  -25.5530 H   0  0  0  0  0  0  0  0  0  0  0  0
   -0.2973   24.3005  -27.7819 H   0  0  0  0  0  0  0  0  0  0  0  0
   -7.1538   23.1034  -31.4318 H   0  0  0  0  0  0  0  0  0  0  0  0
   -6.0374   17.8406  -31.6046 H   0  0  0  0  0  0  0  0  0  0  0  0
   -7.6752   18.3889  -32.1281 H   0  0  0  0  0  0  0  0  0  0  0  0
   -7.1033   15.8976  -32.4931 H   0  0  0  0  0  0  0  0  0  0  0  0
   -7.7528   16.8264  -33.9096 H   0  0  0  0  0  0  0  0  0  0  0  0
  1  2  1  0
  2  3  1  0
  3  4  1  0
  4  5  1  0
  5  6  1  0
  6  7  2  0
  7  8  1  0
  8  9  2  0
  9 10  1  0
 10 11  1  0
 11 12  2  0
 11 13  1  0
 13 14  2  0
 14 15  1  0
 15 16  2  0
 16 17  1  0
 16 18  1  0
 18 19  2  0
 19 20  1  0
  9 21  1  0
 21 22  2  0
 22 23  1  0
  5 24  1  0
 24 25  1  0
 25  2  1  0
 22  6  1  0
 19 13  1  0
  1 26  1  0
  1 27  1  0
  1 28  1  0
  3 29  1  0
  3 30  1  0
  4 31  1  0
  4 32  1  0
  7 33  1  0
  8 34  1  0
 14 35  1  0
 15 36  1  0
 17 37  1  0
 18 38  1  0
 21 39  1  0
 24 40  1  0
 24 41  1  0
 25 42  1  0
 25 43  1  0
M  CHG  2  10  -1  20  -1
M  END
>  <UniqueID>  (13) 
12

>  <SMILES>  (13) 
CN1CCN(c2ccc([N-]C(=O)c3ccc(O)cc3[O-])cc2Cl)CC1

>  <Energy>  (13) 
65.10824683717314

>  <Genealogy>  (13) 
CN1CCN(c2ccc([N-]C(=O)c3ccc(O)cc3[O-])cc2Cl)CC1 (protonated)
CN1CCN(c2ccc([N-]C(=O)c3ccc(O)cc3[O-])cc2Cl)CC1 (3D coordinates assigned)
CN1CCN(c2ccc([N-]C(=O)c3ccc(O)cc3[O-])cc2Cl)CC1 (nonaromatic ring conformer: 65.10824683717314 kcal/mol)

>  <smiles>  (13) 
CN1CCN(c2ccc(NC(=O)c3ccc(O)cc3O)cc2Cl)CC1

>  <score_type>  (13) 
oracle

>  <origin>  (13) 
adgpu

>  <m_score__min__energy>  (13) 
-12.18

>  <m_primary>  (13) 
energy

$$$$
13:0
     RDKit          3D

 26 27  0  0  0  0  0  0  0  0999 V2000
   -4.2360   25.6770  -30.5350 O   0  0  0  0  0  0  0  0  0  0  0  0
   -4.0050   24.4370  -30.5110 C   0  0  0  0  0  0  0  0  0  0  0  0
   -4.4420   23.6160  -31.6010 N   0  0  0  0  0  0  0  0  0  0  0  0
   -5.6770   22.8880  -31.6550 C   0  0  0  0  0  0  0  0  0  0  0  0
   -5.6620   21.5830  -32.1640 C   0  0  0  0  0  0  0  0  0  0  0  0
   -6.8400   20.8350  -32.2290 C   0  0  0  0  0  0  0  0  0  0  0  0
   -8.0410   21.3800  -31.7690 C   0  0  0  0  0  0  0  0  0  0  0  0
   -8.0620   22.6670  -31.2270 C   0  0  0  0  0  0  0  0  0  0  0  0
   -6.8820   23.4230  -31.1510 C   0  0  0  0  0  0  0  0  0  0  0  0
   -6.9030   24.6800  -30.5490 O   0  0  0  0  0  0  0  0  0  0  0  0
   -3.2410   23.8350  -29.3850 C   0  0  0  0  0  0  0  0  0  0  0  0
   -3.6660   22.6110  -28.8310 C   0  0  0  0  0  0  0  0  0  0  0  0
   -2.9650   22.0260  -27.7720 C   0  0  0  0  0  0  0  0  0  0  0  0
   -1.8330   22.6510  -27.2510 C   0  0  0  0  0  0  0  0  0  0  0  0
   -1.3970   23.8640  -27.7860 C   0  0  0  0  0  0  0  0  0  0  0  0
   -2.0910   24.4610  -28.8460 C   0  0  0  0  0  0  0  0  0  0  0  0
   -1.6250   25.6720  -29.3460 O   0  0  0  0  0  0  0  0  0  0  0  0
   -4.7163   21.1443  -32.5149 H   0  0  0  0  0  0  0  0  0  0  0  0
   -6.8218   19.8160  -32.6428 H   0  0  0  0  0  0  0  0  0  0  0  0
   -8.9705   20.7954  -31.8336 H   0  0  0  0  0  0  0  0  0  0  0  0
   -9.0079   23.0901  -30.8579 H   0  0  0  0  0  0  0  0  0  0  0  0
   -6.0620   25.2390  -30.4570 H   0  0  0  0  0  0  0  0  0  0  0  0
   -4.5582   22.1107  -29.2357 H   0  0  0  0  0  0  0  0  0  0  0  0
   -3.3076   21.0702  -27.3489 H   0  0  0  0  0  0  0  0  0  0  0  0
   -1.2834   22.1880  -26.4182 H   0  0  0  0  0  0  0  0  0  0  0  0
   -0.5031   24.3541  -27.3728 H   0  0  0  0  0  0  0  0  0  0  0  0
  1  2  2  0
  2  3  1  0
  3  4  1  0
  4  5  2  0
  5  6  1  0
  6  7  2  0
  7  8  1  0
  8  9  2  0
  9 10  1  0
  2 11  1  0
 11 12  2  0
 12 13  1  0
 13 14  2  0
 14 15  1  0
 15 16  2  0
 16 17  1  0
  9  4  1  0
 16 11  1  0
  5 18  1  0
  6 19  1  0
  7 20  1  0
  8 21  1  0
 10 22  1  0
 12 23  1  0
 13 24  1  0
 14 25  1  0
 15 26  1  0
M  CHG  2   3  -1  17  -1
M  END
>  <UniqueID>  (14) 
13

>  <SMILES>  (14) 
O=C([N-]c1ccccc1O)c1ccccc1[O-]

>  <Energy>  (14) 
34.715226469988686

>  <Genealogy>  (14) 
O=C([N-]c1ccccc1O)c1ccccc1[O-] (protonated)
O=C([N-]c1ccccc1O)c1ccccc1[O-] (3D coordinates assigned)
O=C([N-]c1ccccc1O)c1ccccc1[O-] (optimized conformer: 34.715226469988686 kcal/mol)

>  <smiles>  (14) 
O=C(Nc1ccccc1O)c1ccccc1O

>  <score_type>  (14) 
oracle

>  <origin>  (14) 
adgpu

>  <m_score__min__energy>  (14) 
-10.32

>  <m_primary>  (14) 
energy

$$$$
14:0
     RDKit          3D

 41 43  0  0  0  0  0  0  0  0999 V2000
    0.0990   20.4090  -31.4240 C   0  0  0  0  0  0  0  0  0  0  0  0
   -0.7540   21.4380  -31.9130 O   0  0  0  0  0  0  0  0  0  0  0  0
   -2.1530   21.3470  -31.9720 C   0  0  0  0  0  0  0  0  0  0  0  0
   -2.8730   21.5340  -33.1670 C   0  0  0  0  0  0  0  0  0  0  0  0
   -4.2670   21.4320  -33.1740 C   0  0  0  0  0  0  0  0  0  0  0  0
   -4.9640   21.1340  -31.9930 C   0  0  0  0  0  0  0  0  0  0  0  0
   -6.3980   21.0350  -32.0070 N   0  0  0  0  0  0  0  0  0  0  0  0
   -7.1190   19.9150  -31.8250 C   0  0  0  0  0  0  0  0  0  0  0  0
   -8.4540   20.2490  -31.8780 C   0  0  0  0  0  0  0  0  0  0  0  0
   -8.5810   21.5760  -32.0780 N   0  0  0  0  0  0  0  0  0  0  0  0
   -7.3100   22.0230  -32.1500 C   0  0  0  0  0  0  0  0  0  0  0  0
   -6.9170   23.7700  -32.3030 S   0  0  0  0  0  0  0  0  0  0  0  0
   -6.7810   24.0510  -30.5040 C   0  0  0  0  0  0  0  0  0  0  0  0
   -5.3760   24.4090  -30.1260 C   0  0  0  0  0  0  0  0  0  0  0  0
   -4.6200   24.9360  -30.9860 O   0  0  0  0  0  0  0  0  0  0  0  0
   -4.9130   24.1820  -28.7860 N   0  0  0  0  0  0  0  0  0  0  0  0
   -3.5290   24.2050  -28.3970 C   0  0  0  0  0  0  0  0  0  0  0  0
   -2.5410   23.9370  -29.3580 C   0  0  0  0  0  0  0  0  0  0  0  0
   -1.1870   23.9780  -29.0090 C   0  0  0  0  0  0  0  0  0  0  0  0
   -0.8080   24.3000  -27.7040 C   0  0  0  0  0  0  0  0  0  0  0  0
    0.5050   24.3410  -27.3700 F   0  0  0  0  0  0  0  0  0  0  0  0
   -1.7830   24.5890  -26.7460 C   0  0  0  0  0  0  0  0  0  0  0  0
   -3.1380   24.5500  -27.0890 C   0  0  0  0  0  0  0  0  0  0  0  0
   -4.2460   20.9620  -30.7990 C   0  0  0  0  0  0  0  0  0  0  0  0
   -2.8520   21.0640  -30.7930 C   0  0  0  0  0  0  0  0  0  0  0  0
    0.0913   20.4182  -30.3241 H   0  0  0  0  0  0  0  0  0  0  0  0
   -0.2590   19.4335  -31.7850 H   0  0  0  0  0  0  0  0  0  0  0  0
    1.1239   20.5799  -31.7850 H   0  0  0  0  0  0  0  0  0  0  0  0
   -2.3361   21.7615  -34.0997 H   0  0  0  0  0  0  0  0  0  0  0  0
   -4.8214   21.5863  -34.1115 H   0  0  0  0  0  0  0  0  0  0  0  0
   -6.7127   18.9059  -31.6619 H   0  0  0  0  0  0  0  0  0  0  0  0
   -9.2892   19.5409  -31.7731 H   0  0  0  0  0  0  0  0  0  0  0  0
   -7.4526   24.8731  -30.2156 H   0  0  0  0  0  0  0  0  0  0  0  0
   -7.0620   23.1253  -29.9804 H   0  0  0  0  0  0  0  0  0  0  0  0
   -5.6330   24.0470  -28.0400 H   0  0  0  0  0  0  0  0  0  0  0  0
   -2.8331   23.6936  -30.3902 H   0  0  0  0  0  0  0  0  0  0  0  0
   -0.4188   23.7560  -29.7644 H   0  0  0  0  0  0  0  0  0  0  0  0
   -1.4840   24.8478  -25.7195 H   0  0  0  0  0  0  0  0  0  0  0  0
   -3.9014   24.7897  -26.3342 H   0  0  0  0  0  0  0  0  0  0  0  0
   -4.7830   20.7459  -29.8636 H   0  0  0  0  0  0  0  0  0  0  0  0
   -2.2992   20.9205  -29.8529 H   0  0  0  0  0  0  0  0  0  0  0  0
  1  2  1  0
  2  3  1  0
  3  4  2  0
  4  5  1  0
  5  6  2  0
  6  7  1  0
  7  8  1  0
  8  9  2  0
  9 10  1  0
 10 11  2  0
 11 12  1  0
 12 13  1  0
 13 14  1  0
 14 15  2  0
 14 16  1  0
 16 17  1  0
 17 18  2  0
 18 19  1  0
 19 20  2  0
 20 21  1  0
 20 22  1  0
 22 23  2  0
  6 24  1  0
 24 25  2  0
 25  3  1  0
 11  7  1  0
 23 17  1  0
  1 26  1  0
  1 27  1  0
  1 28  1  0
  4 29  1  0
  5 30  1  0
  8 31  1  0
  9 32  1  0
 13 33  1  0
 13 34  1  0
 16 35  1  0
 18 36  1  0
 19 37  1  0
 22 38  1  0
 23 39  1  0
 24 40  1  0
 25 41  1  0
M  END
>  <UniqueID>  (15) 
14

>  <SMILES>  (15) 
COc1ccc(-n2ccnc2SCC(=O)Nc2ccc(F)cc2)cc1

>  <Energy>  (15) 
75.0274894458773

>  <Genealogy>  (15) 
COc1ccc(-n2ccnc2SCC(=O)Nc2ccc(F)cc2)cc1 (3D coordinates assigned)
COc1ccc(-n2ccnc2SCC(=O)Nc2ccc(F)cc2)cc1 (optimized conformer: 75.0274894458773 kcal/mol)

>  <smiles>  (15) 
COc1ccc(-n2ccnc2SCC(=O)Nc2ccc(F)cc2)cc1

>  <score_type>  (15) 
oracle

>  <origin>  (15) 
adgpu

>  <m_score__min__energy>  (15) 
-8.6300000000000008

>  <m_primary>  (15) 
energy

$$$$
15:0
     RDKit          3D

 25 26  0  0  0  0  0  0  0  0999 V2000
   -3.3850   24.5660  -27.8660 O   0  0  0  0  0  0  0  0  0  0  0  0
   -2.5260   24.5780  -29.0980 S   0  0  0  0  0  0  0  0  0  0  0  0
   -1.4710   25.6390  -28.9460 O   0  0  0  0  0  0  0  0  0  0  0  0
   -3.5110   24.9440  -30.4770 N   0  0  0  0  0  0  0  0  0  0  0  0
   -4.7930   24.3660  -30.7550 C   0  0  0  0  0  0  0  0  0  0  0  0
   -5.9280   24.9350  -30.1600 C   0  0  0  0  0  0  0  0  0  0  0  0
   -7.1970   24.4000  -30.3990 C   0  0  0  0  0  0  0  0  0  0  0  0
   -7.3420   23.2900  -31.2360 C   0  0  0  0  0  0  0  0  0  0  0  0
   -6.2180   22.7180  -31.8360 C   0  0  0  0  0  0  0  0  0  0  0  0
   -4.9470   23.2520  -31.6010 C   0  0  0  0  0  0  0  0  0  0  0  0
   -1.7790   23.0020  -29.2900 C   0  0  0  0  0  0  0  0  0  0  0  0
   -1.6510   22.1420  -28.1920 C   0  0  0  0  0  0  0  0  0  0  0  0
   -1.0640   20.8880  -28.3720 C   0  0  0  0  0  0  0  0  0  0  0  0
   -0.6130   20.5070  -29.6370 C   0  0  0  0  0  0  0  0  0  0  0  0
   -0.7570   21.3920  -30.7090 C   0  0  0  0  0  0  0  0  0  0  0  0
   -1.3320   22.6090  -30.5130 N   0  0  0  0  0  0  0  0  0  0  0  0
   -5.8190   25.8086  -29.5005 H   0  0  0  0  0  0  0  0  0  0  0  0
   -8.0820   24.8528  -29.9281 H   0  0  0  0  0  0  0  0  0  0  0  0
   -8.3404   22.8674  -31.4220 H   0  0  0  0  0  0  0  0  0  0  0  0
   -6.3328   21.8450  -32.4953 H   0  0  0  0  0  0  0  0  0  0  0  0
   -4.0653   22.8000  -32.0787 H   0  0  0  0  0  0  0  0  0  0  0  0
   -2.0090   22.4511  -27.1988 H   0  0  0  0  0  0  0  0  0  0  0  0
   -0.9572   20.2018  -27.5189 H   0  0  0  0  0  0  0  0  0  0  0  0
   -0.1494   19.5210  -29.7884 H   0  0  0  0  0  0  0  0  0  0  0  0
   -0.4055   21.1045  -31.7109 H   0  0  0  0  0  0  0  0  0  0  0  0
  1  2  2  0
  2  3  2  0
  2  4  1  0
  4  5  1  0
  5  6  2  0
  6  7  1  0
  7  8  2  0
  8  9  1  0
  9 10  2  0
  2 11  1  0
 11 12  2  0
 12 13  1  0
 13 14  2  0
 14 15  1  0
 15 16  2  0
 10  5  1  0
 16 11  1  0
  6 17  1  0
  7 18  1  0
  8 19  1  0
  9 20  1  0
 10 21  1  0
 12 22  1  0
 13 23  1  0
 14 24  1  0
 15 25  1  0
M  CHG  1   4  -1
M  END
>  <UniqueID>  (16) 
15

>  <SMILES>  (16) 
O=S(=O)([N-]c1ccccc1)c1ccccn1

>  <Energy>  (16) 
29.38767416755726

>  <Genealogy>  (16) 
O=S(=O)([N-]c1ccccc1)c1ccccn1 (protonated)
O=S(=O)([N-]c1ccccc1)c1ccccn1 (3D coordinates assigned)
O=S(=O)([N-]c1ccccc1)c1ccccn1 (optimized conformer: 29.38767416755726 kcal/mol)

>  <smiles>  (16) 
O=S(=O)(Nc1ccccc1)c1ccccn1

>  <score_type>  (16) 
oracle

>  <origin>  (16) 
adgpu

>  <m_score__min__energy>  (16) 
-7.3799999999999999

>  <m_primary>  (16) 
energy

$$$$
16:0
     RDKit          3D

 45 47  0  0  0  0  0  0  0  0999 V2000
   -9.1430   20.3760  -32.4210 C   0  0  0  0  0  0  0  0  0  0  0  0
   -7.9230   20.7240  -31.5640 C   0  0  2  0  0  0  0  0  0  0  0  0
   -8.1550   22.0380  -30.7980 C   0  0  0  0  0  0  0  0  0  0  0  0
   -6.9030   22.8780  -30.7580 C   0  0  0  0  0  0  0  0  0  0  0  0
   -5.7520   22.4060  -30.1040 C   0  0  0  0  0  0  0  0  0  0  0  0
   -4.6140   23.2130  -30.0120 C   0  0  0  0  0  0  0  0  0  0  0  0
   -4.6160   24.4950  -30.5700 C   0  0  0  0  0  0  0  0  0  0  0  0
   -3.4850   25.2960  -30.4750 O   0  0  0  0  0  0  0  0  0  0  0  0
   -5.7570   24.9700  -31.2220 C   0  0  0  0  0  0  0  0  0  0  0  0
   -6.8980   24.1680  -31.3150 C   0  0  0  0  0  0  0  0  0  0  0  0
   -6.7370   20.8370  -32.4200 N   0  0  0  0  0  0  0  0  0  0  0  0
   -5.7700   19.7780  -32.5400 C   0  0  0  0  0  0  0  0  0  0  0  0
   -6.1020   18.5970  -32.2440 O   0  0  0  0  0  0  0  0  0  0  0  0
   -4.3890   20.0460  -33.0100 C   0  0  0  0  0  0  0  0  0  0  0  0
   -3.8070   21.3190  -32.8770 C   0  0  0  0  0  0  0  0  0  0  0  0
   -2.4960   21.5490  -33.3030 C   0  0  0  0  0  0  0  0  0  0  0  0
   -1.7340   20.5110  -33.8670 C   0  0  0  0  0  0  0  0  0  0  0  0
   -0.3410   20.7570  -34.3170 C   0  0  0  0  0  0  0  0  0  0  0  0
   -0.0510   21.8090  -35.2070 C   0  0  0  0  0  0  0  0  0  0  0  0
    1.2620   22.0380  -35.6290 C   0  0  0  0  0  0  0  0  0  0  0  0
    2.2990   21.2240  -35.1700 C   0  0  0  0  0  0  0  0  0  0  0  0
    2.0250   20.1770  -34.2860 C   0  0  0  0  0  0  0  0  0  0  0  0
    0.7140   19.9430  -33.8610 C   0  0  0  0  0  0  0  0  0  0  0  0
   -2.3120   19.2370  -33.9910 C   0  0  0  0  0  0  0  0  0  0  0  0
   -3.6220   19.0060  -33.5640 C   0  0  0  0  0  0  0  0  0  0  0  0
   -9.9934   20.1334  -31.7669 H   0  0  0  0  0  0  0  0  0  0  0  0
   -9.4024   21.2360  -33.0559 H   0  0  0  0  0  0  0  0  0  0  0  0
   -8.9097   19.5086  -33.0559 H   0  0  0  0  0  0  0  0  0  0  0  0
   -7.7643   19.9218  -30.8283 H   0  0  0  0  0  0  0  0  0  0  0  0
   -8.9527   22.6076  -31.2972 H   0  0  0  0  0  0  0  0  0  0  0  0
   -8.4406   21.7915  -29.7647 H   0  0  0  0  0  0  0  0  0  0  0  0
   -5.7465   21.3983  -29.6630 H   0  0  0  0  0  0  0  0  0  0  0  0
   -3.7155   22.8386  -29.4997 H   0  0  0  0  0  0  0  0  0  0  0  0
   -5.7573   25.9776  -31.6632 H   0  0  0  0  0  0  0  0  0  0  0  0
   -7.7950   24.5480  -31.8259 H   0  0  0  0  0  0  0  0  0  0  0  0
   -6.5360   21.7650  -32.8550 H   0  0  0  0  0  0  0  0  0  0  0  0
   -4.3885   22.1409  -32.4339 H   0  0  0  0  0  0  0  0  0  0  0  0
   -2.0563   22.5516  -33.1960 H   0  0  0  0  0  0  0  0  0  0  0  0
   -0.8629   22.4549  -35.5726 H   0  0  0  0  0  0  0  0  0  0  0  0
    1.4786   22.8620  -36.3248 H   0  0  0  0  0  0  0  0  0  0  0  0
    3.3311   21.4066  -35.5039 H   0  0  0  0  0  0  0  0  0  0  0  0
    2.8423   19.5359  -33.9240 H   0  0  0  0  0  0  0  0  0  0  0  0
    0.5048   19.1170  -33.1653 H   0  0  0  0  0  0  0  0  0  0  0  0
   -1.7280   18.4137  -34.4282 H   0  0  0  0  0  0  0  0  0  0  0  0
   -4.0576   18.0007  -33.6622 H   0  0  0  0  0  0  0  0  0  0  0  0
  1  2  1  0
  2  3  1  0
  3  4  1  0
  4  5  2  0
  5  6  1  0
  6  7  2  0
  7  8  1  0
  7  9  1  0
  9 10  2  0
  2 11  1  0
 11 12  1  0
 12 13  2  0
 12 14  1  0
 14 15  2  0
 15 16  1  0
 16 17  2  0
 17 18  1  0
 18 19  2  0
 19 20  1  0
 20 21  2  0
 21 22  1  0
 22 23  2  0
 17 24  1  0
 24 25  2  0
 10  4  1  0
 25 14  1  0
 23 18  1  0
  1 26  1  0
  1 27  1  0
  1 28  1  0
  2 29  1  1
  3 30  1  0
  3 31  1  0
  5 32  1  0
  6 33  1  0
  9 34  1  0
 10 35  1  0
 11 36  1  0
 15 37  1  0
 16 38  1  0
 19 39  1  0
 20 40  1  0
 21 41  1  0
 22 42  1  0
 23 43  1  0
 24 44  1  0
 25 45  1  0
M  CHG  1   8  -1
M  END
>  <UniqueID>  (17) 
16

>  <SMILES>  (17) 
C[C@H](Cc1ccc([O-])cc1)NC(=O)c1ccc(-c2ccccc2)cc1

>  <Energy>  (17) 
48.27127387682519

>  <Genealogy>  (17) 
CC(Cc1ccc([O-])cc1)NC(=O)c1ccc(-c2ccccc2)cc1 (protonated)
C[C@H](Cc1ccc([O-])cc1)NC(=O)c1ccc(-c2ccccc2)cc1 (chirality)
C[C@H](Cc1ccc([O-])cc1)NC(=O)c1ccc(-c2ccccc2)cc1 (3D coordinates assigned)
C[C@H](Cc1ccc([O-])cc1)NC(=O)c1ccc(-c2ccccc2)cc1 (optimized conformer: 48.27127387682519 kcal/mol)

>  <smiles>  (17) 
CC(Cc1ccc(O)cc1)NC(=O)c1ccc(-c2ccccc2)cc1

>  <score_type>  (17) 
oracle

>  <origin>  (17) 
adgpu

>  <m_score__min__energy>  (17) 
-11.890000000000001

>  <m_primary>  (17) 
energy

$$$$
17:0
     RDKit          3D

 41 43  0  0  0  0  0  0  0  0999 V2000
    0.0166   26.5481  -27.4916 H   0  0  0  0  0  0  0  0  0  0  0  0
   -0.9210   25.9740  -27.4560 C   0  0  0  0  0  0  0  0  0  0  0  0
   -1.3720   25.3000  -28.5960 C   0  0  0  0  0  0  0  0  0  0  0  0
   -0.7774   25.3302  -29.5210 H   0  0  0  0  0  0  0  0  0  0  0  0
   -2.5770   24.5870  -28.5650 C   0  0  0  0  0  0  0  0  0  0  0  0
   -2.9880   23.8570  -29.7310 N   0  0  0  0  0  0  0  0  0  0  0  0
   -4.1990   23.7370  -30.2020 C   0  0  0  0  0  0  0  0  0  0  0  0
   -4.4090   22.8850  -31.2910 C   0  0  0  0  0  0  0  0  0  0  0  0
   -3.5595   22.3470  -31.7371 H   0  0  0  0  0  0  0  0  0  0  0  0
   -5.6930   22.7140  -31.8150 C   0  0  0  0  0  0  0  0  0  0  0  0
   -5.8530   21.8220  -32.8850 O   0  0  0  0  0  0  0  0  0  0  0  0
   -5.6530   20.4330  -32.8210 C   0  0  0  0  0  0  0  0  0  0  0  0
   -6.7620   19.6070  -32.5480 C   0  0  0  0  0  0  0  0  0  0  0  0
   -8.1170   20.2120  -32.3160 C   0  0  0  0  0  0  0  0  0  0  0  0
   -8.3015   20.2944  -31.2347 H   0  0  0  0  0  0  0  0  0  0  0  0
   -8.1548   21.2125  -32.7717 H   0  0  0  0  0  0  0  0  0  0  0  0
   -8.8871   19.5722  -32.7717 H   0  0  0  0  0  0  0  0  0  0  0  0
   -6.5830   18.2210  -32.4230 C   0  0  0  0  0  0  0  0  0  0  0  0
   -7.4441   17.5785  -32.1869 H   0  0  0  0  0  0  0  0  0  0  0  0
   -5.3200   17.6510  -32.5960 C   0  0  0  0  0  0  0  0  0  0  0  0
   -5.1450   16.2280  -32.4590 C   0  0  0  0  0  0  0  0  0  0  0  0
   -5.0070   15.0850  -32.3490 N   0  0  0  0  0  0  0  0  0  0  0  0
   -4.2260   18.4620  -32.9110 C   0  0  0  0  0  0  0  0  0  0  0  0
   -3.2339   18.0080  -33.0513 H   0  0  0  0  0  0  0  0  0  0  0  0
   -4.3810   19.8500  -33.0500 C   0  0  0  0  0  0  0  0  0  0  0  0
   -3.1890   20.6800  -33.4390 C   0  0  0  0  0  0  0  0  0  0  0  0
   -2.6782   21.0357  -32.5321 H   0  0  0  0  0  0  0  0  0  0  0  0
   -2.4952   20.0687  -34.0347 H   0  0  0  0  0  0  0  0  0  0  0  0
   -3.5216   21.5428  -34.0347 H   0  0  0  0  0  0  0  0  0  0  0  0
   -6.7590   23.4590  -31.2700 C   0  0  0  0  0  0  0  0  0  0  0  0
   -8.3850   23.4220  -31.9440 Cl  0  0  0  0  0  0  0  0  0  0  0  0
   -6.5080   24.3200  -30.2000 C   0  0  0  0  0  0  0  0  0  0  0  0
   -7.3329   24.9041  -29.7661 H   0  0  0  0  0  0  0  0  0  0  0  0
   -5.2520   24.4440  -29.6880 N   0  0  0  0  0  0  0  0  0  0  0  0
   -5.1200   25.1380  -28.9200 H   0  0  0  0  0  0  0  0  0  0  0  0
   -3.3000   24.5050  -27.3620 C   0  0  0  0  0  0  0  0  0  0  0  0
   -4.2235   23.9091  -27.3163 H   0  0  0  0  0  0  0  0  0  0  0  0
   -2.8480   25.1790  -26.2240 C   0  0  0  0  0  0  0  0  0  0  0  0
   -3.4264   25.1279  -25.2897 H   0  0  0  0  0  0  0  0  0  0  0  0
   -1.6620   25.9180  -26.2710 C   0  0  0  0  0  0  0  0  0  0  0  0
   -1.0940   26.7610  -24.8400 Cl  0  0  0  0  0  0  0  0  0  0  0  0
  1  2  1  0
  2  3  2  0
  3  4  1  0
  3  5  1  0
  5  6  1  0
  6  7  2  0
  7  8  1  0
  8  9  1  0
  8 10  2  0
 10 11  1  0
 11 12  1  0
 12 13  2  0
 13 14  1  0
 14 15  1  0
 14 16  1  0
 14 17  1  0
 13 18  1  0
 18 19  1  0
 18 20  2  0
 20 21  1  0
 21 22  3  0
 20 23  1  0
 23 24  1  0
 23 25  2  0
 25 26  1  0
 26 27  1  0
 26 28  1  0
 26 29  1  0
 10 30  1  0
 30 31  1  0
 30 32  2  0
 32 33  1  0
 32 34  1  0
 34 35  1  0
  5 36  2  0
 36 37  1  0
 36 38  1  0
 38 39  1  0
 38 40  2  0
 40 41  1  0
 40  2  1  0
 34  7  1  0
 25 12  1  0
M  END
>  <UniqueID>  (18) 
17

>  <SMILES>  (18) 
Cc1cc(C#N)cc(C)c1Oc1c/c(=N/c2ccc(Cl)cc2)[nH]cc1Cl

>  <Energy>  (18) 
62.32057303360936

>  <Genealogy>  (18) 
Cc1cc(C#N)cc(C)c1Oc1c/c(=N/c2ccc(Cl)cc2)[nH]cc1Cl (cis-trans isomerization)
Cc1cc(C#N)cc(C)c1Oc1c/c(=N/c2ccc(Cl)cc2)[nH]cc1Cl (3D coordinates assigned)
Cc1cc(C#N)cc(C)c1Oc1c/c(=N/c2ccc(Cl)cc2)[nH]cc1Cl (optimized conformer: 62.32057303360936 kcal/mol)

>  <smiles>  (18) 
Cc1cc(C#N)cc(C)c1Oc1cc(=Nc2ccc(Cl)cc2)[nH]cc1Cl

>  <score_type>  (18) 
oracle

>  <origin>  (18) 
adgpu

>  <m_score__min__energy>  (18) 
-9.1099999999999994

>  <m_primary>  (18) 
energy

$$$$
18:0
     RDKit          3D

 59 63  0  0  0  0  0  0  0  0999 V2000
    0.9990   24.5110  -28.3770 O   0  0  0  0  0  0  0  0  0  0  0  0
    0.2460   23.5180  -28.4660 N   0  0  0  0  0  0  0  0  0  0  0  0
    0.6800   22.3060  -27.9840 O   0  0  0  0  0  0  0  0  0  0  0  0
   -1.0340   23.6310  -29.1080 C   0  0  0  0  0  0  0  0  0  0  0  0
   -1.4620   22.6780  -30.0590 C   0  0  0  0  0  0  0  0  0  0  0  0
   -0.6800   21.5160  -30.3720 N   0  0  0  0  0  0  0  0  0  0  0  0
   -0.7910   20.7780  -31.6000 C   0  0  0  0  0  0  0  0  0  0  0  0
   -1.9570   20.0560  -31.9220 C   0  0  0  0  0  0  0  0  0  0  0  0
   -2.0360   19.3440  -33.1240 C   0  0  0  0  0  0  0  0  0  0  0  0
   -0.9620   19.3560  -34.0170 C   0  0  0  0  0  0  0  0  0  0  0  0
    0.1930   20.0810  -33.7120 C   0  0  0  0  0  0  0  0  0  0  0  0
    0.2760   20.7930  -32.5120 C   0  0  0  0  0  0  0  0  0  0  0  0
   -2.6390   22.8620  -30.7090 N   0  0  0  0  0  0  0  0  0  0  0  0
   -3.4390   23.9300  -30.4470 C   0  0  0  0  0  0  0  0  0  0  0  0
   -4.6570   24.0980  -31.1150 O   0  0  0  0  0  0  0  0  0  0  0  0
   -5.4650   23.0500  -31.5770 C   0  0  0  0  0  0  0  0  0  0  0  0
   -4.8870   22.0550  -32.3680 C   0  0  0  0  0  0  0  0  0  0  0  0
   -5.6530   20.9840  -32.8330 C   0  0  0  0  0  0  0  0  0  0  0  0
   -7.0110   20.8800  -32.4950 C   0  0  0  0  0  0  0  0  0  0  0  0
   -7.6090   21.8880  -31.7000 C   0  0  0  0  0  0  0  0  0  0  0  0
   -6.8240   22.9520  -31.2300 C   0  0  0  0  0  0  0  0  0  0  0  0
   -9.0450   21.7830  -31.2440 C   0  0  0  0  0  0  0  0  0  0  0  0
   -9.8750   20.8430  -32.1230 C   0  0  0  0  0  0  0  0  0  0  0  0
   -9.1400   19.5170  -32.3270 C   0  0  0  0  0  0  0  0  0  0  0  0
   -7.8240   19.7460  -33.0760 C   0  0  0  0  0  0  0  0  0  0  0  0
   -3.0670   24.8340  -29.5090 N   0  0  0  0  0  0  0  0  0  0  0  0
   -1.8870   24.7220  -28.8450 C   0  0  0  0  0  0  0  0  0  0  0  0
   -1.4170   26.0440  -27.7200 S   0  0  0  0  0  0  0  0  0  0  0  0
   -1.6300   25.0590  -26.1910 C   0  0  0  0  0  0  0  0  0  0  0  0
   -0.3240   24.8670  -25.4540 C   0  0  0  0  0  0  0  0  0  0  0  0
    0.4920   25.9820  -25.1640 C   0  0  0  0  0  0  0  0  0  0  0  0
    0.1100   27.2370  -25.5190 F   0  0  0  0  0  0  0  0  0  0  0  0
    1.7190   25.8110  -24.5190 C   0  0  0  0  0  0  0  0  0  0  0  0
    2.1440   24.5360  -24.1450 C   0  0  0  0  0  0  0  0  0  0  0  0
    1.3470   23.4240  -24.4190 C   0  0  0  0  0  0  0  0  0  0  0  0
    0.1180   23.5790  -25.0730 C   0  0  0  0  0  0  0  0  0  0  0  0
   -0.8320   22.1350  -25.4080 Cl  0  0  0  0  0  0  0  0  0  0  0  0
    0.0910   21.2650  -29.7130 H   0  0  0  0  0  0  0  0  0  0  0  0
   -2.8087   20.0519  -31.2258 H   0  0  0  0  0  0  0  0  0  0  0  0
   -2.9452   18.7740  -33.3660 H   0  0  0  0  0  0  0  0  0  0  0  0
   -1.0254   18.7945  -34.9608 H   0  0  0  0  0  0  0  0  0  0  0  0
    1.0375   20.0914  -34.4168 H   0  0  0  0  0  0  0  0  0  0  0  0
    1.1840   21.3692  -32.2807 H   0  0  0  0  0  0  0  0  0  0  0  0
   -3.8196   22.1153  -32.6269 H   0  0  0  0  0  0  0  0  0  0  0  0
   -5.1884   20.2161  -33.4690 H   0  0  0  0  0  0  0  0  0  0  0  0
   -7.2768   23.7177  -30.5830 H   0  0  0  0  0  0  0  0  0  0  0  0
   -9.0599   21.4044  -30.2113 H   0  0  0  0  0  0  0  0  0  0  0  0
   -9.4912   22.7859  -31.3150 H   0  0  0  0  0  0  0  0  0  0  0  0
  -10.8420   20.6502  -31.6354 H   0  0  0  0  0  0  0  0  0  0  0  0
  -10.0339   21.3176  -33.1026 H   0  0  0  0  0  0  0  0  0  0  0  0
   -8.9254   19.0669  -31.3465 H   0  0  0  0  0  0  0  0  0  0  0  0
   -9.7761   18.8440  -32.9207 H   0  0  0  0  0  0  0  0  0  0  0  0
   -7.2264   18.8238  -33.0273 H   0  0  0  0  0  0  0  0  0  0  0  0
   -8.0746   20.0145  -34.1129 H   0  0  0  0  0  0  0  0  0  0  0  0
   -2.3380   25.5793  -25.5292 H   0  0  0  0  0  0  0  0  0  0  0  0
   -2.0080   24.0662  -26.4765 H   0  0  0  0  0  0  0  0  0  0  0  0
    2.3523   26.6846  -24.3052 H   0  0  0  0  0  0  0  0  0  0  0  0
    3.1091   24.4071  -23.6332 H   0  0  0  0  0  0  0  0  0  0  0  0
    1.6854   22.4209  -24.1200 H   0  0  0  0  0  0  0  0  0  0  0  0
  1  2  2  0
  2  3  1  0
  2  4  1  0
  4  5  2  0
  5  6  1  0
  6  7  1  0
  7  8  2  0
  8  9  1  0
  9 10  2  0
 10 11  1  0
 11 12  2  0
  5 13  1  0
 13 14  2  0
 14 15  1  0
 15 16  1  0
 16 17  2  0
 17 18  1  0
 18 19  2  0
 19 20  1  0
 20 21  2  0
 20 22  1  0
 22 23  1  0
 23 24  1  0
 24 25  1  0
 14 26  1  0
 26 27  2  0
 27 28  1  0
 28 29  1  0
 29 30  1  0
 30 31  2  0
 31 32  1  0
 31 33  1  0
 33 34  2  0
 34 35  1  0
 35 36  2  0
 36 37  1  0
 27  4  1  0
 36 30  1  0
 12  7  1  0
 21 16  1  0
 25 19  1  0
  6 38  1  0
  8 39  1  0
  9 40  1  0
 10 41  1  0
 11 42  1  0
 12 43  1  0
 17 44  1  0
 18 45  1  0
 21 46  1  0
 22 47  1  0
 22 48  1  0
 23 49  1  0
 23 50  1  0
 24 51  1  0
 24 52  1  0
 25 53  1  0
 25 54  1  0
 29 55  1  0
 29 56  1  0
 33 57  1  0
 34 58  1  0
 35 59  1  0
M  CHG  2   2   1   3  -1
M  END
>  <UniqueID>  (19) 
18

>  <SMILES>  (19) 
O=[N+]([O-])c1c(Nc2ccccc2)nc(Oc2ccc3c(c2)CCCC3)nc1SCc1c(F)cccc1Cl

>  <Energy>  (19) 
77.4065636876112

>  <Genealogy>  (19) 
O=[N+]([O-])c1c(Nc2ccccc2)nc(Oc2ccc3c(c2)CCCC3)nc1SCc1c(F)cccc1Cl (3D coordinates assigned)
O=[N+]([O-])c1c(Nc2ccccc2)nc(Oc2ccc3c(c2)CCCC3)nc1SCc1c(F)cccc1Cl (nonaromatic ring conformer: 77.4065636876112 kcal/mol)

>  <smiles>  (19) 
O=[N+]([O-])c1c(Nc2ccccc2)nc(Oc2ccc3c(c2)CCCC3)nc1SCc1c(F)cccc1Cl

>  <score_type>  (19) 
oracle

>  <origin>  (19) 
adgpu

>  <m_score__min__energy>  (19) 
-10.710000000000001

>  <m_primary>  (19) 
energy

$$$$
19:0
     RDKit          3D

 32 33  0  0  0  0  0  0  0  0999 V2000
   -1.5550   26.0010  -26.1880 C   0  0  0  0  0  0  0  0  0  0  0  0
   -0.8760   26.0960  -27.8280 S   0  0  0  0  0  0  0  0  0  0  0  0
    0.4570   25.4020  -27.8420 O   0  0  0  0  0  0  0  0  0  0  0  0
   -0.7000   27.5370  -28.2160 O   0  0  0  0  0  0  0  0  0  0  0  0
   -1.9540   25.3120  -28.9310 N   0  0  0  0  0  0  0  0  0  0  0  0
   -2.2980   23.9330  -28.7790 C   0  0  0  0  0  0  0  0  0  0  0  0
   -1.7000   23.2020  -27.7430 C   0  0  0  0  0  0  0  0  0  0  0  0
   -1.9700   21.8390  -27.5940 C   0  0  0  0  0  0  0  0  0  0  0  0
   -1.3790   21.1400  -26.5940 F   0  0  0  0  0  0  0  0  0  0  0  0
   -2.8460   21.2000  -28.4740 C   0  0  0  0  0  0  0  0  0  0  0  0
   -3.1120   19.8790  -28.3270 F   0  0  0  0  0  0  0  0  0  0  0  0
   -3.4590   21.9240  -29.5000 C   0  0  0  0  0  0  0  0  0  0  0  0
   -3.1950   23.2950  -29.6650 C   0  0  0  0  0  0  0  0  0  0  0  0
   -3.8990   24.0500  -30.7280 C   0  0  0  0  0  0  0  0  0  0  0  0
   -4.1140   25.2810  -30.5730 O   0  0  0  0  0  0  0  0  0  0  0  0
   -4.4180   23.4050  -31.9000 N   0  0  0  0  0  0  0  0  0  0  0  0
   -5.5450   22.5190  -31.9530 C   0  0  0  0  0  0  0  0  0  0  0  0
   -6.7670   22.8380  -31.3350 C   0  0  0  0  0  0  0  0  0  0  0  0
   -7.8380   21.9450  -31.3920 C   0  0  0  0  0  0  0  0  0  0  0  0
   -7.7010   20.7190  -32.0520 C   0  0  0  0  0  0  0  0  0  0  0  0
   -9.0740   19.6200  -32.1040 Cl  0  0  0  0  0  0  0  0  0  0  0  0
   -6.4750   20.3830  -32.6510 C   0  0  0  0  0  0  0  0  0  0  0  0
   -6.2550   18.8480  -33.4780 Cl  0  0  0  0  0  0  0  0  0  0  0  0
   -5.4030   21.2810  -32.5910 C   0  0  0  0  0  0  0  0  0  0  0  0
   -0.7474   26.1140  -25.4497 H   0  0  0  0  0  0  0  0  0  0  0  0
   -2.2933   26.8046  -26.0497 H   0  0  0  0  0  0  0  0  0  0  0  0
   -2.0444   25.0256  -26.0497 H   0  0  0  0  0  0  0  0  0  0  0  0
   -1.0148   23.7038  -27.0439 H   0  0  0  0  0  0  0  0  0  0  0  0
   -4.1544   21.4166  -30.1848 H   0  0  0  0  0  0  0  0  0  0  0  0
   -6.8793   23.7951  -30.8046 H   0  0  0  0  0  0  0  0  0  0  0  0
   -8.7945   22.2063  -30.9157 H   0  0  0  0  0  0  0  0  0  0  0  0
   -4.4401   21.0115  -33.0494 H   0  0  0  0  0  0  0  0  0  0  0  0
  1  2  1  0
  2  3  2  0
  2  4  2  0
  2  5  1  0
  5  6  1  0
  6  7  2  0
  7  8  1  0
  8  9  1  0
  8 10  2  0
 10 11  1  0
 10 12  1  0
 12 13  2  0
 13 14  1  0
 14 15  2  0
 14 16  1  0
 16 17  1  0
 17 18  2  0
 18 19  1  0
 19 20  2  0
 20 21  1  0
 20 22  1  0
 22 23  1  0
 22 24  2  0
 13  6  1  0
 24 17  1  0
  1 25  1  0
  1 26  1  0
  1 27  1  0
  7 28  1  0
 12 29  1  0
 18 30  1  0
 19 31  1  0
 24 32  1  0
M  CHG  2   5  -1  16  -1
M  END
>  <UniqueID>  (20) 
19

>  <SMILES>  (20) 
CS(=O)(=O)[N-]c1cc(F)c(F)cc1C(=O)[N-]c1ccc(Cl)c(Cl)c1

>  <Energy>  (20) 
46.476720808145636

>  <Genealogy>  (20) 
CS(=O)(=O)[N-]c1cc(F)c(F)cc1C(=O)[N-]c1ccc(Cl)c(Cl)c1 (protonated)
CS(=O)(=O)[N-]c1cc(F)c(F)cc1C(=O)[N-]c1ccc(Cl)c(Cl)c1 (3D coordinates assigned)
CS(=O)(=O)[N-]c1cc(F)c(F)cc1C(=O)[N-]c1ccc(Cl)c(Cl)c1 (optimized conformer: 46.476720808145636 kcal/mol)

>  <smiles>  (20) 
CS(=O)(=O)Nc1cc(F)c(F)cc1C(=O)Nc1ccc(Cl)c(Cl)c1

>  <score_type>  (20) 
oracle

>  <origin>  (20) 
adgpu

>  <m_score__min__energy>  (20) 
-10.76

>  <m_primary>  (20) 
energy

$$$$
20:0
     RDKit          3D

 35 36  0  0  0  0  0  0  0  0999 V2000
   -0.0039   25.6664  -28.1905 H   0  0  0  0  0  0  0  0  0  0  0  0
   -0.8590   24.9950  -28.3580 C   0  0  0  0  0  0  0  0  0  0  0  0
   -1.7860   25.2990  -29.3030 N   0  0  0  0  0  0  0  0  0  0  0  0
   -2.8490   24.4830  -29.5330 C   0  0  0  0  0  0  0  0  0  0  0  0
   -3.7270   24.8210  -30.4320 N   0  0  0  0  0  0  0  0  0  0  0  0
   -4.8810   24.0640  -30.8390 C   0  0  0  0  0  0  0  0  0  0  0  0
   -6.1320   24.4280  -30.3310 C   0  0  0  0  0  0  0  0  0  0  0  0
   -6.2124   25.2753  -29.6341 H   0  0  0  0  0  0  0  0  0  0  0  0
   -7.2790   23.7250  -30.7010 C   0  0  0  0  0  0  0  0  0  0  0  0
   -8.2529   24.0079  -30.2750 H   0  0  0  0  0  0  0  0  0  0  0  0
   -7.2010   22.6600  -31.6120 C   0  0  0  0  0  0  0  0  0  0  0  0
   -8.4530   21.9140  -31.9870 C   0  0  0  0  0  0  0  0  0  0  0  0
   -8.9801   21.6000  -31.0740 H   0  0  0  0  0  0  0  0  0  0  0  0
   -9.1068   22.5699  -32.5806 H   0  0  0  0  0  0  0  0  0  0  0  0
   -8.1873   21.0268  -32.5806 H   0  0  0  0  0  0  0  0  0  0  0  0
   -5.9480   22.3060  -32.1650 C   0  0  0  0  0  0  0  0  0  0  0  0
   -5.8380   21.1980  -33.0770 N   0  0  0  0  0  0  0  0  0  0  0  0
   -5.4410   21.3690  -34.0280 H   0  0  0  0  0  0  0  0  0  0  0  0
   -6.1910   19.8500  -32.7330 C   0  0  0  0  0  0  0  0  0  0  0  0
   -6.3920   19.5250  -31.5320 O   0  0  0  0  0  0  0  0  0  0  0  0
   -6.2380   18.8000  -33.7950 C   0  0  0  0  0  0  0  0  0  0  0  0
   -6.2825   17.8059  -33.3261 H   0  0  0  0  0  0  0  0  0  0  0  0
   -7.1303   18.9507  -34.4204 H   0  0  0  0  0  0  0  0  0  0  0  0
   -5.3358   18.8704  -34.4204 H   0  0  0  0  0  0  0  0  0  0  0  0
   -4.7990   23.0180  -31.7740 C   0  0  0  0  0  0  0  0  0  0  0  0
   -3.8230   22.7522  -32.2062 H   0  0  0  0  0  0  0  0  0  0  0  0
   -2.9970   23.3520  -28.7900 N   0  0  0  0  0  0  0  0  0  0  0  0
   -2.0900   23.0060  -27.8370 C   0  0  0  0  0  0  0  0  0  0  0  0
   -2.2460   21.8320  -27.0940 O   0  0  0  0  0  0  0  0  0  0  0  0
   -2.7390   20.6240  -27.6630 C   0  0  0  0  0  0  0  0  0  0  0  0
   -3.0226   19.9290  -26.8589 H   0  0  0  0  0  0  0  0  0  0  0  0
   -3.6192   20.8441  -28.2849 H   0  0  0  0  0  0  0  0  0  0  0  0
   -1.9561   20.1654  -28.2849 H   0  0  0  0  0  0  0  0  0  0  0  0
   -0.9910   23.8320  -27.6000 C   0  0  0  0  0  0  0  0  0  0  0  0
   -0.2462   23.5720  -26.8334 H   0  0  0  0  0  0  0  0  0  0  0  0
  1  2  1  0
  2  3  1  0
  3  4  1  0
  4  5  2  0
  5  6  1  0
  6  7  2  0
  7  8  1  0
  7  9  1  0
  9 10  1  0
  9 11  2  0
 11 12  1  0
 12 13  1  0
 12 14  1  0
 12 15  1  0
 11 16  1  0
 16 17  1  0
 17 18  1  0
 17 19  1  0
 19 20  2  0
 19 21  1  0
 21 22  1  0
 21 23  1  0
 21 24  1  0
 16 25  2  0
 25 26  1  0
  4 27  1  0
 27 28  2  0
 28 29  1  0
 29 30  1  0
 30 31  1  0
 30 32  1  0
 30 33  1  0
 28 34  1  0
 34 35  1  0
 34  2  2  0
 25  6  1  0
M  CHG  1   3  -1
M  END
>  <UniqueID>  (21) 
20

>  <SMILES>  (21) 
COc1cc[n-]/c(=N/c2ccc(C)c(NC(C)=O)c2)n1

>  <Energy>  (21) 
41.74119830601966

>  <Genealogy>  (21) 
COc1cc[n-]c(=Nc2ccc(C)c(NC(C)=O)c2)n1 (protonated)
COc1cc[n-]/c(=N/c2ccc(C)c(NC(C)=O)c2)n1 (cis-trans isomerization)
COc1cc[n-]/c(=N/c2ccc(C)c(NC(C)=O)c2)n1 (3D coordinates assigned)
COc1cc[n-]/c(=N/c2ccc(C)c(NC(C)=O)c2)n1 (optimized conformer: 41.74119830601966 kcal/mol)

>  <smiles>  (21) 
COc1cc[nH]c(=Nc2ccc(C)c(NC(C)=O)c2)n1

>  <score_type>  (21) 
oracle

>  <origin>  (21) 
adgpu

>  <m_score__min__energy>  (21) 
-8.3100000000000005

>  <m_primary>  (21) 
energy

$$$$
21:0
     RDKit          3D

 30 32  0  0  0  0  0  0  0  0999 V2000
   -1.0280   15.2340  -36.1440 C   0  0  0  0  0  0  0  0  0  0  0  0
   -2.2010   15.9550  -35.5750 C   0  0  0  0  0  0  0  0  0  0  0  0
   -3.4750   15.5380  -35.6940 N   0  0  0  0  0  0  0  0  0  0  0  0
   -4.2190   16.4480  -35.0860 N   0  0  0  0  0  0  0  0  0  0  0  0
   -3.3710   17.3880  -34.6240 C   0  0  0  0  0  0  0  0  0  0  0  0
   -3.7830   18.5940  -33.8800 C   0  0  0  0  0  0  0  0  0  0  0  0
   -2.8170   19.4240  -33.2910 C   0  0  0  0  0  0  0  0  0  0  0  0
   -3.2010   20.5680  -32.5860 C   0  0  0  0  0  0  0  0  0  0  0  0
   -4.5600   20.9040  -32.4530 C   0  0  0  0  0  0  0  0  0  0  0  0
   -4.9700   22.1180  -31.7020 C   0  0  0  0  0  0  0  0  0  0  0  0
   -6.2940   22.2670  -31.2510 C   0  0  0  0  0  0  0  0  0  0  0  0
   -6.6790   23.4100  -30.5440 C   0  0  0  0  0  0  0  0  0  0  0  0
   -5.7480   24.4190  -30.2780 C   0  0  0  0  0  0  0  0  0  0  0  0
   -6.2500   25.8460  -29.3880 Cl  0  0  0  0  0  0  0  0  0  0  0  0
   -4.4260   24.2820  -30.7220 C   0  0  0  0  0  0  0  0  0  0  0  0
   -3.4930   25.2810  -30.4660 O   0  0  0  0  0  0  0  0  0  0  0  0
   -4.0400   23.1390  -31.4290 C   0  0  0  0  0  0  0  0  0  0  0  0
   -5.5260   20.0700  -33.0440 C   0  0  0  0  0  0  0  0  0  0  0  0
   -5.1410   18.9270  -33.7500 C   0  0  0  0  0  0  0  0  0  0  0  0
   -2.1280   17.0910  -34.9250 O   0  0  0  0  0  0  0  0  0  0  0  0
   -0.4019   14.8491  -35.3256 H   0  0  0  0  0  0  0  0  0  0  0  0
   -1.3783   14.3951  -36.7633 H   0  0  0  0  0  0  0  0  0  0  0  0
   -0.4377   15.9254  -36.7633 H   0  0  0  0  0  0  0  0  0  0  0  0
   -1.7502   19.1725  -33.3848 H   0  0  0  0  0  0  0  0  0  0  0  0
   -2.4334   21.2113  -32.1311 H   0  0  0  0  0  0  0  0  0  0  0  0
   -7.0324   21.4779  -31.4562 H   0  0  0  0  0  0  0  0  0  0  0  0
   -7.7171   23.5159  -30.1960 H   0  0  0  0  0  0  0  0  0  0  0  0
   -3.0008   23.0368  -31.7748 H   0  0  0  0  0  0  0  0  0  0  0  0
   -6.5932   20.3194  -32.9498 H   0  0  0  0  0  0  0  0  0  0  0  0
   -5.9072   18.2836  -34.2071 H   0  0  0  0  0  0  0  0  0  0  0  0
  1  2  1  0
  2  3  2  0
  3  4  1  0
  4  5  2  0
  5  6  1  0
  6  7  2  0
  7  8  1  0
  8  9  2  0
  9 10  1  0
 10 11  2  0
 11 12  1  0
 12 13  2  0
 13 14  1  0
 13 15  1  0
 15 16  1  0
 15 17  2  0
  9 18  1  0
 18 19  2  0
  5 20  1  0
 20  2  1  0
 19  6  1  0
 17 10  1  0
  1 21  1  0
  1 22  1  0
  1 23  1  0
  7 24  1  0
  8 25  1  0
 11 26  1  0
 12 27  1  0
 17 28  1  0
 18 29  1  0
 19 30  1  0
M  CHG  1  16  -1
M  END
>  <UniqueID>  (22) 
21

>  <SMILES>  (22) 
Cc1nnc(-c2ccc(-c3ccc(Cl)c([O-])c3)cc2)o1

>  <Energy>  (22) 
71.58054658261423

>  <Genealogy>  (22) 
Cc1nnc(-c2ccc(-c3ccc(Cl)c([O-])c3)cc2)o1 (protonated)
Cc1nnc(-c2ccc(-c3ccc(Cl)c([O-])c3)cc2)o1 (3D coordinates assigned)
Cc1nnc(-c2ccc(-c3ccc(Cl)c([O-])c3)cc2)o1 (optimized conformer: 71.58054658261423 kcal/mol)

>  <smiles>  (22) 
Cc1nnc(-c2ccc(-c3ccc(Cl)c(O)c3)cc2)o1

>  <score_type>  (22) 
oracle

>  <origin>  (22) 
adgpu

>  <m_score__min__energy>  (22) 
-9.6099999999999994

>  <m_primary>  (22) 
energy

$$$$
22:0
     RDKit          3D

 29 31  0  0  0  0  0  0  0  0999 V2000
   -3.8920   25.4220  -30.8430 O   0  0  0  0  0  0  0  0  0  0  0  0
   -4.1990   24.3210  -30.3120 C   0  0  0  0  0  0  0  0  0  0  0  0
   -3.3470   23.7470  -29.3100 N   0  0  0  0  0  0  0  0  0  0  0  0
   -2.0440   24.2240  -29.0780 N   0  0  0  0  0  0  0  0  0  0  0  0
   -1.7100   25.2980  -28.3470 C   0  0  0  0  0  0  0  0  0  0  0  0
   -0.3710   25.3860  -28.2130 N   0  0  0  0  0  0  0  0  0  0  0  0
    0.1590   24.3430  -28.8410 N   0  0  0  0  0  0  0  0  0  0  0  0
   -0.8640   23.6400  -29.3600 C   0  0  0  0  0  0  0  0  0  0  0  0
   -0.6750   22.1750  -30.0690 S   0  0  0  0  0  0  0  0  0  0  0  0
   -5.4520   23.6610  -30.7110 C   0  0  0  0  0  0  0  0  0  0  0  0
   -6.7110   24.2310  -30.7470 C   0  0  0  0  0  0  0  0  0  0  0  0
   -7.5620   23.2340  -31.1710 C   0  0  0  0  0  0  0  0  0  0  0  0
   -6.7700   22.1120  -31.3660 C   0  0  0  0  0  0  0  0  0  0  0  0
   -7.2140   20.7740  -31.8220 C   0  0  0  0  0  0  0  0  0  0  0  0
   -8.4250   20.2080  -31.3780 C   0  0  0  0  0  0  0  0  0  0  0  0
   -8.8200   18.9430  -31.8240 C   0  0  0  0  0  0  0  0  0  0  0  0
   -8.0140   18.2290  -32.7140 C   0  0  0  0  0  0  0  0  0  0  0  0
   -6.8110   18.7790  -33.1610 C   0  0  0  0  0  0  0  0  0  0  0  0
   -5.8000   17.8820  -34.2790 Cl  0  0  0  0  0  0  0  0  0  0  0  0
   -6.4110   20.0450  -32.7180 C   0  0  0  0  0  0  0  0  0  0  0  0
   -5.5210   22.4040  -31.0820 O   0  0  0  0  0  0  0  0  0  0  0  0
   -3.7640   23.0900  -28.6140 H   0  0  0  0  0  0  0  0  0  0  0  0
   -2.4297   26.0095  -27.9159 H   0  0  0  0  0  0  0  0  0  0  0  0
   -6.9781   25.2667  -30.4901 H   0  0  0  0  0  0  0  0  0  0  0  0
   -8.6485   23.3119  -31.3238 H   0  0  0  0  0  0  0  0  0  0  0  0
   -9.0637   20.7644  -30.6763 H   0  0  0  0  0  0  0  0  0  0  0  0
   -9.7679   18.5089  -31.4731 H   0  0  0  0  0  0  0  0  0  0  0  0
   -8.3270   17.2337  -33.0626 H   0  0  0  0  0  0  0  0  0  0  0  0
   -5.4619   20.4730  -33.0730 H   0  0  0  0  0  0  0  0  0  0  0  0
  1  2  2  0
  2  3  1  0
  3  4  1  0
  4  5  1  0
  5  6  2  0
  6  7  1  0
  7  8  1  0
  8  9  2  0
  2 10  1  0
 10 11  2  0
 11 12  1  0
 12 13  2  0
 13 14  1  0
 14 15  2  0
 15 16  1  0
 16 17  2  0
 17 18  1  0
 18 19  1  0
 18 20  2  0
 13 21  1  0
  8  4  1  0
 21 10  1  0
 20 14  1  0
  3 22  1  0
  5 23  1  0
 11 24  1  0
 12 25  1  0
 15 26  1  0
 16 27  1  0
 17 28  1  0
 20 29  1  0
M  CHG  1   7  -1
M  END
>  <UniqueID>  (23) 
22

>  <SMILES>  (23) 
O=C(Nn1cn[n-]c1=S)c1ccc(-c2cccc(Cl)c2)o1

>  <Energy>  (23) 
99.62415852765088

>  <Genealogy>  (23) 
O=C(Nn1cn[n-]c1=S)c1ccc(-c2cccc(Cl)c2)o1 (protonated)
O=C(Nn1cn[n-]c1=S)c1ccc(-c2cccc(Cl)c2)o1 (3D coordinates assigned)
O=C(Nn1cn[n-]c1=S)c1ccc(-c2cccc(Cl)c2)o1 (optimized conformer: 99.62415852765088 kcal/mol)

>  <smiles>  (23) 
O=C(Nn1cn[nH]c1=S)c1ccc(-c2cccc(Cl)c2)o1

>  <score_type>  (23) 
oracle

>  <origin>  (23) 
adgpu

>  <m_score__min__energy>  (23) 
-9.8100000000000005

>  <m_primary>  (23) 
energy

$$$$
23:0
     RDKit          3D

 26 27  0  0  0  0  0  0  0  0999 V2000
   -4.2450   25.3760  -30.8910 O   0  0  0  0  0  0  0  0  0  0  0  0
   -4.5790   24.2060  -30.5660 C   0  0  0  0  0  0  0  0  0  0  0  0
   -5.8560   23.7140  -30.9950 N   0  0  0  0  0  0  0  0  0  0  0  0
   -6.0970   22.4990  -31.7200 C   0  0  0  0  0  0  0  0  0  0  0  0
   -5.0520   21.9370  -32.4640 C   0  0  0  0  0  0  0  0  0  0  0  0
   -5.2500   20.7480  -33.1730 C   0  0  0  0  0  0  0  0  0  0  0  0
   -6.4900   20.1060  -33.1310 C   0  0  0  0  0  0  0  0  0  0  0  0
   -7.5330   20.6470  -32.3720 C   0  0  0  0  0  0  0  0  0  0  0  0
   -9.0840   19.8320  -32.3050 Cl  0  0  0  0  0  0  0  0  0  0  0  0
   -7.3360   21.8350  -31.6600 C   0  0  0  0  0  0  0  0  0  0  0  0
   -3.6810   23.4060  -29.6970 C   0  0  0  0  0  0  0  0  0  0  0  0
   -3.9420   22.0390  -29.4890 C   0  0  0  0  0  0  0  0  0  0  0  0
   -3.1060   21.2740  -28.6710 C   0  0  0  0  0  0  0  0  0  0  0  0
   -2.0090   21.8640  -28.0450 C   0  0  0  0  0  0  0  0  0  0  0  0
   -1.7430   23.2220  -28.2320 C   0  0  0  0  0  0  0  0  0  0  0  0
   -2.5720   23.9990  -29.0550 C   0  0  0  0  0  0  0  0  0  0  0  0
   -2.2850   25.3510  -29.2480 O   0  0  0  0  0  0  0  0  0  0  0  0
   -4.0707   22.4333  -32.4908 H   0  0  0  0  0  0  0  0  0  0  0  0
   -4.4284   20.3178  -33.7645 H   0  0  0  0  0  0  0  0  0  0  0  0
   -6.6463   19.1746  -33.6950 H   0  0  0  0  0  0  0  0  0  0  0  0
   -8.1523   22.2513  -31.0514 H   0  0  0  0  0  0  0  0  0  0  0  0
   -4.8104   21.5690  -29.9738 H   0  0  0  0  0  0  0  0  0  0  0  0
   -3.3140   20.2043  -28.5208 H   0  0  0  0  0  0  0  0  0  0  0  0
   -1.3520   21.2590  -27.4029 H   0  0  0  0  0  0  0  0  0  0  0  0
   -0.8795   23.6847  -27.7317 H   0  0  0  0  0  0  0  0  0  0  0  0
   -3.0200   26.0410  -29.3450 H   0  0  0  0  0  0  0  0  0  0  0  0
  1  2  2  0
  2  3  1  0
  3  4  1  0
  4  5  2  0
  5  6  1  0
  6  7  2  0
  7  8  1  0
  8  9  1  0
  8 10  2  0
  2 11  1  0
 11 12  2  0
 12 13  1  0
 13 14  2  0
 14 15  1  0
 15 16  2  0
 16 17  1  0
 10  4  1  0
 16 11  1  0
  5 18  1  0
  6 19  1  0
  7 20  1  0
 10 21  1  0
 12 22  1  0
 13 23  1  0
 14 24  1  0
 15 25  1  0
 17 26  1  0
M  CHG  1   3  -1
M  END
>  <UniqueID>  (24) 
23

>  <SMILES>  (24) 
O=C([N-]c1cccc(Cl)c1)c1ccccc1O

>  <Energy>  (24) 
34.21804050646487

>  <Genealogy>  (24) 
O=C([N-]c1cccc(Cl)c1)c1ccccc1O (protonated)
O=C([N-]c1cccc(Cl)c1)c1ccccc1O (3D coordinates assigned)
O=C([N-]c1cccc(Cl)c1)c1ccccc1O (optimized conformer: 34.21804050646487 kcal/mol)

>  <smiles>  (24) 
O=C(Nc1cccc(Cl)c1)c1ccccc1O

>  <score_type>  (24) 
oracle

>  <origin>  (24) 
adgpu

>  <m_score__min__energy>  (24) 
-8.7599999999999998

>  <m_primary>  (24) 
energy

$$$$
24:0
     RDKit          3D

 43 44  0  0  0  0  0  0  0  0999 V2000
   -7.7030   18.4550  -32.4790 C   0  0  0  0  0  0  0  0  0  0  0  0
   -6.9980   19.6210  -33.1090 C   0  0  0  0  0  0  0  0  0  0  0  0
   -6.4370   19.4490  -34.2230 O   0  0  0  0  0  0  0  0  0  0  0  0
   -6.9500   20.9600  -32.4580 C   0  0  0  0  0  0  0  0  0  0  0  0
   -8.1180   21.5860  -31.9830 C   0  0  0  0  0  0  0  0  0  0  0  0
   -8.0550   22.8560  -31.4020 C   0  0  0  0  0  0  0  0  0  0  0  0
   -6.8330   23.5140  -31.2770 C   0  0  0  0  0  0  0  0  0  0  0  0
   -5.6540   22.9000  -31.7120 C   0  0  0  0  0  0  0  0  0  0  0  0
   -4.4140   23.6080  -31.5880 N   0  0  0  0  0  0  0  0  0  0  0  0
   -4.0630   24.4540  -30.4870 C   0  0  0  0  0  0  0  0  0  0  0  0
   -4.2470   25.6990  -30.5860 O   0  0  0  0  0  0  0  0  0  0  0  0
   -3.6080   23.8870  -29.2590 N   0  0  0  0  0  0  0  0  0  0  0  0
   -2.5110   22.9820  -29.1190 C   0  0  0  0  0  0  0  0  0  0  0  0
   -2.6330   21.3060  -29.1250 S   0  0  0  0  0  0  0  0  0  0  0  0
   -1.0330   20.9930  -28.6880 C   0  0  0  0  0  0  0  0  0  0  0  0
   -0.4560   19.6140  -28.3860 C   0  0  0  0  0  0  0  0  0  0  0  0
   -0.4400   18.7580  -29.6710 C   0  0  0  0  0  0  0  0  0  0  0  0
    0.9930   19.7230  -27.8620 C   0  0  0  0  0  0  0  0  0  0  0  0
   -1.3290   18.9240  -27.3190 C   0  0  0  0  0  0  0  0  0  0  0  0
   -0.4050   22.2270  -28.4810 C   0  0  0  0  0  0  0  0  0  0  0  0
   -1.2270   23.3410  -28.7190 C   0  0  0  0  0  0  0  0  0  0  0  0
   -0.7510   24.7370  -28.5820 C   0  0  0  0  0  0  0  0  0  0  0  0
   -1.5800   25.8310  -28.9660 N   0  0  0  0  0  0  0  0  0  0  0  0
    0.3980   24.9660  -28.1220 O   0  0  0  0  0  0  0  0  0  0  0  0
   -5.7200   21.6320  -32.3190 C   0  0  0  0  0  0  0  0  0  0  0  0
   -7.6500   18.5427  -31.3838 H   0  0  0  0  0  0  0  0  0  0  0  0
   -8.7564   18.4487  -32.7958 H   0  0  0  0  0  0  0  0  0  0  0  0
   -7.2192   17.5193  -32.7958 H   0  0  0  0  0  0  0  0  0  0  0  0
   -9.0869   21.0724  -32.0696 H   0  0  0  0  0  0  0  0  0  0  0  0
   -8.9754   23.3387  -31.0414 H   0  0  0  0  0  0  0  0  0  0  0  0
   -6.7955   24.5203  -30.8344 H   0  0  0  0  0  0  0  0  0  0  0  0
   -0.4201   17.6918  -29.4011 H   0  0  0  0  0  0  0  0  0  0  0  0
   -1.3423   18.9694  -30.2637 H   0  0  0  0  0  0  0  0  0  0  0  0
    0.4537   19.0030  -30.2637 H   0  0  0  0  0  0  0  0  0  0  0  0
    0.9861   19.7225  -26.7620 H   0  0  0  0  0  0  0  0  0  0  0  0
    1.5797   18.8665  -28.2254 H   0  0  0  0  0  0  0  0  0  0  0  0
    1.4450   20.6577  -28.2254 H   0  0  0  0  0  0  0  0  0  0  0  0
   -0.9735   19.2050  -26.3167 H   0  0  0  0  0  0  0  0  0  0  0  0
   -2.3751   19.2420  -27.4395 H   0  0  0  0  0  0  0  0  0  0  0  0
   -1.2613   17.8327  -27.4395 H   0  0  0  0  0  0  0  0  0  0  0  0
    0.6431   22.3166  -28.1593 H   0  0  0  0  0  0  0  0  0  0  0  0
   -2.5600   25.6790  -29.3010 H   0  0  0  0  0  0  0  0  0  0  0  0
   -4.7986   21.1594  -32.6899 H   0  0  0  0  0  0  0  0  0  0  0  0
  1  2  1  0
  2  3  2  0
  2  4  1  0
  4  5  2  0
  5  6  1  0
  6  7  2  0
  7  8  1  0
  8  9  1  0
  9 10  1  0
 10 11  2  0
 10 12  1  0
 12 13  1  0
 13 14  1  0
 14 15  1  0
 15 16  1  0
 16 17  1  0
 16 18  1  0
 16 19  1  0
 15 20  2  0
 20 21  1  0
 21 22  1  0
 22 23  1  0
 22 24  2  0
  8 25  2  0
 25  4  1  0
 21 13  2  0
  1 26  1  0
  1 27  1  0
  1 28  1  0
  5 29  1  0
  6 30  1  0
  7 31  1  0
 17 32  1  0
 17 33  1  0
 17 34  1  0
 18 35  1  0
 18 36  1  0
 18 37  1  0
 19 38  1  0
 19 39  1  0
 19 40  1  0
 20 41  1  0
 23 42  1  0
 25 43  1  0
M  CHG  3   9  -1  12  -1  23  -1
M  END
>  <UniqueID>  (25) 
24

>  <SMILES>  (25) 
CC(=O)c1cccc([N-]C(=O)[N-]c2sc(C(C)(C)C)cc2C([NH-])=O)c1

>  <Energy>  (25) 
71.9612308480505

>  <Genealogy>  (25) 
CC(=O)c1cccc([N-]C(=O)[N-]c2sc(C(C)(C)C)cc2C([NH-])=O)c1 (protonated)
CC(=O)c1cccc([N-]C(=O)[N-]c2sc(C(C)(C)C)cc2C([NH-])=O)c1 (3D coordinates assigned)
CC(=O)c1cccc([N-]C(=O)[N-]c2sc(C(C)(C)C)cc2C([NH-])=O)c1 (optimized conformer: 71.9612308480505 kcal/mol)

>  <smiles>  (25) 
CC(=O)c1cccc(NC(=O)Nc2sc(C(C)(C)C)cc2C(N)=O)c1

>  <score_type>  (25) 
oracle

>  <origin>  (25) 
adgpu

>  <m_score__min__energy>  (25) 
-12.82

>  <m_primary>  (25) 
energy

$$$$
25:0
     RDKit          3D

 27 28  0  0  0  0  0  0  0  0999 V2000
   -6.8550   23.7590  -30.3550 C   0  0  0  0  0  0  0  0  0  0  0  0
   -5.5890   23.4140  -30.9060 O   0  0  0  0  0  0  0  0  0  0  0  0
   -4.3920   23.3640  -30.1750 C   0  0  0  0  0  0  0  0  0  0  0  0
   -3.6080   24.5200  -30.1070 C   0  0  0  0  0  0  0  0  0  0  0  0
   -2.4080   24.5210  -29.3940 C   0  0  0  0  0  0  0  0  0  0  0  0
   -1.6400   25.6780  -29.3310 O   0  0  0  0  0  0  0  0  0  0  0  0
   -1.9790   23.3630  -28.7410 C   0  0  0  0  0  0  0  0  0  0  0  0
   -2.7490   22.1880  -28.7930 C   0  0  0  0  0  0  0  0  0  0  0  0
   -2.2950   20.9570  -28.0980 C   0  0  0  0  0  0  0  0  0  0  0  0
   -0.9890   20.4680  -28.2910 C   0  0  0  0  0  0  0  0  0  0  0  0
   -0.5630   19.3080  -27.6360 C   0  0  0  0  0  0  0  0  0  0  0  0
    0.7270   18.8330  -27.8360 O   0  0  0  0  0  0  0  0  0  0  0  0
   -1.4330   18.6260  -26.7810 C   0  0  0  0  0  0  0  0  0  0  0  0
   -2.7330   19.1000  -26.5780 C   0  0  0  0  0  0  0  0  0  0  0  0
   -3.5880   18.4100  -25.7220 O   0  0  0  0  0  0  0  0  0  0  0  0
   -3.1630   20.2610  -27.2350 C   0  0  0  0  0  0  0  0  0  0  0  0
   -3.9590   22.1970  -29.5150 C   0  0  0  0  0  0  0  0  0  0  0  0
   -6.7938   23.7423  -29.2568 H   0  0  0  0  0  0  0  0  0  0  0  0
   -7.1387   24.7672  -30.6911 H   0  0  0  0  0  0  0  0  0  0  0  0
   -7.6110   23.0341  -30.6911 H   0  0  0  0  0  0  0  0  0  0  0  0
   -3.9394   25.4353  -30.6192 H   0  0  0  0  0  0  0  0  0  0  0  0
   -1.0317   23.3706  -28.1820 H   0  0  0  0  0  0  0  0  0  0  0  0
   -0.2992   21.0017  -28.9613 H   0  0  0  0  0  0  0  0  0  0  0  0
   -1.0946   17.7145  -26.2666 H   0  0  0  0  0  0  0  0  0  0  0  0
   -4.2930   18.8920  -25.1770 H   0  0  0  0  0  0  0  0  0  0  0  0
   -4.1864   20.6313  -27.0752 H   0  0  0  0  0  0  0  0  0  0  0  0
   -4.5712   21.2844  -29.5638 H   0  0  0  0  0  0  0  0  0  0  0  0
  1  2  1  0
  2  3  1  0
  3  4  2  0
  4  5  1  0
  5  6  1  0
  5  7  2  0
  7  8  1  0
  8  9  1  0
  9 10  2  0
 10 11  1  0
 11 12  1  0
 11 13  2  0
 13 14  1  0
 14 15  1  0
 14 16  2  0
  8 17  2  0
 17  3  1  0
 16  9  1  0
  1 18  1  0
  1 19  1  0
  1 20  1  0
  4 21  1  0
  7 22  1  0
 10 23  1  0
 13 24  1  0
 15 25  1  0
 16 26  1  0
 17 27  1  0
M  CHG  2   6  -1  12  -1
M  END
>  <UniqueID>  (26) 
25

>  <SMILES>  (26) 
COc1cc([O-])cc(-c2cc([O-])cc(O)c2)c1

>  <Energy>  (26) 
32.15991766752171

>  <Genealogy>  (26) 
COc1cc([O-])cc(-c2cc([O-])cc(O)c2)c1 (protonated)
COc1cc([O-])cc(-c2cc([O-])cc(O)c2)c1 (3D coordinates assigned)
COc1cc([O-])cc(-c2cc([O-])cc(O)c2)c1 (optimized conformer: 32.15991766752171 kcal/mol)

>  <smiles>  (26) 
COc1cc(O)cc(-c2cc(O)cc(O)c2)c1

>  <score_type>  (26) 
oracle

>  <origin>  (26) 
adgpu

>  <m_score__min__energy>  (26) 
-8.2899999999999991

>  <m_primary>  (26) 
energy

$$$$
26:0
     RDKit          3D

 51 53  0  0  0  0  0  0  0  0999 V2000
    0.6270   22.9040  -25.8930 C   0  0  0  0  0  0  0  0  0  0  0  0
   -0.3970   22.6310  -26.9960 C   0  0  1  0  0  0  0  0  0  0  0  0
    0.2300   23.2690  -28.5960 S   0  0  0  0  0  0  0  0  0  0  0  0
   -1.4000   23.6810  -29.2440 C   0  0  0  0  0  0  0  0  0  0  0  0
   -2.1660   22.6860  -29.8570 C   0  0  0  0  0  0  0  0  0  0  0  0
   -3.4280   22.9870  -30.3930 C   0  0  0  0  0  0  0  0  0  0  0  0
   -4.2380   21.9410  -31.0680 C   0  0  0  0  0  0  0  0  0  0  0  0
   -5.1540   22.2880  -32.0780 C   0  0  0  0  0  0  0  0  0  0  0  0
   -5.9160   21.3030  -32.7130 C   0  0  0  0  0  0  0  0  0  0  0  0
   -5.7770   19.9590  -32.3480 C   0  0  0  0  0  0  0  0  0  0  0  0
   -6.7160   18.7100  -33.1640 S   0  0  0  0  0  0  0  0  0  0  0  0
   -6.4780   18.8160  -34.6450 O   0  0  0  0  0  0  0  0  0  0  0  0
   -6.2580   17.3520  -32.7040 O   0  0  0  0  0  0  0  0  0  0  0  0
   -8.4150   18.9180  -32.8220 N   0  0  0  0  0  0  0  0  0  0  0  0
   -8.7290   20.3450  -32.6640 C   0  0  0  0  0  0  0  0  0  0  0  0
   -8.7740   18.1720  -31.6080 C   0  0  0  0  0  0  0  0  0  0  0  0
   -4.8630   19.6060  -31.3480 C   0  0  0  0  0  0  0  0  0  0  0  0
   -4.1010   20.5880  -30.7100 C   0  0  0  0  0  0  0  0  0  0  0  0
   -3.9020   24.3050  -30.2810 C   0  0  0  0  0  0  0  0  0  0  0  0
   -3.1480   25.2560  -29.6690 N   0  0  0  0  0  0  0  0  0  0  0  0
   -1.9210   24.9820  -29.1490 C   0  0  0  0  0  0  0  0  0  0  0  0
   -1.2450   25.9210  -28.5680 N   0  0  0  0  0  0  0  0  0  0  0  0
   -0.7140   21.1520  -27.0910 C   0  0  0  0  0  0  0  0  0  0  0  0
   -1.9750   20.6660  -26.6950 C   0  0  0  0  0  0  0  0  0  0  0  0
   -2.2620   19.2990  -26.7580 C   0  0  0  0  0  0  0  0  0  0  0  0
   -3.4780   18.8450  -26.3720 F   0  0  0  0  0  0  0  0  0  0  0  0
   -1.2950   18.4030  -27.2180 C   0  0  0  0  0  0  0  0  0  0  0  0
   -0.0400   18.8700  -27.6110 C   0  0  0  0  0  0  0  0  0  0  0  0
    0.2550   20.2360  -27.5500 C   0  0  0  0  0  0  0  0  0  0  0  0
    1.4880   20.6570  -27.9300 F   0  0  0  0  0  0  0  0  0  0  0  0
    0.1499   22.7768  -24.9101 H   0  0  0  0  0  0  0  0  0  0  0  0
    1.4651   22.1979  -25.9879 H   0  0  0  0  0  0  0  0  0  0  0  0
    1.0024   23.9336  -25.9879 H   0  0  0  0  0  0  0  0  0  0  0  0
   -1.3317   23.1545  -26.7462 H   0  0  0  0  0  0  0  0  0  0  0  0
   -1.7771   21.6590  -29.9200 H   0  0  0  0  0  0  0  0  0  0  0  0
   -5.2714   23.3420  -32.3701 H   0  0  0  0  0  0  0  0  0  0  0  0
   -6.6277   21.5853  -33.5027 H   0  0  0  0  0  0  0  0  0  0  0  0
   -8.9630   18.5370  -33.6280 H   0  0  0  0  0  0  0  0  0  0  0  0
   -8.7834   20.5921  -31.5935 H   0  0  0  0  0  0  0  0  0  0  0  0
   -7.9422   20.9485  -33.1401 H   0  0  0  0  0  0  0  0  0  0  0  0
   -9.6965   20.5625  -33.1401 H   0  0  0  0  0  0  0  0  0  0  0  0
   -8.4920   18.7579  -30.7208 H   0  0  0  0  0  0  0  0  0  0  0  0
   -9.8587   17.9893  -31.5972 H   0  0  0  0  0  0  0  0  0  0  0  0
   -8.2400   17.2103  -31.5972 H   0  0  0  0  0  0  0  0  0  0  0  0
   -4.7442   18.5502  -31.0632 H   0  0  0  0  0  0  0  0  0  0  0  0
   -3.3890   20.3008  -29.9222 H   0  0  0  0  0  0  0  0  0  0  0  0
   -4.8883   24.5685  -30.6907 H   0  0  0  0  0  0  0  0  0  0  0  0
   -1.6150   26.8940  -28.4910 H   0  0  0  0  0  0  0  0  0  0  0  0
   -2.7408   21.3678  -26.3330 H   0  0  0  0  0  0  0  0  0  0  0  0
   -1.5226   17.3281  -27.2707 H   0  0  0  0  0  0  0  0  0  0  0  0
    0.7204   18.1610  -27.9702 H   0  0  0  0  0  0  0  0  0  0  0  0
  1  2  1  0
  2  3  1  0
  3  4  1  0
  4  5  2  0
  5  6  1  0
  6  7  1  0
  7  8  2  0
  8  9  1  0
  9 10  2  0
 10 11  1  0
 11 12  2  0
 11 13  2  0
 11 14  1  0
 14 15  1  0
 14 16  1  0
 10 17  1  0
 17 18  2  0
  6 19  2  0
 19 20  1  0
 20 21  1  0
 21 22  2  3
  2 23  1  0
 23 24  2  0
 24 25  1  0
 25 26  1  0
 25 27  2  0
 27 28  1  0
 28 29  2  0
 29 30  1  0
 21  4  1  0
 29 23  1  0
 18  7  1  0
  1 31  1  0
  1 32  1  0
  1 33  1  0
  2 34  1  1
  5 35  1  0
  8 36  1  0
  9 37  1  0
 14 38  1  0
 15 39  1  0
 15 40  1  0
 15 41  1  0
 16 42  1  0
 16 43  1  0
 16 44  1  0
 17 45  1  0
 18 46  1  0
 19 47  1  0
 22 48  1  0
 24 49  1  0
 27 50  1  0
 28 51  1  0
M  CHG  2  14   1  20  -1
M  END
>  <UniqueID>  (27) 
26

>  <SMILES>  (27) 
C[C@@H](Sc1cc(-c2ccc(S(=O)(=O)[NH+](C)C)cc2)c[n-]c1=N)c1cc(F)ccc1F

>  <Energy>  (27) 
50.82178159659211

>  <Genealogy>  (27) 
CC(Sc1cc(-c2ccc(S(=O)(=O)[NH+](C)C)cc2)c[n-]c1=N)c1cc(F)ccc1F (protonated)
C[C@@H](Sc1cc(-c2ccc(S(=O)(=O)[NH+](C)C)cc2)c[n-]c1=N)c1cc(F)ccc1F (chirality)
C[C@@H](Sc1cc(-c2ccc(S(=O)(=O)[NH+](C)C)cc2)c[n-]c1=N)c1cc(F)ccc1F (3D coordinates assigned)
C[C@@H](Sc1cc(-c2ccc(S(=O)(=O)[NH+](C)C)cc2)c[n-]c1=N)c1cc(F)ccc1F (optimized conformer: 50.82178159659211 kcal/mol)

>  <smiles>  (27) 
CC(Sc1cc(-c2ccc(S(=O)(=O)N(C)C)cc2)c[nH]c1=N)c1cc(F)ccc1F

>  <score_type>  (27) 
oracle

>  <origin>  (27) 
adgpu

>  <m_score__min__energy>  (27) 
-10.710000000000001

>  <m_primary>  (27) 
energy

$$$$
27:0
     RDKit          3D

 40 42  0  0  0  0  0  0  0  0999 V2000
   -6.8970   17.1090  -33.6070 N   0  0  0  0  0  0  0  0  0  0  0  0
   -6.2520   18.0150  -33.2820 C   0  0  0  0  0  0  0  0  0  0  0  0
   -5.4560   19.1440  -32.8760 C   0  0  0  0  0  0  0  0  0  0  0  0
   -5.6620   19.7330  -31.6220 C   0  0  0  0  0  0  0  0  0  0  0  0
   -4.8930   20.8290  -31.2280 C   0  0  0  0  0  0  0  0  0  0  0  0
   -3.9120   21.3550  -32.0810 C   0  0  0  0  0  0  0  0  0  0  0  0
   -3.1060   22.4600  -31.6330 N   0  0  0  0  0  0  0  0  0  0  0  0
   -2.9550   22.8150  -30.2520 C   0  0  0  0  0  0  0  0  0  0  0  0
   -2.4740   21.8670  -29.3370 C   0  0  0  0  0  0  0  0  0  0  0  0
   -2.3680   22.1870  -27.9830 C   0  0  0  0  0  0  0  0  0  0  0  0
   -2.7420   23.4540  -27.5320 C   0  0  0  0  0  0  0  0  0  0  0  0
   -3.2230   24.4050  -28.4360 C   0  0  0  0  0  0  0  0  0  0  0  0
   -3.3310   24.0960  -29.8020 C   0  0  0  0  0  0  0  0  0  0  0  0
   -3.8790   25.0550  -30.7220 N   0  0  0  0  0  0  0  0  0  0  0  0
   -5.2810   25.4620  -30.6650 C   0  0  0  0  0  0  0  0  0  0  0  0
   -6.1710   24.2620  -30.8640 C   0  0  0  0  0  0  0  0  0  0  0  0
   -6.7300   23.6110  -29.7520 C   0  0  0  0  0  0  0  0  0  0  0  0
   -7.6130   22.5440  -29.9310 C   0  0  0  0  0  0  0  0  0  0  0  0
   -7.9550   22.1300  -31.2190 C   0  0  0  0  0  0  0  0  0  0  0  0
   -8.8250   21.1070  -31.3890 F   0  0  0  0  0  0  0  0  0  0  0  0
   -7.3940   22.7650  -32.3320 C   0  0  0  0  0  0  0  0  0  0  0  0
   -6.5090   23.8310  -32.1570 C   0  0  0  0  0  0  0  0  0  0  0  0
   -3.7100   20.7560  -33.3420 C   0  0  0  0  0  0  0  0  0  0  0  0
   -4.4780   19.6560  -33.7340 C   0  0  0  0  0  0  0  0  0  0  0  0
   -6.4314   19.3310  -30.9464 H   0  0  0  0  0  0  0  0  0  0  0  0
   -5.0578   21.2840  -30.2402 H   0  0  0  0  0  0  0  0  0  0  0  0
   -2.6470   23.0710  -32.3450 H   0  0  0  0  0  0  0  0  0  0  0  0
   -2.1791   20.8672  -29.6883 H   0  0  0  0  0  0  0  0  0  0  0  0
   -1.9892   21.4399  -27.2700 H   0  0  0  0  0  0  0  0  0  0  0  0
   -2.6580   23.7041  -26.4641 H   0  0  0  0  0  0  0  0  0  0  0  0
   -3.5188   25.4014  -28.0757 H   0  0  0  0  0  0  0  0  0  0  0  0
   -3.3440   25.2900  -31.5890 H   0  0  0  0  0  0  0  0  0  0  0  0
   -5.4905   25.9130  -29.6838 H   0  0  0  0  0  0  0  0  0  0  0  0
   -5.4782   26.1956  -31.4606 H   0  0  0  0  0  0  0  0  0  0  0  0
   -6.4711   23.9431  -28.7358 H   0  0  0  0  0  0  0  0  0  0  0  0
   -8.0389   22.0299  -29.0567 H   0  0  0  0  0  0  0  0  0  0  0  0
   -7.6502   22.4243  -33.3461 H   0  0  0  0  0  0  0  0  0  0  0  0
   -6.0757   24.3342  -33.0340 H   0  0  0  0  0  0  0  0  0  0  0  0
   -2.9432   21.1571  -34.0211 H   0  0  0  0  0  0  0  0  0  0  0  0
   -4.3129   19.1929  -34.7180 H   0  0  0  0  0  0  0  0  0  0  0  0
  1  2  3  0
  2  3  1  0
  3  4  2  0
  4  5  1  0
  5  6  2  0
  6  7  1  0
  7  8  1  0
  8  9  2  0
  9 10  1  0
 10 11  2  0
 11 12  1  0
 12 13  2  0
 13 14  1  0
 14 15  1  0
 15 16  1  0
 16 17  2  0
 17 18  1  0
 18 19  2  0
 19 20  1  0
 19 21  1  0
 21 22  2  0
  6 23  1  0
 23 24  2  0
 24  3  1  0
 13  8  1  0
 22 16  1  0
  4 25  1  0
  5 26  1  0
  7 27  1  0
  9 28  1  0
 10 29  1  0
 11 30  1  0
 12 31  1  0
 14 32  1  0
 15 33  1  0
 15 34  1  0
 17 35  1  0
 18 36  1  0
 21 37  1  0
 22 38  1  0
 23 39  1  0
 24 40  1  0
M  END
>  <UniqueID>  (28) 
27

>  <SMILES>  (28) 
N#Cc1ccc(Nc2ccccc2NCc2ccc(F)cc2)cc1

>  <Energy>  (28) 
47.37599864360858

>  <Genealogy>  (28) 
N#Cc1ccc(Nc2ccccc2NCc2ccc(F)cc2)cc1 (3D coordinates assigned)
N#Cc1ccc(Nc2ccccc2NCc2ccc(F)cc2)cc1 (optimized conformer: 47.37599864360858 kcal/mol)

>  <smiles>  (28) 
N#Cc1ccc(Nc2ccccc2NCc2ccc(F)cc2)cc1

>  <score_type>  (28) 
oracle

>  <origin>  (28) 
adgpu

>  <m_score__min__energy>  (28) 
-8.1400000000000006

>  <m_primary>  (28) 
energy

$$$$
28:0
     RDKit          3D

 33 35  0  0  1  0  0  0  0  0999 V2000
   -6.4900   15.4840  -34.2040 C   0  0  0  0  0  0  0  0  0  0  0  0
   -6.1350   16.8300  -33.6710 C   0  0  0  0  0  0  0  0  0  0  0  0
   -5.7650   17.8790  -34.5070 C   0  0  0  0  0  0  0  0  0  0  0  0
   -5.4420   19.1120  -33.9940 C   0  0  0  0  0  0  0  0  0  0  0  0
   -5.4950   19.2820  -32.6070 C   0  0  0  0  0  0  0  0  0  0  0  0
   -5.1590   20.5700  -32.0490 N   0  0  0  0  0  0  0  0  0  0  0  0
   -6.2020   21.3180  -31.8260 C   0  0  0  0  0  0  0  0  0  0  0  0
   -7.4580   20.8840  -32.1090 N   0  0  0  0  0  0  0  0  0  0  0  0
   -8.5500   21.6620  -31.8770 C   0  0  0  0  0  0  0  0  0  0  0  0
   -8.4320   22.8980  -31.3580 N   0  0  0  0  0  0  0  0  0  0  0  0
   -7.2040   23.3650  -31.0660 C   0  0  0  0  0  0  0  0  0  0  0  0
   -7.1310   24.6370  -30.5360 C   0  0  0  0  0  0  0  0  0  0  0  0
   -5.8830   25.1330  -30.2290 C   0  0  0  0  0  0  0  0  0  0  0  0
   -4.7460   24.3740  -30.4480 C   0  0  0  0  0  0  0  0  0  0  0  0
   -3.5050   24.9780  -30.0980 N   0  0  0  0  0  0  0  0  0  0  0  0
   -4.8160   23.0900  -30.9830 C   0  0  0  0  0  0  0  0  0  0  0  0
   -6.0540   22.5970  -31.2880 C   0  0  0  0  0  0  0  0  0  0  0  0
   -5.8590   18.2530  -31.7640 C   0  0  0  0  0  0  0  0  0  0  0  0
   -6.1830   17.0120  -32.3000 C   0  0  0  0  0  0  0  0  0  0  0  0
   -6.6719   14.7943  -33.3666 H   0  0  0  0  0  0  0  0  0  0  0  0
   -7.3985   15.5612  -34.8194 H   0  0  0  0  0  0  0  0  0  0  0  0
   -5.6616   15.1031  -34.8194 H   0  0  0  0  0  0  0  0  0  0  0  0
   -5.7306   17.7187  -35.5947 H   0  0  0  0  0  0  0  0  0  0  0  0
   -5.1502   19.9413  -34.6551 H   0  0  0  0  0  0  0  0  0  0  0  0
   -9.5500   21.2725  -32.1187 H   0  0  0  0  0  0  0  0  0  0  0  0
   -9.3050   23.4500  -31.2030 H   0  0  0  0  0  0  0  0  0  0  0  0
   -8.0385   25.2346  -30.3645 H   0  0  0  0  0  0  0  0  0  0  0  0
   -5.7888   26.1436  -29.8050 H   0  0  0  0  0  0  0  0  0  0  0  0
   -3.0780   25.6690  -30.7670 H   0  0  0  0  0  0  0  0  0  0  0  0
   -2.9950   24.7720  -29.2120 H   0  0  0  0  0  0  0  0  0  0  0  0
   -3.9075   22.4939  -31.1540 H   0  0  0  0  0  0  0  0  0  0  0  0
   -5.8927   18.4130  -30.6762 H   0  0  0  0  0  0  0  0  0  0  0  0
   -6.4750   16.1818  -31.6401 H   0  0  0  0  0  0  0  0  0  0  0  0
  1  2  1  0
  2  3  2  0
  3  4  1  0
  4  5  2  0
  5  6  1  0
  6  7  2  0
  7  8  1  0
  8  9  2  0
  9 10  1  0
 10 11  1  0
 11 12  2  0
 12 13  1  0
 13 14  2  0
 14 15  1  0
 14 16  1  0
 16 17  2  0
  5 18  1  0
 18 19  2  0
 19  2  1  0
 17  7  1  0
 17 11  1  0
  1 20  1  0
  1 21  1  0
  1 22  1  0
  3 23  1  0
  4 24  1  0
  9 25  1  0
 10 26  1  0
 12 27  1  0
 13 28  1  0
 15 29  1  0
 15 30  1  0
 16 31  1  0
 18 32  1  0
 19 33  1  0
M  END
>  <smiles>  (29) 
Cc1ccc(N=c2nc[nH]c3ccc(N)cc23)cc1

>  <score_type>  (29) 
oracle

>  <origin>  (29) 
adgpu

>  <m_score__min__energy>  (29) 
-7.5499999999999998

>  <m_primary>  (29) 
energy

$$$$
29:0
     RDKit          3D

 49 52  0  0  0  0  0  0  0  0999 V2000
   -0.0820   29.3630  -25.2600 C   0  0  0  0  0  0  0  0  0  0  0  0
    0.3150   28.2570  -26.0660 O   0  0  0  0  0  0  0  0  0  0  0  0
   -0.5110   27.1610  -26.3670 C   0  0  0  0  0  0  0  0  0  0  0  0
   -1.0610   26.4300  -25.3080 C   0  0  0  0  0  0  0  0  0  0  0  0
   -1.8660   25.3160  -25.5600 C   0  0  0  0  0  0  0  0  0  0  0  0
   -2.1510   24.9340  -26.8750 C   0  0  0  0  0  0  0  0  0  0  0  0
   -1.6260   25.6750  -27.9500 C   0  0  0  0  0  0  0  0  0  0  0  0
   -1.8610   25.3080  -29.3150 N   0  0  0  0  0  0  0  0  0  0  0  0
   -2.9240   24.5010  -29.8350 C   0  0  0  0  0  0  0  0  0  0  0  0
   -3.8720   25.0260  -30.4790 O   0  0  0  0  0  0  0  0  0  0  0  0
   -2.8880   23.0360  -29.6570 C   0  0  0  0  0  0  0  0  0  0  0  0
   -1.8510   22.3020  -29.1190 C   0  0  0  0  0  0  0  0  0  0  0  0
   -2.1590   20.9900  -29.2150 N   0  0  0  0  0  0  0  0  0  0  0  0
   -1.3480   19.8780  -28.7930 C   0  0  0  0  0  0  0  0  0  0  0  0
   -1.5810   19.2660  -27.5480 C   0  0  0  0  0  0  0  0  0  0  0  0
   -0.7870   18.1950  -27.1240 C   0  0  0  0  0  0  0  0  0  0  0  0
    0.2500   17.7280  -27.9340 C   0  0  0  0  0  0  0  0  0  0  0  0
    0.4970   18.3320  -29.1690 C   0  0  0  0  0  0  0  0  0  0  0  0
   -0.2930   19.4030  -29.5980 C   0  0  0  0  0  0  0  0  0  0  0  0
   -3.3450   20.8540  -29.7940 N   0  0  0  0  0  0  0  0  0  0  0  0
   -3.8160   22.0860  -30.0650 C   0  0  0  0  0  0  0  0  0  0  0  0
   -5.1280   22.3300  -30.6950 C   0  0  0  0  0  0  0  0  0  0  0  0
   -6.0810   23.0970  -30.0070 C   0  0  0  0  0  0  0  0  0  0  0  0
   -7.3290   23.3520  -30.5770 C   0  0  0  0  0  0  0  0  0  0  0  0
   -7.6430   22.8310  -31.8330 C   0  0  0  0  0  0  0  0  0  0  0  0
   -6.7130   22.0530  -32.5220 C   0  0  0  0  0  0  0  0  0  0  0  0
   -5.4450   21.7990  -31.9690 C   0  0  0  0  0  0  0  0  0  0  0  0
   -4.4660   20.9440  -32.7340 C   0  0  0  0  0  0  0  0  0  0  0  0
   -0.7940   26.7690  -27.6900 C   0  0  0  0  0  0  0  0  0  0  0  0
    0.0140   29.0955  -24.1974 H   0  0  0  0  0  0  0  0  0  0  0  0
    0.5621   30.2271  -25.4802 H   0  0  0  0  0  0  0  0  0  0  0  0
   -1.1286   29.6202  -25.4802 H   0  0  0  0  0  0  0  0  0  0  0  0
   -0.8583   26.7343  -24.2705 H   0  0  0  0  0  0  0  0  0  0  0  0
   -2.2775   24.7367  -24.7203 H   0  0  0  0  0  0  0  0  0  0  0  0
   -2.7845   24.0558  -27.0686 H   0  0  0  0  0  0  0  0  0  0  0  0
   -0.9287   22.7154  -28.6849 H   0  0  0  0  0  0  0  0  0  0  0  0
   -2.3934   19.6322  -26.9031 H   0  0  0  0  0  0  0  0  0  0  0  0
   -0.9800   17.7200  -26.1508 H   0  0  0  0  0  0  0  0  0  0  0  0
    0.8722   16.8847  -27.5997 H   0  0  0  0  0  0  0  0  0  0  0  0
    1.3151   17.9642  -29.8057 H   0  0  0  0  0  0  0  0  0  0  0  0
   -0.0900   19.8776  -30.5694 H   0  0  0  0  0  0  0  0  0  0  0  0
   -5.8425   23.4999  -29.0116 H   0  0  0  0  0  0  0  0  0  0  0  0
   -8.0657   23.9640  -30.0360 H   0  0  0  0  0  0  0  0  0  0  0  0
   -8.6269   23.0346  -32.2808 H   0  0  0  0  0  0  0  0  0  0  0  0
   -6.9732   21.6348  -33.5056 H   0  0  0  0  0  0  0  0  0  0  0  0
   -3.8318   20.3901  -32.0262 H   0  0  0  0  0  0  0  0  0  0  0  0
   -5.0169   20.2327  -33.3669 H   0  0  0  0  0  0  0  0  0  0  0  0
   -3.8353   21.5856  -33.3669 H   0  0  0  0  0  0  0  0  0  0  0  0
   -0.3556   27.3298  -28.5286 H   0  0  0  0  0  0  0  0  0  0  0  0
  1  2  1  0
  2  3  1  0
  3  4  2  0
  4  5  1  0
  5  6  2  0
  6  7  1  0
  7  8  1  0
  8  9  1  0
  9 10  2  0
  9 11  1  0
 11 12  2  0
 12 13  1  0
 13 14  1  0
 14 15  2  0
 15 16  1  0
 16 17  2  0
 17 18  1  0
 18 19  2  0
 13 20  1  0
 20 21  2  0
 21 22  1  0
 22 23  2  0
 23 24  1  0
 24 25  2  0
 25 26  1  0
 26 27  2  0
 27 28  1  0
  7 29  2  0
 29  3  1  0
 21 11  1  0
 27 22  1  0
 19 14  1  0
  1 30  1  0
  1 31  1  0
  1 32  1  0
  4 33  1  0
  5 34  1  0
  6 35  1  0
 12 36  1  0
 15 37  1  0
 16 38  1  0
 17 39  1  0
 18 40  1  0
 19 41  1  0
 23 42  1  0
 24 43  1  0
 25 44  1  0
 26 45  1  0
 28 46  1  0
 28 47  1  0
 28 48  1  0
 29 49  1  0
M  CHG  1   8  -1
M  END
>  <UniqueID>  (30) 
28

>  <SMILES>  (30) 
COc1cccc([N-]C(=O)c2cn(-c3ccccc3)nc2-c2ccccc2C)c1

>  <Energy>  (30) 
95.01590450637599

>  <Genealogy>  (30) 
COc1cccc([N-]C(=O)c2cn(-c3ccccc3)nc2-c2ccccc2C)c1 (protonated)
COc1cccc([N-]C(=O)c2cn(-c3ccccc3)nc2-c2ccccc2C)c1 (3D coordinates assigned)
COc1cccc([N-]C(=O)c2cn(-c3ccccc3)nc2-c2ccccc2C)c1 (optimized conformer: 95.01590450637599 kcal/mol)

>  <smiles>  (30) 
COc1cccc(NC(=O)c2cn(-c3ccccc3)nc2-c2ccccc2C)c1

>  <score_type>  (30) 
oracle

>  <origin>  (30) 
adgpu

>  <m_score__min__energy>  (30) 
-10.42

>  <m_primary>  (30) 
energy

$$$$
30:0
     RDKit          3D

 30 32  0  0  0  0  0  0  0  0999 V2000
   -1.8570   25.4740  -28.9540 O   0  0  0  0  0  0  0  0  0  0  0  0
   -2.4770   24.5580  -29.5570 C   0  0  0  0  0  0  0  0  0  0  0  0
   -3.5230   24.9200  -30.4700 N   0  0  0  0  0  0  0  0  0  0  0  0
   -4.6800   24.1350  -30.7950 C   0  0  0  0  0  0  0  0  0  0  0  0
   -4.5170   22.9800  -31.5670 C   0  0  0  0  0  0  0  0  0  0  0  0
   -5.6210   22.1940  -31.9070 C   0  0  0  0  0  0  0  0  0  0  0  0
   -6.9150   22.5580  -31.4940 C   0  0  0  0  0  0  0  0  0  0  0  0
   -8.0430   21.7340  -31.8490 N   0  0  0  0  0  0  0  0  0  0  0  0
   -8.0820   20.4130  -32.1080 C   0  0  0  0  0  0  0  0  0  0  0  0
   -9.3410   20.0440  -32.4030 N   0  0  0  0  0  0  0  0  0  0  0  0
  -10.0620   21.1530  -32.3210 N   0  0  0  0  0  0  0  0  0  0  0  0
   -9.2830   22.1710  -31.9880 N   0  0  0  0  0  0  0  0  0  0  0  0
   -7.0780   23.7360  -30.7410 C   0  0  0  0  0  0  0  0  0  0  0  0
   -5.9720   24.5210  -30.4020 C   0  0  0  0  0  0  0  0  0  0  0  0
   -2.0920   23.1500  -29.3170 C   0  0  0  0  0  0  0  0  0  0  0  0
   -1.0080   22.6140  -30.0320 C   0  0  0  0  0  0  0  0  0  0  0  0
   -0.5960   21.2970  -29.8140 C   0  0  0  0  0  0  0  0  0  0  0  0
   -1.2680   20.4980  -28.8880 C   0  0  0  0  0  0  0  0  0  0  0  0
   -2.3630   21.0100  -28.1870 C   0  0  0  0  0  0  0  0  0  0  0  0
   -2.7850   22.3290  -28.3990 C   0  0  0  0  0  0  0  0  0  0  0  0
   -4.2310   22.8790  -27.5570 Cl  0  0  0  0  0  0  0  0  0  0  0  0
   -3.5129   22.6885  -31.9087 H   0  0  0  0  0  0  0  0  0  0  0  0
   -5.4765   21.2813  -32.5037 H   0  0  0  0  0  0  0  0  0  0  0  0
   -7.2143   19.7374  -32.0821 H   0  0  0  0  0  0  0  0  0  0  0  0
   -8.0838   24.0414  -30.4167 H   0  0  0  0  0  0  0  0  0  0  0  0
   -6.1144   25.4462  -29.8242 H   0  0  0  0  0  0  0  0  0  0  0  0
   -0.4795   23.2362  -30.7693 H   0  0  0  0  0  0  0  0  0  0  0  0
    0.2592   20.8893  -30.3730 H   0  0  0  0  0  0  0  0  0  0  0  0
   -0.9356   19.4647  -28.7098 H   0  0  0  0  0  0  0  0  0  0  0  0
   -2.8964   20.3742  -27.4650 H   0  0  0  0  0  0  0  0  0  0  0  0
  1  2  2  0
  2  3  1  0
  3  4  1  0
  4  5  2  0
  5  6  1  0
  6  7  2  0
  7  8  1  0
  8  9  1  0
  9 10  2  0
 10 11  1  0
 11 12  2  0
  7 13  1  0
 13 14  2  0
  2 15  1  0
 15 16  2  0
 16 17  1  0
 17 18  2  0
 18 19  1  0
 19 20  2  0
 20 21  1  0
 14  4  1  0
 20 15  1  0
 12  8  1  0
  5 22  1  0
  6 23  1  0
  9 24  1  0
 13 25  1  0
 14 26  1  0
 16 27  1  0
 17 28  1  0
 18 29  1  0
 19 30  1  0
M  CHG  1   3  -1
M  END
>  <UniqueID>  (31) 
29

>  <SMILES>  (31) 
O=C([N-]c1ccc(-n2cnnn2)cc1)c1ccccc1Cl

>  <Energy>  (31) 
84.2046698889836

>  <Genealogy>  (31) 
O=C([N-]c1ccc(-n2cnnn2)cc1)c1ccccc1Cl (protonated)
O=C([N-]c1ccc(-n2cnnn2)cc1)c1ccccc1Cl (3D coordinates assigned)
O=C([N-]c1ccc(-n2cnnn2)cc1)c1ccccc1Cl (optimized conformer: 84.2046698889836 kcal/mol)

>  <smiles>  (31) 
O=C(Nc1ccc(-n2cnnn2)cc1)c1ccccc1Cl

>  <score_type>  (31) 
oracle

>  <origin>  (31) 
adgpu

>  <m_score__min__energy>  (31) 
-9.6999999999999993

>  <m_primary>  (31) 
energy

$$$$
31:0
     RDKit          3D

 35 37  0  0  0  0  0  0  0  0999 V2000
   -2.8230   22.6122  -32.2687 H   0  0  0  0  0  0  0  0  0  0  0  0
   -3.4450   21.7970  -32.6670 C   0  0  0  0  0  0  0  0  0  0  0  0
   -2.8350   20.7960  -33.3200 C   0  0  0  0  0  0  0  0  0  0  0  0
   -3.4534   19.9792  -33.7205 H   0  0  0  0  0  0  0  0  0  0  0  0
   -1.3690   20.7370  -33.5280 C   0  0  0  0  0  0  0  0  0  0  0  0
   -0.6400   19.7280  -32.8840 C   0  0  0  0  0  0  0  0  0  0  0  0
   -1.1541   19.0019  -32.2370 H   0  0  0  0  0  0  0  0  0  0  0  0
    0.7380   19.6490  -33.0670 C   0  0  0  0  0  0  0  0  0  0  0  0
    1.3167   18.8643  -32.5578 H   0  0  0  0  0  0  0  0  0  0  0  0
    1.3830   20.5640  -33.8950 C   0  0  0  0  0  0  0  0  0  0  0  0
    2.4727   20.5107  -34.0351 H   0  0  0  0  0  0  0  0  0  0  0  0
    0.6370   21.5520  -34.5480 C   0  0  0  0  0  0  0  0  0  0  0  0
    1.2640   22.3880  -35.3280 N   0  0  0  0  0  0  0  0  0  0  0  0
    0.6540   23.4760  -36.0860 C   0  0  0  0  0  0  0  0  0  0  0  0
    0.2374   24.2191  -35.3901 H   0  0  0  0  0  0  0  0  0  0  0  0
    1.4159   23.9537  -36.7196 H   0  0  0  0  0  0  0  0  0  0  0  0
   -0.1510   23.0752  -36.7196 H   0  0  0  0  0  0  0  0  0  0  0  0
   -0.7200   21.6140  -34.3570 N   0  0  0  0  0  0  0  0  0  0  0  0
   -1.2810   22.3220  -34.8780 H   0  0  0  0  0  0  0  0  0  0  0  0
   -4.9120   21.8660  -32.4520 C   0  0  0  0  0  0  0  0  0  0  0  0
   -5.4630   23.0700  -31.9790 C   0  0  0  0  0  0  0  0  0  0  0  0
   -4.8046   23.9298  -31.7861 H   0  0  0  0  0  0  0  0  0  0  0  0
   -6.8360   23.1880  -31.7510 C   0  0  0  0  0  0  0  0  0  0  0  0
   -7.2528   24.1397  -31.3898 H   0  0  0  0  0  0  0  0  0  0  0  0
   -7.6810   22.0990  -31.9810 C   0  0  0  0  0  0  0  0  0  0  0  0
   -9.0180   22.2120  -31.7580 N   0  0  0  0  0  0  0  0  0  0  0  0
   -9.8670   21.1700  -31.9630 C   0  0  0  0  0  0  0  0  0  0  0  0
  -10.9435   21.2943  -31.7740 H   0  0  0  0  0  0  0  0  0  0  0  0
   -9.3760   19.9420  -32.4130 C   0  0  0  0  0  0  0  0  0  0  0  0
  -10.0618   19.0982  -32.5794 H   0  0  0  0  0  0  0  0  0  0  0  0
   -8.0070   19.7940  -32.6500 C   0  0  0  0  0  0  0  0  0  0  0  0
   -7.6087   18.8309  -33.0017 H   0  0  0  0  0  0  0  0  0  0  0  0
   -7.1430   20.8770  -32.4380 C   0  0  0  0  0  0  0  0  0  0  0  0
   -5.7630   20.7630  -32.6670 C   0  0  0  0  0  0  0  0  0  0  0  0
   -5.3433   19.8080  -33.0161 H   0  0  0  0  0  0  0  0  0  0  0  0
  1  2  1  0
  2  3  2  0
  3  4  1  0
  3  5  1  0
  5  6  2  0
  6  7  1  0
  6  8  1  0
  8  9  1  0
  8 10  2  0
 10 11  1  0
 10 12  1  0
 12 13  2  0
 13 14  1  0
 14 15  1  0
 14 16  1  0
 14 17  1  0
 12 18  1  0
 18 19  1  0
  2 20  1  0
 20 21  2  0
 21 22  1  0
 21 23  1  0
 23 24  1  0
 23 25  2  0
 25 26  1  0
 26 27  2  0
 27 28  1  0
 27 29  1  0
 29 30  1  0
 29 31  2  0
 31 32  1  0
 31 33  1  0
 33 34  2  0
 34 35  1  0
 18  5  1  0
 34 20  1  0
 33 25  1  0
M  END
>  <UniqueID>  (32) 
30

>  <SMILES>  (32) 
C/N=c1/cccc(/C=C/c2ccc3ncccc3c2)[nH]1

>  <Energy>  (32) 
46.66850176219359

>  <Genealogy>  (32) 
C/N=c1/cccc(/C=C/c2ccc3ncccc3c2)[nH]1 (cis-trans isomerization)
C/N=c1/cccc(/C=C/c2ccc3ncccc3c2)[nH]1 (3D coordinates assigned)
C/N=c1/cccc(/C=C/c2ccc3ncccc3c2)[nH]1 (optimized conformer: 46.66850176219359 kcal/mol)

>  <smiles>  (32) 
CN=c1cccc(C=Cc2ccc3ncccc3c2)[nH]1

>  <score_type>  (32) 
oracle

>  <origin>  (32) 
adgpu

>  <m_score__min__energy>  (32) 
-7.8700000000000001

>  <m_primary>  (32) 
energy

$$$$
32:0
     RDKit          3D

 44 46  0  0  0  0  0  0  0  0999 V2000
   -1.6090   25.3910  -28.0450 C   0  0  0  0  0  0  0  0  0  0  0  0
   -2.3600   25.2920  -29.2510 O   0  0  0  0  0  0  0  0  0  0  0  0
   -2.7400   24.0820  -29.8510 C   0  0  0  0  0  0  0  0  0  0  0  0
   -1.8940   22.9610  -29.8850 C   0  0  0  0  0  0  0  0  0  0  0  0
   -2.3090   21.7850  -30.5120 C   0  0  0  0  0  0  0  0  0  0  0  0
   -3.5840   21.7020  -31.1050 C   0  0  0  0  0  0  0  0  0  0  0  0
   -4.0200   20.5360  -31.7570 O   0  0  0  0  0  0  0  0  0  0  0  0
   -3.3690   19.9500  -32.8800 C   0  0  0  0  0  0  0  0  0  0  0  0
   -4.4490   22.8120  -31.0450 C   0  0  0  0  0  0  0  0  0  0  0  0
   -5.7490   22.7350  -31.6600 N   0  0  0  0  0  0  0  0  0  0  0  0
   -6.8920   23.4940  -31.2320 C   0  0  0  0  0  0  0  0  0  0  0  0
   -6.8390   24.2200  -30.2030 O   0  0  0  0  0  0  0  0  0  0  0  0
   -8.1930   23.3710  -31.9670 C   0  0  0  0  0  0  0  0  0  0  0  0
   -9.0680   21.8450  -31.4800 S   0  0  0  0  0  0  0  0  0  0  0  0
   -7.9200   20.7350  -32.3060 C   0  0  0  0  0  0  0  0  0  0  0  0
   -7.0200   21.1500  -33.2170 N   0  0  0  0  0  0  0  0  0  0  0  0
   -6.3630   20.0750  -33.6270 N   0  0  0  0  0  0  0  0  0  0  0  0
   -6.8750   19.0190  -32.9620 C   0  0  0  0  0  0  0  0  0  0  0  0
   -6.4080   17.6360  -33.1570 C   0  0  0  0  0  0  0  0  0  0  0  0
   -5.4550   16.9940  -32.3910 C   0  0  0  0  0  0  0  0  0  0  0  0
   -5.3390   15.7290  -32.9230 C   0  0  0  0  0  0  0  0  0  0  0  0
   -6.2250   15.6760  -33.9800 C   0  0  0  0  0  0  0  0  0  0  0  0
   -6.8470   16.8270  -34.0940 O   0  0  0  0  0  0  0  0  0  0  0  0
   -7.8600   19.4010  -32.1220 N   0  0  0  0  0  0  0  0  0  0  0  0
   -8.6730   18.5640  -31.2400 C   0  0  0  0  0  0  0  0  0  0  0  0
   -4.0060   24.0020  -30.4380 C   0  0  0  0  0  0  0  0  0  0  0  0
   -2.2863   25.3017  -27.1829 H   0  0  0  0  0  0  0  0  0  0  0  0
   -0.8629   24.5834  -28.0103 H   0  0  0  0  0  0  0  0  0  0  0  0
   -1.0977   26.3643  -28.0103 H   0  0  0  0  0  0  0  0  0  0  0  0
   -0.9004   23.0102  -29.4156 H   0  0  0  0  0  0  0  0  0  0  0  0
   -1.6351   20.9162  -30.5433 H   0  0  0  0  0  0  0  0  0  0  0  0
   -2.5936   19.2520  -32.5313 H   0  0  0  0  0  0  0  0  0  0  0  0
   -4.1062   19.4051  -33.4880 H   0  0  0  0  0  0  0  0  0  0  0  0
   -2.9044   20.7402  -33.4880 H   0  0  0  0  0  0  0  0  0  0  0  0
   -5.9000   22.0110  -32.3980 H   0  0  0  0  0  0  0  0  0  0  0  0
   -8.8245   24.2402  -31.7310 H   0  0  0  0  0  0  0  0  0  0  0  0
   -7.9866   23.3308  -33.0467 H   0  0  0  0  0  0  0  0  0  0  0  0
   -4.9031   17.4072  -31.5339 H   0  0  0  0  0  0  0  0  0  0  0  0
   -4.6747   14.9239  -32.5758 H   0  0  0  0  0  0  0  0  0  0  0  0
   -6.3857   14.8022  -34.6286 H   0  0  0  0  0  0  0  0  0  0  0  0
   -8.4411   18.8028  -30.1916 H   0  0  0  0  0  0  0  0  0  0  0  0
   -9.7389   18.7557  -31.4326 H   0  0  0  0  0  0  0  0  0  0  0  0
   -8.4504   17.5041  -31.4326 H   0  0  0  0  0  0  0  0  0  0  0  0
   -4.6658   24.8821  -30.4253 H   0  0  0  0  0  0  0  0  0  0  0  0
  1  2  1  0
  2  3  1  0
  3  4  2  0
  4  5  1  0
  5  6  2  0
  6  7  1  0
  7  8  1  0
  6  9  1  0
  9 10  1  0
 10 11  1  0
 11 12  2  0
 11 13  1  0
 13 14  1  0
 14 15  1  0
 15 16  2  0
 16 17  1  0
 17 18  2  0
 18 19  1  0
 19 20  2  0
 20 21  1  0
 21 22  2  0
 22 23  1  0
 18 24  1  0
 24 25  1  0
  9 26  2  0
 26  3  1  0
 24 15  1  0
 23 19  1  0
  1 27  1  0
  1 28  1  0
  1 29  1  0
  4 30  1  0
  5 31  1  0
  8 32  1  0
  8 33  1  0
  8 34  1  0
 10 35  1  0
 13 36  1  0
 13 37  1  0
 20 38  1  0
 21 39  1  0
 22 40  1  0
 25 41  1  0
 25 42  1  0
 25 43  1  0
 26 44  1  0
M  END
>  <UniqueID>  (33) 
31

>  <SMILES>  (33) 
COc1ccc(OC)c(NC(=O)CSc2nnc(-c3ccco3)n2C)c1

>  <Energy>  (33) 
99.86191227488759

>  <Genealogy>  (33) 
COc1ccc(OC)c(NC(=O)CSc2nnc(-c3ccco3)n2C)c1 (3D coordinates assigned)
COc1ccc(OC)c(NC(=O)CSc2nnc(-c3ccco3)n2C)c1 (optimized conformer: 99.86191227488759 kcal/mol)

>  <smiles>  (33) 
COc1ccc(OC)c(NC(=O)CSc2nnc(-c3ccco3)n2C)c1

>  <score_type>  (33) 
oracle

>  <origin>  (33) 
adgpu

>  <m_score__min__energy>  (33) 
-8.0199999999999996

>  <m_primary>  (33) 
energy

$$$$
33:0
     RDKit          3D

 40 42  0  0  0  0  0  0  0  0999 V2000
   -5.8470   16.7050  -33.3600 C   0  0  0  0  0  0  0  0  0  0  0  0
   -5.0340   17.9250  -34.3670 S   0  0  0  0  0  0  0  0  0  0  0  0
   -6.0260   18.5330  -35.3180 O   0  0  0  0  0  0  0  0  0  0  0  0
   -3.9360   17.2760  -35.1620 O   0  0  0  0  0  0  0  0  0  0  0  0
   -4.3580   19.1690  -33.3220 C   0  0  0  0  0  0  0  0  0  0  0  0
   -3.4900   20.1370  -33.8440 C   0  0  0  0  0  0  0  0  0  0  0  0
   -3.0230   21.1740  -33.0310 C   0  0  0  0  0  0  0  0  0  0  0  0
   -3.4360   21.2620  -31.6920 C   0  0  0  0  0  0  0  0  0  0  0  0
   -3.0550   22.4350  -30.8730 C   0  0  0  0  0  0  0  0  0  0  0  0
   -1.8890   22.3820  -30.0950 C   0  0  0  0  0  0  0  0  0  0  0  0
   -1.5550   23.4480  -29.2600 C   0  0  0  0  0  0  0  0  0  0  0  0
   -2.3900   24.5620  -29.2050 C   0  0  0  0  0  0  0  0  0  0  0  0
   -3.5060   24.6150  -29.9780 N   0  0  0  0  0  0  0  0  0  0  0  0
   -3.8530   23.6050  -30.8220 C   0  0  0  0  0  0  0  0  0  0  0  0
   -5.0090   23.7610  -31.6040 O   0  0  0  0  0  0  0  0  0  0  0  0
   -6.1450   22.9420  -31.5200 C   0  0  0  0  0  0  0  0  0  0  0  0
   -7.0610   23.0550  -30.4600 C   0  0  0  0  0  0  0  0  0  0  0  0
   -8.2130   22.2650  -30.4390 C   0  0  0  0  0  0  0  0  0  0  0  0
   -8.4510   21.3460  -31.4630 C   0  0  0  0  0  0  0  0  0  0  0  0
   -7.5280   21.2020  -32.5100 C   0  0  0  0  0  0  0  0  0  0  0  0
   -7.7730   20.2640  -33.5600 N   0  0  0  0  0  0  0  0  0  0  0  0
   -6.3700   21.9920  -32.5240 C   0  0  0  0  0  0  0  0  0  0  0  0
   -4.2730   20.2670  -31.1610 C   0  0  0  0  0  0  0  0  0  0  0  0
   -4.7380   19.2310  -31.9760 C   0  0  0  0  0  0  0  0  0  0  0  0
   -5.6890   16.9421  -32.2975 H   0  0  0  0  0  0  0  0  0  0  0  0
   -6.9248   16.7072  -33.5798 H   0  0  0  0  0  0  0  0  0  0  0  0
   -5.4300   15.7111  -33.5798 H   0  0  0  0  0  0  0  0  0  0  0  0
   -3.1751   20.0809  -34.8965 H   0  0  0  0  0  0  0  0  0  0  0  0
   -2.3300   21.9231  -33.4415 H   0  0  0  0  0  0  0  0  0  0  0  0
   -1.2366   21.4977  -30.1436 H   0  0  0  0  0  0  0  0  0  0  0  0
   -0.6403   23.4096  -28.6502 H   0  0  0  0  0  0  0  0  0  0  0  0
   -2.1454   25.3994  -28.5350 H   0  0  0  0  0  0  0  0  0  0  0  0
   -6.8702   23.7678  -29.6442 H   0  0  0  0  0  0  0  0  0  0  0  0
   -8.9338   22.3671  -29.6144 H   0  0  0  0  0  0  0  0  0  0  0  0
   -9.3645   20.7333  -31.4489 H   0  0  0  0  0  0  0  0  0  0  0  0
   -8.7480   20.0440  -33.8640 H   0  0  0  0  0  0  0  0  0  0  0  0
   -6.9810   19.7890  -34.0490 H   0  0  0  0  0  0  0  0  0  0  0  0
   -5.6323   21.8647  -33.3300 H   0  0  0  0  0  0  0  0  0  0  0  0
   -4.5634   20.3031  -30.1007 H   0  0  0  0  0  0  0  0  0  0  0  0
   -5.4046   18.4620  -31.5585 H   0  0  0  0  0  0  0  0  0  0  0  0
  1  2  1  0
  2  3  2  0
  2  4  2  0
  2  5  1  0
  5  6  2  0
  6  7  1  0
  7  8  2  0
  8  9  1  0
  9 10  2  0
 10 11  1  0
 11 12  2  0
 12 13  1  0
 13 14  2  0
 14 15  1  0
 15 16  1  0
 16 17  2  0
 17 18  1  0
 18 19  2  0
 19 20  1  0
 20 21  1  0
 20 22  2  0
  8 23  1  0
 23 24  2  0
 24  5  1  0
 14  9  1  0
 22 16  1  0
  1 25  1  0
  1 26  1  0
  1 27  1  0
  6 28  1  0
  7 29  1  0
 10 30  1  0
 11 31  1  0
 12 32  1  0
 17 33  1  0
 18 34  1  0
 19 35  1  0
 21 36  1  0
 21 37  1  0
 22 38  1  0
 23 39  1  0
 24 40  1  0
M  END
>  <UniqueID>  (34) 
32

>  <SMILES>  (34) 
CS(=O)(=O)c1ccc(-c2cccnc2Oc2cccc(N)c2)cc1

>  <Energy>  (34) 
51.03160000516803

>  <Genealogy>  (34) 
CS(=O)(=O)c1ccc(-c2cccnc2Oc2cccc(N)c2)cc1 (3D coordinates assigned)
CS(=O)(=O)c1ccc(-c2cccnc2Oc2cccc(N)c2)cc1 (optimized conformer: 51.03160000516803 kcal/mol)

>  <smiles>  (34) 
CS(=O)(=O)c1ccc(-c2cccnc2Oc2cccc(N)c2)cc1

>  <score_type>  (34) 
oracle

>  <origin>  (34) 
adgpu

>  <m_score__min__energy>  (34) 
-8.9900000000000002

>  <m_primary>  (34) 
energy

$$$$
34:0
     RDKit          3D

 36 37  0  0  0  0  0  0  0  0999 V2000
   -1.3352   18.4198  -34.6112 H   0  0  0  0  0  0  0  0  0  0  0  0
   -1.9520   19.0430  -33.9470 C   0  0  0  0  0  0  0  0  0  0  0  0
   -1.3420   19.8820  -33.0130 C   0  0  0  0  0  0  0  0  0  0  0  0
   -0.2451   19.9047  -32.9339 H   0  0  0  0  0  0  0  0  0  0  0  0
   -2.1160   20.6950  -32.1760 C   0  0  0  0  0  0  0  0  0  0  0  0
   -1.4490   21.5230  -31.2090 N   0  0  0  0  0  0  0  0  0  0  0  0
   -1.9090   22.6120  -30.6640 C   0  0  0  0  0  0  0  0  0  0  0  0
   -3.0990   23.1460  -31.0450 N   0  0  0  0  0  0  0  0  0  0  0  0
   -3.5570   24.2940  -30.4870 C   0  0  0  0  0  0  0  0  0  0  0  0
   -4.7080   24.7600  -30.8820 N   0  0  0  0  0  0  0  0  0  0  0  0
   -5.3720   25.9830  -30.4300 C   0  0  0  0  0  0  0  0  0  0  0  0
   -5.8199   26.4913  -31.2966 H   0  0  0  0  0  0  0  0  0  0  0  0
   -4.6254   26.6318  -29.9487 H   0  0  0  0  0  0  0  0  0  0  0  0
   -6.4680   25.6630  -29.4160 C   0  0  0  0  0  0  0  0  0  0  0  0
   -6.0701   25.7792  -28.3971 H   0  0  0  0  0  0  0  0  0  0  0  0
   -7.3134   26.3518  -29.5602 H   0  0  0  0  0  0  0  0  0  0  0  0
   -6.8100   24.6275  -29.5602 H   0  0  0  0  0  0  0  0  0  0  0  0
   -2.8070   24.9210  -29.5310 N   0  0  0  0  0  0  0  0  0  0  0  0
   -3.1300   25.8000  -29.0710 H   0  0  0  0  0  0  0  0  0  0  0  0
   -1.6080   24.3980  -29.1540 C   0  0  0  0  0  0  0  0  0  0  0  0
   -0.8970   25.0050  -28.2500 N   0  0  0  0  0  0  0  0  0  0  0  0
    0.3990   24.5310  -27.7740 C   0  0  0  0  0  0  0  0  0  0  0  0
    0.4069   24.5281  -26.6740 H   0  0  0  0  0  0  0  0  0  0  0  0
    0.5748   23.5104  -28.1446 H   0  0  0  0  0  0  0  0  0  0  0  0
    1.1918   25.1974  -28.1446 H   0  0  0  0  0  0  0  0  0  0  0  0
   -1.1640   23.2470  -29.7270 N   0  0  0  0  0  0  0  0  0  0  0  0
   -3.5210   20.6150  -32.2480 C   0  0  0  0  0  0  0  0  0  0  0  0
   -4.1383   21.2158  -31.5639 H   0  0  0  0  0  0  0  0  0  0  0  0
   -4.1400   19.7710  -33.1900 C   0  0  0  0  0  0  0  0  0  0  0  0
   -5.5350   19.6730  -33.3120 O   0  0  0  0  0  0  0  0  0  0  0  0
   -6.4590   20.5960  -32.7440 C   0  0  0  0  0  0  0  0  0  0  0  0
   -6.4043   20.5413  -31.6467 H   0  0  0  0  0  0  0  0  0  0  0  0
   -6.2085   21.6152  -33.0733 H   0  0  0  0  0  0  0  0  0  0  0  0
   -7.4779   20.3444  -33.0733 H   0  0  0  0  0  0  0  0  0  0  0  0
   -3.3440   18.9940  -34.0390 C   0  0  0  0  0  0  0  0  0  0  0  0
   -3.8189   18.3395  -34.7847 H   0  0  0  0  0  0  0  0  0  0  0  0
  1  2  1  0
  2  3  2  0
  3  4  1  0
  3  5  1  0
  5  6  1  0
  6  7  2  3
  7  8  1  0
  8  9  1  0
  9 10  2  0
 10 11  1  0
 11 12  1  0
 11 13  1  0
 11 14  1  0
 14 15  1  0
 14 16  1  0
 14 17  1  0
  9 18  1  0
 18 19  1  0
 18 20  1  0
 20 21  2  0
 21 22  1  0
 22 23  1  0
 22 24  1  0
 22 25  1  0
 20 26  1  0
  5 27  2  0
 27 28  1  0
 27 29  1  0
 29 30  1  0
 30 31  1  0
 31 32  1  0
 31 33  1  0
 31 34  1  0
 29 35  2  0
 35 36  1  0
 35  2  1  0
 26  7  1  0
M  CHG  2   8  -1  26  -1
M  END
>  <UniqueID>  (35) 
33

>  <SMILES>  (35) 
CC/N=c1/[n-]c(=Nc2cccc(OC)c2)[n-]/c(=N\C)[nH]1

>  <Energy>  (35) 
39.87794712555833

>  <Genealogy>  (35) 
CCN=c1[n-]c(=Nc2cccc(OC)c2)[n-]c(=NC)[nH]1 (protonated)
CC/N=c1/[n-]c(=Nc2cccc(OC)c2)[n-]/c(=N\C)[nH]1 (cis-trans isomerization)
CC/N=c1/[n-]c(=Nc2cccc(OC)c2)[n-]/c(=N\C)[nH]1 (3D coordinates assigned)
CC/N=c1/[n-]c(=Nc2cccc(OC)c2)[n-]/c(=N\C)[nH]1 (optimized conformer: 39.87794712555833 kcal/mol)

>  <smiles>  (35) 
CCN=c1[nH]c(=NC)[nH]c(=Nc2cccc(OC)c2)[nH]1

>  <score_type>  (35) 
oracle

>  <origin>  (35) 
adgpu

>  <m_score__min__energy>  (35) 
-8.1300000000000008

>  <m_primary>  (35) 
energy

$$$$
35:0
     RDKit          3D

 32 35  0  0  1  0  0  0  0  0999 V2000
   -2.6940   25.6870  -25.2120 F   0  0  0  0  0  0  0  0  0  0  0  0
   -2.3510   25.2570  -26.4500 C   0  0  0  0  0  0  0  0  0  0  0  0
   -1.0720   25.5490  -26.9180 C   0  0  0  0  0  0  0  0  0  0  0  0
   -0.6900   25.1200  -28.1830 C   0  0  0  0  0  0  0  0  0  0  0  0
   -1.6050   24.4060  -28.9590 C   0  0  0  0  0  0  0  0  0  0  0  0
   -2.8750   24.1230  -28.4780 C   0  0  0  0  0  0  0  0  0  0  0  0
   -3.7350   23.3940  -29.3300 N   0  0  0  0  0  0  0  0  0  0  0  0
   -4.8790   23.8250  -29.7340 C   0  0  0  0  0  0  0  0  0  0  0  0
   -5.2700   25.0280  -29.3210 N   0  0  0  0  0  0  0  0  0  0  0  0
   -6.4320   25.6160  -29.6520 C   0  0  0  0  0  0  0  0  0  0  0  0
   -7.2430   24.9050  -30.4680 N   0  0  0  0  0  0  0  0  0  0  0  0
   -6.8930   23.6920  -30.9080 C   0  0  0  0  0  0  0  0  0  0  0  0
   -7.7570   22.5370  -31.9830 S   0  0  0  0  0  0  0  0  0  0  0  0
   -6.4090   21.2710  -31.9040 C   0  0  0  0  0  0  0  0  0  0  0  0
   -6.4410   20.0230  -32.5710 C   0  0  0  0  0  0  0  0  0  0  0  0
   -7.0550   18.8620  -32.1480 C   0  0  0  0  0  0  0  0  0  0  0  0
   -6.8290   17.8990  -33.1110 C   0  0  0  0  0  0  0  0  0  0  0  0
   -6.0730   18.5370  -34.0910 C   0  0  0  0  0  0  0  0  0  0  0  0
   -5.8630   19.7830  -33.7430 O   0  0  0  0  0  0  0  0  0  0  0  0
   -5.4850   21.8450  -31.0980 C   0  0  0  0  0  0  0  0  0  0  0  0
   -5.7030   23.0590  -30.5850 C   0  0  0  0  0  0  0  0  0  0  0  0
   -3.2600   24.5470  -27.2190 C   0  0  0  0  0  0  0  0  0  0  0  0
   -0.3688   26.1157  -26.2900 H   0  0  0  0  0  0  0  0  0  0  0  0
    0.3172   25.3394  -28.5670 H   0  0  0  0  0  0  0  0  0  0  0  0
   -1.3155   24.0639  -29.9635 H   0  0  0  0  0  0  0  0  0  0  0  0
   -4.6400   25.5730  -28.6910 H   0  0  0  0  0  0  0  0  0  0  0  0
   -6.7069   26.6147  -29.2819 H   0  0  0  0  0  0  0  0  0  0  0  0
   -7.6210   18.7282  -31.2143 H   0  0  0  0  0  0  0  0  0  0  0  0
   -7.1719   16.8538  -33.1054 H   0  0  0  0  0  0  0  0  0  0  0  0
   -5.7078   18.0670  -35.0160 H   0  0  0  0  0  0  0  0  0  0  0  0
   -4.5524   21.3103  -30.8650 H   0  0  0  0  0  0  0  0  0  0  0  0
   -4.2670   24.3253  -26.8357 H   0  0  0  0  0  0  0  0  0  0  0  0
  1  2  1  0
  2  3  2  0
  3  4  1  0
  4  5  2  0
  5  6  1  0
  6  7  1  0
  7  8  2  0
  8  9  1  0
  9 10  1  0
 10 11  2  0
 11 12  1  0
 12 13  1  0
 13 14  1  0
 14 15  1  0
 15 16  2  0
 16 17  1  0
 17 18  2  0
 18 19  1  0
 14 20  2  0
 20 21  1  0
  6 22  2  0
 22  2  1  0
 21  8  1  0
 21 12  2  0
 19 15  1  0
  3 23  1  0
  4 24  1  0
  5 25  1  0
  9 26  1  0
 10 27  1  0
 16 28  1  0
 17 29  1  0
 18 30  1  0
 20 31  1  0
 22 32  1  0
M  END
>  <smiles>  (36) 
Fc1cccc(N=c2[nH]cnc3sc(-c4ccco4)cc23)c1

>  <score_type>  (36) 
oracle

>  <origin>  (36) 
adgpu

>  <m_score__min__energy>  (36) 
-8.2599999999999998

>  <m_primary>  (36) 
energy

$$$$
36:0
     RDKit          3D

 35 36  0  0  0  0  0  0  0  0999 V2000
   -4.7880   21.9380  -31.5650 C   0  0  0  0  0  0  0  0  0  0  0  0
   -3.4930   22.5160  -31.4420 O   0  0  0  0  0  0  0  0  0  0  0  0
   -2.9600   23.0260  -30.2470 C   0  0  0  0  0  0  0  0  0  0  0  0
   -2.2080   22.2300  -29.3660 C   0  0  0  0  0  0  0  0  0  0  0  0
   -1.6940   22.7710  -28.1860 C   0  0  0  0  0  0  0  0  0  0  0  0
   -1.9200   24.1180  -27.8580 C   0  0  0  0  0  0  0  0  0  0  0  0
   -1.3740   24.7020  -26.6060 C   0  0  0  0  0  0  0  0  0  0  0  0
   -0.1860   24.3460  -25.9600 C   0  0  0  0  0  0  0  0  0  0  0  0
    0.0800   25.0350  -24.8180 N   0  0  0  0  0  0  0  0  0  0  0  0
   -0.8760   25.9470  -24.5400 C   0  0  0  0  0  0  0  0  0  0  0  0
   -0.8630   26.8150  -23.3210 C   0  0  0  0  0  0  0  0  0  0  0  0
    0.5310   27.3970  -23.0530 C   0  0  0  0  0  0  0  0  0  0  0  0
    1.5860   26.4030  -23.2570 N   0  0  0  0  0  0  0  0  0  0  0  0
   -2.0990   25.9220  -25.6910 S   0  0  0  0  0  0  0  0  0  0  0  0
   -2.6690   24.9140  -28.7440 C   0  0  0  0  0  0  0  0  0  0  0  0
   -3.1910   24.3730  -29.9360 C   0  0  0  0  0  0  0  0  0  0  0  0
   -3.9450   25.1440  -30.8370 O   0  0  0  0  0  0  0  0  0  0  0  0
   -5.3610   25.2940  -30.7840 C   0  0  0  0  0  0  0  0  0  0  0  0
   -5.2034   21.7526  -30.5635 H   0  0  0  0  0  0  0  0  0  0  0  0
   -5.4467   22.6275  -32.1133 H   0  0  0  0  0  0  0  0  0  0  0  0
   -4.7146   20.9872  -32.1133 H   0  0  0  0  0  0  0  0  0  0  0  0
   -2.0230   21.1730  -29.6079 H   0  0  0  0  0  0  0  0  0  0  0  0
   -1.1063   22.1362  -27.5065 H   0  0  0  0  0  0  0  0  0  0  0  0
    0.4849   23.5651  -26.3475 H   0  0  0  0  0  0  0  0  0  0  0  0
   -1.5730   27.6427  -23.4653 H   0  0  0  0  0  0  0  0  0  0  0  0
   -1.1481   26.1967  -22.4570 H   0  0  0  0  0  0  0  0  0  0  0  0
    0.7012   28.2417  -23.7368 H   0  0  0  0  0  0  0  0  0  0  0  0
    0.5682   27.7230  -22.0031 H   0  0  0  0  0  0  0  0  0  0  0  0
    2.4070   26.6130  -22.6470 H   0  0  0  0  0  0  0  0  0  0  0  0
    1.8820   26.3890  -24.2610 H   0  0  0  0  0  0  0  0  0  0  0  0
    1.2160   25.4580  -23.0040 H   0  0  0  0  0  0  0  0  0  0  0  0
   -2.8494   25.9720  -28.5032 H   0  0  0  0  0  0  0  0  0  0  0  0
   -5.6870   25.3285  -29.7340 H   0  0  0  0  0  0  0  0  0  0  0  0
   -5.6499   26.2278  -31.2885 H   0  0  0  0  0  0  0  0  0  0  0  0
   -5.8392   24.4415  -31.2885 H   0  0  0  0  0  0  0  0  0  0  0  0
  1  2  1  0
  2  3  1  0
  3  4  2  0
  4  5  1  0
  5  6  2  0
  6  7  1  0
  7  8  2  0
  8  9  1  0
  9 10  2  0
 10 11  1  0
 11 12  1  0
 12 13  1  0
 10 14  1  0
  6 15  1  0
 15 16  2  0
 16 17  1  0
 17 18  1  0
 16  3  1  0
 14  7  1  0
  1 19  1  0
  1 20  1  0
  1 21  1  0
  4 22  1  0
  5 23  1  0
  8 24  1  0
 11 25  1  0
 11 26  1  0
 12 27  1  0
 12 28  1  0
 13 29  1  0
 13 30  1  0
 13 31  1  0
 15 32  1  0
 18 33  1  0
 18 34  1  0
 18 35  1  0
M  CHG  1  13   1
M  END
>  <UniqueID>  (37) 
34

>  <SMILES>  (37) 
COc1ccc(-c2cnc(CC[NH3+])s2)cc1OC

>  <Energy>  (37) 
61.79974508819753

>  <Genealogy>  (37) 
COc1ccc(-c2cnc(CC[NH3+])s2)cc1OC (protonated)
COc1ccc(-c2cnc(CC[NH3+])s2)cc1OC (3D coordinates assigned)
COc1ccc(-c2cnc(CC[NH3+])s2)cc1OC (optimized conformer: 61.79974508819753 kcal/mol)

>  <smiles>  (37) 
COc1ccc(-c2cnc(CCN)s2)cc1OC

>  <score_type>  (37) 
oracle

>  <origin>  (37) 
adgpu

>  <m_score__min__energy>  (37) 
-6.4400000000000004

>  <m_primary>  (37) 
energy

$$$$
37:0
     RDKit          3D

 34 35  0  0  0  0  0  0  0  0999 V2000
   -0.9020   23.0210  -29.7640 C   0  0  0  0  0  0  0  0  0  0  0  0
   -1.3200   24.3340  -29.4050 O   0  0  0  0  0  0  0  0  0  0  0  0
   -2.0540   24.6480  -28.2500 C   0  0  0  0  0  0  0  0  0  0  0  0
   -1.4610   25.2940  -27.1460 C   0  0  0  0  0  0  0  0  0  0  0  0
   -2.2190   25.5950  -26.0130 C   0  0  0  0  0  0  0  0  0  0  0  0
   -3.5690   25.2480  -25.9610 C   0  0  0  0  0  0  0  0  0  0  0  0
   -4.1680   24.6060  -27.0470 C   0  0  0  0  0  0  0  0  0  0  0  0
   -3.4230   24.3150  -28.2040 C   0  0  0  0  0  0  0  0  0  0  0  0
   -4.0280   23.6310  -29.3150 N   0  0  0  0  0  0  0  0  0  0  0  0
   -4.3030   24.2450  -30.5810 C   0  0  0  0  0  0  0  0  0  0  0  0
   -3.8620   25.3970  -30.8430 O   0  0  0  0  0  0  0  0  0  0  0  0
   -5.0520   23.5220  -31.5620 N   0  0  0  0  0  0  0  0  0  0  0  0
   -6.4630   23.7640  -31.8420 C   0  0  0  0  0  0  0  0  0  0  0  0
   -7.1850   22.4620  -32.0550 C   0  0  0  0  0  0  0  0  0  0  0  0
   -8.5480   22.3530  -31.7350 C   0  0  0  0  0  0  0  0  0  0  0  0
   -9.2190   21.1390  -31.9120 C   0  0  0  0  0  0  0  0  0  0  0  0
   -8.5340   20.0250  -32.4050 C   0  0  0  0  0  0  0  0  0  0  0  0
   -7.1750   20.1240  -32.7210 C   0  0  0  0  0  0  0  0  0  0  0  0
   -6.5010   21.3360  -32.5460 C   0  0  0  0  0  0  0  0  0  0  0  0
   -0.7150   22.4338  -28.8529 H   0  0  0  0  0  0  0  0  0  0  0  0
   -1.6898   22.5350  -30.3582 H   0  0  0  0  0  0  0  0  0  0  0  0
    0.0218   23.0799  -30.3582 H   0  0  0  0  0  0  0  0  0  0  0  0
   -0.3947   25.5624  -27.1776 H   0  0  0  0  0  0  0  0  0  0  0  0
   -1.7506   26.1069  -25.1594 H   0  0  0  0  0  0  0  0  0  0  0  0
   -4.1621   25.4801  -25.0642 H   0  0  0  0  0  0  0  0  0  0  0  0
   -5.2305   24.3258  -26.9972 H   0  0  0  0  0  0  0  0  0  0  0  0
   -4.2100   22.6040  -29.2310 H   0  0  0  0  0  0  0  0  0  0  0  0
   -6.9157   24.2947  -30.9915 H   0  0  0  0  0  0  0  0  0  0  0  0
   -6.5469   24.3725  -32.7545 H   0  0  0  0  0  0  0  0  0  0  0  0
   -9.0901   23.2264  -31.3434 H   0  0  0  0  0  0  0  0  0  0  0  0
  -10.2875   21.0607  -31.6628 H   0  0  0  0  0  0  0  0  0  0  0  0
   -9.0633   19.0709  -32.5444 H   0  0  0  0  0  0  0  0  0  0  0  0
   -6.6358   19.2467  -33.1078 H   0  0  0  0  0  0  0  0  0  0  0  0
   -5.4317   21.4091  -32.7933 H   0  0  0  0  0  0  0  0  0  0  0  0
  1  2  1  0
  2  3  1  0
  3  4  2  0
  4  5  1  0
  5  6  2  0
  6  7  1  0
  7  8  2  0
  8  9  1  0
  9 10  1  0
 10 11  2  0
 10 12  1  0
 12 13  1  0
 13 14  1  0
 14 15  2  0
 15 16  1  0
 16 17  2  0
 17 18  1  0
 18 19  2  0
  8  3  1  0
 19 14  1  0
  1 20  1  0
  1 21  1  0
  1 22  1  0
  4 23  1  0
  5 24  1  0
  6 25  1  0
  7 26  1  0
  9 27  1  0
 13 28  1  0
 13 29  1  0
 15 30  1  0
 16 31  1  0
 17 32  1  0
 18 33  1  0
 19 34  1  0
M  CHG  1  12  -1
M  END
>  <UniqueID>  (38) 
35

>  <SMILES>  (38) 
COc1ccccc1NC(=O)[N-]Cc1ccccc1

>  <Energy>  (38) 
35.10648477389575

>  <Genealogy>  (38) 
COc1ccccc1NC(=O)[N-]Cc1ccccc1 (protonated)
COc1ccccc1NC(=O)[N-]Cc1ccccc1 (3D coordinates assigned)
COc1ccccc1NC(=O)[N-]Cc1ccccc1 (optimized conformer: 35.10648477389575 kcal/mol)

>  <smiles>  (38) 
COc1ccccc1NC(=O)NCc1ccccc1

>  <score_type>  (38) 
oracle

>  <origin>  (38) 
adgpu

>  <m_score__min__energy>  (38) 
-8.3800000000000008

>  <m_primary>  (38) 
energy

$$$$
38:0
     RDKit          3D

 34 35  0  0  0  0  0  0  0  0999 V2000
   -5.1150   25.3090  -30.7170 C   0  0  0  0  0  0  0  0  0  0  0  0
   -3.7240   25.1660  -30.4500 O   0  0  0  0  0  0  0  0  0  0  0  0
   -3.1840   24.3040  -29.4830 C   0  0  0  0  0  0  0  0  0  0  0  0
   -3.7160   23.0210  -29.2500 C   0  0  0  0  0  0  0  0  0  0  0  0
   -3.1520   22.1890  -28.2820 C   0  0  0  0  0  0  0  0  0  0  0  0
   -2.0340   22.6100  -27.5430 C   0  0  0  0  0  0  0  0  0  0  0  0
   -1.4370   21.7220  -26.4750 C   0  0  2  0  0  0  0  0  0  0  0  0
   -0.3910   22.3960  -25.8260 O   0  0  0  0  0  0  0  0  0  0  0  0
   -0.9180   20.4550  -27.1080 C   0  0  0  0  0  0  0  0  0  0  0  0
    0.2960   20.3750  -27.6970 N   0  0  0  0  0  0  0  0  0  0  0  0
    0.3580   19.1100  -28.1610 C   0  0  0  0  0  0  0  0  0  0  0  0
   -0.8090   18.4470  -27.8560 C   0  0  0  0  0  0  0  0  0  0  0  0
   -1.6130   19.2990  -27.2000 N   0  0  0  0  0  0  0  0  0  0  0  0
   -2.9450   19.0050  -26.6770 C   0  0  0  0  0  0  0  0  0  0  0  0
   -1.5170   23.8940  -27.7630 C   0  0  0  0  0  0  0  0  0  0  0  0
   -2.0860   24.7450  -28.7300 C   0  0  0  0  0  0  0  0  0  0  0  0
   -1.5940   26.0390  -28.9670 O   0  0  0  0  0  0  0  0  0  0  0  0
   -0.8550   26.8080  -28.0230 C   0  0  0  0  0  0  0  0  0  0  0  0
   -5.6668   25.3657  -29.7671 H   0  0  0  0  0  0  0  0  0  0  0  0
   -5.2847   26.2293  -31.2951 H   0  0  0  0  0  0  0  0  0  0  0  0
   -5.4684   24.4424  -31.2951 H   0  0  0  0  0  0  0  0  0  0  0  0
   -4.5807   22.6729  -29.8341 H   0  0  0  0  0  0  0  0  0  0  0  0
   -3.5863   21.1956  -28.0962 H   0  0  0  0  0  0  0  0  0  0  0  0
   -2.2108   21.4683  -25.7355 H   0  0  0  0  0  0  0  0  0  0  0  0
    0.4580   21.9990  -26.1560 H   0  0  0  0  0  0  0  0  0  0  0  0
    1.2115   18.6744  -28.7011 H   0  0  0  0  0  0  0  0  0  0  0  0
   -1.0422   17.4015  -28.1061 H   0  0  0  0  0  0  0  0  0  0  0  0
   -2.9168   19.0112  -25.5774 H   0  0  0  0  0  0  0  0  0  0  0  0
   -3.6542   19.7682  -27.0299 H   0  0  0  0  0  0  0  0  0  0  0  0
   -3.2670   18.0142  -27.0299 H   0  0  0  0  0  0  0  0  0  0  0  0
   -0.6561   24.2413  -27.1730 H   0  0  0  0  0  0  0  0  0  0  0  0
   -1.1410   26.5104  -27.0034 H   0  0  0  0  0  0  0  0  0  0  0  0
    0.2210   26.6315  -28.1683 H   0  0  0  0  0  0  0  0  0  0  0  0
   -1.0742   27.8761  -28.1683 H   0  0  0  0  0  0  0  0  0  0  0  0
  1  2  1  0
  2  3  1  0
  3  4  2  0
  4  5  1  0
  5  6  2  0
  6  7  1  0
  7  8  1  0
  7  9  1  0
  9 10  2  0
 10 11  1  0
 11 12  2  0
 12 13  1  0
 13 14  1  0
  6 15  1  0
 15 16  2  0
 16 17  1  0
 17 18  1  0
 16  3  1  0
 13  9  1  0
  1 19  1  0
  1 20  1  0
  1 21  1  0
  4 22  1  0
  5 23  1  0
  7 24  1  1
  8 25  1  0
 11 26  1  0
 12 27  1  0
 14 28  1  0
 14 29  1  0
 14 30  1  0
 15 31  1  0
 18 32  1  0
 18 33  1  0
 18 34  1  0
M  END
>  <UniqueID>  (39) 
36

>  <SMILES>  (39) 
COc1ccc([C@H](O)c2nccn2C)cc1OC

>  <Energy>  (39) 
61.07893526538185

>  <Genealogy>  (39) 
COc1ccc([C@H](O)c2nccn2C)cc1OC (chirality)
COc1ccc([C@H](O)c2nccn2C)cc1OC (3D coordinates assigned)
COc1ccc([C@H](O)c2nccn2C)cc1OC (optimized conformer: 61.07893526538185 kcal/mol)

>  <smiles>  (39) 
COc1ccc(C(O)c2nccn2C)cc1OC

>  <score_type>  (39) 
oracle

>  <origin>  (39) 
adgpu

>  <m_score__min__energy>  (39) 
-6.1100000000000003

>  <m_primary>  (39) 
energy

$$$$
39:0
     RDKit          3D

 45 47  0  0  0  0  0  0  0  0999 V2000
   -1.7910   25.3130  -29.3410 O   0  0  0  0  0  0  0  0  0  0  0  0
   -2.9590   24.8440  -29.3130 C   0  0  0  0  0  0  0  0  0  0  0  0
   -3.4270   24.1070  -28.0820 C   0  0  0  0  0  0  0  0  0  0  0  0
   -2.7530   22.7640  -27.9410 C   0  0  0  0  0  0  0  0  0  0  0  0
   -3.1570   21.6830  -28.7450 C   0  0  0  0  0  0  0  0  0  0  0  0
   -2.5440   20.4330  -28.6080 C   0  0  0  0  0  0  0  0  0  0  0  0
   -1.5140   20.2550  -27.6780 C   0  0  0  0  0  0  0  0  0  0  0  0
   -0.6830   18.5450  -27.4870 Br  0  0  0  0  0  0  0  0  0  0  0  0
   -1.0910   21.3310  -26.8900 C   0  0  0  0  0  0  0  0  0  0  0  0
   -1.7050   22.5820  -27.0210 C   0  0  0  0  0  0  0  0  0  0  0  0
   -3.8500   25.1580  -30.3910 N   0  0  0  0  0  0  0  0  0  0  0  0
   -4.8440   24.2900  -30.9430 C   0  0  0  0  0  0  0  0  0  0  0  0
   -6.2100   24.6030  -30.8620 C   0  0  0  0  0  0  0  0  0  0  0  0
   -7.1640   23.7280  -31.3880 C   0  0  0  0  0  0  0  0  0  0  0  0
   -6.7640   22.5250  -31.9740 C   0  0  0  0  0  0  0  0  0  0  0  0
   -5.4050   22.1840  -32.0230 C   0  0  0  0  0  0  0  0  0  0  0  0
   -4.8970   20.6460  -32.7280 S   0  0  0  0  0  0  0  0  0  0  0  0
   -4.9810   19.5700  -31.6800 O   0  0  0  0  0  0  0  0  0  0  0  0
   -5.8380   20.2830  -33.8440 O   0  0  0  0  0  0  0  0  0  0  0  0
   -3.2660   20.7250  -33.3490 N   0  0  0  0  0  0  0  0  0  0  0  0
   -2.3230   21.1080  -32.2840 C   0  0  0  0  0  0  0  0  0  0  0  0
   -0.8770   21.1600  -32.8300 C   0  0  0  0  0  0  0  0  0  0  0  0
   -0.7840   20.6860  -34.1620 O   0  0  0  0  0  0  0  0  0  0  0  0
   -1.3610   19.3980  -34.2560 C   0  0  0  0  0  0  0  0  0  0  0  0
   -2.8740   19.4340  -33.9490 C   0  0  0  0  0  0  0  0  0  0  0  0
   -4.4510   23.0680  -31.5010 C   0  0  0  0  0  0  0  0  0  0  0  0
   -3.1976   24.7151  -27.1945 H   0  0  0  0  0  0  0  0  0  0  0  0
   -4.5097   23.9372  -28.1768 H   0  0  0  0  0  0  0  0  0  0  0  0
   -3.9589   21.8211  -29.4852 H   0  0  0  0  0  0  0  0  0  0  0  0
   -2.8722   19.5889  -29.2323 H   0  0  0  0  0  0  0  0  0  0  0  0
   -0.2743   21.1935  -26.1661 H   0  0  0  0  0  0  0  0  0  0  0  0
   -1.3665   23.4260  -26.4020 H   0  0  0  0  0  0  0  0  0  0  0  0
   -6.5304   25.5400  -30.3830 H   0  0  0  0  0  0  0  0  0  0  0  0
   -8.2320   23.9871  -31.3405 H   0  0  0  0  0  0  0  0  0  0  0  0
   -7.5166   21.8438  -32.3979 H   0  0  0  0  0  0  0  0  0  0  0  0
   -3.2560   21.4650  -34.0920 H   0  0  0  0  0  0  0  0  0  0  0  0
   -2.5989   22.0998  -31.8963 H   0  0  0  0  0  0  0  0  0  0  0  0
   -2.3719   20.3582  -31.4806 H   0  0  0  0  0  0  0  0  0  0  0  0
   -0.5259   22.2020  -32.8008 H   0  0  0  0  0  0  0  0  0  0  0  0
   -0.2568   20.5071  -32.1982 H   0  0  0  0  0  0  0  0  0  0  0  0
   -1.2118   19.0127  -35.2754 H   0  0  0  0  0  0  0  0  0  0  0  0
   -0.8734   18.7457  -33.5166 H   0  0  0  0  0  0  0  0  0  0  0  0
   -3.4336   19.2885  -34.8847 H   0  0  0  0  0  0  0  0  0  0  0  0
   -3.1033   18.6323  -33.2316 H   0  0  0  0  0  0  0  0  0  0  0  0
   -3.3847   22.7993  -31.5300 H   0  0  0  0  0  0  0  0  0  0  0  0
  1  2  2  0
  2  3  1  0
  3  4  1  0
  4  5  2  0
  5  6  1  0
  6  7  2  0
  7  8  1  0
  7  9  1  0
  9 10  2  0
  2 11  1  0
 11 12  1  0
 12 13  2  0
 13 14  1  0
 14 15  2  0
 15 16  1  0
 16 17  1  0
 17 18  2  0
 17 19  2  0
 17 20  1  0
 20 21  1  0
 21 22  1  0
 22 23  1  0
 23 24  1  0
 24 25  1  0
 16 26  2  0
 10  4  1  0
 26 12  1  0
 25 20  1  0
  3 27  1  0
  3 28  1  0
  5 29  1  0
  6 30  1  0
  9 31  1  0
 10 32  1  0
 13 33  1  0
 14 34  1  0
 15 35  1  0
 20 36  1  0
 21 37  1  0
 21 38  1  0
 22 39  1  0
 22 40  1  0
 24 41  1  0
 24 42  1  0
 25 43  1  0
 25 44  1  0
 26 45  1  0
M  CHG  2  11  -1  20   1
M  END
>  <UniqueID>  (40) 
37

>  <SMILES>  (40) 
O=C(Cc1ccc(Br)cc1)[N-]c1cccc(S(=O)(=O)[NH+]2CCOCC2)c1

>  <Energy>  (40) 
58.114304943046804

>  <Genealogy>  (40) 
O=C(Cc1ccc(Br)cc1)[N-]c1cccc(S(=O)(=O)[NH+]2CCOCC2)c1 (protonated)
O=C(Cc1ccc(Br)cc1)[N-]c1cccc(S(=O)(=O)[NH+]2CCOCC2)c1 (3D coordinates assigned)
O=C(Cc1ccc(Br)cc1)[N-]c1cccc(S(=O)(=O)[NH+]2CCOCC2)c1 (nonaromatic ring conformer: 58.114304943046804 kcal/mol)

>  <smiles>  (40) 
O=C(Cc1ccc(Br)cc1)Nc1cccc(S(=O)(=O)N2CCOCC2)c1

>  <score_type>  (40) 
oracle

>  <origin>  (40) 
adgpu

>  <m_score__min__energy>  (40) 
-10.91

>  <m_primary>  (40) 
energy

$$$$
40:0
     RDKit          3D

 27 28  0  0  0  0  0  0  0  0999 V2000
   -4.7270   15.5150  -34.2140 C   0  0  0  0  0  0  0  0  0  0  0  0
   -5.3940   16.7770  -33.7560 C   0  0  0  0  0  0  0  0  0  0  0  0
   -5.4400   17.8970  -34.6000 C   0  0  0  0  0  0  0  0  0  0  0  0
   -6.0940   19.0630  -34.1890 C   0  0  0  0  0  0  0  0  0  0  0  0
   -6.7130   19.1240  -32.9300 C   0  0  0  0  0  0  0  0  0  0  0  0
   -7.4260   20.3470  -32.5030 C   0  0  0  0  0  0  0  0  0  0  0  0
   -6.6720   21.4810  -32.1520 C   0  0  0  0  0  0  0  0  0  0  0  0
   -7.3020   22.6420  -31.6990 C   0  0  0  0  0  0  0  0  0  0  0  0
   -8.6920   22.6860  -31.5920 C   0  0  0  0  0  0  0  0  0  0  0  0
   -9.4570   21.5740  -31.9490 C   0  0  0  0  0  0  0  0  0  0  0  0
   -8.8400   20.4020  -32.4150 C   0  0  0  0  0  0  0  0  0  0  0  0
   -9.6620   19.3030  -32.8320 N   0  0  0  0  0  0  0  0  0  0  0  0
   -6.6920   17.9910  -32.1000 C   0  0  0  0  0  0  0  0  0  0  0  0
   -6.0390   16.8250  -32.5110 C   0  0  0  0  0  0  0  0  0  0  0  0
   -4.4158   14.9262  -33.3385 H   0  0  0  0  0  0  0  0  0  0  0  0
   -5.4319   14.9267  -34.8198 H   0  0  0  0  0  0  0  0  0  0  0  0
   -3.8438   15.7661  -34.8198 H   0  0  0  0  0  0  0  0  0  0  0  0
   -4.9598   17.8578  -35.5889 H   0  0  0  0  0  0  0  0  0  0  0  0
   -6.1236   19.9373  -34.8558 H   0  0  0  0  0  0  0  0  0  0  0  0
   -5.5755   21.4532  -32.2351 H   0  0  0  0  0  0  0  0  0  0  0  0
   -6.7016   23.5225  -31.4264 H   0  0  0  0  0  0  0  0  0  0  0  0
   -9.1861   23.5980  -31.2259 H   0  0  0  0  0  0  0  0  0  0  0  0
  -10.5529   21.6164  -31.8644 H   0  0  0  0  0  0  0  0  0  0  0  0
  -10.0250   18.5960  -32.1560 H   0  0  0  0  0  0  0  0  0  0  0  0
   -9.8590   19.1440  -33.8450 H   0  0  0  0  0  0  0  0  0  0  0  0
   -7.1923   18.0212  -31.1208 H   0  0  0  0  0  0  0  0  0  0  0  0
   -6.0309   15.9417  -31.8555 H   0  0  0  0  0  0  0  0  0  0  0  0
  1  2  1  0
  2  3  2  0
  3  4  1  0
  4  5  2  0
  5  6  1  0
  6  7  2  0
  7  8  1  0
  8  9  2  0
  9 10  1  0
 10 11  2  0
 11 12  1  0
  5 13  1  0
 13 14  2  0
 14  2  1  0
 11  6  1  0
  1 15  1  0
  1 16  1  0
  1 17  1  0
  3 18  1  0
  4 19  1  0
  7 20  1  0
  8 21  1  0
  9 22  1  0
 10 23  1  0
 12 24  1  0
 12 25  1  0
 13 26  1  0
 14 27  1  0
M  END
>  <UniqueID>  (41) 
38

>  <SMILES>  (41) 
Cc1ccc(-c2ccccc2N)cc1

>  <Energy>  (41) 
33.985837649393005

>  <Genealogy>  (41) 
Cc1ccc(-c2ccccc2N)cc1 (3D coordinates assigned)
Cc1ccc(-c2ccccc2N)cc1 (optimized conformer: 33.985837649393005 kcal/mol)

>  <smiles>  (41) 
Cc1ccc(-c2ccccc2N)cc1

>  <score_type>  (41) 
oracle

>  <origin>  (41) 
adgpu

>  <m_score__min__energy>  (41) 
-6.2800000000000002

>  <m_primary>  (41) 
energy

$$$$
41:0
     RDKit          3D

 39 41  0  0  0  0  0  0  0  0999 V2000
   -6.1640   25.7170  -29.3430 C   0  0  0  0  0  0  0  0  0  0  0  0
   -6.0720   24.5460  -30.2840 C   0  0  0  0  0  0  0  0  0  0  0  0
   -7.2290   23.8200  -30.6130 C   0  0  0  0  0  0  0  0  0  0  0  0
   -7.1560   22.7310  -31.4850 C   0  0  0  0  0  0  0  0  0  0  0  0
   -8.6060   21.8310  -31.8890 Cl  0  0  0  0  0  0  0  0  0  0  0  0
   -5.9280   22.3590  -32.0350 C   0  0  0  0  0  0  0  0  0  0  0  0
   -4.7700   23.0730  -31.7160 C   0  0  0  0  0  0  0  0  0  0  0  0
   -4.8300   24.1720  -30.8390 C   0  0  0  0  0  0  0  0  0  0  0  0
   -3.6550   24.9230  -30.4960 N   0  0  0  0  0  0  0  0  0  0  0  0
   -2.5570   24.5440  -29.2070 S   0  0  0  0  0  0  0  0  0  0  0  0
   -1.5720   25.6660  -29.0420 O   0  0  0  0  0  0  0  0  0  0  0  0
   -3.3470   24.3560  -27.9420 O   0  0  0  0  0  0  0  0  0  0  0  0
   -1.6840   23.0530  -29.5940 C   0  0  0  0  0  0  0  0  0  0  0  0
   -1.9450   22.4190  -30.8210 C   0  0  0  0  0  0  0  0  0  0  0  0
   -1.3170   21.2150  -31.1470 C   0  0  0  0  0  0  0  0  0  0  0  0
   -0.4220   20.6280  -30.2530 C   0  0  0  0  0  0  0  0  0  0  0  0
   -0.1420   21.2500  -29.0350 C   0  0  0  0  0  0  0  0  0  0  0  0
   -0.7550   22.4680  -28.6980 C   0  0  0  0  0  0  0  0  0  0  0  0
   -0.3980   23.1000  -27.4110 C   0  0  0  0  0  0  0  0  0  0  0  0
    0.3480   24.2900  -27.3940 C   0  0  0  0  0  0  0  0  0  0  0  0
    0.6800   24.8930  -26.1770 C   0  0  0  0  0  0  0  0  0  0  0  0
    0.2610   24.3190  -24.9730 C   0  0  0  0  0  0  0  0  0  0  0  0
   -0.4940   23.1430  -24.9840 C   0  0  0  0  0  0  0  0  0  0  0  0
   -0.8280   22.5370  -26.1990 C   0  0  0  0  0  0  0  0  0  0  0  0
   -6.1356   25.3559  -28.3044 H   0  0  0  0  0  0  0  0  0  0  0  0
   -5.3164   26.3958  -29.5184 H   0  0  0  0  0  0  0  0  0  0  0  0
   -7.1072   26.2552  -29.5184 H   0  0  0  0  0  0  0  0  0  0  0  0
   -8.1981   24.1108  -30.1814 H   0  0  0  0  0  0  0  0  0  0  0  0
   -5.8718   21.5013  -32.7215 H   0  0  0  0  0  0  0  0  0  0  0  0
   -3.8057   22.7743  -32.1530 H   0  0  0  0  0  0  0  0  0  0  0  0
   -2.6504   22.8754  -31.5310 H   0  0  0  0  0  0  0  0  0  0  0  0
   -1.5287   20.7288  -32.1107 H   0  0  0  0  0  0  0  0  0  0  0  0
    0.0636   19.6744  -30.5077 H   0  0  0  0  0  0  0  0  0  0  0  0
    0.5645   20.7824  -28.3334 H   0  0  0  0  0  0  0  0  0  0  0  0
    0.6717   24.7485  -28.3401 H   0  0  0  0  0  0  0  0  0  0  0  0
    1.2717   25.8203  -26.1668 H   0  0  0  0  0  0  0  0  0  0  0  0
    0.5258   24.7933  -24.0165 H   0  0  0  0  0  0  0  0  0  0  0  0
   -0.8257   22.6939  -24.0362 H   0  0  0  0  0  0  0  0  0  0  0  0
   -1.4296   21.6161  -26.2052 H   0  0  0  0  0  0  0  0  0  0  0  0
  1  2  1  0
  2  3  2  0
  3  4  1  0
  4  5  1  0
  4  6  2  0
  6  7  1  0
  7  8  2  0
  8  9  1  0
  9 10  1  0
 10 11  2  0
 10 12  2  0
 10 13  1  0
 13 14  2  0
 14 15  1  0
 15 16  2  0
 16 17  1  0
 17 18  2  0
 18 19  1  0
 19 20  2  0
 20 21  1  0
 21 22  2  0
 22 23  1  0
 23 24  2  0
  8  2  1  0
 18 13  1  0
 24 19  1  0
  1 25  1  0
  1 26  1  0
  1 27  1  0
  3 28  1  0
  6 29  1  0
  7 30  1  0
 14 31  1  0
 15 32  1  0
 16 33  1  0
 17 34  1  0
 20 35  1  0
 21 36  1  0
 22 37  1  0
 23 38  1  0
 24 39  1  0
M  CHG  1   9  -1
M  END
>  <UniqueID>  (42) 
39

>  <SMILES>  (42) 
Cc1cc(Cl)ccc1[N-]S(=O)(=O)c1ccccc1-c1ccccc1

>  <Energy>  (42) 
54.08296790277772

>  <Genealogy>  (42) 
Cc1cc(Cl)ccc1[N-]S(=O)(=O)c1ccccc1-c1ccccc1 (protonated)
Cc1cc(Cl)ccc1[N-]S(=O)(=O)c1ccccc1-c1ccccc1 (3D coordinates assigned)
Cc1cc(Cl)ccc1[N-]S(=O)(=O)c1ccccc1-c1ccccc1 (optimized conformer: 54.08296790277772 kcal/mol)

>  <smiles>  (42) 
Cc1cc(Cl)ccc1NS(=O)(=O)c1ccccc1-c1ccccc1

>  <score_type>  (42) 
oracle

>  <origin>  (42) 
adgpu

>  <m_score__min__energy>  (42) 
-10.07

>  <m_primary>  (42) 
energy

$$$$
42:0
     RDKit          3D

 47 50  0  0  0  0  0  0  0  0999 V2000
   -8.6980   12.9330  -37.1580 C   0  0  0  0  0  0  0  0  0  0  0  0
   -8.5600   13.0890  -35.7500 O   0  0  0  0  0  0  0  0  0  0  0  0
   -7.3650   13.4400  -35.1050 C   0  0  0  0  0  0  0  0  0  0  0  0
   -6.2910   12.5440  -34.9670 C   0  0  0  0  0  0  0  0  0  0  0  0
   -5.1230   12.9430  -34.3170 C   0  0  0  0  0  0  0  0  0  0  0  0
   -5.0110   14.2350  -33.7970 C   0  0  0  0  0  0  0  0  0  0  0  0
   -6.0750   15.1480  -33.9250 C   0  0  0  0  0  0  0  0  0  0  0  0
   -5.9770   16.5250  -33.3820 C   0  0  0  0  0  0  0  0  0  0  0  0
   -4.8200   17.1540  -32.9080 C   0  0  0  0  0  0  0  0  0  0  0  0
   -5.2740   18.3950  -32.5270 C   0  0  0  0  0  0  0  0  0  0  0  0
   -4.5660   19.4230  -31.9960 N   0  0  0  0  0  0  0  0  0  0  0  0
   -5.2150   20.5920  -31.6880 C   0  0  0  0  0  0  0  0  0  0  0  0
   -4.4640   21.7300  -31.0990 C   0  0  0  0  0  0  0  0  0  0  0  0
   -3.2890   21.4970  -30.3690 C   0  0  0  0  0  0  0  0  0  0  0  0
   -2.5770   22.5620  -29.8140 C   0  0  0  0  0  0  0  0  0  0  0  0
   -3.0270   23.8850  -29.9810 C   0  0  0  0  0  0  0  0  0  0  0  0
   -2.3370   24.9800  -29.4360 O   0  0  0  0  0  0  0  0  0  0  0  0
   -1.6990   24.9800  -28.1630 C   0  0  0  0  0  0  0  0  0  0  0  0
   -4.1990   24.1300  -30.7120 C   0  0  0  0  0  0  0  0  0  0  0  0
   -4.6200   25.4610  -30.8640 O   0  0  0  0  0  0  0  0  0  0  0  0
   -5.7380   26.0360  -30.1950 C   0  0  0  0  0  0  0  0  0  0  0  0
   -4.9120   23.0500  -31.2690 C   0  0  0  0  0  0  0  0  0  0  0  0
   -6.6080   20.7020  -31.9280 C   0  0  0  0  0  0  0  0  0  0  0  0
   -7.2930   19.6100  -32.4770 C   0  0  0  0  0  0  0  0  0  0  0  0
   -8.5310   19.6680  -32.7010 O   0  0  0  0  0  0  0  0  0  0  0  0
   -6.5850   18.4900  -32.7570 N   0  0  0  0  0  0  0  0  0  0  0  0
   -7.0390   17.3630  -33.2770 N   0  0  0  0  0  0  0  0  0  0  0  0
   -7.2480   14.7350  -34.5830 C   0  0  0  0  0  0  0  0  0  0  0  0
   -9.4133   12.1244  -37.3690 H   0  0  0  0  0  0  0  0  0  0  0  0
   -9.0664   13.8721  -37.5966 H   0  0  0  0  0  0  0  0  0  0  0  0
   -7.7210   12.6819  -37.5966 H   0  0  0  0  0  0  0  0  0  0  0  0
   -6.3717   11.5248  -35.3729 H   0  0  0  0  0  0  0  0  0  0  0  0
   -4.2859   12.2369  -34.2133 H   0  0  0  0  0  0  0  0  0  0  0  0
   -4.0866   14.5404  -33.2849 H   0  0  0  0  0  0  0  0  0  0  0  0
   -3.7970   16.7534  -32.8535 H   0  0  0  0  0  0  0  0  0  0  0  0
   -3.5360   19.3200  -31.8490 H   0  0  0  0  0  0  0  0  0  0  0  0
   -2.9259   20.4676  -30.2328 H   0  0  0  0  0  0  0  0  0  0  0  0
   -1.6580   22.3657  -29.2423 H   0  0  0  0  0  0  0  0  0  0  0  0
   -1.5347   23.9429  -27.8352 H   0  0  0  0  0  0  0  0  0  0  0  0
   -0.7318   25.4985  -28.2376 H   0  0  0  0  0  0  0  0  0  0  0  0
   -2.3377   25.4985  -27.4328 H   0  0  0  0  0  0  0  0  0  0  0  0
   -5.5926   25.9612  -29.1072 H   0  0  0  0  0  0  0  0  0  0  0  0
   -5.8317   27.0942  -30.4805 H   0  0  0  0  0  0  0  0  0  0  0  0
   -6.6533   25.4968  -30.4805 H   0  0  0  0  0  0  0  0  0  0  0  0
   -5.8300   23.2430  -31.8435 H   0  0  0  0  0  0  0  0  0  0  0  0
   -7.1436   21.6319  -31.6865 H   0  0  0  0  0  0  0  0  0  0  0  0
   -8.0861   15.4395  -34.6893 H   0  0  0  0  0  0  0  0  0  0  0  0
  1  2  1  0
  2  3  1  0
  3  4  2  0
  4  5  1  0
  5  6  2  0
  6  7  1  0
  7  8  1  0
  8  9  1  0
  9 10  2  0
 10 11  1  0
 11 12  1  0
 12 13  1  0
 13 14  2  0
 14 15  1  0
 15 16  2  0
 16 17  1  0
 17 18  1  0
 16 19  1  0
 19 20  1  0
 20 21  1  0
 19 22  2  0
 12 23  2  0
 23 24  1  0
 24 25  2  0
 24 26  1  0
 26 27  1  0
  7 28  2  0
 28  3  1  0
 27  8  2  0
 26 10  1  0
 22 13  1  0
  1 29  1  0
  1 30  1  0
  1 31  1  0
  4 32  1  0
  5 33  1  0
  6 34  1  0
  9 35  1  0
 11 36  1  0
 14 37  1  0
 15 38  1  0
 18 39  1  0
 18 40  1  0
 18 41  1  0
 21 42  1  0
 21 43  1  0
 21 44  1  0
 22 45  1  0
 23 46  1  0
 28 47  1  0
M  END
>  <UniqueID>  (43) 
40

>  <SMILES>  (43) 
COc1cccc(-c2cc3[nH]c(-c4ccc(OC)c(OC)c4)cc(=O)n3n2)c1

>  <Energy>  (43) 
92.83269162451721

>  <Genealogy>  (43) 
COc1cccc(-c2cc3[nH]c(-c4ccc(OC)c(OC)c4)cc(=O)n3n2)c1 (3D coordinates assigned)
COc1cccc(-c2cc3[nH]c(-c4ccc(OC)c(OC)c4)cc(=O)n3n2)c1 (optimized conformer: 92.83269162451721 kcal/mol)

>  <smiles>  (43) 
COc1cccc(-c2cc3[nH]c(-c4ccc(OC)c(OC)c4)cc(=O)n3n2)c1

>  <score_type>  (43) 
oracle

>  <origin>  (43) 
adgpu

>  <m_score__min__energy>  (43) 
-8.0500000000000007

>  <m_primary>  (43) 
energy

$$$$
43:0
     RDKit          3D

 36 38  0  0  0  0  0  0  0  0999 V2000
   -7.1690   17.4120  -33.0960 C   0  0  0  0  0  0  0  0  0  0  0  0
   -7.8450   17.9070  -31.8170 C   0  0  0  0  0  0  0  0  0  0  0  0
   -8.5610   19.2520  -32.0140 C   0  0  0  0  0  0  0  0  0  0  0  0
   -7.7980   20.1890  -32.9700 C   0  0  0  0  0  0  0  0  0  0  0  0
   -6.8640   21.0660  -32.2370 N   0  0  0  0  0  0  0  0  0  0  0  0
   -7.4040   22.1170  -31.4000 C   0  0  0  0  0  0  0  0  0  0  0  0
   -8.6260   22.0760  -31.0860 O   0  0  0  0  0  0  0  0  0  0  0  0
   -6.6080   23.2690  -30.9040 C   0  0  0  0  0  0  0  0  0  0  0  0
   -7.0390   23.9440  -29.7460 C   0  0  0  0  0  0  0  0  0  0  0  0
   -6.4230   25.1280  -29.3430 C   0  0  0  0  0  0  0  0  0  0  0  0
   -5.3860   25.6490  -30.1090 C   0  0  0  0  0  0  0  0  0  0  0  0
   -4.9680   24.9900  -31.2200 N   0  0  0  0  0  0  0  0  0  0  0  0
   -5.5290   23.8190  -31.6260 C   0  0  0  0  0  0  0  0  0  0  0  0
   -4.9950   23.1960  -32.7500 O   0  0  0  0  0  0  0  0  0  0  0  0
   -4.5700   21.8730  -32.7140 C   0  0  0  0  0  0  0  0  0  0  0  0
   -3.2320   21.5990  -33.0240 C   0  0  0  0  0  0  0  0  0  0  0  0
   -2.7440   20.2930  -32.9560 C   0  0  0  0  0  0  0  0  0  0  0  0
   -3.5950   19.2530  -32.5890 C   0  0  0  0  0  0  0  0  0  0  0  0
   -4.9380   19.5130  -32.3090 C   0  0  0  0  0  0  0  0  0  0  0  0
   -5.4460   20.8280  -32.3710 C   0  0  0  0  0  0  0  0  0  0  0  0
   -6.3070   16.7808  -32.8344 H   0  0  0  0  0  0  0  0  0  0  0  0
   -7.8875   16.8249  -33.6869 H   0  0  0  0  0  0  0  0  0  0  0  0
   -6.8262   18.2742  -33.6869 H   0  0  0  0  0  0  0  0  0  0  0  0
   -8.5834   17.1578  -31.4954 H   0  0  0  0  0  0  0  0  0  0  0  0
   -7.0613   18.0529  -31.0591 H   0  0  0  0  0  0  0  0  0  0  0  0
   -9.5616   19.0620  -32.4295 H   0  0  0  0  0  0  0  0  0  0  0  0
   -8.6191   19.7478  -31.0338 H   0  0  0  0  0  0  0  0  0  0  0  0
   -7.2282   19.5805  -33.6877 H   0  0  0  0  0  0  0  0  0  0  0  0
   -8.5312   20.8233  -33.4896 H   0  0  0  0  0  0  0  0  0  0  0  0
   -7.8698   23.5332  -29.1535 H   0  0  0  0  0  0  0  0  0  0  0  0
   -6.7535   25.6441  -28.4296 H   0  0  0  0  0  0  0  0  0  0  0  0
   -4.9050   26.5937  -29.8153 H   0  0  0  0  0  0  0  0  0  0  0  0
   -2.5614   22.4181  -33.3229 H   0  0  0  0  0  0  0  0  0  0  0  0
   -1.6898   20.0855  -33.1917 H   0  0  0  0  0  0  0  0  0  0  0  0
   -3.2084   18.2255  -32.5197 H   0  0  0  0  0  0  0  0  0  0  0  0
   -5.6074   18.6836  -32.0371 H   0  0  0  0  0  0  0  0  0  0  0  0
  1  2  1  0
  2  3  1  0
  3  4  1  0
  4  5  1  0
  5  6  1  0
  6  7  2  0
  6  8  1  0
  8  9  2  0
  9 10  1  0
 10 11  2  0
 11 12  1  0
 12 13  2  0
 13 14  1  0
 14 15  1  0
 15 16  2  0
 16 17  1  0
 17 18  2  0
 18 19  1  0
 19 20  2  0
 20  5  1  0
 13  8  1  0
 20 15  1  0
  1 21  1  0
  1 22  1  0
  1 23  1  0
  2 24  1  0
  2 25  1  0
  3 26  1  0
  3 27  1  0
  4 28  1  0
  4 29  1  0
  9 30  1  0
 10 31  1  0
 11 32  1  0
 16 33  1  0
 17 34  1  0
 18 35  1  0
 19 36  1  0
M  END
>  <UniqueID>  (44) 
41

>  <SMILES>  (44) 
CCCCN1C(=O)c2cccnc2Oc2ccccc21

>  <Energy>  (44) 
60.45535713589738

>  <Genealogy>  (44) 
CCCCN1C(=O)c2cccnc2Oc2ccccc21 (3D coordinates assigned)
CCCCN1C(=O)c2cccnc2Oc2ccccc21 (nonaromatic ring conformer: 60.45535713589738 kcal/mol)

>  <smiles>  (44) 
CCCCN1C(=O)c2cccnc2Oc2ccccc21

>  <score_type>  (44) 
oracle

>  <origin>  (44) 
adgpu

>  <m_score__min__energy>  (44) 
-7.4800000000000004

>  <m_primary>  (44) 
energy

$$$$
44:0
     RDKit          3D

 45 46  0  0  0  0  0  0  0  0999 V2000
   -6.6150   25.0250  -30.0570 C   0  0  0  0  0  0  0  0  0  0  0  0
   -5.2880   25.6100  -30.5130 C   0  0  0  0  0  0  0  0  0  0  0  0
   -4.4150   24.5510  -30.8960 O   0  0  0  0  0  0  0  0  0  0  0  0
   -3.9870   23.5150  -30.0510 C   0  0  0  0  0  0  0  0  0  0  0  0
   -4.1480   23.5780  -28.6520 C   0  0  0  0  0  0  0  0  0  0  0  0
   -3.6930   22.5340  -27.8420 C   0  0  0  0  0  0  0  0  0  0  0  0
   -3.0730   21.4220  -28.4120 C   0  0  0  0  0  0  0  0  0  0  0  0
   -2.9070   21.3460  -29.7970 C   0  0  0  0  0  0  0  0  0  0  0  0
   -3.3720   22.3810  -30.6260 C   0  0  0  0  0  0  0  0  0  0  0  0
   -3.1660   22.3040  -32.1210 C   0  0  0  0  0  0  0  0  0  0  0  0
   -4.4540   22.4060  -32.8300 N   0  0  0  0  0  0  0  0  0  0  0  0
   -5.1940   21.1300  -32.8330 C   0  0  0  0  0  0  0  0  0  0  0  0
   -6.4840   21.2270  -32.0560 C   0  0  0  0  0  0  0  0  0  0  0  0
   -6.8960   22.3860  -31.5060 N   0  0  0  0  0  0  0  0  0  0  0  0
   -8.0590   22.1160  -30.9390 N   0  0  0  0  0  0  0  0  0  0  0  0
   -8.3610   20.8430  -31.1230 N   0  0  0  0  0  0  0  0  0  0  0  0
   -7.4080   20.2520  -31.8290 N   0  0  0  0  0  0  0  0  0  0  0  0
   -7.3950   18.7930  -32.1120 C   0  0  0  0  0  0  0  0  0  0  0  0
   -8.7990   18.1720  -31.9560 C   0  0  0  0  0  0  0  0  0  0  0  0
   -6.4600   18.0760  -31.1070 C   0  0  0  0  0  0  0  0  0  0  0  0
   -6.8520   18.5430  -33.5320 C   0  0  0  0  0  0  0  0  0  0  0  0
   -6.6504   25.0094  -28.9577 H   0  0  0  0  0  0  0  0  0  0  0  0
   -7.4397   25.6430  -30.4417 H   0  0  0  0  0  0  0  0  0  0  0  0
   -6.7151   23.9993  -30.4417 H   0  0  0  0  0  0  0  0  0  0  0  0
   -5.4558   26.2770  -31.3715 H   0  0  0  0  0  0  0  0  0  0  0  0
   -4.8349   26.1827  -29.6904 H   0  0  0  0  0  0  0  0  0  0  0  0
   -4.6340   24.4530  -28.1957 H   0  0  0  0  0  0  0  0  0  0  0  0
   -3.8242   22.5893  -26.7513 H   0  0  0  0  0  0  0  0  0  0  0  0
   -2.7143   20.6039  -27.7701 H   0  0  0  0  0  0  0  0  0  0  0  0
   -2.4096   20.4712  -30.2411 H   0  0  0  0  0  0  0  0  0  0  0  0
   -2.5126   23.1300  -32.4385 H   0  0  0  0  0  0  0  0  0  0  0  0
   -2.7035   21.3362  -32.3650 H   0  0  0  0  0  0  0  0  0  0  0  0
   -5.0410   23.1550  -32.3980 H   0  0  0  0  0  0  0  0  0  0  0  0
   -4.2630   22.6790  -33.8230 H   0  0  0  0  0  0  0  0  0  0  0  0
   -5.4247   20.8549  -33.8728 H   0  0  0  0  0  0  0  0  0  0  0  0
   -4.5626   20.3681  -32.3526 H   0  0  0  0  0  0  0  0  0  0  0  0
   -9.0367   18.0669  -30.8872 H   0  0  0  0  0  0  0  0  0  0  0  0
   -9.5439   18.8246  -32.4348 H   0  0  0  0  0  0  0  0  0  0  0  0
   -8.8173   17.1819  -32.4348 H   0  0  0  0  0  0  0  0  0  0  0  0
   -6.7727   18.3158  -30.0800 H   0  0  0  0  0  0  0  0  0  0  0  0
   -6.5181   16.9888  -31.2636 H   0  0  0  0  0  0  0  0  0  0  0  0
   -5.4251   18.4142  -31.2636 H   0  0  0  0  0  0  0  0  0  0  0  0
   -5.8545   18.0838  -33.4676 H   0  0  0  0  0  0  0  0  0  0  0  0
   -7.5325   17.8675  -34.0711 H   0  0  0  0  0  0  0  0  0  0  0  0
   -6.7813   19.4992  -34.0711 H   0  0  0  0  0  0  0  0  0  0  0  0
  1  2  1  0
  2  3  1  0
  3  4  1  0
  4  5  2  0
  5  6  1  0
  6  7  2  0
  7  8  1  0
  8  9  2  0
  9 10  1  0
 10 11  1  0
 11 12  1  0
 12 13  1  0
 13 14  2  0
 14 15  1  0
 15 16  2  0
 16 17  1  0
 17 18  1  0
 18 19  1  0
 18 20  1  0
 18 21  1  0
  9  4  1  0
 17 13  1  0
  1 22  1  0
  1 23  1  0
  1 24  1  0
  2 25  1  0
  2 26  1  0
  5 27  1  0
  6 28  1  0
  7 29  1  0
  8 30  1  0
 10 31  1  0
 10 32  1  0
 11 33  1  0
 11 34  1  0
 12 35  1  0
 12 36  1  0
 19 37  1  0
 19 38  1  0
 19 39  1  0
 20 40  1  0
 20 41  1  0
 20 42  1  0
 21 43  1  0
 21 44  1  0
 21 45  1  0
M  CHG  1  11   1
M  END
>  <UniqueID>  (45) 
42

>  <SMILES>  (45) 
CCOc1ccccc1C[NH2+]Cc1nnnn1C(C)(C)C

>  <Energy>  (45) 
79.57505524898019

>  <Genealogy>  (45) 
CCOc1ccccc1C[NH2+]Cc1nnnn1C(C)(C)C (protonated)
CCOc1ccccc1C[NH2+]Cc1nnnn1C(C)(C)C (3D coordinates assigned)
CCOc1ccccc1C[NH2+]Cc1nnnn1C(C)(C)C (optimized conformer: 79.57505524898019 kcal/mol)

>  <smiles>  (45) 
CCOc1ccccc1CNCc1nnnn1C(C)(C)C

>  <score_type>  (45) 
oracle

>  <origin>  (45) 
adgpu

>  <m_score__min__energy>  (45) 
-7.4299999999999997

>  <m_primary>  (45) 
energy

$$$$
45:0
     RDKit          3D

 39 41  0  0  0  0  0  0  0  0999 V2000
   -1.0843   20.2737  -32.8754 H   0  0  0  0  0  0  0  0  0  0  0  0
   -1.9090   20.9450  -32.5940 C   0  0  0  0  0  0  0  0  0  0  0  0
   -1.9040   21.5670  -31.3880 N   0  0  0  0  0  0  0  0  0  0  0  0
   -2.9060   22.4050  -31.0140 C   0  0  0  0  0  0  0  0  0  0  0  0
   -2.8510   23.0590  -29.6640 C   0  0  0  0  0  0  0  0  0  0  0  0
   -2.9157   22.2893  -28.8808 H   0  0  0  0  0  0  0  0  0  0  0  0
   -1.9035   23.6082  -29.5610 H   0  0  0  0  0  0  0  0  0  0  0  0
   -3.6935   23.7587  -29.5610 H   0  0  0  0  0  0  0  0  0  0  0  0
   -3.9780   22.6340  -31.9000 C   0  0  0  0  0  0  0  0  0  0  0  0
   -4.9430   23.4350  -31.5460 N   0  0  0  0  0  0  0  0  0  0  0  0
   -6.1300   23.7640  -32.3310 C   0  0  0  0  0  0  0  0  0  0  0  0
   -6.5167   24.7457  -32.0198 H   0  0  0  0  0  0  0  0  0  0  0  0
   -5.8693   23.7986  -33.3991 H   0  0  0  0  0  0  0  0  0  0  0  0
   -7.1790   22.7150  -32.1010 C   0  0  0  0  0  0  0  0  0  0  0  0
   -8.5300   23.0680  -31.9480 C   0  0  0  0  0  0  0  0  0  0  0  0
   -8.8301   24.1250  -32.0007 H   0  0  0  0  0  0  0  0  0  0  0  0
   -9.4940   22.0800  -31.7290 C   0  0  0  0  0  0  0  0  0  0  0  0
  -10.5525   22.3599  -31.6233 H   0  0  0  0  0  0  0  0  0  0  0  0
   -9.1160   20.7370  -31.6440 C   0  0  0  0  0  0  0  0  0  0  0  0
   -9.8800   19.9634  -31.4770 H   0  0  0  0  0  0  0  0  0  0  0  0
   -7.7720   20.3710  -31.7700 C   0  0  0  0  0  0  0  0  0  0  0  0
   -7.4260   19.0150  -31.6670 O   0  0  0  0  0  0  0  0  0  0  0  0
   -6.6150   18.3170  -32.5750 C   0  0  0  0  0  0  0  0  0  0  0  0
   -6.3940   18.8700  -33.8420 C   0  0  0  0  0  0  0  0  0  0  0  0
   -6.8484   19.8369  -34.1038 H   0  0  0  0  0  0  0  0  0  0  0  0
   -5.5980   18.1990  -34.7770 C   0  0  0  0  0  0  0  0  0  0  0  0
   -5.4206   18.6438  -35.7673 H   0  0  0  0  0  0  0  0  0  0  0  0
   -5.0280   16.9640  -34.4540 C   0  0  0  0  0  0  0  0  0  0  0  0
   -4.3958   16.4411  -35.1868 H   0  0  0  0  0  0  0  0  0  0  0  0
   -5.2620   16.3940  -33.1990 C   0  0  0  0  0  0  0  0  0  0  0  0
   -4.8189   15.4192  -32.9473 H   0  0  0  0  0  0  0  0  0  0  0  0
   -6.0580   17.0610  -32.2640 C   0  0  0  0  0  0  0  0  0  0  0  0
   -6.2503   16.6039  -31.2821 H   0  0  0  0  0  0  0  0  0  0  0  0
   -6.8100   21.3620  -32.0310 C   0  0  0  0  0  0  0  0  0  0  0  0
   -5.7588   21.0751  -32.1817 H   0  0  0  0  0  0  0  0  0  0  0  0
   -3.9800   21.9990  -33.1150 N   0  0  0  0  0  0  0  0  0  0  0  0
   -4.7550   22.1380  -33.8000 H   0  0  0  0  0  0  0  0  0  0  0  0
   -2.9680   21.1640  -33.4730 C   0  0  0  0  0  0  0  0  0  0  0  0
   -2.9853   20.6635  -34.4524 H   0  0  0  0  0  0  0  0  0  0  0  0
  1  2  1  0
  2  3  1  0
  3  4  2  0
  4  5  1  0
  5  6  1  0
  5  7  1  0
  5  8  1  0
  4  9  1  0
  9 10  2  0
 10 11  1  0
 11 12  1  0
 11 13  1  0
 11 14  1  0
 14 15  2  0
 15 16  1  0
 15 17  1  0
 17 18  1  0
 17 19  2  0
 19 20  1  0
 19 21  1  0
 21 22  1  0
 22 23  1  0
 23 24  2  0
 24 25  1  0
 24 26  1  0
 26 27  1  0
 26 28  2  0
 28 29  1  0
 28 30  1  0
 30 31  1  0
 30 32  2  0
 32 33  1  0
 21 34  2  0
 34 35  1  0
  9 36  1  0
 36 37  1  0
 36 38  1  0
 38 39  1  0
 38  2  2  0
 34 14  1  0
 32 23  1  0
M  END
>  <UniqueID>  (46) 
43

>  <SMILES>  (46) 
Cc1ncc[nH]/c1=N\Cc1cccc(Oc2ccccc2)c1

>  <Energy>  (46) 
48.66632720572599

>  <Genealogy>  (46) 
Cc1ncc[nH]/c1=N\Cc1cccc(Oc2ccccc2)c1 (cis-trans isomerization)
Cc1ncc[nH]/c1=N\Cc1cccc(Oc2ccccc2)c1 (3D coordinates assigned)
Cc1ncc[nH]/c1=N\Cc1cccc(Oc2ccccc2)c1 (optimized conformer: 48.66632720572599 kcal/mol)

>  <smiles>  (46) 
Cc1ncc[nH]c1=NCc1cccc(Oc2ccccc2)c1

>  <score_type>  (46) 
oracle

>  <origin>  (46) 
adgpu

>  <m_score__min__energy>  (46) 
-7.7699999999999996

>  <m_primary>  (46) 
energy

$$$$
46:0
     RDKit          3D

 35 37  0  0  0  0  0  0  0  0999 V2000
   -0.0770   23.7110  -25.9780 C   0  0  0  0  0  0  0  0  0  0  0  0
    0.0330   24.0990  -27.4190 C   0  0  0  0  0  0  0  0  0  0  0  0
    1.1340   24.5390  -27.8450 O   0  0  0  0  0  0  0  0  0  0  0  0
   -1.1340   24.0210  -28.3290 C   0  0  0  0  0  0  0  0  0  0  0  0
   -1.7390   25.0760  -28.9930 C   0  0  0  0  0  0  0  0  0  0  0  0
   -1.4080   26.4220  -28.9000 O   0  0  0  0  0  0  0  0  0  0  0  0
   -2.7240   24.5500  -29.7910 C   0  0  0  0  0  0  0  0  0  0  0  0
   -3.5740   25.2900  -30.6050 O   0  0  0  0  0  0  0  0  0  0  0  0
   -2.7700   23.2100  -29.6600 N   0  0  0  0  0  0  0  0  0  0  0  0
   -3.7100   22.3340  -30.3090 C   0  0  0  0  0  0  0  0  0  0  0  0
   -3.2710   21.1580  -30.9420 C   0  0  0  0  0  0  0  0  0  0  0  0
   -4.1870   20.3150  -31.5760 C   0  0  0  0  0  0  0  0  0  0  0  0
   -5.5480   20.6350  -31.5790 C   0  0  0  0  0  0  0  0  0  0  0  0
   -5.9940   21.7970  -30.9460 C   0  0  0  0  0  0  0  0  0  0  0  0
   -5.0810   22.6440  -30.3100 C   0  0  0  0  0  0  0  0  0  0  0  0
   -1.8040   22.8730  -28.7650 C   0  0  0  0  0  0  0  0  0  0  0  0
   -1.5070   21.4850  -28.3510 C   0  0  0  0  0  0  0  0  0  0  0  0
   -2.3730   20.8070  -27.4770 C   0  0  0  0  0  0  0  0  0  0  0  0
   -2.0760   19.5050  -27.0620 C   0  0  0  0  0  0  0  0  0  0  0  0
   -0.9140   18.8730  -27.5140 C   0  0  0  0  0  0  0  0  0  0  0  0
   -0.6200   17.5800  -27.1010 O   0  0  0  0  0  0  0  0  0  0  0  0
   -0.0460   19.5440  -28.3810 C   0  0  0  0  0  0  0  0  0  0  0  0
   -0.3380   20.8470  -28.7970 C   0  0  0  0  0  0  0  0  0  0  0  0
    0.1685   24.5768  -25.3454 H   0  0  0  0  0  0  0  0  0  0  0  0
   -1.1042   23.3805  -25.7647 H   0  0  0  0  0  0  0  0  0  0  0  0
    0.6239   22.8905  -25.7647 H   0  0  0  0  0  0  0  0  0  0  0  0
   -2.2016   20.9005  -30.9381 H   0  0  0  0  0  0  0  0  0  0  0  0
   -3.8371   19.3984  -32.0734 H   0  0  0  0  0  0  0  0  0  0  0  0
   -6.2678   19.9711  -32.0802 H   0  0  0  0  0  0  0  0  0  0  0  0
   -7.0653   22.0465  -30.9476 H   0  0  0  0  0  0  0  0  0  0  0  0
   -5.4370   23.5561  -29.8087 H   0  0  0  0  0  0  0  0  0  0  0  0
   -3.2875   21.3018  -27.1180 H   0  0  0  0  0  0  0  0  0  0  0  0
   -2.7578   18.9774  -26.3788 H   0  0  0  0  0  0  0  0  0  0  0  0
    0.8682   19.0461  -28.7365 H   0  0  0  0  0  0  0  0  0  0  0  0
    0.3497   21.3734  -29.4752 H   0  0  0  0  0  0  0  0  0  0  0  0
  1  2  1  0
  2  3  2  0
  2  4  1  0
  4  5  1  0
  5  6  1  0
  5  7  2  0
  7  8  1  0
  7  9  1  0
  9 10  1  0
 10 11  2  0
 11 12  1  0
 12 13  2  0
 13 14  1  0
 14 15  2  0
  9 16  1  0
 16 17  1  0
 17 18  2  0
 18 19  1  0
 19 20  2  0
 20 21  1  0
 20 22  1  0
 22 23  2  0
 16  4  2  0
 23 17  1  0
 15 10  1  0
  1 24  1  0
  1 25  1  0
  1 26  1  0
 11 27  1  0
 12 28  1  0
 13 29  1  0
 14 30  1  0
 15 31  1  0
 18 32  1  0
 19 33  1  0
 22 34  1  0
 23 35  1  0
M  CHG  3   6  -1   8  -1  21  -1
M  END
>  <UniqueID>  (47) 
44

>  <SMILES>  (47) 
CC(=O)c1c([O-])c([O-])n(-c2ccccc2)c1-c1ccc([O-])cc1

>  <Energy>  (47) 
78.45618309962904

>  <Genealogy>  (47) 
CC(=O)c1c([O-])c([O-])n(-c2ccccc2)c1-c1ccc([O-])cc1 (protonated)
CC(=O)c1c([O-])c([O-])n(-c2ccccc2)c1-c1ccc([O-])cc1 (3D coordinates assigned)
CC(=O)c1c([O-])c([O-])n(-c2ccccc2)c1-c1ccc([O-])cc1 (optimized conformer: 78.45618309962904 kcal/mol)

>  <smiles>  (47) 
CC(=O)c1c(O)c(O)n(-c2ccccc2)c1-c1ccc(O)cc1

>  <score_type>  (47) 
oracle

>  <origin>  (47) 
adgpu

>  <m_score__min__energy>  (47) 
-12.68

>  <m_primary>  (47) 
energy

$$$$
47:0
     RDKit          3D

 39 41  0  0  0  0  0  0  0  0999 V2000
   -4.4400   24.5270  -27.8980 N   0  0  0  0  0  0  0  0  0  0  0  0
   -3.3360   24.5350  -29.2270 S   0  0  0  0  0  0  0  0  0  0  0  0
   -2.2020   25.4770  -28.9320 O   0  0  0  0  0  0  0  0  0  0  0  0
   -4.0460   25.0110  -30.4640 O   0  0  0  0  0  0  0  0  0  0  0  0
   -2.7050   22.9110  -29.4830 C   0  0  0  0  0  0  0  0  0  0  0  0
   -2.8820   21.9230  -28.5070 C   0  0  0  0  0  0  0  0  0  0  0  0
   -2.3710   20.6390  -28.7110 C   0  0  0  0  0  0  0  0  0  0  0  0
   -1.6800   20.3360  -29.8860 C   0  0  0  0  0  0  0  0  0  0  0  0
   -1.4900   21.3160  -30.8740 C   0  0  0  0  0  0  0  0  0  0  0  0
   -0.7780   20.9700  -32.0780 N   0  0  0  0  0  0  0  0  0  0  0  0
   -1.3590   20.9990  -33.4210 C   0  0  0  0  0  0  0  0  0  0  0  0
   -2.7670   20.4860  -33.3970 C   0  0  0  0  0  0  0  0  0  0  0  0
   -3.8600   21.1470  -32.8840 C   0  0  0  0  0  0  0  0  0  0  0  0
   -4.9360   20.3550  -33.0530 N   0  0  0  0  0  0  0  0  0  0  0  0
   -6.2990   20.6430  -32.6780 C   0  0  0  0  0  0  0  0  0  0  0  0
   -6.6710   21.9390  -32.2730 C   0  0  0  0  0  0  0  0  0  0  0  0
   -7.9930   22.2170  -31.9100 C   0  0  0  0  0  0  0  0  0  0  0  0
   -8.9570   21.2070  -31.9480 C   0  0  0  0  0  0  0  0  0  0  0  0
  -10.2370   21.4820  -31.5950 F   0  0  0  0  0  0  0  0  0  0  0  0
   -8.6010   19.9160  -32.3480 C   0  0  0  0  0  0  0  0  0  0  0  0
   -9.5380   18.9370  -32.3900 F   0  0  0  0  0  0  0  0  0  0  0  0
   -7.2800   19.6340  -32.7120 C   0  0  0  0  0  0  0  0  0  0  0  0
   -4.4680   19.2380  -33.6530 C   0  0  0  0  0  0  0  0  0  0  0  0
   -3.1380   19.2810  -33.8740 N   0  0  0  0  0  0  0  0  0  0  0  0
   -2.0020   22.6110  -30.6570 C   0  0  0  0  0  0  0  0  0  0  0  0
   -4.5970   25.5240  -27.6260 H   0  0  0  0  0  0  0  0  0  0  0  0
   -5.3510   24.1660  -28.2590 H   0  0  0  0  0  0  0  0  0  0  0  0
   -3.4238   22.1579  -27.5790 H   0  0  0  0  0  0  0  0  0  0  0  0
   -2.5134   19.8640  -27.9435 H   0  0  0  0  0  0  0  0  0  0  0  0
   -1.2815   19.3222  -30.0389 H   0  0  0  0  0  0  0  0  0  0  0  0
    0.2140   20.6500  -31.9960 H   0  0  0  0  0  0  0  0  0  0  0  0
   -1.3575   22.0340  -33.7934 H   0  0  0  0  0  0  0  0  0  0  0  0
   -0.7583   20.3565  -34.0816 H   0  0  0  0  0  0  0  0  0  0  0  0
   -3.8554   22.1439  -32.4191 H   0  0  0  0  0  0  0  0  0  0  0  0
   -5.9165   22.7389  -32.2418 H   0  0  0  0  0  0  0  0  0  0  0  0
   -8.2738   23.2326  -31.5941 H   0  0  0  0  0  0  0  0  0  0  0  0
   -7.0059   18.6164  -33.0271 H   0  0  0  0  0  0  0  0  0  0  0  0
   -5.1039   18.3847  -33.9314 H   0  0  0  0  0  0  0  0  0  0  0  0
   -1.8484   23.3926  -31.4157 H   0  0  0  0  0  0  0  0  0  0  0  0
  1  2  1  0
  2  3  2  0
  2  4  2  0
  2  5  1  0
  5  6  2  0
  6  7  1  0
  7  8  2  0
  8  9  1  0
  9 10  1  0
 10 11  1  0
 11 12  1  0
 12 13  2  0
 13 14  1  0
 14 15  1  0
 15 16  2  0
 16 17  1  0
 17 18  2  0
 18 19  1  0
 18 20  1  0
 20 21  1  0
 20 22  2  0
 14 23  1  0
 23 24  2  0
  9 25  2  0
 25  5  1  0
 24 12  1  0
 22 15  1  0
  1 26  1  0
  1 27  1  0
  6 28  1  0
  7 29  1  0
  8 30  1  0
 10 31  1  0
 11 32  1  0
 11 33  1  0
 13 34  1  0
 16 35  1  0
 17 36  1  0
 22 37  1  0
 23 38  1  0
 25 39  1  0
M  END
>  <UniqueID>  (48) 
45

>  <SMILES>  (48) 
NS(=O)(=O)c1cccc(NCc2cn(-c3ccc(F)c(F)c3)cn2)c1

>  <Energy>  (48) 
71.15792094402057

>  <Genealogy>  (48) 
NS(=O)(=O)c1cccc(NCc2cn(-c3ccc(F)c(F)c3)cn2)c1 (3D coordinates assigned)
NS(=O)(=O)c1cccc(NCc2cn(-c3ccc(F)c(F)c3)cn2)c1 (optimized conformer: 71.15792094402057 kcal/mol)

>  <smiles>  (48) 
NS(=O)(=O)c1cccc(NCc2cn(-c3ccc(F)c(F)c3)cn2)c1

>  <score_type>  (48) 
oracle

>  <origin>  (48) 
adgpu

>  <m_score__min__energy>  (48) 
-8.3699999999999992

>  <m_primary>  (48) 
energy

$$$$
