0:0
     RDKit          3D

 65 68  0  0  0  0  0  0  0  0999 V2000
   -7.9800   20.1470  -32.2730 C   0  0  0  0  0  0  0  0  0  0  0  0
   -7.1220   21.3010  -31.8240 C   0  0  0  0  0  0  0  0  0  0  0  0
   -7.7440   22.5110  -31.4660 C   0  0  0  0  0  0  0  0  0  0  0  0
   -6.9860   23.5990  -31.0300 C   0  0  0  0  0  0  0  0  0  0  0  0
   -5.5890   23.5080  -30.9590 C   0  0  0  0  0  0  0  0  0  0  0  0
   -4.7970   24.6710  -30.4930 C   0  0  0  0  0  0  0  0  0  0  0  0
   -4.7130   25.6920  -31.2250 O   0  0  0  0  0  0  0  0  0  0  0  0
   -4.1760   24.7010  -29.1970 N   0  0  0  0  0  0  0  0  0  0  0  0
   -2.9580   24.0340  -28.8180 C   0  0  0  0  0  0  0  0  0  0  0  0
   -3.0340   22.7030  -28.3890 C   0  0  0  0  0  0  0  0  0  0  0  0
   -1.8900   22.0350  -27.9210 C   0  0  0  0  0  0  0  0  0  0  0  0
   -2.0230   20.3860  -27.3000 S   0  0  0  0  0  0  0  0  0  0  0  0
   -3.4750   20.0020  -27.2030 O   0  0  0  0  0  0  0  0  0  0  0  0
   -1.4370   20.3430  -25.9150 O   0  0  0  0  0  0  0  0  0  0  0  0
   -1.2080   19.2230  -28.3180 N   0  0  0  0  0  0  0  0  0  0  0  0
   -0.8450   19.8260  -29.6120 C   0  0  0  0  0  0  0  0  0  0  0  0
    0.1660   18.9340  -30.3660 C   0  0  0  0  0  0  0  0  0  0  0  0
    0.1410   17.6080  -29.8640 O   0  0  0  0  0  0  0  0  0  0  0  0
    0.6170   17.5850  -28.5250 C   0  0  0  0  0  0  0  0  0  0  0  0
   -0.0110   18.6920  -27.6490 C   0  0  0  0  0  0  0  0  0  0  0  0
   -0.6580   22.7050  -27.8950 C   0  0  0  0  0  0  0  0  0  0  0  0
   -0.5720   24.0320  -28.3230 C   0  0  0  0  0  0  0  0  0  0  0  0
   -1.7150   24.7060  -28.7650 C   0  0  0  0  0  0  0  0  0  0  0  0
   -1.6120   26.0490  -29.1120 O   0  0  0  0  0  0  0  0  0  0  0  0
   -4.9620   22.2980  -31.2940 C   0  0  0  0  0  0  0  0  0  0  0  0
   -5.7120   21.1900  -31.7210 C   0  0  0  0  0  0  0  0  0  0  0  0
   -4.8690   19.6720  -32.0840 S   0  0  0  0  0  0  0  0  0  0  0  0
   -3.4520   19.7210  -31.5780 O   0  0  0  0  0  0  0  0  0  0  0  0
   -5.5870   18.5600  -31.3680 O   0  0  0  0  0  0  0  0  0  0  0  0
   -4.8690   19.4120  -33.8160 N   0  0  0  0  0  0  0  0  0  0  0  0
   -6.1340   18.7810  -34.2690 C   0  0  0  0  0  0  0  0  0  0  0  0
   -6.4700   17.4280  -33.6050 C   0  0  0  0  0  0  0  0  0  0  0  0
   -5.8750   16.1680  -34.2900 C   0  0  0  0  0  0  0  0  0  0  0  0
   -4.3620   16.2160  -34.5650 C   0  0  0  0  0  0  0  0  0  0  0  0
   -3.5830   17.2460  -33.7100 C   0  0  0  0  0  0  0  0  0  0  0  0
   -3.6300   18.7030  -34.2080 C   0  0  0  0  0  0  0  0  0  0  0  0
   -8.3733   19.6181  -31.3923 H   0  0  0  0  0  0  0  0  0  0  0  0
   -8.8174   20.5260  -32.8773 H   0  0  0  0  0  0  0  0  0  0  0  0
   -7.3759   19.4543  -32.8773 H   0  0  0  0  0  0  0  0  0  0  0  0
   -8.8385   22.6006  -31.5303 H   0  0  0  0  0  0  0  0  0  0  0  0
   -7.4882   24.5338  -30.7403 H   0  0  0  0  0  0  0  0  0  0  0  0
   -3.9988   22.1754  -28.4187 H   0  0  0  0  0  0  0  0  0  0  0  0
   -1.7519   19.9407  -30.2239 H   0  0  0  0  0  0  0  0  0  0  0  0
   -0.3823   20.8068  -29.4276 H   0  0  0  0  0  0  0  0  0  0  0  0
   -0.0930   18.9197  -31.4350 H   0  0  0  0  0  0  0  0  0  0  0  0
    1.1756   19.3463  -30.2217 H   0  0  0  0  0  0  0  0  0  0  0  0
    0.3758   16.6072  -28.0827 H   0  0  0  0  0  0  0  0  0  0  0  0
    1.7023   17.7616  -28.5555 H   0  0  0  0  0  0  0  0  0  0  0  0
   -0.2924   18.2718  -26.6721 H   0  0  0  0  0  0  0  0  0  0  0  0
    0.7181   19.5024  -27.5019 H   0  0  0  0  0  0  0  0  0  0  0  0
    0.2424   22.1844  -27.5368 H   0  0  0  0  0  0  0  0  0  0  0  0
    0.3989   24.5490  -28.3123 H   0  0  0  0  0  0  0  0  0  0  0  0
   -3.8675   22.2162  -31.2211 H   0  0  0  0  0  0  0  0  0  0  0  0
   -6.9574   19.4784  -34.0554 H   0  0  0  0  0  0  0  0  0  0  0  0
   -6.0026   18.5702  -35.3406 H   0  0  0  0  0  0  0  0  0  0  0  0
   -6.0951   17.4580  -32.5713 H   0  0  0  0  0  0  0  0  0  0  0  0
   -7.5619   17.3214  -33.6845 H   0  0  0  0  0  0  0  0  0  0  0  0
   -6.0741   15.3031  -33.6402 H   0  0  0  0  0  0  0  0  0  0  0  0
   -6.3592   16.1029  -35.2755 H   0  0  0  0  0  0  0  0  0  0  0  0
   -3.9451   15.2181  -34.3640 H   0  0  0  0  0  0  0  0  0  0  0  0
   -4.2457   16.5296  -35.6129 H   0  0  0  0  0  0  0  0  0  0  0  0
   -3.9995   17.2236  -32.6922 H   0  0  0  0  0  0  0  0  0  0  0  0
   -2.5267   16.9444  -33.7679 H   0  0  0  0  0  0  0  0  0  0  0  0
   -2.7694   19.2442  -33.7881 H   0  0  0  0  0  0  0  0  0  0  0  0
   -3.6027   18.6745  -35.3073 H   0  0  0  0  0  0  0  0  0  0  0  0
  1  2  1  0
  2  3  2  0
  3  4  1  0
  4  5  2  0
  5  6  1  0
  6  7  2  0
  6  8  1  0
  8  9  1  0
  9 10  2  0
 10 11  1  0
 11 12  1  0
 12 13  2  0
 12 14  2  0
 12 15  1  0
 15 16  1  0
 16 17  1  0
 17 18  1  0
 18 19  1  0
 19 20  1  0
 11 21  2  0
 21 22  1  0
 22 23  2  0
 23 24  1  0
  5 25  1  0
 25 26  2  0
 26 27  1  0
 27 28  2  0
 27 29  2  0
 27 30  1  0
 30 31  1  0
 31 32  1  0
 32 33  1  0
 33 34  1  0
 34 35  1  0
 35 36  1  0
 26  2  1  0
 36 30  1  0
 23  9  1  0
 20 15  1  0
  1 37  1  0
  1 38  1  0
  1 39  1  0
  3 40  1  0
  4 41  1  0
 10 42  1  0
 16 43  1  0
 16 44  1  0
 17 45  1  0
 17 46  1  0
 19 47  1  0
 19 48  1  0
 20 49  1  0
 20 50  1  0
 21 51  1  0
 22 52  1  0
 25 53  1  0
 31 54  1  0
 31 55  1  0
 32 56  1  0
 32 57  1  0
 33 58  1  0
 33 59  1  0
 34 60  1  0
 34 61  1  0
 35 62  1  0
 35 63  1  0
 36 64  1  0
 36 65  1  0
M  CHG  2   8  -1  24  -1
M  END
>  <UniqueID>  (1) 
1

>  <SMILES>  (1) 
Cc1ccc(C(=O)[N-]c2cc(S(=O)(=O)N3CCOCC3)ccc2[O-])cc1S(=O)(=O)N1CCCCCC1

>  <Energy>  (1) 
92.86827160369975

>  <Genealogy>  (1) 
Cc1ccc(C(=O)[N-]c2cc(S(=O)(=O)N3CCOCC3)ccc2[O-])cc1S(=O)(=O)N1CCCCCC1 (protonated)
Cc1ccc(C(=O)[N-]c2cc(S(=O)(=O)N3CCOCC3)ccc2[O-])cc1S(=O)(=O)N1CCCCCC1 (3D coordinates assigned)
Cc1ccc(C(=O)[N-]c2cc(S(=O)(=O)N3CCOCC3)ccc2[O-])cc1S(=O)(=O)N1CCCCCC1 (nonaromatic ring conformer: 92.86827160369975 kcal/mol)

>  <smiles>  (1) 
Cc1ccc(C(=O)Nc2cc(S(=O)(=O)N3CCOCC3)ccc2O)cc1S(=O)(=O)N1CCCCCC1

>  <score_type>  (1) 
oracle

>  <origin>  (1) 
adgpu

>  <m_score__min__energy>  (1) 
-13.24

>  <m_primary>  (1) 
energy

$$$$
1:0
     RDKit          3D

 52 56  0  0  0  0  0  0  0  0999 V2000
   -0.4430   18.2000  -27.8190 C   0  0  0  0  0  0  0  0  0  0  0  0
   -0.4780   19.2840  -28.8020 N   0  0  0  0  0  0  0  0  0  0  0  0
   -0.1950   19.2330  -30.1360 C   0  0  0  0  0  0  0  0  0  0  0  0
    0.2230   18.0210  -30.8720 C   0  0  0  0  0  0  0  0  0  0  0  0
    1.3530   17.3070  -30.4360 C   0  0  0  0  0  0  0  0  0  0  0  0
    1.7610   16.1480  -31.1040 C   0  0  0  0  0  0  0  0  0  0  0  0
    1.0380   15.6850  -32.2050 C   0  0  0  0  0  0  0  0  0  0  0  0
    1.4450   14.5330  -32.8670 O   0  0  0  0  0  0  0  0  0  0  0  0
   -0.0960   16.3790  -32.6370 C   0  0  0  0  0  0  0  0  0  0  0  0
   -0.5070   17.5400  -31.9720 C   0  0  0  0  0  0  0  0  0  0  0  0
   -0.4140   20.4140  -30.7750 N   0  0  0  0  0  0  0  0  0  0  0  0
   -0.8270   21.2260  -29.7870 C   0  0  0  0  0  0  0  0  0  0  0  0
   -1.2650   22.5390  -29.9100 C   0  0  0  0  0  0  0  0  0  0  0  0
   -1.8020   23.1660  -28.7670 C   0  0  0  0  0  0  0  0  0  0  0  0
   -2.6280   24.7130  -28.9430 S   0  0  0  0  0  0  0  0  0  0  0  0
   -3.6110   24.9130  -27.8240 O   0  0  0  0  0  0  0  0  0  0  0  0
   -1.6130   25.8150  -28.9240 O   0  0  0  0  0  0  0  0  0  0  0  0
   -3.4860   24.7480  -30.4530 N   0  0  0  0  0  0  0  0  0  0  0  0
   -4.4940   23.7920  -30.8170 C   0  0  0  0  0  0  0  0  0  0  0  0
   -4.2030   22.7100  -31.6650 C   0  0  0  0  0  0  0  0  0  0  0  0
   -5.2260   21.8710  -32.1310 C   0  0  0  0  0  0  0  0  0  0  0  0
   -6.5590   22.1170  -31.7440 C   0  0  0  0  0  0  0  0  0  0  0  0
   -6.8350   23.1490  -30.8370 C   0  0  0  0  0  0  0  0  0  0  0  0
   -5.8100   23.9880  -30.3790 C   0  0  0  0  0  0  0  0  0  0  0  0
   -6.0990   25.0400  -29.5140 O   0  0  0  0  0  0  0  0  0  0  0  0
   -7.6780   21.2230  -32.2250 C   0  0  0  0  0  0  0  0  0  0  0  0
   -7.3150   20.5180  -33.4600 N   0  0  0  0  0  0  0  0  0  0  0  0
   -6.0530   19.7950  -33.2810 C   0  0  0  0  0  0  0  0  0  0  0  0
   -4.9000   20.7930  -33.1300 C   0  0  0  0  0  0  0  0  0  0  0  0
   -1.8070   22.4850  -27.5240 C   0  0  0  0  0  0  0  0  0  0  0  0
   -1.3310   21.1640  -27.4290 C   0  0  0  0  0  0  0  0  0  0  0  0
   -0.8660   20.5560  -28.6000 C   0  0  0  0  0  0  0  0  0  0  0  0
   -0.4567   18.6246  -26.8043 H   0  0  0  0  0  0  0  0  0  0  0  0
   -1.3207   17.5514  -27.9570 H   0  0  0  0  0  0  0  0  0  0  0  0
    0.4747   17.6094  -27.9570 H   0  0  0  0  0  0  0  0  0  0  0  0
    1.9203   17.6625  -29.5632 H   0  0  0  0  0  0  0  0  0  0  0  0
    2.6519   15.6010  -30.7618 H   0  0  0  0  0  0  0  0  0  0  0  0
   -0.6671   16.0115  -33.5023 H   0  0  0  0  0  0  0  0  0  0  0  0
   -1.4045   18.0777  -32.3117 H   0  0  0  0  0  0  0  0  0  0  0  0
   -1.1949   23.0726  -30.8693 H   0  0  0  0  0  0  0  0  0  0  0  0
   -3.1625   22.5190  -31.9664 H   0  0  0  0  0  0  0  0  0  0  0  0
   -7.8647   23.3018  -30.4816 H   0  0  0  0  0  0  0  0  0  0  0  0
   -5.3720   25.5160  -28.9900 H   0  0  0  0  0  0  0  0  0  0  0  0
   -7.9031   20.4817  -31.4441 H   0  0  0  0  0  0  0  0  0  0  0  0
   -8.5552   21.8529  -32.4342 H   0  0  0  0  0  0  0  0  0  0  0  0
   -8.0660   19.8130  -33.6570 H   0  0  0  0  0  0  0  0  0  0  0  0
   -6.1153   19.1696  -32.3782 H   0  0  0  0  0  0  0  0  0  0  0  0
   -5.8706   19.1596  -34.1602 H   0  0  0  0  0  0  0  0  0  0  0  0
   -4.0029   20.2533  -32.7925 H   0  0  0  0  0  0  0  0  0  0  0  0
   -4.7282   21.2698  -34.1063 H   0  0  0  0  0  0  0  0  0  0  0  0
   -2.1864   22.9936  -26.6254 H   0  0  0  0  0  0  0  0  0  0  0  0
   -1.3248   20.6286  -26.4681 H   0  0  0  0  0  0  0  0  0  0  0  0
  1  2  1  0
  2  3  1  0
  3  4  1  0
  4  5  2  0
  5  6  1  0
  6  7  2  0
  7  8  1  0
  7  9  1  0
  9 10  2  0
  3 11  2  0
 11 12  1  0
 12 13  2  0
 13 14  1  0
 14 15  1  0
 15 16  2  0
 15 17  2  0
 15 18  1  0
 18 19  1  0
 19 20  2  0
 20 21  1  0
 21 22  2  0
 22 23  1  0
 23 24  2  0
 24 25  1  0
 22 26  1  0
 26 27  1  0
 27 28  1  0
 28 29  1  0
 14 30  2  0
 30 31  1  0
 31 32  2  0
 32  2  1  0
 10  4  1  0
 32 12  1  0
 24 19  1  0
 29 21  1  0
  1 33  1  0
  1 34  1  0
  1 35  1  0
  5 36  1  0
  6 37  1  0
  9 38  1  0
 10 39  1  0
 13 40  1  0
 20 41  1  0
 23 42  1  0
 25 43  1  0
 26 44  1  0
 26 45  1  0
 27 46  1  0
 28 47  1  0
 28 48  1  0
 29 49  1  0
 29 50  1  0
 30 51  1  0
 31 52  1  0
M  CHG  2   8  -1  18  -1
M  END
>  <UniqueID>  (2) 
2

>  <SMILES>  (2) 
Cn1c(-c2ccc([O-])cc2)nc2cc(S(=O)(=O)[N-]c3cc4c(cc3O)CNCC4)ccc21

>  <Energy>  (2) 
105.29228892485871

>  <Genealogy>  (2) 
Cn1c(-c2ccc([O-])cc2)nc2cc(S(=O)(=O)[N-]c3cc4c(cc3O)CNCC4)ccc21 (protonated)
Cn1c(-c2ccc([O-])cc2)nc2cc(S(=O)(=O)[N-]c3cc4c(cc3O)CNCC4)ccc21 (3D coordinates assigned)
Cn1c(-c2ccc([O-])cc2)nc2cc(S(=O)(=O)[N-]c3cc4c(cc3O)CNCC4)ccc21 (nonaromatic ring conformer: 105.29228892485871 kcal/mol)

>  <smiles>  (2) 
Cn1c(-c2ccc(O)cc2)nc2cc(S(=O)(=O)Nc3cc4c(cc3O)CNCC4)ccc21

>  <score_type>  (2) 
oracle

>  <origin>  (2) 
adgpu

>  <m_score__min__energy>  (2) 
-12.52

>  <m_primary>  (2) 
energy

$$$$
2:0
     RDKit          3D

 53 56  0  0  0  0  0  0  0  0999 V2000
   -5.1530   26.3510  -30.4530 O   0  0  0  0  0  0  0  0  0  0  0  0
   -4.8470   25.1330  -30.5280 C   0  0  0  0  0  0  0  0  0  0  0  0
   -3.4780   24.7540  -30.3270 N   0  0  0  0  0  0  0  0  0  0  0  0
   -2.9790   23.4120  -30.3960 C   0  0  0  0  0  0  0  0  0  0  0  0
   -3.3690   22.6130  -31.4770 C   0  0  0  0  0  0  0  0  0  0  0  0
   -2.8330   21.3310  -31.6460 C   0  0  0  0  0  0  0  0  0  0  0  0
   -3.2120   20.3920  -33.0860 S   0  0  0  0  0  0  0  0  0  0  0  0
   -4.5030   20.8790  -33.6860 O   0  0  0  0  0  0  0  0  0  0  0  0
   -3.3740   18.9460  -32.7090 O   0  0  0  0  0  0  0  0  0  0  0  0
   -1.9050   20.5570  -34.2290 N   0  0  0  0  0  0  0  0  0  0  0  0
   -0.8560   21.4500  -33.7360 C   0  0  0  0  0  0  0  0  0  0  0  0
    0.4330   21.0250  -34.4250 C   0  0  0  0  0  0  0  0  0  0  0  0
    0.1830   19.6050  -34.9150 C   0  0  0  0  0  0  0  0  0  0  0  0
   -1.2430   19.2770  -34.4930 C   0  0  0  0  0  0  0  0  0  0  0  0
   -1.9230   20.8330  -30.7080 C   0  0  0  0  0  0  0  0  0  0  0  0
   -1.5580   21.6050  -29.6030 C   0  0  0  0  0  0  0  0  0  0  0  0
   -2.0780   22.8990  -29.4340 C   0  0  0  0  0  0  0  0  0  0  0  0
   -1.7330   23.6560  -28.2580 N   0  0  0  0  0  0  0  0  0  0  0  0
   -2.5880   23.6440  -27.0680 C   0  0  0  0  0  0  0  0  0  0  0  0
   -3.0670   25.0700  -26.7890 C   0  0  0  0  0  0  0  0  0  0  0  0
   -1.9650   25.9560  -26.6890 O   0  0  0  0  0  0  0  0  0  0  0  0
   -1.2820   26.0290  -27.9300 C   0  0  0  0  0  0  0  0  0  0  0  0
   -0.6780   24.6700  -28.3020 C   0  0  0  0  0  0  0  0  0  0  0  0
   -5.9070   24.1320  -30.7950 C   0  0  0  0  0  0  0  0  0  0  0  0
   -6.2970   23.8540  -32.1130 C   0  0  0  0  0  0  0  0  0  0  0  0
   -7.2870   22.8980  -32.3560 C   0  0  0  0  0  0  0  0  0  0  0  0
   -7.8820   22.2560  -31.3170 N   0  0  0  0  0  0  0  0  0  0  0  0
   -7.5450   22.5210  -30.0280 C   0  0  0  0  0  0  0  0  0  0  0  0
   -6.5600   23.4690  -29.7420 C   0  0  0  0  0  0  0  0  0  0  0  0
   -4.1036   22.9961  -32.2006 H   0  0  0  0  0  0  0  0  0  0  0  0
   -2.2920   20.9360  -35.1270 H   0  0  0  0  0  0  0  0  0  0  0  0
   -1.0956   22.4935  -33.9886 H   0  0  0  0  0  0  0  0  0  0  0  0
   -0.7616   21.3866  -32.6419 H   0  0  0  0  0  0  0  0  0  0  0  0
    0.6536   21.6909  -35.2723 H   0  0  0  0  0  0  0  0  0  0  0  0
    1.2956   21.0760  -33.7444 H   0  0  0  0  0  0  0  0  0  0  0  0
    0.2823   19.5523  -36.0092 H   0  0  0  0  0  0  0  0  0  0  0  0
    0.9083   18.8932  -34.4939 H   0  0  0  0  0  0  0  0  0  0  0  0
   -1.7635   18.7394  -35.2993 H   0  0  0  0  0  0  0  0  0  0  0  0
   -1.2552   18.6323  -33.6018 H   0  0  0  0  0  0  0  0  0  0  0  0
   -1.4931   19.8293  -30.8411 H   0  0  0  0  0  0  0  0  0  0  0  0
   -0.8579   21.1967  -28.8592 H   0  0  0  0  0  0  0  0  0  0  0  0
   -3.4554   22.9905  -27.2428 H   0  0  0  0  0  0  0  0  0  0  0  0
   -2.0210   23.2652  -26.2049 H   0  0  0  0  0  0  0  0  0  0  0  0
   -3.7216   25.3985  -27.6097 H   0  0  0  0  0  0  0  0  0  0  0  0
   -3.6170   25.0793  -25.8364 H   0  0  0  0  0  0  0  0  0  0  0  0
   -1.9906   26.3350  -28.7138 H   0  0  0  0  0  0  0  0  0  0  0  0
   -0.4678   26.7632  -27.8407 H   0  0  0  0  0  0  0  0  0  0  0  0
   -0.2545   24.7189  -29.3160 H   0  0  0  0  0  0  0  0  0  0  0  0
    0.1204   24.4092  -27.5917 H   0  0  0  0  0  0  0  0  0  0  0  0
   -5.8255   24.3863  -32.9523 H   0  0  0  0  0  0  0  0  0  0  0  0
   -7.5846   22.6652  -33.3891 H   0  0  0  0  0  0  0  0  0  0  0  0
   -8.0487   21.9881  -29.2081 H   0  0  0  0  0  0  0  0  0  0  0  0
   -6.2968   23.6954  -28.6982 H   0  0  0  0  0  0  0  0  0  0  0  0
  1  2  2  0
  2  3  1  0
  3  4  1  0
  4  5  2  0
  5  6  1  0
  6  7  1  0
  7  8  2  0
  7  9  2  0
  7 10  1  0
 10 11  1  0
 11 12  1  0
 12 13  1  0
 13 14  1  0
  6 15  2  0
 15 16  1  0
 16 17  2  0
 17 18  1  0
 18 19  1  0
 19 20  1  0
 20 21  1  0
 21 22  1  0
 22 23  1  0
  2 24  1  0
 24 25  2  0
 25 26  1  0
 26 27  2  0
 27 28  1  0
 28 29  2  0
 17  4  1  0
 23 18  1  0
 29 24  1  0
 14 10  1  0
  5 30  1  0
 10 31  1  0
 11 32  1  0
 11 33  1  0
 12 34  1  0
 12 35  1  0
 13 36  1  0
 13 37  1  0
 14 38  1  0
 14 39  1  0
 15 40  1  0
 16 41  1  0
 19 42  1  0
 19 43  1  0
 20 44  1  0
 20 45  1  0
 22 46  1  0
 22 47  1  0
 23 48  1  0
 23 49  1  0
 25 50  1  0
 26 51  1  0
 28 52  1  0
 29 53  1  0
M  CHG  2   3  -1  10   1
M  END
>  <UniqueID>  (3) 
3

>  <SMILES>  (3) 
O=C([N-]c1cc(S(=O)(=O)[NH+]2CCCC2)ccc1N1CCOCC1)c1ccncc1

>  <Energy>  (3) 
69.95996510786107

>  <Genealogy>  (3) 
O=C([N-]c1cc(S(=O)(=O)[NH+]2CCCC2)ccc1N1CCOCC1)c1ccncc1 (protonated)
O=C([N-]c1cc(S(=O)(=O)[NH+]2CCCC2)ccc1N1CCOCC1)c1ccncc1 (3D coordinates assigned)
O=C([N-]c1cc(S(=O)(=O)[NH+]2CCCC2)ccc1N1CCOCC1)c1ccncc1 (nonaromatic ring conformer: 69.95996510786107 kcal/mol)

>  <smiles>  (3) 
O=C(Nc1cc(S(=O)(=O)N2CCCC2)ccc1N1CCOCC1)c1ccncc1

>  <score_type>  (3) 
oracle

>  <origin>  (3) 
adgpu

>  <m_score__min__energy>  (3) 
-9.5500000000000007

>  <m_primary>  (3) 
energy

$$$$
3:0
     RDKit          3D

 53 56  0  0  0  0  0  0  0  0999 V2000
   -1.5410   19.8940  -27.3190 C   0  0  0  0  0  0  0  0  0  0  0  0
   -0.2430   19.5980  -28.0550 C   0  0  0  0  0  0  0  0  0  0  0  0
    0.2130   20.7760  -28.7120 O   0  0  0  0  0  0  0  0  0  0  0  0
   -0.2460   21.1610  -29.9750 C   0  0  0  0  0  0  0  0  0  0  0  0
    0.3210   20.7360  -31.0190 O   0  0  0  0  0  0  0  0  0  0  0  0
   -1.3970   22.0640  -30.0810 C   0  0  0  0  0  0  0  0  0  0  0  0
   -2.5870   21.8050  -30.7570 C   0  0  0  0  0  0  0  0  0  0  0  0
   -3.5020   22.8100  -30.7050 N   0  0  0  0  0  0  0  0  0  0  0  0
   -3.0380   23.8660  -29.9970 C   0  0  0  0  0  0  0  0  0  0  0  0
   -3.7220   24.9470  -29.7690 N   0  0  0  0  0  0  0  0  0  0  0  0
   -5.0280   25.2260  -30.2970 C   0  0  0  0  0  0  0  0  0  0  0  0
   -5.3540   26.4290  -30.4930 O   0  0  0  0  0  0  0  0  0  0  0  0
   -5.9770   24.1490  -30.6680 C   0  0  0  0  0  0  0  0  0  0  0  0
   -6.4020   23.2030  -29.7190 C   0  0  0  0  0  0  0  0  0  0  0  0
   -7.2740   22.1740  -30.0830 C   0  0  0  0  0  0  0  0  0  0  0  0
   -7.7240   22.0640  -31.4050 C   0  0  0  0  0  0  0  0  0  0  0  0
   -8.7870   20.7330  -31.8780 S   0  0  0  0  0  0  0  0  0  0  0  0
  -10.0830   21.2970  -32.3920 O   0  0  0  0  0  0  0  0  0  0  0  0
   -9.0920   19.8910  -30.6700 O   0  0  0  0  0  0  0  0  0  0  0  0
   -8.0520   19.7370  -33.1190 N   0  0  1  0  0  0  0  0  0  0  0  0
   -6.8010   20.3670  -33.6330 C   0  0  0  0  0  0  0  0  0  0  0  0
   -5.5210   19.7130  -33.0940 C   0  0  0  0  0  0  0  0  0  0  0  0
   -5.5650   18.2560  -33.4270 C   0  0  0  0  0  0  0  0  0  0  0  0
   -4.4370   17.5690  -33.9000 C   0  0  0  0  0  0  0  0  0  0  0  0
   -4.5290   16.2060  -34.2030 C   0  0  0  0  0  0  0  0  0  0  0  0
   -5.7390   15.5280  -34.0230 C   0  0  0  0  0  0  0  0  0  0  0  0
   -6.8620   16.2100  -33.5410 C   0  0  0  0  0  0  0  0  0  0  0  0
   -6.7800   17.5820  -33.2560 C   0  0  0  0  0  0  0  0  0  0  0  0
   -7.9370   18.3290  -32.6390 C   0  0  0  0  0  0  0  0  0  0  0  0
   -7.3080   23.0070  -32.3550 C   0  0  0  0  0  0  0  0  0  0  0  0
   -6.4340   24.0350  -31.9930 C   0  0  0  0  0  0  0  0  0  0  0  0
   -1.4920   23.6010  -29.3940 S   0  0  0  0  0  0  0  0  0  0  0  0
   -1.3647   19.8538  -26.2340 H   0  0  0  0  0  0  0  0  0  0  0  0
   -1.8988   20.8968  -27.5954 H   0  0  0  0  0  0  0  0  0  0  0  0
   -2.2982   19.1455  -27.5954 H   0  0  0  0  0  0  0  0  0  0  0  0
    0.5179   19.2627  -27.3349 H   0  0  0  0  0  0  0  0  0  0  0  0
   -0.4178   18.8083  -28.8006 H   0  0  0  0  0  0  0  0  0  0  0  0
   -2.7723   20.8614  -31.2912 H   0  0  0  0  0  0  0  0  0  0  0  0
   -6.0449   23.2736  -28.6810 H   0  0  0  0  0  0  0  0  0  0  0  0
   -7.6087   21.4471  -29.3283 H   0  0  0  0  0  0  0  0  0  0  0  0
   -8.7360   19.7350  -33.9150 H   0  0  0  0  0  0  0  0  0  0  0  0
   -6.7968   20.2886  -34.7302 H   0  0  0  0  0  0  0  0  0  0  0  0
   -6.8000   21.4121  -33.2899 H   0  0  0  0  0  0  0  0  0  0  0  0
   -4.6403   20.1758  -33.5633 H   0  0  0  0  0  0  0  0  0  0  0  0
   -5.4528   19.8520  -32.0050 H   0  0  0  0  0  0  0  0  0  0  0  0
   -3.4829   18.1003  -34.0323 H   0  0  0  0  0  0  0  0  0  0  0  0
   -3.6486   15.6671  -34.5832 H   0  0  0  0  0  0  0  0  0  0  0  0
   -5.8081   14.4562  -34.2608 H   0  0  0  0  0  0  0  0  0  0  0  0
   -7.8083   15.6712  -33.3856 H   0  0  0  0  0  0  0  0  0  0  0  0
   -8.8679   17.7981  -32.8873 H   0  0  0  0  0  0  0  0  0  0  0  0
   -7.7593   18.3675  -31.5541 H   0  0  0  0  0  0  0  0  0  0  0  0
   -7.6716   22.9372  -33.3908 H   0  0  0  0  0  0  0  0  0  0  0  0
   -6.1009   24.7604  -32.7498 H   0  0  0  0  0  0  0  0  0  0  0  0
  1  2  1  0
  2  3  1  0
  3  4  1  0
  4  5  2  0
  4  6  1  0
  6  7  2  0
  7  8  1  0
  8  9  1  0
  9 10  2  3
 10 11  1  0
 11 12  2  0
 11 13  1  0
 13 14  2  0
 14 15  1  0
 15 16  2  0
 16 17  1  0
 17 18  2  0
 17 19  2  0
 17 20  1  0
 20 21  1  0
 21 22  1  0
 22 23  1  0
 23 24  2  0
 24 25  1  0
 25 26  2  0
 26 27  1  0
 27 28  2  0
 28 29  1  0
 16 30  1  0
 30 31  2  0
  9 32  1  0
 32  6  1  0
 31 13  1  0
 29 20  1  0
 28 23  1  0
  1 33  1  0
  1 34  1  0
  1 35  1  0
  2 36  1  0
  2 37  1  0
  7 38  1  0
 14 39  1  0
 15 40  1  0
 20 41  1  6
 21 42  1  0
 21 43  1  0
 22 44  1  0
 22 45  1  0
 24 46  1  0
 25 47  1  0
 26 48  1  0
 27 49  1  0
 29 50  1  0
 29 51  1  0
 30 52  1  0
 31 53  1  0
M  CHG  2   8  -1  20   1
M  END
>  <UniqueID>  (4) 
4

>  <SMILES>  (4) 
CCOC(=O)c1c[n-]c(=NC(=O)c2ccc(S(=O)(=O)[N@H+]3CCc4ccccc4C3)cc2)s1

>  <Energy>  (4) 
97.48868200301919

>  <Genealogy>  (4) 
CCOC(=O)c1c[n-]c(=NC(=O)c2ccc(S(=O)(=O)[NH+]3CCc4ccccc4C3)cc2)s1 (protonated)
CCOC(=O)c1c[n-]c(=NC(=O)c2ccc(S(=O)(=O)[N@H+]3CCc4ccccc4C3)cc2)s1 (chirality)
CCOC(=O)c1c[n-]c(=NC(=O)c2ccc(S(=O)(=O)[N@H+]3CCc4ccccc4C3)cc2)s1 (3D coordinates assigned)
CCOC(=O)c1c[n-]c(=NC(=O)c2ccc(S(=O)(=O)[N@H+]3CCc4ccccc4C3)cc2)s1 (nonaromatic ring conformer: 97.48868200301919 kcal/mol)

>  <smiles>  (4) 
CCOC(=O)c1c[nH]c(=NC(=O)c2ccc(S(=O)(=O)N3CCc4ccccc4C3)cc2)s1

>  <score_type>  (4) 
oracle

>  <origin>  (4) 
adgpu

>  <m_score__min__energy>  (4) 
-11.539999999999999

>  <m_primary>  (4) 
energy

$$$$
4:0
     RDKit          3D

 47 49  0  0  0  0  0  0  0  0999 V2000
   -5.0420   20.8150  -33.1950 C   0  0  0  0  0  0  0  0  0  0  0  0
   -3.7290   20.8010  -32.4680 C   0  0  0  0  0  0  0  0  0  0  0  0
   -2.5500   21.1960  -33.1120 C   0  0  0  0  0  0  0  0  0  0  0  0
   -1.3370   21.1940  -32.4190 C   0  0  0  0  0  0  0  0  0  0  0  0
   -1.2900   20.8150  -31.0740 C   0  0  0  0  0  0  0  0  0  0  0  0
   -0.0600   20.8330  -30.4160 O   0  0  0  0  0  0  0  0  0  0  0  0
   -2.4720   20.4320  -30.4080 C   0  0  0  0  0  0  0  0  0  0  0  0
   -2.4090   20.0680  -29.0220 N   0  0  0  0  0  0  0  0  0  0  0  0
   -1.4650   20.8820  -27.8140 S   0  0  0  0  0  0  0  0  0  0  0  0
   -2.0630   20.6200  -26.4590 O   0  0  0  0  0  0  0  0  0  0  0  0
   -0.0630   20.3450  -27.8390 O   0  0  0  0  0  0  0  0  0  0  0  0
   -1.4200   22.6060  -28.1650 C   0  0  0  0  0  0  0  0  0  0  0  0
   -0.3090   23.3610  -27.7730 C   0  0  0  0  0  0  0  0  0  0  0  0
   -0.2500   24.7270  -28.0610 C   0  0  0  0  0  0  0  0  0  0  0  0
   -1.2940   25.3450  -28.7550 C   0  0  0  0  0  0  0  0  0  0  0  0
   -1.2380   26.7170  -28.9790 O   0  0  0  0  0  0  0  0  0  0  0  0
   -2.4000   24.5850  -29.1880 C   0  0  0  0  0  0  0  0  0  0  0  0
   -3.4930   25.1730  -29.9040 N   0  0  0  0  0  0  0  0  0  0  0  0
   -4.3590   24.4790  -30.8110 C   0  0  0  0  0  0  0  0  0  0  0  0
   -3.9950   23.3950  -31.3380 O   0  0  0  0  0  0  0  0  0  0  0  0
   -5.6650   24.9870  -31.0910 N   0  0  0  0  0  0  0  0  0  0  0  0
   -6.8760   24.1720  -31.0210 C   0  0  0  0  0  0  0  0  0  0  0  0
   -6.7020   23.0340  -30.0290 C   0  0  0  0  0  0  0  0  0  0  0  0
   -7.6150   21.9180  -30.5220 C   0  0  0  0  0  0  0  0  0  0  0  0
   -7.9150   22.2080  -31.9930 C   0  0  0  0  0  0  0  0  0  0  0  0
   -7.1710   23.4890  -32.3500 C   0  0  0  0  0  0  0  0  0  0  0  0
   -2.4680   23.2250  -28.8600 C   0  0  0  0  0  0  0  0  0  0  0  0
   -3.6870   20.4230  -31.1190 C   0  0  0  0  0  0  0  0  0  0  0  0
   -5.8651   20.8238  -32.4653 H   0  0  0  0  0  0  0  0  0  0  0  0
   -5.1020   21.7138  -33.8263 H   0  0  0  0  0  0  0  0  0  0  0  0
   -5.1212   19.9176  -33.8263 H   0  0  0  0  0  0  0  0  0  0  0  0
   -2.5790   21.5087  -34.1662 H   0  0  0  0  0  0  0  0  0  0  0  0
   -0.4126   21.4926  -32.9350 H   0  0  0  0  0  0  0  0  0  0  0  0
    0.0540   20.5000  -29.4670 H   0  0  0  0  0  0  0  0  0  0  0  0
    0.5206   22.8776  -27.2364 H   0  0  0  0  0  0  0  0  0  0  0  0
    0.6208   25.3178  -27.7406 H   0  0  0  0  0  0  0  0  0  0  0  0
   -7.6835   24.8611  -30.7326 H   0  0  0  0  0  0  0  0  0  0  0  0
   -5.6556   22.6952  -30.0129 H   0  0  0  0  0  0  0  0  0  0  0  0
   -6.9552   23.3445  -29.0046 H   0  0  0  0  0  0  0  0  0  0  0  0
   -7.1110   20.9453  -30.4232 H   0  0  0  0  0  0  0  0  0  0  0  0
   -8.5421   21.8774  -29.9313 H   0  0  0  0  0  0  0  0  0  0  0  0
   -7.5625   21.3775  -32.6222 H   0  0  0  0  0  0  0  0  0  0  0  0
   -8.9964   22.3199  -32.1606 H   0  0  0  0  0  0  0  0  0  0  0  0
   -6.2349   23.2554  -32.8783 H   0  0  0  0  0  0  0  0  0  0  0  0
   -7.7633   24.1326  -33.0170 H   0  0  0  0  0  0  0  0  0  0  0  0
   -3.3516   22.6376  -29.1504 H   0  0  0  0  0  0  0  0  0  0  0  0
   -4.6129   20.1161  -30.6106 H   0  0  0  0  0  0  0  0  0  0  0  0
  1  2  1  0
  2  3  2  0
  3  4  1  0
  4  5  2  0
  5  6  1  0
  5  7  1  0
  7  8  1  0
  8  9  1  0
  9 10  2  0
  9 11  2  0
  9 12  1  0
 12 13  2  0
 13 14  1  0
 14 15  2  0
 15 16  1  0
 15 17  1  0
 17 18  1  0
 18 19  1  0
 19 20  2  0
 19 21  1  0
 21 22  1  0
 22 23  1  0
 23 24  1  0
 24 25  1  0
 25 26  1  0
 17 27  2  0
  7 28  2  0
 28  2  1  0
 27 12  1  0
 26 22  1  0
  1 29  1  0
  1 30  1  0
  1 31  1  0
  3 32  1  0
  4 33  1  0
  6 34  1  0
 13 35  1  0
 14 36  1  0
 22 37  1  0
 23 38  1  0
 23 39  1  0
 24 40  1  0
 24 41  1  0
 25 42  1  0
 25 43  1  0
 26 44  1  0
 26 45  1  0
 27 46  1  0
 28 47  1  0
M  CHG  4   8  -1  16  -1  18  -1  21  -1
M  END
>  <UniqueID>  (5) 
5

>  <SMILES>  (5) 
Cc1ccc(O)c([N-]S(=O)(=O)c2ccc([O-])c([N-]C(=O)[N-]C3CCCC3)c2)c1

>  <Energy>  (5) 
53.66010795703503

>  <Genealogy>  (5) 
Cc1ccc(O)c([N-]S(=O)(=O)c2ccc([O-])c([N-]C(=O)[N-]C3CCCC3)c2)c1 (protonated)
Cc1ccc(O)c([N-]S(=O)(=O)c2ccc([O-])c([N-]C(=O)[N-]C3CCCC3)c2)c1 (3D coordinates assigned)
Cc1ccc(O)c([N-]S(=O)(=O)c2ccc([O-])c([N-]C(=O)[N-]C3CCCC3)c2)c1 (nonaromatic ring conformer: 53.66010795703503 kcal/mol)

>  <smiles>  (5) 
Cc1ccc(O)c(NS(=O)(=O)c2ccc(O)c(NC(=O)NC3CCCC3)c2)c1

>  <score_type>  (5) 
oracle

>  <origin>  (5) 
adgpu

>  <m_score__min__energy>  (5) 
-12.68

>  <m_primary>  (5) 
energy

$$$$
5:0
     RDKit          3D

 57 60  0  0  0  0  0  0  0  0999 V2000
   -6.3850   16.5950  -34.5220 C   0  0  0  0  0  0  0  0  0  0  0  0
   -6.6300   17.8210  -33.7290 N   0  0  0  0  0  0  0  0  0  0  0  0
   -6.7530   17.4930  -32.3050 C   0  0  0  0  0  0  0  0  0  0  0  0
   -7.3330   18.7080  -31.5820 C   0  0  0  0  0  0  0  0  0  0  0  0
   -6.6570   19.9460  -32.0090 N   0  0  0  0  0  0  0  0  0  0  0  0
   -7.2070   21.2060  -31.5820 C   0  0  0  0  0  0  0  0  0  0  0  0
   -8.4590   21.3180  -31.4560 O   0  0  0  0  0  0  0  0  0  0  0  0
   -6.3490   22.3820  -31.2830 C   0  0  0  0  0  0  0  0  0  0  0  0
   -6.7720   23.6890  -31.5840 C   0  0  0  0  0  0  0  0  0  0  0  0
   -5.9480   24.7840  -31.3000 C   0  0  0  0  0  0  0  0  0  0  0  0
   -4.6830   24.5850  -30.7400 C   0  0  0  0  0  0  0  0  0  0  0  0
   -3.8610   25.6800  -30.4880 O   0  0  0  0  0  0  0  0  0  0  0  0
   -4.2340   23.2860  -30.4690 C   0  0  0  0  0  0  0  0  0  0  0  0
   -2.9090   23.0820  -29.9800 N   0  0  0  0  0  0  0  0  0  0  0  0
   -2.2670   21.4680  -29.8490 S   0  0  0  0  0  0  0  0  0  0  0  0
   -3.3790   20.4810  -29.5810 O   0  0  0  0  0  0  0  0  0  0  0  0
   -1.2880   21.4070  -28.7120 O   0  0  0  0  0  0  0  0  0  0  0  0
   -1.4350   21.0920  -31.3610 C   0  0  0  0  0  0  0  0  0  0  0  0
   -1.9580   21.5260  -32.5780 C   0  0  0  0  0  0  0  0  0  0  0  0
   -1.2380   21.3480  -33.7580 C   0  0  0  0  0  0  0  0  0  0  0  0
    0.0390   20.7330  -33.7500 C   0  0  0  0  0  0  0  0  0  0  0  0
    0.5730   20.2780  -32.5090 C   0  0  0  0  0  0  0  0  0  0  0  0
   -0.1840   20.4740  -31.3260 C   0  0  0  0  0  0  0  0  0  0  0  0
    1.8180   19.6830  -32.4780 N   0  0  0  0  0  0  0  0  0  0  0  0
    2.3880   19.1960  -31.2060 C   0  0  0  0  0  0  0  0  0  0  0  0
    2.5370   19.5520  -33.6390 C   0  0  0  0  0  0  0  0  0  0  0  0
    3.6870   19.0230  -33.6310 O   0  0  0  0  0  0  0  0  0  0  0  0
    2.0140   20.0010  -34.8560 C   0  0  0  0  0  0  0  0  0  0  0  0
    2.7080   19.8610  -35.9020 O   0  0  0  0  0  0  0  0  0  0  0  0
    0.7740   20.5840  -34.9090 N   0  0  0  0  0  0  0  0  0  0  0  0
    0.2490   21.0730  -36.2020 C   0  0  0  0  0  0  0  0  0  0  0  0
   -5.0660   22.1900  -30.7420 C   0  0  0  0  0  0  0  0  0  0  0  0
   -5.4420   19.8820  -32.8440 C   0  0  0  0  0  0  0  0  0  0  0  0
   -5.5430   18.8070  -33.9580 C   0  0  0  0  0  0  0  0  0  0  0  0
   -6.2155   15.7467  -33.8426 H   0  0  0  0  0  0  0  0  0  0  0  0
   -7.2595   16.3877  -35.1563 H   0  0  0  0  0  0  0  0  0  0  0  0
   -5.4980   16.7397  -35.1563 H   0  0  0  0  0  0  0  0  0  0  0  0
   -7.4230   16.6298  -32.1785 H   0  0  0  0  0  0  0  0  0  0  0  0
   -5.7676   17.2381  -31.8879 H   0  0  0  0  0  0  0  0  0  0  0  0
   -8.4059   18.7857  -31.8120 H   0  0  0  0  0  0  0  0  0  0  0  0
   -7.1804   18.5793  -30.5003 H   0  0  0  0  0  0  0  0  0  0  0  0
   -7.7571   23.8517  -32.0457 H   0  0  0  0  0  0  0  0  0  0  0  0
   -6.2969   25.8041  -31.5181 H   0  0  0  0  0  0  0  0  0  0  0  0
   -2.9445   22.0117  -32.6072 H   0  0  0  0  0  0  0  0  0  0  0  0
   -1.6677   21.6903  -34.7110 H   0  0  0  0  0  0  0  0  0  0  0  0
    0.2224   20.1325  -30.3625 H   0  0  0  0  0  0  0  0  0  0  0  0
    1.8503   19.6554  -30.3635 H   0  0  0  0  0  0  0  0  0  0  0  0
    2.2858   18.1020  -31.1534 H   0  0  0  0  0  0  0  0  0  0  0  0
    3.4526   19.4677  -31.1534 H   0  0  0  0  0  0  0  0  0  0  0  0
   -0.5448   21.8123  -36.0194 H   0  0  0  0  0  0  0  0  0  0  0  0
    1.0628   21.5424  -36.7742 H   0  0  0  0  0  0  0  0  0  0  0  0
   -0.1615   20.2280  -36.7742 H   0  0  0  0  0  0  0  0  0  0  0  0
   -4.7109   21.1706  -30.5307 H   0  0  0  0  0  0  0  0  0  0  0  0
   -5.2851   20.8639  -33.3144 H   0  0  0  0  0  0  0  0  0  0  0  0
   -4.6010   19.6079  -32.1901 H   0  0  0  0  0  0  0  0  0  0  0  0
   -5.7284   19.3142  -34.9163 H   0  0  0  0  0  0  0  0  0  0  0  0
   -4.5943   18.2502  -33.9592 H   0  0  0  0  0  0  0  0  0  0  0  0
  1  2  1  0
  2  3  1  0
  3  4  1  0
  4  5  1  0
  5  6  1  0
  6  7  2  0
  6  8  1  0
  8  9  2  0
  9 10  1  0
 10 11  2  0
 11 12  1  0
 11 13  1  0
 13 14  1  0
 14 15  1  0
 15 16  2  0
 15 17  2  0
 15 18  1  0
 18 19  2  0
 19 20  1  0
 20 21  2  0
 21 22  1  0
 22 23  2  0
 22 24  1  0
 24 25  1  0
 24 26  1  0
 26 27  2  0
 26 28  1  0
 28 29  2  0
 28 30  1  0
 30 31  1  0
 13 32  2  0
  5 33  1  0
 33 34  1  0
 34  2  1  0
 32  8  1  0
 23 18  1  0
 30 21  1  0
  1 35  1  0
  1 36  1  0
  1 37  1  0
  3 38  1  0
  3 39  1  0
  4 40  1  0
  4 41  1  0
  9 42  1  0
 10 43  1  0
 19 44  1  0
 20 45  1  0
 23 46  1  0
 25 47  1  0
 25 48  1  0
 25 49  1  0
 31 50  1  0
 31 51  1  0
 31 52  1  0
 32 53  1  0
 33 54  1  0
 33 55  1  0
 34 56  1  0
 34 57  1  0
M  CHG  2  12  -1  14  -1
M  END
>  <UniqueID>  (6) 
6

>  <SMILES>  (6) 
CN1CCN(C(=O)c2ccc([O-])c([N-]S(=O)(=O)c3ccc4c(c3)n(C)c(=O)c(=O)n4C)c2)CC1

>  <Energy>  (6) 
96.27550556371864

>  <Genealogy>  (6) 
CN1CCN(C(=O)c2ccc([O-])c([N-]S(=O)(=O)c3ccc4c(c3)n(C)c(=O)c(=O)n4C)c2)CC1 (protonated)
CN1CCN(C(=O)c2ccc([O-])c([N-]S(=O)(=O)c3ccc4c(c3)n(C)c(=O)c(=O)n4C)c2)CC1 (3D coordinates assigned)
CN1CCN(C(=O)c2ccc([O-])c([N-]S(=O)(=O)c3ccc4c(c3)n(C)c(=O)c(=O)n4C)c2)CC1 (nonaromatic ring conformer: 96.27550556371864 kcal/mol)

>  <smiles>  (6) 
CN1CCN(C(=O)c2ccc(O)c(NS(=O)(=O)c3ccc4c(c3)n(C)c(=O)c(=O)n4C)c2)CC1

>  <score_type>  (6) 
oracle

>  <origin>  (6) 
adgpu

>  <m_score__min__energy>  (6) 
-15.390000000000001

>  <m_primary>  (6) 
energy

$$$$
6:0
     RDKit          3D

 41 43  0  0  0  0  0  0  0  0999 V2000
   -0.0030   19.2140  -31.5580 H   0  0  0  0  0  0  0  0  0  0  0  0
   -0.2580   18.3210  -31.9650 O   0  0  0  0  0  0  0  0  0  0  0  0
   -1.5390   18.0840  -32.4640 C   0  0  0  0  0  0  0  0  0  0  0  0
   -1.8400   16.8390  -33.0360 C   0  0  0  0  0  0  0  0  0  0  0  0
   -1.0818   16.0421  -33.0407 H   0  0  0  0  0  0  0  0  0  0  0  0
   -3.0950   16.6050  -33.5990 C   0  0  0  0  0  0  0  0  0  0  0  0
   -3.3220   15.6251  -34.0443 H   0  0  0  0  0  0  0  0  0  0  0  0
   -4.0660   17.6130  -33.5990 C   0  0  0  0  0  0  0  0  0  0  0  0
   -5.6330   17.3280  -34.3510 S   0  0  0  0  0  0  0  0  0  0  0  0
   -5.5860   17.7930  -35.7800 O   0  0  0  0  0  0  0  0  0  0  0  0
   -5.9400   15.8550  -34.3380 O   0  0  0  0  0  0  0  0  0  0  0  0
   -6.8580   18.2200  -33.4870 N   0  0  0  0  0  0  0  0  0  0  0  0
   -6.7260   19.6590  -33.7110 C   0  0  0  0  0  0  0  0  0  0  0  0
   -5.6662   19.9297  -33.8273 H   0  0  0  0  0  0  0  0  0  0  0  0
   -7.2504   19.9683  -34.6272 H   0  0  0  0  0  0  0  0  0  0  0  0
   -7.3110   20.3430  -32.4860 C   0  0  0  0  0  0  0  0  0  0  0  0
   -6.6912   21.2031  -32.1926 H   0  0  0  0  0  0  0  0  0  0  0  0
   -8.3230   20.7293  -32.6771 H   0  0  0  0  0  0  0  0  0  0  0  0
   -7.3060   19.2860  -31.3930 C   0  0  0  0  0  0  0  0  0  0  0  0
   -6.6774   19.6075  -30.5495 H   0  0  0  0  0  0  0  0  0  0  0  0
   -8.3142   19.1088  -30.9904 H   0  0  0  0  0  0  0  0  0  0  0  0
   -6.7280   18.0370  -32.0420 C   0  0  0  0  0  0  0  0  0  0  0  0
   -5.6690   17.9218  -31.7676 H   0  0  0  0  0  0  0  0  0  0  0  0
   -7.2584   17.1335  -31.7068 H   0  0  0  0  0  0  0  0  0  0  0  0
   -3.7700   18.8590  -33.0290 C   0  0  0  0  0  0  0  0  0  0  0  0
   -4.5237   19.6599  -33.0501 H   0  0  0  0  0  0  0  0  0  0  0  0
   -2.5250   19.0950  -32.4330 C   0  0  0  0  0  0  0  0  0  0  0  0
   -2.2810   20.3940  -31.8680 N   0  0  0  0  0  0  0  0  0  0  0  0
   -2.8420   20.8600  -30.7930 C   0  0  0  0  0  0  0  0  0  0  0  0
   -3.5776   20.2444  -30.2546 H   0  0  0  0  0  0  0  0  0  0  0  0
   -2.5060   22.2040  -30.2840 C   0  0  0  0  0  0  0  0  0  0  0  0
   -1.3750   22.4210  -29.4750 C   0  0  0  0  0  0  0  0  0  0  0  0
   -0.7200   21.5772  -29.2122 H   0  0  0  0  0  0  0  0  0  0  0  0
   -1.0800   23.7030  -29.0040 C   0  0  0  0  0  0  0  0  0  0  0  0
   -0.1939   23.8648  -28.3726 H   0  0  0  0  0  0  0  0  0  0  0  0
   -1.9080   24.7810  -29.3330 C   0  0  0  0  0  0  0  0  0  0  0  0
   -1.6080   26.0530  -28.8610 O   0  0  0  0  0  0  0  0  0  0  0  0
   -3.0350   24.5750  -30.1360 C   0  0  0  0  0  0  0  0  0  0  0  0
   -3.8630   25.6420  -30.4670 O   0  0  0  0  0  0  0  0  0  0  0  0
   -3.3330   23.2910  -30.6090 C   0  0  0  0  0  0  0  0  0  0  0  0
   -4.2207   23.1331  -31.2392 H   0  0  0  0  0  0  0  0  0  0  0  0
  1  2  1  0
  2  3  1  0
  3  4  2  0
  4  5  1  0
  4  6  1  0
  6  7  1  0
  6  8  2  0
  8  9  1  0
  9 10  2  0
  9 11  2  0
  9 12  1  0
 12 13  1  0
 13 14  1  0
 13 15  1  0
 13 16  1  0
 16 17  1  0
 16 18  1  0
 16 19  1  0
 19 20  1  0
 19 21  1  0
 19 22  1  0
 22 23  1  0
 22 24  1  0
  8 25  1  0
 25 26  1  0
 25 27  2  0
 27 28  1  0
 28 29  2  0
 29 30  1  0
 29 31  1  0
 31 32  2  0
 32 33  1  0
 32 34  1  0
 34 35  1  0
 34 36  2  0
 36 37  1  0
 36 38  1  0
 38 39  1  0
 38 40  2  0
 40 41  1  0
 27  3  1  0
 40 31  1  0
 22 12  1  0
M  CHG  2  37  -1  39  -1
M  END
>  <UniqueID>  (7) 
7

>  <SMILES>  (7) 
O=S(=O)(c1ccc(O)c(/N=C/c2ccc([O-])c([O-])c2)c1)N1CCCC1

>  <Energy>  (7) 
48.05303660498073

>  <Genealogy>  (7) 
O=S(=O)(c1ccc(O)c(N=Cc2ccc([O-])c([O-])c2)c1)N1CCCC1 (protonated)
O=S(=O)(c1ccc(O)c(/N=C/c2ccc([O-])c([O-])c2)c1)N1CCCC1 (cis-trans isomerization)
O=S(=O)(c1ccc(O)c(/N=C/c2ccc([O-])c([O-])c2)c1)N1CCCC1 (3D coordinates assigned)
O=S(=O)(c1ccc(O)c(/N=C/c2ccc([O-])c([O-])c2)c1)N1CCCC1 (nonaromatic ring conformer: 48.05303660498073 kcal/mol)

>  <smiles>  (7) 
O=S(=O)(c1ccc(O)c(N=Cc2ccc(O)c(O)c2)c1)N1CCCC1

>  <score_type>  (7) 
oracle

>  <origin>  (7) 
adgpu

>  <m_score__min__energy>  (7) 
-12.68

>  <m_primary>  (7) 
energy

$$$$
7:0
     RDKit          3D

 39 41  0  0  0  0  0  0  0  0999 V2000
   -5.7340   25.4570  -30.7540 O   0  0  0  0  0  0  0  0  0  0  0  0
   -4.7790   24.6390  -30.8160 C   0  0  0  0  0  0  0  0  0  0  0  0
   -3.4930   25.0530  -30.3300 N   0  0  0  0  0  0  0  0  0  0  0  0
   -2.8420   24.5790  -29.1410 C   0  0  0  0  0  0  0  0  0  0  0  0
   -3.3330   23.4710  -28.4270 C   0  0  0  0  0  0  0  0  0  0  0  0
   -2.6840   23.0360  -27.2690 C   0  0  0  0  0  0  0  0  0  0  0  0
   -1.5530   23.7100  -26.8040 C   0  0  0  0  0  0  0  0  0  0  0  0
   -1.0730   24.8280  -27.4930 C   0  0  0  0  0  0  0  0  0  0  0  0
   -1.7180   25.2660  -28.6560 C   0  0  0  0  0  0  0  0  0  0  0  0
   -1.2330   26.3800  -29.3310 O   0  0  0  0  0  0  0  0  0  0  0  0
   -4.9990   23.3090  -31.4340 C   0  0  0  0  0  0  0  0  0  0  0  0
   -6.1970   23.0380  -32.1170 C   0  0  0  0  0  0  0  0  0  0  0  0
   -6.4060   21.7920  -32.7150 C   0  0  0  0  0  0  0  0  0  0  0  0
   -5.4210   20.7990  -32.6390 C   0  0  0  0  0  0  0  0  0  0  0  0
   -5.6770   19.2140  -33.3620 S   0  0  0  0  0  0  0  0  0  0  0  0
   -6.4690   19.3410  -34.6360 O   0  0  0  0  0  0  0  0  0  0  0  0
   -4.3400   18.6140  -33.6950 O   0  0  0  0  0  0  0  0  0  0  0  0
   -6.4970   18.1810  -32.2270 N   0  0  0  0  0  0  0  0  0  0  0  0
   -7.9440   18.1720  -32.4490 C   0  0  0  0  0  0  0  0  0  0  0  0
   -8.5680   19.4660  -32.0290 C   0  0  0  0  0  0  0  0  0  0  0  0
   -9.5290   20.1690  -32.7290 C   0  0  0  0  0  0  0  0  0  0  0  0
   -9.7900   21.2900  -31.9720 C   0  0  0  0  0  0  0  0  0  0  0  0
   -8.9810   21.1990  -30.8580 C   0  0  0  0  0  0  0  0  0  0  0  0
   -8.2630   20.1010  -30.9210 O   0  0  0  0  0  0  0  0  0  0  0  0
   -4.2220   21.0660  -31.9690 C   0  0  0  0  0  0  0  0  0  0  0  0
   -4.0060   22.3140  -31.3800 C   0  0  0  0  0  0  0  0  0  0  0  0
   -4.2315   22.9450  -28.7819 H   0  0  0  0  0  0  0  0  0  0  0  0
   -3.0647   22.1607  -26.7223 H   0  0  0  0  0  0  0  0  0  0  0  0
   -1.0397   23.3615  -25.8957 H   0  0  0  0  0  0  0  0  0  0  0  0
   -0.1875   25.3641  -27.1209 H   0  0  0  0  0  0  0  0  0  0  0  0
   -6.9759   23.8121  -32.1815 H   0  0  0  0  0  0  0  0  0  0  0  0
   -7.3474   21.5905  -33.2472 H   0  0  0  0  0  0  0  0  0  0  0  0
   -8.1411   18.0101  -33.5190 H   0  0  0  0  0  0  0  0  0  0  0  0
   -8.3823   17.3637  -31.8452 H   0  0  0  0  0  0  0  0  0  0  0  0
   -9.9891   19.8920  -33.6890 H   0  0  0  0  0  0  0  0  0  0  0  0
  -10.5006   22.0958  -32.2082 H   0  0  0  0  0  0  0  0  0  0  0  0
   -8.9431   21.9345  -30.0410 H   0  0  0  0  0  0  0  0  0  0  0  0
   -3.4457   20.2893  -31.9058 H   0  0  0  0  0  0  0  0  0  0  0  0
   -3.0531   22.5201  -30.8706 H   0  0  0  0  0  0  0  0  0  0  0  0
  1  2  2  0
  2  3  1  0
  3  4  1  0
  4  5  2  0
  5  6  1  0
  6  7  2  0
  7  8  1  0
  8  9  2  0
  9 10  1  0
  2 11  1  0
 11 12  2  0
 12 13  1  0
 13 14  2  0
 14 15  1  0
 15 16  2  0
 15 17  2  0
 15 18  1  0
 18 19  1  0
 19 20  1  0
 20 21  2  0
 21 22  1  0
 22 23  2  0
 23 24  1  0
 14 25  1  0
 25 26  2  0
  9  4  1  0
 26 11  1  0
 24 20  1  0
  5 27  1  0
  6 28  1  0
  7 29  1  0
  8 30  1  0
 12 31  1  0
 13 32  1  0
 19 33  1  0
 19 34  1  0
 21 35  1  0
 22 36  1  0
 23 37  1  0
 25 38  1  0
 26 39  1  0
M  CHG  3   3  -1  10  -1  18  -1
M  END
>  <UniqueID>  (8) 
8

>  <SMILES>  (8) 
O=C([N-]c1ccccc1[O-])c1ccc(S(=O)(=O)[N-]Cc2ccco2)cc1

>  <Energy>  (8) 
70.11921140481611

>  <Genealogy>  (8) 
O=C([N-]c1ccccc1[O-])c1ccc(S(=O)(=O)[N-]Cc2ccco2)cc1 (protonated)
O=C([N-]c1ccccc1[O-])c1ccc(S(=O)(=O)[N-]Cc2ccco2)cc1 (3D coordinates assigned)
O=C([N-]c1ccccc1[O-])c1ccc(S(=O)(=O)[N-]Cc2ccco2)cc1 (optimized conformer: 70.11921140481611 kcal/mol)

>  <smiles>  (8) 
O=C(Nc1ccccc1O)c1ccc(S(=O)(=O)NCc2ccco2)cc1

>  <score_type>  (8) 
oracle

>  <origin>  (8) 
adgpu

>  <m_score__min__energy>  (8) 
-13.970000000000001

>  <m_primary>  (8) 
energy

$$$$
8:0
     RDKit          3D

 56 59  0  0  0  0  0  0  0  0999 V2000
   -4.6230   14.4180  -31.9510 C   0  0  0  0  0  0  0  0  0  0  0  0
   -4.5660   15.6530  -32.7890 C   0  0  0  0  0  0  0  0  0  0  0  0
   -3.5410   16.5270  -32.7460 N   0  0  0  0  0  0  0  0  0  0  0  0
   -3.8430   17.5460  -33.5350 N   0  0  0  0  0  0  0  0  0  0  0  0
   -2.9350   18.6700  -33.7620 C   0  0  0  0  0  0  0  0  0  0  0  0
   -3.4740   19.9220  -33.1230 C   0  0  0  0  0  0  0  0  0  0  0  0
   -4.6230   19.8770  -32.3190 C   0  0  0  0  0  0  0  0  0  0  0  0
   -5.0900   21.0350  -31.6900 C   0  0  0  0  0  0  0  0  0  0  0  0
   -4.4190   22.2520  -31.8670 C   0  0  0  0  0  0  0  0  0  0  0  0
   -4.9720   23.6780  -30.9920 S   0  0  0  0  0  0  0  0  0  0  0  0
   -5.7210   24.6140  -31.9010 O   0  0  0  0  0  0  0  0  0  0  0  0
   -5.8890   23.2460  -29.8840 O   0  0  0  0  0  0  0  0  0  0  0  0
   -3.6030   24.5010  -30.3140 N   0  0  0  0  0  0  0  0  0  0  0  0
   -2.5540   23.8680  -29.5670 C   0  0  0  0  0  0  0  0  0  0  0  0
   -2.4880   22.4720  -29.4190 C   0  0  0  0  0  0  0  0  0  0  0  0
   -1.4660   21.8780  -28.6660 C   0  0  0  0  0  0  0  0  0  0  0  0
   -0.4690   22.6880  -28.0830 C   0  0  0  0  0  0  0  0  0  0  0  0
   -0.5380   24.0800  -28.2290 C   0  0  0  0  0  0  0  0  0  0  0  0
   -1.5660   24.6650  -28.9730 C   0  0  0  0  0  0  0  0  0  0  0  0
   -1.6100   26.0470  -29.1080 O   0  0  0  0  0  0  0  0  0  0  0  0
    0.6110   22.0760  -27.2220 C   0  0  0  0  0  0  0  0  0  0  0  0
    0.8330   20.6570  -27.5360 N   0  0  0  0  0  0  0  0  0  0  0  0
   -0.4300   19.9110  -27.4770 C   0  0  0  0  0  0  0  0  0  0  0  0
   -1.3950   20.3760  -28.5740 C   0  0  0  0  0  0  0  0  0  0  0  0
   -3.2820   22.3050  -32.6860 C   0  0  0  0  0  0  0  0  0  0  0  0
   -2.8080   21.1450  -33.3020 C   0  0  0  0  0  0  0  0  0  0  0  0
   -5.0670   17.3540  -34.0800 C   0  0  0  0  0  0  0  0  0  0  0  0
   -5.7360   18.2630  -35.0710 C   0  0  0  0  0  0  0  0  0  0  0  0
   -5.5560   16.1380  -33.6320 C   0  0  0  0  0  0  0  0  0  0  0  0
   -6.9000   15.5310  -33.9170 C   0  0  0  0  0  0  0  0  0  0  0  0
   -6.7380   14.1560  -34.4780 C   0  0  0  0  0  0  0  0  0  0  0  0
   -5.6270   13.7840  -34.9370 O   0  0  0  0  0  0  0  0  0  0  0  0
   -7.8220   13.2870  -34.5130 O   0  0  0  0  0  0  0  0  0  0  0  0
   -4.6102   14.6961  -30.8868 H   0  0  0  0  0  0  0  0  0  0  0  0
   -5.5476   13.8656  -32.1745 H   0  0  0  0  0  0  0  0  0  0  0  0
   -3.7532   13.7828  -32.1745 H   0  0  0  0  0  0  0  0  0  0  0  0
   -1.9527   18.4353  -33.3260 H   0  0  0  0  0  0  0  0  0  0  0  0
   -2.8397   18.8366  -34.8451 H   0  0  0  0  0  0  0  0  0  0  0  0
   -5.1589   18.9261  -32.1829 H   0  0  0  0  0  0  0  0  0  0  0  0
   -5.9867   20.9904  -31.0544 H   0  0  0  0  0  0  0  0  0  0  0  0
   -3.2475   21.8380  -29.8999 H   0  0  0  0  0  0  0  0  0  0  0  0
    0.2229   24.7170  -27.7543 H   0  0  0  0  0  0  0  0  0  0  0  0
    1.5493   22.6262  -27.3860 H   0  0  0  0  0  0  0  0  0  0  0  0
    0.2859   22.1433  -26.1733 H   0  0  0  0  0  0  0  0  0  0  0  0
    1.2340   20.5810  -28.5020 H   0  0  0  0  0  0  0  0  0  0  0  0
   -0.2214   18.8394  -27.6120 H   0  0  0  0  0  0  0  0  0  0  0  0
   -0.8985   20.0923  -26.4984 H   0  0  0  0  0  0  0  0  0  0  0  0
   -1.0525   19.9771  -29.5402 H   0  0  0  0  0  0  0  0  0  0  0  0
   -2.3991   20.0039  -28.3223 H   0  0  0  0  0  0  0  0  0  0  0  0
   -2.7627   23.2618  -32.8434 H   0  0  0  0  0  0  0  0  0  0  0  0
   -1.9071   21.1896  -33.9315 H   0  0  0  0  0  0  0  0  0  0  0  0
   -6.3049   19.0360  -34.5336 H   0  0  0  0  0  0  0  0  0  0  0  0
   -4.9732   18.7417  -35.7026 H   0  0  0  0  0  0  0  0  0  0  0  0
   -6.4199   17.6770  -35.7026 H   0  0  0  0  0  0  0  0  0  0  0  0
   -7.4791   15.4764  -32.9834 H   0  0  0  0  0  0  0  0  0  0  0  0
   -7.4279   16.1576  -34.6510 H   0  0  0  0  0  0  0  0  0  0  0  0
  1  2  1  0
  2  3  2  0
  3  4  1  0
  4  5  1  0
  5  6  1  0
  6  7  2  0
  7  8  1  0
  8  9  2  0
  9 10  1  0
 10 11  2  0
 10 12  2  0
 10 13  1  0
 13 14  1  0
 14 15  2  0
 15 16  1  0
 16 17  2  0
 17 18  1  0
 18 19  2  0
 19 20  1  0
 17 21  1  0
 21 22  1  0
 22 23  1  0
 23 24  1  0
  9 25  1  0
 25 26  2  0
  4 27  1  0
 27 28  1  0
 27 29  2  0
 29 30  1  0
 30 31  1  0
 31 32  2  0
 31 33  1  0
 29  2  1  0
 26  6  1  0
 19 14  1  0
 24 16  1  0
  1 34  1  0
  1 35  1  0
  1 36  1  0
  5 37  1  0
  5 38  1  0
  7 39  1  0
  8 40  1  0
 15 41  1  0
 18 42  1  0
 21 43  1  0
 21 44  1  0
 22 45  1  0
 23 46  1  0
 23 47  1  0
 24 48  1  0
 24 49  1  0
 25 50  1  0
 26 51  1  0
 28 52  1  0
 28 53  1  0
 28 54  1  0
 30 55  1  0
 30 56  1  0
M  CHG  3  13  -1  20  -1  33  -1
M  END
>  <UniqueID>  (9) 
9

>  <SMILES>  (9) 
Cc1nn(Cc2ccc(S(=O)(=O)[N-]c3cc4c(cc3[O-])CNCC4)cc2)c(C)c1CC(=O)[O-]

>  <Energy>  (9) 
89.67786037801294

>  <Genealogy>  (9) 
Cc1nn(Cc2ccc(S(=O)(=O)[N-]c3cc4c(cc3[O-])CNCC4)cc2)c(C)c1CC(=O)[O-] (protonated)
Cc1nn(Cc2ccc(S(=O)(=O)[N-]c3cc4c(cc3[O-])CNCC4)cc2)c(C)c1CC(=O)[O-] (3D coordinates assigned)
Cc1nn(Cc2ccc(S(=O)(=O)[N-]c3cc4c(cc3[O-])CNCC4)cc2)c(C)c1CC(=O)[O-] (nonaromatic ring conformer: 89.67786037801294 kcal/mol)

>  <smiles>  (9) 
Cc1nn(Cc2ccc(S(=O)(=O)Nc3cc4c(cc3O)CNCC4)cc2)c(C)c1CC(=O)O

>  <score_type>  (9) 
oracle

>  <origin>  (9) 
adgpu

>  <m_score__min__energy>  (9) 
-15.050000000000001

>  <m_primary>  (9) 
energy

$$$$
9:0
     RDKit          3D

 52 55  0  0  0  0  0  0  0  0999 V2000
   -4.8230   26.0080  -30.8370 O   0  0  0  0  0  0  0  0  0  0  0  0
   -5.5600   25.1090  -29.8820 S   0  0  0  0  0  0  0  0  0  0  0  0
   -6.8190   25.7960  -29.4330 O   0  0  0  0  0  0  0  0  0  0  0  0
   -4.5500   24.8050  -28.5030 N   0  0  0  0  0  0  0  0  0  0  0  0
   -3.4340   23.8920  -28.4980 C   0  0  0  0  0  0  0  0  0  0  0  0
   -3.5800   22.5540  -28.0870 C   0  0  0  0  0  0  0  0  0  0  0  0
   -2.4730   21.6960  -28.0270 C   0  0  0  0  0  0  0  0  0  0  0  0
   -1.1990   22.1770  -28.3820 C   0  0  0  0  0  0  0  0  0  0  0  0
   -1.0620   23.4930  -28.8390 C   0  0  0  0  0  0  0  0  0  0  0  0
   -2.1620   24.3470  -28.8930 C   0  0  0  0  0  0  0  0  0  0  0  0
   -1.9810   25.6520  -29.3360 O   0  0  0  0  0  0  0  0  0  0  0  0
   -0.0010   21.2560  -28.3720 C   0  0  0  0  0  0  0  0  0  0  0  0
   -0.1820   20.1180  -27.4610 N   0  0  0  0  0  0  0  0  0  0  0  0
   -1.4360   19.4150  -27.7540 C   0  0  0  0  0  0  0  0  0  0  0  0
   -2.6500   20.3060  -27.4700 C   0  0  0  0  0  0  0  0  0  0  0  0
   -5.9950   23.5940  -30.6680 C   0  0  0  0  0  0  0  0  0  0  0  0
   -7.2820   23.0610  -30.5120 C   0  0  0  0  0  0  0  0  0  0  0  0
   -7.6490   21.8970  -31.1940 C   0  0  0  0  0  0  0  0  0  0  0  0
   -6.7300   21.2550  -32.0350 C   0  0  0  0  0  0  0  0  0  0  0  0
   -7.1810   19.7920  -32.9080 S   0  0  0  0  0  0  0  0  0  0  0  0
   -8.6530   19.5310  -32.7430 O   0  0  0  0  0  0  0  0  0  0  0  0
   -6.8890   20.0040  -34.3670 O   0  0  0  0  0  0  0  0  0  0  0  0
   -6.2520   18.4370  -32.3020 N   0  0  0  0  0  0  0  0  0  0  0  0
   -6.8760   17.1370  -32.6440 C   0  0  0  0  0  0  0  0  0  0  0  0
   -6.1990   16.4460  -33.8360 C   0  0  0  0  0  0  0  0  0  0  0  0
   -5.7380   17.4070  -34.7600 O   0  0  0  0  0  0  0  0  0  0  0  0
   -4.6440   18.1240  -34.2080 C   0  0  0  0  0  0  0  0  0  0  0  0
   -4.8430   18.5210  -32.7250 C   0  0  0  0  0  0  0  0  0  0  0  0
   -5.4370   21.7760  -32.1750 C   0  0  0  0  0  0  0  0  0  0  0  0
   -5.0710   22.9420  -31.4940 C   0  0  0  0  0  0  0  0  0  0  0  0
   -4.8310   25.2800  -27.6150 H   0  0  0  0  0  0  0  0  0  0  0  0
   -4.5753   22.1767  -27.8093 H   0  0  0  0  0  0  0  0  0  0  0  0
   -0.0747   23.8573  -29.1592 H   0  0  0  0  0  0  0  0  0  0  0  0
    0.1590   20.8722  -29.3904 H   0  0  0  0  0  0  0  0  0  0  0  0
    0.8661   21.8345  -28.0206 H   0  0  0  0  0  0  0  0  0  0  0  0
   -0.1930   20.4710  -26.4740 H   0  0  0  0  0  0  0  0  0  0  0  0
   -1.4448   19.1239  -28.8148 H   0  0  0  0  0  0  0  0  0  0  0  0
   -1.4968   18.5270  -27.1077 H   0  0  0  0  0  0  0  0  0  0  0  0
   -3.5400   19.8503  -27.9285 H   0  0  0  0  0  0  0  0  0  0  0  0
   -2.7628   20.3889  -26.3790 H   0  0  0  0  0  0  0  0  0  0  0  0
   -8.0056   23.5602  -29.8508 H   0  0  0  0  0  0  0  0  0  0  0  0
   -8.6611   21.4843  -31.0702 H   0  0  0  0  0  0  0  0  0  0  0  0
   -6.8084   16.4739  -31.7689 H   0  0  0  0  0  0  0  0  0  0  0  0
   -7.9204   17.3357  -32.9265 H   0  0  0  0  0  0  0  0  0  0  0  0
   -5.3469   15.8513  -33.4750 H   0  0  0  0  0  0  0  0  0  0  0  0
   -6.9301   15.7920  -34.3337 H   0  0  0  0  0  0  0  0  0  0  0  0
   -3.7445   17.4950  -34.2812 H   0  0  0  0  0  0  0  0  0  0  0  0
   -4.5512   19.0586  -34.7806 H   0  0  0  0  0  0  0  0  0  0  0  0
   -4.2450   17.8454  -32.0958 H   0  0  0  0  0  0  0  0  0  0  0  0
   -4.5226   19.5674  -32.6135 H   0  0  0  0  0  0  0  0  0  0  0  0
   -4.7076   21.2669  -32.8221 H   0  0  0  0  0  0  0  0  0  0  0  0
   -4.0549   23.3477  -31.6077 H   0  0  0  0  0  0  0  0  0  0  0  0
  1  2  2  0
  2  3  2  0
  2  4  1  0
  4  5  1  0
  5  6  2  0
  6  7  1  0
  7  8  2  0
  8  9  1  0
  9 10  2  0
 10 11  1  0
  8 12  1  0
 12 13  1  0
 13 14  1  0
 14 15  1  0
  2 16  1  0
 16 17  2  0
 17 18  1  0
 18 19  2  0
 19 20  1  0
 20 21  2  0
 20 22  2  0
 20 23  1  0
 23 24  1  0
 24 25  1  0
 25 26  1  0
 26 27  1  0
 27 28  1  0
 19 29  1  0
 29 30  2  0
 10  5  1  0
 30 16  1  0
 15  7  1  0
 28 23  1  0
  4 31  1  0
  6 32  1  0
  9 33  1  0
 12 34  1  0
 12 35  1  0
 13 36  1  0
 14 37  1  0
 14 38  1  0
 15 39  1  0
 15 40  1  0
 17 41  1  0
 18 42  1  0
 24 43  1  0
 24 44  1  0
 25 45  1  0
 25 46  1  0
 27 47  1  0
 27 48  1  0
 28 49  1  0
 28 50  1  0
 29 51  1  0
 30 52  1  0
M  CHG  1  11  -1
M  END
>  <UniqueID>  (10) 
10

>  <SMILES>  (10) 
O=S(=O)(Nc1cc2c(cc1[O-])CNCC2)c1ccc(S(=O)(=O)N2CCOCC2)cc1

>  <Energy>  (10) 
70.70829557332502

>  <Genealogy>  (10) 
O=S(=O)(Nc1cc2c(cc1[O-])CNCC2)c1ccc(S(=O)(=O)N2CCOCC2)cc1 (protonated)
O=S(=O)(Nc1cc2c(cc1[O-])CNCC2)c1ccc(S(=O)(=O)N2CCOCC2)cc1 (3D coordinates assigned)
O=S(=O)(Nc1cc2c(cc1[O-])CNCC2)c1ccc(S(=O)(=O)N2CCOCC2)cc1 (nonaromatic ring conformer: 70.70829557332502 kcal/mol)

>  <smiles>  (10) 
O=S(=O)(Nc1cc2c(cc1O)CNCC2)c1ccc(S(=O)(=O)N2CCOCC2)cc1

>  <score_type>  (10) 
oracle

>  <origin>  (10) 
adgpu

>  <m_score__min__energy>  (10) 
-14.24

>  <m_primary>  (10) 
energy

$$$$
10:0
     RDKit          3D

 39 41  0  0  0  0  0  0  0  0999 V2000
   -5.0170   21.1350  -33.4480 O   0  0  0  0  0  0  0  0  0  0  0  0
   -5.5480   21.0690  -32.3080 C   0  0  0  0  0  0  0  0  0  0  0  0
   -4.6940   20.9350  -31.1630 N   0  0  0  0  0  0  0  0  0  0  0  0
   -3.9490   21.9880  -30.5340 C   0  0  0  0  0  0  0  0  0  0  0  0
   -4.2610   23.3130  -30.8570 C   0  0  0  0  0  0  0  0  0  0  0  0
   -3.5570   24.3720  -30.2750 C   0  0  0  0  0  0  0  0  0  0  0  0
   -3.8670   25.6790  -30.6350 O   0  0  0  0  0  0  0  0  0  0  0  0
   -2.5500   24.1200  -29.3340 C   0  0  0  0  0  0  0  0  0  0  0  0
   -1.8280   25.2280  -28.7770 N   0  0  0  0  0  0  0  0  0  0  0  0
   -0.5650   25.1760  -28.0970 C   0  0  0  0  0  0  0  0  0  0  0  0
    0.3970   24.5470  -28.6180 O   0  0  0  0  0  0  0  0  0  0  0  0
   -0.3980   25.8010  -26.7580 C   0  0  0  0  0  0  0  0  0  0  0  0
   -1.4560   25.7380  -25.8290 C   0  0  0  0  0  0  0  0  0  0  0  0
   -1.3330   26.3160  -24.5620 C   0  0  0  0  0  0  0  0  0  0  0  0
   -0.1500   26.9670  -24.1980 C   0  0  0  0  0  0  0  0  0  0  0  0
   -0.0170   27.5470  -22.9390 O   0  0  0  0  0  0  0  0  0  0  0  0
    0.9080   27.0350  -25.1050 C   0  0  0  0  0  0  0  0  0  0  0  0
    0.7960   26.4590  -26.3760 C   0  0  0  0  0  0  0  0  0  0  0  0
    1.8830   26.5450  -27.2380 O   0  0  0  0  0  0  0  0  0  0  0  0
   -2.2400   22.7890  -29.0000 C   0  0  0  0  0  0  0  0  0  0  0  0
   -2.9460   21.7290  -29.5770 C   0  0  0  0  0  0  0  0  0  0  0  0
   -2.6570   20.4290  -29.1780 O   0  0  0  0  0  0  0  0  0  0  0  0
   -7.0260   21.0820  -32.1910 C   0  0  0  0  0  0  0  0  0  0  0  0
   -7.6910   22.2600  -31.8040 C   0  0  0  0  0  0  0  0  0  0  0  0
   -9.0840   22.2810  -31.6910 C   0  0  0  0  0  0  0  0  0  0  0  0
   -9.8280   21.1330  -31.9720 C   0  0  0  0  0  0  0  0  0  0  0  0
   -9.1800   19.9620  -32.3710 C   0  0  0  0  0  0  0  0  0  0  0  0
   -7.7870   19.9350  -32.4870 C   0  0  0  0  0  0  0  0  0  0  0  0
   -5.0672   23.5237  -31.5751 H   0  0  0  0  0  0  0  0  0  0  0  0
   -2.3906   25.2274  -26.1044 H   0  0  0  0  0  0  0  0  0  0  0  0
   -2.1690   26.2586  -23.8494 H   0  0  0  0  0  0  0  0  0  0  0  0
    0.6000   27.1530  -22.2370 H   0  0  0  0  0  0  0  0  0  0  0  0
    1.8390   27.5461  -24.8186 H   0  0  0  0  0  0  0  0  0  0  0  0
   -1.4357   22.5806  -28.2791 H   0  0  0  0  0  0  0  0  0  0  0  0
   -7.1112   23.1698  -31.5891 H   0  0  0  0  0  0  0  0  0  0  0  0
   -9.5955   23.2039  -31.3800 H   0  0  0  0  0  0  0  0  0  0  0  0
  -10.9239   21.1511  -31.8791 H   0  0  0  0  0  0  0  0  0  0  0  0
   -9.7669   19.0589  -32.5945 H   0  0  0  0  0  0  0  0  0  0  0  0
   -7.2828   19.0127  -32.8113 H   0  0  0  0  0  0  0  0  0  0  0  0
  1  2  2  0
  2  3  1  0
  3  4  1  0
  4  5  2  0
  5  6  1  0
  6  7  1  0
  6  8  2  0
  8  9  1  0
  9 10  1  0
 10 11  2  0
 10 12  1  0
 12 13  2  0
 13 14  1  0
 14 15  2  0
 15 16  1  0
 15 17  1  0
 17 18  2  0
 18 19  1  0
  8 20  1  0
 20 21  2  0
 21 22  1  0
  2 23  1  0
 23 24  2  0
 24 25  1  0
 25 26  2  0
 26 27  1  0
 27 28  2  0
 21  4  1  0
 28 23  1  0
 18 12  1  0
  5 29  1  0
 13 30  1  0
 14 31  1  0
 16 32  1  0
 17 33  1  0
 20 34  1  0
 24 35  1  0
 25 36  1  0
 26 37  1  0
 27 38  1  0
 28 39  1  0
M  CHG  5   3  -1   7  -1   9  -1  19  -1  22  -1
M  END
>  <UniqueID>  (11) 
11

>  <SMILES>  (11) 
O=C([N-]c1cc([O-])c([N-]C(=O)c2ccc(O)cc2[O-])cc1[O-])c1ccccc1

>  <Energy>  (11) 
57.57224632551976

>  <Genealogy>  (11) 
O=C([N-]c1cc([O-])c([N-]C(=O)c2ccc(O)cc2[O-])cc1[O-])c1ccccc1 (protonated)
O=C([N-]c1cc([O-])c([N-]C(=O)c2ccc(O)cc2[O-])cc1[O-])c1ccccc1 (3D coordinates assigned)
O=C([N-]c1cc([O-])c([N-]C(=O)c2ccc(O)cc2[O-])cc1[O-])c1ccccc1 (optimized conformer: 57.57224632551976 kcal/mol)

>  <smiles>  (11) 
O=C(Nc1cc(O)c(NC(=O)c2ccc(O)cc2O)cc1O)c1ccccc1

>  <score_type>  (11) 
oracle

>  <origin>  (11) 
adgpu

>  <m_score__min__energy>  (11) 
-14.68

>  <m_primary>  (11) 
energy

$$$$
11:0
     RDKit          3D

 43 45  0  0  0  0  0  0  0  0999 V2000
   -6.5520   25.6080  -29.7340 O   0  0  0  0  0  0  0  0  0  0  0  0
   -5.5350   24.5330  -30.0060 S   0  0  0  0  0  0  0  0  0  0  0  0
   -4.5570   25.0300  -31.0310 O   0  0  0  0  0  0  0  0  0  0  0  0
   -4.6870   24.1720  -28.5400 N   0  0  0  0  0  0  0  0  0  0  0  0
   -3.4900   23.3880  -28.4470 C   0  0  0  0  0  0  0  0  0  0  0  0
   -3.4920   22.1080  -27.8570 C   0  0  0  0  0  0  0  0  0  0  0  0
   -2.3230   21.3480  -27.8120 C   0  0  0  0  0  0  0  0  0  0  0  0
   -2.3500   19.6190  -27.0100 Br  0  0  0  0  0  0  0  0  0  0  0  0
   -1.1370   21.8580  -28.3440 C   0  0  0  0  0  0  0  0  0  0  0  0
   -1.1180   23.1320  -28.9120 C   0  0  0  0  0  0  0  0  0  0  0  0
   -2.2860   23.9020  -28.9680 C   0  0  0  0  0  0  0  0  0  0  0  0
   -2.2280   25.1680  -29.5500 O   0  0  0  0  0  0  0  0  0  0  0  0
   -6.3120   23.0800  -30.6280 C   0  0  0  0  0  0  0  0  0  0  0  0
   -5.5600   21.9270  -30.8820 C   0  0  0  0  0  0  0  0  0  0  0  0
   -6.1790   20.7820  -31.3910 C   0  0  0  0  0  0  0  0  0  0  0  0
   -7.5560   20.7790  -31.6500 C   0  0  0  0  0  0  0  0  0  0  0  0
   -8.3400   19.3350  -32.2900 S   0  0  0  0  0  0  0  0  0  0  0  0
   -9.5080   19.7440  -33.1410 O   0  0  0  0  0  0  0  0  0  0  0  0
   -8.8640   18.5110  -31.1480 O   0  0  0  0  0  0  0  0  0  0  0  0
   -7.2440   18.3680  -33.2450 N   0  0  0  0  0  0  0  0  0  0  0  0
   -6.4930   17.4410  -32.3840 C   0  0  0  0  0  0  0  0  0  0  0  0
   -5.3850   16.7310  -33.1870 C   0  0  0  0  0  0  0  0  0  0  0  0
   -5.5190   16.9750  -34.5740 O   0  0  0  0  0  0  0  0  0  0  0  0
   -5.3580   18.3590  -34.8370 C   0  0  0  0  0  0  0  0  0  0  0  0
   -6.3150   19.2290  -33.9910 C   0  0  0  0  0  0  0  0  0  0  0  0
   -8.3070   21.9340  -31.3930 C   0  0  0  0  0  0  0  0  0  0  0  0
   -7.6890   23.0750  -30.8800 C   0  0  0  0  0  0  0  0  0  0  0  0
   -4.4219   21.7054  -27.4290 H   0  0  0  0  0  0  0  0  0  0  0  0
   -0.2174   21.2550  -28.3152 H   0  0  0  0  0  0  0  0  0  0  0  0
   -0.1786   23.5345  -29.3188 H   0  0  0  0  0  0  0  0  0  0  0  0
   -3.0570   25.6780  -29.8180 H   0  0  0  0  0  0  0  0  0  0  0  0
   -4.4786   21.9221  -30.6804 H   0  0  0  0  0  0  0  0  0  0  0  0
   -5.5826   19.8792  -31.5891 H   0  0  0  0  0  0  0  0  0  0  0  0
   -6.0356   18.0052  -31.5579 H   0  0  0  0  0  0  0  0  0  0  0  0
   -7.1860   16.6832  -31.9897 H   0  0  0  0  0  0  0  0  0  0  0  0
   -4.4054   17.1016  -32.8509 H   0  0  0  0  0  0  0  0  0  0  0  0
   -5.4711   15.6480  -33.0150 H   0  0  0  0  0  0  0  0  0  0  0  0
   -4.3213   18.6453  -34.6059 H   0  0  0  0  0  0  0  0  0  0  0  0
   -5.5938   18.5309  -35.8976 H   0  0  0  0  0  0  0  0  0  0  0  0
   -5.7290   19.8334  -33.2829 H   0  0  0  0  0  0  0  0  0  0  0  0
   -6.8887   19.8901  -34.6572 H   0  0  0  0  0  0  0  0  0  0  0  0
   -9.3880   21.9411  -31.5965 H   0  0  0  0  0  0  0  0  0  0  0  0
   -8.2867   23.9749  -30.6726 H   0  0  0  0  0  0  0  0  0  0  0  0
  1  2  2  0
  2  3  2  0
  2  4  1  0
  4  5  1  0
  5  6  2  0
  6  7  1  0
  7  8  1  0
  7  9  2  0
  9 10  1  0
 10 11  2  0
 11 12  1  0
  2 13  1  0
 13 14  2  0
 14 15  1  0
 15 16  2  0
 16 17  1  0
 17 18  2  0
 17 19  2  0
 17 20  1  0
 20 21  1  0
 21 22  1  0
 22 23  1  0
 23 24  1  0
 24 25  1  0
 16 26  1  0
 26 27  2  0
 11  5  1  0
 27 13  1  0
 25 20  1  0
  6 28  1  0
  9 29  1  0
 10 30  1  0
 12 31  1  0
 14 32  1  0
 15 33  1  0
 21 34  1  0
 21 35  1  0
 22 36  1  0
 22 37  1  0
 24 38  1  0
 24 39  1  0
 25 40  1  0
 25 41  1  0
 26 42  1  0
 27 43  1  0
M  CHG  1   4  -1
M  END
>  <UniqueID>  (12) 
12

>  <SMILES>  (12) 
O=S(=O)([N-]c1cc(Br)ccc1O)c1ccc(S(=O)(=O)N2CCOCC2)cc1

>  <Energy>  (12) 
54.761578126406164

>  <Genealogy>  (12) 
O=S(=O)([N-]c1cc(Br)ccc1O)c1ccc(S(=O)(=O)N2CCOCC2)cc1 (protonated)
O=S(=O)([N-]c1cc(Br)ccc1O)c1ccc(S(=O)(=O)N2CCOCC2)cc1 (3D coordinates assigned)
O=S(=O)([N-]c1cc(Br)ccc1O)c1ccc(S(=O)(=O)N2CCOCC2)cc1 (nonaromatic ring conformer: 54.761578126406164 kcal/mol)

>  <smiles>  (12) 
O=S(=O)(Nc1cc(Br)ccc1O)c1ccc(S(=O)(=O)N2CCOCC2)cc1

>  <score_type>  (12) 
oracle

>  <origin>  (12) 
adgpu

>  <m_score__min__energy>  (12) 
-12.74

>  <m_primary>  (12) 
energy

$$$$
12:0
     RDKit          3D

 51 56  0  0  0  0  0  0  0  0999 V2000
   -8.2680   23.4700  -32.3930 O   0  0  0  0  0  0  0  0  0  0  0  0
   -7.4930   22.8180  -31.6410 C   0  0  0  0  0  0  0  0  0  0  0  0
   -7.8440   21.4880  -31.2330 N   0  0  0  0  0  0  0  0  0  0  0  0
   -7.3770   20.2680  -31.8260 C   0  0  0  0  0  0  0  0  0  0  0  0
   -8.2170   19.1270  -31.9510 C   0  0  0  0  0  0  0  0  0  0  0  0
   -7.7350   17.9450  -32.5410 C   0  0  0  0  0  0  0  0  0  0  0  0
   -6.4290   17.9420  -33.0190 C   0  0  0  0  0  0  0  0  0  0  0  0
   -5.7670   16.9180  -33.5800 N   0  0  0  0  0  0  0  0  0  0  0  0
   -4.5430   17.3510  -33.8710 N   0  0  0  0  0  0  0  0  0  0  0  0
   -4.4290   18.6500  -33.5030 C   0  0  0  0  0  0  0  0  0  0  0  0
   -3.1980   19.4460  -33.6910 C   0  0  0  0  0  0  0  0  0  0  0  0
   -3.1750   20.7930  -33.2950 C   0  0  0  0  0  0  0  0  0  0  0  0
   -2.0130   21.5560  -33.4510 C   0  0  0  0  0  0  0  0  0  0  0  0
   -0.8590   20.9800  -33.9900 C   0  0  0  0  0  0  0  0  0  0  0  0
    0.2900   21.7520  -34.1400 O   0  0  0  0  0  0  0  0  0  0  0  0
   -0.8690   19.6310  -34.3680 C   0  0  0  0  0  0  0  0  0  0  0  0
   -2.0290   18.8660  -34.2140 C   0  0  0  0  0  0  0  0  0  0  0  0
   -5.6300   19.0480  -32.9440 C   0  0  0  0  0  0  0  0  0  0  0  0
   -6.0640   20.2290  -32.3390 C   0  0  0  0  0  0  0  0  0  0  0  0
   -6.2470   23.4450  -31.1370 C   0  0  0  0  0  0  0  0  0  0  0  0
   -6.1660   24.8360  -30.9760 C   0  0  0  0  0  0  0  0  0  0  0  0
   -4.9970   25.4240  -30.5000 C   0  0  0  0  0  0  0  0  0  0  0  0
   -3.8850   24.6420  -30.1750 C   0  0  0  0  0  0  0  0  0  0  0  0
   -2.7530   25.2940  -29.7010 O   0  0  0  0  0  0  0  0  0  0  0  0
   -3.9300   23.2320  -30.3300 C   0  0  0  0  0  0  0  0  0  0  0  0
   -2.7930   22.3780  -30.0170 N   0  0  0  0  0  0  0  0  0  0  0  0
   -2.9320   21.0060  -29.5370 C   0  0  0  0  0  0  0  0  0  0  0  0
   -1.5260   20.4520  -29.3610 C   0  0  1  0  0  0  0  0  0  0  0  0
   -0.6910   20.3220  -30.6270 C   0  0  0  0  0  0  0  0  0  0  0  0
   -0.5610   21.5560  -29.7440 C   0  0  1  0  0  0  0  0  0  0  0  0
   -1.3930   22.7630  -30.1530 C   0  0  0  0  0  0  0  0  0  0  0  0
   -5.1300   22.6560  -30.8100 C   0  0  0  0  0  0  0  0  0  0  0  0
   -9.2527   19.1696  -31.5829 H   0  0  0  0  0  0  0  0  0  0  0  0
   -8.3709   17.0510  -32.6219 H   0  0  0  0  0  0  0  0  0  0  0  0
   -4.0756   21.2507  -32.8598 H   0  0  0  0  0  0  0  0  0  0  0  0
   -2.0073   22.6135  -33.1483 H   0  0  0  0  0  0  0  0  0  0  0  0
    0.2670   22.6530  -34.6070 H   0  0  0  0  0  0  0  0  0  0  0  0
    0.0387   19.1723  -34.7873 H   0  0  0  0  0  0  0  0  0  0  0  0
   -2.0270   17.8048  -34.5035 H   0  0  0  0  0  0  0  0  0  0  0  0
   -5.4011   21.1036  -32.2646 H   0  0  0  0  0  0  0  0  0  0  0  0
   -7.0316   25.4665  -31.2274 H   0  0  0  0  0  0  0  0  0  0  0  0
   -4.9481   26.5162  -30.3784 H   0  0  0  0  0  0  0  0  0  0  0  0
   -3.4658   20.9945  -28.5753 H   0  0  0  0  0  0  0  0  0  0  0  0
   -3.5076   20.3971  -30.2497 H   0  0  0  0  0  0  0  0  0  0  0  0
   -1.7069   19.7545  -28.5299 H   0  0  0  0  0  0  0  0  0  0  0  0
    0.1282   19.5893  -30.6738 H   0  0  0  0  0  0  0  0  0  0  0  0
   -0.9096   20.1437  -31.6902 H   0  0  0  0  0  0  0  0  0  0  0  0
    0.3180   22.0726  -29.3312 H   0  0  0  0  0  0  0  0  0  0  0  0
   -1.1698   23.6165  -29.4959 H   0  0  0  0  0  0  0  0  0  0  0  0
   -1.1664   23.0657  -31.1860 H   0  0  0  0  0  0  0  0  0  0  0  0
   -5.1905   21.5643  -30.9303 H   0  0  0  0  0  0  0  0  0  0  0  0
  1  2  2  0
  2  3  1  0
  3  4  1  0
  4  5  2  0
  5  6  1  0
  6  7  2  0
  7  8  1  0
  8  9  1  0
  9 10  2  0
 10 11  1  0
 11 12  2  0
 12 13  1  0
 13 14  2  0
 14 15  1  0
 14 16  1  0
 16 17  2  0
 10 18  1  0
 18 19  2  0
  2 20  1  0
 20 21  2  0
 21 22  1  0
 22 23  2  0
 23 24  1  0
 23 25  1  0
 25 26  1  0
 26 27  1  0
 27 28  1  0
 28 29  1  0
 29 30  1  0
 30 31  1  0
 25 32  2  0
 19  4  1  0
 32 20  1  0
 18  7  1  0
 31 26  1  0
 17 11  1  0
 30 28  1  0
  5 33  1  0
  6 34  1  0
 12 35  1  0
 13 36  1  0
 15 37  1  0
 16 38  1  0
 17 39  1  0
 19 40  1  0
 21 41  1  0
 22 42  1  0
 27 43  1  0
 27 44  1  0
 28 45  1  1
 29 46  1  0
 29 47  1  0
 30 48  1  1
 31 49  1  0
 31 50  1  0
 32 51  1  0
M  CHG  3   3  -1   8  -1  24  -1
M  END
>  <UniqueID>  (13) 
13

>  <SMILES>  (13) 
O=C([N-]c1ccc2[n-]nc(-c3ccc(O)cc3)c2c1)c1ccc([O-])c(N2C[C@H]3C[C@H]3C2)c1

>  <Energy>  (13) 
374.5752254730427

>  <Genealogy>  (13) 
O=C([N-]c1ccc2[n-]nc(-c3ccc(O)cc3)c2c1)c1ccc([O-])c(N2CC3CC3C2)c1 (protonated)
O=C([N-]c1ccc2[n-]nc(-c3ccc(O)cc3)c2c1)c1ccc([O-])c(N2C[C@H]3C[C@H]3C2)c1 (chirality)
O=C([N-]c1ccc2[n-]nc(-c3ccc(O)cc3)c2c1)c1ccc([O-])c(N2C[C@H]3C[C@H]3C2)c1 (3D coordinates assigned)
O=C([N-]c1ccc2[n-]nc(-c3ccc(O)cc3)c2c1)c1ccc([O-])c(N2C[C@H]3C[C@H]3C2)c1 (nonaromatic ring conformer: 374.5752254730427 kcal/mol)

>  <smiles>  (13) 
O=C(Nc1ccc2[nH]nc(-c3ccc(O)cc3)c2c1)c1ccc(O)c(N2CC3CC3C2)c1

>  <score_type>  (13) 
oracle

>  <origin>  (13) 
adgpu

>  <m_score__min__energy>  (13) 
-12.5

>  <m_primary>  (13) 
energy

$$$$
13:0
     RDKit          3D

 52 55  0  0  0  0  0  0  0  0999 V2000
   -0.4010   25.6430  -24.2970 C   0  0  0  0  0  0  0  0  0  0  0  0
   -1.4020   25.3160  -25.3620 C   0  0  0  0  0  0  0  0  0  0  0  0
   -2.3960   26.0740  -25.5150 O   0  0  0  0  0  0  0  0  0  0  0  0
   -1.2480   24.1350  -26.1720 N   0  0  0  0  0  0  0  0  0  0  0  0
   -0.5490   22.9250  -25.7320 C   0  0  0  0  0  0  0  0  0  0  0  0
   -0.6900   21.8990  -26.8780 C   0  0  0  0  0  0  0  0  0  0  0  0
   -1.4620   22.6400  -27.9120 C   0  0  0  0  0  0  0  0  0  0  0  0
   -1.8280   22.1990  -29.1840 C   0  0  0  0  0  0  0  0  0  0  0  0
   -2.5330   23.0730  -30.0230 C   0  0  0  0  0  0  0  0  0  0  0  0
   -2.8710   24.3680  -29.5800 C   0  0  0  0  0  0  0  0  0  0  0  0
   -3.6090   25.2360  -30.4520 N   0  0  0  0  0  0  0  0  0  0  0  0
   -5.0390   25.3390  -30.4750 C   0  0  0  0  0  0  0  0  0  0  0  0
   -5.5770   26.4530  -30.2370 O   0  0  0  0  0  0  0  0  0  0  0  0
   -5.8860   24.1720  -30.7980 C   0  0  0  0  0  0  0  0  0  0  0  0
   -6.2110   23.8760  -32.1310 C   0  0  0  0  0  0  0  0  0  0  0  0
   -7.0790   22.8200  -32.4260 C   0  0  0  0  0  0  0  0  0  0  0  0
   -7.6140   22.0340  -31.3950 C   0  0  0  0  0  0  0  0  0  0  0  0
   -8.7500   20.7330  -31.7620 S   0  0  0  0  0  0  0  0  0  0  0  0
   -9.1180   20.0200  -30.4900 O   0  0  0  0  0  0  0  0  0  0  0  0
  -10.0060   21.3240  -32.3430 O   0  0  0  0  0  0  0  0  0  0  0  0
   -8.0680   19.5800  -32.8870 N   0  0  0  0  0  0  0  0  0  0  0  0
   -6.7680   20.0370  -33.4280 C   0  0  0  0  0  0  0  0  0  0  0  0
   -5.5890   19.2190  -32.8750 C   0  0  0  0  0  0  0  0  0  0  0  0
   -5.7060   17.8350  -33.1630 O   0  0  0  0  0  0  0  0  0  0  0  0
   -7.0350   17.3350  -33.0530 C   0  0  0  0  0  0  0  0  0  0  0  0
   -8.0020   18.2410  -32.2710 C   0  0  0  0  0  0  0  0  0  0  0  0
   -7.2530   22.3000  -30.0680 C   0  0  0  0  0  0  0  0  0  0  0  0
   -6.4030   23.3660  -29.7700 C   0  0  0  0  0  0  0  0  0  0  0  0
   -2.4560   24.7990  -28.3010 C   0  0  0  0  0  0  0  0  0  0  0  0
   -1.7670   23.9020  -27.4770 C   0  0  0  0  0  0  0  0  0  0  0  0
   -0.8569   25.4941  -23.3071 H   0  0  0  0  0  0  0  0  0  0  0  0
    0.4735   24.9838  -24.4009 H   0  0  0  0  0  0  0  0  0  0  0  0
   -0.0843   26.6913  -24.4009 H   0  0  0  0  0  0  0  0  0  0  0  0
    0.5127   23.1450  -25.5468 H   0  0  0  0  0  0  0  0  0  0  0  0
   -0.9746   22.5371  -24.7948 H   0  0  0  0  0  0  0  0  0  0  0  0
    0.2964   21.6002  -27.2623 H   0  0  0  0  0  0  0  0  0  0  0  0
   -1.1811   20.9669  -26.5616 H   0  0  0  0  0  0  0  0  0  0  0  0
   -1.5683   21.1849  -29.5220 H   0  0  0  0  0  0  0  0  0  0  0  0
   -2.8241   22.7467  -31.0324 H   0  0  0  0  0  0  0  0  0  0  0  0
   -5.7815   24.4767  -32.9463 H   0  0  0  0  0  0  0  0  0  0  0  0
   -7.3435   22.6048  -33.4718 H   0  0  0  0  0  0  0  0  0  0  0  0
   -6.7854   19.9375  -34.5234 H   0  0  0  0  0  0  0  0  0  0  0  0
   -6.6248   21.0843  -33.1235 H   0  0  0  0  0  0  0  0  0  0  0  0
   -4.6576   19.5951  -33.3233 H   0  0  0  0  0  0  0  0  0  0  0  0
   -5.5863   19.3338  -31.7810 H   0  0  0  0  0  0  0  0  0  0  0  0
   -7.4360   17.2024  -34.0687 H   0  0  0  0  0  0  0  0  0  0  0  0
   -6.9663   16.3940  -32.4875 H   0  0  0  0  0  0  0  0  0  0  0  0
   -9.0053   17.7900  -32.2769 H   0  0  0  0  0  0  0  0  0  0  0  0
   -7.6377   18.3422  -31.2380 H   0  0  0  0  0  0  0  0  0  0  0  0
   -7.6412   21.6659  -29.2573 H   0  0  0  0  0  0  0  0  0  0  0  0
   -6.1362   23.5764  -28.7238 H   0  0  0  0  0  0  0  0  0  0  0  0
   -2.6706   25.8220  -27.9583 H   0  0  0  0  0  0  0  0  0  0  0  0
  1  2  1  0
  2  3  2  0
  2  4  1  0
  4  5  1  0
  5  6  1  0
  6  7  1  0
  7  8  2  0
  8  9  1  0
  9 10  2  0
 10 11  1  0
 11 12  1  0
 12 13  2  0
 12 14  1  0
 14 15  2  0
 15 16  1  0
 16 17  2  0
 17 18  1  0
 18 19  2  0
 18 20  2  0
 18 21  1  0
 21 22  1  0
 22 23  1  0
 23 24  1  0
 24 25  1  0
 25 26  1  0
 17 27  1  0
 27 28  2  0
 10 29  1  0
 29 30  2  0
 30  4  1  0
 30  7  1  0
 28 14  1  0
 26 21  1  0
  1 31  1  0
  1 32  1  0
  1 33  1  0
  5 34  1  0
  5 35  1  0
  6 36  1  0
  6 37  1  0
  8 38  1  0
  9 39  1  0
 15 40  1  0
 16 41  1  0
 22 42  1  0
 22 43  1  0
 23 44  1  0
 23 45  1  0
 25 46  1  0
 25 47  1  0
 26 48  1  0
 26 49  1  0
 27 50  1  0
 28 51  1  0
 29 52  1  0
M  CHG  1  11  -1
M  END
>  <UniqueID>  (14) 
14

>  <SMILES>  (14) 
CC(=O)N1CCc2ccc([N-]C(=O)c3ccc(S(=O)(=O)N4CCOCC4)cc3)cc21

>  <Energy>  (14) 
83.9637877987245

>  <Genealogy>  (14) 
CC(=O)N1CCc2ccc([N-]C(=O)c3ccc(S(=O)(=O)N4CCOCC4)cc3)cc21 (protonated)
CC(=O)N1CCc2ccc([N-]C(=O)c3ccc(S(=O)(=O)N4CCOCC4)cc3)cc21 (3D coordinates assigned)
CC(=O)N1CCc2ccc([N-]C(=O)c3ccc(S(=O)(=O)N4CCOCC4)cc3)cc21 (nonaromatic ring conformer: 83.9637877987245 kcal/mol)

>  <smiles>  (14) 
CC(=O)N1CCc2ccc(NC(=O)c3ccc(S(=O)(=O)N4CCOCC4)cc3)cc21

>  <score_type>  (14) 
oracle

>  <origin>  (14) 
adgpu

>  <m_score__min__energy>  (14) 
-11.85

>  <m_primary>  (14) 
energy

$$$$
14:0
     RDKit          3D

 58 61  0  0  1  0  0  0  0  0999 V2000
   -9.1620   20.0150  -32.3240 C   0  0  0  0  0  0  0  0  0  0  0  0
   -7.7480   19.6200  -32.5550 C   0  0  0  0  0  0  0  0  0  0  0  0
   -6.7050   20.5070  -32.4760 C   0  0  0  0  0  0  0  0  0  0  0  0
   -5.4160   20.0910  -32.6990 C   0  0  0  0  0  0  0  0  0  0  0  0
   -4.3840   20.8510  -32.6450 N   0  0  0  0  0  0  0  0  0  0  0  0
   -4.5000   22.2320  -32.3410 C   0  0  0  0  0  0  0  0  0  0  0  0
   -3.5450   22.6790  -31.2680 C   0  0  0  0  0  0  0  0  0  0  0  0
   -3.8570   23.7490  -30.4330 C   0  0  0  0  0  0  0  0  0  0  0  0
   -3.0020   24.1800  -29.4390 C   0  0  0  0  0  0  0  0  0  0  0  0
   -1.7920   23.5440  -29.2490 C   0  0  0  0  0  0  0  0  0  0  0  0
   -0.6500   24.0200  -28.0220 S   0  0  0  0  0  0  0  0  0  0  0  0
    0.7260   24.2430  -28.6100 O   0  0  0  0  0  0  0  0  0  0  0  0
   -0.4990   22.8660  -27.0750 O   0  0  0  0  0  0  0  0  0  0  0  0
   -1.1190   25.4230  -27.1780 N   0  0  0  0  0  0  0  0  0  0  0  0
   -0.1230   26.4710  -27.2230 C   0  0  0  0  0  0  0  0  0  0  0  0
   -0.5650   27.7290  -26.5580 C   0  0  0  0  0  0  0  0  0  0  0  0
   -1.1510   27.5620  -25.2660 N   0  0  0  0  0  0  0  0  0  0  0  0
   -0.3080   27.8900  -24.1600 C   0  0  0  0  0  0  0  0  0  0  0  0
   -1.9710   26.4030  -25.1010 C   0  0  0  0  0  0  0  0  0  0  0  0
   -1.4950   25.1780  -25.8170 C   0  0  0  0  0  0  0  0  0  0  0  0
   -1.4670   22.4820  -30.0700 C   0  0  0  0  0  0  0  0  0  0  0  0
   -2.3330   22.0650  -31.0570 C   0  0  0  0  0  0  0  0  0  0  0  0
   -5.2020   18.7740  -32.9990 N   0  0  0  0  0  0  0  0  0  0  0  0
   -6.2050   17.8870  -33.0810 C   0  0  0  0  0  0  0  0  0  0  0  0
   -6.0170   16.4780  -33.4000 C   0  0  0  0  0  0  0  0  0  0  0  0
   -6.8630   15.7730  -34.2240 C   0  0  0  0  0  0  0  0  0  0  0  0
   -6.6460   14.4330  -34.5000 C   0  0  0  0  0  0  0  0  0  0  0  0
   -5.5590   13.7490  -33.9510 C   0  0  0  0  0  0  0  0  0  0  0  0
   -4.7130   14.4550  -33.1260 C   0  0  0  0  0  0  0  0  0  0  0  0
   -4.9480   15.7870  -32.8660 C   0  0  0  0  0  0  0  0  0  0  0  0
   -7.4490   18.3440  -32.8560 N   0  0  0  0  0  0  0  0  0  0  0  0
   -9.3556   20.0691  -31.2425 H   0  0  0  0  0  0  0  0  0  0  0  0
   -9.3468   20.9992  -32.7793 H   0  0  0  0  0  0  0  0  0  0  0  0
   -9.8301   19.2691  -32.7793 H   0  0  0  0  0  0  0  0  0  0  0  0
   -6.9031   21.5611  -32.2318 H   0  0  0  0  0  0  0  0  0  0  0  0
   -4.2970   22.8104  -33.2544 H   0  0  0  0  0  0  0  0  0  0  0  0
   -5.5200   22.4022  -31.9660 H   0  0  0  0  0  0  0  0  0  0  0  0
   -4.8171   24.2680  -30.5703 H   0  0  0  0  0  0  0  0  0  0  0  0
   -3.2845   25.0291  -28.7992 H   0  0  0  0  0  0  0  0  0  0  0  0
    0.7867   26.1107  -26.7204 H   0  0  0  0  0  0  0  0  0  0  0  0
    0.0564   26.7066  -28.2824 H   0  0  0  0  0  0  0  0  0  0  0  0
    0.3125   28.3837  -26.4513 H   0  0  0  0  0  0  0  0  0  0  0  0
   -1.3538   28.1510  -27.1981 H   0  0  0  0  0  0  0  0  0  0  0  0
   -0.8398   27.6831  -23.2196 H   0  0  0  0  0  0  0  0  0  0  0  0
    0.6081   27.2827  -24.2045 H   0  0  0  0  0  0  0  0  0  0  0  0
   -0.0433   28.9567  -24.2045 H   0  0  0  0  0  0  0  0  0  0  0  0
   -2.0207   26.1715  -24.0268 H   0  0  0  0  0  0  0  0  0  0  0  0
   -2.9468   26.6544  -25.5421 H   0  0  0  0  0  0  0  0  0  0  0  0
   -0.6217   24.7782  -25.2808 H   0  0  0  0  0  0  0  0  0  0  0  0
   -2.3338   24.4667  -25.8354 H   0  0  0  0  0  0  0  0  0  0  0  0
   -0.5064   21.9635  -29.9344 H   0  0  0  0  0  0  0  0  0  0  0  0
   -2.0464   21.2159  -31.6949 H   0  0  0  0  0  0  0  0  0  0  0  0
   -4.2270   18.4560  -33.1670 H   0  0  0  0  0  0  0  0  0  0  0  0
   -7.7284   16.2830  -34.6724 H   0  0  0  0  0  0  0  0  0  0  0  0
   -7.3419   13.8983  -35.1631 H   0  0  0  0  0  0  0  0  0  0  0  0
   -5.3853   12.6851  -34.1699 H   0  0  0  0  0  0  0  0  0  0  0  0
   -3.8455   13.9532  -32.6724 H   0  0  0  0  0  0  0  0  0  0  0  0
   -4.2531   16.3239  -32.2035 H   0  0  0  0  0  0  0  0  0  0  0  0
  1  2  1  0
  2  3  2  0
  3  4  1  0
  4  5  2  0
  5  6  1  0
  6  7  1  0
  7  8  2  0
  8  9  1  0
  9 10  2  0
 10 11  1  0
 11 12  2  0
 11 13  2  0
 11 14  1  0
 14 15  1  0
 15 16  1  0
 16 17  1  0
 17 18  1  0
 17 19  1  0
 19 20  1  0
 10 21  1  0
 21 22  2  0
  4 23  1  0
 23 24  1  0
 24 25  1  0
 25 26  2  0
 26 27  1  0
 27 28  2  0
 28 29  1  0
 29 30  2  0
 24 31  2  0
 31  2  1  0
 22  7  1  0
 30 25  1  0
 20 14  1  0
  1 32  1  0
  1 33  1  0
  1 34  1  0
  3 35  1  0
  6 36  1  0
  6 37  1  0
  8 38  1  0
  9 39  1  0
 15 40  1  0
 15 41  1  0
 16 42  1  0
 16 43  1  0
 18 44  1  0
 18 45  1  0
 18 46  1  0
 19 47  1  0
 19 48  1  0
 20 49  1  0
 20 50  1  0
 21 51  1  0
 22 52  1  0
 23 53  1  0
 26 54  1  0
 27 55  1  0
 28 56  1  0
 29 57  1  0
 30 58  1  0
M  END
>  <smiles>  (15) 
Cc1cc(=NCc2ccc(S(=O)(=O)N3CCN(C)CC3)cc2)[nH]c(-c2ccccc2)n1

>  <score_type>  (15) 
oracle

>  <origin>  (15) 
adgpu

>  <m_score__min__energy>  (15) 
-10.52

>  <m_primary>  (15) 
energy

$$$$
15:0
     RDKit          3D

 65 69  0  0  0  0  0  0  0  0999 V2000
   -7.8600   18.5700  -31.3310 C   0  0  0  0  0  0  0  0  0  0  0  0
   -7.2700   19.4540  -32.3380 N   0  0  0  0  0  0  0  0  0  0  0  0
   -7.9670   20.6840  -32.7250 C   0  0  0  0  0  0  0  0  0  0  0  0
   -7.4860   21.8550  -31.9090 C   0  0  0  0  0  0  0  0  0  0  0  0
   -7.6730   21.8720  -30.5170 C   0  0  0  0  0  0  0  0  0  0  0  0
   -7.2590   22.9740  -29.7630 C   0  0  0  0  0  0  0  0  0  0  0  0
   -6.6580   24.0680  -30.3930 C   0  0  0  0  0  0  0  0  0  0  0  0
   -6.4700   24.0600  -31.7780 C   0  0  0  0  0  0  0  0  0  0  0  0
   -6.8800   22.9580  -32.5340 C   0  0  0  0  0  0  0  0  0  0  0  0
   -6.2120   18.9500  -33.1660 C   0  0  0  0  0  0  0  0  0  0  0  0
   -6.4890   17.9860  -34.0850 N   0  0  0  0  0  0  0  0  0  0  0  0
   -5.5230   17.4690  -34.8850 C   0  0  0  0  0  0  0  0  0  0  0  0
   -4.2430   17.9090  -34.7800 N   0  0  0  0  0  0  0  0  0  0  0  0
   -3.9060   18.8720  -33.8840 C   0  0  0  0  0  0  0  0  0  0  0  0
   -2.5830   19.3130  -33.7990 C   0  0  0  0  0  0  0  0  0  0  0  0
   -2.2320   20.3090  -32.8840 C   0  0  0  0  0  0  0  0  0  0  0  0
   -3.2020   20.8830  -32.0420 C   0  0  0  0  0  0  0  0  0  0  0  0
   -2.8210   21.9320  -31.0600 C   0  0  0  0  0  0  0  0  0  0  0  0
   -1.4730   22.1160  -30.6980 C   0  0  0  0  0  0  0  0  0  0  0  0
   -1.1170   23.0850  -29.7560 C   0  0  0  0  0  0  0  0  0  0  0  0
   -2.1010   23.8840  -29.1590 C   0  0  0  0  0  0  0  0  0  0  0  0
   -1.6690   25.0610  -27.9210 S   0  0  0  0  0  0  0  0  0  0  0  0
   -2.8710   25.3000  -27.0510 O   0  0  0  0  0  0  0  0  0  0  0  0
   -1.2880   26.3630  -28.5700 O   0  0  0  0  0  0  0  0  0  0  0  0
   -0.3540   24.4560  -26.9350 N   0  0  0  0  0  0  0  0  0  0  0  0
    0.6330   25.5030  -26.6140 C   0  0  0  0  0  0  0  0  0  0  0  0
    0.1380   26.4820  -25.5260 C   0  0  0  0  0  0  0  0  0  0  0  0
   -0.7120   25.8380  -24.4890 N   0  0  0  0  0  0  0  0  0  0  0  0
   -0.4900   26.4600  -23.1730 C   0  0  0  0  0  0  0  0  0  0  0  0
   -0.4840   24.3830  -24.4090 C   0  0  0  0  0  0  0  0  0  0  0  0
   -0.8390   23.7090  -25.7500 C   0  0  0  0  0  0  0  0  0  0  0  0
   -3.4440   23.7070  -29.5140 C   0  0  0  0  0  0  0  0  0  0  0  0
   -3.8020   22.7420  -30.4590 C   0  0  0  0  0  0  0  0  0  0  0  0
   -4.5350   20.4410  -32.1340 C   0  0  0  0  0  0  0  0  0  0  0  0
   -4.8920   19.4310  -33.0440 C   0  0  0  0  0  0  0  0  0  0  0  0
   -7.6118   18.9419  -30.3260 H   0  0  0  0  0  0  0  0  0  0  0  0
   -8.9528   18.5506  -31.4552 H   0  0  0  0  0  0  0  0  0  0  0  0
   -7.4587   17.5534  -31.4552 H   0  0  0  0  0  0  0  0  0  0  0  0
   -7.7777   20.8852  -33.7897 H   0  0  0  0  0  0  0  0  0  0  0  0
   -9.0437   20.5490  -32.5445 H   0  0  0  0  0  0  0  0  0  0  0  0
   -8.1474   21.0142  -30.0178 H   0  0  0  0  0  0  0  0  0  0  0  0
   -7.4062   22.9804  -28.6729 H   0  0  0  0  0  0  0  0  0  0  0  0
   -6.3332   24.9348  -29.7988 H   0  0  0  0  0  0  0  0  0  0  0  0
   -5.9990   24.9217  -32.2736 H   0  0  0  0  0  0  0  0  0  0  0  0
   -6.7275   22.9543  -33.6234 H   0  0  0  0  0  0  0  0  0  0  0  0
   -5.7774   16.6915  -35.6204 H   0  0  0  0  0  0  0  0  0  0  0  0
   -1.8156   18.8749  -34.4542 H   0  0  0  0  0  0  0  0  0  0  0  0
   -1.1873   20.6475  -32.8214 H   0  0  0  0  0  0  0  0  0  0  0  0
   -0.6938   21.4921  -31.1603 H   0  0  0  0  0  0  0  0  0  0  0  0
   -0.0603   23.2209  -29.4822 H   0  0  0  0  0  0  0  0  0  0  0  0
    1.5546   25.0194  -26.2581 H   0  0  0  0  0  0  0  0  0  0  0  0
    0.8049   26.0869  -27.5302 H   0  0  0  0  0  0  0  0  0  0  0  0
    1.0150   26.9248  -25.0313 H   0  0  0  0  0  0  0  0  0  0  0  0
   -0.4833   27.2373  -26.0295 H   0  0  0  0  0  0  0  0  0  0  0  0
   -1.7190   25.9950  -24.7310 H   0  0  0  0  0  0  0  0  0  0  0  0
   -0.7463   25.7419  -22.3801 H   0  0  0  0  0  0  0  0  0  0  0  0
    0.5670   26.7495  -23.0779 H   0  0  0  0  0  0  0  0  0  0  0  0
   -1.1248   27.3533  -23.0779 H   0  0  0  0  0  0  0  0  0  0  0  0
    0.5746   24.1941  -24.1774 H   0  0  0  0  0  0  0  0  0  0  0  0
   -1.1242   23.9643  -23.6185 H   0  0  0  0  0  0  0  0  0  0  0  0
   -0.3905   22.7047  -25.7642 H   0  0  0  0  0  0  0  0  0  0  0  0
   -1.9366   23.6772  -25.8151 H   0  0  0  0  0  0  0  0  0  0  0  0
   -4.2206   24.3304  -29.0468 H   0  0  0  0  0  0  0  0  0  0  0  0
   -4.8591   22.6146  -30.7353 H   0  0  0  0  0  0  0  0  0  0  0  0
   -5.3041   20.8898  -31.4882 H   0  0  0  0  0  0  0  0  0  0  0  0
  1  2  1  0
  2  3  1  0
  3  4  1  0
  4  5  2  0
  5  6  1  0
  6  7  2  0
  7  8  1  0
  8  9  2  0
  2 10  1  0
 10 11  2  0
 11 12  1  0
 12 13  2  0
 13 14  1  0
 14 15  2  0
 15 16  1  0
 16 17  2  0
 17 18  1  0
 18 19  2  0
 19 20  1  0
 20 21  2  0
 21 22  1  0
 22 23  2  0
 22 24  2  0
 22 25  1  0
 25 26  1  0
 26 27  1  0
 27 28  1  0
 28 29  1  0
 28 30  1  0
 30 31  1  0
 21 32  1  0
 32 33  2  0
 17 34  1  0
 34 35  2  0
  9  4  1  0
 35 10  1  0
 35 14  1  0
 33 18  1  0
 31 25  1  0
  1 36  1  0
  1 37  1  0
  1 38  1  0
  3 39  1  0
  3 40  1  0
  5 41  1  0
  6 42  1  0
  7 43  1  0
  8 44  1  0
  9 45  1  0
 12 46  1  0
 15 47  1  0
 16 48  1  0
 19 49  1  0
 20 50  1  0
 26 51  1  0
 26 52  1  0
 27 53  1  0
 27 54  1  0
 28 55  1  0
 29 56  1  0
 29 57  1  0
 29 58  1  0
 30 59  1  0
 30 60  1  0
 31 61  1  0
 31 62  1  0
 32 63  1  0
 33 64  1  0
 34 65  1  0
M  CHG  1  28   1
M  END
>  <UniqueID>  (16) 
15

>  <SMILES>  (16) 
CN(Cc1ccccc1)c1ncnc2ccc(-c3ccc(S(=O)(=O)N4CC[NH+](C)CC4)cc3)cc12

>  <Energy>  (16) 
94.5327445378172

>  <Genealogy>  (16) 
CN(Cc1ccccc1)c1ncnc2ccc(-c3ccc(S(=O)(=O)N4CC[NH+](C)CC4)cc3)cc12 (protonated)
CN(Cc1ccccc1)c1ncnc2ccc(-c3ccc(S(=O)(=O)N4CC[NH+](C)CC4)cc3)cc12 (3D coordinates assigned)
CN(Cc1ccccc1)c1ncnc2ccc(-c3ccc(S(=O)(=O)N4CC[NH+](C)CC4)cc3)cc12 (nonaromatic ring conformer: 94.5327445378172 kcal/mol)

>  <smiles>  (16) 
CN1CCN(S(=O)(=O)c2ccc(-c3ccc4ncnc(N(C)Cc5ccccc5)c4c3)cc2)CC1

>  <score_type>  (16) 
oracle

>  <origin>  (16) 
adgpu

>  <m_score__min__energy>  (16) 
-10.699999999999999

>  <m_primary>  (16) 
energy

$$$$
16:0
     RDKit          3D

 59 62  0  0  0  0  0  0  0  0999 V2000
   -1.5770   25.7510  -28.9720 O   0  0  0  0  0  0  0  0  0  0  0  0
   -2.4340   24.8940  -29.3080 C   0  0  0  0  0  0  0  0  0  0  0  0
   -2.3130   23.5560  -28.8060 N   0  0  0  0  0  0  0  0  0  0  0  0
   -1.8120   22.4240  -29.5320 C   0  0  0  0  0  0  0  0  0  0  0  0
   -1.7370   21.1850  -28.8860 C   0  0  0  0  0  0  0  0  0  0  0  0
   -1.2780   20.0570  -29.5710 C   0  0  0  0  0  0  0  0  0  0  0  0
   -0.8600   20.1570  -30.9090 C   0  0  0  0  0  0  0  0  0  0  0  0
   -0.4300   18.9420  -31.6410 C   0  0  0  0  0  0  0  0  0  0  0  0
    0.7900   18.6240  -31.6240 O   0  0  0  0  0  0  0  0  0  0  0  0
   -1.3640   18.1110  -32.3590 N   0  0  0  0  0  0  0  0  0  0  0  0
   -2.4600   18.6820  -33.1470 C   0  0  0  0  0  0  0  0  0  0  0  0
   -2.4050   18.1110  -34.5690 C   0  0  0  0  0  0  0  0  0  0  0  0
   -2.3810   16.6950  -34.5460 O   0  0  0  0  0  0  0  0  0  0  0  0
   -1.1960   16.2390  -33.9180 C   0  0  0  0  0  0  0  0  0  0  0  0
   -1.1620   16.6610  -32.4490 C   0  0  0  0  0  0  0  0  0  0  0  0
   -0.9180   21.4080  -31.5510 C   0  0  0  0  0  0  0  0  0  0  0  0
   -1.3810   22.5350  -30.8650 C   0  0  0  0  0  0  0  0  0  0  0  0
   -3.5060   25.2870  -30.1720 N   0  0  0  0  0  0  0  0  0  0  0  0
   -4.6240   24.4910  -30.5830 C   0  0  0  0  0  0  0  0  0  0  0  0
   -5.9470   24.9350  -30.4380 C   0  0  0  0  0  0  0  0  0  0  0  0
   -7.0110   24.1230  -30.8430 C   0  0  0  0  0  0  0  0  0  0  0  0
   -6.7640   22.8800  -31.4250 C   0  0  0  0  0  0  0  0  0  0  0  0
   -5.4460   22.4490  -31.6230 C   0  0  0  0  0  0  0  0  0  0  0  0
   -5.1250   20.9170  -32.4370 S   0  0  0  0  0  0  0  0  0  0  0  0
   -4.6000   19.9300  -31.4340 O   0  0  0  0  0  0  0  0  0  0  0  0
   -4.0560   21.1290  -33.4710 O   0  0  0  0  0  0  0  0  0  0  0  0
   -6.5500   20.2530  -33.2040 N   0  0  0  0  0  0  0  0  0  0  0  0
   -7.6500   19.9750  -32.2460 C   0  0  0  0  0  0  0  0  0  0  0  0
   -8.2440   18.5690  -32.3880 C   0  0  0  0  0  0  0  0  0  0  0  0
   -7.1190   17.5420  -32.3920 C   0  0  0  0  0  0  0  0  0  0  0  0
   -6.1500   17.7720  -33.5600 C   0  0  0  0  0  0  0  0  0  0  0  0
   -6.2350   19.1850  -34.1770 C   0  0  0  0  0  0  0  0  0  0  0  0
   -4.3810   23.2640  -31.2110 C   0  0  0  0  0  0  0  0  0  0  0  0
   -2.0413   21.0985  -27.8325 H   0  0  0  0  0  0  0  0  0  0  0  0
   -1.2436   19.0838  -29.0594 H   0  0  0  0  0  0  0  0  0  0  0  0
   -3.4225   18.4217  -32.6824 H   0  0  0  0  0  0  0  0  0  0  0  0
   -2.3599   19.7768  -33.1828 H   0  0  0  0  0  0  0  0  0  0  0  0
   -3.2920   18.4469  -35.1262 H   0  0  0  0  0  0  0  0  0  0  0  0
   -1.4860   18.4696  -35.0557 H   0  0  0  0  0  0  0  0  0  0  0  0
   -1.1553   15.1414  -33.9788 H   0  0  0  0  0  0  0  0  0  0  0  0
   -0.3313   16.6838  -34.4323 H   0  0  0  0  0  0  0  0  0  0  0  0
   -1.9616   16.1433  -31.8989 H   0  0  0  0  0  0  0  0  0  0  0  0
   -0.1887   16.3955  -32.0106 H   0  0  0  0  0  0  0  0  0  0  0  0
   -0.5971   21.4998  -32.5991 H   0  0  0  0  0  0  0  0  0  0  0  0
   -1.4080   23.5117  -31.3703 H   0  0  0  0  0  0  0  0  0  0  0  0
   -6.1481   25.9256  -30.0041 H   0  0  0  0  0  0  0  0  0  0  0  0
   -8.0466   24.4660  -30.7020 H   0  0  0  0  0  0  0  0  0  0  0  0
   -7.6041   22.2381  -31.7286 H   0  0  0  0  0  0  0  0  0  0  0  0
   -7.2581   20.0858  -31.2242 H   0  0  0  0  0  0  0  0  0  0  0  0
   -8.4568   20.6905  -32.4633 H   0  0  0  0  0  0  0  0  0  0  0  0
   -8.9201   18.3693  -31.5436 H   0  0  0  0  0  0  0  0  0  0  0  0
   -8.8063   18.5014  -33.3310 H   0  0  0  0  0  0  0  0  0  0  0  0
   -6.5627   17.6179  -31.4461 H   0  0  0  0  0  0  0  0  0  0  0  0
   -7.5648   16.5429  -32.5057 H   0  0  0  0  0  0  0  0  0  0  0  0
   -5.1244   17.6151  -33.1947 H   0  0  0  0  0  0  0  0  0  0  0  0
   -6.4308   17.0615  -34.3514 H   0  0  0  0  0  0  0  0  0  0  0  0
   -5.2657   19.4172  -34.6424 H   0  0  0  0  0  0  0  0  0  0  0  0
   -7.0617   19.1641  -34.9023 H   0  0  0  0  0  0  0  0  0  0  0  0
   -3.3454   22.9356  -31.3831 H   0  0  0  0  0  0  0  0  0  0  0  0
  1  2  2  0
  2  3  1  0
  3  4  1  0
  4  5  2  0
  5  6  1  0
  6  7  2  0
  7  8  1  0
  8  9  2  0
  8 10  1  0
 10 11  1  0
 11 12  1  0
 12 13  1  0
 13 14  1  0
 14 15  1  0
  7 16  1  0
 16 17  2  0
  2 18  1  0
 18 19  1  0
 19 20  2  0
 20 21  1  0
 21 22  2  0
 22 23  1  0
 23 24  1  0
 24 25  2  0
 24 26  2  0
 24 27  1  0
 27 28  1  0
 28 29  1  0
 29 30  1  0
 30 31  1  0
 31 32  1  0
 23 33  2  0
 17  4  1  0
 33 19  1  0
 15 10  1  0
 32 27  1  0
  5 34  1  0
  6 35  1  0
 11 36  1  0
 11 37  1  0
 12 38  1  0
 12 39  1  0
 14 40  1  0
 14 41  1  0
 15 42  1  0
 15 43  1  0
 16 44  1  0
 17 45  1  0
 20 46  1  0
 21 47  1  0
 22 48  1  0
 28 49  1  0
 28 50  1  0
 29 51  1  0
 29 52  1  0
 30 53  1  0
 30 54  1  0
 31 55  1  0
 31 56  1  0
 32 57  1  0
 32 58  1  0
 33 59  1  0
M  CHG  2   3  -1  18  -1
M  END
>  <UniqueID>  (17) 
16

>  <SMILES>  (17) 
O=C([N-]c1ccc(C(=O)N2CCOCC2)cc1)[N-]c1cccc(S(=O)(=O)N2CCCCC2)c1

>  <Energy>  (17) 
78.7502192163117

>  <Genealogy>  (17) 
O=C([N-]c1ccc(C(=O)N2CCOCC2)cc1)[N-]c1cccc(S(=O)(=O)N2CCCCC2)c1 (protonated)
O=C([N-]c1ccc(C(=O)N2CCOCC2)cc1)[N-]c1cccc(S(=O)(=O)N2CCCCC2)c1 (3D coordinates assigned)
O=C([N-]c1ccc(C(=O)N2CCOCC2)cc1)[N-]c1cccc(S(=O)(=O)N2CCCCC2)c1 (nonaromatic ring conformer: 78.7502192163117 kcal/mol)

>  <smiles>  (17) 
O=C(Nc1ccc(C(=O)N2CCOCC2)cc1)Nc1cccc(S(=O)(=O)N2CCCCC2)c1

>  <score_type>  (17) 
oracle

>  <origin>  (17) 
adgpu

>  <m_score__min__energy>  (17) 
-12.390000000000001

>  <m_primary>  (17) 
energy

$$$$
17:0
     RDKit          3D

 49 51  0  0  0  0  0  0  0  0999 V2000
   -5.7180   26.2460  -31.1540 O   0  0  0  0  0  0  0  0  0  0  0  0
   -5.3190   25.0450  -30.3410 S   0  0  0  0  0  0  0  0  0  0  0  0
   -5.6620   25.3090  -28.9030 O   0  0  0  0  0  0  0  0  0  0  0  0
   -3.6050   24.7750  -30.4790 N   0  0  0  0  0  0  0  0  0  0  0  0
   -3.2670   23.3750  -30.2160 C   0  0  0  0  0  0  0  0  0  0  0  0
   -1.7510   23.2050  -30.1150 C   0  0  0  0  0  0  0  0  0  0  0  0
   -1.2880   23.4290  -28.7010 C   0  0  0  0  0  0  0  0  0  0  0  0
   -2.1240   24.0690  -27.7740 C   0  0  0  0  0  0  0  0  0  0  0  0
   -1.7040   24.2470  -26.4520 C   0  0  0  0  0  0  0  0  0  0  0  0
   -0.4460   23.7850  -26.0410 C   0  0  0  0  0  0  0  0  0  0  0  0
    0.0860   24.0230  -24.3760 S   0  0  0  0  0  0  0  0  0  0  0  0
   -0.8450   23.2720  -23.4660 O   0  0  0  0  0  0  0  0  0  0  0  0
    1.4590   23.4290  -24.2110 O   0  0  0  0  0  0  0  0  0  0  0  0
    0.1220   25.7100  -23.8950 N   0  0  0  0  0  0  0  0  0  0  0  0
    1.3310   26.4040  -24.3870 C   0  0  0  0  0  0  0  0  0  0  0  0
    1.2240   26.8380  -25.8690 C   0  0  0  0  0  0  0  0  0  0  0  0
   -0.0770   26.6960  -26.4020 O   0  0  0  0  0  0  0  0  0  0  0  0
   -1.0180   27.2630  -25.5210 C   0  0  0  0  0  0  0  0  0  0  0  0
   -1.1340   26.4200  -24.2390 C   0  0  0  0  0  0  0  0  0  0  0  0
    0.3790   23.1220  -26.9600 C   0  0  0  0  0  0  0  0  0  0  0  0
   -0.0390   22.9440  -28.2820 C   0  0  0  0  0  0  0  0  0  0  0  0
   -6.1990   23.6200  -30.8860 C   0  0  0  0  0  0  0  0  0  0  0  0
   -5.8790   23.0340  -32.1180 C   0  0  0  0  0  0  0  0  0  0  0  0
   -6.5830   21.9120  -32.5680 C   0  0  0  0  0  0  0  0  0  0  0  0
   -7.6120   21.3730  -31.7900 C   0  0  0  0  0  0  0  0  0  0  0  0
   -8.5740   19.8430  -32.4070 Br  0  0  0  0  0  0  0  0  0  0  0  0
   -7.9390   21.9580  -30.5630 C   0  0  0  0  0  0  0  0  0  0  0  0
   -7.2360   23.0790  -30.1110 C   0  0  0  0  0  0  0  0  0  0  0  0
   -3.7312   23.0613  -29.2693 H   0  0  0  0  0  0  0  0  0  0  0  0
   -3.6422   22.7548  -31.0434 H   0  0  0  0  0  0  0  0  0  0  0  0
   -1.4795   22.1859  -30.4275 H   0  0  0  0  0  0  0  0  0  0  0  0
   -1.2660   23.9445  -30.7692 H   0  0  0  0  0  0  0  0  0  0  0  0
   -3.1136   24.4322  -28.0881 H   0  0  0  0  0  0  0  0  0  0  0  0
   -2.3640   24.7520  -25.7313 H   0  0  0  0  0  0  0  0  0  0  0  0
    0.1910   25.6900  -22.8510 H   0  0  0  0  0  0  0  0  0  0  0  0
    1.4946   27.3006  -23.7710 H   0  0  0  0  0  0  0  0  0  0  0  0
    2.1681   25.6942  -24.3137 H   0  0  0  0  0  0  0  0  0  0  0  0
    1.5187   27.8951  -25.9451 H   0  0  0  0  0  0  0  0  0  0  0  0
    1.8868   26.1793  -26.4493 H   0  0  0  0  0  0  0  0  0  0  0  0
   -0.6979   28.2816  -25.2564 H   0  0  0  0  0  0  0  0  0  0  0  0
   -1.9988   27.2902  -26.0183 H   0  0  0  0  0  0  0  0  0  0  0  0
   -1.3997   27.0859  -23.4048 H   0  0  0  0  0  0  0  0  0  0  0  0
   -1.9050   25.6559  -24.4170 H   0  0  0  0  0  0  0  0  0  0  0  0
    1.3596   22.7401  -26.6395 H   0  0  0  0  0  0  0  0  0  0  0  0
    0.6136   22.4216  -28.9971 H   0  0  0  0  0  0  0  0  0  0  0  0
   -5.0716   23.4576  -32.7333 H   0  0  0  0  0  0  0  0  0  0  0  0
   -6.3268   21.4536  -33.5345 H   0  0  0  0  0  0  0  0  0  0  0  0
   -8.7506   21.5357  -29.9522 H   0  0  0  0  0  0  0  0  0  0  0  0
   -7.4965   23.5377  -29.1458 H   0  0  0  0  0  0  0  0  0  0  0  0
  1  2  2  0
  2  3  2  0
  2  4  1  0
  4  5  1  0
  5  6  1  0
  6  7  1  0
  7  8  2  0
  8  9  1  0
  9 10  2  0
 10 11  1  0
 11 12  2  0
 11 13  2  0
 11 14  1  0
 14 15  1  0
 15 16  1  0
 16 17  1  0
 17 18  1  0
 18 19  1  0
 10 20  1  0
 20 21  2  0
  2 22  1  0
 22 23  2  0
 23 24  1  0
 24 25  2  0
 25 26  1  0
 25 27  1  0
 27 28  2  0
 21  7  1  0
 28 22  1  0
 19 14  1  0
  5 29  1  0
  5 30  1  0
  6 31  1  0
  6 32  1  0
  8 33  1  0
  9 34  1  0
 14 35  1  0
 15 36  1  0
 15 37  1  0
 16 38  1  0
 16 39  1  0
 18 40  1  0
 18 41  1  0
 19 42  1  0
 19 43  1  0
 20 44  1  0
 21 45  1  0
 23 46  1  0
 24 47  1  0
 27 48  1  0
 28 49  1  0
M  CHG  2   4  -1  14   1
M  END
>  <UniqueID>  (18) 
17

>  <SMILES>  (18) 
O=S(=O)([N-]CCc1ccc(S(=O)(=O)[NH+]2CCOCC2)cc1)c1ccc(Br)cc1

>  <Energy>  (18) 
57.61355303019058

>  <Genealogy>  (18) 
O=S(=O)([N-]CCc1ccc(S(=O)(=O)[NH+]2CCOCC2)cc1)c1ccc(Br)cc1 (protonated)
O=S(=O)([N-]CCc1ccc(S(=O)(=O)[NH+]2CCOCC2)cc1)c1ccc(Br)cc1 (3D coordinates assigned)
O=S(=O)([N-]CCc1ccc(S(=O)(=O)[NH+]2CCOCC2)cc1)c1ccc(Br)cc1 (nonaromatic ring conformer: 57.61355303019058 kcal/mol)

>  <smiles>  (18) 
O=S(=O)(NCCc1ccc(S(=O)(=O)N2CCOCC2)cc1)c1ccc(Br)cc1

>  <score_type>  (18) 
oracle

>  <origin>  (18) 
adgpu

>  <m_score__min__energy>  (18) 
-10.949999999999999

>  <m_primary>  (18) 
energy

$$$$
18:0
     RDKit          3D

 37 38  0  0  0  0  0  0  0  0999 V2000
   -6.4220   17.7300  -31.3050 C   0  0  0  0  0  0  0  0  0  0  0  0
   -6.8920   19.0590  -31.7290 N   0  0  0  0  0  0  0  0  0  0  0  0
   -6.2880   19.4010  -33.0290 C   0  0  0  0  0  0  0  0  0  0  0  0
   -8.3700   19.0790  -31.8020 C   0  0  0  0  0  0  0  0  0  0  0  0
   -8.8850   20.2590  -32.6430 C   0  0  0  0  0  0  0  0  0  0  0  0
   -8.8770   21.5930  -31.8770 C   0  0  0  0  0  0  0  0  0  0  0  0
   -7.5110   21.9930  -31.5030 N   0  0  0  0  0  0  0  0  0  0  0  0
   -7.4840   23.0410  -30.4700 C   0  0  0  0  0  0  0  0  0  0  0  0
   -6.1560   23.7400  -30.4130 C   0  0  0  0  0  0  0  0  0  0  0  0
   -5.7560   24.7910  -31.2090 C   0  0  0  0  0  0  0  0  0  0  0  0
   -4.5270   25.0890  -30.8740 O   0  0  0  0  0  0  0  0  0  0  0  0
   -4.1740   24.2600  -29.9170 C   0  0  0  0  0  0  0  0  0  0  0  0
   -2.8540   24.2790  -29.2780 C   0  0  0  0  0  0  0  0  0  0  0  0
   -2.2930   23.2520  -28.5470 C   0  0  0  0  0  0  0  0  0  0  0  0
   -1.0580   23.7170  -28.1480 C   0  0  0  0  0  0  0  0  0  0  0  0
   -0.9440   24.9940  -28.6600 C   0  0  0  0  0  0  0  0  0  0  0  0
   -2.0320   25.3010  -29.3290 O   0  0  0  0  0  0  0  0  0  0  0  0
   -5.1520   23.3890  -29.5880 N   0  0  0  0  0  0  0  0  0  0  0  0
   -6.4045   17.6806  -30.2062 H   0  0  0  0  0  0  0  0  0  0  0  0
   -7.1019   16.9587  -31.6960 H   0  0  0  0  0  0  0  0  0  0  0  0
   -5.4084   17.5576  -31.6960 H   0  0  0  0  0  0  0  0  0  0  0  0
   -5.3416   19.9369  -32.8640 H   0  0  0  0  0  0  0  0  0  0  0  0
   -6.0932   18.4792  -33.5967 H   0  0  0  0  0  0  0  0  0  0  0  0
   -6.9783   20.0423  -33.5967 H   0  0  0  0  0  0  0  0  0  0  0  0
   -8.7166   18.1395  -32.2571 H   0  0  0  0  0  0  0  0  0  0  0  0
   -8.7610   19.1915  -30.7800 H   0  0  0  0  0  0  0  0  0  0  0  0
   -8.2450   20.3615  -33.5318 H   0  0  0  0  0  0  0  0  0  0  0  0
   -9.9291   20.0404  -32.9113 H   0  0  0  0  0  0  0  0  0  0  0  0
   -9.3159   22.3741  -32.5152 H   0  0  0  0  0  0  0  0  0  0  0  0
   -9.4632   21.4647  -30.9551 H   0  0  0  0  0  0  0  0  0  0  0  0
   -6.9950   21.1520  -31.1530 H   0  0  0  0  0  0  0  0  0  0  0  0
   -8.2658   23.7815  -30.6947 H   0  0  0  0  0  0  0  0  0  0  0  0
   -7.6582   22.5621  -29.4952 H   0  0  0  0  0  0  0  0  0  0  0  0
   -6.3588   25.2879  -31.9834 H   0  0  0  0  0  0  0  0  0  0  0  0
   -2.7373   22.2697  -28.3287 H   0  0  0  0  0  0  0  0  0  0  0  0
   -0.3132   23.1788  -27.5433 H   0  0  0  0  0  0  0  0  0  0  0  0
   -0.0741   25.6542  -28.5278 H   0  0  0  0  0  0  0  0  0  0  0  0
  1  2  1  0
  2  3  1  0
  2  4  1  0
  4  5  1  0
  5  6  1  0
  6  7  1  0
  7  8  1  0
  8  9  1  0
  9 10  2  0
 10 11  1  0
 11 12  1  0
 12 13  1  0
 13 14  2  0
 14 15  1  0
 15 16  2  0
 16 17  1  0
 12 18  2  0
 18  9  1  0
 17 13  1  0
  1 19  1  0
  1 20  1  0
  1 21  1  0
  3 22  1  0
  3 23  1  0
  3 24  1  0
  4 25  1  0
  4 26  1  0
  5 27  1  0
  5 28  1  0
  6 29  1  0
  6 30  1  0
  7 31  1  0
  8 32  1  0
  8 33  1  0
 10 34  1  0
 14 35  1  0
 15 36  1  0
 16 37  1  0
M  END
>  <UniqueID>  (19) 
18

>  <SMILES>  (19) 
CN(C)CCCNCc1coc(-c2ccco2)n1

>  <Energy>  (19) 
88.28519966481623

>  <Genealogy>  (19) 
CN(C)CCCNCc1coc(-c2ccco2)n1 (3D coordinates assigned)
CN(C)CCCNCc1coc(-c2ccco2)n1 (optimized conformer: 88.28519966481623 kcal/mol)

>  <smiles>  (19) 
CN(C)CCCNCc1coc(-c2ccco2)n1

>  <score_type>  (19) 
oracle

>  <origin>  (19) 
adgpu

>  <m_score__min__energy>  (19) 
-6.8200000000000003

>  <m_primary>  (19) 
energy

$$$$
19:0
     RDKit          3D

 50 52  0  0  0  0  0  0  0  0999 V2000
   -6.9990   18.1830  -31.9500 C   0  0  0  0  0  0  0  0  0  0  0  0
   -8.1720   19.0760  -32.2250 C   0  0  0  0  0  0  0  0  0  0  0  0
   -9.3320   18.6600  -31.9610 O   0  0  0  0  0  0  0  0  0  0  0  0
   -8.0130   20.4070  -32.7370 N   0  0  0  0  0  0  0  0  0  0  0  0
   -7.3090   21.4900  -32.1130 C   0  0  0  0  0  0  0  0  0  0  0  0
   -6.0000   21.8390  -32.4930 C   0  0  0  0  0  0  0  0  0  0  0  0
   -5.3580   22.9250  -31.8920 C   0  0  0  0  0  0  0  0  0  0  0  0
   -6.0220   23.6880  -30.9240 C   0  0  0  0  0  0  0  0  0  0  0  0
   -5.2170   25.0790  -30.2040 S   0  0  0  0  0  0  0  0  0  0  0  0
   -5.5450   25.1250  -28.7390 O   0  0  0  0  0  0  0  0  0  0  0  0
   -5.6720   26.3560  -30.8550 O   0  0  0  0  0  0  0  0  0  0  0  0
   -3.5010   24.9220  -30.3960 N   0  0  0  0  0  0  0  0  0  0  0  0
   -2.6840   23.9690  -29.7020 C   0  0  0  0  0  0  0  0  0  0  0  0
   -2.9740   22.5930  -29.7050 C   0  0  0  0  0  0  0  0  0  0  0  0
   -2.1730   21.7050  -28.9830 C   0  0  0  0  0  0  0  0  0  0  0  0
   -1.0810   22.1790  -28.2530 C   0  0  0  0  0  0  0  0  0  0  0  0
   -0.7740   23.5440  -28.2530 C   0  0  0  0  0  0  0  0  0  0  0  0
    0.5650   24.1440  -27.2790 S   0  0  0  0  0  0  0  0  0  0  0  0
    1.6610   24.6550  -28.1750 O   0  0  0  0  0  0  0  0  0  0  0  0
    1.1100   23.0130  -26.4510 O   0  0  0  0  0  0  0  0  0  0  0  0
    0.0040   25.4220  -26.2270 N   0  0  0  0  0  0  0  0  0  0  0  0
    0.8320   25.4610  -25.0000 C   0  0  0  0  0  0  0  0  0  0  0  0
    0.1990   26.3230  -23.8840 C   0  0  0  0  0  0  0  0  0  0  0  0
   -0.8950   27.2430  -24.4320 C   0  0  0  0  0  0  0  0  0  0  0  0
   -1.9850   26.4310  -25.1510 C   0  0  0  0  0  0  0  0  0  0  0  0
   -1.4150   25.2110  -25.9000 C   0  0  0  0  0  0  0  0  0  0  0  0
   -1.5760   24.4350  -28.9820 C   0  0  0  0  0  0  0  0  0  0  0  0
   -7.3340   23.3570  -30.5590 C   0  0  0  0  0  0  0  0  0  0  0  0
   -7.9750   22.2690  -31.1580 C   0  0  0  0  0  0  0  0  0  0  0  0
   -6.8635   18.0799  -30.8633 H   0  0  0  0  0  0  0  0  0  0  0  0
   -7.1806   17.1924  -32.3925 H   0  0  0  0  0  0  0  0  0  0  0  0
   -6.0925   18.6217  -32.3925 H   0  0  0  0  0  0  0  0  0  0  0  0
   -5.4799   21.2546  -33.2663 H   0  0  0  0  0  0  0  0  0  0  0  0
   -4.3278   23.1812  -32.1803 H   0  0  0  0  0  0  0  0  0  0  0  0
   -3.8339   22.2149  -30.2774 H   0  0  0  0  0  0  0  0  0  0  0  0
   -2.4031   20.6294  -28.9895 H   0  0  0  0  0  0  0  0  0  0  0  0
   -0.4605   21.4773  -27.6764 H   0  0  0  0  0  0  0  0  0  0  0  0
    0.9553   24.4342  -24.6252 H   0  0  0  0  0  0  0  0  0  0  0  0
    1.7986   25.9147  -25.2642 H   0  0  0  0  0  0  0  0  0  0  0  0
   -0.2408   25.6582  -23.1260 H   0  0  0  0  0  0  0  0  0  0  0  0
    0.9885   26.9515  -23.4462 H   0  0  0  0  0  0  0  0  0  0  0  0
   -1.3501   27.7978  -23.5983 H   0  0  0  0  0  0  0  0  0  0  0  0
   -0.4410   27.9382  -25.1535 H   0  0  0  0  0  0  0  0  0  0  0  0
   -2.7122   26.0785  -24.4047 H   0  0  0  0  0  0  0  0  0  0  0  0
   -2.4561   27.0898  -25.8953 H   0  0  0  0  0  0  0  0  0  0  0  0
   -1.5108   24.3188  -25.2638 H   0  0  0  0  0  0  0  0  0  0  0  0
   -1.9782   25.0733  -26.8348 H   0  0  0  0  0  0  0  0  0  0  0  0
   -1.3330   25.5078  -28.9883 H   0  0  0  0  0  0  0  0  0  0  0  0
   -7.8601   23.9544  -29.7999 H   0  0  0  0  0  0  0  0  0  0  0  0
   -9.0097   22.0227  -30.8776 H   0  0  0  0  0  0  0  0  0  0  0  0
  1  2  1  0
  2  3  2  0
  2  4  1  0
  4  5  1  0
  5  6  2  0
  6  7  1  0
  7  8  2  0
  8  9  1  0
  9 10  2  0
  9 11  2  0
  9 12  1  0
 12 13  1  0
 13 14  2  0
 14 15  1  0
 15 16  2  0
 16 17  1  0
 17 18  1  0
 18 19  2  0
 18 20  2  0
 18 21  1  0
 21 22  1  0
 22 23  1  0
 23 24  1  0
 24 25  1  0
 25 26  1  0
 17 27  2  0
  8 28  1  0
 28 29  2  0
 29  5  1  0
 27 13  1  0
 26 21  1  0
  1 30  1  0
  1 31  1  0
  1 32  1  0
  6 33  1  0
  7 34  1  0
 14 35  1  0
 15 36  1  0
 16 37  1  0
 22 38  1  0
 22 39  1  0
 23 40  1  0
 23 41  1  0
 24 42  1  0
 24 43  1  0
 25 44  1  0
 25 45  1  0
 26 46  1  0
 26 47  1  0
 27 48  1  0
 28 49  1  0
 29 50  1  0
M  CHG  2   4  -1  12  -1
M  END
>  <UniqueID>  (20) 
19

>  <SMILES>  (20) 
CC(=O)[N-]c1ccc(S(=O)(=O)[N-]c2cccc(S(=O)(=O)N3CCCCC3)c2)cc1

>  <Energy>  (20) 
59.7404205668588

>  <Genealogy>  (20) 
CC(=O)[N-]c1ccc(S(=O)(=O)[N-]c2cccc(S(=O)(=O)N3CCCCC3)c2)cc1 (protonated)
CC(=O)[N-]c1ccc(S(=O)(=O)[N-]c2cccc(S(=O)(=O)N3CCCCC3)c2)cc1 (3D coordinates assigned)
CC(=O)[N-]c1ccc(S(=O)(=O)[N-]c2cccc(S(=O)(=O)N3CCCCC3)c2)cc1 (nonaromatic ring conformer: 59.7404205668588 kcal/mol)

>  <smiles>  (20) 
CC(=O)Nc1ccc(S(=O)(=O)Nc2cccc(S(=O)(=O)N3CCCCC3)c2)cc1

>  <score_type>  (20) 
oracle

>  <origin>  (20) 
adgpu

>  <m_score__min__energy>  (20) 
-11.92

>  <m_primary>  (20) 
energy

$$$$
20:0
     RDKit          3D

 62 65  0  0  0  0  0  0  0  0999 V2000
   -2.5280   19.9600  -33.9870 C   0  0  0  0  0  0  0  0  0  0  0  0
   -1.9380   20.4650  -32.7040 C   0  0  0  0  0  0  0  0  0  0  0  0
   -2.4150   21.6540  -32.1340 C   0  0  0  0  0  0  0  0  0  0  0  0
   -1.9170   22.0980  -30.9060 C   0  0  0  0  0  0  0  0  0  0  0  0
   -0.9320   21.3650  -30.2330 C   0  0  0  0  0  0  0  0  0  0  0  0
   -0.4420   21.8110  -28.9590 N   0  0  0  0  0  0  0  0  0  0  0  0
   -1.3860   21.7190  -27.5110 S   0  0  0  0  0  0  0  0  0  0  0  0
   -0.8240   20.6440  -26.6260 O   0  0  0  0  0  0  0  0  0  0  0  0
   -2.8100   21.3600  -27.8310 O   0  0  0  0  0  0  0  0  0  0  0  0
   -1.3710   23.3070  -26.7310 C   0  0  0  0  0  0  0  0  0  0  0  0
   -0.7470   23.4040  -25.4760 C   0  0  0  0  0  0  0  0  0  0  0  0
   -0.6530   24.6300  -24.8180 C   0  0  0  0  0  0  0  0  0  0  0  0
   -1.1680   25.7830  -25.4150 C   0  0  0  0  0  0  0  0  0  0  0  0
   -1.8010   25.7040  -26.6570 C   0  0  0  0  0  0  0  0  0  0  0  0
   -1.9270   24.4710  -27.3160 C   0  0  0  0  0  0  0  0  0  0  0  0
   -2.6610   24.4420  -28.5850 C   0  0  0  0  0  0  0  0  0  0  0  0
   -2.1470   24.9610  -29.6120 O   0  0  0  0  0  0  0  0  0  0  0  0
   -3.9400   23.7910  -28.6400 N   0  0  0  0  0  0  0  0  0  0  0  0
   -4.8090   23.6760  -29.7800 C   0  0  0  0  0  0  0  0  0  0  0  0
   -5.4900   22.4760  -30.0810 C   0  0  0  0  0  0  0  0  0  0  0  0
   -6.3570   22.4080  -31.1820 C   0  0  0  0  0  0  0  0  0  0  0  0
   -7.2920   20.9400  -31.4860 S   0  0  0  0  0  0  0  0  0  0  0  0
   -8.4300   20.8730  -30.5040 O   0  0  0  0  0  0  0  0  0  0  0  0
   -7.8810   21.0260  -32.8640 O   0  0  0  0  0  0  0  0  0  0  0  0
   -6.3020   19.4930  -31.3880 N   0  0  0  0  0  0  0  0  0  0  0  0
   -5.2880   19.4390  -32.4650 C   0  0  0  0  0  0  0  0  0  0  0  0
   -5.8420   18.8530  -33.7890 C   0  0  0  0  0  0  0  0  0  0  0  0
   -6.5180   17.6310  -33.5860 O   0  0  0  0  0  0  0  0  0  0  0  0
   -7.6050   17.8350  -32.7050 C   0  0  0  0  0  0  0  0  0  0  0  0
   -7.0890   18.2470  -31.3210 C   0  0  0  0  0  0  0  0  0  0  0  0
   -6.5240   23.5330  -32.0020 C   0  0  0  0  0  0  0  0  0  0  0  0
   -5.8230   24.7100  -31.7360 C   0  0  0  0  0  0  0  0  0  0  0  0
   -4.9610   24.7870  -30.6370 C   0  0  0  0  0  0  0  0  0  0  0  0
   -4.2670   25.9760  -30.4140 O   0  0  0  0  0  0  0  0  0  0  0  0
   -0.4540   20.1610  -30.7910 C   0  0  0  0  0  0  0  0  0  0  0  0
    0.5870   19.3380  -30.0810 C   0  0  0  0  0  0  0  0  0  0  0  0
   -0.9750   19.7100  -32.0170 C   0  0  0  0  0  0  0  0  0  0  0  0
   -3.3463   19.2596  -33.7636 H   0  0  0  0  0  0  0  0  0  0  0  0
   -2.9193   20.8073  -34.5692 H   0  0  0  0  0  0  0  0  0  0  0  0
   -1.7512   19.4427  -34.5692 H   0  0  0  0  0  0  0  0  0  0  0  0
   -3.1853   22.2404  -32.6562 H   0  0  0  0  0  0  0  0  0  0  0  0
   -2.3015   23.0296  -30.4652 H   0  0  0  0  0  0  0  0  0  0  0  0
   -0.3275   22.5019  -25.0067 H   0  0  0  0  0  0  0  0  0  0  0  0
   -0.1737   24.6890  -23.8297 H   0  0  0  0  0  0  0  0  0  0  0  0
   -1.0748   26.7539  -24.9063 H   0  0  0  0  0  0  0  0  0  0  0  0
   -2.2042   26.6153  -27.1228 H   0  0  0  0  0  0  0  0  0  0  0  0
   -5.3397   21.5889  -29.4482 H   0  0  0  0  0  0  0  0  0  0  0  0
   -4.9264   20.4598  -32.6576 H   0  0  0  0  0  0  0  0  0  0  0  0
   -4.4801   18.7750  -32.1236 H   0  0  0  0  0  0  0  0  0  0  0  0
   -6.5423   19.5766  -34.2317 H   0  0  0  0  0  0  0  0  0  0  0  0
   -4.9900   18.6621  -34.4580 H   0  0  0  0  0  0  0  0  0  0  0  0
   -8.2526   18.6298  -33.1036 H   0  0  0  0  0  0  0  0  0  0  0  0
   -8.1757   16.8991  -32.6134 H   0  0  0  0  0  0  0  0  0  0  0  0
   -7.9473   18.4016  -30.6507 H   0  0  0  0  0  0  0  0  0  0  0  0
   -6.4369   17.4460  -30.9425 H   0  0  0  0  0  0  0  0  0  0  0  0
   -7.2113   23.4876  -32.8596 H   0  0  0  0  0  0  0  0  0  0  0  0
   -5.9490   25.5822  -32.3943 H   0  0  0  0  0  0  0  0  0  0  0  0
   -3.4860   26.0400  -29.7700 H   0  0  0  0  0  0  0  0  0  0  0  0
    0.4568   19.4409  -28.9936 H   0  0  0  0  0  0  0  0  0  0  0  0
    0.4755   18.2812  -30.3652 H   0  0  0  0  0  0  0  0  0  0  0  0
    1.5895   19.6903  -30.3652 H   0  0  0  0  0  0  0  0  0  0  0  0
   -0.6247   18.7574  -32.4410 H   0  0  0  0  0  0  0  0  0  0  0  0
  1  2  1  0
  2  3  2  0
  3  4  1  0
  4  5  2  0
  5  6  1  0
  6  7  1  0
  7  8  2  0
  7  9  2  0
  7 10  1  0
 10 11  2  0
 11 12  1  0
 12 13  2  0
 13 14  1  0
 14 15  2  0
 15 16  1  0
 16 17  2  0
 16 18  1  0
 18 19  1  0
 19 20  2  0
 20 21  1  0
 21 22  1  0
 22 23  2  0
 22 24  2  0
 22 25  1  0
 25 26  1  0
 26 27  1  0
 27 28  1  0
 28 29  1  0
 29 30  1  0
 21 31  2  0
 31 32  1  0
 32 33  2  0
 33 34  1  0
  5 35  1  0
 35 36  1  0
 35 37  2  0
 37  2  1  0
 15 10  1  0
 33 19  1  0
 30 25  1  0
  1 38  1  0
  1 39  1  0
  1 40  1  0
  3 41  1  0
  4 42  1  0
 11 43  1  0
 12 44  1  0
 13 45  1  0
 14 46  1  0
 20 47  1  0
 26 48  1  0
 26 49  1  0
 27 50  1  0
 27 51  1  0
 29 52  1  0
 29 53  1  0
 30 54  1  0
 30 55  1  0
 31 56  1  0
 32 57  1  0
 34 58  1  0
 36 59  1  0
 36 60  1  0
 36 61  1  0
 37 62  1  0
M  CHG  2   6  -1  18  -1
M  END
>  <UniqueID>  (21) 
20

>  <SMILES>  (21) 
Cc1ccc([N-]S(=O)(=O)c2ccccc2C(=O)[N-]c2cc(S(=O)(=O)N3CCOCC3)ccc2O)c(C)c1

>  <Energy>  (21) 
91.82068716764076

>  <Genealogy>  (21) 
Cc1ccc([N-]S(=O)(=O)c2ccccc2C(=O)[N-]c2cc(S(=O)(=O)N3CCOCC3)ccc2O)c(C)c1 (protonated)
Cc1ccc([N-]S(=O)(=O)c2ccccc2C(=O)[N-]c2cc(S(=O)(=O)N3CCOCC3)ccc2O)c(C)c1 (3D coordinates assigned)
Cc1ccc([N-]S(=O)(=O)c2ccccc2C(=O)[N-]c2cc(S(=O)(=O)N3CCOCC3)ccc2O)c(C)c1 (nonaromatic ring conformer: 91.82068716764076 kcal/mol)

>  <smiles>  (21) 
Cc1ccc(NS(=O)(=O)c2ccccc2C(=O)Nc2cc(S(=O)(=O)N3CCOCC3)ccc2O)c(C)c1

>  <score_type>  (21) 
oracle

>  <origin>  (21) 
adgpu

>  <m_score__min__energy>  (21) 
-12.51

>  <m_primary>  (21) 
energy

$$$$
21:0
     RDKit          3D

 66 69  0  0  0  0  0  0  0  0999 V2000
   -5.9110   16.5350  -34.2270 C   0  0  0  0  0  0  0  0  0  0  0  0
   -6.3500   17.8310  -33.6120 C   0  0  0  0  0  0  0  0  0  0  0  0
   -5.6340   19.0070  -33.8620 C   0  0  0  0  0  0  0  0  0  0  0  0
   -6.0140   20.2050  -33.2560 C   0  0  0  0  0  0  0  0  0  0  0  0
   -7.1040   20.2480  -32.3710 C   0  0  0  0  0  0  0  0  0  0  0  0
   -7.5320   21.7990  -31.6260 S   0  0  0  0  0  0  0  0  0  0  0  0
   -7.8670   21.6020  -30.1730 O   0  0  0  0  0  0  0  0  0  0  0  0
   -8.7330   22.3540  -32.3420 O   0  0  0  0  0  0  0  0  0  0  0  0
   -6.2010   22.9270  -31.7530 N   0  0  0  0  0  0  0  0  0  0  0  0
   -4.9720   22.3750  -31.1280 C   0  0  0  0  0  0  0  0  0  0  0  0
   -4.6860   22.9670  -29.7390 C   0  0  0  0  0  0  0  0  0  0  0  0
   -4.5240   24.5010  -29.8020 C   0  0  0  0  0  0  0  0  0  0  0  0
   -3.1080   24.8220  -30.0200 N   0  0  0  0  0  0  0  0  0  0  0  0
   -2.2280   24.9160  -28.5200 S   0  0  0  0  0  0  0  0  0  0  0  0
   -1.4150   26.1810  -28.5110 O   0  0  0  0  0  0  0  0  0  0  0  0
   -3.1910   24.9680  -27.3660 O   0  0  0  0  0  0  0  0  0  0  0  0
   -1.1360   23.5440  -28.3430 C   0  0  0  0  0  0  0  0  0  0  0  0
   -0.3570   23.3950  -27.1880 C   0  0  0  0  0  0  0  0  0  0  0  0
    0.4940   22.2950  -27.0540 C   0  0  0  0  0  0  0  0  0  0  0  0
    0.5670   21.3360  -28.0680 C   0  0  0  0  0  0  0  0  0  0  0  0
   -0.2180   21.4700  -29.2210 C   0  0  0  0  0  0  0  0  0  0  0  0
   -0.1180   20.2820  -30.5180 S   0  0  0  0  0  0  0  0  0  0  0  0
    1.3210   19.9180  -30.7670 O   0  0  0  0  0  0  0  0  0  0  0  0
   -0.8590   19.0430  -30.0970 O   0  0  0  0  0  0  0  0  0  0  0  0
   -0.8360   20.9330  -31.9700 N   0  0  0  0  0  0  0  0  0  0  0  0
   -0.1670   20.3680  -33.1530 C   0  0  0  0  0  0  0  0  0  0  0  0
   -0.8620   20.8710  -34.4250 C   0  0  0  0  0  0  0  0  0  0  0  0
   -2.2320   20.5120  -34.4230 O   0  0  0  0  0  0  0  0  0  0  0  0
   -2.8820   21.1040  -33.3150 C   0  0  0  0  0  0  0  0  0  0  0  0
   -2.2700   20.6090  -31.9990 C   0  0  0  0  0  0  0  0  0  0  0  0
   -1.0660   22.5780  -29.3580 C   0  0  0  0  0  0  0  0  0  0  0  0
   -5.3990   25.1270  -30.9150 C   0  0  0  0  0  0  0  0  0  0  0  0
   -6.6130   24.2480  -31.2290 C   0  0  0  0  0  0  0  0  0  0  0  0
   -7.8440   19.0650  -32.1270 C   0  0  0  0  0  0  0  0  0  0  0  0
   -9.0340   19.0470  -31.2030 C   0  0  0  0  0  0  0  0  0  0  0  0
   -7.4410   17.8630  -32.7330 C   0  0  0  0  0  0  0  0  0  0  0  0
   -5.6673   15.8156  -33.4314 H   0  0  0  0  0  0  0  0  0  0  0  0
   -6.7226   16.1314  -34.8503 H   0  0  0  0  0  0  0  0  0  0  0  0
   -5.0212   16.7077  -34.8503 H   0  0  0  0  0  0  0  0  0  0  0  0
   -4.7676   18.9869  -34.5394 H   0  0  0  0  0  0  0  0  0  0  0  0
   -5.4537   21.1262  -33.4737 H   0  0  0  0  0  0  0  0  0  0  0  0
   -5.0889   21.2859  -31.0274 H   0  0  0  0  0  0  0  0  0  0  0  0
   -4.1253   22.6391  -31.7786 H   0  0  0  0  0  0  0  0  0  0  0  0
   -5.5220   22.7229  -29.0670 H   0  0  0  0  0  0  0  0  0  0  0  0
   -3.7457   22.5350  -29.3659 H   0  0  0  0  0  0  0  0  0  0  0  0
   -4.8638   24.9290  -28.8474 H   0  0  0  0  0  0  0  0  0  0  0  0
   -0.4155   24.1451  -26.3856 H   0  0  0  0  0  0  0  0  0  0  0  0
    1.1080   22.1835  -26.1482 H   0  0  0  0  0  0  0  0  0  0  0  0
    1.2421   20.4742  -27.9608 H   0  0  0  0  0  0  0  0  0  0  0  0
    0.8871   20.6823  -33.1628 H   0  0  0  0  0  0  0  0  0  0  0  0
   -0.2229   19.2701  -33.1154 H   0  0  0  0  0  0  0  0  0  0  0  0
   -0.7760   21.9665  -34.4742 H   0  0  0  0  0  0  0  0  0  0  0  0
   -0.3772   20.4102  -35.2983 H   0  0  0  0  0  0  0  0  0  0  0  0
   -2.7739   22.1970  -33.3748 H   0  0  0  0  0  0  0  0  0  0  0  0
   -3.9454   20.8236  -33.3378 H   0  0  0  0  0  0  0  0  0  0  0  0
   -2.7736   21.1002  -31.1533 H   0  0  0  0  0  0  0  0  0  0  0  0
   -2.4002   19.5194  -31.9223 H   0  0  0  0  0  0  0  0  0  0  0  0
   -1.6787   22.6904  -30.2646 H   0  0  0  0  0  0  0  0  0  0  0  0
   -5.7488   26.1155  -30.5824 H   0  0  0  0  0  0  0  0  0  0  0  0
   -4.7898   25.2161  -31.8266 H   0  0  0  0  0  0  0  0  0  0  0  0
   -7.1969   24.1017  -30.3083 H   0  0  0  0  0  0  0  0  0  0  0  0
   -7.2168   24.7527  -31.9976 H   0  0  0  0  0  0  0  0  0  0  0  0
   -8.6877   19.0522  -30.1590 H   0  0  0  0  0  0  0  0  0  0  0  0
   -9.6551   19.9359  -31.3877 H   0  0  0  0  0  0  0  0  0  0  0  0
   -9.6280   18.1398  -31.3877 H   0  0  0  0  0  0  0  0  0  0  0  0
   -7.9892   16.9347  -32.5145 H   0  0  0  0  0  0  0  0  0  0  0  0
  1  2  1  0
  2  3  2  0
  3  4  1  0
  4  5  2  0
  5  6  1  0
  6  7  2  0
  6  8  2  0
  6  9  1  0
  9 10  1  0
 10 11  1  0
 11 12  1  0
 12 13  1  0
 13 14  1  0
 14 15  2  0
 14 16  2  0
 14 17  1  0
 17 18  2  0
 18 19  1  0
 19 20  2  0
 20 21  1  0
 21 22  1  0
 22 23  2  0
 22 24  2  0
 22 25  1  0
 25 26  1  0
 26 27  1  0
 27 28  1  0
 28 29  1  0
 29 30  1  0
 21 31  2  0
 12 32  1  0
 32 33  1  0
  5 34  1  0
 34 35  1  0
 34 36  2  0
 36  2  1  0
 33  9  1  0
 31 17  1  0
 30 25  1  0
  1 37  1  0
  1 38  1  0
  1 39  1  0
  3 40  1  0
  4 41  1  0
 10 42  1  0
 10 43  1  0
 11 44  1  0
 11 45  1  0
 12 46  1  0
 18 47  1  0
 19 48  1  0
 20 49  1  0
 26 50  1  0
 26 51  1  0
 27 52  1  0
 27 53  1  0
 29 54  1  0
 29 55  1  0
 30 56  1  0
 30 57  1  0
 31 58  1  0
 32 59  1  0
 32 60  1  0
 33 61  1  0
 33 62  1  0
 35 63  1  0
 35 64  1  0
 35 65  1  0
 36 66  1  0
M  CHG  1  13  -1
M  END
>  <UniqueID>  (22) 
21

>  <SMILES>  (22) 
Cc1ccc(S(=O)(=O)N2CCC([N-]S(=O)(=O)c3cccc(S(=O)(=O)N4CCOCC4)c3)CC2)c(C)c1

>  <Energy>  (22) 
74.4893916578556

>  <Genealogy>  (22) 
Cc1ccc(S(=O)(=O)N2CCC([N-]S(=O)(=O)c3cccc(S(=O)(=O)N4CCOCC4)c3)CC2)c(C)c1 (protonated)
Cc1ccc(S(=O)(=O)N2CCC([N-]S(=O)(=O)c3cccc(S(=O)(=O)N4CCOCC4)c3)CC2)c(C)c1 (3D coordinates assigned)
Cc1ccc(S(=O)(=O)N2CCC([N-]S(=O)(=O)c3cccc(S(=O)(=O)N4CCOCC4)c3)CC2)c(C)c1 (nonaromatic ring conformer: 74.4893916578556 kcal/mol)

>  <smiles>  (22) 
Cc1ccc(S(=O)(=O)N2CCC(NS(=O)(=O)c3cccc(S(=O)(=O)N4CCOCC4)c3)CC2)c(C)c1

>  <score_type>  (22) 
oracle

>  <origin>  (22) 
adgpu

>  <m_score__min__energy>  (22) 
-13.49

>  <m_primary>  (22) 
energy

$$$$
22:0
     RDKit          3D

 60 64  0  0  0  0  0  0  0  0999 V2000
   -5.6550   23.2700  -29.7650 N   0  0  0  0  0  0  0  0  0  0  0  0
   -4.7890   22.3670  -30.4640 C   0  0  0  0  0  0  0  0  0  0  0  0
   -3.4150   22.3680  -30.1820 C   0  0  0  0  0  0  0  0  0  0  0  0
   -2.5460   21.5130  -30.8720 C   0  0  0  0  0  0  0  0  0  0  0  0
   -0.8170   21.5550  -30.5190 S   0  0  0  0  0  0  0  0  0  0  0  0
   -0.1160   21.9110  -31.7980 O   0  0  0  0  0  0  0  0  0  0  0  0
   -0.5400   22.6210  -29.4970 O   0  0  0  0  0  0  0  0  0  0  0  0
   -0.2600   19.9870  -29.8960 C   0  0  0  0  0  0  0  0  0  0  0  0
    0.6330   19.2420  -30.6870 C   0  0  0  0  0  0  0  0  0  0  0  0
    1.1140   18.0060  -30.2560 C   0  0  0  0  0  0  0  0  0  0  0  0
    0.7060   17.4890  -29.0320 C   0  0  0  0  0  0  0  0  0  0  0  0
   -0.1920   18.1990  -28.2370 C   0  0  0  0  0  0  0  0  0  0  0  0
   -0.6970   19.4430  -28.6560 C   0  0  0  0  0  0  0  0  0  0  0  0
   -1.8380   20.2720  -27.5770 S   0  0  0  0  0  0  0  0  0  0  0  0
   -2.1090   19.4160  -26.3720 O   0  0  0  0  0  0  0  0  0  0  0  0
   -3.1380   20.4820  -28.3030 O   0  0  0  0  0  0  0  0  0  0  0  0
   -1.1820   21.8200  -27.0210 C   0  0  0  0  0  0  0  0  0  0  0  0
    0.1820   21.9240  -26.7040 C   0  0  0  0  0  0  0  0  0  0  0  0
    0.7220   23.1390  -26.2760 C   0  0  0  0  0  0  0  0  0  0  0  0
   -0.0920   24.2660  -26.1470 C   0  0  0  0  0  0  0  0  0  0  0  0
   -1.4580   24.1790  -26.4450 C   0  0  0  0  0  0  0  0  0  0  0  0
   -2.2960   25.2950  -26.3150 C   0  0  0  0  0  0  0  0  0  0  0  0
   -3.6540   25.1810  -26.6120 C   0  0  0  0  0  0  0  0  0  0  0  0
   -4.1650   23.9520  -27.0340 C   0  0  0  0  0  0  0  0  0  0  0  0
   -3.3420   22.8780  -27.1570 N   0  0  0  0  0  0  0  0  0  0  0  0
   -2.0110   22.9510  -26.8800 C   0  0  0  0  0  0  0  0  0  0  0  0
   -3.0510   20.6560  -31.8570 C   0  0  0  0  0  0  0  0  0  0  0  0
   -4.4180   20.6460  -32.1420 C   0  0  0  0  0  0  0  0  0  0  0  0
   -5.2940   21.4910  -31.4470 C   0  0  0  0  0  0  0  0  0  0  0  0
   -6.6940   21.4550  -31.7480 N   0  0  0  0  0  0  0  0  0  0  0  0
   -7.4020   20.1710  -31.6800 C   0  0  0  0  0  0  0  0  0  0  0  0
   -8.8710   20.3190  -32.0910 C   0  0  0  0  0  0  0  0  0  0  0  0
   -9.4920   21.5410  -31.4060 C   0  0  0  0  0  0  0  0  0  0  0  0
   -8.7340   22.8520  -31.7120 C   0  0  0  0  0  0  0  0  0  0  0  0
   -7.3400   22.6370  -32.3270 C   0  0  0  0  0  0  0  0  0  0  0  0
   -6.4040   23.8030  -30.2590 H   0  0  0  0  0  0  0  0  0  0  0  0
   -5.5350   23.4350  -28.7410 H   0  0  0  0  0  0  0  0  0  0  0  0
   -3.0166   23.0458  -29.4127 H   0  0  0  0  0  0  0  0  0  0  0  0
    0.9568   19.6401  -31.6600 H   0  0  0  0  0  0  0  0  0  0  0  0
    1.8167   17.4399  -30.8851 H   0  0  0  0  0  0  0  0  0  0  0  0
    1.0926   16.5176  -28.6901 H   0  0  0  0  0  0  0  0  0  0  0  0
   -0.5096   17.7814  -27.2702 H   0  0  0  0  0  0  0  0  0  0  0  0
    0.8312   21.0405  -26.7936 H   0  0  0  0  0  0  0  0  0  0  0  0
    1.7940   23.2083  -26.0394 H   0  0  0  0  0  0  0  0  0  0  0  0
    0.3388   25.2210  -25.8118 H   0  0  0  0  0  0  0  0  0  0  0  0
   -1.8838   26.2581  -25.9797 H   0  0  0  0  0  0  0  0  0  0  0  0
   -4.3176   26.0529  -26.5145 H   0  0  0  0  0  0  0  0  0  0  0  0
   -5.2354   23.8532  -27.2672 H   0  0  0  0  0  0  0  0  0  0  0  0
   -2.3702   19.9897  -32.4071 H   0  0  0  0  0  0  0  0  0  0  0  0
   -4.8098   19.9707  -32.9169 H   0  0  0  0  0  0  0  0  0  0  0  0
   -6.9115   19.4558  -32.3567 H   0  0  0  0  0  0  0  0  0  0  0  0
   -7.3681   19.8120  -30.6408 H   0  0  0  0  0  0  0  0  0  0  0  0
   -8.9321   20.4440  -33.1822 H   0  0  0  0  0  0  0  0  0  0  0  0
   -9.4218   19.4175  -31.7847 H   0  0  0  0  0  0  0  0  0  0  0  0
  -10.5307   21.6472  -31.7521 H   0  0  0  0  0  0  0  0  0  0  0  0
   -9.4372   21.3739  -30.3201 H   0  0  0  0  0  0  0  0  0  0  0  0
   -9.3362   23.4438  -32.4171 H   0  0  0  0  0  0  0  0  0  0  0  0
   -8.5833   23.3656  -30.7510 H   0  0  0  0  0  0  0  0  0  0  0  0
   -7.4424   22.4967  -33.4132 H   0  0  0  0  0  0  0  0  0  0  0  0
   -6.7193   23.5195  -32.1126 H   0  0  0  0  0  0  0  0  0  0  0  0
  1  2  1  0
  2  3  2  0
  3  4  1  0
  4  5  1  0
  5  6  2  0
  5  7  2  0
  5  8  1  0
  8  9  2  0
  9 10  1  0
 10 11  2  0
 11 12  1  0
 12 13  2  0
 13 14  1  0
 14 15  2  0
 14 16  2  0
 14 17  1  0
 17 18  2  0
 18 19  1  0
 19 20  2  0
 20 21  1  0
 21 22  2  0
 22 23  1  0
 23 24  2  0
 24 25  1  0
 25 26  2  0
  4 27  2  0
 27 28  1  0
 28 29  2  0
 29 30  1  0
 30 31  1  0
 31 32  1  0
 32 33  1  0
 33 34  1  0
 34 35  1  0
 29  2  1  0
 35 30  1  0
 13  8  1  0
 26 17  1  0
 26 21  1  0
  1 36  1  0
  1 37  1  0
  3 38  1  0
  9 39  1  0
 10 40  1  0
 11 41  1  0
 12 42  1  0
 18 43  1  0
 19 44  1  0
 20 45  1  0
 22 46  1  0
 23 47  1  0
 24 48  1  0
 27 49  1  0
 28 50  1  0
 31 51  1  0
 31 52  1  0
 32 53  1  0
 32 54  1  0
 33 55  1  0
 33 56  1  0
 34 57  1  0
 34 58  1  0
 35 59  1  0
 35 60  1  0
M  END
>  <UniqueID>  (23) 
22

>  <SMILES>  (23) 
Nc1cc(S(=O)(=O)c2ccccc2S(=O)(=O)c2cccc3cccnc23)ccc1N1CCCCC1

>  <Energy>  (23) 
83.28906841547855

>  <Genealogy>  (23) 
Nc1cc(S(=O)(=O)c2ccccc2S(=O)(=O)c2cccc3cccnc23)ccc1N1CCCCC1 (3D coordinates assigned)
Nc1cc(S(=O)(=O)c2ccccc2S(=O)(=O)c2cccc3cccnc23)ccc1N1CCCCC1 (nonaromatic ring conformer: 83.28906841547855 kcal/mol)

>  <smiles>  (23) 
Nc1cc(S(=O)(=O)c2ccccc2S(=O)(=O)c2cccc3cccnc23)ccc1N1CCCCC1

>  <score_type>  (23) 
oracle

>  <origin>  (23) 
adgpu

>  <m_score__min__energy>  (23) 
-11.109999999999999

>  <m_primary>  (23) 
energy

$$$$
23:0
     RDKit          3D

 59 64  0  0  0  0  0  0  0  0999 V2000
   -0.7300   23.2720  -26.5070 O   0  0  0  0  0  0  0  0  0  0  0  0
    0.0650   22.7720  -27.6790 S   0  0  0  0  0  0  0  0  0  0  0  0
    1.5190   23.0450  -27.4160 O   0  0  0  0  0  0  0  0  0  0  0  0
   -0.4180   23.6340  -29.1070 N   0  0  0  0  0  0  0  0  0  0  0  0
   -1.7710   23.6830  -29.5680 C   0  0  0  0  0  0  0  0  0  0  0  0
   -2.3760   22.5490  -30.1460 C   0  0  0  0  0  0  0  0  0  0  0  0
   -3.7130   22.6280  -30.5210 C   0  0  0  0  0  0  0  0  0  0  0  0
   -4.4400   23.7910  -30.3850 C   0  0  0  0  0  0  0  0  0  0  0  0
   -3.8500   24.9440  -29.8650 C   0  0  0  0  0  0  0  0  0  0  0  0
   -2.5050   24.8870  -29.4560 C   0  0  0  0  0  0  0  0  0  0  0  0
   -1.9050   26.0220  -28.9220 O   0  0  0  0  0  0  0  0  0  0  0  0
   -5.8600   23.6060  -30.8340 C   0  0  0  0  0  0  0  0  0  0  0  0
   -5.8430   22.1520  -31.2320 C   0  0  0  0  0  0  0  0  0  0  0  0
   -4.5860   21.6030  -31.0490 C   0  0  0  0  0  0  0  0  0  0  0  0
   -4.3150   20.2630  -31.3090 C   0  0  0  0  0  0  0  0  0  0  0  0
   -5.3580   19.4500  -31.7790 C   0  0  0  0  0  0  0  0  0  0  0  0
   -6.6500   19.9870  -31.9780 C   0  0  0  0  0  0  0  0  0  0  0  0
   -7.6950   19.1720  -32.4400 C   0  0  0  0  0  0  0  0  0  0  0  0
   -8.9790   19.7060  -32.6250 C   0  0  0  0  0  0  0  0  0  0  0  0
  -10.0210   18.9030  -33.0810 O   0  0  0  0  0  0  0  0  0  0  0  0
   -9.2210   21.0560  -32.3480 C   0  0  0  0  0  0  0  0  0  0  0  0
   -8.1910   21.8820  -31.8880 C   0  0  0  0  0  0  0  0  0  0  0  0
   -6.9030   21.3600  -31.7000 C   0  0  0  0  0  0  0  0  0  0  0  0
   -0.1650   21.0340  -27.8580 C   0  0  0  0  0  0  0  0  0  0  0  0
   -0.8800   20.3140  -26.8910 C   0  0  0  0  0  0  0  0  0  0  0  0
   -1.1410   18.9540  -27.0790 C   0  0  0  0  0  0  0  0  0  0  0  0
   -0.6910   18.3080  -28.2330 C   0  0  0  0  0  0  0  0  0  0  0  0
    0.0240   19.0180  -29.2070 C   0  0  0  0  0  0  0  0  0  0  0  0
    0.5870   18.2090  -30.6730 S   0  0  0  0  0  0  0  0  0  0  0  0
    2.0900   18.2280  -30.6930 O   0  0  0  0  0  0  0  0  0  0  0  0
    0.1430   16.7730  -30.6380 O   0  0  0  0  0  0  0  0  0  0  0  0
   -0.0030   18.9580  -32.1370 N   0  0  0  0  0  0  0  0  0  0  0  0
   -0.3270   20.3720  -31.9520 C   0  0  0  0  0  0  0  0  0  0  0  0
   -1.3850   20.7150  -32.9930 C   0  0  0  0  0  0  0  0  0  0  0  0
   -1.9270   19.3780  -33.4750 C   0  0  0  0  0  0  0  0  0  0  0  0
   -1.2360   18.3350  -32.6110 C   0  0  0  0  0  0  0  0  0  0  0  0
    0.2930   20.3810  -29.0100 C   0  0  0  0  0  0  0  0  0  0  0  0
   -1.8035   21.6220  -30.2972 H   0  0  0  0  0  0  0  0  0  0  0  0
   -4.4246   25.8779  -29.7768 H   0  0  0  0  0  0  0  0  0  0  0  0
   -6.5710   23.7935  -30.0159 H   0  0  0  0  0  0  0  0  0  0  0  0
   -6.1787   24.2930  -31.6318 H   0  0  0  0  0  0  0  0  0  0  0  0
   -3.3076   19.8509  -31.1500 H   0  0  0  0  0  0  0  0  0  0  0  0
   -5.1686   18.3879  -31.9939 H   0  0  0  0  0  0  0  0  0  0  0  0
   -7.5065   18.1104  -32.6579 H   0  0  0  0  0  0  0  0  0  0  0  0
  -10.3540   18.1110  -32.5440 H   0  0  0  0  0  0  0  0  0  0  0  0
  -10.2294   21.4707  -32.4933 H   0  0  0  0  0  0  0  0  0  0  0  0
   -8.3910   22.9421  -31.6734 H   0  0  0  0  0  0  0  0  0  0  0  0
   -1.2365   20.8206  -25.9820 H   0  0  0  0  0  0  0  0  0  0  0  0
   -1.7013   18.3917  -26.3176 H   0  0  0  0  0  0  0  0  0  0  0  0
   -0.8987   17.2375  -28.3778 H   0  0  0  0  0  0  0  0  0  0  0  0
   -0.7216   20.5418  -30.9394 H   0  0  0  0  0  0  0  0  0  0  0  0
    0.5662   21.0029  -32.0709 H   0  0  0  0  0  0  0  0  0  0  0  0
   -2.1884   21.3156  -32.5416 H   0  0  0  0  0  0  0  0  0  0  0  0
   -0.9677   21.3088  -33.8196 H   0  0  0  0  0  0  0  0  0  0  0  0
   -3.0175   19.3316  -33.3383 H   0  0  0  0  0  0  0  0  0  0  0  0
   -1.7354   19.2179  -34.5463 H   0  0  0  0  0  0  0  0  0  0  0  0
   -1.8761   18.0584  -31.7602 H   0  0  0  0  0  0  0  0  0  0  0  0
   -1.0306   17.4146  -33.1772 H   0  0  0  0  0  0  0  0  0  0  0  0
    0.8666   20.9399  -29.7641 H   0  0  0  0  0  0  0  0  0  0  0  0
  1  2  2  0
  2  3  2  0
  2  4  1  0
  4  5  1  0
  5  6  2  0
  6  7  1  0
  7  8  2  0
  8  9  1  0
  9 10  2  0
 10 11  1  0
  8 12  1  0
 12 13  1  0
 13 14  2  0
 14 15  1  0
 15 16  2  0
 16 17  1  0
 17 18  2  0
 18 19  1  0
 19 20  1  0
 19 21  2  0
 21 22  1  0
 22 23  2  0
  2 24  1  0
 24 25  2  0
 25 26  1  0
 26 27  2  0
 27 28  1  0
 28 29  1  0
 29 30  2  0
 29 31  2  0
 29 32  1  0
 32 33  1  0
 33 34  1  0
 34 35  1  0
 35 36  1  0
 28 37  2  0
 10  5  1  0
 23 13  1  0
 37 24  1  0
 14  7  1  0
 23 17  1  0
 36 32  1  0
  6 38  1  0
  9 39  1  0
 12 40  1  0
 12 41  1  0
 15 42  1  0
 16 43  1  0
 18 44  1  0
 20 45  1  0
 21 46  1  0
 22 47  1  0
 25 48  1  0
 26 49  1  0
 27 50  1  0
 33 51  1  0
 33 52  1  0
 34 53  1  0
 34 54  1  0
 35 55  1  0
 35 56  1  0
 36 57  1  0
 36 58  1  0
 37 59  1  0
M  CHG  2   4  -1  11  -1
M  END
>  <UniqueID>  (24) 
23

>  <SMILES>  (24) 
O=S(=O)([N-]c1cc2c(cc1[O-])Cc1c-2ccc2cc(O)ccc12)c1cccc(S(=O)(=O)N2CCCC2)c1

>  <Energy>  (24) 
96.69434088280896

>  <Genealogy>  (24) 
O=S(=O)([N-]c1cc2c(cc1[O-])Cc1c-2ccc2cc(O)ccc12)c1cccc(S(=O)(=O)N2CCCC2)c1 (protonated)
O=S(=O)([N-]c1cc2c(cc1[O-])Cc1c-2ccc2cc(O)ccc12)c1cccc(S(=O)(=O)N2CCCC2)c1 (3D coordinates assigned)
O=S(=O)([N-]c1cc2c(cc1[O-])Cc1c-2ccc2cc(O)ccc12)c1cccc(S(=O)(=O)N2CCCC2)c1 (nonaromatic ring conformer: 96.69434088280896 kcal/mol)

>  <smiles>  (24) 
O=S(=O)(Nc1cc2c(cc1O)Cc1c-2ccc2cc(O)ccc12)c1cccc(S(=O)(=O)N2CCCC2)c1

>  <score_type>  (24) 
oracle

>  <origin>  (24) 
adgpu

>  <m_score__min__energy>  (24) 
-14.630000000000001

>  <m_primary>  (24) 
energy

$$$$
24:0
     RDKit          3D

 72 76  0  0  0  0  0  0  0  0999 V2000
   -6.1260   25.6670  -30.7470 O   0  0  0  0  0  0  0  0  0  0  0  0
   -5.1480   24.8990  -30.9540 C   0  0  0  0  0  0  0  0  0  0  0  0
   -5.3230   23.6640  -31.7810 C   0  0  0  0  0  0  0  0  0  0  0  0
   -6.6800   23.1560  -31.6070 N   0  0  0  0  0  0  0  0  0  0  0  0
   -6.9990   21.9250  -31.1600 C   0  0  0  0  0  0  0  0  0  0  0  0
   -8.3500   21.7500  -31.3670 C   0  0  0  0  0  0  0  0  0  0  0  0
   -9.0930   20.5300  -31.2730 N   0  0  0  0  0  0  0  0  0  0  0  0
   -8.8470   19.3800  -32.0900 C   0  0  0  0  0  0  0  0  0  0  0  0
   -9.8240   18.6570  -32.4260 O   0  0  0  0  0  0  0  0  0  0  0  0
   -7.4730   18.9900  -32.4920 C   0  0  0  0  0  0  0  0  0  0  0  0
   -6.7820   17.9940  -31.7800 C   0  0  0  0  0  0  0  0  0  0  0  0
   -5.4550   17.6870  -32.0950 C   0  0  0  0  0  0  0  0  0  0  0  0
   -4.7980   18.3680  -33.1270 C   0  0  0  0  0  0  0  0  0  0  0  0
   -3.1000   18.0330  -33.4790 S   0  0  0  0  0  0  0  0  0  0  0  0
   -2.9390   17.7890  -34.9540 O   0  0  0  0  0  0  0  0  0  0  0  0
   -2.6940   16.7790  -32.7560 O   0  0  0  0  0  0  0  0  0  0  0  0
   -2.0470   19.3470  -33.0070 N   0  0  0  0  0  0  0  0  0  0  0  0
   -1.5150   20.0350  -34.1920 C   0  0  0  0  0  0  0  0  0  0  0  0
   -0.5940   21.1970  -33.7600 C   0  0  0  0  0  0  0  0  0  0  0  0
   -0.5540   21.3450  -32.3500 O   0  0  0  0  0  0  0  0  0  0  0  0
   -1.8660   21.5320  -31.8530 C   0  0  0  0  0  0  0  0  0  0  0  0
   -2.7550   20.3050  -32.1420 C   0  0  0  0  0  0  0  0  0  0  0  0
   -5.4830   19.3600  -33.8410 C   0  0  0  0  0  0  0  0  0  0  0  0
   -6.8110   19.6650  -33.5320 C   0  0  0  0  0  0  0  0  0  0  0  0
   -8.8030   22.9190  -31.9380 C   0  0  0  0  0  0  0  0  0  0  0  0
   -7.7590   23.7580  -32.0880 N   0  0  0  0  0  0  0  0  0  0  0  0
   -3.8510   25.2540  -30.4750 N   0  0  0  0  0  0  0  0  0  0  0  0
   -3.1460   24.5410  -29.4470 C   0  0  0  0  0  0  0  0  0  0  0  0
   -3.6630   23.3650  -28.8710 C   0  0  0  0  0  0  0  0  0  0  0  0
   -3.0060   22.7610  -27.7970 C   0  0  0  0  0  0  0  0  0  0  0  0
   -1.8340   23.3230  -27.2880 C   0  0  0  0  0  0  0  0  0  0  0  0
   -1.2990   24.4870  -27.8640 C   0  0  0  0  0  0  0  0  0  0  0  0
    0.2050   25.1760  -27.2360 S   0  0  0  0  0  0  0  0  0  0  0  0
    0.2270   26.6390  -27.5860 O   0  0  0  0  0  0  0  0  0  0  0  0
    1.3580   24.5210  -27.9440 O   0  0  0  0  0  0  0  0  0  0  0  0
    0.4340   24.9520  -25.5080 N   0  0  0  0  0  0  0  0  0  0  0  0
   -0.8150   25.0180  -24.7110 C   0  0  0  0  0  0  0  0  0  0  0  0
   -0.8180   26.1350  -23.6500 C   0  0  0  0  0  0  0  0  0  0  0  0
   -0.2100   27.4220  -24.2010 C   0  0  0  0  0  0  0  0  0  0  0  0
    1.2170   27.2060  -24.7400 C   0  0  0  0  0  0  0  0  0  0  0  0
    1.5640   25.7230  -24.9560 C   0  0  0  0  0  0  0  0  0  0  0  0
   -1.9490   25.0760  -28.9570 C   0  0  0  0  0  0  0  0  0  0  0  0
   -5.1536   23.9044  -32.8410 H   0  0  0  0  0  0  0  0  0  0  0  0
   -4.5994   22.9000  -31.4606 H   0  0  0  0  0  0  0  0  0  0  0  0
   -6.3084   21.1950  -30.7126 H   0  0  0  0  0  0  0  0  0  0  0  0
   -7.2896   17.4519  -30.9685 H   0  0  0  0  0  0  0  0  0  0  0  0
   -4.9245   16.9068  -31.5294 H   0  0  0  0  0  0  0  0  0  0  0  0
   -0.9398   19.3211  -34.7999 H   0  0  0  0  0  0  0  0  0  0  0  0
   -2.3519   20.4379  -34.7813 H   0  0  0  0  0  0  0  0  0  0  0  0
    0.4243   20.9983  -34.1256 H   0  0  0  0  0  0  0  0  0  0  0  0
   -0.9953   22.1271  -34.1888 H   0  0  0  0  0  0  0  0  0  0  0  0
   -1.8179   21.6915  -30.7657 H   0  0  0  0  0  0  0  0  0  0  0  0
   -2.3063   22.4059  -32.3555 H   0  0  0  0  0  0  0  0  0  0  0  0
   -3.0128   19.8132  -31.1924 H   0  0  0  0  0  0  0  0  0  0  0  0
   -3.6680   20.6405  -32.6557 H   0  0  0  0  0  0  0  0  0  0  0  0
   -4.9719   19.9023  -34.6502 H   0  0  0  0  0  0  0  0  0  0  0  0
   -7.3419   20.4384  -34.1064 H   0  0  0  0  0  0  0  0  0  0  0  0
   -9.8436   23.1322  -32.2239 H   0  0  0  0  0  0  0  0  0  0  0  0
   -4.5875   22.9205  -29.2683 H   0  0  0  0  0  0  0  0  0  0  0  0
   -3.4126   21.8411  -27.3515 H   0  0  0  0  0  0  0  0  0  0  0  0
   -1.3274   22.8524  -26.4324 H   0  0  0  0  0  0  0  0  0  0  0  0
   -1.6562   25.1906  -25.3984 H   0  0  0  0  0  0  0  0  0  0  0  0
   -0.9010   24.0635  -24.1711 H   0  0  0  0  0  0  0  0  0  0  0  0
   -1.8547   26.3322  -23.3397 H   0  0  0  0  0  0  0  0  0  0  0  0
   -0.2130   25.8031  -22.7934 H   0  0  0  0  0  0  0  0  0  0  0  0
   -0.8455   27.7924  -25.0189 H   0  0  0  0  0  0  0  0  0  0  0  0
   -0.1540   28.1491  -23.3775 H   0  0  0  0  0  0  0  0  0  0  0  0
    1.3107   27.7309  -25.7021 H   0  0  0  0  0  0  0  0  0  0  0  0
    1.9148   27.5990  -23.9859 H   0  0  0  0  0  0  0  0  0  0  0  0
    2.4107   25.6572  -25.6552 H   0  0  0  0  0  0  0  0  0  0  0  0
    1.8143   25.2925  -23.9752 H   0  0  0  0  0  0  0  0  0  0  0  0
   -1.5145   25.9668  -29.4341 H   0  0  0  0  0  0  0  0  0  0  0  0
  1  2  2  0
  2  3  1  0
  3  4  1  0
  4  5  1  0
  5  6  2  0
  6  7  1  0
  7  8  1  0
  8  9  2  0
  8 10  1  0
 10 11  2  0
 11 12  1  0
 12 13  2  0
 13 14  1  0
 14 15  2  0
 14 16  2  0
 14 17  1  0
 17 18  1  0
 18 19  1  0
 19 20  1  0
 20 21  1  0
 21 22  1  0
 13 23  1  0
 23 24  2  0
  6 25  1  0
 25 26  2  0
  2 27  1  0
 27 28  1  0
 28 29  2  0
 29 30  1  0
 30 31  2  0
 31 32  1  0
 32 33  1  0
 33 34  2  0
 33 35  2  0
 33 36  1  0
 36 37  1  0
 37 38  1  0
 38 39  1  0
 39 40  1  0
 40 41  1  0
 32 42  2  0
 26  4  1  0
 42 28  1  0
 24 10  1  0
 41 36  1  0
 22 17  1  0
  3 43  1  0
  3 44  1  0
  5 45  1  0
 11 46  1  0
 12 47  1  0
 18 48  1  0
 18 49  1  0
 19 50  1  0
 19 51  1  0
 21 52  1  0
 21 53  1  0
 22 54  1  0
 22 55  1  0
 23 56  1  0
 24 57  1  0
 25 58  1  0
 29 59  1  0
 30 60  1  0
 31 61  1  0
 37 62  1  0
 37 63  1  0
 38 64  1  0
 38 65  1  0
 39 66  1  0
 39 67  1  0
 40 68  1  0
 40 69  1  0
 41 70  1  0
 41 71  1  0
 42 72  1  0
M  CHG  2   7  -1  27  -1
M  END
>  <UniqueID>  (25) 
24

>  <SMILES>  (25) 
O=C(Cn1cc([N-]C(=O)c2ccc(S(=O)(=O)N3CCOCC3)cc2)cn1)[N-]c1cccc(S(=O)(=O)N2CCCCC2)c1

>  <Energy>  (25) 
131.12144302345308

>  <Genealogy>  (25) 
O=C(Cn1cc([N-]C(=O)c2ccc(S(=O)(=O)N3CCOCC3)cc2)cn1)[N-]c1cccc(S(=O)(=O)N2CCCCC2)c1 (protonated)
O=C(Cn1cc([N-]C(=O)c2ccc(S(=O)(=O)N3CCOCC3)cc2)cn1)[N-]c1cccc(S(=O)(=O)N2CCCCC2)c1 (3D coordinates assigned)
O=C(Cn1cc([N-]C(=O)c2ccc(S(=O)(=O)N3CCOCC3)cc2)cn1)[N-]c1cccc(S(=O)(=O)N2CCCCC2)c1 (nonaromatic ring conformer: 131.12144302345308 kcal/mol)

>  <smiles>  (25) 
O=C(Cn1cc(NC(=O)c2ccc(S(=O)(=O)N3CCOCC3)cc2)cn1)Nc1cccc(S(=O)(=O)N2CCCCC2)c1

>  <score_type>  (25) 
oracle

>  <origin>  (25) 
adgpu

>  <m_score__min__energy>  (25) 
-13.210000000000001

>  <m_primary>  (25) 
energy

$$$$
25:0
     RDKit          3D

 57 61  0  0  0  0  0  0  0  0999 V2000
   -5.1300   24.4970  -31.1780 O   0  0  0  0  0  0  0  0  0  0  0  0
   -4.0630   24.0430  -30.6840 C   0  0  0  0  0  0  0  0  0  0  0  0
   -3.1110   24.9160  -30.0630 N   0  0  0  0  0  0  0  0  0  0  0  0
   -2.3790   24.6690  -28.8550 C   0  0  0  0  0  0  0  0  0  0  0  0
   -3.0180   24.4620  -27.6190 C   0  0  0  0  0  0  0  0  0  0  0  0
   -2.2640   24.2160  -26.4670 C   0  0  0  0  0  0  0  0  0  0  0  0
   -0.8660   24.1520  -26.5370 C   0  0  0  0  0  0  0  0  0  0  0  0
    0.0880   23.8570  -25.0790 S   0  0  0  0  0  0  0  0  0  0  0  0
   -0.5270   22.7190  -24.3130 O   0  0  0  0  0  0  0  0  0  0  0  0
    1.4790   23.4510  -25.4810 O   0  0  0  0  0  0  0  0  0  0  0  0
    0.1790   25.2580  -24.0380 N   0  0  0  0  0  0  0  0  0  0  0  0
    1.3880   26.0500  -24.2670 C   0  0  0  0  0  0  0  0  0  0  0  0
    1.0660   27.4680  -23.8170 C   0  0  0  0  0  0  0  0  0  0  0  0
   -0.4540   27.5560  -23.8110 C   0  0  0  0  0  0  0  0  0  0  0  0
   -0.9420   26.1780  -24.2390 C   0  0  0  0  0  0  0  0  0  0  0  0
   -0.2290   24.3390  -27.7720 C   0  0  0  0  0  0  0  0  0  0  0  0
   -0.9830   24.5860  -28.9240 C   0  0  0  0  0  0  0  0  0  0  0  0
   -3.7560   22.6130  -30.8020 C   0  0  0  0  0  0  0  0  0  0  0  0
   -3.4350   21.7630  -29.7600 C   0  0  0  0  0  0  0  0  0  0  0  0
   -3.2450   20.5230  -30.3320 C   0  0  0  0  0  0  0  0  0  0  0  0
   -3.4610   20.7000  -31.6850 C   0  0  0  0  0  0  0  0  0  0  0  0
   -3.3780   19.4550  -32.9190 S   0  0  0  0  0  0  0  0  0  0  0  0
   -3.1320   20.1270  -34.2400 O   0  0  0  0  0  0  0  0  0  0  0  0
   -2.2260   18.5280  -32.6550 O   0  0  0  0  0  0  0  0  0  0  0  0
   -4.9130   18.5620  -33.0010 C   0  0  0  0  0  0  0  0  0  0  0  0
   -4.8530   17.1950  -33.3210 C   0  0  0  0  0  0  0  0  0  0  0  0
   -6.0110   16.4250  -33.4010 C   0  0  0  0  0  0  0  0  0  0  0  0
   -7.2560   17.0010  -33.1680 C   0  0  0  0  0  0  0  0  0  0  0  0
   -7.3560   18.3630  -32.8580 C   0  0  0  0  0  0  0  0  0  0  0  0
   -8.6200   18.9340  -32.6380 C   0  0  0  0  0  0  0  0  0  0  0  0
   -8.7370   20.2910  -32.3420 C   0  0  0  0  0  0  0  0  0  0  0  0
   -7.5980   21.0910  -32.2690 C   0  0  0  0  0  0  0  0  0  0  0  0
   -6.3320   20.5400  -32.4850 C   0  0  0  0  0  0  0  0  0  0  0  0
   -6.1830   19.1650  -32.7760 C   0  0  0  0  0  0  0  0  0  0  0  0
   -3.7620   21.9530  -31.9370 O   0  0  0  0  0  0  0  0  0  0  0  0
   -4.1159   24.4938  -27.5582 H   0  0  0  0  0  0  0  0  0  0  0  0
   -2.7709   24.0721  -25.5014 H   0  0  0  0  0  0  0  0  0  0  0  0
    0.1730   24.9260  -23.0450 H   0  0  0  0  0  0  0  0  0  0  0  0
    2.2248   25.6452  -23.6788 H   0  0  0  0  0  0  0  0  0  0  0  0
    1.6852   26.0260  -25.3258 H   0  0  0  0  0  0  0  0  0  0  0  0
    1.4660   27.6518  -22.8089 H   0  0  0  0  0  0  0  0  0  0  0  0
    1.5163   28.2199  -24.4817 H   0  0  0  0  0  0  0  0  0  0  0  0
   -0.8213   27.7981  -22.8028 H   0  0  0  0  0  0  0  0  0  0  0  0
   -0.8201   28.3460  -24.4832 H   0  0  0  0  0  0  0  0  0  0  0  0
   -1.8004   25.8710  -23.6235 H   0  0  0  0  0  0  0  0  0  0  0  0
   -1.2702   26.1811  -25.2889 H   0  0  0  0  0  0  0  0  0  0  0  0
    0.8681   24.2913  -27.8352 H   0  0  0  0  0  0  0  0  0  0  0  0
   -0.4755   24.7160  -29.8912 H   0  0  0  0  0  0  0  0  0  0  0  0
   -3.3489   22.0225  -28.6945 H   0  0  0  0  0  0  0  0  0  0  0  0
   -2.9773   19.5879  -29.8183 H   0  0  0  0  0  0  0  0  0  0  0  0
   -3.8765   16.7257  -33.5113 H   0  0  0  0  0  0  0  0  0  0  0  0
   -5.9409   15.3558  -33.6497 H   0  0  0  0  0  0  0  0  0  0  0  0
   -8.1649   16.3843  -33.2275 H   0  0  0  0  0  0  0  0  0  0  0  0
   -9.5220   18.3074  -32.6996 H   0  0  0  0  0  0  0  0  0  0  0  0
   -9.7296   20.7312  -32.1658 H   0  0  0  0  0  0  0  0  0  0  0  0
   -7.6962   22.1624  -32.0400 H   0  0  0  0  0  0  0  0  0  0  0  0
   -5.4417   21.1835  -32.4279 H   0  0  0  0  0  0  0  0  0  0  0  0
  1  2  2  0
  2  3  1  0
  3  4  1  0
  4  5  2  0
  5  6  1  0
  6  7  2  0
  7  8  1  0
  8  9  2  0
  8 10  2  0
  8 11  1  0
 11 12  1  0
 12 13  1  0
 13 14  1  0
 14 15  1  0
  7 16  1  0
 16 17  2  0
  2 18  1  0
 18 19  2  0
 19 20  1  0
 20 21  2  0
 21 22  1  0
 22 23  2  0
 22 24  2  0
 22 25  1  0
 25 26  2  0
 26 27  1  0
 27 28  2  0
 28 29  1  0
 29 30  2  0
 30 31  1  0
 31 32  2  0
 32 33  1  0
 33 34  2  0
 21 35  1  0
 17  4  1  0
 35 18  1  0
 15 11  1  0
 34 25  1  0
 34 29  1  0
  5 36  1  0
  6 37  1  0
 11 38  1  0
 12 39  1  0
 12 40  1  0
 13 41  1  0
 13 42  1  0
 14 43  1  0
 14 44  1  0
 15 45  1  0
 15 46  1  0
 16 47  1  0
 17 48  1  0
 19 49  1  0
 20 50  1  0
 26 51  1  0
 27 52  1  0
 28 53  1  0
 30 54  1  0
 31 55  1  0
 32 56  1  0
 33 57  1  0
M  CHG  2   3  -1  11   1
M  END
>  <UniqueID>  (26) 
25

>  <SMILES>  (26) 
O=C([N-]c1ccc(S(=O)(=O)[NH+]2CCCC2)cc1)c1ccc(S(=O)(=O)c2cccc3ccccc23)o1

>  <Energy>  (26) 
101.17979959174582

>  <Genealogy>  (26) 
O=C([N-]c1ccc(S(=O)(=O)[NH+]2CCCC2)cc1)c1ccc(S(=O)(=O)c2cccc3ccccc23)o1 (protonated)
O=C([N-]c1ccc(S(=O)(=O)[NH+]2CCCC2)cc1)c1ccc(S(=O)(=O)c2cccc3ccccc23)o1 (3D coordinates assigned)
O=C([N-]c1ccc(S(=O)(=O)[NH+]2CCCC2)cc1)c1ccc(S(=O)(=O)c2cccc3ccccc23)o1 (nonaromatic ring conformer: 101.17979959174582 kcal/mol)

>  <smiles>  (26) 
O=C(Nc1ccc(S(=O)(=O)N2CCCC2)cc1)c1ccc(S(=O)(=O)c2cccc3ccccc23)o1

>  <score_type>  (26) 
oracle

>  <origin>  (26) 
adgpu

>  <m_score__min__energy>  (26) 
-13.029999999999999

>  <m_primary>  (26) 
energy

$$$$
26:0
     RDKit          3D

 38 40  0  0  0  0  0  0  0  0999 V2000
   -5.3690   24.0190  -31.7340 O   0  0  0  0  0  0  0  0  0  0  0  0
   -4.7910   23.0410  -31.1910 C   0  0  0  0  0  0  0  0  0  0  0  0
   -5.4180   21.7530  -31.2670 N   0  0  0  0  0  0  0  0  0  0  0  0
   -5.2070   20.7640  -32.2840 C   0  0  0  0  0  0  0  0  0  0  0  0
   -3.8900   20.4690  -32.6610 C   0  0  0  0  0  0  0  0  0  0  0  0
   -3.6290   19.4960  -33.6280 C   0  0  0  0  0  0  0  0  0  0  0  0
   -4.6840   18.7930  -34.2120 C   0  0  0  0  0  0  0  0  0  0  0  0
   -6.0000   19.0620  -33.8310 C   0  0  0  0  0  0  0  0  0  0  0  0
   -6.2720   20.0390  -32.8640 C   0  0  0  0  0  0  0  0  0  0  0  0
   -7.9390   20.2400  -32.3390 Cl  0  0  0  0  0  0  0  0  0  0  0  0
   -3.5260   23.2610  -30.4450 C   0  0  0  0  0  0  0  0  0  0  0  0
   -2.7420   22.1660  -30.0500 C   0  0  0  0  0  0  0  0  0  0  0  0
   -1.5650   22.3500  -29.3080 C   0  0  0  0  0  0  0  0  0  0  0  0
   -0.8010   21.1620  -28.8770 C   0  0  0  0  0  0  0  0  0  0  0  0
    0.3730   21.0060  -29.3120 O   0  0  0  0  0  0  0  0  0  0  0  0
   -1.3740   20.1700  -27.9350 C   0  0  0  0  0  0  0  0  0  0  0  0
   -2.6640   20.3450  -27.3970 C   0  0  0  0  0  0  0  0  0  0  0  0
   -3.2100   19.3820  -26.5430 C   0  0  0  0  0  0  0  0  0  0  0  0
   -2.4710   18.2470  -26.2010 C   0  0  0  0  0  0  0  0  0  0  0  0
   -1.1900   18.0650  -26.7250 C   0  0  0  0  0  0  0  0  0  0  0  0
   -0.6450   19.0160  -27.5940 C   0  0  0  0  0  0  0  0  0  0  0  0
   -1.1630   23.6560  -28.9560 C   0  0  0  0  0  0  0  0  0  0  0  0
    0.0150   23.8960  -28.2420 O   0  0  0  0  0  0  0  0  0  0  0  0
   -1.9460   24.7500  -29.3410 C   0  0  0  0  0  0  0  0  0  0  0  0
   -1.5510   26.0370  -28.9950 O   0  0  0  0  0  0  0  0  0  0  0  0
   -3.1200   24.5600  -30.0790 C   0  0  0  0  0  0  0  0  0  0  0  0
   -3.8680   25.6710  -30.4600 O   0  0  0  0  0  0  0  0  0  0  0  0
   -3.0545   21.0086  -32.1911 H   0  0  0  0  0  0  0  0  0  0  0  0
   -2.5926   19.2837  -33.9293 H   0  0  0  0  0  0  0  0  0  0  0  0
   -4.4784   18.0261  -34.9733 H   0  0  0  0  0  0  0  0  0  0  0  0
   -6.8279   18.5039  -34.2925 H   0  0  0  0  0  0  0  0  0  0  0  0
   -3.0547   21.1482  -30.3261 H   0  0  0  0  0  0  0  0  0  0  0  0
   -3.2449   21.2441  -27.6501 H   0  0  0  0  0  0  0  0  0  0  0  0
   -4.2241   19.5185  -26.1394 H   0  0  0  0  0  0  0  0  0  0  0  0
   -2.8983   17.4970  -25.5191 H   0  0  0  0  0  0  0  0  0  0  0  0
   -0.6079   17.1718  -26.4540 H   0  0  0  0  0  0  0  0  0  0  0  0
    0.3600   18.8606  -28.0134 H   0  0  0  0  0  0  0  0  0  0  0  0
    0.3010   24.8210  -27.9470 H   0  0  0  0  0  0  0  0  0  0  0  0
  1  2  2  0
  2  3  1  0
  3  4  1  0
  4  5  2  0
  5  6  1  0
  6  7  2  0
  7  8  1  0
  8  9  2  0
  9 10  1  0
  2 11  1  0
 11 12  2  0
 12 13  1  0
 13 14  1  0
 14 15  2  0
 14 16  1  0
 16 17  2  0
 17 18  1  0
 18 19  2  0
 19 20  1  0
 20 21  2  0
 13 22  2  0
 22 23  1  0
 22 24  1  0
 24 25  1  0
 24 26  2  0
 26 27  1  0
  9  4  1  0
 26 11  1  0
 21 16  1  0
  5 28  1  0
  6 29  1  0
  7 30  1  0
  8 31  1  0
 12 32  1  0
 17 33  1  0
 18 34  1  0
 19 35  1  0
 20 36  1  0
 21 37  1  0
 23 38  1  0
M  CHG  3   3  -1  25  -1  27  -1
M  END
>  <UniqueID>  (27) 
26

>  <SMILES>  (27) 
O=C([N-]c1ccccc1Cl)c1cc(C(=O)c2ccccc2)c(O)c([O-])c1[O-]

>  <Energy>  (27) 
58.520060449837906

>  <Genealogy>  (27) 
O=C([N-]c1ccccc1Cl)c1cc(C(=O)c2ccccc2)c(O)c([O-])c1[O-] (protonated)
O=C([N-]c1ccccc1Cl)c1cc(C(=O)c2ccccc2)c(O)c([O-])c1[O-] (3D coordinates assigned)
O=C([N-]c1ccccc1Cl)c1cc(C(=O)c2ccccc2)c(O)c([O-])c1[O-] (optimized conformer: 58.520060449837906 kcal/mol)

>  <smiles>  (27) 
O=C(Nc1ccccc1Cl)c1cc(C(=O)c2ccccc2)c(O)c(O)c1O

>  <score_type>  (27) 
oracle

>  <origin>  (27) 
adgpu

>  <m_score__min__energy>  (27) 
-15.039999999999999

>  <m_primary>  (27) 
energy

$$$$
27:0
     RDKit          3D

 56 60  0  0  0  0  0  0  0  0999 V2000
  -10.2830   20.7640  -32.3570 O   0  0  0  0  0  0  0  0  0  0  0  0
   -9.0960   21.0040  -32.0110 C   0  0  0  0  0  0  0  0  0  0  0  0
   -8.8320   22.1790  -31.2320 N   0  0  0  0  0  0  0  0  0  0  0  0
   -7.5530   22.8030  -31.0430 C   0  0  0  0  0  0  0  0  0  0  0  0
   -6.9860   23.5280  -32.1120 C   0  0  0  0  0  0  0  0  0  0  0  0
   -5.7360   24.1540  -31.9760 C   0  0  0  0  0  0  0  0  0  0  0  0
   -5.0550   24.0330  -30.7640 C   0  0  0  0  0  0  0  0  0  0  0  0
   -3.8410   24.5860  -30.5090 N   0  0  0  0  0  0  0  0  0  0  0  0
   -3.4320   24.2840  -29.2520 C   0  0  0  0  0  0  0  0  0  0  0  0
   -1.8710   24.8300  -28.5700 S   0  0  0  0  0  0  0  0  0  0  0  0
   -1.2490   23.1500  -28.4080 C   0  0  0  0  0  0  0  0  0  0  0  0
   -2.0100   22.1220  -28.9810 C   0  0  0  0  0  0  0  0  0  0  0  0
   -1.6020   20.7920  -28.8770 C   0  0  0  0  0  0  0  0  0  0  0  0
   -0.4320   20.4690  -28.1840 C   0  0  0  0  0  0  0  0  0  0  0  0
    0.1120   18.7980  -28.0650 S   0  0  0  0  0  0  0  0  0  0  0  0
    1.5070   18.7910  -27.5050 O   0  0  0  0  0  0  0  0  0  0  0  0
   -0.7850   18.0240  -27.1380 O   0  0  0  0  0  0  0  0  0  0  0  0
    0.1110   18.0670  -29.6570 N   0  0  0  0  0  0  0  0  0  0  0  0
    1.2520   17.1580  -29.8080 C   0  0  0  0  0  0  0  0  0  0  0  0
    2.3990   17.9380  -30.4350 C   0  0  0  0  0  0  0  0  0  0  0  0
    1.7700   19.1920  -31.0140 C   0  0  0  0  0  0  0  0  0  0  0  0
    0.2860   19.0920  -30.6910 C   0  0  0  0  0  0  0  0  0  0  0  0
    0.3280   21.4860  -27.5950 C   0  0  0  0  0  0  0  0  0  0  0  0
   -0.0610   22.8340  -27.6980 C   0  0  0  0  0  0  0  0  0  0  0  0
    0.7450   23.8420  -27.0540 N   0  0  0  0  0  0  0  0  0  0  0  0
    0.9070   23.8490  -25.8180 O   0  0  0  0  0  0  0  0  0  0  0  0
    1.2440   24.8950  -27.7870 O   0  0  0  0  0  0  0  0  0  0  0  0
   -4.5520   23.3300  -28.4150 S   0  0  0  0  0  0  0  0  0  0  0  0
   -5.6030   23.3040  -29.7230 C   0  0  0  0  0  0  0  0  0  0  0  0
   -6.8380   22.6720  -29.8310 C   0  0  0  0  0  0  0  0  0  0  0  0
   -8.0260   20.0520  -32.3910 C   0  0  0  0  0  0  0  0  0  0  0  0
   -6.8520   20.5410  -32.9920 C   0  0  0  0  0  0  0  0  0  0  0  0
   -5.8190   19.6690  -33.3400 C   0  0  0  0  0  0  0  0  0  0  0  0
   -5.9480   18.2990  -33.1050 C   0  0  0  0  0  0  0  0  0  0  0  0
   -7.1170   17.7970  -32.5290 C   0  0  0  0  0  0  0  0  0  0  0  0
   -8.1640   18.6630  -32.1800 C   0  0  0  0  0  0  0  0  0  0  0  0
   -9.3430   18.1420  -31.6450 O   0  0  0  0  0  0  0  0  0  0  0  0
   -7.5301   23.6041  -33.0650 H   0  0  0  0  0  0  0  0  0  0  0  0
   -5.3026   24.7281  -32.8082 H   0  0  0  0  0  0  0  0  0  0  0  0
   -2.9383   22.3663  -29.5181 H   0  0  0  0  0  0  0  0  0  0  0  0
   -2.2024   19.9958  -29.3414 H   0  0  0  0  0  0  0  0  0  0  0  0
    1.5564   16.7750  -28.8228 H   0  0  0  0  0  0  0  0  0  0  0  0
    0.9776   16.3051  -30.4462 H   0  0  0  0  0  0  0  0  0  0  0  0
    3.1472   18.2004  -29.6725 H   0  0  0  0  0  0  0  0  0  0  0  0
    2.9185   17.3497  -31.2057 H   0  0  0  0  0  0  0  0  0  0  0  0
    2.2045   20.0893  -30.5492 H   0  0  0  0  0  0  0  0  0  0  0  0
    1.9464   19.2732  -32.0967 H   0  0  0  0  0  0  0  0  0  0  0  0
   -0.0808   20.0608  -30.3210 H   0  0  0  0  0  0  0  0  0  0  0  0
   -0.2823   18.8227  -31.5935 H   0  0  0  0  0  0  0  0  0  0  0  0
    1.2436   21.2273  -27.0430 H   0  0  0  0  0  0  0  0  0  0  0  0
   -7.2471   22.0858  -28.9949 H   0  0  0  0  0  0  0  0  0  0  0  0
   -6.7472   21.6181  -33.1891 H   0  0  0  0  0  0  0  0  0  0  0  0
   -4.9008   20.0624  -33.8006 H   0  0  0  0  0  0  0  0  0  0  0  0
   -5.1292   17.6152  -33.3734 H   0  0  0  0  0  0  0  0  0  0  0  0
   -7.2173   16.7166  -32.3480 H   0  0  0  0  0  0  0  0  0  0  0  0
  -10.1860   18.7000  -31.5730 H   0  0  0  0  0  0  0  0  0  0  0  0
  1  2  2  0
  2  3  1  0
  3  4  1  0
  4  5  2  0
  5  6  1  0
  6  7  2  0
  7  8  1  0
  8  9  2  0
  9 10  1  0
 10 11  1  0
 11 12  2  0
 12 13  1  0
 13 14  2  0
 14 15  1  0
 15 16  2  0
 15 17  2  0
 15 18  1  0
 18 19  1  0
 19 20  1  0
 20 21  1  0
 21 22  1  0
 14 23  1  0
 23 24  2  0
 24 25  1  0
 25 26  2  0
 25 27  1  0
  9 28  1  0
 28 29  1  0
 29 30  2  0
  2 31  1  0
 31 32  2  0
 32 33  1  0
 33 34  2  0
 34 35  1  0
 35 36  2  0
 36 37  1  0
 30  4  1  0
 36 31  1  0
 29  7  1  0
 24 11  1  0
 22 18  1  0
  5 38  1  0
  6 39  1  0
 12 40  1  0
 13 41  1  0
 19 42  1  0
 19 43  1  0
 20 44  1  0
 20 45  1  0
 21 46  1  0
 21 47  1  0
 22 48  1  0
 22 49  1  0
 23 50  1  0
 30 51  1  0
 32 52  1  0
 33 53  1  0
 34 54  1  0
 35 55  1  0
 37 56  1  0
M  CHG  3   3  -1  25   1  27  -1
M  END
>  <UniqueID>  (28) 
27

>  <SMILES>  (28) 
O=C([N-]c1ccc2nc(Sc3ccc(S(=O)(=O)N4CCCC4)cc3[N+](=O)[O-])sc2c1)c1ccccc1O

>  <Energy>  (28) 
105.50664662990852

>  <Genealogy>  (28) 
O=C([N-]c1ccc2nc(Sc3ccc(S(=O)(=O)N4CCCC4)cc3[N+](=O)[O-])sc2c1)c1ccccc1O (protonated)
O=C([N-]c1ccc2nc(Sc3ccc(S(=O)(=O)N4CCCC4)cc3[N+](=O)[O-])sc2c1)c1ccccc1O (3D coordinates assigned)
O=C([N-]c1ccc2nc(Sc3ccc(S(=O)(=O)N4CCCC4)cc3[N+](=O)[O-])sc2c1)c1ccccc1O (nonaromatic ring conformer: 105.50664662990852 kcal/mol)

>  <smiles>  (28) 
O=C(Nc1ccc2nc(Sc3ccc(S(=O)(=O)N4CCCC4)cc3[N+](=O)[O-])sc2c1)c1ccccc1O

>  <score_type>  (28) 
oracle

>  <origin>  (28) 
adgpu

>  <m_score__min__energy>  (28) 
-12.470000000000001

>  <m_primary>  (28) 
energy

$$$$
28:0
     RDKit          3D

 46 49  0  0  0  0  0  0  0  0999 V2000
   -6.8230   17.9800  -30.8660 O   0  0  0  0  0  0  0  0  0  0  0  0
   -7.6910   18.4890  -31.9850 S   0  0  0  0  0  0  0  0  0  0  0  0
   -9.0380   17.8350  -31.8620 O   0  0  0  0  0  0  0  0  0  0  0  0
   -7.8830   20.2380  -31.8120 C   0  0  0  0  0  0  0  0  0  0  0  0
   -9.1130   20.8450  -32.1020 C   0  0  0  0  0  0  0  0  0  0  0  0
   -9.2640   22.2280  -31.9660 C   0  0  0  0  0  0  0  0  0  0  0  0
   -8.1880   23.0140  -31.5470 C   0  0  0  0  0  0  0  0  0  0  0  0
   -6.9470   22.4220  -31.2640 C   0  0  0  0  0  0  0  0  0  0  0  0
   -5.8140   23.2560  -30.8170 C   0  0  0  0  0  0  0  0  0  0  0  0
   -5.2000   24.1820  -31.5810 N   0  0  0  0  0  0  0  0  0  0  0  0
   -4.2370   24.7030  -30.8350 N   0  0  0  0  0  0  0  0  0  0  0  0
   -4.3040   24.0730  -29.6490 C   0  0  0  0  0  0  0  0  0  0  0  0
   -3.2000   24.4020  -28.2780 S   0  0  0  0  0  0  0  0  0  0  0  0
   -1.9400   23.1840  -28.8000 C   0  0  0  0  0  0  0  0  0  0  0  0
   -1.9820   21.9460  -27.9340 C   0  0  0  0  0  0  0  0  0  0  0  0
   -2.7440   20.8300  -28.3360 C   0  0  0  0  0  0  0  0  0  0  0  0
   -3.4630   20.8560  -29.4870 F   0  0  0  0  0  0  0  0  0  0  0  0
   -2.7650   19.6710  -27.5540 C   0  0  0  0  0  0  0  0  0  0  0  0
   -2.0330   19.6090  -26.3690 C   0  0  0  0  0  0  0  0  0  0  0  0
   -1.2740   20.7060  -25.9580 C   0  0  0  0  0  0  0  0  0  0  0  0
   -1.2410   21.8740  -26.7310 C   0  0  0  0  0  0  0  0  0  0  0  0
   -0.2620   23.2210  -26.1590 Cl  0  0  0  0  0  0  0  0  0  0  0  0
   -5.2680   23.1870  -29.6260 O   0  0  0  0  0  0  0  0  0  0  0  0
   -6.8000   21.0310  -31.4050 C   0  0  0  0  0  0  0  0  0  0  0  0
   -6.9740   18.0330  -33.5120 N   0  0  0  0  0  0  0  0  0  0  0  0
   -6.3640   16.7070  -33.4580 C   0  0  0  0  0  0  0  0  0  0  0  0
   -5.2860   16.6860  -34.5300 C   0  0  0  0  0  0  0  0  0  0  0  0
   -4.9890   18.1480  -34.8310 C   0  0  0  0  0  0  0  0  0  0  0  0
   -5.9010   18.9420  -33.9100 C   0  0  0  0  0  0  0  0  0  0  0  0
   -9.9618   20.2311  -32.4376 H   0  0  0  0  0  0  0  0  0  0  0  0
  -10.2328   22.6986  -32.1895 H   0  0  0  0  0  0  0  0  0  0  0  0
   -8.3136   24.1014  -31.4383 H   0  0  0  0  0  0  0  0  0  0  0  0
   -2.1299   22.8972  -29.8448 H   0  0  0  0  0  0  0  0  0  0  0  0
   -0.9469   23.6459  -28.6980 H   0  0  0  0  0  0  0  0  0  0  0  0
   -3.3616   18.8044  -27.8751 H   0  0  0  0  0  0  0  0  0  0  0  0
   -2.0536   18.6949  -25.7575 H   0  0  0  0  0  0  0  0  0  0  0  0
   -0.6986   20.6531  -25.0220 H   0  0  0  0  0  0  0  0  0  0  0  0
   -5.8281   20.5608  -31.1945 H   0  0  0  0  0  0  0  0  0  0  0  0
   -5.9187   16.5332  -32.4673 H   0  0  0  0  0  0  0  0  0  0  0  0
   -7.1108   15.9175  -33.6281 H   0  0  0  0  0  0  0  0  0  0  0  0
   -4.3836   16.1782  -34.1588 H   0  0  0  0  0  0  0  0  0  0  0  0
   -5.6119   16.1408  -35.4281 H   0  0  0  0  0  0  0  0  0  0  0  0
   -3.9342   18.3779  -34.6202 H   0  0  0  0  0  0  0  0  0  0  0  0
   -5.1632   18.3917  -35.8894 H   0  0  0  0  0  0  0  0  0  0  0  0
   -5.3442   19.2845  -33.0253 H   0  0  0  0  0  0  0  0  0  0  0  0
   -6.2996   19.8346  -34.4144 H   0  0  0  0  0  0  0  0  0  0  0  0
  1  2  2  0
  2  3  2  0
  2  4  1  0
  4  5  2  0
  5  6  1  0
  6  7  2  0
  7  8  1  0
  8  9  1  0
  9 10  2  0
 10 11  1  0
 11 12  2  0
 12 13  1  0
 13 14  1  0
 14 15  1  0
 15 16  2  0
 16 17  1  0
 16 18  1  0
 18 19  2  0
 19 20  1  0
 20 21  2  0
 21 22  1  0
 12 23  1  0
  8 24  2  0
  2 25  1  0
 25 26  1  0
 26 27  1  0
 27 28  1  0
 28 29  1  0
 24  4  1  0
 29 25  1  0
 23  9  1  0
 21 15  1  0
  5 30  1  0
  6 31  1  0
  7 32  1  0
 14 33  1  0
 14 34  1  0
 18 35  1  0
 19 36  1  0
 20 37  1  0
 24 38  1  0
 26 39  1  0
 26 40  1  0
 27 41  1  0
 27 42  1  0
 28 43  1  0
 28 44  1  0
 29 45  1  0
 29 46  1  0
M  END
>  <UniqueID>  (29) 
28

>  <SMILES>  (29) 
O=S(=O)(c1cccc(-c2nnc(SCc3c(F)cccc3Cl)o2)c1)N1CCCC1

>  <Energy>  (29) 
82.40103443848672

>  <Genealogy>  (29) 
O=S(=O)(c1cccc(-c2nnc(SCc3c(F)cccc3Cl)o2)c1)N1CCCC1 (3D coordinates assigned)
O=S(=O)(c1cccc(-c2nnc(SCc3c(F)cccc3Cl)o2)c1)N1CCCC1 (nonaromatic ring conformer: 82.40103443848672 kcal/mol)

>  <smiles>  (29) 
O=S(=O)(c1cccc(-c2nnc(SCc3c(F)cccc3Cl)o2)c1)N1CCCC1

>  <score_type>  (29) 
oracle

>  <origin>  (29) 
adgpu

>  <m_score__min__energy>  (29) 
-10.6

>  <m_primary>  (29) 
energy

$$$$
29:0
     RDKit          3D

 71 75  0  0  0  0  0  0  0  0999 V2000
   -8.0793   21.2169  -31.5079 H   0  0  0  0  0  0  0  0  0  0  0  0
   -7.0440   21.5840  -31.4490 C   0  0  0  0  0  0  0  0  0  0  0  0
   -6.0060   20.8360  -32.0110 C   0  0  0  0  0  0  0  0  0  0  0  0
   -6.2303   19.8916  -32.5285 H   0  0  0  0  0  0  0  0  0  0  0  0
   -4.6820   21.2820  -31.9190 C   0  0  0  0  0  0  0  0  0  0  0  0
   -3.6470   20.4950  -32.5280 N   0  0  0  0  0  0  0  0  0  0  0  0
   -2.3650   20.6080  -32.3340 C   0  0  0  0  0  0  0  0  0  0  0  0
   -1.8600   21.4740  -31.4050 N   0  0  0  0  0  0  0  0  0  0  0  0
   -0.5500   21.5450  -31.1460 N   0  0  0  0  0  0  0  0  0  0  0  0
    0.3350   20.7380  -31.7900 C   0  0  0  0  0  0  0  0  0  0  0  0
    1.4118   20.7923  -31.5719 H   0  0  0  0  0  0  0  0  0  0  0  0
   -0.1460   19.8660  -32.7070 N   0  0  0  0  0  0  0  0  0  0  0  0
    0.5200   18.9410  -33.4160 C   0  0  0  0  0  0  0  0  0  0  0  0
    1.6052   18.7655  -33.3771 H   0  0  0  0  0  0  0  0  0  0  0  0
   -0.3830   18.2410  -34.2070 C   0  0  0  0  0  0  0  0  0  0  0  0
   -0.0350   17.0780  -35.0450 C   0  0  0  0  0  0  0  0  0  0  0  0
    0.3770   17.2340  -36.2250 O   0  0  0  0  0  0  0  0  0  0  0  0
   -0.2030   15.7560  -34.5210 N   0  0  0  0  0  0  0  0  0  0  0  0
    0.7470   15.1390  -33.6060 C   0  0  0  0  0  0  0  0  0  0  0  0
    0.3713   14.1528  -33.2959 H   0  0  0  0  0  0  0  0  0  0  0  0
    1.7177   15.0172  -34.1089 H   0  0  0  0  0  0  0  0  0  0  0  0
    0.9120   16.0150  -32.3990 C   0  0  0  0  0  0  0  0  0  0  0  0
   -0.2060   16.3630  -31.6250 C   0  0  0  0  0  0  0  0  0  0  0  0
   -1.1978   15.9646  -31.8850 H   0  0  0  0  0  0  0  0  0  0  0  0
   -0.0640   17.2140  -30.5250 C   0  0  0  0  0  0  0  0  0  0  0  0
   -0.9423   17.4739  -29.9158 H   0  0  0  0  0  0  0  0  0  0  0  0
    1.1940   17.7370  -30.1960 C   0  0  0  0  0  0  0  0  0  0  0  0
    1.3880   18.8000  -28.8040 S   0  0  0  0  0  0  0  0  0  0  0  0
    2.5840   19.6900  -29.0020 O   0  0  0  0  0  0  0  0  0  0  0  0
    1.6150   17.9570  -27.5790 O   0  0  0  0  0  0  0  0  0  0  0  0
   -0.0480   19.7730  -28.5890 N   0  0  0  0  0  0  0  0  0  0  0  0
   -0.3940   20.0080  -29.5480 H   0  0  0  0  0  0  0  0  0  0  0  0
    0.2900   21.0240  -27.8930 C   0  0  0  0  0  0  0  0  0  0  0  0
    0.6260   20.7916  -26.8717 H   0  0  0  0  0  0  0  0  0  0  0  0
    1.0912   21.5358  -28.4462 H   0  0  0  0  0  0  0  0  0  0  0  0
   -0.9410   21.9480  -27.8250 C   0  0  0  0  0  0  0  0  0  0  0  0
   -0.7788   22.6850  -27.0247 H   0  0  0  0  0  0  0  0  0  0  0  0
   -1.0453   22.4197  -28.8132 H   0  0  0  0  0  0  0  0  0  0  0  0
   -2.2100   21.2280  -27.5500 N   0  0  0  0  0  0  0  0  0  0  0  0
   -3.1060   21.2000  -28.7190 C   0  0  0  0  0  0  0  0  0  0  0  0
   -4.1516   21.1673  -28.3789 H   0  0  0  0  0  0  0  0  0  0  0  0
   -2.9458   22.1036  -29.3255 H   0  0  0  0  0  0  0  0  0  0  0  0
   -2.8897   20.3082  -29.3255 H   0  0  0  0  0  0  0  0  0  0  0  0
   -2.0040   19.8800  -26.9850 C   0  0  0  0  0  0  0  0  0  0  0  0
   -1.5435   19.9810  -25.9912 H   0  0  0  0  0  0  0  0  0  0  0  0
   -2.9864   19.3885  -26.9285 H   0  0  0  0  0  0  0  0  0  0  0  0
   -1.0890   18.9990  -27.8680 C   0  0  0  0  0  0  0  0  0  0  0  0
   -0.5909   18.2585  -27.2249 H   0  0  0  0  0  0  0  0  0  0  0  0
   -1.7276   18.5248  -28.6279 H   0  0  0  0  0  0  0  0  0  0  0  0
    2.3090   17.3970  -30.9720 C   0  0  0  0  0  0  0  0  0  0  0  0
    3.2996   17.7997  -30.7139 H   0  0  0  0  0  0  0  0  0  0  0  0
    2.1680   16.5480  -32.0730 C   0  0  0  0  0  0  0  0  0  0  0  0
    3.0456   16.2966  -32.6866 H   0  0  0  0  0  0  0  0  0  0  0  0
   -1.6500   18.8000  -33.9770 C   0  0  0  0  0  0  0  0  0  0  0  0
   -2.9520   18.3600  -34.5840 C   0  0  0  0  0  0  0  0  0  0  0  0
   -3.6667   18.1185  -33.7835 H   0  0  0  0  0  0  0  0  0  0  0  0
   -3.3588   19.1706  -35.2065 H   0  0  0  0  0  0  0  0  0  0  0  0
   -2.7837   17.4688  -35.2065 H   0  0  0  0  0  0  0  0  0  0  0  0
   -1.4520   19.7860  -33.0100 C   0  0  0  0  0  0  0  0  0  0  0  0
   -4.4140   22.5200  -31.3050 C   0  0  0  0  0  0  0  0  0  0  0  0
   -3.3814   22.8969  -31.2632 H   0  0  0  0  0  0  0  0  0  0  0  0
   -5.4530   23.2750  -30.7470 C   0  0  0  0  0  0  0  0  0  0  0  0
   -5.0920   24.8050  -29.9580 S   0  0  0  0  0  0  0  0  0  0  0  0
   -4.2420   25.6650  -30.8510 O   0  0  0  0  0  0  0  0  0  0  0  0
   -4.3440   24.5460  -28.6800 O   0  0  0  0  0  0  0  0  0  0  0  0
   -6.6120   25.6570  -29.6030 C   0  0  0  0  0  0  0  0  0  0  0  0
   -6.7448   25.7314  -28.5136 H   0  0  0  0  0  0  0  0  0  0  0  0
   -6.5766   26.6668  -30.0379 H   0  0  0  0  0  0  0  0  0  0  0  0
   -7.4549   25.0998  -30.0379 H   0  0  0  0  0  0  0  0  0  0  0  0
   -6.7700   22.7960  -30.8130 C   0  0  0  0  0  0  0  0  0  0  0  0
   -7.5884   23.3768  -30.3626 H   0  0  0  0  0  0  0  0  0  0  0  0
  1  2  1  0
  2  3  2  0
  3  4  1  0
  3  5  1  0
  5  6  1  0
  6  7  2  0
  7  8  1  0
  8  9  1  0
  9 10  2  0
 10 11  1  0
 10 12  1  0
 12 13  1  0
 13 14  1  0
 13 15  2  0
 15 16  1  0
 16 17  2  0
 16 18  1  0
 18 19  1  0
 19 20  1  0
 19 21  1  0
 19 22  1  0
 22 23  2  0
 23 24  1  0
 23 25  1  0
 25 26  1  0
 25 27  2  0
 27 28  1  0
 28 29  2  0
 28 30  2  0
 28 31  1  0
 31 32  1  0
 31 33  1  0
 33 34  1  0
 33 35  1  0
 33 36  1  0
 36 37  1  0
 36 38  1  0
 36 39  1  0
 39 40  1  0
 40 41  1  0
 40 42  1  0
 40 43  1  0
 39 44  1  0
 44 45  1  0
 44 46  1  0
 44 47  1  0
 47 48  1  0
 47 49  1  0
 27 50  1  0
 50 51  1  0
 50 52  2  0
 52 53  1  0
 15 54  1  0
 54 55  1  0
 55 56  1  0
 55 57  1  0
 55 58  1  0
 54 59  2  0
  5 60  2  0
 60 61  1  0
 60 62  1  0
 62 63  1  0
 63 64  2  0
 63 65  2  0
 63 66  1  0
 66 67  1  0
 66 68  1  0
 66 69  1  0
 62 70  2  0
 70 71  1  0
 70  2  1  0
 59  7  1  0
 59 12  1  0
 52 22  1  0
 47 31  1  0
M  CHG  3   8  -1  18  -1  31   1
M  END
>  <UniqueID>  (30) 
29

>  <SMILES>  (30) 
Cc1c(C(=O)[N-]Cc2ccc(S(=O)(=O)[NH+]3CCN(C)CC3)cc2)cn2cn[n-]/c(=N\c3cccc(S(C)(=O)=O)c3)c12

>  <Energy>  (30) 
122.55701337114934

>  <Genealogy>  (30) 
Cc1c(C(=O)[N-]Cc2ccc(S(=O)(=O)[NH+]3CCN(C)CC3)cc2)cn2cn[n-]c(=Nc3cccc(S(C)(=O)=O)c3)c12 (protonated)
Cc1c(C(=O)[N-]Cc2ccc(S(=O)(=O)[NH+]3CCN(C)CC3)cc2)cn2cn[n-]/c(=N\c3cccc(S(C)(=O)=O)c3)c12 (cis-trans isomerization)
Cc1c(C(=O)[N-]Cc2ccc(S(=O)(=O)[NH+]3CCN(C)CC3)cc2)cn2cn[n-]/c(=N\c3cccc(S(C)(=O)=O)c3)c12 (3D coordinates assigned)
Cc1c(C(=O)[N-]Cc2ccc(S(=O)(=O)[NH+]3CCN(C)CC3)cc2)cn2cn[n-]/c(=N\c3cccc(S(C)(=O)=O)c3)c12 (nonaromatic ring conformer: 122.55701337114934 kcal/mol)

>  <smiles>  (30) 
Cc1c(C(=O)NCc2ccc(S(=O)(=O)N3CCN(C)CC3)cc2)cn2cn[nH]c(=Nc3cccc(S(C)(=O)=O)c3)c12

>  <score_type>  (30) 
oracle

>  <origin>  (30) 
adgpu

>  <m_score__min__energy>  (30) 
-11.52

>  <m_primary>  (30) 
energy

$$$$
30:0
     RDKit          3D

 31 32  0  0  0  0  0  0  0  0999 V2000
   -3.9265   25.5070  -27.9040 H   0  0  0  0  0  0  0  0  0  0  0  0
   -3.4690   24.5070  -27.8780 C   0  0  0  0  0  0  0  0  0  0  0  0
   -4.2280   23.3680  -28.4380 C   0  0  0  0  0  0  0  0  0  0  0  0
   -4.0620   22.2320  -27.9200 O   0  0  0  0  0  0  0  0  0  0  0  0
   -5.1480   23.5040  -29.5950 C   0  0  0  0  0  0  0  0  0  0  0  0
   -6.2790   22.6720  -29.6990 C   0  0  0  0  0  0  0  0  0  0  0  0
   -6.4726   21.9162  -28.9236 H   0  0  0  0  0  0  0  0  0  0  0  0
   -7.1610   22.7980  -30.7820 C   0  0  0  0  0  0  0  0  0  0  0  0
   -8.3780   21.9250  -30.8670 C   0  0  0  0  0  0  0  0  0  0  0  0
   -8.7232   21.6774  -29.8524 H   0  0  0  0  0  0  0  0  0  0  0  0
   -9.1751   22.4585  -31.4055 H   0  0  0  0  0  0  0  0  0  0  0  0
   -8.1281   20.9989  -31.4055 H   0  0  0  0  0  0  0  0  0  0  0  0
   -6.9360   23.7910  -31.7450 C   0  0  0  0  0  0  0  0  0  0  0  0
   -7.6363   23.9092  -32.5850 H   0  0  0  0  0  0  0  0  0  0  0  0
   -5.8250   24.6310  -31.6410 C   0  0  0  0  0  0  0  0  0  0  0  0
   -5.6516   25.4054  -32.4027 H   0  0  0  0  0  0  0  0  0  0  0  0
   -4.9320   24.4930  -30.5740 C   0  0  0  0  0  0  0  0  0  0  0  0
   -3.8280   25.3360  -30.5020 O   0  0  0  0  0  0  0  0  0  0  0  0
   -2.2480   24.3750  -27.3400 C   0  0  0  0  0  0  0  0  0  0  0  0
   -1.7940   23.3733  -27.3192 H   0  0  0  0  0  0  0  0  0  0  0  0
   -1.4760   25.5080  -26.7710 C   0  0  0  0  0  0  0  0  0  0  0  0
   -1.2280   25.6140  -25.3860 C   0  0  0  0  0  0  0  0  0  0  0  0
   -1.6005   24.8362  -24.7031 H   0  0  0  0  0  0  0  0  0  0  0  0
   -0.5120   26.7010  -24.8760 C   0  0  0  0  0  0  0  0  0  0  0  0
   -0.3184   26.7718  -23.7955 H   0  0  0  0  0  0  0  0  0  0  0  0
   -0.0420   27.6970  -25.7340 C   0  0  0  0  0  0  0  0  0  0  0  0
    0.5257   28.5483  -25.3302 H   0  0  0  0  0  0  0  0  0  0  0  0
   -0.2930   27.6120  -27.1050 C   0  0  0  0  0  0  0  0  0  0  0  0
    0.0736   28.4003  -27.7789 H   0  0  0  0  0  0  0  0  0  0  0  0
   -1.0090   26.5280  -27.6250 C   0  0  0  0  0  0  0  0  0  0  0  0
   -1.2400   26.4670  -28.9950 O   0  0  0  0  0  0  0  0  0  0  0  0
  1  2  1  0
  2  3  1  0
  3  4  2  0
  3  5  1  0
  5  6  2  0
  6  7  1  0
  6  8  1  0
  8  9  1  0
  9 10  1  0
  9 11  1  0
  9 12  1  0
  8 13  2  0
 13 14  1  0
 13 15  1  0
 15 16  1  0
 15 17  2  0
 17 18  1  0
  2 19  2  0
 19 20  1  0
 19 21  1  0
 21 22  2  0
 22 23  1  0
 22 24  1  0
 24 25  1  0
 24 26  2  0
 26 27  1  0
 26 28  1  0
 28 29  1  0
 28 30  2  0
 30 31  1  0
 17  5  1  0
 30 21  1  0
M  CHG  2  18  -1  31  -1
M  END
>  <UniqueID>  (31) 
30

>  <SMILES>  (31) 
Cc1ccc([O-])c(C(=O)/C=C/c2ccccc2[O-])c1

>  <Energy>  (31) 
39.928656190418984

>  <Genealogy>  (31) 
Cc1ccc([O-])c(C(=O)C=Cc2ccccc2[O-])c1 (protonated)
Cc1ccc([O-])c(C(=O)/C=C/c2ccccc2[O-])c1 (cis-trans isomerization)
Cc1ccc([O-])c(C(=O)/C=C/c2ccccc2[O-])c1 (3D coordinates assigned)
Cc1ccc([O-])c(C(=O)/C=C/c2ccccc2[O-])c1 (optimized conformer: 39.928656190418984 kcal/mol)

>  <smiles>  (31) 
Cc1ccc(O)c(C(=O)C=Cc2ccccc2O)c1

>  <score_type>  (31) 
oracle

>  <origin>  (31) 
adgpu

>  <m_score__min__energy>  (31) 
-12.869999999999999

>  <m_primary>  (31) 
energy

$$$$
31:0
     RDKit          3D

 50 52  0  0  0  0  0  0  0  0999 V2000
   -9.3330   18.9500  -32.3450 C   0  0  0  0  0  0  0  0  0  0  0  0
   -9.1380   20.2970  -32.7650 O   0  0  0  0  0  0  0  0  0  0  0  0
   -8.0630   21.1030  -32.3650 C   0  0  0  0  0  0  0  0  0  0  0  0
   -6.7320   20.8260  -32.7350 C   0  0  0  0  0  0  0  0  0  0  0  0
   -5.6950   21.6640  -32.3140 C   0  0  0  0  0  0  0  0  0  0  0  0
   -5.9630   22.7770  -31.5060 C   0  0  0  0  0  0  0  0  0  0  0  0
   -4.8820   23.6370  -31.1120 N   0  0  0  0  0  0  0  0  0  0  0  0
   -3.7850   23.2160  -30.2810 C   0  0  0  0  0  0  0  0  0  0  0  0
   -3.7400   22.0420  -29.8290 O   0  0  0  0  0  0  0  0  0  0  0  0
   -2.7350   24.1280  -29.9330 N   0  0  0  0  0  0  0  0  0  0  0  0
   -2.1230   24.2420  -28.6420 C   0  0  0  0  0  0  0  0  0  0  0  0
   -2.2070   23.1620  -27.7690 C   0  0  0  0  0  0  0  0  0  0  0  0
   -1.6180   23.2250  -26.5100 C   0  0  0  0  0  0  0  0  0  0  0  0
   -0.9210   24.3720  -26.0950 C   0  0  0  0  0  0  0  0  0  0  0  0
   -0.2860   24.3480  -24.7310 C   0  0  0  0  0  0  0  0  0  0  0  0
   -0.7960   25.4760  -26.9870 C   0  0  0  0  0  0  0  0  0  0  0  0
    0.1010   26.9700  -26.5630 S   0  0  0  0  0  0  0  0  0  0  0  0
   -0.3460   27.4250  -25.2020 O   0  0  0  0  0  0  0  0  0  0  0  0
   -0.2390   28.0820  -27.5170 O   0  0  0  0  0  0  0  0  0  0  0  0
    1.8410   26.7490  -26.5110 N   0  0  0  0  0  0  0  0  0  0  0  0
    2.3300   25.7220  -27.4560 C   0  0  0  0  0  0  0  0  0  0  0  0
    2.6950   24.4140  -26.7330 C   0  0  0  0  0  0  0  0  0  0  0  0
    3.7040   24.5800  -25.7420 O   0  0  0  0  0  0  0  0  0  0  0  0
    3.7040   25.8670  -25.1340 C   0  0  0  0  0  0  0  0  0  0  0  0
    2.3240   26.5430  -25.1320 C   0  0  0  0  0  0  0  0  0  0  0  0
   -1.3840   25.3800  -28.2720 C   0  0  0  0  0  0  0  0  0  0  0  0
   -1.2230   26.4110  -29.1940 O   0  0  0  0  0  0  0  0  0  0  0  0
   -7.2930   23.0630  -31.1520 C   0  0  0  0  0  0  0  0  0  0  0  0
   -8.3310   22.2260  -31.5750 C   0  0  0  0  0  0  0  0  0  0  0  0
   -9.3394   18.9059  -31.2459 H   0  0  0  0  0  0  0  0  0  0  0  0
  -10.2940   18.5806  -32.7324 H   0  0  0  0  0  0  0  0  0  0  0  0
   -8.5162   18.3232  -32.7324 H   0  0  0  0  0  0  0  0  0  0  0  0
   -6.5079   19.9472  -33.3574 H   0  0  0  0  0  0  0  0  0  0  0  0
   -4.6606   21.4479  -32.6195 H   0  0  0  0  0  0  0  0  0  0  0  0
   -4.8590   24.5950  -31.5250 H   0  0  0  0  0  0  0  0  0  0  0  0
   -2.7429   22.2518  -28.0763 H   0  0  0  0  0  0  0  0  0  0  0  0
   -1.6993   22.3643  -25.8298 H   0  0  0  0  0  0  0  0  0  0  0  0
   -1.0707   24.3777  -23.9607 H   0  0  0  0  0  0  0  0  0  0  0  0
    0.3045   23.4269  -24.6176 H   0  0  0  0  0  0  0  0  0  0  0  0
    0.3724   25.2219  -24.6176 H   0  0  0  0  0  0  0  0  0  0  0  0
    1.5425   25.5134  -28.1952 H   0  0  0  0  0  0  0  0  0  0  0  0
    3.2361   26.1087  -27.9453 H   0  0  0  0  0  0  0  0  0  0  0  0
    1.7903   24.0196  -26.2473 H   0  0  0  0  0  0  0  0  0  0  0  0
    3.0936   23.7235  -27.4909 H   0  0  0  0  0  0  0  0  0  0  0  0
    4.0411   25.7602  -24.0924 H   0  0  0  0  0  0  0  0  0  0  0  0
    4.3764   26.5051  -25.7262 H   0  0  0  0  0  0  0  0  0  0  0  0
    1.6101   25.9044  -24.5912 H   0  0  0  0  0  0  0  0  0  0  0  0
    2.4110   27.5221  -24.6383 H   0  0  0  0  0  0  0  0  0  0  0  0
   -7.5185   23.9487  -30.5398 H   0  0  0  0  0  0  0  0  0  0  0  0
   -9.3672   22.4529  -31.2838 H   0  0  0  0  0  0  0  0  0  0  0  0
  1  2  1  0
  2  3  1  0
  3  4  2  0
  4  5  1  0
  5  6  2  0
  6  7  1  0
  7  8  1  0
  8  9  2  0
  8 10  1  0
 10 11  1  0
 11 12  2  0
 12 13  1  0
 13 14  2  0
 14 15  1  0
 14 16  1  0
 16 17  1  0
 17 18  2  0
 17 19  2  0
 17 20  1  0
 20 21  1  0
 21 22  1  0
 22 23  1  0
 23 24  1  0
 24 25  1  0
 16 26  2  0
 26 27  1  0
  6 28  1  0
 28 29  2  0
 29  3  1  0
 26 11  1  0
 25 20  1  0
  1 30  1  0
  1 31  1  0
  1 32  1  0
  4 33  1  0
  5 34  1  0
  7 35  1  0
 12 36  1  0
 13 37  1  0
 15 38  1  0
 15 39  1  0
 15 40  1  0
 21 41  1  0
 21 42  1  0
 22 43  1  0
 22 44  1  0
 24 45  1  0
 24 46  1  0
 25 47  1  0
 25 48  1  0
 28 49  1  0
 29 50  1  0
M  CHG  2  10  -1  27  -1
M  END
>  <UniqueID>  (32) 
31

>  <SMILES>  (32) 
COc1ccc(NC(=O)[N-]c2ccc(C)c(S(=O)(=O)N3CCOCC3)c2[O-])cc1

>  <Energy>  (32) 
77.89808617551355

>  <Genealogy>  (32) 
COc1ccc(NC(=O)[N-]c2ccc(C)c(S(=O)(=O)N3CCOCC3)c2[O-])cc1 (protonated)
COc1ccc(NC(=O)[N-]c2ccc(C)c(S(=O)(=O)N3CCOCC3)c2[O-])cc1 (3D coordinates assigned)
COc1ccc(NC(=O)[N-]c2ccc(C)c(S(=O)(=O)N3CCOCC3)c2[O-])cc1 (nonaromatic ring conformer: 77.89808617551355 kcal/mol)

>  <smiles>  (32) 
COc1ccc(NC(=O)Nc2ccc(C)c(S(=O)(=O)N3CCOCC3)c2O)cc1

>  <score_type>  (32) 
oracle

>  <origin>  (32) 
adgpu

>  <m_score__min__energy>  (32) 
-12.65

>  <m_primary>  (32) 
energy

$$$$
32:0
     RDKit          3D

 59 63  0  0  0  0  0  0  0  0999 V2000
   -9.3500   22.5420  -31.9490 C   0  0  0  0  0  0  0  0  0  0  0  0
   -8.6090   21.2560  -32.1970 C   0  0  0  0  0  0  0  0  0  0  0  0
   -9.3070   20.0470  -32.3060 C   0  0  0  0  0  0  0  0  0  0  0  0
   -8.6150   18.8570  -32.5540 C   0  0  0  0  0  0  0  0  0  0  0  0
   -7.2270   18.8680  -32.7100 C   0  0  0  0  0  0  0  0  0  0  0  0
   -6.5170   20.0810  -32.6330 C   0  0  0  0  0  0  0  0  0  0  0  0
   -5.0870   20.0890  -32.7850 N   0  0  0  0  0  0  0  0  0  0  0  0
   -4.2260   21.2260  -32.8910 C   0  0  0  0  0  0  0  0  0  0  0  0
   -4.6230   22.4100  -33.0670 O   0  0  0  0  0  0  0  0  0  0  0  0
   -2.8300   20.8060  -32.8230 C   0  0  0  0  0  0  0  0  0  0  0  0
   -1.6530   21.5450  -32.8940 C   0  0  0  0  0  0  0  0  0  0  0  0
   -0.4330   20.8590  -32.7780 C   0  0  0  0  0  0  0  0  0  0  0  0
   -0.4030   19.4540  -32.5690 C   0  0  0  0  0  0  0  0  0  0  0  0
    0.8840   18.7400  -32.3850 C   0  0  0  0  0  0  0  0  0  0  0  0
    1.5540   18.4010  -33.4000 O   0  0  0  0  0  0  0  0  0  0  0  0
    1.4260   18.4670  -31.0850 N   0  0  0  0  0  0  0  0  0  0  0  0
    0.7230   18.6310  -29.8460 C   0  0  0  0  0  0  0  0  0  0  0  0
    0.6760   17.6040  -28.8920 C   0  0  0  0  0  0  0  0  0  0  0  0
   -0.0820   17.7600  -27.7310 C   0  0  0  0  0  0  0  0  0  0  0  0
   -0.8070   18.9400  -27.5090 C   0  0  0  0  0  0  0  0  0  0  0  0
   -1.5750   19.0710  -26.3520 O   0  0  0  0  0  0  0  0  0  0  0  0
   -0.7500   19.9820  -28.4580 C   0  0  0  0  0  0  0  0  0  0  0  0
   -1.7100   21.4590  -28.2910 S   0  0  0  0  0  0  0  0  0  0  0  0
   -0.9770   22.4020  -27.3800 O   0  0  0  0  0  0  0  0  0  0  0  0
   -3.0570   21.1650  -27.6900 O   0  0  0  0  0  0  0  0  0  0  0  0
   -1.9540   22.2300  -29.8340 N   0  0  0  0  0  0  0  0  0  0  0  0
   -2.2750   23.6520  -29.6980 C   0  0  0  0  0  0  0  0  0  0  0  0
   -3.7200   23.9330  -29.9830 C   0  0  0  0  0  0  0  0  0  0  0  0
   -4.7100   22.9930  -29.6600 C   0  0  0  0  0  0  0  0  0  0  0  0
   -6.0470   23.2860  -29.9410 C   0  0  0  0  0  0  0  0  0  0  0  0
   -6.3830   24.5070  -30.5260 C   0  0  0  0  0  0  0  0  0  0  0  0
   -5.3700   25.4230  -30.8240 C   0  0  0  0  0  0  0  0  0  0  0  0
   -4.0750   25.1200  -30.5520 N   0  0  0  0  0  0  0  0  0  0  0  0
    0.0470   19.8310  -29.6020 C   0  0  0  0  0  0  0  0  0  0  0  0
   -1.6180   18.7330  -32.5370 C   0  0  0  0  0  0  0  0  0  0  0  0
   -2.8120   19.4390  -32.6690 C   0  0  0  0  0  0  0  0  0  0  0  0
   -4.1960   18.9790  -32.6430 C   0  0  0  0  0  0  0  0  0  0  0  0
   -4.5640   17.7870  -32.4790 O   0  0  0  0  0  0  0  0  0  0  0  0
   -7.2170   21.2730  -32.3810 C   0  0  0  0  0  0  0  0  0  0  0  0
   -9.4452   22.7073  -30.8657 H   0  0  0  0  0  0  0  0  0  0  0  0
   -8.7950   23.3778  -32.4000 H   0  0  0  0  0  0  0  0  0  0  0  0
  -10.3514   22.4810  -32.4000 H   0  0  0  0  0  0  0  0  0  0  0  0
  -10.4014   20.0331  -32.1964 H   0  0  0  0  0  0  0  0  0  0  0  0
   -9.1665   17.9080  -32.6265 H   0  0  0  0  0  0  0  0  0  0  0  0
   -6.6877   17.9270  -32.8934 H   0  0  0  0  0  0  0  0  0  0  0  0
   -1.6775   22.6354  -33.0369 H   0  0  0  0  0  0  0  0  0  0  0  0
    0.5122   21.4171  -32.8499 H   0  0  0  0  0  0  0  0  0  0  0  0
    1.2380   16.6734  -29.0595 H   0  0  0  0  0  0  0  0  0  0  0  0
   -0.1112   16.9522  -26.9849 H   0  0  0  0  0  0  0  0  0  0  0  0
   -2.1850   19.8670  -26.2030 H   0  0  0  0  0  0  0  0  0  0  0  0
   -2.0477   23.9703  -28.6699 H   0  0  0  0  0  0  0  0  0  0  0  0
   -1.6707   24.2076  -30.4302 H   0  0  0  0  0  0  0  0  0  0  0  0
   -4.4369   22.0363  -29.1909 H   0  0  0  0  0  0  0  0  0  0  0  0
   -6.8333   22.5551  -29.7013 H   0  0  0  0  0  0  0  0  0  0  0  0
   -7.4330   24.7462  -30.7502 H   0  0  0  0  0  0  0  0  0  0  0  0
   -5.6228   26.3916  -31.2800 H   0  0  0  0  0  0  0  0  0  0  0  0
    0.1414   20.6641  -30.3141 H   0  0  0  0  0  0  0  0  0  0  0  0
   -1.6211   17.6403  -32.4109 H   0  0  0  0  0  0  0  0  0  0  0  0
   -6.6707   22.2262  -32.3275 H   0  0  0  0  0  0  0  0  0  0  0  0
  1  2  1  0
  2  3  2  0
  3  4  1  0
  4  5  2  0
  5  6  1  0
  6  7  1  0
  7  8  1  0
  8  9  2  0
  8 10  1  0
 10 11  2  0
 11 12  1  0
 12 13  2  0
 13 14  1  0
 14 15  2  0
 14 16  1  0
 16 17  1  0
 17 18  2  0
 18 19  1  0
 19 20  2  0
 20 21  1  0
 20 22  1  0
 22 23  1  0
 23 24  2  0
 23 25  2  0
 23 26  1  0
 26 27  1  0
 27 28  1  0
 28 29  2  0
 29 30  1  0
 30 31  2  0
 31 32  1  0
 32 33  2  0
 22 34  2  0
 13 35  1  0
 35 36  2  0
 36 37  1  0
 37 38  2  0
  6 39  2  0
 39  2  1  0
 37  7  1  0
 36 10  1  0
 34 17  1  0
 33 28  1  0
  1 40  1  0
  1 41  1  0
  1 42  1  0
  3 43  1  0
  4 44  1  0
  5 45  1  0
 11 46  1  0
 12 47  1  0
 18 48  1  0
 19 49  1  0
 21 50  1  0
 27 51  1  0
 27 52  1  0
 29 53  1  0
 30 54  1  0
 31 55  1  0
 32 56  1  0
 34 57  1  0
 35 58  1  0
 39 59  1  0
M  CHG  2  16  -1  26  -1
M  END
>  <UniqueID>  (33) 
32

>  <SMILES>  (33) 
Cc1cccc(N2C(=O)c3ccc(C(=O)[N-]c4ccc(O)c(S(=O)(=O)[N-]Cc5ccccn5)c4)cc3C2=O)c1

>  <Energy>  (33) 
109.24525055010372

>  <Genealogy>  (33) 
Cc1cccc(N2C(=O)c3ccc(C(=O)[N-]c4ccc(O)c(S(=O)(=O)[N-]Cc5ccccn5)c4)cc3C2=O)c1 (protonated)
Cc1cccc(N2C(=O)c3ccc(C(=O)[N-]c4ccc(O)c(S(=O)(=O)[N-]Cc5ccccn5)c4)cc3C2=O)c1 (3D coordinates assigned)
Cc1cccc(N2C(=O)c3ccc(C(=O)[N-]c4ccc(O)c(S(=O)(=O)[N-]Cc5ccccn5)c4)cc3C2=O)c1 (nonaromatic ring conformer: 109.24525055010372 kcal/mol)

>  <smiles>  (33) 
Cc1cccc(N2C(=O)c3ccc(C(=O)Nc4ccc(O)c(S(=O)(=O)NCc5ccccn5)c4)cc3C2=O)c1

>  <score_type>  (33) 
oracle

>  <origin>  (33) 
adgpu

>  <m_score__min__energy>  (33) 
-12.869999999999999

>  <m_primary>  (33) 
energy

$$$$
33:0
     RDKit          3D

 67 71  0  0  0  0  0  0  0  0999 V2000
   -6.8280   24.6020  -30.1210 C   0  0  0  0  0  0  0  0  0  0  0  0
   -6.6560   23.2020  -30.5390 N   0  0  0  0  0  0  0  0  0  0  0  0
   -6.5440   23.1050  -32.0130 C   0  0  0  0  0  0  0  0  0  0  0  0
   -6.9090   21.7000  -32.5060 C   0  0  0  0  0  0  0  0  0  0  0  0
   -8.3210   21.3830  -32.2070 N   0  0  0  0  0  0  0  0  0  0  0  0
   -8.5850   19.6540  -32.2240 S   0  0  0  0  0  0  0  0  0  0  0  0
   -9.7210   19.3220  -33.1510 O   0  0  0  0  0  0  0  0  0  0  0  0
   -8.9630   19.1990  -30.8410 O   0  0  0  0  0  0  0  0  0  0  0  0
   -7.1310   18.7980  -32.7410 C   0  0  0  0  0  0  0  0  0  0  0  0
   -6.6590   17.7040  -32.0040 C   0  0  0  0  0  0  0  0  0  0  0  0
   -5.5930   16.9390  -32.4810 C   0  0  0  0  0  0  0  0  0  0  0  0
   -4.9790   17.2590  -33.7010 C   0  0  0  0  0  0  0  0  0  0  0  0
   -3.9710   16.3810  -34.2330 N   0  0  0  0  0  0  0  0  0  0  0  0
   -2.5620   16.6520  -34.1860 C   0  0  0  0  0  0  0  0  0  0  0  0
   -2.0660   17.3420  -33.0720 C   0  0  0  0  0  0  0  0  0  0  0  0
   -0.7240   17.7010  -32.9920 C   0  0  0  0  0  0  0  0  0  0  0  0
    0.1570   17.3900  -34.0350 C   0  0  0  0  0  0  0  0  0  0  0  0
    1.8600   17.8560  -33.9260 S   0  0  0  0  0  0  0  0  0  0  0  0
    2.6570   16.7160  -33.3580 O   0  0  0  0  0  0  0  0  0  0  0  0
    2.3790   18.1790  -35.2990 O   0  0  0  0  0  0  0  0  0  0  0  0
    2.0840   19.2340  -32.9020 N   0  0  0  0  0  0  0  0  0  0  0  0
    0.9710   19.9640  -32.3760 C   0  0  0  0  0  0  0  0  0  0  0  0
    0.5840   19.7820  -31.0400 C   0  0  0  0  0  0  0  0  0  0  0  0
   -0.5140   20.4740  -30.5230 C   0  0  0  0  0  0  0  0  0  0  0  0
   -1.2430   21.3430  -31.3450 C   0  0  0  0  0  0  0  0  0  0  0  0
   -0.8650   21.5310  -32.6790 C   0  0  0  0  0  0  0  0  0  0  0  0
    0.2460   20.8500  -33.2040 C   0  0  0  0  0  0  0  0  0  0  0  0
    0.6870   21.0730  -34.9050 S   0  0  0  0  0  0  0  0  0  0  0  0
    2.3750   20.7510  -35.1250 N   0  0  0  0  0  0  0  0  0  0  0  0
    0.4080   22.4860  -35.3320 O   0  0  0  0  0  0  0  0  0  0  0  0
   -0.1270   20.1420  -35.7620 O   0  0  0  0  0  0  0  0  0  0  0  0
   -0.3100   16.6640  -35.1480 C   0  0  0  0  0  0  0  0  0  0  0  0
    0.5500   16.3370  -36.1520 N   0  0  0  0  0  0  0  0  0  0  0  0
    0.1510   15.5990  -37.2190 C   0  0  0  0  0  0  0  0  0  0  0  0
   -1.1230   15.1420  -37.2860 N   0  0  0  0  0  0  0  0  0  0  0  0
   -2.0340   15.4330  -36.3180 C   0  0  0  0  0  0  0  0  0  0  0  0
   -3.1850   14.9340  -36.4110 O   0  0  0  0  0  0  0  0  0  0  0  0
   -1.6670   16.2540  -35.2210 C   0  0  0  0  0  0  0  0  0  0  0  0
   -5.4070   18.4010  -34.4030 C   0  0  0  0  0  0  0  0  0  0  0  0
   -6.4770   19.1630  -33.9250 C   0  0  0  0  0  0  0  0  0  0  0  0
   -8.8280   22.0060  -30.9610 C   0  0  0  0  0  0  0  0  0  0  0  0
   -7.7030   22.3270  -29.9560 C   0  0  0  0  0  0  0  0  0  0  0  0
   -6.8349   24.6585  -29.0225 H   0  0  0  0  0  0  0  0  0  0  0  0
   -5.9974   25.2067  -30.5140 H   0  0  0  0  0  0  0  0  0  0  0  0
   -7.7803   24.9876  -30.5140 H   0  0  0  0  0  0  0  0  0  0  0  0
   -7.2259   23.8351  -32.4734 H   0  0  0  0  0  0  0  0  0  0  0  0
   -5.5022   23.3140  -32.2974 H   0  0  0  0  0  0  0  0  0  0  0  0
   -6.7514   21.6483  -33.5934 H   0  0  0  0  0  0  0  0  0  0  0  0
   -6.2692   20.9702  -31.9883 H   0  0  0  0  0  0  0  0  0  0  0  0
   -7.1309   17.4464  -31.0443 H   0  0  0  0  0  0  0  0  0  0  0  0
   -5.2323   16.0798  -31.8964 H   0  0  0  0  0  0  0  0  0  0  0  0
   -4.2690   15.4470  -34.5940 H   0  0  0  0  0  0  0  0  0  0  0  0
   -2.7472   17.6036  -32.2489 H   0  0  0  0  0  0  0  0  0  0  0  0
   -0.3527   18.2327  -32.1035 H   0  0  0  0  0  0  0  0  0  0  0  0
    1.1479   19.0910  -30.3962 H   0  0  0  0  0  0  0  0  0  0  0  0
   -0.8058   20.3366  -29.4714 H   0  0  0  0  0  0  0  0  0  0  0  0
   -2.1146   21.8788  -30.9408 H   0  0  0  0  0  0  0  0  0  0  0  0
   -1.4405   22.2153  -33.3197 H   0  0  0  0  0  0  0  0  0  0  0  0
    2.6640   20.1080  -34.3530 H   0  0  0  0  0  0  0  0  0  0  0  0
    2.4690   20.2120  -36.0130 H   0  0  0  0  0  0  0  0  0  0  0  0
    0.8608   15.3722  -38.0282 H   0  0  0  0  0  0  0  0  0  0  0  0
   -4.8972   18.6954  -35.3322 H   0  0  0  0  0  0  0  0  0  0  0  0
   -6.8069   20.0530  -34.4809 H   0  0  0  0  0  0  0  0  0  0  0  0
   -9.3456   22.9413  -31.2205 H   0  0  0  0  0  0  0  0  0  0  0  0
   -9.5066   21.2853  -30.4813 H   0  0  0  0  0  0  0  0  0  0  0  0
   -8.1422   22.8343  -29.0844 H   0  0  0  0  0  0  0  0  0  0  0  0
   -7.2262   21.3773  -29.6719 H   0  0  0  0  0  0  0  0  0  0  0  0
  1  2  1  0
  2  3  1  0
  3  4  1  0
  4  5  1  0
  5  6  1  0
  6  7  2  0
  6  8  2  0
  6  9  1  0
  9 10  2  0
 10 11  1  0
 11 12  2  0
 12 13  1  0
 13 14  1  0
 14 15  2  0
 15 16  1  0
 16 17  2  0
 17 18  1  0
 18 19  2  0
 18 20  2  0
 18 21  1  0
 21 22  1  0
 22 23  2  0
 23 24  1  0
 24 25  2  0
 25 26  1  0
 26 27  2  0
 27 28  1  0
 28 29  1  0
 28 30  2  0
 28 31  2  0
 17 32  1  0
 32 33  1  0
 33 34  1  0
 34 35  2  0
 35 36  1  0
 36 37  2  0
 36 38  1  0
 12 39  1  0
 39 40  2  0
  5 41  1  0
 41 42  1  0
 42  2  1  0
 40  9  1  0
 38 14  1  0
 27 22  1  0
 38 32  2  0
  1 43  1  0
  1 44  1  0
  1 45  1  0
  3 46  1  0
  3 47  1  0
  4 48  1  0
  4 49  1  0
 10 50  1  0
 11 51  1  0
 13 52  1  0
 15 53  1  0
 16 54  1  0
 23 55  1  0
 24 56  1  0
 25 57  1  0
 26 58  1  0
 29 59  1  0
 29 60  1  0
 34 61  1  0
 39 62  1  0
 40 63  1  0
 41 64  1  0
 41 65  1  0
 42 66  1  0
 42 67  1  0
M  CHG  2  21  -1  33  -1
M  END
>  <UniqueID>  (34) 
33

>  <SMILES>  (34) 
CN1CCN(S(=O)(=O)c2ccc(Nc3ccc(S(=O)(=O)[N-]c4ccccc4S(N)(=O)=O)c4[n-]cnc(=O)c34)cc2)CC1

>  <Energy>  (34) 
106.85025513209055

>  <Genealogy>  (34) 
CN1CCN(S(=O)(=O)c2ccc(Nc3ccc(S(=O)(=O)[N-]c4ccccc4S(N)(=O)=O)c4[n-]cnc(=O)c34)cc2)CC1 (protonated)
CN1CCN(S(=O)(=O)c2ccc(Nc3ccc(S(=O)(=O)[N-]c4ccccc4S(N)(=O)=O)c4[n-]cnc(=O)c34)cc2)CC1 (3D coordinates assigned)
CN1CCN(S(=O)(=O)c2ccc(Nc3ccc(S(=O)(=O)[N-]c4ccccc4S(N)(=O)=O)c4[n-]cnc(=O)c34)cc2)CC1 (nonaromatic ring conformer: 106.85025513209055 kcal/mol)

>  <smiles>  (34) 
CN1CCN(S(=O)(=O)c2ccc(Nc3ccc(S(=O)(=O)Nc4ccccc4S(N)(=O)=O)c4[nH]cnc(=O)c34)cc2)CC1

>  <score_type>  (34) 
oracle

>  <origin>  (34) 
adgpu

>  <m_score__min__energy>  (34) 
-11.880000000000001

>  <m_primary>  (34) 
energy

$$$$
34:0
     RDKit          3D

 59 63  0  0  0  0  0  0  0  0999 V2000
   -7.2460   16.5580  -33.1160 O   0  0  0  0  0  0  0  0  0  0  0  0
   -6.5230   17.5360  -33.4470 C   0  0  0  0  0  0  0  0  0  0  0  0
   -5.4260   17.3200  -34.3440 N   0  0  0  0  0  0  0  0  0  0  0  0
   -4.0650   17.2320  -33.9060 C   0  0  0  0  0  0  0  0  0  0  0  0
   -3.5620   16.0030  -33.4790 C   0  0  0  0  0  0  0  0  0  0  0  0
   -2.2800   15.9230  -32.9380 C   0  0  0  0  0  0  0  0  0  0  0  0
   -1.4700   17.0620  -32.8500 C   0  0  0  0  0  0  0  0  0  0  0  0
    0.0870   16.8720  -32.0600 Cl  0  0  0  0  0  0  0  0  0  0  0  0
   -1.9330   18.3010  -33.3610 C   0  0  0  0  0  0  0  0  0  0  0  0
   -0.9400   19.7830  -33.3430 S   0  0  0  0  0  0  0  0  0  0  0  0
    0.5250   19.4530  -33.2650 O   0  0  0  0  0  0  0  0  0  0  0  0
   -1.1570   20.5100  -34.6430 O   0  0  0  0  0  0  0  0  0  0  0  0
   -1.3380   20.8830  -31.9640 C   0  0  1  0  0  0  0  0  0  0  0  0
   -2.2140   20.2170  -30.8930 C   0  0  0  0  0  0  0  0  0  0  0  0
   -1.6310   20.6090  -29.5250 C   0  0  2  0  0  0  0  0  0  0  0  0
   -2.7170   21.0840  -28.5270 C   0  0  0  0  0  0  0  0  0  0  0  0
   -2.1180   22.0070  -27.4630 C   0  0  0  0  0  0  0  0  0  0  0  0
   -1.5130   23.2810  -28.0880 C   0  0  0  0  0  0  0  0  0  0  0  0
   -1.0400   23.0930  -29.5450 C   0  0  0  0  0  0  0  0  0  0  0  0
   -0.5350   21.6580  -29.7960 C   0  0  2  0  0  0  0  0  0  0  0  0
   -0.1090   21.4380  -31.2440 C   0  0  0  0  0  0  0  0  0  0  0  0
   -3.2430   18.3700  -33.8810 C   0  0  0  0  0  0  0  0  0  0  0  0
   -3.7320   19.5690  -34.3870 O   0  0  0  0  0  0  0  0  0  0  0  0
   -6.7910   18.8710  -32.8700 C   0  0  0  0  0  0  0  0  0  0  0  0
   -8.0300   19.4700  -32.7240 C   0  0  0  0  0  0  0  0  0  0  0  0
   -7.7770   20.7430  -32.2640 C   0  0  0  0  0  0  0  0  0  0  0  0
   -8.7600   21.7030  -32.0530 O   0  0  0  0  0  0  0  0  0  0  0  0
   -6.4500   20.9520  -32.1050 N   0  0  0  0  0  0  0  0  0  0  0  0
   -5.7930   22.1660  -31.6770 C   0  0  0  0  0  0  0  0  0  0  0  0
   -4.3870   22.2380  -31.6400 C   0  0  0  0  0  0  0  0  0  0  0  0
   -3.7460   23.4070  -31.2160 C   0  0  0  0  0  0  0  0  0  0  0  0
   -4.4990   24.5180  -30.8220 C   0  0  0  0  0  0  0  0  0  0  0  0
   -3.8600   25.6750  -30.3970 O   0  0  0  0  0  0  0  0  0  0  0  0
   -5.8950   24.4600  -30.8530 C   0  0  0  0  0  0  0  0  0  0  0  0
   -6.5400   23.2940  -31.2750 C   0  0  0  0  0  0  0  0  0  0  0  0
   -5.8430   19.8040  -32.4860 C   0  0  0  0  0  0  0  0  0  0  0  0
   -4.1778   15.0960  -33.5693 H   0  0  0  0  0  0  0  0  0  0  0  0
   -1.9007   14.9557  -32.5766 H   0  0  0  0  0  0  0  0  0  0  0  0
   -1.8852   21.7021  -32.4536 H   0  0  0  0  0  0  0  0  0  0  0  0
   -2.1918   19.1238  -31.0135 H   0  0  0  0  0  0  0  0  0  0  0  0
   -3.2598   20.5461  -30.9820 H   0  0  0  0  0  0  0  0  0  0  0  0
   -1.1909   19.7352  -29.0222 H   0  0  0  0  0  0  0  0  0  0  0  0
   -3.1606   20.2066  -28.0336 H   0  0  0  0  0  0  0  0  0  0  0  0
   -3.4843   21.6422  -29.0835 H   0  0  0  0  0  0  0  0  0  0  0  0
   -1.3273   21.4641  -26.9244 H   0  0  0  0  0  0  0  0  0  0  0  0
   -2.9242   22.3103  -26.7789 H   0  0  0  0  0  0  0  0  0  0  0  0
   -0.6500   23.5900  -27.4799 H   0  0  0  0  0  0  0  0  0  0  0  0
   -2.3088   24.0403  -28.1039 H   0  0  0  0  0  0  0  0  0  0  0  0
   -0.2225   23.8002  -29.7492 H   0  0  0  0  0  0  0  0  0  0  0  0
   -1.8951   23.2788  -30.2115 H   0  0  0  0  0  0  0  0  0  0  0  0
    0.3172   21.5393  -29.1107 H   0  0  0  0  0  0  0  0  0  0  0  0
    0.7208   20.7176  -31.2932 H   0  0  0  0  0  0  0  0  0  0  0  0
    0.2425   22.3717  -31.7073 H   0  0  0  0  0  0  0  0  0  0  0  0
   -9.0129   19.0222  -32.9322 H   0  0  0  0  0  0  0  0  0  0  0  0
   -3.7879   21.3680  -31.9470 H   0  0  0  0  0  0  0  0  0  0  0  0
   -2.6472   23.4526  -31.1924 H   0  0  0  0  0  0  0  0  0  0  0  0
   -6.4875   25.3340  -30.5446 H   0  0  0  0  0  0  0  0  0  0  0  0
   -7.6392   23.2552  -31.2940 H   0  0  0  0  0  0  0  0  0  0  0  0
   -4.7558   19.6367  -32.4900 H   0  0  0  0  0  0  0  0  0  0  0  0
  1  2  2  0
  2  3  1  0
  3  4  1  0
  4  5  2  0
  5  6  1  0
  6  7  2  0
  7  8  1  0
  7  9  1  0
  9 10  1  0
 10 11  2  0
 10 12  2  0
 10 13  1  0
 13 14  1  0
 14 15  1  0
 15 16  1  0
 16 17  1  0
 17 18  1  0
 18 19  1  0
 19 20  1  0
 20 21  1  0
  9 22  2  0
 22 23  1  0
  2 24  1  0
 24 25  1  0
 25 26  2  0
 26 27  1  0
 26 28  1  0
 28 29  1  0
 29 30  2  0
 30 31  1  0
 31 32  2  0
 32 33  1  0
 32 34  1  0
 34 35  2  0
 28 36  1  0
 22  4  1  0
 36 24  2  0
 21 13  1  0
 35 29  1  0
 20 15  1  0
  5 37  1  0
  6 38  1  0
 13 39  1  6
 14 40  1  0
 14 41  1  0
 15 42  1  1
 16 43  1  0
 16 44  1  0
 17 45  1  0
 17 46  1  0
 18 47  1  0
 18 48  1  0
 19 49  1  0
 19 50  1  0
 20 51  1  1
 21 52  1  0
 21 53  1  0
 25 54  1  0
 30 55  1  0
 31 56  1  0
 34 57  1  0
 35 58  1  0
 36 59  1  0
M  CHG  4   3  -1  23  -1  27  -1  33  -1
M  END
>  <UniqueID>  (35) 
34

>  <SMILES>  (35) 
O=C([N-]c1ccc(Cl)c(S(=O)(=O)C2C[C@H]3CCCC[C@H]3C2)c1[O-])c1cc([O-])n(-c2ccc([O-])cc2)c1

>  <Energy>  (35) 
106.58740746013835

>  <Genealogy>  (35) 
O=C([N-]c1ccc(Cl)c(S(=O)(=O)C2CC3CCCCC3C2)c1[O-])c1cc([O-])n(-c2ccc([O-])cc2)c1 (protonated)
O=C([N-]c1ccc(Cl)c(S(=O)(=O)C2C[C@H]3CCCC[C@H]3C2)c1[O-])c1cc([O-])n(-c2ccc([O-])cc2)c1 (chirality)
O=C([N-]c1ccc(Cl)c(S(=O)(=O)C2C[C@H]3CCCC[C@H]3C2)c1[O-])c1cc([O-])n(-c2ccc([O-])cc2)c1 (3D coordinates assigned)
O=C([N-]c1ccc(Cl)c(S(=O)(=O)C2C[C@H]3CCCC[C@H]3C2)c1[O-])c1cc([O-])n(-c2ccc([O-])cc2)c1 (nonaromatic ring conformer: 106.58740746013835 kcal/mol)

>  <smiles>  (35) 
O=C(Nc1ccc(Cl)c(S(=O)(=O)C2CC3CCCCC3C2)c1O)c1cc(O)n(-c2ccc(O)cc2)c1

>  <score_type>  (35) 
oracle

>  <origin>  (35) 
adgpu

>  <m_score__min__energy>  (35) 
-15.75

>  <m_primary>  (35) 
energy

$$$$
35:0
     RDKit          3D

 57 60  0  0  0  0  0  0  0  0999 V2000
   -7.5600   23.6880  -31.2240 C   0  0  0  0  0  0  0  0  0  0  0  0
   -7.0960   22.7800  -32.2150 O   0  0  0  0  0  0  0  0  0  0  0  0
   -7.4650   21.4310  -32.2440 C   0  0  0  0  0  0  0  0  0  0  0  0
   -8.6890   21.0440  -31.7900 N   0  0  0  0  0  0  0  0  0  0  0  0
   -9.0810   19.7460  -31.7960 C   0  0  0  0  0  0  0  0  0  0  0  0
   -8.2160   18.7580  -32.2620 C   0  0  0  0  0  0  0  0  0  0  0  0
   -6.9440   19.1120  -32.7340 C   0  0  0  0  0  0  0  0  0  0  0  0
   -6.0280   18.0790  -33.1400 N   0  0  0  0  0  0  0  0  0  0  0  0
   -5.8770   17.7830  -34.5690 C   0  0  0  0  0  0  0  0  0  0  0  0
   -4.5000   17.1580  -34.8880 C   0  0  0  0  0  0  0  0  0  0  0  0
   -3.8950   16.3920  -33.7700 N   0  0  0  0  0  0  0  0  0  0  0  0
   -2.8010   17.1350  -33.1200 C   0  0  0  0  0  0  0  0  0  0  0  0
   -4.8900   15.9040  -32.7970 C   0  0  0  0  0  0  0  0  0  0  0  0
   -5.6660   17.0590  -32.1490 C   0  0  0  0  0  0  0  0  0  0  0  0
   -6.5700   20.4710  -32.7460 C   0  0  0  0  0  0  0  0  0  0  0  0
   -4.9830   20.9990  -33.4190 S   0  0  0  0  0  0  0  0  0  0  0  0
   -4.4020   21.6330  -31.8440 C   0  0  0  0  0  0  0  0  0  0  0  0
   -3.9380   20.7550  -30.8620 C   0  0  0  0  0  0  0  0  0  0  0  0
   -3.4740   21.2460  -29.6380 C   0  0  0  0  0  0  0  0  0  0  0  0
   -3.4680   22.6300  -29.3870 C   0  0  0  0  0  0  0  0  0  0  0  0
   -3.0180   23.1620  -28.1290 N   0  0  0  0  0  0  0  0  0  0  0  0
   -2.2320   24.3610  -28.0000 C   0  0  0  0  0  0  0  0  0  0  0  0
   -2.0350   25.1010  -29.0020 O   0  0  0  0  0  0  0  0  0  0  0  0
   -1.6860   24.7640  -26.6840 C   0  0  0  0  0  0  0  0  0  0  0  0
   -1.9860   26.0380  -26.1680 C   0  0  0  0  0  0  0  0  0  0  0  0
   -1.4680   26.4470  -24.9370 C   0  0  0  0  0  0  0  0  0  0  0  0
   -0.6420   25.5910  -24.2060 C   0  0  0  0  0  0  0  0  0  0  0  0
   -0.3340   24.3250  -24.7050 C   0  0  0  0  0  0  0  0  0  0  0  0
   -0.8470   23.9030  -25.9380 C   0  0  0  0  0  0  0  0  0  0  0  0
   -0.4600   22.2730  -26.4800 Cl  0  0  0  0  0  0  0  0  0  0  0  0
   -3.9740   23.5040  -30.3610 C   0  0  0  0  0  0  0  0  0  0  0  0
   -4.4350   23.0090  -31.5850 C   0  0  0  0  0  0  0  0  0  0  0  0
   -7.3507   23.2785  -30.2247 H   0  0  0  0  0  0  0  0  0  0  0  0
   -7.0443   24.6527  -31.3403 H   0  0  0  0  0  0  0  0  0  0  0  0
   -8.6439   23.8353  -31.3403 H   0  0  0  0  0  0  0  0  0  0  0  0
  -10.0827   19.4727  -31.4327 H   0  0  0  0  0  0  0  0  0  0  0  0
   -8.5300   17.7038  -32.2596 H   0  0  0  0  0  0  0  0  0  0  0  0
   -6.6656   17.0781  -34.8710 H   0  0  0  0  0  0  0  0  0  0  0  0
   -5.9569   18.7301  -35.1226 H   0  0  0  0  0  0  0  0  0  0  0  0
   -4.6220   16.4775  -35.7436 H   0  0  0  0  0  0  0  0  0  0  0  0
   -3.8183   17.9957  -35.0966 H   0  0  0  0  0  0  0  0  0  0  0  0
   -2.9072   17.0629  -32.0275 H   0  0  0  0  0  0  0  0  0  0  0  0
   -1.8349   16.7054  -33.4236 H   0  0  0  0  0  0  0  0  0  0  0  0
   -2.8442   18.1914  -33.4236 H   0  0  0  0  0  0  0  0  0  0  0  0
   -5.6009   15.2436  -33.3152 H   0  0  0  0  0  0  0  0  0  0  0  0
   -4.3552   15.3626  -32.0027 H   0  0  0  0  0  0  0  0  0  0  0  0
   -6.5841   16.6619  -31.6914 H   0  0  0  0  0  0  0  0  0  0  0  0
   -5.0233   17.5261  -31.3882 H   0  0  0  0  0  0  0  0  0  0  0  0
   -3.9376   19.6716  -31.0526 H   0  0  0  0  0  0  0  0  0  0  0  0
   -3.1125   20.5477  -28.8688 H   0  0  0  0  0  0  0  0  0  0  0  0
   -3.3290   22.6710  -27.2620 H   0  0  0  0  0  0  0  0  0  0  0  0
   -2.6346   26.7184  -26.7394 H   0  0  0  0  0  0  0  0  0  0  0  0
   -1.7111   27.4448  -24.5430 H   0  0  0  0  0  0  0  0  0  0  0  0
   -0.2342   25.9146  -23.2370 H   0  0  0  0  0  0  0  0  0  0  0  0
    0.3166   23.6533  -24.1257 H   0  0  0  0  0  0  0  0  0  0  0  0
   -4.0083   24.5851  -30.1606 H   0  0  0  0  0  0  0  0  0  0  0  0
   -4.8242   23.7016  -32.3457 H   0  0  0  0  0  0  0  0  0  0  0  0
  1  2  1  0
  2  3  1  0
  3  4  2  0
  4  5  1  0
  5  6  2  0
  6  7  1  0
  7  8  1  0
  8  9  1  0
  9 10  1  0
 10 11  1  0
 11 12  1  0
 11 13  1  0
 13 14  1  0
  7 15  2  0
 15 16  1  0
 16 17  1  0
 17 18  2  0
 18 19  1  0
 19 20  2  0
 20 21  1  0
 21 22  1  0
 22 23  2  0
 22 24  1  0
 24 25  2  0
 25 26  1  0
 26 27  2  0
 27 28  1  0
 28 29  2  0
 29 30  1  0
 20 31  1  0
 31 32  2  0
 15  3  1  0
 32 17  1  0
 14  8  1  0
 29 24  1  0
  1 33  1  0
  1 34  1  0
  1 35  1  0
  5 36  1  0
  6 37  1  0
  9 38  1  0
  9 39  1  0
 10 40  1  0
 10 41  1  0
 12 42  1  0
 12 43  1  0
 12 44  1  0
 13 45  1  0
 13 46  1  0
 14 47  1  0
 14 48  1  0
 18 49  1  0
 19 50  1  0
 21 51  1  0
 25 52  1  0
 26 53  1  0
 27 54  1  0
 28 55  1  0
 31 56  1  0
 32 57  1  0
M  END
>  <UniqueID>  (36) 
35

>  <SMILES>  (36) 
COc1nccc(N2CCN(C)CC2)c1Sc1ccc(NC(=O)c2ccccc2Cl)cc1

>  <Energy>  (36) 
75.36722696367069

>  <Genealogy>  (36) 
COc1nccc(N2CCN(C)CC2)c1Sc1ccc(NC(=O)c2ccccc2Cl)cc1 (3D coordinates assigned)
COc1nccc(N2CCN(C)CC2)c1Sc1ccc(NC(=O)c2ccccc2Cl)cc1 (nonaromatic ring conformer: 75.36722696367069 kcal/mol)

>  <smiles>  (36) 
COc1nccc(N2CCN(C)CC2)c1Sc1ccc(NC(=O)c2ccccc2Cl)cc1

>  <score_type>  (36) 
oracle

>  <origin>  (36) 
adgpu

>  <m_score__min__energy>  (36) 
-9.5800000000000001

>  <m_primary>  (36) 
energy

$$$$
36:0
     RDKit          3D

 51 54  0  0  0  0  0  0  0  0999 V2000
   -5.3670   14.5590  -33.3950 C   0  0  0  0  0  0  0  0  0  0  0  0
   -5.8530   15.9700  -33.4640 C   0  0  0  0  0  0  0  0  0  0  0  0
   -5.9020   16.5570  -34.5790 O   0  0  0  0  0  0  0  0  0  0  0  0
   -6.2060   16.6650  -32.2590 N   0  0  0  0  0  0  0  0  0  0  0  0
   -6.6330   18.0360  -32.2640 C   0  0  0  0  0  0  0  0  0  0  0  0
   -7.9800   18.3150  -32.0040 C   0  0  0  0  0  0  0  0  0  0  0  0
   -8.4390   19.6300  -31.9710 C   0  0  0  0  0  0  0  0  0  0  0  0
   -7.5590   20.6880  -32.1980 C   0  0  0  0  0  0  0  0  0  0  0  0
   -6.2020   20.4420  -32.4730 C   0  0  0  0  0  0  0  0  0  0  0  0
   -5.3020   21.5070  -32.7180 C   0  0  0  0  0  0  0  0  0  0  0  0
   -5.6920   22.8490  -32.6080 O   0  0  0  0  0  0  0  0  0  0  0  0
   -5.7280   23.5650  -31.4020 C   0  0  0  0  0  0  0  0  0  0  0  0
   -6.8730   24.2680  -30.9810 C   0  0  0  0  0  0  0  0  0  0  0  0
   -6.8590   24.9770  -29.7770 C   0  0  0  0  0  0  0  0  0  0  0  0
   -5.7110   24.9850  -28.9800 C   0  0  0  0  0  0  0  0  0  0  0  0
   -4.5720   24.2740  -29.3810 C   0  0  0  0  0  0  0  0  0  0  0  0
   -3.1110   24.3030  -28.4000 S   0  0  0  0  0  0  0  0  0  0  0  0
   -2.1340   25.2960  -28.9680 O   0  0  0  0  0  0  0  0  0  0  0  0
   -3.4660   24.7270  -27.0020 O   0  0  0  0  0  0  0  0  0  0  0  0
   -2.4110   22.7040  -28.3650 N   0  0  0  0  0  0  0  0  0  0  0  0
   -1.4800   22.5570  -27.2470 C   0  0  0  0  0  0  0  0  0  0  0  0
   -1.4630   21.0800  -26.8900 C   0  0  0  0  0  0  0  0  0  0  0  0
   -2.7400   20.5060  -27.4840 C   0  0  0  0  0  0  0  0  0  0  0  0
   -3.4340   21.6800  -28.1600 C   0  0  0  0  0  0  0  0  0  0  0  0
   -4.5860   23.5700  -30.5930 C   0  0  0  0  0  0  0  0  0  0  0  0
   -3.9850   21.2310  -33.0970 C   0  0  0  0  0  0  0  0  0  0  0  0
   -3.5400   19.9150  -33.1990 C   0  0  0  0  0  0  0  0  0  0  0  0
   -4.4030   18.8560  -32.9210 C   0  0  0  0  0  0  0  0  0  0  0  0
   -5.7370   19.0990  -32.5410 C   0  0  0  0  0  0  0  0  0  0  0  0
   -5.2633   14.2580  -32.3421 H   0  0  0  0  0  0  0  0  0  0  0  0
   -6.0891   13.8976  -33.8961 H   0  0  0  0  0  0  0  0  0  0  0  0
   -4.3907   14.4825  -33.8961 H   0  0  0  0  0  0  0  0  0  0  0  0
   -5.9420   16.2340  -31.3450 H   0  0  0  0  0  0  0  0  0  0  0  0
   -8.6827   17.4881  -31.8240 H   0  0  0  0  0  0  0  0  0  0  0  0
   -9.5000   19.8347  -31.7650 H   0  0  0  0  0  0  0  0  0  0  0  0
   -7.9294   21.7231  -32.1616 H   0  0  0  0  0  0  0  0  0  0  0  0
   -7.7811   24.2591  -31.6017 H   0  0  0  0  0  0  0  0  0  0  0  0
   -7.7538   25.5302  -29.4557 H   0  0  0  0  0  0  0  0  0  0  0  0
   -5.7015   25.5503  -28.0364 H   0  0  0  0  0  0  0  0  0  0  0  0
   -0.4739   22.8875  -27.5445 H   0  0  0  0  0  0  0  0  0  0  0  0
   -1.7904   23.1700  -26.3880 H   0  0  0  0  0  0  0  0  0  0  0  0
   -0.5809   20.5887  -27.3264 H   0  0  0  0  0  0  0  0  0  0  0  0
   -1.4110   20.9226  -25.8026 H   0  0  0  0  0  0  0  0  0  0  0  0
   -2.5043   19.7227  -28.2195 H   0  0  0  0  0  0  0  0  0  0  0  0
   -3.3760   20.0416  -26.7160 H   0  0  0  0  0  0  0  0  0  0  0  0
   -3.8571   21.3666  -29.1258 H   0  0  0  0  0  0  0  0  0  0  0  0
   -4.2615   22.0617  -27.5439 H   0  0  0  0  0  0  0  0  0  0  0  0
   -3.6906   23.0160  -30.9114 H   0  0  0  0  0  0  0  0  0  0  0  0
   -3.2950   22.0592  -33.3163 H   0  0  0  0  0  0  0  0  0  0  0  0
   -2.5021   19.7103  -33.5005 H   0  0  0  0  0  0  0  0  0  0  0  0
   -4.0385   17.8211  -32.9992 H   0  0  0  0  0  0  0  0  0  0  0  0
  1  2  1  0
  2  3  2  0
  2  4  1  0
  4  5  1  0
  5  6  2  0
  6  7  1  0
  7  8  2  0
  8  9  1  0
  9 10  2  0
 10 11  1  0
 11 12  1  0
 12 13  2  0
 13 14  1  0
 14 15  2  0
 15 16  1  0
 16 17  1  0
 17 18  2  0
 17 19  2  0
 17 20  1  0
 20 21  1  0
 21 22  1  0
 22 23  1  0
 23 24  1  0
 16 25  2  0
 10 26  1  0
 26 27  2  0
 27 28  1  0
 28 29  2  0
 29  5  1  0
 29  9  1  0
 25 12  1  0
 24 20  1  0
  1 30  1  0
  1 31  1  0
  1 32  1  0
  4 33  1  0
  6 34  1  0
  7 35  1  0
  8 36  1  0
 13 37  1  0
 14 38  1  0
 15 39  1  0
 21 40  1  0
 21 41  1  0
 22 42  1  0
 22 43  1  0
 23 44  1  0
 23 45  1  0
 24 46  1  0
 24 47  1  0
 25 48  1  0
 26 49  1  0
 27 50  1  0
 28 51  1  0
M  END
>  <UniqueID>  (37) 
36

>  <SMILES>  (37) 
CC(=O)Nc1cccc2c(Oc3cccc(S(=O)(=O)N4CCCC4)c3)cccc12

>  <Energy>  (37) 
71.86276765308756

>  <Genealogy>  (37) 
CC(=O)Nc1cccc2c(Oc3cccc(S(=O)(=O)N4CCCC4)c3)cccc12 (3D coordinates assigned)
CC(=O)Nc1cccc2c(Oc3cccc(S(=O)(=O)N4CCCC4)c3)cccc12 (nonaromatic ring conformer: 71.86276765308756 kcal/mol)

>  <smiles>  (37) 
CC(=O)Nc1cccc2c(Oc3cccc(S(=O)(=O)N4CCCC4)c3)cccc12

>  <score_type>  (37) 
oracle

>  <origin>  (37) 
adgpu

>  <m_score__min__energy>  (37) 
-10.57

>  <m_primary>  (37) 
energy

$$$$
37:0
     RDKit          3D

 46 48  0  0  0  0  0  0  0  0999 V2000
   -4.9490   24.6810  -28.6310 N   0  0  0  0  0  0  0  0  0  0  0  0
   -5.2840   24.8360  -30.3400 S   0  0  0  0  0  0  0  0  0  0  0  0
   -4.0580   25.4600  -30.9400 O   0  0  0  0  0  0  0  0  0  0  0  0
   -6.4800   25.7080  -30.4520 O   0  0  0  0  0  0  0  0  0  0  0  0
   -5.5750   23.2260  -30.9590 C   0  0  0  0  0  0  0  0  0  0  0  0
   -6.8310   22.7420  -31.1210 C   0  0  0  0  0  0  0  0  0  0  0  0
   -7.1260   21.4630  -31.6060 C   0  0  0  0  0  0  0  0  0  0  0  0
   -8.7660   21.0190  -31.8490 S   0  0  0  0  0  0  0  0  0  0  0  0
   -9.0450   19.7840  -33.0010 N   0  0  0  0  0  0  0  0  0  0  0  0
   -9.6890   22.1880  -32.0680 O   0  0  0  0  0  0  0  0  0  0  0  0
   -9.2940   20.4290  -30.5460 O   0  0  0  0  0  0  0  0  0  0  0  0
   -6.0590   20.6540  -31.9330 C   0  0  0  0  0  0  0  0  0  0  0  0
   -6.1800   19.0100  -32.4420 S   0  0  0  0  0  0  0  0  0  0  0  0
   -7.2620   18.2590  -31.6790 O   0  0  0  0  0  0  0  0  0  0  0  0
   -6.8620   19.0540  -33.8250 O   0  0  0  0  0  0  0  0  0  0  0  0
   -4.8040   18.1400  -32.7040 N   0  0  0  0  0  0  0  0  0  0  0  0
   -4.6040   16.7860  -32.5860 C   0  0  0  0  0  0  0  0  0  0  0  0
   -4.8300   15.9870  -33.8660 C   0  0  0  0  0  0  0  0  0  0  0  0
   -3.8560   16.4360  -34.7580 O   0  0  0  0  0  0  0  0  0  0  0  0
   -3.9820   17.7970  -35.0150 C   0  0  0  0  0  0  0  0  0  0  0  0
   -4.0200   18.6630  -33.8010 C   0  0  0  0  0  0  0  0  0  0  0  0
   -4.7650   21.1720  -31.7590 C   0  0  0  0  0  0  0  0  0  0  0  0
   -4.5140   22.4330  -31.2830 C   0  0  0  0  0  0  0  0  0  0  0  0
   -2.8050   22.9400  -31.1090 S   0  0  0  0  0  0  0  0  0  0  0  0
   -2.4520   23.6290  -29.5120 C   0  0  0  0  0  0  0  0  0  0  0  0
   -2.4100   23.0690  -28.2980 N   0  0  0  0  0  0  0  0  0  0  0  0
   -2.0930   23.9920  -27.3890 C   0  0  0  0  0  0  0  0  0  0  0  0
   -1.9800   23.7620  -26.1520 O   0  0  0  0  0  0  0  0  0  0  0  0
   -1.9320   25.1610  -28.0510 N   0  0  0  0  0  0  0  0  0  0  0  0
   -2.1480   24.9380  -29.3290 N   0  0  0  0  0  0  0  0  0  0  0  0
   -5.7940   24.2040  -28.2180 H   0  0  0  0  0  0  0  0  0  0  0  0
   -4.9310   25.6380  -28.1720 H   0  0  0  0  0  0  0  0  0  0  0  0
   -7.6730   23.3974  -30.8538 H   0  0  0  0  0  0  0  0  0  0  0  0
   -8.7840   20.0800  -33.9490 H   0  0  0  0  0  0  0  0  0  0  0  0
   -8.7430   18.8550  -32.6940 H   0  0  0  0  0  0  0  0  0  0  0  0
   -3.5665   16.6214  -32.2597 H   0  0  0  0  0  0  0  0  0  0  0  0
   -5.3513   16.4266  -31.8632 H   0  0  0  0  0  0  0  0  0  0  0  0
   -4.7098   14.9105  -33.6743 H   0  0  0  0  0  0  0  0  0  0  0  0
   -5.8459   16.1285  -34.2633 H   0  0  0  0  0  0  0  0  0  0  0  0
   -3.1260   18.1094  -35.6312 H   0  0  0  0  0  0  0  0  0  0  0  0
   -4.9510   17.9281  -35.5188 H   0  0  0  0  0  0  0  0  0  0  0  0
   -2.9876   18.8014  -33.4476 H   0  0  0  0  0  0  0  0  0  0  0  0
   -4.5052   19.6017  -34.1068 H   0  0  0  0  0  0  0  0  0  0  0  0
   -3.9083   20.5325  -32.0182 H   0  0  0  0  0  0  0  0  0  0  0  0
   -1.6740   26.0680  -27.5650 H   0  0  0  0  0  0  0  0  0  0  0  0
   -2.0880   25.6750  -30.0700 H   0  0  0  0  0  0  0  0  0  0  0  0
  1  2  1  0
  2  3  2  0
  2  4  2  0
  2  5  1  0
  5  6  2  0
  6  7  1  0
  7  8  1  0
  8  9  1  0
  8 10  2  0
  8 11  2  0
  7 12  2  0
 12 13  1  0
 13 14  2  0
 13 15  2  0
 13 16  1  0
 16 17  1  0
 17 18  1  0
 18 19  1  0
 19 20  1  0
 20 21  1  0
 12 22  1  0
 22 23  2  0
 23 24  1  0
 24 25  1  0
 25 26  2  0
 26 27  1  0
 27 28  2  0
 27 29  1  0
 29 30  1  0
 23  5  1  0
 30 25  1  0
 21 16  1  0
  1 31  1  0
  1 32  1  0
  6 33  1  0
  9 34  1  0
  9 35  1  0
 17 36  1  0
 17 37  1  0
 18 38  1  0
 18 39  1  0
 20 40  1  0
 20 41  1  0
 21 42  1  0
 21 43  1  0
 22 44  1  0
 29 45  1  0
 30 46  1  0
M  END
>  <smiles>  (38) 
NS(=O)(=O)c1cc(S(N)(=O)=O)c(S(=O)(=O)N2CCOCC2)cc1Sc1nc(=O)[nH][nH]1

>  <score_type>  (38) 
oracle

>  <origin>  (38) 
adgpu

>  <m_score__min__energy>  (38) 
-10.720000000000001

>  <m_primary>  (38) 
energy

$$$$
38:0
     RDKit          3D

 42 44  0  0  0  0  0  0  0  0999 V2000
   -6.3730   25.5820  -29.7710 O   0  0  0  0  0  0  0  0  0  0  0  0
   -5.1130   24.8210  -30.0810 S   0  0  0  0  0  0  0  0  0  0  0  0
   -4.2400   25.6860  -30.9480 O   0  0  0  0  0  0  0  0  0  0  0  0
   -4.2850   24.4800  -28.5950 N   0  0  0  0  0  0  0  0  0  0  0  0
   -3.0700   23.7280  -28.5300 C   0  0  0  0  0  0  0  0  0  0  0  0
   -3.0630   22.4060  -28.0590 C   0  0  0  0  0  0  0  0  0  0  0  0
   -1.8660   21.6850  -28.0000 C   0  0  0  0  0  0  0  0  0  0  0  0
   -1.8700   20.0270  -27.4250 Cl  0  0  0  0  0  0  0  0  0  0  0  0
   -0.6660   22.2890  -28.3920 C   0  0  0  0  0  0  0  0  0  0  0  0
   -0.6610   23.6160  -28.8280 C   0  0  0  0  0  0  0  0  0  0  0  0
   -1.8590   24.3390  -28.8910 C   0  0  0  0  0  0  0  0  0  0  0  0
   -1.8420   25.6600  -29.3260 O   0  0  0  0  0  0  0  0  0  0  0  0
   -5.5390   23.3460  -30.9430 C   0  0  0  0  0  0  0  0  0  0  0  0
   -6.8510   23.1500  -31.3960 C   0  0  0  0  0  0  0  0  0  0  0  0
   -7.2000   21.9620  -32.0450 C   0  0  0  0  0  0  0  0  0  0  0  0
   -6.2420   20.9580  -32.2420 C   0  0  0  0  0  0  0  0  0  0  0  0
   -6.7030   19.4630  -33.0500 S   0  0  0  0  0  0  0  0  0  0  0  0
   -6.5540   19.6610  -34.5330 O   0  0  0  0  0  0  0  0  0  0  0  0
   -8.1390   19.1380  -32.7410 O   0  0  0  0  0  0  0  0  0  0  0  0
   -5.6550   18.1700  -32.5020 N   0  0  0  0  0  0  0  0  0  0  0  0
   -6.3160   16.8500  -32.5900 C   0  0  0  0  0  0  0  0  0  0  0  0
   -5.9110   16.0620  -33.8500 C   0  0  0  0  0  0  0  0  0  0  0  0
   -5.6370   16.9460  -34.9140 O   0  0  0  0  0  0  0  0  0  0  0  0
   -4.4490   17.6720  -34.6480 C   0  0  0  0  0  0  0  0  0  0  0  0
   -4.3540   18.1930  -33.1940 C   0  0  0  0  0  0  0  0  0  0  0  0
   -4.9310   21.1530  -31.7870 C   0  0  0  0  0  0  0  0  0  0  0  0
   -4.5810   22.3420  -31.1420 C   0  0  0  0  0  0  0  0  0  0  0  0
   -4.0027   21.9350  -27.7349 H   0  0  0  0  0  0  0  0  0  0  0  0
    0.2738   21.7184  -28.3567 H   0  0  0  0  0  0  0  0  0  0  0  0
    0.2851   24.0939  -29.1223 H   0  0  0  0  0  0  0  0  0  0  0  0
   -7.6078   23.9329  -31.2404 H   0  0  0  0  0  0  0  0  0  0  0  0
   -8.2299   21.8147  -32.4022 H   0  0  0  0  0  0  0  0  0  0  0  0
   -6.0417   16.2598  -31.7032 H   0  0  0  0  0  0  0  0  0  0  0  0
   -7.4005   17.0258  -32.6439 H   0  0  0  0  0  0  0  0  0  0  0  0
   -5.0119   15.4668  -33.6322 H   0  0  0  0  0  0  0  0  0  0  0  0
   -6.7405   15.4002  -34.1397 H   0  0  0  0  0  0  0  0  0  0  0  0
   -3.5889   17.0132  -34.8383 H   0  0  0  0  0  0  0  0  0  0  0  0
   -4.4549   18.5530  -35.3067 H   0  0  0  0  0  0  0  0  0  0  0  0
   -3.6469   17.5602  -32.6376 H   0  0  0  0  0  0  0  0  0  0  0  0
   -4.0144   19.2385  -33.2342 H   0  0  0  0  0  0  0  0  0  0  0  0
   -4.1755   20.3679  -31.9380 H   0  0  0  0  0  0  0  0  0  0  0  0
   -3.5499   22.4909  -30.7890 H   0  0  0  0  0  0  0  0  0  0  0  0
  1  2  2  0
  2  3  2  0
  2  4  1  0
  4  5  1  0
  5  6  2  0
  6  7  1  0
  7  8  1  0
  7  9  2  0
  9 10  1  0
 10 11  2  0
 11 12  1  0
  2 13  1  0
 13 14  2  0
 14 15  1  0
 15 16  2  0
 16 17  1  0
 17 18  2  0
 17 19  2  0
 17 20  1  0
 20 21  1  0
 21 22  1  0
 22 23  1  0
 23 24  1  0
 24 25  1  0
 16 26  1  0
 26 27  2  0
 11  5  1  0
 27 13  1  0
 25 20  1  0
  6 28  1  0
  9 29  1  0
 10 30  1  0
 14 31  1  0
 15 32  1  0
 21 33  1  0
 21 34  1  0
 22 35  1  0
 22 36  1  0
 24 37  1  0
 24 38  1  0
 25 39  1  0
 25 40  1  0
 26 41  1  0
 27 42  1  0
M  CHG  2   4  -1  12  -1
M  END
>  <UniqueID>  (39) 
37

>  <SMILES>  (39) 
O=S(=O)([N-]c1cc(Cl)ccc1[O-])c1ccc(S(=O)(=O)N2CCOCC2)cc1

>  <Energy>  (39) 
62.914102166644554

>  <Genealogy>  (39) 
O=S(=O)([N-]c1cc(Cl)ccc1[O-])c1ccc(S(=O)(=O)N2CCOCC2)cc1 (protonated)
O=S(=O)([N-]c1cc(Cl)ccc1[O-])c1ccc(S(=O)(=O)N2CCOCC2)cc1 (3D coordinates assigned)
O=S(=O)([N-]c1cc(Cl)ccc1[O-])c1ccc(S(=O)(=O)N2CCOCC2)cc1 (nonaromatic ring conformer: 62.914102166644554 kcal/mol)

>  <smiles>  (39) 
O=S(=O)(Nc1cc(Cl)ccc1O)c1ccc(S(=O)(=O)N2CCOCC2)cc1

>  <score_type>  (39) 
oracle

>  <origin>  (39) 
adgpu

>  <m_score__min__energy>  (39) 
-14.6

>  <m_primary>  (39) 
energy

$$$$
39:0
     RDKit          3D

 45 48  0  0  0  0  0  0  0  0999 V2000
   -2.1950   20.6640  -31.2490 O   0  0  0  0  0  0  0  0  0  0  0  0
   -2.4240   21.8750  -30.9870 C   0  0  0  0  0  0  0  0  0  0  0  0
   -3.2830   22.6440  -31.8380 N   0  0  0  0  0  0  0  0  0  0  0  0
   -4.5470   23.2030  -31.4540 C   0  0  0  0  0  0  0  0  0  0  0  0
   -5.7070   22.4500  -31.6840 C   0  0  0  0  0  0  0  0  0  0  0  0
   -6.9640   22.9450  -31.3110 C   0  0  0  0  0  0  0  0  0  0  0  0
   -8.4180   21.9870  -31.6030 S   0  0  0  0  0  0  0  0  0  0  0  0
   -9.4880   22.8750  -32.1760 O   0  0  0  0  0  0  0  0  0  0  0  0
   -8.9220   21.4430  -30.2940 O   0  0  0  0  0  0  0  0  0  0  0  0
   -8.1180   20.6570  -32.7030 N   0  0  0  0  0  0  0  0  0  0  0  0
   -7.0120   19.8180  -32.2320 C   0  0  0  0  0  0  0  0  0  0  0  0
   -7.5950   18.6060  -31.5200 C   0  0  0  0  0  0  0  0  0  0  0  0
   -9.0670   18.5850  -31.8790 C   0  0  0  0  0  0  0  0  0  0  0  0
   -9.2880   19.7760  -32.7990 C   0  0  0  0  0  0  0  0  0  0  0  0
   -7.0590   24.2030  -30.7030 C   0  0  0  0  0  0  0  0  0  0  0  0
   -5.9060   24.9450  -30.4410 C   0  0  0  0  0  0  0  0  0  0  0  0
   -4.6450   24.4450  -30.7970 C   0  0  0  0  0  0  0  0  0  0  0  0
   -3.4980   25.1650  -30.4670 O   0  0  0  0  0  0  0  0  0  0  0  0
   -1.7880   22.5330  -29.8280 C   0  0  0  0  0  0  0  0  0  0  0  0
   -1.3110   23.7930  -30.0170 N   0  0  0  0  0  0  0  0  0  0  0  0
   -0.6650   24.4620  -29.0650 N   0  0  0  0  0  0  0  0  0  0  0  0
   -0.4390   23.9250  -27.8420 C   0  0  0  0  0  0  0  0  0  0  0  0
    0.1880   24.5970  -26.9790 O   0  0  0  0  0  0  0  0  0  0  0  0
   -0.9180   22.6360  -27.5530 C   0  0  0  0  0  0  0  0  0  0  0  0
   -0.7230   22.0550  -26.2860 C   0  0  0  0  0  0  0  0  0  0  0  0
   -1.2430   20.7930  -26.0020 C   0  0  0  0  0  0  0  0  0  0  0  0
   -1.9720   20.1040  -26.9680 C   0  0  0  0  0  0  0  0  0  0  0  0
   -2.1720   20.6630  -28.2330 C   0  0  0  0  0  0  0  0  0  0  0  0
   -1.6250   21.9250  -28.5570 C   0  0  0  0  0  0  0  0  0  0  0  0
   -5.6299   21.4620  -32.1614 H   0  0  0  0  0  0  0  0  0  0  0  0
   -6.4051   19.4889  -33.0884 H   0  0  0  0  0  0  0  0  0  0  0  0
   -6.3728   20.3890  -31.5425 H   0  0  0  0  0  0  0  0  0  0  0  0
   -7.1031   17.6850  -31.8662 H   0  0  0  0  0  0  0  0  0  0  0  0
   -7.4444   18.6643  -30.4319 H   0  0  0  0  0  0  0  0  0  0  0  0
   -9.3212   17.6486  -32.3973 H   0  0  0  0  0  0  0  0  0  0  0  0
   -9.7024   18.6431  -30.9830 H   0  0  0  0  0  0  0  0  0  0  0  0
   -9.4072   19.4279  -33.8356 H   0  0  0  0  0  0  0  0  0  0  0  0
  -10.1969   20.3200  -32.5024 H   0  0  0  0  0  0  0  0  0  0  0  0
   -8.0451   24.6076  -30.4311 H   0  0  0  0  0  0  0  0  0  0  0  0
   -5.9869   25.9273  -29.9526 H   0  0  0  0  0  0  0  0  0  0  0  0
   -2.6150   24.7040  -30.2820 H   0  0  0  0  0  0  0  0  0  0  0  0
   -0.1573   22.5996  -25.5157 H   0  0  0  0  0  0  0  0  0  0  0  0
   -1.0771   20.3407  -25.0131 H   0  0  0  0  0  0  0  0  0  0  0  0
   -2.3925   19.1148  -26.7341 H   0  0  0  0  0  0  0  0  0  0  0  0
   -2.7608   20.1155  -28.9837 H   0  0  0  0  0  0  0  0  0  0  0  0
  1  2  2  0
  2  3  1  0
  3  4  1  0
  4  5  2  0
  5  6  1  0
  6  7  1  0
  7  8  2  0
  7  9  2  0
  7 10  1  0
 10 11  1  0
 11 12  1  0
 12 13  1  0
 13 14  1  0
  6 15  2  0
 15 16  1  0
 16 17  2  0
 17 18  1  0
  2 19  1  0
 19 20  2  0
 20 21  1  0
 21 22  1  0
 22 23  2  0
 22 24  1  0
 24 25  2  0
 25 26  1  0
 26 27  2  0
 27 28  1  0
 28 29  2  0
 17  4  1  0
 29 19  1  0
 14 10  1  0
 29 24  1  0
  5 30  1  0
 11 31  1  0
 11 32  1  0
 12 33  1  0
 12 34  1  0
 13 35  1  0
 13 36  1  0
 14 37  1  0
 14 38  1  0
 15 39  1  0
 16 40  1  0
 18 41  1  0
 25 42  1  0
 26 43  1  0
 27 44  1  0
 28 45  1  0
M  CHG  2   3  -1  21  -1
M  END
>  <UniqueID>  (40) 
38

>  <SMILES>  (40) 
O=C([N-]c1cc(S(=O)(=O)N2CCCC2)ccc1O)c1n[n-]c(=O)c2ccccc12

>  <Energy>  (40) 
65.91363114206472

>  <Genealogy>  (40) 
O=C([N-]c1cc(S(=O)(=O)N2CCCC2)ccc1O)c1n[n-]c(=O)c2ccccc12 (protonated)
O=C([N-]c1cc(S(=O)(=O)N2CCCC2)ccc1O)c1n[n-]c(=O)c2ccccc12 (3D coordinates assigned)
O=C([N-]c1cc(S(=O)(=O)N2CCCC2)ccc1O)c1n[n-]c(=O)c2ccccc12 (nonaromatic ring conformer: 65.91363114206472 kcal/mol)

>  <smiles>  (40) 
O=C(Nc1cc(S(=O)(=O)N2CCCC2)ccc1O)c1n[nH]c(=O)c2ccccc12

>  <score_type>  (40) 
oracle

>  <origin>  (40) 
adgpu

>  <m_score__min__energy>  (40) 
-12.77

>  <m_primary>  (40) 
energy

$$$$
40:0
     RDKit          3D

 35 37  0  0  0  0  0  0  0  0999 V2000
   -7.9110   23.8173  -32.9084 H   0  0  0  0  0  0  0  0  0  0  0  0
   -7.1260   23.5970  -32.1700 C   0  0  0  0  0  0  0  0  0  0  0  0
   -7.1460   22.3670  -31.4730 C   0  0  0  0  0  0  0  0  0  0  0  0
   -8.4290   21.1910  -31.7820 S   0  0  0  0  0  0  0  0  0  0  0  0
   -8.8320   20.5560  -30.4800 O   0  0  0  0  0  0  0  0  0  0  0  0
   -9.6270   21.9110  -32.3380 O   0  0  0  0  0  0  0  0  0  0  0  0
   -7.9480   19.9380  -32.9010 N   0  0  0  0  0  0  0  0  0  0  0  0
   -7.9840   18.6120  -32.2890 C   0  0  0  0  0  0  0  0  0  0  0  0
   -7.6833   18.6721  -31.2326 H   0  0  0  0  0  0  0  0  0  0  0  0
   -8.9974   18.1854  -32.3201 H   0  0  0  0  0  0  0  0  0  0  0  0
   -7.0000   17.7540  -33.0680 C   0  0  0  0  0  0  0  0  0  0  0  0
   -6.4256   17.1107  -32.3852 H   0  0  0  0  0  0  0  0  0  0  0  0
   -7.5110   17.0884  -33.7793 H   0  0  0  0  0  0  0  0  0  0  0  0
   -6.0780   18.7380  -33.7750 C   0  0  0  0  0  0  0  0  0  0  0  0
   -5.0371   18.5918  -33.4506 H   0  0  0  0  0  0  0  0  0  0  0  0
   -6.0935   18.6025  -34.8665 H   0  0  0  0  0  0  0  0  0  0  0  0
   -6.5740   20.1170  -33.3680 C   0  0  0  0  0  0  0  0  0  0  0  0
   -5.9474   20.5241  -32.5608 H   0  0  0  0  0  0  0  0  0  0  0  0
   -6.5269   20.8233  -34.2100 H   0  0  0  0  0  0  0  0  0  0  0  0
   -6.1510   22.0900  -30.5160 C   0  0  0  0  0  0  0  0  0  0  0  0
   -6.1576   21.1449  -29.9532 H   0  0  0  0  0  0  0  0  0  0  0  0
   -5.1590   23.0420  -30.3000 C   0  0  0  0  0  0  0  0  0  0  0  0
   -3.8620   22.9820  -29.2400 S   0  0  0  0  0  0  0  0  0  0  0  0
   -3.3050   24.5150  -29.7200 C   0  0  0  0  0  0  0  0  0  0  0  0
   -2.2770   25.1530  -29.2390 N   0  0  0  0  0  0  0  0  0  0  0  0
   -1.3100   24.7100  -28.2720 C   0  0  0  0  0  0  0  0  0  0  0  0
   -0.1130   24.5750  -28.6400 O   0  0  0  0  0  0  0  0  0  0  0  0
   -1.6670   24.3560  -26.8610 C   0  0  0  0  0  0  0  0  0  0  0  0
   -1.0607   24.9572  -26.1675 H   0  0  0  0  0  0  0  0  0  0  0  0
   -2.7336   24.5632  -26.6896 H   0  0  0  0  0  0  0  0  0  0  0  0
   -1.4688   23.2877  -26.6896 H   0  0  0  0  0  0  0  0  0  0  0  0
   -4.1030   25.0720  -30.6640 N   0  0  0  0  0  0  0  0  0  0  0  0
   -5.1300   24.2440  -30.9860 C   0  0  0  0  0  0  0  0  0  0  0  0
   -6.1140   24.5400  -31.9290 C   0  0  0  0  0  0  0  0  0  0  0  0
   -6.0976   25.4952  -32.4742 H   0  0  0  0  0  0  0  0  0  0  0  0
  1  2  1  0
  2  3  2  0
  3  4  1  0
  4  5  2  0
  4  6  2  0
  4  7  1  0
  7  8  1  0
  8  9  1  0
  8 10  1  0
  8 11  1  0
 11 12  1  0
 11 13  1  0
 11 14  1  0
 14 15  1  0
 14 16  1  0
 14 17  1  0
 17 18  1  0
 17 19  1  0
  3 20  1  0
 20 21  1  0
 20 22  2  0
 22 23  1  0
 23 24  1  0
 24 25  2  0
 25 26  1  0
 26 27  2  0
 26 28  1  0
 28 29  1  0
 28 30  1  0
 28 31  1  0
 24 32  1  0
 32 33  1  0
 33 34  2  0
 34 35  1  0
 34  2  1  0
 17  7  1  0
 33 22  1  0
M  CHG  1  32  -1
M  END
>  <UniqueID>  (41) 
39

>  <SMILES>  (41) 
CC(=O)/N=c1/[n-]c2ccc(S(=O)(=O)N3CCCC3)cc2s1

>  <Energy>  (41) 
76.34417644187415

>  <Genealogy>  (41) 
CC(=O)N=c1[n-]c2ccc(S(=O)(=O)N3CCCC3)cc2s1 (protonated)
CC(=O)/N=c1/[n-]c2ccc(S(=O)(=O)N3CCCC3)cc2s1 (cis-trans isomerization)
CC(=O)/N=c1/[n-]c2ccc(S(=O)(=O)N3CCCC3)cc2s1 (3D coordinates assigned)
CC(=O)/N=c1/[n-]c2ccc(S(=O)(=O)N3CCCC3)cc2s1 (nonaromatic ring conformer: 76.34417644187415 kcal/mol)

>  <smiles>  (41) 
CC(=O)N=c1[nH]c2ccc(S(=O)(=O)N3CCCC3)cc2s1

>  <score_type>  (41) 
oracle

>  <origin>  (41) 
adgpu

>  <m_score__min__energy>  (41) 
-10.65

>  <m_primary>  (41) 
energy

$$$$
41:0
     RDKit          3D

 50 53  0  0  0  0  0  0  0  0999 V2000
   -4.6050   18.7370  -33.1740 C   0  0  0  0  0  0  0  0  0  0  0  0
   -5.9260   19.0710  -33.7930 C   0  0  0  0  0  0  0  0  0  0  0  0
   -6.0730   18.8900  -35.0310 O   0  0  0  0  0  0  0  0  0  0  0  0
   -7.0100   19.6280  -33.0290 N   0  0  0  0  0  0  0  0  0  0  0  0
   -8.2310   18.8800  -32.7220 C   0  0  0  0  0  0  0  0  0  0  0  0
   -9.1070   19.8160  -31.8570 C   0  0  0  0  0  0  0  0  0  0  0  0
   -8.2450   21.0130  -31.6660 C   0  0  0  0  0  0  0  0  0  0  0  0
   -8.5110   22.1350  -30.8820 C   0  0  0  0  0  0  0  0  0  0  0  0
   -7.5280   23.1320  -30.7800 C   0  0  0  0  0  0  0  0  0  0  0  0
   -6.2920   22.9900  -31.4410 C   0  0  0  0  0  0  0  0  0  0  0  0
   -5.3090   24.0270  -31.2960 N   0  0  0  0  0  0  0  0  0  0  0  0
   -3.9240   23.8400  -30.9800 C   0  0  0  0  0  0  0  0  0  0  0  0
   -3.2810   22.9290  -31.5630 O   0  0  0  0  0  0  0  0  0  0  0  0
   -3.2590   24.7400  -30.0870 N   0  0  0  0  0  0  0  0  0  0  0  0
   -2.5170   24.4100  -28.9040 C   0  0  0  0  0  0  0  0  0  0  0  0
   -2.8400   23.3030  -28.1080 C   0  0  0  0  0  0  0  0  0  0  0  0
   -2.1570   23.0680  -26.9180 C   0  0  0  0  0  0  0  0  0  0  0  0
   -1.1540   23.9460  -26.4780 C   0  0  0  0  0  0  0  0  0  0  0  0
   -0.4780   23.6570  -25.1630 C   0  0  0  0  0  0  0  0  0  0  0  0
   -0.8110   25.0680  -27.2770 C   0  0  0  0  0  0  0  0  0  0  0  0
    0.4230   26.2420  -26.7460 S   0  0  0  0  0  0  0  0  0  0  0  0
    1.7040   26.0250  -27.5050 O   0  0  0  0  0  0  0  0  0  0  0  0
    0.7290   26.0320  -25.2910 O   0  0  0  0  0  0  0  0  0  0  0  0
   -0.0860   27.9490  -26.9830 C   0  0  0  0  0  0  0  0  0  0  0  0
    0.5570   28.9970  -26.0860 C   0  0  0  0  0  0  0  0  0  0  0  0
   -0.8600   28.5260  -25.8080 C   0  0  0  0  0  0  0  0  0  0  0  0
   -1.5120   25.2910  -28.4820 C   0  0  0  0  0  0  0  0  0  0  0  0
   -1.2340   26.4070  -29.2660 O   0  0  0  0  0  0  0  0  0  0  0  0
   -6.0670   21.8550  -32.2540 C   0  0  0  0  0  0  0  0  0  0  0  0
   -7.0660   20.8780  -32.3480 C   0  0  0  0  0  0  0  0  0  0  0  0
   -4.6972   18.7603  -32.0781 H   0  0  0  0  0  0  0  0  0  0  0  0
   -4.2936   17.7319  -33.4945 H   0  0  0  0  0  0  0  0  0  0  0  0
   -3.8533   19.4733  -33.4945 H   0  0  0  0  0  0  0  0  0  0  0  0
   -8.7585   18.6144  -33.6500 H   0  0  0  0  0  0  0  0  0  0  0  0
   -8.0036   17.9429  -32.1928 H   0  0  0  0  0  0  0  0  0  0  0  0
  -10.0374   20.0802  -32.3809 H   0  0  0  0  0  0  0  0  0  0  0  0
   -9.4209   19.3562  -30.9083 H   0  0  0  0  0  0  0  0  0  0  0  0
   -9.4709   22.2368  -30.3545 H   0  0  0  0  0  0  0  0  0  0  0  0
   -7.7245   24.0319  -30.1787 H   0  0  0  0  0  0  0  0  0  0  0  0
   -3.6380   22.6156  -28.4253 H   0  0  0  0  0  0  0  0  0  0  0  0
   -2.4065   22.1828  -26.3146 H   0  0  0  0  0  0  0  0  0  0  0  0
   -1.1458   23.9425  -24.3369 H   0  0  0  0  0  0  0  0  0  0  0  0
   -0.2504   22.5829  -25.0960 H   0  0  0  0  0  0  0  0  0  0  0  0
    0.4558   24.2346  -25.0960 H   0  0  0  0  0  0  0  0  0  0  0  0
   -0.2292   27.8631  -28.0702 H   0  0  0  0  0  0  0  0  0  0  0  0
    1.3742   28.7129  -25.4067 H   0  0  0  0  0  0  0  0  0  0  0  0
    1.0334   29.9748  -26.2503 H   0  0  0  0  0  0  0  0  0  0  0  0
   -1.0687   27.9011  -24.9271 H   0  0  0  0  0  0  0  0  0  0  0  0
   -1.8344   29.0220  -25.6875 H   0  0  0  0  0  0  0  0  0  0  0  0
   -5.1214   21.7412  -32.8044 H   0  0  0  0  0  0  0  0  0  0  0  0
  1  2  1  0
  2  3  2  0
  2  4  1  0
  4  5  1  0
  5  6  1  0
  6  7  1  0
  7  8  2  0
  8  9  1  0
  9 10  2  0
 10 11  1  0
 11 12  1  0
 12 13  2  0
 12 14  1  0
 14 15  1  0
 15 16  2  0
 16 17  1  0
 17 18  2  0
 18 19  1  0
 18 20  1  0
 20 21  1  0
 21 22  2  0
 21 23  2  0
 21 24  1  0
 24 25  1  0
 25 26  1  0
 20 27  2  0
 27 28  1  0
 10 29  1  0
 29 30  2  0
 30  4  1  0
 30  7  1  0
 27 15  1  0
 26 24  1  0
  1 31  1  0
  1 32  1  0
  1 33  1  0
  5 34  1  0
  5 35  1  0
  6 36  1  0
  6 37  1  0
  8 38  1  0
  9 39  1  0
 16 40  1  0
 17 41  1  0
 19 42  1  0
 19 43  1  0
 19 44  1  0
 24 45  1  0
 25 46  1  0
 25 47  1  0
 26 48  1  0
 26 49  1  0
 29 50  1  0
M  CHG  3  11  -1  14  -1  28  -1
M  END
>  <UniqueID>  (42) 
40

>  <SMILES>  (42) 
CC(=O)N1CCc2ccc([N-]C(=O)[N-]c3ccc(C)c(S(=O)(=O)C4CC4)c3[O-])cc21

>  <Energy>  (42) 
341.4053376439296

>  <Genealogy>  (42) 
CC(=O)N1CCc2ccc([N-]C(=O)[N-]c3ccc(C)c(S(=O)(=O)C4CC4)c3[O-])cc21 (protonated)
CC(=O)N1CCc2ccc([N-]C(=O)[N-]c3ccc(C)c(S(=O)(=O)C4CC4)c3[O-])cc21 (3D coordinates assigned)
CC(=O)N1CCc2ccc([N-]C(=O)[N-]c3ccc(C)c(S(=O)(=O)C4CC4)c3[O-])cc21 (nonaromatic ring conformer: 341.4053376439296 kcal/mol)

>  <smiles>  (42) 
CC(=O)N1CCc2ccc(NC(=O)Nc3ccc(C)c(S(=O)(=O)C4CC4)c3O)cc21

>  <score_type>  (42) 
oracle

>  <origin>  (42) 
adgpu

>  <m_score__min__energy>  (42) 
-16.289999999999999

>  <m_primary>  (42) 
energy

$$$$
42:0
     RDKit          3D

 46 48  0  0  0  0  0  0  0  0999 V2000
   -3.3890   18.2000  -34.8020 O   0  0  0  0  0  0  0  0  0  0  0  0
   -4.8120   18.3030  -34.3270 S   0  0  0  0  0  0  0  0  0  0  0  0
   -5.7110   18.2080  -35.5280 O   0  0  0  0  0  0  0  0  0  0  0  0
   -5.0500   19.8680  -33.5440 C   0  0  0  0  0  0  0  0  0  0  0  0
   -3.9510   20.6830  -33.2460 C   0  0  0  0  0  0  0  0  0  0  0  0
   -4.1370   21.9140  -32.6100 C   0  0  0  0  0  0  0  0  0  0  0  0
   -5.4310   22.3530  -32.2690 C   0  0  0  0  0  0  0  0  0  0  0  0
   -5.6600   23.6160  -31.6160 N   0  0  0  0  0  0  0  0  0  0  0  0
   -5.9420   23.7730  -30.1880 C   0  0  0  0  0  0  0  0  0  0  0  0
   -4.6610   23.8560  -29.3940 C   0  0  0  0  0  0  0  0  0  0  0  0
   -4.4540   23.0030  -28.2970 C   0  0  0  0  0  0  0  0  0  0  0  0
   -3.2680   23.0710  -27.5620 C   0  0  0  0  0  0  0  0  0  0  0  0
   -2.2760   23.9960  -27.9080 C   0  0  0  0  0  0  0  0  0  0  0  0
   -1.0900   24.0660  -27.1790 O   0  0  0  0  0  0  0  0  0  0  0  0
   -2.4780   24.8590  -28.9920 C   0  0  0  0  0  0  0  0  0  0  0  0
   -1.4970   25.7830  -29.3340 O   0  0  0  0  0  0  0  0  0  0  0  0
   -3.6650   24.7950  -29.7330 C   0  0  0  0  0  0  0  0  0  0  0  0
   -3.8530   25.6670  -30.8010 O   0  0  0  0  0  0  0  0  0  0  0  0
   -6.5260   21.5300  -32.5700 C   0  0  0  0  0  0  0  0  0  0  0  0
   -6.3400   20.2990  -33.2060 C   0  0  0  0  0  0  0  0  0  0  0  0
   -5.1540   16.9800  -33.2350 N   0  0  0  0  0  0  0  0  0  0  0  0
   -6.5230   16.4440  -33.4380 C   0  0  0  0  0  0  0  0  0  0  0  0
   -6.5380   15.1140  -34.2090 C   0  0  0  0  0  0  0  0  0  0  0  0
   -5.7090   14.0420  -33.4820 C   0  0  0  0  0  0  0  0  0  0  0  0
   -4.5250   14.6340  -32.6960 C   0  0  0  0  0  0  0  0  0  0  0  0
   -4.0760   15.9690  -33.3000 C   0  0  0  0  0  0  0  0  0  0  0  0
   -2.9364   20.3530  -33.5136 H   0  0  0  0  0  0  0  0  0  0  0  0
   -3.2667   22.5440  -32.3743 H   0  0  0  0  0  0  0  0  0  0  0  0
   -5.5660   24.4900  -32.1800 H   0  0  0  0  0  0  0  0  0  0  0  0
   -6.5218   24.6950  -30.0343 H   0  0  0  0  0  0  0  0  0  0  0  0
   -6.5139   22.8988  -29.8436 H   0  0  0  0  0  0  0  0  0  0  0  0
   -5.2308   22.2770  -28.0151 H   0  0  0  0  0  0  0  0  0  0  0  0
   -3.1131   22.3951  -26.7081 H   0  0  0  0  0  0  0  0  0  0  0  0
   -0.3710   24.7460  -27.4010 H   0  0  0  0  0  0  0  0  0  0  0  0
   -7.5419   21.8565  -32.3028 H   0  0  0  0  0  0  0  0  0  0  0  0
   -7.2088   19.6668  -33.4418 H   0  0  0  0  0  0  0  0  0  0  0  0
   -6.9865   16.2839  -32.4534 H   0  0  0  0  0  0  0  0  0  0  0  0
   -7.0790   17.1792  -34.0383 H   0  0  0  0  0  0  0  0  0  0  0  0
   -7.5767   14.7637  -34.3006 H   0  0  0  0  0  0  0  0  0  0  0  0
   -6.0970   15.2817  -35.2027 H   0  0  0  0  0  0  0  0  0  0  0  0
   -6.3650   13.5073  -32.7793 H   0  0  0  0  0  0  0  0  0  0  0  0
   -5.2948   13.3687  -34.2470 H   0  0  0  0  0  0  0  0  0  0  0  0
   -4.8318   14.7967  -31.6522 H   0  0  0  0  0  0  0  0  0  0  0  0
   -3.6837   13.9270  -32.7452 H   0  0  0  0  0  0  0  0  0  0  0  0
   -3.2037   16.3393  -32.7414 H   0  0  0  0  0  0  0  0  0  0  0  0
   -3.8204   15.8026  -34.3569 H   0  0  0  0  0  0  0  0  0  0  0  0
  1  2  2  0
  2  3  2  0
  2  4  1  0
  4  5  2  0
  5  6  1  0
  6  7  2  0
  7  8  1  0
  8  9  1  0
  9 10  1  0
 10 11  2  0
 11 12  1  0
 12 13  2  0
 13 14  1  0
 13 15  1  0
 15 16  1  0
 15 17  2  0
 17 18  1  0
  7 19  1  0
 19 20  2  0
  2 21  1  0
 21 22  1  0
 22 23  1  0
 23 24  1  0
 24 25  1  0
 25 26  1  0
 20  4  1  0
 26 21  1  0
 17 10  1  0
  5 27  1  0
  6 28  1  0
  8 29  1  0
  9 30  1  0
  9 31  1  0
 11 32  1  0
 12 33  1  0
 14 34  1  0
 19 35  1  0
 20 36  1  0
 22 37  1  0
 22 38  1  0
 23 39  1  0
 23 40  1  0
 24 41  1  0
 24 42  1  0
 25 43  1  0
 25 44  1  0
 26 45  1  0
 26 46  1  0
M  CHG  2  16  -1  18  -1
M  END
>  <UniqueID>  (43) 
41

>  <SMILES>  (43) 
O=S(=O)(c1ccc(NCc2ccc(O)c([O-])c2[O-])cc1)N1CCCCC1

>  <Energy>  (43) 
51.7979292145595

>  <Genealogy>  (43) 
O=S(=O)(c1ccc(NCc2ccc(O)c([O-])c2[O-])cc1)N1CCCCC1 (protonated)
O=S(=O)(c1ccc(NCc2ccc(O)c([O-])c2[O-])cc1)N1CCCCC1 (3D coordinates assigned)
O=S(=O)(c1ccc(NCc2ccc(O)c([O-])c2[O-])cc1)N1CCCCC1 (nonaromatic ring conformer: 51.7979292145595 kcal/mol)

>  <smiles>  (43) 
O=S(=O)(c1ccc(NCc2ccc(O)c(O)c2O)cc1)N1CCCCC1

>  <score_type>  (43) 
oracle

>  <origin>  (43) 
adgpu

>  <m_score__min__energy>  (43) 
-13.91

>  <m_primary>  (43) 
energy

$$$$
43:0
     RDKit          3D

 43 45  0  0  1  0  0  0  0  0999 V2000
   -2.3710   22.9200  -29.9160 C   0  0  0  0  0  0  0  0  0  0  0  0
   -3.8660   23.0050  -29.7070 C   0  0  1  0  0  0  0  0  0  0  0  0
   -4.2720   24.4190  -29.7650 C   0  0  0  0  0  0  0  0  0  0  0  0
   -5.1940   24.8490  -28.7360 N   0  0  0  0  0  0  0  0  0  0  0  0
   -3.8790   25.2460  -30.6240 O   0  0  0  0  0  0  0  0  0  0  0  0
   -4.6320   22.0880  -30.4780 N   0  0  0  0  0  0  0  0  0  0  0  0
   -3.8180   20.8900  -30.6180 C   0  0  0  0  0  0  0  0  0  0  0  0
   -3.4110   20.7450  -32.0540 C   0  0  0  0  0  0  0  0  0  0  0  0
   -4.6880   20.5130  -32.7760 N   0  0  0  0  0  0  0  0  0  0  0  0
   -4.7850   19.3040  -33.4660 C   0  0  0  0  0  0  0  0  0  0  0  0
   -3.7000   18.9350  -34.2140 N   0  0  0  0  0  0  0  0  0  0  0  0
   -3.6900   17.8020  -34.9400 C   0  0  0  0  0  0  0  0  0  0  0  0
   -4.7460   16.9720  -34.9710 N   0  0  0  0  0  0  0  0  0  0  0  0
   -5.8460   17.2980  -34.2450 C   0  0  0  0  0  0  0  0  0  0  0  0
   -6.8360   16.4770  -34.3010 N   0  0  0  0  0  0  0  0  0  0  0  0
   -5.8710   18.4630  -33.4880 C   0  0  0  0  0  0  0  0  0  0  0  0
   -7.0870   18.7260  -32.7330 C   0  0  0  0  0  0  0  0  0  0  0  0
   -8.0330   19.7040  -33.0660 C   0  0  0  0  0  0  0  0  0  0  0  0
   -9.0230   19.6440  -32.1330 N   0  0  0  0  0  0  0  0  0  0  0  0
   -8.7380   18.6920  -31.2520 N   0  0  0  0  0  0  0  0  0  0  0  0
   -7.5610   18.1080  -31.5860 C   0  0  0  0  0  0  0  0  0  0  0  0
   -5.6570   21.5500  -32.6490 C   0  0  0  0  0  0  0  0  0  0  0  0
   -5.1110   22.6140  -31.7100 C   0  0  0  0  0  0  0  0  0  0  0  0
   -1.8653   22.8912  -28.9396 H   0  0  0  0  0  0  0  0  0  0  0  0
   -2.1310   22.0068  -30.4803 H   0  0  0  0  0  0  0  0  0  0  0  0
   -2.0290   23.8002  -30.4803 H   0  0  0  0  0  0  0  0  0  0  0  0
   -4.1104   22.6415  -28.6980 H   0  0  0  0  0  0  0  0  0  0  0  0
   -4.9970   25.6570  -28.1140 H   0  0  0  0  0  0  0  0  0  0  0  0
   -6.1080   24.3200  -28.6110 H   0  0  0  0  0  0  0  0  0  0  0  0
   -2.9212   20.9769  -29.9869 H   0  0  0  0  0  0  0  0  0  0  0  0
   -4.3951   20.0081  -30.3031 H   0  0  0  0  0  0  0  0  0  0  0  0
   -2.9206   21.6613  -32.4144 H   0  0  0  0  0  0  0  0  0  0  0  0
   -2.6885   19.9296  -32.2056 H   0  0  0  0  0  0  0  0  0  0  0  0
   -2.8360   19.5120  -34.2510 H   0  0  0  0  0  0  0  0  0  0  0  0
   -2.7929   17.5485  -35.5239 H   0  0  0  0  0  0  0  0  0  0  0  0
   -7.6960   16.6930  -33.7550 H   0  0  0  0  0  0  0  0  0  0  0  0
   -7.9850   20.3927  -33.9224 H   0  0  0  0  0  0  0  0  0  0  0  0
   -9.3290   18.4320  -30.4260 H   0  0  0  0  0  0  0  0  0  0  0  0
   -7.0687   17.2881  -31.0426 H   0  0  0  0  0  0  0  0  0  0  0  0
   -5.8560   21.9937  -33.6357 H   0  0  0  0  0  0  0  0  0  0  0  0
   -6.5948   21.1398  -32.2463 H   0  0  0  0  0  0  0  0  0  0  0  0
   -4.2816   23.1317  -32.2141 H   0  0  0  0  0  0  0  0  0  0  0  0
   -5.9419   23.2942  -31.4716 H   0  0  0  0  0  0  0  0  0  0  0  0
  1  2  1  0
  2  3  1  0
  3  4  1  0
  3  5  2  0
  2  6  1  0
  6  7  1  0
  7  8  1  0
  8  9  1  0
  9 10  1  0
 10 11  1  0
 11 12  1  0
 12 13  2  0
 13 14  1  0
 14 15  2  3
 14 16  1  0
 16 17  1  0
 17 18  1  0
 18 19  2  0
 19 20  1  0
 20 21  1  0
  9 22  1  0
 22 23  1  0
 23  6  1  0
 16 10  2  0
 21 17  2  0
  1 24  1  0
  1 25  1  0
  1 26  1  0
  2 27  1  1
  4 28  1  0
  4 29  1  0
  7 30  1  0
  7 31  1  0
  8 32  1  0
  8 33  1  0
 11 34  1  0
 12 35  1  0
 15 36  1  0
 18 37  1  0
 20 38  1  0
 21 39  1  0
 22 40  1  0
 22 41  1  0
 23 42  1  0
 23 43  1  0
M  END
>  <smiles>  (44) 
CC(C(N)=O)N1CCN(c2[nH]cnc(=N)c2-c2cn[nH]c2)CC1

>  <score_type>  (44) 
oracle

>  <origin>  (44) 
adgpu

>  <m_score__min__energy>  (44) 
-8.0500000000000007

>  <m_primary>  (44) 
energy

$$$$
44:0
     RDKit          3D

 44 47  0  0  0  0  0  0  0  0999 V2000
  -10.0549   17.9889  -32.4289 H   0  0  0  0  0  0  0  0  0  0  0  0
   -9.1390   18.5920  -32.3430 C   0  0  0  0  0  0  0  0  0  0  0  0
   -8.0430   18.2700  -33.0790 N   0  0  0  0  0  0  0  0  0  0  0  0
   -6.8990   18.9970  -32.9820 C   0  0  0  0  0  0  0  0  0  0  0  0
   -5.8680   18.6730  -33.7050 N   0  0  0  0  0  0  0  0  0  0  0  0
   -4.6040   19.3480  -33.6280 C   0  0  0  0  0  0  0  0  0  0  0  0
   -4.5790   20.7380  -33.4800 C   0  0  0  0  0  0  0  0  0  0  0  0
   -5.5227   21.3028  -33.4580 H   0  0  0  0  0  0  0  0  0  0  0  0
   -3.3630   21.4130  -33.3600 C   0  0  0  0  0  0  0  0  0  0  0  0
   -3.3535   22.5045  -33.2241 H   0  0  0  0  0  0  0  0  0  0  0  0
   -2.1530   20.7050  -33.4120 C   0  0  0  0  0  0  0  0  0  0  0  0
   -0.8620   21.4020  -33.2490 C   0  0  0  0  0  0  0  0  0  0  0  0
   -0.3790   21.5320  -32.0930 O   0  0  0  0  0  0  0  0  0  0  0  0
   -0.1200   21.9070  -34.3670 N   0  0  0  0  0  0  0  0  0  0  0  0
    0.1700   21.1550  -35.5810 C   0  0  0  0  0  0  0  0  0  0  0  0
    0.5539   20.1596  -35.3129 H   0  0  0  0  0  0  0  0  0  0  0  0
   -0.7505   21.0457  -36.1733 H   0  0  0  0  0  0  0  0  0  0  0  0
    0.9255   21.6920  -36.1733 H   0  0  0  0  0  0  0  0  0  0  0  0
   -2.1770   19.3110  -33.5710 C   0  0  0  0  0  0  0  0  0  0  0  0
   -1.2315   18.7494  -33.5975 H   0  0  0  0  0  0  0  0  0  0  0  0
   -3.4000   18.6240  -33.6970 C   0  0  0  0  0  0  0  0  0  0  0  0
   -3.4580   17.2360  -33.9000 O   0  0  0  0  0  0  0  0  0  0  0  0
   -3.9430   16.6120  -35.0840 C   0  0  0  0  0  0  0  0  0  0  0  0
   -4.5973   15.7702  -34.8132 H   0  0  0  0  0  0  0  0  0  0  0  0
   -4.5124   17.3430  -35.6769 H   0  0  0  0  0  0  0  0  0  0  0  0
   -3.0941   16.2406  -35.6769 H   0  0  0  0  0  0  0  0  0  0  0  0
   -6.8540   20.0730  -32.1480 N   0  0  0  0  0  0  0  0  0  0  0  0
   -7.9270   20.4320  -31.3940 C   0  0  0  0  0  0  0  0  0  0  0  0
   -7.8840   21.5650  -30.5700 O   0  0  0  0  0  0  0  0  0  0  0  0
   -6.8820   22.5450  -30.6110 C   0  0  0  0  0  0  0  0  0  0  0  0
   -7.0090   23.6080  -31.5370 C   0  0  0  0  0  0  0  0  0  0  0  0
   -7.8939   23.6587  -32.1884 H   0  0  0  0  0  0  0  0  0  0  0  0
   -6.0160   24.6010  -31.6340 C   0  0  0  0  0  0  0  0  0  0  0  0
   -6.1037   25.4245  -32.3580 H   0  0  0  0  0  0  0  0  0  0  0  0
   -4.9190   24.5050  -30.7820 C   0  0  0  0  0  0  0  0  0  0  0  0
   -3.8650   25.3310  -30.7040 N   0  0  0  0  0  0  0  0  0  0  0  0
   -3.1350   24.7640  -29.7100 C   0  0  0  0  0  0  0  0  0  0  0  0
   -2.0390   25.2450  -29.3210 O   0  0  0  0  0  0  0  0  0  0  0  0
   -3.6690   23.6420  -29.1660 N   0  0  0  0  0  0  0  0  0  0  0  0
   -4.8020   23.5010  -29.8690 C   0  0  0  0  0  0  0  0  0  0  0  0
   -5.7660   22.5070  -29.7400 C   0  0  0  0  0  0  0  0  0  0  0  0
   -5.6647   21.7146  -28.9838 H   0  0  0  0  0  0  0  0  0  0  0  0
   -9.1040   19.6860  -31.4790 C   0  0  0  0  0  0  0  0  0  0  0  0
   -9.9847   19.9554  -30.8775 H   0  0  0  0  0  0  0  0  0  0  0  0
  1  2  1  0
  2  3  1  0
  3  4  1  0
  4  5  2  0
  5  6  1  0
  6  7  2  0
  7  8  1  0
  7  9  1  0
  9 10  1  0
  9 11  2  0
 11 12  1  0
 12 13  2  0
 12 14  1  0
 14 15  1  0
 15 16  1  0
 15 17  1  0
 15 18  1  0
 11 19  1  0
 19 20  1  0
 19 21  2  0
 21 22  1  0
 22 23  1  0
 23 24  1  0
 23 25  1  0
 23 26  1  0
  4 27  1  0
 27 28  2  0
 28 29  1  0
 29 30  1  0
 30 31  2  0
 31 32  1  0
 31 33  1  0
 33 34  1  0
 33 35  2  0
 35 36  1  0
 36 37  1  0
 37 38  2  0
 37 39  1  0
 39 40  1  0
 40 41  2  0
 41 42  1  0
 28 43  1  0
 43 44  1  0
 43  2  2  0
 21  6  1  0
 41 30  1  0
 40 35  1  0
M  CHG  4   3  -1  14  -1  36  -1  39  -1
M  END
>  <UniqueID>  (45) 
42

>  <SMILES>  (45) 
C[N-]C(=O)c1ccc(/N=c2\nc(Oc3ccc4[n-]c(=O)[n-]c4c3)cc[n-]2)c(OC)c1

>  <Energy>  (45) 
97.57962317866568

>  <Genealogy>  (45) 
C[N-]C(=O)c1ccc(N=c2nc(Oc3ccc4[n-]c(=O)[n-]c4c3)cc[n-]2)c(OC)c1 (protonated)
C[N-]C(=O)c1ccc(/N=c2\nc(Oc3ccc4[n-]c(=O)[n-]c4c3)cc[n-]2)c(OC)c1 (cis-trans isomerization)
C[N-]C(=O)c1ccc(/N=c2\nc(Oc3ccc4[n-]c(=O)[n-]c4c3)cc[n-]2)c(OC)c1 (3D coordinates assigned)
C[N-]C(=O)c1ccc(/N=c2\nc(Oc3ccc4[n-]c(=O)[n-]c4c3)cc[n-]2)c(OC)c1 (optimized conformer: 97.57962317866568 kcal/mol)

>  <smiles>  (45) 
CNC(=O)c1ccc(N=c2nc(Oc3ccc4[nH]c(=O)[nH]c4c3)cc[nH]2)c(OC)c1

>  <score_type>  (45) 
oracle

>  <origin>  (45) 
adgpu

>  <m_score__min__energy>  (45) 
-12.07

>  <m_primary>  (45) 
energy

$$$$
45:0
     RDKit          3D

 64 67  0  0  0  0  0  0  0  0999 V2000
   -9.1050   18.3260  -31.6300 C   0  0  0  0  0  0  0  0  0  0  0  0
   -8.0050   19.2940  -31.9540 C   0  0  0  0  0  0  0  0  0  0  0  0
   -6.7320   18.8250  -32.2840 C   0  0  0  0  0  0  0  0  0  0  0  0
   -5.6980   19.7220  -32.5390 C   0  0  0  0  0  0  0  0  0  0  0  0
   -5.9080   21.1110  -32.4710 C   0  0  0  0  0  0  0  0  0  0  0  0
   -4.7170   22.0000  -32.7250 C   0  0  0  0  0  0  0  0  0  0  0  0
   -7.2170   21.6020  -32.1930 C   0  0  0  0  0  0  0  0  0  0  0  0
   -7.5880   23.0850  -32.1770 C   0  0  0  0  0  0  0  0  0  0  0  0
   -7.1010   23.8300  -30.9910 N   0  0  0  0  0  0  0  0  0  0  0  0
   -6.1670   24.9420  -31.2970 C   0  0  0  0  0  0  0  0  0  0  0  0
   -5.3840   25.3960  -30.0600 C   0  0  0  0  0  0  0  0  0  0  0  0
   -4.5500   24.2360  -29.4600 C   0  0  0  0  0  0  0  0  0  0  0  0
   -3.0930   24.2360  -29.9690 C   0  0  0  0  0  0  0  0  0  0  0  0
   -2.3070   25.2930  -29.3380 N   0  0  0  0  0  0  0  0  0  0  0  0
   -1.1720   25.0500  -28.4990 C   0  0  0  0  0  0  0  0  0  0  0  0
   -0.1270   24.5620  -29.0020 O   0  0  0  0  0  0  0  0  0  0  0  0
   -1.2270   25.3140  -27.0550 C   0  0  0  0  0  0  0  0  0  0  0  0
   -1.3620   26.6380  -26.5970 C   0  0  0  0  0  0  0  0  0  0  0  0
   -1.2200   26.9360  -25.2300 C   0  0  0  0  0  0  0  0  0  0  0  0
   -0.9220   25.9170  -24.3130 C   0  0  0  0  0  0  0  0  0  0  0  0
   -0.8060   24.6100  -24.7850 C   0  0  0  0  0  0  0  0  0  0  0  0
   -1.0040   24.3010  -26.1040 C   0  0  0  0  0  0  0  0  0  0  0  0
   -0.8850   22.9010  -26.3360 N   0  0  0  0  0  0  0  0  0  0  0  0
   -2.0090   22.0210  -27.3390 S   0  0  0  0  0  0  0  0  0  0  0  0
   -2.1570   20.3390  -26.7810 C   0  0  0  0  0  0  0  0  0  0  0  0
   -1.5450   22.0400  -28.7690 O   0  0  0  0  0  0  0  0  0  0  0  0
   -3.3660   22.6660  -27.2750 O   0  0  0  0  0  0  0  0  0  0  0  0
   -0.3510   22.3090  -25.1030 C   0  0  0  0  0  0  0  0  0  0  0  0
   -0.4640   23.3930  -24.0090 C   0  0  0  0  0  0  0  0  0  0  0  0
   -5.2230   22.8530  -29.6630 C   0  0  0  0  0  0  0  0  0  0  0  0
   -6.7420   22.9920  -29.8230 C   0  0  0  0  0  0  0  0  0  0  0  0
   -8.2300   20.6730  -31.8780 C   0  0  0  0  0  0  0  0  0  0  0  0
   -9.2057   18.2374  -30.5382 H   0  0  0  0  0  0  0  0  0  0  0  0
  -10.0512   18.6898  -32.0571 H   0  0  0  0  0  0  0  0  0  0  0  0
   -8.8645   17.3413  -32.0571 H   0  0  0  0  0  0  0  0  0  0  0  0
   -6.5452   17.7426  -32.3428 H   0  0  0  0  0  0  0  0  0  0  0  0
   -4.7003   19.3379  -32.7979 H   0  0  0  0  0  0  0  0  0  0  0  0
   -4.2874   22.3207  -31.7645 H   0  0  0  0  0  0  0  0  0  0  0  0
   -3.9601   21.4442  -33.2979 H   0  0  0  0  0  0  0  0  0  0  0  0
   -5.0346   22.8837  -33.2979 H   0  0  0  0  0  0  0  0  0  0  0  0
   -7.1625   23.5549  -33.0760 H   0  0  0  0  0  0  0  0  0  0  0  0
   -8.6866   23.1314  -32.1450 H   0  0  0  0  0  0  0  0  0  0  0  0
   -5.4540   24.6051  -32.0639 H   0  0  0  0  0  0  0  0  0  0  0  0
   -6.7626   25.7958  -31.6524 H   0  0  0  0  0  0  0  0  0  0  0  0
   -4.7058   26.2134  -30.3461 H   0  0  0  0  0  0  0  0  0  0  0  0
   -6.1039   25.7333  -29.2998 H   0  0  0  0  0  0  0  0  0  0  0  0
   -4.5142   24.4187  -28.3759 H   0  0  0  0  0  0  0  0  0  0  0  0
   -2.6338   23.2632  -29.7393 H   0  0  0  0  0  0  0  0  0  0  0  0
   -3.1059   24.4156  -31.0542 H   0  0  0  0  0  0  0  0  0  0  0  0
   -1.5799   27.4445  -27.3126 H   0  0  0  0  0  0  0  0  0  0  0  0
   -1.3430   27.9711  -24.8787 H   0  0  0  0  0  0  0  0  0  0  0  0
   -0.7830   26.1439  -23.2457 H   0  0  0  0  0  0  0  0  0  0  0  0
   -2.1590   20.3164  -25.6812 H   0  0  0  0  0  0  0  0  0  0  0  0
   -3.0965   19.9088  -27.1583 H   0  0  0  0  0  0  0  0  0  0  0  0
   -1.3071   19.7514  -27.1583 H   0  0  0  0  0  0  0  0  0  0  0  0
   -0.9390   21.4229  -24.8217 H   0  0  0  0  0  0  0  0  0  0  0  0
    0.6923   21.9872  -25.2367 H   0  0  0  0  0  0  0  0  0  0  0  0
   -1.2576   23.1469  -23.2881 H   0  0  0  0  0  0  0  0  0  0  0  0
    0.4513   23.5026  -23.4088 H   0  0  0  0  0  0  0  0  0  0  0  0
   -4.8089   22.3819  -30.5667 H   0  0  0  0  0  0  0  0  0  0  0  0
   -5.0219   22.2348  -28.7756 H   0  0  0  0  0  0  0  0  0  0  0  0
   -7.1785   21.9911  -29.9560 H   0  0  0  0  0  0  0  0  0  0  0  0
   -7.1363   23.4802  -28.9196 H   0  0  0  0  0  0  0  0  0  0  0  0
   -9.2187   21.0404  -31.5657 H   0  0  0  0  0  0  0  0  0  0  0  0
  1  2  1  0
  2  3  2  0
  3  4  1  0
  4  5  2  0
  5  6  1  0
  5  7  1  0
  7  8  1  0
  8  9  1  0
  9 10  1  0
 10 11  1  0
 11 12  1  0
 12 13  1  0
 13 14  1  0
 14 15  1  0
 15 16  2  0
 15 17  1  0
 17 18  2  0
 18 19  1  0
 19 20  2  0
 20 21  1  0
 21 22  2  0
 22 23  1  0
 23 24  1  0
 24 25  1  0
 24 26  2  0
 24 27  2  0
 23 28  1  0
 28 29  1  0
 12 30  1  0
 30 31  1  0
  7 32  2  0
 32  2  1  0
 31  9  1  0
 22 17  1  0
 29 21  1  0
  1 33  1  0
  1 34  1  0
  1 35  1  0
  3 36  1  0
  4 37  1  0
  6 38  1  0
  6 39  1  0
  6 40  1  0
  8 41  1  0
  8 42  1  0
 10 43  1  0
 10 44  1  0
 11 45  1  0
 11 46  1  0
 12 47  1  0
 13 48  1  0
 13 49  1  0
 18 50  1  0
 19 51  1  0
 20 52  1  0
 25 53  1  0
 25 54  1  0
 25 55  1  0
 28 56  1  0
 28 57  1  0
 29 58  1  0
 29 59  1  0
 30 60  1  0
 30 61  1  0
 31 62  1  0
 31 63  1  0
 32 64  1  0
M  CHG  1  14  -1
M  END
>  <UniqueID>  (46) 
43

>  <SMILES>  (46) 
Cc1ccc(C)c(CN2CCC(C[N-]C(=O)c3cccc4c3N(S(C)(=O)=O)CC4)CC2)c1

>  <Energy>  (46) 
96.74134270027731

>  <Genealogy>  (46) 
Cc1ccc(C)c(CN2CCC(C[N-]C(=O)c3cccc4c3N(S(C)(=O)=O)CC4)CC2)c1 (protonated)
Cc1ccc(C)c(CN2CCC(C[N-]C(=O)c3cccc4c3N(S(C)(=O)=O)CC4)CC2)c1 (3D coordinates assigned)
Cc1ccc(C)c(CN2CCC(C[N-]C(=O)c3cccc4c3N(S(C)(=O)=O)CC4)CC2)c1 (nonaromatic ring conformer: 96.74134270027731 kcal/mol)

>  <smiles>  (46) 
Cc1ccc(C)c(CN2CCC(CNC(=O)c3cccc4c3N(S(C)(=O)=O)CC4)CC2)c1

>  <score_type>  (46) 
oracle

>  <origin>  (46) 
adgpu

>  <m_score__min__energy>  (46) 
-12.74

>  <m_primary>  (46) 
energy

$$$$
46:0
     RDKit          3D

 47 49  0  0  0  0  0  0  0  0999 V2000
   -1.9070   19.3460  -33.4350 C   0  0  0  0  0  0  0  0  0  0  0  0
   -0.6780   19.3590  -32.6490 N   0  0  0  0  0  0  0  0  0  0  0  0
   -0.3590   20.3570  -31.6750 C   0  0  0  0  0  0  0  0  0  0  0  0
   -0.0770   21.5180  -32.0630 O   0  0  0  0  0  0  0  0  0  0  0  0
   -0.3280   20.0550  -30.2310 C   0  0  0  0  0  0  0  0  0  0  0  0
   -0.5140   21.0940  -29.3020 C   0  0  0  0  0  0  0  0  0  0  0  0
   -0.5000   20.8260  -27.9290 C   0  0  0  0  0  0  0  0  0  0  0  0
   -0.8070   22.1470  -26.7490 S   0  0  0  0  0  0  0  0  0  0  0  0
   -2.0750   22.8940  -27.7890 C   0  0  0  0  0  0  0  0  0  0  0  0
   -3.3140   22.2410  -27.8620 C   0  0  0  0  0  0  0  0  0  0  0  0
   -4.2970   22.6750  -28.7520 C   0  0  0  0  0  0  0  0  0  0  0  0
   -4.0570   23.7750  -29.5780 C   0  0  0  0  0  0  0  0  0  0  0  0
   -5.2480   24.2270  -30.7950 S   0  0  0  0  0  0  0  0  0  0  0  0
   -6.6230   24.0720  -30.2050 O   0  0  0  0  0  0  0  0  0  0  0  0
   -5.0570   25.6660  -31.1960 O   0  0  0  0  0  0  0  0  0  0  0  0
   -5.0840   23.1820  -32.1930 N   0  0  0  0  0  0  0  0  0  0  0  0
   -6.2490   22.2990  -32.3210 C   0  0  0  0  0  0  0  0  0  0  0  0
   -5.9460   21.0130  -31.5710 C   0  0  0  0  0  0  0  0  0  0  0  0
   -4.4330   20.9510  -31.4850 C   0  0  0  0  0  0  0  0  0  0  0  0
   -3.9320   22.2870  -32.0310 C   0  0  0  0  0  0  0  0  0  0  0  0
   -2.8410   24.4620  -29.4820 C   0  0  0  0  0  0  0  0  0  0  0  0
   -1.8380   24.0460  -28.5830 C   0  0  0  0  0  0  0  0  0  0  0  0
   -0.6040   24.7910  -28.5110 N   0  0  0  0  0  0  0  0  0  0  0  0
   -0.6230   26.0160  -28.2410 O   0  0  0  0  0  0  0  0  0  0  0  0
    0.6170   24.1500  -28.5680 O   0  0  0  0  0  0  0  0  0  0  0  0
   -0.2810   19.5200  -27.4760 C   0  0  0  0  0  0  0  0  0  0  0  0
   -0.1070   18.4780  -28.3940 C   0  0  0  0  0  0  0  0  0  0  0  0
   -0.1510   18.7340  -29.7730 C   0  0  0  0  0  0  0  0  0  0  0  0
   -0.0510   17.6800  -30.6870 O   0  0  0  0  0  0  0  0  0  0  0  0
   -2.7746   19.3368  -32.7588 H   0  0  0  0  0  0  0  0  0  0  0  0
   -1.9460   20.2438  -34.0694 H   0  0  0  0  0  0  0  0  0  0  0  0
   -1.9270   18.4476  -34.0694 H   0  0  0  0  0  0  0  0  0  0  0  0
   -0.6714   22.1232  -29.6568 H   0  0  0  0  0  0  0  0  0  0  0  0
   -3.5130   21.3773  -27.2105 H   0  0  0  0  0  0  0  0  0  0  0  0
   -5.2623   22.1500  -28.8030 H   0  0  0  0  0  0  0  0  0  0  0  0
   -7.1354   22.7847  -31.8869 H   0  0  0  0  0  0  0  0  0  0  0  0
   -6.4527   22.0852  -33.3806 H   0  0  0  0  0  0  0  0  0  0  0  0
   -6.3890   21.0397  -30.5645 H   0  0  0  0  0  0  0  0  0  0  0  0
   -6.3658   20.1320  -32.0785 H   0  0  0  0  0  0  0  0  0  0  0  0
   -4.1134   20.8195  -30.4407 H   0  0  0  0  0  0  0  0  0  0  0  0
   -4.0287   20.1021  -32.0559 H   0  0  0  0  0  0  0  0  0  0  0  0
   -3.2132   22.7304  -31.3262 H   0  0  0  0  0  0  0  0  0  0  0  0
   -3.4313   22.1362  -32.9987 H   0  0  0  0  0  0  0  0  0  0  0  0
   -2.6652   25.3414  -30.1189 H   0  0  0  0  0  0  0  0  0  0  0  0
   -0.2456   19.3121  -26.3964 H   0  0  0  0  0  0  0  0  0  0  0  0
    0.0651   17.4534  -28.0328 H   0  0  0  0  0  0  0  0  0  0  0  0
   -0.1930   17.8200  -31.6800 H   0  0  0  0  0  0  0  0  0  0  0  0
  1  2  1  0
  2  3  1  0
  3  4  2  0
  3  5  1  0
  5  6  2  0
  6  7  1  0
  7  8  1  0
  8  9  1  0
  9 10  2  0
 10 11  1  0
 11 12  2  0
 12 13  1  0
 13 14  2  0
 13 15  2  0
 13 16  1  0
 16 17  1  0
 17 18  1  0
 18 19  1  0
 19 20  1  0
 12 21  1  0
 21 22  2  0
 22 23  1  0
 23 24  2  0
 23 25  1  0
  7 26  2  0
 26 27  1  0
 27 28  2  0
 28 29  1  0
 28  5  1  0
 22  9  1  0
 20 16  1  0
  1 30  1  0
  1 31  1  0
  1 32  1  0
  6 33  1  0
 10 34  1  0
 11 35  1  0
 17 36  1  0
 17 37  1  0
 18 38  1  0
 18 39  1  0
 19 40  1  0
 19 41  1  0
 20 42  1  0
 20 43  1  0
 21 44  1  0
 26 45  1  0
 27 46  1  0
 29 47  1  0
M  CHG  3   2  -1  23   1  25  -1
M  END
>  <UniqueID>  (47) 
44

>  <SMILES>  (47) 
C[N-]C(=O)c1cc(Sc2ccc(S(=O)(=O)N3CCCC3)cc2[N+](=O)[O-])ccc1O

>  <Energy>  (47) 
54.26889552060815

>  <Genealogy>  (47) 
C[N-]C(=O)c1cc(Sc2ccc(S(=O)(=O)N3CCCC3)cc2[N+](=O)[O-])ccc1O (protonated)
C[N-]C(=O)c1cc(Sc2ccc(S(=O)(=O)N3CCCC3)cc2[N+](=O)[O-])ccc1O (3D coordinates assigned)
C[N-]C(=O)c1cc(Sc2ccc(S(=O)(=O)N3CCCC3)cc2[N+](=O)[O-])ccc1O (nonaromatic ring conformer: 54.26889552060815 kcal/mol)

>  <smiles>  (47) 
CNC(=O)c1cc(Sc2ccc(S(=O)(=O)N3CCCC3)cc2[N+](=O)[O-])ccc1O

>  <score_type>  (47) 
oracle

>  <origin>  (47) 
adgpu

>  <m_score__min__energy>  (47) 
-10.539999999999999

>  <m_primary>  (47) 
energy

$$$$
47:0
     RDKit          3D

 53 56  0  0  0  0  0  0  0  0999 V2000
   -8.8330   21.5920  -32.0260 C   0  0  0  0  0  0  0  0  0  0  0  0
   -7.5310   22.0700  -31.4540 C   0  0  0  0  0  0  0  0  0  0  0  0
   -6.3230   21.4900  -31.8670 C   0  0  0  0  0  0  0  0  0  0  0  0
   -5.1120   21.9080  -31.3070 C   0  0  0  0  0  0  0  0  0  0  0  0
   -5.0910   22.9010  -30.3130 C   0  0  0  0  0  0  0  0  0  0  0  0
   -3.8460   23.3420  -29.7380 N   0  0  0  0  0  0  0  0  0  0  0  0
   -2.9840   22.5770  -29.0280 C   0  0  0  0  0  0  0  0  0  0  0  0
   -1.8900   23.3340  -28.6330 C   0  0  0  0  0  0  0  0  0  0  0  0
   -0.7420   22.8630  -27.8440 C   0  0  0  0  0  0  0  0  0  0  0  0
   -0.3320   23.5520  -26.8700 O   0  0  0  0  0  0  0  0  0  0  0  0
   -0.0670   21.6550  -28.2170 N   0  0  0  0  0  0  0  0  0  0  0  0
   -0.1900   20.9550  -29.4640 C   0  0  0  0  0  0  0  0  0  0  0  0
   -0.3670   19.5610  -29.5240 C   0  0  0  0  0  0  0  0  0  0  0  0
   -0.5080   18.9220  -30.7590 C   0  0  0  0  0  0  0  0  0  0  0  0
   -0.4940   19.6660  -31.9470 C   0  0  0  0  0  0  0  0  0  0  0  0
   -0.6920   18.8590  -33.5060 S   0  0  0  0  0  0  0  0  0  0  0  0
   -0.0350   17.5080  -33.4500 O   0  0  0  0  0  0  0  0  0  0  0  0
   -2.1570   18.6520  -33.7750 O   0  0  0  0  0  0  0  0  0  0  0  0
    0.0130   19.7880  -34.8100 N   0  0  0  0  0  0  0  0  0  0  0  0
    1.4860   19.8620  -34.6960 C   0  0  0  0  0  0  0  0  0  0  0  0
    1.9600   21.2420  -34.2060 C   0  0  0  0  0  0  0  0  0  0  0  0
    1.5460   22.3090  -35.0490 O   0  0  0  0  0  0  0  0  0  0  0  0
    0.2770   22.1000  -35.6600 C   0  0  0  0  0  0  0  0  0  0  0  0
   -0.6270   21.1140  -34.9030 C   0  0  0  0  0  0  0  0  0  0  0  0
   -0.3320   21.0560  -31.8860 C   0  0  0  0  0  0  0  0  0  0  0  0
   -0.1920   21.6960  -30.6510 C   0  0  0  0  0  0  0  0  0  0  0  0
   -2.1000   24.6050  -29.1340 C   0  0  0  0  0  0  0  0  0  0  0  0
   -1.2550   25.7020  -28.9940 O   0  0  0  0  0  0  0  0  0  0  0  0
   -3.3010   24.5760  -29.8060 C   0  0  0  0  0  0  0  0  0  0  0  0
   -3.8590   25.6500  -30.4890 O   0  0  0  0  0  0  0  0  0  0  0  0
   -6.3060   23.4730  -29.8960 C   0  0  0  0  0  0  0  0  0  0  0  0
   -7.5160   23.0530  -30.4550 C   0  0  0  0  0  0  0  0  0  0  0  0
   -9.5224   21.3389  -31.2070 H   0  0  0  0  0  0  0  0  0  0  0  0
   -9.2752   22.3864  -32.6452 H   0  0  0  0  0  0  0  0  0  0  0  0
   -8.6561   20.7002  -32.6452 H   0  0  0  0  0  0  0  0  0  0  0  0
   -6.3281   20.7026  -32.6351 H   0  0  0  0  0  0  0  0  0  0  0  0
   -4.1685   21.4561  -31.6471 H   0  0  0  0  0  0  0  0  0  0  0  0
   -3.1294   21.5112  -28.7978 H   0  0  0  0  0  0  0  0  0  0  0  0
   -0.3946   18.9716  -28.5957 H   0  0  0  0  0  0  0  0  0  0  0  0
   -0.6306   17.8296  -30.7990 H   0  0  0  0  0  0  0  0  0  0  0  0
    1.8255   19.0965  -33.9828 H   0  0  0  0  0  0  0  0  0  0  0  0
    1.9122   19.6927  -35.6959 H   0  0  0  0  0  0  0  0  0  0  0  0
    1.5525   21.4141  -33.1988 H   0  0  0  0  0  0  0  0  0  0  0  0
    3.0599   21.2301  -34.2108 H   0  0  0  0  0  0  0  0  0  0  0  0
   -0.2415   23.0683  -35.7202 H   0  0  0  0  0  0  0  0  0  0  0  0
    0.4691   21.6599  -36.6496 H   0  0  0  0  0  0  0  0  0  0  0  0
   -0.8113   21.4982  -33.8889 H   0  0  0  0  0  0  0  0  0  0  0  0
   -1.5759   21.0118  -35.4499 H   0  0  0  0  0  0  0  0  0  0  0  0
   -0.3149   21.6466  -32.8139 H   0  0  0  0  0  0  0  0  0  0  0  0
   -0.0826   22.7899  -30.6121 H   0  0  0  0  0  0  0  0  0  0  0  0
   -0.5270   25.7110  -28.2890 H   0  0  0  0  0  0  0  0  0  0  0  0
   -6.3040   24.2568  -29.1242 H   0  0  0  0  0  0  0  0  0  0  0  0
   -8.4615   23.4962  -30.1092 H   0  0  0  0  0  0  0  0  0  0  0  0
  1  2  1  0
  2  3  2  0
  3  4  1  0
  4  5  2  0
  5  6  1  0
  6  7  1  0
  7  8  2  0
  8  9  1  0
  9 10  2  0
  9 11  1  0
 11 12  1  0
 12 13  2  0
 13 14  1  0
 14 15  2  0
 15 16  1  0
 16 17  2  0
 16 18  2  0
 16 19  1  0
 19 20  1  0
 20 21  1  0
 21 22  1  0
 22 23  1  0
 23 24  1  0
 15 25  1  0
 25 26  2  0
  8 27  1  0
 27 28  1  0
 27 29  2  0
 29 30  1  0
  5 31  1  0
 31 32  2  0
 32  2  1  0
 29  6  1  0
 26 12  1  0
 24 19  1  0
  1 33  1  0
  1 34  1  0
  1 35  1  0
  3 36  1  0
  4 37  1  0
  7 38  1  0
 13 39  1  0
 14 40  1  0
 20 41  1  0
 20 42  1  0
 21 43  1  0
 21 44  1  0
 23 45  1  0
 23 46  1  0
 24 47  1  0
 24 48  1  0
 25 49  1  0
 26 50  1  0
 28 51  1  0
 31 52  1  0
 32 53  1  0
M  CHG  2  11  -1  30  -1
M  END
>  <UniqueID>  (48) 
45

>  <SMILES>  (48) 
Cc1ccc(-n2cc(C(=O)[N-]c3ccc(S(=O)(=O)N4CCOCC4)cc3)c(O)c2[O-])cc1

>  <Energy>  (48) 
103.6641482342139

>  <Genealogy>  (48) 
Cc1ccc(-n2cc(C(=O)[N-]c3ccc(S(=O)(=O)N4CCOCC4)cc3)c(O)c2[O-])cc1 (protonated)
Cc1ccc(-n2cc(C(=O)[N-]c3ccc(S(=O)(=O)N4CCOCC4)cc3)c(O)c2[O-])cc1 (3D coordinates assigned)
Cc1ccc(-n2cc(C(=O)[N-]c3ccc(S(=O)(=O)N4CCOCC4)cc3)c(O)c2[O-])cc1 (nonaromatic ring conformer: 103.6641482342139 kcal/mol)

>  <smiles>  (48) 
Cc1ccc(-n2cc(C(=O)Nc3ccc(S(=O)(=O)N4CCOCC4)cc3)c(O)c2O)cc1

>  <score_type>  (48) 
oracle

>  <origin>  (48) 
adgpu

>  <m_score__min__energy>  (48) 
-11.76

>  <m_primary>  (48) 
energy

$$$$
