0:0
     RDKit          3D

 68 72  0  0  0  0  0  0  0  0999 V2000
   -2.9060   19.1400  -26.2000 C   0  0  0  0  0  0  0  0  0  0  0  0
   -2.0350   20.1160  -26.9250 C   0  0  0  0  0  0  0  0  0  0  0  0
   -1.8550   21.2630  -26.4350 O   0  0  0  0  0  0  0  0  0  0  0  0
   -1.3470   19.7180  -28.1680 C   0  0  0  0  0  0  0  0  0  0  0  0
   -0.6570   18.5640  -28.2900 N   0  0  0  0  0  0  0  0  0  0  0  0
   -0.1120   18.5320  -29.4970 N   0  0  0  0  0  0  0  0  0  0  0  0
    0.7990   17.5030  -29.9080 C   0  0  0  0  0  0  0  0  0  0  0  0
    2.1660   17.6210  -29.6150 C   0  0  0  0  0  0  0  0  0  0  0  0
    3.0620   16.6260  -30.0200 C   0  0  0  0  0  0  0  0  0  0  0  0
    2.6000   15.5180  -30.7360 C   0  0  0  0  0  0  0  0  0  0  0  0
    1.2430   15.4050  -31.0550 C   0  0  0  0  0  0  0  0  0  0  0  0
    0.3450   16.3980  -30.6510 C   0  0  0  0  0  0  0  0  0  0  0  0
   -0.4580   19.6550  -30.1670 C   0  0  0  0  0  0  0  0  0  0  0  0
   -0.1680   19.9460  -31.5070 O   0  0  0  0  0  0  0  0  0  0  0  0
   -0.4090   19.0450  -32.5950 C   0  0  2  0  0  0  0  0  0  0  0  0
    0.7220   19.0110  -33.4510 O   0  0  0  0  0  0  0  0  0  0  0  0
    0.8660   20.1320  -34.3250 C   0  0  1  0  0  0  0  0  0  0  0  0
    0.9050   19.6150  -35.7680 C   0  0  0  0  0  0  0  0  0  0  0  0
   -0.1750   21.2740  -34.1390 C   0  0  1  0  0  0  0  0  0  0  0  0
   -0.0500   22.2460  -35.1440 O   0  0  0  0  0  0  0  0  0  0  0  0
   -1.6080   20.7250  -34.1300 C   0  0  2  0  0  0  0  0  0  0  0  0
   -2.4580   21.6850  -33.5560 O   0  0  0  0  0  0  0  0  0  0  0  0
   -1.7120   19.3870  -33.3580 C   0  0  1  0  0  0  0  0  0  0  0  0
   -2.0030   18.3380  -34.2850 O   0  0  0  0  0  0  0  0  0  0  0  0
   -3.2800   17.7950  -34.4690 C   0  0  0  0  0  0  0  0  0  0  0  0
   -3.4590   16.8730  -35.3140 O   0  0  0  0  0  0  0  0  0  0  0  0
   -4.4140   18.2920  -33.6620 C   0  0  0  0  0  0  0  0  0  0  0  0
   -4.8860   19.6090  -33.8200 C   0  0  0  0  0  0  0  0  0  0  0  0
   -5.9560   20.0750  -33.0460 C   0  0  0  0  0  0  0  0  0  0  0  0
   -6.5590   19.2330  -32.1080 C   0  0  0  0  0  0  0  0  0  0  0  0
   -6.0990   17.9240  -31.9450 C   0  0  0  0  0  0  0  0  0  0  0  0
   -5.0340   17.4540  -32.7180 C   0  0  0  0  0  0  0  0  0  0  0  0
   -1.2260   20.4510  -29.3440 C   0  0  0  0  0  0  0  0  0  0  0  0
   -1.8630   21.7290  -29.7120 C   0  0  0  0  0  0  0  0  0  0  0  0
   -1.4920   22.9200  -29.0690 C   0  0  0  0  0  0  0  0  0  0  0  0
   -2.1430   24.1190  -29.3760 C   0  0  0  0  0  0  0  0  0  0  0  0
   -3.1730   24.1380  -30.3270 C   0  0  0  0  0  0  0  0  0  0  0  0
   -3.8340   25.3240  -30.6340 O   0  0  0  0  0  0  0  0  0  0  0  0
   -3.5440   22.9520  -30.9690 C   0  0  0  0  0  0  0  0  0  0  0  0
   -2.8960   21.7520  -30.6610 C   0  0  0  0  0  0  0  0  0  0  0  0
   -2.7848   19.2758  -25.1152 H   0  0  0  0  0  0  0  0  0  0  0  0
   -3.9570   19.3112  -26.4758 H   0  0  0  0  0  0  0  0  0  0  0  0
   -2.6168   18.1152  -26.4758 H   0  0  0  0  0  0  0  0  0  0  0  0
    2.5346   18.4993  -29.0647 H   0  0  0  0  0  0  0  0  0  0  0  0
    4.1306   16.7156  -29.7749 H   0  0  0  0  0  0  0  0  0  0  0  0
    3.3049   14.7337  -31.0491 H   0  0  0  0  0  0  0  0  0  0  0  0
    0.8821   14.5352  -31.6236 H   0  0  0  0  0  0  0  0  0  0  0  0
   -0.7196   16.3148  -30.9150 H   0  0  0  0  0  0  0  0  0  0  0  0
   -0.5601   18.0362  -32.1833 H   0  0  0  0  0  0  0  0  0  0  0  0
    1.8122   20.6254  -34.0582 H   0  0  0  0  0  0  0  0  0  0  0  0
    0.9877   18.5181  -35.7624 H   0  0  0  0  0  0  0  0  0  0  0  0
   -0.0180   19.9104  -36.2884 H   0  0  0  0  0  0  0  0  0  0  0  0
    1.7732   20.0455  -36.2884 H   0  0  0  0  0  0  0  0  0  0  0  0
    0.0315   21.7423  -33.1653 H   0  0  0  0  0  0  0  0  0  0  0  0
   -0.9580   22.6200  -35.2970 H   0  0  0  0  0  0  0  0  0  0  0  0
   -1.9093   20.5213  -35.1681 H   0  0  0  0  0  0  0  0  0  0  0  0
   -2.6320   22.3710  -34.2540 H   0  0  0  0  0  0  0  0  0  0  0  0
   -2.5150   19.4899  -32.6133 H   0  0  0  0  0  0  0  0  0  0  0  0
   -4.4117   20.2755  -34.5554 H   0  0  0  0  0  0  0  0  0  0  0  0
   -6.3219   21.1041  -33.1765 H   0  0  0  0  0  0  0  0  0  0  0  0
   -7.3966   19.6012  -31.4974 H   0  0  0  0  0  0  0  0  0  0  0  0
   -6.5759   17.2622  -31.2070 H   0  0  0  0  0  0  0  0  0  0  0  0
   -4.6781   16.4214  -32.5872 H   0  0  0  0  0  0  0  0  0  0  0  0
   -0.6859   22.9104  -28.3206 H   0  0  0  0  0  0  0  0  0  0  0  0
   -1.8462   25.0496  -28.8701 H   0  0  0  0  0  0  0  0  0  0  0  0
   -3.9380   25.6380  -31.5930 H   0  0  0  0  0  0  0  0  0  0  0  0
   -4.3486   22.9634  -31.7190 H   0  0  0  0  0  0  0  0  0  0  0  0
   -3.1974   20.8219  -31.1650 H   0  0  0  0  0  0  0  0  0  0  0  0
  1  2  1  0
  2  3  2  0
  2  4  1  0
  4  5  2  0
  5  6  1  0
  6  7  1  0
  7  8  2  0
  8  9  1  0
  9 10  2  0
 10 11  1  0
 11 12  2  0
  6 13  1  0
 13 14  1  0
 14 15  1  0
 15 16  1  0
 16 17  1  0
 17 18  1  0
 17 19  1  0
 19 20  1  0
 19 21  1  0
 21 22  1  0
 21 23  1  0
 23 24  1  0
 24 25  1  0
 25 26  2  0
 25 27  1  0
 27 28  2  0
 28 29  1  0
 29 30  2  0
 30 31  1  0
 31 32  2  0
 13 33  2  0
 33 34  1  0
 34 35  2  0
 35 36  1  0
 36 37  2  0
 37 38  1  0
 37 39  1  0
 39 40  2  0
 33  4  1  0
 40 34  1  0
 12  7  1  0
 23 15  1  0
 32 27  1  0
  1 41  1  0
  1 42  1  0
  1 43  1  0
  8 44  1  0
  9 45  1  0
 10 46  1  0
 11 47  1  0
 12 48  1  0
 15 49  1  1
 17 50  1  1
 18 51  1  0
 18 52  1  0
 18 53  1  0
 19 54  1  1
 20 55  1  0
 21 56  1  6
 22 57  1  0
 23 58  1  1
 28 59  1  0
 29 60  1  0
 30 61  1  0
 31 62  1  0
 32 63  1  0
 35 64  1  0
 36 65  1  0
 38 66  1  0
 39 67  1  0
 40 68  1  0
M  END
>  <UniqueID>  (1) 
1

>  <SMILES>  (1) 
CC(=O)c1nn(-c2ccccc2)c(O[C@@H]2O[C@@H](C)C(O)C(O)C2OC(=O)c2ccccc2)c1-c1ccc(O)cc1

>  <Energy>  (1) 
125.04553622112914

>  <Genealogy>  (1) 
CC(=O)c1nn(-c2ccccc2)c(O[C@@H]2O[C@@H](C)C(O)C(O)C2OC(=O)c2ccccc2)c1-c1ccc(O)cc1 (chirality)
CC(=O)c1nn(-c2ccccc2)c(O[C@@H]2O[C@@H](C)C(O)C(O)C2OC(=O)c2ccccc2)c1-c1ccc(O)cc1 (3D coordinates assigned)
CC(=O)c1nn(-c2ccccc2)c(O[C@@H]2O[C@@H](C)C(O)C(O)C2OC(=O)c2ccccc2)c1-c1ccc(O)cc1 (nonaromatic ring conformer: 125.04553622112914 kcal/mol)

>  <smiles>  (1) 
CC(=O)c1nn(-c2ccccc2)c(OC2OC(C)C(O)C(O)C2OC(=O)c2ccccc2)c1-c1ccc(O)cc1

>  <score_type>  (1) 
oracle

>  <origin>  (1) 
adgpu

>  <m_score__min__energy>  (1) 
-10.130000000000001

>  <m_primary>  (1) 
energy

$$$$
1:0
     RDKit          3D

 40 42  0  0  0  0  0  0  0  0999 V2000
   -9.4070   17.4920  -30.7020 H   0  0  0  0  0  0  0  0  0  0  0  0
   -9.4530   17.9680  -31.5950 O   0  0  0  0  0  0  0  0  0  0  0  0
   -8.5850   19.0080  -31.9300 C   0  0  0  0  0  0  0  0  0  0  0  0
   -9.0240   20.3260  -31.7840 C   0  0  0  0  0  0  0  0  0  0  0  0
  -10.0448   20.5248  -31.4255 H   0  0  0  0  0  0  0  0  0  0  0  0
   -8.1760   21.3940  -32.0900 C   0  0  0  0  0  0  0  0  0  0  0  0
   -8.6790   22.7780  -31.9550 C   0  0  0  0  0  0  0  0  0  0  0  0
   -9.7252   22.9741  -32.2324 H   0  0  0  0  0  0  0  0  0  0  0  0
   -7.9640   23.7800  -31.5290 N   0  0  0  0  0  0  0  0  0  0  0  0
   -6.6530   23.7330  -30.9490 C   0  0  0  0  0  0  0  0  0  0  0  0
   -5.7130   24.6630  -31.2170 N   0  0  0  0  0  0  0  0  0  0  0  0
   -4.5940   24.4790  -30.4660 C   0  0  0  0  0  0  0  0  0  0  0  0
   -3.4900   25.3120  -30.5940 O   0  0  0  0  0  0  0  0  0  0  0  0
   -4.6470   23.4120  -29.5690 C   0  0  0  0  0  0  0  0  0  0  0  0
   -3.5940   22.9850  -28.6350 C   0  0  0  0  0  0  0  0  0  0  0  0
   -2.9010   21.9630  -28.8900 O   0  0  0  0  0  0  0  0  0  0  0  0
   -3.4050   23.7080  -27.4120 N   0  0  0  0  0  0  0  0  0  0  0  0
   -2.3920   24.6890  -27.1430 C   0  0  0  0  0  0  0  0  0  0  0  0
   -1.5320   25.1680  -28.1480 C   0  0  0  0  0  0  0  0  0  0  0  0
   -1.6183   24.7817  -29.1743 H   0  0  0  0  0  0  0  0  0  0  0  0
   -0.5680   26.1340  -27.8450 C   0  0  0  0  0  0  0  0  0  0  0  0
    0.1125   26.4945  -28.6304 H   0  0  0  0  0  0  0  0  0  0  0  0
   -0.4660   26.6430  -26.5480 C   0  0  0  0  0  0  0  0  0  0  0  0
    0.3063   27.3894  -26.3106 H   0  0  0  0  0  0  0  0  0  0  0  0
   -1.3470   26.2040  -25.5470 C   0  0  0  0  0  0  0  0  0  0  0  0
   -1.2200   26.7300  -24.1480 C   0  0  0  0  0  0  0  0  0  0  0  0
   -1.4160   25.9183  -23.4319 H   0  0  0  0  0  0  0  0  0  0  0  0
   -0.2024   27.1179  -23.9931 H   0  0  0  0  0  0  0  0  0  0  0  0
   -1.9485   27.5395  -23.9931 H   0  0  0  0  0  0  0  0  0  0  0  0
   -2.3020   25.2210  -25.8510 C   0  0  0  0  0  0  0  0  0  0  0  0
   -2.9862   24.8653  -25.0666 H   0  0  0  0  0  0  0  0  0  0  0  0
   -6.1560   22.6840  -29.7210 S   0  0  0  0  0  0  0  0  0  0  0  0
   -6.8960   21.1350  -32.6010 C   0  0  0  0  0  0  0  0  0  0  0  0
   -6.2468   21.9753  -32.8880 H   0  0  0  0  0  0  0  0  0  0  0  0
   -6.4300   19.8160  -32.7520 C   0  0  0  0  0  0  0  0  0  0  0  0
   -5.0970   19.5880  -33.2550 N   0  0  0  0  0  0  0  0  0  0  0  0
   -4.8990   18.8840  -34.2670 O   0  0  0  0  0  0  0  0  0  0  0  0
   -4.0110   20.1580  -32.6320 O   0  0  0  0  0  0  0  0  0  0  0  0
   -7.2880   18.7470  -32.4050 C   0  0  0  0  0  0  0  0  0  0  0  0
   -6.8640   17.4280  -32.5270 O   0  0  0  0  0  0  0  0  0  0  0  0
  1  2  1  0
  2  3  1  0
  3  4  2  0
  4  5  1  0
  4  6  1  0
  6  7  1  0
  7  8  1  0
  7  9  2  0
  9 10  1  0
 10 11  2  0
 11 12  1  0
 12 13  1  0
 12 14  2  0
 14 15  1  0
 15 16  2  0
 15 17  1  0
 17 18  1  0
 18 19  2  0
 19 20  1  0
 19 21  1  0
 21 22  1  0
 21 23  2  0
 23 24  1  0
 23 25  1  0
 25 26  1  0
 26 27  1  0
 26 28  1  0
 26 29  1  0
 25 30  2  0
 30 31  1  0
 14 32  1  0
  6 33  2  0
 33 34  1  0
 33 35  1  0
 35 36  1  0
 36 37  2  0
 36 38  1  0
 35 39  2  0
 39 40  1  0
 39  3  1  0
 32 10  1  0
 30 18  1  0
M  CHG  5  13  -1  17  -1  36   1  38  -1  40  -1
M  END
>  <UniqueID>  (2) 
2

>  <SMILES>  (2) 
Cc1cccc([N-]C(=O)c2sc(/N=C\c3cc(O)c([O-])c([N+](=O)[O-])c3)nc2[O-])c1

>  <Energy>  (2) 
89.08641704100673

>  <Genealogy>  (2) 
Cc1cccc([N-]C(=O)c2sc(N=Cc3cc(O)c([O-])c([N+](=O)[O-])c3)nc2[O-])c1 (protonated)
Cc1cccc([N-]C(=O)c2sc(/N=C\c3cc(O)c([O-])c([N+](=O)[O-])c3)nc2[O-])c1 (cis-trans isomerization)
Cc1cccc([N-]C(=O)c2sc(/N=C\c3cc(O)c([O-])c([N+](=O)[O-])c3)nc2[O-])c1 (3D coordinates assigned)
Cc1cccc([N-]C(=O)c2sc(/N=C\c3cc(O)c([O-])c([N+](=O)[O-])c3)nc2[O-])c1 (optimized conformer: 89.08641704100673 kcal/mol)

>  <smiles>  (2) 
Cc1cccc(NC(=O)c2sc(N=Cc3cc(O)c(O)c([N+](=O)[O-])c3)nc2O)c1

>  <score_type>  (2) 
oracle

>  <origin>  (2) 
adgpu

>  <m_score__min__energy>  (2) 
-11.960000000000001

>  <m_primary>  (2) 
energy

$$$$
2:0
     RDKit          3D

 46 48  0  0  0  0  0  0  0  0999 V2000
   -5.3480   19.4240  -34.1620 N   0  0  0  0  0  0  0  0  0  0  0  0
   -4.6400   20.2290  -33.4290 C   0  0  0  0  0  0  0  0  0  0  0  0
   -5.0970   21.4410  -33.1090 N   0  0  0  0  0  0  0  0  0  0  0  0
   -4.3650   22.3190  -32.3300 C   0  0  0  0  0  0  0  0  0  0  0  0
   -4.9370   23.4920  -32.0690 O   0  0  0  0  0  0  0  0  0  0  0  0
   -6.1760   23.9700  -31.8070 C   0  0  0  0  0  0  0  0  0  0  0  0
   -6.9960   23.1680  -30.8100 C   0  0  0  0  0  0  0  0  0  0  0  0
   -8.2940   22.7670  -31.4770 C   0  0  0  0  0  0  0  0  0  0  0  0
   -8.3910   21.3340  -31.7570 C   0  0  0  0  0  0  0  0  0  0  0  0
   -7.3070   20.5340  -31.3800 C   0  0  0  0  0  0  0  0  0  0  0  0
   -7.2970   19.1720  -31.5990 C   0  0  0  0  0  0  0  0  0  0  0  0
   -8.3710   18.5600  -32.2020 C   0  0  0  0  0  0  0  0  0  0  0  0
   -9.4360   19.3460  -32.5720 C   0  0  0  0  0  0  0  0  0  0  0  0
   -9.4560   20.7100  -32.3580 C   0  0  0  0  0  0  0  0  0  0  0  0
   -3.1440   21.8300  -31.9310 C   0  0  0  0  0  0  0  0  0  0  0  0
   -2.2980   22.6130  -31.1610 O   0  0  0  0  0  0  0  0  0  0  0  0
   -2.7380   23.0230  -29.9140 C   0  0  0  0  0  0  0  0  0  0  0  0
   -2.5770   22.1080  -28.8760 C   0  0  0  0  0  0  0  0  0  0  0  0
   -2.9760   22.4030  -27.5780 C   0  0  0  0  0  0  0  0  0  0  0  0
   -3.5480   23.6250  -27.2920 C   0  0  0  0  0  0  0  0  0  0  0  0
   -3.7110   24.5370  -28.3140 C   0  0  0  0  0  0  0  0  0  0  0  0
   -3.3030   24.2270  -29.6180 C   0  0  0  0  0  0  0  0  0  0  0  0
   -3.5000   25.1970  -30.5670 O   0  0  0  0  0  0  0  0  0  0  0  0
   -2.6760   20.5700  -32.2640 C   0  0  0  0  0  0  0  0  0  0  0  0
   -1.5230   20.1660  -31.8560 N   0  0  0  0  0  0  0  0  0  0  0  0
   -3.4450   19.7780  -33.0210 N   0  0  0  0  0  0  0  0  0  0  0  0
   -6.2890   19.7440  -34.5000 H   0  0  0  0  0  0  0  0  0  0  0  0
   -6.0380   21.7120  -33.4700 H   0  0  0  0  0  0  0  0  0  0  0  0
   -6.0675   24.9907  -31.4115 H   0  0  0  0  0  0  0  0  0  0  0  0
   -6.7251   23.9155  -32.7586 H   0  0  0  0  0  0  0  0  0  0  0  0
   -6.4392   22.2685  -30.5084 H   0  0  0  0  0  0  0  0  0  0  0  0
   -7.2008   23.7724  -29.9141 H   0  0  0  0  0  0  0  0  0  0  0  0
   -9.1264   23.0491  -30.8156 H   0  0  0  0  0  0  0  0  0  0  0  0
   -8.3334   23.2880  -32.4450 H   0  0  0  0  0  0  0  0  0  0  0  0
   -6.4385   21.0041  -30.8955 H   0  0  0  0  0  0  0  0  0  0  0  0
   -6.4272   18.5735  -31.2903 H   0  0  0  0  0  0  0  0  0  0  0  0
   -8.3774   17.4749  -32.3826 H   0  0  0  0  0  0  0  0  0  0  0  0
  -10.3028   18.8719  -33.0556 H   0  0  0  0  0  0  0  0  0  0  0  0
  -10.3301   21.2999  -32.6708 H   0  0  0  0  0  0  0  0  0  0  0  0
   -2.1233   21.1288  -29.0889 H   0  0  0  0  0  0  0  0  0  0  0  0
   -2.8355   21.6613  -26.7779 H   0  0  0  0  0  0  0  0  0  0  0  0
   -3.8682   23.8678  -26.2680 H   0  0  0  0  0  0  0  0  0  0  0  0
   -4.1654   25.5164  -28.1033 H   0  0  0  0  0  0  0  0  0  0  0  0
   -3.5090   25.0520  -31.5580 H   0  0  0  0  0  0  0  0  0  0  0  0
   -1.1570   19.2200  -32.0990 H   0  0  0  0  0  0  0  0  0  0  0  0
   -3.0660   18.8350  -33.2560 H   0  0  0  0  0  0  0  0  0  0  0  0
  1  2  2  3
  2  3  1  0
  3  4  1  0
  4  5  1  0
  5  6  1  0
  6  7  1  0
  7  8  1  0
  8  9  1  0
  9 10  2  0
 10 11  1  0
 11 12  2  0
 12 13  1  0
 13 14  2  0
  4 15  2  0
 15 16  1  0
 16 17  1  0
 17 18  2  0
 18 19  1  0
 19 20  2  0
 20 21  1  0
 21 22  2  0
 22 23  1  0
 15 24  1  0
 24 25  2  3
 24 26  1  0
 26  2  1  0
 14  9  1  0
 22 17  1  0
  1 27  1  0
  3 28  1  0
  6 29  1  0
  6 30  1  0
  7 31  1  0
  7 32  1  0
  8 33  1  0
  8 34  1  0
 10 35  1  0
 11 36  1  0
 12 37  1  0
 13 38  1  0
 14 39  1  0
 18 40  1  0
 19 41  1  0
 20 42  1  0
 21 43  1  0
 23 44  1  0
 25 45  1  0
 26 46  1  0
M  END
>  <smiles>  (3) 
N=c1[nH]c(OCCCc2ccccc2)c(Oc2ccccc2O)c(=N)[nH]1

>  <score_type>  (3) 
oracle

>  <origin>  (3) 
adgpu

>  <m_score__min__energy>  (3) 
-8.5399999999999991

>  <m_primary>  (3) 
energy

$$$$
3:0
     RDKit          3D

 42 44  0  0  0  0  0  0  0  0999 V2000
    3.8220   23.4150  -35.8720 C   0  0  0  0  0  0  0  0  0  0  0  0
    2.3980   22.9600  -35.8610 C   0  0  0  0  0  0  0  0  0  0  0  0
    1.3970   23.6460  -36.4410 N   0  0  0  0  0  0  0  0  0  0  0  0
    0.3080   22.9580  -36.2620 O   0  0  0  0  0  0  0  0  0  0  0  0
    0.5410   21.8530  -35.5910 C   0  0  0  0  0  0  0  0  0  0  0  0
   -0.4170   21.0120  -35.3240 N   0  0  0  0  0  0  0  0  0  0  0  0
   -0.3720   19.4990  -34.4720 S   0  0  0  0  0  0  0  0  0  0  0  0
    0.9070   18.7960  -34.8240 O   0  0  0  0  0  0  0  0  0  0  0  0
   -1.5210   18.6380  -34.9140 O   0  0  0  0  0  0  0  0  0  0  0  0
   -0.3820   19.7550  -32.7320 C   0  0  0  0  0  0  0  0  0  0  0  0
   -0.5140   18.6630  -31.8670 C   0  0  0  0  0  0  0  0  0  0  0  0
   -0.4670   18.8520  -30.4830 C   0  0  0  0  0  0  0  0  0  0  0  0
   -0.2680   20.1310  -29.9520 C   0  0  0  0  0  0  0  0  0  0  0  0
   -0.1760   20.2910  -28.5300 N   0  0  0  0  0  0  0  0  0  0  0  0
   -0.5930   21.4510  -27.7970 C   0  0  0  0  0  0  0  0  0  0  0  0
   -0.1870   21.5970  -26.6130 O   0  0  0  0  0  0  0  0  0  0  0  0
   -1.4450   22.4990  -28.4080 C   0  0  0  0  0  0  0  0  0  0  0  0
   -2.7620   22.2010  -28.7940 C   0  0  0  0  0  0  0  0  0  0  0  0
   -3.5700   23.1830  -29.3750 C   0  0  0  0  0  0  0  0  0  0  0  0
   -3.0760   24.4800  -29.5660 C   0  0  0  0  0  0  0  0  0  0  0  0
   -3.8740   25.4640  -30.1460 O   0  0  0  0  0  0  0  0  0  0  0  0
   -1.7700   24.7900  -29.1680 C   0  0  0  0  0  0  0  0  0  0  0  0
   -1.2740   26.0780  -29.3410 O   0  0  0  0  0  0  0  0  0  0  0  0
   -0.9600   23.8080  -28.5880 C   0  0  0  0  0  0  0  0  0  0  0  0
   -0.1840   21.2340  -30.8200 C   0  0  0  0  0  0  0  0  0  0  0  0
   -0.2420   21.0460  -32.2030 C   0  0  0  0  0  0  0  0  0  0  0  0
    1.9030   21.8010  -35.2800 C   0  0  0  0  0  0  0  0  0  0  0  0
    2.7360   20.7480  -34.6080 C   0  0  0  0  0  0  0  0  0  0  0  0
    4.1785   23.5289  -34.8376 H   0  0  0  0  0  0  0  0  0  0  0  0
    4.4410   22.6699  -36.3932 H   0  0  0  0  0  0  0  0  0  0  0  0
    3.8943   24.3810  -36.3932 H   0  0  0  0  0  0  0  0  0  0  0  0
   -0.6552   17.6524  -32.2777 H   0  0  0  0  0  0  0  0  0  0  0  0
   -0.5870   17.9915  -29.8084 H   0  0  0  0  0  0  0  0  0  0  0  0
   -3.1607   21.1877  -28.6381 H   0  0  0  0  0  0  0  0  0  0  0  0
   -4.5968   22.9365  -29.6831 H   0  0  0  0  0  0  0  0  0  0  0  0
   -3.8610   26.4210  -29.8110 H   0  0  0  0  0  0  0  0  0  0  0  0
    0.0625   24.0604  -28.2706 H   0  0  0  0  0  0  0  0  0  0  0  0
   -0.0723   22.2481  -30.4087 H   0  0  0  0  0  0  0  0  0  0  0  0
   -0.1777   21.9121  -32.8781 H   0  0  0  0  0  0  0  0  0  0  0  0
    2.6514   20.8549  -33.5165 H   0  0  0  0  0  0  0  0  0  0  0  0
    2.3790   19.7516  -34.9076 H   0  0  0  0  0  0  0  0  0  0  0  0
    3.7878   20.8660  -34.9076 H   0  0  0  0  0  0  0  0  0  0  0  0
  1  2  1  0
  2  3  1  0
  3  4  1  0
  4  5  1  0
  5  6  2  3
  6  7  1  0
  7  8  2  0
  7  9  2  0
  7 10  1  0
 10 11  2  0
 11 12  1  0
 12 13  2  0
 13 14  1  0
 14 15  1  0
 15 16  2  0
 15 17  1  0
 17 18  2  0
 18 19  1  0
 19 20  2  0
 20 21  1  0
 20 22  1  0
 22 23  1  0
 22 24  2  0
 13 25  1  0
 25 26  2  0
  5 27  1  0
 27 28  1  0
 27  2  2  0
 26 10  1  0
 24 17  1  0
  1 29  1  0
  1 30  1  0
  1 31  1  0
 11 32  1  0
 12 33  1  0
 18 34  1  0
 19 35  1  0
 21 36  1  0
 24 37  1  0
 25 38  1  0
 26 39  1  0
 28 40  1  0
 28 41  1  0
 28 42  1  0
M  CHG  3   3  -1  14  -1  23  -1
M  END
>  <UniqueID>  (4) 
3

>  <SMILES>  (4) 
Cc1[n-]oc(=NS(=O)(=O)c2ccc([N-]C(=O)c3ccc(O)c([O-])c3)cc2)c1C

>  <Energy>  (4) 
89.47199643564967

>  <Genealogy>  (4) 
Cc1[n-]oc(=NS(=O)(=O)c2ccc([N-]C(=O)c3ccc(O)c([O-])c3)cc2)c1C (protonated)
Cc1[n-]oc(=NS(=O)(=O)c2ccc([N-]C(=O)c3ccc(O)c([O-])c3)cc2)c1C (3D coordinates assigned)
Cc1[n-]oc(=NS(=O)(=O)c2ccc([N-]C(=O)c3ccc(O)c([O-])c3)cc2)c1C (optimized conformer: 89.47199643564967 kcal/mol)

>  <smiles>  (4) 
Cc1[nH]oc(=NS(=O)(=O)c2ccc(NC(=O)c3ccc(O)c(O)c3)cc2)c1C

>  <score_type>  (4) 
oracle

>  <origin>  (4) 
adgpu

>  <m_score__min__energy>  (4) 
-12.08

>  <m_primary>  (4) 
energy

$$$$
4:0
     RDKit          3D

 40 42  0  0  0  0  0  0  0  0999 V2000
   -0.0160   27.4110  -25.6140 C   0  0  0  0  0  0  0  0  0  0  0  0
   -0.9730   26.5150  -26.3430 C   0  0  0  0  0  0  0  0  0  0  0  0
   -0.7300   26.1520  -27.6760 C   0  0  0  0  0  0  0  0  0  0  0  0
   -1.5900   25.2680  -28.3330 C   0  0  0  0  0  0  0  0  0  0  0  0
   -2.6900   24.7150  -27.6590 C   0  0  0  0  0  0  0  0  0  0  0  0
   -3.5770   23.7060  -28.3400 C   0  0  0  0  0  0  0  0  0  0  0  0
   -4.9060   24.2690  -28.6120 N   0  0  0  0  0  0  0  0  0  0  0  0
   -5.1130   24.6310  -30.3050 S   0  0  0  0  0  0  0  0  0  0  0  0
   -3.8870   25.3250  -30.8320 O   0  0  0  0  0  0  0  0  0  0  0  0
   -6.2930   25.5460  -30.4730 O   0  0  0  0  0  0  0  0  0  0  0  0
   -5.4180   23.1510  -31.2090 C   0  0  0  0  0  0  0  0  0  0  0  0
   -6.7340   22.7180  -31.3990 C   0  0  0  0  0  0  0  0  0  0  0  0
   -6.9920   21.4970  -32.0280 C   0  0  0  0  0  0  0  0  0  0  0  0
   -5.9320   20.6910  -32.4890 C   0  0  0  0  0  0  0  0  0  0  0  0
   -6.1760   19.4050  -33.0950 N   0  0  0  0  0  0  0  0  0  0  0  0
   -6.8790   18.3760  -32.5770 C   0  0  0  0  0  0  0  0  0  0  0  0
   -6.8540   17.3310  -33.4750 C   0  0  0  0  0  0  0  0  0  0  0  0
   -6.1100   17.7990  -34.5380 C   0  0  0  0  0  0  0  0  0  0  0  0
   -5.7090   19.0580  -34.2860 N   0  0  0  0  0  0  0  0  0  0  0  0
   -4.6120   21.1490  -32.3170 C   0  0  0  0  0  0  0  0  0  0  0  0
   -4.3580   22.3700  -31.6860 C   0  0  0  0  0  0  0  0  0  0  0  0
   -2.9380   25.0870  -26.3280 C   0  0  0  0  0  0  0  0  0  0  0  0
   -2.0790   25.9730  -25.6720 C   0  0  0  0  0  0  0  0  0  0  0  0
   -0.1500   27.2855  -24.5294 H   0  0  0  0  0  0  0  0  0  0  0  0
    1.0157   27.1466  -25.8890 H   0  0  0  0  0  0  0  0  0  0  0  0
   -0.2120   28.4579  -25.8890 H   0  0  0  0  0  0  0  0  0  0  0  0
    0.1409   26.5648  -28.2062 H   0  0  0  0  0  0  0  0  0  0  0  0
   -1.4038   25.0040  -29.3845 H   0  0  0  0  0  0  0  0  0  0  0  0
   -3.1134   23.4037  -29.2906 H   0  0  0  0  0  0  0  0  0  0  0  0
   -3.6946   22.8383  -27.6742 H   0  0  0  0  0  0  0  0  0  0  0  0
   -4.9730   25.1800  -28.1030 H   0  0  0  0  0  0  0  0  0  0  0  0
   -7.5707   23.3419  -31.0515 H   0  0  0  0  0  0  0  0  0  0  0  0
   -8.0310   21.1624  -32.1643 H   0  0  0  0  0  0  0  0  0  0  0  0
   -7.3869   18.3721  -31.6013 H   0  0  0  0  0  0  0  0  0  0  0  0
   -7.3236   16.3421  -33.3678 H   0  0  0  0  0  0  0  0  0  0  0  0
   -5.8800   17.2303  -35.4511 H   0  0  0  0  0  0  0  0  0  0  0  0
   -3.7722   20.5399  -32.6828 H   0  0  0  0  0  0  0  0  0  0  0  0
   -3.3219   22.7187  -31.5637 H   0  0  0  0  0  0  0  0  0  0  0  0
   -3.8122   24.6793  -25.7993 H   0  0  0  0  0  0  0  0  0  0  0  0
   -2.2713   26.2467  -24.6241 H   0  0  0  0  0  0  0  0  0  0  0  0
  1  2  1  0
  2  3  2  0
  3  4  1  0
  4  5  2  0
  5  6  1  0
  6  7  1  0
  7  8  1  0
  8  9  2  0
  8 10  2  0
  8 11  1  0
 11 12  2  0
 12 13  1  0
 13 14  2  0
 14 15  1  0
 15 16  1  0
 16 17  2  0
 17 18  1  0
 18 19  2  0
 14 20  1  0
 20 21  2  0
  5 22  1  0
 22 23  2  0
 23  2  1  0
 21 11  1  0
 19 15  1  0
  1 24  1  0
  1 25  1  0
  1 26  1  0
  3 27  1  0
  4 28  1  0
  6 29  1  0
  6 30  1  0
  7 31  1  0
 12 32  1  0
 13 33  1  0
 16 34  1  0
 17 35  1  0
 18 36  1  0
 20 37  1  0
 21 38  1  0
 22 39  1  0
 23 40  1  0
M  END
>  <UniqueID>  (5) 
4

>  <SMILES>  (5) 
Cc1ccc(CNS(=O)(=O)c2ccc(-n3cccn3)cc2)cc1

>  <Energy>  (5) 
66.91355214832345

>  <Genealogy>  (5) 
Cc1ccc(CNS(=O)(=O)c2ccc(-n3cccn3)cc2)cc1 (3D coordinates assigned)
Cc1ccc(CNS(=O)(=O)c2ccc(-n3cccn3)cc2)cc1 (optimized conformer: 66.91355214832345 kcal/mol)

>  <smiles>  (5) 
Cc1ccc(CNS(=O)(=O)c2ccc(-n3cccn3)cc2)cc1

>  <score_type>  (5) 
oracle

>  <origin>  (5) 
adgpu

>  <m_score__min__energy>  (5) 
-9.1699999999999999

>  <m_primary>  (5) 
energy

$$$$
5:0
     RDKit          3D

 48 50  0  0  0  0  0  0  0  0999 V2000
   -1.2600   26.2180  -28.9640 N   0  0  0  0  0  0  0  0  0  0  0  0
   -0.7330   25.0830  -27.7710 S   0  0  0  0  0  0  0  0  0  0  0  0
   -1.0630   25.5990  -26.3960 O   0  0  0  0  0  0  0  0  0  0  0  0
    0.7580   24.9180  -27.8900 O   0  0  0  0  0  0  0  0  0  0  0  0
   -1.5430   23.5300  -28.0310 C   0  0  0  0  0  0  0  0  0  0  0  0
   -1.0480   22.3760  -27.4030 C   0  0  0  0  0  0  0  0  0  0  0  0
   -1.6530   21.1330  -27.6310 C   0  0  0  0  0  0  0  0  0  0  0  0
   -2.7630   21.0330  -28.4780 C   0  0  0  0  0  0  0  0  0  0  0  0
   -3.2670   22.1810  -29.0960 C   0  0  0  0  0  0  0  0  0  0  0  0
   -2.6600   23.4360  -28.8900 C   0  0  0  0  0  0  0  0  0  0  0  0
   -3.1570   24.6170  -29.5390 N   0  0  0  0  0  0  0  0  0  0  0  0
   -4.8310   24.9270  -29.8770 S   0  0  0  0  0  0  0  0  0  0  0  0
   -5.5560   25.2840  -28.6060 O   0  0  0  0  0  0  0  0  0  0  0  0
   -4.9340   26.0840  -30.8300 O   0  0  0  0  0  0  0  0  0  0  0  0
   -5.5350   23.5020  -30.6370 C   0  0  0  0  0  0  0  0  0  0  0  0
   -6.7780   23.0280  -30.1960 C   0  0  0  0  0  0  0  0  0  0  0  0
   -7.3900   21.9470  -30.8360 C   0  0  0  0  0  0  0  0  0  0  0  0
   -6.7680   21.3340  -31.9310 C   0  0  0  0  0  0  0  0  0  0  0  0
   -7.5690   20.0290  -32.8030 S   0  0  0  0  0  0  0  0  0  0  0  0
   -7.1910   20.0820  -34.2570 O   0  0  0  0  0  0  0  0  0  0  0  0
   -9.0570   20.2280  -32.6920 O   0  0  0  0  0  0  0  0  0  0  0  0
   -7.1430   18.4710  -32.1180 N   0  0  0  0  0  0  0  0  0  0  0  0
   -5.7600   18.4480  -31.5980 C   0  0  0  0  0  0  0  0  0  0  0  0
   -4.7040   18.4190  -32.7160 C   0  0  0  0  0  0  0  0  0  0  0  0
   -5.0900   17.4940  -33.8840 C   0  0  0  0  0  0  0  0  0  0  0  0
   -6.2440   16.5580  -33.5210 C   0  0  0  0  0  0  0  0  0  0  0  0
   -7.4670   17.3550  -33.0430 C   0  0  0  0  0  0  0  0  0  0  0  0
   -5.5230   21.8040  -32.3700 C   0  0  0  0  0  0  0  0  0  0  0  0
   -4.9070   22.8790  -31.7240 C   0  0  0  0  0  0  0  0  0  0  0  0
   -1.5400   25.6690  -29.8020 H   0  0  0  0  0  0  0  0  0  0  0  0
   -0.1816   22.4480  -26.7291 H   0  0  0  0  0  0  0  0  0  0  0  0
   -1.2540   20.2319  -27.1423 H   0  0  0  0  0  0  0  0  0  0  0  0
   -3.2362   20.0561  -28.6563 H   0  0  0  0  0  0  0  0  0  0  0  0
   -4.1476   22.1039  -29.7507 H   0  0  0  0  0  0  0  0  0  0  0  0
   -7.2748   23.5098  -29.3410 H   0  0  0  0  0  0  0  0  0  0  0  0
   -8.3623   21.5767  -30.4790 H   0  0  0  0  0  0  0  0  0  0  0  0
   -5.5995   19.3478  -30.9860 H   0  0  0  0  0  0  0  0  0  0  0  0
   -5.6431   17.5272  -31.0076 H   0  0  0  0  0  0  0  0  0  0  0  0
   -4.5770   19.4401  -33.1048 H   0  0  0  0  0  0  0  0  0  0  0  0
   -3.7735   18.0271  -32.2796 H   0  0  0  0  0  0  0  0  0  0  0  0
   -5.3921   18.1131  -34.7416 H   0  0  0  0  0  0  0  0  0  0  0  0
   -4.2150   16.8735  -34.1275 H   0  0  0  0  0  0  0  0  0  0  0  0
   -6.5221   15.9688  -34.4072 H   0  0  0  0  0  0  0  0  0  0  0  0
   -5.9161   15.8955  -32.7064 H   0  0  0  0  0  0  0  0  0  0  0  0
   -7.9721   17.7742  -33.9257 H   0  0  0  0  0  0  0  0  0  0  0  0
   -8.1017   16.6535  -32.4818 H   0  0  0  0  0  0  0  0  0  0  0  0
   -5.0282   21.3243  -33.2274 H   0  0  0  0  0  0  0  0  0  0  0  0
   -3.9262   23.2374  -32.0697 H   0  0  0  0  0  0  0  0  0  0  0  0
  1  2  1  0
  2  3  2  0
  2  4  2  0
  2  5  1  0
  5  6  2  0
  6  7  1  0
  7  8  2  0
  8  9  1  0
  9 10  2  0
 10 11  1  0
 11 12  1  0
 12 13  2  0
 12 14  2  0
 12 15  1  0
 15 16  2  0
 16 17  1  0
 17 18  2  0
 18 19  1  0
 19 20  2  0
 19 21  2  0
 19 22  1  0
 22 23  1  0
 23 24  1  0
 24 25  1  0
 25 26  1  0
 26 27  1  0
 18 28  1  0
 28 29  2  0
 10  5  1  0
 29 15  1  0
 27 22  1  0
  1 30  1  0
  6 31  1  0
  7 32  1  0
  8 33  1  0
  9 34  1  0
 16 35  1  0
 17 36  1  0
 23 37  1  0
 23 38  1  0
 24 39  1  0
 24 40  1  0
 25 41  1  0
 25 42  1  0
 26 43  1  0
 26 44  1  0
 27 45  1  0
 27 46  1  0
 28 47  1  0
 29 48  1  0
M  CHG  2   1  -1  11  -1
M  END
>  <UniqueID>  (6) 
5

>  <SMILES>  (6) 
[NH-]S(=O)(=O)c1ccccc1[N-]S(=O)(=O)c1ccc(S(=O)(=O)N2CCCCC2)cc1

>  <Energy>  (6) 
60.52080560963255

>  <Genealogy>  (6) 
[NH-]S(=O)(=O)c1ccccc1[N-]S(=O)(=O)c1ccc(S(=O)(=O)N2CCCCC2)cc1 (protonated)
[NH-]S(=O)(=O)c1ccccc1[N-]S(=O)(=O)c1ccc(S(=O)(=O)N2CCCCC2)cc1 (3D coordinates assigned)
[NH-]S(=O)(=O)c1ccccc1[N-]S(=O)(=O)c1ccc(S(=O)(=O)N2CCCCC2)cc1 (nonaromatic ring conformer: 60.52080560963255 kcal/mol)

>  <smiles>  (6) 
NS(=O)(=O)c1ccccc1NS(=O)(=O)c1ccc(S(=O)(=O)N2CCCCC2)cc1

>  <score_type>  (6) 
oracle

>  <origin>  (6) 
adgpu

>  <m_score__min__energy>  (6) 
-13.81

>  <m_primary>  (6) 
energy

$$$$
6:0
     RDKit          3D

 28 30  0  0  0  0  0  0  0  0999 V2000
   -5.8590   25.3770  -29.7760 O   0  0  0  0  0  0  0  0  0  0  0  0
   -5.0540   25.0450  -30.6830 C   0  0  0  0  0  0  0  0  0  0  0  0
   -5.5660   24.4780  -31.8960 N   0  0  0  0  0  0  0  0  0  0  0  0
   -6.2260   23.2110  -32.0160 C   0  0  0  0  0  0  0  0  0  0  0  0
   -5.4530   22.0620  -32.3120 C   0  0  0  0  0  0  0  0  0  0  0  0
   -6.0640   20.8020  -32.4660 C   0  0  0  0  0  0  0  0  0  0  0  0
   -7.4440   20.7310  -32.3010 C   0  0  0  0  0  0  0  0  0  0  0  0
   -8.2330   19.6490  -32.4060 N   0  0  0  0  0  0  0  0  0  0  0  0
   -9.4800   20.0490  -32.1640 N   0  0  0  0  0  0  0  0  0  0  0  0
   -9.4820   21.3790  -31.9050 C   0  0  0  0  0  0  0  0  0  0  0  0
   -8.1880   21.8280  -31.9890 C   0  0  0  0  0  0  0  0  0  0  0  0
   -7.6230   23.0870  -31.8220 C   0  0  0  0  0  0  0  0  0  0  0  0
   -3.6480   25.2400  -30.4700 N   0  0  0  0  0  0  0  0  0  0  0  0
   -2.8320   24.5080  -29.5450 C   0  0  0  0  0  0  0  0  0  0  0  0
   -3.1970   23.1960  -29.2170 C   0  0  0  0  0  0  0  0  0  0  0  0
   -2.4560   22.4670  -28.2810 C   0  0  0  0  0  0  0  0  0  0  0  0
   -2.9480   20.8410  -27.8460 Cl  0  0  0  0  0  0  0  0  0  0  0  0
   -1.3290   23.0390  -27.6850 C   0  0  0  0  0  0  0  0  0  0  0  0
   -0.9340   24.3340  -28.0330 C   0  0  0  0  0  0  0  0  0  0  0  0
   -1.6730   25.0680  -28.9680 C   0  0  0  0  0  0  0  0  0  0  0  0
   -1.2380   26.3370  -29.3290 O   0  0  0  0  0  0  0  0  0  0  0  0
   -4.3625   22.1544  -32.4230 H   0  0  0  0  0  0  0  0  0  0  0  0
   -5.4719   19.9070  -32.7078 H   0  0  0  0  0  0  0  0  0  0  0  0
  -10.3651   21.9909  -31.6690 H   0  0  0  0  0  0  0  0  0  0  0  0
   -8.2394   23.9562  -31.5488 H   0  0  0  0  0  0  0  0  0  0  0  0
   -4.0723   22.7359  -29.6988 H   0  0  0  0  0  0  0  0  0  0  0  0
   -0.7521   22.4697  -26.9413 H   0  0  0  0  0  0  0  0  0  0  0  0
   -0.0398   24.7775  -27.5707 H   0  0  0  0  0  0  0  0  0  0  0  0
  1  2  2  0
  2  3  1  0
  3  4  1  0
  4  5  1  0
  5  6  2  0
  6  7  1  0
  7  8  2  0
  8  9  1  0
  9 10  1  0
 10 11  2  0
 11 12  1  0
  2 13  1  0
 13 14  1  0
 14 15  2  0
 15 16  1  0
 16 17  1  0
 16 18  2  0
 18 19  1  0
 19 20  2  0
 20 21  1  0
 12  4  2  0
 20 14  1  0
 11  7  1  0
  5 22  1  0
  6 23  1  0
 10 24  1  0
 12 25  1  0
 15 26  1  0
 18 27  1  0
 19 28  1  0
M  CHG  4   3  -1   9  -1  13  -1  21  -1
M  END
>  <UniqueID>  (7) 
6

>  <SMILES>  (7) 
O=C([N-]c1ccc2n[n-]cc2c1)[N-]c1cc(Cl)ccc1[O-]

>  <Energy>  (7) 
76.93685024315124

>  <Genealogy>  (7) 
O=C([N-]c1ccc2n[n-]cc2c1)[N-]c1cc(Cl)ccc1[O-] (protonated)
O=C([N-]c1ccc2n[n-]cc2c1)[N-]c1cc(Cl)ccc1[O-] (3D coordinates assigned)
O=C([N-]c1ccc2n[n-]cc2c1)[N-]c1cc(Cl)ccc1[O-] (optimized conformer: 76.93685024315124 kcal/mol)

>  <smiles>  (7) 
O=C(Nc1ccc2n[nH]cc2c1)Nc1cc(Cl)ccc1O

>  <score_type>  (7) 
oracle

>  <origin>  (7) 
adgpu

>  <m_score__min__energy>  (7) 
-13.18

>  <m_primary>  (7) 
energy

$$$$
7:0
     RDKit          3D

 30 31  0  0  0  0  0  0  0  0999 V2000
    1.7960   20.7420  -35.1430 C   0  0  0  0  0  0  0  0  0  0  0  0
    0.7940   20.6480  -34.0360 C   0  0  0  0  0  0  0  0  0  0  0  0
   -0.5130   21.1090  -34.2250 C   0  0  0  0  0  0  0  0  0  0  0  0
   -1.4360   21.0350  -33.1740 C   0  0  0  0  0  0  0  0  0  0  0  0
   -2.7630   21.5380  -33.3750 N   0  0  0  0  0  0  0  0  0  0  0  0
   -1.0360   20.4780  -31.9400 C   0  0  0  0  0  0  0  0  0  0  0  0
   -2.1880   20.3090  -30.5640 S   0  0  0  0  0  0  0  0  0  0  0  0
   -2.0260   22.0300  -30.0810 C   0  0  0  0  0  0  0  0  0  0  0  0
   -0.9190   22.4450  -29.3330 C   0  0  0  0  0  0  0  0  0  0  0  0
   -0.7850   23.7850  -28.9660 C   0  0  0  0  0  0  0  0  0  0  0  0
   -1.7610   24.7160  -29.3360 C   0  0  0  0  0  0  0  0  0  0  0  0
   -1.6130   26.0490  -28.9650 O   0  0  0  0  0  0  0  0  0  0  0  0
   -2.8840   24.3090  -30.0720 C   0  0  0  0  0  0  0  0  0  0  0  0
   -3.8600   25.2930  -30.4520 N   0  0  0  0  0  0  0  0  0  0  0  0
   -5.2120   25.0390  -30.8530 C   0  0  0  0  0  0  0  0  0  0  0  0
   -5.4770   24.2440  -31.7930 O   0  0  0  0  0  0  0  0  0  0  0  0
   -2.9970   22.9630  -30.4650 C   0  0  0  0  0  0  0  0  0  0  0  0
    0.2950   20.0500  -31.7900 C   0  0  0  0  0  0  0  0  0  0  0  0
    0.6950   19.5750  -30.6940 O   0  0  0  0  0  0  0  0  0  0  0  0
    1.1650   20.1440  -32.8300 N   0  0  0  0  0  0  0  0  0  0  0  0
    2.8056   20.8367  -34.7167 H   0  0  0  0  0  0  0  0  0  0  0  0
    1.7435   19.8350  -35.7631 H   0  0  0  0  0  0  0  0  0  0  0  0
    1.5757   21.6234  -35.7631 H   0  0  0  0  0  0  0  0  0  0  0  0
   -0.8151   21.5284  -35.1960 H   0  0  0  0  0  0  0  0  0  0  0  0
   -3.0770   21.8420  -34.3240 H   0  0  0  0  0  0  0  0  0  0  0  0
   -3.4380   21.6560  -32.5870 H   0  0  0  0  0  0  0  0  0  0  0  0
   -0.1532   21.7143  -29.0337 H   0  0  0  0  0  0  0  0  0  0  0  0
    0.0904   24.1096  -28.3843 H   0  0  0  0  0  0  0  0  0  0  0  0
   -6.0345   25.5484  -30.3295 H   0  0  0  0  0  0  0  0  0  0  0  0
   -3.8526   22.6417  -31.0772 H   0  0  0  0  0  0  0  0  0  0  0  0
  1  2  1  0
  2  3  2  0
  3  4  1  0
  4  5  1  0
  4  6  2  0
  6  7  1  0
  7  8  1  0
  8  9  2  0
  9 10  1  0
 10 11  2  0
 11 12  1  0
 11 13  1  0
 13 14  1  0
 14 15  1  0
 15 16  2  0
 13 17  2  0
  6 18  1  0
 18 19  2  0
 18 20  1  0
 20  2  1  0
 17  8  1  0
  1 21  1  0
  1 22  1  0
  1 23  1  0
  3 24  1  0
  5 25  1  0
  5 26  1  0
  9 27  1  0
 10 28  1  0
 15 29  1  0
 17 30  1  0
M  CHG  3  12  -1  14  -1  20  -1
M  END
>  <UniqueID>  (8) 
7

>  <SMILES>  (8) 
Cc1cc(N)c(Sc2ccc([O-])c([N-]C=O)c2)c(=O)[n-]1

>  <Energy>  (8) 
30.384108823997728

>  <Genealogy>  (8) 
Cc1cc(N)c(Sc2ccc([O-])c([N-]C=O)c2)c(=O)[n-]1 (protonated)
Cc1cc(N)c(Sc2ccc([O-])c([N-]C=O)c2)c(=O)[n-]1 (3D coordinates assigned)
Cc1cc(N)c(Sc2ccc([O-])c([N-]C=O)c2)c(=O)[n-]1 (optimized conformer: 30.384108823997728 kcal/mol)

>  <smiles>  (8) 
Cc1cc(N)c(Sc2ccc(O)c(NC=O)c2)c(=O)[nH]1

>  <score_type>  (8) 
oracle

>  <origin>  (8) 
adgpu

>  <m_score__min__energy>  (8) 
-10.550000000000001

>  <m_primary>  (8) 
energy

$$$$
8:0
     RDKit          3D

 42 44  0  0  0  0  0  0  0  0999 V2000
   -3.1900   17.8740  -34.6160 C   0  0  0  0  0  0  0  0  0  0  0  0
   -4.2700   17.0140  -34.8380 C   0  0  0  0  0  0  0  0  0  0  0  0
   -5.5170   17.2960  -34.2730 C   0  0  0  0  0  0  0  0  0  0  0  0
   -5.6970   18.4430  -33.4790 C   0  0  0  0  0  0  0  0  0  0  0  0
   -7.0250   18.7170  -32.8900 C   0  0  0  0  0  0  0  0  0  0  0  0
   -7.7800   17.8960  -32.0720 C   0  0  0  0  0  0  0  0  0  0  0  0
   -8.9270   18.5300  -31.7560 N   0  0  0  0  0  0  0  0  0  0  0  0
   -8.8210   19.7120  -32.4040 C   0  0  0  0  0  0  0  0  0  0  0  0
   -9.8580   20.7890  -32.3330 C   0  0  0  0  0  0  0  0  0  0  0  0
   -9.7180   21.6320  -31.0550 C   0  0  0  0  0  0  0  0  0  0  0  0
   -8.3270   22.2690  -30.8660 C   0  0  0  0  0  0  0  0  0  0  0  0
   -7.7060   22.7360  -32.1950 C   0  0  0  0  0  0  0  0  0  0  0  0
   -6.2330   22.3190  -32.3260 C   0  0  0  0  0  0  0  0  0  0  0  0
   -5.3160   23.2390  -31.5600 C   0  0  0  0  0  0  0  0  0  0  0  0
   -5.7340   24.5310  -31.2050 C   0  0  0  0  0  0  0  0  0  0  0  0
   -4.8650   25.3650  -30.4950 C   0  0  0  0  0  0  0  0  0  0  0  0
   -3.6250   24.9230  -30.1500 N   0  0  0  0  0  0  0  0  0  0  0  0
   -3.2010   23.6720  -30.4710 C   0  0  0  0  0  0  0  0  0  0  0  0
   -4.0410   22.8040  -31.1740 C   0  0  0  0  0  0  0  0  0  0  0  0
   -7.6960   19.8290  -33.0740 O   0  0  0  0  0  0  0  0  0  0  0  0
   -4.6020   19.3010  -33.2570 C   0  0  0  0  0  0  0  0  0  0  0  0
   -3.3560   19.0140  -33.8250 C   0  0  0  0  0  0  0  0  0  0  0  0
   -2.2099   17.6532  -35.0639 H   0  0  0  0  0  0  0  0  0  0  0  0
   -4.1381   16.1148  -35.4578 H   0  0  0  0  0  0  0  0  0  0  0  0
   -6.3634   16.6162  -34.4505 H   0  0  0  0  0  0  0  0  0  0  0  0
   -7.4915   16.8897  -31.7343 H   0  0  0  0  0  0  0  0  0  0  0  0
   -9.7485   21.4471  -33.2076 H   0  0  0  0  0  0  0  0  0  0  0  0
  -10.8483   20.3103  -32.3204 H   0  0  0  0  0  0  0  0  0  0  0  0
  -10.4647   22.4389  -31.0908 H   0  0  0  0  0  0  0  0  0  0  0  0
   -9.8695   20.9476  -30.2073 H   0  0  0  0  0  0  0  0  0  0  0  0
   -8.4247   23.1375  -30.1980 H   0  0  0  0  0  0  0  0  0  0  0  0
   -7.6639   21.5023  -30.4389 H   0  0  0  0  0  0  0  0  0  0  0  0
   -8.2746   22.2937  -33.0263 H   0  0  0  0  0  0  0  0  0  0  0  0
   -7.7492   23.8349  -32.2200 H   0  0  0  0  0  0  0  0  0  0  0  0
   -6.1171   21.2968  -31.9365 H   0  0  0  0  0  0  0  0  0  0  0  0
   -5.9576   22.3726  -33.3896 H   0  0  0  0  0  0  0  0  0  0  0  0
   -6.7377   24.8847  -31.4833 H   0  0  0  0  0  0  0  0  0  0  0  0
   -5.1840   26.3798  -30.2149 H   0  0  0  0  0  0  0  0  0  0  0  0
   -2.1938   23.3419  -30.1766 H   0  0  0  0  0  0  0  0  0  0  0  0
   -3.7038   21.7869  -31.4225 H   0  0  0  0  0  0  0  0  0  0  0  0
   -4.7270   20.1996  -32.6350 H   0  0  0  0  0  0  0  0  0  0  0  0
   -2.5046   19.6877  -33.6484 H   0  0  0  0  0  0  0  0  0  0  0  0
  1  2  2  0
  2  3  1  0
  3  4  2  0
  4  5  1  0
  5  6  2  0
  6  7  1  0
  7  8  2  0
  8  9  1  0
  9 10  1  0
 10 11  1  0
 11 12  1  0
 12 13  1  0
 13 14  1  0
 14 15  2  0
 15 16  1  0
 16 17  2  0
 17 18  1  0
 18 19  2  0
  8 20  1  0
  4 21  1  0
 21 22  2  0
 22  1  1  0
 20  5  1  0
 19 14  1  0
  1 23  1  0
  2 24  1  0
  3 25  1  0
  6 26  1  0
  9 27  1  0
  9 28  1  0
 10 29  1  0
 10 30  1  0
 11 31  1  0
 11 32  1  0
 12 33  1  0
 12 34  1  0
 13 35  1  0
 13 36  1  0
 15 37  1  0
 16 38  1  0
 18 39  1  0
 19 40  1  0
 21 41  1  0
 22 42  1  0
M  END
>  <UniqueID>  (9) 
8

>  <SMILES>  (9) 
c1ccc(-c2cnc(CCCCCc3ccncc3)o2)cc1

>  <Energy>  (9) 
64.52496262766411

>  <Genealogy>  (9) 
c1ccc(-c2cnc(CCCCCc3ccncc3)o2)cc1 (3D coordinates assigned)
c1ccc(-c2cnc(CCCCCc3ccncc3)o2)cc1 (optimized conformer: 64.52496262766411 kcal/mol)

>  <smiles>  (9) 
c1ccc(-c2cnc(CCCCCc3ccncc3)o2)cc1

>  <score_type>  (9) 
oracle

>  <origin>  (9) 
adgpu

>  <m_score__min__energy>  (9) 
-8.0500000000000007

>  <m_primary>  (9) 
energy

$$$$
9:0
     RDKit          3D

 55 58  0  0  0  0  0  0  0  0999 V2000
    1.8670   21.8820  -35.9840 C   0  0  0  0  0  0  0  0  0  0  0  0
    1.2690   20.9980  -34.9350 C   0  0  0  0  0  0  0  0  0  0  0  0
   -0.0510   21.1970  -34.5090 C   0  0  0  0  0  0  0  0  0  0  0  0
   -0.6030   20.3530  -33.5300 C   0  0  0  0  0  0  0  0  0  0  0  0
   -1.9990   20.5480  -33.0620 C   0  0  0  0  0  0  0  0  0  0  0  0
   -2.4880   19.8330  -31.9530 C   0  0  0  0  0  0  0  0  0  0  0  0
   -3.8050   20.0110  -31.5190 C   0  0  0  0  0  0  0  0  0  0  0  0
   -4.6530   20.9050  -32.1860 C   0  0  0  0  0  0  0  0  0  0  0  0
   -6.0160   21.0700  -31.7640 N   0  0  0  0  0  0  0  0  0  0  0  0
   -6.9570   19.9460  -31.9030 C   0  0  0  0  0  0  0  0  0  0  0  0
   -6.4060   18.8620  -32.8080 C   0  0  0  0  0  0  0  0  0  0  0  0
   -6.2810   19.1420  -34.1800 C   0  0  0  0  0  0  0  0  0  0  0  0
   -5.7250   18.2070  -35.0530 C   0  0  0  0  0  0  0  0  0  0  0  0
   -5.2900   16.9740  -34.5710 C   0  0  0  0  0  0  0  0  0  0  0  0
   -5.4210   16.6680  -33.2160 C   0  0  0  0  0  0  0  0  0  0  0  0
   -5.9750   17.5990  -32.3190 C   0  0  0  0  0  0  0  0  0  0  0  0
   -6.1390   17.2050  -30.8740 C   0  0  0  0  0  0  0  0  0  0  0  0
   -6.3310   22.1450  -30.8580 C   0  0  0  0  0  0  0  0  0  0  0  0
   -7.5150   22.3080  -30.4590 O   0  0  0  0  0  0  0  0  0  0  0  0
   -5.2820   23.0660  -30.3830 C   0  0  0  0  0  0  0  0  0  0  0  0
   -4.2300   22.5750  -29.5940 C   0  0  0  0  0  0  0  0  0  0  0  0
   -3.2410   23.4400  -29.1210 C   0  0  0  0  0  0  0  0  0  0  0  0
   -3.2870   24.8000  -29.4400 C   0  0  0  0  0  0  0  0  0  0  0  0
   -2.3060   25.6600  -28.9630 O   0  0  0  0  0  0  0  0  0  0  0  0
   -4.3180   25.2940  -30.2440 C   0  0  0  0  0  0  0  0  0  0  0  0
   -5.3100   24.4300  -30.7320 C   0  0  0  0  0  0  0  0  0  0  0  0
   -6.3050   24.9170  -31.5800 O   0  0  0  0  0  0  0  0  0  0  0  0
   -4.1710   21.6270  -33.2840 C   0  0  0  0  0  0  0  0  0  0  0  0
   -2.8560   21.4490  -33.7220 C   0  0  0  0  0  0  0  0  0  0  0  0
    0.1900   19.3170  -33.0060 C   0  0  0  0  0  0  0  0  0  0  0  0
    1.4980   19.1490  -33.4630 C   0  0  0  0  0  0  0  0  0  0  0  0
    2.0040   19.9810  -34.4090 N   0  0  0  0  0  0  0  0  0  0  0  0
    2.4209   22.7007  -35.5014 H   0  0  0  0  0  0  0  0  0  0  0  0
    2.5538   21.2943  -36.6108 H   0  0  0  0  0  0  0  0  0  0  0  0
    1.0659   22.3008  -36.6108 H   0  0  0  0  0  0  0  0  0  0  0  0
   -0.6531   22.0109  -34.9392 H   0  0  0  0  0  0  0  0  0  0  0  0
   -1.8292   19.1289  -31.4237 H   0  0  0  0  0  0  0  0  0  0  0  0
   -4.1768   19.4472  -30.6508 H   0  0  0  0  0  0  0  0  0  0  0  0
   -7.1489   19.5167  -30.9086 H   0  0  0  0  0  0  0  0  0  0  0  0
   -7.8848   20.3292  -32.3527 H   0  0  0  0  0  0  0  0  0  0  0  0
   -6.6261   20.1109  -34.5700 H   0  0  0  0  0  0  0  0  0  0  0  0
   -5.6298   18.4432  -36.1231 H   0  0  0  0  0  0  0  0  0  0  0  0
   -4.8431   16.2415  -35.2592 H   0  0  0  0  0  0  0  0  0  0  0  0
   -5.0873   15.6877  -32.8451 H   0  0  0  0  0  0  0  0  0  0  0  0
   -5.7967   18.0274  -30.2286 H   0  0  0  0  0  0  0  0  0  0  0  0
   -7.1992   16.9951  -30.6692 H   0  0  0  0  0  0  0  0  0  0  0  0
   -5.5408   16.3049  -30.6692 H   0  0  0  0  0  0  0  0  0  0  0  0
   -4.1844   21.5040  -29.3472 H   0  0  0  0  0  0  0  0  0  0  0  0
   -2.4240   23.0502  -28.4960 H   0  0  0  0  0  0  0  0  0  0  0  0
   -4.3519   26.3644  -30.4952 H   0  0  0  0  0  0  0  0  0  0  0  0
   -7.1920   24.4390  -31.6880 H   0  0  0  0  0  0  0  0  0  0  0  0
   -4.8301   22.3375  -33.8043 H   0  0  0  0  0  0  0  0  0  0  0  0
   -2.4878   22.0171  -34.5890 H   0  0  0  0  0  0  0  0  0  0  0  0
   -0.2185   18.6421  -32.2395 H   0  0  0  0  0  0  0  0  0  0  0  0
    2.1212   18.3395  -33.0552 H   0  0  0  0  0  0  0  0  0  0  0  0
  1  2  1  0
  2  3  2  0
  3  4  1  0
  4  5  1  0
  5  6  2  0
  6  7  1  0
  7  8  2  0
  8  9  1  0
  9 10  1  0
 10 11  1  0
 11 12  2  0
 12 13  1  0
 13 14  2  0
 14 15  1  0
 15 16  2  0
 16 17  1  0
  9 18  1  0
 18 19  2  0
 18 20  1  0
 20 21  2  0
 21 22  1  0
 22 23  2  0
 23 24  1  0
 23 25  1  0
 25 26  2  0
 26 27  1  0
  8 28  1  0
 28 29  2  0
  4 30  2  0
 30 31  1  0
 31 32  2  0
 32  2  1  0
 29  5  1  0
 16 11  1  0
 26 20  1  0
  1 33  1  0
  1 34  1  0
  1 35  1  0
  3 36  1  0
  6 37  1  0
  7 38  1  0
 10 39  1  0
 10 40  1  0
 12 41  1  0
 13 42  1  0
 14 43  1  0
 15 44  1  0
 17 45  1  0
 17 46  1  0
 17 47  1  0
 21 48  1  0
 22 49  1  0
 25 50  1  0
 27 51  1  0
 28 52  1  0
 29 53  1  0
 30 54  1  0
 31 55  1  0
M  CHG  1  24  -1
M  END
>  <UniqueID>  (10) 
9

>  <SMILES>  (10) 
Cc1cc(-c2ccc(N(Cc3ccccc3C)C(=O)c3ccc([O-])cc3O)cc2)ccn1

>  <Energy>  (10) 
78.33383038530889

>  <Genealogy>  (10) 
Cc1cc(-c2ccc(N(Cc3ccccc3C)C(=O)c3ccc([O-])cc3O)cc2)ccn1 (protonated)
Cc1cc(-c2ccc(N(Cc3ccccc3C)C(=O)c3ccc([O-])cc3O)cc2)ccn1 (3D coordinates assigned)
Cc1cc(-c2ccc(N(Cc3ccccc3C)C(=O)c3ccc([O-])cc3O)cc2)ccn1 (optimized conformer: 78.33383038530889 kcal/mol)

>  <smiles>  (10) 
Cc1cc(-c2ccc(N(Cc3ccccc3C)C(=O)c3ccc(O)cc3O)cc2)ccn1

>  <score_type>  (10) 
oracle

>  <origin>  (10) 
adgpu

>  <m_score__min__energy>  (10) 
-11.140000000000001

>  <m_primary>  (10) 
energy

$$$$
10:0
     RDKit          3D

 38 39  0  0  0  0  0  0  0  0999 V2000
   -6.4790   26.0030  -29.3170 C   0  0  0  0  0  0  0  0  0  0  0  0
   -7.0100   24.8210  -30.1250 C   0  0  0  0  0  0  0  0  0  0  0  0
   -5.9670   23.7990  -30.2850 N   0  0  0  0  0  0  0  0  0  0  0  0
   -4.8260   23.7520  -29.3600 C   0  0  0  0  0  0  0  0  0  0  0  0
   -3.6650   24.5250  -29.9250 C   0  0  0  0  0  0  0  0  0  0  0  0
   -3.8810   25.3560  -30.8490 O   0  0  0  0  0  0  0  0  0  0  0  0
   -2.3110   24.2500  -29.5480 N   0  0  0  0  0  0  0  0  0  0  0  0
   -1.6910   24.5620  -28.2940 C   0  0  0  0  0  0  0  0  0  0  0  0
   -1.1970   25.8510  -28.0190 C   0  0  0  0  0  0  0  0  0  0  0  0
   -1.2440   26.8270  -28.9620 F   0  0  0  0  0  0  0  0  0  0  0  0
   -0.6470   26.1330  -26.7670 C   0  0  0  0  0  0  0  0  0  0  0  0
   -0.5500   25.1280  -25.8010 C   0  0  0  0  0  0  0  0  0  0  0  0
   -0.9850   23.8330  -26.0910 C   0  0  0  0  0  0  0  0  0  0  0  0
   -1.5450   23.5490  -27.3390 C   0  0  0  0  0  0  0  0  0  0  0  0
   -1.9870   22.2960  -27.6020 F   0  0  0  0  0  0  0  0  0  0  0  0
   -5.9800   22.9690  -31.4610 C   0  0  0  0  0  0  0  0  0  0  0  0
   -5.0760   23.1150  -32.3300 O   0  0  0  0  0  0  0  0  0  0  0  0
   -7.0450   21.9740  -31.6930 C   0  0  0  0  0  0  0  0  0  0  0  0
   -8.4090   22.2510  -31.7470 C   0  0  0  0  0  0  0  0  0  0  0  0
   -9.2010   21.1150  -31.9560 C   0  0  0  0  0  0  0  0  0  0  0  0
   -8.4640   19.9410  -32.0350 C   0  0  0  0  0  0  0  0  0  0  0  0
   -9.0130   18.5880  -32.3210 C   0  0  0  0  0  0  0  0  0  0  0  0
   -6.8310   20.3120  -31.8730 S   0  0  0  0  0  0  0  0  0  0  0  0
   -6.5764   25.7863  -28.2430 H   0  0  0  0  0  0  0  0  0  0  0  0
   -5.4198   26.1690  -29.5630 H   0  0  0  0  0  0  0  0  0  0  0  0
   -7.0583   26.9051  -29.5630 H   0  0  0  0  0  0  0  0  0  0  0  0
   -7.8709   24.3810  -29.6003 H   0  0  0  0  0  0  0  0  0  0  0  0
   -7.3151   25.1777  -31.1198 H   0  0  0  0  0  0  0  0  0  0  0  0
   -5.1213   24.1929  -28.3965 H   0  0  0  0  0  0  0  0  0  0  0  0
   -4.5233   22.7041  -29.2173 H   0  0  0  0  0  0  0  0  0  0  0  0
   -0.2894   27.1483  -26.5406 H   0  0  0  0  0  0  0  0  0  0  0  0
   -0.1303   25.3573  -24.8104 H   0  0  0  0  0  0  0  0  0  0  0  0
   -0.8868   23.0375  -25.3376 H   0  0  0  0  0  0  0  0  0  0  0  0
   -8.8239   23.2637  -31.6362 H   0  0  0  0  0  0  0  0  0  0  0  0
  -10.2966   21.1494  -32.0483 H   0  0  0  0  0  0  0  0  0  0  0  0
   -9.2232   18.0699  -31.3737 H   0  0  0  0  0  0  0  0  0  0  0  0
   -9.9431   18.6846  -32.9004 H   0  0  0  0  0  0  0  0  0  0  0  0
   -8.2786   18.0092  -32.9004 H   0  0  0  0  0  0  0  0  0  0  0  0
  1  2  1  0
  2  3  1  0
  3  4  1  0
  4  5  1  0
  5  6  2  0
  5  7  1  0
  7  8  1  0
  8  9  2  0
  9 10  1  0
  9 11  1  0
 11 12  2  0
 12 13  1  0
 13 14  2  0
 14 15  1  0
  3 16  1  0
 16 17  2  0
 16 18  1  0
 18 19  2  0
 19 20  1  0
 20 21  2  0
 21 22  1  0
 21 23  1  0
 14  8  1  0
 23 18  1  0
  1 24  1  0
  1 25  1  0
  1 26  1  0
  2 27  1  0
  2 28  1  0
  4 29  1  0
  4 30  1  0
 11 31  1  0
 12 32  1  0
 13 33  1  0
 19 34  1  0
 20 35  1  0
 22 36  1  0
 22 37  1  0
 22 38  1  0
M  CHG  1   7  -1
M  END
>  <UniqueID>  (11) 
10

>  <SMILES>  (11) 
CCN(CC(=O)[N-]c1c(F)cccc1F)C(=O)c1ccc(C)s1

>  <Energy>  (11) 
63.94050924656665

>  <Genealogy>  (11) 
CCN(CC(=O)[N-]c1c(F)cccc1F)C(=O)c1ccc(C)s1 (protonated)
CCN(CC(=O)[N-]c1c(F)cccc1F)C(=O)c1ccc(C)s1 (3D coordinates assigned)
CCN(CC(=O)[N-]c1c(F)cccc1F)C(=O)c1ccc(C)s1 (optimized conformer: 63.94050924656665 kcal/mol)

>  <smiles>  (11) 
CCN(CC(=O)Nc1c(F)cccc1F)C(=O)c1ccc(C)s1

>  <score_type>  (11) 
oracle

>  <origin>  (11) 
adgpu

>  <m_score__min__energy>  (11) 
-9.2699999999999996

>  <m_primary>  (11) 
energy

$$$$
11:0
     RDKit          3D

 55 57  0  0  0  0  0  0  0  0999 V2000
   -0.7890   29.1040  -25.2730 C   0  0  0  0  0  0  0  0  0  0  0  0
   -0.8750   27.6760  -25.7240 C   0  0  0  0  0  0  0  0  0  0  0  0
   -0.4650   27.3150  -27.0160 C   0  0  0  0  0  0  0  0  0  0  0  0
   -0.5080   25.9770  -27.4200 C   0  0  0  0  0  0  0  0  0  0  0  0
   -0.9320   24.9770  -26.5310 C   0  0  0  0  0  0  0  0  0  0  0  0
   -1.0050   23.5410  -26.9840 C   0  0  0  0  0  0  0  0  0  0  0  0
   -0.3400   23.3270  -28.6780 S   0  0  0  0  0  0  0  0  0  0  0  0
   -1.9470   23.2450  -29.5530 C   0  0  0  0  0  0  0  0  0  0  0  0
   -2.7670   24.5110  -29.3000 C   0  0  0  0  0  0  0  0  0  0  0  0
   -3.5000   24.8990  -30.5090 N   0  0  0  0  0  0  0  0  0  0  0  0
   -5.2150   24.9490  -30.2170 S   0  0  0  0  0  0  0  0  0  0  0  0
   -5.4680   25.0200  -28.7370 O   0  0  0  0  0  0  0  0  0  0  0  0
   -5.7910   26.1770  -30.8620 O   0  0  0  0  0  0  0  0  0  0  0  0
   -5.9910   23.5210  -30.8990 C   0  0  0  0  0  0  0  0  0  0  0  0
   -7.2890   23.5940  -31.4210 C   0  0  0  0  0  0  0  0  0  0  0  0
   -7.9310   22.4360  -31.8720 C   0  0  0  0  0  0  0  0  0  0  0  0
   -7.2900   21.1930  -31.7760 C   0  0  0  0  0  0  0  0  0  0  0  0
   -8.1340   19.7210  -32.2570 S   0  0  0  0  0  0  0  0  0  0  0  0
   -8.3720   18.8700  -31.0400 O   0  0  0  0  0  0  0  0  0  0  0  0
   -9.4760   20.0980  -32.8210 O   0  0  0  0  0  0  0  0  0  0  0  0
   -7.2540   18.8020  -33.4640 N   0  0  0  0  0  0  0  0  0  0  0  0
   -7.0240   17.4010  -33.0660 C   0  0  0  0  0  0  0  0  0  0  0  0
   -5.8010   17.2280  -32.1350 C   0  0  0  0  0  0  0  0  0  0  0  0
   -5.0360   18.4080  -31.9970 O   0  0  0  0  0  0  0  0  0  0  0  0
   -4.7510   18.9380  -33.2700 C   0  0  0  0  0  0  0  0  0  0  0  0
   -6.0290   19.4900  -33.9240 C   0  0  0  0  0  0  0  0  0  0  0  0
   -5.9800   21.1270  -31.2800 C   0  0  0  0  0  0  0  0  0  0  0  0
   -5.3320   22.2880  -30.8520 C   0  0  0  0  0  0  0  0  0  0  0  0
   -1.3560   25.3450  -25.2420 C   0  0  0  0  0  0  0  0  0  0  0  0
   -1.3120   26.6820  -24.8370 C   0  0  0  0  0  0  0  0  0  0  0  0
   -0.7867   29.1418  -24.1737 H   0  0  0  0  0  0  0  0  0  0  0  0
    0.1379   29.5547  -25.6573 H   0  0  0  0  0  0  0  0  0  0  0  0
   -1.6551   29.6627  -25.6573 H   0  0  0  0  0  0  0  0  0  0  0  0
   -0.1085   28.0871  -27.7137 H   0  0  0  0  0  0  0  0  0  0  0  0
   -0.2071   25.7060  -28.4427 H   0  0  0  0  0  0  0  0  0  0  0  0
   -0.4201   22.9188  -26.2907 H   0  0  0  0  0  0  0  0  0  0  0  0
   -2.0625   23.2381  -26.9911 H   0  0  0  0  0  0  0  0  0  0  0  0
   -1.7650   23.1428  -30.6330 H   0  0  0  0  0  0  0  0  0  0  0  0
   -2.5102   22.3784  -29.1765 H   0  0  0  0  0  0  0  0  0  0  0  0
   -3.4838   24.3215  -28.4874 H   0  0  0  0  0  0  0  0  0  0  0  0
   -2.0841   25.3270  -29.0211 H   0  0  0  0  0  0  0  0  0  0  0  0
   -7.8045   24.5642  -31.4763 H   0  0  0  0  0  0  0  0  0  0  0  0
   -8.9410   22.5008  -32.3029 H   0  0  0  0  0  0  0  0  0  0  0  0
   -7.9185   17.0349  -32.5408 H   0  0  0  0  0  0  0  0  0  0  0  0
   -6.8218   16.8283  -33.9831 H   0  0  0  0  0  0  0  0  0  0  0  0
   -6.1590   16.9249  -31.1400 H   0  0  0  0  0  0  0  0  0  0  0  0
   -5.1494   16.4668  -32.5888 H   0  0  0  0  0  0  0  0  0  0  0  0
   -4.0171   19.7509  -33.1673 H   0  0  0  0  0  0  0  0  0  0  0  0
   -4.3446   18.1371  -33.9052 H   0  0  0  0  0  0  0  0  0  0  0  0
   -6.1144   20.5592  -33.6801 H   0  0  0  0  0  0  0  0  0  0  0  0
   -5.9438   19.3228  -35.0079 H   0  0  0  0  0  0  0  0  0  0  0  0
   -5.4614   20.1584  -31.2279 H   0  0  0  0  0  0  0  0  0  0  0  0
   -4.2995   22.2325  -30.4766 H   0  0  0  0  0  0  0  0  0  0  0  0
   -1.7248   24.5756  -24.5477 H   0  0  0  0  0  0  0  0  0  0  0  0
   -1.6217   26.9557  -23.8176 H   0  0  0  0  0  0  0  0  0  0  0  0
  1  2  1  0
  2  3  2  0
  3  4  1  0
  4  5  2  0
  5  6  1  0
  6  7  1  0
  7  8  1  0
  8  9  1  0
  9 10  1  0
 10 11  1  0
 11 12  2  0
 11 13  2  0
 11 14  1  0
 14 15  2  0
 15 16  1  0
 16 17  2  0
 17 18  1  0
 18 19  2  0
 18 20  2  0
 18 21  1  0
 21 22  1  0
 22 23  1  0
 23 24  1  0
 24 25  1  0
 25 26  1  0
 17 27  1  0
 27 28  2  0
  5 29  1  0
 29 30  2  0
 30  2  1  0
 28 14  1  0
 26 21  1  0
  1 31  1  0
  1 32  1  0
  1 33  1  0
  3 34  1  0
  4 35  1  0
  6 36  1  0
  6 37  1  0
  8 38  1  0
  8 39  1  0
  9 40  1  0
  9 41  1  0
 15 42  1  0
 16 43  1  0
 22 44  1  0
 22 45  1  0
 23 46  1  0
 23 47  1  0
 25 48  1  0
 25 49  1  0
 26 50  1  0
 26 51  1  0
 27 52  1  0
 28 53  1  0
 29 54  1  0
 30 55  1  0
M  CHG  1  10  -1
M  END
>  <UniqueID>  (12) 
11

>  <SMILES>  (12) 
Cc1ccc(CSCC[N-]S(=O)(=O)c2ccc(S(=O)(=O)N3CCOCC3)cc2)cc1

>  <Energy>  (12) 
55.006595794310435

>  <Genealogy>  (12) 
Cc1ccc(CSCC[N-]S(=O)(=O)c2ccc(S(=O)(=O)N3CCOCC3)cc2)cc1 (protonated)
Cc1ccc(CSCC[N-]S(=O)(=O)c2ccc(S(=O)(=O)N3CCOCC3)cc2)cc1 (3D coordinates assigned)
Cc1ccc(CSCC[N-]S(=O)(=O)c2ccc(S(=O)(=O)N3CCOCC3)cc2)cc1 (nonaromatic ring conformer: 55.006595794310435 kcal/mol)

>  <smiles>  (12) 
Cc1ccc(CSCCNS(=O)(=O)c2ccc(S(=O)(=O)N3CCOCC3)cc2)cc1

>  <score_type>  (12) 
oracle

>  <origin>  (12) 
adgpu

>  <m_score__min__energy>  (12) 
-11.029999999999999

>  <m_primary>  (12) 
energy

$$$$
12:0
     RDKit          3D

 39 40  0  0  0  0  0  0  0  0999 V2000
   -1.0470   23.6950  -26.3360 C   0  0  0  0  0  0  0  0  0  0  0  0
   -1.9050   22.8020  -27.0380 O   0  0  0  0  0  0  0  0  0  0  0  0
   -1.6480   22.2890  -28.3200 C   0  0  0  0  0  0  0  0  0  0  0  0
   -0.9470   21.0820  -28.5060 C   0  0  0  0  0  0  0  0  0  0  0  0
   -0.6900   20.6030  -29.7920 C   0  0  0  0  0  0  0  0  0  0  0  0
   -1.1120   21.3270  -30.9140 C   0  0  0  0  0  0  0  0  0  0  0  0
   -0.8580   20.7970  -32.2930 C   0  0  0  0  0  0  0  0  0  0  0  0
   -1.8280   22.5180  -30.7340 C   0  0  0  0  0  0  0  0  0  0  0  0
   -2.1000   23.0030  -29.4470 C   0  0  0  0  0  0  0  0  0  0  0  0
   -2.9350   24.5490  -29.2600 S   0  0  0  0  0  0  0  0  0  0  0  0
   -1.9530   25.6490  -28.9680 O   0  0  0  0  0  0  0  0  0  0  0  0
   -3.9030   24.4610  -28.1140 O   0  0  0  0  0  0  0  0  0  0  0  0
   -3.8110   24.9040  -30.7080 N   0  0  0  0  0  0  0  0  0  0  0  0
   -5.0990   24.3400  -30.9400 C   0  0  0  0  0  0  0  0  0  0  0  0
   -6.2810   24.7070  -30.3270 C   0  0  0  0  0  0  0  0  0  0  0  0
   -6.4630   25.7950  -29.3220 C   0  0  0  0  0  0  0  0  0  0  0  0
   -7.2410   23.8180  -30.6540 N   0  0  0  0  0  0  0  0  0  0  0  0
   -6.6990   22.9190  -31.4660 N   0  0  0  0  0  0  0  0  0  0  0  0
   -7.4280   21.7750  -32.0020 C   0  0  0  0  0  0  0  0  0  0  0  0
   -5.3930   23.2050  -31.6640 C   0  0  0  0  0  0  0  0  0  0  0  0
   -4.4240   22.3500  -32.4190 C   0  0  0  0  0  0  0  0  0  0  0  0
   -1.1803   23.5562  -25.2530 H   0  0  0  0  0  0  0  0  0  0  0  0
   -0.0012   23.4871  -26.6063 H   0  0  0  0  0  0  0  0  0  0  0  0
   -1.2965   24.7317  -26.6063 H   0  0  0  0  0  0  0  0  0  0  0  0
   -0.5993   20.5123  -27.6316 H   0  0  0  0  0  0  0  0  0  0  0  0
   -0.1533   19.6520  -29.9246 H   0  0  0  0  0  0  0  0  0  0  0  0
   -0.3835   19.8070  -32.2237 H   0  0  0  0  0  0  0  0  0  0  0  0
   -1.8120   20.7094  -32.8336 H   0  0  0  0  0  0  0  0  0  0  0  0
   -0.1921   21.4857  -32.8336 H   0  0  0  0  0  0  0  0  0  0  0  0
   -2.1806   23.0787  -31.6123 H   0  0  0  0  0  0  0  0  0  0  0  0
   -6.3925   25.3735  -28.3084 H   0  0  0  0  0  0  0  0  0  0  0  0
   -5.6795   26.5550  -29.4584 H   0  0  0  0  0  0  0  0  0  0  0  0
   -7.4512   26.2586  -29.4584 H   0  0  0  0  0  0  0  0  0  0  0  0
   -7.8161   21.1660  -31.1722 H   0  0  0  0  0  0  0  0  0  0  0  0
   -8.2663   22.1308  -32.6190 H   0  0  0  0  0  0  0  0  0  0  0  0
   -6.7514   21.1655  -32.6190 H   0  0  0  0  0  0  0  0  0  0  0  0
   -3.7943   21.7944  -31.7085 H   0  0  0  0  0  0  0  0  0  0  0  0
   -4.9770   21.6401  -33.0517 H   0  0  0  0  0  0  0  0  0  0  0  0
   -3.7885   22.9871  -33.0517 H   0  0  0  0  0  0  0  0  0  0  0  0
  1  2  1  0
  2  3  1  0
  3  4  2  0
  4  5  1  0
  5  6  2  0
  6  7  1  0
  6  8  1  0
  8  9  2  0
  9 10  1  0
 10 11  2  0
 10 12  2  0
 10 13  1  0
 13 14  1  0
 14 15  1  0
 15 16  1  0
 15 17  2  0
 17 18  1  0
 18 19  1  0
 18 20  1  0
 20 21  1  0
  9  3  1  0
 20 14  2  0
  1 22  1  0
  1 23  1  0
  1 24  1  0
  4 25  1  0
  5 26  1  0
  7 27  1  0
  7 28  1  0
  7 29  1  0
  8 30  1  0
 16 31  1  0
 16 32  1  0
 16 33  1  0
 19 34  1  0
 19 35  1  0
 19 36  1  0
 21 37  1  0
 21 38  1  0
 21 39  1  0
M  CHG  1  13  -1
M  END
>  <UniqueID>  (13) 
12

>  <SMILES>  (13) 
COc1ccc(C)cc1S(=O)(=O)[N-]c1c(C)nn(C)c1C

>  <Energy>  (13) 
73.09847890833117

>  <Genealogy>  (13) 
COc1ccc(C)cc1S(=O)(=O)[N-]c1c(C)nn(C)c1C (protonated)
COc1ccc(C)cc1S(=O)(=O)[N-]c1c(C)nn(C)c1C (3D coordinates assigned)
COc1ccc(C)cc1S(=O)(=O)[N-]c1c(C)nn(C)c1C (optimized conformer: 73.09847890833117 kcal/mol)

>  <smiles>  (13) 
COc1ccc(C)cc1S(=O)(=O)Nc1c(C)nn(C)c1C

>  <score_type>  (13) 
oracle

>  <origin>  (13) 
adgpu

>  <m_score__min__energy>  (13) 
-8.1600000000000001

>  <m_primary>  (13) 
energy

$$$$
13:0
     RDKit          3D

 30 31  0  0  0  0  0  0  0  0999 V2000
   -8.0140   19.7520  -32.3720 C   0  0  0  0  0  0  0  0  0  0  0  0
   -8.4300   20.8550  -31.5740 O   0  0  0  0  0  0  0  0  0  0  0  0
   -7.6580   22.0040  -31.3470 C   0  0  0  0  0  0  0  0  0  0  0  0
   -6.9630   22.6630  -32.3790 C   0  0  0  0  0  0  0  0  0  0  0  0
   -6.2060   23.8060  -32.1010 C   0  0  0  0  0  0  0  0  0  0  0  0
   -6.1280   24.3030  -30.7920 C   0  0  0  0  0  0  0  0  0  0  0  0
   -5.3310   25.5480  -30.5070 C   0  0  0  0  0  0  0  0  0  0  0  0
   -3.9140   25.3080  -30.7510 N   0  0  0  0  0  0  0  0  0  0  0  0
   -3.1940   24.1910  -30.2180 C   0  0  0  0  0  0  0  0  0  0  0  0
   -3.5680   23.0160  -30.4800 O   0  0  0  0  0  0  0  0  0  0  0  0
   -2.0170   24.4250  -29.3630 C   0  0  0  0  0  0  0  0  0  0  0  0
   -1.1330   23.3860  -29.0360 C   0  0  0  0  0  0  0  0  0  0  0  0
   -0.0380   23.6720  -28.2210 C   0  0  0  0  0  0  0  0  0  0  0  0
    0.7760   22.7630  -27.9100 O   0  0  0  0  0  0  0  0  0  0  0  0
    0.1540   24.9360  -27.7600 N   0  0  0  0  0  0  0  0  0  0  0  0
   -0.7090   25.9330  -28.0830 C   0  0  0  0  0  0  0  0  0  0  0  0
   -0.4600   27.4430  -27.5170 S   0  0  0  0  0  0  0  0  0  0  0  0
   -1.7820   25.6740  -28.8760 N   0  0  0  0  0  0  0  0  0  0  0  0
   -6.8240   23.6490  -29.7640 C   0  0  0  0  0  0  0  0  0  0  0  0
   -7.5800   22.5070  -30.0420 C   0  0  0  0  0  0  0  0  0  0  0  0
   -7.7017   18.9239  -31.7187 H   0  0  0  0  0  0  0  0  0  0  0  0
   -8.8498   19.4229  -33.0070 H   0  0  0  0  0  0  0  0  0  0  0  0
   -7.1691   20.0568  -33.0070 H   0  0  0  0  0  0  0  0  0  0  0  0
   -7.0155   22.2775  -33.4079 H   0  0  0  0  0  0  0  0  0  0  0  0
   -5.6691   24.3176  -32.9134 H   0  0  0  0  0  0  0  0  0  0  0  0
   -5.6796   26.3600  -31.1620 H   0  0  0  0  0  0  0  0  0  0  0  0
   -5.4702   25.8286  -29.4525 H   0  0  0  0  0  0  0  0  0  0  0  0
   -1.3000   22.3668  -29.4146 H   0  0  0  0  0  0  0  0  0  0  0  0
   -6.7744   24.0365  -28.7357 H   0  0  0  0  0  0  0  0  0  0  0  0
   -8.1186   21.9986  -29.2288 H   0  0  0  0  0  0  0  0  0  0  0  0
  1  2  1  0
  2  3  1  0
  3  4  2  0
  4  5  1  0
  5  6  2  0
  6  7  1  0
  7  8  1  0
  8  9  1  0
  9 10  2  0
  9 11  1  0
 11 12  2  0
 12 13  1  0
 13 14  2  0
 13 15  1  0
 15 16  1  0
 16 17  2  0
 16 18  1  0
  6 19  1  0
 19 20  2  0
 20  3  1  0
 18 11  1  0
  1 21  1  0
  1 22  1  0
  1 23  1  0
  4 24  1  0
  5 25  1  0
  7 26  1  0
  7 27  1  0
 12 28  1  0
 19 29  1  0
 20 30  1  0
M  CHG  3   8  -1  15  -1  18  -1
M  END
>  <UniqueID>  (14) 
13

>  <SMILES>  (14) 
COc1ccc(C[N-]C(=O)c2cc(=O)[n-]c(=S)[n-]2)cc1

>  <Energy>  (14) 
28.240466353481132

>  <Genealogy>  (14) 
COc1ccc(C[N-]C(=O)c2cc(=O)[n-]c(=S)[n-]2)cc1 (protonated)
COc1ccc(C[N-]C(=O)c2cc(=O)[n-]c(=S)[n-]2)cc1 (3D coordinates assigned)
COc1ccc(C[N-]C(=O)c2cc(=O)[n-]c(=S)[n-]2)cc1 (optimized conformer: 28.240466353481132 kcal/mol)

>  <smiles>  (14) 
COc1ccc(CNC(=O)c2cc(=O)[nH]c(=S)[nH]2)cc1

>  <score_type>  (14) 
oracle

>  <origin>  (14) 
adgpu

>  <m_score__min__energy>  (14) 
-10.619999999999999

>  <m_primary>  (14) 
energy

$$$$
14:0
     RDKit          3D

 59 62  0  0  0  0  0  0  0  0999 V2000
    0.5860   16.3050  -27.1200 N   0  0  0  0  0  0  0  0  0  0  0  0
    1.2390   15.9890  -28.3570 C   0  0  0  0  0  0  0  0  0  0  0  0
    1.1760   14.6440  -28.8460 N   0  0  0  0  0  0  0  0  0  0  0  0
    1.8910   16.8920  -29.0420 N   0  0  0  0  0  0  0  0  0  0  0  0
    2.0050   18.5720  -28.6060 S   0  0  0  0  0  0  0  0  0  0  0  0
    3.2080   19.1790  -29.2780 O   0  0  0  0  0  0  0  0  0  0  0  0
    2.1740   18.6980  -27.1160 O   0  0  0  0  0  0  0  0  0  0  0  0
    0.5690   19.4300  -29.1550 C   0  0  0  0  0  0  0  0  0  0  0  0
    0.4290   19.7460  -30.5130 C   0  0  0  0  0  0  0  0  0  0  0  0
   -0.7120   20.4120  -30.9700 C   0  0  0  0  0  0  0  0  0  0  0  0
   -1.7340   20.7630  -30.0700 C   0  0  0  0  0  0  0  0  0  0  0  0
   -2.9120   21.4560  -30.5130 N   0  0  0  0  0  0  0  0  0  0  0  0
   -3.1480   22.8540  -30.2780 C   0  0  0  0  0  0  0  0  0  0  0  0
   -2.1760   23.6210  -30.0330 O   0  0  0  0  0  0  0  0  0  0  0  0
   -4.5180   23.4150  -30.3660 C   0  0  0  0  0  0  0  0  0  0  0  0
   -4.7500   24.7710  -30.0750 C   0  0  0  0  0  0  0  0  0  0  0  0
   -6.0420   25.2990  -30.1480 C   0  0  0  0  0  0  0  0  0  0  0  0
   -7.1160   24.4790  -30.5030 C   0  0  0  0  0  0  0  0  0  0  0  0
   -6.9020   23.1250  -30.7900 C   0  0  0  0  0  0  0  0  0  0  0  0
   -8.2580   22.0730  -31.1870 S   0  0  0  0  0  0  0  0  0  0  0  0
   -9.1600   21.9360  -29.9910 O   0  0  0  0  0  0  0  0  0  0  0  0
   -9.0430   22.6980  -32.3080 O   0  0  0  0  0  0  0  0  0  0  0  0
   -7.6670   20.5040  -31.6810 N   0  0  0  0  0  0  0  0  0  0  0  0
   -8.7590   19.5130  -31.5870 C   0  0  0  0  0  0  0  0  0  0  0  0
   -8.4230   18.1400  -32.2300 C   0  0  0  0  0  0  0  0  0  0  0  0
   -7.1030   18.1010  -32.9630 C   0  0  0  0  0  0  0  0  0  0  0  0
   -6.5230   16.8690  -33.2970 C   0  0  0  0  0  0  0  0  0  0  0  0
   -5.3430   16.8240  -34.0500 C   0  0  0  0  0  0  0  0  0  0  0  0
   -4.7450   18.0060  -34.4860 C   0  0  0  0  0  0  0  0  0  0  0  0
   -5.3240   19.2360  -34.1690 C   0  0  0  0  0  0  0  0  0  0  0  0
   -6.5000   19.2890  -33.4040 C   0  0  0  0  0  0  0  0  0  0  0  0
   -7.1470   20.5910  -33.0540 C   0  0  0  0  0  0  0  0  0  0  0  0
   -5.6070   22.5950  -30.7170 C   0  0  0  0  0  0  0  0  0  0  0  0
   -1.5750   20.4690  -28.7040 C   0  0  0  0  0  0  0  0  0  0  0  0
   -0.4340   19.8010  -28.2500 C   0  0  0  0  0  0  0  0  0  0  0  0
    0.0070   15.5780  -26.6400 H   0  0  0  0  0  0  0  0  0  0  0  0
    0.6860   17.2220  -26.6410 H   0  0  0  0  0  0  0  0  0  0  0  0
    0.6920   13.9030  -28.2870 H   0  0  0  0  0  0  0  0  0  0  0  0
    1.5810   14.3820  -29.7750 H   0  0  0  0  0  0  0  0  0  0  0  0
    2.3660   16.6110  -29.9300 H   0  0  0  0  0  0  0  0  0  0  0  0
    1.2215   19.4684  -31.2235 H   0  0  0  0  0  0  0  0  0  0  0  0
   -0.8107   20.6622  -32.0366 H   0  0  0  0  0  0  0  0  0  0  0  0
   -3.5810   20.9400  -31.1290 H   0  0  0  0  0  0  0  0  0  0  0  0
   -3.9096   25.4201  -29.7882 H   0  0  0  0  0  0  0  0  0  0  0  0
   -6.2136   26.3625  -29.9255 H   0  0  0  0  0  0  0  0  0  0  0  0
   -8.1318   24.8977  -30.5572 H   0  0  0  0  0  0  0  0  0  0  0  0
   -8.9877   19.3502  -30.5234 H   0  0  0  0  0  0  0  0  0  0  0  0
   -9.6122   19.9257  -32.1454 H   0  0  0  0  0  0  0  0  0  0  0  0
   -8.3958   17.3836  -31.4318 H   0  0  0  0  0  0  0  0  0  0  0  0
   -9.2042   17.9445  -32.9793 H   0  0  0  0  0  0  0  0  0  0  0  0
   -6.9971   15.9332  -32.9660 H   0  0  0  0  0  0  0  0  0  0  0  0
   -4.8869   15.8542  -34.2981 H   0  0  0  0  0  0  0  0  0  0  0  0
   -3.8189   17.9692  -35.0785 H   0  0  0  0  0  0  0  0  0  0  0  0
   -4.8568   20.1679  -34.5202 H   0  0  0  0  0  0  0  0  0  0  0  0
   -6.4064   21.4018  -33.1188 H   0  0  0  0  0  0  0  0  0  0  0  0
   -7.9691   20.8016  -33.7539 H   0  0  0  0  0  0  0  0  0  0  0  0
   -5.4400   21.5300  -30.9357 H   0  0  0  0  0  0  0  0  0  0  0  0
   -2.3544   20.7670  -27.9873 H   0  0  0  0  0  0  0  0  0  0  0  0
   -0.3236   19.5664  -27.1810 H   0  0  0  0  0  0  0  0  0  0  0  0
  1  2  1  0
  2  3  1  0
  2  4  2  3
  4  5  1  0
  5  6  2  0
  5  7  2  0
  5  8  1  0
  8  9  2  0
  9 10  1  0
 10 11  2  0
 11 12  1  0
 12 13  1  0
 13 14  2  0
 13 15  1  0
 15 16  2  0
 16 17  1  0
 17 18  2  0
 18 19  1  0
 19 20  1  0
 20 21  2  0
 20 22  2  0
 20 23  1  0
 23 24  1  0
 24 25  1  0
 25 26  1  0
 26 27  2  0
 27 28  1  0
 28 29  2  0
 29 30  1  0
 30 31  2  0
 31 32  1  0
 19 33  2  0
 11 34  1  0
 34 35  2  0
 35  8  1  0
 33 15  1  0
 32 23  1  0
 31 26  1  0
  1 36  1  0
  1 37  1  0
  3 38  1  0
  3 39  1  0
  4 40  1  0
  9 41  1  0
 10 42  1  0
 12 43  1  0
 16 44  1  0
 17 45  1  0
 18 46  1  0
 24 47  1  0
 24 48  1  0
 25 49  1  0
 25 50  1  0
 27 51  1  0
 28 52  1  0
 29 53  1  0
 30 54  1  0
 32 55  1  0
 32 56  1  0
 33 57  1  0
 34 58  1  0
 35 59  1  0
M  CHG  1   4   1
M  END
>  <UniqueID>  (15) 
14

>  <SMILES>  (15) 
NC(N)=[NH+]S(=O)(=O)c1ccc(NC(=O)c2cccc(S(=O)(=O)N3CCc4ccccc4C3)c2)cc1

>  <Energy>  (15) 
75.37911762788056

>  <Genealogy>  (15) 
NC(N)=[NH+]S(=O)(=O)c1ccc(NC(=O)c2cccc(S(=O)(=O)N3CCc4ccccc4C3)c2)cc1 (protonated)
NC(N)=[NH+]S(=O)(=O)c1ccc(NC(=O)c2cccc(S(=O)(=O)N3CCc4ccccc4C3)c2)cc1 (3D coordinates assigned)
NC(N)=[NH+]S(=O)(=O)c1ccc(NC(=O)c2cccc(S(=O)(=O)N3CCc4ccccc4C3)c2)cc1 (nonaromatic ring conformer: 75.37911762788056 kcal/mol)

>  <smiles>  (15) 
NC(N)=NS(=O)(=O)c1ccc(NC(=O)c2cccc(S(=O)(=O)N3CCc4ccccc4C3)c2)cc1

>  <score_type>  (15) 
oracle

>  <origin>  (15) 
adgpu

>  <m_score__min__energy>  (15) 
-12.6

>  <m_primary>  (15) 
energy

$$$$
15:0
     RDKit          3D

 41 43  0  0  0  0  0  0  0  0999 V2000
   -4.8024   18.1488  -35.4757 H   0  0  0  0  0  0  0  0  0  0  0  0
   -5.5210   18.0890  -34.6450 C   0  0  0  0  0  0  0  0  0  0  0  0
   -6.1530   19.2490  -34.1870 C   0  0  0  0  0  0  0  0  0  0  0  0
   -5.9210   20.2187  -34.6517 H   0  0  0  0  0  0  0  0  0  0  0  0
   -7.0830   19.1820  -33.1360 C   0  0  0  0  0  0  0  0  0  0  0  0
   -7.7490   20.3190  -32.6540 O   0  0  0  0  0  0  0  0  0  0  0  0
   -7.1450   21.4140  -32.0200 C   0  0  0  0  0  0  0  0  0  0  0  0
   -7.8880   22.5880  -31.8510 C   0  0  0  0  0  0  0  0  0  0  0  0
   -8.9241   22.6357  -32.2173 H   0  0  0  0  0  0  0  0  0  0  0  0
   -7.3240   23.6990  -31.2210 C   0  0  0  0  0  0  0  0  0  0  0  0
   -7.9128   24.6209  -31.1051 H   0  0  0  0  0  0  0  0  0  0  0  0
   -6.0110   23.6440  -30.7360 C   0  0  0  0  0  0  0  0  0  0  0  0
   -5.2890   25.0370  -29.9360 S   0  0  0  0  0  0  0  0  0  0  0  0
   -4.2280   25.6470  -30.8070 O   0  0  0  0  0  0  0  0  0  0  0  0
   -6.3530   26.0650  -29.6730 O   0  0  0  0  0  0  0  0  0  0  0  0
   -4.5520   24.5290  -28.3970 C   0  0  0  0  0  0  0  0  0  0  0  0
   -5.1383   24.9332  -27.5586 H   0  0  0  0  0  0  0  0  0  0  0  0
   -4.5409   23.4305  -28.3408 H   0  0  0  0  0  0  0  0  0  0  0  0
   -3.5214   24.9095  -28.3408 H   0  0  0  0  0  0  0  0  0  0  0  0
   -5.2720   22.4620  -30.8780 C   0  0  0  0  0  0  0  0  0  0  0  0
   -4.2433   22.4092  -30.4921 H   0  0  0  0  0  0  0  0  0  0  0  0
   -5.8370   21.3500  -31.5080 C   0  0  0  0  0  0  0  0  0  0  0  0
   -5.2561   20.4208  -31.6038 H   0  0  0  0  0  0  0  0  0  0  0  0
   -7.4000   17.9360  -32.5840 C   0  0  0  0  0  0  0  0  0  0  0  0
   -8.1535   17.8689  -31.7854 H   0  0  0  0  0  0  0  0  0  0  0  0
   -6.7670   16.7760  -33.0390 C   0  0  0  0  0  0  0  0  0  0  0  0
   -7.0285   15.8007  -32.6026 H   0  0  0  0  0  0  0  0  0  0  0  0
   -5.7980   16.8530  -34.0520 C   0  0  0  0  0  0  0  0  0  0  0  0
   -5.1710   15.6700  -34.5690 N   0  0  0  0  0  0  0  0  0  0  0  0
   -3.8910   15.4690  -34.7380 C   0  0  0  0  0  0  0  0  0  0  0  0
   -3.4650   14.2070  -35.1710 C   0  0  0  0  0  0  0  0  0  0  0  0
   -4.1998   13.4089  -35.3532 H   0  0  0  0  0  0  0  0  0  0  0  0
   -2.1020   13.9650  -35.3710 C   0  0  0  0  0  0  0  0  0  0  0  0
   -1.6510   12.6700  -35.8100 C   0  0  0  0  0  0  0  0  0  0  0  0
   -1.2910   11.6290  -36.1630 N   0  0  0  0  0  0  0  0  0  0  0  0
   -1.1780   14.9890  -35.1440 C   0  0  0  0  0  0  0  0  0  0  0  0
   -0.1023   14.8094  -35.2879 H   0  0  0  0  0  0  0  0  0  0  0  0
   -1.6350   16.2410  -34.7330 C   0  0  0  0  0  0  0  0  0  0  0  0
   -0.9157   17.0549  -34.5594 H   0  0  0  0  0  0  0  0  0  0  0  0
   -2.9660   16.4630  -34.5450 N   0  0  0  0  0  0  0  0  0  0  0  0
   -3.2550   17.4290  -34.2800 H   0  0  0  0  0  0  0  0  0  0  0  0
  1  2  1  0
  2  3  2  0
  3  4  1  0
  3  5  1  0
  5  6  1  0
  6  7  1  0
  7  8  2  0
  8  9  1  0
  8 10  1  0
 10 11  1  0
 10 12  2  0
 12 13  1  0
 13 14  2  0
 13 15  2  0
 13 16  1  0
 16 17  1  0
 16 18  1  0
 16 19  1  0
 12 20  1  0
 20 21  1  0
 20 22  2  0
 22 23  1  0
  5 24  2  0
 24 25  1  0
 24 26  1  0
 26 27  1  0
 26 28  2  0
 28 29  1  0
 29 30  2  0
 30 31  1  0
 31 32  1  0
 31 33  2  0
 33 34  1  0
 34 35  3  0
 33 36  1  0
 36 37  1  0
 36 38  2  0
 38 39  1  0
 38 40  1  0
 40 41  1  0
 28  2  1  0
 40 30  1  0
 22  7  1  0
M  END
>  <UniqueID>  (16) 
15

>  <SMILES>  (16) 
CS(=O)(=O)c1ccc(Oc2ccc(/N=c3/cc(C#N)cc[nH]3)cc2)cc1

>  <Energy>  (16) 
56.16289601687176

>  <Genealogy>  (16) 
CS(=O)(=O)c1ccc(Oc2ccc(/N=c3/cc(C#N)cc[nH]3)cc2)cc1 (cis-trans isomerization)
CS(=O)(=O)c1ccc(Oc2ccc(/N=c3/cc(C#N)cc[nH]3)cc2)cc1 (3D coordinates assigned)
CS(=O)(=O)c1ccc(Oc2ccc(/N=c3/cc(C#N)cc[nH]3)cc2)cc1 (optimized conformer: 56.16289601687176 kcal/mol)

>  <smiles>  (16) 
CS(=O)(=O)c1ccc(Oc2ccc(N=c3cc(C#N)cc[nH]3)cc2)cc1

>  <score_type>  (16) 
oracle

>  <origin>  (16) 
adgpu

>  <m_score__min__energy>  (16) 
-8.2400000000000002

>  <m_primary>  (16) 
energy

$$$$
16:0
     RDKit          3D

 38 40  0  0  0  0  0  0  0  0999 V2000
   -2.1720   25.2900  -29.2140 N   0  0  0  0  0  0  0  0  0  0  0  0
   -3.4850   24.4000  -29.9010 S   0  0  0  0  0  0  0  0  0  0  0  0
   -4.3910   23.9410  -28.7930 O   0  0  0  0  0  0  0  0  0  0  0  0
   -4.2620   25.2900  -30.8290 O   0  0  0  0  0  0  0  0  0  0  0  0
   -2.8600   23.0160  -30.8060 C   0  0  0  0  0  0  0  0  0  0  0  0
   -1.6190   22.4610  -30.4580 C   0  0  0  0  0  0  0  0  0  0  0  0
   -1.1220   21.3540  -31.1480 C   0  0  0  0  0  0  0  0  0  0  0  0
   -1.8590   20.7930  -32.1910 C   0  0  0  0  0  0  0  0  0  0  0  0
   -3.0950   21.3380  -32.5480 C   0  0  0  0  0  0  0  0  0  0  0  0
   -3.6090   22.4530  -31.8600 C   0  0  0  0  0  0  0  0  0  0  0  0
   -4.8780   23.0270  -32.2070 N   0  0  0  0  0  0  0  0  0  0  0  0
   -6.4220   22.2830  -31.9470 S   0  0  0  0  0  0  0  0  0  0  0  0
   -6.7890   22.4020  -30.4940 O   0  0  0  0  0  0  0  0  0  0  0  0
   -7.4580   22.9970  -32.7720 O   0  0  0  0  0  0  0  0  0  0  0  0
   -6.3400   20.5790  -32.3780 C   0  0  0  0  0  0  0  0  0  0  0  0
   -5.7680   20.1980  -33.5960 C   0  0  0  0  0  0  0  0  0  0  0  0
   -5.7240   18.8500  -33.9650 C   0  0  0  0  0  0  0  0  0  0  0  0
   -6.2600   17.8590  -33.1190 C   0  0  0  0  0  0  0  0  0  0  0  0
   -6.2340   16.4190  -33.4930 C   0  0  0  0  0  0  0  0  0  0  0  0
   -5.1820   15.5680  -33.1130 C   0  0  0  0  0  0  0  0  0  0  0  0
   -5.2100   14.2300  -33.4980 C   0  0  0  0  0  0  0  0  0  0  0  0
   -6.2780   13.7650  -34.2640 C   0  0  0  0  0  0  0  0  0  0  0  0
   -6.3260   12.5610  -34.6290 O   0  0  0  0  0  0  0  0  0  0  0  0
   -7.2690   14.6230  -34.6190 N   0  0  0  0  0  0  0  0  0  0  0  0
   -7.2450   15.9040  -34.2490 N   0  0  0  0  0  0  0  0  0  0  0  0
   -6.8180   18.2520  -31.8890 C   0  0  0  0  0  0  0  0  0  0  0  0
   -6.8590   19.6000  -31.5220 C   0  0  0  0  0  0  0  0  0  0  0  0
   -1.6110   25.6720  -30.0100 H   0  0  0  0  0  0  0  0  0  0  0  0
   -1.0344   22.9009  -29.6366 H   0  0  0  0  0  0  0  0  0  0  0  0
   -0.1487   20.9239  -30.8691 H   0  0  0  0  0  0  0  0  0  0  0  0
   -1.4665   19.9202  -32.7333 H   0  0  0  0  0  0  0  0  0  0  0  0
   -3.6705   20.8924  -33.3728 H   0  0  0  0  0  0  0  0  0  0  0  0
   -5.3505   20.9629  -34.2673 H   0  0  0  0  0  0  0  0  0  0  0  0
   -5.2674   18.5610  -34.9231 H   0  0  0  0  0  0  0  0  0  0  0  0
   -4.3432   15.9557  -32.5162 H   0  0  0  0  0  0  0  0  0  0  0  0
   -4.3993   13.5483  -33.2013 H   0  0  0  0  0  0  0  0  0  0  0  0
   -7.2265   17.4902  -31.2087 H   0  0  0  0  0  0  0  0  0  0  0  0
   -7.3003   19.8927  -30.5578 H   0  0  0  0  0  0  0  0  0  0  0  0
  1  2  1  0
  2  3  2  0
  2  4  2  0
  2  5  1  0
  5  6  2  0
  6  7  1  0
  7  8  2  0
  8  9  1  0
  9 10  2  0
 10 11  1  0
 11 12  1  0
 12 13  2  0
 12 14  2  0
 12 15  1  0
 15 16  2  0
 16 17  1  0
 17 18  2  0
 18 19  1  0
 19 20  1  0
 20 21  2  0
 21 22  1  0
 22 23  2  0
 22 24  1  0
 24 25  1  0
 18 26  1  0
 26 27  2  0
 10  5  1  0
 27 15  1  0
 25 19  2  0
  1 28  1  0
  6 29  1  0
  7 30  1  0
  8 31  1  0
  9 32  1  0
 16 33  1  0
 17 34  1  0
 20 35  1  0
 21 36  1  0
 26 37  1  0
 27 38  1  0
M  CHG  3   1  -1  11  -1  24  -1
M  END
>  <UniqueID>  (17) 
16

>  <SMILES>  (17) 
[NH-]S(=O)(=O)c1ccccc1[N-]S(=O)(=O)c1ccc(-c2ccc(=O)[n-]n2)cc1

>  <Energy>  (17) 
49.90479055804173

>  <Genealogy>  (17) 
[NH-]S(=O)(=O)c1ccccc1[N-]S(=O)(=O)c1ccc(-c2ccc(=O)[n-]n2)cc1 (protonated)
[NH-]S(=O)(=O)c1ccccc1[N-]S(=O)(=O)c1ccc(-c2ccc(=O)[n-]n2)cc1 (3D coordinates assigned)
[NH-]S(=O)(=O)c1ccccc1[N-]S(=O)(=O)c1ccc(-c2ccc(=O)[n-]n2)cc1 (optimized conformer: 49.90479055804173 kcal/mol)

>  <smiles>  (17) 
NS(=O)(=O)c1ccccc1NS(=O)(=O)c1ccc(-c2ccc(=O)[nH]n2)cc1

>  <score_type>  (17) 
oracle

>  <origin>  (17) 
adgpu

>  <m_score__min__energy>  (17) 
-12.57

>  <m_primary>  (17) 
energy

$$$$
17:0
     RDKit          3D

 47 50  0  0  0  0  0  0  0  0999 V2000
   -0.8830   19.5240  -28.0980 C   0  0  0  0  0  0  0  0  0  0  0  0
   -2.0120   20.5180  -27.1470 S   0  0  0  0  0  0  0  0  0  0  0  0
   -3.2060   19.6920  -26.7570 O   0  0  0  0  0  0  0  0  0  0  0  0
   -1.3060   20.9790  -25.9030 O   0  0  0  0  0  0  0  0  0  0  0  0
   -2.5480   21.9080  -28.0880 C   0  0  0  0  0  0  0  0  0  0  0  0
   -3.8510   22.3970  -27.9310 C   0  0  0  0  0  0  0  0  0  0  0  0
   -4.2890   23.4920  -28.6830 C   0  0  0  0  0  0  0  0  0  0  0  0
   -3.4240   24.1090  -29.6020 C   0  0  0  0  0  0  0  0  0  0  0  0
   -3.8630   25.1940  -30.4280 N   0  0  0  0  0  0  0  0  0  0  0  0
   -5.2180   25.6520  -30.5060 C   0  0  0  0  0  0  0  0  0  0  0  0
   -5.4960   26.8110  -30.1020 O   0  0  0  0  0  0  0  0  0  0  0  0
   -6.2760   24.8490  -31.2170 C   0  0  0  0  0  0  0  0  0  0  0  0
   -5.8500   23.4700  -31.4280 N   0  0  0  0  0  0  0  0  0  0  0  0
   -6.6280   22.4220  -31.2020 N   0  0  0  0  0  0  0  0  0  0  0  0
   -5.9500   21.3470  -31.6470 C   0  0  0  0  0  0  0  0  0  0  0  0
   -6.5560   20.0060  -31.7600 C   0  0  0  0  0  0  0  0  0  0  0  0
   -7.8840   19.8590  -32.1790 C   0  0  0  0  0  0  0  0  0  0  0  0
   -8.3980   18.5710  -32.3360 C   0  0  0  0  0  0  0  0  0  0  0  0
   -7.6100   17.4920  -32.0940 N   0  0  0  0  0  0  0  0  0  0  0  0
   -6.3200   17.6480  -31.7000 C   0  0  0  0  0  0  0  0  0  0  0  0
   -5.8030   18.8940  -31.5430 N   0  0  0  0  0  0  0  0  0  0  0  0
   -4.7330   21.7990  -32.1460 C   0  0  0  0  0  0  0  0  0  0  0  0
   -3.6310   21.0220  -32.7440 C   0  0  0  0  0  0  0  0  0  0  0  0
   -2.2990   21.4090  -32.5380 C   0  0  0  0  0  0  0  0  0  0  0  0
   -1.2700   20.6550  -33.1070 C   0  0  0  0  0  0  0  0  0  0  0  0
   -1.5740   19.5220  -33.8640 C   0  0  0  0  0  0  0  0  0  0  0  0
   -0.2950   18.5710  -34.5920 Cl  0  0  0  0  0  0  0  0  0  0  0  0
   -2.9120   19.1540  -34.0330 C   0  0  0  0  0  0  0  0  0  0  0  0
   -3.8990   19.9030  -33.4720 N   0  0  0  0  0  0  0  0  0  0  0  0
   -4.7040   23.1380  -32.0010 N   0  0  0  0  0  0  0  0  0  0  0  0
   -2.1090   23.6450  -29.7260 C   0  0  0  0  0  0  0  0  0  0  0  0
   -1.6750   22.5450  -28.9800 C   0  0  0  0  0  0  0  0  0  0  0  0
   -0.2344   18.9530  -27.4173 H   0  0  0  0  0  0  0  0  0  0  0  0
   -1.4519   18.8282  -28.7322 H   0  0  0  0  0  0  0  0  0  0  0  0
   -0.2649   20.1764  -28.7322 H   0  0  0  0  0  0  0  0  0  0  0  0
   -4.5329   21.9178  -27.2131 H   0  0  0  0  0  0  0  0  0  0  0  0
   -5.3136   23.8711  -28.5545 H   0  0  0  0  0  0  0  0  0  0  0  0
   -7.1936   24.8506  -30.6104 H   0  0  0  0  0  0  0  0  0  0  0  0
   -6.4551   25.3087  -32.2001 H   0  0  0  0  0  0  0  0  0  0  0  0
   -8.5096   20.7411  -32.3804 H   0  0  0  0  0  0  0  0  0  0  0  0
   -9.4410   18.4300  -32.6556 H   0  0  0  0  0  0  0  0  0  0  0  0
   -5.6933   16.7646  -31.5079 H   0  0  0  0  0  0  0  0  0  0  0  0
   -2.0666   22.2983  -31.9338 H   0  0  0  0  0  0  0  0  0  0  0  0
   -0.2217   20.9535  -32.9589 H   0  0  0  0  0  0  0  0  0  0  0  0
   -3.1665   18.2589  -34.6195 H   0  0  0  0  0  0  0  0  0  0  0  0
   -1.4137   24.1484  -30.4138 H   0  0  0  0  0  0  0  0  0  0  0  0
   -0.6442   22.1782  -29.0938 H   0  0  0  0  0  0  0  0  0  0  0  0
  1  2  1  0
  2  3  2  0
  2  4  2  0
  2  5  1  0
  5  6  2  0
  6  7  1  0
  7  8  2  0
  8  9  1  0
  9 10  1  0
 10 11  2  0
 10 12  1  0
 12 13  1  0
 13 14  1  0
 14 15  2  0
 15 16  1  0
 16 17  2  0
 17 18  1  0
 18 19  2  0
 19 20  1  0
 20 21  2  0
 15 22  1  0
 22 23  1  0
 23 24  2  0
 24 25  1  0
 25 26  2  0
 26 27  1  0
 26 28  1  0
 28 29  2  0
 22 30  2  0
  8 31  1  0
 31 32  2  0
 32  5  1  0
 30 13  1  0
 21 16  1  0
 29 23  1  0
  1 33  1  0
  1 34  1  0
  1 35  1  0
  6 36  1  0
  7 37  1  0
 12 38  1  0
 12 39  1  0
 17 40  1  0
 18 41  1  0
 20 42  1  0
 24 43  1  0
 25 44  1  0
 28 45  1  0
 31 46  1  0
 32 47  1  0
M  CHG  1   9  -1
M  END
>  <UniqueID>  (18) 
17

>  <SMILES>  (18) 
CS(=O)(=O)c1ccc([N-]C(=O)Cn2nc(-c3ccncn3)c(-c3ccc(Cl)cn3)n2)cc1

>  <Energy>  (18) 
89.14945519989656

>  <Genealogy>  (18) 
CS(=O)(=O)c1ccc([N-]C(=O)Cn2nc(-c3ccncn3)c(-c3ccc(Cl)cn3)n2)cc1 (protonated)
CS(=O)(=O)c1ccc([N-]C(=O)Cn2nc(-c3ccncn3)c(-c3ccc(Cl)cn3)n2)cc1 (3D coordinates assigned)
CS(=O)(=O)c1ccc([N-]C(=O)Cn2nc(-c3ccncn3)c(-c3ccc(Cl)cn3)n2)cc1 (optimized conformer: 89.14945519989656 kcal/mol)

>  <smiles>  (18) 
CS(=O)(=O)c1ccc(NC(=O)Cn2nc(-c3ccncn3)c(-c3ccc(Cl)cn3)n2)cc1

>  <score_type>  (18) 
oracle

>  <origin>  (18) 
adgpu

>  <m_score__min__energy>  (18) 
-11.6

>  <m_primary>  (18) 
energy

$$$$
18:0
     RDKit          3D

 47 49  0  0  0  0  0  0  0  0999 V2000
   -3.5950   20.7880  -33.4150 C   0  0  0  0  0  0  0  0  0  0  0  0
   -4.9640   20.5600  -33.7370 O   0  0  0  0  0  0  0  0  0  0  0  0
   -5.6770   19.3880  -33.4240 C   0  0  0  0  0  0  0  0  0  0  0  0
   -5.0720   18.1170  -33.4710 C   0  0  0  0  0  0  0  0  0  0  0  0
   -5.8090   16.9770  -33.1330 C   0  0  0  0  0  0  0  0  0  0  0  0
   -7.1300   17.0980  -32.7040 C   0  0  0  0  0  0  0  0  0  0  0  0
   -7.7440   18.3520  -32.6620 C   0  0  0  0  0  0  0  0  0  0  0  0
   -7.0270   19.5040  -33.0470 C   0  0  0  0  0  0  0  0  0  0  0  0
   -7.6470   20.7980  -33.0880 N   0  0  0  0  0  0  0  0  0  0  0  0
   -8.1220   21.7380  -31.7120 S   0  0  0  0  0  0  0  0  0  0  0  0
   -9.3850   22.4820  -32.0480 O   0  0  0  0  0  0  0  0  0  0  0  0
   -8.3850   20.8230  -30.5460 O   0  0  0  0  0  0  0  0  0  0  0  0
   -6.8640   22.9080  -31.3170 C   0  0  0  0  0  0  0  0  0  0  0  0
   -7.1980   24.1840  -30.8390 C   0  0  0  0  0  0  0  0  0  0  0  0
   -6.1910   25.0980  -30.5300 C   0  0  0  0  0  0  0  0  0  0  0  0
   -4.8450   24.7530  -30.7060 C   0  0  0  0  0  0  0  0  0  0  0  0
   -3.8540   25.6700  -30.3960 O   0  0  0  0  0  0  0  0  0  0  0  0
   -4.4990   23.4750  -31.1820 C   0  0  0  0  0  0  0  0  0  0  0  0
   -3.1120   23.1490  -31.3460 N   0  0  0  0  0  0  0  0  0  0  0  0
   -2.0730   22.5100  -30.1060 S   0  0  0  0  0  0  0  0  0  0  0  0
   -0.7350   22.2080  -30.7160 O   0  0  0  0  0  0  0  0  0  0  0  0
   -2.6570   21.2300  -29.5770 O   0  0  0  0  0  0  0  0  0  0  0  0
   -1.8630   23.6560  -28.7830 C   0  0  0  0  0  0  0  0  0  0  0  0
   -2.8290   23.7040  -27.7660 C   0  0  0  0  0  0  0  0  0  0  0  0
   -2.7240   24.6430  -26.7370 C   0  0  0  0  0  0  0  0  0  0  0  0
   -1.6510   25.5520  -26.7170 C   0  0  0  0  0  0  0  0  0  0  0  0
   -1.5830   26.5930  -25.6380 C   0  0  0  0  0  0  0  0  0  0  0  0
   -0.6710   25.4940  -27.7310 C   0  0  0  0  0  0  0  0  0  0  0  0
   -0.7810   24.5510  -28.7500 C   0  0  0  0  0  0  0  0  0  0  0  0
   -5.5180   22.5580  -31.4870 C   0  0  0  0  0  0  0  0  0  0  0  0
   -3.4739   20.8082  -32.3219 H   0  0  0  0  0  0  0  0  0  0  0  0
   -2.9795   19.9800  -33.8373 H   0  0  0  0  0  0  0  0  0  0  0  0
   -3.2746   21.7519  -33.8373 H   0  0  0  0  0  0  0  0  0  0  0  0
   -4.0189   18.0206  -33.7738 H   0  0  0  0  0  0  0  0  0  0  0  0
   -5.3449   15.9823  -33.2059 H   0  0  0  0  0  0  0  0  0  0  0  0
   -7.6908   16.2027  -32.3975 H   0  0  0  0  0  0  0  0  0  0  0  0
   -8.7883   18.4412  -32.3281 H   0  0  0  0  0  0  0  0  0  0  0  0
   -8.2538   24.4635  -30.7080 H   0  0  0  0  0  0  0  0  0  0  0  0
   -6.4551   26.0945  -30.1463 H   0  0  0  0  0  0  0  0  0  0  0  0
   -3.6730   22.9987  -27.7792 H   0  0  0  0  0  0  0  0  0  0  0  0
   -3.4823   24.6715  -25.9406 H   0  0  0  0  0  0  0  0  0  0  0  0
   -1.6150   26.1033  -24.6535 H   0  0  0  0  0  0  0  0  0  0  0  0
   -0.6459   27.1608  -25.7348 H   0  0  0  0  0  0  0  0  0  0  0  0
   -2.4383   27.2779  -25.7348 H   0  0  0  0  0  0  0  0  0  0  0  0
    0.1785   26.1926  -27.7165 H   0  0  0  0  0  0  0  0  0  0  0  0
   -0.0132   24.5067  -29.5365 H   0  0  0  0  0  0  0  0  0  0  0  0
   -5.2574   21.5573  -31.8622 H   0  0  0  0  0  0  0  0  0  0  0  0
  1  2  1  0
  2  3  1  0
  3  4  2  0
  4  5  1  0
  5  6  2  0
  6  7  1  0
  7  8  2  0
  8  9  1  0
  9 10  1  0
 10 11  2  0
 10 12  2  0
 10 13  1  0
 13 14  2  0
 14 15  1  0
 15 16  2  0
 16 17  1  0
 16 18  1  0
 18 19  1  0
 19 20  1  0
 20 21  2  0
 20 22  2  0
 20 23  1  0
 23 24  2  0
 24 25  1  0
 25 26  2  0
 26 27  1  0
 26 28  1  0
 28 29  2  0
 18 30  2  0
  8  3  1  0
 30 13  1  0
 29 23  1  0
  1 31  1  0
  1 32  1  0
  1 33  1  0
  4 34  1  0
  5 35  1  0
  6 36  1  0
  7 37  1  0
 14 38  1  0
 15 39  1  0
 24 40  1  0
 25 41  1  0
 27 42  1  0
 27 43  1  0
 27 44  1  0
 28 45  1  0
 29 46  1  0
 30 47  1  0
M  CHG  3   9  -1  17  -1  19  -1
M  END
>  <UniqueID>  (19) 
18

>  <SMILES>  (19) 
COc1ccccc1[N-]S(=O)(=O)c1ccc([O-])c([N-]S(=O)(=O)c2ccc(C)cc2)c1

>  <Energy>  (19) 
51.48182140557302

>  <Genealogy>  (19) 
COc1ccccc1[N-]S(=O)(=O)c1ccc([O-])c([N-]S(=O)(=O)c2ccc(C)cc2)c1 (protonated)
COc1ccccc1[N-]S(=O)(=O)c1ccc([O-])c([N-]S(=O)(=O)c2ccc(C)cc2)c1 (3D coordinates assigned)
COc1ccccc1[N-]S(=O)(=O)c1ccc([O-])c([N-]S(=O)(=O)c2ccc(C)cc2)c1 (optimized conformer: 51.48182140557302 kcal/mol)

>  <smiles>  (19) 
COc1ccccc1NS(=O)(=O)c1ccc(O)c(NS(=O)(=O)c2ccc(C)cc2)c1

>  <score_type>  (19) 
oracle

>  <origin>  (19) 
adgpu

>  <m_score__min__energy>  (19) 
-13.369999999999999

>  <m_primary>  (19) 
energy

$$$$
19:0
     RDKit          3D

 49 51  0  0  0  0  0  0  0  0999 V2000
    5.0560   24.0000  -26.6880 C   0  0  0  0  0  0  0  0  0  0  0  0
    3.7570   24.3950  -26.1200 N   0  0  0  0  0  0  0  0  0  0  0  0
    2.6580   24.2100  -27.1020 C   0  0  0  0  0  0  0  0  0  0  0  0
    2.2740   25.5140  -27.8200 C   0  0  0  0  0  0  0  0  0  0  0  0
    1.8390   26.6120  -26.8200 C   0  0  0  0  0  0  0  0  0  0  0  0
    0.0490   26.7250  -26.7070 S   0  0  0  0  0  0  0  0  0  0  0  0
   -0.3340   27.0840  -25.2980 O   0  0  0  0  0  0  0  0  0  0  0  0
   -0.4510   27.8160  -27.6090 O   0  0  0  0  0  0  0  0  0  0  0  0
   -0.6660   25.1480  -27.1160 C   0  0  0  0  0  0  0  0  0  0  0  0
   -0.6810   24.0620  -26.2070 C   0  0  0  0  0  0  0  0  0  0  0  0
   -0.0260   24.1590  -24.5760 Cl  0  0  0  0  0  0  0  0  0  0  0  0
   -1.2500   22.8420  -26.5880 C   0  0  0  0  0  0  0  0  0  0  0  0
   -1.8300   22.6910  -27.8450 C   0  0  0  0  0  0  0  0  0  0  0  0
   -1.8740   23.7660  -28.7350 C   0  0  0  0  0  0  0  0  0  0  0  0
   -2.4910   23.5840  -30.0170 N   0  0  0  0  0  0  0  0  0  0  0  0
   -3.8070   24.0760  -30.3250 C   0  0  0  0  0  0  0  0  0  0  0  0
   -4.4250   24.8010  -29.5010 O   0  0  0  0  0  0  0  0  0  0  0  0
   -4.4240   23.7850  -31.5840 N   0  0  0  0  0  0  0  0  0  0  0  0
   -5.4720   22.8290  -31.8040 C   0  0  0  0  0  0  0  0  0  0  0  0
   -5.2040   21.5570  -32.3430 C   0  0  0  0  0  0  0  0  0  0  0  0
   -6.2410   20.6340  -32.5150 C   0  0  0  0  0  0  0  0  0  0  0  0
   -7.5470   20.9660  -32.1320 C   0  0  0  0  0  0  0  0  0  0  0  0
   -8.6130   20.0140  -32.3060 C   0  0  0  0  0  0  0  0  0  0  0  0
   -9.4710   19.2490  -32.4460 N   0  0  0  0  0  0  0  0  0  0  0  0
   -7.8100   22.2200  -31.5680 C   0  0  0  0  0  0  0  0  0  0  0  0
   -6.7740   23.1430  -31.3970 C   0  0  0  0  0  0  0  0  0  0  0  0
   -1.2710   24.9880  -28.3810 C   0  0  0  0  0  0  0  0  0  0  0  0
   -1.2620   26.0360  -29.2970 O   0  0  0  0  0  0  0  0  0  0  0  0
    2.4570   26.4060  -25.4220 C   0  0  0  0  0  0  0  0  0  0  0  0
    3.8390   25.7580  -25.5390 C   0  0  0  0  0  0  0  0  0  0  0  0
    5.7626   23.7851  -25.8728 H   0  0  0  0  0  0  0  0  0  0  0  0
    4.9269   23.1005  -27.3079 H   0  0  0  0  0  0  0  0  0  0  0  0
    5.4495   24.8191  -27.3079 H   0  0  0  0  0  0  0  0  0  0  0  0
    2.9798   23.4758  -27.8553 H   0  0  0  0  0  0  0  0  0  0  0  0
    1.7731   23.8648  -26.5472 H   0  0  0  0  0  0  0  0  0  0  0  0
    3.1421   25.8755  -28.3908 H   0  0  0  0  0  0  0  0  0  0  0  0
    1.4248   25.3012  -28.4860 H   0  0  0  0  0  0  0  0  0  0  0  0
    2.2226   27.5645  -27.2145 H   0  0  0  0  0  0  0  0  0  0  0  0
   -1.2391   21.9937  -25.8878 H   0  0  0  0  0  0  0  0  0  0  0  0
   -2.2556   21.7200  -28.1382 H   0  0  0  0  0  0  0  0  0  0  0  0
   -2.0050   22.9660  -30.7030 H   0  0  0  0  0  0  0  0  0  0  0  0
   -4.1767   21.2879  -32.6297 H   0  0  0  0  0  0  0  0  0  0  0  0
   -6.0307   19.6464  -32.9515 H   0  0  0  0  0  0  0  0  0  0  0  0
   -8.8333   22.4795  -31.2589 H   0  0  0  0  0  0  0  0  0  0  0  0
   -6.9832   24.1215  -30.9400 H   0  0  0  0  0  0  0  0  0  0  0  0
    2.5551   27.3809  -24.9220 H   0  0  0  0  0  0  0  0  0  0  0  0
    1.8015   25.7447  -24.8363 H   0  0  0  0  0  0  0  0  0  0  0  0
    4.4728   26.3835  -26.1847 H   0  0  0  0  0  0  0  0  0  0  0  0
    4.2665   25.6757  -24.5288 H   0  0  0  0  0  0  0  0  0  0  0  0
  1  2  1  0
  2  3  1  0
  3  4  1  0
  4  5  1  0
  5  6  1  0
  6  7  2  0
  6  8  2  0
  6  9  1  0
  9 10  2  0
 10 11  1  0
 10 12  1  0
 12 13  2  0
 13 14  1  0
 14 15  1  0
 15 16  1  0
 16 17  2  0
 16 18  1  0
 18 19  1  0
 19 20  2  0
 20 21  1  0
 21 22  2  0
 22 23  1  0
 23 24  3  0
 22 25  1  0
 25 26  2  0
 14 27  2  0
 27 28  1  0
  5 29  1  0
 29 30  1  0
 30  2  1  0
 27  9  1  0
 26 19  1  0
  1 31  1  0
  1 32  1  0
  1 33  1  0
  3 34  1  0
  3 35  1  0
  4 36  1  0
  4 37  1  0
  5 38  1  0
 12 39  1  0
 13 40  1  0
 15 41  1  0
 20 42  1  0
 21 43  1  0
 25 44  1  0
 26 45  1  0
 29 46  1  0
 29 47  1  0
 30 48  1  0
 30 49  1  0
M  CHG  2  18  -1  28  -1
M  END
>  <UniqueID>  (20) 
19

>  <SMILES>  (20) 
CN1CCC(S(=O)(=O)c2c(Cl)ccc(NC(=O)[N-]c3ccc(C#N)cc3)c2[O-])CC1

>  <Energy>  (20) 
68.1880024477445

>  <Genealogy>  (20) 
CN1CCC(S(=O)(=O)c2c(Cl)ccc(NC(=O)[N-]c3ccc(C#N)cc3)c2[O-])CC1 (protonated)
CN1CCC(S(=O)(=O)c2c(Cl)ccc(NC(=O)[N-]c3ccc(C#N)cc3)c2[O-])CC1 (3D coordinates assigned)
CN1CCC(S(=O)(=O)c2c(Cl)ccc(NC(=O)[N-]c3ccc(C#N)cc3)c2[O-])CC1 (nonaromatic ring conformer: 68.1880024477445 kcal/mol)

>  <smiles>  (20) 
CN1CCC(S(=O)(=O)c2c(Cl)ccc(NC(=O)Nc3ccc(C#N)cc3)c2O)CC1

>  <score_type>  (20) 
oracle

>  <origin>  (20) 
adgpu

>  <m_score__min__energy>  (20) 
-13.25

>  <m_primary>  (20) 
energy

$$$$
20:0
     RDKit          3D

 40 42  0  0  0  0  0  0  0  0999 V2000
   -4.5030   13.4460  -30.8610 C   0  0  0  0  0  0  0  0  0  0  0  0
   -4.9400   14.4110  -31.9140 C   0  0  0  0  0  0  0  0  0  0  0  0
   -5.0290   14.0230  -33.1100 O   0  0  0  0  0  0  0  0  0  0  0  0
   -5.3450   15.7380  -31.5430 N   0  0  0  0  0  0  0  0  0  0  0  0
   -5.6150   16.7920  -32.4840 C   0  0  0  0  0  0  0  0  0  0  0  0
   -5.0550   16.7860  -33.7740 C   0  0  0  0  0  0  0  0  0  0  0  0
   -5.3030   17.8410  -34.6550 C   0  0  0  0  0  0  0  0  0  0  0  0
   -6.1060   18.9120  -34.2580 C   0  0  0  0  0  0  0  0  0  0  0  0
   -6.6710   18.9370  -32.9780 C   0  0  0  0  0  0  0  0  0  0  0  0
   -7.4540   20.0410  -32.6080 O   0  0  0  0  0  0  0  0  0  0  0  0
   -6.9780   21.1900  -31.9610 C   0  0  0  0  0  0  0  0  0  0  0  0
   -7.7230   21.8410  -30.9600 C   0  0  0  0  0  0  0  0  0  0  0  0
   -7.2190   22.9890  -30.3420 C   0  0  0  0  0  0  0  0  0  0  0  0
   -5.9740   23.5070  -30.7250 C   0  0  0  0  0  0  0  0  0  0  0  0
   -5.3080   24.9270  -29.9230 S   0  0  0  0  0  0  0  0  0  0  0  0
   -6.3990   25.8930  -29.5550 O   0  0  0  0  0  0  0  0  0  0  0  0
   -4.3550   25.6150  -30.8600 O   0  0  0  0  0  0  0  0  0  0  0  0
   -4.4560   24.4440  -28.4930 N   0  0  0  0  0  0  0  0  0  0  0  0
   -3.1680   24.5280  -28.3750 C   0  0  0  0  0  0  0  0  0  0  0  0
   -2.3480   24.9930  -29.3430 N   0  0  0  0  0  0  0  0  0  0  0  0
   -1.0490   24.9730  -28.9430 C   0  0  0  0  0  0  0  0  0  0  0  0
   -0.8350   24.4900  -27.6560 C   0  0  0  0  0  0  0  0  0  0  0  0
   -2.3270   24.0740  -26.9950 S   0  0  0  0  0  0  0  0  0  0  0  0
   -5.2410   22.8710  -31.7340 C   0  0  0  0  0  0  0  0  0  0  0  0
   -5.7460   21.7240  -32.3540 C   0  0  0  0  0  0  0  0  0  0  0  0
   -6.4010   17.8850  -32.0850 C   0  0  0  0  0  0  0  0  0  0  0  0
   -4.6973   13.8751  -29.8670 H   0  0  0  0  0  0  0  0  0  0  0  0
   -5.0631   12.5056  -30.9703 H   0  0  0  0  0  0  0  0  0  0  0  0
   -3.4268   13.2466  -30.9703 H   0  0  0  0  0  0  0  0  0  0  0  0
   -5.5360   15.9210  -30.5310 H   0  0  0  0  0  0  0  0  0  0  0  0
   -4.4187   15.9465  -34.0906 H   0  0  0  0  0  0  0  0  0  0  0  0
   -4.8647   17.8281  -35.6638 H   0  0  0  0  0  0  0  0  0  0  0  0
   -6.2956   19.7411  -34.9556 H   0  0  0  0  0  0  0  0  0  0  0  0
   -8.7053   21.4450  -30.6629 H   0  0  0  0  0  0  0  0  0  0  0  0
   -7.8010   23.4874  -29.5528 H   0  0  0  0  0  0  0  0  0  0  0  0
   -0.2270   25.3138  -29.5897 H   0  0  0  0  0  0  0  0  0  0  0  0
    0.1405   24.3960  -27.1564 H   0  0  0  0  0  0  0  0  0  0  0  0
   -4.2647   23.2749  -32.0400 H   0  0  0  0  0  0  0  0  0  0  0  0
   -5.1709   21.2383  -33.1560 H   0  0  0  0  0  0  0  0  0  0  0  0
   -6.8094   17.9186  -31.0642 H   0  0  0  0  0  0  0  0  0  0  0  0
  1  2  1  0
  2  3  2  0
  2  4  1  0
  4  5  1  0
  5  6  2  0
  6  7  1  0
  7  8  2  0
  8  9  1  0
  9 10  1  0
 10 11  1  0
 11 12  2  0
 12 13  1  0
 13 14  2  0
 14 15  1  0
 15 16  2  0
 15 17  2  0
 15 18  1  0
 18 19  2  3
 19 20  1  0
 20 21  1  0
 21 22  2  0
 22 23  1  0
 14 24  1  0
 24 25  2  0
  9 26  2  0
 26  5  1  0
 25 11  1  0
 23 19  1  0
  1 27  1  0
  1 28  1  0
  1 29  1  0
  4 30  1  0
  6 31  1  0
  7 32  1  0
  8 33  1  0
 12 34  1  0
 13 35  1  0
 21 36  1  0
 22 37  1  0
 24 38  1  0
 25 39  1  0
 26 40  1  0
M  CHG  1  20  -1
M  END
>  <UniqueID>  (21) 
20

>  <SMILES>  (21) 
CC(=O)Nc1cccc(Oc2ccc(S(=O)(=O)N=c3[n-]ccs3)cc2)c1

>  <Energy>  (21) 
82.95158347495399

>  <Genealogy>  (21) 
CC(=O)Nc1cccc(Oc2ccc(S(=O)(=O)N=c3[n-]ccs3)cc2)c1 (protonated)
CC(=O)Nc1cccc(Oc2ccc(S(=O)(=O)N=c3[n-]ccs3)cc2)c1 (3D coordinates assigned)
CC(=O)Nc1cccc(Oc2ccc(S(=O)(=O)N=c3[n-]ccs3)cc2)c1 (optimized conformer: 82.95158347495399 kcal/mol)

>  <smiles>  (21) 
CC(=O)Nc1cccc(Oc2ccc(S(=O)(=O)N=c3[nH]ccs3)cc2)c1

>  <score_type>  (21) 
oracle

>  <origin>  (21) 
adgpu

>  <m_score__min__energy>  (21) 
-10.529999999999999

>  <m_primary>  (21) 
energy

$$$$
21:0
     RDKit          3D

 46 48  0  0  0  0  0  0  0  0999 V2000
   -9.2350   22.5268  -30.9463 H   0  0  0  0  0  0  0  0  0  0  0  0
   -8.1600   22.6330  -31.1540 C   0  0  0  0  0  0  0  0  0  0  0  0
   -7.4130   23.6040  -30.4790 C   0  0  0  0  0  0  0  0  0  0  0  0
   -7.9033   24.2596  -29.7443 H   0  0  0  0  0  0  0  0  0  0  0  0
   -6.0420   23.7450  -30.7350 C   0  0  0  0  0  0  0  0  0  0  0  0
   -5.0790   24.9310  -29.8610 S   0  0  0  0  0  0  0  0  0  0  0  0
   -4.2220   25.6770  -30.8440 O   0  0  0  0  0  0  0  0  0  0  0  0
   -5.9930   25.8880  -29.1480 O   0  0  0  0  0  0  0  0  0  0  0  0
   -4.0700   24.1350  -28.6960 N   0  0  0  0  0  0  0  0  0  0  0  0
   -2.8040   24.3860  -28.5640 C   0  0  0  0  0  0  0  0  0  0  0  0
   -2.1240   25.2850  -29.3010 N   0  0  0  0  0  0  0  0  0  0  0  0
   -0.8940   25.2440  -28.8760 O   0  0  0  0  0  0  0  0  0  0  0  0
   -0.7550   24.3630  -27.9100 C   0  0  0  0  0  0  0  0  0  0  0  0
    0.5240   24.0830  -27.1980 C   0  0  0  0  0  0  0  0  0  0  0  0
    0.3547   24.1201  -26.1117 H   0  0  0  0  0  0  0  0  0  0  0  0
    0.8886   23.0838  -27.4784 H   0  0  0  0  0  0  0  0  0  0  0  0
    1.2727   24.8385  -27.4784 H   0  0  0  0  0  0  0  0  0  0  0  0
   -1.9750   23.7710  -27.6560 C   0  0  0  0  0  0  0  0  0  0  0  0
   -2.2227   22.9993  -26.9123 H   0  0  0  0  0  0  0  0  0  0  0  0
   -5.4270   22.9090  -31.6760 C   0  0  0  0  0  0  0  0  0  0  0  0
   -4.3523   23.0167  -31.8842 H   0  0  0  0  0  0  0  0  0  0  0  0
   -6.1730   21.9380  -32.3520 C   0  0  0  0  0  0  0  0  0  0  0  0
   -5.6808   21.2855  -33.0882 H   0  0  0  0  0  0  0  0  0  0  0  0
   -7.5420   21.7910  -32.0980 C   0  0  0  0  0  0  0  0  0  0  0  0
   -8.2670   20.7720  -32.8020 N   0  0  0  0  0  0  0  0  0  0  0  0
   -8.3330   19.1000  -32.3500 S   0  0  0  0  0  0  0  0  0  0  0  0
   -9.6850   18.5440  -32.7040 O   0  0  0  0  0  0  0  0  0  0  0  0
   -8.1310   18.9820  -30.8660 O   0  0  0  0  0  0  0  0  0  0  0  0
   -7.0530   18.2110  -33.1720 C   0  0  0  0  0  0  0  0  0  0  0  0
   -6.9760   16.8160  -33.0770 C   0  0  0  0  0  0  0  0  0  0  0  0
   -7.7159   16.2651  -32.4778 H   0  0  0  0  0  0  0  0  0  0  0  0
   -5.9610   16.1220  -33.7420 C   0  0  0  0  0  0  0  0  0  0  0  0
   -5.9002   15.0273  -33.6531 H   0  0  0  0  0  0  0  0  0  0  0  0
   -5.0190   16.8100  -34.5220 C   0  0  0  0  0  0  0  0  0  0  0  0
   -3.9740   16.0710  -35.1790 N   0  0  0  0  0  0  0  0  0  0  0  0
   -3.8100   16.2590  -36.1960 H   0  0  0  0  0  0  0  0  0  0  0  0
   -3.0680   15.1800  -34.5060 C   0  0  0  0  0  0  0  0  0  0  0  0
   -2.9770   15.1800  -33.2500 O   0  0  0  0  0  0  0  0  0  0  0  0
   -2.1480   14.3120  -35.3000 C   0  0  0  0  0  0  0  0  0  0  0  0
   -1.5211   13.7205  -34.6166 H   0  0  0  0  0  0  0  0  0  0  0  0
   -2.7390   13.6348  -35.9341 H   0  0  0  0  0  0  0  0  0  0  0  0
   -1.5063   14.9414  -35.9341 H   0  0  0  0  0  0  0  0  0  0  0  0
   -5.0850   18.2140  -34.5930 C   0  0  0  0  0  0  0  0  0  0  0  0
   -4.3348   18.7687  -35.1757 H   0  0  0  0  0  0  0  0  0  0  0  0
   -6.1000   18.9070  -33.9260 C   0  0  0  0  0  0  0  0  0  0  0  0
   -6.1501   20.0038  -33.9939 H   0  0  0  0  0  0  0  0  0  0  0  0
  1  2  1  0
  2  3  2  0
  3  4  1  0
  3  5  1  0
  5  6  1  0
  6  7  2  0
  6  8  2  0
  6  9  1  0
  9 10  2  0
 10 11  1  0
 11 12  1  0
 12 13  1  0
 13 14  1  0
 14 15  1  0
 14 16  1  0
 14 17  1  0
 13 18  2  0
 18 19  1  0
  5 20  2  0
 20 21  1  0
 20 22  1  0
 22 23  1  0
 22 24  2  0
 24 25  1  0
 25 26  1  0
 26 27  2  0
 26 28  2  0
 26 29  1  0
 29 30  2  0
 30 31  1  0
 30 32  1  0
 32 33  1  0
 32 34  2  0
 34 35  1  0
 35 36  1  0
 35 37  1  0
 37 38  2  0
 37 39  1  0
 39 40  1  0
 39 41  1  0
 39 42  1  0
 34 43  1  0
 43 44  1  0
 43 45  2  0
 45 46  1  0
 24  2  1  0
 45 29  1  0
 18 10  1  0
M  CHG  2  11  -1  25  -1
M  END
>  <UniqueID>  (22) 
21

>  <SMILES>  (22) 
CC(=O)Nc1ccc(S(=O)(=O)[N-]c2ccc(S(=O)(=O)/N=c3/cc(C)o[n-]3)cc2)cc1

>  <Energy>  (22) 
86.16573831409073

>  <Genealogy>  (22) 
CC(=O)Nc1ccc(S(=O)(=O)[N-]c2ccc(S(=O)(=O)N=c3cc(C)o[n-]3)cc2)cc1 (protonated)
CC(=O)Nc1ccc(S(=O)(=O)[N-]c2ccc(S(=O)(=O)/N=c3/cc(C)o[n-]3)cc2)cc1 (cis-trans isomerization)
CC(=O)Nc1ccc(S(=O)(=O)[N-]c2ccc(S(=O)(=O)/N=c3/cc(C)o[n-]3)cc2)cc1 (3D coordinates assigned)
CC(=O)Nc1ccc(S(=O)(=O)[N-]c2ccc(S(=O)(=O)/N=c3/cc(C)o[n-]3)cc2)cc1 (optimized conformer: 86.16573831409073 kcal/mol)

>  <smiles>  (22) 
CC(=O)Nc1ccc(S(=O)(=O)Nc2ccc(S(=O)(=O)N=c3cc(C)o[nH]3)cc2)cc1

>  <score_type>  (22) 
oracle

>  <origin>  (22) 
adgpu

>  <m_score__min__energy>  (22) 
-11.34

>  <m_primary>  (22) 
energy

$$$$
22:0
     RDKit          3D

 56 59  0  0  0  0  0  0  0  0999 V2000
   -0.0820   20.3150  -30.1270 C   0  0  0  0  0  0  0  0  0  0  0  0
   -1.3420   20.6770  -30.8570 C   0  0  0  0  0  0  0  0  0  0  0  0
   -1.2780   21.2120  -32.1520 C   0  0  0  0  0  0  0  0  0  0  0  0
   -2.4510   21.5160  -32.8490 C   0  0  0  0  0  0  0  0  0  0  0  0
   -3.7090   21.2730  -32.2660 C   0  0  0  0  0  0  0  0  0  0  0  0
   -4.9320   21.5920  -32.9530 N   0  0  0  0  0  0  0  0  0  0  0  0
   -6.2190   21.5610  -32.3220 C   0  0  0  0  0  0  0  0  0  0  0  0
   -7.2170   20.7340  -32.8580 C   0  0  0  0  0  0  0  0  0  0  0  0
   -8.4870   20.6910  -32.2820 C   0  0  0  0  0  0  0  0  0  0  0  0
   -8.7710   21.4750  -31.1650 C   0  0  0  0  0  0  0  0  0  0  0  0
   -7.7890   22.3060  -30.6220 C   0  0  0  0  0  0  0  0  0  0  0  0
   -6.5010   22.3640  -31.1890 C   0  0  0  0  0  0  0  0  0  0  0  0
   -5.4890   23.2780  -30.6020 C   0  0  0  0  0  0  0  0  0  0  0  0
   -5.0870   24.2760  -31.2590 O   0  0  0  0  0  0  0  0  0  0  0  0
   -4.9920   23.0520  -29.2710 N   0  0  0  0  0  0  0  0  0  0  0  0
   -3.8220   23.6910  -28.7340 C   0  0  0  0  0  0  0  0  0  0  0  0
   -2.6620   23.7750  -29.5180 C   0  0  0  0  0  0  0  0  0  0  0  0
   -1.5150   24.4020  -29.0230 C   0  0  0  0  0  0  0  0  0  0  0  0
   -1.5090   24.9580  -27.7340 C   0  0  0  0  0  0  0  0  0  0  0  0
   -0.2950   25.6280  -27.2200 C   0  0  0  0  0  0  0  0  0  0  0  0
    0.8230   25.3480  -27.7340 O   0  0  0  0  0  0  0  0  0  0  0  0
   -0.3600   26.5780  -26.1370 N   0  0  0  0  0  0  0  0  0  0  0  0
    0.6070   27.6800  -26.0810 C   0  0  0  0  0  0  0  0  0  0  0  0
    1.6380   27.4210  -24.9830 C   0  0  0  0  0  0  0  0  0  0  0  0
    0.9150   27.0000  -23.3440 S   0  0  0  0  0  0  0  0  0  0  0  0
   -0.8600   27.1460  -23.7600 C   0  0  0  0  0  0  0  0  0  0  0  0
   -1.2140   26.2840  -24.9740 C   0  0  0  0  0  0  0  0  0  0  0  0
   -2.6830   24.9130  -26.9650 C   0  0  0  0  0  0  0  0  0  0  0  0
   -3.8300   24.2860  -27.4610 C   0  0  0  0  0  0  0  0  0  0  0  0
   -3.7670   20.7280  -30.9740 C   0  0  0  0  0  0  0  0  0  0  0  0
   -2.5930   20.4220  -30.2790 C   0  0  0  0  0  0  0  0  0  0  0  0
   -0.2590   20.3659  -29.0425 H   0  0  0  0  0  0  0  0  0  0  0  0
    0.2204   19.2937  -30.4017 H   0  0  0  0  0  0  0  0  0  0  0  0
    0.7164   21.0201  -30.4017 H   0  0  0  0  0  0  0  0  0  0  0  0
   -0.2999   21.3933  -32.6215 H   0  0  0  0  0  0  0  0  0  0  0  0
   -2.3906   21.9476  -33.8590 H   0  0  0  0  0  0  0  0  0  0  0  0
   -4.8880   21.9000  -33.9510 H   0  0  0  0  0  0  0  0  0  0  0  0
   -6.9966   20.1143  -33.7397 H   0  0  0  0  0  0  0  0  0  0  0  0
   -9.2634   20.0391  -32.7089 H   0  0  0  0  0  0  0  0  0  0  0  0
   -9.7718   21.4389  -30.7099 H   0  0  0  0  0  0  0  0  0  0  0  0
   -8.0239   22.9222  -29.7416 H   0  0  0  0  0  0  0  0  0  0  0  0
   -5.5830   22.4870  -28.6190 H   0  0  0  0  0  0  0  0  0  0  0  0
   -2.6549   23.3442  -30.5301 H   0  0  0  0  0  0  0  0  0  0  0  0
   -0.6113   24.4601  -29.6475 H   0  0  0  0  0  0  0  0  0  0  0  0
    1.1209   27.7623  -27.0501 H   0  0  0  0  0  0  0  0  0  0  0  0
    0.0730   28.6157  -25.8590 H   0  0  0  0  0  0  0  0  0  0  0  0
    2.2773   26.5846  -25.3019 H   0  0  0  0  0  0  0  0  0  0  0  0
    2.1951   28.3599  -24.8482 H   0  0  0  0  0  0  0  0  0  0  0  0
   -1.4592   26.8165  -22.8984 H   0  0  0  0  0  0  0  0  0  0  0  0
   -1.0768   28.1968  -24.0024 H   0  0  0  0  0  0  0  0  0  0  0  0
   -1.0909   25.2249  -24.7036 H   0  0  0  0  0  0  0  0  0  0  0  0
   -2.2535   26.5091  -25.2546 H   0  0  0  0  0  0  0  0  0  0  0  0
   -2.7004   25.3738  -25.9663 H   0  0  0  0  0  0  0  0  0  0  0  0
   -4.7447   24.2583  -26.8507 H   0  0  0  0  0  0  0  0  0  0  0  0
   -4.7438   20.5401  -30.5044 H   0  0  0  0  0  0  0  0  0  0  0  0
   -2.6516   19.9790  -29.2738 H   0  0  0  0  0  0  0  0  0  0  0  0
  1  2  1  0
  2  3  2  0
  3  4  1  0
  4  5  2  0
  5  6  1  0
  6  7  1  0
  7  8  2  0
  8  9  1  0
  9 10  2  0
 10 11  1  0
 11 12  2  0
 12 13  1  0
 13 14  2  0
 13 15  1  0
 15 16  1  0
 16 17  2  0
 17 18  1  0
 18 19  2  0
 19 20  1  0
 20 21  2  0
 20 22  1  0
 22 23  1  0
 23 24  1  0
 24 25  1  0
 25 26  1  0
 26 27  1  0
 19 28  1  0
 28 29  2  0
  5 30  1  0
 30 31  2  0
 31  2  1  0
 12  7  1  0
 29 16  1  0
 27 22  1  0
  1 32  1  0
  1 33  1  0
  1 34  1  0
  3 35  1  0
  4 36  1  0
  6 37  1  0
  8 38  1  0
  9 39  1  0
 10 40  1  0
 11 41  1  0
 15 42  1  0
 17 43  1  0
 18 44  1  0
 23 45  1  0
 23 46  1  0
 24 47  1  0
 24 48  1  0
 26 49  1  0
 26 50  1  0
 27 51  1  0
 27 52  1  0
 28 53  1  0
 29 54  1  0
 30 55  1  0
 31 56  1  0
M  END
>  <UniqueID>  (23) 
22

>  <SMILES>  (23) 
Cc1ccc(Nc2ccccc2C(=O)Nc2ccc(C(=O)N3CCSCC3)cc2)cc1

>  <Energy>  (23) 
79.51031055867578

>  <Genealogy>  (23) 
Cc1ccc(Nc2ccccc2C(=O)Nc2ccc(C(=O)N3CCSCC3)cc2)cc1 (3D coordinates assigned)
Cc1ccc(Nc2ccccc2C(=O)Nc2ccc(C(=O)N3CCSCC3)cc2)cc1 (nonaromatic ring conformer: 79.51031055867578 kcal/mol)

>  <smiles>  (23) 
Cc1ccc(Nc2ccccc2C(=O)Nc2ccc(C(=O)N3CCSCC3)cc2)cc1

>  <score_type>  (23) 
oracle

>  <origin>  (23) 
adgpu

>  <m_score__min__energy>  (23) 
-10.49

>  <m_primary>  (23) 
energy

$$$$
23:0
     RDKit          3D

 44 47  0  0  0  0  0  0  0  0999 V2000
   -8.7500   19.3850  -31.1580 O   0  0  0  0  0  0  0  0  0  0  0  0
   -7.8870   19.7740  -31.9920 C   0  0  0  0  0  0  0  0  0  0  0  0
   -7.7850   21.1670  -32.3210 N   0  0  0  0  0  0  0  0  0  0  0  0
   -6.8550   22.1130  -31.7720 C   0  0  0  0  0  0  0  0  0  0  0  0
   -5.8770   21.7410  -30.8360 C   0  0  0  0  0  0  0  0  0  0  0  0
   -4.9810   22.7010  -30.3550 C   0  0  0  0  0  0  0  0  0  0  0  0
   -3.9940   22.3770  -29.4130 C   0  0  0  0  0  0  0  0  0  0  0  0
   -3.1170   23.3660  -28.9550 C   0  0  0  0  0  0  0  0  0  0  0  0
   -3.2180   24.6750  -29.4370 C   0  0  0  0  0  0  0  0  0  0  0  0
   -2.3430   25.6530  -28.9780 O   0  0  0  0  0  0  0  0  0  0  0  0
   -4.1980   25.0020  -30.3810 C   0  0  0  0  0  0  0  0  0  0  0  0
   -5.0800   24.0200  -30.8440 C   0  0  0  0  0  0  0  0  0  0  0  0
   -6.0060   24.3320  -31.7470 O   0  0  0  0  0  0  0  0  0  0  0  0
   -6.8740   23.4420  -32.2220 C   0  0  0  0  0  0  0  0  0  0  0  0
   -7.7190   23.8060  -33.0820 O   0  0  0  0  0  0  0  0  0  0  0  0
   -7.0160   18.7850  -32.6690 C   0  0  0  0  0  0  0  0  0  0  0  0
   -7.4200   17.4450  -32.7960 C   0  0  0  0  0  0  0  0  0  0  0  0
   -6.5950   16.5130  -33.4270 C   0  0  0  0  0  0  0  0  0  0  0  0
   -5.3540   16.8990  -33.9470 C   0  0  0  0  0  0  0  0  0  0  0  0
   -4.5360   15.9550  -34.5670 O   0  0  0  0  0  0  0  0  0  0  0  0
   -4.9390   18.2400  -33.8410 C   0  0  0  0  0  0  0  0  0  0  0  0
   -3.5890   18.6800  -34.3530 C   0  0  0  0  0  0  0  0  0  0  0  0
   -2.9470   19.6330  -33.3820 C   0  0  0  0  0  0  0  0  0  0  0  0
   -3.2320   21.0080  -33.4390 C   0  0  0  0  0  0  0  0  0  0  0  0
   -2.6010   21.8960  -32.5620 C   0  0  0  0  0  0  0  0  0  0  0  0
   -1.6790   21.4190  -31.6260 C   0  0  0  0  0  0  0  0  0  0  0  0
   -1.3830   20.0550  -31.5680 C   0  0  0  0  0  0  0  0  0  0  0  0
   -2.0110   19.1640  -32.4430 C   0  0  0  0  0  0  0  0  0  0  0  0
   -5.7710   19.1720  -33.1960 C   0  0  0  0  0  0  0  0  0  0  0  0
   -5.8159   20.7009  -30.4832 H   0  0  0  0  0  0  0  0  0  0  0  0
   -3.9096   21.3474  -29.0350 H   0  0  0  0  0  0  0  0  0  0  0  0
   -2.3452   23.1132  -28.2131 H   0  0  0  0  0  0  0  0  0  0  0  0
   -4.2748   26.0321  -30.7592 H   0  0  0  0  0  0  0  0  0  0  0  0
   -8.3941   17.1283  -32.3949 H   0  0  0  0  0  0  0  0  0  0  0  0
   -6.9225   15.4667  -33.5165 H   0  0  0  0  0  0  0  0  0  0  0  0
   -4.1670   15.1580  -34.0630 H   0  0  0  0  0  0  0  0  0  0  0  0
   -2.9430   17.7983  -34.4768 H   0  0  0  0  0  0  0  0  0  0  0  0
   -3.7215   19.1891  -35.3191 H   0  0  0  0  0  0  0  0  0  0  0  0
   -3.9545   21.3874  -34.1766 H   0  0  0  0  0  0  0  0  0  0  0  0
   -2.8305   22.9708  -32.6088 H   0  0  0  0  0  0  0  0  0  0  0  0
   -1.1861   22.1182  -30.9345 H   0  0  0  0  0  0  0  0  0  0  0  0
   -0.6548   19.6817  -30.8329 H   0  0  0  0  0  0  0  0  0  0  0  0
   -1.7720   18.0913  -32.3969 H   0  0  0  0  0  0  0  0  0  0  0  0
   -5.4436   20.2180  -33.1024 H   0  0  0  0  0  0  0  0  0  0  0  0
  1  2  2  0
  2  3  1  0
  3  4  1  0
  4  5  2  0
  5  6  1  0
  6  7  2  0
  7  8  1  0
  8  9  2  0
  9 10  1  0
  9 11  1  0
 11 12  2  0
 12 13  1  0
 13 14  1  0
 14 15  2  0
  2 16  1  0
 16 17  2  0
 17 18  1  0
 18 19  2  0
 19 20  1  0
 19 21  1  0
 21 22  1  0
 22 23  1  0
 23 24  2  0
 24 25  1  0
 25 26  2  0
 26 27  1  0
 27 28  2  0
 21 29  2  0
 14  4  1  0
 29 16  1  0
 12  6  1  0
 28 23  1  0
  5 30  1  0
  7 31  1  0
  8 32  1  0
 11 33  1  0
 17 34  1  0
 18 35  1  0
 20 36  1  0
 22 37  1  0
 22 38  1  0
 24 39  1  0
 25 40  1  0
 26 41  1  0
 27 42  1  0
 28 43  1  0
 29 44  1  0
M  CHG  2   3  -1  10  -1
M  END
>  <UniqueID>  (24) 
23

>  <SMILES>  (24) 
O=C([N-]c1cc2ccc([O-])cc2oc1=O)c1ccc(O)c(Cc2ccccc2)c1

>  <Energy>  (24) 
56.75820104973589

>  <Genealogy>  (24) 
O=C([N-]c1cc2ccc([O-])cc2oc1=O)c1ccc(O)c(Cc2ccccc2)c1 (protonated)
O=C([N-]c1cc2ccc([O-])cc2oc1=O)c1ccc(O)c(Cc2ccccc2)c1 (3D coordinates assigned)
O=C([N-]c1cc2ccc([O-])cc2oc1=O)c1ccc(O)c(Cc2ccccc2)c1 (optimized conformer: 56.75820104973589 kcal/mol)

>  <smiles>  (24) 
O=C(Nc1cc2ccc(O)cc2oc1=O)c1ccc(O)c(Cc2ccccc2)c1

>  <score_type>  (24) 
oracle

>  <origin>  (24) 
adgpu

>  <m_score__min__energy>  (24) 
-11.58

>  <m_primary>  (24) 
energy

$$$$
24:0
     RDKit          3D

 44 46  0  0  1  0  0  0  0  0999 V2000
   -0.5520   23.9870  -24.5380 N   0  0  0  0  0  0  0  0  0  0  0  0
   -0.5230   25.1250  -24.8710 C   0  0  0  0  0  0  0  0  0  0  0  0
   -0.4910   26.5010  -25.2470 C   0  0  0  0  0  0  0  0  0  0  0  0
   -0.2910   27.4210  -24.2400 C   0  0  0  0  0  0  0  0  0  0  0  0
   -0.1060   27.0460  -22.8730 N   0  0  0  0  0  0  0  0  0  0  0  0
   -0.2560   28.7600  -24.5000 N   0  0  0  0  0  0  0  0  0  0  0  0
   -0.4200   29.2050  -25.7590 C   0  0  0  0  0  0  0  0  0  0  0  0
   -0.6200   28.2990  -26.7630 N   0  0  0  0  0  0  0  0  0  0  0  0
   -0.6540   26.9790  -26.5140 C   0  0  0  0  0  0  0  0  0  0  0  0
   -0.8280   26.1790  -27.4660 N   0  0  0  0  0  0  0  0  0  0  0  0
   -0.8890   24.7750  -27.4650 C   0  0  0  0  0  0  0  0  0  0  0  0
   -1.5980   24.1700  -28.6230 C   0  0  0  0  0  0  0  0  0  0  0  0
   -1.0300   23.1410  -29.3740 C   0  0  0  0  0  0  0  0  0  0  0  0
   -1.7110   22.5820  -30.4620 C   0  0  0  0  0  0  0  0  0  0  0  0
   -2.9600   23.0130  -30.8430 C   0  0  0  0  0  0  0  0  0  0  0  0
   -3.6870   22.4820  -31.9350 N   0  0  0  0  0  0  0  0  0  0  0  0
   -4.8950   21.7470  -31.7280 C   0  0  0  0  0  0  0  0  0  0  0  0
   -5.2780   21.5950  -30.5300 O   0  0  0  0  0  0  0  0  0  0  0  0
   -5.6420   21.2050  -32.8110 N   0  0  0  0  0  0  0  0  0  0  0  0
   -6.8460   20.4700  -32.6400 C   0  0  0  0  0  0  0  0  0  0  0  0
   -8.0500   21.0520  -32.2990 C   0  0  0  0  0  0  0  0  0  0  0  0
   -9.1730   20.2570  -32.1520 C   0  0  0  0  0  0  0  0  0  0  0  0
   -9.1310   18.8930  -32.3350 C   0  0  0  0  0  0  0  0  0  0  0  0
   -7.9190   18.3200  -32.6760 C   0  0  0  0  0  0  0  0  0  0  0  0
   -6.7710   19.0870  -32.8330 C   0  0  0  0  0  0  0  0  0  0  0  0
   -3.5260   24.0270  -30.1100 C   0  0  0  0  0  0  0  0  0  0  0  0
   -2.8520   24.5690  -29.0440 C   0  0  0  0  0  0  0  0  0  0  0  0
   -0.1990   27.7900  -22.1460 H   0  0  0  0  0  0  0  0  0  0  0  0
    0.1110   26.0720  -22.6090 H   0  0  0  0  0  0  0  0  0  0  0  0
   -0.1000   29.4500  -23.7070 H   0  0  0  0  0  0  0  0  0  0  0  0
   -0.3935   30.2828  -25.9775 H   0  0  0  0  0  0  0  0  0  0  0  0
    0.1414   24.3899  -27.4582 H   0  0  0  0  0  0  0  0  0  0  0  0
   -1.4692   24.4960  -26.5731 H   0  0  0  0  0  0  0  0  0  0  0  0
   -0.0320   22.7630  -29.1074 H   0  0  0  0  0  0  0  0  0  0  0  0
   -1.2314   21.7717  -31.0306 H   0  0  0  0  0  0  0  0  0  0  0  0
   -3.3800   22.6010  -32.9160 H   0  0  0  0  0  0  0  0  0  0  0  0
   -5.2660   21.3700  -33.7690 H   0  0  0  0  0  0  0  0  0  0  0  0
   -8.1164   22.1392  -32.1453 H   0  0  0  0  0  0  0  0  0  0  0  0
  -10.1287   20.7293  -31.8806 H   0  0  0  0  0  0  0  0  0  0  0  0
  -10.0344   18.2772  -32.2136 H   0  0  0  0  0  0  0  0  0  0  0  0
   -7.8627   17.2318  -32.8264 H   0  0  0  0  0  0  0  0  0  0  0  0
   -5.8165   18.6129  -33.1053 H   0  0  0  0  0  0  0  0  0  0  0  0
   -4.5231   24.4063  -30.3781 H   0  0  0  0  0  0  0  0  0  0  0  0
   -3.3452   25.3782  -28.4855 H   0  0  0  0  0  0  0  0  0  0  0  0
  1  2  3  0
  2  3  1  0
  3  4  2  0
  4  5  1  0
  4  6  1  0
  6  7  1  0
  7  8  2  0
  8  9  1  0
  9 10  2  0
 10 11  1  0
 11 12  1  0
 12 13  2  0
 13 14  1  0
 14 15  2  0
 15 16  1  0
 16 17  1  0
 17 18  2  0
 17 19  1  0
 19 20  1  0
 20 21  2  0
 21 22  1  0
 22 23  2  0
 23 24  1  0
 24 25  2  0
 15 26  1  0
 26 27  2  0
  9  3  1  0
 27 12  1  0
 25 20  1  0
  5 28  1  0
  5 29  1  0
  6 30  1  0
  7 31  1  0
 11 32  1  0
 11 33  1  0
 13 34  1  0
 14 35  1  0
 16 36  1  0
 19 37  1  0
 21 38  1  0
 22 39  1  0
 23 40  1  0
 24 41  1  0
 25 42  1  0
 26 43  1  0
 27 44  1  0
M  END
>  <smiles>  (25) 
N#Cc1c(N)[nH]cnc1=NCc1ccc(NC(=O)Nc2ccccc2)cc1

>  <score_type>  (25) 
oracle

>  <origin>  (25) 
adgpu

>  <m_score__min__energy>  (25) 
-8.4299999999999997

>  <m_primary>  (25) 
energy

$$$$
25:0
     RDKit          3D

 47 50  0  0  0  0  0  0  0  0999 V2000
   -8.2370   18.2500  -31.5340 N   0  0  0  0  0  0  0  0  0  0  0  0
   -7.3920   18.1890  -32.4830 C   0  0  0  0  0  0  0  0  0  0  0  0
   -7.2720   17.0020  -33.1260 N   0  0  0  0  0  0  0  0  0  0  0  0
   -6.4070   16.8570  -34.1540 C   0  0  0  0  0  0  0  0  0  0  0  0
   -5.6410   17.9120  -34.5560 N   0  0  0  0  0  0  0  0  0  0  0  0
   -5.7260   19.1150  -33.9440 C   0  0  0  0  0  0  0  0  0  0  0  0
   -6.6230   19.2580  -32.8800 C   0  0  0  0  0  0  0  0  0  0  0  0
   -6.6540   20.5630  -32.2450 C   0  0  0  0  0  0  0  0  0  0  0  0
   -7.8240   21.3050  -32.3750 C   0  0  0  0  0  0  0  0  0  0  0  0
   -7.9670   22.5640  -31.8280 C   0  0  0  0  0  0  0  0  0  0  0  0
   -9.1390   23.2770  -31.9740 O   0  0  0  0  0  0  0  0  0  0  0  0
   -6.9150   23.1200  -31.1210 C   0  0  0  0  0  0  0  0  0  0  0  0
   -7.0860   24.3840  -30.5840 O   0  0  0  0  0  0  0  0  0  0  0  0
   -5.7440   22.4000  -30.9800 C   0  0  0  0  0  0  0  0  0  0  0  0
   -4.6490   23.0040  -30.2320 C   0  0  0  0  0  0  0  0  0  0  0  0
   -4.8230   23.6900  -29.0520 C   0  0  0  0  0  0  0  0  0  0  0  0
   -3.7360   24.2490  -28.3780 C   0  0  0  0  0  0  0  0  0  0  0  0
   -2.4560   24.1200  -28.8890 C   0  0  0  0  0  0  0  0  0  0  0  0
   -1.0480   24.7880  -28.1100 S   0  0  0  0  0  0  0  0  0  0  0  0
   -1.2170   26.2850  -28.0620 O   0  0  0  0  0  0  0  0  0  0  0  0
    0.1370   24.5140  -28.9920 O   0  0  0  0  0  0  0  0  0  0  0  0
   -0.8240   24.1270  -26.5080 C   0  0  0  0  0  0  0  0  0  0  0  0
   -0.6720   22.7760  -26.2730 C   0  0  0  0  0  0  0  0  0  0  0  0
   -0.5000   22.3640  -24.9590 C   0  0  0  0  0  0  0  0  0  0  0  0
   -0.4820   23.2660  -23.9170 C   0  0  0  0  0  0  0  0  0  0  0  0
   -0.6350   24.6290  -24.1520 C   0  0  0  0  0  0  0  0  0  0  0  0
   -0.8050   25.0380  -25.4550 C   0  0  0  0  0  0  0  0  0  0  0  0
   -2.2800   23.4360  -30.0680 C   0  0  0  0  0  0  0  0  0  0  0  0
   -3.3580   22.8840  -30.7320 C   0  0  0  0  0  0  0  0  0  0  0  0
   -5.6330   21.1260  -31.5480 C   0  0  0  0  0  0  0  0  0  0  0  0
   -8.3780   19.1270  -31.0010 H   0  0  0  0  0  0  0  0  0  0  0  0
   -7.8450   16.1690  -32.8460 H   0  0  0  0  0  0  0  0  0  0  0  0
   -6.3204   15.8878  -34.6670 H   0  0  0  0  0  0  0  0  0  0  0  0
   -5.1049   19.9605  -34.2748 H   0  0  0  0  0  0  0  0  0  0  0  0
   -8.6662   20.8720  -32.9346 H   0  0  0  0  0  0  0  0  0  0  0  0
   -9.3080   24.2130  -31.6860 H   0  0  0  0  0  0  0  0  0  0  0  0
   -7.9470   24.9090  -30.6880 H   0  0  0  0  0  0  0  0  0  0  0  0
   -5.8343   23.7996  -28.6334 H   0  0  0  0  0  0  0  0  0  0  0  0
   -3.8973   24.7945  -27.4365 H   0  0  0  0  0  0  0  0  0  0  0  0
   -0.6867   22.0500  -27.0992 H   0  0  0  0  0  0  0  0  0  0  0  0
   -0.3751   21.2925  -24.7441 H   0  0  0  0  0  0  0  0  0  0  0  0
   -0.3451   22.9041  -22.8873 H   0  0  0  0  0  0  0  0  0  0  0  0
   -0.6206   25.3543  -23.3251 H   0  0  0  0  0  0  0  0  0  0  0  0
   -0.9288   26.1097  -25.6697 H   0  0  0  0  0  0  0  0  0  0  0  0
   -1.2690   23.3269  -30.4876 H   0  0  0  0  0  0  0  0  0  0  0  0
   -3.1917   22.3397  -31.6733 H   0  0  0  0  0  0  0  0  0  0  0  0
   -4.6942   20.5656  -31.4269 H   0  0  0  0  0  0  0  0  0  0  0  0
  1  2  2  3
  2  3  1  0
  3  4  1  0
  4  5  2  0
  5  6  1  0
  6  7  2  0
  7  8  1  0
  8  9  2  0
  9 10  1  0
 10 11  1  0
 10 12  2  0
 12 13  1  0
 12 14  1  0
 14 15  1  0
 15 16  2  0
 16 17  1  0
 17 18  2  0
 18 19  1  0
 19 20  2  0
 19 21  2  0
 19 22  1  0
 22 23  2  0
 23 24  1  0
 24 25  2  0
 25 26  1  0
 26 27  2  0
 18 28  1  0
 28 29  2  0
 14 30  2  0
  7  2  1  0
 30  8  1  0
 29 15  1  0
 27 22  1  0
  1 31  1  0
  3 32  1  0
  4 33  1  0
  6 34  1  0
  9 35  1  0
 11 36  1  0
 13 37  1  0
 16 38  1  0
 17 39  1  0
 23 40  1  0
 24 41  1  0
 25 42  1  0
 26 43  1  0
 27 44  1  0
 28 45  1  0
 29 46  1  0
 30 47  1  0
M  END
>  <smiles>  (26) 
N=c1[nH]cncc1-c1cc(O)c(O)c(-c2ccc(S(=O)(=O)c3ccccc3)cc2)c1

>  <score_type>  (26) 
oracle

>  <origin>  (26) 
adgpu

>  <m_score__min__energy>  (26) 
-8.6600000000000001

>  <m_primary>  (26) 
energy

$$$$
26:0
     RDKit          3D

 33 35  0  0  0  0  0  0  0  0999 V2000
   -6.3830   19.1780  -31.7270 C   0  0  0  0  0  0  0  0  0  0  0  0
   -5.1690   20.3410  -32.3170 S   0  0  0  0  0  0  0  0  0  0  0  0
   -3.8160   19.8690  -31.8650 O   0  0  0  0  0  0  0  0  0  0  0  0
   -5.2140   20.3660  -33.8180 O   0  0  0  0  0  0  0  0  0  0  0  0
   -5.4460   21.9760  -31.7010 C   0  0  0  0  0  0  0  0  0  0  0  0
   -6.7520   22.4690  -31.5560 C   0  0  0  0  0  0  0  0  0  0  0  0
   -6.9680   23.7640  -31.0840 C   0  0  0  0  0  0  0  0  0  0  0  0
   -5.8870   24.5700  -30.7290 C   0  0  0  0  0  0  0  0  0  0  0  0
   -4.5770   24.0890  -30.8390 C   0  0  0  0  0  0  0  0  0  0  0  0
   -3.5020   24.9330  -30.4090 N   0  0  0  0  0  0  0  0  0  0  0  0
   -2.5080   24.5950  -29.4300 C   0  0  0  0  0  0  0  0  0  0  0  0
   -1.8000   25.5160  -28.9440 O   0  0  0  0  0  0  0  0  0  0  0  0
   -2.3080   23.2130  -28.9530 C   0  0  0  0  0  0  0  0  0  0  0  0
   -3.0590   22.6590  -27.9610 N   0  0  0  0  0  0  0  0  0  0  0  0
   -2.5230   21.4290  -27.8940 C   0  0  0  0  0  0  0  0  0  0  0  0
   -2.9000   20.4420  -27.0460 N   0  0  0  0  0  0  0  0  0  0  0  0
   -2.2460   19.2440  -27.1050 C   0  0  0  0  0  0  0  0  0  0  0  0
   -1.1990   19.0440  -28.0300 C   0  0  0  0  0  0  0  0  0  0  0  0
   -0.8460   20.0960  -28.8860 C   0  0  0  0  0  0  0  0  0  0  0  0
   -1.5370   21.2530  -28.7740 N   0  0  0  0  0  0  0  0  0  0  0  0
   -1.3810   22.3630  -29.4630 N   0  0  0  0  0  0  0  0  0  0  0  0
   -4.3500   22.7990  -31.3770 C   0  0  0  0  0  0  0  0  0  0  0  0
   -3.0560   22.3300  -31.6150 O   0  0  0  0  0  0  0  0  0  0  0  0
   -6.3848   19.1762  -30.6270 H   0  0  0  0  0  0  0  0  0  0  0  0
   -7.3781   19.4684  -32.0949 H   0  0  0  0  0  0  0  0  0  0  0  0
   -6.1355   18.1713  -32.0949 H   0  0  0  0  0  0  0  0  0  0  0  0
   -7.6097   21.8311  -31.8158 H   0  0  0  0  0  0  0  0  0  0  0  0
   -7.9938   24.1502  -30.9917 H   0  0  0  0  0  0  0  0  0  0  0  0
   -6.0648   25.5909  -30.3600 H   0  0  0  0  0  0  0  0  0  0  0  0
   -2.5377   18.4290  -26.4263 H   0  0  0  0  0  0  0  0  0  0  0  0
   -0.6701   18.0807  -28.0782 H   0  0  0  0  0  0  0  0  0  0  0  0
   -0.0363   19.9846  -29.6222 H   0  0  0  0  0  0  0  0  0  0  0  0
   -2.6400   21.5720  -31.0910 H   0  0  0  0  0  0  0  0  0  0  0  0
  1  2  1  0
  2  3  2  0
  2  4  2  0
  2  5  1  0
  5  6  2  0
  6  7  1  0
  7  8  2  0
  8  9  1  0
  9 10  1  0
 10 11  1  0
 11 12  2  0
 11 13  1  0
 13 14  1  0
 14 15  2  0
 15 16  1  0
 16 17  2  0
 17 18  1  0
 18 19  2  0
 19 20  1  0
 20 21  1  0
  9 22  2  0
 22 23  1  0
 22  5  1  0
 21 13  2  0
 20 15  1  0
  1 24  1  0
  1 25  1  0
  1 26  1  0
  6 27  1  0
  7 28  1  0
  8 29  1  0
 17 30  1  0
 18 31  1  0
 19 32  1  0
 23 33  1  0
M  CHG  1  10  -1
M  END
>  <UniqueID>  (27) 
24

>  <SMILES>  (27) 
CS(=O)(=O)c1cccc([N-]C(=O)c2nc3ncccn3n2)c1O

>  <Energy>  (27) 
81.18069976619041

>  <Genealogy>  (27) 
CS(=O)(=O)c1cccc([N-]C(=O)c2nc3ncccn3n2)c1O (protonated)
CS(=O)(=O)c1cccc([N-]C(=O)c2nc3ncccn3n2)c1O (3D coordinates assigned)
CS(=O)(=O)c1cccc([N-]C(=O)c2nc3ncccn3n2)c1O (optimized conformer: 81.18069976619041 kcal/mol)

>  <smiles>  (27) 
CS(=O)(=O)c1cccc(NC(=O)c2nc3ncccn3n2)c1O

>  <score_type>  (27) 
oracle

>  <origin>  (27) 
adgpu

>  <m_score__min__energy>  (27) 
-11.1

>  <m_primary>  (27) 
energy

$$$$
27:0
     RDKit          3D

 39 41  0  0  1  0  0  0  0  0999 V2000
   -5.7400   17.8140  -31.5580 C   0  0  0  0  0  0  0  0  0  0  0  0
   -6.3350   18.9900  -32.1880 C   0  0  0  0  0  0  0  0  0  0  0  0
   -7.3820   18.9190  -33.0570 N   0  0  0  0  0  0  0  0  0  0  0  0
   -7.7310   20.1060  -33.4690 N   0  0  0  0  0  0  0  0  0  0  0  0
   -6.9220   20.9780  -32.8810 C   0  0  0  0  0  0  0  0  0  0  0  0
   -6.9680   22.2460  -33.0500 O   0  0  0  0  0  0  0  0  0  0  0  0
   -6.0110   20.3070  -32.0500 C   0  0  0  0  0  0  0  0  0  0  0  0
   -4.9420   20.9620  -31.2360 C   0  0  2  0  0  0  0  0  0  0  0  0
   -5.3750   22.2730  -30.7640 C   0  0  0  0  0  0  0  0  0  0  0  0
   -6.5890   22.5800  -30.1960 C   0  0  0  0  0  0  0  0  0  0  0  0
   -6.9270   23.8490  -29.7680 C   0  0  0  0  0  0  0  0  0  0  0  0
   -6.0380   24.8990  -29.8920 C   0  0  0  0  0  0  0  0  0  0  0  0
   -6.3220   26.1910  -29.4800 O   0  0  0  0  0  0  0  0  0  0  0  0
   -4.8130   24.6210  -30.4570 C   0  0  0  0  0  0  0  0  0  0  0  0
   -3.8630   25.6440  -30.6130 O   0  0  0  0  0  0  0  0  0  0  0  0
   -4.4850   23.3560  -30.8810 C   0  0  0  0  0  0  0  0  0  0  0  0
   -3.6260   20.8940  -31.8900 C   0  0  0  0  0  0  0  0  0  0  0  0
   -2.5990   20.2800  -31.1650 C   0  0  0  0  0  0  0  0  0  0  0  0
   -1.3320   20.1510  -31.6790 C   0  0  0  0  0  0  0  0  0  0  0  0
   -1.0660   20.6410  -32.9490 C   0  0  0  0  0  0  0  0  0  0  0  0
    0.2240   20.4840  -33.4170 O   0  0  0  0  0  0  0  0  0  0  0  0
   -2.0600   21.2180  -33.6120 N   0  0  0  0  0  0  0  0  0  0  0  0
   -3.3130   21.3600  -33.1330 C   0  0  0  0  0  0  0  0  0  0  0  0
   -4.1630   21.9150  -33.8300 O   0  0  0  0  0  0  0  0  0  0  0  0
   -5.7926   17.9179  -30.4642 H   0  0  0  0  0  0  0  0  0  0  0  0
   -6.2911   16.9138  -31.8677 H   0  0  0  0  0  0  0  0  0  0  0  0
   -4.6883   17.7247  -31.8677 H   0  0  0  0  0  0  0  0  0  0  0  0
   -7.8680   18.0390  -33.3750 H   0  0  0  0  0  0  0  0  0  0  0  0
   -8.5020   20.3380  -34.1380 H   0  0  0  0  0  0  0  0  0  0  0  0
   -4.7791   20.3874  -30.3123 H   0  0  0  0  0  0  0  0  0  0  0  0
   -7.3283   21.7743  -30.0764 H   0  0  0  0  0  0  0  0  0  0  0  0
   -7.9171   24.0258  -29.3225 H   0  0  0  0  0  0  0  0  0  0  0  0
   -5.7610   26.6110  -28.7460 H   0  0  0  0  0  0  0  0  0  0  0  0
   -3.9040   26.4260  -29.9650 H   0  0  0  0  0  0  0  0  0  0  0  0
   -3.4940   23.1845  -31.3265 H   0  0  0  0  0  0  0  0  0  0  0  0
   -2.8116   19.8909  -30.1583 H   0  0  0  0  0  0  0  0  0  0  0  0
   -0.5388   19.6656  -31.0914 H   0  0  0  0  0  0  0  0  0  0  0  0
    0.8690   19.7730  -33.1640 H   0  0  0  0  0  0  0  0  0  0  0  0
   -1.8520   21.5850  -34.5690 H   0  0  0  0  0  0  0  0  0  0  0  0
  1  2  1  0
  2  3  1  0
  3  4  1  0
  4  5  1  0
  5  6  2  0
  5  7  1  0
  7  8  1  0
  8  9  1  0
  9 10  2  0
 10 11  1  0
 11 12  2  0
 12 13  1  0
 12 14  1  0
 14 15  1  0
 14 16  2  0
  8 17  1  0
 17 18  2  0
 18 19  1  0
 19 20  2  0
 20 21  1  0
 20 22  1  0
 22 23  1  0
 23 24  2  0
  7  2  2  0
 16  9  1  0
 23 17  1  0
  1 25  1  0
  1 26  1  0
  1 27  1  0
  3 28  1  0
  4 29  1  0
  8 30  1  1
 10 31  1  0
 11 32  1  0
 13 33  1  0
 15 34  1  0
 16 35  1  0
 18 36  1  0
 19 37  1  0
 21 38  1  0
 22 39  1  0
M  END
>  <smiles>  (28) 
Cc1[nH][nH]c(=O)c1C(c1ccc(O)c(O)c1)c1ccc(O)[nH]c1=O

>  <score_type>  (28) 
oracle

>  <origin>  (28) 
adgpu

>  <m_score__min__energy>  (28) 
-8.3100000000000005

>  <m_primary>  (28) 
energy

$$$$
28:0
     RDKit          3D

 31 32  0  0  0  0  0  0  0  0999 V2000
   -1.7597   22.9876  -32.1233 H   0  0  0  0  0  0  0  0  0  0  0  0
   -2.7440   22.6820  -31.7390 C   0  0  0  0  0  0  0  0  0  0  0  0
   -3.6230   22.2400  -32.5920 N   0  0  0  0  0  0  0  0  0  0  0  0
   -5.0040   21.9340  -32.3430 C   0  0  0  0  0  0  0  0  0  0  0  0
   -6.1860   23.0150  -31.8300 S   0  0  0  0  0  0  0  0  0  0  0  0
   -7.4880   21.9500  -31.9560 C   0  0  0  0  0  0  0  0  0  0  0  0
   -8.8840   22.3080  -31.6180 C   0  0  0  0  0  0  0  0  0  0  0  0
   -9.4750   23.2330  -32.2360 O   0  0  0  0  0  0  0  0  0  0  0  0
   -9.6170   21.5800  -30.5350 C   0  0  0  0  0  0  0  0  0  0  0  0
   -9.2641   21.9305  -29.5539 H   0  0  0  0  0  0  0  0  0  0  0  0
  -10.6957   21.7745  -30.6276 H   0  0  0  0  0  0  0  0  0  0  0  0
   -9.4299   20.5000  -30.6276 H   0  0  0  0  0  0  0  0  0  0  0  0
   -7.0070   20.7200  -32.4370 C   0  0  0  0  0  0  0  0  0  0  0  0
   -7.8870   19.5270  -32.6950 C   0  0  0  0  0  0  0  0  0  0  0  0
   -8.2070   19.0932  -31.7361 H   0  0  0  0  0  0  0  0  0  0  0  0
   -8.7714   19.8410  -33.2687 H   0  0  0  0  0  0  0  0  0  0  0  0
   -7.3259   18.7747  -33.2687 H   0  0  0  0  0  0  0  0  0  0  0  0
   -5.6130   20.7290  -32.6690 C   0  0  0  0  0  0  0  0  0  0  0  0
   -4.8710   19.6100  -33.1940 C   0  0  0  0  0  0  0  0  0  0  0  0
   -4.2740   18.7120  -33.6160 N   0  0  0  0  0  0  0  0  0  0  0  0
   -2.9880   22.7980  -30.2870 C   0  0  0  0  0  0  0  0  0  0  0  0
   -2.9220   21.6460  -29.4900 C   0  0  0  0  0  0  0  0  0  0  0  0
   -2.6820   20.6757  -29.9492 H   0  0  0  0  0  0  0  0  0  0  0  0
   -3.1600   21.7250  -28.1130 C   0  0  0  0  0  0  0  0  0  0  0  0
   -3.0520   20.2830  -27.1200 Cl  0  0  0  0  0  0  0  0  0  0  0  0
   -3.4860   22.9530  -27.5300 C   0  0  0  0  0  0  0  0  0  0  0  0
   -3.6648   23.0165  -26.4465 H   0  0  0  0  0  0  0  0  0  0  0  0
   -3.5850   24.1000  -28.3220 C   0  0  0  0  0  0  0  0  0  0  0  0
   -3.8500   25.0632  -27.8615 H   0  0  0  0  0  0  0  0  0  0  0  0
   -3.3480   24.0270  -29.6990 C   0  0  0  0  0  0  0  0  0  0  0  0
   -3.4850   25.1730  -30.4750 O   0  0  0  0  0  0  0  0  0  0  0  0
  1  2  1  0
  2  3  2  0
  3  4  1  0
  4  5  1  0
  5  6  1  0
  6  7  1  0
  7  8  2  0
  7  9  1  0
  9 10  1  0
  9 11  1  0
  9 12  1  0
  6 13  2  0
 13 14  1  0
 14 15  1  0
 14 16  1  0
 14 17  1  0
 13 18  1  0
 18 19  1  0
 19 20  3  0
  2 21  1  0
 21 22  2  0
 22 23  1  0
 22 24  1  0
 24 25  1  0
 24 26  2  0
 26 27  1  0
 26 28  1  0
 28 29  1  0
 28 30  2  0
 30 31  1  0
 18  4  2  0
 30 21  1  0
M  CHG  1  31  -1
M  END
>  <UniqueID>  (29) 
25

>  <SMILES>  (29) 
CC(=O)c1sc(/N=C\c2cc(Cl)ccc2[O-])c(C#N)c1C

>  <Energy>  (29) 
68.33502903494114

>  <Genealogy>  (29) 
CC(=O)c1sc(N=Cc2cc(Cl)ccc2[O-])c(C#N)c1C (protonated)
CC(=O)c1sc(/N=C\c2cc(Cl)ccc2[O-])c(C#N)c1C (cis-trans isomerization)
CC(=O)c1sc(/N=C\c2cc(Cl)ccc2[O-])c(C#N)c1C (3D coordinates assigned)
CC(=O)c1sc(/N=C\c2cc(Cl)ccc2[O-])c(C#N)c1C (optimized conformer: 68.33502903494114 kcal/mol)

>  <smiles>  (29) 
CC(=O)c1sc(N=Cc2cc(Cl)ccc2O)c(C#N)c1C

>  <score_type>  (29) 
oracle

>  <origin>  (29) 
adgpu

>  <m_score__min__energy>  (29) 
-11

>  <m_primary>  (29) 
energy

$$$$
29:0
     RDKit          3D

 42 44  0  0  0  0  0  0  0  0999 V2000
   -5.5080   26.4260  -30.4640 O   0  0  0  0  0  0  0  0  0  0  0  0
   -4.9340   25.3070  -30.5490 C   0  0  0  0  0  0  0  0  0  0  0  0
   -3.5290   25.2310  -30.2770 N   0  0  0  0  0  0  0  0  0  0  0  0
   -2.8460   24.0570  -29.7460 C   0  0  0  0  0  0  0  0  0  0  0  0
   -1.9150   24.4790  -28.6480 C   0  0  0  0  0  0  0  0  0  0  0  0
   -2.4170   24.9120  -27.4120 C   0  0  0  0  0  0  0  0  0  0  0  0
   -1.5410   25.3350  -26.4120 C   0  0  0  0  0  0  0  0  0  0  0  0
   -0.1670   25.3330  -26.6610 C   0  0  0  0  0  0  0  0  0  0  0  0
    0.3060   24.9290  -27.8690 N   0  0  0  0  0  0  0  0  0  0  0  0
   -0.5270   24.5110  -28.8590 C   0  0  0  0  0  0  0  0  0  0  0  0
   -5.7370   24.1150  -30.8860 C   0  0  0  0  0  0  0  0  0  0  0  0
   -6.8120   23.7190  -30.0750 C   0  0  0  0  0  0  0  0  0  0  0  0
   -7.5570   22.5820  -30.3990 C   0  0  0  0  0  0  0  0  0  0  0  0
   -7.2270   21.8180  -31.5260 C   0  0  0  0  0  0  0  0  0  0  0  0
   -8.1750   20.3850  -31.9170 S   0  0  0  0  0  0  0  0  0  0  0  0
   -8.4420   20.3350  -33.3970 O   0  0  0  0  0  0  0  0  0  0  0  0
   -9.4840   20.4680  -31.1840 O   0  0  0  0  0  0  0  0  0  0  0  0
   -7.3060   18.9490  -31.4190 N   0  0  0  0  0  0  0  0  0  0  0  0
   -5.8610   19.1330  -31.5910 C   0  0  0  0  0  0  0  0  0  0  0  0
   -5.4720   18.5830  -32.9550 C   0  0  0  0  0  0  0  0  0  0  0  0
   -6.6430   17.7290  -33.4010 C   0  0  0  0  0  0  0  0  0  0  0  0
   -7.6620   17.8110  -32.2740 C   0  0  0  0  0  0  0  0  0  0  0  0
   -6.1430   22.2000  -32.3260 C   0  0  0  0  0  0  0  0  0  0  0  0
   -5.3960   23.3380  -32.0040 C   0  0  0  0  0  0  0  0  0  0  0  0
   -3.5878   23.3495  -29.3470 H   0  0  0  0  0  0  0  0  0  0  0  0
   -2.2724   23.5702  -30.5485 H   0  0  0  0  0  0  0  0  0  0  0  0
   -3.5020   24.9181  -27.2310 H   0  0  0  0  0  0  0  0  0  0  0  0
   -1.9287   25.6667  -25.4375 H   0  0  0  0  0  0  0  0  0  0  0  0
    0.5335   25.6590  -25.8780 H   0  0  0  0  0  0  0  0  0  0  0  0
   -0.1124   24.1969  -29.8282 H   0  0  0  0  0  0  0  0  0  0  0  0
   -7.0690   24.3060  -29.1809 H   0  0  0  0  0  0  0  0  0  0  0  0
   -8.4065   22.2855  -29.7662 H   0  0  0  0  0  0  0  0  0  0  0  0
   -5.6126   20.2032  -31.5361 H   0  0  0  0  0  0  0  0  0  0  0  0
   -5.3130   18.6042  -30.7972 H   0  0  0  0  0  0  0  0  0  0  0  0
   -5.3036   19.4049  -33.6664 H   0  0  0  0  0  0  0  0  0  0  0  0
   -4.5395   18.0014  -32.9079 H   0  0  0  0  0  0  0  0  0  0  0  0
   -7.0710   18.1219  -34.3350 H   0  0  0  0  0  0  0  0  0  0  0  0
   -6.3376   16.6909  -33.5989 H   0  0  0  0  0  0  0  0  0  0  0  0
   -8.6687   17.9592  -32.6917 H   0  0  0  0  0  0  0  0  0  0  0  0
   -7.6589   16.8794  -31.6891 H   0  0  0  0  0  0  0  0  0  0  0  0
   -5.8779   21.6029  -33.2110 H   0  0  0  0  0  0  0  0  0  0  0  0
   -4.5379   23.6251  -32.6295 H   0  0  0  0  0  0  0  0  0  0  0  0
  1  2  2  0
  2  3  1  0
  3  4  1  0
  4  5  1  0
  5  6  2  0
  6  7  1  0
  7  8  2  0
  8  9  1  0
  9 10  2  0
  2 11  1  0
 11 12  2  0
 12 13  1  0
 13 14  2  0
 14 15  1  0
 15 16  2  0
 15 17  2  0
 15 18  1  0
 18 19  1  0
 19 20  1  0
 20 21  1  0
 21 22  1  0
 14 23  1  0
 23 24  2  0
 10  5  1  0
 24 11  1  0
 22 18  1  0
  4 25  1  0
  4 26  1  0
  6 27  1  0
  7 28  1  0
  8 29  1  0
 10 30  1  0
 12 31  1  0
 13 32  1  0
 19 33  1  0
 19 34  1  0
 20 35  1  0
 20 36  1  0
 21 37  1  0
 21 38  1  0
 22 39  1  0
 22 40  1  0
 23 41  1  0
 24 42  1  0
M  CHG  1   3  -1
M  END
>  <UniqueID>  (30) 
26

>  <SMILES>  (30) 
O=C([N-]Cc1cccnc1)c1ccc(S(=O)(=O)N2CCCC2)cc1

>  <Energy>  (30) 
48.427075739220925

>  <Genealogy>  (30) 
O=C([N-]Cc1cccnc1)c1ccc(S(=O)(=O)N2CCCC2)cc1 (protonated)
O=C([N-]Cc1cccnc1)c1ccc(S(=O)(=O)N2CCCC2)cc1 (3D coordinates assigned)
O=C([N-]Cc1cccnc1)c1ccc(S(=O)(=O)N2CCCC2)cc1 (nonaromatic ring conformer: 48.427075739220925 kcal/mol)

>  <smiles>  (30) 
O=C(NCc1cccnc1)c1ccc(S(=O)(=O)N2CCCC2)cc1

>  <score_type>  (30) 
oracle

>  <origin>  (30) 
adgpu

>  <m_score__min__energy>  (30) 
-11.06

>  <m_primary>  (30) 
energy

$$$$
30:0
     RDKit          3D

 57 60  0  0  0  0  0  0  0  0999 V2000
   -0.4480   30.5740  -27.0690 C   0  0  0  0  0  0  0  0  0  0  0  0
    0.2800   29.9540  -26.0160 O   0  0  0  0  0  0  0  0  0  0  0  0
   -0.0190   28.6930  -25.4800 C   0  0  0  0  0  0  0  0  0  0  0  0
    0.3400   28.4350  -24.1530 C   0  0  0  0  0  0  0  0  0  0  0  0
    0.0630   27.1960  -23.5730 C   0  0  0  0  0  0  0  0  0  0  0  0
   -0.5750   26.2010  -24.3150 C   0  0  0  0  0  0  0  0  0  0  0  0
   -0.9470   26.4350  -25.6510 C   0  0  0  0  0  0  0  0  0  0  0  0
   -1.5950   25.4020  -26.4250 N   0  0  0  0  0  0  0  0  0  0  0  0
   -0.8150   24.6420  -27.4140 C   0  0  0  0  0  0  0  0  0  0  0  0
   -1.5160   23.3380  -27.8060 C   0  0  0  0  0  0  0  0  0  0  0  0
   -2.9120   23.6020  -28.1730 N   0  0  0  0  0  0  0  0  0  0  0  0
   -3.5650   22.7440  -29.1290 C   0  0  0  0  0  0  0  0  0  0  0  0
   -3.1840   21.5480  -29.2570 O   0  0  0  0  0  0  0  0  0  0  0  0
   -4.6940   23.2270  -29.9490 C   0  0  0  0  0  0  0  0  0  0  0  0
   -5.8140   22.4020  -30.1380 C   0  0  0  0  0  0  0  0  0  0  0  0
   -6.9010   22.8410  -30.9060 C   0  0  0  0  0  0  0  0  0  0  0  0
   -8.2920   21.7870  -31.1410 S   0  0  0  0  0  0  0  0  0  0  0  0
   -9.1750   21.8620  -29.9260 O   0  0  0  0  0  0  0  0  0  0  0  0
   -9.0840   22.2430  -32.3360 O   0  0  0  0  0  0  0  0  0  0  0  0
   -7.7390   20.1470  -31.3590 N   0  0  0  0  0  0  0  0  0  0  0  0
   -6.5860   20.0900  -32.2580 C   0  0  0  0  0  0  0  0  0  0  0  0
   -6.6110   18.7160  -32.9100 C   0  0  0  0  0  0  0  0  0  0  0  0
   -8.0330   18.2090  -32.7270 C   0  0  0  0  0  0  0  0  0  0  0  0
   -8.7660   19.3190  -31.9890 C   0  0  0  0  0  0  0  0  0  0  0  0
   -6.8580   24.1040  -31.5100 C   0  0  0  0  0  0  0  0  0  0  0  0
   -5.7370   24.9210  -31.3460 C   0  0  0  0  0  0  0  0  0  0  0  0
   -4.6530   24.4870  -30.5780 C   0  0  0  0  0  0  0  0  0  0  0  0
   -3.5290   25.2990  -30.4700 O   0  0  0  0  0  0  0  0  0  0  0  0
   -3.7080   24.5710  -27.4020 C   0  0  0  0  0  0  0  0  0  0  0  0
   -2.9820   25.0130  -26.1270 C   0  0  0  0  0  0  0  0  0  0  0  0
   -0.6640   27.6870  -26.2260 C   0  0  0  0  0  0  0  0  0  0  0  0
   -1.2202   31.2316  -26.6432 H   0  0  0  0  0  0  0  0  0  0  0  0
    0.2389   31.1687  -27.6891 H   0  0  0  0  0  0  0  0  0  0  0  0
   -0.9257   29.8011  -27.6891 H   0  0  0  0  0  0  0  0  0  0  0  0
    0.8442   29.2140  -23.5623 H   0  0  0  0  0  0  0  0  0  0  0  0
    0.3483   27.0033  -22.5283 H   0  0  0  0  0  0  0  0  0  0  0  0
   -0.7885   25.2265  -23.8515 H   0  0  0  0  0  0  0  0  0  0  0  0
   -0.6818   25.2599  -28.3143 H   0  0  0  0  0  0  0  0  0  0  0  0
    0.1559   24.3879  -26.9637 H   0  0  0  0  0  0  0  0  0  0  0  0
   -0.9939   22.8887  -28.6636 H   0  0  0  0  0  0  0  0  0  0  0  0
   -1.4950   22.6484  -26.9493 H   0  0  0  0  0  0  0  0  0  0  0  0
   -5.8386   21.4025  -29.6794 H   0  0  0  0  0  0  0  0  0  0  0  0
   -6.6631   20.8753  -33.0244 H   0  0  0  0  0  0  0  0  0  0  0  0
   -5.6465   20.2516  -31.7091 H   0  0  0  0  0  0  0  0  0  0  0  0
   -6.3642   18.7927  -33.9792 H   0  0  0  0  0  0  0  0  0  0  0  0
   -5.8727   18.0358  -32.4602 H   0  0  0  0  0  0  0  0  0  0  0  0
   -8.5030   18.0205  -33.7035 H   0  0  0  0  0  0  0  0  0  0  0  0
   -8.0606   17.2604  -32.1707 H   0  0  0  0  0  0  0  0  0  0  0  0
   -9.3573   19.9194  -32.6960 H   0  0  0  0  0  0  0  0  0  0  0  0
   -9.4602   18.9085  -31.2410 H   0  0  0  0  0  0  0  0  0  0  0  0
   -7.7083   24.4530  -32.1144 H   0  0  0  0  0  0  0  0  0  0  0  0
   -5.7072   25.9113  -31.8239 H   0  0  0  0  0  0  0  0  0  0  0  0
   -3.8984   25.4548  -28.0286 H   0  0  0  0  0  0  0  0  0  0  0  0
   -4.6505   24.0852  -27.1093 H   0  0  0  0  0  0  0  0  0  0  0  0
   -3.5117   25.8722  -25.6896 H   0  0  0  0  0  0  0  0  0  0  0  0
   -2.9682   24.1714  -25.4188 H   0  0  0  0  0  0  0  0  0  0  0  0
   -0.9496   27.8829  -27.2701 H   0  0  0  0  0  0  0  0  0  0  0  0
  1  2  1  0
  2  3  1  0
  3  4  2  0
  4  5  1  0
  5  6  2  0
  6  7  1  0
  7  8  1  0
  8  9  1  0
  9 10  1  0
 10 11  1  0
 11 12  1  0
 12 13  2  0
 12 14  1  0
 14 15  2  0
 15 16  1  0
 16 17  1  0
 17 18  2  0
 17 19  2  0
 17 20  1  0
 20 21  1  0
 21 22  1  0
 22 23  1  0
 23 24  1  0
 16 25  2  0
 25 26  1  0
 26 27  2  0
 27 28  1  0
 11 29  1  0
 29 30  1  0
  7 31  2  0
 31  3  1  0
 30  8  1  0
 27 14  1  0
 24 20  1  0
  1 32  1  0
  1 33  1  0
  1 34  1  0
  4 35  1  0
  5 36  1  0
  6 37  1  0
  9 38  1  0
  9 39  1  0
 10 40  1  0
 10 41  1  0
 15 42  1  0
 21 43  1  0
 21 44  1  0
 22 45  1  0
 22 46  1  0
 23 47  1  0
 23 48  1  0
 24 49  1  0
 24 50  1  0
 25 51  1  0
 26 52  1  0
 29 53  1  0
 29 54  1  0
 30 55  1  0
 30 56  1  0
 31 57  1  0
M  CHG  1  28  -1
M  END
>  <UniqueID>  (31) 
27

>  <SMILES>  (31) 
COc1cccc(N2CCN(C(=O)c3cc(S(=O)(=O)N4CCCC4)ccc3[O-])CC2)c1

>  <Energy>  (31) 
68.5020338599527

>  <Genealogy>  (31) 
COc1cccc(N2CCN(C(=O)c3cc(S(=O)(=O)N4CCCC4)ccc3[O-])CC2)c1 (protonated)
COc1cccc(N2CCN(C(=O)c3cc(S(=O)(=O)N4CCCC4)ccc3[O-])CC2)c1 (3D coordinates assigned)
COc1cccc(N2CCN(C(=O)c3cc(S(=O)(=O)N4CCCC4)ccc3[O-])CC2)c1 (nonaromatic ring conformer: 68.5020338599527 kcal/mol)

>  <smiles>  (31) 
COc1cccc(N2CCN(C(=O)c3cc(S(=O)(=O)N4CCCC4)ccc3O)CC2)c1

>  <score_type>  (31) 
oracle

>  <origin>  (31) 
adgpu

>  <m_score__min__energy>  (31) 
-12.550000000000001

>  <m_primary>  (31) 
energy

$$$$
31:0
     RDKit          3D

 27 28  0  0  0  0  0  0  0  0999 V2000
   -4.5710   24.5870  -28.7970 O   0  0  0  0  0  0  0  0  0  0  0  0
   -4.3030   24.3820  -30.2610 S   0  0  0  0  0  0  0  0  0  0  0  0
   -4.3150   25.7180  -30.9500 O   0  0  0  0  0  0  0  0  0  0  0  0
   -2.7320   23.6730  -30.4540 N   0  0  0  0  0  0  0  0  0  0  0  0
   -1.7320   23.5750  -29.4290 C   0  0  0  0  0  0  0  0  0  0  0  0
   -1.0960   22.3540  -29.1340 C   0  0  0  0  0  0  0  0  0  0  0  0
   -0.1300   22.2870  -28.1250 C   0  0  0  0  0  0  0  0  0  0  0  0
    0.2110   23.4320  -27.4040 C   0  0  0  0  0  0  0  0  0  0  0  0
   -0.4120   24.6480  -27.6900 C   0  0  0  0  0  0  0  0  0  0  0  0
   -1.3810   24.7280  -28.6970 C   0  0  0  0  0  0  0  0  0  0  0  0
   -1.9830   25.9610  -28.9530 O   0  0  0  0  0  0  0  0  0  0  0  0
   -5.5410   23.3070  -30.9210 C   0  0  0  0  0  0  0  0  0  0  0  0
   -6.8870   23.4820  -30.5500 C   0  0  0  0  0  0  0  0  0  0  0  0
   -7.2490   24.4790  -29.7040 F   0  0  0  0  0  0  0  0  0  0  0  0
   -7.8720   22.6290  -31.0570 C   0  0  0  0  0  0  0  0  0  0  0  0
   -7.5270   21.6040  -31.9400 C   0  0  0  0  0  0  0  0  0  0  0  0
   -6.1950   21.4320  -32.3230 C   0  0  0  0  0  0  0  0  0  0  0  0
   -5.2030   22.2790  -31.8200 C   0  0  0  0  0  0  0  0  0  0  0  0
   -3.9200   22.0960  -32.2190 F   0  0  0  0  0  0  0  0  0  0  0  0
   -1.3602   21.4485  -29.6999 H   0  0  0  0  0  0  0  0  0  0  0  0
    0.3621   21.3295  -27.8992 H   0  0  0  0  0  0  0  0  0  0  0  0
    0.9706   23.3764  -26.6104 H   0  0  0  0  0  0  0  0  0  0  0  0
   -0.1398   25.5489  -27.1205 H   0  0  0  0  0  0  0  0  0  0  0  0
   -2.9130   26.0410  -29.3430 H   0  0  0  0  0  0  0  0  0  0  0  0
   -8.9221   22.7659  -30.7593 H   0  0  0  0  0  0  0  0  0  0  0  0
   -8.3039   20.9322  -32.3338 H   0  0  0  0  0  0  0  0  0  0  0  0
   -5.9255   20.6273  -33.0229 H   0  0  0  0  0  0  0  0  0  0  0  0
  1  2  2  0
  2  3  2  0
  2  4  1  0
  4  5  1  0
  5  6  2  0
  6  7  1  0
  7  8  2  0
  8  9  1  0
  9 10  2  0
 10 11  1  0
  2 12  1  0
 12 13  2  0
 13 14  1  0
 13 15  1  0
 15 16  2  0
 16 17  1  0
 17 18  2  0
 18 19  1  0
 10  5  1  0
 18 12  1  0
  6 20  1  0
  7 21  1  0
  8 22  1  0
  9 23  1  0
 11 24  1  0
 15 25  1  0
 16 26  1  0
 17 27  1  0
M  CHG  1   4  -1
M  END
>  <UniqueID>  (32) 
28

>  <SMILES>  (32) 
O=S(=O)([N-]c1ccccc1O)c1c(F)cccc1F

>  <Energy>  (32) 
32.81480748866029

>  <Genealogy>  (32) 
O=S(=O)([N-]c1ccccc1O)c1c(F)cccc1F (protonated)
O=S(=O)([N-]c1ccccc1O)c1c(F)cccc1F (3D coordinates assigned)
O=S(=O)([N-]c1ccccc1O)c1c(F)cccc1F (optimized conformer: 32.81480748866029 kcal/mol)

>  <smiles>  (32) 
O=S(=O)(Nc1ccccc1O)c1c(F)cccc1F

>  <score_type>  (32) 
oracle

>  <origin>  (32) 
adgpu

>  <m_score__min__energy>  (32) 
-8.25

>  <m_primary>  (32) 
energy

$$$$
32:0
     RDKit          3D

 55 58  0  0  0  0  0  0  0  0999 V2000
   -3.7710   25.2820  -30.5230 N   0  0  0  0  0  0  0  0  0  0  0  0
   -5.2700   24.9420  -29.7290 S   0  0  0  0  0  0  0  0  0  0  0  0
   -5.0040   24.5330  -28.3070 O   0  0  0  0  0  0  0  0  0  0  0  0
   -6.1270   26.1780  -29.7250 O   0  0  0  0  0  0  0  0  0  0  0  0
   -6.1030   23.6460  -30.5800 C   0  0  0  0  0  0  0  0  0  0  0  0
   -5.6590   23.2410  -31.8480 C   0  0  0  0  0  0  0  0  0  0  0  0
   -6.3030   22.1950  -32.5160 C   0  0  0  0  0  0  0  0  0  0  0  0
   -7.3990   21.5440  -31.9270 C   0  0  0  0  0  0  0  0  0  0  0  0
   -8.0550   20.3900  -32.6330 C   0  0  0  0  0  0  0  0  0  0  0  0
   -7.0590   19.6390  -33.3950 N   0  0  0  0  0  0  0  0  0  0  0  0
   -5.9030   19.0520  -32.7750 C   0  0  0  0  0  0  0  0  0  0  0  0
   -5.7240   19.1900  -31.5330 O   0  0  0  0  0  0  0  0  0  0  0  0
   -4.8930   18.3170  -33.5740 C   0  0  0  0  0  0  0  0  0  0  0  0
   -5.2270   17.7250  -34.8070 C   0  0  0  0  0  0  0  0  0  0  0  0
   -4.2570   17.0500  -35.5520 C   0  0  0  0  0  0  0  0  0  0  0  0
   -2.9480   16.9510  -35.0760 C   0  0  0  0  0  0  0  0  0  0  0  0
   -2.6030   17.5180  -33.8440 C   0  0  0  0  0  0  0  0  0  0  0  0
   -0.9400   17.4080  -33.2680 S   0  0  0  0  0  0  0  0  0  0  0  0
   -0.3150   16.1760  -33.8630 O   0  0  0  0  0  0  0  0  0  0  0  0
   -0.9240   17.2670  -31.7690 O   0  0  0  0  0  0  0  0  0  0  0  0
   -0.0240   18.8160  -33.7680 N   0  0  0  0  0  0  0  0  0  0  0  0
   -0.7260   19.6430  -34.7670 C   0  0  0  0  0  0  0  0  0  0  0  0
   -1.9870   20.3130  -34.2030 C   0  0  0  0  0  0  0  0  0  0  0  0
   -1.7660   20.8900  -32.8300 C   0  0  0  0  0  0  0  0  0  0  0  0
   -2.7300   21.7530  -32.2880 C   0  0  0  0  0  0  0  0  0  0  0  0
   -2.5760   22.2620  -30.9960 C   0  0  0  0  0  0  0  0  0  0  0  0
   -1.4640   21.9050  -30.2330 C   0  0  0  0  0  0  0  0  0  0  0  0
   -0.5040   21.0360  -30.7570 C   0  0  0  0  0  0  0  0  0  0  0  0
   -0.6560   20.5060  -32.0490 C   0  0  0  0  0  0  0  0  0  0  0  0
    0.4250   19.6140  -32.6130 C   0  0  0  0  0  0  0  0  0  0  0  0
   -3.5760   18.1950  -33.0940 C   0  0  0  0  0  0  0  0  0  0  0  0
   -7.8370   21.9460  -30.6540 C   0  0  0  0  0  0  0  0  0  0  0  0
   -7.1910   22.9900  -29.9850 C   0  0  0  0  0  0  0  0  0  0  0  0
   -3.9330   26.1150  -31.1360 H   0  0  0  0  0  0  0  0  0  0  0  0
   -4.8027   23.7474  -32.3174 H   0  0  0  0  0  0  0  0  0  0  0  0
   -5.9490   21.8802  -33.5088 H   0  0  0  0  0  0  0  0  0  0  0  0
   -8.5219   19.7264  -31.8903 H   0  0  0  0  0  0  0  0  0  0  0  0
   -8.8209   20.7761  -33.3217 H   0  0  0  0  0  0  0  0  0  0  0  0
   -7.1500   19.6400  -34.4360 H   0  0  0  0  0  0  0  0  0  0  0  0
   -6.2574   17.7944  -35.1858 H   0  0  0  0  0  0  0  0  0  0  0  0
   -4.5253   16.5949  -36.5169 H   0  0  0  0  0  0  0  0  0  0  0  0
   -2.1861   16.4260  -35.6709 H   0  0  0  0  0  0  0  0  0  0  0  0
   -0.0394   20.4266  -35.1199 H   0  0  0  0  0  0  0  0  0  0  0  0
   -1.0412   18.9786  -35.5851 H   0  0  0  0  0  0  0  0  0  0  0  0
   -2.2900   21.1236  -34.8821 H   0  0  0  0  0  0  0  0  0  0  0  0
   -2.7677   19.5424  -34.1209 H   0  0  0  0  0  0  0  0  0  0  0  0
   -3.6122   22.0306  -32.8836 H   0  0  0  0  0  0  0  0  0  0  0  0
   -3.3319   22.9445  -30.5803 H   0  0  0  0  0  0  0  0  0  0  0  0
   -1.3429   22.3085  -29.2169 H   0  0  0  0  0  0  0  0  0  0  0  0
    0.3757   20.7653  -30.1547 H   0  0  0  0  0  0  0  0  0  0  0  0
    1.2683   20.2449  -32.9307 H   0  0  0  0  0  0  0  0  0  0  0  0
    0.7126   18.9079  -31.8201 H   0  0  0  0  0  0  0  0  0  0  0  0
   -3.3071   18.6344  -32.1221 H   0  0  0  0  0  0  0  0  0  0  0  0
   -8.6909   21.4378  -30.1822 H   0  0  0  0  0  0  0  0  0  0  0  0
   -7.5374   23.2984  -28.9876 H   0  0  0  0  0  0  0  0  0  0  0  0
  1  2  1  0
  2  3  2  0
  2  4  2  0
  2  5  1  0
  5  6  2  0
  6  7  1  0
  7  8  2  0
  8  9  1  0
  9 10  1  0
 10 11  1  0
 11 12  2  0
 11 13  1  0
 13 14  2  0
 14 15  1  0
 15 16  2  0
 16 17  1  0
 17 18  1  0
 18 19  2  0
 18 20  2  0
 18 21  1  0
 21 22  1  0
 22 23  1  0
 23 24  1  0
 24 25  2  0
 25 26  1  0
 26 27  2  0
 27 28  1  0
 28 29  2  0
 29 30  1  0
 17 31  2  0
  8 32  1  0
 32 33  2  0
 33  5  1  0
 31 13  1  0
 30 21  1  0
 29 24  1  0
  1 34  1  0
  6 35  1  0
  7 36  1  0
  9 37  1  0
  9 38  1  0
 10 39  1  0
 14 40  1  0
 15 41  1  0
 16 42  1  0
 22 43  1  0
 22 44  1  0
 23 45  1  0
 23 46  1  0
 25 47  1  0
 26 48  1  0
 27 49  1  0
 28 50  1  0
 30 51  1  0
 30 52  1  0
 31 53  1  0
 32 54  1  0
 33 55  1  0
M  CHG  1   1  -1
M  END
>  <UniqueID>  (33) 
29

>  <SMILES>  (33) 
[NH-]S(=O)(=O)c1ccc(CNC(=O)c2cccc(S(=O)(=O)N3CCc4ccccc4C3)c2)cc1

>  <Energy>  (33) 
62.90335679356826

>  <Genealogy>  (33) 
[NH-]S(=O)(=O)c1ccc(CNC(=O)c2cccc(S(=O)(=O)N3CCc4ccccc4C3)c2)cc1 (protonated)
[NH-]S(=O)(=O)c1ccc(CNC(=O)c2cccc(S(=O)(=O)N3CCc4ccccc4C3)c2)cc1 (3D coordinates assigned)
[NH-]S(=O)(=O)c1ccc(CNC(=O)c2cccc(S(=O)(=O)N3CCc4ccccc4C3)c2)cc1 (nonaromatic ring conformer: 62.90335679356826 kcal/mol)

>  <smiles>  (33) 
NS(=O)(=O)c1ccc(CNC(=O)c2cccc(S(=O)(=O)N3CCc4ccccc4C3)c2)cc1

>  <score_type>  (33) 
oracle

>  <origin>  (33) 
adgpu

>  <m_score__min__energy>  (33) 
-12.630000000000001

>  <m_primary>  (33) 
energy

$$$$
33:0
     RDKit          3D

 53 57  0  0  0  0  0  0  0  0999 V2000
   -6.0150   17.7120  -34.9530 C   0  0  0  0  0  0  0  0  0  0  0  0
   -5.4840   18.6780  -33.9360 C   0  0  0  0  0  0  0  0  0  0  0  0
   -4.2140   19.1370  -34.1010 N   0  0  0  0  0  0  0  0  0  0  0  0
   -3.6290   20.0290  -33.2600 C   0  0  0  0  0  0  0  0  0  0  0  0
   -2.2130   20.4460  -33.5340 C   0  0  0  0  0  0  0  0  0  0  0  0
   -4.3660   20.5360  -32.1700 C   0  0  0  0  0  0  0  0  0  0  0  0
   -3.8020   21.5320  -31.2310 C   0  0  0  0  0  0  0  0  0  0  0  0
   -4.2950   22.8450  -31.2020 C   0  0  0  0  0  0  0  0  0  0  0  0
   -3.7680   23.7790  -30.3050 C   0  0  0  0  0  0  0  0  0  0  0  0
   -2.7400   23.4150  -29.4140 C   0  0  0  0  0  0  0  0  0  0  0  0
   -2.1640   24.3910  -28.4530 C   0  0  0  0  0  0  0  0  0  0  0  0
   -2.0730   24.1370  -27.1180 N   0  0  0  0  0  0  0  0  0  0  0  0
   -1.5030   25.2540  -26.6330 C   0  0  0  0  0  0  0  0  0  0  0  0
   -1.1730   25.5380  -25.3100 C   0  0  0  0  0  0  0  0  0  0  0  0
   -0.5750   26.7840  -25.0390 C   0  0  0  0  0  0  0  0  0  0  0  0
   -0.3270   27.7020  -26.0870 C   0  0  0  0  0  0  0  0  0  0  0  0
   -0.6740   27.3800  -27.4120 C   0  0  0  0  0  0  0  0  0  0  0  0
   -1.2640   26.1380  -27.6400 C   0  0  0  0  0  0  0  0  0  0  0  0
   -1.6740   25.6120  -28.8000 N   0  0  0  0  0  0  0  0  0  0  0  0
   -2.2610   22.0920  -29.4390 C   0  0  0  0  0  0  0  0  0  0  0  0
   -2.7890   21.1600  -30.3350 C   0  0  0  0  0  0  0  0  0  0  0  0
   -5.6680   20.0660  -31.9620 C   0  0  0  0  0  0  0  0  0  0  0  0
   -6.2500   19.1270  -32.8300 C   0  0  0  0  0  0  0  0  0  0  0  0
   -7.6320   18.6550  -32.5520 C   0  0  0  0  0  0  0  0  0  0  0  0
   -7.8640   17.4350  -32.3340 O   0  0  0  0  0  0  0  0  0  0  0  0
   -8.7100   19.5980  -32.5050 N   0  0  0  0  0  0  0  0  0  0  0  0
   -9.0740   20.3490  -31.3110 C   0  0  0  0  0  0  0  0  0  0  0  0
   -8.3310   21.6460  -31.2710 C   0  0  0  0  0  0  0  0  0  0  0  0
   -7.8860   22.2850  -30.1300 C   0  0  0  0  0  0  0  0  0  0  0  0
   -7.2820   23.4430  -30.5690 C   0  0  0  0  0  0  0  0  0  0  0  0
   -7.3990   23.4410  -31.9450 C   0  0  0  0  0  0  0  0  0  0  0  0
   -8.0300   22.3560  -32.3330 O   0  0  0  0  0  0  0  0  0  0  0  0
   -6.4836   16.8596  -34.4394 H   0  0  0  0  0  0  0  0  0  0  0  0
   -6.7625   18.2166  -35.5828 H   0  0  0  0  0  0  0  0  0  0  0  0
   -5.1884   17.3513  -35.5828 H   0  0  0  0  0  0  0  0  0  0  0  0
   -1.6856   20.6013  -32.5812 H   0  0  0  0  0  0  0  0  0  0  0  0
   -1.7042   19.6595  -34.1108 H   0  0  0  0  0  0  0  0  0  0  0  0
   -2.2117   21.3827  -34.1108 H   0  0  0  0  0  0  0  0  0  0  0  0
   -5.1011   23.1415  -31.8892 H   0  0  0  0  0  0  0  0  0  0  0  0
   -4.1597   24.8069  -30.2951 H   0  0  0  0  0  0  0  0  0  0  0  0
   -1.3723   24.8149  -24.5054 H   0  0  0  0  0  0  0  0  0  0  0  0
   -0.2991   27.0451  -24.0067 H   0  0  0  0  0  0  0  0  0  0  0  0
    0.1397   28.6729  -25.8645 H   0  0  0  0  0  0  0  0  0  0  0  0
   -0.4866   28.0825  -28.2374 H   0  0  0  0  0  0  0  0  0  0  0  0
   -1.6120   26.0560  -29.7420 H   0  0  0  0  0  0  0  0  0  0  0  0
   -1.4626   21.7889  -28.7457 H   0  0  0  0  0  0  0  0  0  0  0  0
   -2.4082   20.1280  -30.3381 H   0  0  0  0  0  0  0  0  0  0  0  0
   -6.2459   20.4386  -31.1034 H   0  0  0  0  0  0  0  0  0  0  0  0
  -10.1554   20.5499  -31.3236 H   0  0  0  0  0  0  0  0  0  0  0  0
   -8.8125   19.7577  -30.4211 H   0  0  0  0  0  0  0  0  0  0  0  0
   -7.9916   21.9418  -29.0903 H   0  0  0  0  0  0  0  0  0  0  0  0
   -6.8028   24.2142  -29.9481 H   0  0  0  0  0  0  0  0  0  0  0  0
   -7.0214   24.2281  -32.6143 H   0  0  0  0  0  0  0  0  0  0  0  0
  1  2  1  0
  2  3  2  0
  3  4  1  0
  4  5  1  0
  4  6  2  0
  6  7  1  0
  7  8  2  0
  8  9  1  0
  9 10  2  0
 10 11  1  0
 11 12  2  0
 12 13  1  0
 13 14  2  0
 14 15  1  0
 15 16  2  0
 16 17  1  0
 17 18  2  0
 18 19  1  0
 10 20  1  0
 20 21  2  0
  6 22  1  0
 22 23  2  0
 23 24  1  0
 24 25  2  0
 24 26  1  0
 26 27  1  0
 27 28  1  0
 28 29  2  0
 29 30  1  0
 30 31  2  0
 31 32  1  0
 23  2  1  0
 32 28  1  0
 21  7  1  0
 19 11  1  0
 18 13  1  0
  1 33  1  0
  1 34  1  0
  1 35  1  0
  5 36  1  0
  5 37  1  0
  5 38  1  0
  8 39  1  0
  9 40  1  0
 14 41  1  0
 15 42  1  0
 16 43  1  0
 17 44  1  0
 19 45  1  0
 20 46  1  0
 21 47  1  0
 22 48  1  0
 27 49  1  0
 27 50  1  0
 29 51  1  0
 30 52  1  0
 31 53  1  0
M  CHG  1  26  -1
M  END
>  <UniqueID>  (34) 
30

>  <SMILES>  (34) 
Cc1nc(C)c(-c2ccc(-c3nc4ccccc4[nH]3)cc2)cc1C(=O)[N-]Cc1ccco1

>  <Energy>  (34) 
130.83300997589575

>  <Genealogy>  (34) 
Cc1nc(C)c(-c2ccc(-c3nc4ccccc4[nH]3)cc2)cc1C(=O)[N-]Cc1ccco1 (protonated)
Cc1nc(C)c(-c2ccc(-c3nc4ccccc4[nH]3)cc2)cc1C(=O)[N-]Cc1ccco1 (3D coordinates assigned)
Cc1nc(C)c(-c2ccc(-c3nc4ccccc4[nH]3)cc2)cc1C(=O)[N-]Cc1ccco1 (optimized conformer: 130.83300997589575 kcal/mol)

>  <smiles>  (34) 
Cc1nc(C)c(-c2ccc(-c3nc4ccccc4[nH]3)cc2)cc1C(=O)NCc1ccco1

>  <score_type>  (34) 
oracle

>  <origin>  (34) 
adgpu

>  <m_score__min__energy>  (34) 
-11.69

>  <m_primary>  (34) 
energy

$$$$
34:0
     RDKit          3D

 36 37  0  0  0  0  0  0  0  0999 V2000
   -8.5700   22.2710  -31.5810 C   0  0  0  0  0  0  0  0  0  0  0  0
   -7.2420   22.9290  -31.3120 C   0  0  0  0  0  0  0  0  0  0  0  0
   -7.2320   24.1510  -30.6160 C   0  0  0  0  0  0  0  0  0  0  0  0
   -6.0330   24.8050  -30.3360 C   0  0  0  0  0  0  0  0  0  0  0  0
   -4.8130   24.2440  -30.7370 C   0  0  0  0  0  0  0  0  0  0  0  0
   -3.5570   24.8920  -30.4820 N   0  0  0  0  0  0  0  0  0  0  0  0
   -2.6190   24.5620  -29.4500 C   0  0  0  0  0  0  0  0  0  0  0  0
   -1.8820   25.4490  -28.9420 O   0  0  0  0  0  0  0  0  0  0  0  0
   -2.5530   23.1870  -28.9390 C   0  0  0  0  0  0  0  0  0  0  0  0
   -3.2470   22.6870  -27.8430 C   0  0  0  0  0  0  0  0  0  0  0  0
   -2.9850   21.3340  -27.5950 C   0  0  0  0  0  0  0  0  0  0  0  0
   -2.0870   20.7650  -28.4900 C   0  0  0  0  0  0  0  0  0  0  0  0
   -1.6210   21.9480  -29.5910 S   0  0  0  0  0  0  0  0  0  0  0  0
   -4.8150   23.0500  -31.4620 C   0  0  0  0  0  0  0  0  0  0  0  0
   -6.0120   22.3820  -31.7620 C   0  0  0  0  0  0  0  0  0  0  0  0
   -5.8810   20.8600  -32.6700 S   0  0  0  0  0  0  0  0  0  0  0  0
   -4.4910   20.7780  -33.2380 O   0  0  0  0  0  0  0  0  0  0  0  0
   -6.8510   20.8020  -33.8180 O   0  0  0  0  0  0  0  0  0  0  0  0
   -6.1410   19.5100  -31.5920 N   0  0  0  0  0  0  0  0  0  0  0  0
   -7.5600   19.1340  -31.6040 C   0  0  0  0  0  0  0  0  0  0  0  0
   -5.3170   18.3740  -32.0260 C   0  0  0  0  0  0  0  0  0  0  0  0
   -9.0592   22.0286  -30.6261 H   0  0  0  0  0  0  0  0  0  0  0  0
   -9.2090   22.9567  -32.1567 H   0  0  0  0  0  0  0  0  0  0  0  0
   -8.4115   21.3472  -32.1567 H   0  0  0  0  0  0  0  0  0  0  0  0
   -8.1827   24.5967  -30.2882 H   0  0  0  0  0  0  0  0  0  0  0  0
   -6.0446   25.7647  -29.7985 H   0  0  0  0  0  0  0  0  0  0  0  0
   -3.9326   23.2930  -27.2324 H   0  0  0  0  0  0  0  0  0  0  0  0
   -3.4469   20.7737  -26.7687 H   0  0  0  0  0  0  0  0  0  0  0  0
   -1.7407   19.7210  -28.4801 H   0  0  0  0  0  0  0  0  0  0  0  0
   -3.8598   22.6252  -31.8043 H   0  0  0  0  0  0  0  0  0  0  0  0
   -7.9226   19.0379  -30.5699 H   0  0  0  0  0  0  0  0  0  0  0  0
   -8.1404   19.9094  -32.1255 H   0  0  0  0  0  0  0  0  0  0  0  0
   -7.6803   18.1730  -32.1255 H   0  0  0  0  0  0  0  0  0  0  0  0
   -4.9314   17.8424  -31.1435 H   0  0  0  0  0  0  0  0  0  0  0  0
   -5.9283   17.6871  -32.6297 H   0  0  0  0  0  0  0  0  0  0  0  0
   -4.4742   18.7418  -32.6297 H   0  0  0  0  0  0  0  0  0  0  0  0
  1  2  1  0
  2  3  2  0
  3  4  1  0
  4  5  2  0
  5  6  1  0
  6  7  1  0
  7  8  2  0
  7  9  1  0
  9 10  2  0
 10 11  1  0
 11 12  2  0
 12 13  1  0
  5 14  1  0
 14 15  2  0
 15 16  1  0
 16 17  2  0
 16 18  2  0
 16 19  1  0
 19 20  1  0
 19 21  1  0
 15  2  1  0
 13  9  1  0
  1 22  1  0
  1 23  1  0
  1 24  1  0
  3 25  1  0
  4 26  1  0
 10 27  1  0
 11 28  1  0
 12 29  1  0
 14 30  1  0
 20 31  1  0
 20 32  1  0
 20 33  1  0
 21 34  1  0
 21 35  1  0
 21 36  1  0
M  CHG  1   6  -1
M  END
>  <UniqueID>  (35) 
31

>  <SMILES>  (35) 
Cc1ccc([N-]C(=O)c2cccs2)cc1S(=O)(=O)N(C)C

>  <Energy>  (35) 
65.11890550106637

>  <Genealogy>  (35) 
Cc1ccc([N-]C(=O)c2cccs2)cc1S(=O)(=O)N(C)C (protonated)
Cc1ccc([N-]C(=O)c2cccs2)cc1S(=O)(=O)N(C)C (3D coordinates assigned)
Cc1ccc([N-]C(=O)c2cccs2)cc1S(=O)(=O)N(C)C (optimized conformer: 65.11890550106637 kcal/mol)

>  <smiles>  (35) 
Cc1ccc(NC(=O)c2cccs2)cc1S(=O)(=O)N(C)C

>  <score_type>  (35) 
oracle

>  <origin>  (35) 
adgpu

>  <m_score__min__energy>  (35) 
-9.1600000000000001

>  <m_primary>  (35) 
energy

$$$$
35:0
     RDKit          3D

 63 66  0  0  0  0  0  0  0  0999 V2000
   -7.1720   19.4850  -32.4590 C   0  0  0  0  0  0  0  0  0  0  0  0
   -6.7360   20.7580  -31.7820 C   0  0  0  0  0  0  0  0  0  0  0  0
   -7.6030   21.3280  -30.8340 C   0  0  0  0  0  0  0  0  0  0  0  0
   -7.2640   22.5040  -30.1750 C   0  0  0  0  0  0  0  0  0  0  0  0
   -6.0520   23.1420  -30.4420 C   0  0  0  0  0  0  0  0  0  0  0  0
   -5.7750   24.3820  -29.7770 N   0  0  0  0  0  0  0  0  0  0  0  0
   -4.9320   25.4150  -30.2970 C   0  0  0  0  0  0  0  0  0  0  0  0
   -5.4510   26.4430  -30.8100 O   0  0  0  0  0  0  0  0  0  0  0  0
   -3.5070   25.2810  -30.2660 N   0  0  0  0  0  0  0  0  0  0  0  0
   -2.8130   24.3820  -29.3880 C   0  0  0  0  0  0  0  0  0  0  0  0
   -3.3260   24.1590  -28.1050 C   0  0  0  0  0  0  0  0  0  0  0  0
   -2.6260   23.3650  -27.1920 C   0  0  0  0  0  0  0  0  0  0  0  0
   -1.4050   22.7790  -27.5550 C   0  0  0  0  0  0  0  0  0  0  0  0
   -0.4770   21.8560  -26.3720 S   0  0  0  0  0  0  0  0  0  0  0  0
   -0.8620   22.3250  -24.9950 O   0  0  0  0  0  0  0  0  0  0  0  0
    0.9860   22.1510  -26.5650 O   0  0  0  0  0  0  0  0  0  0  0  0
   -0.7380   20.1280  -26.4760 N   0  0  0  0  0  0  0  0  0  0  0  0
   -2.0640   19.7150  -25.9730 C   0  0  0  0  0  0  0  0  0  0  0  0
   -3.0800   19.4710  -27.1070 C   0  0  0  0  0  0  0  0  0  0  0  0
   -2.7710   20.2670  -28.2310 O   0  0  0  0  0  0  0  0  0  0  0  0
   -1.5680   19.8110  -28.8260 C   0  0  0  0  0  0  0  0  0  0  0  0
   -0.4270   19.5780  -27.8090 C   0  0  0  0  0  0  0  0  0  0  0  0
   -0.9000   22.9830  -28.8480 C   0  0  0  0  0  0  0  0  0  0  0  0
   -1.6030   23.7700  -29.7620 C   0  0  0  0  0  0  0  0  0  0  0  0
   -5.1370   22.5570  -31.3480 C   0  0  0  0  0  0  0  0  0  0  0  0
   -3.8510   23.0840  -31.5070 O   0  0  0  0  0  0  0  0  0  0  0  0
   -5.4970   21.3970  -32.0690 C   0  0  0  0  0  0  0  0  0  0  0  0
   -4.3390   20.7700  -33.2730 S   0  0  0  0  0  0  0  0  0  0  0  0
   -4.9730   19.7720  -34.2030 O   0  0  0  0  0  0  0  0  0  0  0  0
   -3.8470   21.9200  -34.1090 O   0  0  0  0  0  0  0  0  0  0  0  0
   -2.9360   20.0180  -32.4370 C   0  0  0  0  0  0  0  0  0  0  0  0
   -2.4200   18.7870  -33.1980 C   0  0  0  0  0  0  0  0  0  0  0  0
   -1.1520   18.2110  -32.5290 C   0  0  0  0  0  0  0  0  0  0  0  0
   -0.6770   19.0160  -31.4580 O   0  0  0  0  0  0  0  0  0  0  0  0
   -0.4660   20.3410  -31.9070 C   0  0  0  0  0  0  0  0  0  0  0  0
   -1.8010   21.0390  -32.2440 C   0  0  0  0  0  0  0  0  0  0  0  0
   -7.4292   18.7342  -31.6974 H   0  0  0  0  0  0  0  0  0  0  0  0
   -8.0523   19.6866  -33.0870 H   0  0  0  0  0  0  0  0  0  0  0  0
   -6.3529   19.1046  -33.0870 H   0  0  0  0  0  0  0  0  0  0  0  0
   -8.5619   20.8373  -30.6107 H   0  0  0  0  0  0  0  0  0  0  0  0
   -7.9566   22.9351  -29.4372 H   0  0  0  0  0  0  0  0  0  0  0  0
   -4.2855   24.6111  -27.8135 H   0  0  0  0  0  0  0  0  0  0  0  0
   -3.0348   23.1992  -26.1844 H   0  0  0  0  0  0  0  0  0  0  0  0
   -1.9482   18.7846  -25.3978 H   0  0  0  0  0  0  0  0  0  0  0  0
   -2.4525   20.5330  -25.3486 H   0  0  0  0  0  0  0  0  0  0  0  0
   -3.0509   18.4101  -27.3963 H   0  0  0  0  0  0  0  0  0  0  0  0
   -4.0841   19.7400  -26.7473 H   0  0  0  0  0  0  0  0  0  0  0  0
   -1.7731   18.8619  -29.3428 H   0  0  0  0  0  0  0  0  0  0  0  0
   -1.2302   20.5975  -29.5169 H   0  0  0  0  0  0  0  0  0  0  0  0
   -0.2555   18.4957  -27.7129 H   0  0  0  0  0  0  0  0  0  0  0  0
    0.4671   20.0971  -28.1847 H   0  0  0  0  0  0  0  0  0  0  0  0
    0.0537   22.5209  -29.1428 H   0  0  0  0  0  0  0  0  0  0  0  0
   -1.2089   23.9121  -30.7791 H   0  0  0  0  0  0  0  0  0  0  0  0
   -3.6720   24.0750  -31.5770 H   0  0  0  0  0  0  0  0  0  0  0  0
   -3.2834   19.6855  -31.4477 H   0  0  0  0  0  0  0  0  0  0  0  0
   -3.2038   18.0153  -33.2066 H   0  0  0  0  0  0  0  0  0  0  0  0
   -2.1662   19.0915  -34.2241 H   0  0  0  0  0  0  0  0  0  0  0  0
   -1.3854   17.2095  -32.1385 H   0  0  0  0  0  0  0  0  0  0  0  0
   -0.3615   18.1786  -33.2932 H   0  0  0  0  0  0  0  0  0  0  0  0
    0.0461   20.9097  -31.1168 H   0  0  0  0  0  0  0  0  0  0  0  0
    0.1465   20.3045  -32.8199 H   0  0  0  0  0  0  0  0  0  0  0  0
   -2.0672   21.7186  -31.4210 H   0  0  0  0  0  0  0  0  0  0  0  0
   -1.6727   21.5955  -33.1841 H   0  0  0  0  0  0  0  0  0  0  0  0
  1  2  1  0
  2  3  2  0
  3  4  1  0
  4  5  2  0
  5  6  1  0
  6  7  1  0
  7  8  2  0
  7  9  1  0
  9 10  1  0
 10 11  2  0
 11 12  1  0
 12 13  2  0
 13 14  1  0
 14 15  2  0
 14 16  2  0
 14 17  1  0
 17 18  1  0
 18 19  1  0
 19 20  1  0
 20 21  1  0
 21 22  1  0
 13 23  1  0
 23 24  2  0
  5 25  1  0
 25 26  1  0
 25 27  2  0
 27 28  1  0
 28 29  2  0
 28 30  2  0
 28 31  1  0
 31 32  1  0
 32 33  1  0
 33 34  1  0
 34 35  1  0
 35 36  1  0
 27  2  1  0
 36 31  1  0
 24 10  1  0
 22 17  1  0
  1 37  1  0
  1 38  1  0
  1 39  1  0
  3 40  1  0
  4 41  1  0
 11 42  1  0
 12 43  1  0
 18 44  1  0
 18 45  1  0
 19 46  1  0
 19 47  1  0
 21 48  1  0
 21 49  1  0
 22 50  1  0
 22 51  1  0
 23 52  1  0
 24 53  1  0
 26 54  1  0
 31 55  1  0
 32 56  1  0
 32 57  1  0
 33 58  1  0
 33 59  1  0
 35 60  1  0
 35 61  1  0
 36 62  1  0
 36 63  1  0
M  CHG  2   6  -1   9  -1
M  END
>  <UniqueID>  (36) 
32

>  <SMILES>  (36) 
Cc1ccc([N-]C(=O)[N-]c2ccc(S(=O)(=O)N3CCOCC3)cc2)c(O)c1S(=O)(=O)C1CCOCC1

>  <Energy>  (36) 
96.70354820210574

>  <Genealogy>  (36) 
Cc1ccc([N-]C(=O)[N-]c2ccc(S(=O)(=O)N3CCOCC3)cc2)c(O)c1S(=O)(=O)C1CCOCC1 (protonated)
Cc1ccc([N-]C(=O)[N-]c2ccc(S(=O)(=O)N3CCOCC3)cc2)c(O)c1S(=O)(=O)C1CCOCC1 (3D coordinates assigned)
Cc1ccc([N-]C(=O)[N-]c2ccc(S(=O)(=O)N3CCOCC3)cc2)c(O)c1S(=O)(=O)C1CCOCC1 (nonaromatic ring conformer: 96.70354820210574 kcal/mol)

>  <smiles>  (36) 
Cc1ccc(NC(=O)Nc2ccc(S(=O)(=O)N3CCOCC3)cc2)c(O)c1S(=O)(=O)C1CCOCC1

>  <score_type>  (36) 
oracle

>  <origin>  (36) 
adgpu

>  <m_score__min__energy>  (36) 
-14.550000000000001

>  <m_primary>  (36) 
energy

$$$$
36:0
     RDKit          3D

 40 42  0  0  0  0  0  0  0  0999 V2000
   -5.6130   24.2650  -32.0040 O   0  0  0  0  0  0  0  0  0  0  0  0
   -5.0590   23.2080  -31.6040 C   0  0  0  0  0  0  0  0  0  0  0  0
   -5.2660   21.9940  -32.3380 N   0  0  0  0  0  0  0  0  0  0  0  0
   -6.4330   21.1610  -32.2560 C   0  0  0  0  0  0  0  0  0  0  0  0
   -7.6580   21.7460  -31.9110 C   0  0  0  0  0  0  0  0  0  0  0  0
   -8.8210   20.9720  -31.8540 C   0  0  0  0  0  0  0  0  0  0  0  0
  -10.0060   21.5510  -31.5430 F   0  0  0  0  0  0  0  0  0  0  0  0
   -8.7620   19.6020  -32.1210 C   0  0  0  0  0  0  0  0  0  0  0  0
   -7.5380   19.0010  -32.4280 C   0  0  0  0  0  0  0  0  0  0  0  0
   -7.4790   17.6640  -32.6490 F   0  0  0  0  0  0  0  0  0  0  0  0
   -6.3720   19.7720  -32.4910 C   0  0  0  0  0  0  0  0  0  0  0  0
   -5.1870   19.1590  -32.7340 F   0  0  0  0  0  0  0  0  0  0  0  0
   -4.1980   23.2510  -30.3990 C   0  0  0  0  0  0  0  0  0  0  0  0
   -3.9730   22.0740  -29.6670 C   0  0  0  0  0  0  0  0  0  0  0  0
   -3.0850   22.0700  -28.5890 C   0  0  0  0  0  0  0  0  0  0  0  0
   -2.4100   23.2390  -28.2230 C   0  0  0  0  0  0  0  0  0  0  0  0
   -1.4360   23.1770  -27.1720 N   0  0  0  0  0  0  0  0  0  0  0  0
   -0.0090   24.1600  -27.1100 S   0  0  0  0  0  0  0  0  0  0  0  0
    0.3900   24.5470  -28.5050 O   0  0  0  0  0  0  0  0  0  0  0  0
    1.1070   23.3730  -26.4800 O   0  0  0  0  0  0  0  0  0  0  0  0
   -0.3480   25.6230  -26.1880 C   0  0  0  0  0  0  0  0  0  0  0  0
   -0.2810   26.8870  -26.7940 C   0  0  0  0  0  0  0  0  0  0  0  0
   -0.4940   28.0410  -26.0330 C   0  0  0  0  0  0  0  0  0  0  0  0
   -0.7800   27.9390  -24.6690 C   0  0  0  0  0  0  0  0  0  0  0  0
   -0.8570   26.6820  -24.0640 C   0  0  0  0  0  0  0  0  0  0  0  0
   -0.6400   25.5260  -24.8190 C   0  0  0  0  0  0  0  0  0  0  0  0
   -2.6880   24.4350  -28.9060 C   0  0  0  0  0  0  0  0  0  0  0  0
   -3.5820   24.4480  -29.9840 C   0  0  0  0  0  0  0  0  0  0  0  0
   -3.8640   25.6500  -30.6320 O   0  0  0  0  0  0  0  0  0  0  0  0
   -7.7054   22.8212  -31.6835 H   0  0  0  0  0  0  0  0  0  0  0  0
   -9.6794   18.9959  -32.0896 H   0  0  0  0  0  0  0  0  0  0  0  0
   -4.4996   21.1490  -29.9445 H   0  0  0  0  0  0  0  0  0  0  0  0
   -2.9154   21.1414  -28.0242 H   0  0  0  0  0  0  0  0  0  0  0  0
   -0.0608   26.9702  -27.8685 H   0  0  0  0  0  0  0  0  0  0  0  0
   -0.4363   29.0309  -26.5092 H   0  0  0  0  0  0  0  0  0  0  0  0
   -0.9444   28.8480  -24.0718 H   0  0  0  0  0  0  0  0  0  0  0  0
   -1.0888   26.6020  -22.9917 H   0  0  0  0  0  0  0  0  0  0  0  0
   -0.6983   24.5380  -24.3389 H   0  0  0  0  0  0  0  0  0  0  0  0
   -2.1994   25.3690  -28.5914 H   0  0  0  0  0  0  0  0  0  0  0  0
   -4.1690   25.6770  -31.5980 H   0  0  0  0  0  0  0  0  0  0  0  0
  1  2  2  0
  2  3  1  0
  3  4  1  0
  4  5  2  0
  5  6  1  0
  6  7  1  0
  6  8  2  0
  8  9  1  0
  9 10  1  0
  9 11  2  0
 11 12  1  0
  2 13  1  0
 13 14  2  0
 14 15  1  0
 15 16  2  0
 16 17  1  0
 17 18  1  0
 18 19  2  0
 18 20  2  0
 18 21  1  0
 21 22  2  0
 22 23  1  0
 23 24  2  0
 24 25  1  0
 25 26  2  0
 16 27  1  0
 27 28  2  0
 28 29  1  0
 11  4  1  0
 28 13  1  0
 26 21  1  0
  5 30  1  0
  8 31  1  0
 14 32  1  0
 15 33  1  0
 22 34  1  0
 23 35  1  0
 24 36  1  0
 25 37  1  0
 26 38  1  0
 27 39  1  0
 29 40  1  0
M  CHG  2   3  -1  17  -1
M  END
>  <UniqueID>  (37) 
33

>  <SMILES>  (37) 
O=C([N-]c1cc(F)cc(F)c1F)c1ccc([N-]S(=O)(=O)c2ccccc2)cc1O

>  <Energy>  (37) 
54.07622921837644

>  <Genealogy>  (37) 
O=C([N-]c1cc(F)cc(F)c1F)c1ccc([N-]S(=O)(=O)c2ccccc2)cc1O (protonated)
O=C([N-]c1cc(F)cc(F)c1F)c1ccc([N-]S(=O)(=O)c2ccccc2)cc1O (3D coordinates assigned)
O=C([N-]c1cc(F)cc(F)c1F)c1ccc([N-]S(=O)(=O)c2ccccc2)cc1O (optimized conformer: 54.07622921837644 kcal/mol)

>  <smiles>  (37) 
O=C(Nc1cc(F)cc(F)c1F)c1ccc(NS(=O)(=O)c2ccccc2)cc1O

>  <score_type>  (37) 
oracle

>  <origin>  (37) 
adgpu

>  <m_score__min__energy>  (37) 
-10.630000000000001

>  <m_primary>  (37) 
energy

$$$$
37:0
     RDKit          3D

 54 57  0  0  1  0  0  0  0  0999 V2000
    0.1080   28.6810  -24.6140 C   0  0  0  0  0  0  0  0  0  0  0  0
   -0.4280   27.6050  -25.4770 C   0  0  0  0  0  0  0  0  0  0  0  0
    0.2530   27.0210  -26.5400 C   0  0  0  0  0  0  0  0  0  0  0  0
   -0.5990   26.0740  -27.0680 C   0  0  0  0  0  0  0  0  0  0  0  0
   -0.3250   25.3140  -28.0750 N   0  0  0  0  0  0  0  0  0  0  0  0
   -1.2730   24.3540  -28.5580 C   0  0  0  0  0  0  0  0  0  0  0  0
   -1.2250   23.0470  -28.1240 C   0  0  0  0  0  0  0  0  0  0  0  0
   -2.1150   22.0860  -28.5580 C   0  0  0  0  0  0  0  0  0  0  0  0
   -2.0780   20.7470  -28.1240 N   0  0  0  0  0  0  0  0  0  0  0  0
   -1.1300   19.7780  -28.6600 C   0  0  0  0  0  0  0  0  0  0  0  0
   -0.5600   19.0160  -27.5040 C   0  0  0  0  0  0  0  0  0  0  0  0
   -1.5260   18.4270  -26.6290 N   0  0  0  0  0  0  0  0  0  0  0  0
   -2.8840   18.8410  -26.8460 C   0  0  0  0  0  0  0  0  0  0  0  0
   -3.0260   20.3280  -27.1030 C   0  0  0  0  0  0  0  0  0  0  0  0
   -3.0520   22.4820  -29.4410 N   0  0  0  0  0  0  0  0  0  0  0  0
   -3.1200   23.7520  -29.8810 C   0  0  0  0  0  0  0  0  0  0  0  0
   -4.0030   24.1680  -30.7260 N   0  0  0  0  0  0  0  0  0  0  0  0
   -4.9700   23.2420  -31.2330 C   0  0  0  0  0  0  0  0  0  0  0  0
   -4.3560   22.1560  -32.0390 C   0  0  0  0  0  0  0  0  0  0  0  0
   -5.1570   21.1430  -32.5440 C   0  0  0  0  0  0  0  0  0  0  0  0
   -4.6930   20.1050  -33.2940 C   0  0  0  0  0  0  0  0  0  0  0  0
   -3.3560   20.0420  -33.5740 C   0  0  0  0  0  0  0  0  0  0  0  0
   -2.5230   21.0340  -33.0880 C   0  0  0  0  0  0  0  0  0  0  0  0
   -1.0640   20.9290  -33.4170 C   0  0  0  0  0  0  0  0  0  0  0  0
   -0.7100   19.6180  -33.5180 F   0  0  0  0  0  0  0  0  0  0  0  0
   -0.2960   21.4990  -32.4150 F   0  0  0  0  0  0  0  0  0  0  0  0
   -0.7780   21.5280  -34.6300 F   0  0  0  0  0  0  0  0  0  0  0  0
   -3.0080   22.0910  -32.3230 C   0  0  0  0  0  0  0  0  0  0  0  0
   -2.2310   24.6890  -29.4390 N   0  0  0  0  0  0  0  0  0  0  0  0
   -1.7550   26.0880  -26.3450 N   0  0  0  0  0  0  0  0  0  0  0  0
   -1.6380   27.0030  -25.4040 N   0  0  0  0  0  0  0  0  0  0  0  0
   -0.0289   28.4062  -23.5577 H   0  0  0  0  0  0  0  0  0  0  0  0
    1.1796   28.8178  -24.8214 H   0  0  0  0  0  0  0  0  0  0  0  0
   -0.4283   29.6188  -24.8214 H   0  0  0  0  0  0  0  0  0  0  0  0
    1.2671   27.2654  -26.8892 H   0  0  0  0  0  0  0  0  0  0  0  0
   -0.4462   22.7583  -27.4029 H   0  0  0  0  0  0  0  0  0  0  0  0
   -1.6449   19.0893  -29.3460 H   0  0  0  0  0  0  0  0  0  0  0  0
   -0.3311   20.2873  -29.2189 H   0  0  0  0  0  0  0  0  0  0  0  0
    0.0719   18.2101  -27.9056 H   0  0  0  0  0  0  0  0  0  0  0  0
   -0.0052   19.7480  -26.8988 H   0  0  0  0  0  0  0  0  0  0  0  0
   -1.5270   17.3840  -26.6500 H   0  0  0  0  0  0  0  0  0  0  0  0
   -3.2794   18.2973  -27.7167 H   0  0  0  0  0  0  0  0  0  0  0  0
   -3.4433   18.6155  -25.9260 H   0  0  0  0  0  0  0  0  0  0  0  0
   -4.0491   20.5429  -27.4451 H   0  0  0  0  0  0  0  0  0  0  0  0
   -2.8220   20.8774  -26.1721 H   0  0  0  0  0  0  0  0  0  0  0  0
   -5.5043   22.7910  -30.3838 H   0  0  0  0  0  0  0  0  0  0  0  0
   -5.6511   23.8004  -31.8920 H   0  0  0  0  0  0  0  0  0  0  0  0
   -6.2344   21.1800  -32.3253 H   0  0  0  0  0  0  0  0  0  0  0  0
   -5.3808   19.3320  -33.6674 H   0  0  0  0  0  0  0  0  0  0  0  0
   -2.9494   19.2160  -34.1759 H   0  0  0  0  0  0  0  0  0  0  0  0
   -2.3232   22.8663  -31.9489 H   0  0  0  0  0  0  0  0  0  0  0  0
   -2.2940   25.6710  -29.7880 H   0  0  0  0  0  0  0  0  0  0  0  0
   -2.5950   25.4800  -26.5050 H   0  0  0  0  0  0  0  0  0  0  0  0
   -2.3700   27.2470  -24.6850 H   0  0  0  0  0  0  0  0  0  0  0  0
  1  2  1  0
  2  3  2  0
  3  4  1  0
  4  5  2  0
  5  6  1  0
  6  7  2  0
  7  8  1  0
  8  9  1  0
  9 10  1  0
 10 11  1  0
 11 12  1  0
 12 13  1  0
 13 14  1  0
  8 15  2  0
 15 16  1  0
 16 17  2  0
 17 18  1  0
 18 19  1  0
 19 20  2  0
 20 21  1  0
 21 22  2  0
 22 23  1  0
 23 24  1  0
 24 25  1  0
 24 26  1  0
 24 27  1  0
 23 28  2  0
 16 29  1  0
  4 30  1  0
 30 31  1  0
 31  2  1  0
 29  6  1  0
 14  9  1  0
 28 19  1  0
  1 32  1  0
  1 33  1  0
  1 34  1  0
  3 35  1  0
  7 36  1  0
 10 37  1  0
 10 38  1  0
 11 39  1  0
 11 40  1  0
 12 41  1  0
 13 42  1  0
 13 43  1  0
 14 44  1  0
 14 45  1  0
 18 46  1  0
 18 47  1  0
 20 48  1  0
 21 49  1  0
 22 50  1  0
 28 51  1  0
 29 52  1  0
 30 53  1  0
 31 54  1  0
M  END
>  <smiles>  (38) 
Cc1cc(=Nc2cc(N3CCNCC3)nc(=NCc3cccc(C(F)(F)F)c3)[nH]2)[nH][nH]1

>  <score_type>  (38) 
oracle

>  <origin>  (38) 
adgpu

>  <m_score__min__energy>  (38) 
-9.2799999999999994

>  <m_primary>  (38) 
energy

$$$$
38:0
     RDKit          3D

 42 44  0  0  0  0  0  0  0  0999 V2000
   -3.1700   25.6780  -31.6130 H   0  0  0  0  0  0  0  0  0  0  0  0
   -3.8540   25.6600  -30.8650 O   0  0  0  0  0  0  0  0  0  0  0  0
   -4.6590   24.5460  -30.6350 C   0  0  0  0  0  0  0  0  0  0  0  0
   -5.9560   24.5010  -31.1670 C   0  0  0  0  0  0  0  0  0  0  0  0
   -6.3302   25.3456  -31.7642 H   0  0  0  0  0  0  0  0  0  0  0  0
   -6.7790   23.3890  -30.9440 C   0  0  0  0  0  0  0  0  0  0  0  0
   -8.1180   23.3400  -31.5650 C   0  0  0  0  0  0  0  0  0  0  0  0
   -8.6855   24.2799  -31.6325 H   0  0  0  0  0  0  0  0  0  0  0  0
   -8.6910   22.2280  -32.0530 C   0  0  0  0  0  0  0  0  0  0  0  0
   -9.7384   22.2978  -32.3817 H   0  0  0  0  0  0  0  0  0  0  0  0
   -8.0190   20.9150  -32.1820 C   0  0  0  0  0  0  0  0  0  0  0  0
   -6.8390   20.8220  -32.9380 C   0  0  0  0  0  0  0  0  0  0  0  0
   -6.4304   21.7177  -33.4287 H   0  0  0  0  0  0  0  0  0  0  0  0
   -6.1820   19.5950  -33.0690 C   0  0  0  0  0  0  0  0  0  0  0  0
   -5.2677   19.5243  -33.6765 H   0  0  0  0  0  0  0  0  0  0  0  0
   -6.6840   18.4580  -32.4300 C   0  0  0  0  0  0  0  0  0  0  0  0
   -6.1685   17.4926  -32.5406 H   0  0  0  0  0  0  0  0  0  0  0  0
   -7.8400   18.5470  -31.6510 C   0  0  0  0  0  0  0  0  0  0  0  0
   -8.2291   17.6534  -31.1409 H   0  0  0  0  0  0  0  0  0  0  0  0
   -8.5030   19.7710  -31.5190 C   0  0  0  0  0  0  0  0  0  0  0  0
   -9.4061   19.8404  -30.8948 H   0  0  0  0  0  0  0  0  0  0  0  0
   -6.3260   22.3560  -30.1070 C   0  0  0  0  0  0  0  0  0  0  0  0
   -6.9899   21.5114  -29.8707 H   0  0  0  0  0  0  0  0  0  0  0  0
   -5.0370   22.3970  -29.5740 C   0  0  0  0  0  0  0  0  0  0  0  0
   -4.6901   21.5820  -28.9217 H   0  0  0  0  0  0  0  0  0  0  0  0
   -4.1810   23.4680  -29.8630 C   0  0  0  0  0  0  0  0  0  0  0  0
   -2.8180   23.4100  -29.4090 N   0  0  0  0  0  0  0  0  0  0  0  0
   -2.0790   23.8140  -30.0270 H   0  0  0  0  0  0  0  0  0  0  0  0
   -2.4630   23.1950  -28.0030 C   0  0  0  0  0  0  0  0  0  0  0  0
   -1.6164   23.8464  -27.7404 H   0  0  0  0  0  0  0  0  0  0  0  0
   -3.3355   23.4333  -27.3769 H   0  0  0  0  0  0  0  0  0  0  0  0
   -2.0740   21.7580  -27.7670 C   0  0  0  0  0  0  0  0  0  0  0  0
   -3.0480   20.8000  -27.4340 C   0  0  0  0  0  0  0  0  0  0  0  0
   -4.1088   21.0880  -27.3911 H   0  0  0  0  0  0  0  0  0  0  0  0
   -2.6710   19.4810  -27.1570 C   0  0  0  0  0  0  0  0  0  0  0  0
   -3.4363   18.7334  -26.9011 H   0  0  0  0  0  0  0  0  0  0  0  0
   -1.3240   19.1120  -27.2050 C   0  0  0  0  0  0  0  0  0  0  0  0
   -1.0302   18.0750  -26.9851 H   0  0  0  0  0  0  0  0  0  0  0  0
   -0.3500   20.0590  -27.5320 C   0  0  0  0  0  0  0  0  0  0  0  0
    0.7100   19.7672  -27.5685 H   0  0  0  0  0  0  0  0  0  0  0  0
   -0.7220   21.3780  -27.8130 C   0  0  0  0  0  0  0  0  0  0  0  0
    0.0472   22.1208  -28.0711 H   0  0  0  0  0  0  0  0  0  0  0  0
  1  2  1  0
  2  3  1  0
  3  4  2  0
  4  5  1  0
  4  6  1  0
  6  7  1  0
  7  8  1  0
  7  9  2  0
  9 10  1  0
  9 11  1  0
 11 12  2  0
 12 13  1  0
 12 14  1  0
 14 15  1  0
 14 16  2  0
 16 17  1  0
 16 18  1  0
 18 19  1  0
 18 20  2  0
 20 21  1  0
  6 22  2  0
 22 23  1  0
 22 24  1  0
 24 25  1  0
 24 26  2  0
 26 27  1  0
 27 28  1  0
 27 29  1  0
 29 30  1  0
 29 31  1  0
 29 32  1  0
 32 33  2  0
 33 34  1  0
 33 35  1  0
 35 36  1  0
 35 37  2  0
 37 38  1  0
 37 39  1  0
 39 40  1  0
 39 41  2  0
 41 42  1  0
 26  3  1  0
 41 32  1  0
 20 11  1  0
M  END
>  <UniqueID>  (39) 
34

>  <SMILES>  (39) 
Oc1cc(/C=C\c2ccccc2)ccc1NCc1ccccc1

>  <Energy>  (39) 
54.78757084575124

>  <Genealogy>  (39) 
Oc1cc(/C=C\c2ccccc2)ccc1NCc1ccccc1 (cis-trans isomerization)
Oc1cc(/C=C\c2ccccc2)ccc1NCc1ccccc1 (3D coordinates assigned)
Oc1cc(/C=C\c2ccccc2)ccc1NCc1ccccc1 (optimized conformer: 54.78757084575124 kcal/mol)

>  <smiles>  (39) 
Oc1cc(C=Cc2ccccc2)ccc1NCc1ccccc1

>  <score_type>  (39) 
oracle

>  <origin>  (39) 
adgpu

>  <m_score__min__energy>  (39) 
-9.7799999999999994

>  <m_primary>  (39) 
energy

$$$$
39:0
     RDKit          3D

 57 60  0  0  0  0  0  0  0  0999 V2000
   -4.2400   23.1770  -27.4840 C   0  0  0  0  0  0  0  0  0  0  0  0
   -3.1090   22.4830  -28.1970 C   0  0  0  0  0  0  0  0  0  0  0  0
   -2.8510   21.1290  -27.9080 C   0  0  0  0  0  0  0  0  0  0  0  0
   -1.8000   20.4570  -28.5340 C   0  0  0  0  0  0  0  0  0  0  0  0
   -0.9970   21.1210  -29.4590 C   0  0  0  0  0  0  0  0  0  0  0  0
   -1.2460   22.4600  -29.7680 C   0  0  0  0  0  0  0  0  0  0  0  0
   -2.3000   23.1550  -29.1490 C   0  0  0  0  0  0  0  0  0  0  0  0
   -2.5360   24.5720  -29.5240 C   0  0  0  0  0  0  0  0  0  0  0  0
   -1.8720   25.4840  -28.9640 O   0  0  0  0  0  0  0  0  0  0  0  0
   -3.5650   24.9410  -30.4510 N   0  0  0  0  0  0  0  0  0  0  0  0
   -4.7770   24.2120  -30.6940 C   0  0  0  0  0  0  0  0  0  0  0  0
   -5.8790   24.4300  -29.8590 C   0  0  0  0  0  0  0  0  0  0  0  0
   -7.0750   23.7370  -30.0740 C   0  0  0  0  0  0  0  0  0  0  0  0
   -7.1870   22.8340  -31.1390 C   0  0  0  0  0  0  0  0  0  0  0  0
   -8.6710   21.9070  -31.3470 S   0  0  0  0  0  0  0  0  0  0  0  0
   -9.4160   21.8940  -30.0420 O   0  0  0  0  0  0  0  0  0  0  0  0
   -9.5420   22.5330  -32.4000 O   0  0  0  0  0  0  0  0  0  0  0  0
   -8.2570   20.2670  -31.8330 C   0  0  0  0  0  0  0  0  0  0  0  0
   -8.9720   19.1720  -31.3310 C   0  0  0  0  0  0  0  0  0  0  0  0
   -8.5990   17.8710  -31.6830 C   0  0  0  0  0  0  0  0  0  0  0  0
   -7.5060   17.6590  -32.5290 C   0  0  0  0  0  0  0  0  0  0  0  0
   -6.7910   18.7490  -33.0410 C   0  0  0  0  0  0  0  0  0  0  0  0
   -5.3740   18.4990  -34.0620 S   0  0  0  0  0  0  0  0  0  0  0  0
   -4.8420   17.1090  -33.8480 O   0  0  0  0  0  0  0  0  0  0  0  0
   -5.7820   18.6270  -35.5040 O   0  0  0  0  0  0  0  0  0  0  0  0
   -4.1190   19.6630  -33.7140 N   0  0  0  0  0  0  0  0  0  0  0  0
   -4.0290   19.9140  -32.2690 C   0  0  0  0  0  0  0  0  0  0  0  0
   -2.9780   21.0110  -32.0010 C   0  0  0  0  0  0  0  0  0  0  0  0
   -2.1480   21.2570  -33.1260 O   0  0  0  0  0  0  0  0  0  0  0  0
   -1.6650   20.0350  -33.6500 C   0  0  0  0  0  0  0  0  0  0  0  0
   -2.8210   19.1950  -34.2300 C   0  0  0  0  0  0  0  0  0  0  0  0
   -7.1840   20.0520  -32.7060 C   0  0  0  0  0  0  0  0  0  0  0  0
   -6.0920   22.6290  -31.9910 C   0  0  0  0  0  0  0  0  0  0  0  0
   -4.8960   23.3200  -31.7750 C   0  0  0  0  0  0  0  0  0  0  0  0
   -4.0969   23.0892  -26.3969 H   0  0  0  0  0  0  0  0  0  0  0  0
   -4.2548   24.2398  -27.7672 H   0  0  0  0  0  0  0  0  0  0  0  0
   -5.1942   22.7088  -27.7672 H   0  0  0  0  0  0  0  0  0  0  0  0
   -3.4834   20.5963  -27.1825 H   0  0  0  0  0  0  0  0  0  0  0  0
   -1.6052   19.4007  -28.2965 H   0  0  0  0  0  0  0  0  0  0  0  0
   -0.1660   20.5900  -29.9464 H   0  0  0  0  0  0  0  0  0  0  0  0
   -0.6111   22.9762  -30.5031 H   0  0  0  0  0  0  0  0  0  0  0  0
   -5.8043   25.1493  -29.0302 H   0  0  0  0  0  0  0  0  0  0  0  0
   -7.9314   23.9019  -29.4037 H   0  0  0  0  0  0  0  0  0  0  0  0
   -9.8276   19.3356  -30.6593 H   0  0  0  0  0  0  0  0  0  0  0  0
   -9.1665   17.0129  -31.2937 H   0  0  0  0  0  0  0  0  0  0  0  0
   -7.2071   16.6338  -32.7930 H   0  0  0  0  0  0  0  0  0  0  0  0
   -5.0083   20.2449  -31.8928 H   0  0  0  0  0  0  0  0  0  0  0  0
   -3.7317   18.9884  -31.7543 H   0  0  0  0  0  0  0  0  0  0  0  0
   -3.5002   21.9427  -31.7378 H   0  0  0  0  0  0  0  0  0  0  0  0
   -2.3334   20.6622  -31.1808 H   0  0  0  0  0  0  0  0  0  0  0  0
   -0.9372   20.2466  -34.4472 H   0  0  0  0  0  0  0  0  0  0  0  0
   -1.1877   19.4665  -32.8382 H   0  0  0  0  0  0  0  0  0  0  0  0
   -2.8159   19.2833  -35.3264 H   0  0  0  0  0  0  0  0  0  0  0  0
   -2.6798   18.1464  -33.9292 H   0  0  0  0  0  0  0  0  0  0  0  0
   -6.6456   20.9115  -33.1320 H   0  0  0  0  0  0  0  0  0  0  0  0
   -6.1743   21.9232  -32.8307 H   0  0  0  0  0  0  0  0  0  0  0  0
   -4.0441   23.1654  -32.4536 H   0  0  0  0  0  0  0  0  0  0  0  0
  1  2  1  0
  2  3  2  0
  3  4  1  0
  4  5  2  0
  5  6  1  0
  6  7  2  0
  7  8  1  0
  8  9  2  0
  8 10  1  0
 10 11  1  0
 11 12  2  0
 12 13  1  0
 13 14  2  0
 14 15  1  0
 15 16  2  0
 15 17  2  0
 15 18  1  0
 18 19  2  0
 19 20  1  0
 20 21  2  0
 21 22  1  0
 22 23  1  0
 23 24  2  0
 23 25  2  0
 23 26  1  0
 26 27  1  0
 27 28  1  0
 28 29  1  0
 29 30  1  0
 30 31  1  0
 22 32  2  0
 14 33  1  0
 33 34  2  0
  7  2  1  0
 34 11  1  0
 32 18  1  0
 31 26  1  0
  1 35  1  0
  1 36  1  0
  1 37  1  0
  3 38  1  0
  4 39  1  0
  5 40  1  0
  6 41  1  0
 12 42  1  0
 13 43  1  0
 19 44  1  0
 20 45  1  0
 21 46  1  0
 27 47  1  0
 27 48  1  0
 28 49  1  0
 28 50  1  0
 30 51  1  0
 30 52  1  0
 31 53  1  0
 31 54  1  0
 32 55  1  0
 33 56  1  0
 34 57  1  0
M  CHG  1  10  -1
M  END
>  <UniqueID>  (40) 
35

>  <SMILES>  (40) 
Cc1ccccc1C(=O)[N-]c1ccc(S(=O)(=O)c2cccc(S(=O)(=O)N3CCOCC3)c2)cc1

>  <Energy>  (40) 
74.68041367837489

>  <Genealogy>  (40) 
Cc1ccccc1C(=O)[N-]c1ccc(S(=O)(=O)c2cccc(S(=O)(=O)N3CCOCC3)c2)cc1 (protonated)
Cc1ccccc1C(=O)[N-]c1ccc(S(=O)(=O)c2cccc(S(=O)(=O)N3CCOCC3)c2)cc1 (3D coordinates assigned)
Cc1ccccc1C(=O)[N-]c1ccc(S(=O)(=O)c2cccc(S(=O)(=O)N3CCOCC3)c2)cc1 (nonaromatic ring conformer: 74.68041367837489 kcal/mol)

>  <smiles>  (40) 
Cc1ccccc1C(=O)Nc1ccc(S(=O)(=O)c2cccc(S(=O)(=O)N3CCOCC3)c2)cc1

>  <score_type>  (40) 
oracle

>  <origin>  (40) 
adgpu

>  <m_score__min__energy>  (40) 
-13.17

>  <m_primary>  (40) 
energy

$$$$
40:0
     RDKit          3D

 55 58  0  0  1  0  0  0  0  0999 V2000
   -9.2110   18.2330  -31.6150 C   0  0  0  0  0  0  0  0  0  0  0  0
   -8.2110   19.2920  -31.8210 C   0  0  0  0  0  0  0  0  0  0  0  0
   -6.8800   18.9730  -32.0430 C   0  0  0  0  0  0  0  0  0  0  0  0
   -5.9580   19.9810  -32.2330 C   0  0  0  0  0  0  0  0  0  0  0  0
   -4.7350   19.6650  -32.4370 N   0  0  0  0  0  0  0  0  0  0  0  0
   -3.4570   20.7680  -32.6930 S   0  0  0  0  0  0  0  0  0  0  0  0
   -2.1890   20.0780  -33.1140 O   0  0  0  0  0  0  0  0  0  0  0  0
   -3.8730   21.6390  -33.8670 O   0  0  0  0  0  0  0  0  0  0  0  0
   -3.1080   21.7800  -31.3190 C   0  0  0  0  0  0  0  0  0  0  0  0
   -4.0620   22.7520  -31.0040 C   0  0  0  0  0  0  0  0  0  0  0  0
   -3.8560   23.5960  -29.9250 C   0  0  0  0  0  0  0  0  0  0  0  0
   -2.6930   23.4630  -29.1660 C   0  0  0  0  0  0  0  0  0  0  0  0
   -2.5590   24.3700  -28.0750 N   0  0  0  0  0  0  0  0  0  0  0  0
   -1.3850   25.1370  -27.9510 C   0  0  0  0  0  0  0  0  0  0  0  0
   -0.4810   24.9970  -28.8130 O   0  0  0  0  0  0  0  0  0  0  0  0
   -1.1520   26.0900  -26.8750 C   0  0  0  0  0  0  0  0  0  0  0  0
   -1.8170   25.9050  -25.6800 C   0  0  0  0  0  0  0  0  0  0  0  0
   -1.6300   26.7820  -24.6320 C   0  0  0  0  0  0  0  0  0  0  0  0
   -0.7820   27.8690  -24.7220 C   0  0  0  0  0  0  0  0  0  0  0  0
   -0.1120   28.0480  -25.9370 C   0  0  0  0  0  0  0  0  0  0  0  0
    0.7890   29.1530  -26.1170 N   0  0  0  0  0  0  0  0  0  0  0  0
    1.8060   29.5400  -25.3360 C   0  0  0  0  0  0  0  0  0  0  0  0
    2.1910   28.9280  -24.1720 O   0  0  0  0  0  0  0  0  0  0  0  0
    2.4130   30.6580  -25.8840 C   0  0  0  0  0  0  0  0  0  0  0  0
    1.7070   30.9240  -27.0370 C   0  0  0  0  0  0  0  0  0  0  0  0
    0.6940   29.9810  -27.1800 C   0  0  0  0  0  0  0  0  0  0  0  0
   -0.2490   29.8960  -28.2180 O   0  0  0  0  0  0  0  0  0  0  0  0
   -0.3000   27.1640  -26.9950 C   0  0  0  0  0  0  0  0  0  0  0  0
   -1.7390   22.5060  -29.4640 C   0  0  0  0  0  0  0  0  0  0  0  0
   -1.9630   21.6610  -30.5580 C   0  0  0  0  0  0  0  0  0  0  0  0
   -6.2760   21.2890  -32.2170 N   0  0  0  0  0  0  0  0  0  0  0  0
   -7.5830   21.5700  -31.9980 C   0  0  0  0  0  0  0  0  0  0  0  0
   -8.0640   22.9750  -31.9570 C   0  0  0  0  0  0  0  0  0  0  0  0
   -8.5080   20.6090  -31.8080 N   0  0  0  0  0  0  0  0  0  0  0  0
   -9.3605   18.0746  -30.5368 H   0  0  0  0  0  0  0  0  0  0  0  0
  -10.1631   18.5329  -32.0771 H   0  0  0  0  0  0  0  0  0  0  0  0
   -8.8571   17.2996  -32.0771 H   0  0  0  0  0  0  0  0  0  0  0  0
   -6.5608   17.9206  -32.0675 H   0  0  0  0  0  0  0  0  0  0  0  0
   -4.9741   22.8465  -31.6115 H   0  0  0  0  0  0  0  0  0  0  0  0
   -4.6017   24.3631  -29.6693 H   0  0  0  0  0  0  0  0  0  0  0  0
   -3.3240   24.4680  -27.3720 H   0  0  0  0  0  0  0  0  0  0  0  0
   -2.5013   25.0518  -25.5624 H   0  0  0  0  0  0  0  0  0  0  0  0
   -2.1749   26.6100  -23.6920 H   0  0  0  0  0  0  0  0  0  0  0  0
   -0.6404   28.5607  -23.8785 H   0  0  0  0  0  0  0  0  0  0  0  0
    1.9640   29.2170  -23.2340 H   0  0  0  0  0  0  0  0  0  0  0  0
    3.2739   31.2141  -25.4845 H   0  0  0  0  0  0  0  0  0  0  0  0
    1.9117   31.7504  -27.7336 H   0  0  0  0  0  0  0  0  0  0  0  0
   -0.1990   30.5970  -28.9460 H   0  0  0  0  0  0  0  0  0  0  0  0
    0.2396   27.3258  -27.9398 H   0  0  0  0  0  0  0  0  0  0  0  0
   -0.8269   22.4113  -28.8564 H   0  0  0  0  0  0  0  0  0  0  0  0
   -1.2176   20.8935  -30.8137 H   0  0  0  0  0  0  0  0  0  0  0  0
   -8.1734   23.2947  -30.9102 H   0  0  0  0  0  0  0  0  0  0  0  0
   -7.3376   23.6262  -32.4652 H   0  0  0  0  0  0  0  0  0  0  0  0
   -9.0371   23.0444  -32.4652 H   0  0  0  0  0  0  0  0  0  0  0  0
   -9.5130   20.8490  -31.6400 H   0  0  0  0  0  0  0  0  0  0  0  0
  1  2  1  0
  2  3  2  0
  3  4  1  0
  4  5  2  0
  5  6  1  0
  6  7  2  0
  6  8  2  0
  6  9  1  0
  9 10  2  0
 10 11  1  0
 11 12  2  0
 12 13  1  0
 13 14  1  0
 14 15  2  0
 14 16  1  0
 16 17  2  0
 17 18  1  0
 18 19  2  0
 19 20  1  0
 20 21  1  0
 21 22  1  0
 22 23  1  0
 22 24  2  0
 24 25  1  0
 25 26  2  0
 26 27  1  0
 20 28  2  0
 12 29  1  0
 29 30  2  0
  4 31  1  0
 31 32  2  0
 32 33  1  0
 32 34  1  0
 34  2  1  0
 30  9  1  0
 28 16  1  0
 26 21  1  0
  1 35  1  0
  1 36  1  0
  1 37  1  0
  3 38  1  0
 10 39  1  0
 11 40  1  0
 13 41  1  0
 17 42  1  0
 18 43  1  0
 19 44  1  0
 23 45  1  0
 24 46  1  0
 25 47  1  0
 27 48  1  0
 28 49  1  0
 29 50  1  0
 30 51  1  0
 33 52  1  0
 33 53  1  0
 33 54  1  0
 34 55  1  0
M  END
>  <smiles>  (41) 
Cc1cc(=NS(=O)(=O)c2ccc(NC(=O)c3cccc(-n4c(O)ccc4O)c3)cc2)nc(C)[nH]1

>  <score_type>  (41) 
oracle

>  <origin>  (41) 
adgpu

>  <m_score__min__energy>  (41) 
-9.9399999999999995

>  <m_primary>  (41) 
energy

$$$$
41:0
     RDKit          3D

 41 43  0  0  0  0  0  0  0  0999 V2000
   -2.2060   18.6370  -34.5420 O   0  0  0  0  0  0  0  0  0  0  0  0
   -3.0500   18.5030  -33.6190 C   0  0  0  0  0  0  0  0  0  0  0  0
   -3.1100   19.4930  -32.5860 N   0  0  0  0  0  0  0  0  0  0  0  0
   -3.9550   20.6820  -32.6270 C   0  0  0  0  0  0  0  0  0  0  0  0
   -4.6540   20.8710  -31.2790 C   0  0  0  0  0  0  0  0  0  0  0  0
   -4.9060   22.3320  -31.0060 C   0  0  0  0  0  0  0  0  0  0  0  0
   -6.1340   22.9170  -31.3570 C   0  0  0  0  0  0  0  0  0  0  0  0
   -6.3420   24.2870  -31.1690 C   0  0  0  0  0  0  0  0  0  0  0  0
   -5.3240   25.0870  -30.6340 C   0  0  0  0  0  0  0  0  0  0  0  0
   -5.5240   26.4530  -30.4480 O   0  0  0  0  0  0  0  0  0  0  0  0
   -4.0970   24.5100  -30.2870 C   0  0  0  0  0  0  0  0  0  0  0  0
   -3.0790   25.2960  -29.7590 O   0  0  0  0  0  0  0  0  0  0  0  0
   -3.8870   23.1380  -30.4750 C   0  0  0  0  0  0  0  0  0  0  0  0
   -3.9480   17.3330  -33.6330 C   0  0  0  0  0  0  0  0  0  0  0  0
   -3.5030   16.1270  -33.0750 C   0  0  0  0  0  0  0  0  0  0  0  0
   -4.3410   15.0110  -33.0570 C   0  0  0  0  0  0  0  0  0  0  0  0
   -5.6260   15.1140  -33.5880 C   0  0  0  0  0  0  0  0  0  0  0  0
   -6.0570   16.2950  -34.1040 N   0  0  0  0  0  0  0  0  0  0  0  0
   -5.2660   17.4010  -34.1360 C   0  0  0  0  0  0  0  0  0  0  0  0
   -5.9600   18.9210  -34.8010 S   0  0  0  0  0  0  0  0  0  0  0  0
   -7.0390   19.1680  -33.3970 C   0  0  0  0  0  0  0  0  0  0  0  0
   -7.5200   20.4460  -33.0930 C   0  0  0  0  0  0  0  0  0  0  0  0
   -8.3630   20.6140  -31.9930 C   0  0  0  0  0  0  0  0  0  0  0  0
   -8.7200   19.5100  -31.2160 C   0  0  0  0  0  0  0  0  0  0  0  0
   -8.2270   18.2470  -31.5560 C   0  0  0  0  0  0  0  0  0  0  0  0
   -7.4060   18.1040  -32.6310 N   0  0  0  0  0  0  0  0  0  0  0  0
   -3.3337   21.5638  -32.8424 H   0  0  0  0  0  0  0  0  0  0  0  0
   -4.7135   20.5602  -33.4143 H   0  0  0  0  0  0  0  0  0  0  0  0
   -5.6150   20.3359  -31.2931 H   0  0  0  0  0  0  0  0  0  0  0  0
   -4.0044   20.4714  -30.4863 H   0  0  0  0  0  0  0  0  0  0  0  0
   -6.9355   22.2947  -31.7816 H   0  0  0  0  0  0  0  0  0  0  0  0
   -7.3076   24.7377  -31.4419 H   0  0  0  0  0  0  0  0  0  0  0  0
   -4.9930   26.9770  -29.7620 H   0  0  0  0  0  0  0  0  0  0  0  0
   -2.9192   22.6902  -30.2053 H   0  0  0  0  0  0  0  0  0  0  0  0
   -2.4906   16.0597  -32.6501 H   0  0  0  0  0  0  0  0  0  0  0  0
   -3.9913   14.0602  -32.6284 H   0  0  0  0  0  0  0  0  0  0  0  0
   -6.2917   14.2383  -33.5893 H   0  0  0  0  0  0  0  0  0  0  0  0
   -7.2371   21.3089  -33.7138 H   0  0  0  0  0  0  0  0  0  0  0  0
   -8.7451   21.6137  -31.7389 H   0  0  0  0  0  0  0  0  0  0  0  0
   -9.3818   19.6329  -30.3460 H   0  0  0  0  0  0  0  0  0  0  0  0
   -8.5030   17.3686  -30.9541 H   0  0  0  0  0  0  0  0  0  0  0  0
  1  2  2  0
  2  3  1  0
  3  4  1  0
  4  5  1  0
  5  6  1  0
  6  7  2  0
  7  8  1  0
  8  9  2  0
  9 10  1  0
  9 11  1  0
 11 12  1  0
 11 13  2  0
  2 14  1  0
 14 15  2  0
 15 16  1  0
 16 17  2  0
 17 18  1  0
 18 19  2  0
 19 20  1  0
 20 21  1  0
 21 22  2  0
 22 23  1  0
 23 24  2  0
 24 25  1  0
 25 26  2  0
 13  6  1  0
 19 14  1  0
 26 21  1  0
  4 27  1  0
  4 28  1  0
  5 29  1  0
  5 30  1  0
  7 31  1  0
  8 32  1  0
 10 33  1  0
 13 34  1  0
 15 35  1  0
 16 36  1  0
 17 37  1  0
 22 38  1  0
 23 39  1  0
 24 40  1  0
 25 41  1  0
M  CHG  2   3  -1  12  -1
M  END
>  <UniqueID>  (42) 
36

>  <SMILES>  (42) 
O=C([N-]CCc1ccc(O)c([O-])c1)c1cccnc1Sc1ccccn1

>  <Energy>  (42) 
42.01747710247841

>  <Genealogy>  (42) 
O=C([N-]CCc1ccc(O)c([O-])c1)c1cccnc1Sc1ccccn1 (protonated)
O=C([N-]CCc1ccc(O)c([O-])c1)c1cccnc1Sc1ccccn1 (3D coordinates assigned)
O=C([N-]CCc1ccc(O)c([O-])c1)c1cccnc1Sc1ccccn1 (optimized conformer: 42.01747710247841 kcal/mol)

>  <smiles>  (42) 
O=C(NCCc1ccc(O)c(O)c1)c1cccnc1Sc1ccccn1

>  <score_type>  (42) 
oracle

>  <origin>  (42) 
adgpu

>  <m_score__min__energy>  (42) 
-11.56

>  <m_primary>  (42) 
energy

$$$$
42:0
     RDKit          3D

 43 46  0  0  0  0  0  0  0  0999 V2000
   -3.7190   21.3400  -29.9750 H   0  0  0  0  0  0  0  0  0  0  0  0
   -3.6990   20.3780  -30.2900 O   0  0  0  0  0  0  0  0  0  0  0  0
   -4.3660   19.9750  -31.4450 C   0  0  0  0  0  0  0  0  0  0  0  0
   -3.7460   20.0690  -32.6980 C   0  0  0  0  0  0  0  0  0  0  0  0
   -2.7194   20.4566  -32.7751 H   0  0  0  0  0  0  0  0  0  0  0  0
   -4.4300   19.6710  -33.8500 C   0  0  0  0  0  0  0  0  0  0  0  0
   -3.9425   19.7497  -34.8329 H   0  0  0  0  0  0  0  0  0  0  0  0
   -5.7330   19.1730  -33.7550 C   0  0  0  0  0  0  0  0  0  0  0  0
   -6.2714   18.8687  -34.6647 H   0  0  0  0  0  0  0  0  0  0  0  0
   -6.3570   19.0600  -32.5010 C   0  0  0  0  0  0  0  0  0  0  0  0
   -7.7700   18.5600  -32.4010 C   0  0  0  0  0  0  0  0  0  0  0  0
   -8.0234   18.3824  -31.3454 H   0  0  0  0  0  0  0  0  0  0  0  0
   -7.8693   17.6191  -32.9622 H   0  0  0  0  0  0  0  0  0  0  0  0
   -8.6740   19.5600  -32.9580 N   0  0  0  0  0  0  0  0  0  0  0  0
   -8.9740   20.8240  -32.3530 C   0  0  0  0  0  0  0  0  0  0  0  0
  -10.1810   21.1500  -32.2000 O   0  0  0  0  0  0  0  0  0  0  0  0
   -7.9180   21.7330  -31.8600 C   0  0  0  0  0  0  0  0  0  0  0  0
   -6.8760   22.1190  -32.7150 C   0  0  0  0  0  0  0  0  0  0  0  0
   -6.8515   21.7481  -33.7503 H   0  0  0  0  0  0  0  0  0  0  0  0
   -5.8680   22.9730  -32.2580 C   0  0  0  0  0  0  0  0  0  0  0  0
   -5.0522   23.2654  -32.9355 H   0  0  0  0  0  0  0  0  0  0  0  0
   -5.8880   23.4590  -30.9460 C   0  0  0  0  0  0  0  0  0  0  0  0
   -4.8170   24.3150  -30.5110 N   0  0  0  0  0  0  0  0  0  0  0  0
   -3.8260   23.9940  -29.7320 C   0  0  0  0  0  0  0  0  0  0  0  0
   -3.7470   22.7640  -29.1490 N   0  0  0  0  0  0  0  0  0  0  0  0
   -2.7410   22.4490  -28.3330 N   0  0  0  0  0  0  0  0  0  0  0  0
   -1.7660   23.3490  -28.0490 C   0  0  0  0  0  0  0  0  0  0  0  0
   -0.7080   23.0230  -27.1950 C   0  0  0  0  0  0  0  0  0  0  0  0
   -0.6524   22.0222  -26.7419 H   0  0  0  0  0  0  0  0  0  0  0  0
    0.2800   23.9750  -26.9190 C   0  0  0  0  0  0  0  0  0  0  0  0
    1.1138   23.7221  -26.2476 H   0  0  0  0  0  0  0  0  0  0  0  0
    0.2090   25.2490  -27.4960 C   0  0  0  0  0  0  0  0  0  0  0  0
    0.9871   25.9946  -27.2754 H   0  0  0  0  0  0  0  0  0  0  0  0
   -0.8480   25.5770  -28.3520 C   0  0  0  0  0  0  0  0  0  0  0  0
   -0.9022   26.5784  -28.8039 H   0  0  0  0  0  0  0  0  0  0  0  0
   -1.8360   24.6260  -28.6310 C   0  0  0  0  0  0  0  0  0  0  0  0
   -2.8700   24.9210  -29.4600 N   0  0  0  0  0  0  0  0  0  0  0  0
   -6.9010   23.0260  -30.0700 C   0  0  0  0  0  0  0  0  0  0  0  0
   -6.9002   23.3617  -29.0225 H   0  0  0  0  0  0  0  0  0  0  0  0
   -7.9090   22.1700  -30.5270 C   0  0  0  0  0  0  0  0  0  0  0  0
   -8.6988   21.8378  -29.8372 H   0  0  0  0  0  0  0  0  0  0  0  0
   -5.6700   19.4760  -31.3500 C   0  0  0  0  0  0  0  0  0  0  0  0
   -6.1595   19.4094  -30.3672 H   0  0  0  0  0  0  0  0  0  0  0  0
  1  2  1  0
  2  3  1  0
  3  4  2  0
  4  5  1  0
  4  6  1  0
  6  7  1  0
  6  8  2  0
  8  9  1  0
  8 10  1  0
 10 11  1  0
 11 12  1  0
 11 13  1  0
 11 14  1  0
 14 15  1  0
 15 16  2  0
 15 17  1  0
 17 18  2  0
 18 19  1  0
 18 20  1  0
 20 21  1  0
 20 22  2  0
 22 23  1  0
 23 24  2  0
 24 25  1  0
 25 26  2  0
 26 27  1  0
 27 28  2  0
 28 29  1  0
 28 30  1  0
 30 31  1  0
 30 32  2  0
 32 33  1  0
 32 34  1  0
 34 35  1  0
 34 36  2  0
 36 37  1  0
 22 38  1  0
 38 39  1  0
 38 40  2  0
 40 41  1  0
 10 42  2  0
 42 43  1  0
 42  3  1  0
 40 17  1  0
 37 24  1  0
 36 27  1  0
M  CHG  2  14  -1  37  -1
M  END
>  <UniqueID>  (43) 
37

>  <SMILES>  (43) 
O=C([N-]Cc1cccc(O)c1)c1ccc(/N=c2\nnc3ccccc3[n-]2)cc1

>  <Energy>  (43) 
61.47838953834458

>  <Genealogy>  (43) 
O=C([N-]Cc1cccc(O)c1)c1ccc(N=c2nnc3ccccc3[n-]2)cc1 (protonated)
O=C([N-]Cc1cccc(O)c1)c1ccc(/N=c2\nnc3ccccc3[n-]2)cc1 (cis-trans isomerization)
O=C([N-]Cc1cccc(O)c1)c1ccc(/N=c2\nnc3ccccc3[n-]2)cc1 (3D coordinates assigned)
O=C([N-]Cc1cccc(O)c1)c1ccc(/N=c2\nnc3ccccc3[n-]2)cc1 (optimized conformer: 61.47838953834458 kcal/mol)

>  <smiles>  (43) 
O=C(NCc1cccc(O)c1)c1ccc(N=c2nnc3ccccc3[nH]2)cc1

>  <score_type>  (43) 
oracle

>  <origin>  (43) 
adgpu

>  <m_score__min__energy>  (43) 
-10.66

>  <m_primary>  (43) 
energy

$$$$
43:0
     RDKit          3D

 44 46  0  0  0  0  0  0  0  0999 V2000
   -1.8500   25.3080  -29.0060 N   0  0  0  0  0  0  0  0  0  0  0  0
   -0.8540   24.3720  -27.9440 S   0  0  0  0  0  0  0  0  0  0  0  0
    0.5270   24.2830  -28.5280 O   0  0  0  0  0  0  0  0  0  0  0  0
   -0.7920   25.0520  -26.6060 O   0  0  0  0  0  0  0  0  0  0  0  0
   -1.5150   22.7450  -27.7400 C   0  0  0  0  0  0  0  0  0  0  0  0
   -1.0990   21.9520  -26.6580 C   0  0  0  0  0  0  0  0  0  0  0  0
   -1.6100   20.6660  -26.4860 C   0  0  0  0  0  0  0  0  0  0  0  0
   -2.5380   20.1560  -27.3940 C   0  0  0  0  0  0  0  0  0  0  0  0
   -2.9570   20.9300  -28.4790 C   0  0  0  0  0  0  0  0  0  0  0  0
   -2.4490   22.2300  -28.6650 C   0  0  0  0  0  0  0  0  0  0  0  0
   -2.8570   23.0410  -29.7760 N   0  0  0  0  0  0  0  0  0  0  0  0
   -4.2160   24.1160  -29.7950 S   0  0  0  0  0  0  0  0  0  0  0  0
   -3.8930   25.3320  -30.6170 O   0  0  0  0  0  0  0  0  0  0  0  0
   -4.5580   24.5390  -28.3930 O   0  0  0  0  0  0  0  0  0  0  0  0
   -5.5910   23.2700  -30.4960 C   0  0  0  0  0  0  0  0  0  0  0  0
   -6.7530   23.0810  -29.7380 C   0  0  0  0  0  0  0  0  0  0  0  0
   -7.8450   22.3970  -30.2790 C   0  0  0  0  0  0  0  0  0  0  0  0
   -7.7790   21.8800  -31.5830 C   0  0  0  0  0  0  0  0  0  0  0  0
   -8.9660   21.1810  -32.1800 C   0  0  0  0  0  0  0  0  0  0  0  0
   -8.5080   20.0680  -33.0010 N   0  0  0  0  0  0  0  0  0  0  0  0
   -7.9720   18.8640  -32.4460 C   0  0  0  0  0  0  0  0  0  0  0  0
   -8.4130   18.4170  -31.3520 O   0  0  0  0  0  0  0  0  0  0  0  0
   -6.9040   18.1440  -33.1460 C   0  0  0  0  0  0  0  0  0  0  0  0
   -5.8760   18.7170  -33.8690 C   0  0  0  0  0  0  0  0  0  0  0  0
   -5.1230   17.6630  -34.3410 C   0  0  0  0  0  0  0  0  0  0  0  0
   -5.7370   16.5160  -33.8800 C   0  0  0  0  0  0  0  0  0  0  0  0
   -6.7960   16.8350  -33.1720 O   0  0  0  0  0  0  0  0  0  0  0  0
   -6.6160   22.0780  -32.3450 C   0  0  0  0  0  0  0  0  0  0  0  0
   -5.5250   22.7610  -31.8010 C   0  0  0  0  0  0  0  0  0  0  0  0
   -2.8300   25.2290  -28.6550 H   0  0  0  0  0  0  0  0  0  0  0  0
   -1.8270   24.8390  -29.9390 H   0  0  0  0  0  0  0  0  0  0  0  0
   -0.3648   22.3482  -25.9411 H   0  0  0  0  0  0  0  0  0  0  0  0
   -1.2811   20.0533  -25.6337 H   0  0  0  0  0  0  0  0  0  0  0  0
   -2.9409   19.1419  -27.2554 H   0  0  0  0  0  0  0  0  0  0  0  0
   -3.6881   20.5214  -29.1922 H   0  0  0  0  0  0  0  0  0  0  0  0
   -6.8066   23.4729  -28.7116 H   0  0  0  0  0  0  0  0  0  0  0  0
   -8.7589   22.2632  -29.6816 H   0  0  0  0  0  0  0  0  0  0  0  0
   -9.6122   20.8017  -31.3747 H   0  0  0  0  0  0  0  0  0  0  0  0
   -9.5347   21.8877  -32.8022 H   0  0  0  0  0  0  0  0  0  0  0  0
   -5.6959   19.7896  -34.0337 H   0  0  0  0  0  0  0  0  0  0  0  0
   -4.2158   17.7239  -34.9601 H   0  0  0  0  0  0  0  0  0  0  0  0
   -5.3916   15.4902  -34.0760 H   0  0  0  0  0  0  0  0  0  0  0  0
   -6.5637   21.6938  -33.3744 H   0  0  0  0  0  0  0  0  0  0  0  0
   -4.6117   22.8998  -32.3982 H   0  0  0  0  0  0  0  0  0  0  0  0
  1  2  1  0
  2  3  2  0
  2  4  2  0
  2  5  1  0
  5  6  2  0
  6  7  1  0
  7  8  2  0
  8  9  1  0
  9 10  2  0
 10 11  1  0
 11 12  1  0
 12 13  2  0
 12 14  2  0
 12 15  1  0
 15 16  2  0
 16 17  1  0
 17 18  2  0
 18 19  1  0
 19 20  1  0
 20 21  1  0
 21 22  2  0
 21 23  1  0
 23 24  2  0
 24 25  1  0
 25 26  2  0
 26 27  1  0
 18 28  1  0
 28 29  2  0
 10  5  1  0
 29 15  1  0
 27 23  1  0
  1 30  1  0
  1 31  1  0
  6 32  1  0
  7 33  1  0
  8 34  1  0
  9 35  1  0
 16 36  1  0
 17 37  1  0
 19 38  1  0
 19 39  1  0
 24 40  1  0
 25 41  1  0
 26 42  1  0
 28 43  1  0
 29 44  1  0
M  CHG  2  11  -1  20  -1
M  END
>  <UniqueID>  (44) 
38

>  <SMILES>  (44) 
NS(=O)(=O)c1ccccc1[N-]S(=O)(=O)c1ccc(C[N-]C(=O)c2ccco2)cc1

>  <Energy>  (44) 
72.11424208739496

>  <Genealogy>  (44) 
NS(=O)(=O)c1ccccc1[N-]S(=O)(=O)c1ccc(C[N-]C(=O)c2ccco2)cc1 (protonated)
NS(=O)(=O)c1ccccc1[N-]S(=O)(=O)c1ccc(C[N-]C(=O)c2ccco2)cc1 (3D coordinates assigned)
NS(=O)(=O)c1ccccc1[N-]S(=O)(=O)c1ccc(C[N-]C(=O)c2ccco2)cc1 (optimized conformer: 72.11424208739496 kcal/mol)

>  <smiles>  (44) 
NS(=O)(=O)c1ccccc1NS(=O)(=O)c1ccc(CNC(=O)c2ccco2)cc1

>  <score_type>  (44) 
oracle

>  <origin>  (44) 
adgpu

>  <m_score__min__energy>  (44) 
-10.720000000000001

>  <m_primary>  (44) 
energy

$$$$
44:0
     RDKit          3D

 44 47  0  0  0  0  0  0  0  0999 V2000
   -3.0670   18.8590  -33.3180 O   0  0  0  0  0  0  0  0  0  0  0  0
   -4.2610   18.4620  -33.2390 C   0  0  0  0  0  0  0  0  0  0  0  0
   -4.7460   17.1530  -33.6610 C   0  0  0  0  0  0  0  0  0  0  0  0
   -4.0790   16.0870  -34.2620 C   0  0  0  0  0  0  0  0  0  0  0  0
   -4.8180   14.9280  -34.5580 C   0  0  0  0  0  0  0  0  0  0  0  0
   -6.1950   14.8600  -34.2500 C   0  0  0  0  0  0  0  0  0  0  0  0
   -6.8440   15.9500  -33.6410 C   0  0  0  0  0  0  0  0  0  0  0  0
   -6.0880   17.0850  -33.3560 C   0  0  0  0  0  0  0  0  0  0  0  0
   -6.4680   18.3520  -32.7420 C   0  0  0  0  0  0  0  0  0  0  0  0
   -7.6330   18.6650  -32.3770 O   0  0  0  0  0  0  0  0  0  0  0  0
   -5.3320   19.2200  -32.6640 N   0  0  0  0  0  0  0  0  0  0  0  0
   -5.2760   20.5520  -32.1240 C   0  0  0  0  0  0  0  0  0  0  0  0
   -4.0480   21.2240  -32.0110 C   0  0  0  0  0  0  0  0  0  0  0  0
   -3.9950   22.5190  -31.4850 C   0  0  0  0  0  0  0  0  0  0  0  0
   -5.1700   23.1590  -31.0680 C   0  0  0  0  0  0  0  0  0  0  0  0
   -5.1100   24.7780  -30.3750 S   0  0  0  0  0  0  0  0  0  0  0  0
   -3.8730   25.4960  -30.8420 O   0  0  0  0  0  0  0  0  0  0  0  0
   -6.3100   25.5540  -30.8390 O   0  0  0  0  0  0  0  0  0  0  0  0
   -5.1190   24.6940  -28.6400 N   0  0  0  0  0  0  0  0  0  0  0  0
   -4.2380   23.6140  -28.1910 C   0  0  0  0  0  0  0  0  0  0  0  0
   -2.8670   24.1630  -27.9100 C   0  0  0  0  0  0  0  0  0  0  0  0
   -2.6290   24.9200  -26.7520 C   0  0  0  0  0  0  0  0  0  0  0  0
   -1.3620   25.4590  -26.5100 C   0  0  0  0  0  0  0  0  0  0  0  0
   -0.3280   25.2560  -27.4290 C   0  0  0  0  0  0  0  0  0  0  0  0
   -0.5610   24.5170  -28.5920 C   0  0  0  0  0  0  0  0  0  0  0  0
   -1.8280   23.9760  -28.8360 C   0  0  0  0  0  0  0  0  0  0  0  0
   -6.3950   22.4910  -31.1730 C   0  0  0  0  0  0  0  0  0  0  0  0
   -6.4500   21.1980  -31.7000 C   0  0  0  0  0  0  0  0  0  0  0  0
   -3.0064   16.1505  -34.4977 H   0  0  0  0  0  0  0  0  0  0  0  0
   -4.3209   14.0690  -35.0323 H   0  0  0  0  0  0  0  0  0  0  0  0
   -6.7637   13.9489  -34.4878 H   0  0  0  0  0  0  0  0  0  0  0  0
   -7.9158   15.9072  -33.3973 H   0  0  0  0  0  0  0  0  0  0  0  0
   -3.1219   20.7288  -32.3382 H   0  0  0  0  0  0  0  0  0  0  0  0
   -3.0283   23.0366  -31.3984 H   0  0  0  0  0  0  0  0  0  0  0  0
   -6.0970   24.4570  -28.3550 H   0  0  0  0  0  0  0  0  0  0  0  0
   -4.6474   23.1654  -27.2738 H   0  0  0  0  0  0  0  0  0  0  0  0
   -4.1698   22.8483  -28.9778 H   0  0  0  0  0  0  0  0  0  0  0  0
   -3.4430   25.0898  -26.0319 H   0  0  0  0  0  0  0  0  0  0  0  0
   -1.1785   26.0431  -25.5961 H   0  0  0  0  0  0  0  0  0  0  0  0
    0.6693   25.6782  -27.2365 H   0  0  0  0  0  0  0  0  0  0  0  0
    0.2522   24.3606  -29.3160 H   0  0  0  0  0  0  0  0  0  0  0  0
   -2.0109   23.4021  -29.7565 H   0  0  0  0  0  0  0  0  0  0  0  0
   -7.3189   22.9859  -30.8392 H   0  0  0  0  0  0  0  0  0  0  0  0
   -7.4182   20.6825  -31.7835 H   0  0  0  0  0  0  0  0  0  0  0  0
  1  2  2  0
  2  3  1  0
  3  4  2  0
  4  5  1  0
  5  6  2  0
  6  7  1  0
  7  8  2  0
  8  9  1  0
  9 10  2  0
  9 11  1  0
 11 12  1  0
 12 13  2  0
 13 14  1  0
 14 15  2  0
 15 16  1  0
 16 17  2  0
 16 18  2  0
 16 19  1  0
 19 20  1  0
 20 21  1  0
 21 22  2  0
 22 23  1  0
 23 24  2  0
 24 25  1  0
 25 26  2  0
 15 27  1  0
 27 28  2  0
 11  2  1  0
 28 12  1  0
  8  3  1  0
 26 21  1  0
  4 29  1  0
  5 30  1  0
  6 31  1  0
  7 32  1  0
 13 33  1  0
 14 34  1  0
 19 35  1  0
 20 36  1  0
 20 37  1  0
 22 38  1  0
 23 39  1  0
 24 40  1  0
 25 41  1  0
 26 42  1  0
 27 43  1  0
 28 44  1  0
M  END
>  <UniqueID>  (45) 
39

>  <SMILES>  (45) 
O=C1c2ccccc2C(=O)N1c1ccc(S(=O)(=O)NCc2ccccc2)cc1

>  <Energy>  (45) 
82.59077888277396

>  <Genealogy>  (45) 
O=C1c2ccccc2C(=O)N1c1ccc(S(=O)(=O)NCc2ccccc2)cc1 (3D coordinates assigned)
O=C1c2ccccc2C(=O)N1c1ccc(S(=O)(=O)NCc2ccccc2)cc1 (nonaromatic ring conformer: 82.59077888277396 kcal/mol)

>  <smiles>  (45) 
O=C1c2ccccc2C(=O)N1c1ccc(S(=O)(=O)NCc2ccccc2)cc1

>  <score_type>  (45) 
oracle

>  <origin>  (45) 
adgpu

>  <m_score__min__energy>  (45) 
-9.6500000000000004

>  <m_primary>  (45) 
energy

$$$$
45:0
     RDKit          3D

 53 55  0  0  0  0  0  0  0  0999 V2000
    3.2750   28.2440  -22.1440 C   0  0  0  0  0  0  0  0  0  0  0  0
    3.2020   27.1750  -23.0840 O   0  0  0  0  0  0  0  0  0  0  0  0
    2.0430   26.8180  -23.7880 C   0  0  0  0  0  0  0  0  0  0  0  0
    0.8300   27.4040  -23.4110 C   0  0  0  0  0  0  0  0  0  0  0  0
   -0.3540   27.0830  -24.0810 C   0  0  0  0  0  0  0  0  0  0  0  0
   -0.3440   26.1700  -25.1510 C   0  0  0  0  0  0  0  0  0  0  0  0
   -1.6080   25.8320  -25.8500 C   0  0  0  0  0  0  0  0  0  0  0  0
   -2.6930   25.8580  -25.2070 O   0  0  0  0  0  0  0  0  0  0  0  0
   -1.6120   25.5080  -27.2520 N   0  0  0  0  0  0  0  0  0  0  0  0
   -2.7340   24.9160  -27.9270 C   0  0  0  0  0  0  0  0  0  0  0  0
   -3.7400   24.5270  -27.2740 O   0  0  0  0  0  0  0  0  0  0  0  0
   -2.6830   24.7270  -29.3490 N   0  0  0  0  0  0  0  0  0  0  0  0
   -3.8000   24.2560  -30.1200 C   0  0  0  0  0  0  0  0  0  0  0  0
   -4.9870   24.9880  -30.1100 C   0  0  0  0  0  0  0  0  0  0  0  0
   -6.0890   24.5570  -30.8410 C   0  0  0  0  0  0  0  0  0  0  0  0
   -6.0290   23.3830  -31.6110 C   0  0  0  0  0  0  0  0  0  0  0  0
   -7.2760   22.9680  -32.3510 C   0  0  0  0  0  0  0  0  0  0  0  0
   -4.8320   22.6100  -31.6150 C   0  0  0  0  0  0  0  0  0  0  0  0
   -4.6560   21.1090  -32.5760 S   0  0  0  0  0  0  0  0  0  0  0  0
   -3.9020   21.4330  -33.8370 O   0  0  0  0  0  0  0  0  0  0  0  0
   -3.8410   20.0870  -31.8370 O   0  0  0  0  0  0  0  0  0  0  0  0
   -6.2030   20.3830  -32.9800 N   0  0  0  0  0  0  0  0  0  0  0  0
   -6.8810   19.8570  -31.7810 C   0  0  0  0  0  0  0  0  0  0  0  0
   -7.9640   18.8380  -32.1730 C   0  0  0  0  0  0  0  0  0  0  0  0
   -7.4640   17.7070  -32.8750 O   0  0  0  0  0  0  0  0  0  0  0  0
   -6.2430   17.9500  -33.5610 C   0  0  0  0  0  0  0  0  0  0  0  0
   -6.1080   19.3940  -34.0750 C   0  0  0  0  0  0  0  0  0  0  0  0
   -3.7360   23.0470  -30.8360 C   0  0  0  0  0  0  0  0  0  0  0  0
   -2.5890   22.2660  -30.7420 O   0  0  0  0  0  0  0  0  0  0  0  0
    0.8740   25.5730  -25.5210 C   0  0  0  0  0  0  0  0  0  0  0  0
    2.0570   25.8950  -24.8490 C   0  0  0  0  0  0  0  0  0  0  0  0
    3.2472   27.8366  -21.1226 H   0  0  0  0  0  0  0  0  0  0  0  0
    4.2131   28.7990  -22.2920 H   0  0  0  0  0  0  0  0  0  0  0  0
    2.4210   28.9214  -22.2920 H   0  0  0  0  0  0  0  0  0  0  0  0
    0.8077   28.1240  -22.5797 H   0  0  0  0  0  0  0  0  0  0  0  0
   -1.3009   27.5479  -23.7691 H   0  0  0  0  0  0  0  0  0  0  0  0
   -0.7790   25.7560  -27.8280 H   0  0  0  0  0  0  0  0  0  0  0  0
   -1.7520   24.7880  -29.8200 H   0  0  0  0  0  0  0  0  0  0  0  0
   -5.0522   25.9136  -29.5193 H   0  0  0  0  0  0  0  0  0  0  0  0
   -7.0197   25.1428  -30.8161 H   0  0  0  0  0  0  0  0  0  0  0  0
   -8.0619   22.7064  -31.6272 H   0  0  0  0  0  0  0  0  0  0  0  0
   -7.6214   23.7996  -32.9827 H   0  0  0  0  0  0  0  0  0  0  0  0
   -7.0541   22.0953  -32.9827 H   0  0  0  0  0  0  0  0  0  0  0  0
   -6.1400   19.3655  -31.1334 H   0  0  0  0  0  0  0  0  0  0  0  0
   -7.3578   20.6931  -31.2485 H   0  0  0  0  0  0  0  0  0  0  0  0
   -8.4566   18.4857  -31.2548 H   0  0  0  0  0  0  0  0  0  0  0  0
   -8.6575   19.3547  -32.8528 H   0  0  0  0  0  0  0  0  0  0  0  0
   -5.4096   17.7455  -32.8727 H   0  0  0  0  0  0  0  0  0  0  0  0
   -6.2275   17.2894  -34.4404 H   0  0  0  0  0  0  0  0  0  0  0  0
   -5.1320   19.5049  -34.5700 H   0  0  0  0  0  0  0  0  0  0  0  0
   -6.9338   19.5835  -34.7765 H   0  0  0  0  0  0  0  0  0  0  0  0
    0.8964   24.8462  -26.3464 H   0  0  0  0  0  0  0  0  0  0  0  0
    3.0038   25.4239  -25.1518 H   0  0  0  0  0  0  0  0  0  0  0  0
  1  2  1  0
  2  3  1  0
  3  4  2  0
  4  5  1  0
  5  6  2  0
  6  7  1  0
  7  8  2  0
  7  9  1  0
  9 10  1  0
 10 11  2  0
 10 12  1  0
 12 13  1  0
 13 14  2  0
 14 15  1  0
 15 16  2  0
 16 17  1  0
 16 18  1  0
 18 19  1  0
 19 20  2  0
 19 21  2  0
 19 22  1  0
 22 23  1  0
 23 24  1  0
 24 25  1  0
 25 26  1  0
 26 27  1  0
 18 28  2  0
 28 29  1  0
  6 30  1  0
 30 31  2  0
 31  3  1  0
 28 13  1  0
 27 22  1  0
  1 32  1  0
  1 33  1  0
  1 34  1  0
  4 35  1  0
  5 36  1  0
  9 37  1  0
 12 38  1  0
 14 39  1  0
 15 40  1  0
 17 41  1  0
 17 42  1  0
 17 43  1  0
 23 44  1  0
 23 45  1  0
 24 46  1  0
 24 47  1  0
 26 48  1  0
 26 49  1  0
 27 50  1  0
 27 51  1  0
 30 52  1  0
 31 53  1  0
M  CHG  1  29  -1
M  END
>  <UniqueID>  (46) 
40

>  <SMILES>  (46) 
COc1ccc(C(=O)NC(=O)Nc2ccc(C)c(S(=O)(=O)N3CCOCC3)c2[O-])cc1

>  <Energy>  (46) 
79.61152867533116

>  <Genealogy>  (46) 
COc1ccc(C(=O)NC(=O)Nc2ccc(C)c(S(=O)(=O)N3CCOCC3)c2[O-])cc1 (protonated)
COc1ccc(C(=O)NC(=O)Nc2ccc(C)c(S(=O)(=O)N3CCOCC3)c2[O-])cc1 (3D coordinates assigned)
COc1ccc(C(=O)NC(=O)Nc2ccc(C)c(S(=O)(=O)N3CCOCC3)c2[O-])cc1 (nonaromatic ring conformer: 79.61152867533116 kcal/mol)

>  <smiles>  (46) 
COc1ccc(C(=O)NC(=O)Nc2ccc(C)c(S(=O)(=O)N3CCOCC3)c2O)cc1

>  <score_type>  (46) 
oracle

>  <origin>  (46) 
adgpu

>  <m_score__min__energy>  (46) 
-11.06

>  <m_primary>  (46) 
energy

$$$$
46:0
     RDKit          3D

 58 61  0  0  0  0  0  0  0  0999 V2000
   -0.1750   17.7700  -28.3930 C   0  0  0  0  0  0  0  0  0  0  0  0
    0.1970   18.6430  -29.5630 C   0  0  0  0  0  0  0  0  0  0  0  0
    1.0200   18.1020  -30.5660 C   0  0  0  0  0  0  0  0  0  0  0  0
    1.3900   18.8670  -31.6710 C   0  0  0  0  0  0  0  0  0  0  0  0
    0.9360   20.1800  -31.8010 C   0  0  0  0  0  0  0  0  0  0  0  0
    1.2090   20.8970  -33.0060 N   0  0  0  0  0  0  0  0  0  0  0  0
    0.2470   20.6030  -34.4150 S   0  0  0  0  0  0  0  0  0  0  0  0
    0.8650   19.5010  -35.2290 O   0  0  0  0  0  0  0  0  0  0  0  0
    0.1640   21.8480  -35.2530 O   0  0  0  0  0  0  0  0  0  0  0  0
   -1.3560   20.1140  -33.8750 C   0  0  0  0  0  0  0  0  0  0  0  0
   -1.7290   18.7630  -33.9140 C   0  0  0  0  0  0  0  0  0  0  0  0
   -3.0610   18.3950  -33.7130 C   0  0  0  0  0  0  0  0  0  0  0  0
   -4.0310   19.3770  -33.4670 C   0  0  0  0  0  0  0  0  0  0  0  0
   -5.7360   18.9570  -33.3580 S   0  0  0  0  0  0  0  0  0  0  0  0
   -6.5170   19.6780  -34.4220 O   0  0  0  0  0  0  0  0  0  0  0  0
   -5.8790   17.4750  -33.5680 O   0  0  0  0  0  0  0  0  0  0  0  0
   -6.3120   19.4100  -31.7660 N   0  0  0  0  0  0  0  0  0  0  0  0
   -6.6550   20.8490  -31.6930 C   0  0  0  0  0  0  0  0  0  0  0  0
   -8.1690   21.1040  -31.7960 C   0  0  0  0  0  0  0  0  0  0  0  0
   -8.7670   20.1500  -32.6450 O   0  0  0  0  0  0  0  0  0  0  0  0
   -8.7470   18.8690  -32.0380 C   0  0  0  0  0  0  0  0  0  0  0  0
   -7.4160   18.5420  -31.3190 C   0  0  0  0  0  0  0  0  0  0  0  0
   -3.6520   20.7230  -33.3930 C   0  0  0  0  0  0  0  0  0  0  0  0
   -2.3210   21.0900  -33.5990 C   0  0  0  0  0  0  0  0  0  0  0  0
    0.1220   20.7430  -30.8060 C   0  0  0  0  0  0  0  0  0  0  0  0
   -0.2800   22.0670  -30.9420 O   0  0  0  0  0  0  0  0  0  0  0  0
   -0.2740   19.9770  -29.6870 C   0  0  0  0  0  0  0  0  0  0  0  0
   -1.3000   20.7100  -28.4270 S   0  0  0  0  0  0  0  0  0  0  0  0
   -0.4510   21.0310  -27.2270 O   0  0  0  0  0  0  0  0  0  0  0  0
   -2.3830   19.7640  -27.9910 O   0  0  0  0  0  0  0  0  0  0  0  0
   -2.0540   22.1830  -29.0350 C   0  0  0  0  0  0  0  0  0  0  0  0
   -1.6540   23.4400  -28.5560 C   0  0  0  0  0  0  0  0  0  0  0  0
   -2.2620   24.6030  -29.0400 C   0  0  0  0  0  0  0  0  0  0  0  0
   -3.2660   24.5190  -30.0090 C   0  0  0  0  0  0  0  0  0  0  0  0
   -3.8690   25.6770  -30.4890 O   0  0  0  0  0  0  0  0  0  0  0  0
   -3.6610   23.2690  -30.4970 C   0  0  0  0  0  0  0  0  0  0  0  0
   -3.0570   22.1030  -30.0120 C   0  0  0  0  0  0  0  0  0  0  0  0
    0.0502   18.2985  -27.4549 H   0  0  0  0  0  0  0  0  0  0  0  0
   -1.2497   17.5391  -28.4349 H   0  0  0  0  0  0  0  0  0  0  0  0
    0.4028   16.8349  -28.4349 H   0  0  0  0  0  0  0  0  0  0  0  0
    1.3755   17.0648  -30.4780 H   0  0  0  0  0  0  0  0  0  0  0  0
    2.0424   18.4339  -32.4435 H   0  0  0  0  0  0  0  0  0  0  0  0
   -0.9696   17.9901  -34.1036 H   0  0  0  0  0  0  0  0  0  0  0  0
   -3.3494   17.3340  -33.7477 H   0  0  0  0  0  0  0  0  0  0  0  0
   -6.2953   21.2484  -30.7333 H   0  0  0  0  0  0  0  0  0  0  0  0
   -6.1748   21.3490  -32.5470 H   0  0  0  0  0  0  0  0  0  0  0  0
   -8.6186   21.0317  -30.7947 H   0  0  0  0  0  0  0  0  0  0  0  0
   -8.3363   22.1088  -32.2112 H   0  0  0  0  0  0  0  0  0  0  0  0
   -9.5612   18.8217  -31.2999 H   0  0  0  0  0  0  0  0  0  0  0  0
   -8.8673   18.1296  -32.8435 H   0  0  0  0  0  0  0  0  0  0  0  0
   -7.5562   18.6769  -30.2363 H   0  0  0  0  0  0  0  0  0  0  0  0
   -7.1478   17.5034  -31.5625 H   0  0  0  0  0  0  0  0  0  0  0  0
   -4.4053   21.4934  -33.1719 H   0  0  0  0  0  0  0  0  0  0  0  0
   -2.0295   22.1493  -33.5443 H   0  0  0  0  0  0  0  0  0  0  0  0
   -0.8602   23.5108  -27.7978 H   0  0  0  0  0  0  0  0  0  0  0  0
   -1.9494   25.5858  -28.6573 H   0  0  0  0  0  0  0  0  0  0  0  0
   -4.4475   23.2021  -31.2631 H   0  0  0  0  0  0  0  0  0  0  0  0
   -3.3698   21.1216  -30.3981 H   0  0  0  0  0  0  0  0  0  0  0  0
  1  2  1  0
  2  3  2  0
  3  4  1  0
  4  5  2  0
  5  6  1  0
  6  7  1  0
  7  8  2  0
  7  9  2  0
  7 10  1  0
 10 11  2  0
 11 12  1  0
 12 13  2  0
 13 14  1  0
 14 15  2  0
 14 16  2  0
 14 17  1  0
 17 18  1  0
 18 19  1  0
 19 20  1  0
 20 21  1  0
 21 22  1  0
 13 23  1  0
 23 24  2  0
  5 25  1  0
 25 26  1  0
 25 27  2  0
 27 28  1  0
 28 29  2  0
 28 30  2  0
 28 31  1  0
 31 32  2  0
 32 33  1  0
 33 34  2  0
 34 35  1  0
 34 36  1  0
 36 37  2  0
 27  2  1  0
 37 31  1  0
 24 10  1  0
 22 17  1  0
  1 38  1  0
  1 39  1  0
  1 40  1  0
  3 41  1  0
  4 42  1  0
 11 43  1  0
 12 44  1  0
 18 45  1  0
 18 46  1  0
 19 47  1  0
 19 48  1  0
 21 49  1  0
 21 50  1  0
 22 51  1  0
 22 52  1  0
 23 53  1  0
 24 54  1  0
 32 55  1  0
 33 56  1  0
 36 57  1  0
 37 58  1  0
M  CHG  3   6  -1  26  -1  35  -1
M  END
>  <UniqueID>  (47) 
41

>  <SMILES>  (47) 
Cc1ccc([N-]S(=O)(=O)c2ccc(S(=O)(=O)N3CCOCC3)cc2)c([O-])c1S(=O)(=O)c1ccc([O-])cc1

>  <Energy>  (47) 
84.64834787802947

>  <Genealogy>  (47) 
Cc1ccc([N-]S(=O)(=O)c2ccc(S(=O)(=O)N3CCOCC3)cc2)c([O-])c1S(=O)(=O)c1ccc([O-])cc1 (protonated)
Cc1ccc([N-]S(=O)(=O)c2ccc(S(=O)(=O)N3CCOCC3)cc2)c([O-])c1S(=O)(=O)c1ccc([O-])cc1 (3D coordinates assigned)
Cc1ccc([N-]S(=O)(=O)c2ccc(S(=O)(=O)N3CCOCC3)cc2)c([O-])c1S(=O)(=O)c1ccc([O-])cc1 (nonaromatic ring conformer: 84.64834787802947 kcal/mol)

>  <smiles>  (47) 
Cc1ccc(NS(=O)(=O)c2ccc(S(=O)(=O)N3CCOCC3)cc2)c(O)c1S(=O)(=O)c1ccc(O)cc1

>  <score_type>  (47) 
oracle

>  <origin>  (47) 
adgpu

>  <m_score__min__energy>  (47) 
-15.869999999999999

>  <m_primary>  (47) 
energy

$$$$
47:0
     RDKit          3D

 48 51  0  0  0  0  0  0  0  0999 V2000
   -4.4270   14.8000  -33.7710 N   0  0  0  0  0  0  0  0  0  0  0  0
   -4.9940   15.7910  -33.5830 C   0  0  0  0  0  0  0  0  0  0  0  0
   -5.7040   17.0220  -33.3510 C   0  0  0  0  0  0  0  0  0  0  0  0
   -5.6080   18.0700  -34.2710 C   0  0  0  0  0  0  0  0  0  0  0  0
   -6.3060   19.2610  -34.0500 C   0  0  0  0  0  0  0  0  0  0  0  0
   -7.1170   19.4110  -32.9100 C   0  0  0  0  0  0  0  0  0  0  0  0
   -7.8080   20.6020  -32.6430 O   0  0  0  0  0  0  0  0  0  0  0  0
   -7.2390   21.7780  -32.1320 C   0  0  0  0  0  0  0  0  0  0  0  0
   -5.8800   22.0190  -32.3560 C   0  0  0  0  0  0  0  0  0  0  0  0
   -5.2730   23.1770  -31.8610 C   0  0  0  0  0  0  0  0  0  0  0  0
   -6.0160   24.1010  -31.1070 C   0  0  0  0  0  0  0  0  0  0  0  0
   -5.3640   25.3530  -30.5760 C   0  0  0  0  0  0  0  0  0  0  0  0
   -3.9080   25.2500  -30.6320 N   0  0  0  0  0  0  0  0  0  0  0  0
   -3.0860   24.5570  -29.6840 C   0  0  0  0  0  0  0  0  0  0  0  0
   -3.5300   23.4990  -29.1620 O   0  0  0  0  0  0  0  0  0  0  0  0
   -1.7890   25.0560  -29.3140 N   0  0  0  0  0  0  0  0  0  0  0  0
   -0.9740   24.4270  -28.3100 C   0  0  0  0  0  0  0  0  0  0  0  0
   -0.1830   23.3190  -28.6530 C   0  0  0  0  0  0  0  0  0  0  0  0
    0.6480   22.7170  -27.7100 C   0  0  0  0  0  0  0  0  0  0  0  0
    0.7120   23.2150  -26.4100 C   0  0  0  0  0  0  0  0  0  0  0  0
   -0.0620   24.3250  -26.0400 C   0  0  0  0  0  0  0  0  0  0  0  0
    0.0100   24.8300  -24.7320 C   0  0  0  0  0  0  0  0  0  0  0  0
   -0.7540   25.9370  -24.3610 C   0  0  0  0  0  0  0  0  0  0  0  0
   -1.6090   26.5410  -25.2830 C   0  0  0  0  0  0  0  0  0  0  0  0
   -1.7000   26.0450  -26.5880 C   0  0  0  0  0  0  0  0  0  0  0  0
   -0.9150   24.9430  -26.9920 C   0  0  0  0  0  0  0  0  0  0  0  0
   -7.3790   23.8550  -30.8770 C   0  0  0  0  0  0  0  0  0  0  0  0
   -7.9840   22.6960  -31.3730 C   0  0  0  0  0  0  0  0  0  0  0  0
   -7.1920   18.3650  -31.9850 C   0  0  0  0  0  0  0  0  0  0  0  0
   -6.4950   17.1720  -32.2040 C   0  0  0  0  0  0  0  0  0  0  0  0
   -4.9830   17.9576  -35.1692 H   0  0  0  0  0  0  0  0  0  0  0  0
   -6.2206   20.0863  -34.7722 H   0  0  0  0  0  0  0  0  0  0  0  0
   -5.2837   21.2916  -32.9263 H   0  0  0  0  0  0  0  0  0  0  0  0
   -4.2083   23.3658  -32.0628 H   0  0  0  0  0  0  0  0  0  0  0  0
   -5.6873   26.2118  -31.1826 H   0  0  0  0  0  0  0  0  0  0  0  0
   -5.6654   25.4866  -29.5266 H   0  0  0  0  0  0  0  0  0  0  0  0
   -1.4560   25.9600  -29.7170 H   0  0  0  0  0  0  0  0  0  0  0  0
   -0.2196   22.9214  -29.6780 H   0  0  0  0  0  0  0  0  0  0  0  0
    1.2560   21.8451  -27.9930 H   0  0  0  0  0  0  0  0  0  0  0  0
    1.3717   22.7361  -25.6714 H   0  0  0  0  0  0  0  0  0  0  0  0
    0.6721   24.3505  -23.9960 H   0  0  0  0  0  0  0  0  0  0  0  0
   -0.6819   26.3348  -23.3380 H   0  0  0  0  0  0  0  0  0  0  0  0
   -2.2134   27.4098  -24.9831 H   0  0  0  0  0  0  0  0  0  0  0  0
   -2.3882   26.5170  -27.3047 H   0  0  0  0  0  0  0  0  0  0  0  0
   -7.9752   24.5792  -30.3025 H   0  0  0  0  0  0  0  0  0  0  0  0
   -9.0473   22.5023  -31.1681 H   0  0  0  0  0  0  0  0  0  0  0  0
   -7.8037   18.4811  -31.0782 H   0  0  0  0  0  0  0  0  0  0  0  0
   -6.5679   16.3511  -31.4754 H   0  0  0  0  0  0  0  0  0  0  0  0
  1  2  3  0
  2  3  1  0
  3  4  2  0
  4  5  1  0
  5  6  2  0
  6  7  1  0
  7  8  1  0
  8  9  2  0
  9 10  1  0
 10 11  2  0
 11 12  1  0
 12 13  1  0
 13 14  1  0
 14 15  2  0
 14 16  1  0
 16 17  1  0
 17 18  2  0
 18 19  1  0
 19 20  2  0
 20 21  1  0
 21 22  2  0
 22 23  1  0
 23 24  2  0
 24 25  1  0
 25 26  2  0
 11 27  1  0
 27 28  2  0
  6 29  1  0
 29 30  2  0
 30  3  1  0
 28  8  1  0
 26 17  1  0
 26 21  1  0
  4 31  1  0
  5 32  1  0
  9 33  1  0
 10 34  1  0
 12 35  1  0
 12 36  1  0
 16 37  1  0
 18 38  1  0
 19 39  1  0
 20 40  1  0
 22 41  1  0
 23 42  1  0
 24 43  1  0
 25 44  1  0
 27 45  1  0
 28 46  1  0
 29 47  1  0
 30 48  1  0
M  CHG  1  13  -1
M  END
>  <UniqueID>  (48) 
42

>  <SMILES>  (48) 
N#Cc1ccc(Oc2ccc(C[N-]C(=O)Nc3cccc4ccccc34)cc2)cc1

>  <Energy>  (48) 
64.39453067603638

>  <Genealogy>  (48) 
N#Cc1ccc(Oc2ccc(C[N-]C(=O)Nc3cccc4ccccc34)cc2)cc1 (protonated)
N#Cc1ccc(Oc2ccc(C[N-]C(=O)Nc3cccc4ccccc34)cc2)cc1 (3D coordinates assigned)
N#Cc1ccc(Oc2ccc(C[N-]C(=O)Nc3cccc4ccccc34)cc2)cc1 (optimized conformer: 64.39453067603638 kcal/mol)

>  <smiles>  (48) 
N#Cc1ccc(Oc2ccc(CNC(=O)Nc3cccc4ccccc34)cc2)cc1

>  <score_type>  (48) 
oracle

>  <origin>  (48) 
adgpu

>  <m_score__min__energy>  (48) 
-12.19

>  <m_primary>  (48) 
energy

$$$$
48:0
     RDKit          3D

 44 46  0  0  0  0  0  0  0  0999 V2000
   -4.3731   21.7270  -27.7545 H   0  0  0  0  0  0  0  0  0  0  0  0
   -3.7240   22.1840  -28.5160 C   0  0  0  0  0  0  0  0  0  0  0  0
   -4.0210   23.4550  -29.0140 C   0  0  0  0  0  0  0  0  0  0  0  0
   -4.9058   23.9959  -28.6471 H   0  0  0  0  0  0  0  0  0  0  0  0
   -3.1950   24.0400  -29.9780 C   0  0  0  0  0  0  0  0  0  0  0  0
   -3.4890   25.3060  -30.4680 O   0  0  0  0  0  0  0  0  0  0  0  0
   -2.0710   23.3510  -30.4480 C   0  0  0  0  0  0  0  0  0  0  0  0
   -1.4183   23.8168  -31.2010 H   0  0  0  0  0  0  0  0  0  0  0  0
   -1.7730   22.0670  -29.9620 C   0  0  0  0  0  0  0  0  0  0  0  0
   -0.5630   21.3210  -30.4590 C   0  0  0  0  0  0  0  0  0  0  0  0
   -0.4536   20.3882  -29.8864 H   0  0  0  0  0  0  0  0  0  0  0  0
    0.3242   21.9574  -30.3253 H   0  0  0  0  0  0  0  0  0  0  0  0
   -0.7010   20.9990  -31.8800 N   0  0  0  0  0  0  0  0  0  0  0  0
    0.0960   21.2590  -32.5070 H   0  0  0  0  0  0  0  0  0  0  0  0
   -1.8240   20.3020  -32.4530 C   0  0  0  0  0  0  0  0  0  0  0  0
   -2.9580   20.9850  -32.9320 C   0  0  0  0  0  0  0  0  0  0  0  0
   -2.9995   22.0828  -32.8757 H   0  0  0  0  0  0  0  0  0  0  0  0
   -4.0320   20.2760  -33.4790 C   0  0  0  0  0  0  0  0  0  0  0  0
   -4.9141   20.8187  -33.8498 H   0  0  0  0  0  0  0  0  0  0  0  0
   -3.9900   18.8780  -33.5570 C   0  0  0  0  0  0  0  0  0  0  0  0
   -5.3250   17.9780  -34.2680 S   0  0  0  0  0  0  0  0  0  0  0  0
   -4.9620   16.5280  -34.4300 O   0  0  0  0  0  0  0  0  0  0  0  0
   -5.6340   18.5470  -35.6250 O   0  0  0  0  0  0  0  0  0  0  0  0
   -6.7240   18.1140  -33.2590 N   0  0  0  0  0  0  0  0  0  0  0  0
   -7.2140   19.2610  -32.9030 C   0  0  0  0  0  0  0  0  0  0  0  0
   -6.7200   20.4270  -33.2500 O   0  0  0  0  0  0  0  0  0  0  0  0
   -7.4270   21.3830  -32.7230 N   0  0  0  0  0  0  0  0  0  0  0  0
   -7.2390   22.4020  -32.8470 H   0  0  0  0  0  0  0  0  0  0  0  0
   -8.4170   20.8240  -31.9960 C   0  0  0  0  0  0  0  0  0  0  0  0
   -9.4500   21.5940  -31.2390 C   0  0  0  0  0  0  0  0  0  0  0  0
   -9.2822   21.4690  -30.1591 H   0  0  0  0  0  0  0  0  0  0  0  0
   -9.3773   22.6600  -31.5003 H   0  0  0  0  0  0  0  0  0  0  0  0
  -10.4508   21.2198  -31.5003 H   0  0  0  0  0  0  0  0  0  0  0  0
   -8.3270   19.4470  -32.1070 C   0  0  0  0  0  0  0  0  0  0  0  0
   -9.1600   18.4080  -31.4250 C   0  0  0  0  0  0  0  0  0  0  0  0
   -9.0684   18.5222  -30.3348 H   0  0  0  0  0  0  0  0  0  0  0  0
  -10.2127   18.5308  -31.7194 H   0  0  0  0  0  0  0  0  0  0  0  0
   -8.8113   17.4071  -31.7194 H   0  0  0  0  0  0  0  0  0  0  0  0
   -2.8580   18.1960  -33.0950 C   0  0  0  0  0  0  0  0  0  0  0  0
   -2.8136   17.0991  -33.1640 H   0  0  0  0  0  0  0  0  0  0  0  0
   -1.7850   18.9020  -32.5470 C   0  0  0  0  0  0  0  0  0  0  0  0
   -0.9011   18.3560  -32.1857 H   0  0  0  0  0  0  0  0  0  0  0  0
   -2.6030   21.4920  -28.9840 C   0  0  0  0  0  0  0  0  0  0  0  0
   -2.3696   20.4937  -28.5854 H   0  0  0  0  0  0  0  0  0  0  0  0
  1  2  1  0
  2  3  2  0
  3  4  1  0
  3  5  1  0
  5  6  1  0
  5  7  2  0
  7  8  1  0
  7  9  1  0
  9 10  1  0
 10 11  1  0
 10 12  1  0
 10 13  1  0
 13 14  1  0
 13 15  1  0
 15 16  2  0
 16 17  1  0
 16 18  1  0
 18 19  1  0
 18 20  2  0
 20 21  1  0
 21 22  2  0
 21 23  2  0
 21 24  1  0
 24 25  2  0
 25 26  1  0
 26 27  1  0
 27 28  1  0
 27 29  1  0
 29 30  1  0
 30 31  1  0
 30 32  1  0
 30 33  1  0
 29 34  2  0
 34 35  1  0
 35 36  1  0
 35 37  1  0
 35 38  1  0
 20 39  1  0
 39 40  1  0
 39 41  2  0
 41 42  1  0
  9 43  2  0
 43 44  1  0
 43  2  1  0
 41 15  1  0
 34 25  1  0
M  CHG  1   6  -1
M  END
>  <UniqueID>  (49) 
43

>  <SMILES>  (49) 
Cc1[nH]o/c(=N\S(=O)(=O)c2ccc(NCc3cccc([O-])c3)cc2)c1C

>  <Energy>  (49) 
78.18805682311367

>  <Genealogy>  (49) 
Cc1[nH]oc(=NS(=O)(=O)c2ccc(NCc3cccc([O-])c3)cc2)c1C (protonated)
Cc1[nH]o/c(=N\S(=O)(=O)c2ccc(NCc3cccc([O-])c3)cc2)c1C (cis-trans isomerization)
Cc1[nH]o/c(=N\S(=O)(=O)c2ccc(NCc3cccc([O-])c3)cc2)c1C (3D coordinates assigned)
Cc1[nH]o/c(=N\S(=O)(=O)c2ccc(NCc3cccc([O-])c3)cc2)c1C (optimized conformer: 78.18805682311367 kcal/mol)

>  <smiles>  (49) 
Cc1[nH]oc(=NS(=O)(=O)c2ccc(NCc3cccc(O)c3)cc2)c1C

>  <score_type>  (49) 
oracle

>  <origin>  (49) 
adgpu

>  <m_score__min__energy>  (49) 
-11.300000000000001

>  <m_primary>  (49) 
energy

$$$$
49:0
     RDKit          3D

 54 57  0  0  0  0  0  0  0  0999 V2000
   -5.8980   26.2280  -29.9760 O   0  0  0  0  0  0  0  0  0  0  0  0
   -5.2940   25.2110  -30.4100 C   0  0  0  0  0  0  0  0  0  0  0  0
   -3.8630   25.2530  -30.5110 N   0  0  0  0  0  0  0  0  0  0  0  0
   -2.9500   24.2930  -29.9590 C   0  0  0  0  0  0  0  0  0  0  0  0
   -2.8680   22.9810  -30.4570 C   0  0  0  0  0  0  0  0  0  0  0  0
   -1.9700   22.0690  -29.8920 C   0  0  0  0  0  0  0  0  0  0  0  0
   -1.1570   22.4540  -28.8180 C   0  0  0  0  0  0  0  0  0  0  0  0
   -0.0460   21.2930  -28.0960 S   0  0  0  0  0  0  0  0  0  0  0  0
    0.5090   20.4060  -29.1740 O   0  0  0  0  0  0  0  0  0  0  0  0
    1.0950   22.0240  -27.4410 O   0  0  0  0  0  0  0  0  0  0  0  0
   -0.9050   20.3220  -26.9280 N   0  0  0  0  0  0  0  0  0  0  0  0
   -0.7340   18.8950  -27.1940 C   0  0  0  0  0  0  0  0  0  0  0  0
   -1.9660   18.2000  -26.6350 C   0  0  0  0  0  0  0  0  0  0  0  0
   -3.0210   19.2880  -26.5100 C   0  0  0  0  0  0  0  0  0  0  0  0
   -2.3460   20.5620  -26.9950 C   0  0  0  0  0  0  0  0  0  0  0  0
   -1.2640   23.7500  -28.2990 C   0  0  0  0  0  0  0  0  0  0  0  0
   -2.1600   24.6630  -28.8640 C   0  0  0  0  0  0  0  0  0  0  0  0
   -6.0760   24.0300  -30.8410 C   0  0  0  0  0  0  0  0  0  0  0  0
   -6.9420   23.3900  -29.9390 C   0  0  0  0  0  0  0  0  0  0  0  0
   -7.6650   22.2600  -30.3340 C   0  0  0  0  0  0  0  0  0  0  0  0
   -7.5440   21.7660  -31.6390 C   0  0  0  0  0  0  0  0  0  0  0  0
   -8.4080   20.3120  -32.1360 S   0  0  0  0  0  0  0  0  0  0  0  0
   -8.1230   20.0540  -33.5880 O   0  0  0  0  0  0  0  0  0  0  0  0
   -9.8890   20.5090  -31.9720 O   0  0  0  0  0  0  0  0  0  0  0  0
   -7.9020   18.9290  -31.2040 N   0  0  0  0  0  0  0  0  0  0  0  0
   -6.8940   18.1390  -31.9140 C   0  0  0  0  0  0  0  0  0  0  0  0
   -5.7020   18.9720  -32.2670 C   0  0  0  0  0  0  0  0  0  0  0  0
   -5.1860   19.1470  -33.5350 C   0  0  0  0  0  0  0  0  0  0  0  0
   -4.0890   19.9680  -33.3760 C   0  0  0  0  0  0  0  0  0  0  0  0
   -4.0070   20.2420  -32.0260 C   0  0  0  0  0  0  0  0  0  0  0  0
   -4.9820   19.6340  -31.3910 O   0  0  0  0  0  0  0  0  0  0  0  0
   -6.7000   22.4140  -32.5480 C   0  0  0  0  0  0  0  0  0  0  0  0
   -5.9750   23.5420  -32.1560 C   0  0  0  0  0  0  0  0  0  0  0  0
   -3.5117   22.6705  -31.2932 H   0  0  0  0  0  0  0  0  0  0  0  0
   -1.9021   21.0466  -30.2922 H   0  0  0  0  0  0  0  0  0  0  0  0
   -0.6559   18.7171  -28.2767 H   0  0  0  0  0  0  0  0  0  0  0  0
    0.1851   18.5110  -26.7272 H   0  0  0  0  0  0  0  0  0  0  0  0
   -2.3068   17.4103  -27.3207 H   0  0  0  0  0  0  0  0  0  0  0  0
   -1.7601   17.7166  -25.6686 H   0  0  0  0  0  0  0  0  0  0  0  0
   -3.8935   19.0520  -27.1369 H   0  0  0  0  0  0  0  0  0  0  0  0
   -3.3872   19.3864  -25.4774 H   0  0  0  0  0  0  0  0  0  0  0  0
   -2.6468   20.7806  -28.0303 H   0  0  0  0  0  0  0  0  0  0  0  0
   -2.6341   21.4244  -26.3758 H   0  0  0  0  0  0  0  0  0  0  0  0
   -0.6411   24.0511  -27.4438 H   0  0  0  0  0  0  0  0  0  0  0  0
   -2.2445   25.6770  -28.4460 H   0  0  0  0  0  0  0  0  0  0  0  0
   -7.0521   23.7798  -28.9163 H   0  0  0  0  0  0  0  0  0  0  0  0
   -8.3311   21.7574  -29.6173 H   0  0  0  0  0  0  0  0  0  0  0  0
   -6.5721   17.3068  -31.2707 H   0  0  0  0  0  0  0  0  0  0  0  0
   -7.3414   17.7599  -32.8447 H   0  0  0  0  0  0  0  0  0  0  0  0
   -5.5688   18.7215  -34.4744 H   0  0  0  0  0  0  0  0  0  0  0  0
   -3.4153   20.3311  -34.1661 H   0  0  0  0  0  0  0  0  0  0  0  0
   -3.2407   20.8741  -31.5535 H   0  0  0  0  0  0  0  0  0  0  0  0
   -6.6070   22.0334  -33.5759 H   0  0  0  0  0  0  0  0  0  0  0  0
   -5.3217   24.0512  -32.8798 H   0  0  0  0  0  0  0  0  0  0  0  0
  1  2  2  0
  2  3  1  0
  3  4  1  0
  4  5  2  0
  5  6  1  0
  6  7  2  0
  7  8  1  0
  8  9  2  0
  8 10  2  0
  8 11  1  0
 11 12  1  0
 12 13  1  0
 13 14  1  0
 14 15  1  0
  7 16  1  0
 16 17  2  0
  2 18  1  0
 18 19  2  0
 19 20  1  0
 20 21  2  0
 21 22  1  0
 22 23  2  0
 22 24  2  0
 22 25  1  0
 25 26  1  0
 26 27  1  0
 27 28  2  0
 28 29  1  0
 29 30  2  0
 30 31  1  0
 21 32  1  0
 32 33  2  0
 17  4  1  0
 33 18  1  0
 15 11  1  0
 31 27  1  0
  5 34  1  0
  6 35  1  0
 12 36  1  0
 12 37  1  0
 13 38  1  0
 13 39  1  0
 14 40  1  0
 14 41  1  0
 15 42  1  0
 15 43  1  0
 16 44  1  0
 17 45  1  0
 19 46  1  0
 20 47  1  0
 26 48  1  0
 26 49  1  0
 28 50  1  0
 29 51  1  0
 30 52  1  0
 32 53  1  0
 33 54  1  0
M  CHG  2   3  -1  25  -1
M  END
>  <UniqueID>  (50) 
44

>  <SMILES>  (50) 
O=C([N-]c1ccc(S(=O)(=O)N2CCCC2)cc1)c1ccc(S(=O)(=O)[N-]Cc2ccco2)cc1

>  <Energy>  (50) 
88.08075080108522

>  <Genealogy>  (50) 
O=C([N-]c1ccc(S(=O)(=O)N2CCCC2)cc1)c1ccc(S(=O)(=O)[N-]Cc2ccco2)cc1 (protonated)
O=C([N-]c1ccc(S(=O)(=O)N2CCCC2)cc1)c1ccc(S(=O)(=O)[N-]Cc2ccco2)cc1 (3D coordinates assigned)
O=C([N-]c1ccc(S(=O)(=O)N2CCCC2)cc1)c1ccc(S(=O)(=O)[N-]Cc2ccco2)cc1 (nonaromatic ring conformer: 88.08075080108522 kcal/mol)

>  <smiles>  (50) 
O=C(Nc1ccc(S(=O)(=O)N2CCCC2)cc1)c1ccc(S(=O)(=O)NCc2ccco2)cc1

>  <score_type>  (50) 
oracle

>  <origin>  (50) 
adgpu

>  <m_score__min__energy>  (50) 
-12.06

>  <m_primary>  (50) 
energy

$$$$
