0:0
     RDKit          3D

 43 45  0  0  0  0  0  0  0  0999 V2000
   -2.1930   25.2560  -29.1250 O   0  0  0  0  0  0  0  0  0  0  0  0
   -3.1280   24.6730  -29.7370 C   0  0  0  0  0  0  0  0  0  0  0  0
   -3.8930   25.2740  -30.6630 N   0  0  0  0  0  0  0  0  0  0  0  0
   -4.7580   24.3620  -31.0820 N   0  0  0  0  0  0  0  0  0  0  0  0
   -4.5030   23.2230  -30.4030 C   0  0  0  0  0  0  0  0  0  0  0  0
   -5.2690   21.9400  -30.6220 C   0  0  0  0  0  0  0  0  0  0  0  0
   -6.3680   22.1030  -31.6110 N   0  0  0  0  0  0  0  0  0  0  0  0
   -7.6620   22.4320  -30.9480 C   0  0  0  0  0  0  0  0  0  0  0  0
   -8.8900   22.4630  -31.8880 C   0  0  0  0  0  0  0  0  0  0  0  0
   -9.6690   21.1310  -32.0360 C   0  0  0  0  0  0  0  0  0  0  0  0
   -8.8530   19.9440  -32.5750 C   0  0  0  0  0  0  0  0  0  0  0  0
   -7.4160   19.8320  -32.0150 C   0  0  0  0  0  0  0  0  0  0  0  0
   -6.4230   20.9100  -32.4930 C   0  0  0  0  0  0  0  0  0  0  0  0
   -3.4740   23.3880  -29.5400 N   0  0  0  0  0  0  0  0  0  0  0  0
   -2.8850   22.4340  -28.5950 C   0  0  0  0  0  0  0  0  0  0  0  0
   -1.9420   21.4920  -29.2950 C   0  0  0  0  0  0  0  0  0  0  0  0
   -1.3050   20.4630  -28.5810 C   0  0  0  0  0  0  0  0  0  0  0  0
   -0.4520   19.5720  -29.2380 C   0  0  0  0  0  0  0  0  0  0  0  0
   -0.2180   19.7090  -30.6090 C   0  0  0  0  0  0  0  0  0  0  0  0
   -0.8290   20.7440  -31.3240 C   0  0  0  0  0  0  0  0  0  0  0  0
   -0.5310   20.9180  -33.0440 Cl  0  0  0  0  0  0  0  0  0  0  0  0
   -1.6820   21.6390  -30.6680 C   0  0  0  0  0  0  0  0  0  0  0  0
   -4.5737   21.1706  -30.9888 H   0  0  0  0  0  0  0  0  0  0  0  0
   -5.7195   21.6479  -29.6620 H   0  0  0  0  0  0  0  0  0  0  0  0
   -6.1290   22.9160  -32.2260 H   0  0  0  0  0  0  0  0  0  0  0  0
   -7.8476   21.6777  -30.1692 H   0  0  0  0  0  0  0  0  0  0  0  0
   -7.5531   23.4523  -30.5515 H   0  0  0  0  0  0  0  0  0  0  0  0
   -9.5889   23.2202  -31.5031 H   0  0  0  0  0  0  0  0  0  0  0  0
   -8.4907   22.6847  -32.8887 H   0  0  0  0  0  0  0  0  0  0  0  0
  -10.0572   20.8534  -31.0449 H   0  0  0  0  0  0  0  0  0  0  0  0
  -10.4546   21.3215  -32.7821 H   0  0  0  0  0  0  0  0  0  0  0  0
   -9.3906   19.0179  -32.3235 H   0  0  0  0  0  0  0  0  0  0  0  0
   -8.7495   20.1080  -33.6578 H   0  0  0  0  0  0  0  0  0  0  0  0
   -7.4758   19.8910  -30.9182 H   0  0  0  0  0  0  0  0  0  0  0  0
   -7.0227   18.8761  -32.3913 H   0  0  0  0  0  0  0  0  0  0  0  0
   -5.4189   20.4629  -32.5357 H   0  0  0  0  0  0  0  0  0  0  0  0
   -6.7711   21.2540  -33.4781 H   0  0  0  0  0  0  0  0  0  0  0  0
   -2.3319   22.9882  -27.8224 H   0  0  0  0  0  0  0  0  0  0  0  0
   -3.6956   21.8448  -28.1414 H   0  0  0  0  0  0  0  0  0  0  0  0
   -1.4785   20.3583  -27.4998 H   0  0  0  0  0  0  0  0  0  0  0  0
    0.0356   18.7622  -28.6755 H   0  0  0  0  0  0  0  0  0  0  0  0
    0.4474   19.0021  -31.1262 H   0  0  0  0  0  0  0  0  0  0  0  0
   -2.1507   22.4607  -31.2295 H   0  0  0  0  0  0  0  0  0  0  0  0
  1  2  2  0
  2  3  1  0
  3  4  1  0
  4  5  2  0
  5  6  1  0
  6  7  1  0
  7  8  1  0
  8  9  1  0
  9 10  1  0
 10 11  1  0
 11 12  1  0
 12 13  1  0
  5 14  1  0
 14 15  1  0
 15 16  1  0
 16 17  2  0
 17 18  1  0
 18 19  2  0
 19 20  1  0
 20 21  1  0
 20 22  2  0
 14  2  1  0
 22 16  1  0
 13  7  1  0
  6 23  1  0
  6 24  1  0
  7 25  1  0
  8 26  1  0
  8 27  1  0
  9 28  1  0
  9 29  1  0
 10 30  1  0
 10 31  1  0
 11 32  1  0
 11 33  1  0
 12 34  1  0
 12 35  1  0
 13 36  1  0
 13 37  1  0
 15 38  1  0
 15 39  1  0
 17 40  1  0
 18 41  1  0
 19 42  1  0
 22 43  1  0
M  CHG  2   3  -1   7   1
M  END
>  <UniqueID>  (1) 
1

>  <SMILES>  (1) 
O=c1[n-]nc(C[NH+]2CCCCCC2)n1Cc1cccc(Cl)c1

>  <Energy>  (1) 
92.16180540522741

>  <Genealogy>  (1) 
O=c1[n-]nc(C[NH+]2CCCCCC2)n1Cc1cccc(Cl)c1 (protonated)
O=c1[n-]nc(C[NH+]2CCCCCC2)n1Cc1cccc(Cl)c1 (3D coordinates assigned)
O=c1[n-]nc(C[NH+]2CCCCCC2)n1Cc1cccc(Cl)c1 (nonaromatic ring conformer: 92.16180540522741 kcal/mol)

>  <smiles>  (1) 
O=c1[nH]nc(CN2CCCCCC2)n1Cc1cccc(Cl)c1

>  <score_type>  (1) 
oracle

>  <origin>  (1) 
adgpu

>  <m_score__min__energy>  (1) 
-6.9400000000000004

>  <m_primary>  (1) 
energy

$$$$
1:0
     RDKit          3D

 95100  0  0  0  0  0  0  0  0999 V2000
   -2.0010   25.0140  -27.8590 C   0  0  0  0  0  0  0  0  0  0  0  0
   -2.5000   25.2680  -29.1680 O   0  0  0  0  0  0  0  0  0  0  0  0
   -3.2400   24.3510  -29.9310 C   0  0  0  0  0  0  0  0  0  0  0  0
   -4.6000   24.5560  -30.2390 C   0  0  0  0  0  0  0  0  0  0  0  0
   -5.3030   23.6310  -31.0220 C   0  0  0  0  0  0  0  0  0  0  0  0
   -4.6520   22.4580  -31.4600 C   0  0  0  0  0  0  0  0  0  0  0  0
   -3.2950   22.2610  -31.1650 C   0  0  0  0  0  0  0  0  0  0  0  0
   -2.5860   23.2020  -30.3950 C   0  0  0  0  0  0  0  0  0  0  0  0
   -1.2300   23.0280  -30.0660 O   0  0  0  0  0  0  0  0  0  0  0  0
   -0.6570   21.7980  -29.6370 C   0  0  0  0  0  0  0  0  0  0  0  0
   -5.3860   21.4470  -32.3070 C   0  0  0  0  0  0  0  0  0  0  0  0
   -6.8360   21.5330  -32.0620 N   0  0  0  0  0  0  0  0  0  0  0  0
   -7.5950   20.4810  -32.7730 C   0  0  0  0  0  0  0  0  0  0  0  0
   -7.4500   19.1440  -32.0290 C   0  0  0  0  0  0  0  0  0  0  0  0
   -6.4840   18.2250  -32.7380 C   0  0  0  0  0  0  0  0  0  0  0  0
   -5.9750   17.0940  -32.0770 C   0  0  0  0  0  0  0  0  0  0  0  0
   -5.2140   16.1520  -32.7700 C   0  0  0  0  0  0  0  0  0  0  0  0
   -4.9190   16.3470  -34.1290 C   0  0  0  0  0  0  0  0  0  0  0  0
   -4.1620   15.3720  -34.8550 N   0  0  0  0  0  0  0  0  0  0  0  0
   -2.7570   15.5210  -35.0430 C   0  0  0  0  0  0  0  0  0  0  0  0
   -2.2130   15.0170  -36.0620 O   0  0  0  0  0  0  0  0  0  0  0  0
   -1.9960   16.3020  -34.1080 N   0  0  0  0  0  0  0  0  0  0  0  0
   -0.6690   16.7910  -34.3590 C   0  0  0  0  0  0  0  0  0  0  0  0
   -0.5010   17.8100  -35.3060 C   0  0  0  0  0  0  0  0  0  0  0  0
    0.7760   18.3030  -35.6260 C   0  0  0  0  0  0  0  0  0  0  0  0
    0.9380   19.3950  -36.6110 C   0  0  0  0  0  0  0  0  0  0  0  0
    0.3170   19.3460  -37.7040 O   0  0  0  0  0  0  0  0  0  0  0  0
    1.7820   20.5230  -36.3480 N   0  0  0  0  0  0  0  0  0  0  0  0
    1.4270   21.5840  -35.4060 C   0  0  0  0  0  0  0  0  0  0  0  0
   -0.1060   21.6800  -35.2750 C   0  0  0  0  0  0  0  0  0  0  0  0
   -0.6070   21.6190  -33.8810 N   0  0  0  0  0  0  0  0  0  0  0  0
    0.2220   20.7780  -32.9980 C   0  0  0  0  0  0  0  0  0  0  0  0
   -0.6490   19.6550  -32.4440 C   0  0  0  0  0  0  0  0  0  0  0  0
   -1.9450   19.7290  -33.2220 C   0  0  0  0  0  0  0  0  0  0  0  0
   -1.9950   21.1480  -33.7590 C   0  0  0  0  0  0  0  0  0  0  0  0
    1.8990   17.7230  -35.0220 C   0  0  0  0  0  0  0  0  0  0  0  0
    1.7410   16.7320  -34.0490 C   0  0  0  0  0  0  0  0  0  0  0  0
    0.4660   16.3070  -33.6640 C   0  0  0  0  0  0  0  0  0  0  0  0
    0.3650   15.4180  -32.5870 O   0  0  0  0  0  0  0  0  0  0  0  0
    0.5820   15.7620  -31.2440 C   0  0  0  0  0  0  0  0  0  0  0  0
    0.3260   17.0540  -30.7470 C   0  0  0  0  0  0  0  0  0  0  0  0
    0.5620   17.3520  -29.4020 C   0  0  0  0  0  0  0  0  0  0  0  0
    1.0800   16.3770  -28.5380 C   0  0  0  0  0  0  0  0  0  0  0  0
    1.2920   16.6970  -27.0870 C   0  0  0  0  0  0  0  0  0  0  0  0
    1.3420   15.0910  -29.0320 C   0  0  0  0  0  0  0  0  0  0  0  0
    1.1070   14.7960  -30.3800 C   0  0  0  0  0  0  0  0  0  0  0  0
   -5.3720   17.5000  -34.7800 C   0  0  0  0  0  0  0  0  0  0  0  0
   -6.1760   18.4210  -34.0960 C   0  0  0  0  0  0  0  0  0  0  0  0
   -7.3260   22.8910  -32.3400 C   0  0  0  0  0  0  0  0  0  0  0  0
   -6.7770   23.8440  -31.2760 C   0  0  0  0  0  0  0  0  0  0  0  0
   -2.7223   25.3811  -27.1140 H   0  0  0  0  0  0  0  0  0  0  0  0
   -1.8550   23.9319  -27.7258 H   0  0  0  0  0  0  0  0  0  0  0  0
   -1.0402   25.5327  -27.7258 H   0  0  0  0  0  0  0  0  0  0  0  0
   -5.1148   25.4515  -29.8607 H   0  0  0  0  0  0  0  0  0  0  0  0
   -2.7805   21.3634  -31.5386 H   0  0  0  0  0  0  0  0  0  0  0  0
   -0.6414   21.7645  -28.5376 H   0  0  0  0  0  0  0  0  0  0  0  0
   -1.2575   20.9601  -30.0209 H   0  0  0  0  0  0  0  0  0  0  0  0
    0.3708   21.7187  -30.0209 H   0  0  0  0  0  0  0  0  0  0  0  0
   -5.1847   21.6488  -33.3694 H   0  0  0  0  0  0  0  0  0  0  0  0
   -5.0372   20.4377  -32.0431 H   0  0  0  0  0  0  0  0  0  0  0  0
   -8.6576   20.7623  -32.8154 H   0  0  0  0  0  0  0  0  0  0  0  0
   -7.1998   20.3741  -33.7940 H   0  0  0  0  0  0  0  0  0  0  0  0
   -7.0792   19.3381  -31.0117 H   0  0  0  0  0  0  0  0  0  0  0  0
   -8.4350   18.6553  -31.9969 H   0  0  0  0  0  0  0  0  0  0  0  0
   -6.1781   16.9504  -31.0055 H   0  0  0  0  0  0  0  0  0  0  0  0
   -4.8446   15.2552  -32.2510 H   0  0  0  0  0  0  0  0  0  0  0  0
   -2.5250   16.7230  -33.3100 H   0  0  0  0  0  0  0  0  0  0  0  0
   -1.3842   18.2318  -35.8080 H   0  0  0  0  0  0  0  0  0  0  0  0
    1.8635   21.3586  -34.4218 H   0  0  0  0  0  0  0  0  0  0  0  0
    1.8189   22.5426  -35.7767 H   0  0  0  0  0  0  0  0  0  0  0  0
   -0.4297   22.6346  -35.7154 H   0  0  0  0  0  0  0  0  0  0  0  0
   -0.5208   20.8045  -35.7961 H   0  0  0  0  0  0  0  0  0  0  0  0
    1.0588   20.3510  -33.5703 H   0  0  0  0  0  0  0  0  0  0  0  0
    0.6283   21.3823  -32.1735 H   0  0  0  0  0  0  0  0  0  0  0  0
   -0.1633   18.6801  -32.5976 H   0  0  0  0  0  0  0  0  0  0  0  0
   -0.8152   19.7627  -31.3620 H   0  0  0  0  0  0  0  0  0  0  0  0
   -1.9433   19.0022  -34.0476 H   0  0  0  0  0  0  0  0  0  0  0  0
   -2.8184   19.4907  -32.5971 H   0  0  0  0  0  0  0  0  0  0  0  0
   -2.4847   21.1607  -34.7439 H   0  0  0  0  0  0  0  0  0  0  0  0
   -2.5693   21.7996  -33.0841 H   0  0  0  0  0  0  0  0  0  0  0  0
    2.9083   18.0484  -35.3143 H   0  0  0  0  0  0  0  0  0  0  0  0
    2.6291   16.2818  -33.5814 H   0  0  0  0  0  0  0  0  0  0  0  0
   -0.0616   17.8327  -31.4204 H   0  0  0  0  0  0  0  0  0  0  0  0
    0.3397   18.3588  -29.0186 H   0  0  0  0  0  0  0  0  0  0  0  0
    0.7901   15.9394  -26.4673 H   0  0  0  0  0  0  0  0  0  0  0  0
    2.3694   16.6970  -26.8651 H   0  0  0  0  0  0  0  0  0  0  0  0
    0.8719   17.6891  -26.8651 H   0  0  0  0  0  0  0  0  0  0  0  0
    1.7326   14.3132  -28.3594 H   0  0  0  0  0  0  0  0  0  0  0  0
    1.3382   13.7916  -30.7645 H   0  0  0  0  0  0  0  0  0  0  0  0
   -5.0967   17.6832  -35.8291 H   0  0  0  0  0  0  0  0  0  0  0  0
   -6.5686   19.3024  -34.6242 H   0  0  0  0  0  0  0  0  0  0  0  0
   -6.9825   23.2110  -33.3348 H   0  0  0  0  0  0  0  0  0  0  0  0
   -8.4257   22.9020  -32.3181 H   0  0  0  0  0  0  0  0  0  0  0  0
   -6.9318   24.8792  -31.6144 H   0  0  0  0  0  0  0  0  0  0  0  0
   -7.3129   23.6444  -30.3364 H   0  0  0  0  0  0  0  0  0  0  0  0
  1  2  1  0
  2  3  1  0
  3  4  2  0
  4  5  1  0
  5  6  2  0
  6  7  1  0
  7  8  2  0
  8  9  1  0
  9 10  1  0
  6 11  1  0
 11 12  1  0
 12 13  1  0
 13 14  1  0
 14 15  1  0
 15 16  2  0
 16 17  1  0
 17 18  2  0
 18 19  1  0
 19 20  1  0
 20 21  2  0
 20 22  1  0
 22 23  1  0
 23 24  2  0
 24 25  1  0
 25 26  1  0
 26 27  2  0
 26 28  1  0
 28 29  1  0
 29 30  1  0
 30 31  1  0
 31 32  1  0
 32 33  1  0
 33 34  1  0
 34 35  1  0
 25 36  2  0
 36 37  1  0
 37 38  2  0
 38 39  1  0
 39 40  1  0
 40 41  2  0
 41 42  1  0
 42 43  2  0
 43 44  1  0
 43 45  1  0
 45 46  2  0
 18 47  1  0
 47 48  2  0
 12 49  1  0
 49 50  1  0
  8  3  1  0
 48 15  1  0
 50  5  1  0
 38 23  1  0
 46 40  1  0
 35 31  1  0
  1 51  1  0
  1 52  1  0
  1 53  1  0
  4 54  1  0
  7 55  1  0
 10 56  1  0
 10 57  1  0
 10 58  1  0
 11 59  1  0
 11 60  1  0
 13 61  1  0
 13 62  1  0
 14 63  1  0
 14 64  1  0
 16 65  1  0
 17 66  1  0
 22 67  1  0
 24 68  1  0
 29 69  1  0
 29 70  1  0
 30 71  1  0
 30 72  1  0
 32 73  1  0
 32 74  1  0
 33 75  1  0
 33 76  1  0
 34 77  1  0
 34 78  1  0
 35 79  1  0
 35 80  1  0
 36 81  1  0
 37 82  1  0
 41 83  1  0
 42 84  1  0
 44 85  1  0
 44 86  1  0
 44 87  1  0
 45 88  1  0
 46 89  1  0
 47 90  1  0
 48 91  1  0
 49 92  1  0
 49 93  1  0
 50 94  1  0
 50 95  1  0
M  CHG  2  19  -1  28  -1
M  END
>  <UniqueID>  (2) 
2

>  <SMILES>  (2) 
COc1cc2c(cc1OC)CN(CCc1ccc([N-]C(=O)Nc3cc(C(=O)[N-]CCN4CCCC4)ccc3Oc3ccc(C)cc3)cc1)CC2

>  <Energy>  (2) 
128.176147261823

>  <Genealogy>  (2) 
COc1cc2c(cc1OC)CN(CCc1ccc([N-]C(=O)Nc3cc(C(=O)[N-]CCN4CCCC4)ccc3Oc3ccc(C)cc3)cc1)CC2 (protonated)
COc1cc2c(cc1OC)CN(CCc1ccc([N-]C(=O)Nc3cc(C(=O)[N-]CCN4CCCC4)ccc3Oc3ccc(C)cc3)cc1)CC2 (3D coordinates assigned)
COc1cc2c(cc1OC)CN(CCc1ccc([N-]C(=O)Nc3cc(C(=O)[N-]CCN4CCCC4)ccc3Oc3ccc(C)cc3)cc1)CC2 (nonaromatic ring conformer: 128.176147261823 kcal/mol)

>  <smiles>  (2) 
COc1cc2c(cc1OC)CN(CCc1ccc(NC(=O)Nc3cc(C(=O)NCCN4CCCC4)ccc3Oc3ccc(C)cc3)cc1)CC2

>  <score_type>  (2) 
oracle

>  <origin>  (2) 
adgpu

>  <m_score__min__energy>  (2) 
-13.01

>  <m_primary>  (2) 
energy

$$$$
2:0
     RDKit          3D

 47 50  0  0  0  0  0  0  0  0999 V2000
    1.0250   19.6020  -29.9410 C   0  0  0  0  0  0  0  0  0  0  0  0
   -0.1990   20.3020  -30.4390 C   0  0  0  0  0  0  0  0  0  0  0  0
   -0.9100   21.1710  -29.6040 C   0  0  0  0  0  0  0  0  0  0  0  0
   -2.0420   21.8210  -30.1160 C   0  0  0  0  0  0  0  0  0  0  0  0
   -2.8350   22.7610  -29.2900 C   0  0  0  0  0  0  0  0  0  0  0  0
   -2.6250   22.7940  -27.8990 C   0  0  0  0  0  0  0  0  0  0  0  0
   -3.3530   23.6690  -27.0910 C   0  0  0  0  0  0  0  0  0  0  0  0
   -4.2910   24.5310  -27.6610 C   0  0  0  0  0  0  0  0  0  0  0  0
   -4.4960   24.5260  -29.0420 C   0  0  0  0  0  0  0  0  0  0  0  0
   -3.7670   23.6540  -29.8640 C   0  0  0  0  0  0  0  0  0  0  0  0
   -3.9510   23.6950  -31.2470 O   0  0  0  0  0  0  0  0  0  0  0  0
   -2.3970   21.6120  -31.4120 N   0  0  0  0  0  0  0  0  0  0  0  0
   -1.6930   20.7710  -32.2120 C   0  0  0  0  0  0  0  0  0  0  0  0
   -2.2110   20.5100  -33.9010 S   0  0  0  0  0  0  0  0  0  0  0  0
   -3.9410   20.4350  -33.4330 C   0  0  0  0  0  0  0  0  0  0  0  0
   -4.6150   21.5250  -32.9850 N   0  0  0  0  0  0  0  0  0  0  0  0
   -5.8530   21.0380  -32.7690 C   0  0  0  0  0  0  0  0  0  0  0  0
   -5.9130   19.7220  -33.0730 C   0  0  0  0  0  0  0  0  0  0  0  0
   -7.1000   19.0160  -32.9100 C   0  0  0  0  0  0  0  0  0  0  0  0
   -7.1550   17.7840  -33.1750 O   0  0  0  0  0  0  0  0  0  0  0  0
   -8.2040   19.6960  -32.4450 N   0  0  0  0  0  0  0  0  0  0  0  0
   -9.4700   18.9800  -32.2200 C   0  0  0  0  0  0  0  0  0  0  0  0
   -8.1070   21.0370  -32.1120 C   0  0  0  0  0  0  0  0  0  0  0  0
   -9.1070   21.6360  -31.6230 O   0  0  0  0  0  0  0  0  0  0  0  0
   -6.9290   21.7270  -32.3000 N   0  0  0  0  0  0  0  0  0  0  0  0
   -6.8160   23.1460  -31.9350 C   0  0  0  0  0  0  0  0  0  0  0  0
   -4.7040   19.3120  -33.4950 N   0  0  0  0  0  0  0  0  0  0  0  0
   -4.3140   17.9730  -33.9360 C   0  0  0  0  0  0  0  0  0  0  0  0
   -0.6030   20.1240  -31.7260 N   0  0  0  0  0  0  0  0  0  0  0  0
    1.0253   19.6018  -28.8410 H   0  0  0  0  0  0  0  0  0  0  0  0
    1.0292   18.5650  -30.3078 H   0  0  0  0  0  0  0  0  0  0  0  0
    1.9209   20.1243  -30.3078 H   0  0  0  0  0  0  0  0  0  0  0  0
   -0.5872   21.3409  -28.5662 H   0  0  0  0  0  0  0  0  0  0  0  0
   -1.8804   22.1242  -27.4442 H   0  0  0  0  0  0  0  0  0  0  0  0
   -3.1872   23.6791  -26.0036 H   0  0  0  0  0  0  0  0  0  0  0  0
   -4.8691   25.2147  -27.0219 H   0  0  0  0  0  0  0  0  0  0  0  0
   -5.2333   25.2097  -29.4879 H   0  0  0  0  0  0  0  0  0  0  0  0
   -3.8340   22.8690  -31.8230 H   0  0  0  0  0  0  0  0  0  0  0  0
   -9.6474   18.8797  -31.1390 H   0  0  0  0  0  0  0  0  0  0  0  0
  -10.2966   19.5444  -32.6764 H   0  0  0  0  0  0  0  0  0  0  0  0
   -9.4123   17.9808  -32.6764 H   0  0  0  0  0  0  0  0  0  0  0  0
   -6.8083   23.2433  -30.8393 H   0  0  0  0  0  0  0  0  0  0  0  0
   -5.8823   23.5571  -32.3462 H   0  0  0  0  0  0  0  0  0  0  0  0
   -7.6729   23.6997  -32.3462 H   0  0  0  0  0  0  0  0  0  0  0  0
   -4.1288   17.3371  -33.0577 H   0  0  0  0  0  0  0  0  0  0  0  0
   -5.1223   17.5363  -34.5410 H   0  0  0  0  0  0  0  0  0  0  0  0
   -3.3976   18.0386  -34.5410 H   0  0  0  0  0  0  0  0  0  0  0  0
  1  2  1  0
  2  3  2  0
  3  4  1  0
  4  5  1  0
  5  6  2  0
  6  7  1  0
  7  8  2  0
  8  9  1  0
  9 10  2  0
 10 11  1  0
  4 12  2  0
 12 13  1  0
 13 14  1  0
 14 15  1  0
 15 16  2  0
 16 17  1  0
 17 18  2  0
 18 19  1  0
 19 20  2  0
 19 21  1  0
 21 22  1  0
 21 23  1  0
 23 24  2  0
 23 25  1  0
 25 26  1  0
 18 27  1  0
 27 28  1  0
 13 29  2  0
 29  2  1  0
 10  5  1  0
 27 15  1  0
 25 17  1  0
  1 30  1  0
  1 31  1  0
  1 32  1  0
  3 33  1  0
  6 34  1  0
  7 35  1  0
  8 36  1  0
  9 37  1  0
 11 38  1  0
 22 39  1  0
 22 40  1  0
 22 41  1  0
 26 42  1  0
 26 43  1  0
 26 44  1  0
 28 45  1  0
 28 46  1  0
 28 47  1  0
M  END
>  <UniqueID>  (3) 
3

>  <SMILES>  (3) 
Cc1cc(-c2ccccc2O)nc(Sc2nc3c(c(=O)n(C)c(=O)n3C)n2C)n1

>  <Energy>  (3) 
96.91719485950487

>  <Genealogy>  (3) 
Cc1cc(-c2ccccc2O)nc(Sc2nc3c(c(=O)n(C)c(=O)n3C)n2C)n1 (3D coordinates assigned)
Cc1cc(-c2ccccc2O)nc(Sc2nc3c(c(=O)n(C)c(=O)n3C)n2C)n1 (optimized conformer: 96.91719485950487 kcal/mol)

>  <smiles>  (3) 
Cc1cc(-c2ccccc2O)nc(Sc2nc3c(c(=O)n(C)c(=O)n3C)n2C)n1

>  <score_type>  (3) 
oracle

>  <origin>  (3) 
adgpu

>  <m_score__min__energy>  (3) 
-9.3100000000000005

>  <m_primary>  (3) 
energy

$$$$
3:0
     RDKit          3D

 66 69  0  0  0  0  0  0  0  0999 V2000
    2.7960   22.4440  -37.2660 H   0  0  0  0  0  0  0  0  0  0  0  0
    2.2020   23.1720  -36.8100 N   0  0  0  0  0  0  0  0  0  0  0  0
    1.0180   22.8110  -36.0990 C   0  0  0  0  0  0  0  0  0  0  0  0
    0.2390   23.7210  -35.7020 O   0  0  0  0  0  0  0  0  0  0  0  0
    0.7010   21.3880  -35.8330 C   0  0  0  0  0  0  0  0  0  0  0  0
    1.1830   20.3790  -36.6890 C   0  0  0  0  0  0  0  0  0  0  0  0
    1.8146   20.6471  -37.5488 H   0  0  0  0  0  0  0  0  0  0  0  0
    0.8640   19.0400  -36.4530 C   0  0  0  0  0  0  0  0  0  0  0  0
    1.2425   18.2588  -37.1286 H   0  0  0  0  0  0  0  0  0  0  0  0
    0.0660   18.6900  -35.3620 C   0  0  0  0  0  0  0  0  0  0  0  0
   -0.2003   17.6360  -35.1942 H   0  0  0  0  0  0  0  0  0  0  0  0
   -0.3960   19.6730  -34.4820 C   0  0  0  0  0  0  0  0  0  0  0  0
   -1.2560   19.2900  -33.4000 N   0  0  0  0  0  0  0  0  0  0  0  0
   -2.5930   18.7980  -33.5380 C   0  0  0  0  0  0  0  0  0  0  0  0
   -2.7720   17.5700  -33.7540 O   0  0  0  0  0  0  0  0  0  0  0  0
   -3.7870   19.6850  -33.2930 C   0  0  0  0  0  0  0  0  0  0  0  0
   -4.3161   19.3286  -32.3969 H   0  0  0  0  0  0  0  0  0  0  0  0
   -4.4331   19.6379  -34.1820 H   0  0  0  0  0  0  0  0  0  0  0  0
   -3.3870   21.1300  -33.0820 C   0  0  0  0  0  0  0  0  0  0  0  0
   -3.8670   22.0210  -33.8320 O   0  0  0  0  0  0  0  0  0  0  0  0
   -2.4850   21.5490  -32.0410 N   0  0  0  0  0  0  0  0  0  0  0  0
   -2.5850   22.5450  -31.2100 C   0  0  0  0  0  0  0  0  0  0  0  0
   -3.6650   23.3700  -31.2080 N   0  0  0  0  0  0  0  0  0  0  0  0
   -3.7380   24.4000  -30.3310 C   0  0  0  0  0  0  0  0  0  0  0  0
   -5.1390   25.5070  -30.3700 S   0  0  0  0  0  0  0  0  0  0  0  0
   -6.2630   24.1670  -30.7560 C   0  0  0  0  0  0  0  0  0  0  0  0
   -6.6560   23.9450  -32.0780 C   0  0  0  0  0  0  0  0  0  0  0  0
   -6.2605   24.5829  -32.8821 H   0  0  0  0  0  0  0  0  0  0  0  0
   -7.5500   22.9150  -32.3820 C   0  0  0  0  0  0  0  0  0  0  0  0
   -7.8519   22.7411  -33.4254 H   0  0  0  0  0  0  0  0  0  0  0  0
   -8.0650   22.1000  -31.3580 C   0  0  0  0  0  0  0  0  0  0  0  0
   -8.9610   21.0120  -31.6330 N   0  0  0  0  0  0  0  0  0  0  0  0
   -8.5900   19.6860  -32.0270 C   0  0  0  0  0  0  0  0  0  0  0  0
   -9.4110   18.7340  -31.9250 O   0  0  0  0  0  0  0  0  0  0  0  0
   -7.2170   19.4430  -32.4970 C   0  0  0  0  0  0  0  0  0  0  0  0
   -6.4698   19.0765  -31.7778 H   0  0  0  0  0  0  0  0  0  0  0  0
   -6.8430   19.6490  -33.7580 C   0  0  0  0  0  0  0  0  0  0  0  0
   -5.8044   19.4530  -34.0627 H   0  0  0  0  0  0  0  0  0  0  0  0
   -7.5726   20.0153  -34.4952 H   0  0  0  0  0  0  0  0  0  0  0  0
   -7.6490   22.3140  -30.0380 C   0  0  0  0  0  0  0  0  0  0  0  0
   -8.0245   21.6631  -29.2346 H   0  0  0  0  0  0  0  0  0  0  0  0
   -6.7590   23.3500  -29.7340 C   0  0  0  0  0  0  0  0  0  0  0  0
   -6.4495   23.5220  -28.6925 H   0  0  0  0  0  0  0  0  0  0  0  0
   -2.7270   24.6190  -29.4570 N   0  0  0  0  0  0  0  0  0  0  0  0
   -1.6360   23.8060  -29.4550 C   0  0  0  0  0  0  0  0  0  0  0  0
   -0.6550   23.9960  -28.6230 N   0  0  0  0  0  0  0  0  0  0  0  0
   -0.5160   25.0920  -27.7030 C   0  0  0  0  0  0  0  0  0  0  0  0
   -0.8360   26.4130  -28.0680 C   0  0  0  0  0  0  0  0  0  0  0  0
   -1.2317   26.6232  -29.0726 H   0  0  0  0  0  0  0  0  0  0  0  0
   -0.6530   27.4590  -27.1590 C   0  0  0  0  0  0  0  0  0  0  0  0
   -0.9171   28.4872  -27.4472 H   0  0  0  0  0  0  0  0  0  0  0  0
   -0.1350   27.2040  -25.8830 C   0  0  0  0  0  0  0  0  0  0  0  0
    0.0850   28.5360  -24.7520 S   0  0  0  0  0  0  0  0  0  0  0  0
    1.0990   29.5110  -25.2830 O   0  0  0  0  0  0  0  0  0  0  0  0
   -1.2240   29.2480  -24.5590 O   0  0  0  0  0  0  0  0  0  0  0  0
    0.6590   27.9020  -23.1920 C   0  0  0  0  0  0  0  0  0  0  0  0
    0.1670   28.4455  -22.3719 H   0  0  0  0  0  0  0  0  0  0  0  0
    0.4167   26.8315  -23.1198 H   0  0  0  0  0  0  0  0  0  0  0  0
    1.7483   28.0371  -23.1198 H   0  0  0  0  0  0  0  0  0  0  0  0
    0.2140   25.8940  -25.5270 C   0  0  0  0  0  0  0  0  0  0  0  0
    0.6291   25.6880  -24.5294 H   0  0  0  0  0  0  0  0  0  0  0  0
    0.0350   24.8480  -26.4390 C   0  0  0  0  0  0  0  0  0  0  0  0
    0.3296   23.8254  -26.1607 H   0  0  0  0  0  0  0  0  0  0  0  0
   -1.5800   22.7640  -30.3230 N   0  0  0  0  0  0  0  0  0  0  0  0
   -0.0870   21.0220  -34.7240 C   0  0  0  0  0  0  0  0  0  0  0  0
   -0.4634   21.7987  -34.0421 H   0  0  0  0  0  0  0  0  0  0  0  0
  1  2  1  0
  2  3  1  0
  3  4  2  0
  3  5  1  0
  5  6  2  0
  6  7  1  0
  6  8  1  0
  8  9  1  0
  8 10  2  0
 10 11  1  0
 10 12  1  0
 12 13  1  0
 13 14  1  0
 14 15  2  0
 14 16  1  0
 16 17  1  0
 16 18  1  0
 16 19  1  0
 19 20  2  0
 19 21  1  0
 21 22  2  0
 22 23  1  0
 23 24  2  0
 24 25  1  0
 25 26  1  0
 26 27  2  0
 27 28  1  0
 27 29  1  0
 29 30  1  0
 29 31  2  0
 31 32  1  0
 32 33  1  0
 33 34  2  0
 33 35  1  0
 35 36  1  0
 35 37  2  0
 37 38  1  0
 37 39  1  0
 31 40  1  0
 40 41  1  0
 40 42  2  0
 42 43  1  0
 24 44  1  0
 44 45  1  0
 45 46  2  3
 46 47  1  0
 47 48  2  0
 48 49  1  0
 48 50  1  0
 50 51  1  0
 50 52  2  0
 52 53  1  0
 53 54  2  0
 53 55  2  0
 53 56  1  0
 56 57  1  0
 56 58  1  0
 56 59  1  0
 52 60  1  0
 60 61  1  0
 60 62  2  0
 62 63  1  0
 45 64  1  0
 12 65  2  0
 65 66  1  0
 65  5  1  0
 64 22  1  0
 42 26  1  0
 62 47  1  0
M  CHG  5   2  -1  13  -1  32  -1  44  -1  64  -1
M  END
>  <UniqueID>  (4) 
4

>  <SMILES>  (4) 
C=CC(=O)[N-]c1ccc(Sc2n/c(=N\C(=O)CC(=O)[N-]c3cccc(C([NH-])=O)c3)[n-]c(=Nc3ccc(S(C)(=O)=O)cc3)[n-]2)cc1

>  <Energy>  (4) 
76.80565832648762

>  <Genealogy>  (4) 
C=CC(=O)[N-]c1ccc(Sc2nc(=NC(=O)CC(=O)[N-]c3cccc(C([NH-])=O)c3)[n-]c(=Nc3ccc(S(C)(=O)=O)cc3)[n-]2)cc1 (protonated)
C=CC(=O)[N-]c1ccc(Sc2n/c(=N\C(=O)CC(=O)[N-]c3cccc(C([NH-])=O)c3)[n-]c(=Nc3ccc(S(C)(=O)=O)cc3)[n-]2)cc1 (cis-trans isomerization)
C=CC(=O)[N-]c1ccc(Sc2n/c(=N\C(=O)CC(=O)[N-]c3cccc(C([NH-])=O)c3)[n-]c(=Nc3ccc(S(C)(=O)=O)cc3)[n-]2)cc1 (3D coordinates assigned)
C=CC(=O)[N-]c1ccc(Sc2n/c(=N\C(=O)CC(=O)[N-]c3cccc(C([NH-])=O)c3)[n-]c(=Nc3ccc(S(C)(=O)=O)cc3)[n-]2)cc1 (optimized conformer: 76.80565832648762 kcal/mol)

>  <smiles>  (4) 
C=CC(=O)Nc1ccc(Sc2nc(=NC(=O)CC(=O)Nc3cccc(C(N)=O)c3)[nH]c(=Nc3ccc(S(C)(=O)=O)cc3)[nH]2)cc1

>  <score_type>  (4) 
oracle

>  <origin>  (4) 
adgpu

>  <m_score__min__energy>  (4) 
-13.68

>  <m_primary>  (4) 
energy

$$$$
4:0
     RDKit          3D

 46 49  0  0  0  0  0  0  0  0999 V2000
   -8.6480   23.6530  -32.1490 O   0  0  0  0  0  0  0  0  0  0  0  0
   -8.0990   22.3860  -31.5560 S   0  0  0  0  0  0  0  0  0  0  0  0
   -8.8830   22.0620  -30.3150 O   0  0  0  0  0  0  0  0  0  0  0  0
   -8.2600   21.0810  -32.6920 N   0  0  0  0  0  0  0  0  0  0  0  0
   -8.1940   19.7970  -31.9890 C   0  0  0  0  0  0  0  0  0  0  0  0
   -7.0790   18.9620  -32.5530 C   0  0  0  0  0  0  0  0  0  0  0  0
   -6.7600   17.7200  -31.9760 C   0  0  0  0  0  0  0  0  0  0  0  0
   -5.7390   16.9330  -32.5190 C   0  0  0  0  0  0  0  0  0  0  0  0
   -5.0390   17.3750  -33.6450 C   0  0  0  0  0  0  0  0  0  0  0  0
   -5.3600   18.6030  -34.2320 C   0  0  0  0  0  0  0  0  0  0  0  0
   -6.3800   19.3920  -33.6910 C   0  0  0  0  0  0  0  0  0  0  0  0
   -6.4030   22.6050  -31.1320 C   0  0  0  0  0  0  0  0  0  0  0  0
   -5.5820   21.4760  -30.9010 C   0  0  0  0  0  0  0  0  0  0  0  0
   -4.2680   21.6340  -30.4330 C   0  0  0  0  0  0  0  0  0  0  0  0
   -3.8100   22.9310  -30.1980 C   0  0  0  0  0  0  0  0  0  0  0  0
   -2.6180   23.4000  -29.6890 C   0  0  0  0  0  0  0  0  0  0  0  0
   -1.4870   22.6330  -29.1330 C   0  0  0  0  0  0  0  0  0  0  0  0
   -0.8530   21.6420  -29.7820 C   0  0  0  0  0  0  0  0  0  0  0  0
   -1.2710   21.0800  -31.0860 C   0  0  0  0  0  0  0  0  0  0  0  0
   -1.5880   19.7180  -31.1830 C   0  0  0  0  0  0  0  0  0  0  0  0
   -1.9550   19.1710  -32.4140 C   0  0  0  0  0  0  0  0  0  0  0  0
   -2.0260   19.9960  -33.5370 C   0  0  0  0  0  0  0  0  0  0  0  0
   -1.7580   21.3240  -33.4230 N   0  0  0  0  0  0  0  0  0  0  0  0
   -1.3960   21.8810  -32.2360 C   0  0  0  0  0  0  0  0  0  0  0  0
   -2.7330   24.7820  -29.7310 C   0  0  0  0  0  0  0  0  0  0  0  0
   -1.7500   25.6690  -29.3110 O   0  0  0  0  0  0  0  0  0  0  0  0
   -3.9380   25.1830  -30.1990 N   0  0  0  0  0  0  0  0  0  0  0  0
   -4.5830   24.0320  -30.4730 C   0  0  0  0  0  0  0  0  0  0  0  0
   -5.8920   23.9040  -30.9340 C   0  0  0  0  0  0  0  0  0  0  0  0
   -9.2130   21.1700  -33.1170 H   0  0  0  0  0  0  0  0  0  0  0  0
   -8.0106   19.9758  -30.9192 H   0  0  0  0  0  0  0  0  0  0  0  0
   -9.1473   19.2636  -32.1187 H   0  0  0  0  0  0  0  0  0  0  0  0
   -7.3152   17.3661  -31.0948 H   0  0  0  0  0  0  0  0  0  0  0  0
   -5.4869   15.9658  -32.0596 H   0  0  0  0  0  0  0  0  0  0  0  0
   -4.2348   16.7564  -34.0699 H   0  0  0  0  0  0  0  0  0  0  0  0
   -4.8099   18.9485  -35.1197 H   0  0  0  0  0  0  0  0  0  0  0  0
   -6.6354   20.3538  -34.1596 H   0  0  0  0  0  0  0  0  0  0  0  0
   -5.9765   20.4666  -31.0896 H   0  0  0  0  0  0  0  0  0  0  0  0
   -3.6198   20.7629  -30.2571 H   0  0  0  0  0  0  0  0  0  0  0  0
   -1.1401   22.8892  -28.1210 H   0  0  0  0  0  0  0  0  0  0  0  0
    0.0441   21.2163  -29.3087 H   0  0  0  0  0  0  0  0  0  0  0  0
   -1.5476   19.0794  -30.2882 H   0  0  0  0  0  0  0  0  0  0  0  0
   -2.1862   18.0988  -32.4978 H   0  0  0  0  0  0  0  0  0  0  0  0
   -2.2988   19.5719  -34.5146 H   0  0  0  0  0  0  0  0  0  0  0  0
   -1.2002   22.9617  -32.1749 H   0  0  0  0  0  0  0  0  0  0  0  0
   -6.5091   24.7915  -31.1376 H   0  0  0  0  0  0  0  0  0  0  0  0
  1  2  2  0
  2  3  2  0
  2  4  1  0
  4  5  1  0
  5  6  1  0
  6  7  2  0
  7  8  1  0
  8  9  2  0
  9 10  1  0
 10 11  2  0
  2 12  1  0
 12 13  2  0
 13 14  1  0
 14 15  2  0
 15 16  1  0
 16 17  1  0
 17 18  2  3
 18 19  1  0
 19 20  2  0
 20 21  1  0
 21 22  2  0
 22 23  1  0
 23 24  2  0
 16 25  2  0
 25 26  1  0
 25 27  1  0
 27 28  1  0
 28 29  2  0
 11  6  1  0
 29 12  1  0
 28 15  1  0
 24 19  1  0
  4 30  1  0
  5 31  1  0
  5 32  1  0
  7 33  1  0
  8 34  1  0
  9 35  1  0
 10 36  1  0
 11 37  1  0
 13 38  1  0
 14 39  1  0
 17 40  1  0
 18 41  1  0
 20 42  1  0
 21 43  1  0
 22 44  1  0
 24 45  1  0
 29 46  1  0
M  CHG  2  26  -1  27  -1
M  END
>  <UniqueID>  (5) 
5

>  <SMILES>  (5) 
O=S(=O)(NCc1ccccc1)c1ccc2c(C=Cc3cccnc3)c([O-])[n-]c2c1

>  <Energy>  (5) 
89.59826263735494

>  <Genealogy>  (5) 
O=S(=O)(NCc1ccccc1)c1ccc2c(C=Cc3cccnc3)c([O-])[n-]c2c1 (protonated)
O=S(=O)(NCc1ccccc1)c1ccc2c(C=Cc3cccnc3)c([O-])[n-]c2c1 (3D coordinates assigned)
O=S(=O)(NCc1ccccc1)c1ccc2c(C=Cc3cccnc3)c([O-])[n-]c2c1 (optimized conformer: 89.59826263735494 kcal/mol)

>  <smiles>  (5) 
O=S(=O)(NCc1ccccc1)c1ccc2c(C=Cc3cccnc3)c(O)[nH]c2c1

>  <score_type>  (5) 
oracle

>  <origin>  (5) 
adgpu

>  <m_score__min__energy>  (5) 
-13.66

>  <m_primary>  (5) 
energy

$$$$
5:0
     RDKit          3D

 51 54  0  0  0  0  0  0  0  0999 V2000
    1.7390   24.9660  -24.5090 C   0  0  0  0  0  0  0  0  0  0  0  0
    0.9420   25.4520  -25.6840 C   0  0  0  0  0  0  0  0  0  0  0  0
    0.7510   26.8260  -25.8900 C   0  0  0  0  0  0  0  0  0  0  0  0
    0.0330   27.2760  -27.0000 C   0  0  0  0  0  0  0  0  0  0  0  0
   -0.4890   26.3630  -27.9270 C   0  0  0  0  0  0  0  0  0  0  0  0
   -1.2390   26.8260  -29.0070 O   0  0  0  0  0  0  0  0  0  0  0  0
   -0.2620   24.9810  -27.7510 C   0  0  0  0  0  0  0  0  0  0  0  0
   -0.7560   24.0090  -28.6910 N   0  0  0  0  0  0  0  0  0  0  0  0
   -2.0890   23.4660  -28.6650 C   0  0  0  0  0  0  0  0  0  0  0  0
   -2.3410   22.2450  -28.0010 C   0  0  0  0  0  0  0  0  0  0  0  0
   -1.2370   21.5110  -27.2880 C   0  0  0  0  0  0  0  0  0  0  0  0
   -3.6350   21.7030  -28.0140 C   0  0  0  0  0  0  0  0  0  0  0  0
   -4.6740   22.3670  -28.6650 C   0  0  0  0  0  0  0  0  0  0  0  0
   -4.4400   23.5780  -29.3250 C   0  0  0  0  0  0  0  0  0  0  0  0
   -5.7860   24.3670  -30.1610 S   0  0  0  0  0  0  0  0  0  0  0  0
   -5.8600   25.8230  -29.7920 O   0  0  0  0  0  0  0  0  0  0  0  0
   -7.0670   23.7140  -29.7260 O   0  0  0  0  0  0  0  0  0  0  0  0
   -5.6340   24.1990  -31.8870 N   0  0  0  0  0  0  0  0  0  0  0  0
   -6.9090   23.8330  -32.5070 C   0  0  0  0  0  0  0  0  0  0  0  0
   -7.1720   22.3640  -32.3690 C   0  0  0  0  0  0  0  0  0  0  0  0
   -6.2050   21.3700  -32.3830 C   0  0  0  0  0  0  0  0  0  0  0  0
   -6.8450   20.2090  -32.1990 N   0  0  0  0  0  0  0  0  0  0  0  0
   -6.3570   18.9430  -32.1390 C   0  0  0  0  0  0  0  0  0  0  0  0
   -7.2660   17.8940  -31.9330 C   0  0  0  0  0  0  0  0  0  0  0  0
   -8.6380   18.1830  -31.7950 C   0  0  0  0  0  0  0  0  0  0  0  0
   -9.0960   19.5110  -31.8610 C   0  0  0  0  0  0  0  0  0  0  0  0
   -8.1490   20.5100  -32.0670 C   0  0  0  0  0  0  0  0  0  0  0  0
   -8.4020   21.8320  -32.1580 N   0  0  0  0  0  0  0  0  0  0  0  0
   -3.1410   24.1190  -29.3420 C   0  0  0  0  0  0  0  0  0  0  0  0
   -2.8850   25.2890  -30.0500 O   0  0  0  0  0  0  0  0  0  0  0  0
    0.4390   24.5380  -26.6200 C   0  0  0  0  0  0  0  0  0  0  0  0
    1.2404   25.2700  -23.5768 H   0  0  0  0  0  0  0  0  0  0  0  0
    1.8128   23.8691  -24.5445 H   0  0  0  0  0  0  0  0  0  0  0  0
    2.7480   25.4027  -24.5445 H   0  0  0  0  0  0  0  0  0  0  0  0
    1.1678   27.5510  -25.1754 H   0  0  0  0  0  0  0  0  0  0  0  0
   -0.1241   28.3546  -27.1481 H   0  0  0  0  0  0  0  0  0  0  0  0
   -1.6080   26.1940  -29.7090 H   0  0  0  0  0  0  0  0  0  0  0  0
   -0.1270   23.7250  -29.4750 H   0  0  0  0  0  0  0  0  0  0  0  0
   -1.3772   21.6042  -26.2010 H   0  0  0  0  0  0  0  0  0  0  0  0
   -1.2608   20.4483  -27.5710 H   0  0  0  0  0  0  0  0  0  0  0  0
   -0.2663   21.9441  -27.5710 H   0  0  0  0  0  0  0  0  0  0  0  0
   -3.8314   20.7469  -27.5067 H   0  0  0  0  0  0  0  0  0  0  0  0
   -5.6857   21.9352  -28.6595 H   0  0  0  0  0  0  0  0  0  0  0  0
   -7.7204   24.3912  -32.0171 H   0  0  0  0  0  0  0  0  0  0  0  0
   -6.8618   24.0812  -33.5776 H   0  0  0  0  0  0  0  0  0  0  0  0
   -5.1223   21.5088  -32.5189 H   0  0  0  0  0  0  0  0  0  0  0  0
   -5.2804   18.7456  -32.2487 H   0  0  0  0  0  0  0  0  0  0  0  0
   -6.9102   16.8545  -31.8797 H   0  0  0  0  0  0  0  0  0  0  0  0
   -9.3555   17.3648  -31.6346 H   0  0  0  0  0  0  0  0  0  0  0  0
  -10.1640   19.7515  -31.7537 H   0  0  0  0  0  0  0  0  0  0  0  0
    0.5960   23.4603  -26.4656 H   0  0  0  0  0  0  0  0  0  0  0  0
  1  2  1  0
  2  3  2  0
  3  4  1  0
  4  5  2  0
  5  6  1  0
  5  7  1  0
  7  8  1  0
  8  9  1  0
  9 10  2  0
 10 11  1  0
 10 12  1  0
 12 13  2  0
 13 14  1  0
 14 15  1  0
 15 16  2  0
 15 17  2  0
 15 18  1  0
 18 19  1  0
 19 20  1  0
 20 21  2  0
 21 22  1  0
 22 23  1  0
 23 24  2  0
 24 25  1  0
 25 26  2  0
 26 27  1  0
 27 28  2  0
 14 29  2  0
 29 30  1  0
  7 31  2  0
 31  2  1  0
 29  9  1  0
 28 20  1  0
 27 22  1  0
  1 32  1  0
  1 33  1  0
  1 34  1  0
  3 35  1  0
  4 36  1  0
  6 37  1  0
  8 38  1  0
 11 39  1  0
 11 40  1  0
 11 41  1  0
 12 42  1  0
 13 43  1  0
 19 44  1  0
 19 45  1  0
 21 46  1  0
 23 47  1  0
 24 48  1  0
 25 49  1  0
 26 50  1  0
 31 51  1  0
M  CHG  2  18  -1  30  -1
M  END
>  <UniqueID>  (6) 
6

>  <SMILES>  (6) 
Cc1ccc(O)c(Nc2c(C)ccc(S(=O)(=O)[N-]Cc3cn4ccccc4n3)c2[O-])c1

>  <Energy>  (6) 
95.76244444556185

>  <Genealogy>  (6) 
Cc1ccc(O)c(Nc2c(C)ccc(S(=O)(=O)[N-]Cc3cn4ccccc4n3)c2[O-])c1 (protonated)
Cc1ccc(O)c(Nc2c(C)ccc(S(=O)(=O)[N-]Cc3cn4ccccc4n3)c2[O-])c1 (3D coordinates assigned)
Cc1ccc(O)c(Nc2c(C)ccc(S(=O)(=O)[N-]Cc3cn4ccccc4n3)c2[O-])c1 (optimized conformer: 95.76244444556185 kcal/mol)

>  <smiles>  (6) 
Cc1ccc(O)c(Nc2c(C)ccc(S(=O)(=O)NCc3cn4ccccc4n3)c2O)c1

>  <score_type>  (6) 
oracle

>  <origin>  (6) 
adgpu

>  <m_score__min__energy>  (6) 
-14.56

>  <m_primary>  (6) 
energy

$$$$
6:0
     RDKit          3D

 24 26  0  0  0  0  0  0  0  0999 V2000
   -1.0986   26.1787  -27.3123 H   0  0  0  0  0  0  0  0  0  0  0  0
   -1.6480   25.3060  -27.6950 C   0  0  0  0  0  0  0  0  0  0  0  0
   -1.4230   24.7880  -28.9310 N   0  0  0  0  0  0  0  0  0  0  0  0
   -2.2330   23.7350  -29.1830 C   0  0  0  0  0  0  0  0  0  0  0  0
   -2.1800   22.9400  -30.3770 N   0  0  0  0  0  0  0  0  0  0  0  0
   -3.1170   22.8220  -31.2380 N   0  0  0  0  0  0  0  0  0  0  0  0
   -4.4440   23.3470  -31.0980 C   0  0  0  0  0  0  0  0  0  0  0  0
   -4.7710   24.6660  -30.8360 C   0  0  0  0  0  0  0  0  0  0  0  0
   -3.8620   25.6740  -30.5410 O   0  0  0  0  0  0  0  0  0  0  0  0
   -6.1060   24.8610  -30.9150 N   0  0  0  0  0  0  0  0  0  0  0  0
   -6.6220   25.7580  -30.7690 H   0  0  0  0  0  0  0  0  0  0  0  0
   -6.6230   23.6680  -31.2660 C   0  0  0  0  0  0  0  0  0  0  0  0
   -7.9610   23.3740  -31.5250 C   0  0  0  0  0  0  0  0  0  0  0  0
   -8.7430   24.1383  -31.4055 H   0  0  0  0  0  0  0  0  0  0  0  0
   -8.2800   22.0690  -31.9440 C   0  0  0  0  0  0  0  0  0  0  0  0
   -9.3276   21.8000  -32.1443 H   0  0  0  0  0  0  0  0  0  0  0  0
   -7.2630   21.1020  -32.1090 C   0  0  0  0  0  0  0  0  0  0  0  0
   -7.5243   20.0873  -32.4437 H   0  0  0  0  0  0  0  0  0  0  0  0
   -5.9200   21.4260  -31.8490 C   0  0  0  0  0  0  0  0  0  0  0  0
   -5.1191   20.6852  -31.9893 H   0  0  0  0  0  0  0  0  0  0  0  0
   -5.6370   22.7190  -31.4070 C   0  0  0  0  0  0  0  0  0  0  0  0
   -3.2210   23.3810  -27.8740 S   0  0  0  0  0  0  0  0  0  0  0  0
   -2.6230   24.6530  -26.9490 C   0  0  0  0  0  0  0  0  0  0  0  0
   -2.9466   24.9210  -25.9324 H   0  0  0  0  0  0  0  0  0  0  0  0
  1  2  1  0
  2  3  1  0
  3  4  2  0
  4  5  1  0
  5  6  2  0
  6  7  1  0
  7  8  2  0
  8  9  1  0
  8 10  1  0
 10 11  1  0
 10 12  1  0
 12 13  2  0
 13 14  1  0
 13 15  1  0
 15 16  1  0
 15 17  2  0
 17 18  1  0
 17 19  1  0
 19 20  1  0
 19 21  2  0
  4 22  1  0
 22 23  1  0
 23 24  1  0
 23  2  2  0
 21  7  1  0
 21 12  1  0
M  CHG  1   9  -1
M  END
>  <UniqueID>  (7) 
7

>  <SMILES>  (7) 
[O-]c1[nH]c2ccccc2c1/N=N\c1nccs1

>  <Energy>  (7) 
102.48362747104808

>  <Genealogy>  (7) 
[O-]c1[nH]c2ccccc2c1N=Nc1nccs1 (protonated)
[O-]c1[nH]c2ccccc2c1/N=N\c1nccs1 (cis-trans isomerization)
[O-]c1[nH]c2ccccc2c1/N=N\c1nccs1 (3D coordinates assigned)
[O-]c1[nH]c2ccccc2c1/N=N\c1nccs1 (optimized conformer: 102.48362747104808 kcal/mol)

>  <smiles>  (7) 
Oc1[nH]c2ccccc2c1N=Nc1nccs1

>  <score_type>  (7) 
oracle

>  <origin>  (7) 
adgpu

>  <m_score__min__energy>  (7) 
-9.5600000000000005

>  <m_primary>  (7) 
energy

$$$$
7:0
     RDKit          3D

 46 48  0  0  0  0  0  0  0  0999 V2000
   -2.6540   20.4620  -31.0630 C   0  0  0  0  0  0  0  0  0  0  0  0
   -2.4570   21.8280  -30.4570 C   0  0  0  0  0  0  0  0  0  0  0  0
   -1.3210   22.0260  -29.6540 C   0  0  0  0  0  0  0  0  0  0  0  0
   -1.0510   23.2700  -29.0910 C   0  0  0  0  0  0  0  0  0  0  0  0
   -1.9040   24.3520  -29.3240 C   0  0  0  0  0  0  0  0  0  0  0  0
   -1.6240   25.6450  -28.7620 N   0  0  0  0  0  0  0  0  0  0  0  0
   -0.4930   25.9170  -27.9170 C   0  0  0  0  0  0  0  0  0  0  0  0
    0.4540   25.0910  -27.8290 O   0  0  0  0  0  0  0  0  0  0  0  0
   -0.4060   27.1450  -27.1860 N   0  0  0  0  0  0  0  0  0  0  0  0
   -0.1400   27.2590  -25.7810 C   0  0  0  0  0  0  0  0  0  0  0  0
    0.9240   28.0410  -25.2930 C   0  0  0  0  0  0  0  0  0  0  0  0
    1.1380   28.1570  -23.9160 C   0  0  0  0  0  0  0  0  0  0  0  0
    0.2840   27.5100  -23.0180 C   0  0  0  0  0  0  0  0  0  0  0  0
   -0.7900   26.7550  -23.4960 C   0  0  0  0  0  0  0  0  0  0  0  0
   -1.0070   26.6370  -24.8730 C   0  0  0  0  0  0  0  0  0  0  0  0
   -3.0200   24.1860  -30.1580 C   0  0  0  0  0  0  0  0  0  0  0  0
   -3.8250   25.2880  -30.4210 O   0  0  0  0  0  0  0  0  0  0  0  0
   -3.3320   22.9220  -30.7120 C   0  0  0  0  0  0  0  0  0  0  0  0
   -4.8170   22.7640  -31.6990 S   0  0  0  0  0  0  0  0  0  0  0  0
   -4.5040   22.1750  -33.0460 O   0  0  0  0  0  0  0  0  0  0  0  0
   -5.3670   24.1410  -31.9540 O   0  0  0  0  0  0  0  0  0  0  0  0
   -6.0650   21.7880  -30.9420 N   0  0  0  0  0  0  0  0  0  0  0  0
   -6.5420   20.6750  -31.7870 C   0  0  0  0  0  0  0  0  0  0  0  0
   -7.8480   21.0080  -32.5340 C   0  0  0  0  0  0  0  0  0  0  0  0
   -7.9940   22.4000  -32.6960 O   0  0  0  0  0  0  0  0  0  0  0  0
   -8.2030   23.0120  -31.4380 C   0  0  0  0  0  0  0  0  0  0  0  0
   -7.1640   22.5850  -30.3750 C   0  0  0  0  0  0  0  0  0  0  0  0
   -2.7614   19.7170  -30.2608 H   0  0  0  0  0  0  0  0  0  0  0  0
   -3.5611   20.4642  -31.6852 H   0  0  0  0  0  0  0  0  0  0  0  0
   -1.7832   20.2078  -31.6852 H   0  0  0  0  0  0  0  0  0  0  0  0
   -0.6355   21.1861  -29.4677 H   0  0  0  0  0  0  0  0  0  0  0  0
   -0.1606   23.4022  -28.4587 H   0  0  0  0  0  0  0  0  0  0  0  0
   -2.3480   26.3900  -28.8730 H   0  0  0  0  0  0  0  0  0  0  0  0
    1.5891   28.5624  -25.9971 H   0  0  0  0  0  0  0  0  0  0  0  0
    1.9789   28.7577  -23.5391 H   0  0  0  0  0  0  0  0  0  0  0  0
    0.4576   27.5953  -21.9351 H   0  0  0  0  0  0  0  0  0  0  0  0
   -1.4660   26.2526  -22.7885 H   0  0  0  0  0  0  0  0  0  0  0  0
   -1.8621   26.0533  -25.2445 H   0  0  0  0  0  0  0  0  0  0  0  0
   -5.7642   20.4382  -32.5279 H   0  0  0  0  0  0  0  0  0  0  0  0
   -6.7485   19.8217  -31.1243 H   0  0  0  0  0  0  0  0  0  0  0  0
   -7.8280   20.5303  -33.5247 H   0  0  0  0  0  0  0  0  0  0  0  0
   -8.6963   20.6322  -31.9431 H   0  0  0  0  0  0  0  0  0  0  0  0
   -8.1450   24.1030  -31.5656 H   0  0  0  0  0  0  0  0  0  0  0  0
   -9.1915   22.6912  -31.0776 H   0  0  0  0  0  0  0  0  0  0  0  0
   -6.7409   23.4894  -29.9135 H   0  0  0  0  0  0  0  0  0  0  0  0
   -7.6835   21.9562  -29.6370 H   0  0  0  0  0  0  0  0  0  0  0  0
  1  2  1  0
  2  3  2  0
  3  4  1  0
  4  5  2  0
  5  6  1  0
  6  7  1  0
  7  8  2  0
  7  9  1  0
  9 10  1  0
 10 11  2  0
 11 12  1  0
 12 13  2  0
 13 14  1  0
 14 15  2  0
  5 16  1  0
 16 17  1  0
 16 18  2  0
 18 19  1  0
 19 20  2  0
 19 21  2  0
 19 22  1  0
 22 23  1  0
 23 24  1  0
 24 25  1  0
 25 26  1  0
 26 27  1  0
 18  2  1  0
 27 22  1  0
 15 10  1  0
  1 28  1  0
  1 29  1  0
  1 30  1  0
  3 31  1  0
  4 32  1  0
  6 33  1  0
 11 34  1  0
 12 35  1  0
 13 36  1  0
 14 37  1  0
 15 38  1  0
 23 39  1  0
 23 40  1  0
 24 41  1  0
 24 42  1  0
 26 43  1  0
 26 44  1  0
 27 45  1  0
 27 46  1  0
M  CHG  2   9  -1  17  -1
M  END
>  <UniqueID>  (8) 
8

>  <SMILES>  (8) 
Cc1ccc(NC(=O)[N-]c2ccccc2)c([O-])c1S(=O)(=O)N1CCOCC1

>  <Energy>  (8) 
71.98335331568575

>  <Genealogy>  (8) 
Cc1ccc(NC(=O)[N-]c2ccccc2)c([O-])c1S(=O)(=O)N1CCOCC1 (protonated)
Cc1ccc(NC(=O)[N-]c2ccccc2)c([O-])c1S(=O)(=O)N1CCOCC1 (3D coordinates assigned)
Cc1ccc(NC(=O)[N-]c2ccccc2)c([O-])c1S(=O)(=O)N1CCOCC1 (nonaromatic ring conformer: 71.98335331568575 kcal/mol)

>  <smiles>  (8) 
Cc1ccc(NC(=O)Nc2ccccc2)c(O)c1S(=O)(=O)N1CCOCC1

>  <score_type>  (8) 
oracle

>  <origin>  (8) 
adgpu

>  <m_score__min__energy>  (8) 
-12.449999999999999

>  <m_primary>  (8) 
energy

$$$$
8:0
     RDKit          3D

 33 34  0  0  0  0  0  0  0  0999 V2000
   -9.3290   19.7500  -33.0920 N   0  0  0  0  0  0  0  0  0  0  0  0
   -7.6840   19.4920  -32.6220 S   0  0  0  0  0  0  0  0  0  0  0  0
   -7.6210   18.4090  -31.5820 O   0  0  0  0  0  0  0  0  0  0  0  0
   -6.9020   19.0560  -33.8300 O   0  0  0  0  0  0  0  0  0  0  0  0
   -7.0050   20.9770  -31.9630 C   0  0  0  0  0  0  0  0  0  0  0  0
   -7.8020   21.8200  -31.1760 C   0  0  0  0  0  0  0  0  0  0  0  0
   -7.2720   23.0020  -30.6500 C   0  0  0  0  0  0  0  0  0  0  0  0
   -5.9370   23.3470  -30.8960 C   0  0  0  0  0  0  0  0  0  0  0  0
   -5.2900   24.8470  -30.2420 S   0  0  0  0  0  0  0  0  0  0  0  0
   -5.5440   24.9400  -28.7640 O   0  0  0  0  0  0  0  0  0  0  0  0
   -5.9620   26.0090  -30.9190 O   0  0  0  0  0  0  0  0  0  0  0  0
   -3.5860   24.9200  -30.5360 N   0  0  0  0  0  0  0  0  0  0  0  0
   -2.6700   23.9590  -30.0050 C   0  0  0  0  0  0  0  0  0  0  0  0
   -2.4400   22.9020  -30.6550 O   0  0  0  0  0  0  0  0  0  0  0  0
   -1.9950   24.1850  -28.6990 C   0  0  0  0  0  0  0  0  0  0  0  0
   -2.0340   23.1750  -27.7170 C   0  0  0  0  0  0  0  0  0  0  0  0
   -1.4160   23.3580  -26.4780 C   0  0  0  0  0  0  0  0  0  0  0  0
   -0.7500   24.5510  -26.1980 C   0  0  0  0  0  0  0  0  0  0  0  0
   -0.6990   25.5630  -27.1560 C   0  0  0  0  0  0  0  0  0  0  0  0
   -1.3090   25.3890  -28.4040 C   0  0  0  0  0  0  0  0  0  0  0  0
   -1.2100   26.4150  -29.3370 O   0  0  0  0  0  0  0  0  0  0  0  0
   -5.1370   22.5030  -31.6790 C   0  0  0  0  0  0  0  0  0  0  0  0
   -5.6690   21.3240  -32.2100 C   0  0  0  0  0  0  0  0  0  0  0  0
   -9.3640   19.6880  -34.1350 H   0  0  0  0  0  0  0  0  0  0  0  0
   -9.5730   20.7350  -32.8410 H   0  0  0  0  0  0  0  0  0  0  0  0
   -8.8487   21.5504  -30.9715 H   0  0  0  0  0  0  0  0  0  0  0  0
   -7.9057   23.6633  -30.0408 H   0  0  0  0  0  0  0  0  0  0  0  0
   -2.5575   22.2311  -27.9289 H   0  0  0  0  0  0  0  0  0  0  0  0
   -1.4546   22.5600  -25.7219 H   0  0  0  0  0  0  0  0  0  0  0  0
   -0.2648   24.6937  -25.2211 H   0  0  0  0  0  0  0  0  0  0  0  0
   -0.1762   26.5040  -26.9297 H   0  0  0  0  0  0  0  0  0  0  0  0
   -4.0880   22.7690  -31.8761 H   0  0  0  0  0  0  0  0  0  0  0  0
   -5.0368   20.6659  -32.8241 H   0  0  0  0  0  0  0  0  0  0  0  0
  1  2  1  0
  2  3  2  0
  2  4  2  0
  2  5  1  0
  5  6  2  0
  6  7  1  0
  7  8  2  0
  8  9  1  0
  9 10  2  0
  9 11  2  0
  9 12  1  0
 12 13  1  0
 13 14  2  0
 13 15  1  0
 15 16  2  0
 16 17  1  0
 17 18  2  0
 18 19  1  0
 19 20  2  0
 20 21  1  0
  8 22  1  0
 22 23  2  0
 23  5  1  0
 20 15  1  0
  1 24  1  0
  1 25  1  0
  6 26  1  0
  7 27  1  0
 16 28  1  0
 17 29  1  0
 18 30  1  0
 19 31  1  0
 22 32  1  0
 23 33  1  0
M  CHG  2  12  -1  21  -1
M  END
>  <UniqueID>  (9) 
9

>  <SMILES>  (9) 
NS(=O)(=O)c1ccc(S(=O)(=O)[N-]C(=O)c2ccccc2[O-])cc1

>  <Energy>  (9) 
37.38172071191575

>  <Genealogy>  (9) 
NS(=O)(=O)c1ccc(S(=O)(=O)[N-]C(=O)c2ccccc2[O-])cc1 (protonated)
NS(=O)(=O)c1ccc(S(=O)(=O)[N-]C(=O)c2ccccc2[O-])cc1 (3D coordinates assigned)
NS(=O)(=O)c1ccc(S(=O)(=O)[N-]C(=O)c2ccccc2[O-])cc1 (optimized conformer: 37.38172071191575 kcal/mol)

>  <smiles>  (9) 
NS(=O)(=O)c1ccc(S(=O)(=O)NC(=O)c2ccccc2O)cc1

>  <score_type>  (9) 
oracle

>  <origin>  (9) 
adgpu

>  <m_score__min__energy>  (9) 
-13.23

>  <m_primary>  (9) 
energy

$$$$
9:0
     RDKit          3D

 47 50  0  0  0  0  0  0  0  0999 V2000
   -6.1790   23.3920  -29.5890 O   0  0  0  0  0  0  0  0  0  0  0  0
   -5.1530   23.3220  -30.3140 C   0  0  0  0  0  0  0  0  0  0  0  0
   -5.3040   22.9290  -31.6840 N   0  0  0  0  0  0  0  0  0  0  0  0
   -5.3420   21.5830  -32.1790 C   0  0  0  0  0  0  0  0  0  0  0  0
   -4.1590   20.8350  -32.2020 C   0  0  0  0  0  0  0  0  0  0  0  0
   -4.1590   19.5280  -32.6980 C   0  0  0  0  0  0  0  0  0  0  0  0
   -5.3400   18.9620  -33.1950 C   0  0  0  0  0  0  0  0  0  0  0  0
   -5.3290   17.3140  -33.8190 S   0  0  0  0  0  0  0  0  0  0  0  0
   -5.9110   16.4070  -32.7700 O   0  0  0  0  0  0  0  0  0  0  0  0
   -6.1720   17.2380  -35.0610 O   0  0  0  0  0  0  0  0  0  0  0  0
   -3.6800   16.8430  -34.1780 N   0  0  0  0  0  0  0  0  0  0  0  0
   -3.5740   16.1630  -35.4880 C   0  0  0  0  0  0  0  0  0  0  0  0
   -3.5000   14.6310  -35.3600 C   0  0  0  0  0  0  0  0  0  0  0  0
   -4.2560   14.1970  -34.2530 O   0  0  0  0  0  0  0  0  0  0  0  0
   -3.6360   14.6040  -33.0460 C   0  0  0  0  0  0  0  0  0  0  0  0
   -3.0900   16.0510  -33.0840 C   0  0  0  0  0  0  0  0  0  0  0  0
   -6.5220   19.7150  -33.1950 C   0  0  0  0  0  0  0  0  0  0  0  0
   -6.5220   21.0220  -32.6990 C   0  0  0  0  0  0  0  0  0  0  0  0
   -3.8390   23.7230  -29.7690 C   0  0  0  0  0  0  0  0  0  0  0  0
   -3.2730   24.9310  -30.0170 N   0  0  0  0  0  0  0  0  0  0  0  0
   -2.1060   24.9390  -29.3360 C   0  0  0  0  0  0  0  0  0  0  0  0
   -1.2210   26.0090  -29.3370 O   0  0  0  0  0  0  0  0  0  0  0  0
   -1.9260   23.7570  -28.6570 C   0  0  0  0  0  0  0  0  0  0  0  0
   -0.8880   23.3200  -27.8380 C   0  0  0  0  0  0  0  0  0  0  0  0
   -0.9910   22.0320  -27.2840 C   0  0  0  0  0  0  0  0  0  0  0  0
   -2.1120   21.2150  -27.5640 C   0  0  0  0  0  0  0  0  0  0  0  0
   -2.2270   19.6070  -26.8570 S   0  0  0  0  0  0  0  0  0  0  0  0
   -3.5980   19.0400  -27.0970 O   0  0  0  0  0  0  0  0  0  0  0  0
   -1.9890   19.6830  -25.3740 O   0  0  0  0  0  0  0  0  0  0  0  0
   -1.0760   18.6060  -27.5580 O   0  0  0  0  0  0  0  0  0  0  0  0
   -3.1470   21.6940  -28.3930 C   0  0  0  0  0  0  0  0  0  0  0  0
   -3.0220   22.9820  -28.9240 C   0  0  0  0  0  0  0  0  0  0  0  0
   -3.2243   21.2781  -31.8278 H   0  0  0  0  0  0  0  0  0  0  0  0
   -3.2282   18.9419  -32.6980 H   0  0  0  0  0  0  0  0  0  0  0  0
   -4.4561   16.4231  -36.0915 H   0  0  0  0  0  0  0  0  0  0  0  0
   -2.6410   16.5013  -35.9625 H   0  0  0  0  0  0  0  0  0  0  0  0
   -3.8994   14.1704  -36.2756 H   0  0  0  0  0  0  0  0  0  0  0  0
   -2.4508   14.3336  -35.2162 H   0  0  0  0  0  0  0  0  0  0  0  0
   -4.3755   14.5331  -32.2347 H   0  0  0  0  0  0  0  0  0  0  0  0
   -2.7739   13.9394  -32.8876 H   0  0  0  0  0  0  0  0  0  0  0  0
   -3.3217   16.5418  -32.1272 H   0  0  0  0  0  0  0  0  0  0  0  0
   -2.0048   15.9968  -33.2552 H   0  0  0  0  0  0  0  0  0  0  0  0
   -7.4519   19.2766  -33.5862 H   0  0  0  0  0  0  0  0  0  0  0  0
   -7.4489   21.6141  -32.7155 H   0  0  0  0  0  0  0  0  0  0  0  0
   -0.0177   23.9603  -27.6317 H   0  0  0  0  0  0  0  0  0  0  0  0
   -0.1930   21.6559  -26.6269 H   0  0  0  0  0  0  0  0  0  0  0  0
   -4.0271   21.0729  -28.6157 H   0  0  0  0  0  0  0  0  0  0  0  0
  1  2  2  0
  2  3  1  0
  3  4  1  0
  4  5  2  0
  5  6  1  0
  6  7  2  0
  7  8  1  0
  8  9  2  0
  8 10  2  0
  8 11  1  0
 11 12  1  0
 12 13  1  0
 13 14  1  0
 14 15  1  0
 15 16  1  0
  7 17  1  0
 17 18  2  0
  2 19  1  0
 19 20  1  0
 20 21  1  0
 21 22  1  0
 21 23  2  0
 23 24  1  0
 24 25  2  0
 25 26  1  0
 26 27  1  0
 27 28  2  0
 27 29  2  0
 27 30  1  0
 26 31  2  0
 31 32  1  0
 18  4  1  0
 32 19  2  0
 16 11  1  0
 32 23  1  0
  5 33  1  0
  6 34  1  0
 12 35  1  0
 12 36  1  0
 13 37  1  0
 13 38  1  0
 15 39  1  0
 15 40  1  0
 16 41  1  0
 16 42  1  0
 17 43  1  0
 18 44  1  0
 24 45  1  0
 25 46  1  0
 31 47  1  0
M  CHG  4   3  -1  20  -1  22  -1  30  -1
M  END
>  <UniqueID>  (10) 
10

>  <SMILES>  (10) 
O=C([N-]c1ccc(S(=O)(=O)N2CCOCC2)cc1)c1[n-]c([O-])c2ccc(S(=O)(=O)[O-])cc12

>  <Energy>  (10) 
102.41159102588452

>  <Genealogy>  (10) 
O=C([N-]c1ccc(S(=O)(=O)N2CCOCC2)cc1)c1[n-]c([O-])c2ccc(S(=O)(=O)[O-])cc12 (protonated)
O=C([N-]c1ccc(S(=O)(=O)N2CCOCC2)cc1)c1[n-]c([O-])c2ccc(S(=O)(=O)[O-])cc12 (3D coordinates assigned)
O=C([N-]c1ccc(S(=O)(=O)N2CCOCC2)cc1)c1[n-]c([O-])c2ccc(S(=O)(=O)[O-])cc12 (nonaromatic ring conformer: 102.41159102588452 kcal/mol)

>  <smiles>  (10) 
O=C(Nc1ccc(S(=O)(=O)N2CCOCC2)cc1)c1[nH]c(O)c2ccc(S(=O)(=O)O)cc12

>  <score_type>  (10) 
oracle

>  <origin>  (10) 
adgpu

>  <m_score__min__energy>  (10) 
-14.109999999999999

>  <m_primary>  (10) 
energy

$$$$
10:0
     RDKit          3D

 55 58  0  0  0  0  0  0  0  0999 V2000
   -5.0560   18.9400  -33.4670 C   0  0  0  0  0  0  0  0  0  0  0  0
   -5.2460   19.4180  -32.1400 O   0  0  0  0  0  0  0  0  0  0  0  0
   -4.9790   20.7320  -31.7210 C   0  0  0  0  0  0  0  0  0  0  0  0
   -3.9100   21.0360  -30.8560 C   0  0  0  0  0  0  0  0  0  0  0  0
   -3.6730   22.3550  -30.4610 C   0  0  0  0  0  0  0  0  0  0  0  0
   -2.6400   22.6380  -29.6270 N   0  0  0  0  0  0  0  0  0  0  0  0
   -2.3820   23.9120  -29.2230 C   0  0  0  0  0  0  0  0  0  0  0  0
   -1.2460   24.1930  -28.3110 C   0  0  0  0  0  0  0  0  0  0  0  0
    0.0170   23.6160  -28.5420 C   0  0  0  0  0  0  0  0  0  0  0  0
    1.0880   23.8870  -27.6850 C   0  0  0  0  0  0  0  0  0  0  0  0
    0.9140   24.7340  -26.5900 C   0  0  0  0  0  0  0  0  0  0  0  0
   -0.3350   25.3130  -26.3410 C   0  0  0  0  0  0  0  0  0  0  0  0
   -0.5320   26.3970  -24.9650 S   0  0  0  0  0  0  0  0  0  0  0  0
   -0.1270   25.6610  -23.7180 O   0  0  0  0  0  0  0  0  0  0  0  0
   -1.9730   26.8030  -24.8350 O   0  0  0  0  0  0  0  0  0  0  0  0
    0.4860   27.8030  -25.1910 N   0  0  0  0  0  0  0  0  0  0  0  0
    0.3180   28.8020  -24.1090 C   0  0  0  0  0  0  0  0  0  0  0  0
    1.5910   29.0180  -23.2710 C   0  0  0  0  0  0  0  0  0  0  0  0
    2.2210   27.7230  -22.9560 N   0  0  0  0  0  0  0  0  0  0  0  0
    3.3610   27.9200  -22.0450 C   0  0  0  0  0  0  0  0  0  0  0  0
    2.6450   26.9940  -24.1810 C   0  0  0  0  0  0  0  0  0  0  0  0
    1.8870   27.4300  -25.4550 C   0  0  0  0  0  0  0  0  0  0  0  0
   -1.4100   25.0450  -27.2010 C   0  0  0  0  0  0  0  0  0  0  0  0
   -3.1780   24.9250  -29.6630 N   0  0  0  0  0  0  0  0  0  0  0  0
   -4.2250   24.7000  -30.4980 C   0  0  0  0  0  0  0  0  0  0  0  0
   -4.9310   25.6730  -30.8780 O   0  0  0  0  0  0  0  0  0  0  0  0
   -4.5050   23.3910  -30.9260 C   0  0  0  0  0  0  0  0  0  0  0  0
   -5.5720   23.0910  -31.7880 C   0  0  0  0  0  0  0  0  0  0  0  0
   -5.8120   21.7610  -32.1880 C   0  0  0  0  0  0  0  0  0  0  0  0
   -6.8680   21.4220  -33.0490 O   0  0  0  0  0  0  0  0  0  0  0  0
   -7.9610   20.5800  -32.6970 C   0  0  0  0  0  0  0  0  0  0  0  0
   -4.6499   17.9183  -33.4340 H   0  0  0  0  0  0  0  0  0  0  0  0
   -6.0203   18.9344  -33.9963 H   0  0  0  0  0  0  0  0  0  0  0  0
   -4.3510   19.5979  -33.9963 H   0  0  0  0  0  0  0  0  0  0  0  0
   -3.2576   20.2299  -30.4891 H   0  0  0  0  0  0  0  0  0  0  0  0
    0.1624   22.9470  -29.4030 H   0  0  0  0  0  0  0  0  0  0  0  0
    2.0709   23.4310  -27.8747 H   0  0  0  0  0  0  0  0  0  0  0  0
    1.7608   24.9470  -25.9210 H   0  0  0  0  0  0  0  0  0  0  0  0
    0.0326   29.7625  -24.5629 H   0  0  0  0  0  0  0  0  0  0  0  0
   -0.4559   28.4162  -23.4291 H   0  0  0  0  0  0  0  0  0  0  0  0
    2.2996   29.6375  -23.8403 H   0  0  0  0  0  0  0  0  0  0  0  0
    1.3202   29.5225  -22.3318 H   0  0  0  0  0  0  0  0  0  0  0  0
    1.5200   27.1390  -22.4410 H   0  0  0  0  0  0  0  0  0  0  0  0
    3.0126   27.8598  -21.0034 H   0  0  0  0  0  0  0  0  0  0  0  0
    4.1139   27.1387  -22.2256 H   0  0  0  0  0  0  0  0  0  0  0  0
    3.8080   28.9087  -22.2256 H   0  0  0  0  0  0  0  0  0  0  0  0
    3.7191   27.1725  -24.3374 H   0  0  0  0  0  0  0  0  0  0  0  0
    2.4165   25.9304  -24.0183 H   0  0  0  0  0  0  0  0  0  0  0  0
    2.4045   28.2970  -25.8916 H   0  0  0  0  0  0  0  0  0  0  0  0
    1.8754   26.5708  -26.1418 H   0  0  0  0  0  0  0  0  0  0  0  0
   -2.3905   25.5044  -27.0070 H   0  0  0  0  0  0  0  0  0  0  0  0
   -6.2240   23.8982  -32.1530 H   0  0  0  0  0  0  0  0  0  0  0  0
   -8.0394   20.5196  -31.6015 H   0  0  0  0  0  0  0  0  0  0  0  0
   -8.8921   20.9965  -33.1088 H   0  0  0  0  0  0  0  0  0  0  0  0
   -7.7959   19.5734  -33.1088 H   0  0  0  0  0  0  0  0  0  0  0  0
  1  2  1  0
  2  3  1  0
  3  4  2  0
  4  5  1  0
  5  6  1  0
  6  7  2  0
  7  8  1  0
  8  9  2  0
  9 10  1  0
 10 11  2  0
 11 12  1  0
 12 13  1  0
 13 14  2  0
 13 15  2  0
 13 16  1  0
 16 17  1  0
 17 18  1  0
 18 19  1  0
 19 20  1  0
 19 21  1  0
 21 22  1  0
 12 23  2  0
  7 24  1  0
 24 25  1  0
 25 26  2  0
 25 27  1  0
 27 28  1  0
 28 29  2  0
 29 30  1  0
 30 31  1  0
 29  3  1  0
 27  5  2  0
 23  8  1  0
 22 16  1  0
  1 32  1  0
  1 33  1  0
  1 34  1  0
  4 35  1  0
  9 36  1  0
 10 37  1  0
 11 38  1  0
 17 39  1  0
 17 40  1  0
 18 41  1  0
 18 42  1  0
 19 43  1  0
 20 44  1  0
 20 45  1  0
 20 46  1  0
 21 47  1  0
 21 48  1  0
 22 49  1  0
 22 50  1  0
 23 51  1  0
 28 52  1  0
 31 53  1  0
 31 54  1  0
 31 55  1  0
M  CHG  2  19   1  24  -1
M  END
>  <UniqueID>  (11) 
11

>  <SMILES>  (11) 
COc1cc2nc(-c3cccc(S(=O)(=O)N4CC[NH+](C)CC4)c3)[n-]c(=O)c2cc1OC

>  <Energy>  (11) 
74.60165927033252

>  <Genealogy>  (11) 
COc1cc2nc(-c3cccc(S(=O)(=O)N4CC[NH+](C)CC4)c3)[n-]c(=O)c2cc1OC (protonated)
COc1cc2nc(-c3cccc(S(=O)(=O)N4CC[NH+](C)CC4)c3)[n-]c(=O)c2cc1OC (3D coordinates assigned)
COc1cc2nc(-c3cccc(S(=O)(=O)N4CC[NH+](C)CC4)c3)[n-]c(=O)c2cc1OC (nonaromatic ring conformer: 74.60165927033252 kcal/mol)

>  <smiles>  (11) 
COc1cc2nc(-c3cccc(S(=O)(=O)N4CCN(C)CC4)c3)[nH]c(=O)c2cc1OC

>  <score_type>  (11) 
oracle

>  <origin>  (11) 
adgpu

>  <m_score__min__energy>  (11) 
-9

>  <m_primary>  (11) 
energy

$$$$
11:0
     RDKit          3D

 57 60  0  0  0  0  0  0  0  0999 V2000
   -2.8750   21.9820  -28.8220 O   0  0  0  0  0  0  0  0  0  0  0  0
   -3.0780   23.0960  -29.3780 C   0  0  0  0  0  0  0  0  0  0  0  0
   -2.1070   24.1470  -29.2450 N   0  0  0  0  0  0  0  0  0  0  0  0
   -1.1390   24.2130  -28.1830 C   0  0  0  0  0  0  0  0  0  0  0  0
   -1.4970   24.6390  -26.8900 C   0  0  0  0  0  0  0  0  0  0  0  0
   -0.5330   24.7140  -25.8800 C   0  0  0  0  0  0  0  0  0  0  0  0
    0.8000   24.3720  -26.1450 C   0  0  0  0  0  0  0  0  0  0  0  0
    2.0180   24.4740  -24.8690 S   0  0  0  0  0  0  0  0  0  0  0  0
    1.7660   23.3850  -23.8640 O   0  0  0  0  0  0  0  0  0  0  0  0
    3.3760   24.2470  -25.4710 O   0  0  0  0  0  0  0  0  0  0  0  0
    2.0110   26.0180  -24.0470 N   0  0  0  0  0  0  0  0  0  0  0  0
    0.6600   26.4400  -23.6840 C   0  0  0  0  0  0  0  0  0  0  0  0
    0.6970   27.9580  -23.5860 C   0  0  0  0  0  0  0  0  0  0  0  0
    1.9310   28.3820  -24.3700 C   0  0  0  0  0  0  0  0  0  0  0  0
    2.5440   27.0890  -24.8860 C   0  0  0  0  0  0  0  0  0  0  0  0
    1.1640   23.9780  -27.4410 C   0  0  0  0  0  0  0  0  0  0  0  0
    0.2020   23.9030  -28.4520 C   0  0  0  0  0  0  0  0  0  0  0  0
   -4.2820   23.2790  -30.2220 C   0  0  0  0  0  0  0  0  0  0  0  0
   -5.1180   22.1780  -30.4820 C   0  0  0  0  0  0  0  0  0  0  0  0
   -6.2660   22.3180  -31.2720 C   0  0  0  0  0  0  0  0  0  0  0  0
   -7.3140   20.9300  -31.5760 S   0  0  0  0  0  0  0  0  0  0  0  0
   -8.3050   20.8020  -30.4520 O   0  0  0  0  0  0  0  0  0  0  0  0
   -8.0820   21.1570  -32.8490 O   0  0  0  0  0  0  0  0  0  0  0  0
   -6.3980   19.4470  -31.7060 N   0  0  0  0  0  0  0  0  0  0  0  0
   -5.3450   19.5420  -32.7420 C   0  0  0  0  0  0  0  0  0  0  0  0
   -5.7210   18.7690  -34.0190 C   0  0  0  0  0  0  0  0  0  0  0  0
   -5.9630   17.3880  -33.7880 O   0  0  0  0  0  0  0  0  0  0  0  0
   -6.5420   17.1100  -32.5180 C   0  0  0  0  0  0  0  0  0  0  0  0
   -7.3010   18.2970  -31.9030 C   0  0  0  0  0  0  0  0  0  0  0  0
   -6.5790   23.5690  -31.8180 C   0  0  0  0  0  0  0  0  0  0  0  0
   -5.7650   24.6730  -31.5560 C   0  0  0  0  0  0  0  0  0  0  0  0
   -4.6270   24.5390  -30.7550 C   0  0  0  0  0  0  0  0  0  0  0  0
   -3.8660   25.6700  -30.4770 O   0  0  0  0  0  0  0  0  0  0  0  0
   -2.0310   24.8410  -30.0230 H   0  0  0  0  0  0  0  0  0  0  0  0
   -2.5397   24.9141  -26.6732 H   0  0  0  0  0  0  0  0  0  0  0  0
   -0.8226   25.0435  -24.8713 H   0  0  0  0  0  0  0  0  0  0  0  0
   -0.0573   26.1258  -24.4565 H   0  0  0  0  0  0  0  0  0  0  0  0
    0.3418   25.9863  -22.7338 H   0  0  0  0  0  0  0  0  0  0  0  0
   -0.2099   28.3948  -24.0295 H   0  0  0  0  0  0  0  0  0  0  0  0
    0.7376   28.3003  -22.5414 H   0  0  0  0  0  0  0  0  0  0  0  0
    1.6488   29.0358  -25.2084 H   0  0  0  0  0  0  0  0  0  0  0  0
    2.6372   28.9500  -23.7466 H   0  0  0  0  0  0  0  0  0  0  0  0
    2.2612   26.9262  -25.9365 H   0  0  0  0  0  0  0  0  0  0  0  0
    3.6426   27.1221  -24.8414 H   0  0  0  0  0  0  0  0  0  0  0  0
    2.2117   23.7268  -27.6627 H   0  0  0  0  0  0  0  0  0  0  0  0
    0.4989   23.5985  -29.4665 H   0  0  0  0  0  0  0  0  0  0  0  0
   -4.8668   21.1940  -30.0593 H   0  0  0  0  0  0  0  0  0  0  0  0
   -5.1944   20.6008  -32.9992 H   0  0  0  0  0  0  0  0  0  0  0  0
   -4.4256   19.0970  -32.3338 H   0  0  0  0  0  0  0  0  0  0  0  0
   -6.6316   19.2171  -34.4432 H   0  0  0  0  0  0  0  0  0  0  0  0
   -4.8657   18.8398  -34.7070 H   0  0  0  0  0  0  0  0  0  0  0  0
   -7.2457   16.2726  -32.6346 H   0  0  0  0  0  0  0  0  0  0  0  0
   -5.7125   16.8746  -31.8350 H   0  0  0  0  0  0  0  0  0  0  0  0
   -8.1188   18.5912  -32.5773 H   0  0  0  0  0  0  0  0  0  0  0  0
   -7.7036   17.9917  -30.9259 H   0  0  0  0  0  0  0  0  0  0  0  0
   -7.4686   23.6823  -32.4551 H   0  0  0  0  0  0  0  0  0  0  0  0
   -6.0208   25.6542  -31.9825 H   0  0  0  0  0  0  0  0  0  0  0  0
  1  2  2  0
  2  3  1  0
  3  4  1  0
  4  5  2  0
  5  6  1  0
  6  7  2  0
  7  8  1  0
  8  9  2  0
  8 10  2  0
  8 11  1  0
 11 12  1  0
 12 13  1  0
 13 14  1  0
 14 15  1  0
  7 16  1  0
 16 17  2  0
  2 18  1  0
 18 19  2  0
 19 20  1  0
 20 21  1  0
 21 22  2  0
 21 23  2  0
 21 24  1  0
 24 25  1  0
 25 26  1  0
 26 27  1  0
 27 28  1  0
 28 29  1  0
 20 30  2  0
 30 31  1  0
 31 32  2  0
 32 33  1  0
 17  4  1  0
 32 18  1  0
 15 11  1  0
 29 24  1  0
  3 34  1  0
  5 35  1  0
  6 36  1  0
 12 37  1  0
 12 38  1  0
 13 39  1  0
 13 40  1  0
 14 41  1  0
 14 42  1  0
 15 43  1  0
 15 44  1  0
 16 45  1  0
 17 46  1  0
 19 47  1  0
 25 48  1  0
 25 49  1  0
 26 50  1  0
 26 51  1  0
 28 52  1  0
 28 53  1  0
 29 54  1  0
 29 55  1  0
 30 56  1  0
 31 57  1  0
M  CHG  1  33  -1
M  END
>  <UniqueID>  (12) 
12

>  <SMILES>  (12) 
O=C(Nc1ccc(S(=O)(=O)N2CCCC2)cc1)c1cc(S(=O)(=O)N2CCOCC2)ccc1[O-]

>  <Energy>  (12) 
79.3260783899487

>  <Genealogy>  (12) 
O=C(Nc1ccc(S(=O)(=O)N2CCCC2)cc1)c1cc(S(=O)(=O)N2CCOCC2)ccc1[O-] (protonated)
O=C(Nc1ccc(S(=O)(=O)N2CCCC2)cc1)c1cc(S(=O)(=O)N2CCOCC2)ccc1[O-] (3D coordinates assigned)
O=C(Nc1ccc(S(=O)(=O)N2CCCC2)cc1)c1cc(S(=O)(=O)N2CCOCC2)ccc1[O-] (nonaromatic ring conformer: 79.3260783899487 kcal/mol)

>  <smiles>  (12) 
O=C(Nc1ccc(S(=O)(=O)N2CCCC2)cc1)c1cc(S(=O)(=O)N2CCOCC2)ccc1O

>  <score_type>  (12) 
oracle

>  <origin>  (12) 
adgpu

>  <m_score__min__energy>  (12) 
-12.5

>  <m_primary>  (12) 
energy

$$$$
12:0
     RDKit          3D

 50 52  0  0  0  0  0  0  0  0999 V2000
   -6.9370   14.6560  -34.2390 C   0  0  0  0  0  0  0  0  0  0  0  0
   -6.1050   15.7890  -34.4700 O   0  0  0  0  0  0  0  0  0  0  0  0
   -6.2980   17.0470  -33.8770 C   0  0  0  0  0  0  0  0  0  0  0  0
   -6.9090   17.1030  -32.6200 C   0  0  0  0  0  0  0  0  0  0  0  0
   -7.1260   18.3310  -31.9900 C   0  0  0  0  0  0  0  0  0  0  0  0
   -6.7410   19.5290  -32.6120 C   0  0  0  0  0  0  0  0  0  0  0  0
   -6.9710   20.8290  -31.9380 C   0  0  0  0  0  0  0  0  0  0  0  0
   -8.1490   21.1980  -31.6820 O   0  0  0  0  0  0  0  0  0  0  0  0
   -5.8780   21.6590  -31.5170 N   0  0  0  0  0  0  0  0  0  0  0  0
   -4.6490   21.1920  -31.3710 N   0  0  0  0  0  0  0  0  0  0  0  0
   -3.8620   22.2100  -30.9730 C   0  0  0  0  0  0  0  0  0  0  0  0
   -2.3960   22.0580  -30.7240 C   0  0  0  0  0  0  0  0  0  0  0  0
   -4.6210   23.3710  -30.8500 C   0  0  0  0  0  0  0  0  0  0  0  0
   -4.1600   24.7210  -30.4590 C   0  0  0  0  0  0  0  0  0  0  0  0
   -4.9700   25.6860  -30.4590 O   0  0  0  0  0  0  0  0  0  0  0  0
   -2.8050   24.9210  -30.0380 N   0  0  0  0  0  0  0  0  0  0  0  0
   -2.2480   24.6000  -28.7560 C   0  0  0  0  0  0  0  0  0  0  0  0
   -2.9100   24.9100  -27.5570 C   0  0  0  0  0  0  0  0  0  0  0  0
   -2.3240   24.6000  -26.3290 C   0  0  0  0  0  0  0  0  0  0  0  0
   -1.0630   23.9840  -26.2710 C   0  0  0  0  0  0  0  0  0  0  0  0
   -0.4570   23.6680  -24.9290 C   0  0  0  0  0  0  0  0  0  0  0  0
   -0.3730   23.7060  -27.4740 C   0  0  0  0  0  0  0  0  0  0  0  0
    0.9890   23.0630  -27.4630 C   0  0  0  0  0  0  0  0  0  0  0  0
   -0.9770   24.0190  -28.7050 C   0  0  0  0  0  0  0  0  0  0  0  0
   -5.9090   22.9720  -31.1880 C   0  0  0  0  0  0  0  0  0  0  0  0
   -7.1440   23.8280  -31.1420 C   0  0  0  0  0  0  0  0  0  0  0  0
   -6.1150   19.4720  -33.8690 C   0  0  0  0  0  0  0  0  0  0  0  0
   -5.8990   18.2430  -34.5000 C   0  0  0  0  0  0  0  0  0  0  0  0
   -7.0516   14.4999  -33.1562 H   0  0  0  0  0  0  0  0  0  0  0  0
   -7.9248   14.8282  -34.6912 H   0  0  0  0  0  0  0  0  0  0  0  0
   -6.4770   13.7650  -34.6912 H   0  0  0  0  0  0  0  0  0  0  0  0
   -7.2212   16.1725  -32.1234 H   0  0  0  0  0  0  0  0  0  0  0  0
   -7.6023   18.3592  -30.9988 H   0  0  0  0  0  0  0  0  0  0  0  0
   -2.2082   22.0385  -29.6403 H   0  0  0  0  0  0  0  0  0  0  0  0
   -2.0431   21.1185  -31.1742 H   0  0  0  0  0  0  0  0  0  0  0  0
   -1.8578   22.9052  -31.1742 H   0  0  0  0  0  0  0  0  0  0  0  0
   -3.8948   25.3993  -27.5859 H   0  0  0  0  0  0  0  0  0  0  0  0
   -2.8554   24.8407  -25.3964 H   0  0  0  0  0  0  0  0  0  0  0  0
   -1.1289   24.0184  -24.1316 H   0  0  0  0  0  0  0  0  0  0  0  0
   -0.3150   22.5810  -24.8376 H   0  0  0  0  0  0  0  0  0  0  0  0
    0.5155   24.1738  -24.8376 H   0  0  0  0  0  0  0  0  0  0  0  0
    1.3137   22.9097  -26.4233 H   0  0  0  0  0  0  0  0  0  0  0  0
    0.9406   22.0927  -27.9789 H   0  0  0  0  0  0  0  0  0  0  0  0
    1.7074   23.7170  -27.9789 H   0  0  0  0  0  0  0  0  0  0  0  0
   -0.4417   23.8036  -29.6415 H   0  0  0  0  0  0  0  0  0  0  0  0
   -7.4191   24.0187  -30.0942 H   0  0  0  0  0  0  0  0  0  0  0  0
   -6.9466   24.7840  -31.6491 H   0  0  0  0  0  0  0  0  0  0  0  0
   -7.9699   23.3076  -31.6491 H   0  0  0  0  0  0  0  0  0  0  0  0
   -5.7923   20.4017  -34.3604 H   0  0  0  0  0  0  0  0  0  0  0  0
   -5.4152   18.2116  -35.4874 H   0  0  0  0  0  0  0  0  0  0  0  0
  1  2  1  0
  2  3  1  0
  3  4  2  0
  4  5  1  0
  5  6  2  0
  6  7  1  0
  7  8  2  0
  7  9  1  0
  9 10  1  0
 10 11  2  0
 11 12  1  0
 11 13  1  0
 13 14  1  0
 14 15  2  0
 14 16  1  0
 16 17  1  0
 17 18  2  0
 18 19  1  0
 19 20  2  0
 20 21  1  0
 20 22  1  0
 22 23  1  0
 22 24  2  0
 13 25  2  0
 25 26  1  0
  6 27  1  0
 27 28  2  0
 28  3  1  0
 25  9  1  0
 24 17  1  0
  1 29  1  0
  1 30  1  0
  1 31  1  0
  4 32  1  0
  5 33  1  0
 12 34  1  0
 12 35  1  0
 12 36  1  0
 18 37  1  0
 19 38  1  0
 21 39  1  0
 21 40  1  0
 21 41  1  0
 23 42  1  0
 23 43  1  0
 23 44  1  0
 24 45  1  0
 26 46  1  0
 26 47  1  0
 26 48  1  0
 27 49  1  0
 28 50  1  0
M  CHG  1  16  -1
M  END
>  <UniqueID>  (13) 
13

>  <SMILES>  (13) 
COc1ccc(C(=O)n2nc(C)c(C(=O)[N-]c3ccc(C)c(C)c3)c2C)cc1

>  <Energy>  (13) 
91.32396197772525

>  <Genealogy>  (13) 
COc1ccc(C(=O)n2nc(C)c(C(=O)[N-]c3ccc(C)c(C)c3)c2C)cc1 (protonated)
COc1ccc(C(=O)n2nc(C)c(C(=O)[N-]c3ccc(C)c(C)c3)c2C)cc1 (3D coordinates assigned)
COc1ccc(C(=O)n2nc(C)c(C(=O)[N-]c3ccc(C)c(C)c3)c2C)cc1 (optimized conformer: 91.32396197772525 kcal/mol)

>  <smiles>  (13) 
COc1ccc(C(=O)n2nc(C)c(C(=O)Nc3ccc(C)c(C)c3)c2C)cc1

>  <score_type>  (13) 
oracle

>  <origin>  (13) 
adgpu

>  <m_score__min__energy>  (13) 
-10.51

>  <m_primary>  (13) 
energy

$$$$
13:0
     RDKit          3D

 41 43  0  0  0  0  0  0  0  0999 V2000
   -4.3670   22.4900  -27.8260 O   0  0  0  0  0  0  0  0  0  0  0  0
   -4.0180   23.2670  -28.7530 C   0  0  0  0  0  0  0  0  0  0  0  0
   -2.7000   23.8280  -28.7270 N   0  0  0  0  0  0  0  0  0  0  0  0
   -2.1780   24.7020  -27.7120 C   0  0  0  0  0  0  0  0  0  0  0  0
   -2.3710   24.4360  -26.3440 C   0  0  0  0  0  0  0  0  0  0  0  0
   -1.8430   25.2960  -25.3770 C   0  0  0  0  0  0  0  0  0  0  0  0
   -1.1050   26.4190  -25.7660 C   0  0  0  0  0  0  0  0  0  0  0  0
   -0.4410   27.4970  -24.5520 Cl  0  0  0  0  0  0  0  0  0  0  0  0
   -0.8870   26.6740  -27.1230 C   0  0  0  0  0  0  0  0  0  0  0  0
   -1.4170   25.8160  -28.0940 C   0  0  0  0  0  0  0  0  0  0  0  0
   -1.1890   26.0800  -29.4410 O   0  0  0  0  0  0  0  0  0  0  0  0
   -4.9660   23.5550  -29.8510 C   0  0  0  0  0  0  0  0  0  0  0  0
   -5.9820   22.6300  -30.1460 C   0  0  0  0  0  0  0  0  0  0  0  0
   -6.9330   22.9100  -31.1360 C   0  0  0  0  0  0  0  0  0  0  0  0
   -8.2580   21.7810  -31.4300 S   0  0  0  0  0  0  0  0  0  0  0  0
   -9.3440   22.4840  -32.1960 O   0  0  0  0  0  0  0  0  0  0  0  0
   -8.8330   21.3350  -30.1140 O   0  0  0  0  0  0  0  0  0  0  0  0
   -7.7250   20.3850  -32.3350 N   0  0  0  0  0  0  0  0  0  0  0  0
   -6.2850   20.4680  -32.6130 C   0  0  0  0  0  0  0  0  0  0  0  0
   -5.8400   19.2460  -33.4430 C   0  0  0  0  0  0  0  0  0  0  0  0
   -6.8570   18.2640  -33.5450 O   0  0  0  0  0  0  0  0  0  0  0  0
   -7.3390   17.9340  -32.2570 C   0  0  0  0  0  0  0  0  0  0  0  0
   -8.0300   19.1460  -31.5980 C   0  0  0  0  0  0  0  0  0  0  0  0
   -6.8470   24.1040  -31.8620 C   0  0  0  0  0  0  0  0  0  0  0  0
   -5.8240   25.0150  -31.5950 C   0  0  0  0  0  0  0  0  0  0  0  0
   -4.8840   24.7480  -30.5960 C   0  0  0  0  0  0  0  0  0  0  0  0
   -3.8640   25.6650  -30.3620 O   0  0  0  0  0  0  0  0  0  0  0  0
   -2.9401   23.5471  -26.0341 H   0  0  0  0  0  0  0  0  0  0  0  0
   -2.0079   25.0897  -24.3092 H   0  0  0  0  0  0  0  0  0  0  0  0
   -0.2976   27.5510  -27.4287 H   0  0  0  0  0  0  0  0  0  0  0  0
   -6.0310   21.6789  -29.5955 H   0  0  0  0  0  0  0  0  0  0  0  0
   -6.0748   21.3885  -33.1773 H   0  0  0  0  0  0  0  0  0  0  0  0
   -5.7324   20.4810  -31.6620 H   0  0  0  0  0  0  0  0  0  0  0  0
   -5.5727   19.5844  -34.4549 H   0  0  0  0  0  0  0  0  0  0  0  0
   -4.9806   18.7877  -32.9317 H   0  0  0  0  0  0  0  0  0  0  0  0
   -8.0631   17.1105  -32.3440 H   0  0  0  0  0  0  0  0  0  0  0  0
   -6.4866   17.6330  -31.6303 H   0  0  0  0  0  0  0  0  0  0  0  0
   -9.1181   18.9849  -31.5976 H   0  0  0  0  0  0  0  0  0  0  0  0
   -7.6583   19.2473  -30.5677 H   0  0  0  0  0  0  0  0  0  0  0  0
   -7.5876   24.3246  -32.6448 H   0  0  0  0  0  0  0  0  0  0  0  0
   -5.7573   25.9480  -32.1739 H   0  0  0  0  0  0  0  0  0  0  0  0
  1  2  2  0
  2  3  1  0
  3  4  1  0
  4  5  2  0
  5  6  1  0
  6  7  2  0
  7  8  1  0
  7  9  1  0
  9 10  2  0
 10 11  1  0
  2 12  1  0
 12 13  2  0
 13 14  1  0
 14 15  1  0
 15 16  2  0
 15 17  2  0
 15 18  1  0
 18 19  1  0
 19 20  1  0
 20 21  1  0
 21 22  1  0
 22 23  1  0
 14 24  2  0
 24 25  1  0
 25 26  2  0
 26 27  1  0
 10  4  1  0
 26 12  1  0
 23 18  1  0
  5 28  1  0
  6 29  1  0
  9 30  1  0
 13 31  1  0
 19 32  1  0
 19 33  1  0
 20 34  1  0
 20 35  1  0
 22 36  1  0
 22 37  1  0
 23 38  1  0
 23 39  1  0
 24 40  1  0
 25 41  1  0
M  CHG  3   3  -1  11  -1  27  -1
M  END
>  <UniqueID>  (14) 
14

>  <SMILES>  (14) 
O=C([N-]c1ccc(Cl)cc1[O-])c1cc(S(=O)(=O)N2CCOCC2)ccc1[O-]

>  <Energy>  (14) 
57.815550178398354

>  <Genealogy>  (14) 
O=C([N-]c1ccc(Cl)cc1[O-])c1cc(S(=O)(=O)N2CCOCC2)ccc1[O-] (protonated)
O=C([N-]c1ccc(Cl)cc1[O-])c1cc(S(=O)(=O)N2CCOCC2)ccc1[O-] (3D coordinates assigned)
O=C([N-]c1ccc(Cl)cc1[O-])c1cc(S(=O)(=O)N2CCOCC2)ccc1[O-] (nonaromatic ring conformer: 57.815550178398354 kcal/mol)

>  <smiles>  (14) 
O=C(Nc1ccc(Cl)cc1O)c1cc(S(=O)(=O)N2CCOCC2)ccc1O

>  <score_type>  (14) 
oracle

>  <origin>  (14) 
adgpu

>  <m_score__min__energy>  (14) 
-15.82

>  <m_primary>  (14) 
energy

$$$$
14:0
     RDKit          3D

 54 56  0  0  0  0  0  0  0  0999 V2000
   -2.4300   24.3280  -28.4270 C   0  0  0  0  0  0  0  0  0  0  0  0
   -2.7290   24.9240  -29.7240 N   0  0  0  0  0  0  0  0  0  0  0  0
   -4.1990   24.2480  -30.3560 S   0  0  0  0  0  0  0  0  0  0  0  0
   -4.9550   25.2980  -31.1240 O   0  0  0  0  0  0  0  0  0  0  0  0
   -5.0580   23.7850  -29.2140 O   0  0  0  0  0  0  0  0  0  0  0  0
   -3.8430   22.8740  -31.4000 C   0  0  0  0  0  0  0  0  0  0  0  0
   -4.8080   22.3880  -32.2910 C   0  0  0  0  0  0  0  0  0  0  0  0
   -4.5110   21.3090  -33.1280 C   0  0  0  0  0  0  0  0  0  0  0  0
   -3.2520   20.6930  -33.0760 C   0  0  0  0  0  0  0  0  0  0  0  0
   -2.9700   19.5940  -33.9590 N   0  0  0  0  0  0  0  0  0  0  0  0
   -2.2680   18.4110  -33.5460 C   0  0  0  0  0  0  0  0  0  0  0  0
   -2.0800   18.1870  -32.3190 O   0  0  0  0  0  0  0  0  0  0  0  0
   -1.7700   17.4470  -34.5570 C   0  0  0  0  0  0  0  0  0  0  0  0
   -0.6710   17.7890  -35.3580 C   0  0  0  0  0  0  0  0  0  0  0  0
   -0.1640   16.8970  -36.2460 N   0  0  0  0  0  0  0  0  0  0  0  0
   -0.7090   15.6630  -36.3820 C   0  0  0  0  0  0  0  0  0  0  0  0
   -1.7790   15.3070  -35.6300 N   0  0  0  0  0  0  0  0  0  0  0  0
   -2.3250   16.1580  -34.7180 C   0  0  0  0  0  0  0  0  0  0  0  0
   -3.5090   15.7600  -34.0050 N   0  0  0  0  0  0  0  0  0  0  0  0
   -4.5370   16.6790  -33.5970 C   0  0  0  0  0  0  0  0  0  0  0  0
   -5.1510   17.5500  -34.5090 C   0  0  0  0  0  0  0  0  0  0  0  0
   -6.1630   18.4120  -34.0840 C   0  0  0  0  0  0  0  0  0  0  0  0
   -6.5740   18.3980  -32.7380 C   0  0  0  0  0  0  0  0  0  0  0  0
   -7.6820   19.3280  -32.2410 C   0  0  0  0  0  0  0  0  0  0  0  0
   -7.0820   20.4040  -31.3110 C   0  0  0  0  0  0  0  0  0  0  0  0
   -8.3790   20.0410  -33.4230 C   0  0  0  0  0  0  0  0  0  0  0  0
   -8.7440   18.5130  -31.4730 C   0  0  0  0  0  0  0  0  0  0  0  0
   -5.9720   17.5250  -31.8790 N   0  0  0  0  0  0  0  0  0  0  0  0
   -4.9860   16.6770  -32.2710 C   0  0  0  0  0  0  0  0  0  0  0  0
   -2.2730   21.2040  -32.2030 C   0  0  0  0  0  0  0  0  0  0  0  0
   -1.0160   20.6920  -32.1920 F   0  0  0  0  0  0  0  0  0  0  0  0
   -2.5730   22.2850  -31.3670 C   0  0  0  0  0  0  0  0  0  0  0  0
   -2.7684   25.0026  -27.6267 H   0  0  0  0  0  0  0  0  0  0  0  0
   -2.9508   23.3632  -28.3380 H   0  0  0  0  0  0  0  0  0  0  0  0
   -1.3452   24.1687  -28.3380 H   0  0  0  0  0  0  0  0  0  0  0  0
   -5.8023   22.8568  -32.3321 H   0  0  0  0  0  0  0  0  0  0  0  0
   -5.2705   20.9400  -33.8330 H   0  0  0  0  0  0  0  0  0  0  0  0
   -3.4280   19.5900  -34.8980 H   0  0  0  0  0  0  0  0  0  0  0  0
   -0.2170   18.7867  -35.2659 H   0  0  0  0  0  0  0  0  0  0  0  0
   -0.2825   14.9502  -37.1032 H   0  0  0  0  0  0  0  0  0  0  0  0
   -3.5710   14.7740  -33.6650 H   0  0  0  0  0  0  0  0  0  0  0  0
   -4.8340   17.5537  -35.5623 H   0  0  0  0  0  0  0  0  0  0  0  0
   -6.6379   19.1002  -34.7988 H   0  0  0  0  0  0  0  0  0  0  0  0
   -7.2438   20.1139  -30.2624 H   0  0  0  0  0  0  0  0  0  0  0  0
   -6.0029   20.4950  -31.5040 H   0  0  0  0  0  0  0  0  0  0  0  0
   -7.5718   21.3699  -31.5040 H   0  0  0  0  0  0  0  0  0  0  0  0
   -9.0984   20.7769  -33.0346 H   0  0  0  0  0  0  0  0  0  0  0  0
   -7.6249   20.5545  -34.0376 H   0  0  0  0  0  0  0  0  0  0  0  0
   -8.9094   19.2988  -34.0376 H   0  0  0  0  0  0  0  0  0  0  0  0
   -8.5869   18.6336  -30.3910 H   0  0  0  0  0  0  0  0  0  0  0  0
   -9.7478   18.8748  -31.7403 H   0  0  0  0  0  0  0  0  0  0  0  0
   -8.6542   17.4498  -31.7403 H   0  0  0  0  0  0  0  0  0  0  0  0
   -4.5379   15.9850  -31.5427 H   0  0  0  0  0  0  0  0  0  0  0  0
   -1.8071   22.6743  -30.6801 H   0  0  0  0  0  0  0  0  0  0  0  0
  1  2  1  0
  2  3  1  0
  3  4  2  0
  3  5  2  0
  3  6  1  0
  6  7  2  0
  7  8  1  0
  8  9  2  0
  9 10  1  0
 10 11  1  0
 11 12  2  0
 11 13  1  0
 13 14  2  0
 14 15  1  0
 15 16  2  0
 16 17  1  0
 17 18  2  0
 18 19  1  0
 19 20  1  0
 20 21  2  0
 21 22  1  0
 22 23  2  0
 23 24  1  0
 24 25  1  0
 24 26  1  0
 24 27  1  0
 23 28  1  0
 28 29  2  0
  9 30  1  0
 30 31  1  0
 30 32  2  0
 32  6  1  0
 18 13  1  0
 29 20  1  0
  1 33  1  0
  1 34  1  0
  1 35  1  0
  7 36  1  0
  8 37  1  0
 10 38  1  0
 14 39  1  0
 16 40  1  0
 19 41  1  0
 21 42  1  0
 22 43  1  0
 25 44  1  0
 25 45  1  0
 25 46  1  0
 26 47  1  0
 26 48  1  0
 26 49  1  0
 27 50  1  0
 27 51  1  0
 27 52  1  0
 29 53  1  0
 32 54  1  0
M  CHG  1   2  -1
M  END
>  <UniqueID>  (15) 
15

>  <SMILES>  (15) 
C[N-]S(=O)(=O)c1ccc(NC(=O)c2cncnc2Nc2ccc(C(C)(C)C)nc2)c(F)c1

>  <Energy>  (15) 
67.24617547600906

>  <Genealogy>  (15) 
C[N-]S(=O)(=O)c1ccc(NC(=O)c2cncnc2Nc2ccc(C(C)(C)C)nc2)c(F)c1 (protonated)
C[N-]S(=O)(=O)c1ccc(NC(=O)c2cncnc2Nc2ccc(C(C)(C)C)nc2)c(F)c1 (3D coordinates assigned)
C[N-]S(=O)(=O)c1ccc(NC(=O)c2cncnc2Nc2ccc(C(C)(C)C)nc2)c(F)c1 (optimized conformer: 67.24617547600906 kcal/mol)

>  <smiles>  (15) 
CNS(=O)(=O)c1ccc(NC(=O)c2cncnc2Nc2ccc(C(C)(C)C)nc2)c(F)c1

>  <score_type>  (15) 
oracle

>  <origin>  (15) 
adgpu

>  <m_score__min__energy>  (15) 
-10.09

>  <m_primary>  (15) 
energy

$$$$
15:0
     RDKit          3D

 33 35  0  0  0  0  0  0  0  0999 V2000
   -3.8860   25.3840  -30.5300 O   0  0  0  0  0  0  0  0  0  0  0  0
   -3.5540   24.1690  -30.4520 C   0  0  0  0  0  0  0  0  0  0  0  0
   -3.9810   23.2350  -31.4510 N   0  0  0  0  0  0  0  0  0  0  0  0
   -5.3020   22.6950  -31.6080 C   0  0  0  0  0  0  0  0  0  0  0  0
   -6.4000   23.5200  -31.3330 C   0  0  0  0  0  0  0  0  0  0  0  0
   -7.7040   23.0360  -31.4540 C   0  0  0  0  0  0  0  0  0  0  0  0
   -7.9290   21.7080  -31.8370 C   0  0  0  0  0  0  0  0  0  0  0  0
   -9.2360   21.2080  -31.9610 C   0  0  0  0  0  0  0  0  0  0  0  0
   -9.4470   19.8780  -32.3340 C   0  0  0  0  0  0  0  0  0  0  0  0
   -8.3600   19.0370  -32.5830 C   0  0  0  0  0  0  0  0  0  0  0  0
   -7.0530   19.5210  -32.4630 C   0  0  0  0  0  0  0  0  0  0  0  0
   -6.8270   20.8560  -32.0940 C   0  0  0  0  0  0  0  0  0  0  0  0
   -5.5210   21.3530  -31.9700 C   0  0  0  0  0  0  0  0  0  0  0  0
   -2.7540   23.7010  -29.3580 N   0  0  0  0  0  0  0  0  0  0  0  0
   -2.4290   24.4860  -28.1970 C   0  0  0  0  0  0  0  0  0  0  0  0
   -3.3210   24.5140  -27.1140 C   0  0  0  0  0  0  0  0  0  0  0  0
   -3.0380   25.2870  -25.9830 C   0  0  0  0  0  0  0  0  0  0  0  0
   -1.8680   26.0500  -25.9310 C   0  0  0  0  0  0  0  0  0  0  0  0
   -1.5960   26.8010  -24.8350 F   0  0  0  0  0  0  0  0  0  0  0  0
   -0.9850   26.0470  -27.0140 C   0  0  0  0  0  0  0  0  0  0  0  0
   -1.2640   25.2760  -28.1460 C   0  0  0  0  0  0  0  0  0  0  0  0
   -6.2331   24.5607  -31.0182 H   0  0  0  0  0  0  0  0  0  0  0  0
   -8.5568   23.6995  -31.2480 H   0  0  0  0  0  0  0  0  0  0  0  0
  -10.0957   21.8653  -31.7639 H   0  0  0  0  0  0  0  0  0  0  0  0
  -10.4724   19.4921  -32.4318 H   0  0  0  0  0  0  0  0  0  0  0  0
   -8.5323   17.9904  -32.8745 H   0  0  0  0  0  0  0  0  0  0  0  0
   -6.2006   18.8537  -32.6583 H   0  0  0  0  0  0  0  0  0  0  0  0
   -4.6634   20.6899  -32.1568 H   0  0  0  0  0  0  0  0  0  0  0  0
   -2.3080   22.7620  -29.4590 H   0  0  0  0  0  0  0  0  0  0  0  0
   -4.2487   23.9243  -27.1547 H   0  0  0  0  0  0  0  0  0  0  0  0
   -3.7370   25.2944  -25.1336 H   0  0  0  0  0  0  0  0  0  0  0  0
   -0.0678   26.6531  -26.9756 H   0  0  0  0  0  0  0  0  0  0  0  0
   -0.5711   25.2862  -29.0003 H   0  0  0  0  0  0  0  0  0  0  0  0
  1  2  2  0
  2  3  1  0
  3  4  1  0
  4  5  2  0
  5  6  1  0
  6  7  2  0
  7  8  1  0
  8  9  2  0
  9 10  1  0
 10 11  2  0
 11 12  1  0
 12 13  2  0
  2 14  1  0
 14 15  1  0
 15 16  2  0
 16 17  1  0
 17 18  2  0
 18 19  1  0
 18 20  1  0
 20 21  2  0
 13  4  1  0
 21 15  1  0
 12  7  1  0
  5 22  1  0
  6 23  1  0
  8 24  1  0
  9 25  1  0
 10 26  1  0
 11 27  1  0
 13 28  1  0
 14 29  1  0
 16 30  1  0
 17 31  1  0
 20 32  1  0
 21 33  1  0
M  CHG  1   3  -1
M  END
>  <UniqueID>  (16) 
16

>  <SMILES>  (16) 
O=C([N-]c1ccc2ccccc2c1)Nc1ccc(F)cc1

>  <Energy>  (16) 
45.668544790992925

>  <Genealogy>  (16) 
O=C([N-]c1ccc2ccccc2c1)Nc1ccc(F)cc1 (protonated)
O=C([N-]c1ccc2ccccc2c1)Nc1ccc(F)cc1 (3D coordinates assigned)
O=C([N-]c1ccc2ccccc2c1)Nc1ccc(F)cc1 (optimized conformer: 45.668544790992925 kcal/mol)

>  <smiles>  (16) 
O=C(Nc1ccc(F)cc1)Nc1ccc2ccccc2c1

>  <score_type>  (16) 
oracle

>  <origin>  (16) 
adgpu

>  <m_score__min__energy>  (16) 
-9.5399999999999991

>  <m_primary>  (16) 
energy

$$$$
16:0
     RDKit          3D

 55 58  0  0  0  0  0  0  0  0999 V2000
   -3.8660   25.3030  -30.5010 O   0  0  0  0  0  0  0  0  0  0  0  0
   -4.8580   24.5390  -30.3830 C   0  0  0  0  0  0  0  0  0  0  0  0
   -6.1270   24.9490  -29.7520 C   0  0  0  0  0  0  0  0  0  0  0  0
   -6.9910   23.6870  -29.8450 C   0  0  0  0  0  0  0  0  0  0  0  0
   -6.2490   22.7010  -30.7660 C   0  0  0  0  0  0  0  0  0  0  0  0
   -4.9050   23.2310  -30.9210 N   0  0  0  0  0  0  0  0  0  0  0  0
   -3.8120   22.5180  -31.5320 C   0  0  0  0  0  0  0  0  0  0  0  0
   -3.8950   22.0740  -32.8640 C   0  0  0  0  0  0  0  0  0  0  0  0
   -2.8120   21.4240  -33.4650 C   0  0  0  0  0  0  0  0  0  0  0  0
   -1.6330   21.2100  -32.7430 C   0  0  0  0  0  0  0  0  0  0  0  0
   -0.2380   20.4500  -33.5050 S   0  0  0  0  0  0  0  0  0  0  0  0
    0.4670   21.4750  -34.3490 O   0  0  0  0  0  0  0  0  0  0  0  0
    0.7180   19.9230  -32.4690 O   0  0  0  0  0  0  0  0  0  0  0  0
   -0.7600   19.1480  -34.5220 N   0  0  0  0  0  0  0  0  0  0  0  0
   -1.7960   18.2110  -34.1930 C   0  0  0  0  0  0  0  0  0  0  0  0
   -1.4310   16.8960  -33.8860 C   0  0  0  0  0  0  0  0  0  0  0  0
   -2.4100   15.9340  -33.6320 C   0  0  0  0  0  0  0  0  0  0  0  0
   -3.7630   16.2810  -33.6760 C   0  0  0  0  0  0  0  0  0  0  0  0
   -4.1440   17.6010  -33.9480 C   0  0  0  0  0  0  0  0  0  0  0  0
   -5.8510   18.0420  -34.0040 S   0  0  0  0  0  0  0  0  0  0  0  0
   -6.6790   16.7860  -34.0550 O   0  0  0  0  0  0  0  0  0  0  0  0
   -6.1210   18.8190  -35.2620 O   0  0  0  0  0  0  0  0  0  0  0  0
   -6.3360   19.0080  -32.6250 N   0  0  0  0  0  0  0  0  0  0  0  0
   -6.8980   20.3260  -33.0060 C   0  0  0  0  0  0  0  0  0  0  0  0
   -8.2370   20.6430  -32.3270 C   0  0  0  0  0  0  0  0  0  0  0  0
   -9.1910   19.4690  -32.5040 C   0  0  0  0  0  0  0  0  0  0  0  0
   -8.6160   18.1730  -31.9050 C   0  0  0  0  0  0  0  0  0  0  0  0
   -7.1000   18.2360  -31.6210 C   0  0  0  0  0  0  0  0  0  0  0  0
   -3.1570   18.5650  -34.2030 C   0  0  0  0  0  0  0  0  0  0  0  0
   -1.5480   21.6400  -31.4150 C   0  0  0  0  0  0  0  0  0  0  0  0
   -2.6250   22.2980  -30.8170 C   0  0  0  0  0  0  0  0  0  0  0  0
   -5.9691   25.2420  -28.7036 H   0  0  0  0  0  0  0  0  0  0  0  0
   -6.5869   25.8222  -30.2379 H   0  0  0  0  0  0  0  0  0  0  0  0
   -7.1230   23.2450  -28.8464 H   0  0  0  0  0  0  0  0  0  0  0  0
   -7.9886   23.9225  -30.2441 H   0  0  0  0  0  0  0  0  0  0  0  0
   -6.2152   21.7016  -30.3077 H   0  0  0  0  0  0  0  0  0  0  0  0
   -6.7556   22.5978  -31.7369 H   0  0  0  0  0  0  0  0  0  0  0  0
   -4.8189   22.2392  -33.4377 H   0  0  0  0  0  0  0  0  0  0  0  0
   -2.8875   21.0805  -34.5073 H   0  0  0  0  0  0  0  0  0  0  0  0
   -0.3673   16.6187  -33.8446 H   0  0  0  0  0  0  0  0  0  0  0  0
   -2.1159   14.9005  -33.3967 H   0  0  0  0  0  0  0  0  0  0  0  0
   -4.5315   15.5147  -33.4964 H   0  0  0  0  0  0  0  0  0  0  0  0
   -6.1740   21.1061  -32.7281 H   0  0  0  0  0  0  0  0  0  0  0  0
   -7.0853   20.2955  -34.0895 H   0  0  0  0  0  0  0  0  0  0  0  0
   -8.0704   20.8206  -31.2543 H   0  0  0  0  0  0  0  0  0  0  0  0
   -8.6751   21.5417  -32.7857 H   0  0  0  0  0  0  0  0  0  0  0  0
  -10.1412   19.7029  -32.0017 H   0  0  0  0  0  0  0  0  0  0  0  0
   -9.3435   19.3105  -33.5818 H   0  0  0  0  0  0  0  0  0  0  0  0
   -9.1377   17.9672  -30.9587 H   0  0  0  0  0  0  0  0  0  0  0  0
   -8.7690   17.3799  -32.6517 H   0  0  0  0  0  0  0  0  0  0  0  0
   -6.9507   18.7039  -30.6367 H   0  0  0  0  0  0  0  0  0  0  0  0
   -6.7241   17.2029  -31.6575 H   0  0  0  0  0  0  0  0  0  0  0  0
   -3.4497   19.6045  -34.4121 H   0  0  0  0  0  0  0  0  0  0  0  0
   -0.6286   21.4591  -30.8388 H   0  0  0  0  0  0  0  0  0  0  0  0
   -2.5420   22.6466  -29.7770 H   0  0  0  0  0  0  0  0  0  0  0  0
  1  2  2  0
  2  3  1  0
  3  4  1  0
  4  5  1  0
  5  6  1  0
  6  7  1  0
  7  8  2  0
  8  9  1  0
  9 10  2  0
 10 11  1  0
 11 12  2  0
 11 13  2  0
 11 14  1  0
 14 15  1  0
 15 16  2  0
 16 17  1  0
 17 18  2  0
 18 19  1  0
 19 20  1  0
 20 21  2  0
 20 22  2  0
 20 23  1  0
 23 24  1  0
 24 25  1  0
 25 26  1  0
 26 27  1  0
 27 28  1  0
 19 29  2  0
 10 30  1  0
 30 31  2  0
  6  2  1  0
 31  7  1  0
 29 15  1  0
 28 23  1  0
  3 32  1  0
  3 33  1  0
  4 34  1  0
  4 35  1  0
  5 36  1  0
  5 37  1  0
  8 38  1  0
  9 39  1  0
 16 40  1  0
 17 41  1  0
 18 42  1  0
 24 43  1  0
 24 44  1  0
 25 45  1  0
 25 46  1  0
 26 47  1  0
 26 48  1  0
 27 49  1  0
 27 50  1  0
 28 51  1  0
 28 52  1  0
 29 53  1  0
 30 54  1  0
 31 55  1  0
M  CHG  1  14  -1
M  END
>  <UniqueID>  (17) 
17

>  <SMILES>  (17) 
O=C1CCCN1c1ccc(S(=O)(=O)[N-]c2cccc(S(=O)(=O)N3CCCCC3)c2)cc1

>  <Energy>  (17) 
77.12183448826603

>  <Genealogy>  (17) 
O=C1CCCN1c1ccc(S(=O)(=O)[N-]c2cccc(S(=O)(=O)N3CCCCC3)c2)cc1 (protonated)
O=C1CCCN1c1ccc(S(=O)(=O)[N-]c2cccc(S(=O)(=O)N3CCCCC3)c2)cc1 (3D coordinates assigned)
O=C1CCCN1c1ccc(S(=O)(=O)[N-]c2cccc(S(=O)(=O)N3CCCCC3)c2)cc1 (nonaromatic ring conformer: 77.12183448826603 kcal/mol)

>  <smiles>  (17) 
O=C1CCCN1c1ccc(S(=O)(=O)Nc2cccc(S(=O)(=O)N3CCCCC3)c2)cc1

>  <score_type>  (17) 
oracle

>  <origin>  (17) 
adgpu

>  <m_score__min__energy>  (17) 
-11.93

>  <m_primary>  (17) 
energy

$$$$
17:0
     RDKit          3D

 47 49  0  0  0  0  0  0  0  0999 V2000
   -9.1490   21.3310  -31.1470 C   0  0  0  0  0  0  0  0  0  0  0  0
   -8.4610   22.5470  -31.6820 C   0  0  0  0  0  0  0  0  0  0  0  0
   -9.1490   23.4100  -32.2890 O   0  0  0  0  0  0  0  0  0  0  0  0
   -7.0020   22.7610  -31.5210 C   0  0  0  0  0  0  0  0  0  0  0  0
   -5.9990   21.9560  -32.0460 C   0  0  0  0  0  0  0  0  0  0  0  0
   -6.1900   20.7160  -32.8640 C   0  0  0  0  0  0  0  0  0  0  0  0
   -4.7870   22.4460  -31.7240 N   0  0  0  0  0  0  0  0  0  0  0  0
   -4.9880   23.5600  -30.9950 C   0  0  0  0  0  0  0  0  0  0  0  0
   -3.8850   24.4010  -30.4820 C   0  0  0  0  0  0  0  0  0  0  0  0
   -4.0210   25.6520  -30.4490 O   0  0  0  0  0  0  0  0  0  0  0  0
   -2.6280   23.8340  -30.0950 N   0  0  0  0  0  0  0  0  0  0  0  0
   -2.4420   22.7210  -29.2050 C   0  0  0  0  0  0  0  0  0  0  0  0
   -2.7190   21.4060  -29.6200 C   0  0  0  0  0  0  0  0  0  0  0  0
   -2.5810   20.3400  -28.7290 C   0  0  0  0  0  0  0  0  0  0  0  0
   -2.1870   20.5760  -27.4120 C   0  0  0  0  0  0  0  0  0  0  0  0
   -1.9310   21.8800  -26.9820 C   0  0  0  0  0  0  0  0  0  0  0  0
   -2.0540   22.9590  -27.8720 C   0  0  0  0  0  0  0  0  0  0  0  0
   -1.7730   24.2970  -27.4260 N   0  0  0  0  0  0  0  0  0  0  0  0
   -0.7570   25.0980  -28.1090 C   0  0  0  0  0  0  0  0  0  0  0  0
   -0.1890   26.1400  -27.1390 C   0  0  0  0  0  0  0  0  0  0  0  0
   -1.2310   26.8910  -26.5410 O   0  0  0  0  0  0  0  0  0  0  0  0
   -2.0320   26.0450  -25.7350 C   0  0  0  0  0  0  0  0  0  0  0  0
   -2.7500   25.0000  -26.5920 C   0  0  0  0  0  0  0  0  0  0  0  0
   -6.3510   23.7850  -30.8320 C   0  0  0  0  0  0  0  0  0  0  0  0
   -6.9820   24.8770  -30.0190 C   0  0  0  0  0  0  0  0  0  0  0  0
   -9.1350   21.3558  -30.0474 H   0  0  0  0  0  0  0  0  0  0  0  0
  -10.1906   21.3139  -31.5001 H   0  0  0  0  0  0  0  0  0  0  0  0
   -8.6272   20.4293  -31.5001 H   0  0  0  0  0  0  0  0  0  0  0  0
   -6.3230   19.8526  -32.1955 H   0  0  0  0  0  0  0  0  0  0  0  0
   -7.0813   20.8291  -33.4986 H   0  0  0  0  0  0  0  0  0  0  0  0
   -5.3060   20.5556  -33.4986 H   0  0  0  0  0  0  0  0  0  0  0  0
   -3.8650   22.0480  -32.0140 H   0  0  0  0  0  0  0  0  0  0  0  0
   -3.0464   21.2163  -30.6529 H   0  0  0  0  0  0  0  0  0  0  0  0
   -2.7833   19.3127  -29.0661 H   0  0  0  0  0  0  0  0  0  0  0  0
   -2.0778   19.7348  -26.7117 H   0  0  0  0  0  0  0  0  0  0  0  0
   -1.6311   22.0628  -25.9396 H   0  0  0  0  0  0  0  0  0  0  0  0
    0.0539   24.4415  -28.4576 H   0  0  0  0  0  0  0  0  0  0  0  0
   -1.2118   25.6091  -28.9704 H   0  0  0  0  0  0  0  0  0  0  0  0
    0.3828   25.6263  -26.3521 H   0  0  0  0  0  0  0  0  0  0  0  0
    0.4628   26.8258  -27.7001 H   0  0  0  0  0  0  0  0  0  0  0  0
   -1.3914   25.5324  -25.0023 H   0  0  0  0  0  0  0  0  0  0  0  0
   -2.7864   26.6583  -25.2205 H   0  0  0  0  0  0  0  0  0  0  0  0
   -3.2608   24.2779  -25.9381 H   0  0  0  0  0  0  0  0  0  0  0  0
   -3.4894   25.4992  -27.2356 H   0  0  0  0  0  0  0  0  0  0  0  0
   -6.8551   24.6573  -28.9487 H   0  0  0  0  0  0  0  0  0  0  0  0
   -6.4991   25.8365  -30.2562 H   0  0  0  0  0  0  0  0  0  0  0  0
   -8.0544   24.9377  -30.2562 H   0  0  0  0  0  0  0  0  0  0  0  0
  1  2  1  0
  2  3  2  0
  2  4  1  0
  4  5  2  0
  5  6  1  0
  5  7  1  0
  7  8  1  0
  8  9  1  0
  9 10  2  0
  9 11  1  0
 11 12  1  0
 12 13  2  0
 13 14  1  0
 14 15  2  0
 15 16  1  0
 16 17  2  0
 17 18  1  0
 18 19  1  0
 19 20  1  0
 20 21  1  0
 21 22  1  0
 22 23  1  0
  8 24  2  0
 24 25  1  0
 24  4  1  0
 17 12  1  0
 23 18  1  0
  1 26  1  0
  1 27  1  0
  1 28  1  0
  6 29  1  0
  6 30  1  0
  6 31  1  0
  7 32  1  0
 13 33  1  0
 14 34  1  0
 15 35  1  0
 16 36  1  0
 19 37  1  0
 19 38  1  0
 20 39  1  0
 20 40  1  0
 22 41  1  0
 22 42  1  0
 23 43  1  0
 23 44  1  0
 25 45  1  0
 25 46  1  0
 25 47  1  0
M  CHG  1  11  -1
M  END
>  <UniqueID>  (18) 
18

>  <SMILES>  (18) 
CC(=O)c1c(C)[nH]c(C(=O)[N-]c2ccccc2N2CCOCC2)c1C

>  <Energy>  (18) 
85.6984676012201

>  <Genealogy>  (18) 
CC(=O)c1c(C)[nH]c(C(=O)[N-]c2ccccc2N2CCOCC2)c1C (protonated)
CC(=O)c1c(C)[nH]c(C(=O)[N-]c2ccccc2N2CCOCC2)c1C (3D coordinates assigned)
CC(=O)c1c(C)[nH]c(C(=O)[N-]c2ccccc2N2CCOCC2)c1C (nonaromatic ring conformer: 85.6984676012201 kcal/mol)

>  <smiles>  (18) 
CC(=O)c1c(C)[nH]c(C(=O)Nc2ccccc2N2CCOCC2)c1C

>  <score_type>  (18) 
oracle

>  <origin>  (18) 
adgpu

>  <m_score__min__energy>  (18) 
-9.2899999999999991

>  <m_primary>  (18) 
energy

$$$$
18:0
     RDKit          3D

 33 35  0  0  0  0  0  0  0  0999 V2000
   -7.6070   22.4570  -30.1100 C   0  0  0  0  0  0  0  0  0  0  0  0
   -6.6510   22.0080  -31.1240 N   0  0  0  0  0  0  0  0  0  0  0  0
   -6.8080   20.7190  -31.7480 C   0  0  0  0  0  0  0  0  0  0  0  0
   -8.0540   20.0660  -31.7320 C   0  0  0  0  0  0  0  0  0  0  0  0
   -8.2050   18.8080  -32.3250 C   0  0  0  0  0  0  0  0  0  0  0  0
   -7.1110   18.1910  -32.9340 C   0  0  0  0  0  0  0  0  0  0  0  0
   -5.8720   18.8420  -32.9760 C   0  0  0  0  0  0  0  0  0  0  0  0
   -5.7130   20.0910  -32.3700 C   0  0  0  0  0  0  0  0  0  0  0  0
   -4.8020   18.2230  -33.6310 O   0  0  0  0  0  0  0  0  0  0  0  0
   -5.0100   17.0940  -34.4820 C   0  0  0  0  0  0  0  0  0  0  0  0
   -6.0770   16.1670  -33.8820 C   0  0  0  0  0  0  0  0  0  0  0  0
   -7.2330   16.9210  -33.5060 O   0  0  0  0  0  0  0  0  0  0  0  0
   -5.3600   23.0720  -31.6000 S   0  0  0  0  0  0  0  0  0  0  0  0
   -5.9310   24.4120  -31.9690 O   0  0  0  0  0  0  0  0  0  0  0  0
   -4.6240   22.5050  -32.7820 O   0  0  0  0  0  0  0  0  0  0  0  0
   -4.2190   23.2510  -30.2780 C   0  0  0  0  0  0  0  0  0  0  0  0
   -3.6500   21.9970  -29.3060 S   0  0  0  0  0  0  0  0  0  0  0  0
   -2.6690   23.0300  -28.4120 C   0  0  0  0  0  0  0  0  0  0  0  0
   -1.9320   22.6640  -27.4580 O   0  0  0  0  0  0  0  0  0  0  0  0
   -2.7560   24.3100  -28.8310 N   0  0  0  0  0  0  0  0  0  0  0  0
   -3.6180   24.4370  -29.8740 C   0  0  0  0  0  0  0  0  0  0  0  0
   -3.8680   25.6630  -30.4790 O   0  0  0  0  0  0  0  0  0  0  0  0
   -7.1963   22.2641  -29.1079 H   0  0  0  0  0  0  0  0  0  0  0  0
   -7.7897   23.5351  -30.2301 H   0  0  0  0  0  0  0  0  0  0  0  0
   -8.5533   21.9092  -30.2301 H   0  0  0  0  0  0  0  0  0  0  0  0
   -8.9166   20.5486  -31.2492 H   0  0  0  0  0  0  0  0  0  0  0  0
   -9.1837   18.3061  -32.3114 H   0  0  0  0  0  0  0  0  0  0  0  0
   -4.7299   20.5844  -32.3792 H   0  0  0  0  0  0  0  0  0  0  0  0
   -5.3446   17.4410  -35.4707 H   0  0  0  0  0  0  0  0  0  0  0  0
   -4.0654   16.5386  -34.5787 H   0  0  0  0  0  0  0  0  0  0  0  0
   -6.3632   15.4116  -34.6286 H   0  0  0  0  0  0  0  0  0  0  0  0
   -5.6636   15.6754  -32.9890 H   0  0  0  0  0  0  0  0  0  0  0  0
   -2.2260   25.1050  -28.4110 H   0  0  0  0  0  0  0  0  0  0  0  0
  1  2  1  0
  2  3  1  0
  3  4  2  0
  4  5  1  0
  5  6  2  0
  6  7  1  0
  7  8  2  0
  7  9  1  0
  9 10  1  0
 10 11  1  0
 11 12  1  0
  2 13  1  0
 13 14  2  0
 13 15  2  0
 13 16  1  0
 16 17  1  0
 17 18  1  0
 18 19  2  0
 18 20  1  0
 20 21  1  0
 21 22  1  0
  8  3  1  0
 21 16  2  0
 12  6  1  0
  1 23  1  0
  1 24  1  0
  1 25  1  0
  4 26  1  0
  5 27  1  0
  8 28  1  0
 10 29  1  0
 10 30  1  0
 11 31  1  0
 11 32  1  0
 20 33  1  0
M  CHG  1  22  -1
M  END
>  <UniqueID>  (19) 
19

>  <SMILES>  (19) 
CN(c1ccc2c(c1)OCCO2)S(=O)(=O)c1sc(=O)[nH]c1[O-]

>  <Energy>  (19) 
71.30104209868459

>  <Genealogy>  (19) 
CN(c1ccc2c(c1)OCCO2)S(=O)(=O)c1sc(=O)[nH]c1[O-] (protonated)
CN(c1ccc2c(c1)OCCO2)S(=O)(=O)c1sc(=O)[nH]c1[O-] (3D coordinates assigned)
CN(c1ccc2c(c1)OCCO2)S(=O)(=O)c1sc(=O)[nH]c1[O-] (nonaromatic ring conformer: 71.30104209868459 kcal/mol)

>  <smiles>  (19) 
CN(c1ccc2c(c1)OCCO2)S(=O)(=O)c1sc(=O)[nH]c1O

>  <score_type>  (19) 
oracle

>  <origin>  (19) 
adgpu

>  <m_score__min__energy>  (19) 
-10.33

>  <m_primary>  (19) 
energy

$$$$
19:0
     RDKit          3D

 51 54  0  0  0  0  0  0  0  0999 V2000
    1.1670   17.7160  -28.3250 C   0  0  0  0  0  0  0  0  0  0  0  0
   -0.0730   18.5400  -28.1240 C   0  0  0  0  0  0  0  0  0  0  0  0
   -0.9750   18.2340  -27.0900 C   0  0  0  0  0  0  0  0  0  0  0  0
   -2.1710   18.9640  -26.9450 C   0  0  0  0  0  0  0  0  0  0  0  0
   -3.1510   18.6150  -25.8620 C   0  0  0  0  0  0  0  0  0  0  0  0
   -2.4770   19.9810  -27.8630 C   0  0  0  0  0  0  0  0  0  0  0  0
   -1.5810   20.2930  -28.8970 C   0  0  0  0  0  0  0  0  0  0  0  0
   -1.9360   21.5940  -30.0340 S   0  0  0  0  0  0  0  0  0  0  0  0
   -0.6780   21.9320  -30.7850 O   0  0  0  0  0  0  0  0  0  0  0  0
   -2.9780   21.1660  -31.0310 O   0  0  0  0  0  0  0  0  0  0  0  0
   -2.5530   22.9870  -29.1300 C   0  0  0  0  0  0  0  0  0  0  0  0
   -3.6990   23.7490  -29.4200 C   0  0  0  0  0  0  0  0  0  0  0  0
   -4.6250   23.5540  -30.5660 C   0  0  0  0  0  0  0  0  0  0  0  0
   -4.9820   24.5420  -31.2560 O   0  0  0  0  0  0  0  0  0  0  0  0
   -5.1090   22.2500  -30.9210 N   0  0  0  0  0  0  0  0  0  0  0  0
   -5.7560   21.9920  -32.2090 C   0  0  0  0  0  0  0  0  0  0  0  0
   -6.4300   20.6510  -32.1900 C   0  0  0  0  0  0  0  0  0  0  0  0
   -7.7210   20.4920  -32.7140 C   0  0  0  0  0  0  0  0  0  0  0  0
   -8.3340   19.2370  -32.6620 C   0  0  0  0  0  0  0  0  0  0  0  0
   -7.6620   18.1580  -32.0850 C   0  0  0  0  0  0  0  0  0  0  0  0
   -6.3810   18.3560  -31.5630 C   0  0  0  0  0  0  0  0  0  0  0  0
   -5.7990   19.5850  -31.6230 N   0  0  0  0  0  0  0  0  0  0  0  0
   -3.8900   24.6820  -28.4550 N   0  0  0  0  0  0  0  0  0  0  0  0
   -2.8960   24.5210  -27.5690 C   0  0  0  0  0  0  0  0  0  0  0  0
   -2.7030   25.2460  -26.3920 C   0  0  0  0  0  0  0  0  0  0  0  0
   -1.6150   24.9010  -25.5760 C   0  0  0  0  0  0  0  0  0  0  0  0
   -0.7520   23.8460  -25.9440 C   0  0  0  0  0  0  0  0  0  0  0  0
    0.5960   23.4200  -24.9070 Cl  0  0  0  0  0  0  0  0  0  0  0  0
   -0.9730   23.1300  -27.1360 C   0  0  0  0  0  0  0  0  0  0  0  0
   -2.0600   23.4970  -27.9370 C   0  0  0  0  0  0  0  0  0  0  0  0
   -0.3880   19.5650  -29.0300 C   0  0  0  0  0  0  0  0  0  0  0  0
    1.5852   17.4381  -27.3463 H   0  0  0  0  0  0  0  0  0  0  0  0
    0.9148   16.8052  -28.8879 H   0  0  0  0  0  0  0  0  0  0  0  0
    1.9089   18.3013  -28.8879 H   0  0  0  0  0  0  0  0  0  0  0  0
   -0.7451   17.4183  -26.3888 H   0  0  0  0  0  0  0  0  0  0  0  0
   -2.6857   18.7807  -24.8791 H   0  0  0  0  0  0  0  0  0  0  0  0
   -4.0439   19.2504  -25.9568 H   0  0  0  0  0  0  0  0  0  0  0  0
   -3.4413   17.5582  -25.9568 H   0  0  0  0  0  0  0  0  0  0  0  0
   -3.4226   20.5354  -27.7715 H   0  0  0  0  0  0  0  0  0  0  0  0
   -5.0160   21.4510  -30.2590 H   0  0  0  0  0  0  0  0  0  0  0  0
   -6.5060   22.7731  -32.4020 H   0  0  0  0  0  0  0  0  0  0  0  0
   -4.9937   21.9998  -33.0020 H   0  0  0  0  0  0  0  0  0  0  0  0
   -8.2469   21.3479  -33.1622 H   0  0  0  0  0  0  0  0  0  0  0  0
   -9.3442   19.0998  -33.0750 H   0  0  0  0  0  0  0  0  0  0  0  0
   -8.1344   17.1655  -32.0418 H   0  0  0  0  0  0  0  0  0  0  0  0
   -5.8411   17.5158  -31.1020 H   0  0  0  0  0  0  0  0  0  0  0  0
   -4.6620   25.3790  -28.3770 H   0  0  0  0  0  0  0  0  0  0  0  0
   -3.3837   26.0636  -26.1124 H   0  0  0  0  0  0  0  0  0  0  0  0
   -1.4333   25.4559  -24.6438 H   0  0  0  0  0  0  0  0  0  0  0  0
   -0.3087   22.3039  -27.4298 H   0  0  0  0  0  0  0  0  0  0  0  0
    0.3056   19.7997  -29.8509 H   0  0  0  0  0  0  0  0  0  0  0  0
  1  2  1  0
  2  3  2  0
  3  4  1  0
  4  5  1  0
  4  6  2  0
  6  7  1  0
  7  8  1  0
  8  9  2  0
  8 10  2  0
  8 11  1  0
 11 12  2  0
 12 13  1  0
 13 14  2  0
 13 15  1  0
 15 16  1  0
 16 17  1  0
 17 18  2  0
 18 19  1  0
 19 20  2  0
 20 21  1  0
 21 22  2  0
 12 23  1  0
 23 24  1  0
 24 25  2  0
 25 26  1  0
 26 27  2  0
 27 28  1  0
 27 29  1  0
 29 30  2  0
  7 31  2  0
 31  2  1  0
 30 11  1  0
 22 17  1  0
 30 24  1  0
  1 32  1  0
  1 33  1  0
  1 34  1  0
  3 35  1  0
  5 36  1  0
  5 37  1  0
  5 38  1  0
  6 39  1  0
 15 40  1  0
 16 41  1  0
 16 42  1  0
 18 43  1  0
 19 44  1  0
 20 45  1  0
 21 46  1  0
 23 47  1  0
 25 48  1  0
 26 49  1  0
 29 50  1  0
 31 51  1  0
M  END
>  <UniqueID>  (20) 
20

>  <SMILES>  (20) 
Cc1cc(C)cc(S(=O)(=O)c2c(C(=O)NCc3ccccn3)[nH]c3ccc(Cl)cc23)c1

>  <Energy>  (20) 
86.9583070210977

>  <Genealogy>  (20) 
Cc1cc(C)cc(S(=O)(=O)c2c(C(=O)NCc3ccccn3)[nH]c3ccc(Cl)cc23)c1 (3D coordinates assigned)
Cc1cc(C)cc(S(=O)(=O)c2c(C(=O)NCc3ccccn3)[nH]c3ccc(Cl)cc23)c1 (optimized conformer: 86.9583070210977 kcal/mol)

>  <smiles>  (20) 
Cc1cc(C)cc(S(=O)(=O)c2c(C(=O)NCc3ccccn3)[nH]c3ccc(Cl)cc23)c1

>  <score_type>  (20) 
oracle

>  <origin>  (20) 
adgpu

>  <m_score__min__energy>  (20) 
-9.9600000000000009

>  <m_primary>  (20) 
energy

$$$$
20:0
     RDKit          3D

 41 43  0  0  0  0  0  0  0  0999 V2000
   -2.1970   23.7970  -29.6240 O   0  0  0  0  0  0  0  0  0  0  0  0
   -3.2900   24.0700  -29.0580 C   0  0  0  0  0  0  0  0  0  0  0  0
   -3.2990   24.8780  -27.8660 N   0  0  0  0  0  0  0  0  0  0  0  0
   -2.1080   25.3440  -27.2100 C   0  0  0  0  0  0  0  0  0  0  0  0
   -1.9550   25.2260  -25.8160 C   0  0  0  0  0  0  0  0  0  0  0  0
   -0.8020   25.7100  -25.1880 C   0  0  0  0  0  0  0  0  0  0  0  0
    0.1990   26.3270  -25.9420 C   0  0  0  0  0  0  0  0  0  0  0  0
    0.0470   26.4680  -27.3230 C   0  0  0  0  0  0  0  0  0  0  0  0
   -1.1030   25.9860  -27.9570 C   0  0  0  0  0  0  0  0  0  0  0  0
   -1.2380   26.1360  -29.3330 O   0  0  0  0  0  0  0  0  0  0  0  0
   -4.5490   23.5540  -29.6460 C   0  0  0  0  0  0  0  0  0  0  0  0
   -5.7870   24.1710  -29.3890 C   0  0  0  0  0  0  0  0  0  0  0  0
   -6.9610   23.6690  -29.9570 C   0  0  0  0  0  0  0  0  0  0  0  0
   -6.9210   22.5430  -30.7910 C   0  0  0  0  0  0  0  0  0  0  0  0
   -8.4070   21.9130  -31.5120 S   0  0  0  0  0  0  0  0  0  0  0  0
   -9.3940   21.6170  -30.4170 O   0  0  0  0  0  0  0  0  0  0  0  0
   -9.0030   22.9680  -32.4020 O   0  0  0  0  0  0  0  0  0  0  0  0
   -8.1440   20.4620  -32.4490 N   0  0  0  0  0  0  0  0  0  0  0  0
   -6.9490   20.5550  -33.2850 C   0  0  0  0  0  0  0  0  0  0  0  0
   -6.4830   19.1280  -33.5270 C   0  0  0  0  0  0  0  0  0  0  0  0
   -7.1300   18.3010  -32.4250 C   0  0  0  0  0  0  0  0  0  0  0  0
   -7.9370   19.2890  -31.6000 C   0  0  0  0  0  0  0  0  0  0  0  0
   -5.6880   21.9400  -31.0710 C   0  0  0  0  0  0  0  0  0  0  0  0
   -4.5130   22.4410  -30.5050 C   0  0  0  0  0  0  0  0  0  0  0  0
   -4.2130   25.1820  -27.4630 H   0  0  0  0  0  0  0  0  0  0  0  0
   -2.7459   24.7509  -25.2170 H   0  0  0  0  0  0  0  0  0  0  0  0
   -0.6838   25.6045  -24.0995 H   0  0  0  0  0  0  0  0  0  0  0  0
    1.1074   26.7020  -25.4478 H   0  0  0  0  0  0  0  0  0  0  0  0
    0.8339   26.9595  -27.9140 H   0  0  0  0  0  0  0  0  0  0  0  0
   -5.8312   25.0552  -28.7361 H   0  0  0  0  0  0  0  0  0  0  0  0
   -7.9227   24.1606  -29.7483 H   0  0  0  0  0  0  0  0  0  0  0  0
   -7.1901   21.0438  -34.2405 H   0  0  0  0  0  0  0  0  0  0  0  0
   -6.1657   21.1531  -32.7963 H   0  0  0  0  0  0  0  0  0  0  0  0
   -6.8133   18.7775  -34.5160 H   0  0  0  0  0  0  0  0  0  0  0  0
   -5.3861   19.0467  -33.5101 H   0  0  0  0  0  0  0  0  0  0  0  0
   -7.7879   17.5323  -32.8566 H   0  0  0  0  0  0  0  0  0  0  0  0
   -6.3809   17.7747  -31.8152 H   0  0  0  0  0  0  0  0  0  0  0  0
   -8.9044   18.8482  -31.3174 H   0  0  0  0  0  0  0  0  0  0  0  0
   -7.4120   19.5561  -30.6710 H   0  0  0  0  0  0  0  0  0  0  0  0
   -5.6447   21.0677  -31.7398 H   0  0  0  0  0  0  0  0  0  0  0  0
   -3.5504   21.9602  -30.7335 H   0  0  0  0  0  0  0  0  0  0  0  0
  1  2  2  0
  2  3  1  0
  3  4  1  0
  4  5  2  0
  5  6  1  0
  6  7  2  0
  7  8  1  0
  8  9  2  0
  9 10  1  0
  2 11  1  0
 11 12  2  0
 12 13  1  0
 13 14  2  0
 14 15  1  0
 15 16  2  0
 15 17  2  0
 15 18  1  0
 18 19  1  0
 19 20  1  0
 20 21  1  0
 21 22  1  0
 14 23  1  0
 23 24  2  0
  9  4  1  0
 24 11  1  0
 22 18  1  0
  3 25  1  0
  5 26  1  0
  6 27  1  0
  7 28  1  0
  8 29  1  0
 12 30  1  0
 13 31  1  0
 19 32  1  0
 19 33  1  0
 20 34  1  0
 20 35  1  0
 21 36  1  0
 21 37  1  0
 22 38  1  0
 22 39  1  0
 23 40  1  0
 24 41  1  0
M  CHG  1  10  -1
M  END
>  <UniqueID>  (21) 
21

>  <SMILES>  (21) 
O=C(Nc1ccccc1[O-])c1ccc(S(=O)(=O)N2CCCC2)cc1

>  <Energy>  (21) 
51.032275665986475

>  <Genealogy>  (21) 
O=C(Nc1ccccc1[O-])c1ccc(S(=O)(=O)N2CCCC2)cc1 (protonated)
O=C(Nc1ccccc1[O-])c1ccc(S(=O)(=O)N2CCCC2)cc1 (3D coordinates assigned)
O=C(Nc1ccccc1[O-])c1ccc(S(=O)(=O)N2CCCC2)cc1 (nonaromatic ring conformer: 51.032275665986475 kcal/mol)

>  <smiles>  (21) 
O=C(Nc1ccccc1O)c1ccc(S(=O)(=O)N2CCCC2)cc1

>  <score_type>  (21) 
oracle

>  <origin>  (21) 
adgpu

>  <m_score__min__energy>  (21) 
-12.02

>  <m_primary>  (21) 
energy

$$$$
21:0
     RDKit          3D

 50 53  0  0  0  0  0  0  0  0999 V2000
   -5.8560   11.6590  -33.3200 N   0  0  0  0  0  0  0  0  0  0  0  0
   -5.6990   12.8040  -33.3680 C   0  0  0  0  0  0  0  0  0  0  0  0
   -5.5020   14.2290  -33.4260 C   0  0  0  0  0  0  0  0  0  0  0  0
   -4.4740   14.8270  -32.6840 C   0  0  0  0  0  0  0  0  0  0  0  0
   -4.2850   16.2110  -32.7410 C   0  0  0  0  0  0  0  0  0  0  0  0
   -5.1160   17.0070  -33.5410 C   0  0  0  0  0  0  0  0  0  0  0  0
   -4.9230   18.4270  -33.5920 N   0  0  0  0  0  0  0  0  0  0  0  0
   -5.9750   19.2790  -34.1590 C   0  0  0  0  0  0  0  0  0  0  0  0
   -6.9930   19.6560  -33.1140 C   0  0  0  0  0  0  0  0  0  0  0  0
   -7.1620   21.0000  -32.7410 C   0  0  0  0  0  0  0  0  0  0  0  0
   -8.1520   21.3580  -31.8210 C   0  0  0  0  0  0  0  0  0  0  0  0
   -8.9750   20.3770  -31.2610 C   0  0  0  0  0  0  0  0  0  0  0  0
   -8.8060   19.0370  -31.6160 C   0  0  0  0  0  0  0  0  0  0  0  0
   -7.8190   18.6740  -32.5380 C   0  0  0  0  0  0  0  0  0  0  0  0
   -3.3420   19.0830  -33.2690 S   0  0  0  0  0  0  0  0  0  0  0  0
   -2.4990   18.0830  -32.5290 O   0  0  0  0  0  0  0  0  0  0  0  0
   -2.6700   19.4080  -34.5750 O   0  0  0  0  0  0  0  0  0  0  0  0
   -3.5030   20.5280  -32.2770 C   0  0  0  0  0  0  0  0  0  0  0  0
   -3.1380   20.4820  -30.9270 C   0  0  0  0  0  0  0  0  0  0  0  0
   -3.3310   21.5970  -30.1070 C   0  0  0  0  0  0  0  0  0  0  0  0
   -3.8880   22.7790  -30.6280 C   0  0  0  0  0  0  0  0  0  0  0  0
   -4.1210   23.9530  -29.7540 C   0  0  0  0  0  0  0  0  0  0  0  0
   -5.1840   24.0310  -29.0810 O   0  0  0  0  0  0  0  0  0  0  0  0
   -3.1430   25.0000  -29.6860 N   0  0  0  0  0  0  0  0  0  0  0  0
   -1.8240   24.9060  -29.1320 C   0  0  0  0  0  0  0  0  0  0  0  0
   -1.2410   25.8390  -28.3110 C   0  0  0  0  0  0  0  0  0  0  0  0
    0.0060   25.4270  -28.0120 N   0  0  0  0  0  0  0  0  0  0  0  0
    0.2290   24.2700  -28.6220 N   0  0  0  0  0  0  0  0  0  0  0  0
   -0.8730   23.9260  -29.3160 C   0  0  0  0  0  0  0  0  0  0  0  0
   -4.2300   22.8240  -31.9930 C   0  0  0  0  0  0  0  0  0  0  0  0
   -4.0370   21.7070  -32.8100 C   0  0  0  0  0  0  0  0  0  0  0  0
   -6.1470   16.4050  -34.2780 C   0  0  0  0  0  0  0  0  0  0  0  0
   -6.3380   15.0210  -34.2220 C   0  0  0  0  0  0  0  0  0  0  0  0
   -3.8161   14.2074  -32.0569 H   0  0  0  0  0  0  0  0  0  0  0  0
   -3.4797   16.6777  -32.1548 H   0  0  0  0  0  0  0  0  0  0  0  0
   -5.5172   20.1949  -34.5609 H   0  0  0  0  0  0  0  0  0  0  0  0
   -6.4853   18.7185  -34.9562 H   0  0  0  0  0  0  0  0  0  0  0  0
   -6.5123   21.7743  -33.1749 H   0  0  0  0  0  0  0  0  0  0  0  0
   -8.2833   22.4127  -31.5377 H   0  0  0  0  0  0  0  0  0  0  0  0
   -9.7562   20.6605  -30.5403 H   0  0  0  0  0  0  0  0  0  0  0  0
   -9.4505   18.2654  -31.1696 H   0  0  0  0  0  0  0  0  0  0  0  0
   -7.6883   17.6171  -32.8136 H   0  0  0  0  0  0  0  0  0  0  0  0
   -2.6974   19.5646  -30.5095 H   0  0  0  0  0  0  0  0  0  0  0  0
   -3.0451   21.5500  -29.0458 H   0  0  0  0  0  0  0  0  0  0  0  0
   -1.7130   26.7673  -27.9568 H   0  0  0  0  0  0  0  0  0  0  0  0
   -0.9932   23.0181  -29.9253 H   0  0  0  0  0  0  0  0  0  0  0  0
   -4.6524   23.7457  -32.4196 H   0  0  0  0  0  0  0  0  0  0  0  0
   -4.3056   21.7543  -33.8756 H   0  0  0  0  0  0  0  0  0  0  0  0
   -6.8077   17.0243  -34.9024 H   0  0  0  0  0  0  0  0  0  0  0  0
   -7.1461   14.5540  -34.8041 H   0  0  0  0  0  0  0  0  0  0  0  0
  1  2  3  0
  2  3  1  0
  3  4  2  0
  4  5  1  0
  5  6  2  0
  6  7  1  0
  7  8  1  0
  8  9  1  0
  9 10  2  0
 10 11  1  0
 11 12  2  0
 12 13  1  0
 13 14  2  0
  7 15  1  0
 15 16  2  0
 15 17  2  0
 15 18  1  0
 18 19  2  0
 19 20  1  0
 20 21  2  0
 21 22  1  0
 22 23  2  0
 22 24  1  0
 24 25  1  0
 25 26  1  0
 26 27  2  0
 27 28  1  0
 28 29  1  0
 21 30  1  0
 30 31  2  0
  6 32  1  0
 32 33  2  0
 33  3  1  0
 14  9  1  0
 31 18  1  0
 29 25  2  0
  4 34  1  0
  5 35  1  0
  8 36  1  0
  8 37  1  0
 10 38  1  0
 11 39  1  0
 12 40  1  0
 13 41  1  0
 14 42  1  0
 19 43  1  0
 20 44  1  0
 26 45  1  0
 29 46  1  0
 30 47  1  0
 31 48  1  0
 32 49  1  0
 33 50  1  0
M  CHG  2  24  -1  28  -1
M  END
>  <UniqueID>  (22) 
22

>  <SMILES>  (22) 
N#Cc1ccc(N(Cc2ccccc2)S(=O)(=O)c2ccc(C(=O)[N-]c3cn[n-]c3)cc2)cc1

>  <Energy>  (22) 
89.20930198822518

>  <Genealogy>  (22) 
N#Cc1ccc(N(Cc2ccccc2)S(=O)(=O)c2ccc(C(=O)[N-]c3cn[n-]c3)cc2)cc1 (protonated)
N#Cc1ccc(N(Cc2ccccc2)S(=O)(=O)c2ccc(C(=O)[N-]c3cn[n-]c3)cc2)cc1 (3D coordinates assigned)
N#Cc1ccc(N(Cc2ccccc2)S(=O)(=O)c2ccc(C(=O)[N-]c3cn[n-]c3)cc2)cc1 (optimized conformer: 89.20930198822518 kcal/mol)

>  <smiles>  (22) 
N#Cc1ccc(N(Cc2ccccc2)S(=O)(=O)c2ccc(C(=O)Nc3cn[nH]c3)cc2)cc1

>  <score_type>  (22) 
oracle

>  <origin>  (22) 
adgpu

>  <m_score__min__energy>  (22) 
-12.210000000000001

>  <m_primary>  (22) 
energy

$$$$
22:0
     RDKit          3D

 58 60  0  0  1  0  0  0  0  0999 V2000
   -0.8640   26.7170  -23.3550 C   0  0  0  0  0  0  0  0  0  0  0  0
   -0.0540   27.3200  -24.4780 C   0  0  0  0  0  0  0  0  0  0  0  0
    0.1330   26.3350  -25.5570 C   0  0  0  0  0  0  0  0  0  0  0  0
   -0.6480   26.3910  -26.6830 C   0  0  0  0  0  0  0  0  0  0  0  0
   -0.4920   25.4710  -27.7200 C   0  0  0  0  0  0  0  0  0  0  0  0
   -1.3610   25.6370  -28.8300 N   0  0  0  0  0  0  0  0  0  0  0  0
   -2.2690   24.7230  -29.0500 C   0  0  0  0  0  0  0  0  0  0  0  0
   -2.3630   23.6570  -28.2330 N   0  0  0  0  0  0  0  0  0  0  0  0
   -3.2810   22.6800  -28.4090 C   0  0  0  0  0  0  0  0  0  0  0  0
   -4.1540   22.7920  -29.4790 C   0  0  0  0  0  0  0  0  0  0  0  0
   -4.0380   23.8890  -30.2990 C   0  0  0  0  0  0  0  0  0  0  0  0
   -4.8420   24.0130  -31.3040 N   0  0  0  0  0  0  0  0  0  0  0  0
   -5.8330   23.0250  -31.5570 C   0  0  0  0  0  0  0  0  0  0  0  0
   -7.1310   23.3570  -31.1630 C   0  0  0  0  0  0  0  0  0  0  0  0
   -7.3970   24.6320  -30.5430 N   0  0  0  0  0  0  0  0  0  0  0  0
   -8.1490   22.4500  -31.3750 C   0  0  0  0  0  0  0  0  0  0  0  0
   -7.8310   21.2450  -31.9740 C   0  0  0  0  0  0  0  0  0  0  0  0
   -6.5710   20.8930  -32.3680 C   0  0  0  0  0  0  0  0  0  0  0  0
   -6.1460   19.3890  -33.1230 S   0  0  0  0  0  0  0  0  0  0  0  0
   -5.7840   19.6010  -34.5600 O   0  0  0  0  0  0  0  0  0  0  0  0
   -4.9810   18.8200  -32.3430 O   0  0  0  0  0  0  0  0  0  0  0  0
   -7.4950   18.2270  -32.9750 C   0  0  0  0  0  0  0  0  0  0  0  0
   -8.0410   18.2030  -31.5720 C   0  0  0  0  0  0  0  0  0  0  0  0
   -6.9430   16.8390  -33.3060 C   0  0  0  0  0  0  0  0  0  0  0  0
   -5.5530   21.8130  -32.1510 C   0  0  0  0  0  0  0  0  0  0  0  0
   -4.2540   21.5120  -32.5310 O   0  0  0  0  0  0  0  0  0  0  0  0
   -3.1030   24.8580  -30.0960 N   0  0  0  0  0  0  0  0  0  0  0  0
    0.4590   24.4760  -27.6380 C   0  0  0  0  0  0  0  0  0  0  0  0
    1.2490   24.4170  -26.5020 C   0  0  0  0  0  0  0  0  0  0  0  0
    1.0840   25.3410  -25.4720 C   0  0  0  0  0  0  0  0  0  0  0  0
    1.9170   25.2980  -24.2490 C   0  0  0  0  0  0  0  0  0  0  0  0
   -0.4421   27.0311  -22.3889 H   0  0  0  0  0  0  0  0  0  0  0  0
   -1.9063   27.0608  -23.4291 H   0  0  0  0  0  0  0  0  0  0  0  0
   -0.8336   25.6199  -23.4291 H   0  0  0  0  0  0  0  0  0  0  0  0
   -0.5827   28.1987  -24.8760 H   0  0  0  0  0  0  0  0  0  0  0  0
    0.9311   27.6180  -24.0897 H   0  0  0  0  0  0  0  0  0  0  0  0
   -1.4126   27.1770  -26.7702 H   0  0  0  0  0  0  0  0  0  0  0  0
   -1.7230   23.5190  -27.4010 H   0  0  0  0  0  0  0  0  0  0  0  0
   -3.3332   21.8217  -27.7230 H   0  0  0  0  0  0  0  0  0  0  0  0
   -4.9189   22.0242  -29.6671 H   0  0  0  0  0  0  0  0  0  0  0  0
   -6.5660   25.1000  -30.1210 H   0  0  0  0  0  0  0  0  0  0  0  0
   -8.3630   25.0270  -30.5370 H   0  0  0  0  0  0  0  0  0  0  0  0
   -9.1827   22.6787  -31.0764 H   0  0  0  0  0  0  0  0  0  0  0  0
   -8.6441   20.5240  -32.1441 H   0  0  0  0  0  0  0  0  0  0  0  0
   -8.3067   18.5209  -33.6567 H   0  0  0  0  0  0  0  0  0  0  0  0
   -7.2085   18.2396  -30.8539 H   0  0  0  0  0  0  0  0  0  0  0  0
   -8.6961   19.0732  -31.4186 H   0  0  0  0  0  0  0  0  0  0  0  0
   -8.6172   17.2787  -31.4186 H   0  0  0  0  0  0  0  0  0  0  0  0
   -6.7278   16.2979  -32.3728 H   0  0  0  0  0  0  0  0  0  0  0  0
   -7.6867   16.2787  -33.8916 H   0  0  0  0  0  0  0  0  0  0  0  0
   -6.0176   16.9425  -33.8916 H   0  0  0  0  0  0  0  0  0  0  0  0
   -4.0610   20.6690  -33.0470 H   0  0  0  0  0  0  0  0  0  0  0  0
   -3.0500   25.6690  -30.7390 H   0  0  0  0  0  0  0  0  0  0  0  0
    0.5868   23.7485  -28.4531 H   0  0  0  0  0  0  0  0  0  0  0  0
    2.0148   23.6325  -26.4118 H   0  0  0  0  0  0  0  0  0  0  0  0
    1.2677   25.3315  -23.3617 H   0  0  0  0  0  0  0  0  0  0  0  0
    2.5049   24.3683  -24.2383 H   0  0  0  0  0  0  0  0  0  0  0  0
    2.5975   26.1622  -24.2383 H   0  0  0  0  0  0  0  0  0  0  0  0
  1  2  1  0
  2  3  1  0
  3  4  2  0
  4  5  1  0
  5  6  1  0
  6  7  2  0
  7  8  1  0
  8  9  1  0
  9 10  2  0
 10 11  1  0
 11 12  2  0
 12 13  1  0
 13 14  2  0
 14 15  1  0
 14 16  1  0
 16 17  2  0
 17 18  1  0
 18 19  1  0
 19 20  2  0
 19 21  2  0
 19 22  1  0
 22 23  1  0
 22 24  1  0
 18 25  2  0
 25 26  1  0
 11 27  1  0
  5 28  2  0
 28 29  1  0
 29 30  2  0
 30 31  1  0
 30  3  1  0
 27  7  1  0
 25 13  1  0
  1 32  1  0
  1 33  1  0
  1 34  1  0
  2 35  1  0
  2 36  1  0
  4 37  1  0
  8 38  1  0
  9 39  1  0
 10 40  1  0
 15 41  1  0
 15 42  1  0
 16 43  1  0
 17 44  1  0
 22 45  1  0
 23 46  1  0
 23 47  1  0
 23 48  1  0
 24 49  1  0
 24 50  1  0
 24 51  1  0
 26 52  1  0
 27 53  1  0
 28 54  1  0
 29 55  1  0
 31 56  1  0
 31 57  1  0
 31 58  1  0
M  END
>  <smiles>  (23) 
CCc1cc(N=c2[nH]ccc(=Nc3c(N)ccc(S(=O)(=O)C(C)C)c3O)[nH]2)ccc1C

>  <score_type>  (23) 
oracle

>  <origin>  (23) 
adgpu

>  <m_score__min__energy>  (23) 
-9.4900000000000002

>  <m_primary>  (23) 
energy

$$$$
23:0
     RDKit          3D

 18 17  0  0  0  0  0  0  0  0999 V2000
   -6.8530   25.5260  -29.3400 C   0  0  0  0  0  0  0  0  0  0  0  0
   -5.8470   25.6760  -30.4790 C   0  0  0  0  0  0  0  0  0  0  0  0
   -5.3440   24.3290  -31.0270 C   0  0  0  0  0  0  0  0  0  0  0  0
   -4.1050   23.7910  -30.2890 C   0  0  0  0  0  0  0  0  0  0  0  0
   -3.1430   24.8550  -29.9900 N   0  0  0  0  0  0  0  0  0  0  0  0
   -2.2800   24.7970  -28.8470 C   0  0  0  0  0  0  0  0  0  0  0  0
   -1.2340   26.0200  -28.5570 S   0  0  0  0  0  0  0  0  0  0  0  0
   -2.3160   23.3970  -27.7060 S   0  0  0  0  0  0  0  0  0  0  0  0
   -6.3295   25.6041  -28.3757 H   0  0  0  0  0  0  0  0  0  0  0  0
   -7.6096   26.3213  -29.4119 H   0  0  0  0  0  0  0  0  0  0  0  0
   -7.3446   24.5446  -29.4119 H   0  0  0  0  0  0  0  0  0  0  0  0
   -6.3279   26.2291  -31.2992 H   0  0  0  0  0  0  0  0  0  0  0  0
   -4.9743   26.2102  -30.0752 H   0  0  0  0  0  0  0  0  0  0  0  0
   -6.1536   23.5904  -30.9327 H   0  0  0  0  0  0  0  0  0  0  0  0
   -5.0508   24.4945  -32.0742 H   0  0  0  0  0  0  0  0  0  0  0  0
   -4.4269   23.3269  -29.3451 H   0  0  0  0  0  0  0  0  0  0  0  0
   -3.6103   23.0576  -30.9427 H   0  0  0  0  0  0  0  0  0  0  0  0
   -3.0600   25.6760  -30.6310 H   0  0  0  0  0  0  0  0  0  0  0  0
  1  2  1  0
  2  3  1  0
  3  4  1  0
  4  5  1  0
  5  6  1  0
  6  7  2  0
  6  8  1  0
  1  9  1  0
  1 10  1  0
  1 11  1  0
  2 12  1  0
  2 13  1  0
  3 14  1  0
  3 15  1  0
  4 16  1  0
  4 17  1  0
  5 18  1  0
M  CHG  1   8  -1
M  END
>  <UniqueID>  (24) 
23

>  <SMILES>  (24) 
CCCCNC(=S)[S-]

>  <Energy>  (24) 
6.716305044010916

>  <Genealogy>  (24) 
CCCCNC(=S)[S-] (protonated)
CCCCNC(=S)[S-] (3D coordinates assigned)
CCCCNC(=S)[S-] (optimized conformer: 6.716305044010916 kcal/mol)

>  <smiles>  (24) 
CCCCNC(=S)S

>  <score_type>  (24) 
oracle

>  <origin>  (24) 
adgpu

>  <m_score__min__energy>  (24) 
-5.0599999999999996

>  <m_primary>  (24) 
energy

$$$$
24:0
     RDKit          3D

 52 55  0  0  0  0  0  0  0  0999 V2000
   -5.7630   26.2080  -31.2180 O   0  0  0  0  0  0  0  0  0  0  0  0
   -5.3400   25.0440  -30.3620 S   0  0  0  0  0  0  0  0  0  0  0  0
   -5.7140   25.3330  -28.9330 O   0  0  0  0  0  0  0  0  0  0  0  0
   -3.6210   24.8390  -30.4800 N   0  0  0  0  0  0  0  0  0  0  0  0
   -2.8140   24.0550  -29.5860 C   0  0  0  0  0  0  0  0  0  0  0  0
   -2.9490   22.6570  -29.4880 C   0  0  0  0  0  0  0  0  0  0  0  0
   -2.1000   21.9090  -28.6530 C   0  0  0  0  0  0  0  0  0  0  0  0
   -1.1040   22.5660  -27.9030 C   0  0  0  0  0  0  0  0  0  0  0  0
   -0.9700   23.9630  -27.9960 C   0  0  0  0  0  0  0  0  0  0  0  0
   -1.8060   24.7010  -28.8420 C   0  0  0  0  0  0  0  0  0  0  0  0
   -1.6140   26.0750  -28.9650 O   0  0  0  0  0  0  0  0  0  0  0  0
   -0.1960   21.7880  -26.9880 C   0  0  0  0  0  0  0  0  0  0  0  0
    0.0620   20.3970  -27.5620 C   0  0  0  0  0  0  0  0  0  0  0  0
   -1.2580   19.6420  -27.7260 C   0  0  0  0  0  0  0  0  0  0  0  0
   -2.2960   20.4060  -28.5870 C   0  0  0  0  0  0  0  0  0  0  0  0
   -6.1440   23.5860  -30.9360 C   0  0  0  0  0  0  0  0  0  0  0  0
   -7.5430   23.4790  -30.9030 C   0  0  0  0  0  0  0  0  0  0  0  0
   -8.1630   22.2990  -31.3160 C   0  0  0  0  0  0  0  0  0  0  0  0
   -7.3970   21.2220  -31.7770 C   0  0  0  0  0  0  0  0  0  0  0  0
   -8.0410   20.0560  -32.1730 O   0  0  0  0  0  0  0  0  0  0  0  0
   -5.9930   21.3320  -31.8410 C   0  0  0  0  0  0  0  0  0  0  0  0
   -4.9980   20.0190  -32.4940 S   0  0  0  0  0  0  0  0  0  0  0  0
   -5.3770   18.7260  -31.8250 O   0  0  0  0  0  0  0  0  0  0  0  0
   -5.2700   19.8730  -33.9650 O   0  0  0  0  0  0  0  0  0  0  0  0
   -3.2900   20.3090  -32.2410 N   0  0  0  0  0  0  0  0  0  0  0  0
   -2.8300   21.4520  -33.0550 C   0  0  0  0  0  0  0  0  0  0  0  0
   -1.2880   21.5380  -33.0650 C   0  0  0  0  0  0  0  0  0  0  0  0
   -0.7300   20.7320  -32.0470 O   0  0  0  0  0  0  0  0  0  0  0  0
   -1.0100   19.3640  -32.3090 C   0  0  0  0  0  0  0  0  0  0  0  0
   -2.5100   19.1060  -32.5670 C   0  0  0  0  0  0  0  0  0  0  0  0
   -5.3760   22.5140  -31.4070 C   0  0  0  0  0  0  0  0  0  0  0  0
   -3.7277   22.1439  -30.0714 H   0  0  0  0  0  0  0  0  0  0  0  0
   -0.2030   24.4791  -27.3999 H   0  0  0  0  0  0  0  0  0  0  0  0
    0.7602   22.3218  -26.8846 H   0  0  0  0  0  0  0  0  0  0  0  0
   -0.6773   21.6874  -26.0040 H   0  0  0  0  0  0  0  0  0  0  0  0
    0.5502   20.4932  -28.5430 H   0  0  0  0  0  0  0  0  0  0  0  0
    0.7125   19.8385  -26.8729 H   0  0  0  0  0  0  0  0  0  0  0  0
   -1.0499   18.6745  -28.2062 H   0  0  0  0  0  0  0  0  0  0  0  0
   -1.6918   19.5207  -26.7225 H   0  0  0  0  0  0  0  0  0  0  0  0
   -2.2445   20.0108  -29.6123 H   0  0  0  0  0  0  0  0  0  0  0  0
   -3.2707   20.2464  -28.1028 H   0  0  0  0  0  0  0  0  0  0  0  0
   -8.1510   24.3256  -30.5514 H   0  0  0  0  0  0  0  0  0  0  0  0
   -9.2592   22.2148  -31.2791 H   0  0  0  0  0  0  0  0  0  0  0  0
   -3.1902   21.3271  -34.0868 H   0  0  0  0  0  0  0  0  0  0  0  0
   -3.2303   22.3783  -32.6171 H   0  0  0  0  0  0  0  0  0  0  0  0
   -0.9147   21.1946  -34.0411 H   0  0  0  0  0  0  0  0  0  0  0  0
   -0.9937   22.5827  -32.8862 H   0  0  0  0  0  0  0  0  0  0  0  0
   -0.4406   19.0512  -33.1966 H   0  0  0  0  0  0  0  0  0  0  0  0
   -0.7202   18.7872  -31.4183 H   0  0  0  0  0  0  0  0  0  0  0  0
   -2.6589   18.8513  -33.6267 H   0  0  0  0  0  0  0  0  0  0  0  0
   -2.8478   18.2734  -31.9324 H   0  0  0  0  0  0  0  0  0  0  0  0
   -4.2798   22.5999  -31.4368 H   0  0  0  0  0  0  0  0  0  0  0  0
  1  2  2  0
  2  3  2  0
  2  4  1  0
  4  5  1  0
  5  6  2  0
  6  7  1  0
  7  8  2  0
  8  9  1  0
  9 10  2  0
 10 11  1  0
  8 12  1  0
 12 13  1  0
 13 14  1  0
 14 15  1  0
  2 16  1  0
 16 17  2  0
 17 18  1  0
 18 19  2  0
 19 20  1  0
 19 21  1  0
 21 22  1  0
 22 23  2  0
 22 24  2  0
 22 25  1  0
 25 26  1  0
 26 27  1  0
 27 28  1  0
 28 29  1  0
 29 30  1  0
 21 31  2  0
 10  5  1  0
 31 16  1  0
 15  7  1  0
 30 25  1  0
  6 32  1  0
  9 33  1  0
 12 34  1  0
 12 35  1  0
 13 36  1  0
 13 37  1  0
 14 38  1  0
 14 39  1  0
 15 40  1  0
 15 41  1  0
 17 42  1  0
 18 43  1  0
 26 44  1  0
 26 45  1  0
 27 46  1  0
 27 47  1  0
 29 48  1  0
 29 49  1  0
 30 50  1  0
 30 51  1  0
 31 52  1  0
M  CHG  3   4  -1  11  -1  20  -1
M  END
>  <UniqueID>  (25) 
24

>  <SMILES>  (25) 
O=S(=O)([N-]c1cc2c(cc1[O-])CCCC2)c1ccc([O-])c(S(=O)(=O)N2CCOCC2)c1

>  <Energy>  (25) 
67.73119976658336

>  <Genealogy>  (25) 
O=S(=O)([N-]c1cc2c(cc1[O-])CCCC2)c1ccc([O-])c(S(=O)(=O)N2CCOCC2)c1 (protonated)
O=S(=O)([N-]c1cc2c(cc1[O-])CCCC2)c1ccc([O-])c(S(=O)(=O)N2CCOCC2)c1 (3D coordinates assigned)
O=S(=O)([N-]c1cc2c(cc1[O-])CCCC2)c1ccc([O-])c(S(=O)(=O)N2CCOCC2)c1 (nonaromatic ring conformer: 67.73119976658336 kcal/mol)

>  <smiles>  (25) 
O=S(=O)(Nc1cc2c(cc1O)CCCC2)c1ccc(O)c(S(=O)(=O)N2CCOCC2)c1

>  <score_type>  (25) 
oracle

>  <origin>  (25) 
adgpu

>  <m_score__min__energy>  (25) 
-14.57

>  <m_primary>  (25) 
energy

$$$$
25:0
     RDKit          3D

 46 48  0  0  0  0  0  0  0  0999 V2000
   -9.4830   19.8680  -32.4500 C   0  0  0  0  0  0  0  0  0  0  0  0
   -8.5830   18.6320  -31.4640 S   0  0  0  0  0  0  0  0  0  0  0  0
   -7.2680   18.4410  -32.6780 C   0  0  0  0  0  0  0  0  0  0  0  0
   -7.1330   17.2160  -33.3440 C   0  0  0  0  0  0  0  0  0  0  0  0
   -6.1200   17.0350  -34.2870 C   0  0  0  0  0  0  0  0  0  0  0  0
   -5.2400   18.0790  -34.5770 C   0  0  0  0  0  0  0  0  0  0  0  0
   -5.3660   19.3060  -33.9190 C   0  0  0  0  0  0  0  0  0  0  0  0
   -6.3720   19.4950  -32.9560 C   0  0  0  0  0  0  0  0  0  0  0  0
   -6.5140   20.7570  -32.2860 N   0  0  0  0  0  0  0  0  0  0  0  0
   -5.4340   21.6980  -32.1420 C   0  0  0  0  0  0  0  0  0  0  0  0
   -4.3800   21.5590  -32.8190 O   0  0  0  0  0  0  0  0  0  0  0  0
   -5.5400   22.8300  -31.1960 C   0  0  0  0  0  0  0  0  0  0  0  0
   -6.5230   23.8170  -31.3830 C   0  0  0  0  0  0  0  0  0  0  0  0
   -6.6300   24.8850  -30.4880 C   0  0  0  0  0  0  0  0  0  0  0  0
   -5.7540   24.9870  -29.4070 C   0  0  0  0  0  0  0  0  0  0  0  0
   -4.7510   24.0260  -29.2210 C   0  0  0  0  0  0  0  0  0  0  0  0
   -3.6480   24.1520  -27.8530 S   0  0  0  0  0  0  0  0  0  0  0  0
   -3.2910   22.7680  -27.3860 O   0  0  0  0  0  0  0  0  0  0  0  0
   -4.3230   24.8780  -26.7220 O   0  0  0  0  0  0  0  0  0  0  0  0
   -2.1970   25.0010  -28.3300 N   0  0  0  0  0  0  0  0  0  0  0  0
   -1.4820   25.4880  -27.1350 C   0  0  0  0  0  0  0  0  0  0  0  0
   -0.0070   25.7710  -27.4630 C   0  0  0  0  0  0  0  0  0  0  0  0
    0.7130   24.6370  -27.9320 O   0  0  0  0  0  0  0  0  0  0  0  0
   -0.1140   23.6140  -28.4680 C   0  0  0  0  0  0  0  0  0  0  0  0
   -1.3500   24.1590  -29.2050 C   0  0  0  0  0  0  0  0  0  0  0  0
   -4.6470   22.9510  -30.1150 C   0  0  0  0  0  0  0  0  0  0  0  0
   -9.9952   20.5715  -31.7771 H   0  0  0  0  0  0  0  0  0  0  0  0
   -8.7729   20.4186  -33.0845 H   0  0  0  0  0  0  0  0  0  0  0  0
  -10.2250   19.3612  -33.0845 H   0  0  0  0  0  0  0  0  0  0  0  0
   -7.8285   16.3930  -33.1228 H   0  0  0  0  0  0  0  0  0  0  0  0
   -6.0150   16.0687  -34.8021 H   0  0  0  0  0  0  0  0  0  0  0  0
   -4.4459   17.9360  -35.3247 H   0  0  0  0  0  0  0  0  0  0  0  0
   -4.6742   20.1277  -34.1562 H   0  0  0  0  0  0  0  0  0  0  0  0
   -7.4140   20.9460  -31.7930 H   0  0  0  0  0  0  0  0  0  0  0  0
   -7.2116   23.7485  -32.2381 H   0  0  0  0  0  0  0  0  0  0  0  0
   -7.4081   25.6483  -30.6365 H   0  0  0  0  0  0  0  0  0  0  0  0
   -5.8507   25.8234  -28.6992 H   0  0  0  0  0  0  0  0  0  0  0  0
   -1.9578   26.4148  -26.7821 H   0  0  0  0  0  0  0  0  0  0  0  0
   -1.5289   24.7142  -26.3546 H   0  0  0  0  0  0  0  0  0  0  0  0
    0.0308   26.5492  -28.2395 H   0  0  0  0  0  0  0  0  0  0  0  0
    0.4719   26.0837  -26.5234 H   0  0  0  0  0  0  0  0  0  0  0  0
    0.4809   23.0183  -29.1759 H   0  0  0  0  0  0  0  0  0  0  0  0
   -0.4766   23.0100  -27.6232 H   0  0  0  0  0  0  0  0  0  0  0  0
   -1.0143   24.7632  -30.0608 H   0  0  0  0  0  0  0  0  0  0  0  0
   -1.9533   23.2998  -29.5335 H   0  0  0  0  0  0  0  0  0  0  0  0
   -3.8606   22.1956  -29.9702 H   0  0  0  0  0  0  0  0  0  0  0  0
  1  2  1  0
  2  3  1  0
  3  4  2  0
  4  5  1  0
  5  6  2  0
  6  7  1  0
  7  8  2  0
  8  9  1  0
  9 10  1  0
 10 11  2  0
 10 12  1  0
 12 13  2  0
 13 14  1  0
 14 15  2  0
 15 16  1  0
 16 17  1  0
 17 18  2  0
 17 19  2  0
 17 20  1  0
 20 21  1  0
 21 22  1  0
 22 23  1  0
 23 24  1  0
 24 25  1  0
 16 26  2  0
  8  3  1  0
 26 12  1  0
 25 20  1  0
  1 27  1  0
  1 28  1  0
  1 29  1  0
  4 30  1  0
  5 31  1  0
  6 32  1  0
  7 33  1  0
  9 34  1  0
 13 35  1  0
 14 36  1  0
 15 37  1  0
 21 38  1  0
 21 39  1  0
 22 40  1  0
 22 41  1  0
 24 42  1  0
 24 43  1  0
 25 44  1  0
 25 45  1  0
 26 46  1  0
M  END
>  <UniqueID>  (26) 
25

>  <SMILES>  (26) 
CSc1ccccc1NC(=O)c1cccc(S(=O)(=O)N2CCOCC2)c1

>  <Energy>  (26) 
62.184006380811006

>  <Genealogy>  (26) 
CSc1ccccc1NC(=O)c1cccc(S(=O)(=O)N2CCOCC2)c1 (3D coordinates assigned)
CSc1ccccc1NC(=O)c1cccc(S(=O)(=O)N2CCOCC2)c1 (nonaromatic ring conformer: 62.184006380811006 kcal/mol)

>  <smiles>  (26) 
CSc1ccccc1NC(=O)c1cccc(S(=O)(=O)N2CCOCC2)c1

>  <score_type>  (26) 
oracle

>  <origin>  (26) 
adgpu

>  <m_score__min__energy>  (26) 
-9.2300000000000004

>  <m_primary>  (26) 
energy

$$$$
26:0
     RDKit          3D

 54 57  0  0  0  0  0  0  0  0999 V2000
   -0.0500   22.2680  -34.9670 N   0  0  0  0  0  0  0  0  0  0  0  0
   -0.1440   20.9140  -33.8980 S   0  0  0  0  0  0  0  0  0  0  0  0
    0.4310   21.2900  -32.5620 O   0  0  0  0  0  0  0  0  0  0  0  0
    0.6550   19.7720  -34.4630 O   0  0  0  0  0  0  0  0  0  0  0  0
   -1.8260   20.4290  -33.7080 C   0  0  0  0  0  0  0  0  0  0  0  0
   -2.1940   19.0870  -33.8670 C   0  0  0  0  0  0  0  0  0  0  0  0
   -3.5270   18.7000  -33.7070 C   0  0  0  0  0  0  0  0  0  0  0  0
   -4.5080   19.6530  -33.3850 C   0  0  0  0  0  0  0  0  0  0  0  0
   -5.9370   19.2250  -33.1880 C   0  0  0  0  0  0  0  0  0  0  0  0
   -6.8970   20.4070  -33.3740 C   0  0  0  0  0  0  0  0  0  0  0  0
   -8.0060   20.3400  -32.4260 N   0  0  0  0  0  0  0  0  0  0  0  0
   -8.2850   21.4080  -31.5160 C   0  0  0  0  0  0  0  0  0  0  0  0
   -9.4030   21.4530  -30.9370 O   0  0  0  0  0  0  0  0  0  0  0  0
   -7.2520   22.4140  -31.2150 C   0  0  0  0  0  0  0  0  0  0  0  0
   -6.8080   23.2960  -32.2130 C   0  0  0  0  0  0  0  0  0  0  0  0
   -5.7300   24.1520  -31.9700 C   0  0  0  0  0  0  0  0  0  0  0  0
   -5.0570   24.1000  -30.7460 C   0  0  0  0  0  0  0  0  0  0  0  0
   -3.8690   24.8750  -30.5620 N   0  0  0  0  0  0  0  0  0  0  0  0
   -2.8680   24.5530  -29.5890 C   0  0  0  0  0  0  0  0  0  0  0  0
   -2.3730   25.4790  -28.8940 O   0  0  0  0  0  0  0  0  0  0  0  0
   -2.3900   23.2040  -29.4300 N   0  0  0  0  0  0  0  0  0  0  0  0
   -1.5900   22.7680  -28.2830 C   0  0  0  0  0  0  0  0  0  0  0  0
   -1.1200   21.4220  -28.6920 C   0  0  0  0  0  0  0  0  0  0  0  0
   -0.3220   20.5330  -27.9680 C   0  0  0  0  0  0  0  0  0  0  0  0
    0.0170   19.3040  -28.5570 C   0  0  0  0  0  0  0  0  0  0  0  0
   -0.4370   18.9880  -29.8520 C   0  0  0  0  0  0  0  0  0  0  0  0
   -1.2350   19.8990  -30.5630 C   0  0  0  0  0  0  0  0  0  0  0  0
   -1.5670   21.1100  -29.9550 C   0  0  0  0  0  0  0  0  0  0  0  0
   -2.4040   22.2020  -30.5020 C   0  0  0  0  0  0  0  0  0  0  0  0
   -5.5240   23.2510  -29.7310 C   0  0  0  0  0  0  0  0  0  0  0  0
   -6.6250   22.4220  -29.9580 C   0  0  0  0  0  0  0  0  0  0  0  0
   -4.1410   21.0020  -33.2570 C   0  0  0  0  0  0  0  0  0  0  0  0
   -2.8070   21.3860  -33.4160 C   0  0  0  0  0  0  0  0  0  0  0  0
   -1.0070   22.6850  -35.0140 H   0  0  0  0  0  0  0  0  0  0  0  0
   -1.4313   18.3354  -34.1186 H   0  0  0  0  0  0  0  0  0  0  0  0
   -3.8097   17.6445  -33.8337 H   0  0  0  0  0  0  0  0  0  0  0  0
   -6.1826   18.4435  -33.9221 H   0  0  0  0  0  0  0  0  0  0  0  0
   -6.0491   18.8411  -32.1633 H   0  0  0  0  0  0  0  0  0  0  0  0
   -6.3456   21.3456  -33.2157 H   0  0  0  0  0  0  0  0  0  0  0  0
   -7.3072   20.3659  -34.3938 H   0  0  0  0  0  0  0  0  0  0  0  0
   -7.3110   23.3135  -33.1911 H   0  0  0  0  0  0  0  0  0  0  0  0
   -5.4111   24.8671  -32.7426 H   0  0  0  0  0  0  0  0  0  0  0  0
   -0.7418   23.4473  -28.1122 H   0  0  0  0  0  0  0  0  0  0  0  0
   -2.1557   22.7600  -27.3396 H   0  0  0  0  0  0  0  0  0  0  0  0
    0.0330   20.7899  -26.9590 H   0  0  0  0  0  0  0  0  0  0  0  0
    0.6398   18.5852  -28.0044 H   0  0  0  0  0  0  0  0  0  0  0  0
   -0.1657   18.0245  -30.3081 H   0  0  0  0  0  0  0  0  0  0  0  0
   -1.5904   19.6630  -31.5769 H   0  0  0  0  0  0  0  0  0  0  0  0
   -1.9681   22.6077  -31.4269 H   0  0  0  0  0  0  0  0  0  0  0  0
   -3.4184   21.8739  -30.7727 H   0  0  0  0  0  0  0  0  0  0  0  0
   -5.0211   23.2383  -28.7528 H   0  0  0  0  0  0  0  0  0  0  0  0
   -7.0013   21.7750  -29.1519 H   0  0  0  0  0  0  0  0  0  0  0  0
   -4.9062   21.7592  -33.0308 H   0  0  0  0  0  0  0  0  0  0  0  0
   -2.5256   22.4443  -33.3115 H   0  0  0  0  0  0  0  0  0  0  0  0
  1  2  1  0
  2  3  2  0
  2  4  2  0
  2  5  1  0
  5  6  2  0
  6  7  1  0
  7  8  2  0
  8  9  1  0
  9 10  1  0
 10 11  1  0
 11 12  1  0
 12 13  2  0
 12 14  1  0
 14 15  2  0
 15 16  1  0
 16 17  2  0
 17 18  1  0
 18 19  1  0
 19 20  2  0
 19 21  1  0
 21 22  1  0
 22 23  1  0
 23 24  2  0
 24 25  1  0
 25 26  2  0
 26 27  1  0
 27 28  2  0
 28 29  1  0
 17 30  1  0
 30 31  2  0
  8 32  1  0
 32 33  2  0
 33  5  1  0
 31 14  1  0
 29 21  1  0
 28 23  1  0
  1 34  1  0
  6 35  1  0
  7 36  1  0
  9 37  1  0
  9 38  1  0
 10 39  1  0
 10 40  1  0
 15 41  1  0
 16 42  1  0
 22 43  1  0
 22 44  1  0
 24 45  1  0
 25 46  1  0
 26 47  1  0
 27 48  1  0
 29 49  1  0
 29 50  1  0
 30 51  1  0
 31 52  1  0
 32 53  1  0
 33 54  1  0
M  CHG  3   1  -1  11  -1  18  -1
M  END
>  <UniqueID>  (27) 
26

>  <SMILES>  (27) 
[NH-]S(=O)(=O)c1ccc(CC[N-]C(=O)c2ccc([N-]C(=O)N3Cc4ccccc4C3)cc2)cc1

>  <Energy>  (27) 
76.78514735736559

>  <Genealogy>  (27) 
[NH-]S(=O)(=O)c1ccc(CC[N-]C(=O)c2ccc([N-]C(=O)N3Cc4ccccc4C3)cc2)cc1 (protonated)
[NH-]S(=O)(=O)c1ccc(CC[N-]C(=O)c2ccc([N-]C(=O)N3Cc4ccccc4C3)cc2)cc1 (3D coordinates assigned)
[NH-]S(=O)(=O)c1ccc(CC[N-]C(=O)c2ccc([N-]C(=O)N3Cc4ccccc4C3)cc2)cc1 (nonaromatic ring conformer: 76.78514735736559 kcal/mol)

>  <smiles>  (27) 
NS(=O)(=O)c1ccc(CCNC(=O)c2ccc(NC(=O)N3Cc4ccccc4C3)cc2)cc1

>  <score_type>  (27) 
oracle

>  <origin>  (27) 
adgpu

>  <m_score__min__energy>  (27) 
-12.99

>  <m_primary>  (27) 
energy

$$$$
27:0
     RDKit          3D

 50 52  0  0  0  0  0  0  0  0999 V2000
   -9.0350   20.8980  -32.1410 C   0  0  0  0  0  0  0  0  0  0  0  0
   -7.8340   21.7240  -31.7630 C   0  0  0  0  0  0  0  0  0  0  0  0
   -7.9810   23.1140  -31.6250 C   0  0  0  0  0  0  0  0  0  0  0  0
   -6.8950   23.9150  -31.2700 C   0  0  0  0  0  0  0  0  0  0  0  0
   -5.6360   23.3440  -31.0480 C   0  0  0  0  0  0  0  0  0  0  0  0
   -4.4890   24.1980  -30.6730 C   0  0  0  0  0  0  0  0  0  0  0  0
   -4.5430   25.4340  -30.9160 O   0  0  0  0  0  0  0  0  0  0  0  0
   -3.3180   23.6480  -30.0350 N   0  0  0  0  0  0  0  0  0  0  0  0
   -2.7340   22.3830  -30.5030 C   0  0  0  0  0  0  0  0  0  0  0  0
   -3.0850   21.2180  -29.5660 C   0  0  0  0  0  0  0  0  0  0  0  0
   -3.4210   21.6220  -28.1150 C   0  0  0  0  0  0  0  0  0  0  0  0
   -2.3740   22.5370  -27.4480 C   0  0  0  0  0  0  0  0  0  0  0  0
   -2.6720   24.0330  -27.6690 C   0  0  0  0  0  0  0  0  0  0  0  0
   -2.5190   24.4810  -29.1290 C   0  0  0  0  0  0  0  0  0  0  0  0
   -5.4880   21.9540  -31.1450 C   0  0  0  0  0  0  0  0  0  0  0  0
   -6.5720   21.1320  -31.5000 C   0  0  0  0  0  0  0  0  0  0  0  0
   -6.3300   19.6490  -31.6380 C   0  0  0  0  0  0  0  0  0  0  0  0
   -5.8140   19.2510  -33.3010 S   0  0  0  0  0  0  0  0  0  0  0  0
   -6.6140   20.0560  -34.2870 O   0  0  0  0  0  0  0  0  0  0  0  0
   -6.0330   17.7920  -33.5810 O   0  0  0  0  0  0  0  0  0  0  0  0
   -4.1040   19.6310  -33.4740 C   0  0  0  0  0  0  0  0  0  0  0  0
   -3.1640   18.6140  -33.6740 C   0  0  0  0  0  0  0  0  0  0  0  0
   -1.8130   18.9350  -33.8250 C   0  0  0  0  0  0  0  0  0  0  0  0
   -1.4190   20.2740  -33.7790 C   0  0  0  0  0  0  0  0  0  0  0  0
   -2.3470   21.2500  -33.5930 N   0  0  0  0  0  0  0  0  0  0  0  0
   -3.6680   20.9620  -33.4420 C   0  0  0  0  0  0  0  0  0  0  0  0
   -9.5419   20.5494  -31.2292 H   0  0  0  0  0  0  0  0  0  0  0  0
   -9.7291   21.5107  -32.7350 H   0  0  0  0  0  0  0  0  0  0  0  0
   -8.7112   20.0306  -32.7350 H   0  0  0  0  0  0  0  0  0  0  0  0
   -8.9638   23.5766  -31.7988 H   0  0  0  0  0  0  0  0  0  0  0  0
   -7.0288   25.0017  -31.1639 H   0  0  0  0  0  0  0  0  0  0  0  0
   -3.1210   22.1615  -31.5086 H   0  0  0  0  0  0  0  0  0  0  0  0
   -1.6397   22.4941  -30.5191 H   0  0  0  0  0  0  0  0  0  0  0  0
   -3.9576   20.6952  -29.9847 H   0  0  0  0  0  0  0  0  0  0  0  0
   -2.1837   20.5901  -29.5078 H   0  0  0  0  0  0  0  0  0  0  0  0
   -4.3858   22.1503  -28.1199 H   0  0  0  0  0  0  0  0  0  0  0  0
   -3.4434   20.6919  -27.5281 H   0  0  0  0  0  0  0  0  0  0  0  0
   -2.3663   22.3347  -26.3668 H   0  0  0  0  0  0  0  0  0  0  0  0
   -1.3984   22.3189  -27.9070 H   0  0  0  0  0  0  0  0  0  0  0  0
   -3.7059   24.2324  -27.3506 H   0  0  0  0  0  0  0  0  0  0  0  0
   -1.9360   24.5990  -27.0791 H   0  0  0  0  0  0  0  0  0  0  0  0
   -2.8508   25.5259  -29.2186 H   0  0  0  0  0  0  0  0  0  0  0  0
   -1.4607   24.3799  -29.4113 H   0  0  0  0  0  0  0  0  0  0  0  0
   -4.5079   21.4986  -30.9401 H   0  0  0  0  0  0  0  0  0  0  0  0
   -5.5436   19.3434  -30.9321 H   0  0  0  0  0  0  0  0  0  0  0  0
   -7.2657   19.1141  -31.4184 H   0  0  0  0  0  0  0  0  0  0  0  0
   -3.4884   17.5636  -33.7122 H   0  0  0  0  0  0  0  0  0  0  0  0
   -1.0671   18.1413  -33.9786 H   0  0  0  0  0  0  0  0  0  0  0  0
   -0.3576   20.5391  -33.8933 H   0  0  0  0  0  0  0  0  0  0  0  0
   -4.3943   21.7748  -33.2947 H   0  0  0  0  0  0  0  0  0  0  0  0
  1  2  1  0
  2  3  2  0
  3  4  1  0
  4  5  2  0
  5  6  1  0
  6  7  2  0
  6  8  1  0
  8  9  1  0
  9 10  1  0
 10 11  1  0
 11 12  1  0
 12 13  1  0
 13 14  1  0
  5 15  1  0
 15 16  2  0
 16 17  1  0
 17 18  1  0
 18 19  2  0
 18 20  2  0
 18 21  1  0
 21 22  2  0
 22 23  1  0
 23 24  2  0
 24 25  1  0
 25 26  2  0
 16  2  1  0
 26 21  1  0
 14  8  1  0
  1 27  1  0
  1 28  1  0
  1 29  1  0
  3 30  1  0
  4 31  1  0
  9 32  1  0
  9 33  1  0
 10 34  1  0
 10 35  1  0
 11 36  1  0
 11 37  1  0
 12 38  1  0
 12 39  1  0
 13 40  1  0
 13 41  1  0
 14 42  1  0
 14 43  1  0
 15 44  1  0
 17 45  1  0
 17 46  1  0
 22 47  1  0
 23 48  1  0
 24 49  1  0
 26 50  1  0
M  END
>  <UniqueID>  (28) 
27

>  <SMILES>  (28) 
Cc1ccc(C(=O)N2CCCCCC2)cc1CS(=O)(=O)c1cccnc1

>  <Energy>  (28) 
53.952473705321296

>  <Genealogy>  (28) 
Cc1ccc(C(=O)N2CCCCCC2)cc1CS(=O)(=O)c1cccnc1 (3D coordinates assigned)
Cc1ccc(C(=O)N2CCCCCC2)cc1CS(=O)(=O)c1cccnc1 (nonaromatic ring conformer: 53.952473705321296 kcal/mol)

>  <smiles>  (28) 
Cc1ccc(C(=O)N2CCCCCC2)cc1CS(=O)(=O)c1cccnc1

>  <score_type>  (28) 
oracle

>  <origin>  (28) 
adgpu

>  <m_score__min__energy>  (28) 
-7.3499999999999996

>  <m_primary>  (28) 
energy

$$$$
28:0
     RDKit          3D

 56 60  0  0  0  0  0  0  0  0999 V2000
   -9.0380   18.4080  -31.5960 C   0  0  0  0  0  0  0  0  0  0  0  0
   -9.3210   19.7930  -32.7420 S   0  0  0  0  0  0  0  0  0  0  0  0
   -7.6450   20.4120  -32.5880 C   0  0  0  0  0  0  0  0  0  0  0  0
   -6.5510   19.7820  -33.0840 N   0  0  0  0  0  0  0  0  0  0  0  0
   -5.4840   20.5280  -32.8050 N   0  0  0  0  0  0  0  0  0  0  0  0
   -4.1430   20.1770  -33.1860 C   0  0  0  0  0  0  0  0  0  0  0  0
   -3.1490   21.1690  -33.2530 C   0  0  0  0  0  0  0  0  0  0  0  0
   -1.8470   20.8380  -33.6450 C   0  0  0  0  0  0  0  0  0  0  0  0
   -1.5310   19.5180  -33.9860 C   0  0  0  0  0  0  0  0  0  0  0  0
   -2.5210   18.5310  -33.9460 C   0  0  0  0  0  0  0  0  0  0  0  0
   -3.8230   18.8580  -33.5520 C   0  0  0  0  0  0  0  0  0  0  0  0
   -5.8980   21.6280  -32.1430 C   0  0  0  0  0  0  0  0  0  0  0  0
   -5.1550   22.6950  -31.7550 N   0  0  0  0  0  0  0  0  0  0  0  0
   -5.7910   23.7470  -31.1450 C   0  0  0  0  0  0  0  0  0  0  0  0
   -5.0460   24.9600  -30.7470 C   0  0  0  0  0  0  0  0  0  0  0  0
   -5.6690   26.0540  -30.6920 O   0  0  0  0  0  0  0  0  0  0  0  0
   -3.6440   24.9640  -30.4420 N   0  0  0  0  0  0  0  0  0  0  0  0
   -2.7600   23.8050  -30.3720 C   0  0  0  0  0  0  0  0  0  0  0  0
   -2.2430   23.6240  -28.9700 C   0  0  0  0  0  0  0  0  0  0  0  0
   -2.2230   22.3550  -28.3700 C   0  0  0  0  0  0  0  0  0  0  0  0
   -1.7460   22.2010  -27.0660 C   0  0  0  0  0  0  0  0  0  0  0  0
   -1.2900   23.3110  -26.3480 C   0  0  0  0  0  0  0  0  0  0  0  0
   -1.3220   24.5930  -26.9250 C   0  0  0  0  0  0  0  0  0  0  0  0
   -0.8450   25.7400  -26.1930 N   0  0  0  0  0  0  0  0  0  0  0  0
   -0.5160   26.9790  -26.9090 C   0  0  0  0  0  0  0  0  0  0  0  0
   -0.3550   28.1370  -25.9210 C   0  0  0  0  0  0  0  0  0  0  0  0
   -1.2900   27.9930  -24.8720 O   0  0  0  0  0  0  0  0  0  0  0  0
   -0.8930   26.9360  -24.0110 C   0  0  0  0  0  0  0  0  0  0  0  0
   -0.5330   25.6300  -24.7600 C   0  0  0  0  0  0  0  0  0  0  0  0
   -1.8030   24.7400  -28.2370 C   0  0  0  0  0  0  0  0  0  0  0  0
   -7.1560   23.7170  -30.9770 N   0  0  0  0  0  0  0  0  0  0  0  0
   -7.9060   22.6540  -31.3880 C   0  0  0  0  0  0  0  0  0  0  0  0
   -9.1560   22.6540  -31.2340 O   0  0  0  0  0  0  0  0  0  0  0  0
   -7.2470   21.5920  -31.9900 C   0  0  0  0  0  0  0  0  0  0  0  0
   -9.1117   18.7688  -30.5595 H   0  0  0  0  0  0  0  0  0  0  0  0
   -9.7956   17.6292  -31.7679 H   0  0  0  0  0  0  0  0  0  0  0  0
   -8.0356   17.9888  -31.7679 H   0  0  0  0  0  0  0  0  0  0  0  0
   -3.3957   22.2098  -32.9962 H   0  0  0  0  0  0  0  0  0  0  0  0
   -1.0709   21.6165  -33.6852 H   0  0  0  0  0  0  0  0  0  0  0  0
   -0.5051   19.2571  -34.2851 H   0  0  0  0  0  0  0  0  0  0  0  0
   -2.2755   17.4956  -34.2248 H   0  0  0  0  0  0  0  0  0  0  0  0
   -4.5998   18.0795  -33.5285 H   0  0  0  0  0  0  0  0  0  0  0  0
   -3.3173   22.9053  -30.6719 H   0  0  0  0  0  0  0  0  0  0  0  0
   -1.9078   23.9645  -31.0490 H   0  0  0  0  0  0  0  0  0  0  0  0
   -2.5842   21.4789  -28.9286 H   0  0  0  0  0  0  0  0  0  0  0  0
   -1.7291   21.2035  -26.6026 H   0  0  0  0  0  0  0  0  0  0  0  0
   -0.9041   23.1806  -25.3262 H   0  0  0  0  0  0  0  0  0  0  0  0
    0.4250   26.8399  -27.4614 H   0  0  0  0  0  0  0  0  0  0  0  0
   -1.3319   27.2158  -27.6078 H   0  0  0  0  0  0  0  0  0  0  0  0
    0.6644   28.1276  -25.5077 H   0  0  0  0  0  0  0  0  0  0  0  0
   -0.5305   29.0903  -26.4410 H   0  0  0  0  0  0  0  0  0  0  0  0
   -0.0116   27.2643  -23.4406 H   0  0  0  0  0  0  0  0  0  0  0  0
   -1.7509   26.7095  -23.3608 H   0  0  0  0  0  0  0  0  0  0  0  0
    0.5423   25.4317  -24.6404 H   0  0  0  0  0  0  0  0  0  0  0  0
   -1.1268   24.8075  -24.3346 H   0  0  0  0  0  0  0  0  0  0  0  0
   -1.8356   25.7393  -28.6956 H   0  0  0  0  0  0  0  0  0  0  0  0
  1  2  1  0
  2  3  1  0
  3  4  2  0
  4  5  1  0
  5  6  1  0
  6  7  2  0
  7  8  1  0
  8  9  2  0
  9 10  1  0
 10 11  2  0
  5 12  1  0
 12 13  1  0
 13 14  1  0
 14 15  1  0
 15 16  2  0
 15 17  1  0
 17 18  1  0
 18 19  1  0
 19 20  2  0
 20 21  1  0
 21 22  2  0
 22 23  1  0
 23 24  1  0
 24 25  1  0
 25 26  1  0
 26 27  1  0
 27 28  1  0
 28 29  1  0
 23 30  2  0
 14 31  2  0
 31 32  1  0
 32 33  2  0
 32 34  1  0
 34  3  1  0
 11  6  1  0
 34 12  2  0
 30 19  1  0
 29 24  1  0
  1 35  1  0
  1 36  1  0
  1 37  1  0
  7 38  1  0
  8 39  1  0
  9 40  1  0
 10 41  1  0
 11 42  1  0
 18 43  1  0
 18 44  1  0
 20 45  1  0
 21 46  1  0
 22 47  1  0
 25 48  1  0
 25 49  1  0
 26 50  1  0
 26 51  1  0
 28 52  1  0
 28 53  1  0
 29 54  1  0
 29 55  1  0
 30 56  1  0
M  CHG  2  13  -1  17  -1
M  END
>  <UniqueID>  (29) 
28

>  <SMILES>  (29) 
CSc1nn(-c2ccccc2)c2[n-]c(C(=O)[N-]Cc3cccc(N4CCOCC4)c3)nc(=O)c12

>  <Energy>  (29) 
115.67081914682643

>  <Genealogy>  (29) 
CSc1nn(-c2ccccc2)c2[n-]c(C(=O)[N-]Cc3cccc(N4CCOCC4)c3)nc(=O)c12 (protonated)
CSc1nn(-c2ccccc2)c2[n-]c(C(=O)[N-]Cc3cccc(N4CCOCC4)c3)nc(=O)c12 (3D coordinates assigned)
CSc1nn(-c2ccccc2)c2[n-]c(C(=O)[N-]Cc3cccc(N4CCOCC4)c3)nc(=O)c12 (nonaromatic ring conformer: 115.67081914682643 kcal/mol)

>  <smiles>  (29) 
CSc1nn(-c2ccccc2)c2[nH]c(C(=O)NCc3cccc(N4CCOCC4)c3)nc(=O)c12

>  <score_type>  (29) 
oracle

>  <origin>  (29) 
adgpu

>  <m_score__min__energy>  (29) 
-11.81

>  <m_primary>  (29) 
energy

$$$$
29:0
     RDKit          3D

 54 57  0  0  0  0  0  0  0  0999 V2000
   -0.7260   25.8170  -28.6390 N   0  0  0  0  0  0  0  0  0  0  0  0
    0.0230   24.6880  -28.1900 C   0  0  0  0  0  0  0  0  0  0  0  0
    0.8760   24.1710  -28.9570 O   0  0  0  0  0  0  0  0  0  0  0  0
   -0.1740   24.1690  -26.8180 C   0  0  0  0  0  0  0  0  0  0  0  0
    0.0580   25.0430  -25.7400 C   0  0  0  0  0  0  0  0  0  0  0  0
   -0.0770   24.6040  -24.4220 C   0  0  0  0  0  0  0  0  0  0  0  0
   -0.4520   23.2900  -24.1590 C   0  0  0  0  0  0  0  0  0  0  0  0
   -0.7030   22.4090  -25.2120 C   0  0  0  0  0  0  0  0  0  0  0  0
   -0.5780   22.8320  -26.5470 C   0  0  0  0  0  0  0  0  0  0  0  0
   -1.0190   21.6920  -27.8320 S   0  0  0  0  0  0  0  0  0  0  0  0
   -1.8190   20.5490  -27.2710 O   0  0  0  0  0  0  0  0  0  0  0  0
    0.2320   21.1440  -28.4600 O   0  0  0  0  0  0  0  0  0  0  0  0
   -1.9790   22.4940  -29.0260 N   0  0  0  0  0  0  0  0  0  0  0  0
   -2.4620   23.7450  -28.9280 C   0  0  0  0  0  0  0  0  0  0  0  0
   -3.1580   24.0060  -30.0900 C   0  0  0  0  0  0  0  0  0  0  0  0
   -3.8470   25.2010  -30.4780 N   0  0  0  0  0  0  0  0  0  0  0  0
   -5.2670   25.3750  -30.5940 C   0  0  0  0  0  0  0  0  0  0  0  0
   -5.7840   26.5150  -30.4350 O   0  0  0  0  0  0  0  0  0  0  0  0
   -6.1330   24.2120  -30.8960 C   0  0  0  0  0  0  0  0  0  0  0  0
   -6.5610   23.3510  -29.8690 C   0  0  0  0  0  0  0  0  0  0  0  0
   -7.3790   22.2550  -30.1570 C   0  0  0  0  0  0  0  0  0  0  0  0
   -7.7830   22.0010  -31.4720 C   0  0  0  0  0  0  0  0  0  0  0  0
   -8.8130   20.6150  -31.8170 S   0  0  0  0  0  0  0  0  0  0  0  0
  -10.1230   21.1170  -32.3550 O   0  0  0  0  0  0  0  0  0  0  0  0
   -9.0680   19.8410  -30.5520 O   0  0  0  0  0  0  0  0  0  0  0  0
   -8.0220   19.5940  -33.0000 N   0  0  0  0  0  0  0  0  0  0  0  0
   -6.6810   20.1080  -33.3610 C   0  0  0  0  0  0  0  0  0  0  0  0
   -5.5440   19.3600  -32.6440 C   0  0  0  0  0  0  0  0  0  0  0  0
   -5.9580   18.9610  -31.3570 O   0  0  0  0  0  0  0  0  0  0  0  0
   -6.9420   17.9440  -31.4500 C   0  0  0  0  0  0  0  0  0  0  0  0
   -7.9850   18.1870  -32.5670 C   0  0  0  0  0  0  0  0  0  0  0  0
   -7.3580   22.8500  -32.5020 C   0  0  0  0  0  0  0  0  0  0  0  0
   -6.5420   23.9470  -32.2180 C   0  0  0  0  0  0  0  0  0  0  0  0
   -3.0590   22.8620  -30.8550 C   0  0  0  0  0  0  0  0  0  0  0  0
   -2.3330   21.9490  -30.1810 N   0  0  0  0  0  0  0  0  0  0  0  0
   -1.1200   25.8490  -29.6050 H   0  0  0  0  0  0  0  0  0  0  0  0
    0.3493   26.0850  -25.9384 H   0  0  0  0  0  0  0  0  0  0  0  0
    0.1133   25.2978  -23.5899 H   0  0  0  0  0  0  0  0  0  0  0  0
   -0.5508   22.9450  -23.1192 H   0  0  0  0  0  0  0  0  0  0  0  0
   -1.0018   21.3728  -24.9952 H   0  0  0  0  0  0  0  0  0  0  0  0
   -2.3273   24.4321  -28.0796 H   0  0  0  0  0  0  0  0  0  0  0  0
   -6.2495   23.5419  -28.8314 H   0  0  0  0  0  0  0  0  0  0  0  0
   -7.7068   21.5887  -29.3455 H   0  0  0  0  0  0  0  0  0  0  0  0
   -6.5434   19.9993  -34.4469 H   0  0  0  0  0  0  0  0  0  0  0  0
   -6.6342   21.1614  -33.0476 H   0  0  0  0  0  0  0  0  0  0  0  0
   -5.2691   18.4701  -33.2292 H   0  0  0  0  0  0  0  0  0  0  0  0
   -4.6772   20.0307  -32.5498 H   0  0  0  0  0  0  0  0  0  0  0  0
   -6.4356   16.9882  -31.6499 H   0  0  0  0  0  0  0  0  0  0  0  0
   -7.4889   17.9380  -30.4956 H   0  0  0  0  0  0  0  0  0  0  0  0
   -7.7302   17.5572  -33.4321 H   0  0  0  0  0  0  0  0  0  0  0  0
   -8.9762   17.9328  -32.1633 H   0  0  0  0  0  0  0  0  0  0  0  0
   -7.6683   22.6518  -33.5385 H   0  0  0  0  0  0  0  0  0  0  0  0
   -6.2158   24.6097  -33.0331 H   0  0  0  0  0  0  0  0  0  0  0  0
   -3.5007   22.7188  -31.8522 H   0  0  0  0  0  0  0  0  0  0  0  0
  1  2  1  0
  2  3  2  0
  2  4  1  0
  4  5  2  0
  5  6  1  0
  6  7  2  0
  7  8  1  0
  8  9  2  0
  9 10  1  0
 10 11  2  0
 10 12  2  0
 10 13  1  0
 13 14  1  0
 14 15  2  0
 15 16  1  0
 16 17  1  0
 17 18  2  0
 17 19  1  0
 19 20  2  0
 20 21  1  0
 21 22  2  0
 22 23  1  0
 23 24  2  0
 23 25  2  0
 23 26  1  0
 26 27  1  0
 27 28  1  0
 28 29  1  0
 29 30  1  0
 30 31  1  0
 22 32  1  0
 32 33  2  0
 15 34  1  0
 34 35  2  0
  9  4  1  0
 35 13  1  0
 33 19  1  0
 31 26  1  0
  1 36  1  0
  5 37  1  0
  6 38  1  0
  7 39  1  0
  8 40  1  0
 14 41  1  0
 20 42  1  0
 21 43  1  0
 27 44  1  0
 27 45  1  0
 28 46  1  0
 28 47  1  0
 30 48  1  0
 30 49  1  0
 31 50  1  0
 31 51  1  0
 32 52  1  0
 33 53  1  0
 34 54  1  0
M  CHG  2   1  -1  16  -1
M  END
>  <UniqueID>  (30) 
29

>  <SMILES>  (30) 
[NH-]C(=O)c1ccccc1S(=O)(=O)n1cc([N-]C(=O)c2ccc(S(=O)(=O)N3CCOCC3)cc2)cn1

>  <Energy>  (30) 
109.04520862798275

>  <Genealogy>  (30) 
[NH-]C(=O)c1ccccc1S(=O)(=O)n1cc([N-]C(=O)c2ccc(S(=O)(=O)N3CCOCC3)cc2)cn1 (protonated)
[NH-]C(=O)c1ccccc1S(=O)(=O)n1cc([N-]C(=O)c2ccc(S(=O)(=O)N3CCOCC3)cc2)cn1 (3D coordinates assigned)
[NH-]C(=O)c1ccccc1S(=O)(=O)n1cc([N-]C(=O)c2ccc(S(=O)(=O)N3CCOCC3)cc2)cn1 (nonaromatic ring conformer: 109.04520862798275 kcal/mol)

>  <smiles>  (30) 
NC(=O)c1ccccc1S(=O)(=O)n1cc(NC(=O)c2ccc(S(=O)(=O)N3CCOCC3)cc2)cn1

>  <score_type>  (30) 
oracle

>  <origin>  (30) 
adgpu

>  <m_score__min__energy>  (30) 
-13.81

>  <m_primary>  (30) 
energy

$$$$
30:0
     RDKit          3D

 30 31  0  0  0  0  0  0  0  0999 V2000
   -4.6050   25.2290  -30.8520 N   0  0  0  0  0  0  0  0  0  0  0  0
   -5.4940   24.3100  -31.1100 C   0  0  0  0  0  0  0  0  0  0  0  0
   -6.4520   23.8080  -30.3320 N   0  0  0  0  0  0  0  0  0  0  0  0
   -7.1600   22.8740  -30.9910 C   0  0  0  0  0  0  0  0  0  0  0  0
   -8.5500   21.8890  -30.4730 S   0  0  0  0  0  0  0  0  0  0  0  0
   -9.5720   21.3250  -31.8400 C   0  0  0  0  0  0  0  0  0  0  0  0
   -8.9510   20.2930  -32.7160 C   0  0  0  0  0  0  0  0  0  0  0  0
   -7.5240   20.1580  -32.5700 N   0  0  0  0  0  0  0  0  0  0  0  0
   -7.1980   19.0530  -31.7010 C   0  0  0  0  0  0  0  0  0  0  0  0
   -7.0210   17.8170  -32.5490 C   0  0  0  0  0  0  0  0  0  0  0  0
   -5.7700   17.9150  -33.1590 O   0  0  0  0  0  0  0  0  0  0  0  0
   -5.5120   19.2200  -33.6110 C   0  0  0  0  0  0  0  0  0  0  0  0
   -6.8180   19.9830  -33.7940 C   0  0  0  0  0  0  0  0  0  0  0  0
   -6.5760   22.8320  -32.2260 N   0  0  0  0  0  0  0  0  0  0  0  0
   -5.5840   23.6900  -32.2930 N   0  0  0  0  0  0  0  0  0  0  0  0
   -4.6290   25.6550  -29.8750 H   0  0  0  0  0  0  0  0  0  0  0  0
  -10.4972   20.9028  -31.4208 H   0  0  0  0  0  0  0  0  0  0  0  0
   -9.7386   22.2052  -32.4783 H   0  0  0  0  0  0  0  0  0  0  0  0
   -9.4126   19.3223  -32.4820 H   0  0  0  0  0  0  0  0  0  0  0  0
   -9.1276   20.6181  -33.7519 H   0  0  0  0  0  0  0  0  0  0  0  0
   -6.2652   19.2688  -31.1594 H   0  0  0  0  0  0  0  0  0  0  0  0
   -8.0040   18.8971  -30.9688 H   0  0  0  0  0  0  0  0  0  0  0  0
   -7.0639   16.9170  -31.9181 H   0  0  0  0  0  0  0  0  0  0  0  0
   -7.8193   17.7405  -33.3019 H   0  0  0  0  0  0  0  0  0  0  0  0
   -4.8864   19.7429  -32.8726 H   0  0  0  0  0  0  0  0  0  0  0  0
   -4.9893   19.1676  -34.5774 H   0  0  0  0  0  0  0  0  0  0  0  0
   -6.5916   20.9736  -34.2153 H   0  0  0  0  0  0  0  0  0  0  0  0
   -7.4577   19.3934  -34.4672 H   0  0  0  0  0  0  0  0  0  0  0  0
   -6.8650   22.2020  -33.0330 H   0  0  0  0  0  0  0  0  0  0  0  0
   -4.9870   23.8310  -33.1550 H   0  0  0  0  0  0  0  0  0  0  0  0
  1  2  2  3
  2  3  1  0
  3  4  2  0
  4  5  1  0
  5  6  1  0
  6  7  1  0
  7  8  1  0
  8  9  1  0
  9 10  1  0
 10 11  1  0
 11 12  1  0
 12 13  1  0
  4 14  1  0
 14 15  1  0
 15  2  1  0
 13  8  1  0
  1 16  1  0
  6 17  1  0
  6 18  1  0
  7 19  1  0
  7 20  1  0
  9 21  1  0
  9 22  1  0
 10 23  1  0
 10 24  1  0
 12 25  1  0
 12 26  1  0
 13 27  1  0
 13 28  1  0
 14 29  1  0
 15 30  1  0
M  END
>  <smiles>  (31) 
N=c1nc(SCCN2CCOCC2)[nH][nH]1

>  <score_type>  (31) 
oracle

>  <origin>  (31) 
adgpu

>  <m_score__min__energy>  (31) 
-6.8399999999999999

>  <m_primary>  (31) 
energy

$$$$
31:0
     RDKit          3D

 61 64  0  0  0  0  0  0  0  0999 V2000
    0.0070   18.3440  -27.5050 C   0  0  0  0  0  0  0  0  0  0  0  0
    0.9540   17.4940  -28.2420 N   0  0  0  0  0  0  0  0  0  0  0  0
    2.2560   18.1790  -28.4390 C   0  0  0  0  0  0  0  0  0  0  0  0
    2.4150   18.7270  -29.8640 C   0  0  0  0  0  0  0  0  0  0  0  0
    2.3460   17.6420  -30.8640 N   0  0  0  0  0  0  0  0  0  0  0  0
    1.9980   18.2950  -32.4480 S   0  0  0  0  0  0  0  0  0  0  0  0
    1.8540   17.1660  -33.4300 O   0  0  0  0  0  0  0  0  0  0  0  0
    3.1470   19.1570  -32.8970 O   0  0  0  0  0  0  0  0  0  0  0  0
    0.5170   19.2560  -32.4440 C   0  0  0  0  0  0  0  0  0  0  0  0
   -0.6740   18.7200  -32.9460 C   0  0  0  0  0  0  0  0  0  0  0  0
   -1.8420   19.4880  -32.9680 C   0  0  0  0  0  0  0  0  0  0  0  0
   -1.8380   20.8060  -32.4770 C   0  0  0  0  0  0  0  0  0  0  0  0
   -3.0660   21.6370  -32.5120 C   0  0  0  0  0  0  0  0  0  0  0  0
   -3.9260   21.4370  -33.4130 O   0  0  0  0  0  0  0  0  0  0  0  0
   -3.2690   22.6940  -31.5580 N   0  0  0  0  0  0  0  0  0  0  0  0
   -4.5610   23.2490  -31.2550 C   0  0  0  0  0  0  0  0  0  0  0  0
   -5.7350   22.4990  -31.4570 C   0  0  0  0  0  0  0  0  0  0  0  0
   -6.9880   23.0360  -31.1390 C   0  0  0  0  0  0  0  0  0  0  0  0
   -8.4410   22.0850  -31.4310 S   0  0  0  0  0  0  0  0  0  0  0  0
   -9.3940   22.8540  -32.3060 O   0  0  0  0  0  0  0  0  0  0  0  0
   -9.1150   21.8050  -30.1160 O   0  0  0  0  0  0  0  0  0  0  0  0
   -7.9950   20.5790  -32.1910 N   0  0  0  0  0  0  0  0  0  0  0  0
   -7.2500   19.7200  -31.2720 C   0  0  0  0  0  0  0  0  0  0  0  0
   -6.3540   18.8390  -32.1300 C   0  0  0  0  0  0  0  0  0  0  0  0
   -6.2750   19.5360  -33.4800 C   0  0  0  0  0  0  0  0  0  0  0  0
   -7.1050   20.8000  -33.3300 C   0  0  0  0  0  0  0  0  0  0  0  0
   -7.0740   24.3300  -30.6110 C   0  0  0  0  0  0  0  0  0  0  0  0
   -5.9130   25.0740  -30.3870 C   0  0  0  0  0  0  0  0  0  0  0  0
   -4.6610   24.5380  -30.7010 C   0  0  0  0  0  0  0  0  0  0  0  0
   -3.5190   25.2960  -30.4680 O   0  0  0  0  0  0  0  0  0  0  0  0
   -0.6380   21.3380  -31.9730 C   0  0  0  0  0  0  0  0  0  0  0  0
    0.5270   20.5670  -31.9510 C   0  0  0  0  0  0  0  0  0  0  0  0
    1.4060   16.5530  -30.5040 C   0  0  0  0  0  0  0  0  0  0  0  0
    0.3380   17.0100  -29.5000 C   0  0  0  0  0  0  0  0  0  0  0  0
    0.1577   18.2088  -26.4238 H   0  0  0  0  0  0  0  0  0  0  0  0
    0.1774   19.3979  -27.7700 H   0  0  0  0  0  0  0  0  0  0  0  0
   -1.0225   18.0611  -27.7700 H   0  0  0  0  0  0  0  0  0  0  0  0
    2.3270   19.0155  -27.7282 H   0  0  0  0  0  0  0  0  0  0  0  0
    3.0540   17.4408  -28.2709 H   0  0  0  0  0  0  0  0  0  0  0  0
    1.6098   19.4497  -30.0625 H   0  0  0  0  0  0  0  0  0  0  0  0
    3.3993   19.2117  -29.9431 H   0  0  0  0  0  0  0  0  0  0  0  0
   -0.6914   17.6878  -33.3258 H   0  0  0  0  0  0  0  0  0  0  0  0
   -2.7706   19.0585  -33.3721 H   0  0  0  0  0  0  0  0  0  0  0  0
   -2.4260   23.1460  -31.1390 H   0  0  0  0  0  0  0  0  0  0  0  0
   -5.6671   21.4812  -31.8687 H   0  0  0  0  0  0  0  0  0  0  0  0
   -6.6405   20.3317  -30.5906 H   0  0  0  0  0  0  0  0  0  0  0  0
   -7.9305   19.1134  -30.6564 H   0  0  0  0  0  0  0  0  0  0  0  0
   -5.3533   18.7550  -31.6811 H   0  0  0  0  0  0  0  0  0  0  0  0
   -6.7506   17.8169  -32.2200 H   0  0  0  0  0  0  0  0  0  0  0  0
   -5.2320   19.7869  -33.7232 H   0  0  0  0  0  0  0  0  0  0  0  0
   -6.6473   18.8960  -34.2935 H   0  0  0  0  0  0  0  0  0  0  0  0
   -6.4511   21.6637  -33.1394 H   0  0  0  0  0  0  0  0  0  0  0  0
   -7.6760   21.0122  -34.2459 H   0  0  0  0  0  0  0  0  0  0  0  0
   -8.0573   24.7614  -30.3722 H   0  0  0  0  0  0  0  0  0  0  0  0
   -5.9845   26.0859  -29.9617 H   0  0  0  0  0  0  0  0  0  0  0  0
   -0.6162   22.3700  -31.5928 H   0  0  0  0  0  0  0  0  0  0  0  0
    1.4567   20.9917  -31.5445 H   0  0  0  0  0  0  0  0  0  0  0  0
    0.9046   16.2025  -31.4182 H   0  0  0  0  0  0  0  0  0  0  0  0
    1.9892   15.7492  -30.0309 H   0  0  0  0  0  0  0  0  0  0  0  0
   -0.2496   17.8249  -29.9480 H   0  0  0  0  0  0  0  0  0  0  0  0
   -0.3063   16.1505  -29.2630 H   0  0  0  0  0  0  0  0  0  0  0  0
  1  2  1  0
  2  3  1  0
  3  4  1  0
  4  5  1  0
  5  6  1  0
  6  7  2  0
  6  8  2  0
  6  9  1  0
  9 10  2  0
 10 11  1  0
 11 12  2  0
 12 13  1  0
 13 14  2  0
 13 15  1  0
 15 16  1  0
 16 17  2  0
 17 18  1  0
 18 19  1  0
 19 20  2  0
 19 21  2  0
 19 22  1  0
 22 23  1  0
 23 24  1  0
 24 25  1  0
 25 26  1  0
 18 27  2  0
 27 28  1  0
 28 29  2  0
 29 30  1  0
 12 31  1  0
 31 32  2  0
  5 33  1  0
 33 34  1  0
 34  2  1  0
 32  9  1  0
 29 16  1  0
 26 22  1  0
  1 35  1  0
  1 36  1  0
  1 37  1  0
  3 38  1  0
  3 39  1  0
  4 40  1  0
  4 41  1  0
 10 42  1  0
 11 43  1  0
 15 44  1  0
 17 45  1  0
 23 46  1  0
 23 47  1  0
 24 48  1  0
 24 49  1  0
 25 50  1  0
 25 51  1  0
 26 52  1  0
 26 53  1  0
 27 54  1  0
 28 55  1  0
 31 56  1  0
 32 57  1  0
 33 58  1  0
 33 59  1  0
 34 60  1  0
 34 61  1  0
M  CHG  1  30  -1
M  END
>  <UniqueID>  (32) 
30

>  <SMILES>  (32) 
CN1CCN(S(=O)(=O)c2ccc(C(=O)Nc3cc(S(=O)(=O)N4CCCC4)ccc3[O-])cc2)CC1

>  <Energy>  (32) 
78.76691222944675

>  <Genealogy>  (32) 
CN1CCN(S(=O)(=O)c2ccc(C(=O)Nc3cc(S(=O)(=O)N4CCCC4)ccc3[O-])cc2)CC1 (protonated)
CN1CCN(S(=O)(=O)c2ccc(C(=O)Nc3cc(S(=O)(=O)N4CCCC4)ccc3[O-])cc2)CC1 (3D coordinates assigned)
CN1CCN(S(=O)(=O)c2ccc(C(=O)Nc3cc(S(=O)(=O)N4CCCC4)ccc3[O-])cc2)CC1 (nonaromatic ring conformer: 78.76691222944675 kcal/mol)

>  <smiles>  (32) 
CN1CCN(S(=O)(=O)c2ccc(C(=O)Nc3cc(S(=O)(=O)N4CCCC4)ccc3O)cc2)CC1

>  <score_type>  (32) 
oracle

>  <origin>  (32) 
adgpu

>  <m_score__min__energy>  (32) 
-12.59

>  <m_primary>  (32) 
energy

$$$$
32:0
     RDKit          3D

 49 51  0  0  0  0  0  0  0  0999 V2000
   -3.9070   25.3680  -30.6190 O   0  0  0  0  0  0  0  0  0  0  0  0
   -4.3450   24.1970  -30.7890 C   0  0  0  0  0  0  0  0  0  0  0  0
   -3.8100   23.1050  -30.0280 N   0  0  0  0  0  0  0  0  0  0  0  0
   -2.9030   23.2540  -28.9220 C   0  0  0  0  0  0  0  0  0  0  0  0
   -1.9510   24.2840  -28.9480 C   0  0  0  0  0  0  0  0  0  0  0  0
   -1.0440   24.4380  -27.8960 C   0  0  0  0  0  0  0  0  0  0  0  0
   -1.0690   23.5540  -26.8090 C   0  0  0  0  0  0  0  0  0  0  0  0
    0.0710   23.7390  -25.4800 S   0  0  0  0  0  0  0  0  0  0  0  0
    0.1190   22.4500  -24.7060 O   0  0  0  0  0  0  0  0  0  0  0  0
    1.4430   24.0420  -26.0200 O   0  0  0  0  0  0  0  0  0  0  0  0
   -0.4440   25.0420  -24.4360 N   0  0  0  0  0  0  0  0  0  0  0  0
   -1.6100   25.7590  -25.0110 C   0  0  0  0  0  0  0  0  0  0  0  0
   -1.2330   27.1000  -25.6570 C   0  0  0  0  0  0  0  0  0  0  0  0
   -0.5530   28.0350  -24.6430 C   0  0  0  0  0  0  0  0  0  0  0  0
    0.2570   27.2710  -23.5800 C   0  0  0  0  0  0  0  0  0  0  0  0
    0.7110   25.9070  -24.1090 C   0  0  0  0  0  0  0  0  0  0  0  0
   -1.9970   22.5060  -26.7920 C   0  0  0  0  0  0  0  0  0  0  0  0
   -2.9070   22.3520  -27.8430 C   0  0  0  0  0  0  0  0  0  0  0  0
   -5.3670   23.9420  -31.7110 O   0  0  0  0  0  0  0  0  0  0  0  0
   -5.7820   22.6700  -32.1340 C   0  0  0  0  0  0  0  0  0  0  0  0
   -7.1190   22.3050  -31.9390 C   0  0  0  0  0  0  0  0  0  0  0  0
   -7.5760   21.0470  -32.3360 C   0  0  0  0  0  0  0  0  0  0  0  0
   -6.7030   20.1240  -32.9220 C   0  0  0  0  0  0  0  0  0  0  0  0
   -7.2170   18.8730  -33.3030 O   0  0  0  0  0  0  0  0  0  0  0  0
   -7.4470   17.7740  -32.4250 C   0  0  0  0  0  0  0  0  0  0  0  0
   -6.5990   17.8510  -31.3340 F   0  0  0  0  0  0  0  0  0  0  0  0
   -8.7520   17.8220  -31.9790 F   0  0  0  0  0  0  0  0  0  0  0  0
   -7.2470   16.5800  -33.0930 F   0  0  0  0  0  0  0  0  0  0  0  0
   -5.3520   20.4790  -33.1010 C   0  0  0  0  0  0  0  0  0  0  0  0
   -4.8950   21.7400  -32.7060 C   0  0  0  0  0  0  0  0  0  0  0  0
   -4.0260   22.1390  -30.3630 H   0  0  0  0  0  0  0  0  0  0  0  0
   -1.9182   24.9756  -29.8028 H   0  0  0  0  0  0  0  0  0  0  0  0
   -0.3084   25.2555  -27.9213 H   0  0  0  0  0  0  0  0  0  0  0  0
   -2.0718   25.1188  -25.7771 H   0  0  0  0  0  0  0  0  0  0  0  0
   -2.3023   25.9761  -24.1842 H   0  0  0  0  0  0  0  0  0  0  0  0
   -0.5422   26.9139  -26.4926 H   0  0  0  0  0  0  0  0  0  0  0  0
   -2.1533   27.5849  -26.0146 H   0  0  0  0  0  0  0  0  0  0  0  0
    0.1263   28.7085  -25.1860 H   0  0  0  0  0  0  0  0  0  0  0  0
   -1.3455   28.5908  -24.1205 H   0  0  0  0  0  0  0  0  0  0  0  0
    1.1427   27.8640  -23.3082 H   0  0  0  0  0  0  0  0  0  0  0  0
   -0.3842   27.1095  -22.7010 H   0  0  0  0  0  0  0  0  0  0  0  0
    1.3133   26.0579  -25.0170 H   0  0  0  0  0  0  0  0  0  0  0  0
    1.3029   25.4117  -23.3252 H   0  0  0  0  0  0  0  0  0  0  0  0
   -2.0106   21.8004  -25.9482 H   0  0  0  0  0  0  0  0  0  0  0  0
   -3.6287   21.5220  -27.8255 H   0  0  0  0  0  0  0  0  0  0  0  0
   -7.8154   23.0151  -31.4691 H   0  0  0  0  0  0  0  0  0  0  0  0
   -8.6323   20.7790  -32.1867 H   0  0  0  0  0  0  0  0  0  0  0  0
   -4.6528   19.7606  -33.5538 H   0  0  0  0  0  0  0  0  0  0  0  0
   -3.8365   22.0062  -32.8432 H   0  0  0  0  0  0  0  0  0  0  0  0
  1  2  2  0
  2  3  1  0
  3  4  1  0
  4  5  2  0
  5  6  1  0
  6  7  2  0
  7  8  1  0
  8  9  2  0
  8 10  2  0
  8 11  1  0
 11 12  1  0
 12 13  1  0
 13 14  1  0
 14 15  1  0
 15 16  1  0
  7 17  1  0
 17 18  2  0
  2 19  1  0
 19 20  1  0
 20 21  2  0
 21 22  1  0
 22 23  2  0
 23 24  1  0
 24 25  1  0
 25 26  1  0
 25 27  1  0
 25 28  1  0
 23 29  1  0
 29 30  2  0
 18  4  1  0
 30 20  1  0
 16 11  1  0
  3 31  1  0
  5 32  1  0
  6 33  1  0
 12 34  1  0
 12 35  1  0
 13 36  1  0
 13 37  1  0
 14 38  1  0
 14 39  1  0
 15 40  1  0
 15 41  1  0
 16 42  1  0
 16 43  1  0
 17 44  1  0
 18 45  1  0
 21 46  1  0
 22 47  1  0
 29 48  1  0
 30 49  1  0
M  END
>  <UniqueID>  (33) 
31

>  <SMILES>  (33) 
O=C(Nc1ccc(S(=O)(=O)N2CCCCC2)cc1)Oc1ccc(OC(F)(F)F)cc1

>  <Energy>  (33) 
63.38383807773691

>  <Genealogy>  (33) 
O=C(Nc1ccc(S(=O)(=O)N2CCCCC2)cc1)Oc1ccc(OC(F)(F)F)cc1 (3D coordinates assigned)
O=C(Nc1ccc(S(=O)(=O)N2CCCCC2)cc1)Oc1ccc(OC(F)(F)F)cc1 (nonaromatic ring conformer: 63.38383807773691 kcal/mol)

>  <smiles>  (33) 
O=C(Nc1ccc(S(=O)(=O)N2CCCCC2)cc1)Oc1ccc(OC(F)(F)F)cc1

>  <score_type>  (33) 
oracle

>  <origin>  (33) 
adgpu

>  <m_score__min__energy>  (33) 
-8.8499999999999996

>  <m_primary>  (33) 
energy

$$$$
33:0
     RDKit          3D

 48 50  0  0  0  0  0  0  0  0999 V2000
   -3.2950   21.6900  -31.4070 C   0  0  0  0  0  0  0  0  0  0  0  0
   -4.2150   21.7590  -32.9760 S   0  0  0  0  0  0  0  0  0  0  0  0
   -5.8160   21.9670  -32.1820 C   0  0  0  0  0  0  0  0  0  0  0  0
   -6.6670   20.8600  -32.0690 C   0  0  0  0  0  0  0  0  0  0  0  0
   -7.9300   20.9980  -31.4930 C   0  0  0  0  0  0  0  0  0  0  0  0
   -8.3610   22.2480  -31.0450 C   0  0  0  0  0  0  0  0  0  0  0  0
   -7.5250   23.3600  -31.1640 C   0  0  0  0  0  0  0  0  0  0  0  0
   -6.2350   23.2280  -31.7130 C   0  0  0  0  0  0  0  0  0  0  0  0
   -5.3770   24.3680  -31.8860 N   0  0  0  0  0  0  0  0  0  0  0  0
   -4.9500   25.2770  -30.8610 C   0  0  0  0  0  0  0  0  0  0  0  0
   -5.7840   26.0810  -30.3720 O   0  0  0  0  0  0  0  0  0  0  0  0
   -3.6000   25.2960  -30.3810 N   0  0  0  0  0  0  0  0  0  0  0  0
   -3.1120   24.5310  -29.2720 C   0  0  0  0  0  0  0  0  0  0  0  0
   -3.9030   23.5440  -28.6640 C   0  0  0  0  0  0  0  0  0  0  0  0
   -3.4050   22.8120  -27.5840 C   0  0  0  0  0  0  0  0  0  0  0  0
   -2.1120   23.0500  -27.1120 C   0  0  0  0  0  0  0  0  0  0  0  0
   -1.3070   24.0220  -27.7230 C   0  0  0  0  0  0  0  0  0  0  0  0
    0.3280   24.3220  -27.1320 S   0  0  0  0  0  0  0  0  0  0  0  0
    0.8050   23.1240  -26.3580 O   0  0  0  0  0  0  0  0  0  0  0  0
    1.2520   24.5140  -28.3030 O   0  0  0  0  0  0  0  0  0  0  0  0
    0.3890   25.7400  -26.1100 N   0  0  0  0  0  0  0  0  0  0  0  0
   -0.8280   26.5560  -26.2990 C   0  0  0  0  0  0  0  0  0  0  0  0
   -0.9060   27.6710  -25.2510 C   0  0  0  0  0  0  0  0  0  0  0  0
   -0.9340   27.1070  -23.8160 C   0  0  0  0  0  0  0  0  0  0  0  0
   -0.4840   25.6410  -23.7440 C   0  0  0  0  0  0  0  0  0  0  0  0
    0.6910   25.3880  -24.6990 C   0  0  0  0  0  0  0  0  0  0  0  0
   -1.8080   24.7510  -28.8110 C   0  0  0  0  0  0  0  0  0  0  0  0
   -4.0012   21.7430  -30.5653 H   0  0  0  0  0  0  0  0  0  0  0  0
   -2.7311   20.7470  -31.3538 H   0  0  0  0  0  0  0  0  0  0  0  0
   -2.5967   22.5383  -31.3538 H   0  0  0  0  0  0  0  0  0  0  0  0
   -6.3376   19.8769  -32.4364 H   0  0  0  0  0  0  0  0  0  0  0  0
   -8.5867   20.1214  -31.3917 H   0  0  0  0  0  0  0  0  0  0  0  0
   -9.3601   22.3570  -30.5979 H   0  0  0  0  0  0  0  0  0  0  0  0
   -7.8766   24.3461  -30.8265 H   0  0  0  0  0  0  0  0  0  0  0  0
   -4.9180   23.3464  -29.0391 H   0  0  0  0  0  0  0  0  0  0  0  0
   -4.0322   22.0464  -27.1040 H   0  0  0  0  0  0  0  0  0  0  0  0
   -1.7244   22.4736  -26.2590 H   0  0  0  0  0  0  0  0  0  0  0  0
   -0.8080   27.0057  -27.3027 H   0  0  0  0  0  0  0  0  0  0  0  0
   -1.7083   25.9059  -26.1871 H   0  0  0  0  0  0  0  0  0  0  0  0
   -0.0276   28.3241  -25.3598 H   0  0  0  0  0  0  0  0  0  0  0  0
   -1.8380   28.2313  -25.4165 H   0  0  0  0  0  0  0  0  0  0  0  0
   -0.2636   27.7117  -23.1876 H   0  0  0  0  0  0  0  0  0  0  0  0
   -1.9748   27.1516  -23.4629 H   0  0  0  0  0  0  0  0  0  0  0  0
   -0.1700   25.4095  -22.7155 H   0  0  0  0  0  0  0  0  0  0  0  0
   -1.3256   24.9972  -24.0394 H   0  0  0  0  0  0  0  0  0  0  0  0
    1.5483   25.9908  -24.3648 H   0  0  0  0  0  0  0  0  0  0  0  0
    0.9060   24.3096  -24.6716 H   0  0  0  0  0  0  0  0  0  0  0  0
   -1.1727   25.5005  -29.3056 H   0  0  0  0  0  0  0  0  0  0  0  0
  1  2  1  0
  2  3  1  0
  3  4  2  0
  4  5  1  0
  5  6  2  0
  6  7  1  0
  7  8  2  0
  8  9  1  0
  9 10  1  0
 10 11  2  0
 10 12  1  0
 12 13  1  0
 13 14  2  0
 14 15  1  0
 15 16  2  0
 16 17  1  0
 17 18  1  0
 18 19  2  0
 18 20  2  0
 18 21  1  0
 21 22  1  0
 22 23  1  0
 23 24  1  0
 24 25  1  0
 25 26  1  0
 17 27  2  0
  8  3  1  0
 27 13  1  0
 26 21  1  0
  1 28  1  0
  1 29  1  0
  1 30  1  0
  4 31  1  0
  5 32  1  0
  6 33  1  0
  7 34  1  0
 14 35  1  0
 15 36  1  0
 16 37  1  0
 22 38  1  0
 22 39  1  0
 23 40  1  0
 23 41  1  0
 24 42  1  0
 24 43  1  0
 25 44  1  0
 25 45  1  0
 26 46  1  0
 26 47  1  0
 27 48  1  0
M  CHG  2   9  -1  12  -1
M  END
>  <UniqueID>  (34) 
32

>  <SMILES>  (34) 
CSc1ccccc1[N-]C(=O)[N-]c1cccc(S(=O)(=O)N2CCCCC2)c1

>  <Energy>  (34) 
54.180334616054175

>  <Genealogy>  (34) 
CSc1ccccc1[N-]C(=O)[N-]c1cccc(S(=O)(=O)N2CCCCC2)c1 (protonated)
CSc1ccccc1[N-]C(=O)[N-]c1cccc(S(=O)(=O)N2CCCCC2)c1 (3D coordinates assigned)
CSc1ccccc1[N-]C(=O)[N-]c1cccc(S(=O)(=O)N2CCCCC2)c1 (nonaromatic ring conformer: 54.180334616054175 kcal/mol)

>  <smiles>  (34) 
CSc1ccccc1NC(=O)Nc1cccc(S(=O)(=O)N2CCCCC2)c1

>  <score_type>  (34) 
oracle

>  <origin>  (34) 
adgpu

>  <m_score__min__energy>  (34) 
-11.98

>  <m_primary>  (34) 
energy

$$$$
34:0
     RDKit          3D

 54 57  0  0  0  0  0  0  0  0999 V2000
   -2.9480   18.6860  -34.2280 C   0  0  0  0  0  0  0  0  0  0  0  0
   -2.2940   19.3350  -33.0770 N   0  0  0  0  0  0  0  0  0  0  0  0
   -2.7490   20.5450  -32.6250 C   0  0  0  0  0  0  0  0  0  0  0  0
   -3.7300   21.1080  -33.1930 O   0  0  0  0  0  0  0  0  0  0  0  0
   -2.1310   21.1670  -31.5330 C   0  0  0  0  0  0  0  0  0  0  0  0
   -2.5660   22.4280  -31.0720 C   0  0  0  0  0  0  0  0  0  0  0  0
   -1.9490   23.0400  -29.9770 C   0  0  0  0  0  0  0  0  0  0  0  0
   -2.5810   24.5550  -29.3270 S   0  0  0  0  0  0  0  0  0  0  0  0
   -1.4760   25.5800  -29.2570 O   0  0  0  0  0  0  0  0  0  0  0  0
   -3.1040   24.3080  -27.9330 O   0  0  0  0  0  0  0  0  0  0  0  0
   -3.8700   25.1690  -30.3190 N   0  0  0  0  0  0  0  0  0  0  0  0
   -5.0770   24.4440  -30.5750 C   0  0  0  0  0  0  0  0  0  0  0  0
   -5.7500   24.5530  -31.8080 C   0  0  0  0  0  0  0  0  0  0  0  0
   -6.8770   23.7650  -32.0650 C   0  0  0  0  0  0  0  0  0  0  0  0
   -7.3630   22.8900  -31.0790 C   0  0  0  0  0  0  0  0  0  0  0  0
   -8.7090   21.8150  -31.4520 S   0  0  0  0  0  0  0  0  0  0  0  0
   -9.4070   21.4150  -30.1790 O   0  0  0  0  0  0  0  0  0  0  0  0
   -9.6870   22.5430  -32.3320 O   0  0  0  0  0  0  0  0  0  0  0  0
   -8.1080   20.4000  -32.2850 N   0  0  0  0  0  0  0  0  0  0  0  0
   -6.6410   20.4770  -32.4220 C   0  0  0  0  0  0  0  0  0  0  0  0
   -6.0440   19.1020  -32.7880 C   0  0  0  0  0  0  0  0  0  0  0  0
   -7.0390   18.2490  -33.3190 O   0  0  0  0  0  0  0  0  0  0  0  0
   -7.9940   17.9340  -32.3170 C   0  0  0  0  0  0  0  0  0  0  0  0
   -8.4920   19.1840  -31.5530 C   0  0  0  0  0  0  0  0  0  0  0  0
   -6.7250   22.8270  -29.8290 C   0  0  0  0  0  0  0  0  0  0  0  0
   -5.5920   23.6070  -29.5760 C   0  0  0  0  0  0  0  0  0  0  0  0
   -0.8750   22.4040  -29.3490 C   0  0  0  0  0  0  0  0  0  0  0  0
   -0.4320   21.1550  -29.7970 C   0  0  0  0  0  0  0  0  0  0  0  0
   -1.0610   20.5040  -30.8860 C   0  0  0  0  0  0  0  0  0  0  0  0
   -0.6710   19.2520  -31.3180 N   0  0  0  0  0  0  0  0  0  0  0  0
    0.4070   18.5180  -30.6140 C   0  0  0  0  0  0  0  0  0  0  0  0
   -1.2830   18.6830  -32.4150 C   0  0  0  0  0  0  0  0  0  0  0  0
   -0.9120   17.5440  -32.8230 O   0  0  0  0  0  0  0  0  0  0  0  0
   -3.6853   17.9543  -33.8661 H   0  0  0  0  0  0  0  0  0  0  0  0
   -3.4559   19.4473  -34.8383 H   0  0  0  0  0  0  0  0  0  0  0  0
   -2.1907   18.1722  -34.8383 H   0  0  0  0  0  0  0  0  0  0  0  0
   -3.3997   22.9349  -31.5799 H   0  0  0  0  0  0  0  0  0  0  0  0
   -5.3886   25.2591  -32.5701 H   0  0  0  0  0  0  0  0  0  0  0  0
   -7.3829   23.8305  -33.0396 H   0  0  0  0  0  0  0  0  0  0  0  0
   -6.3916   21.1991  -33.2135 H   0  0  0  0  0  0  0  0  0  0  0  0
   -6.2166   20.7968  -31.4589 H   0  0  0  0  0  0  0  0  0  0  0  0
   -5.2505   19.2410  -33.5371 H   0  0  0  0  0  0  0  0  0  0  0  0
   -5.6336   18.6416  -31.8772 H   0  0  0  0  0  0  0  0  0  0  0  0
   -8.8568   17.4462  -32.7941 H   0  0  0  0  0  0  0  0  0  0  0  0
   -7.5044   17.2719  -31.5877 H   0  0  0  0  0  0  0  0  0  0  0  0
   -9.5874   19.1436  -31.4610 H   0  0  0  0  0  0  0  0  0  0  0  0
   -8.0368   19.2034  -30.5518 H   0  0  0  0  0  0  0  0  0  0  0  0
   -7.1181   22.1616  -29.0462 H   0  0  0  0  0  0  0  0  0  0  0  0
   -5.1042   23.5634  -28.5910 H   0  0  0  0  0  0  0  0  0  0  0  0
   -0.3749   22.8883  -28.4973 H   0  0  0  0  0  0  0  0  0  0  0  0
    0.4187   20.6707  -29.2952 H   0  0  0  0  0  0  0  0  0  0  0  0
    0.2665   18.6137  -29.5272 H   0  0  0  0  0  0  0  0  0  0  0  0
    0.3718   17.4554  -30.8961 H   0  0  0  0  0  0  0  0  0  0  0  0
    1.3828   18.9402  -30.8961 H   0  0  0  0  0  0  0  0  0  0  0  0
  1  2  1  0
  2  3  1  0
  3  4  2  0
  3  5  1  0
  5  6  2  0
  6  7  1  0
  7  8  1  0
  8  9  2  0
  8 10  2  0
  8 11  1  0
 11 12  1  0
 12 13  2  0
 13 14  1  0
 14 15  2  0
 15 16  1  0
 16 17  2  0
 16 18  2  0
 16 19  1  0
 19 20  1  0
 20 21  1  0
 21 22  1  0
 22 23  1  0
 23 24  1  0
 15 25  1  0
 25 26  2  0
  7 27  2  0
 27 28  1  0
 28 29  2  0
 29 30  1  0
 30 31  1  0
 30 32  1  0
 32 33  2  0
 32  2  1  0
 29  5  1  0
 26 12  1  0
 24 19  1  0
  1 34  1  0
  1 35  1  0
  1 36  1  0
  6 37  1  0
 13 38  1  0
 14 39  1  0
 20 40  1  0
 20 41  1  0
 21 42  1  0
 21 43  1  0
 23 44  1  0
 23 45  1  0
 24 46  1  0
 24 47  1  0
 25 48  1  0
 26 49  1  0
 27 50  1  0
 28 51  1  0
 31 52  1  0
 31 53  1  0
 31 54  1  0
M  CHG  1  11  -1
M  END
>  <UniqueID>  (35) 
33

>  <SMILES>  (35) 
Cn1c(=O)c2cc(S(=O)(=O)[N-]c3ccc(S(=O)(=O)N4CCOCC4)cc3)ccc2n(C)c1=O

>  <Energy>  (35) 
86.45698856022712

>  <Genealogy>  (35) 
Cn1c(=O)c2cc(S(=O)(=O)[N-]c3ccc(S(=O)(=O)N4CCOCC4)cc3)ccc2n(C)c1=O (protonated)
Cn1c(=O)c2cc(S(=O)(=O)[N-]c3ccc(S(=O)(=O)N4CCOCC4)cc3)ccc2n(C)c1=O (3D coordinates assigned)
Cn1c(=O)c2cc(S(=O)(=O)[N-]c3ccc(S(=O)(=O)N4CCOCC4)cc3)ccc2n(C)c1=O (nonaromatic ring conformer: 86.45698856022712 kcal/mol)

>  <smiles>  (35) 
Cn1c(=O)c2cc(S(=O)(=O)Nc3ccc(S(=O)(=O)N4CCOCC4)cc3)ccc2n(C)c1=O

>  <score_type>  (35) 
oracle

>  <origin>  (35) 
adgpu

>  <m_score__min__energy>  (35) 
-11.66

>  <m_primary>  (35) 
energy

$$$$
35:0
     RDKit          3D

 31 32  0  0  0  0  0  0  0  0999 V2000
   -5.5600   20.2330  -32.5350 C   0  0  0  0  0  0  0  0  0  0  0  0
   -6.1040   21.5090  -31.9720 C   0  0  0  0  0  0  0  0  0  0  0  0
   -5.2770   22.5670  -31.5640 C   0  0  0  0  0  0  0  0  0  0  0  0
   -5.9820   23.6300  -31.0190 C   0  0  0  0  0  0  0  0  0  0  0  0
   -5.2720   25.0890  -30.3570 S   0  0  0  0  0  0  0  0  0  0  0  0
   -5.7260   25.2930  -28.9380 O   0  0  0  0  0  0  0  0  0  0  0  0
   -5.7050   26.2630  -31.1880 O   0  0  0  0  0  0  0  0  0  0  0  0
   -3.5420   24.9710  -30.3930 N   0  0  0  0  0  0  0  0  0  0  0  0
   -2.7410   24.2570  -29.4400 C   0  0  0  0  0  0  0  0  0  0  0  0
   -3.0800   22.9630  -29.0020 C   0  0  0  0  0  0  0  0  0  0  0  0
   -2.2640   22.2920  -28.0820 C   0  0  0  0  0  0  0  0  0  0  0  0
   -2.6110   20.9650  -27.6440 C   0  0  0  0  0  0  0  0  0  0  0  0
   -2.8900   19.8980  -27.2930 N   0  0  0  0  0  0  0  0  0  0  0  0
   -1.1100   22.9120  -27.5890 C   0  0  0  0  0  0  0  0  0  0  0  0
   -0.7730   24.2000  -28.0140 C   0  0  0  0  0  0  0  0  0  0  0  0
   -1.5840   24.8710  -28.9350 C   0  0  0  0  0  0  0  0  0  0  0  0
   -1.2320   26.1500  -29.3510 O   0  0  0  0  0  0  0  0  0  0  0  0
   -7.6230   23.2680  -31.0160 S   0  0  0  0  0  0  0  0  0  0  0  0
   -7.4580   21.7500  -31.7230 C   0  0  0  0  0  0  0  0  0  0  0  0
   -8.8020   20.6620  -32.0440 S   0  0  0  0  0  0  0  0  0  0  0  0
   -8.4330   19.6490  -33.3950 N   0  0  0  0  0  0  0  0  0  0  0  0
  -10.0450   21.4580  -32.3220 O   0  0  0  0  0  0  0  0  0  0  0  0
   -9.0380   19.7960  -30.8380 O   0  0  0  0  0  0  0  0  0  0  0  0
   -5.2738   19.5617  -31.7119 H   0  0  0  0  0  0  0  0  0  0  0  0
   -6.3294   19.7476  -33.1534 H   0  0  0  0  0  0  0  0  0  0  0  0
   -4.6770   20.4521  -33.1534 H   0  0  0  0  0  0  0  0  0  0  0  0
   -4.1818   22.5545  -31.6660 H   0  0  0  0  0  0  0  0  0  0  0  0
   -3.9897   22.4765  -29.3838 H   0  0  0  0  0  0  0  0  0  0  0  0
   -0.4684   22.3855  -26.8671 H   0  0  0  0  0  0  0  0  0  0  0  0
    0.1324   24.6873  -27.6232 H   0  0  0  0  0  0  0  0  0  0  0  0
   -8.4170   20.2580  -34.2430 H   0  0  0  0  0  0  0  0  0  0  0  0
  1  2  1  0
  2  3  1  0
  3  4  2  0
  4  5  1  0
  5  6  2  0
  5  7  2  0
  5  8  1  0
  8  9  1  0
  9 10  2  0
 10 11  1  0
 11 12  1  0
 12 13  3  0
 11 14  2  0
 14 15  1  0
 15 16  2  0
 16 17  1  0
  4 18  1  0
 18 19  1  0
 19 20  1  0
 20 21  1  0
 20 22  2  0
 20 23  2  0
 19  2  2  0
 16  9  1  0
  1 24  1  0
  1 25  1  0
  1 26  1  0
  3 27  1  0
 10 28  1  0
 14 29  1  0
 15 30  1  0
 21 31  1  0
M  CHG  3   8  -1  17  -1  21  -1
M  END
>  <UniqueID>  (36) 
34

>  <SMILES>  (36) 
Cc1cc(S(=O)(=O)[N-]c2cc(C#N)ccc2[O-])sc1S([NH-])(=O)=O

>  <Energy>  (36) 
58.87224532283619

>  <Genealogy>  (36) 
Cc1cc(S(=O)(=O)[N-]c2cc(C#N)ccc2[O-])sc1S([NH-])(=O)=O (protonated)
Cc1cc(S(=O)(=O)[N-]c2cc(C#N)ccc2[O-])sc1S([NH-])(=O)=O (3D coordinates assigned)
Cc1cc(S(=O)(=O)[N-]c2cc(C#N)ccc2[O-])sc1S([NH-])(=O)=O (optimized conformer: 58.87224532283619 kcal/mol)

>  <smiles>  (36) 
Cc1cc(S(=O)(=O)Nc2cc(C#N)ccc2O)sc1S(N)(=O)=O

>  <score_type>  (36) 
oracle

>  <origin>  (36) 
adgpu

>  <m_score__min__energy>  (36) 
-13.09

>  <m_primary>  (36) 
energy

$$$$
36:0
     RDKit          3D

 38 41  0  0  0  0  0  0  0  0999 V2000
   -1.8410   26.0650  -28.7760 O   0  0  0  0  0  0  0  0  0  0  0  0
   -2.1760   24.8400  -29.3410 C   0  0  0  0  0  0  0  0  0  0  0  0
   -3.4860   24.6000  -29.7630 C   0  0  0  0  0  0  0  0  0  0  0  0
   -3.8250   23.3680  -30.3310 C   0  0  0  0  0  0  0  0  0  0  0  0
   -2.8580   22.3580  -30.4710 C   0  0  0  0  0  0  0  0  0  0  0  0
   -3.2360   21.0600  -31.0720 C   0  0  0  0  0  0  0  0  0  0  0  0
   -2.3330   20.1140  -31.4000 N   0  0  0  0  0  0  0  0  0  0  0  0
   -2.9700   19.1670  -32.0230 O   0  0  0  0  0  0  0  0  0  0  0  0
   -4.2500   19.4370  -32.1310 C   0  0  0  0  0  0  0  0  0  0  0  0
   -5.2000   18.5740  -32.8700 C   0  0  0  0  0  0  0  0  0  0  0  0
   -5.0240   18.2720  -34.2290 C   0  0  0  0  0  0  0  0  0  0  0  0
   -5.9510   17.4530  -34.8800 C   0  0  0  0  0  0  0  0  0  0  0  0
   -7.0230   16.9630  -34.2040 N   0  0  0  0  0  0  0  0  0  0  0  0
   -7.2280   17.2500  -32.8920 C   0  0  0  0  0  0  0  0  0  0  0  0
   -6.3250   18.0650  -32.2030 C   0  0  0  0  0  0  0  0  0  0  0  0
   -4.4930   20.6550  -31.5070 C   0  0  0  0  0  0  0  0  0  0  0  0
   -5.6900   21.5020  -31.6490 C   0  0  0  0  0  0  0  0  0  0  0  0
   -6.8230   21.2540  -30.8580 C   0  0  0  0  0  0  0  0  0  0  0  0
   -7.9610   22.0530  -30.9880 C   0  0  0  0  0  0  0  0  0  0  0  0
   -7.9770   23.1040  -31.9080 C   0  0  0  0  0  0  0  0  0  0  0  0
   -6.8550   23.3580  -32.7020 C   0  0  0  0  0  0  0  0  0  0  0  0
   -5.7070   22.5600  -32.5760 C   0  0  0  0  0  0  0  0  0  0  0  0
   -4.5870   22.8140  -33.3680 O   0  0  0  0  0  0  0  0  0  0  0  0
   -1.5380   22.6160  -30.0600 C   0  0  0  0  0  0  0  0  0  0  0  0
   -1.2020   23.8500  -29.4920 C   0  0  0  0  0  0  0  0  0  0  0  0
   -4.2518   25.3813  -29.6483 H   0  0  0  0  0  0  0  0  0  0  0  0
   -4.8557   23.1882  -30.6706 H   0  0  0  0  0  0  0  0  0  0  0  0
   -4.1617   18.6773  -34.7787 H   0  0  0  0  0  0  0  0  0  0  0  0
   -5.8123   17.2045  -35.9425 H   0  0  0  0  0  0  0  0  0  0  0  0
   -8.1060   16.8404  -32.3710 H   0  0  0  0  0  0  0  0  0  0  0  0
   -6.4954   18.3061  -31.1434 H   0  0  0  0  0  0  0  0  0  0  0  0
   -6.8144   20.4269  -30.1328 H   0  0  0  0  0  0  0  0  0  0  0  0
   -8.8457   21.8545  -30.3652 H   0  0  0  0  0  0  0  0  0  0  0  0
   -8.8740   23.7328  -32.0078 H   0  0  0  0  0  0  0  0  0  0  0  0
   -6.8716   24.1850  -33.4271 H   0  0  0  0  0  0  0  0  0  0  0  0
   -4.5090   22.4470  -34.3080 H   0  0  0  0  0  0  0  0  0  0  0  0
   -0.7652   21.8433  -30.1857 H   0  0  0  0  0  0  0  0  0  0  0  0
   -0.1695   24.0407  -29.1640 H   0  0  0  0  0  0  0  0  0  0  0  0
  1  2  1  0
  2  3  2  0
  3  4  1  0
  4  5  2  0
  5  6  1  0
  6  7  2  0
  7  8  1  0
  8  9  1  0
  9 10  1  0
 10 11  2  0
 11 12  1  0
 12 13  2  0
 13 14  1  0
 14 15  2  0
  9 16  2  0
 16 17  1  0
 17 18  2  0
 18 19  1  0
 19 20  2  0
 20 21  1  0
 21 22  2  0
 22 23  1  0
  5 24  1  0
 24 25  2  0
 25  2  1  0
 16  6  1  0
 22 17  1  0
 15 10  1  0
  3 26  1  0
  4 27  1  0
 11 28  1  0
 12 29  1  0
 14 30  1  0
 15 31  1  0
 18 32  1  0
 19 33  1  0
 20 34  1  0
 21 35  1  0
 23 36  1  0
 24 37  1  0
 25 38  1  0
M  CHG  1   1  -1
M  END
>  <UniqueID>  (37) 
35

>  <SMILES>  (37) 
[O-]c1ccc(-c2noc(-c3ccncc3)c2-c2ccccc2O)cc1

>  <Energy>  (37) 
89.57022381200848

>  <Genealogy>  (37) 
[O-]c1ccc(-c2noc(-c3ccncc3)c2-c2ccccc2O)cc1 (protonated)
[O-]c1ccc(-c2noc(-c3ccncc3)c2-c2ccccc2O)cc1 (3D coordinates assigned)
[O-]c1ccc(-c2noc(-c3ccncc3)c2-c2ccccc2O)cc1 (optimized conformer: 89.57022381200848 kcal/mol)

>  <smiles>  (37) 
Oc1ccc(-c2noc(-c3ccncc3)c2-c2ccccc2O)cc1

>  <score_type>  (37) 
oracle

>  <origin>  (37) 
adgpu

>  <m_score__min__energy>  (37) 
-10.300000000000001

>  <m_primary>  (37) 
energy

$$$$
37:0
     RDKit          3D

 57 60  0  0  0  0  0  0  0  0999 V2000
   -1.5050   25.5380  -29.3350 O   0  0  0  0  0  0  0  0  0  0  0  0
   -2.6220   24.5480  -29.2000 S   0  0  0  0  0  0  0  0  0  0  0  0
   -3.1550   24.5910  -27.7940 O   0  0  0  0  0  0  0  0  0  0  0  0
   -3.8980   24.9710  -30.3020 N   0  0  0  0  0  0  0  0  0  0  0  0
   -5.0130   24.1340  -30.6370 C   0  0  0  0  0  0  0  0  0  0  0  0
   -5.7450   23.5460  -29.6030 C   0  0  0  0  0  0  0  0  0  0  0  0
   -6.9030   22.8150  -29.8790 C   0  0  0  0  0  0  0  0  0  0  0  0
   -7.3430   22.6620  -31.1980 C   0  0  0  0  0  0  0  0  0  0  0  0
   -8.8680   21.8330  -31.5320 S   0  0  0  0  0  0  0  0  0  0  0  0
   -9.7340   22.7320  -32.3680 O   0  0  0  0  0  0  0  0  0  0  0  0
   -9.5810   21.5880  -30.2310 O   0  0  0  0  0  0  0  0  0  0  0  0
   -8.6610   20.3050  -32.3530 N   0  0  0  0  0  0  0  0  0  0  0  0
   -7.3390   20.1820  -32.9600 C   0  0  0  0  0  0  0  0  0  0  0  0
   -7.0920   18.6930  -33.1280 C   0  0  0  0  0  0  0  0  0  0  0  0
   -7.9900   18.0260  -32.0940 C   0  0  0  0  0  0  0  0  0  0  0  0
   -8.7800   19.1610  -31.4510 C   0  0  0  0  0  0  0  0  0  0  0  0
   -6.5870   23.2090  -32.2420 C   0  0  0  0  0  0  0  0  0  0  0  0
   -5.4150   23.9220  -31.9670 C   0  0  0  0  0  0  0  0  0  0  0  0
   -1.9990   22.9470  -29.5910 C   0  0  0  0  0  0  0  0  0  0  0  0
   -0.6390   22.6680  -29.4010 C   0  0  0  0  0  0  0  0  0  0  0  0
   -0.0960   21.4660  -29.8620 C   0  0  0  0  0  0  0  0  0  0  0  0
   -0.9140   20.5270  -30.5050 C   0  0  0  0  0  0  0  0  0  0  0  0
   -0.2230   19.0790  -31.2260 S   0  0  0  0  0  0  0  0  0  0  0  0
   -1.1870   18.4830  -32.2130 O   0  0  0  0  0  0  0  0  0  0  0  0
    1.0350   19.4640  -31.9540 O   0  0  0  0  0  0  0  0  0  0  0  0
    0.1590   17.9180  -29.9710 N   0  0  0  0  0  0  0  0  0  0  0  0
    1.5630   17.4660  -30.0470 C   0  0  0  0  0  0  0  0  0  0  0  0
    2.5570   18.5430  -29.5410 C   0  0  0  0  0  0  0  0  0  0  0  0
    1.9560   19.5290  -28.7180 O   0  0  0  0  0  0  0  0  0  0  0  0
    1.0240   18.9310  -27.8400 C   0  0  0  0  0  0  0  0  0  0  0  0
   -0.1980   18.4250  -28.6250 C   0  0  0  0  0  0  0  0  0  0  0  0
   -2.2820   20.7850  -30.6530 C   0  0  0  0  0  0  0  0  0  0  0  0
   -2.8230   21.9910  -30.1990 C   0  0  0  0  0  0  0  0  0  0  0  0
   -5.4068   23.6595  -28.5625 H   0  0  0  0  0  0  0  0  0  0  0  0
   -7.4713   22.3578  -29.0556 H   0  0  0  0  0  0  0  0  0  0  0  0
   -7.3192   20.6854  -33.9379 H   0  0  0  0  0  0  0  0  0  0  0  0
   -6.5640   20.6509  -32.3358 H   0  0  0  0  0  0  0  0  0  0  0  0
   -7.3636   18.3681  -34.1432 H   0  0  0  0  0  0  0  0  0  0  0  0
   -6.0331   18.4310  -32.9865 H   0  0  0  0  0  0  0  0  0  0  0  0
   -8.6701   17.3105  -32.5793 H   0  0  0  0  0  0  0  0  0  0  0  0
   -7.4084   17.4605  -31.3511 H   0  0  0  0  0  0  0  0  0  0  0  0
   -9.8357   18.8737  -31.3372 H   0  0  0  0  0  0  0  0  0  0  0  0
   -8.3940   19.3997  -30.4490 H   0  0  0  0  0  0  0  0  0  0  0  0
   -6.9161   23.0775  -33.2833 H   0  0  0  0  0  0  0  0  0  0  0  0
   -4.8067   24.3176  -32.7937 H   0  0  0  0  0  0  0  0  0  0  0  0
    0.0035   23.3980  -28.8870 H   0  0  0  0  0  0  0  0  0  0  0  0
    0.9745   21.2565  -29.7201 H   0  0  0  0  0  0  0  0  0  0  0  0
    1.6773   16.5620  -29.4308 H   0  0  0  0  0  0  0  0  0  0  0  0
    1.7946   17.2646  -31.1033 H   0  0  0  0  0  0  0  0  0  0  0  0
    3.3475   18.0422  -28.9628 H   0  0  0  0  0  0  0  0  0  0  0  0
    2.9511   19.0602  -30.4283 H   0  0  0  0  0  0  0  0  0  0  0  0
    1.5014   18.0839  -27.3257 H   0  0  0  0  0  0  0  0  0  0  0  0
    0.6930   19.6793  -27.1048 H   0  0  0  0  0  0  0  0  0  0  0  0
   -0.6699   17.6107  -28.0556 H   0  0  0  0  0  0  0  0  0  0  0  0
   -0.8825   19.2754  -28.7602 H   0  0  0  0  0  0  0  0  0  0  0  0
   -2.9330   20.0363  -31.1280 H   0  0  0  0  0  0  0  0  0  0  0  0
   -3.8981   22.1900  -30.3193 H   0  0  0  0  0  0  0  0  0  0  0  0
  1  2  2  0
  2  3  2  0
  2  4  1  0
  4  5  1  0
  5  6  2  0
  6  7  1  0
  7  8  2  0
  8  9  1  0
  9 10  2  0
  9 11  2  0
  9 12  1  0
 12 13  1  0
 13 14  1  0
 14 15  1  0
 15 16  1  0
  8 17  1  0
 17 18  2  0
  2 19  1  0
 19 20  2  0
 20 21  1  0
 21 22  2  0
 22 23  1  0
 23 24  2  0
 23 25  2  0
 23 26  1  0
 26 27  1  0
 27 28  1  0
 28 29  1  0
 29 30  1  0
 30 31  1  0
 22 32  1  0
 32 33  2  0
 18  5  1  0
 33 19  1  0
 16 12  1  0
 31 26  1  0
  6 34  1  0
  7 35  1  0
 13 36  1  0
 13 37  1  0
 14 38  1  0
 14 39  1  0
 15 40  1  0
 15 41  1  0
 16 42  1  0
 16 43  1  0
 17 44  1  0
 18 45  1  0
 20 46  1  0
 21 47  1  0
 27 48  1  0
 27 49  1  0
 28 50  1  0
 28 51  1  0
 30 52  1  0
 30 53  1  0
 31 54  1  0
 31 55  1  0
 32 56  1  0
 33 57  1  0
M  CHG  1   4  -1
M  END
>  <UniqueID>  (38) 
36

>  <SMILES>  (38) 
O=S(=O)([N-]c1ccc(S(=O)(=O)N2CCCC2)cc1)c1ccc(S(=O)(=O)N2CCOCC2)cc1

>  <Energy>  (38) 
74.49926661368455

>  <Genealogy>  (38) 
O=S(=O)([N-]c1ccc(S(=O)(=O)N2CCCC2)cc1)c1ccc(S(=O)(=O)N2CCOCC2)cc1 (protonated)
O=S(=O)([N-]c1ccc(S(=O)(=O)N2CCCC2)cc1)c1ccc(S(=O)(=O)N2CCOCC2)cc1 (3D coordinates assigned)
O=S(=O)([N-]c1ccc(S(=O)(=O)N2CCCC2)cc1)c1ccc(S(=O)(=O)N2CCOCC2)cc1 (nonaromatic ring conformer: 74.49926661368455 kcal/mol)

>  <smiles>  (38) 
O=S(=O)(Nc1ccc(S(=O)(=O)N2CCCC2)cc1)c1ccc(S(=O)(=O)N2CCOCC2)cc1

>  <score_type>  (38) 
oracle

>  <origin>  (38) 
adgpu

>  <m_score__min__energy>  (38) 
-11.69

>  <m_primary>  (38) 
energy

$$$$
38:0
     RDKit          3D

 60 63  0  0  0  0  0  0  0  0999 V2000
   -5.6010   26.2710  -30.1420 O   0  0  0  0  0  0  0  0  0  0  0  0
   -4.9920   25.2100  -30.4470 C   0  0  0  0  0  0  0  0  0  0  0  0
   -3.5580   25.1890  -30.4640 N   0  0  0  0  0  0  0  0  0  0  0  0
   -2.7230   24.4280  -29.5810 C   0  0  0  0  0  0  0  0  0  0  0  0
   -3.0040   23.0660  -29.4070 C   0  0  0  0  0  0  0  0  0  0  0  0
   -2.2180   22.2790  -28.5540 C   0  0  0  0  0  0  0  0  0  0  0  0
   -2.5500   20.5590  -28.3630 S   0  0  0  0  0  0  0  0  0  0  0  0
   -3.3490   20.0550  -29.5340 O   0  0  0  0  0  0  0  0  0  0  0  0
   -3.3590   20.3620  -27.1100 O   0  0  0  0  0  0  0  0  0  0  0  0
   -1.0450   19.6830  -28.2410 N   0  0  0  0  0  0  0  0  0  0  0  0
   -1.2330   18.4900  -27.3870 C   0  0  0  0  0  0  0  0  0  0  0  0
   -0.0620   17.4880  -27.5010 C   0  0  0  0  0  0  0  0  0  0  0  0
    1.1760   18.1340  -28.1270 C   0  0  0  0  0  0  0  0  0  0  0  0
    0.8510   18.7240  -29.5090 C   0  0  0  0  0  0  0  0  0  0  0  0
   -0.5760   19.3010  -29.5830 C   0  0  0  0  0  0  0  0  0  0  0  0
   -1.1490   22.8610  -27.8650 C   0  0  0  0  0  0  0  0  0  0  0  0
   -0.8850   24.2250  -28.0010 C   0  0  0  0  0  0  0  0  0  0  0  0
   -1.6780   25.0200  -28.8430 C   0  0  0  0  0  0  0  0  0  0  0  0
   -1.4470   26.3930  -28.9160 O   0  0  0  0  0  0  0  0  0  0  0  0
   -5.7570   24.0030  -30.8400 C   0  0  0  0  0  0  0  0  0  0  0  0
   -7.0750   23.8180  -30.3920 C   0  0  0  0  0  0  0  0  0  0  0  0
   -7.7960   22.6850  -30.7690 C   0  0  0  0  0  0  0  0  0  0  0  0
   -7.2220   21.7130  -31.5940 C   0  0  0  0  0  0  0  0  0  0  0  0
   -8.3340   20.2220  -32.0660 Br  0  0  0  0  0  0  0  0  0  0  0  0
   -5.8920   21.8780  -32.0490 C   0  0  0  0  0  0  0  0  0  0  0  0
   -5.0750   20.7190  -33.1160 S   0  0  0  0  0  0  0  0  0  0  0  0
   -3.9190   21.3580  -33.8310 O   0  0  0  0  0  0  0  0  0  0  0  0
   -6.0660   20.2760  -34.1570 O   0  0  0  0  0  0  0  0  0  0  0  0
   -4.5580   19.3230  -32.1890 N   0  0  0  0  0  0  0  0  0  0  0  0
   -3.3590   18.6740  -32.7500 C   0  0  0  0  0  0  0  0  0  0  0  0
   -3.7000   17.7140  -33.9000 C   0  0  0  0  0  0  0  0  0  0  0  0
   -4.6580   16.7610  -33.4880 O   0  0  0  0  0  0  0  0  0  0  0  0
   -5.8620   17.4200  -33.1550 C   0  0  0  0  0  0  0  0  0  0  0  0
   -5.6550   18.3620  -31.9590 C   0  0  0  0  0  0  0  0  0  0  0  0
   -5.1800   23.0280  -31.6710 C   0  0  0  0  0  0  0  0  0  0  0  0
   -3.8488   22.6106  -29.9446 H   0  0  0  0  0  0  0  0  0  0  0  0
   -1.3173   18.8159  -26.3398 H   0  0  0  0  0  0  0  0  0  0  0  0
   -2.1450   17.9772  -27.7265 H   0  0  0  0  0  0  0  0  0  0  0  0
    0.1955   17.1245  -26.4952 H   0  0  0  0  0  0  0  0  0  0  0  0
   -0.3816   16.6590  -28.1496 H   0  0  0  0  0  0  0  0  0  0  0  0
    1.5341   18.9384  -27.4677 H   0  0  0  0  0  0  0  0  0  0  0  0
    1.9501   17.3620  -28.2490 H   0  0  0  0  0  0  0  0  0  0  0  0
    1.5687   19.5287  -29.7268 H   0  0  0  0  0  0  0  0  0  0  0  0
    0.9211   17.9097  -30.2452 H   0  0  0  0  0  0  0  0  0  0  0  0
   -0.5749   20.1885  -30.2329 H   0  0  0  0  0  0  0  0  0  0  0  0
   -1.2503   18.5341  -29.9919 H   0  0  0  0  0  0  0  0  0  0  0  0
   -0.5143   22.2420  -27.2139 H   0  0  0  0  0  0  0  0  0  0  0  0
   -0.0512   24.6790  -27.4454 H   0  0  0  0  0  0  0  0  0  0  0  0
   -1.2410   26.8520  -29.7960 H   0  0  0  0  0  0  0  0  0  0  0  0
   -7.5416   24.5710  -29.7399 H   0  0  0  0  0  0  0  0  0  0  0  0
   -8.8286   22.5547  -30.4130 H   0  0  0  0  0  0  0  0  0  0  0  0
   -2.6798   19.4522  -33.1284 H   0  0  0  0  0  0  0  0  0  0  0  0
   -2.8887   18.0855  -31.9485 H   0  0  0  0  0  0  0  0  0  0  0  0
   -4.1050   18.2914  -34.7442 H   0  0  0  0  0  0  0  0  0  0  0  0
   -2.7839   17.1860  -34.2031 H   0  0  0  0  0  0  0  0  0  0  0  0
   -6.2039   18.0061  -34.0208 H   0  0  0  0  0  0  0  0  0  0  0  0
   -6.6141   16.6647  -32.8832 H   0  0  0  0  0  0  0  0  0  0  0  0
   -6.5855   18.9219  -31.7839 H   0  0  0  0  0  0  0  0  0  0  0  0
   -5.3877   17.7469  -31.0871 H   0  0  0  0  0  0  0  0  0  0  0  0
   -4.1506   23.1681  -32.0325 H   0  0  0  0  0  0  0  0  0  0  0  0
  1  2  2  0
  2  3  1  0
  3  4  1  0
  4  5  2  0
  5  6  1  0
  6  7  1  0
  7  8  2  0
  7  9  2  0
  7 10  1  0
 10 11  1  0
 11 12  1  0
 12 13  1  0
 13 14  1  0
 14 15  1  0
  6 16  2  0
 16 17  1  0
 17 18  2  0
 18 19  1  0
  2 20  1  0
 20 21  2  0
 21 22  1  0
 22 23  2  0
 23 24  1  0
 23 25  1  0
 25 26  1  0
 26 27  2  0
 26 28  2  0
 26 29  1  0
 29 30  1  0
 30 31  1  0
 31 32  1  0
 32 33  1  0
 33 34  1  0
 25 35  2  0
 18  4  1  0
 35 20  1  0
 15 10  1  0
 34 29  1  0
  5 36  1  0
 11 37  1  0
 11 38  1  0
 12 39  1  0
 12 40  1  0
 13 41  1  0
 13 42  1  0
 14 43  1  0
 14 44  1  0
 15 45  1  0
 15 46  1  0
 16 47  1  0
 17 48  1  0
 19 49  1  0
 21 50  1  0
 22 51  1  0
 30 52  1  0
 30 53  1  0
 31 54  1  0
 31 55  1  0
 33 56  1  0
 33 57  1  0
 34 58  1  0
 34 59  1  0
 35 60  1  0
M  CHG  1   3  -1
M  END
>  <UniqueID>  (39) 
37

>  <SMILES>  (39) 
O=C([N-]c1cc(S(=O)(=O)N2CCCCC2)ccc1O)c1ccc(Br)c(S(=O)(=O)N2CCOCC2)c1

>  <Energy>  (39) 
78.83567323984455

>  <Genealogy>  (39) 
O=C([N-]c1cc(S(=O)(=O)N2CCCCC2)ccc1O)c1ccc(Br)c(S(=O)(=O)N2CCOCC2)c1 (protonated)
O=C([N-]c1cc(S(=O)(=O)N2CCCCC2)ccc1O)c1ccc(Br)c(S(=O)(=O)N2CCOCC2)c1 (3D coordinates assigned)
O=C([N-]c1cc(S(=O)(=O)N2CCCCC2)ccc1O)c1ccc(Br)c(S(=O)(=O)N2CCOCC2)c1 (nonaromatic ring conformer: 78.83567323984455 kcal/mol)

>  <smiles>  (39) 
O=C(Nc1cc(S(=O)(=O)N2CCCCC2)ccc1O)c1ccc(Br)c(S(=O)(=O)N2CCOCC2)c1

>  <score_type>  (39) 
oracle

>  <origin>  (39) 
adgpu

>  <m_score__min__energy>  (39) 
-13.369999999999999

>  <m_primary>  (39) 
energy

$$$$
39:0
     RDKit          3D

 64 68  0  0  0  0  0  0  0  0999 V2000
   -9.2050   22.4970  -32.1660 C   0  0  0  0  0  0  0  0  0  0  0  0
   -7.8650   22.9340  -31.6570 C   0  0  0  0  0  0  0  0  0  0  0  0
   -7.7680   24.0980  -30.9630 N   0  0  0  0  0  0  0  0  0  0  0  0
   -6.5850   24.5580  -30.4830 C   0  0  0  0  0  0  0  0  0  0  0  0
   -5.3990   23.8370  -30.6920 C   0  0  0  0  0  0  0  0  0  0  0  0
   -4.1040   24.3800  -30.1400 C   0  0  0  0  0  0  0  0  0  0  0  0
   -3.8920   25.6720  -30.6370 O   0  0  0  0  0  0  0  0  0  0  0  0
   -5.4630   22.6340  -31.4380 C   0  0  0  0  0  0  0  0  0  0  0  0
   -4.3310   21.8680  -31.7500 C   0  0  0  0  0  0  0  0  0  0  0  0
   -4.4510   20.6870  -32.4930 C   0  0  0  0  0  0  0  0  0  0  0  0
   -3.1990   20.0350  -32.9220 C   0  0  0  0  0  0  0  0  0  0  0  0
   -3.0310   19.7830  -34.1460 O   0  0  0  0  0  0  0  0  0  0  0  0
   -2.1950   19.7020  -31.9530 N   0  0  0  0  0  0  0  0  0  0  0  0
   -1.7070   20.5290  -30.8840 C   0  0  0  0  0  0  0  0  0  0  0  0
   -1.6290   20.0790  -29.5530 C   0  0  0  0  0  0  0  0  0  0  0  0
   -1.0800   20.8980  -28.5640 C   0  0  0  0  0  0  0  0  0  0  0  0
   -0.6230   22.1840  -28.8850 C   0  0  0  0  0  0  0  0  0  0  0  0
    0.1420   23.1930  -27.6570 S   0  0  0  0  0  0  0  0  0  0  0  0
    0.4520   24.5430  -28.2440 O   0  0  0  0  0  0  0  0  0  0  0  0
    1.4380   22.5480  -27.2560 O   0  0  0  0  0  0  0  0  0  0  0  0
   -0.8800   23.3630  -26.2360 N   0  0  0  0  0  0  0  0  0  0  0  0
   -0.8770   24.7450  -25.7120 C   0  0  0  0  0  0  0  0  0  0  0  0
    0.4780   25.1080  -25.0570 C   0  0  0  0  0  0  0  0  0  0  0  0
    1.2360   23.9780  -24.6530 O   0  0  0  0  0  0  0  0  0  0  0  0
    0.3960   22.9880  -24.0980 C   0  0  0  0  0  0  0  0  0  0  0  0
   -0.5110   22.3800  -25.1860 C   0  0  0  0  0  0  0  0  0  0  0  0
   -0.7480   22.6540  -30.1970 C   0  0  0  0  0  0  0  0  0  0  0  0
   -1.2980   21.8350  -31.1860 C   0  0  0  0  0  0  0  0  0  0  0  0
   -5.7580   20.2550  -32.8680 C   0  0  0  0  0  0  0  0  0  0  0  0
   -6.0280   19.1190  -33.4560 N   0  0  0  0  0  0  0  0  0  0  0  0
   -5.1950   17.9760  -33.6880 C   0  0  0  0  0  0  0  0  0  0  0  0
   -4.9310   17.0500  -32.6650 C   0  0  0  0  0  0  0  0  0  0  0  0
   -4.1500   15.9170  -32.9260 C   0  0  0  0  0  0  0  0  0  0  0  0
   -3.6640   15.6810  -34.2150 C   0  0  0  0  0  0  0  0  0  0  0  0
   -3.9730   16.5710  -35.2480 C   0  0  0  0  0  0  0  0  0  0  0  0
   -4.7450   17.7090  -34.9880 C   0  0  0  0  0  0  0  0  0  0  0  0
   -6.7960   21.0390  -32.5920 O   0  0  0  0  0  0  0  0  0  0  0  0
   -6.7090   22.1800  -31.9150 C   0  0  0  0  0  0  0  0  0  0  0  0
   -9.8678   22.2809  -31.3151 H   0  0  0  0  0  0  0  0  0  0  0  0
   -9.6439   23.2986  -32.7783 H   0  0  0  0  0  0  0  0  0  0  0  0
   -9.0870   21.5908  -32.7783 H   0  0  0  0  0  0  0  0  0  0  0  0
   -6.5552   25.5053  -29.9246 H   0  0  0  0  0  0  0  0  0  0  0  0
   -4.1586   24.4136  -29.0419 H   0  0  0  0  0  0  0  0  0  0  0  0
   -3.2724   23.7279  -30.4451 H   0  0  0  0  0  0  0  0  0  0  0  0
   -4.1740   25.6530  -31.5900 H   0  0  0  0  0  0  0  0  0  0  0  0
   -3.3389   22.1978  -31.4079 H   0  0  0  0  0  0  0  0  0  0  0  0
   -2.0020   19.0780  -29.2905 H   0  0  0  0  0  0  0  0  0  0  0  0
   -1.0058   20.5327  -27.5291 H   0  0  0  0  0  0  0  0  0  0  0  0
   -1.8570   23.1490  -26.5500 H   0  0  0  0  0  0  0  0  0  0  0  0
   -1.0692   25.4410  -26.5419 H   0  0  0  0  0  0  0  0  0  0  0  0
   -1.6600   24.8211  -24.9431 H   0  0  0  0  0  0  0  0  0  0  0  0
    1.0717   25.6833  -25.7826 H   0  0  0  0  0  0  0  0  0  0  0  0
    0.2520   25.6857  -24.1486 H   0  0  0  0  0  0  0  0  0  0  0  0
    1.0153   22.1931  -23.6568 H   0  0  0  0  0  0  0  0  0  0  0  0
   -0.2354   23.4491  -23.3243 H   0  0  0  0  0  0  0  0  0  0  0  0
    0.0204   21.5413  -25.6596 H   0  0  0  0  0  0  0  0  0  0  0  0
   -1.4397   22.0482  -24.6987 H   0  0  0  0  0  0  0  0  0  0  0  0
   -0.4125   23.6705  -30.4502 H   0  0  0  0  0  0  0  0  0  0  0  0
   -1.4111   22.2185  -32.2108 H   0  0  0  0  0  0  0  0  0  0  0  0
   -5.3386   17.2151  -31.6567 H   0  0  0  0  0  0  0  0  0  0  0  0
   -3.9186   15.2113  -32.1146 H   0  0  0  0  0  0  0  0  0  0  0  0
   -3.0402   14.7976  -34.4162 H   0  0  0  0  0  0  0  0  0  0  0  0
   -3.6085   16.3763  -36.2674 H   0  0  0  0  0  0  0  0  0  0  0  0
   -4.9997   18.3969  -35.8077 H   0  0  0  0  0  0  0  0  0  0  0  0
  1  2  1  0
  2  3  2  0
  3  4  1  0
  4  5  2  0
  5  6  1  0
  6  7  1  0
  5  8  1  0
  8  9  1  0
  9 10  2  0
 10 11  1  0
 11 12  2  0
 11 13  1  0
 13 14  1  0
 14 15  2  0
 15 16  1  0
 16 17  2  0
 17 18  1  0
 18 19  2  0
 18 20  2  0
 18 21  1  0
 21 22  1  0
 22 23  1  0
 23 24  1  0
 24 25  1  0
 25 26  1  0
 17 27  1  0
 27 28  2  0
 10 29  1  0
 29 30  2  3
 30 31  1  0
 31 32  2  0
 32 33  1  0
 33 34  2  0
 34 35  1  0
 35 36  2  0
 29 37  1  0
 37 38  1  0
 38  2  1  0
 38  8  2  0
 28 14  1  0
 36 31  1  0
 26 21  1  0
  1 39  1  0
  1 40  1  0
  1 41  1  0
  4 42  1  0
  6 43  1  0
  6 44  1  0
  7 45  1  0
  9 46  1  0
 15 47  1  0
 16 48  1  0
 21 49  1  0
 22 50  1  0
 22 51  1  0
 23 52  1  0
 23 53  1  0
 25 54  1  0
 25 55  1  0
 26 56  1  0
 26 57  1  0
 27 58  1  0
 28 59  1  0
 32 60  1  0
 33 61  1  0
 34 62  1  0
 35 63  1  0
 36 64  1  0
M  CHG  2  13  -1  21   1
M  END
>  <UniqueID>  (40) 
38

>  <SMILES>  (40) 
Cc1ncc(CO)c2cc(C(=O)[N-]c3ccc(S(=O)(=O)[NH+]4CCOCC4)cc3)c(=Nc3ccccc3)oc12

>  <Energy>  (40) 
107.66426607724357

>  <Genealogy>  (40) 
Cc1ncc(CO)c2cc(C(=O)[N-]c3ccc(S(=O)(=O)[NH+]4CCOCC4)cc3)c(=Nc3ccccc3)oc12 (protonated)
Cc1ncc(CO)c2cc(C(=O)[N-]c3ccc(S(=O)(=O)[NH+]4CCOCC4)cc3)c(=Nc3ccccc3)oc12 (3D coordinates assigned)
Cc1ncc(CO)c2cc(C(=O)[N-]c3ccc(S(=O)(=O)[NH+]4CCOCC4)cc3)c(=Nc3ccccc3)oc12 (nonaromatic ring conformer: 107.66426607724357 kcal/mol)

>  <smiles>  (40) 
Cc1ncc(CO)c2cc(C(=O)Nc3ccc(S(=O)(=O)N4CCOCC4)cc3)c(=Nc3ccccc3)oc12

>  <score_type>  (40) 
oracle

>  <origin>  (40) 
adgpu

>  <m_score__min__energy>  (40) 
-11.44

>  <m_primary>  (40) 
energy

$$$$
40:0
     RDKit          3D

 39 42  0  0  0  0  0  0  0  0999 V2000
   -5.5100   24.3200  -31.8890 O   0  0  0  0  0  0  0  0  0  0  0  0
   -5.1110   23.5570  -30.9690 C   0  0  0  0  0  0  0  0  0  0  0  0
   -5.7510   22.2890  -30.7580 N   0  0  0  0  0  0  0  0  0  0  0  0
   -7.0200   21.9470  -31.3390 C   0  0  0  0  0  0  0  0  0  0  0  0
   -8.0200   22.9250  -31.4760 C   0  0  0  0  0  0  0  0  0  0  0  0
   -9.2870   22.5810  -31.9510 C   0  0  0  0  0  0  0  0  0  0  0  0
   -9.5750   21.2550  -32.2800 C   0  0  0  0  0  0  0  0  0  0  0  0
   -8.5910   20.2720  -32.1440 C   0  0  0  0  0  0  0  0  0  0  0  0
   -7.3080   20.6090  -31.6970 C   0  0  0  0  0  0  0  0  0  0  0  0
   -6.3490   19.5890  -31.6010 O   0  0  0  0  0  0  0  0  0  0  0  0
   -6.0790   18.6440  -32.6030 C   0  0  0  0  0  0  0  0  0  0  0  0
   -5.8320   19.0220  -33.9370 C   0  0  0  0  0  0  0  0  0  0  0  0
   -5.5540   18.0510  -34.9030 C   0  0  0  0  0  0  0  0  0  0  0  0
   -5.5350   16.6980  -34.5510 C   0  0  0  0  0  0  0  0  0  0  0  0
   -5.8000   16.3160  -33.2320 C   0  0  0  0  0  0  0  0  0  0  0  0
   -6.0760   17.2860  -32.2640 C   0  0  0  0  0  0  0  0  0  0  0  0
   -3.9310   23.9480  -30.1810 C   0  0  0  0  0  0  0  0  0  0  0  0
   -3.4900   25.2260  -30.0860 N   0  0  0  0  0  0  0  0  0  0  0  0
   -2.4060   25.2590  -29.3160 N   0  0  0  0  0  0  0  0  0  0  0  0
   -2.1620   24.0000  -28.9150 C   0  0  0  0  0  0  0  0  0  0  0  0
   -1.1440   23.5620  -28.0730 C   0  0  0  0  0  0  0  0  0  0  0  0
   -1.1070   22.1940  -27.7470 C   0  0  0  0  0  0  0  0  0  0  0  0
   -2.0860   21.3100  -28.2560 C   0  0  0  0  0  0  0  0  0  0  0  0
   -3.1050   21.7850  -29.1030 C   0  0  0  0  0  0  0  0  0  0  0  0
   -3.0970   23.1440  -29.4270 C   0  0  0  0  0  0  0  0  0  0  0  0
   -5.2030   21.5340  -30.2870 H   0  0  0  0  0  0  0  0  0  0  0  0
   -7.8028   23.9693  -31.2070 H   0  0  0  0  0  0  0  0  0  0  0  0
  -10.0594   23.3557  -32.0662 H   0  0  0  0  0  0  0  0  0  0  0  0
  -10.5763   20.9841  -32.6462 H   0  0  0  0  0  0  0  0  0  0  0  0
   -8.8264   19.2260  -32.3900 H   0  0  0  0  0  0  0  0  0  0  0  0
   -5.8580   20.0848  -34.2195 H   0  0  0  0  0  0  0  0  0  0  0  0
   -5.3499   18.3515  -35.9413 H   0  0  0  0  0  0  0  0  0  0  0  0
   -5.3118   15.9346  -35.3109 H   0  0  0  0  0  0  0  0  0  0  0  0
   -5.7912   15.2512  -32.9560 H   0  0  0  0  0  0  0  0  0  0  0  0
   -6.2921   16.9802  -31.2297 H   0  0  0  0  0  0  0  0  0  0  0  0
   -0.3939   24.2617  -27.6759 H   0  0  0  0  0  0  0  0  0  0  0  0
   -0.3113   21.8096  -27.0919 H   0  0  0  0  0  0  0  0  0  0  0  0
   -2.0511   20.2437  -27.9883 H   0  0  0  0  0  0  0  0  0  0  0  0
   -3.8799   21.1103  -29.4958 H   0  0  0  0  0  0  0  0  0  0  0  0
  1  2  2  0
  2  3  1  0
  3  4  1  0
  4  5  2  0
  5  6  1  0
  6  7  2  0
  7  8  1  0
  8  9  2  0
  9 10  1  0
 10 11  1  0
 11 12  2  0
 12 13  1  0
 13 14  2  0
 14 15  1  0
 15 16  2  0
  2 17  1  0
 17 18  1  0
 18 19  1  0
 19 20  2  0
 20 21  1  0
 21 22  2  0
 22 23  1  0
 23 24  2  0
 24 25  1  0
  9  4  1  0
 16 11  1  0
 25 17  2  0
 25 20  1  0
  3 26  1  0
  5 27  1  0
  6 28  1  0
  7 29  1  0
  8 30  1  0
 12 31  1  0
 13 32  1  0
 14 33  1  0
 15 34  1  0
 16 35  1  0
 21 36  1  0
 22 37  1  0
 23 38  1  0
 24 39  1  0
M  CHG  1  18  -1
M  END
>  <UniqueID>  (41) 
39

>  <SMILES>  (41) 
O=C(Nc1ccccc1Oc1ccccc1)c1[n-]nc2ccccc12

>  <Energy>  (41) 
94.38506564077286

>  <Genealogy>  (41) 
O=C(Nc1ccccc1Oc1ccccc1)c1[n-]nc2ccccc12 (protonated)
O=C(Nc1ccccc1Oc1ccccc1)c1[n-]nc2ccccc12 (3D coordinates assigned)
O=C(Nc1ccccc1Oc1ccccc1)c1[n-]nc2ccccc12 (optimized conformer: 94.38506564077286 kcal/mol)

>  <smiles>  (41) 
O=C(Nc1ccccc1Oc1ccccc1)c1[nH]nc2ccccc12

>  <score_type>  (41) 
oracle

>  <origin>  (41) 
adgpu

>  <m_score__min__energy>  (41) 
-10.85

>  <m_primary>  (41) 
energy

$$$$
41:0
     RDKit          3D

 56 58  0  0  0  0  0  0  0  0999 V2000
   -0.8740   26.5730  -28.2080 C   0  0  0  0  0  0  0  0  0  0  0  0
   -1.6660   25.6730  -28.9770 O   0  0  0  0  0  0  0  0  0  0  0  0
   -2.1490   24.4390  -28.5120 C   0  0  0  0  0  0  0  0  0  0  0  0
   -1.3740   23.6020  -27.6830 C   0  0  0  0  0  0  0  0  0  0  0  0
   -1.8810   22.3780  -27.2410 C   0  0  0  0  0  0  0  0  0  0  0  0
   -3.1580   21.9700  -27.6240 C   0  0  0  0  0  0  0  0  0  0  0  0
   -3.9360   22.7870  -28.4460 C   0  0  0  0  0  0  0  0  0  0  0  0
   -3.4470   24.0300  -28.8850 C   0  0  0  0  0  0  0  0  0  0  0  0
   -4.3140   24.9080  -29.7560 C   0  0  0  0  0  0  0  0  0  0  0  0
   -4.2210   24.5340  -31.1700 N   0  0  0  0  0  0  0  0  0  0  0  0
   -5.4920   23.4390  -31.6370 S   0  0  0  0  0  0  0  0  0  0  0  0
   -6.3130   23.1000  -30.4230 O   0  0  0  0  0  0  0  0  0  0  0  0
   -6.3910   24.1240  -32.6270 O   0  0  0  0  0  0  0  0  0  0  0  0
   -4.8480   21.9570  -32.3680 C   0  0  0  0  0  0  0  0  0  0  0  0
   -3.4750   21.8830  -32.6470 C   0  0  0  0  0  0  0  0  0  0  0  0
   -2.9230   20.7440  -33.2440 C   0  0  0  0  0  0  0  0  0  0  0  0
   -1.1930   20.6740  -33.5880 S   0  0  0  0  0  0  0  0  0  0  0  0
   -0.9180   19.5230  -34.5160 O   0  0  0  0  0  0  0  0  0  0  0  0
   -0.7760   21.9410  -34.2830 O   0  0  0  0  0  0  0  0  0  0  0  0
   -0.2530   20.4790  -32.1270 N   0  0  0  0  0  0  0  0  0  0  0  0
   -0.0830   19.0470  -31.8090 C   0  0  0  0  0  0  0  0  0  0  0  0
    0.2940   18.8570  -30.3370 C   0  0  0  0  0  0  0  0  0  0  0  0
   -0.7920   19.3180  -29.4410 N   0  0  0  0  0  0  0  0  0  0  0  0
   -0.2570   19.6550  -28.1130 C   0  0  0  0  0  0  0  0  0  0  0  0
   -1.5960   20.4320  -30.0010 C   0  0  0  0  0  0  0  0  0  0  0  0
   -0.8010   21.2830  -31.0090 C   0  0  0  0  0  0  0  0  0  0  0  0
   -3.7510   19.6630  -33.5620 C   0  0  0  0  0  0  0  0  0  0  0  0
   -5.1180   19.7190  -33.2860 C   0  0  0  0  0  0  0  0  0  0  0  0
   -5.6840   20.8620  -32.6970 C   0  0  0  0  0  0  0  0  0  0  0  0
   -7.1630   20.8810  -32.4140 C   0  0  0  0  0  0  0  0  0  0  0  0
   -1.0400   26.3843  -27.1371 H   0  0  0  0  0  0  0  0  0  0  0  0
    0.1891   26.4215  -28.4465 H   0  0  0  0  0  0  0  0  0  0  0  0
   -1.1594   27.6082  -28.4465 H   0  0  0  0  0  0  0  0  0  0  0  0
   -0.3633   23.9152  -27.3824 H   0  0  0  0  0  0  0  0  0  0  0  0
   -1.2716   21.7346  -26.5894 H   0  0  0  0  0  0  0  0  0  0  0  0
   -3.5528   21.0033  -27.2781 H   0  0  0  0  0  0  0  0  0  0  0  0
   -4.9392   22.4559  -28.7526 H   0  0  0  0  0  0  0  0  0  0  0  0
   -5.3601   24.8107  -29.4301 H   0  0  0  0  0  0  0  0  0  0  0  0
   -3.9624   25.9452  -29.6530 H   0  0  0  0  0  0  0  0  0  0  0  0
   -2.8234   22.7320  -32.3930 H   0  0  0  0  0  0  0  0  0  0  0  0
   -1.0264   18.5185  -32.0106 H   0  0  0  0  0  0  0  0  0  0  0  0
    0.7252   18.6408  -32.4349 H   0  0  0  0  0  0  0  0  0  0  0  0
    0.4841   17.7898  -30.1504 H   0  0  0  0  0  0  0  0  0  0  0  0
    1.1940   19.4541  -30.1285 H   0  0  0  0  0  0  0  0  0  0  0  0
   -0.9159   19.2399  -27.3361 H   0  0  0  0  0  0  0  0  0  0  0  0
    0.7512   19.2286  -28.0049 H   0  0  0  0  0  0  0  0  0  0  0  0
   -0.2062   20.7485  -28.0049 H   0  0  0  0  0  0  0  0  0  0  0  0
   -2.4754   20.0113  -30.5105 H   0  0  0  0  0  0  0  0  0  0  0  0
   -1.8875   21.0868  -29.1666 H   0  0  0  0  0  0  0  0  0  0  0  0
   -1.4682   22.0533  -31.4231 H   0  0  0  0  0  0  0  0  0  0  0  0
    0.0490   21.7285  -30.4713 H   0  0  0  0  0  0  0  0  0  0  0  0
   -3.3233   18.7649  -34.0316 H   0  0  0  0  0  0  0  0  0  0  0  0
   -5.7587   18.8594  -33.5322 H   0  0  0  0  0  0  0  0  0  0  0  0
   -7.3282   20.8831  -31.3265 H   0  0  0  0  0  0  0  0  0  0  0  0
   -7.6090   21.7849  -32.8544 H   0  0  0  0  0  0  0  0  0  0  0  0
   -7.6321   19.9888  -32.8544 H   0  0  0  0  0  0  0  0  0  0  0  0
  1  2  1  0
  2  3  1  0
  3  4  2  0
  4  5  1  0
  5  6  2  0
  6  7  1  0
  7  8  2  0
  8  9  1  0
  9 10  1  0
 10 11  1  0
 11 12  2  0
 11 13  2  0
 11 14  1  0
 14 15  2  0
 15 16  1  0
 16 17  1  0
 17 18  2  0
 17 19  2  0
 17 20  1  0
 20 21  1  0
 21 22  1  0
 22 23  1  0
 23 24  1  0
 23 25  1  0
 25 26  1  0
 16 27  2  0
 27 28  1  0
 28 29  2  0
 29 30  1  0
  8  3  1  0
 29 14  1  0
 26 20  1  0
  1 31  1  0
  1 32  1  0
  1 33  1  0
  4 34  1  0
  5 35  1  0
  6 36  1  0
  7 37  1  0
  9 38  1  0
  9 39  1  0
 15 40  1  0
 21 41  1  0
 21 42  1  0
 22 43  1  0
 22 44  1  0
 24 45  1  0
 24 46  1  0
 24 47  1  0
 25 48  1  0
 25 49  1  0
 26 50  1  0
 26 51  1  0
 27 52  1  0
 28 53  1  0
 30 54  1  0
 30 55  1  0
 30 56  1  0
M  CHG  1  10  -1
M  END
>  <UniqueID>  (42) 
40

>  <SMILES>  (42) 
COc1ccccc1C[N-]S(=O)(=O)c1cc(S(=O)(=O)N2CCN(C)CC2)ccc1C

>  <Energy>  (42) 
64.7124680378417

>  <Genealogy>  (42) 
COc1ccccc1C[N-]S(=O)(=O)c1cc(S(=O)(=O)N2CCN(C)CC2)ccc1C (protonated)
COc1ccccc1C[N-]S(=O)(=O)c1cc(S(=O)(=O)N2CCN(C)CC2)ccc1C (3D coordinates assigned)
COc1ccccc1C[N-]S(=O)(=O)c1cc(S(=O)(=O)N2CCN(C)CC2)ccc1C (nonaromatic ring conformer: 64.7124680378417 kcal/mol)

>  <smiles>  (42) 
COc1ccccc1CNS(=O)(=O)c1cc(S(=O)(=O)N2CCN(C)CC2)ccc1C

>  <score_type>  (42) 
oracle

>  <origin>  (42) 
adgpu

>  <m_score__min__energy>  (42) 
-10.77

>  <m_primary>  (42) 
energy

$$$$
42:0
     RDKit          3D

 55 58  0  0  0  0  0  0  0  0999 V2000
    4.1490   22.4566  -35.4266 H   0  0  0  0  0  0  0  0  0  0  0  0
    3.0500   22.4210  -35.3970 C   0  0  0  0  0  0  0  0  0  0  0  0
    2.4210   21.4750  -34.6560 N   0  0  0  0  0  0  0  0  0  0  0  0
    1.0650   21.4110  -34.5910 C   0  0  0  0  0  0  0  0  0  0  0  0
    0.5190   20.4610  -33.8850 N   0  0  0  0  0  0  0  0  0  0  0  0
   -0.8840   20.2750  -33.6630 C   0  0  0  0  0  0  0  0  0  0  0  0
   -1.6280   21.2240  -32.9480 C   0  0  0  0  0  0  0  0  0  0  0  0
   -1.1380   22.1334  -32.5700 H   0  0  0  0  0  0  0  0  0  0  0  0
   -2.9910   21.0180  -32.7140 C   0  0  0  0  0  0  0  0  0  0  0  0
   -3.5687   21.7661  -32.1513 H   0  0  0  0  0  0  0  0  0  0  0  0
   -3.6270   19.8600  -33.1940 C   0  0  0  0  0  0  0  0  0  0  0  0
   -5.0420   19.6670  -32.9970 N   0  0  0  0  0  0  0  0  0  0  0  0
   -5.5780   18.3390  -32.6730 C   0  0  0  0  0  0  0  0  0  0  0  0
   -4.9758   17.5711  -33.1807 H   0  0  0  0  0  0  0  0  0  0  0  0
   -5.5356   18.1925  -31.5836 H   0  0  0  0  0  0  0  0  0  0  0  0
   -7.0400   18.2250  -33.1360 C   0  0  0  0  0  0  0  0  0  0  0  0
   -7.0587   18.2402  -34.2357 H   0  0  0  0  0  0  0  0  0  0  0  0
   -7.4366   17.2855  -32.7237 H   0  0  0  0  0  0  0  0  0  0  0  0
   -7.9100   19.3220  -32.6360 N   0  0  0  0  0  0  0  0  0  0  0  0
   -8.7990   18.8550  -31.5630 C   0  0  0  0  0  0  0  0  0  0  0  0
   -8.3505   19.0906  -30.5866 H   0  0  0  0  0  0  0  0  0  0  0  0
   -9.7737   19.3575  -31.6496 H   0  0  0  0  0  0  0  0  0  0  0  0
   -8.9383   17.7673  -31.6496 H   0  0  0  0  0  0  0  0  0  0  0  0
   -7.1910   20.5470  -32.2130 C   0  0  0  0  0  0  0  0  0  0  0  0
   -7.8735   21.4061  -32.2921 H   0  0  0  0  0  0  0  0  0  0  0  0
   -6.8537   20.4055  -31.1756 H   0  0  0  0  0  0  0  0  0  0  0  0
   -5.9600   20.8100  -33.0830 C   0  0  0  0  0  0  0  0  0  0  0  0
   -6.2735   20.9498  -34.1281 H   0  0  0  0  0  0  0  0  0  0  0  0
   -5.4485   21.7166  -32.7273 H   0  0  0  0  0  0  0  0  0  0  0  0
   -2.8660   18.8990  -33.8850 C   0  0  0  0  0  0  0  0  0  0  0  0
   -3.3497   17.9840  -34.2575 H   0  0  0  0  0  0  0  0  0  0  0  0
   -1.5010   19.0990  -34.1010 C   0  0  0  0  0  0  0  0  0  0  0  0
   -0.9091   18.3289  -34.6174 H   0  0  0  0  0  0  0  0  0  0  0  0
    0.3140   22.3070  -35.3030 N   0  0  0  0  0  0  0  0  0  0  0  0
   -0.7280   22.2640  -35.3050 H   0  0  0  0  0  0  0  0  0  0  0  0
    0.9110   23.2590  -36.0690 C   0  0  0  0  0  0  0  0  0  0  0  0
    0.2948   23.9613  -36.6496 H   0  0  0  0  0  0  0  0  0  0  0  0
    2.3020   23.3480  -36.1210 C   0  0  0  0  0  0  0  0  0  0  0  0
    3.1140   24.5530  -37.1760 S   0  0  0  0  0  0  0  0  0  0  0  0
    1.9450   25.8770  -36.8010 C   0  0  0  0  0  0  0  0  0  0  0  0
    2.1420   26.7600  -35.7130 C   0  0  0  0  0  0  0  0  0  0  0  0
    3.3040   26.6140  -34.7650 C   0  0  0  0  0  0  0  0  0  0  0  0
    2.9394   26.6598  -33.7282 H   0  0  0  0  0  0  0  0  0  0  0  0
    3.7985   25.6467  -34.9373 H   0  0  0  0  0  0  0  0  0  0  0  0
    4.0225   27.4289  -34.9373 H   0  0  0  0  0  0  0  0  0  0  0  0
    1.1970   27.7680  -35.4730 C   0  0  0  0  0  0  0  0  0  0  0  0
    1.3108   28.4334  -34.6045 H   0  0  0  0  0  0  0  0  0  0  0  0
    0.1090   27.9270  -36.3390 C   0  0  0  0  0  0  0  0  0  0  0  0
   -0.8980   29.0070  -36.1010 C   0  0  0  0  0  0  0  0  0  0  0  0
   -1.0323   29.1511  -35.0188 H   0  0  0  0  0  0  0  0  0  0  0  0
   -0.5442   29.9446  -36.5546 H   0  0  0  0  0  0  0  0  0  0  0  0
   -1.8580   28.7196  -36.5546 H   0  0  0  0  0  0  0  0  0  0  0  0
   -0.0450   27.0810  -37.3890 N   0  0  0  0  0  0  0  0  0  0  0  0
    0.8340   26.0740  -37.6410 C   0  0  0  0  0  0  0  0  0  0  0  0
    0.6470   25.3300  -38.6380 O   0  0  0  0  0  0  0  0  0  0  0  0
  1  2  1  0
  2  3  2  0
  3  4  1  0
  4  5  2  0
  5  6  1  0
  6  7  2  0
  7  8  1  0
  7  9  1  0
  9 10  1  0
  9 11  2  0
 11 12  1  0
 12 13  1  0
 13 14  1  0
 13 15  1  0
 13 16  1  0
 16 17  1  0
 16 18  1  0
 16 19  1  0
 19 20  1  0
 20 21  1  0
 20 22  1  0
 20 23  1  0
 19 24  1  0
 24 25  1  0
 24 26  1  0
 24 27  1  0
 27 28  1  0
 27 29  1  0
 11 30  1  0
 30 31  1  0
 30 32  2  0
 32 33  1  0
  4 34  1  0
 34 35  1  0
 34 36  1  0
 36 37  1  0
 36 38  2  0
 38 39  1  0
 39 40  1  0
 40 41  2  0
 41 42  1  0
 42 43  1  0
 42 44  1  0
 42 45  1  0
 41 46  1  0
 46 47  1  0
 46 48  2  0
 48 49  1  0
 49 50  1  0
 49 51  1  0
 49 52  1  0
 48 53  1  0
 53 54  1  0
 54 55  2  0
 38  2  1  0
 54 40  1  0
 32  6  1  0
 27 12  1  0
M  CHG  1  53  -1
M  END
>  <UniqueID>  (43) 
41

>  <SMILES>  (43) 
Cc1cc(C)c(Sc2cn/c(=N/c3ccc(N4CCN(C)CC4)cc3)[nH]c2)c(=O)[n-]1

>  <Energy>  (43) 
74.57544580521567

>  <Genealogy>  (43) 
Cc1cc(C)c(Sc2cnc(=Nc3ccc(N4CCN(C)CC4)cc3)[nH]c2)c(=O)[n-]1 (protonated)
Cc1cc(C)c(Sc2cn/c(=N/c3ccc(N4CCN(C)CC4)cc3)[nH]c2)c(=O)[n-]1 (cis-trans isomerization)
Cc1cc(C)c(Sc2cn/c(=N/c3ccc(N4CCN(C)CC4)cc3)[nH]c2)c(=O)[n-]1 (3D coordinates assigned)
Cc1cc(C)c(Sc2cn/c(=N/c3ccc(N4CCN(C)CC4)cc3)[nH]c2)c(=O)[n-]1 (nonaromatic ring conformer: 74.57544580521567 kcal/mol)

>  <smiles>  (43) 
Cc1cc(C)c(Sc2cnc(=Nc3ccc(N4CCN(C)CC4)cc3)[nH]c2)c(=O)[nH]1

>  <score_type>  (43) 
oracle

>  <origin>  (43) 
adgpu

>  <m_score__min__energy>  (43) 
-9.3100000000000005

>  <m_primary>  (43) 
energy

$$$$
43:0
     RDKit          3D

 78 82  0  0  0  0  0  0  0  0999 V2000
    3.3290   14.7410  -28.0170 C   0  0  0  0  0  0  0  0  0  0  0  0
    1.9230   14.8560  -28.4450 N   0  0  0  0  0  0  0  0  0  0  0  0
    1.0450   15.2770  -27.3270 C   0  0  0  0  0  0  0  0  0  0  0  0
    1.0250   16.8010  -27.1440 C   0  0  0  0  0  0  0  0  0  0  0  0
    0.7480   17.4910  -28.4100 N   0  0  0  0  0  0  0  0  0  0  0  0
    0.6720   18.9350  -28.4200 C   0  0  0  0  0  0  0  0  0  0  0  0
    1.2110   19.5850  -27.4810 O   0  0  0  0  0  0  0  0  0  0  0  0
   -0.0190   19.6890  -29.4920 C   0  0  0  0  0  0  0  0  0  0  0  0
    0.6440   20.0330  -30.6830 C   0  0  0  0  0  0  0  0  0  0  0  0
   -0.0250   20.7350  -31.6890 C   0  0  0  0  0  0  0  0  0  0  0  0
   -1.3750   21.0620  -31.5410 C   0  0  0  0  0  0  0  0  0  0  0  0
   -2.0700   21.6990  -32.6220 N   0  0  0  0  0  0  0  0  0  0  0  0
   -3.1890   21.1210  -33.3130 C   0  0  0  0  0  0  0  0  0  0  0  0
   -2.9820   20.2330  -34.1800 O   0  0  0  0  0  0  0  0  0  0  0  0
   -4.5410   21.5020  -33.0080 N   0  0  0  0  0  0  0  0  0  0  0  0
   -5.5770   20.5680  -32.6580 C   0  0  0  0  0  0  0  0  0  0  0  0
   -5.3210   19.1990  -32.8040 C   0  0  0  0  0  0  0  0  0  0  0  0
   -6.3650   18.2610  -32.7230 C   0  0  0  0  0  0  0  0  0  0  0  0
   -6.0800   16.7920  -32.9220 C   0  0  0  0  0  0  0  0  0  0  0  0
   -5.0380   16.6460  -33.8180 F   0  0  0  0  0  0  0  0  0  0  0  0
   -5.7360   16.1830  -31.7270 F   0  0  0  0  0  0  0  0  0  0  0  0
   -7.2000   16.1500  -33.4230 F   0  0  0  0  0  0  0  0  0  0  0  0
   -7.6600   18.7100  -32.4140 C   0  0  0  0  0  0  0  0  0  0  0  0
   -7.9120   20.0690  -32.2060 C   0  0  0  0  0  0  0  0  0  0  0  0
   -6.8750   21.0020  -32.2990 C   0  0  0  0  0  0  0  0  0  0  0  0
   -7.1560   22.3520  -32.0500 O   0  0  0  0  0  0  0  0  0  0  0  0
   -6.3870   23.1600  -31.2010 C   0  0  0  0  0  0  0  0  0  0  0  0
   -6.4940   24.5620  -31.2310 C   0  0  0  0  0  0  0  0  0  0  0  0
   -5.7330   25.3430  -30.3580 C   0  0  0  0  0  0  0  0  0  0  0  0
   -4.8680   24.7330  -29.4470 C   0  0  0  0  0  0  0  0  0  0  0  0
   -4.7410   23.3360  -29.4160 C   0  0  0  0  0  0  0  0  0  0  0  0
   -3.9110   22.7140  -28.3640 C   0  0  0  0  0  0  0  0  0  0  0  0
   -4.5040   22.0370  -27.4770 O   0  0  0  0  0  0  0  0  0  0  0  0
   -2.4790   22.9110  -28.2820 N   0  0  0  0  0  0  0  0  0  0  0  0
   -1.7220   22.3620  -27.1480 C   0  0  0  0  0  0  0  0  0  0  0  0
   -0.8320   23.4630  -26.5620 C   0  0  0  0  0  0  0  0  0  0  0  0
    0.0870   24.0710  -27.5650 N   0  0  0  0  0  0  0  0  0  0  0  0
    1.4870   23.6990  -27.2890 C   0  0  0  0  0  0  0  0  0  0  0  0
   -0.2530   23.7670  -28.9740 C   0  0  0  0  0  0  0  0  0  0  0  0
   -1.7700   23.7930  -29.2250 C   0  0  0  0  0  0  0  0  0  0  0  0
   -5.5000   22.5530  -30.3010 C   0  0  0  0  0  0  0  0  0  0  0  0
   -2.0450   20.7190  -30.3560 C   0  0  0  0  0  0  0  0  0  0  0  0
   -1.3730   20.0300  -29.3440 C   0  0  0  0  0  0  0  0  0  0  0  0
    0.6530   16.6950  -29.6410 C   0  0  0  0  0  0  0  0  0  0  0  0
    1.8010   15.6760  -29.6810 C   0  0  0  0  0  0  0  0  0  0  0  0
    3.3786   14.7369  -26.9181 H   0  0  0  0  0  0  0  0  0  0  0  0
    3.7555   13.8050  -28.4068 H   0  0  0  0  0  0  0  0  0  0  0  0
    3.9020   15.5953  -28.4068 H   0  0  0  0  0  0  0  0  0  0  0  0
    0.0209   14.9319  -27.5322 H   0  0  0  0  0  0  0  0  0  0  0  0
    1.4411   14.8322  -26.4022 H   0  0  0  0  0  0  0  0  0  0  0  0
    0.2437   17.0634  -26.4155 H   0  0  0  0  0  0  0  0  0  0  0  0
    2.0157   17.1189  -26.7870 H   0  0  0  0  0  0  0  0  0  0  0  0
    1.6969   19.7475  -30.8239 H   0  0  0  0  0  0  0  0  0  0  0  0
    0.5136   21.0313  -32.6012 H   0  0  0  0  0  0  0  0  0  0  0  0
   -4.2921   18.8539  -32.9840 H   0  0  0  0  0  0  0  0  0  0  0  0
   -8.4835   17.9850  -32.3350 H   0  0  0  0  0  0  0  0  0  0  0  0
   -8.9316   20.4062  -31.9679 H   0  0  0  0  0  0  0  0  0  0  0  0
   -7.1787   25.0448  -31.9438 H   0  0  0  0  0  0  0  0  0  0  0  0
   -5.8151   26.4395  -30.3881 H   0  0  0  0  0  0  0  0  0  0  0  0
   -4.2831   25.3511  -28.7500 H   0  0  0  0  0  0  0  0  0  0  0  0
   -2.4204   22.0033  -26.3775 H   0  0  0  0  0  0  0  0  0  0  0  0
   -1.0984   21.5226  -27.4892 H   0  0  0  0  0  0  0  0  0  0  0  0
   -1.4779   24.2547  -26.1545 H   0  0  0  0  0  0  0  0  0  0  0  0
   -0.2068   22.9989  -25.7850 H   0  0  0  0  0  0  0  0  0  0  0  0
    1.6475   23.6564  -26.2016 H   0  0  0  0  0  0  0  0  0  0  0  0
    1.6983   22.7136  -27.7298 H   0  0  0  0  0  0  0  0  0  0  0  0
    2.1596   24.4496  -27.7298 H   0  0  0  0  0  0  0  0  0  0  0  0
    0.2262   24.5147  -29.6231 H   0  0  0  0  0  0  0  0  0  0  0  0
    0.1085   22.7523  -29.1969 H   0  0  0  0  0  0  0  0  0  0  0  0
   -2.1373   24.8223  -29.0996 H   0  0  0  0  0  0  0  0  0  0  0  0
   -1.9609   23.4362  -30.2479 H   0  0  0  0  0  0  0  0  0  0  0  0
   -5.3980   21.4578  -30.2879 H   0  0  0  0  0  0  0  0  0  0  0  0
   -3.1020   20.9936  -30.2242 H   0  0  0  0  0  0  0  0  0  0  0  0
   -1.9085   19.7524  -28.4241 H   0  0  0  0  0  0  0  0  0  0  0  0
   -0.3099   16.1636  -29.6607 H   0  0  0  0  0  0  0  0  0  0  0  0
    0.7224   17.3602  -30.5143 H   0  0  0  0  0  0  0  0  0  0  0  0
    1.6331   14.9983  -30.5310 H   0  0  0  0  0  0  0  0  0  0  0  0
    2.7344   16.2502  -29.7766 H   0  0  0  0  0  0  0  0  0  0  0  0
  1  2  1  0
  2  3  1  0
  3  4  1  0
  4  5  1  0
  5  6  1  0
  6  7  2  0
  6  8  1  0
  8  9  2  0
  9 10  1  0
 10 11  2  0
 11 12  1  0
 12 13  1  0
 13 14  2  0
 13 15  1  0
 15 16  1  0
 16 17  2  0
 17 18  1  0
 18 19  1  0
 19 20  1  0
 19 21  1  0
 19 22  1  0
 18 23  2  0
 23 24  1  0
 24 25  2  0
 25 26  1  0
 26 27  1  0
 27 28  2  0
 28 29  1  0
 29 30  2  0
 30 31  1  0
 31 32  1  0
 32 33  2  0
 32 34  1  0
 34 35  1  0
 35 36  1  0
 36 37  1  0
 37 38  1  0
 37 39  1  0
 39 40  1  0
 31 41  2  0
 11 42  1  0
 42 43  2  0
  5 44  1  0
 44 45  1  0
 45  2  1  0
 43  8  1  0
 25 16  1  0
 41 27  1  0
 40 34  1  0
  1 46  1  0
  1 47  1  0
  1 48  1  0
  3 49  1  0
  3 50  1  0
  4 51  1  0
  4 52  1  0
  9 53  1  0
 10 54  1  0
 17 55  1  0
 23 56  1  0
 24 57  1  0
 28 58  1  0
 29 59  1  0
 30 60  1  0
 35 61  1  0
 35 62  1  0
 36 63  1  0
 36 64  1  0
 38 65  1  0
 38 66  1  0
 38 67  1  0
 39 68  1  0
 39 69  1  0
 40 70  1  0
 40 71  1  0
 41 72  1  0
 42 73  1  0
 43 74  1  0
 44 75  1  0
 44 76  1  0
 45 77  1  0
 45 78  1  0
M  CHG  2  12  -1  15  -1
M  END
>  <UniqueID>  (44) 
42

>  <SMILES>  (44) 
CN1CCN(C(=O)c2ccc([N-]C(=O)[N-]c3cc(C(F)(F)F)ccc3Oc3cccc(C(=O)N4CCN(C)CC4)c3)cc2)CC1

>  <Energy>  (44) 
124.44882694789699

>  <Genealogy>  (44) 
CN1CCN(C(=O)c2ccc([N-]C(=O)[N-]c3cc(C(F)(F)F)ccc3Oc3cccc(C(=O)N4CCN(C)CC4)c3)cc2)CC1 (protonated)
CN1CCN(C(=O)c2ccc([N-]C(=O)[N-]c3cc(C(F)(F)F)ccc3Oc3cccc(C(=O)N4CCN(C)CC4)c3)cc2)CC1 (3D coordinates assigned)
CN1CCN(C(=O)c2ccc([N-]C(=O)[N-]c3cc(C(F)(F)F)ccc3Oc3cccc(C(=O)N4CCN(C)CC4)c3)cc2)CC1 (nonaromatic ring conformer: 124.44882694789699 kcal/mol)

>  <smiles>  (44) 
CN1CCN(C(=O)c2ccc(NC(=O)Nc3cc(C(F)(F)F)ccc3Oc3cccc(C(=O)N4CCN(C)CC4)c3)cc2)CC1

>  <score_type>  (44) 
oracle

>  <origin>  (44) 
adgpu

>  <m_score__min__energy>  (44) 
-12.18

>  <m_primary>  (44) 
energy

$$$$
44:0
     RDKit          3D

 54 56  0  0  0  0  0  0  0  0999 V2000
   -7.5600   13.0980  -34.9230 C   0  0  0  0  0  0  0  0  0  0  0  0
   -6.5890   14.0430  -34.2250 C   0  0  0  0  0  0  0  0  0  0  0  0
   -6.8690   15.4010  -34.5630 O   0  0  0  0  0  0  0  0  0  0  0  0
   -6.3340   16.5300  -33.9220 C   0  0  0  0  0  0  0  0  0  0  0  0
   -5.9770   16.5380  -32.5590 C   0  0  0  0  0  0  0  0  0  0  0  0
   -5.4540   17.6950  -31.9740 C   0  0  0  0  0  0  0  0  0  0  0  0
   -5.2720   18.8570  -32.7380 C   0  0  0  0  0  0  0  0  0  0  0  0
   -4.7460   20.0510  -32.1330 N   0  0  0  0  0  0  0  0  0  0  0  0
   -5.5600   20.8240  -31.1900 C   0  0  0  0  0  0  0  0  0  0  0  0
   -7.0040   20.7860  -31.5910 C   0  0  0  0  0  0  0  0  0  0  0  0
   -7.8260   19.6670  -31.5570 C   0  0  0  0  0  0  0  0  0  0  0  0
   -9.1360   19.9330  -31.9760 C   0  0  0  0  0  0  0  0  0  0  0  0
   -9.3520   21.2590  -32.3240 C   0  0  0  0  0  0  0  0  0  0  0  0
   -7.9130   22.1030  -32.1090 S   0  0  0  0  0  0  0  0  0  0  0  0
   -3.1090   20.5530  -32.4510 S   0  0  0  0  0  0  0  0  0  0  0  0
   -2.9990   20.9990  -33.8820 O   0  0  0  0  0  0  0  0  0  0  0  0
   -2.1610   19.4050  -32.2430 O   0  0  0  0  0  0  0  0  0  0  0  0
   -2.6680   21.8710  -31.3700 C   0  0  0  0  0  0  0  0  0  0  0  0
   -1.5910   21.7260  -30.4920 C   0  0  0  0  0  0  0  0  0  0  0  0
   -1.2710   22.7470  -29.5960 C   0  0  0  0  0  0  0  0  0  0  0  0
   -2.0330   23.9320  -29.5600 C   0  0  0  0  0  0  0  0  0  0  0  0
   -1.6950   24.9980  -28.7110 O   0  0  0  0  0  0  0  0  0  0  0  0
   -2.0620   25.0870  -27.3380 C   0  0  0  0  0  0  0  0  0  0  0  0
   -3.1430   24.0610  -30.4210 C   0  0  0  0  0  0  0  0  0  0  0  0
   -3.9700   25.2330  -30.4250 N   0  0  0  0  0  0  0  0  0  0  0  0
   -5.3950   25.2470  -30.5750 C   0  0  0  0  0  0  0  0  0  0  0  0
   -6.2470   25.7690  -29.4680 C   0  0  0  0  0  0  0  0  0  0  0  0
   -5.9290   24.9090  -31.6660 O   0  0  0  0  0  0  0  0  0  0  0  0
   -3.4320   23.0440  -31.3400 C   0  0  0  0  0  0  0  0  0  0  0  0
   -5.6190   18.8470  -34.0970 C   0  0  0  0  0  0  0  0  0  0  0  0
   -6.1450   17.6920  -34.6810 C   0  0  0  0  0  0  0  0  0  0  0  0
   -8.1340   12.5394  -34.1690 H   0  0  0  0  0  0  0  0  0  0  0  0
   -8.2498   13.6799  -35.5519 H   0  0  0  0  0  0  0  0  0  0  0  0
   -6.9970   12.3926  -35.5519 H   0  0  0  0  0  0  0  0  0  0  0  0
   -6.6826   13.9161  -33.1364 H   0  0  0  0  0  0  0  0  0  0  0  0
   -5.5670   13.8025  -34.5532 H   0  0  0  0  0  0  0  0  0  0  0  0
   -6.1104   15.6300  -31.9526 H   0  0  0  0  0  0  0  0  0  0  0  0
   -5.1835   17.6940  -30.9078 H   0  0  0  0  0  0  0  0  0  0  0  0
   -5.4524   20.3954  -30.1827 H   0  0  0  0  0  0  0  0  0  0  0  0
   -5.2160   21.8688  -31.1956 H   0  0  0  0  0  0  0  0  0  0  0  0
   -7.4832   18.6730  -31.2339 H   0  0  0  0  0  0  0  0  0  0  0  0
   -9.9200   19.1630  -32.0246 H   0  0  0  0  0  0  0  0  0  0  0  0
  -10.3017   21.6851  -32.6796 H   0  0  0  0  0  0  0  0  0  0  0  0
   -0.9927   20.8031  -30.5070 H   0  0  0  0  0  0  0  0  0  0  0  0
   -0.4175   22.6259  -28.9127 H   0  0  0  0  0  0  0  0  0  0  0  0
   -1.1847   24.8742  -26.7094 H   0  0  0  0  0  0  0  0  0  0  0  0
   -2.4307   26.1006  -27.1220 H   0  0  0  0  0  0  0  0  0  0  0  0
   -2.8541   24.3549  -27.1220 H   0  0  0  0  0  0  0  0  0  0  0  0
   -5.8000   25.4952  -28.5009 H   0  0  0  0  0  0  0  0  0  0  0  0
   -6.3155   26.8643  -29.5433 H   0  0  0  0  0  0  0  0  0  0  0  0
   -7.2539   25.3326  -29.5433 H   0  0  0  0  0  0  0  0  0  0  0  0
   -4.2673   23.1681  -32.0449 H   0  0  0  0  0  0  0  0  0  0  0  0
   -5.4764   19.7523  -34.7054 H   0  0  0  0  0  0  0  0  0  0  0  0
   -6.4135   17.6951  -35.7477 H   0  0  0  0  0  0  0  0  0  0  0  0
  1  2  1  0
  2  3  1  0
  3  4  1  0
  4  5  2  0
  5  6  1  0
  6  7  2  0
  7  8  1  0
  8  9  1  0
  9 10  1  0
 10 11  2  0
 11 12  1  0
 12 13  2  0
 13 14  1  0
  8 15  1  0
 15 16  2  0
 15 17  2  0
 15 18  1  0
 18 19  2  0
 19 20  1  0
 20 21  2  0
 21 22  1  0
 22 23  1  0
 21 24  1  0
 24 25  1  0
 25 26  1  0
 26 27  1  0
 26 28  2  0
 24 29  2  0
  7 30  1  0
 30 31  2  0
 31  4  1  0
 14 10  1  0
 29 18  1  0
  1 32  1  0
  1 33  1  0
  1 34  1  0
  2 35  1  0
  2 36  1  0
  5 37  1  0
  6 38  1  0
  9 39  1  0
  9 40  1  0
 11 41  1  0
 12 42  1  0
 13 43  1  0
 19 44  1  0
 20 45  1  0
 23 46  1  0
 23 47  1  0
 23 48  1  0
 27 49  1  0
 27 50  1  0
 27 51  1  0
 29 52  1  0
 30 53  1  0
 31 54  1  0
M  CHG  1  25  -1
M  END
>  <UniqueID>  (45) 
43

>  <SMILES>  (45) 
CCOc1ccc(N(Cc2cccs2)S(=O)(=O)c2ccc(OC)c([N-]C(C)=O)c2)cc1

>  <Energy>  (45) 
83.2104852771902

>  <Genealogy>  (45) 
CCOc1ccc(N(Cc2cccs2)S(=O)(=O)c2ccc(OC)c([N-]C(C)=O)c2)cc1 (protonated)
CCOc1ccc(N(Cc2cccs2)S(=O)(=O)c2ccc(OC)c([N-]C(C)=O)c2)cc1 (3D coordinates assigned)
CCOc1ccc(N(Cc2cccs2)S(=O)(=O)c2ccc(OC)c([N-]C(C)=O)c2)cc1 (optimized conformer: 83.2104852771902 kcal/mol)

>  <smiles>  (45) 
CCOc1ccc(N(Cc2cccs2)S(=O)(=O)c2ccc(OC)c(NC(C)=O)c2)cc1

>  <score_type>  (45) 
oracle

>  <origin>  (45) 
adgpu

>  <m_score__min__energy>  (45) 
-10.380000000000001

>  <m_primary>  (45) 
energy

$$$$
45:0
     RDKit          3D

 48 50  0  0  0  0  0  0  0  0999 V2000
   -1.7890   24.7320  -29.2730 O   0  0  0  0  0  0  0  0  0  0  0  0
   -1.6080   24.2100  -28.1540 N   0  0  0  0  0  0  0  0  0  0  0  0
   -1.8800   24.9520  -27.0270 O   0  0  0  0  0  0  0  0  0  0  0  0
   -1.4530   22.7890  -28.0410 C   0  0  0  0  0  0  0  0  0  0  0  0
   -0.1750   22.2380  -28.2270 C   0  0  0  0  0  0  0  0  0  0  0  0
    0.0260   20.8610  -28.1390 C   0  0  0  0  0  0  0  0  0  0  0  0
   -1.0490   20.0140  -27.8770 C   0  0  0  0  0  0  0  0  0  0  0  0
   -2.3310   20.5410  -27.7120 C   0  0  0  0  0  0  0  0  0  0  0  0
   -2.5530   21.9310  -27.7700 C   0  0  0  0  0  0  0  0  0  0  0  0
   -3.9770   22.4480  -27.6830 C   0  0  0  0  0  0  0  0  0  0  0  0
   -4.1650   23.6600  -28.4880 N   0  0  0  0  0  0  0  0  0  0  0  0
   -5.1060   23.7630  -29.5750 C   0  0  0  0  0  0  0  0  0  0  0  0
   -6.1750   22.8530  -29.6730 C   0  0  0  0  0  0  0  0  0  0  0  0
   -7.0890   22.9270  -30.7300 C   0  0  0  0  0  0  0  0  0  0  0  0
   -8.3660   21.7170  -30.8780 S   0  0  0  0  0  0  0  0  0  0  0  0
   -9.3290   21.8680  -29.7330 O   0  0  0  0  0  0  0  0  0  0  0  0
   -9.1230   21.9450  -32.1570 O   0  0  0  0  0  0  0  0  0  0  0  0
   -7.7060   20.0960  -30.8780 N   0  0  0  0  0  0  0  0  0  0  0  0
   -6.4940   20.0350  -31.7260 C   0  0  0  0  0  0  0  0  0  0  0  0
   -6.1250   18.5870  -32.0640 C   0  0  0  0  0  0  0  0  0  0  0  0
   -7.2450   17.9000  -32.8660 C   0  0  0  0  0  0  0  0  0  0  0  0
   -8.6230   18.5430  -32.6360 C   0  0  0  0  0  0  0  0  0  0  0  0
   -8.7440   19.0860  -31.2050 C   0  0  0  0  0  0  0  0  0  0  0  0
   -6.9640   23.9430  -31.6810 C   0  0  0  0  0  0  0  0  0  0  0  0
   -5.9170   24.8600  -31.5930 C   0  0  0  0  0  0  0  0  0  0  0  0
   -4.9740   24.7700  -30.5620 C   0  0  0  0  0  0  0  0  0  0  0  0
   -3.9120   25.6750  -30.5690 O   0  0  0  0  0  0  0  0  0  0  0  0
    0.6765   22.8995  -28.4444 H   0  0  0  0  0  0  0  0  0  0  0  0
    1.0341   20.4429  -28.2765 H   0  0  0  0  0  0  0  0  0  0  0  0
   -0.8872   18.9287  -27.8001 H   0  0  0  0  0  0  0  0  0  0  0  0
   -3.1785   19.8625  -27.5345 H   0  0  0  0  0  0  0  0  0  0  0  0
   -4.6621   21.6683  -28.0474 H   0  0  0  0  0  0  0  0  0  0  0  0
   -4.1871   22.6983  -26.6327 H   0  0  0  0  0  0  0  0  0  0  0  0
   -3.5780   24.4850  -28.2350 H   0  0  0  0  0  0  0  0  0  0  0  0
   -6.2938   22.0721  -28.9075 H   0  0  0  0  0  0  0  0  0  0  0  0
   -6.6820   20.5845  -32.6602 H   0  0  0  0  0  0  0  0  0  0  0  0
   -5.6583   20.4864  -31.1712 H   0  0  0  0  0  0  0  0  0  0  0  0
   -5.2012   18.5821  -32.6612 H   0  0  0  0  0  0  0  0  0  0  0  0
   -5.9815   18.0354  -31.1232 H   0  0  0  0  0  0  0  0  0  0  0  0
   -7.0012   17.9648  -33.9367 H   0  0  0  0  0  0  0  0  0  0  0  0
   -7.3052   16.8563  -32.5238 H   0  0  0  0  0  0  0  0  0  0  0  0
   -8.7570   19.3710  -33.3476 H   0  0  0  0  0  0  0  0  0  0  0  0
   -9.3974   17.7765  -32.7870 H   0  0  0  0  0  0  0  0  0  0  0  0
   -9.7342   19.5508  -31.0890 H   0  0  0  0  0  0  0  0  0  0  0  0
   -8.6056   18.2378  -30.5184 H   0  0  0  0  0  0  0  0  0  0  0  0
   -7.6932   24.0197  -32.5010 H   0  0  0  0  0  0  0  0  0  0  0  0
   -5.8312   25.6620  -32.3410 H   0  0  0  0  0  0  0  0  0  0  0  0
   -3.4790   26.0390  -29.7300 H   0  0  0  0  0  0  0  0  0  0  0  0
  1  2  2  0
  2  3  1  0
  2  4  1  0
  4  5  2  0
  5  6  1  0
  6  7  2  0
  7  8  1  0
  8  9  2  0
  9 10  1  0
 10 11  1  0
 11 12  1  0
 12 13  2  0
 13 14  1  0
 14 15  1  0
 15 16  2  0
 15 17  2  0
 15 18  1  0
 18 19  1  0
 19 20  1  0
 20 21  1  0
 21 22  1  0
 22 23  1  0
 14 24  2  0
 24 25  1  0
 25 26  2  0
 26 27  1  0
  9  4  1  0
 26 12  1  0
 23 18  1  0
  5 28  1  0
  6 29  1  0
  7 30  1  0
  8 31  1  0
 10 32  1  0
 10 33  1  0
 11 34  1  0
 13 35  1  0
 19 36  1  0
 19 37  1  0
 20 38  1  0
 20 39  1  0
 21 40  1  0
 21 41  1  0
 22 42  1  0
 22 43  1  0
 23 44  1  0
 23 45  1  0
 24 46  1  0
 25 47  1  0
 27 48  1  0
M  CHG  2   2   1   3  -1
M  END
>  <UniqueID>  (46) 
44

>  <SMILES>  (46) 
O=[N+]([O-])c1ccccc1CNc1cc(S(=O)(=O)N2CCCCC2)ccc1O

>  <Energy>  (46) 
59.61018326199932

>  <Genealogy>  (46) 
O=[N+]([O-])c1ccccc1CNc1cc(S(=O)(=O)N2CCCCC2)ccc1O (3D coordinates assigned)
O=[N+]([O-])c1ccccc1CNc1cc(S(=O)(=O)N2CCCCC2)ccc1O (nonaromatic ring conformer: 59.61018326199932 kcal/mol)

>  <smiles>  (46) 
O=[N+]([O-])c1ccccc1CNc1cc(S(=O)(=O)N2CCCCC2)ccc1O

>  <score_type>  (46) 
oracle

>  <origin>  (46) 
adgpu

>  <m_score__min__energy>  (46) 
-10.130000000000001

>  <m_primary>  (46) 
energy

$$$$
46:0
     RDKit          3D

 32 33  0  0  0  0  0  0  0  0999 V2000
   -7.8630   18.1890  -32.3230 C   0  0  0  0  0  0  0  0  0  0  0  0
   -9.0620   18.8460  -31.6500 C   0  0  0  0  0  0  0  0  0  0  0  0
   -9.4850   20.4300  -32.4560 S   0  0  0  0  0  0  0  0  0  0  0  0
   -8.0630   21.3200  -31.8230 C   0  0  0  0  0  0  0  0  0  0  0  0
   -6.8490   21.2960  -32.5140 C   0  0  0  0  0  0  0  0  0  0  0  0
   -5.7540   21.9900  -31.9980 C   0  0  0  0  0  0  0  0  0  0  0  0
   -5.8690   22.6940  -30.7860 C   0  0  0  0  0  0  0  0  0  0  0  0
   -4.7230   23.4460  -30.2200 C   0  0  0  0  0  0  0  0  0  0  0  0
   -4.3770   24.5390  -30.7480 O   0  0  0  0  0  0  0  0  0  0  0  0
   -4.0180   22.9620  -29.0660 N   0  0  0  0  0  0  0  0  0  0  0  0
   -2.7830   23.5470  -28.6260 C   0  0  0  0  0  0  0  0  0  0  0  0
   -2.7560   24.4340  -27.5290 C   0  0  0  0  0  0  0  0  0  0  0  0
   -4.2300   24.9100  -26.6940 Cl  0  0  0  0  0  0  0  0  0  0  0  0
   -1.5430   24.9980  -27.1160 C   0  0  0  0  0  0  0  0  0  0  0  0
   -0.3590   24.6950  -27.7930 C   0  0  0  0  0  0  0  0  0  0  0  0
   -0.3820   23.8320  -28.8900 C   0  0  0  0  0  0  0  0  0  0  0  0
   -1.5870   23.2620  -29.3130 C   0  0  0  0  0  0  0  0  0  0  0  0
   -1.5590   22.0630  -30.8090 Br  0  0  0  0  0  0  0  0  0  0  0  0
   -7.1110   22.6870  -30.1290 C   0  0  0  0  0  0  0  0  0  0  0  0
   -8.1630   22.0040  -30.6530 N   0  0  0  0  0  0  0  0  0  0  0  0
   -7.1728   17.8108  -31.5545 H   0  0  0  0  0  0  0  0  0  0  0  0
   -8.2069   17.3533  -32.9502 H   0  0  0  0  0  0  0  0  0  0  0  0
   -7.3437   18.9286  -32.9502 H   0  0  0  0  0  0  0  0  0  0  0  0
   -9.9260   18.1683  -31.7149 H   0  0  0  0  0  0  0  0  0  0  0  0
   -8.8053   19.0470  -30.5994 H   0  0  0  0  0  0  0  0  0  0  0  0
   -6.7573   20.7353  -33.4559 H   0  0  0  0  0  0  0  0  0  0  0  0
   -4.7974   21.9865  -32.5411 H   0  0  0  0  0  0  0  0  0  0  0  0
   -4.5020   22.2980  -28.4220 H   0  0  0  0  0  0  0  0  0  0  0  0
   -1.5220   25.6824  -26.2551 H   0  0  0  0  0  0  0  0  0  0  0  0
    0.5922   25.1369  -27.4613 H   0  0  0  0  0  0  0  0  0  0  0  0
    0.5513   23.5994  -29.4238 H   0  0  0  0  0  0  0  0  0  0  0  0
   -7.2328   23.2377  -29.1846 H   0  0  0  0  0  0  0  0  0  0  0  0
  1  2  1  0
  2  3  1  0
  3  4  1  0
  4  5  2  0
  5  6  1  0
  6  7  2  0
  7  8  1  0
  8  9  2  0
  8 10  1  0
 10 11  1  0
 11 12  2  0
 12 13  1  0
 12 14  1  0
 14 15  2  0
 15 16  1  0
 16 17  2  0
 17 18  1  0
  7 19  1  0
 19 20  2  0
 20  4  1  0
 17 11  1  0
  1 21  1  0
  1 22  1  0
  1 23  1  0
  2 24  1  0
  2 25  1  0
  5 26  1  0
  6 27  1  0
 10 28  1  0
 14 29  1  0
 15 30  1  0
 16 31  1  0
 19 32  1  0
M  END
>  <UniqueID>  (47) 
45

>  <SMILES>  (47) 
CCSc1ccc(C(=O)Nc2c(Cl)cccc2Br)cn1

>  <Energy>  (47) 
35.8108549802549

>  <Genealogy>  (47) 
CCSc1ccc(C(=O)Nc2c(Cl)cccc2Br)cn1 (3D coordinates assigned)
CCSc1ccc(C(=O)Nc2c(Cl)cccc2Br)cn1 (optimized conformer: 35.8108549802549 kcal/mol)

>  <smiles>  (47) 
CCSc1ccc(C(=O)Nc2c(Cl)cccc2Br)cn1

>  <score_type>  (47) 
oracle

>  <origin>  (47) 
adgpu

>  <m_score__min__energy>  (47) 
-7.5700000000000003

>  <m_primary>  (47) 
energy

$$$$
47:0
     RDKit          3D

 41 43  0  0  0  0  0  0  0  0999 V2000
   -8.5988   23.3189  -30.8581 H   0  0  0  0  0  0  0  0  0  0  0  0
   -7.5670   23.0680  -31.1450 C   0  0  0  0  0  0  0  0  0  0  0  0
   -7.3220   21.9590  -31.8890 N   0  0  0  0  0  0  0  0  0  0  0  0
   -6.0560   21.6310  -32.2510 C   0  0  0  0  0  0  0  0  0  0  0  0
   -5.7580   20.1640  -33.2310 S   0  0  0  0  0  0  0  0  0  0  0  0
   -7.3520   19.4070  -32.7910 C   0  0  0  0  0  0  0  0  0  0  0  0
   -7.4467   19.3620  -31.6960 H   0  0  0  0  0  0  0  0  0  0  0  0
   -8.1720   20.0119  -33.2054 H   0  0  0  0  0  0  0  0  0  0  0  0
   -7.4014   18.3893  -33.2054 H   0  0  0  0  0  0  0  0  0  0  0  0
   -5.0160   22.4160  -31.8740 N   0  0  0  0  0  0  0  0  0  0  0  0
   -5.2030   23.5400  -31.1300 C   0  0  0  0  0  0  0  0  0  0  0  0
   -4.0230   24.3540  -30.7620 C   0  0  0  0  0  0  0  0  0  0  0  0
   -4.0750   25.6090  -30.8440 O   0  0  0  0  0  0  0  0  0  0  0  0
   -2.7890   23.7430  -30.3640 N   0  0  0  0  0  0  0  0  0  0  0  0
   -2.2310   23.7810  -29.0430 C   0  0  0  0  0  0  0  0  0  0  0  0
   -2.0010   25.0340  -28.4610 C   0  0  0  0  0  0  0  0  0  0  0  0
   -2.2812   25.9472  -29.0065 H   0  0  0  0  0  0  0  0  0  0  0  0
   -1.4200   25.1360  -27.1960 C   0  0  0  0  0  0  0  0  0  0  0  0
   -1.2368   26.1258  -26.7525 H   0  0  0  0  0  0  0  0  0  0  0  0
   -1.0720   23.9820  -26.4950 C   0  0  0  0  0  0  0  0  0  0  0  0
   -0.5995   24.0626  -25.5049 H   0  0  0  0  0  0  0  0  0  0  0  0
   -1.3220   22.7250  -27.0470 C   0  0  0  0  0  0  0  0  0  0  0  0
   -1.0384   21.8201  -26.4896 H   0  0  0  0  0  0  0  0  0  0  0  0
   -1.9330   22.6020  -28.3090 C   0  0  0  0  0  0  0  0  0  0  0  0
   -2.2440   21.2180  -28.8400 C   0  0  0  0  0  0  0  0  0  0  0  0
   -2.3103   20.5165  -27.9953 H   0  0  0  0  0  0  0  0  0  0  0  0
   -3.1984   21.2612  -29.3852 H   0  0  0  0  0  0  0  0  0  0  0  0
   -1.2040   20.7570  -29.7630 N   0  0  0  0  0  0  0  0  0  0  0  0
   -1.2270   20.8340  -31.0650 C   0  0  0  0  0  0  0  0  0  0  0  0
   -0.1410   20.3210  -31.7860 C   0  0  0  0  0  0  0  0  0  0  0  0
    0.7102   19.8690  -31.2558 H   0  0  0  0  0  0  0  0  0  0  0  0
   -0.1440   20.3860  -33.1790 C   0  0  0  0  0  0  0  0  0  0  0  0
    0.7051   19.9843  -33.7515 H   0  0  0  0  0  0  0  0  0  0  0  0
   -1.2250   20.9610  -33.8440 C   0  0  0  0  0  0  0  0  0  0  0  0
   -1.2365   21.0163  -34.9426 H   0  0  0  0  0  0  0  0  0  0  0  0
   -2.2930   21.4660  -33.1010 C   0  0  0  0  0  0  0  0  0  0  0  0
   -3.1511   21.9220  -33.6164 H   0  0  0  0  0  0  0  0  0  0  0  0
   -2.2780   21.3970  -31.7410 N   0  0  0  0  0  0  0  0  0  0  0  0
   -3.1000   21.7960  -31.2360 H   0  0  0  0  0  0  0  0  0  0  0  0
   -6.5130   23.8910  -30.7430 C   0  0  0  0  0  0  0  0  0  0  0  0
   -6.8680   25.2800  -29.7210 Cl  0  0  0  0  0  0  0  0  0  0  0  0
  1  2  1  0
  2  3  2  0
  3  4  1  0
  4  5  1  0
  5  6  1  0
  6  7  1  0
  6  8  1  0
  6  9  1  0
  4 10  2  0
 10 11  1  0
 11 12  1  0
 12 13  2  0
 12 14  1  0
 14 15  1  0
 15 16  2  0
 16 17  1  0
 16 18  1  0
 18 19  1  0
 18 20  2  0
 20 21  1  0
 20 22  1  0
 22 23  1  0
 22 24  2  0
 24 25  1  0
 25 26  1  0
 25 27  1  0
 25 28  1  0
 28 29  2  0
 29 30  1  0
 30 31  1  0
 30 32  2  0
 32 33  1  0
 32 34  1  0
 34 35  1  0
 34 36  2  0
 36 37  1  0
 36 38  1  0
 38 39  1  0
 11 40  2  0
 40 41  1  0
 40  2  1  0
 24 15  1  0
 38 29  1  0
M  CHG  1  14  -1
M  END
>  <UniqueID>  (48) 
46

>  <SMILES>  (48) 
CSc1ncc(Cl)c(C(=O)[N-]c2ccccc2C/N=c2/cccc[nH]2)n1

>  <Energy>  (48) 
51.67225372730568

>  <Genealogy>  (48) 
CSc1ncc(Cl)c(C(=O)[N-]c2ccccc2CN=c2cccc[nH]2)n1 (protonated)
CSc1ncc(Cl)c(C(=O)[N-]c2ccccc2C/N=c2/cccc[nH]2)n1 (cis-trans isomerization)
CSc1ncc(Cl)c(C(=O)[N-]c2ccccc2C/N=c2/cccc[nH]2)n1 (3D coordinates assigned)
CSc1ncc(Cl)c(C(=O)[N-]c2ccccc2C/N=c2/cccc[nH]2)n1 (optimized conformer: 51.67225372730568 kcal/mol)

>  <smiles>  (48) 
CSc1ncc(Cl)c(C(=O)Nc2ccccc2CN=c2cccc[nH]2)n1

>  <score_type>  (48) 
oracle

>  <origin>  (48) 
adgpu

>  <m_score__min__energy>  (48) 
-8.9000000000000004

>  <m_primary>  (48) 
energy

$$$$
48:0
     RDKit          3D

 43 46  0  0  0  0  0  0  0  0999 V2000
   -8.1810   21.4250  -30.8100 C   0  0  0  0  0  0  0  0  0  0  0  0
   -7.4130   20.5830  -31.7930 C   0  0  0  0  0  0  0  0  0  0  0  0
   -7.9370   19.3320  -32.1550 C   0  0  0  0  0  0  0  0  0  0  0  0
   -7.2670   18.5210  -33.0750 C   0  0  0  0  0  0  0  0  0  0  0  0
   -6.0650   18.9490  -33.6410 C   0  0  0  0  0  0  0  0  0  0  0  0
   -5.2300   17.9330  -34.8010 Cl  0  0  0  0  0  0  0  0  0  0  0  0
   -5.5270   20.1870  -33.2830 C   0  0  0  0  0  0  0  0  0  0  0  0
   -6.1860   21.0070  -32.3530 C   0  0  0  0  0  0  0  0  0  0  0  0
   -5.6020   22.2700  -32.0070 N   0  0  0  0  0  0  0  0  0  0  0  0
   -6.1340   23.5020  -32.1280 C   0  0  0  0  0  0  0  0  0  0  0  0
   -7.4960   23.7980  -32.6680 C   0  0  0  0  0  0  0  0  0  0  0  0
   -5.3260   24.4380  -31.5920 N   0  0  0  0  0  0  0  0  0  0  0  0
   -4.2570   23.8060  -31.1240 N   0  0  0  0  0  0  0  0  0  0  0  0
   -4.4380   22.4960  -31.3730 C   0  0  0  0  0  0  0  0  0  0  0  0
   -3.2680   21.2210  -30.8900 S   0  0  0  0  0  0  0  0  0  0  0  0
   -1.8270   22.3410  -30.8520 C   0  0  0  0  0  0  0  0  0  0  0  0
   -1.6280   22.9030  -29.4760 C   0  0  0  0  0  0  0  0  0  0  0  0
   -1.5350   22.0580  -28.3600 C   0  0  0  0  0  0  0  0  0  0  0  0
   -1.3220   22.6040  -27.0910 C   0  0  0  0  0  0  0  0  0  0  0  0
   -1.2440   21.8370  -26.0940 O   0  0  0  0  0  0  0  0  0  0  0  0
   -1.1980   23.9980  -26.9440 C   0  0  0  0  0  0  0  0  0  0  0  0
   -0.9800   24.5990  -25.6900 C   0  0  0  0  0  0  0  0  0  0  0  0
   -0.8610   25.9900  -25.5900 C   0  0  0  0  0  0  0  0  0  0  0  0
   -0.5630   26.7990  -23.8850 Br  0  0  0  0  0  0  0  0  0  0  0  0
   -0.9550   26.7880  -26.7330 C   0  0  0  0  0  0  0  0  0  0  0  0
   -1.1700   26.2020  -27.9840 C   0  0  0  0  0  0  0  0  0  0  0  0
   -1.2930   24.8130  -28.0960 C   0  0  0  0  0  0  0  0  0  0  0  0
   -1.5010   24.2480  -29.3150 N   0  0  0  0  0  0  0  0  0  0  0  0
   -7.9116   21.1297  -29.7852 H   0  0  0  0  0  0  0  0  0  0  0  0
   -7.9328   22.4856  -30.9632 H   0  0  0  0  0  0  0  0  0  0  0  0
   -9.2599   21.2751  -30.9632 H   0  0  0  0  0  0  0  0  0  0  0  0
   -8.8825   18.9873  -31.7110 H   0  0  0  0  0  0  0  0  0  0  0  0
   -7.6877   17.5435  -33.3536 H   0  0  0  0  0  0  0  0  0  0  0  0
   -4.5806   20.5220  -33.7326 H   0  0  0  0  0  0  0  0  0  0  0  0
   -8.1962   23.9502  -31.8334 H   0  0  0  0  0  0  0  0  0  0  0  0
   -7.4563   24.7085  -33.2840 H   0  0  0  0  0  0  0  0  0  0  0  0
   -7.8378   22.9532  -33.2840 H   0  0  0  0  0  0  0  0  0  0  0  0
   -0.9271   21.7815  -31.1471 H   0  0  0  0  0  0  0  0  0  0  0  0
   -2.0064   23.1716  -31.5505 H   0  0  0  0  0  0  0  0  0  0  0  0
   -1.6294   20.9690  -28.4832 H   0  0  0  0  0  0  0  0  0  0  0  0
   -0.9031   23.9748  -24.7876 H   0  0  0  0  0  0  0  0  0  0  0  0
   -0.8596   27.8806  -26.6484 H   0  0  0  0  0  0  0  0  0  0  0  0
   -1.2425   26.8340  -28.8814 H   0  0  0  0  0  0  0  0  0  0  0  0
  1  2  1  0
  2  3  2  0
  3  4  1  0
  4  5  2  0
  5  6  1  0
  5  7  1  0
  7  8  2  0
  8  9  1  0
  9 10  1  0
 10 11  1  0
 10 12  2  0
 12 13  1  0
 13 14  2  0
 14 15  1  0
 15 16  1  0
 16 17  1  0
 17 18  2  0
 18 19  1  0
 19 20  2  0
 19 21  1  0
 21 22  2  0
 22 23  1  0
 23 24  1  0
 23 25  2  0
 25 26  1  0
 26 27  2  0
 27 28  1  0
  8  2  1  0
 14  9  1  0
 28 17  1  0
 27 21  1  0
  1 29  1  0
  1 30  1  0
  1 31  1  0
  3 32  1  0
  4 33  1  0
  7 34  1  0
 11 35  1  0
 11 36  1  0
 11 37  1  0
 16 38  1  0
 16 39  1  0
 18 40  1  0
 22 41  1  0
 25 42  1  0
 26 43  1  0
M  CHG  1  28  -1
M  END
>  <UniqueID>  (49) 
47

>  <SMILES>  (49) 
Cc1ccc(Cl)cc1-n1c(C)nnc1SCc1cc(=O)c2cc(Br)ccc2[n-]1

>  <Energy>  (49) 
86.3357331010057

>  <Genealogy>  (49) 
Cc1ccc(Cl)cc1-n1c(C)nnc1SCc1cc(=O)c2cc(Br)ccc2[n-]1 (protonated)
Cc1ccc(Cl)cc1-n1c(C)nnc1SCc1cc(=O)c2cc(Br)ccc2[n-]1 (3D coordinates assigned)
Cc1ccc(Cl)cc1-n1c(C)nnc1SCc1cc(=O)c2cc(Br)ccc2[n-]1 (optimized conformer: 86.3357331010057 kcal/mol)

>  <smiles>  (49) 
Cc1ccc(Cl)cc1-n1c(C)nnc1SCc1cc(=O)c2cc(Br)ccc2[nH]1

>  <score_type>  (49) 
oracle

>  <origin>  (49) 
adgpu

>  <m_score__min__energy>  (49) 
-10.970000000000001

>  <m_primary>  (49) 
energy

$$$$
49:0
     RDKit          3D

 56 58  0  0  0  0  0  0  0  0999 V2000
   -2.7760   23.9430  -27.9310 C   0  0  0  0  0  0  0  0  0  0  0  0
   -2.5440   24.9220  -29.0420 C   0  0  0  0  0  0  0  0  0  0  0  0
   -1.5260   25.6670  -29.0110 O   0  0  0  0  0  0  0  0  0  0  0  0
   -3.4870   25.1000  -30.1100 N   0  0  0  0  0  0  0  0  0  0  0  0
   -4.4660   24.1470  -30.5530 C   0  0  0  0  0  0  0  0  0  0  0  0
   -4.0820   22.9810  -31.2430 C   0  0  0  0  0  0  0  0  0  0  0  0
   -5.0400   22.0500  -31.6750 C   0  0  0  0  0  0  0  0  0  0  0  0
   -4.6090   20.8540  -32.3480 N   0  0  0  0  0  0  0  0  0  0  0  0
   -5.3890   20.1790  -33.3670 C   0  0  0  0  0  0  0  0  0  0  0  0
   -6.5320   20.6110  -33.6750 O   0  0  0  0  0  0  0  0  0  0  0  0
   -4.9160   18.9540  -33.9860 N   0  0  0  0  0  0  0  0  0  0  0  0
   -3.5250   18.6480  -34.0900 C   0  0  0  0  0  0  0  0  0  0  0  0
   -2.5910   19.6830  -33.9390 C   0  0  0  0  0  0  0  0  0  0  0  0
   -1.2200   19.4020  -33.9350 C   0  0  0  0  0  0  0  0  0  0  0  0
   -0.0550   20.7160  -33.6980 S   0  0  0  0  0  0  0  0  0  0  0  0
   -0.5040   21.9150  -34.4860 O   0  0  0  0  0  0  0  0  0  0  0  0
    1.2890   20.2940  -34.2270 O   0  0  0  0  0  0  0  0  0  0  0  0
    0.1010   21.1490  -32.0040 N   0  0  0  0  0  0  0  0  0  0  0  0
    0.6490   20.0200  -31.2000 C   0  0  0  0  0  0  0  0  0  0  0  0
   -0.4310   19.2660  -30.3970 C   0  0  0  0  0  0  0  0  0  0  0  0
   -1.1970   20.2140  -29.4450 C   0  0  0  0  0  0  0  0  0  0  0  0
   -1.2210   21.6800  -29.9510 C   0  0  0  0  0  0  0  0  0  0  0  0
   -1.1670   21.7250  -31.4830 C   0  0  0  0  0  0  0  0  0  0  0  0
   -0.7900   18.0730  -34.1020 C   0  0  0  0  0  0  0  0  0  0  0  0
   -1.7190   17.0370  -34.2770 C   0  0  0  0  0  0  0  0  0  0  0  0
   -3.0910   17.3140  -34.2790 C   0  0  0  0  0  0  0  0  0  0  0  0
   -4.0340   16.2380  -34.4370 N   0  0  0  0  0  0  0  0  0  0  0  0
   -6.4010   22.3250  -31.4700 C   0  0  0  0  0  0  0  0  0  0  0  0
   -6.7950   23.5000  -30.8170 C   0  0  0  0  0  0  0  0  0  0  0  0
   -5.8360   24.4200  -30.3610 C   0  0  0  0  0  0  0  0  0  0  0  0
   -6.2680   25.6740  -29.6540 C   0  0  0  0  0  0  0  0  0  0  0  0
   -2.6555   24.4515  -26.9631 H   0  0  0  0  0  0  0  0  0  0  0  0
   -3.7953   23.5366  -28.0073 H   0  0  0  0  0  0  0  0  0  0  0  0
   -2.0474   23.1224  -28.0073 H   0  0  0  0  0  0  0  0  0  0  0  0
   -3.0167   22.7971  -31.4463 H   0  0  0  0  0  0  0  0  0  0  0  0
   -3.7830   20.3540  -31.9470 H   0  0  0  0  0  0  0  0  0  0  0  0
   -2.9375   20.7205  -33.8232 H   0  0  0  0  0  0  0  0  0  0  0  0
    1.1371   19.3090  -31.8828 H   0  0  0  0  0  0  0  0  0  0  0  0
    1.3566   20.4482  -30.4747 H   0  0  0  0  0  0  0  0  0  0  0  0
   -1.1454   18.8111  -31.0989 H   0  0  0  0  0  0  0  0  0  0  0  0
    0.0666   18.4959  -29.7893 H   0  0  0  0  0  0  0  0  0  0  0  0
   -2.2333   19.8570  -29.3517 H   0  0  0  0  0  0  0  0  0  0  0  0
   -0.6748   20.2054  -28.4769 H   0  0  0  0  0  0  0  0  0  0  0  0
   -2.1465   22.1655  -29.6078 H   0  0  0  0  0  0  0  0  0  0  0  0
   -0.3426   22.2071  -29.5503 H   0  0  0  0  0  0  0  0  0  0  0  0
   -2.0129   21.1494  -31.8869 H   0  0  0  0  0  0  0  0  0  0  0  0
   -1.2214   22.7775  -31.7980 H   0  0  0  0  0  0  0  0  0  0  0  0
    0.2859   17.8440  -34.0953 H   0  0  0  0  0  0  0  0  0  0  0  0
   -1.3682   16.0033  -34.4131 H   0  0  0  0  0  0  0  0  0  0  0  0
   -5.0640   16.4050  -34.3710 H   0  0  0  0  0  0  0  0  0  0  0  0
   -3.7140   15.2750  -34.6960 H   0  0  0  0  0  0  0  0  0  0  0  0
   -7.1622   21.6142  -31.8239 H   0  0  0  0  0  0  0  0  0  0  0  0
   -7.8644   23.7041  -30.6599 H   0  0  0  0  0  0  0  0  0  0  0  0
   -6.2145   25.5187  -28.5663 H   0  0  0  0  0  0  0  0  0  0  0  0
   -5.6037   26.5031  -29.9391 H   0  0  0  0  0  0  0  0  0  0  0  0
   -7.3020   25.9180  -29.9391 H   0  0  0  0  0  0  0  0  0  0  0  0
  1  2  1  0
  2  3  2  0
  2  4  1  0
  4  5  1  0
  5  6  2  0
  6  7  1  0
  7  8  1  0
  8  9  1  0
  9 10  2  0
  9 11  1  0
 11 12  1  0
 12 13  2  0
 13 14  1  0
 14 15  1  0
 15 16  2  0
 15 17  2  0
 15 18  1  0
 18 19  1  0
 19 20  1  0
 20 21  1  0
 21 22  1  0
 22 23  1  0
 14 24  2  0
 24 25  1  0
 25 26  2  0
 26 27  1  0
  7 28  2  0
 28 29  1  0
 29 30  2  0
 30 31  1  0
 30  5  1  0
 26 12  1  0
 23 18  1  0
  1 32  1  0
  1 33  1  0
  1 34  1  0
  6 35  1  0
  8 36  1  0
 13 37  1  0
 19 38  1  0
 19 39  1  0
 20 40  1  0
 20 41  1  0
 21 42  1  0
 21 43  1  0
 22 44  1  0
 22 45  1  0
 23 46  1  0
 23 47  1  0
 24 48  1  0
 25 49  1  0
 27 50  1  0
 27 51  1  0
 28 52  1  0
 29 53  1  0
 31 54  1  0
 31 55  1  0
 31 56  1  0
M  CHG  2   4  -1  11  -1
M  END
>  <UniqueID>  (50) 
48

>  <SMILES>  (50) 
CC(=O)[N-]c1cc(NC(=O)[N-]c2cc(S(=O)(=O)N3CCCCC3)ccc2N)ccc1C

>  <Energy>  (50) 
72.79917065187658

>  <Genealogy>  (50) 
CC(=O)[N-]c1cc(NC(=O)[N-]c2cc(S(=O)(=O)N3CCCCC3)ccc2N)ccc1C (protonated)
CC(=O)[N-]c1cc(NC(=O)[N-]c2cc(S(=O)(=O)N3CCCCC3)ccc2N)ccc1C (3D coordinates assigned)
CC(=O)[N-]c1cc(NC(=O)[N-]c2cc(S(=O)(=O)N3CCCCC3)ccc2N)ccc1C (nonaromatic ring conformer: 72.79917065187658 kcal/mol)

>  <smiles>  (50) 
CC(=O)Nc1cc(NC(=O)Nc2cc(S(=O)(=O)N3CCCCC3)ccc2N)ccc1C

>  <score_type>  (50) 
oracle

>  <origin>  (50) 
adgpu

>  <m_score__min__energy>  (50) 
-11.720000000000001

>  <m_primary>  (50) 
energy

$$$$
