0:0
     RDKit          3D

 41 43  0  0  0  0  0  0  0  0999 V2000
    0.7420   24.5600  -27.5030 C   0  0  0  0  0  0  0  0  0  0  0  0
   -0.1500   24.1770  -28.6830 C   0  0  0  0  0  0  0  0  0  0  0  0
   -1.4910   23.7750  -28.2290 N   0  0  0  0  0  0  0  0  0  0  0  0
   -2.5790   24.7670  -28.2520 C   0  0  0  0  0  0  0  0  0  0  0  0
   -3.5440   24.4650  -29.3540 C   0  0  0  0  0  0  0  0  0  0  0  0
   -4.3640   23.3980  -29.3640 N   0  0  0  0  0  0  0  0  0  0  0  0
   -4.9960   23.5580  -30.5470 C   0  0  0  0  0  0  0  0  0  0  0  0
   -6.0270   22.6310  -31.0610 C   0  0  0  0  0  0  0  0  0  0  0  0
   -7.3370   22.6640  -30.5500 C   0  0  0  0  0  0  0  0  0  0  0  0
   -8.3100   21.7870  -31.0400 C   0  0  0  0  0  0  0  0  0  0  0  0
   -7.9870   20.8680  -32.0420 C   0  0  0  0  0  0  0  0  0  0  0  0
   -9.3170   19.6710  -32.7080 Br  0  0  0  0  0  0  0  0  0  0  0  0
   -6.6870   20.8270  -32.5570 C   0  0  0  0  0  0  0  0  0  0  0  0
   -5.7110   21.7020  -32.0700 C   0  0  0  0  0  0  0  0  0  0  0  0
   -4.5780   24.6560  -31.2080 N   0  0  0  0  0  0  0  0  0  0  0  0
   -3.6790   25.1880  -30.4380 O   0  0  0  0  0  0  0  0  0  0  0  0
   -1.7320   22.4290  -27.7500 C   0  0  0  0  0  0  0  0  0  0  0  0
   -1.2860   22.0270  -26.4770 C   0  0  0  0  0  0  0  0  0  0  0  0
   -1.5160   20.7270  -26.0180 C   0  0  0  0  0  0  0  0  0  0  0  0
   -2.2100   19.8070  -26.8150 C   0  0  0  0  0  0  0  0  0  0  0  0
   -2.4220   18.4010  -26.3370 C   0  0  0  0  0  0  0  0  0  0  0  0
   -2.6400   20.1910  -28.0910 C   0  0  0  0  0  0  0  0  0  0  0  0
   -2.4090   21.4910  -28.5530 C   0  0  0  0  0  0  0  0  0  0  0  0
    0.2201   24.3359  -26.5610 H   0  0  0  0  0  0  0  0  0  0  0  0
    1.6784   23.9846  -27.5493 H   0  0  0  0  0  0  0  0  0  0  0  0
    0.9697   25.6352  -27.5493 H   0  0  0  0  0  0  0  0  0  0  0  0
   -0.2437   25.0412  -29.3571 H   0  0  0  0  0  0  0  0  0  0  0  0
    0.3104   23.3253  -29.2052 H   0  0  0  0  0  0  0  0  0  0  0  0
   -3.1106   24.7428  -27.2893 H   0  0  0  0  0  0  0  0  0  0  0  0
   -2.1463   25.7638  -28.4230 H   0  0  0  0  0  0  0  0  0  0  0  0
   -7.5978   23.3839  -29.7602 H   0  0  0  0  0  0  0  0  0  0  0  0
   -9.3324   21.8207  -30.6356 H   0  0  0  0  0  0  0  0  0  0  0  0
   -6.4320   20.1049  -33.3467 H   0  0  0  0  0  0  0  0  0  0  0  0
   -4.6901   21.6640  -32.4779 H   0  0  0  0  0  0  0  0  0  0  0  0
   -0.7508   22.7435  -25.8366 H   0  0  0  0  0  0  0  0  0  0  0  0
   -1.1502   20.4245  -25.0257 H   0  0  0  0  0  0  0  0  0  0  0  0
   -2.4245   18.3841  -25.2371 H   0  0  0  0  0  0  0  0  0  0  0  0
   -3.3866   18.0279  -26.7117 H   0  0  0  0  0  0  0  0  0  0  0  0
   -1.6103   17.7600  -26.7117 H   0  0  0  0  0  0  0  0  0  0  0  0
   -3.1621   19.4667  -28.7334 H   0  0  0  0  0  0  0  0  0  0  0  0
   -2.7597   21.7835  -29.5537 H   0  0  0  0  0  0  0  0  0  0  0  0
  1  2  1  0
  2  3  1  0
  3  4  1  0
  4  5  1  0
  5  6  2  0
  6  7  1  0
  7  8  1  0
  8  9  2  0
  9 10  1  0
 10 11  2  0
 11 12  1  0
 11 13  1  0
 13 14  2  0
  7 15  2  0
 15 16  1  0
  3 17  1  0
 17 18  2  0
 18 19  1  0
 19 20  2  0
 20 21  1  0
 20 22  1  0
 22 23  2  0
 16  5  1  0
 23 17  1  0
 14  8  1  0
  1 24  1  0
  1 25  1  0
  1 26  1  0
  2 27  1  0
  2 28  1  0
  4 29  1  0
  4 30  1  0
  9 31  1  0
 10 32  1  0
 13 33  1  0
 14 34  1  0
 18 35  1  0
 19 36  1  0
 21 37  1  0
 21 38  1  0
 21 39  1  0
 22 40  1  0
 23 41  1  0
M  END
>  <UniqueID>  (1) 
1

>  <SMILES>  (1) 
CCN(Cc1nc(-c2ccc(Br)cc2)no1)c1ccc(C)cc1

>  <Energy>  (1) 
75.82504118174442

>  <Genealogy>  (1) 
CCN(Cc1nc(-c2ccc(Br)cc2)no1)c1ccc(C)cc1 (3D coordinates assigned)
CCN(Cc1nc(-c2ccc(Br)cc2)no1)c1ccc(C)cc1 (optimized conformer: 75.82504118174442 kcal/mol)

>  <smiles>  (1) 
CCN(Cc1nc(-c2ccc(Br)cc2)no1)c1ccc(C)cc1

>  <score_type>  (1) 
oracle

>  <origin>  (1) 
adgpu

>  <m_score__min__energy>  (1) 
-8.9100000000000001

>  <m_primary>  (1) 
energy

$$$$
1:0
     RDKit          3D

 51 53  0  0  0  0  0  0  0  0999 V2000
   -0.0300   18.0440  -28.6550 C   0  0  0  0  0  0  0  0  0  0  0  0
   -0.3030   19.3060  -27.8940 C   0  0  0  0  0  0  0  0  0  0  0  0
   -1.3790   19.3690  -26.9970 C   0  0  0  0  0  0  0  0  0  0  0  0
   -1.6620   20.5570  -26.3180 C   0  0  0  0  0  0  0  0  0  0  0  0
   -0.8740   21.7000  -26.5220 C   0  0  0  0  0  0  0  0  0  0  0  0
   -1.2110   22.9190  -25.8400 N   0  0  0  0  0  0  0  0  0  0  0  0
   -0.3250   23.6150  -24.9510 C   0  0  0  0  0  0  0  0  0  0  0  0
    0.6800   23.0320  -24.4580 O   0  0  0  0  0  0  0  0  0  0  0  0
   -0.5910   25.0470  -24.5990 C   0  0  0  0  0  0  0  0  0  0  0  0
   -0.6550   26.0870  -26.0990 S   0  0  0  0  0  0  0  0  0  0  0  0
   -2.1020   25.2770  -26.7880 C   0  0  0  0  0  0  0  0  0  0  0  0
   -3.2690   25.1630  -26.1250 N   0  0  0  0  0  0  0  0  0  0  0  0
   -4.1010   24.5050  -26.9180 N   0  0  0  0  0  0  0  0  0  0  0  0
   -3.4320   24.2340  -28.0550 C   0  0  0  0  0  0  0  0  0  0  0  0
   -4.0070   23.4150  -29.1720 C   0  0  0  0  0  0  0  0  0  0  0  0
   -4.5140   24.3110  -30.2730 C   0  0  0  0  0  0  0  0  0  0  0  0
   -3.8100   25.2910  -30.6350 O   0  0  0  0  0  0  0  0  0  0  0  0
   -5.7550   24.0720  -30.9470 N   0  0  0  0  0  0  0  0  0  0  0  0
   -5.8880   23.4680  -32.2660 C   0  0  0  0  0  0  0  0  0  0  0  0
   -6.9410   22.3990  -32.2180 C   0  0  0  0  0  0  0  0  0  0  0  0
   -8.1990   22.6690  -31.6530 C   0  0  0  0  0  0  0  0  0  0  0  0
   -9.1670   21.6630  -31.5780 C   0  0  0  0  0  0  0  0  0  0  0  0
   -8.8840   20.3810  -32.0590 C   0  0  0  0  0  0  0  0  0  0  0  0
   -7.6290   20.1030  -32.6090 C   0  0  0  0  0  0  0  0  0  0  0  0
   -6.6570   21.1050  -32.6830 C   0  0  0  0  0  0  0  0  0  0  0  0
   -2.1690   24.7050  -28.0070 N   0  0  0  0  0  0  0  0  0  0  0  0
   -1.1080   24.5410  -28.9980 C   0  0  0  0  0  0  0  0  0  0  0  0
    0.1850   21.6460  -27.4470 C   0  0  0  0  0  0  0  0  0  0  0  0
    0.4650   20.4570  -28.1280 C   0  0  0  0  0  0  0  0  0  0  0  0
    0.1481   17.2206  -27.9477 H   0  0  0  0  0  0  0  0  0  0  0  0
   -0.8967   17.8027  -29.2879 H   0  0  0  0  0  0  0  0  0  0  0  0
    0.8590   18.1825  -29.2879 H   0  0  0  0  0  0  0  0  0  0  0  0
   -2.0031   18.4792  -26.8271 H   0  0  0  0  0  0  0  0  0  0  0  0
   -2.5095   20.5965  -25.6178 H   0  0  0  0  0  0  0  0  0  0  0  0
   -2.1780   23.2980  -25.9660 H   0  0  0  0  0  0  0  0  0  0  0  0
   -1.5543   25.1153  -24.0723 H   0  0  0  0  0  0  0  0  0  0  0  0
    0.2254   25.4079  -23.9562 H   0  0  0  0  0  0  0  0  0  0  0  0
   -3.2267   22.7522  -29.5744 H   0  0  0  0  0  0  0  0  0  0  0  0
   -4.8453   22.8187  -28.7825 H   0  0  0  0  0  0  0  0  0  0  0  0
   -6.1793   24.2383  -32.9953 H   0  0  0  0  0  0  0  0  0  0  0  0
   -4.9271   23.0256  -32.5674 H   0  0  0  0  0  0  0  0  0  0  0  0
   -8.4228   23.6750  -31.2685 H   0  0  0  0  0  0  0  0  0  0  0  0
  -10.1524   21.8803  -31.1401 H   0  0  0  0  0  0  0  0  0  0  0  0
   -9.6482   19.5917  -32.0047 H   0  0  0  0  0  0  0  0  0  0  0  0
   -7.4059   19.0934  -32.9844 H   0  0  0  0  0  0  0  0  0  0  0  0
   -5.6673   20.8791  -33.1066 H   0  0  0  0  0  0  0  0  0  0  0  0
   -0.1466   24.3924  -28.4846 H   0  0  0  0  0  0  0  0  0  0  0  0
   -1.3265   23.6660  -29.6277 H   0  0  0  0  0  0  0  0  0  0  0  0
   -1.0521   25.4412  -29.6277 H   0  0  0  0  0  0  0  0  0  0  0  0
    0.7947   22.5420  -27.6351 H   0  0  0  0  0  0  0  0  0  0  0  0
    1.2927   20.4238  -28.8518 H   0  0  0  0  0  0  0  0  0  0  0  0
  1  2  1  0
  2  3  2  0
  3  4  1  0
  4  5  2  0
  5  6  1  0
  6  7  1  0
  7  8  2  0
  7  9  1  0
  9 10  1  0
 10 11  1  0
 11 12  2  0
 12 13  1  0
 13 14  2  0
 14 15  1  0
 15 16  1  0
 16 17  2  0
 16 18  1  0
 18 19  1  0
 19 20  1  0
 20 21  2  0
 21 22  1  0
 22 23  2  0
 23 24  1  0
 24 25  2  0
 14 26  1  0
 26 27  1  0
  5 28  1  0
 28 29  2  0
 29  2  1  0
 26 11  1  0
 25 20  1  0
  1 30  1  0
  1 31  1  0
  1 32  1  0
  3 33  1  0
  4 34  1  0
  6 35  1  0
  9 36  1  0
  9 37  1  0
 15 38  1  0
 15 39  1  0
 19 40  1  0
 19 41  1  0
 21 42  1  0
 22 43  1  0
 23 44  1  0
 24 45  1  0
 25 46  1  0
 27 47  1  0
 27 48  1  0
 27 49  1  0
 28 50  1  0
 29 51  1  0
M  CHG  1  18  -1
M  END
>  <UniqueID>  (2) 
2

>  <SMILES>  (2) 
Cc1ccc(NC(=O)CSc2nnc(CC(=O)[N-]Cc3ccccc3)n2C)cc1

>  <Energy>  (2) 
80.00819632141767

>  <Genealogy>  (2) 
Cc1ccc(NC(=O)CSc2nnc(CC(=O)[N-]Cc3ccccc3)n2C)cc1 (protonated)
Cc1ccc(NC(=O)CSc2nnc(CC(=O)[N-]Cc3ccccc3)n2C)cc1 (3D coordinates assigned)
Cc1ccc(NC(=O)CSc2nnc(CC(=O)[N-]Cc3ccccc3)n2C)cc1 (optimized conformer: 80.00819632141767 kcal/mol)

>  <smiles>  (2) 
Cc1ccc(NC(=O)CSc2nnc(CC(=O)NCc3ccccc3)n2C)cc1

>  <score_type>  (2) 
oracle

>  <origin>  (2) 
adgpu

>  <m_score__min__energy>  (2) 
-11.699999999999999

>  <m_primary>  (2) 
energy

$$$$
2:0
     RDKit          3D

 43 46  0  0  0  0  0  0  0  0999 V2000
   -5.9900   18.8380  -33.8410 C   0  0  0  0  0  0  0  0  0  0  0  0
   -7.0520   19.4270  -32.9610 C   0  0  0  0  0  0  0  0  0  0  0  0
   -8.0120   18.5970  -32.3620 C   0  0  0  0  0  0  0  0  0  0  0  0
   -9.0280   19.1490  -31.5770 C   0  0  0  0  0  0  0  0  0  0  0  0
   -9.0970   20.5310  -31.3890 C   0  0  0  0  0  0  0  0  0  0  0  0
   -8.1450   21.3730  -31.9840 C   0  0  0  0  0  0  0  0  0  0  0  0
   -8.2520   22.8640  -31.8230 C   0  0  0  0  0  0  0  0  0  0  0  0
   -7.0860   23.3700  -31.1080 N   0  0  0  0  0  0  0  0  0  0  0  0
   -5.9310   23.7740  -31.6710 C   0  0  0  0  0  0  0  0  0  0  0  0
   -5.0620   24.0840  -30.6460 C   0  0  0  0  0  0  0  0  0  0  0  0
   -3.6910   24.4850  -30.7340 N   0  0  0  0  0  0  0  0  0  0  0  0
   -2.6970   24.3120  -29.7170 C   0  0  0  0  0  0  0  0  0  0  0  0
   -2.0260   25.2980  -29.3090 O   0  0  0  0  0  0  0  0  0  0  0  0
   -2.5190   23.0010  -29.0650 C   0  0  0  0  0  0  0  0  0  0  0  0
   -2.2030   22.9860  -27.7400 N   0  0  0  0  0  0  0  0  0  0  0  0
   -2.1130   21.8350  -27.0250 C   0  0  0  0  0  0  0  0  0  0  0  0
   -2.3680   20.6100  -27.6400 C   0  0  0  0  0  0  0  0  0  0  0  0
   -2.6800   20.5820  -28.9980 C   0  0  0  0  0  0  0  0  0  0  0  0
   -2.7310   21.7720  -29.7400 C   0  0  0  0  0  0  0  0  0  0  0  0
   -2.9380   21.6970  -31.1600 N   0  0  0  0  0  0  0  0  0  0  0  0
   -2.0000   21.7560  -32.1220 C   0  0  0  0  0  0  0  0  0  0  0  0
   -2.5390   21.5580  -33.3400 N   0  0  0  0  0  0  0  0  0  0  0  0
   -3.8450   21.3640  -33.0530 C   0  0  0  0  0  0  0  0  0  0  0  0
   -4.0980   21.4320  -31.7310 N   0  0  0  0  0  0  0  0  0  0  0  0
   -5.7440   23.8230  -29.4780 C   0  0  0  0  0  0  0  0  0  0  0  0
   -6.9810   23.3830  -29.7870 N   0  0  0  0  0  0  0  0  0  0  0  0
   -7.1350   20.8170  -32.7870 C   0  0  0  0  0  0  0  0  0  0  0  0
   -5.1982   18.3988  -33.2164 H   0  0  0  0  0  0  0  0  0  0  0  0
   -6.4320   18.0561  -34.4760 H   0  0  0  0  0  0  0  0  0  0  0  0
   -5.5608   19.6270  -34.4760 H   0  0  0  0  0  0  0  0  0  0  0  0
   -7.9647   17.5081  -32.5108 H   0  0  0  0  0  0  0  0  0  0  0  0
   -9.7751   18.4932  -31.1061 H   0  0  0  0  0  0  0  0  0  0  0  0
   -9.9002   20.9610  -30.7725 H   0  0  0  0  0  0  0  0  0  0  0  0
   -8.3044   23.3354  -32.8155 H   0  0  0  0  0  0  0  0  0  0  0  0
   -9.1603   23.1026  -31.2502 H   0  0  0  0  0  0  0  0  0  0  0  0
   -5.7200   23.8437  -32.7483 H   0  0  0  0  0  0  0  0  0  0  0  0
   -1.8388   21.8692  -25.9603 H   0  0  0  0  0  0  0  0  0  0  0  0
   -2.3234   19.6764  -27.0600 H   0  0  0  0  0  0  0  0  0  0  0  0
   -2.8876   19.6210  -29.4914 H   0  0  0  0  0  0  0  0  0  0  0  0
   -0.9316   21.9418  -31.9378 H   0  0  0  0  0  0  0  0  0  0  0  0
   -4.6160   21.1719  -33.8137 H   0  0  0  0  0  0  0  0  0  0  0  0
   -5.3455   23.9521  -28.4609 H   0  0  0  0  0  0  0  0  0  0  0  0
   -6.4054   21.4748  -33.2819 H   0  0  0  0  0  0  0  0  0  0  0  0
  1  2  1  0
  2  3  2  0
  3  4  1  0
  4  5  2  0
  5  6  1  0
  6  7  1  0
  7  8  1  0
  8  9  1  0
  9 10  2  0
 10 11  1  0
 11 12  1  0
 12 13  2  0
 12 14  1  0
 14 15  2  0
 15 16  1  0
 16 17  2  0
 17 18  1  0
 18 19  2  0
 19 20  1  0
 20 21  1  0
 21 22  2  0
 22 23  1  0
 23 24  2  0
 10 25  1  0
 25 26  2  0
  6 27  2  0
 27  2  1  0
 26  8  1  0
 19 14  1  0
 24 20  1  0
  1 28  1  0
  1 29  1  0
  1 30  1  0
  3 31  1  0
  4 32  1  0
  5 33  1  0
  7 34  1  0
  7 35  1  0
  9 36  1  0
 16 37  1  0
 17 38  1  0
 18 39  1  0
 21 40  1  0
 23 41  1  0
 25 42  1  0
 27 43  1  0
M  CHG  1  11  -1
M  END
>  <UniqueID>  (3) 
3

>  <SMILES>  (3) 
Cc1cccc(Cn2cc([N-]C(=O)c3ncccc3-n3cncn3)cn2)c1

>  <Energy>  (3) 
119.06666659763681

>  <Genealogy>  (3) 
Cc1cccc(Cn2cc([N-]C(=O)c3ncccc3-n3cncn3)cn2)c1 (protonated)
Cc1cccc(Cn2cc([N-]C(=O)c3ncccc3-n3cncn3)cn2)c1 (3D coordinates assigned)
Cc1cccc(Cn2cc([N-]C(=O)c3ncccc3-n3cncn3)cn2)c1 (optimized conformer: 119.06666659763681 kcal/mol)

>  <smiles>  (3) 
Cc1cccc(Cn2cc(NC(=O)c3ncccc3-n3cncn3)cn2)c1

>  <score_type>  (3) 
oracle

>  <origin>  (3) 
adgpu

>  <m_score__min__energy>  (3) 
-10.359999999999999

>  <m_primary>  (3) 
energy

$$$$
3:0
     RDKit          3D

 76 79  0  0  0  0  0  0  0  0999 V2000
   -0.8180   26.1730  -28.2560 C   0  0  0  0  0  0  0  0  0  0  0  0
   -1.5680   25.4470  -29.2260 O   0  0  0  0  0  0  0  0  0  0  0  0
   -2.6400   24.5930  -28.9230 C   0  0  0  0  0  0  0  0  0  0  0  0
   -2.5640   23.6280  -27.9000 C   0  0  0  0  0  0  0  0  0  0  0  0
   -3.6560   22.7980  -27.6310 C   0  0  0  0  0  0  0  0  0  0  0  0
   -4.8300   22.9210  -28.3740 C   0  0  0  0  0  0  0  0  0  0  0  0
   -4.9270   23.8810  -29.3960 C   0  0  0  0  0  0  0  0  0  0  0  0
   -6.1930   23.9820  -30.2140 C   0  0  0  0  0  0  0  0  0  0  0  0
   -6.1480   23.0690  -31.4550 C   0  0  1  0  0  0  0  0  0  0  0  0
   -6.7170   23.7690  -32.6960 C   0  0  0  0  0  0  0  0  0  0  0  0
   -4.7620   22.6630  -31.7090 N   0  0  0  0  0  0  0  0  0  0  0  0
   -4.4220   21.3450  -32.1760 C   0  0  0  0  0  0  0  0  0  0  0  0
   -5.3330   20.5560  -32.5470 O   0  0  0  0  0  0  0  0  0  0  0  0
   -3.0110   20.9070  -32.2540 C   0  0  0  0  0  0  0  0  0  0  0  0
   -2.0130   21.6280  -31.5750 C   0  0  0  0  0  0  0  0  0  0  0  0
   -0.6780   21.2190  -31.6360 C   0  0  0  0  0  0  0  0  0  0  0  0
   -0.3140   20.0890  -32.3840 C   0  0  0  0  0  0  0  0  0  0  0  0
    1.1050   19.6600  -32.4390 C   0  0  0  0  0  0  0  0  0  0  0  0
    1.7830   19.4040  -31.2350 C   0  0  0  0  0  0  0  0  0  0  0  0
    3.1300   19.0020  -31.2310 C   0  0  0  0  0  0  0  0  0  0  0  0
    3.8200   18.7010  -29.9550 C   0  0  0  0  0  0  0  0  0  0  0  0
    5.0710   18.8420  -29.8690 O   0  0  0  0  0  0  0  0  0  0  0  0
    3.0660   18.2400  -28.8250 N   0  0  0  0  0  0  0  0  0  0  0  0
    1.8060   18.7450  -28.3490 C   0  0  0  0  0  0  0  0  0  0  0  0
    1.5730   20.1280  -28.2030 C   0  0  0  0  0  0  0  0  0  0  0  0
    0.3330   20.5920  -27.7560 C   0  0  0  0  0  0  0  0  0  0  0  0
   -0.6900   19.6890  -27.4660 C   0  0  0  0  0  0  0  0  0  0  0  0
   -0.4830   18.3190  -27.6320 C   0  0  0  0  0  0  0  0  0  0  0  0
    0.7580   17.8370  -28.0840 C   0  0  0  0  0  0  0  0  0  0  0  0
    0.9680   16.3580  -28.2650 C   0  0  0  0  0  0  0  0  0  0  0  0
    3.8040   18.8710  -32.4560 C   0  0  0  0  0  0  0  0  0  0  0  0
    3.1410   19.1210  -33.6580 C   0  0  0  0  0  0  0  0  0  0  0  0
    1.7930   19.5060  -33.6690 C   0  0  0  0  0  0  0  0  0  0  0  0
    1.1250   19.6760  -34.9310 N   0  0  0  0  0  0  0  0  0  0  0  0
    0.7060   18.5130  -35.7150 C   0  0  0  0  0  0  0  0  0  0  0  0
    0.9220   21.2600  -35.6150 S   0  0  0  0  0  0  0  0  0  0  0  0
    2.4920   21.9580  -36.0930 C   0  0  0  0  0  0  0  0  0  0  0  0
    0.0290   21.1740  -36.8210 O   0  0  0  0  0  0  0  0  0  0  0  0
    0.2970   22.1690  -34.5940 O   0  0  0  0  0  0  0  0  0  0  0  0
   -1.3050   19.3840  -33.0850 C   0  0  0  0  0  0  0  0  0  0  0  0
   -2.6430   19.7880  -33.0170 C   0  0  0  0  0  0  0  0  0  0  0  0
   -3.8220   24.7120  -29.6700 C   0  0  0  0  0  0  0  0  0  0  0  0
   -3.8940   25.6620  -30.6860 O   0  0  0  0  0  0  0  0  0  0  0  0
   -1.1323   25.8688  -27.2467 H   0  0  0  0  0  0  0  0  0  0  0  0
    0.2533   25.9600  -28.3863 H   0  0  0  0  0  0  0  0  0  0  0  0
   -0.9961   27.2507  -28.3863 H   0  0  0  0  0  0  0  0  0  0  0  0
   -1.6411   23.5270  -27.3100 H   0  0  0  0  0  0  0  0  0  0  0  0
   -3.5893   22.0458  -26.8312 H   0  0  0  0  0  0  0  0  0  0  0  0
   -5.6848   22.2629  -28.1589 H   0  0  0  0  0  0  0  0  0  0  0  0
   -7.0468   23.6874  -29.5862 H   0  0  0  0  0  0  0  0  0  0  0  0
   -6.2951   25.0217  -30.5584 H   0  0  0  0  0  0  0  0  0  0  0  0
   -6.7718   22.1859  -31.2525 H   0  0  0  0  0  0  0  0  0  0  0  0
   -7.3821   24.5872  -32.3828 H   0  0  0  0  0  0  0  0  0  0  0  0
   -5.8915   24.1773  -33.2975 H   0  0  0  0  0  0  0  0  0  0  0  0
   -7.2854   23.0443  -33.2975 H   0  0  0  0  0  0  0  0  0  0  0  0
   -3.9980   23.3490  -31.5160 H   0  0  0  0  0  0  0  0  0  0  0  0
   -2.2848   22.5201  -30.9917 H   0  0  0  0  0  0  0  0  0  0  0  0
    0.0926   21.7868  -31.0940 H   0  0  0  0  0  0  0  0  0  0  0  0
    1.2506   19.5202  -30.2795 H   0  0  0  0  0  0  0  0  0  0  0  0
    2.3717   20.8455  -28.4423 H   0  0  0  0  0  0  0  0  0  0  0  0
    0.1632   21.6718  -27.6325 H   0  0  0  0  0  0  0  0  0  0  0  0
   -1.6618   20.0576  -27.1058 H   0  0  0  0  0  0  0  0  0  0  0  0
   -1.2955   17.6121  -27.4079 H   0  0  0  0  0  0  0  0  0  0  0  0
    1.0367   15.8741  -27.2795 H   0  0  0  0  0  0  0  0  0  0  0  0
    0.1212   15.9331  -28.8239 H   0  0  0  0  0  0  0  0  0  0  0  0
    1.8996   16.1856  -28.8239 H   0  0  0  0  0  0  0  0  0  0  0  0
    4.8617   18.5693  -32.4680 H   0  0  0  0  0  0  0  0  0  0  0  0
    3.6830   19.0146  -34.6093 H   0  0  0  0  0  0  0  0  0  0  0  0
    0.4128   17.6991  -35.0356 H   0  0  0  0  0  0  0  0  0  0  0  0
   -0.1498   18.7874  -36.3493 H   0  0  0  0  0  0  0  0  0  0  0  0
    1.5402   18.1785  -36.3493 H   0  0  0  0  0  0  0  0  0  0  0  0
    3.0688   22.2144  -35.1921 H   0  0  0  0  0  0  0  0  0  0  0  0
    3.0527   21.2244  -36.6908 H   0  0  0  0  0  0  0  0  0  0  0  0
    2.3229   22.8657  -36.6908 H   0  0  0  0  0  0  0  0  0  0  0  0
   -1.0282   18.5089  -33.6913 H   0  0  0  0  0  0  0  0  0  0  0  0
   -3.4120   19.2244  -33.5656 H   0  0  0  0  0  0  0  0  0  0  0  0
  1  2  1  0
  2  3  1  0
  3  4  2  0
  4  5  1  0
  5  6  2  0
  6  7  1  0
  7  8  1  0
  8  9  1  0
  9 10  1  0
  9 11  1  0
 11 12  1  0
 12 13  2  0
 12 14  1  0
 14 15  2  0
 15 16  1  0
 16 17  2  0
 17 18  1  0
 18 19  2  0
 19 20  1  0
 20 21  1  0
 21 22  2  0
 21 23  1  0
 23 24  1  0
 24 25  2  0
 25 26  1  0
 26 27  2  0
 27 28  1  0
 28 29  2  0
 29 30  1  0
 20 31  2  0
 31 32  1  0
 32 33  2  0
 33 34  1  0
 34 35  1  0
 34 36  1  0
 36 37  1  0
 36 38  2  0
 36 39  2  0
 17 40  1  0
 40 41  2  0
  7 42  2  0
 42 43  1  0
 42  3  1  0
 41 14  1  0
 33 18  1  0
 29 24  1  0
  1 44  1  0
  1 45  1  0
  1 46  1  0
  4 47  1  0
  5 48  1  0
  6 49  1  0
  8 50  1  0
  8 51  1  0
  9 52  1  1
 10 53  1  0
 10 54  1  0
 10 55  1  0
 11 56  1  0
 15 57  1  0
 16 58  1  0
 19 59  1  0
 25 60  1  0
 26 61  1  0
 27 62  1  0
 28 63  1  0
 30 64  1  0
 30 65  1  0
 30 66  1  0
 31 67  1  0
 32 68  1  0
 35 69  1  0
 35 70  1  0
 35 71  1  0
 37 72  1  0
 37 73  1  0
 37 74  1  0
 40 75  1  0
 41 76  1  0
M  CHG  2  23  -1  43  -1
M  END
>  <UniqueID>  (4) 
4

>  <SMILES>  (4) 
COc1cccc(C[C@@H](C)NC(=O)c2ccc(-c3cc(C(=O)[N-]c4ccccc4C)ccc3N(C)S(C)(=O)=O)cc2)c1[O-]

>  <Energy>  (4) 
89.42922367682722

>  <Genealogy>  (4) 
COc1cccc(CC(C)NC(=O)c2ccc(-c3cc(C(=O)[N-]c4ccccc4C)ccc3N(C)S(C)(=O)=O)cc2)c1[O-] (protonated)
COc1cccc(C[C@@H](C)NC(=O)c2ccc(-c3cc(C(=O)[N-]c4ccccc4C)ccc3N(C)S(C)(=O)=O)cc2)c1[O-] (chirality)
COc1cccc(C[C@@H](C)NC(=O)c2ccc(-c3cc(C(=O)[N-]c4ccccc4C)ccc3N(C)S(C)(=O)=O)cc2)c1[O-] (3D coordinates assigned)
COc1cccc(C[C@@H](C)NC(=O)c2ccc(-c3cc(C(=O)[N-]c4ccccc4C)ccc3N(C)S(C)(=O)=O)cc2)c1[O-] (optimized conformer: 89.42922367682722 kcal/mol)

>  <smiles>  (4) 
COc1cccc(CC(C)NC(=O)c2ccc(-c3cc(C(=O)Nc4ccccc4C)ccc3N(C)S(C)(=O)=O)cc2)c1O

>  <score_type>  (4) 
oracle

>  <origin>  (4) 
adgpu

>  <m_score__min__energy>  (4) 
-14.01

>  <m_primary>  (4) 
energy

$$$$
4:0
     RDKit          3D

 48 50  0  0  1  0  0  0  0  0999 V2000
   -5.2570   17.4630  -34.8900 C   0  0  0  0  0  0  0  0  0  0  0  0
   -4.5320   18.7440  -33.8420 S   0  0  0  0  0  0  0  0  0  0  0  0
   -5.8410   19.6490  -33.0250 C   0  0  0  0  0  0  0  0  0  0  0  0
   -7.0740   19.1540  -33.0420 N   0  0  0  0  0  0  0  0  0  0  0  0
   -8.1200   19.7780  -32.4470 C   0  0  0  0  0  0  0  0  0  0  0  0
   -9.4910   19.1860  -32.4900 C   0  0  0  0  0  0  0  0  0  0  0  0
   -7.8620   20.9720  -31.8090 C   0  0  0  0  0  0  0  0  0  0  0  0
   -6.5780   21.4970  -31.7850 C   0  0  0  0  0  0  0  0  0  0  0  0
   -6.2840   22.6030  -31.2070 N   0  0  0  0  0  0  0  0  0  0  0  0
   -4.6630   23.1960  -31.2170 S   0  0  0  0  0  0  0  0  0  0  0  0
   -3.9790   22.9330  -32.5520 O   0  0  0  0  0  0  0  0  0  0  0  0
   -4.5930   24.6450  -30.8350 O   0  0  0  0  0  0  0  0  0  0  0  0
   -3.7800   22.3070  -29.9900 C   0  0  0  0  0  0  0  0  0  0  0  0
   -3.1560   21.1040  -30.2480 C   0  0  0  0  0  0  0  0  0  0  0  0
   -2.4780   20.4630  -29.2250 C   0  0  0  0  0  0  0  0  0  0  0  0
   -2.4180   21.0050  -27.9560 C   0  0  0  0  0  0  0  0  0  0  0  0
   -1.5810   20.2450  -26.6290 S   0  0  0  0  0  0  0  0  0  0  0  0
   -1.2230   21.2290  -25.5450 O   0  0  0  0  0  0  0  0  0  0  0  0
   -2.4520   19.2080  -25.9480 O   0  0  0  0  0  0  0  0  0  0  0  0
   -0.1450   19.4620  -27.1060 N   0  0  0  0  0  0  0  0  0  0  0  0
    0.6620   20.2050  -28.0300 C   0  0  0  0  0  0  0  0  0  0  0  0
    1.9000   19.3460  -28.2910 C   0  0  0  0  0  0  0  0  0  0  0  0
    1.5550   18.0850  -28.7630 O   0  0  0  0  0  0  0  0  0  0  0  0
    0.8280   17.4140  -27.7880 C   0  0  0  0  0  0  0  0  0  0  0  0
   -0.4850   18.1520  -27.6210 C   0  0  0  0  0  0  0  0  0  0  0  0
   -3.0470   22.2240  -27.6770 C   0  0  0  0  0  0  0  0  0  0  0  0
   -3.7170   22.8490  -28.7100 C   0  0  0  0  0  0  0  0  0  0  0  0
   -5.5840   20.8260  -32.3960 N   0  0  0  0  0  0  0  0  0  0  0  0
   -5.7004   16.6796  -34.2578 H   0  0  0  0  0  0  0  0  0  0  0  0
   -6.0376   17.9072  -35.5251 H   0  0  0  0  0  0  0  0  0  0  0  0
   -4.4743   17.0224  -35.5251 H   0  0  0  0  0  0  0  0  0  0  0  0
   -9.8549   19.0289  -31.4639 H   0  0  0  0  0  0  0  0  0  0  0  0
  -10.1698   19.8712  -33.0189 H   0  0  0  0  0  0  0  0  0  0  0  0
   -9.4577   18.2221  -33.0189 H   0  0  0  0  0  0  0  0  0  0  0  0
   -8.6816   21.5137  -31.3143 H   0  0  0  0  0  0  0  0  0  0  0  0
   -3.1966   20.6597  -31.2535 H   0  0  0  0  0  0  0  0  0  0  0  0
   -1.9778   19.5043  -29.4267 H   0  0  0  0  0  0  0  0  0  0  0  0
    0.1113   20.3768  -28.9666 H   0  0  0  0  0  0  0  0  0  0  0  0
    0.9331   21.1917  -27.6263 H   0  0  0  0  0  0  0  0  0  0  0  0
    2.5315   19.8472  -29.0393 H   0  0  0  0  0  0  0  0  0  0  0  0
    2.4410   19.2228  -27.3412 H   0  0  0  0  0  0  0  0  0  0  0  0
    0.6401   16.3774  -28.1045 H   0  0  0  0  0  0  0  0  0  0  0  0
    1.3827   17.3841  -26.8386 H   0  0  0  0  0  0  0  0  0  0  0  0
   -0.9976   18.2437  -28.5899 H   0  0  0  0  0  0  0  0  0  0  0  0
   -1.1642   17.6163  -26.9416 H   0  0  0  0  0  0  0  0  0  0  0  0
   -3.0089   22.6679  -26.6713 H   0  0  0  0  0  0  0  0  0  0  0  0
   -4.2182   23.8084  -28.5143 H   0  0  0  0  0  0  0  0  0  0  0  0
   -4.5950   21.1440  -32.4280 H   0  0  0  0  0  0  0  0  0  0  0  0
  1  2  1  0
  2  3  1  0
  3  4  2  0
  4  5  1  0
  5  6  1  0
  5  7  2  0
  7  8  1  0
  8  9  2  0
  9 10  1  0
 10 11  2  0
 10 12  2  0
 10 13  1  0
 13 14  2  0
 14 15  1  0
 15 16  2  0
 16 17  1  0
 17 18  2  0
 17 19  2  0
 17 20  1  0
 20 21  1  0
 21 22  1  0
 22 23  1  0
 23 24  1  0
 24 25  1  0
 16 26  1  0
 26 27  2  0
  8 28  1  0
 28  3  1  0
 27 13  1  0
 25 20  1  0
  1 29  1  0
  1 30  1  0
  1 31  1  0
  6 32  1  0
  6 33  1  0
  6 34  1  0
  7 35  1  0
 14 36  1  0
 15 37  1  0
 21 38  1  0
 21 39  1  0
 22 40  1  0
 22 41  1  0
 24 42  1  0
 24 43  1  0
 25 44  1  0
 25 45  1  0
 26 46  1  0
 27 47  1  0
 28 48  1  0
M  END
>  <smiles>  (5) 
CSc1nc(C)cc(=NS(=O)(=O)c2ccc(S(=O)(=O)N3CCOCC3)cc2)[nH]1

>  <score_type>  (5) 
oracle

>  <origin>  (5) 
adgpu

>  <m_score__min__energy>  (5) 
-9.7799999999999994

>  <m_primary>  (5) 
energy

$$$$
5:0
     RDKit          3D

 43 45  0  0  0  0  0  0  0  0999 V2000
   -1.6030   20.4260  -32.4810 C   0  0  0  0  0  0  0  0  0  0  0  0
   -2.5440   21.4730  -32.0510 N   0  0  0  0  0  0  0  0  0  0  0  0
   -3.3040   21.0920  -30.8430 C   0  0  0  0  0  0  0  0  0  0  0  0
   -4.3890   20.0460  -31.1340 C   0  0  0  0  0  0  0  0  0  0  0  0
   -5.2010   20.4690  -32.2770 N   0  0  0  0  0  0  0  0  0  0  0  0
   -6.5890   20.0980  -32.3290 C   0  0  0  0  0  0  0  0  0  0  0  0
   -6.9490   18.7410  -32.3360 C   0  0  0  0  0  0  0  0  0  0  0  0
   -8.2940   18.3680  -32.3280 C   0  0  0  0  0  0  0  0  0  0  0  0
   -9.2910   19.3440  -32.3110 C   0  0  0  0  0  0  0  0  0  0  0  0
   -8.9470   20.6980  -32.3110 C   0  0  0  0  0  0  0  0  0  0  0  0
   -7.5950   21.0900  -32.3270 C   0  0  0  0  0  0  0  0  0  0  0  0
   -7.2340   22.4820  -32.3800 N   0  0  0  0  0  0  0  0  0  0  0  0
   -7.4640   23.4020  -31.2670 C   0  0  0  0  0  0  0  0  0  0  0  0
   -6.1540   23.8000  -30.6420 C   0  0  0  0  0  0  0  0  0  0  0  0
   -5.6800   23.1260  -29.5060 C   0  0  0  0  0  0  0  0  0  0  0  0
   -4.4410   23.4660  -28.9600 C   0  0  0  0  0  0  0  0  0  0  0  0
   -3.6830   24.4730  -29.5600 C   0  0  0  0  0  0  0  0  0  0  0  0
   -4.1490   25.1080  -30.6690 N   0  0  0  0  0  0  0  0  0  0  0  0
   -5.3520   24.7940  -31.2200 C   0  0  0  0  0  0  0  0  0  0  0  0
   -4.5130   20.8970  -33.4930 C   0  0  0  0  0  0  0  0  0  0  0  0
   -3.4280   21.9260  -33.1450 C   0  0  0  0  0  0  0  0  0  0  0  0
   -1.1661   19.9399  -31.5963 H   0  0  0  0  0  0  0  0  0  0  0  0
   -2.1378   19.6775  -33.0840 H   0  0  0  0  0  0  0  0  0  0  0  0
   -0.8019   20.8782  -33.0840 H   0  0  0  0  0  0  0  0  0  0  0  0
   -2.6041   20.6771  -30.1027 H   0  0  0  0  0  0  0  0  0  0  0  0
   -3.8050   21.9957  -30.4656 H   0  0  0  0  0  0  0  0  0  0  0  0
   -3.9125   19.0814  -31.3631 H   0  0  0  0  0  0  0  0  0  0  0  0
   -5.0363   19.9428  -30.2506 H   0  0  0  0  0  0  0  0  0  0  0  0
   -6.1669   17.9676  -32.3479 H   0  0  0  0  0  0  0  0  0  0  0  0
   -8.5684   17.3028  -32.3351 H   0  0  0  0  0  0  0  0  0  0  0  0
  -10.3500   19.0467  -32.2976 H   0  0  0  0  0  0  0  0  0  0  0  0
   -9.7376   21.4627  -32.2984 H   0  0  0  0  0  0  0  0  0  0  0  0
   -6.7340   22.8350  -33.2280 H   0  0  0  0  0  0  0  0  0  0  0  0
   -7.9771   24.3011  -31.6390 H   0  0  0  0  0  0  0  0  0  0  0  0
   -8.0852   22.9010  -30.5099 H   0  0  0  0  0  0  0  0  0  0  0  0
   -6.2844   22.3303  -29.0461 H   0  0  0  0  0  0  0  0  0  0  0  0
   -4.0659   22.9458  -28.0663 H   0  0  0  0  0  0  0  0  0  0  0  0
   -2.7077   24.7533  -29.1355 H   0  0  0  0  0  0  0  0  0  0  0  0
   -5.6967   25.3214  -32.1217 H   0  0  0  0  0  0  0  0  0  0  0  0
   -4.0472   20.0247  -33.9748 H   0  0  0  0  0  0  0  0  0  0  0  0
   -5.2408   21.3559  -34.1784 H   0  0  0  0  0  0  0  0  0  0  0  0
   -2.8153   22.1082  -34.0402 H   0  0  0  0  0  0  0  0  0  0  0  0
   -3.9344   22.8418  -32.8061 H   0  0  0  0  0  0  0  0  0  0  0  0
  1  2  1  0
  2  3  1  0
  3  4  1  0
  4  5  1  0
  5  6  1  0
  6  7  2  0
  7  8  1  0
  8  9  2  0
  9 10  1  0
 10 11  2  0
 11 12  1  0
 12 13  1  0
 13 14  1  0
 14 15  2  0
 15 16  1  0
 16 17  2  0
 17 18  1  0
 18 19  2  0
  5 20  1  0
 20 21  1  0
 21  2  1  0
 11  6  1  0
 19 14  1  0
  1 22  1  0
  1 23  1  0
  1 24  1  0
  3 25  1  0
  3 26  1  0
  4 27  1  0
  4 28  1  0
  7 29  1  0
  8 30  1  0
  9 31  1  0
 10 32  1  0
 12 33  1  0
 13 34  1  0
 13 35  1  0
 15 36  1  0
 16 37  1  0
 17 38  1  0
 19 39  1  0
 20 40  1  0
 20 41  1  0
 21 42  1  0
 21 43  1  0
M  END
>  <UniqueID>  (6) 
5

>  <SMILES>  (6) 
CN1CCN(c2ccccc2NCc2cccnc2)CC1

>  <Energy>  (6) 
51.37401945018685

>  <Genealogy>  (6) 
CN1CCN(c2ccccc2NCc2cccnc2)CC1 (3D coordinates assigned)
CN1CCN(c2ccccc2NCc2cccnc2)CC1 (nonaromatic ring conformer: 51.37401945018685 kcal/mol)

>  <smiles>  (6) 
CN1CCN(c2ccccc2NCc2cccnc2)CC1

>  <score_type>  (6) 
oracle

>  <origin>  (6) 
adgpu

>  <m_score__min__energy>  (6) 
-7.7300000000000004

>  <m_primary>  (6) 
energy

$$$$
6:0
     RDKit          3D

 50 52  0  0  0  0  0  0  0  0999 V2000
    0.6210   16.9610  -27.4600 C   0  0  0  0  0  0  0  0  0  0  0  0
    0.6780   17.8310  -28.6870 C   0  0  0  0  0  0  0  0  0  0  0  0
    1.4850   17.4550  -29.7740 C   0  0  0  0  0  0  0  0  0  0  0  0
    1.5640   18.2650  -30.9100 C   0  0  0  0  0  0  0  0  0  0  0  0
    0.8560   19.4630  -30.9650 C   0  0  0  0  0  0  0  0  0  0  0  0
    0.0580   19.8560  -29.8890 C   0  0  0  0  0  0  0  0  0  0  0  0
   -0.0520   19.0380  -28.7460 C   0  0  0  0  0  0  0  0  0  0  0  0
   -0.8370   19.4430  -27.6140 N   0  0  0  0  0  0  0  0  0  0  0  0
   -2.0230   20.2510  -27.6510 C   0  0  0  0  0  0  0  0  0  0  0  0
   -3.1210   19.7900  -27.2350 O   0  0  0  0  0  0  0  0  0  0  0  0
   -1.9430   21.6620  -28.0810 C   0  0  0  0  0  0  0  0  0  0  0  0
   -2.9880   22.1860  -28.8630 C   0  0  0  0  0  0  0  0  0  0  0  0
   -2.9710   23.5200  -29.2890 C   0  0  0  0  0  0  0  0  0  0  0  0
   -4.2880   24.1710  -30.2690 S   0  0  0  0  0  0  0  0  0  0  0  0
   -5.5160   24.2810  -29.4100 O   0  0  0  0  0  0  0  0  0  0  0  0
   -3.9300   25.5390  -30.7790 O   0  0  0  0  0  0  0  0  0  0  0  0
   -4.6650   23.1310  -31.6040 N   0  0  0  0  0  0  0  0  0  0  0  0
   -5.8600   22.3530  -31.7450 C   0  0  0  0  0  0  0  0  0  0  0  0
   -5.9260   21.0370  -32.1620 C   0  0  0  0  0  0  0  0  0  0  0  0
   -4.7620   20.1730  -32.5450 C   0  0  0  0  0  0  0  0  0  0  0  0
   -7.2290   20.6700  -32.2360 N   0  0  0  0  0  0  0  0  0  0  0  0
   -7.7320   19.3960  -32.7510 C   0  0  0  0  0  0  0  0  0  0  0  0
   -7.9870   21.7100  -31.8990 N   0  0  0  0  0  0  0  0  0  0  0  0
   -9.4490   21.7370  -31.9340 C   0  0  0  0  0  0  0  0  0  0  0  0
   -7.1790   22.7460  -31.5970 C   0  0  0  0  0  0  0  0  0  0  0  0
   -7.5870   23.8900  -31.2590 O   0  0  0  0  0  0  0  0  0  0  0  0
   -1.8940   24.3440  -28.9220 C   0  0  0  0  0  0  0  0  0  0  0  0
   -1.8430   25.6720  -29.3350 O   0  0  0  0  0  0  0  0  0  0  0  0
   -0.8570   23.8340  -28.1380 C   0  0  0  0  0  0  0  0  0  0  0  0
   -0.8590   22.4980  -27.7280 C   0  0  0  0  0  0  0  0  0  0  0  0
    0.2440   22.0330  -27.0050 O   0  0  0  0  0  0  0  0  0  0  0  0
    0.6624   17.5927  -26.5604 H   0  0  0  0  0  0  0  0  0  0  0  0
   -0.3167   16.3860  -27.4615 H   0  0  0  0  0  0  0  0  0  0  0  0
    1.4757   16.2686  -27.4615 H   0  0  0  0  0  0  0  0  0  0  0  0
    2.0582   16.5172  -29.7305 H   0  0  0  0  0  0  0  0  0  0  0  0
    2.1866   17.9557  -31.7625 H   0  0  0  0  0  0  0  0  0  0  0  0
    0.9257   20.1011  -31.8583 H   0  0  0  0  0  0  0  0  0  0  0  0
   -0.4883   20.8097  -29.9333 H   0  0  0  0  0  0  0  0  0  0  0  0
   -3.8314   21.5382  -29.1443 H   0  0  0  0  0  0  0  0  0  0  0  0
   -4.2646   19.8038  -31.6360 H   0  0  0  0  0  0  0  0  0  0  0  0
   -5.1190   19.3195  -33.1400 H   0  0  0  0  0  0  0  0  0  0  0  0
   -4.0484   20.7618  -33.1400 H   0  0  0  0  0  0  0  0  0  0  0  0
   -7.9921   18.7373  -31.9093 H   0  0  0  0  0  0  0  0  0  0  0  0
   -8.6264   19.5763  -33.3654 H   0  0  0  0  0  0  0  0  0  0  0  0
   -6.9556   18.9167  -33.3654 H   0  0  0  0  0  0  0  0  0  0  0  0
   -9.8403   21.7442  -30.9060 H   0  0  0  0  0  0  0  0  0  0  0  0
   -9.7865   22.6415  -32.4612 H   0  0  0  0  0  0  0  0  0  0  0  0
   -9.8197   20.8455  -32.4612 H   0  0  0  0  0  0  0  0  0  0  0  0
   -0.0279   24.4923  -27.8393 H   0  0  0  0  0  0  0  0  0  0  0  0
    0.4510   21.0530  -26.8730 H   0  0  0  0  0  0  0  0  0  0  0  0
  1  2  1  0
  2  3  2  0
  3  4  1  0
  4  5  2  0
  5  6  1  0
  6  7  2  0
  7  8  1  0
  8  9  1  0
  9 10  2  0
  9 11  1  0
 11 12  2  0
 12 13  1  0
 13 14  1  0
 14 15  2  0
 14 16  2  0
 14 17  1  0
 17 18  1  0
 18 19  2  0
 19 20  1  0
 19 21  1  0
 21 22  1  0
 21 23  1  0
 23 24  1  0
 23 25  1  0
 25 26  2  0
 13 27  2  0
 27 28  1  0
 27 29  1  0
 29 30  2  0
 30 31  1  0
  7  2  1  0
 30 11  1  0
 25 18  1  0
  1 32  1  0
  1 33  1  0
  1 34  1  0
  3 35  1  0
  4 36  1  0
  5 37  1  0
  6 38  1  0
 12 39  1  0
 20 40  1  0
 20 41  1  0
 20 42  1  0
 22 43  1  0
 22 44  1  0
 22 45  1  0
 24 46  1  0
 24 47  1  0
 24 48  1  0
 29 49  1  0
 31 50  1  0
M  CHG  3   8  -1  17  -1  28  -1
M  END
>  <UniqueID>  (7) 
6

>  <SMILES>  (7) 
Cc1ccccc1[N-]C(=O)c1cc(S(=O)(=O)[N-]c2c(C)n(C)n(C)c2=O)c([O-])cc1O

>  <Energy>  (7) 
100.14802376353708

>  <Genealogy>  (7) 
Cc1ccccc1[N-]C(=O)c1cc(S(=O)(=O)[N-]c2c(C)n(C)n(C)c2=O)c([O-])cc1O (protonated)
Cc1ccccc1[N-]C(=O)c1cc(S(=O)(=O)[N-]c2c(C)n(C)n(C)c2=O)c([O-])cc1O (3D coordinates assigned)
Cc1ccccc1[N-]C(=O)c1cc(S(=O)(=O)[N-]c2c(C)n(C)n(C)c2=O)c([O-])cc1O (optimized conformer: 100.14802376353708 kcal/mol)

>  <smiles>  (7) 
Cc1ccccc1NC(=O)c1cc(S(=O)(=O)Nc2c(C)n(C)n(C)c2=O)c(O)cc1O

>  <score_type>  (7) 
oracle

>  <origin>  (7) 
adgpu

>  <m_score__min__energy>  (7) 
-12.49

>  <m_primary>  (7) 
energy

$$$$
7:0
     RDKit          3D

 45 47  0  0  0  0  0  0  0  0999 V2000
   -9.4650   20.1460  -32.0400 C   0  0  0  0  0  0  0  0  0  0  0  0
   -8.3050   21.1030  -31.9750 C   0  0  0  0  0  0  0  0  0  0  0  0
   -8.5850   22.4510  -31.6980 C   0  0  0  0  0  0  0  0  0  0  0  0
   -7.5700   23.4010  -31.6650 C   0  0  0  0  0  0  0  0  0  0  0  0
   -6.2480   23.0320  -31.9340 C   0  0  0  0  0  0  0  0  0  0  0  0
   -5.1790   23.9910  -31.8880 N   0  0  0  0  0  0  0  0  0  0  0  0
   -5.0330   25.0500  -30.9350 C   0  0  0  0  0  0  0  0  0  0  0  0
   -6.0380   25.7490  -30.6440 O   0  0  0  0  0  0  0  0  0  0  0  0
   -3.7630   25.3030  -30.3210 N   0  0  0  0  0  0  0  0  0  0  0  0
   -3.0240   24.4130  -29.4700 C   0  0  0  0  0  0  0  0  0  0  0  0
   -3.5030   23.1310  -29.1390 C   0  0  0  0  0  0  0  0  0  0  0  0
   -2.7430   22.2830  -28.3270 C   0  0  0  0  0  0  0  0  0  0  0  0
   -1.4970   22.6970  -27.8530 C   0  0  0  0  0  0  0  0  0  0  0  0
   -1.0030   23.9580  -28.1970 C   0  0  0  0  0  0  0  0  0  0  0  0
   -1.7590   24.8110  -29.0080 C   0  0  0  0  0  0  0  0  0  0  0  0
   -1.2520   26.0600  -29.3500 O   0  0  0  0  0  0  0  0  0  0  0  0
   -5.9450   21.6890  -32.1890 C   0  0  0  0  0  0  0  0  0  0  0  0
   -4.6160   21.3400  -32.4150 O   0  0  0  0  0  0  0  0  0  0  0  0
   -6.9610   20.7030  -32.2150 C   0  0  0  0  0  0  0  0  0  0  0  0
   -6.5000   19.0070  -32.5650 S   0  0  0  0  0  0  0  0  0  0  0  0
   -6.0840   18.3000  -31.3060 O   0  0  0  0  0  0  0  0  0  0  0  0
   -7.7110   18.2820  -33.0810 O   0  0  0  0  0  0  0  0  0  0  0  0
   -5.2350   18.8640  -33.7740 N   0  0  0  0  0  0  0  0  0  0  0  0
   -5.5350   17.8680  -34.8250 C   0  0  0  0  0  0  0  0  0  0  0  0
   -4.7060   16.5860  -34.6470 C   0  0  0  0  0  0  0  0  0  0  0  0
   -3.3020   16.8150  -34.6800 O   0  0  0  0  0  0  0  0  0  0  0  0
   -2.9160   18.0890  -34.1730 C   0  0  0  0  0  0  0  0  0  0  0  0
   -3.9090   18.6740  -33.1560 C   0  0  0  0  0  0  0  0  0  0  0  0
   -9.7821   19.8844  -31.0197 H   0  0  0  0  0  0  0  0  0  0  0  0
  -10.3019   20.6199  -32.5739 H   0  0  0  0  0  0  0  0  0  0  0  0
   -9.1587   19.2343  -32.5739 H   0  0  0  0  0  0  0  0  0  0  0  0
   -9.6228   22.7600  -31.5042 H   0  0  0  0  0  0  0  0  0  0  0  0
   -7.8081   24.4480  -31.4261 H   0  0  0  0  0  0  0  0  0  0  0  0
   -4.4786   22.7952  -29.5205 H   0  0  0  0  0  0  0  0  0  0  0  0
   -3.1280   21.2874  -28.0612 H   0  0  0  0  0  0  0  0  0  0  0  0
   -0.9043   22.0308  -27.2089 H   0  0  0  0  0  0  0  0  0  0  0  0
   -0.0177   24.2806  -27.8294 H   0  0  0  0  0  0  0  0  0  0  0  0
   -6.6035   17.6109  -34.7779 H   0  0  0  0  0  0  0  0  0  0  0  0
   -5.2783   18.3097  -35.7992 H   0  0  0  0  0  0  0  0  0  0  0  0
   -4.9636   16.1354  -33.6772 H   0  0  0  0  0  0  0  0  0  0  0  0
   -4.9479   15.9217  -35.4898 H   0  0  0  0  0  0  0  0  0  0  0  0
   -1.9367   17.9859  -33.6828 H   0  0  0  0  0  0  0  0  0  0  0  0
   -2.8856   18.7804  -35.0280 H   0  0  0  0  0  0  0  0  0  0  0  0
   -4.0027   17.9840  -32.3045 H   0  0  0  0  0  0  0  0  0  0  0  0
   -3.5336   19.6503  -32.8156 H   0  0  0  0  0  0  0  0  0  0  0  0
  1  2  1  0
  2  3  2  0
  3  4  1  0
  4  5  2  0
  5  6  1  0
  6  7  1  0
  7  8  2  0
  7  9  1  0
  9 10  1  0
 10 11  2  0
 11 12  1  0
 12 13  2  0
 13 14  1  0
 14 15  2  0
 15 16  1  0
  5 17  1  0
 17 18  1  0
 17 19  2  0
 19 20  1  0
 20 21  2  0
 20 22  2  0
 20 23  1  0
 23 24  1  0
 24 25  1  0
 25 26  1  0
 26 27  1  0
 27 28  1  0
 19  2  1  0
 28 23  1  0
 15 10  1  0
  1 29  1  0
  1 30  1  0
  1 31  1  0
  3 32  1  0
  4 33  1  0
 11 34  1  0
 12 35  1  0
 13 36  1  0
 14 37  1  0
 24 38  1  0
 24 39  1  0
 25 40  1  0
 25 41  1  0
 27 42  1  0
 27 43  1  0
 28 44  1  0
 28 45  1  0
M  CHG  4   6  -1   9  -1  16  -1  18  -1
M  END
>  <UniqueID>  (8) 
7

>  <SMILES>  (8) 
Cc1ccc([N-]C(=O)[N-]c2ccccc2[O-])c([O-])c1S(=O)(=O)N1CCOCC1

>  <Energy>  (8) 
73.38091144656161

>  <Genealogy>  (8) 
Cc1ccc([N-]C(=O)[N-]c2ccccc2[O-])c([O-])c1S(=O)(=O)N1CCOCC1 (protonated)
Cc1ccc([N-]C(=O)[N-]c2ccccc2[O-])c([O-])c1S(=O)(=O)N1CCOCC1 (3D coordinates assigned)
Cc1ccc([N-]C(=O)[N-]c2ccccc2[O-])c([O-])c1S(=O)(=O)N1CCOCC1 (nonaromatic ring conformer: 73.38091144656161 kcal/mol)

>  <smiles>  (8) 
Cc1ccc(NC(=O)Nc2ccccc2O)c(O)c1S(=O)(=O)N1CCOCC1

>  <score_type>  (8) 
oracle

>  <origin>  (8) 
adgpu

>  <m_score__min__energy>  (8) 
-14.949999999999999

>  <m_primary>  (8) 
energy

$$$$
8:0
     RDKit          3D

 52 55  0  0  0  0  0  0  0  0999 V2000
    0.0140   23.7850  -25.0070 C   0  0  0  0  0  0  0  0  0  0  0  0
   -0.7430   23.6970  -26.3060 C   0  0  0  0  0  0  0  0  0  0  0  0
   -1.3170   22.4640  -26.6580 C   0  0  0  0  0  0  0  0  0  0  0  0
   -2.0110   22.3180  -27.8550 C   0  0  0  0  0  0  0  0  0  0  0  0
   -2.1570   23.3990  -28.7250 C   0  0  0  0  0  0  0  0  0  0  0  0
   -2.8520   23.2050  -29.9650 N   0  0  0  0  0  0  0  0  0  0  0  0
   -3.8500   24.1170  -30.4530 C   0  0  0  0  0  0  0  0  0  0  0  0
   -4.0450   25.2170  -29.8720 O   0  0  0  0  0  0  0  0  0  0  0  0
   -4.6160   23.8110  -31.6240 N   0  0  0  0  0  0  0  0  0  0  0  0
   -5.7480   22.9320  -31.6740 C   0  0  0  0  0  0  0  0  0  0  0  0
   -6.8850   23.2460  -30.9240 C   0  0  0  0  0  0  0  0  0  0  0  0
   -7.9960   22.4010  -30.9380 C   0  0  0  0  0  0  0  0  0  0  0  0
   -7.9820   21.2210  -31.6970 C   0  0  0  0  0  0  0  0  0  0  0  0
   -6.8180   20.8670  -32.4100 C   0  0  0  0  0  0  0  0  0  0  0  0
   -5.7110   21.7300  -32.4010 C   0  0  0  0  0  0  0  0  0  0  0  0
   -6.7760   19.6190  -33.2610 C   0  0  0  0  0  0  0  0  0  0  0  0
   -7.7800   18.6130  -32.8620 N   0  0  0  0  0  0  0  0  0  0  0  0
   -7.3710   17.8730  -31.6550 C   0  0  0  0  0  0  0  0  0  0  0  0
   -9.1220   19.2150  -32.7310 C   0  0  0  0  0  0  0  0  0  0  0  0
   -9.1760   20.3030  -31.6480 C   0  0  0  0  0  0  0  0  0  0  0  0
   -1.5700   24.6350  -28.4040 C   0  0  0  0  0  0  0  0  0  0  0  0
   -1.6240   25.6740  -29.3280 O   0  0  0  0  0  0  0  0  0  0  0  0
   -0.8980   24.8120  -27.1740 C   0  0  0  0  0  0  0  0  0  0  0  0
   -0.2160   26.4090  -26.7800 S   0  0  0  0  0  0  0  0  0  0  0  0
    1.2720   26.3000  -26.6030 O   0  0  0  0  0  0  0  0  0  0  0  0
   -0.4670   27.3850  -27.8950 O   0  0  0  0  0  0  0  0  0  0  0  0
   -0.9360   26.9730  -25.2400 C   0  0  0  0  0  0  0  0  0  0  0  0
    0.0570   27.0560  -24.0930 C   0  0  0  0  0  0  0  0  0  0  0  0
   -0.4680   28.3290  -24.7330 C   0  0  0  0  0  0  0  0  0  0  0  0
   -0.6902   23.7031  -24.1660 H   0  0  0  0  0  0  0  0  0  0  0  0
    0.7463   22.9659  -24.9531 H   0  0  0  0  0  0  0  0  0  0  0  0
    0.5389   24.7502  -24.9531 H   0  0  0  0  0  0  0  0  0  0  0  0
   -1.2166   21.6041  -25.9794 H   0  0  0  0  0  0  0  0  0  0  0  0
   -2.4478   21.3431  -28.1174 H   0  0  0  0  0  0  0  0  0  0  0  0
   -2.7110   22.2950  -30.4580 H   0  0  0  0  0  0  0  0  0  0  0  0
   -6.9044   24.1645  -30.3191 H   0  0  0  0  0  0  0  0  0  0  0  0
   -8.8884   22.6619  -30.3501 H   0  0  0  0  0  0  0  0  0  0  0  0
   -4.8069   21.4631  -32.9678 H   0  0  0  0  0  0  0  0  0  0  0  0
   -6.9609   19.9024  -34.3077 H   0  0  0  0  0  0  0  0  0  0  0  0
   -5.7837   19.1636  -33.1273 H   0  0  0  0  0  0  0  0  0  0  0  0
   -7.6801   18.4323  -30.7597 H   0  0  0  0  0  0  0  0  0  0  0  0
   -7.8499   16.8827  -31.6522 H   0  0  0  0  0  0  0  0  0  0  0  0
   -6.2777   17.7516  -31.6522 H   0  0  0  0  0  0  0  0  0  0  0  0
   -9.4032   19.6631  -33.6954 H   0  0  0  0  0  0  0  0  0  0  0  0
   -9.8191   18.4164  -32.4372 H   0  0  0  0  0  0  0  0  0  0  0  0
  -10.0878   20.9010  -31.7930 H   0  0  0  0  0  0  0  0  0  0  0  0
   -9.1745   19.8022  -30.6686 H   0  0  0  0  0  0  0  0  0  0  0  0
   -1.9229   26.5162  -25.4053 H   0  0  0  0  0  0  0  0  0  0  0  0
   -0.2559   26.7834  -23.0743 H   0  0  0  0  0  0  0  0  0  0  0  0
    1.0560   26.6389  -23.8982 H   0  0  0  0  0  0  0  0  0  0  0  0
   -1.1615   28.9781  -24.1782 H   0  0  0  0  0  0  0  0  0  0  0  0
   -0.0074   29.2152  -25.1939 H   0  0  0  0  0  0  0  0  0  0  0  0
  1  2  1  0
  2  3  2  0
  3  4  1  0
  4  5  2  0
  5  6  1  0
  6  7  1  0
  7  8  2  0
  7  9  1  0
  9 10  1  0
 10 11  2  0
 11 12  1  0
 12 13  2  0
 13 14  1  0
 14 15  2  0
 14 16  1  0
 16 17  1  0
 17 18  1  0
 17 19  1  0
 19 20  1  0
  5 21  1  0
 21 22  1  0
 21 23  2  0
 23 24  1  0
 24 25  2  0
 24 26  2  0
 24 27  1  0
 27 28  1  0
 28 29  1  0
 23  2  1  0
 29 27  1  0
 15 10  1  0
 20 13  1  0
  1 30  1  0
  1 31  1  0
  1 32  1  0
  3 33  1  0
  4 34  1  0
  6 35  1  0
 11 36  1  0
 12 37  1  0
 15 38  1  0
 16 39  1  0
 16 40  1  0
 18 41  1  0
 18 42  1  0
 18 43  1  0
 19 44  1  0
 19 45  1  0
 20 46  1  0
 20 47  1  0
 27 48  1  0
 28 49  1  0
 28 50  1  0
 29 51  1  0
 29 52  1  0
M  CHG  2   9  -1  22  -1
M  END
>  <UniqueID>  (9) 
8

>  <SMILES>  (9) 
Cc1ccc(NC(=O)[N-]c2ccc3c(c2)CN(C)CC3)c([O-])c1S(=O)(=O)C1CC1

>  <Energy>  (9) 
335.5546686087338

>  <Genealogy>  (9) 
Cc1ccc(NC(=O)[N-]c2ccc3c(c2)CN(C)CC3)c([O-])c1S(=O)(=O)C1CC1 (protonated)
Cc1ccc(NC(=O)[N-]c2ccc3c(c2)CN(C)CC3)c([O-])c1S(=O)(=O)C1CC1 (3D coordinates assigned)
Cc1ccc(NC(=O)[N-]c2ccc3c(c2)CN(C)CC3)c([O-])c1S(=O)(=O)C1CC1 (nonaromatic ring conformer: 335.5546686087338 kcal/mol)

>  <smiles>  (9) 
Cc1ccc(NC(=O)Nc2ccc3c(c2)CN(C)CC3)c(O)c1S(=O)(=O)C1CC1

>  <score_type>  (9) 
oracle

>  <origin>  (9) 
adgpu

>  <m_score__min__energy>  (9) 
-14.470000000000001

>  <m_primary>  (9) 
energy

$$$$
9:0
     RDKit          3D

 47 49  0  0  0  0  0  0  0  0999 V2000
   -6.0468   22.6993  -30.2050 H   0  0  0  0  0  0  0  0  0  0  0  0
   -5.3280   23.2550  -30.8250 C   0  0  0  0  0  0  0  0  0  0  0  0
   -4.8570   24.5790  -30.3650 C   0  0  0  0  0  0  0  0  0  0  0  0
   -5.7050   25.4270  -29.9850 O   0  0  0  0  0  0  0  0  0  0  0  0
   -3.4670   24.9290  -30.3500 N   0  0  0  0  0  0  0  0  0  0  0  0
   -2.4960   24.3420  -29.4730 C   0  0  0  0  0  0  0  0  0  0  0  0
   -2.6410   23.0010  -29.1000 C   0  0  0  0  0  0  0  0  0  0  0  0
   -3.4488   22.3957  -29.5372 H   0  0  0  0  0  0  0  0  0  0  0  0
   -1.7620   22.4250  -28.1720 C   0  0  0  0  0  0  0  0  0  0  0  0
   -2.0400   20.7970  -27.5640 S   0  0  0  0  0  0  0  0  0  0  0  0
   -1.5020   20.6680  -26.1650 O   0  0  0  0  0  0  0  0  0  0  0  0
   -3.5200   20.5330  -27.5380 O   0  0  0  0  0  0  0  0  0  0  0  0
   -1.2510   19.6510  -28.6190 N   0  0  0  0  0  0  0  0  0  0  0  0
   -0.9270   20.2910  -29.9050 C   0  0  0  0  0  0  0  0  0  0  0  0
   -1.8263   20.7860  -30.3003 H   0  0  0  0  0  0  0  0  0  0  0  0
   -0.1283   21.0302  -29.7445 H   0  0  0  0  0  0  0  0  0  0  0  0
   -0.4380   19.2390  -30.9210 C   0  0  0  0  0  0  0  0  0  0  0  0
   -1.2864   18.9371  -31.5527 H   0  0  0  0  0  0  0  0  0  0  0  0
    0.3657   19.6967  -31.5164 H   0  0  0  0  0  0  0  0  0  0  0  0
    0.1390   17.9880  -30.2390 C   0  0  0  0  0  0  0  0  0  0  0  0
   -0.6834   17.2991  -29.9961 H   0  0  0  0  0  0  0  0  0  0  0  0
    0.8511   17.5102  -30.9279 H   0  0  0  0  0  0  0  0  0  0  0  0
    0.8800   18.3580  -28.9500 C   0  0  0  0  0  0  0  0  0  0  0  0
    1.2304   17.4361  -28.4629 H   0  0  0  0  0  0  0  0  0  0  0  0
    1.7258   19.0093  -29.2153 H   0  0  0  0  0  0  0  0  0  0  0  0
   -0.0320   19.1280  -27.9680 C   0  0  0  0  0  0  0  0  0  0  0  0
   -0.3298   18.4480  -27.1562 H   0  0  0  0  0  0  0  0  0  0  0  0
    0.5383   19.9879  -27.5868 H   0  0  0  0  0  0  0  0  0  0  0  0
   -0.7090   23.1860  -27.6490 C   0  0  0  0  0  0  0  0  0  0  0  0
   -0.0163   22.7372  -26.9219 H   0  0  0  0  0  0  0  0  0  0  0  0
   -0.5360   24.5130  -28.0480 C   0  0  0  0  0  0  0  0  0  0  0  0
    0.3032   25.1010  -27.6480 H   0  0  0  0  0  0  0  0  0  0  0  0
   -1.4260   25.0960  -28.9540 C   0  0  0  0  0  0  0  0  0  0  0  0
   -1.2360   26.4180  -29.3410 O   0  0  0  0  0  0  0  0  0  0  0  0
   -4.9050   22.7120  -31.9750 C   0  0  0  0  0  0  0  0  0  0  0  0
   -4.1982   23.2861  -32.5921 H   0  0  0  0  0  0  0  0  0  0  0  0
   -5.3380   21.3790  -32.4610 C   0  0  0  0  0  0  0  0  0  0  0  0
   -6.6470   20.9040  -32.2380 C   0  0  0  0  0  0  0  0  0  0  0  0
   -7.3787   21.5414  -31.7200 H   0  0  0  0  0  0  0  0  0  0  0  0
   -7.0210   19.6280  -32.6710 C   0  0  0  0  0  0  0  0  0  0  0  0
   -8.7970   18.9960  -32.3600 Br  0  0  0  0  0  0  0  0  0  0  0  0
   -6.0940   18.8080  -33.3190 C   0  0  0  0  0  0  0  0  0  0  0  0
   -6.3904   17.8050  -33.6598 H   0  0  0  0  0  0  0  0  0  0  0  0
   -4.7910   19.2620  -33.5340 C   0  0  0  0  0  0  0  0  0  0  0  0
   -4.0617   18.6129  -34.0408 H   0  0  0  0  0  0  0  0  0  0  0  0
   -4.4090   20.5380  -33.1080 C   0  0  0  0  0  0  0  0  0  0  0  0
   -3.1070   20.9670  -33.3430 O   0  0  0  0  0  0  0  0  0  0  0  0
  1  2  1  0
  2  3  1  0
  3  4  2  0
  3  5  1  0
  5  6  1  0
  6  7  2  0
  7  8  1  0
  7  9  1  0
  9 10  1  0
 10 11  2  0
 10 12  2  0
 10 13  1  0
 13 14  1  0
 14 15  1  0
 14 16  1  0
 14 17  1  0
 17 18  1  0
 17 19  1  0
 17 20  1  0
 20 21  1  0
 20 22  1  0
 20 23  1  0
 23 24  1  0
 23 25  1  0
 23 26  1  0
 26 27  1  0
 26 28  1  0
  9 29  2  0
 29 30  1  0
 29 31  1  0
 31 32  1  0
 31 33  2  0
 33 34  1  0
  2 35  2  0
 35 36  1  0
 35 37  1  0
 37 38  2  0
 38 39  1  0
 38 40  1  0
 40 41  1  0
 40 42  2  0
 42 43  1  0
 42 44  1  0
 44 45  1  0
 44 46  2  0
 46 47  1  0
 33  6  1  0
 46 37  1  0
 26 13  1  0
M  CHG  3   5  -1  34  -1  47  -1
M  END
>  <UniqueID>  (10) 
9

>  <SMILES>  (10) 
O=C(/C=C/c1cc(Br)ccc1[O-])[N-]c1cc(S(=O)(=O)N2CCCCC2)ccc1[O-]

>  <Energy>  (10) 
59.88124710908152

>  <Genealogy>  (10) 
O=C(C=Cc1cc(Br)ccc1[O-])[N-]c1cc(S(=O)(=O)N2CCCCC2)ccc1[O-] (protonated)
O=C(/C=C/c1cc(Br)ccc1[O-])[N-]c1cc(S(=O)(=O)N2CCCCC2)ccc1[O-] (cis-trans isomerization)
O=C(/C=C/c1cc(Br)ccc1[O-])[N-]c1cc(S(=O)(=O)N2CCCCC2)ccc1[O-] (3D coordinates assigned)
O=C(/C=C/c1cc(Br)ccc1[O-])[N-]c1cc(S(=O)(=O)N2CCCCC2)ccc1[O-] (nonaromatic ring conformer: 59.88124710908152 kcal/mol)

>  <smiles>  (10) 
O=C(C=Cc1cc(Br)ccc1O)Nc1cc(S(=O)(=O)N2CCCCC2)ccc1O

>  <score_type>  (10) 
oracle

>  <origin>  (10) 
adgpu

>  <m_score__min__energy>  (10) 
-16.620000000000001

>  <m_primary>  (10) 
energy

$$$$
10:0
     RDKit          3D

 42 44  0  0  0  0  0  0  0  0999 V2000
   -2.7770   19.2140  -26.6770 C   0  0  0  0  0  0  0  0  0  0  0  0
   -2.3400   19.7790  -27.9090 O   0  0  0  0  0  0  0  0  0  0  0  0
   -2.2780   21.1550  -28.1730 C   0  0  0  0  0  0  0  0  0  0  0  0
   -1.0200   21.7520  -28.3010 C   0  0  0  0  0  0  0  0  0  0  0  0
   -0.9040   23.1190  -28.5630 C   0  0  0  0  0  0  0  0  0  0  0  0
   -2.0550   23.9170  -28.7010 C   0  0  0  0  0  0  0  0  0  0  0  0
   -1.9810   25.2940  -28.9630 O   0  0  0  0  0  0  0  0  0  0  0  0
   -1.2380   26.2240  -28.1810 C   0  0  0  0  0  0  0  0  0  0  0  0
   -3.3200   23.3220  -28.5650 C   0  0  0  0  0  0  0  0  0  0  0  0
   -4.5020   24.1170  -28.6570 N   0  0  0  0  0  0  0  0  0  0  0  0
   -5.0310   24.7340  -30.1850 S   0  0  0  0  0  0  0  0  0  0  0  0
   -3.8990   25.4580  -30.8570 O   0  0  0  0  0  0  0  0  0  0  0  0
   -6.1560   25.7050  -29.9600 O   0  0  0  0  0  0  0  0  0  0  0  0
   -5.5850   23.4070  -31.1990 C   0  0  0  0  0  0  0  0  0  0  0  0
   -6.9240   23.3350  -31.6050 C   0  0  0  0  0  0  0  0  0  0  0  0
   -7.3800   22.2320  -32.3340 C   0  0  0  0  0  0  0  0  0  0  0  0
   -6.5020   21.1910  -32.6600 C   0  0  0  0  0  0  0  0  0  0  0  0
   -5.1510   21.2620  -32.2610 C   0  0  0  0  0  0  0  0  0  0  0  0
   -4.7030   22.3680  -31.5260 C   0  0  0  0  0  0  0  0  0  0  0  0
   -4.2350   20.0850  -32.4970 C   0  0  0  0  0  0  0  0  0  0  0  0
   -4.5710   19.3470  -33.8000 C   0  0  0  0  0  0  0  0  0  0  0  0
   -6.0450   19.0880  -33.9040 C   0  0  0  0  0  0  0  0  0  0  0  0
   -6.4660   18.0600  -34.4960 O   0  0  0  0  0  0  0  0  0  0  0  0
   -6.9720   20.0530  -33.3940 N   0  0  0  0  0  0  0  0  0  0  0  0
   -3.4320   21.9500  -28.3080 C   0  0  0  0  0  0  0  0  0  0  0  0
   -2.3406   19.7782  -25.8396 H   0  0  0  0  0  0  0  0  0  0  0  0
   -3.8744   19.2632  -26.6199 H   0  0  0  0  0  0  0  0  0  0  0  0
   -2.4535   18.1642  -26.6199 H   0  0  0  0  0  0  0  0  0  0  0  0
   -0.1129   21.1390  -28.1943 H   0  0  0  0  0  0  0  0  0  0  0  0
    0.0924   23.5744  -28.6620 H   0  0  0  0  0  0  0  0  0  0  0  0
   -1.4021   26.0185  -27.1129 H   0  0  0  0  0  0  0  0  0  0  0  0
   -0.1673   26.1253  -28.4131 H   0  0  0  0  0  0  0  0  0  0  0  0
   -1.5707   27.2465  -28.4131 H   0  0  0  0  0  0  0  0  0  0  0  0
   -7.6188   24.1486  -31.3496 H   0  0  0  0  0  0  0  0  0  0  0  0
   -8.4318   22.1821  -32.6523 H   0  0  0  0  0  0  0  0  0  0  0  0
   -3.6526   22.4210  -31.2037 H   0  0  0  0  0  0  0  0  0  0  0  0
   -3.1979   20.4475  -32.5515 H   0  0  0  0  0  0  0  0  0  0  0  0
   -4.3667   19.3795  -31.6634 H   0  0  0  0  0  0  0  0  0  0  0  0
   -4.2522   19.9619  -34.6546 H   0  0  0  0  0  0  0  0  0  0  0  0
   -4.0436   18.3817  -33.8031 H   0  0  0  0  0  0  0  0  0  0  0  0
   -7.9930   19.9290  -33.5770 H   0  0  0  0  0  0  0  0  0  0  0  0
   -4.4269   21.4910  -28.2111 H   0  0  0  0  0  0  0  0  0  0  0  0
  1  2  1  0
  2  3  1  0
  3  4  2  0
  4  5  1  0
  5  6  2  0
  6  7  1  0
  7  8  1  0
  6  9  1  0
  9 10  1  0
 10 11  1  0
 11 12  2  0
 11 13  2  0
 11 14  1  0
 14 15  2  0
 15 16  1  0
 16 17  2  0
 17 18  1  0
 18 19  2  0
 18 20  1  0
 20 21  1  0
 21 22  1  0
 22 23  2  0
 22 24  1  0
  9 25  2  0
 25  3  1  0
 19 14  1  0
 24 17  1  0
  1 26  1  0
  1 27  1  0
  1 28  1  0
  4 29  1  0
  5 30  1  0
  8 31  1  0
  8 32  1  0
  8 33  1  0
 15 34  1  0
 16 35  1  0
 19 36  1  0
 20 37  1  0
 20 38  1  0
 21 39  1  0
 21 40  1  0
 24 41  1  0
 25 42  1  0
M  CHG  1  10  -1
M  END
>  <UniqueID>  (11) 
10

>  <SMILES>  (11) 
COc1ccc(OC)c([N-]S(=O)(=O)c2ccc3c(c2)CCC(=O)N3)c1

>  <Energy>  (11) 
49.43233752634059

>  <Genealogy>  (11) 
COc1ccc(OC)c([N-]S(=O)(=O)c2ccc3c(c2)CCC(=O)N3)c1 (protonated)
COc1ccc(OC)c([N-]S(=O)(=O)c2ccc3c(c2)CCC(=O)N3)c1 (3D coordinates assigned)
COc1ccc(OC)c([N-]S(=O)(=O)c2ccc3c(c2)CCC(=O)N3)c1 (nonaromatic ring conformer: 49.43233752634059 kcal/mol)

>  <smiles>  (11) 
COc1ccc(OC)c(NS(=O)(=O)c2ccc3c(c2)CCC(=O)N3)c1

>  <score_type>  (11) 
oracle

>  <origin>  (11) 
adgpu

>  <m_score__min__energy>  (11) 
-10.470000000000001

>  <m_primary>  (11) 
energy

$$$$
11:0
     RDKit          3D

 54 57  0  0  0  0  0  0  0  0999 V2000
   -0.4010   21.1760  -31.8830 O   0  0  0  0  0  0  0  0  0  0  0  0
   -1.1570   21.4850  -32.8270 N   0  0  0  0  0  0  0  0  0  0  0  0
   -0.5990   21.8070  -34.0430 O   0  0  0  0  0  0  0  0  0  0  0  0
   -2.5860   21.5030  -32.6500 C   0  0  0  0  0  0  0  0  0  0  0  0
   -3.3850   20.5140  -33.2420 C   0  0  0  0  0  0  0  0  0  0  0  0
   -4.7700   20.5280  -33.0700 C   0  0  0  0  0  0  0  0  0  0  0  0
   -5.3860   21.5230  -32.2990 C   0  0  0  0  0  0  0  0  0  0  0  0
   -6.8150   21.5100  -32.1600 N   0  0  0  0  0  0  0  0  0  0  0  0
   -7.5760   22.7040  -32.5460 C   0  0  0  0  0  0  0  0  0  0  0  0
   -8.8220   22.8740  -31.6590 C   0  0  0  0  0  0  0  0  0  0  0  0
   -9.5000   21.5430  -31.2730 C   0  0  0  0  0  0  0  0  0  0  0  0
   -9.0240   20.3630  -32.1250 C   0  0  0  0  0  0  0  0  0  0  0  0
   -7.5010   20.2130  -32.0320 C   0  0  0  0  0  0  0  0  0  0  0  0
   -4.5950   22.5270  -31.6990 C   0  0  0  0  0  0  0  0  0  0  0  0
   -5.3060   23.8000  -30.6930 S   0  0  0  0  0  0  0  0  0  0  0  0
   -5.8020   24.9340  -31.5470 O   0  0  0  0  0  0  0  0  0  0  0  0
   -6.4760   23.2360  -29.9390 O   0  0  0  0  0  0  0  0  0  0  0  0
   -4.1420   24.4250  -29.5690 N   0  0  0  0  0  0  0  0  0  0  0  0
   -2.9960   23.6900  -29.0950 C   0  0  0  0  0  0  0  0  0  0  0  0
   -3.0910   22.3360  -28.7230 C   0  0  0  0  0  0  0  0  0  0  0  0
   -1.9790   21.6430  -28.2210 C   0  0  0  0  0  0  0  0  0  0  0  0
   -0.7320   22.3000  -28.1320 C   0  0  0  0  0  0  0  0  0  0  0  0
   -0.6370   23.6480  -28.5000 C   0  0  0  0  0  0  0  0  0  0  0  0
   -1.7520   24.3380  -28.9800 C   0  0  0  0  0  0  0  0  0  0  0  0
   -1.6160   25.6750  -29.3350 O   0  0  0  0  0  0  0  0  0  0  0  0
    0.4820   21.6160  -27.5460 C   0  0  0  0  0  0  0  0  0  0  0  0
    0.3620   20.0890  -27.5570 C   0  0  0  0  0  0  0  0  0  0  0  0
   -0.9920   19.6580  -26.9980 C   0  0  0  0  0  0  0  0  0  0  0  0
   -2.1260   20.1760  -27.8880 C   0  0  0  0  0  0  0  0  0  0  0  0
   -3.2020   22.5080  -31.8840 C   0  0  0  0  0  0  0  0  0  0  0  0
   -2.9172   19.7223  -33.8457 H   0  0  0  0  0  0  0  0  0  0  0  0
   -5.3849   19.7493  -33.5449 H   0  0  0  0  0  0  0  0  0  0  0  0
   -6.9338   23.5905  -32.4379 H   0  0  0  0  0  0  0  0  0  0  0  0
   -7.9020   22.5895  -33.5903 H   0  0  0  0  0  0  0  0  0  0  0  0
   -8.5219   23.3906  -30.7354 H   0  0  0  0  0  0  0  0  0  0  0  0
   -9.5552   23.4482  -32.2445 H   0  0  0  0  0  0  0  0  0  0  0  0
   -9.2751   21.3275  -30.2180 H   0  0  0  0  0  0  0  0  0  0  0  0
  -10.5800   21.6604  -31.4455 H   0  0  0  0  0  0  0  0  0  0  0  0
   -9.5013   19.4401  -31.7639 H   0  0  0  0  0  0  0  0  0  0  0  0
   -9.2998   20.5475  -33.1738 H   0  0  0  0  0  0  0  0  0  0  0  0
   -7.2457   19.7697  -31.0582 H   0  0  0  0  0  0  0  0  0  0  0  0
   -7.1698   19.5678  -32.8591 H   0  0  0  0  0  0  0  0  0  0  0  0
   -4.2980   25.4030  -29.2400 H   0  0  0  0  0  0  0  0  0  0  0  0
   -4.0527   21.8124  -28.8275 H   0  0  0  0  0  0  0  0  0  0  0  0
    0.3274   24.1693  -28.4098 H   0  0  0  0  0  0  0  0  0  0  0  0
    1.3662   21.9039  -28.1336 H   0  0  0  0  0  0  0  0  0  0  0  0
    0.5696   21.9352  -26.4970 H   0  0  0  0  0  0  0  0  0  0  0  0
    0.4601   19.7251  -28.5904 H   0  0  0  0  0  0  0  0  0  0  0  0
    1.1591   19.6637  -26.9295 H   0  0  0  0  0  0  0  0  0  0  0  0
   -1.0349   18.5595  -26.9587 H   0  0  0  0  0  0  0  0  0  0  0  0
   -1.1110   20.0771  -25.9880 H   0  0  0  0  0  0  0  0  0  0  0  0
   -2.1292   19.6005  -28.8254 H   0  0  0  0  0  0  0  0  0  0  0  0
   -3.0679   20.0528  -27.3334 H   0  0  0  0  0  0  0  0  0  0  0  0
   -2.5839   23.2919  -31.4221 H   0  0  0  0  0  0  0  0  0  0  0  0
  1  2  2  0
  2  3  1  0
  2  4  1  0
  4  5  2  0
  5  6  1  0
  6  7  2  0
  7  8  1  0
  8  9  1  0
  9 10  1  0
 10 11  1  0
 11 12  1  0
 12 13  1  0
  7 14  1  0
 14 15  1  0
 15 16  2  0
 15 17  2  0
 15 18  1  0
 18 19  1  0
 19 20  2  0
 20 21  1  0
 21 22  2  0
 22 23  1  0
 23 24  2  0
 24 25  1  0
 22 26  1  0
 26 27  1  0
 27 28  1  0
 28 29  1  0
 14 30  2  0
 30  4  1  0
 13  8  1  0
 24 19  1  0
 29 21  1  0
  5 31  1  0
  6 32  1  0
  9 33  1  0
  9 34  1  0
 10 35  1  0
 10 36  1  0
 11 37  1  0
 11 38  1  0
 12 39  1  0
 12 40  1  0
 13 41  1  0
 13 42  1  0
 18 43  1  0
 20 44  1  0
 23 45  1  0
 26 46  1  0
 26 47  1  0
 27 48  1  0
 27 49  1  0
 28 50  1  0
 28 51  1  0
 29 52  1  0
 29 53  1  0
 30 54  1  0
M  CHG  3   2   1   3  -1  25  -1
M  END
>  <UniqueID>  (12) 
11

>  <SMILES>  (12) 
O=[N+]([O-])c1ccc(N2CCCCC2)c(S(=O)(=O)Nc2cc3c(cc2[O-])CCCC3)c1

>  <Energy>  (12) 
64.31968383728712

>  <Genealogy>  (12) 
O=[N+]([O-])c1ccc(N2CCCCC2)c(S(=O)(=O)Nc2cc3c(cc2[O-])CCCC3)c1 (protonated)
O=[N+]([O-])c1ccc(N2CCCCC2)c(S(=O)(=O)Nc2cc3c(cc2[O-])CCCC3)c1 (3D coordinates assigned)
O=[N+]([O-])c1ccc(N2CCCCC2)c(S(=O)(=O)Nc2cc3c(cc2[O-])CCCC3)c1 (nonaromatic ring conformer: 64.31968383728712 kcal/mol)

>  <smiles>  (12) 
O=[N+]([O-])c1ccc(N2CCCCC2)c(S(=O)(=O)Nc2cc3c(cc2O)CCCC3)c1

>  <score_type>  (12) 
oracle

>  <origin>  (12) 
adgpu

>  <m_score__min__energy>  (12) 
-13.210000000000001

>  <m_primary>  (12) 
energy

$$$$
12:0
     RDKit          3D

 48 51  0  0  0  0  0  0  0  0999 V2000
   -4.4110   21.4210  -30.1230 O   0  0  0  0  0  0  0  0  0  0  0  0
   -4.5760   22.6670  -30.2200 C   0  0  0  0  0  0  0  0  0  0  0  0
   -5.6820   23.1940  -30.9720 N   0  0  0  0  0  0  0  0  0  0  0  0
   -6.8330   22.4180  -31.3480 C   0  0  0  0  0  0  0  0  0  0  0  0
   -8.0780   23.0230  -31.5910 C   0  0  0  0  0  0  0  0  0  0  0  0
   -9.1760   22.2480  -31.9720 C   0  0  0  0  0  0  0  0  0  0  0  0
   -9.0410   20.8660  -32.1250 C   0  0  0  0  0  0  0  0  0  0  0  0
   -7.8020   20.2510  -31.9010 C   0  0  0  0  0  0  0  0  0  0  0  0
   -7.6340   18.5050  -32.0830 S   0  0  0  0  0  0  0  0  0  0  0  0
   -8.9880   17.8630  -31.9600 O   0  0  0  0  0  0  0  0  0  0  0  0
   -6.7770   17.9820  -30.9640 O   0  0  0  0  0  0  0  0  0  0  0  0
   -6.9140   18.0540  -33.6160 N   0  0  0  0  0  0  0  0  0  0  0  0
   -6.1880   16.7680  -33.5520 C   0  0  0  0  0  0  0  0  0  0  0  0
   -4.6630   16.9440  -33.4680 C   0  0  0  0  0  0  0  0  0  0  0  0
   -4.3430   18.1510  -32.8150 O   0  0  0  0  0  0  0  0  0  0  0  0
   -4.6920   19.2450  -33.6410 C   0  0  0  0  0  0  0  0  0  0  0  0
   -6.1250   19.1470  -34.2150 C   0  0  0  0  0  0  0  0  0  0  0  0
   -6.6980   21.0330  -31.5290 C   0  0  0  0  0  0  0  0  0  0  0  0
   -3.5950   23.5660  -29.5890 C   0  0  0  0  0  0  0  0  0  0  0  0
   -2.9340   23.3610  -28.3930 C   0  0  0  0  0  0  0  0  0  0  0  0
   -2.1280   24.4780  -28.2570 C   0  0  0  0  0  0  0  0  0  0  0  0
   -1.1910   24.7700  -27.1370 C   0  0  0  0  0  0  0  0  0  0  0  0
   -1.6920   25.1010  -25.8610 C   0  0  0  0  0  0  0  0  0  0  0  0
   -0.8210   25.3720  -24.8030 C   0  0  0  0  0  0  0  0  0  0  0  0
    0.5590   25.3190  -24.9980 C   0  0  0  0  0  0  0  0  0  0  0  0
    1.0720   24.9930  -26.2540 C   0  0  0  0  0  0  0  0  0  0  0  0
    0.2110   24.7200  -27.3220 C   0  0  0  0  0  0  0  0  0  0  0  0
    0.7620   24.4100  -28.5600 O   0  0  0  0  0  0  0  0  0  0  0  0
   -2.3100   25.2870  -29.3210 N   0  0  0  0  0  0  0  0  0  0  0  0
   -3.1990   24.7320  -30.1300 N   0  0  0  0  0  0  0  0  0  0  0  0
   -5.6010   24.1610  -31.3570 H   0  0  0  0  0  0  0  0  0  0  0  0
   -8.1884   24.1119  -31.4807 H   0  0  0  0  0  0  0  0  0  0  0  0
  -10.1496   22.7273  -32.1520 H   0  0  0  0  0  0  0  0  0  0  0  0
   -9.9092   20.2593  -32.4219 H   0  0  0  0  0  0  0  0  0  0  0  0
   -6.5271   16.2177  -32.6620 H   0  0  0  0  0  0  0  0  0  0  0  0
   -6.4058   16.2200  -34.4806 H   0  0  0  0  0  0  0  0  0  0  0  0
   -4.2314   16.1025  -32.9062 H   0  0  0  0  0  0  0  0  0  0  0  0
   -4.2501   16.9694  -34.4872 H   0  0  0  0  0  0  0  0  0  0  0  0
   -4.6161   20.1682  -33.0478 H   0  0  0  0  0  0  0  0  0  0  0  0
   -3.9986   19.2421  -34.4949 H   0  0  0  0  0  0  0  0  0  0  0  0
   -6.6440   20.0982  -34.0255 H   0  0  0  0  0  0  0  0  0  0  0  0
   -6.0341   18.9350  -35.2906 H   0  0  0  0  0  0  0  0  0  0  0  0
   -5.7182   20.5563  -31.3779 H   0  0  0  0  0  0  0  0  0  0  0  0
   -3.0270   22.5064  -27.7067 H   0  0  0  0  0  0  0  0  0  0  0  0
   -2.7788   25.1462  -25.6973 H   0  0  0  0  0  0  0  0  0  0  0  0
   -1.2250   25.6281  -23.8125 H   0  0  0  0  0  0  0  0  0  0  0  0
    1.2420   25.5339  -24.1629 H   0  0  0  0  0  0  0  0  0  0  0  0
    2.1607   24.9504  -26.4053 H   0  0  0  0  0  0  0  0  0  0  0  0
  1  2  2  0
  2  3  1  0
  3  4  1  0
  4  5  2  0
  5  6  1  0
  6  7  2  0
  7  8  1  0
  8  9  1  0
  9 10  2  0
  9 11  2  0
  9 12  1  0
 12 13  1  0
 13 14  1  0
 14 15  1  0
 15 16  1  0
 16 17  1  0
  8 18  2  0
  2 19  1  0
 19 20  1  0
 20 21  2  0
 21 22  1  0
 22 23  2  0
 23 24  1  0
 24 25  2  0
 25 26  1  0
 26 27  2  0
 27 28  1  0
 21 29  1  0
 29 30  1  0
 18  4  1  0
 30 19  2  0
 17 12  1  0
 27 22  1  0
  3 31  1  0
  5 32  1  0
  6 33  1  0
  7 34  1  0
 13 35  1  0
 13 36  1  0
 14 37  1  0
 14 38  1  0
 16 39  1  0
 16 40  1  0
 17 41  1  0
 17 42  1  0
 18 43  1  0
 20 44  1  0
 23 45  1  0
 24 46  1  0
 25 47  1  0
 26 48  1  0
M  CHG  2  28  -1  29  -1
M  END
>  <UniqueID>  (13) 
12

>  <SMILES>  (13) 
O=C(Nc1cccc(S(=O)(=O)N2CCOCC2)c1)c1cc(-c2ccccc2[O-])[n-]n1

>  <Energy>  (13) 
97.77825926027353

>  <Genealogy>  (13) 
O=C(Nc1cccc(S(=O)(=O)N2CCOCC2)c1)c1cc(-c2ccccc2[O-])[n-]n1 (protonated)
O=C(Nc1cccc(S(=O)(=O)N2CCOCC2)c1)c1cc(-c2ccccc2[O-])[n-]n1 (3D coordinates assigned)
O=C(Nc1cccc(S(=O)(=O)N2CCOCC2)c1)c1cc(-c2ccccc2[O-])[n-]n1 (nonaromatic ring conformer: 97.77825926027353 kcal/mol)

>  <smiles>  (13) 
O=C(Nc1cccc(S(=O)(=O)N2CCOCC2)c1)c1cc(-c2ccccc2O)[nH]n1

>  <score_type>  (13) 
oracle

>  <origin>  (13) 
adgpu

>  <m_score__min__energy>  (13) 
-14.94

>  <m_primary>  (13) 
energy

$$$$
13:0
     RDKit          3D

 50 52  0  0  0  0  0  0  0  0999 V2000
   -9.7830   19.3580  -32.7080 C   0  0  0  0  0  0  0  0  0  0  0  0
   -9.0920   18.2190  -31.9660 C   0  0  0  0  0  0  0  0  0  0  0  0
   -7.7990   18.6160  -31.5020 O   0  0  0  0  0  0  0  0  0  0  0  0
   -6.5490   18.3110  -32.0840 C   0  0  0  0  0  0  0  0  0  0  0  0
   -5.8690   17.1520  -31.6950 C   0  0  0  0  0  0  0  0  0  0  0  0
   -4.6670   16.6340  -32.1540 C   0  0  0  0  0  0  0  0  0  0  0  0
   -3.7370   17.1690  -33.0400 C   0  0  0  0  0  0  0  0  0  0  0  0
   -2.7740   16.4050  -33.3230 O   0  0  0  0  0  0  0  0  0  0  0  0
   -3.7980   18.4380  -33.6610 C   0  0  0  0  0  0  0  0  0  0  0  0
   -2.7810   18.9260  -34.3230 N   0  0  0  0  0  0  0  0  0  0  0  0
   -1.4010   18.5290  -34.2960 C   0  0  0  0  0  0  0  0  0  0  0  0
   -0.8030   18.2910  -35.3770 O   0  0  0  0  0  0  0  0  0  0  0  0
   -0.6940   18.3960  -33.0550 N   0  0  0  0  0  0  0  0  0  0  0  0
   -0.5060   19.2900  -32.1190 C   0  0  0  0  0  0  0  0  0  0  0  0
   -0.7180   20.6880  -32.2950 C   0  0  0  0  0  0  0  0  0  0  0  0
   -0.8900   21.4790  -33.8620 Cl  0  0  0  0  0  0  0  0  0  0  0  0
   -0.5950   21.5380  -31.1900 C   0  0  0  0  0  0  0  0  0  0  0  0
   -0.2270   21.0480  -29.9800 N   0  0  0  0  0  0  0  0  0  0  0  0
    0.0450   19.7320  -29.7970 C   0  0  0  0  0  0  0  0  0  0  0  0
   -0.0710   18.8360  -30.8600 C   0  0  0  0  0  0  0  0  0  0  0  0
    0.2570   17.1300  -30.5680 Cl  0  0  0  0  0  0  0  0  0  0  0  0
   -4.8970   19.2240  -33.6600 N   0  0  0  0  0  0  0  0  0  0  0  0
   -6.1020   19.2230  -33.0470 C   0  0  0  0  0  0  0  0  0  0  0  0
   -7.1370   20.6490  -33.4180 S   0  0  0  0  0  0  0  0  0  0  0  0
   -6.0780   21.7540  -32.4810 C   0  0  0  0  0  0  0  0  0  0  0  0
   -6.6400   22.6840  -31.5990 C   0  0  0  0  0  0  0  0  0  0  0  0
   -5.8230   23.5940  -30.9230 C   0  0  0  0  0  0  0  0  0  0  0  0
   -4.4290   23.5640  -31.1040 C   0  0  0  0  0  0  0  0  0  0  0  0
   -3.5660   24.5170  -30.4690 N   0  0  0  0  0  0  0  0  0  0  0  0
   -2.7070   24.2850  -29.3430 C   0  0  0  0  0  0  0  0  0  0  0  0
   -2.6660   22.9660  -28.6310 C   0  0  0  0  0  0  0  0  0  0  0  0
   -1.9370   25.2060  -28.9650 O   0  0  0  0  0  0  0  0  0  0  0  0
   -3.8730   22.6350  -31.9920 C   0  0  0  0  0  0  0  0  0  0  0  0
   -4.6920   21.7250  -32.6680 C   0  0  0  0  0  0  0  0  0  0  0  0
  -10.2109   20.0633  -31.9804 H   0  0  0  0  0  0  0  0  0  0  0  0
   -9.0504   19.8820  -33.3394 H   0  0  0  0  0  0  0  0  0  0  0  0
  -10.5862   18.9503  -33.3394 H   0  0  0  0  0  0  0  0  0  0  0  0
   -9.7087   17.9258  -31.1036 H   0  0  0  0  0  0  0  0  0  0  0  0
   -8.9699   17.3738  -32.6594 H   0  0  0  0  0  0  0  0  0  0  0  0
   -6.3614   16.5632  -30.9070 H   0  0  0  0  0  0  0  0  0  0  0  0
   -4.4077   15.6426  -31.7540 H   0  0  0  0  0  0  0  0  0  0  0  0
   -0.7986   22.6130  -31.3038 H   0  0  0  0  0  0  0  0  0  0  0  0
    0.3582   19.3698  -28.8067 H   0  0  0  0  0  0  0  0  0  0  0  0
   -7.7280   22.6986  -31.4375 H   0  0  0  0  0  0  0  0  0  0  0  0
   -6.2720   24.3364  -30.2469 H   0  0  0  0  0  0  0  0  0  0  0  0
   -2.6713   23.1357  -27.5442 H   0  0  0  0  0  0  0  0  0  0  0  0
   -3.5460   22.3694  -28.9133 H   0  0  0  0  0  0  0  0  0  0  0  0
   -1.7506   22.4253  -28.9133 H   0  0  0  0  0  0  0  0  0  0  0  0
   -2.7858   22.6209  -32.1588 H   0  0  0  0  0  0  0  0  0  0  0  0
   -4.2453   20.9849  -33.3482 H   0  0  0  0  0  0  0  0  0  0  0  0
  1  2  1  0
  2  3  1  0
  3  4  1  0
  4  5  1  0
  5  6  2  0
  6  7  1  0
  7  8  2  0
  7  9  1  0
  9 10  2  3
 10 11  1  0
 11 12  2  0
 11 13  1  0
 13 14  2  3
 14 15  1  0
 15 16  1  0
 15 17  2  0
 17 18  1  0
 18 19  1  0
 19 20  2  0
 20 21  1  0
  9 22  1  0
 22 23  1  0
 23 24  1  0
 24 25  1  0
 25 26  2  0
 26 27  1  0
 27 28  2  0
 28 29  1  0
 29 30  1  0
 30 31  1  0
 30 32  2  0
 28 33  1  0
 33 34  2  0
 23  4  2  0
 34 25  1  0
 20 14  1  0
  1 35  1  0
  1 36  1  0
  1 37  1  0
  2 38  1  0
  2 39  1  0
  5 40  1  0
  6 41  1  0
 17 42  1  0
 19 43  1  0
 26 44  1  0
 27 45  1  0
 31 46  1  0
 31 47  1  0
 31 48  1  0
 33 49  1  0
 34 50  1  0
M  CHG  3  18  -1  22  -1  29  -1
M  END
>  <UniqueID>  (14) 
13

>  <SMILES>  (14) 
CCOc1ccc(=O)c(=NC(=O)N=c2c(Cl)c[n-]cc2Cl)[n-]c1Sc1ccc([N-]C(C)=O)cc1

>  <Energy>  (14) 
102.14219960017863

>  <Genealogy>  (14) 
CCOc1ccc(=O)c(=NC(=O)N=c2c(Cl)c[n-]cc2Cl)[n-]c1Sc1ccc([N-]C(C)=O)cc1 (protonated)
CCOc1ccc(=O)c(=NC(=O)N=c2c(Cl)c[n-]cc2Cl)[n-]c1Sc1ccc([N-]C(C)=O)cc1 (3D coordinates assigned)
CCOc1ccc(=O)c(=NC(=O)N=c2c(Cl)c[n-]cc2Cl)[n-]c1Sc1ccc([N-]C(C)=O)cc1 (optimized conformer: 102.14219960017863 kcal/mol)

>  <smiles>  (14) 
CCOc1ccc(=O)c(=NC(=O)N=c2c(Cl)c[nH]cc2Cl)[nH]c1Sc1ccc(NC(C)=O)cc1

>  <score_type>  (14) 
oracle

>  <origin>  (14) 
adgpu

>  <m_score__min__energy>  (14) 
-11.6

>  <m_primary>  (14) 
energy

$$$$
14:0
     RDKit          3D

 81 85  0  0  0  0  0  0  0  0999 V2000
    2.0350   14.5110  -30.7360 C   0  0  0  0  0  0  0  0  0  0  0  0
    2.3040   15.7760  -31.3300 O   0  0  0  0  0  0  0  0  0  0  0  0
    1.6960   16.9850  -30.9520 C   0  0  0  0  0  0  0  0  0  0  0  0
    0.8710   17.0780  -29.8150 C   0  0  0  0  0  0  0  0  0  0  0  0
    0.2400   18.2810  -29.4900 C   0  0  0  0  0  0  0  0  0  0  0  0
    0.4240   19.4220  -30.2890 C   0  0  0  0  0  0  0  0  0  0  0  0
   -0.3390   20.6680  -30.0200 C   0  0  0  0  0  0  0  0  0  0  0  0
   -0.8510   21.4430  -31.0750 C   0  0  0  0  0  0  0  0  0  0  0  0
   -1.5740   22.6080  -30.8110 C   0  0  0  0  0  0  0  0  0  0  0  0
   -1.8060   23.0110  -29.4910 C   0  0  0  0  0  0  0  0  0  0  0  0
   -2.6180   24.5350  -29.1660 S   0  0  0  0  0  0  0  0  0  0  0  0
   -3.4240   24.4040  -27.9050 O   0  0  0  0  0  0  0  0  0  0  0  0
   -1.6020   25.6220  -28.9680 O   0  0  0  0  0  0  0  0  0  0  0  0
   -3.6740   24.9710  -30.4690 N   0  0  0  0  0  0  0  0  0  0  0  0
   -4.8260   24.1990  -30.8240 C   0  0  0  0  0  0  0  0  0  0  0  0
   -4.7000   23.0610  -31.6330 C   0  0  0  0  0  0  0  0  0  0  0  0
   -5.8290   22.3200  -31.9950 C   0  0  0  0  0  0  0  0  0  0  0  0
   -7.0920   22.7050  -31.5440 C   0  0  0  0  0  0  0  0  0  0  0  0
   -7.2250   23.8080  -30.6990 C   0  0  0  0  0  0  0  0  0  0  0  0
   -6.0960   24.5580  -30.3240 C   0  0  0  0  0  0  0  0  0  0  0  0
   -6.2540   25.7470  -29.4190 C   0  0  0  0  0  0  0  0  0  0  0  0
   -1.3120   22.2370  -28.4340 C   0  0  0  0  0  0  0  0  0  0  0  0
   -0.5800   21.0800  -28.6960 C   0  0  0  0  0  0  0  0  0  0  0  0
    1.2950   19.3450  -31.3880 C   0  0  0  0  0  0  0  0  0  0  0  0
    1.9140   18.1330  -31.7370 C   0  0  0  0  0  0  0  0  0  0  0  0
    2.7260   18.0570  -33.0070 C   0  0  0  0  0  0  0  0  0  0  0  0
    1.9010   17.0100  -34.2640 S   0  0  0  0  0  0  0  0  0  0  0  0
    0.2580   17.7210  -34.0330 C   0  0  0  0  0  0  0  0  0  0  0  0
    0.0830   19.0570  -34.4150 C   0  0  0  0  0  0  0  0  0  0  0  0
   -1.1170   19.7250  -34.1710 C   0  0  0  0  0  0  0  0  0  0  0  0
   -1.2320   21.0540  -34.5850 O   0  0  0  0  0  0  0  0  0  0  0  0
   -2.1690   19.0510  -33.5250 C   0  0  0  0  0  0  0  0  0  0  0  0
   -3.4390   19.7460  -33.2380 C   0  0  0  0  0  0  0  0  0  0  0  0
   -3.4010   20.9690  -32.9220 O   0  0  0  0  0  0  0  0  0  0  0  0
   -4.7080   19.0860  -33.4230 N   0  0  0  0  0  0  0  0  0  0  0  0
   -4.7940   17.6220  -33.3550 C   0  0  0  0  0  0  0  0  0  0  0  0
   -6.2420   17.1450  -33.5380 C   0  0  0  0  0  0  0  0  0  0  0  0
   -7.1970   18.0070  -32.8100 N   0  0  0  0  0  0  0  0  0  0  0  0
   -7.0260   17.9070  -31.3480 C   0  0  0  0  0  0  0  0  0  0  0  0
   -7.1770   19.4170  -33.2700 C   0  0  0  0  0  0  0  0  0  0  0  0
   -5.8550   19.8510  -33.9380 C   0  0  0  0  0  0  0  0  0  0  0  0
   -2.0090   17.7050  -33.1660 C   0  0  0  0  0  0  0  0  0  0  0  0
   -0.8170   17.0160  -33.4360 C   0  0  0  0  0  0  0  0  0  0  0  0
   -0.7890   15.2780  -33.0680 S   0  0  0  0  0  0  0  0  0  0  0  0
    0.6450   14.5540  -33.7090 N   0  0  0  0  0  0  0  0  0  0  0  0
   -0.7930   15.1150  -31.5740 O   0  0  0  0  0  0  0  0  0  0  0  0
   -1.9770   14.5470  -33.6280 O   0  0  0  0  0  0  0  0  0  0  0  0
    2.0557   14.6085  -29.6405 H   0  0  0  0  0  0  0  0  0  0  0  0
    1.0422   14.1602  -31.0542 H   0  0  0  0  0  0  0  0  0  0  0  0
    2.7992   13.7866  -31.0542 H   0  0  0  0  0  0  0  0  0  0  0  0
    0.7219   16.1948  -29.1765 H   0  0  0  0  0  0  0  0  0  0  0  0
   -0.4061   18.3355  -28.6014 H   0  0  0  0  0  0  0  0  0  0  0  0
   -0.6809   21.1296  -32.1156 H   0  0  0  0  0  0  0  0  0  0  0  0
   -1.9630   23.2117  -31.6442 H   0  0  0  0  0  0  0  0  0  0  0  0
   -3.7058   22.7489  -31.9855 H   0  0  0  0  0  0  0  0  0  0  0  0
   -5.7214   21.4326  -32.6360 H   0  0  0  0  0  0  0  0  0  0  0  0
   -7.9829   22.1393  -31.8544 H   0  0  0  0  0  0  0  0  0  0  0  0
   -8.2192   24.0924  -30.3240 H   0  0  0  0  0  0  0  0  0  0  0  0
   -6.2103   25.4179  -28.3703 H   0  0  0  0  0  0  0  0  0  0  0  0
   -5.4434   26.4651  -29.6121 H   0  0  0  0  0  0  0  0  0  0  0  0
   -7.2240   26.2284  -29.6121 H   0  0  0  0  0  0  0  0  0  0  0  0
   -1.5020   22.5426  -27.3945 H   0  0  0  0  0  0  0  0  0  0  0  0
   -0.1869   20.4832  -27.8598 H   0  0  0  0  0  0  0  0  0  0  0  0
    1.4956   20.2472  -31.9845 H   0  0  0  0  0  0  0  0  0  0  0  0
    2.8521   19.0716  -33.4128 H   0  0  0  0  0  0  0  0  0  0  0  0
    3.7018   17.6088  -32.7685 H   0  0  0  0  0  0  0  0  0  0  0  0
    0.9056   19.5885  -34.9158 H   0  0  0  0  0  0  0  0  0  0  0  0
   -2.1010   21.5770  -34.5370 H   0  0  0  0  0  0  0  0  0  0  0  0
   -4.1695   17.1880  -34.1497 H   0  0  0  0  0  0  0  0  0  0  0  0
   -4.4410   17.2965  -32.3653 H   0  0  0  0  0  0  0  0  0  0  0  0
   -6.4906   17.1628  -34.6094 H   0  0  0  0  0  0  0  0  0  0  0  0
   -6.3215   16.1257  -33.1322 H   0  0  0  0  0  0  0  0  0  0  0  0
   -7.8706   18.4009  -30.8454 H   0  0  0  0  0  0  0  0  0  0  0  0
   -6.9933   16.8474  -31.0543 H   0  0  0  0  0  0  0  0  0  0  0  0
   -6.0865   18.3981  -31.0543 H   0  0  0  0  0  0  0  0  0  0  0  0
   -7.9909   19.5532  -33.9973 H   0  0  0  0  0  0  0  0  0  0  0  0
   -7.2951   20.0418  -32.3724 H   0  0  0  0  0  0  0  0  0  0  0  0
   -5.9337   19.6883  -35.0231 H   0  0  0  0  0  0  0  0  0  0  0  0
   -5.6884   20.9141  -33.7098 H   0  0  0  0  0  0  0  0  0  0  0  0
   -2.8339   17.1792  -32.6630 H   0  0  0  0  0  0  0  0  0  0  0  0
    1.4350   14.8130  -33.0780 H   0  0  0  0  0  0  0  0  0  0  0  0
  1  2  1  0
  2  3  1  0
  3  4  2  0
  4  5  1  0
  5  6  2  0
  6  7  1  0
  7  8  2  0
  8  9  1  0
  9 10  2  0
 10 11  1  0
 11 12  2  0
 11 13  2  0
 11 14  1  0
 14 15  1  0
 15 16  2  0
 16 17  1  0
 17 18  2  0
 18 19  1  0
 19 20  2  0
 20 21  1  0
 10 22  1  0
 22 23  2  0
  6 24  1  0
 24 25  2  0
 25 26  1  0
 26 27  1  0
 27 28  1  0
 28 29  2  0
 29 30  1  0
 30 31  1  0
 30 32  2  0
 32 33  1  0
 33 34  2  0
 33 35  1  0
 35 36  1  0
 36 37  1  0
 37 38  1  0
 38 39  1  0
 38 40  1  0
 40 41  1  0
 32 42  1  0
 42 43  2  0
 43 44  1  0
 44 45  1  0
 44 46  2  0
 44 47  2  0
 25  3  1  0
 43 28  1  0
 23  7  1  0
 41 35  1  0
 20 15  1  0
  1 48  1  0
  1 49  1  0
  1 50  1  0
  4 51  1  0
  5 52  1  0
  8 53  1  0
  9 54  1  0
 16 55  1  0
 17 56  1  0
 18 57  1  0
 19 58  1  0
 21 59  1  0
 21 60  1  0
 21 61  1  0
 22 62  1  0
 23 63  1  0
 24 64  1  0
 26 65  1  0
 26 66  1  0
 29 67  1  0
 31 68  1  0
 36 69  1  0
 36 70  1  0
 37 71  1  0
 37 72  1  0
 39 73  1  0
 39 74  1  0
 39 75  1  0
 40 76  1  0
 40 77  1  0
 41 78  1  0
 41 79  1  0
 42 80  1  0
 45 81  1  0
M  CHG  2  14  -1  45  -1
M  END
>  <UniqueID>  (15) 
14

>  <SMILES>  (15) 
COc1ccc(-c2ccc(S(=O)(=O)[N-]c3ccccc3C)cc2)cc1CSc1cc(O)c(C(=O)N2CCN(C)CC2)cc1S([NH-])(=O)=O

>  <Energy>  (15) 
111.15247277272603

>  <Genealogy>  (15) 
COc1ccc(-c2ccc(S(=O)(=O)[N-]c3ccccc3C)cc2)cc1CSc1cc(O)c(C(=O)N2CCN(C)CC2)cc1S([NH-])(=O)=O (protonated)
COc1ccc(-c2ccc(S(=O)(=O)[N-]c3ccccc3C)cc2)cc1CSc1cc(O)c(C(=O)N2CCN(C)CC2)cc1S([NH-])(=O)=O (3D coordinates assigned)
COc1ccc(-c2ccc(S(=O)(=O)[N-]c3ccccc3C)cc2)cc1CSc1cc(O)c(C(=O)N2CCN(C)CC2)cc1S([NH-])(=O)=O (nonaromatic ring conformer: 111.15247277272603 kcal/mol)

>  <smiles>  (15) 
COc1ccc(-c2ccc(S(=O)(=O)Nc3ccccc3C)cc2)cc1CSc1cc(O)c(C(=O)N2CCN(C)CC2)cc1S(N)(=O)=O

>  <score_type>  (15) 
oracle

>  <origin>  (15) 
adgpu

>  <m_score__min__energy>  (15) 
-13.01

>  <m_primary>  (15) 
energy

$$$$
15:0
     RDKit          3D

 57 60  0  0  0  0  0  0  0  0999 V2000
   -3.6610   21.9260  -27.8810 C   0  0  0  0  0  0  0  0  0  0  0  0
   -2.8700   20.7570  -27.3850 C   0  0  0  0  0  0  0  0  0  0  0  0
   -3.4390   19.5960  -27.0040 N   0  0  0  0  0  0  0  0  0  0  0  0
   -2.3930   18.8030  -26.6860 C   0  0  0  0  0  0  0  0  0  0  0  0
   -1.2150   19.4890  -26.8840 C   0  0  0  0  0  0  0  0  0  0  0  0
   -1.5240   20.7160  -27.3260 N   0  0  0  0  0  0  0  0  0  0  0  0
   -0.4110   21.9740  -27.7650 S   0  0  0  0  0  0  0  0  0  0  0  0
    0.9810   21.4720  -27.5000 O   0  0  0  0  0  0  0  0  0  0  0  0
   -0.5400   22.2810  -29.2310 O   0  0  0  0  0  0  0  0  0  0  0  0
   -0.8080   23.4350  -26.8360 C   0  0  0  0  0  0  0  0  0  0  0  0
   -0.6590   23.3760  -25.4360 C   0  0  0  0  0  0  0  0  0  0  0  0
   -0.3210   22.2140  -24.8240 F   0  0  0  0  0  0  0  0  0  0  0  0
   -0.8420   24.5150  -24.6520 C   0  0  0  0  0  0  0  0  0  0  0  0
   -1.1700   25.7300  -25.2490 C   0  0  0  0  0  0  0  0  0  0  0  0
   -1.3380   25.8070  -26.6300 C   0  0  0  0  0  0  0  0  0  0  0  0
   -1.1820   24.6650  -27.4360 C   0  0  0  0  0  0  0  0  0  0  0  0
   -1.4420   24.8080  -28.8780 C   0  0  0  0  0  0  0  0  0  0  0  0
   -0.5030   24.6170  -29.6990 O   0  0  0  0  0  0  0  0  0  0  0  0
   -2.7170   25.2880  -29.3280 N   0  0  0  0  0  0  0  0  0  0  0  0
   -3.6550   24.5550  -30.1290 C   0  0  0  0  0  0  0  0  0  0  0  0
   -4.9760   25.0030  -30.1950 C   0  0  0  0  0  0  0  0  0  0  0  0
   -5.9180   24.3130  -30.9600 C   0  0  0  0  0  0  0  0  0  0  0  0
   -5.5610   23.1510  -31.6530 C   0  0  0  0  0  0  0  0  0  0  0  0
   -6.5450   22.5050  -32.4060 O   0  0  0  0  0  0  0  0  0  0  0  0
   -4.2350   22.6680  -31.5690 C   0  0  0  0  0  0  0  0  0  0  0  0
   -3.7350   21.1910  -32.4050 S   0  0  0  0  0  0  0  0  0  0  0  0
   -3.0670   21.5310  -33.7100 O   0  0  0  0  0  0  0  0  0  0  0  0
   -2.7490   20.4560  -31.5410 O   0  0  0  0  0  0  0  0  0  0  0  0
   -5.1300   20.1860  -32.7070 N   0  0  0  0  0  0  0  0  0  0  0  0
   -5.5300   19.5010  -31.4580 C   0  0  0  0  0  0  0  0  0  0  0  0
   -6.5640   18.3790  -31.7060 C   0  0  0  0  0  0  0  0  0  0  0  0
   -7.1910   18.4820  -33.0990 C   0  0  0  0  0  0  0  0  0  0  0  0
   -6.1090   18.4640  -34.1910 C   0  0  0  0  0  0  0  0  0  0  0  0
   -4.8290   19.2080  -33.7670 C   0  0  0  0  0  0  0  0  0  0  0  0
   -3.2940   23.3740  -30.8010 C   0  0  0  0  0  0  0  0  0  0  0  0
   -4.0475   22.4973  -27.0241 H   0  0  0  0  0  0  0  0  0  0  0  0
   -3.0147   22.5735  -28.4918 H   0  0  0  0  0  0  0  0  0  0  0  0
   -4.5024   21.5668  -28.4918 H   0  0  0  0  0  0  0  0  0  0  0  0
   -2.4700   17.7671  -26.3240 H   0  0  0  0  0  0  0  0  0  0  0  0
   -0.2012   19.0992  -26.7103 H   0  0  0  0  0  0  0  0  0  0  0  0
   -0.7270   24.4536  -23.5597 H   0  0  0  0  0  0  0  0  0  0  0  0
   -1.2966   26.6300  -24.6293 H   0  0  0  0  0  0  0  0  0  0  0  0
   -1.5952   26.7704  -27.0945 H   0  0  0  0  0  0  0  0  0  0  0  0
   -5.2760   25.9047  -29.6410 H   0  0  0  0  0  0  0  0  0  0  0  0
   -6.9510   24.6864  -31.0186 H   0  0  0  0  0  0  0  0  0  0  0  0
   -6.3400   21.9180  -33.2030 H   0  0  0  0  0  0  0  0  0  0  0  0
   -4.6350   19.0603  -30.9946 H   0  0  0  0  0  0  0  0  0  0  0  0
   -5.9978   20.2487  -30.8006 H   0  0  0  0  0  0  0  0  0  0  0  0
   -6.0617   17.4048  -31.6127 H   0  0  0  0  0  0  0  0  0  0  0  0
   -7.3667   18.4827  -30.9610 H   0  0  0  0  0  0  0  0  0  0  0  0
   -7.8708   17.6308  -33.2517 H   0  0  0  0  0  0  0  0  0  0  0  0
   -7.7424   19.4314  -33.1666 H   0  0  0  0  0  0  0  0  0  0  0  0
   -5.8512   17.4183  -34.4147 H   0  0  0  0  0  0  0  0  0  0  0  0
   -6.5171   18.9783  -35.0736 H   0  0  0  0  0  0  0  0  0  0  0  0
   -4.0947   18.4804  -33.3908 H   0  0  0  0  0  0  0  0  0  0  0  0
   -4.4211   19.7410  -34.6385 H   0  0  0  0  0  0  0  0  0  0  0  0
   -2.2629   22.9985  -30.7246 H   0  0  0  0  0  0  0  0  0  0  0  0
  1  2  1  0
  2  3  2  0
  3  4  1  0
  4  5  2  0
  5  6  1  0
  6  7  1  0
  7  8  2  0
  7  9  2  0
  7 10  1  0
 10 11  2  0
 11 12  1  0
 11 13  1  0
 13 14  2  0
 14 15  1  0
 15 16  2  0
 16 17  1  0
 17 18  2  0
 17 19  1  0
 19 20  1  0
 20 21  2  0
 21 22  1  0
 22 23  2  0
 23 24  1  0
 23 25  1  0
 25 26  1  0
 26 27  2  0
 26 28  2  0
 26 29  1  0
 29 30  1  0
 30 31  1  0
 31 32  1  0
 32 33  1  0
 33 34  1  0
 25 35  2  0
  6  2  1  0
 16 10  1  0
 35 20  1  0
 34 29  1  0
  1 36  1  0
  1 37  1  0
  1 38  1  0
  4 39  1  0
  5 40  1  0
 13 41  1  0
 14 42  1  0
 15 43  1  0
 21 44  1  0
 22 45  1  0
 24 46  1  0
 30 47  1  0
 30 48  1  0
 31 49  1  0
 31 50  1  0
 32 51  1  0
 32 52  1  0
 33 53  1  0
 33 54  1  0
 34 55  1  0
 34 56  1  0
 35 57  1  0
M  CHG  1  19  -1
M  END
>  <UniqueID>  (16) 
15

>  <SMILES>  (16) 
Cc1nccn1S(=O)(=O)c1c(F)cccc1C(=O)[N-]c1ccc(O)c(S(=O)(=O)N2CCCCC2)c1

>  <Energy>  (16) 
106.02410153375898

>  <Genealogy>  (16) 
Cc1nccn1S(=O)(=O)c1c(F)cccc1C(=O)[N-]c1ccc(O)c(S(=O)(=O)N2CCCCC2)c1 (protonated)
Cc1nccn1S(=O)(=O)c1c(F)cccc1C(=O)[N-]c1ccc(O)c(S(=O)(=O)N2CCCCC2)c1 (3D coordinates assigned)
Cc1nccn1S(=O)(=O)c1c(F)cccc1C(=O)[N-]c1ccc(O)c(S(=O)(=O)N2CCCCC2)c1 (nonaromatic ring conformer: 106.02410153375898 kcal/mol)

>  <smiles>  (16) 
Cc1nccn1S(=O)(=O)c1c(F)cccc1C(=O)Nc1ccc(O)c(S(=O)(=O)N2CCCCC2)c1

>  <score_type>  (16) 
oracle

>  <origin>  (16) 
adgpu

>  <m_score__min__energy>  (16) 
-11.06

>  <m_primary>  (16) 
energy

$$$$
16:0
     RDKit          3D

 52 55  0  0  0  0  0  0  0  0999 V2000
   -2.0810   19.8070  -27.4270 C   0  0  0  0  0  0  0  0  0  0  0  0
   -2.6010   20.9130  -28.3070 C   0  0  0  0  0  0  0  0  0  0  0  0
   -3.5270   21.8300  -27.7840 C   0  0  0  0  0  0  0  0  0  0  0  0
   -4.0300   22.8640  -28.5760 C   0  0  0  0  0  0  0  0  0  0  0  0
   -3.6220   23.0040  -29.9110 C   0  0  0  0  0  0  0  0  0  0  0  0
   -4.1550   24.1040  -30.7510 C   0  0  0  0  0  0  0  0  0  0  0  0
   -3.8610   25.3000  -30.4810 O   0  0  0  0  0  0  0  0  0  0  0  0
   -5.0450   23.8110  -31.8370 N   0  0  0  0  0  0  0  0  0  0  0  0
   -6.1930   22.9490  -31.7960 C   0  0  0  0  0  0  0  0  0  0  0  0
   -7.5020   23.4460  -31.9210 C   0  0  0  0  0  0  0  0  0  0  0  0
   -8.5910   22.5690  -31.9060 C   0  0  0  0  0  0  0  0  0  0  0  0
   -8.3830   21.1940  -31.7790 C   0  0  0  0  0  0  0  0  0  0  0  0
   -7.0810   20.6840  -31.6670 C   0  0  0  0  0  0  0  0  0  0  0  0
   -6.8590   19.1990  -31.5840 C   0  0  0  0  0  0  0  0  0  0  0  0
   -6.0040   18.7570  -32.6910 N   0  0  0  0  0  0  0  0  0  0  0  0
   -4.7860   19.2960  -32.7990 N   0  0  0  0  0  0  0  0  0  0  0  0
   -3.9030   18.9310  -33.7690 C   0  0  0  0  0  0  0  0  0  0  0  0
   -2.5660   19.5730  -33.8150 C   0  0  0  0  0  0  0  0  0  0  0  0
   -2.3850   20.9270  -33.4750 C   0  0  0  0  0  0  0  0  0  0  0  0
   -1.1070   21.4890  -33.5250 C   0  0  0  0  0  0  0  0  0  0  0  0
   -0.0420   20.7340  -33.8940 N   0  0  0  0  0  0  0  0  0  0  0  0
   -0.1790   19.4220  -34.2210 C   0  0  0  0  0  0  0  0  0  0  0  0
   -1.4380   18.8180  -34.1840 C   0  0  0  0  0  0  0  0  0  0  0  0
   -4.2830   17.9350  -34.6790 C   0  0  0  0  0  0  0  0  0  0  0  0
   -5.5440   17.3590  -34.5710 C   0  0  0  0  0  0  0  0  0  0  0  0
   -6.4070   17.7780  -33.5600 C   0  0  0  0  0  0  0  0  0  0  0  0
   -7.5460   17.2470  -33.4570 O   0  0  0  0  0  0  0  0  0  0  0  0
   -5.9900   21.5670  -31.6940 C   0  0  0  0  0  0  0  0  0  0  0  0
   -2.7000   22.0830  -30.4410 C   0  0  0  0  0  0  0  0  0  0  0  0
   -2.1910   21.0340  -29.6550 C   0  0  0  0  0  0  0  0  0  0  0  0
   -1.2010   20.0730  -30.2590 C   0  0  0  0  0  0  0  0  0  0  0  0
   -2.2122   20.0861  -26.3711 H   0  0  0  0  0  0  0  0  0  0  0  0
   -2.6383   18.8814  -27.6336 H   0  0  0  0  0  0  0  0  0  0  0  0
   -1.0127   19.6457  -27.6336 H   0  0  0  0  0  0  0  0  0  0  0  0
   -3.8594   21.7327  -26.7399 H   0  0  0  0  0  0  0  0  0  0  0  0
   -4.7526   23.5752  -28.1494 H   0  0  0  0  0  0  0  0  0  0  0  0
   -7.6700   24.5275  -32.0309 H   0  0  0  0  0  0  0  0  0  0  0  0
   -9.6141   22.9632  -31.9945 H   0  0  0  0  0  0  0  0  0  0  0  0
   -9.2431   20.5084  -31.7667 H   0  0  0  0  0  0  0  0  0  0  0  0
   -6.3718   18.9564  -30.6281 H   0  0  0  0  0  0  0  0  0  0  0  0
   -7.8291   18.6846  -31.6494 H   0  0  0  0  0  0  0  0  0  0  0  0
   -3.2463   21.5400  -33.1712 H   0  0  0  0  0  0  0  0  0  0  0  0
   -0.9637   22.5480  -33.2641 H   0  0  0  0  0  0  0  0  0  0  0  0
    0.7032   18.8346  -34.5154 H   0  0  0  0  0  0  0  0  0  0  0  0
   -1.5471   17.7545  -34.4428 H   0  0  0  0  0  0  0  0  0  0  0  0
   -3.5907   17.6123  -35.4706 H   0  0  0  0  0  0  0  0  0  0  0  0
   -5.8583   16.5778  -35.2788 H   0  0  0  0  0  0  0  0  0  0  0  0
   -4.9660   21.1697  -31.6345 H   0  0  0  0  0  0  0  0  0  0  0  0
   -2.3723   22.1850  -31.4861 H   0  0  0  0  0  0  0  0  0  0  0  0
   -0.6616   19.5494  -29.4560 H   0  0  0  0  0  0  0  0  0  0  0  0
   -1.7348   19.3394  -30.8811 H   0  0  0  0  0  0  0  0  0  0  0  0
   -0.4836   20.6283  -30.8811 H   0  0  0  0  0  0  0  0  0  0  0  0
  1  2  1  0
  2  3  2  0
  3  4  1  0
  4  5  2  0
  5  6  1  0
  6  7  2  0
  6  8  1  0
  8  9  1  0
  9 10  2  0
 10 11  1  0
 11 12  2  0
 12 13  1  0
 13 14  1  0
 14 15  1  0
 15 16  1  0
 16 17  2  0
 17 18  1  0
 18 19  2  0
 19 20  1  0
 20 21  2  0
 21 22  1  0
 22 23  2  0
 17 24  1  0
 24 25  2  0
 25 26  1  0
 26 27  2  0
 13 28  2  0
  5 29  1  0
 29 30  2  0
 30 31  1  0
 30  2  1  0
 28  9  1  0
 26 15  1  0
 23 18  1  0
  1 32  1  0
  1 33  1  0
  1 34  1  0
  3 35  1  0
  4 36  1  0
 10 37  1  0
 11 38  1  0
 12 39  1  0
 14 40  1  0
 14 41  1  0
 19 42  1  0
 20 43  1  0
 22 44  1  0
 23 45  1  0
 24 46  1  0
 25 47  1  0
 28 48  1  0
 29 49  1  0
 31 50  1  0
 31 51  1  0
 31 52  1  0
M  CHG  1   8  -1
M  END
>  <UniqueID>  (17) 
16

>  <SMILES>  (17) 
Cc1ccc(C(=O)[N-]c2cccc(Cn3nc(-c4ccncc4)ccc3=O)c2)cc1C

>  <Energy>  (17) 
66.39009237060304

>  <Genealogy>  (17) 
Cc1ccc(C(=O)[N-]c2cccc(Cn3nc(-c4ccncc4)ccc3=O)c2)cc1C (protonated)
Cc1ccc(C(=O)[N-]c2cccc(Cn3nc(-c4ccncc4)ccc3=O)c2)cc1C (3D coordinates assigned)
Cc1ccc(C(=O)[N-]c2cccc(Cn3nc(-c4ccncc4)ccc3=O)c2)cc1C (optimized conformer: 66.39009237060304 kcal/mol)

>  <smiles>  (17) 
Cc1ccc(C(=O)Nc2cccc(Cn3nc(-c4ccncc4)ccc3=O)c2)cc1C

>  <score_type>  (17) 
oracle

>  <origin>  (17) 
adgpu

>  <m_score__min__energy>  (17) 
-11.44

>  <m_primary>  (17) 
energy

$$$$
17:0
     RDKit          3D

 54 57  0  0  0  0  0  0  0  0999 V2000
   -4.6960   26.0920  -30.5020 O   0  0  0  0  0  0  0  0  0  0  0  0
   -5.5680   25.0890  -29.8010 S   0  0  0  0  0  0  0  0  0  0  0  0
   -6.8210   25.7820  -29.3420 O   0  0  0  0  0  0  0  0  0  0  0  0
   -4.7160   24.4530  -28.4310 N   0  0  0  0  0  0  0  0  0  0  0  0
   -3.5830   23.5720  -28.4880 C   0  0  0  0  0  0  0  0  0  0  0  0
   -3.6210   22.2770  -27.9460 C   0  0  0  0  0  0  0  0  0  0  0  0
   -2.4980   21.4380  -28.0100 C   0  0  0  0  0  0  0  0  0  0  0  0
   -1.3250   21.8910  -28.6600 C   0  0  0  0  0  0  0  0  0  0  0  0
   -1.2940   23.1850  -29.2010 C   0  0  0  0  0  0  0  0  0  0  0  0
   -2.4140   24.0170  -29.1180 C   0  0  0  0  0  0  0  0  0  0  0  0
   -2.3550   25.2960  -29.6630 O   0  0  0  0  0  0  0  0  0  0  0  0
   -0.0610   21.0610  -28.6760 C   0  0  0  0  0  0  0  0  0  0  0  0
   -0.3130   19.5770  -28.3820 C   0  0  0  0  0  0  0  0  0  0  0  0
   -1.2370   19.4170  -27.1750 C   0  0  0  0  0  0  0  0  0  0  0  0
   -2.6060   20.0300  -27.4740 C   0  0  0  0  0  0  0  0  0  0  0  0
   -5.9400   23.7810  -30.9200 C   0  0  0  0  0  0  0  0  0  0  0  0
   -7.2180   23.6580  -31.4810 C   0  0  0  0  0  0  0  0  0  0  0  0
   -7.5110   22.5850  -32.3280 C   0  0  0  0  0  0  0  0  0  0  0  0
   -6.5310   21.6360  -32.6270 C   0  0  0  0  0  0  0  0  0  0  0  0
   -6.8450   20.5740  -33.4700 O   0  0  0  0  0  0  0  0  0  0  0  0
   -5.2390   21.7620  -32.0850 C   0  0  0  0  0  0  0  0  0  0  0  0
   -3.9820   20.5910  -32.4960 S   0  0  0  0  0  0  0  0  0  0  0  0
   -3.3950   20.9370  -33.8380 O   0  0  0  0  0  0  0  0  0  0  0  0
   -2.9060   20.6700  -31.4480 O   0  0  0  0  0  0  0  0  0  0  0  0
   -4.6470   18.9750  -32.5380 N   0  0  0  0  0  0  0  0  0  0  0  0
   -5.7810   18.8640  -31.6050 C   0  0  0  0  0  0  0  0  0  0  0  0
   -6.1800   17.3880  -31.4350 C   0  0  0  0  0  0  0  0  0  0  0  0
   -5.8220   16.5390  -32.6700 C   0  0  0  0  0  0  0  0  0  0  0  0
   -5.9420   17.3530  -33.9600 C   0  0  0  0  0  0  0  0  0  0  0  0
   -5.0680   18.6290  -33.9130 C   0  0  0  0  0  0  0  0  0  0  0  0
   -4.9520   22.8410  -31.2350 C   0  0  0  0  0  0  0  0  0  0  0  0
   -4.5423   21.9160  -27.4655 H   0  0  0  0  0  0  0  0  0  0  0  0
   -0.3805   23.5479  -29.6947 H   0  0  0  0  0  0  0  0  0  0  0  0
    0.4022   21.1474  -29.6700 H   0  0  0  0  0  0  0  0  0  0  0  0
    0.5950   21.4464  -27.8815 H   0  0  0  0  0  0  0  0  0  0  0  0
   -0.7814   19.1089  -29.2604 H   0  0  0  0  0  0  0  0  0  0  0  0
    0.6485   19.0914  -28.1593 H   0  0  0  0  0  0  0  0  0  0  0  0
   -1.3591   18.3472  -26.9499 H   0  0  0  0  0  0  0  0  0  0  0  0
   -0.7928   19.9337  -26.3115 H   0  0  0  0  0  0  0  0  0  0  0  0
   -3.1180   19.4053  -28.2208 H   0  0  0  0  0  0  0  0  0  0  0  0
   -3.1700   20.0711  -26.5305 H   0  0  0  0  0  0  0  0  0  0  0  0
   -7.9917   24.4065  -31.2548 H   0  0  0  0  0  0  0  0  0  0  0  0
   -8.5176   22.4878  -32.7607 H   0  0  0  0  0  0  0  0  0  0  0  0
   -5.4907   19.2777  -30.6280 H   0  0  0  0  0  0  0  0  0  0  0  0
   -6.6367   19.4252  -32.0084 H   0  0  0  0  0  0  0  0  0  0  0  0
   -5.6546   16.9782  -30.5598 H   0  0  0  0  0  0  0  0  0  0  0  0
   -7.2714   17.3476  -31.3040 H   0  0  0  0  0  0  0  0  0  0  0  0
   -4.7877   16.1785  -32.5690 H   0  0  0  0  0  0  0  0  0  0  0  0
   -6.5254   15.6951  -32.7261 H   0  0  0  0  0  0  0  0  0  0  0  0
   -5.6182   16.7297  -34.8066 H   0  0  0  0  0  0  0  0  0  0  0  0
   -6.9919   17.6598  -34.0763 H   0  0  0  0  0  0  0  0  0  0  0  0
   -4.1698   18.4645  -34.5264 H   0  0  0  0  0  0  0  0  0  0  0  0
   -5.6725   19.4634  -34.2981 H   0  0  0  0  0  0  0  0  0  0  0  0
   -3.9420   22.9490  -30.8127 H   0  0  0  0  0  0  0  0  0  0  0  0
  1  2  2  0
  2  3  2  0
  2  4  1  0
  4  5  1  0
  5  6  2  0
  6  7  1  0
  7  8  2  0
  8  9  1  0
  9 10  2  0
 10 11  1  0
  8 12  1  0
 12 13  1  0
 13 14  1  0
 14 15  1  0
  2 16  1  0
 16 17  2  0
 17 18  1  0
 18 19  2  0
 19 20  1  0
 19 21  1  0
 21 22  1  0
 22 23  2  0
 22 24  2  0
 22 25  1  0
 25 26  1  0
 26 27  1  0
 27 28  1  0
 28 29  1  0
 29 30  1  0
 21 31  2  0
 10  5  1  0
 31 16  1  0
 15  7  1  0
 30 25  1  0
  6 32  1  0
  9 33  1  0
 12 34  1  0
 12 35  1  0
 13 36  1  0
 13 37  1  0
 14 38  1  0
 14 39  1  0
 15 40  1  0
 15 41  1  0
 17 42  1  0
 18 43  1  0
 26 44  1  0
 26 45  1  0
 27 46  1  0
 27 47  1  0
 28 48  1  0
 28 49  1  0
 29 50  1  0
 29 51  1  0
 30 52  1  0
 30 53  1  0
 31 54  1  0
M  CHG  3   4  -1  11  -1  20  -1
M  END
>  <UniqueID>  (18) 
17

>  <SMILES>  (18) 
O=S(=O)([N-]c1cc2c(cc1[O-])CCCC2)c1ccc([O-])c(S(=O)(=O)N2CCCCC2)c1

>  <Energy>  (18) 
62.61114960812927

>  <Genealogy>  (18) 
O=S(=O)([N-]c1cc2c(cc1[O-])CCCC2)c1ccc([O-])c(S(=O)(=O)N2CCCCC2)c1 (protonated)
O=S(=O)([N-]c1cc2c(cc1[O-])CCCC2)c1ccc([O-])c(S(=O)(=O)N2CCCCC2)c1 (3D coordinates assigned)
O=S(=O)([N-]c1cc2c(cc1[O-])CCCC2)c1ccc([O-])c(S(=O)(=O)N2CCCCC2)c1 (nonaromatic ring conformer: 62.61114960812927 kcal/mol)

>  <smiles>  (18) 
O=S(=O)(Nc1cc2c(cc1O)CCCC2)c1ccc(O)c(S(=O)(=O)N2CCCCC2)c1

>  <score_type>  (18) 
oracle

>  <origin>  (18) 
adgpu

>  <m_score__min__energy>  (18) 
-14.869999999999999

>  <m_primary>  (18) 
energy

$$$$
18:0
     RDKit          3D

 26 27  0  0  0  0  0  0  0  0999 V2000
   -4.3400   19.5230  -33.4290 C   0  0  0  0  0  0  0  0  0  0  0  0
   -5.6730   19.9740  -32.9220 C   0  0  0  0  0  0  0  0  0  0  0  0
   -6.6760   19.0410  -32.6380 C   0  0  0  0  0  0  0  0  0  0  0  0
   -7.9120   19.5060  -32.1790 C   0  0  0  0  0  0  0  0  0  0  0  0
   -9.0270   18.5500  -31.8960 C   0  0  0  0  0  0  0  0  0  0  0  0
   -8.1170   20.8420  -32.0400 N   0  0  0  0  0  0  0  0  0  0  0  0
   -7.1370   21.7360  -32.3330 C   0  0  0  0  0  0  0  0  0  0  0  0
   -7.4540   23.4920  -32.1730 S   0  0  0  0  0  0  0  0  0  0  0  0
   -6.9770   23.5700  -30.4130 C   0  0  0  0  0  0  0  0  0  0  0  0
   -5.5380   23.9480  -30.2770 C   0  0  0  0  0  0  0  0  0  0  0  0
   -4.9780   25.0230  -30.8690 N   0  0  0  0  0  0  0  0  0  0  0  0
   -3.6980   24.9770  -30.5400 N   0  0  0  0  0  0  0  0  0  0  0  0
   -3.5230   23.8890  -29.7750 C   0  0  0  0  0  0  0  0  0  0  0  0
   -2.0890   23.4200  -29.1480 S   0  0  0  0  0  0  0  0  0  0  0  0
   -4.6520   23.2470  -29.6050 O   0  0  0  0  0  0  0  0  0  0  0  0
   -5.9260   21.3000  -32.7700 N   0  0  0  0  0  0  0  0  0  0  0  0
   -3.6803   19.2998  -32.5776 H   0  0  0  0  0  0  0  0  0  0  0  0
   -4.4676   18.6180  -34.0411 H   0  0  0  0  0  0  0  0  0  0  0  0
   -3.8919   20.3195  -34.0411 H   0  0  0  0  0  0  0  0  0  0  0  0
   -6.4960   17.9643  -32.7730 H   0  0  0  0  0  0  0  0  0  0  0  0
   -9.1514   18.4434  -30.8083 H   0  0  0  0  0  0  0  0  0  0  0  0
   -9.9594   18.9336  -32.3358 H   0  0  0  0  0  0  0  0  0  0  0  0
   -8.7902   17.5699  -32.3358 H   0  0  0  0  0  0  0  0  0  0  0  0
   -7.5982   24.3207  -29.9025 H   0  0  0  0  0  0  0  0  0  0  0  0
   -7.1291   22.5797  -29.9590 H   0  0  0  0  0  0  0  0  0  0  0  0
   -2.9760   25.6690  -30.8410 H   0  0  0  0  0  0  0  0  0  0  0  0
  1  2  1  0
  2  3  2  0
  3  4  1  0
  4  5  1  0
  4  6  2  0
  6  7  1  0
  7  8  1  0
  8  9  1  0
  9 10  1  0
 10 11  2  0
 11 12  1  0
 12 13  1  0
 13 14  2  0
 13 15  1  0
  7 16  2  0
 16  2  1  0
 15 10  1  0
  1 17  1  0
  1 18  1  0
  1 19  1  0
  3 20  1  0
  5 21  1  0
  5 22  1  0
  5 23  1  0
  9 24  1  0
  9 25  1  0
 12 26  1  0
M  END
>  <UniqueID>  (19) 
18

>  <SMILES>  (19) 
Cc1cc(C)nc(SCc2n[nH]c(=S)o2)n1

>  <Energy>  (19) 
54.382542551915876

>  <Genealogy>  (19) 
Cc1cc(C)nc(SCc2n[nH]c(=S)o2)n1 (3D coordinates assigned)
Cc1cc(C)nc(SCc2n[nH]c(=S)o2)n1 (optimized conformer: 54.382542551915876 kcal/mol)

>  <smiles>  (19) 
Cc1cc(C)nc(SCc2n[nH]c(=S)o2)n1

>  <score_type>  (19) 
oracle

>  <origin>  (19) 
adgpu

>  <m_score__min__energy>  (19) 
-6.9699999999999998

>  <m_primary>  (19) 
energy

$$$$
19:0
     RDKit          3D

 32 34  0  0  0  0  0  0  0  0999 V2000
   -7.1200   18.6010  -31.9160 C   0  0  0  0  0  0  0  0  0  0  0  0
   -5.7710   19.1790  -32.2370 C   0  0  0  0  0  0  0  0  0  0  0  0
   -4.9810   19.7400  -31.2190 C   0  0  0  0  0  0  0  0  0  0  0  0
   -3.7220   20.2770  -31.5120 C   0  0  0  0  0  0  0  0  0  0  0  0
   -2.7550   20.9940  -30.2280 S   0  0  0  0  0  0  0  0  0  0  0  0
   -3.0610   20.2850  -28.9390 O   0  0  0  0  0  0  0  0  0  0  0  0
   -1.2910   20.8430  -30.5310 O   0  0  0  0  0  0  0  0  0  0  0  0
   -3.1280   22.6930  -30.1150 N   0  0  0  0  0  0  0  0  0  0  0  0
   -2.3510   23.7270  -29.6910 C   0  0  0  0  0  0  0  0  0  0  0  0
   -0.7970   23.5830  -29.1970 S   0  0  0  0  0  0  0  0  0  0  0  0
   -2.9910   24.9250  -29.6970 N   0  0  0  0  0  0  0  0  0  0  0  0
   -4.2200   24.6060  -30.1450 C   0  0  0  0  0  0  0  0  0  0  0  0
   -5.3020   25.4620  -30.3320 C   0  0  0  0  0  0  0  0  0  0  0  0
   -6.5090   24.9030  -30.7930 C   0  0  0  0  0  0  0  0  0  0  0  0
   -6.6030   23.5150  -31.0510 C   0  0  0  0  0  0  0  0  0  0  0  0
   -8.1160   22.8320  -31.6180 Cl  0  0  0  0  0  0  0  0  0  0  0  0
   -5.4890   22.6780  -30.8510 C   0  0  0  0  0  0  0  0  0  0  0  0
   -4.3080   23.2680  -30.3960 C   0  0  0  0  0  0  0  0  0  0  0  0
   -3.2400   20.2410  -32.8260 C   0  0  0  0  0  0  0  0  0  0  0  0
   -4.0150   19.6780  -33.8420 C   0  0  0  0  0  0  0  0  0  0  0  0
   -5.2810   19.1460  -33.5550 C   0  0  0  0  0  0  0  0  0  0  0  0
   -6.0490   18.5830  -34.5740 O   0  0  0  0  0  0  0  0  0  0  0  0
   -7.2456   18.5472  -30.8245 H   0  0  0  0  0  0  0  0  0  0  0  0
   -7.9048   19.2418  -32.3442 H   0  0  0  0  0  0  0  0  0  0  0  0
   -7.1974   17.5907  -32.3442 H   0  0  0  0  0  0  0  0  0  0  0  0
   -5.3547   19.7572  -30.1846 H   0  0  0  0  0  0  0  0  0  0  0  0
   -5.2166   26.5392  -30.1264 H   0  0  0  0  0  0  0  0  0  0  0  0
   -7.3845   25.5493  -30.9536 H   0  0  0  0  0  0  0  0  0  0  0  0
   -5.5468   21.5970  -31.0463 H   0  0  0  0  0  0  0  0  0  0  0  0
   -2.2486   20.6571  -33.0585 H   0  0  0  0  0  0  0  0  0  0  0  0
   -3.6310   19.6515  -34.8724 H   0  0  0  0  0  0  0  0  0  0  0  0
   -6.8610   19.0580  -34.9510 H   0  0  0  0  0  0  0  0  0  0  0  0
  1  2  1  0
  2  3  2  0
  3  4  1  0
  4  5  1  0
  5  6  2  0
  5  7  2  0
  5  8  1  0
  8  9  1  0
  9 10  2  0
  9 11  1  0
 11 12  1  0
 12 13  2  0
 13 14  1  0
 14 15  2  0
 15 16  1  0
 15 17  1  0
 17 18  2  0
  4 19  2  0
 19 20  1  0
 20 21  2  0
 21 22  1  0
 21  2  1  0
 18  8  1  0
 18 12  1  0
  1 23  1  0
  1 24  1  0
  1 25  1  0
  3 26  1  0
 13 27  1  0
 14 28  1  0
 17 29  1  0
 19 30  1  0
 20 31  1  0
 22 32  1  0
M  CHG  1  11  -1
M  END
>  <UniqueID>  (20) 
19

>  <SMILES>  (20) 
Cc1cc(S(=O)(=O)n2c(=S)[n-]c3ccc(Cl)cc32)ccc1O

>  <Energy>  (20) 
75.00798065921664

>  <Genealogy>  (20) 
Cc1cc(S(=O)(=O)n2c(=S)[n-]c3ccc(Cl)cc32)ccc1O (protonated)
Cc1cc(S(=O)(=O)n2c(=S)[n-]c3ccc(Cl)cc32)ccc1O (3D coordinates assigned)
Cc1cc(S(=O)(=O)n2c(=S)[n-]c3ccc(Cl)cc32)ccc1O (optimized conformer: 75.00798065921664 kcal/mol)

>  <smiles>  (20) 
Cc1cc(S(=O)(=O)n2c(=S)[nH]c3ccc(Cl)cc32)ccc1O

>  <score_type>  (20) 
oracle

>  <origin>  (20) 
adgpu

>  <m_score__min__energy>  (20) 
-9.3900000000000006

>  <m_primary>  (20) 
energy

$$$$
20:0
     RDKit          3D

 46 49  0  0  0  0  0  0  0  0999 V2000
   -3.0680   21.5530  -33.3870 O   0  0  0  0  0  0  0  0  0  0  0  0
   -3.7090   21.1020  -32.1050 S   0  0  0  0  0  0  0  0  0  0  0  0
   -4.1010   19.6570  -32.2360 O   0  0  0  0  0  0  0  0  0  0  0  0
   -2.5710   21.2660  -30.8050 N   0  0  0  0  0  0  0  0  0  0  0  0
   -2.7890   22.0990  -29.6540 C   0  0  0  0  0  0  0  0  0  0  0  0
   -3.8620   21.8770  -28.7700 C   0  0  0  0  0  0  0  0  0  0  0  0
   -4.0500   22.7110  -27.6650 C   0  0  0  0  0  0  0  0  0  0  0  0
   -3.1710   23.7680  -27.4250 C   0  0  0  0  0  0  0  0  0  0  0  0
   -2.0920   23.9950  -28.2880 C   0  0  0  0  0  0  0  0  0  0  0  0
   -0.9680   25.3230  -27.9800 S   0  0  0  0  0  0  0  0  0  0  0  0
    0.4380   24.8350  -28.1870 O   0  0  0  0  0  0  0  0  0  0  0  0
   -1.2260   26.4300  -28.9640 O   0  0  0  0  0  0  0  0  0  0  0  0
   -1.1330   25.9390  -26.3540 N   0  0  0  0  0  0  0  0  0  0  0  0
   -0.4010   27.2080  -26.2100 C   0  0  0  0  0  0  0  0  0  0  0  0
   -0.7470   27.8760  -24.8650 C   0  0  0  0  0  0  0  0  0  0  0  0
   -1.2370   26.8630  -23.8150 C   0  0  0  0  0  0  0  0  0  0  0  0
   -0.5050   25.5260  -23.9560 C   0  0  0  0  0  0  0  0  0  0  0  0
   -0.6540   24.9380  -25.3780 C   0  0  0  0  0  0  0  0  0  0  0  0
   -1.9050   23.1590  -29.3980 C   0  0  0  0  0  0  0  0  0  0  0  0
   -5.1230   22.1060  -31.7970 C   0  0  0  0  0  0  0  0  0  0  0  0
   -6.4330   21.5900  -31.9170 C   0  0  0  0  0  0  0  0  0  0  0  0
   -7.5540   22.4110  -31.6450 C   0  0  0  0  0  0  0  0  0  0  0  0
   -7.3790   23.7520  -31.2510 C   0  0  0  0  0  0  0  0  0  0  0  0
   -6.0740   24.2210  -31.1470 C   0  0  0  0  0  0  0  0  0  0  0  0
   -5.6420   25.4390  -30.7950 N   0  0  0  0  0  0  0  0  0  0  0  0
   -4.3350   25.3500  -30.8560 O   0  0  0  0  0  0  0  0  0  0  0  0
   -3.8900   24.1720  -31.2190 N   0  0  0  0  0  0  0  0  0  0  0  0
   -4.9980   23.4390  -31.4080 C   0  0  0  0  0  0  0  0  0  0  0  0
   -1.6350   20.8190  -30.9370 H   0  0  0  0  0  0  0  0  0  0  0  0
   -4.5559   21.0427  -28.9502 H   0  0  0  0  0  0  0  0  0  0  0  0
   -4.8938   22.5339  -26.9818 H   0  0  0  0  0  0  0  0  0  0  0  0
   -3.3261   24.4243  -26.5559 H   0  0  0  0  0  0  0  0  0  0  0  0
    0.6802   27.0095  -26.2490 H   0  0  0  0  0  0  0  0  0  0  0  0
   -0.6903   27.8827  -27.0292 H   0  0  0  0  0  0  0  0  0  0  0  0
    0.1521   28.3782  -24.4785 H   0  0  0  0  0  0  0  0  0  0  0  0
   -1.5624   28.5917  -25.0462 H   0  0  0  0  0  0  0  0  0  0  0  0
   -1.0521   27.2696  -22.8098 H   0  0  0  0  0  0  0  0  0  0  0  0
   -2.3123   26.6909  -23.9705 H   0  0  0  0  0  0  0  0  0  0  0  0
    0.5634   25.6808  -23.7447 H   0  0  0  0  0  0  0  0  0  0  0  0
   -0.9496   24.8156  -23.2435 H   0  0  0  0  0  0  0  0  0  0  0  0
    0.3253   24.5620  -25.7092 H   0  0  0  0  0  0  0  0  0  0  0  0
   -1.4004   24.1314  -25.3310 H   0  0  0  0  0  0  0  0  0  0  0  0
   -1.0565   23.3356  -30.0754 H   0  0  0  0  0  0  0  0  0  0  0  0
   -6.5827   20.5442  -32.2236 H   0  0  0  0  0  0  0  0  0  0  0  0
   -8.5691   21.9986  -31.7421 H   0  0  0  0  0  0  0  0  0  0  0  0
   -8.2397   24.4018  -31.0344 H   0  0  0  0  0  0  0  0  0  0  0  0
  1  2  2  0
  2  3  2  0
  2  4  1  0
  4  5  1  0
  5  6  2  0
  6  7  1  0
  7  8  2  0
  8  9  1  0
  9 10  1  0
 10 11  2  0
 10 12  2  0
 10 13  1  0
 13 14  1  0
 14 15  1  0
 15 16  1  0
 16 17  1  0
 17 18  1  0
  9 19  2  0
  2 20  1  0
 20 21  2  0
 21 22  1  0
 22 23  2  0
 23 24  1  0
 24 25  2  0
 25 26  1  0
 26 27  1  0
 27 28  2  0
 19  5  1  0
 28 20  1  0
 18 13  1  0
 28 24  1  0
  4 29  1  0
  6 30  1  0
  7 31  1  0
  8 32  1  0
 14 33  1  0
 14 34  1  0
 15 35  1  0
 15 36  1  0
 16 37  1  0
 16 38  1  0
 17 39  1  0
 17 40  1  0
 18 41  1  0
 18 42  1  0
 19 43  1  0
 21 44  1  0
 22 45  1  0
 23 46  1  0
M  END
>  <UniqueID>  (21) 
20

>  <SMILES>  (21) 
O=S(=O)(Nc1cccc(S(=O)(=O)N2CCCCC2)c1)c1cccc2nonc12

>  <Energy>  (21) 
97.12807698285665

>  <Genealogy>  (21) 
O=S(=O)(Nc1cccc(S(=O)(=O)N2CCCCC2)c1)c1cccc2nonc12 (3D coordinates assigned)
O=S(=O)(Nc1cccc(S(=O)(=O)N2CCCCC2)c1)c1cccc2nonc12 (nonaromatic ring conformer: 97.12807698285665 kcal/mol)

>  <smiles>  (21) 
O=S(=O)(Nc1cccc(S(=O)(=O)N2CCCCC2)c1)c1cccc2nonc12

>  <score_type>  (21) 
oracle

>  <origin>  (21) 
adgpu

>  <m_score__min__energy>  (21) 
-11.529999999999999

>  <m_primary>  (21) 
energy

$$$$
21:0
     RDKit          3D

 52 55  0  0  0  0  0  0  0  0999 V2000
   -5.3810   24.5920  -31.4910 O   0  0  0  0  0  0  0  0  0  0  0  0
   -5.4430   23.3320  -31.4040 C   0  0  0  0  0  0  0  0  0  0  0  0
   -6.6820   22.7030  -31.6090 C   0  0  0  0  0  0  0  0  0  0  0  0
   -7.8780   23.4260  -31.7870 C   0  0  0  0  0  0  0  0  0  0  0  0
   -9.0890   22.7470  -31.9670 C   0  0  0  0  0  0  0  0  0  0  0  0
   -9.1140   21.3500  -31.9760 C   0  0  0  0  0  0  0  0  0  0  0  0
   -7.9280   20.6290  -31.8130 C   0  0  0  0  0  0  0  0  0  0  0  0
   -6.7170   21.3060  -31.6270 C   0  0  0  0  0  0  0  0  0  0  0  0
   -5.5610   20.6170  -31.5540 N   0  0  0  0  0  0  0  0  0  0  0  0
   -4.3630   21.2270  -31.3650 C   0  0  0  0  0  0  0  0  0  0  0  0
   -2.9440   20.1880  -31.7610 S   0  0  0  0  0  0  0  0  0  0  0  0
   -3.4640   19.8500  -33.4810 C   0  0  0  0  0  0  0  0  0  0  0  0
   -3.7190   18.3560  -33.6980 C   0  0  0  0  0  0  0  0  0  0  0  0
   -4.8800   18.1580  -34.5980 N   0  0  0  0  0  0  0  0  0  0  0  0
   -6.0510   18.9170  -34.1360 C   0  0  0  0  0  0  0  0  0  0  0  0
   -6.8380   18.0190  -33.1990 C   0  0  0  0  0  0  0  0  0  0  0  0
   -6.4640   16.6060  -33.6030 C   0  0  0  0  0  0  0  0  0  0  0  0
   -5.3240   16.7540  -34.6060 C   0  0  0  0  0  0  0  0  0  0  0  0
   -4.3060   22.5950  -31.1170 N   0  0  0  0  0  0  0  0  0  0  0  0
   -3.1430   23.3650  -30.5420 C   0  0  0  0  0  0  0  0  0  0  0  0
   -1.8840   22.5900  -30.0660 C   0  0  0  0  0  0  0  0  0  0  0  0
   -2.0870   21.8360  -28.7350 C   0  0  0  0  0  0  0  0  0  0  0  0
   -2.5800   22.7740  -27.6350 C   0  0  0  0  0  0  0  0  0  0  0  0
   -3.8540   23.4940  -28.0810 C   0  0  0  0  0  0  0  0  0  0  0  0
   -3.5980   24.2850  -29.3670 C   0  0  0  0  0  0  0  0  0  0  0  0
   -7.8603   24.5259  -31.7845 H   0  0  0  0  0  0  0  0  0  0  0  0
  -10.0220   23.3140  -32.1015 H   0  0  0  0  0  0  0  0  0  0  0  0
  -10.0671   20.8178  -32.1114 H   0  0  0  0  0  0  0  0  0  0  0  0
   -7.9461   19.5293  -31.8309 H   0  0  0  0  0  0  0  0  0  0  0  0
   -4.3891   20.4064  -33.6923 H   0  0  0  0  0  0  0  0  0  0  0  0
   -2.6574   20.1680  -34.1580 H   0  0  0  0  0  0  0  0  0  0  0  0
   -2.8271   17.8975  -34.1500 H   0  0  0  0  0  0  0  0  0  0  0  0
   -3.9340   17.8849  -32.7275 H   0  0  0  0  0  0  0  0  0  0  0  0
   -5.7250   19.8221  -33.6027 H   0  0  0  0  0  0  0  0  0  0  0  0
   -6.6730   19.2257  -34.9891 H   0  0  0  0  0  0  0  0  0  0  0  0
   -6.5557   18.2096  -32.1531 H   0  0  0  0  0  0  0  0  0  0  0  0
   -7.9213   18.1960  -33.2702 H   0  0  0  0  0  0  0  0  0  0  0  0
   -6.1316   16.0312  -32.7260 H   0  0  0  0  0  0  0  0  0  0  0  0
   -7.3194   16.0666  -34.0358 H   0  0  0  0  0  0  0  0  0  0  0  0
   -4.4888   16.0982  -34.3191 H   0  0  0  0  0  0  0  0  0  0  0  0
   -5.6657   16.4704  -35.6124 H   0  0  0  0  0  0  0  0  0  0  0  0
   -2.8118   23.9168  -31.4341 H   0  0  0  0  0  0  0  0  0  0  0  0
   -1.6123   21.8588  -30.8416 H   0  0  0  0  0  0  0  0  0  0  0  0
   -1.0926   23.3349  -29.8964 H   0  0  0  0  0  0  0  0  0  0  0  0
   -2.8293   21.0382  -28.8848 H   0  0  0  0  0  0  0  0  0  0  0  0
   -1.1198   21.4145  -28.4239 H   0  0  0  0  0  0  0  0  0  0  0  0
   -2.7926   22.1891  -26.7280 H   0  0  0  0  0  0  0  0  0  0  0  0
   -1.8007   23.5222  -27.4276 H   0  0  0  0  0  0  0  0  0  0  0  0
   -4.6449   22.7516  -28.2635 H   0  0  0  0  0  0  0  0  0  0  0  0
   -4.1655   24.1913  -27.2893 H   0  0  0  0  0  0  0  0  0  0  0  0
   -4.5261   24.7988  -29.6579 H   0  0  0  0  0  0  0  0  0  0  0  0
   -2.7894   25.0035  -29.1671 H   0  0  0  0  0  0  0  0  0  0  0  0
  1  2  2  0
  2  3  1  0
  3  4  2  0
  4  5  1  0
  5  6  2  0
  6  7  1  0
  7  8  2  0
  8  9  1  0
  9 10  2  0
 10 11  1  0
 11 12  1  0
 12 13  1  0
 13 14  1  0
 14 15  1  0
 15 16  1  0
 16 17  1  0
 17 18  1  0
 10 19  1  0
 19 20  1  0
 20 21  1  0
 21 22  1  0
 22 23  1  0
 23 24  1  0
 24 25  1  0
 19  2  1  0
 25 20  1  0
  8  3  1  0
 18 14  1  0
  4 26  1  0
  5 27  1  0
  6 28  1  0
  7 29  1  0
 12 30  1  0
 12 31  1  0
 13 32  1  0
 13 33  1  0
 15 34  1  0
 15 35  1  0
 16 36  1  0
 16 37  1  0
 17 38  1  0
 17 39  1  0
 18 40  1  0
 18 41  1  0
 20 42  1  0
 21 43  1  0
 21 44  1  0
 22 45  1  0
 22 46  1  0
 23 47  1  0
 23 48  1  0
 24 49  1  0
 24 50  1  0
 25 51  1  0
 25 52  1  0
M  END
>  <UniqueID>  (22) 
21

>  <SMILES>  (22) 
O=c1c2ccccc2nc(SCCN2CCCC2)n1C1CCCCC1

>  <Energy>  (22) 
80.74142094522668

>  <Genealogy>  (22) 
O=c1c2ccccc2nc(SCCN2CCCC2)n1C1CCCCC1 (3D coordinates assigned)
O=c1c2ccccc2nc(SCCN2CCCC2)n1C1CCCCC1 (nonaromatic ring conformer: 80.74142094522668 kcal/mol)

>  <smiles>  (22) 
O=c1c2ccccc2nc(SCCN2CCCC2)n1C1CCCCC1

>  <score_type>  (22) 
oracle

>  <origin>  (22) 
adgpu

>  <m_score__min__energy>  (22) 
-8.7799999999999994

>  <m_primary>  (22) 
energy

$$$$
22:0
     RDKit          3D

 40 42  0  0  0  0  0  0  0  0999 V2000
   -5.7900   26.0790  -30.3880 O   0  0  0  0  0  0  0  0  0  0  0  0
   -5.0410   25.1140  -30.6940 C   0  0  0  0  0  0  0  0  0  0  0  0
   -3.6320   25.2380  -30.4550 N   0  0  0  0  0  0  0  0  0  0  0  0
   -2.8910   24.5970  -29.4060 C   0  0  0  0  0  0  0  0  0  0  0  0
   -3.3900   23.4030  -28.8670 C   0  0  0  0  0  0  0  0  0  0  0  0
   -2.6970   22.7420  -27.8490 C   0  0  0  0  0  0  0  0  0  0  0  0
   -1.5070   23.2780  -27.3490 C   0  0  0  0  0  0  0  0  0  0  0  0
   -1.0180   24.4850  -27.8570 C   0  0  0  0  0  0  0  0  0  0  0  0
   -1.7090   25.1550  -28.8720 C   0  0  0  0  0  0  0  0  0  0  0  0
   -1.2310   26.3820  -29.3190 O   0  0  0  0  0  0  0  0  0  0  0  0
   -5.6410   23.8730  -31.2430 C   0  0  0  0  0  0  0  0  0  0  0  0
   -4.8410   22.8940  -31.8570 C   0  0  0  0  0  0  0  0  0  0  0  0
   -5.4190   21.7290  -32.3710 C   0  0  0  0  0  0  0  0  0  0  0  0
   -6.7990   21.5210  -32.2670 C   0  0  0  0  0  0  0  0  0  0  0  0
   -7.5130   20.0500  -32.9220 S   0  0  0  0  0  0  0  0  0  0  0  0
   -8.9950   20.2330  -33.0990 O   0  0  0  0  0  0  0  0  0  0  0  0
   -6.8880   19.7740  -34.2610 O   0  0  0  0  0  0  0  0  0  0  0  0
   -7.2050   18.7100  -31.8370 N   0  0  0  0  0  0  0  0  0  0  0  0
   -7.6580   17.4490  -32.4340 C   0  0  0  0  0  0  0  0  0  0  0  0
   -6.4760   16.8090  -33.1480 C   0  0  0  0  0  0  0  0  0  0  0  0
   -5.2460   17.5240  -32.6220 C   0  0  0  0  0  0  0  0  0  0  0  0
   -5.7640   18.5460  -31.6200 C   0  0  0  0  0  0  0  0  0  0  0  0
   -7.5990   22.4870  -31.6450 C   0  0  0  0  0  0  0  0  0  0  0  0
   -7.0240   23.6520  -31.1300 C   0  0  0  0  0  0  0  0  0  0  0  0
   -4.3330   22.9836  -29.2477 H   0  0  0  0  0  0  0  0  0  0  0  0
   -3.0887   21.7986  -27.4408 H   0  0  0  0  0  0  0  0  0  0  0  0
   -0.9558   22.7506  -26.5565 H   0  0  0  0  0  0  0  0  0  0  0  0
   -0.0856   24.9098  -27.4568 H   0  0  0  0  0  0  0  0  0  0  0  0
   -3.7541   23.0451  -31.9337 H   0  0  0  0  0  0  0  0  0  0  0  0
   -4.7864   20.9730  -32.8591 H   0  0  0  0  0  0  0  0  0  0  0  0
   -8.0264   16.7753  -31.6463 H   0  0  0  0  0  0  0  0  0  0  0  0
   -8.4751   17.6377  -33.1459 H   0  0  0  0  0  0  0  0  0  0  0  0
   -6.4238   15.7348  -32.9172 H   0  0  0  0  0  0  0  0  0  0  0  0
   -6.5631   16.8993  -34.2408 H   0  0  0  0  0  0  0  0  0  0  0  0
   -4.5692   16.8111  -32.1283 H   0  0  0  0  0  0  0  0  0  0  0  0
   -4.6750   18.0013  -33.4320 H   0  0  0  0  0  0  0  0  0  0  0  0
   -5.5797   18.1899  -30.5957 H   0  0  0  0  0  0  0  0  0  0  0  0
   -5.2472   19.5075  -31.7560 H   0  0  0  0  0  0  0  0  0  0  0  0
   -8.6843   22.3284  -31.5613 H   0  0  0  0  0  0  0  0  0  0  0  0
   -7.6582   24.4008  -30.6330 H   0  0  0  0  0  0  0  0  0  0  0  0
  1  2  2  0
  2  3  1  0
  3  4  1  0
  4  5  2  0
  5  6  1  0
  6  7  2  0
  7  8  1  0
  8  9  2  0
  9 10  1  0
  2 11  1  0
 11 12  2  0
 12 13  1  0
 13 14  2  0
 14 15  1  0
 15 16  2  0
 15 17  2  0
 15 18  1  0
 18 19  1  0
 19 20  1  0
 20 21  1  0
 21 22  1  0
 14 23  1  0
 23 24  2  0
  9  4  1  0
 24 11  1  0
 22 18  1  0
  5 25  1  0
  6 26  1  0
  7 27  1  0
  8 28  1  0
 12 29  1  0
 13 30  1  0
 19 31  1  0
 19 32  1  0
 20 33  1  0
 20 34  1  0
 21 35  1  0
 21 36  1  0
 22 37  1  0
 22 38  1  0
 23 39  1  0
 24 40  1  0
M  CHG  2   3  -1  10  -1
M  END
>  <UniqueID>  (23) 
22

>  <SMILES>  (23) 
O=C([N-]c1ccccc1[O-])c1ccc(S(=O)(=O)N2CCCC2)cc1

>  <Energy>  (23) 
51.145691011960764

>  <Genealogy>  (23) 
O=C([N-]c1ccccc1[O-])c1ccc(S(=O)(=O)N2CCCC2)cc1 (protonated)
O=C([N-]c1ccccc1[O-])c1ccc(S(=O)(=O)N2CCCC2)cc1 (3D coordinates assigned)
O=C([N-]c1ccccc1[O-])c1ccc(S(=O)(=O)N2CCCC2)cc1 (nonaromatic ring conformer: 51.145691011960764 kcal/mol)

>  <smiles>  (23) 
O=C(Nc1ccccc1O)c1ccc(S(=O)(=O)N2CCCC2)cc1

>  <score_type>  (23) 
oracle

>  <origin>  (23) 
adgpu

>  <m_score__min__energy>  (23) 
-14.640000000000001

>  <m_primary>  (23) 
energy

$$$$
23:0
     RDKit          3D

 58 61  0  0  0  0  0  0  0  0999 V2000
    3.4370   24.2360  -26.7580 C   0  0  0  0  0  0  0  0  0  0  0  0
    1.9580   24.4850  -26.7830 C   0  0  0  0  0  0  0  0  0  0  0  0
    1.1450   23.8170  -27.7110 C   0  0  0  0  0  0  0  0  0  0  0  0
   -0.2360   24.0710  -27.7630 C   0  0  0  0  0  0  0  0  0  0  0  0
   -1.0830   23.4140  -28.7220 N   0  0  0  0  0  0  0  0  0  0  0  0
   -2.1990   24.0450  -29.3700 C   0  0  0  0  0  0  0  0  0  0  0  0
   -2.3160   25.3000  -29.3400 O   0  0  0  0  0  0  0  0  0  0  0  0
   -3.2020   23.2250  -30.0830 C   0  0  0  0  0  0  0  0  0  0  0  0
   -2.8170   21.8020  -30.9070 S   0  0  0  0  0  0  0  0  0  0  0  0
   -4.3980   21.4200  -31.2930 C   0  0  0  0  0  0  0  0  0  0  0  0
   -4.7970   20.3240  -31.9720 N   0  0  0  0  0  0  0  0  0  0  0  0
   -6.1170   20.1070  -32.2190 C   0  0  0  0  0  0  0  0  0  0  0  0
   -6.4900   18.8580  -32.9650 C   0  0  0  0  0  0  0  0  0  0  0  0
   -7.0910   21.0480  -31.7720 C   0  0  0  0  0  0  0  0  0  0  0  0
   -8.5640   20.7970  -32.0210 C   0  0  0  0  0  0  0  0  0  0  0  0
   -6.6550   22.2540  -31.1410 C   0  0  0  0  0  0  0  0  0  0  0  0
   -7.6320   23.3760  -30.8710 C   0  0  0  0  0  0  0  0  0  0  0  0
   -5.2780   22.3800  -30.8230 C   0  0  0  0  0  0  0  0  0  0  0  0
   -4.6000   23.4000  -30.1020 C   0  0  0  0  0  0  0  0  0  0  0  0
   -5.2530   24.4490  -29.3820 N   0  0  0  0  0  0  0  0  0  0  0  0
   -0.7880   25.0360  -26.9070 C   0  0  0  0  0  0  0  0  0  0  0  0
    0.0190   25.7190  -25.9880 C   0  0  0  0  0  0  0  0  0  0  0  0
   -0.6680   26.9480  -24.9290 S   0  0  0  0  0  0  0  0  0  0  0  0
   -1.9540   26.4440  -24.3330 O   0  0  0  0  0  0  0  0  0  0  0  0
    0.3030   27.2140  -23.8130 O   0  0  0  0  0  0  0  0  0  0  0  0
   -0.9440   28.4090  -25.8540 N   0  0  0  0  0  0  0  0  0  0  0  0
   -0.8300   29.6230  -25.0160 C   0  0  0  0  0  0  0  0  0  0  0  0
    0.5400   30.3140  -25.1480 C   0  0  0  0  0  0  0  0  0  0  0  0
    1.5470   29.3590  -25.3960 O   0  0  0  0  0  0  0  0  0  0  0  0
    1.3890   28.8070  -26.6910 C   0  0  0  0  0  0  0  0  0  0  0  0
   -0.0800   28.4710  -27.0460 C   0  0  0  0  0  0  0  0  0  0  0  0
    1.3910   25.4460  -25.9330 C   0  0  0  0  0  0  0  0  0  0  0  0
    3.7815   24.1780  -25.7149 H   0  0  0  0  0  0  0  0  0  0  0  0
    3.6579   23.2880  -27.2704 H   0  0  0  0  0  0  0  0  0  0  0  0
    3.9562   25.0594  -27.2704 H   0  0  0  0  0  0  0  0  0  0  0  0
    1.5923   23.0886  -28.4034 H   0  0  0  0  0  0  0  0  0  0  0  0
   -0.8060   22.4580  -29.0420 H   0  0  0  0  0  0  0  0  0  0  0  0
   -6.7285   18.0595  -32.2470 H   0  0  0  0  0  0  0  0  0  0  0  0
   -7.3679   19.0569  -33.5972 H   0  0  0  0  0  0  0  0  0  0  0  0
   -5.6468   18.5429  -33.5972 H   0  0  0  0  0  0  0  0  0  0  0  0
   -9.0886   20.7076  -31.0583 H   0  0  0  0  0  0  0  0  0  0  0  0
   -8.9874   21.6359  -32.5928 H   0  0  0  0  0  0  0  0  0  0  0  0
   -8.6856   19.8652  -32.5928 H   0  0  0  0  0  0  0  0  0  0  0  0
   -7.7473   23.5084  -29.7851 H   0  0  0  0  0  0  0  0  0  0  0  0
   -7.2524   24.3077  -31.3157 H   0  0  0  0  0  0  0  0  0  0  0  0
   -8.6071   23.1281  -31.3157 H   0  0  0  0  0  0  0  0  0  0  0  0
   -4.7660   25.3500  -29.1860 H   0  0  0  0  0  0  0  0  0  0  0  0
   -6.1970   24.3040  -28.9640 H   0  0  0  0  0  0  0  0  0  0  0  0
   -1.8641   25.2582  -26.9580 H   0  0  0  0  0  0  0  0  0  0  0  0
   -1.6127   30.3339  -25.3193 H   0  0  0  0  0  0  0  0  0  0  0  0
   -0.9442   29.3126  -23.9669 H   0  0  0  0  0  0  0  0  0  0  0  0
    0.5062   31.0308  -25.9817 H   0  0  0  0  0  0  0  0  0  0  0  0
    0.7681   30.8394  -24.2089 H   0  0  0  0  0  0  0  0  0  0  0  0
    1.7676   29.5319  -27.4267 H   0  0  0  0  0  0  0  0  0  0  0  0
    1.9500   27.8610  -26.7093 H   0  0  0  0  0  0  0  0  0  0  0  0
   -0.4666   29.2471  -27.7229 H   0  0  0  0  0  0  0  0  0  0  0  0
   -0.0925   27.4795  -27.5222 H   0  0  0  0  0  0  0  0  0  0  0  0
    2.0282   25.9884  -25.2189 H   0  0  0  0  0  0  0  0  0  0  0  0
  1  2  1  0
  2  3  2  0
  3  4  1  0
  4  5  1  0
  5  6  1  0
  6  7  2  0
  6  8  1  0
  8  9  1  0
  9 10  1  0
 10 11  2  0
 11 12  1  0
 12 13  1  0
 12 14  2  0
 14 15  1  0
 14 16  1  0
 16 17  1  0
 16 18  2  0
 18 19  1  0
 19 20  1  0
  4 21  2  0
 21 22  1  0
 22 23  1  0
 23 24  2  0
 23 25  2  0
 23 26  1  0
 26 27  1  0
 27 28  1  0
 28 29  1  0
 29 30  1  0
 30 31  1  0
 22 32  2  0
 32  2  1  0
 19  8  2  0
 31 26  1  0
 18 10  1  0
  1 33  1  0
  1 34  1  0
  1 35  1  0
  3 36  1  0
  5 37  1  0
 13 38  1  0
 13 39  1  0
 13 40  1  0
 15 41  1  0
 15 42  1  0
 15 43  1  0
 17 44  1  0
 17 45  1  0
 17 46  1  0
 20 47  1  0
 20 48  1  0
 21 49  1  0
 27 50  1  0
 27 51  1  0
 28 52  1  0
 28 53  1  0
 30 54  1  0
 30 55  1  0
 31 56  1  0
 31 57  1  0
 32 58  1  0
M  END
>  <UniqueID>  (24) 
23

>  <SMILES>  (24) 
Cc1cc(NC(=O)c2sc3nc(C)c(C)c(C)c3c2N)cc(S(=O)(=O)N2CCOCC2)c1

>  <Energy>  (24) 
118.17972545180872

>  <Genealogy>  (24) 
Cc1cc(NC(=O)c2sc3nc(C)c(C)c(C)c3c2N)cc(S(=O)(=O)N2CCOCC2)c1 (3D coordinates assigned)
Cc1cc(NC(=O)c2sc3nc(C)c(C)c(C)c3c2N)cc(S(=O)(=O)N2CCOCC2)c1 (nonaromatic ring conformer: 118.17972545180872 kcal/mol)

>  <smiles>  (24) 
Cc1cc(NC(=O)c2sc3nc(C)c(C)c(C)c3c2N)cc(S(=O)(=O)N2CCOCC2)c1

>  <score_type>  (24) 
oracle

>  <origin>  (24) 
adgpu

>  <m_score__min__energy>  (24) 
-10.25

>  <m_primary>  (24) 
energy

$$$$
24:0
     RDKit          3D

 48 50  0  0  0  0  0  0  0  0999 V2000
    0.5230   22.9890  -26.3630 H   0  0  0  0  0  0  0  0  0  0  0  0
    0.3610   22.0860  -26.8600 N   0  0  0  0  0  0  0  0  0  0  0  0
   -0.1180   21.9880  -28.0610 C   0  0  0  0  0  0  0  0  0  0  0  0
   -0.2890   20.7500  -28.5970 N   0  0  0  0  0  0  0  0  0  0  0  0
   -0.7930   20.5720  -29.8440 C   0  0  0  0  0  0  0  0  0  0  0  0
   -0.9187   19.5581  -30.2518 H   0  0  0  0  0  0  0  0  0  0  0  0
   -1.1510   21.6870  -30.6060 C   0  0  0  0  0  0  0  0  0  0  0  0
   -1.7210   21.5220  -31.9780 C   0  0  0  0  0  0  0  0  0  0  0  0
   -2.7752   21.2168  -31.9028 H   0  0  0  0  0  0  0  0  0  0  0  0
   -1.6534   22.4766  -32.5204 H   0  0  0  0  0  0  0  0  0  0  0  0
   -1.1539   20.7511  -32.5204 H   0  0  0  0  0  0  0  0  0  0  0  0
   -0.9860   22.9290  -30.0790 N   0  0  0  0  0  0  0  0  0  0  0  0
   -0.4740   23.1220  -28.8330 C   0  0  0  0  0  0  0  0  0  0  0  0
   -0.3350   24.5310  -28.3290 C   0  0  0  0  0  0  0  0  0  0  0  0
   -0.3116   24.5257  -27.2293 H   0  0  0  0  0  0  0  0  0  0  0  0
    0.5983   24.9665  -28.7153 H   0  0  0  0  0  0  0  0  0  0  0  0
   -1.4660   25.3280  -28.7860 N   0  0  0  0  0  0  0  0  0  0  0  0
   -2.7960   24.8230  -28.9350 C   0  0  0  0  0  0  0  0  0  0  0  0
   -3.3720   24.3280  -27.9310 O   0  0  0  0  0  0  0  0  0  0  0  0
   -3.4830   24.9070  -30.1970 N   0  0  0  0  0  0  0  0  0  0  0  0
   -3.1480   25.6020  -30.8990 H   0  0  0  0  0  0  0  0  0  0  0  0
   -4.6860   24.1800  -30.5030 C   0  0  0  0  0  0  0  0  0  0  0  0
   -4.7830   22.7950  -30.2840 C   0  0  0  0  0  0  0  0  0  0  0  0
   -3.9321   22.2492  -29.8502 H   0  0  0  0  0  0  0  0  0  0  0  0
   -5.9540   22.1070  -30.6140 C   0  0  0  0  0  0  0  0  0  0  0  0
   -6.0228   21.0242  -30.4331 H   0  0  0  0  0  0  0  0  0  0  0  0
   -7.0400   22.7910  -31.1740 C   0  0  0  0  0  0  0  0  0  0  0  0
   -8.5110   21.9290  -31.6200 S   0  0  0  0  0  0  0  0  0  0  0  0
   -9.1790   21.3840  -30.3860 O   0  0  0  0  0  0  0  0  0  0  0  0
   -9.4520   22.8910  -32.2900 O   0  0  0  0  0  0  0  0  0  0  0  0
   -8.1270   20.6240  -32.7160 N   0  0  0  0  0  0  0  0  0  0  0  0
   -6.7050   20.6950  -33.1050 C   0  0  0  0  0  0  0  0  0  0  0  0
   -6.5849   21.4466  -33.8991 H   0  0  0  0  0  0  0  0  0  0  0  0
   -6.1102   20.9740  -32.2227 H   0  0  0  0  0  0  0  0  0  0  0  0
   -6.2150   19.3330  -33.6210 C   0  0  0  0  0  0  0  0  0  0  0  0
   -6.8109   19.0646  -34.5058 H   0  0  0  0  0  0  0  0  0  0  0  0
   -5.1445   19.4469  -33.8468 H   0  0  0  0  0  0  0  0  0  0  0  0
   -6.3230   18.2770  -32.6730 O   0  0  0  0  0  0  0  0  0  0  0  0
   -7.2760   18.5220  -31.6490 C   0  0  0  0  0  0  0  0  0  0  0  0
   -7.6194   17.5551  -31.2526 H   0  0  0  0  0  0  0  0  0  0  0  0
   -6.7793   19.1315  -30.8797 H   0  0  0  0  0  0  0  0  0  0  0  0
   -8.5030   19.3140  -32.1380 C   0  0  0  0  0  0  0  0  0  0  0  0
   -9.0229   18.7234  -32.9067 H   0  0  0  0  0  0  0  0  0  0  0  0
   -9.1529   19.5009  -31.2704 H   0  0  0  0  0  0  0  0  0  0  0  0
   -6.9380   24.1660  -31.4210 C   0  0  0  0  0  0  0  0  0  0  0  0
   -7.7820   24.7059  -31.8749 H   0  0  0  0  0  0  0  0  0  0  0  0
   -5.7660   24.8540  -31.0920 C   0  0  0  0  0  0  0  0  0  0  0  0
   -5.6904   25.9321  -31.2967 H   0  0  0  0  0  0  0  0  0  0  0  0
  1  2  1  0
  2  3  2  0
  3  4  1  0
  4  5  1  0
  5  6  1  0
  5  7  2  0
  7  8  1  0
  8  9  1  0
  8 10  1  0
  8 11  1  0
  7 12  1  0
 12 13  2  0
 13 14  1  0
 14 15  1  0
 14 16  1  0
 14 17  1  0
 17 18  1  0
 18 19  2  0
 18 20  1  0
 20 21  1  0
 20 22  1  0
 22 23  2  0
 23 24  1  0
 23 25  1  0
 25 26  1  0
 25 27  2  0
 27 28  1  0
 28 29  2  0
 28 30  2  0
 28 31  1  0
 31 32  1  0
 32 33  1  0
 32 34  1  0
 32 35  1  0
 35 36  1  0
 35 37  1  0
 35 38  1  0
 38 39  1  0
 39 40  1  0
 39 41  1  0
 39 42  1  0
 42 43  1  0
 42 44  1  0
 27 45  1  0
 45 46  1  0
 45 47  2  0
 47 48  1  0
 13  3  1  0
 47 22  1  0
 42 31  1  0
M  CHG  2   4  -1  17  -1
M  END
>  <UniqueID>  (25) 
24

>  <SMILES>  (25) 
[H]/N=c1/[n-]cc(C)nc1C[N-]C(=O)Nc1ccc(S(=O)(=O)N2CCOCC2)cc1

>  <Energy>  (25) 
64.85892124773757

>  <Genealogy>  (25) 
Cc1c[n-]c(=N)c(C[N-]C(=O)Nc2ccc(S(=O)(=O)N3CCOCC3)cc2)n1 (protonated)
[H]/N=c1/[n-]cc(C)nc1C[N-]C(=O)Nc1ccc(S(=O)(=O)N2CCOCC2)cc1 (cis-trans isomerization)
[H]/N=c1/[n-]cc(C)nc1C[N-]C(=O)Nc1ccc(S(=O)(=O)N2CCOCC2)cc1 (3D coordinates assigned)
[H]/N=c1/[n-]cc(C)nc1C[N-]C(=O)Nc1ccc(S(=O)(=O)N2CCOCC2)cc1 (nonaromatic ring conformer: 64.85892124773757 kcal/mol)

>  <smiles>  (25) 
Cc1c[nH]c(=N)c(CNC(=O)Nc2ccc(S(=O)(=O)N3CCOCC3)cc2)n1

>  <score_type>  (25) 
oracle

>  <origin>  (25) 
adgpu

>  <m_score__min__energy>  (25) 
-11.26

>  <m_primary>  (25) 
energy

$$$$
25:0
     RDKit          3D

 44 46  0  0  0  0  0  0  0  0999 V2000
   -3.9030   15.5050  -33.9570 C   0  0  0  0  0  0  0  0  0  0  0  0
   -4.6980   16.7250  -33.6040 C   0  0  0  0  0  0  0  0  0  0  0  0
   -5.4080   16.7940  -32.3980 C   0  0  0  0  0  0  0  0  0  0  0  0
   -6.1730   17.9240  -32.0920 C   0  0  0  0  0  0  0  0  0  0  0  0
   -6.2450   19.0060  -32.9900 C   0  0  0  0  0  0  0  0  0  0  0  0
   -7.0930   20.1810  -32.6620 C   0  0  0  0  0  0  0  0  0  0  0  0
   -8.4520   20.0560  -32.3410 C   0  0  0  0  0  0  0  0  0  0  0  0
   -9.1800   21.1930  -32.0040 C   0  0  0  0  0  0  0  0  0  0  0  0
   -8.5480   22.4360  -31.9940 C   0  0  0  0  0  0  0  0  0  0  0  0
   -9.2060   23.4610  -31.6630 O   0  0  0  0  0  0  0  0  0  0  0  0
   -7.2260   22.5250  -32.3430 N   0  0  0  0  0  0  0  0  0  0  0  0
   -6.5020   23.8000  -32.3220 C   0  0  0  0  0  0  0  0  0  0  0  0
   -5.6700   23.8850  -31.0830 C   0  0  0  0  0  0  0  0  0  0  0  0
   -6.2260   23.8760  -29.9530 O   0  0  0  0  0  0  0  0  0  0  0  0
   -4.2420   23.8590  -31.2010 N   0  0  0  0  0  0  0  0  0  0  0  0
   -3.3840   22.7130  -31.1020 C   0  0  0  0  0  0  0  0  0  0  0  0
   -2.6810   22.4270  -29.9300 C   0  0  0  0  0  0  0  0  0  0  0  0
   -1.8370   21.3700  -29.8910 N   0  0  0  0  0  0  0  0  0  0  0  0
   -1.6470   20.5710  -30.9690 C   0  0  0  0  0  0  0  0  0  0  0  0
   -0.8500   19.5990  -30.8670 O   0  0  0  0  0  0  0  0  0  0  0  0
   -2.3120   20.8190  -32.1460 N   0  0  0  0  0  0  0  0  0  0  0  0
   -2.1010   19.9490  -33.3160 C   0  0  0  0  0  0  0  0  0  0  0  0
   -3.1750   21.8920  -32.2280 C   0  0  0  0  0  0  0  0  0  0  0  0
   -3.8870   22.1840  -33.4470 N   0  0  0  0  0  0  0  0  0  0  0  0
   -6.5380   21.4240  -32.6600 N   0  0  0  0  0  0  0  0  0  0  0  0
   -5.5550   18.9160  -34.2140 C   0  0  0  0  0  0  0  0  0  0  0  0
   -4.7900   17.7850  -34.5170 C   0  0  0  0  0  0  0  0  0  0  0  0
   -3.5751   15.0017  -33.0355 H   0  0  0  0  0  0  0  0  0  0  0  0
   -4.5276   14.8185  -34.5473 H   0  0  0  0  0  0  0  0  0  0  0  0
   -3.0227   15.7991  -34.5473 H   0  0  0  0  0  0  0  0  0  0  0  0
   -5.3634   15.9549  -31.6881 H   0  0  0  0  0  0  0  0  0  0  0  0
   -6.7237   17.9679  -31.1408 H   0  0  0  0  0  0  0  0  0  0  0  0
   -8.9378   19.0692  -32.3554 H   0  0  0  0  0  0  0  0  0  0  0  0
  -10.2465   21.1119  -31.7473 H   0  0  0  0  0  0  0  0  0  0  0  0
   -5.8502   23.8652  -33.2057 H   0  0  0  0  0  0  0  0  0  0  0  0
   -7.2240   24.6298  -32.3343 H   0  0  0  0  0  0  0  0  0  0  0  0
   -2.8130   23.0598  -29.0400 H   0  0  0  0  0  0  0  0  0  0  0  0
   -1.8544   18.9320  -32.9770 H   0  0  0  0  0  0  0  0  0  0  0  0
   -3.0184   19.9210  -33.9223 H   0  0  0  0  0  0  0  0  0  0  0  0
   -1.2727   20.3444  -33.9223 H   0  0  0  0  0  0  0  0  0  0  0  0
   -4.8590   22.5620  -33.4550 H   0  0  0  0  0  0  0  0  0  0  0  0
   -3.4530   22.0240  -34.3820 H   0  0  0  0  0  0  0  0  0  0  0  0
   -5.6181   19.7419  -34.9378 H   0  0  0  0  0  0  0  0  0  0  0  0
   -4.2572   17.7268  -35.4776 H   0  0  0  0  0  0  0  0  0  0  0  0
  1  2  1  0
  2  3  2  0
  3  4  1  0
  4  5  2  0
  5  6  1  0
  6  7  1  0
  7  8  2  0
  8  9  1  0
  9 10  2  0
  9 11  1  0
 11 12  1  0
 12 13  1  0
 13 14  2  0
 13 15  1  0
 15 16  1  0
 16 17  1  0
 17 18  2  0
 18 19  1  0
 19 20  2  0
 19 21  1  0
 21 22  1  0
 21 23  1  0
 23 24  1  0
 11 25  1  0
  5 26  1  0
 26 27  2  0
 27  2  1  0
 25  6  2  0
 23 16  2  0
  1 28  1  0
  1 29  1  0
  1 30  1  0
  3 31  1  0
  4 32  1  0
  7 33  1  0
  8 34  1  0
 12 35  1  0
 12 36  1  0
 17 37  1  0
 22 38  1  0
 22 39  1  0
 22 40  1  0
 24 41  1  0
 24 42  1  0
 26 43  1  0
 27 44  1  0
M  CHG  1  15  -1
M  END
>  <UniqueID>  (26) 
25

>  <SMILES>  (26) 
Cc1ccc(-c2ccc(=O)n(CC(=O)[N-]c3cnc(=O)n(C)c3N)n2)cc1

>  <Energy>  (26) 
58.493166948307795

>  <Genealogy>  (26) 
Cc1ccc(-c2ccc(=O)n(CC(=O)[N-]c3cnc(=O)n(C)c3N)n2)cc1 (protonated)
Cc1ccc(-c2ccc(=O)n(CC(=O)[N-]c3cnc(=O)n(C)c3N)n2)cc1 (3D coordinates assigned)
Cc1ccc(-c2ccc(=O)n(CC(=O)[N-]c3cnc(=O)n(C)c3N)n2)cc1 (optimized conformer: 58.493166948307795 kcal/mol)

>  <smiles>  (26) 
Cc1ccc(-c2ccc(=O)n(CC(=O)Nc3cnc(=O)n(C)c3N)n2)cc1

>  <score_type>  (26) 
oracle

>  <origin>  (26) 
adgpu

>  <m_score__min__energy>  (26) 
-10.369999999999999

>  <m_primary>  (26) 
energy

$$$$
26:0
     RDKit          3D

 57 60  0  0  0  0  0  0  0  0999 V2000
   -3.7970   21.9300  -33.0590 C   0  0  0  0  0  0  0  0  0  0  0  0
   -3.9480   22.2000  -31.6700 O   0  0  0  0  0  0  0  0  0  0  0  0
   -4.9300   23.0390  -31.1240 C   0  0  0  0  0  0  0  0  0  0  0  0
   -6.2980   22.7000  -31.1510 C   0  0  0  0  0  0  0  0  0  0  0  0
   -7.2510   23.5740  -30.6210 C   0  0  0  0  0  0  0  0  0  0  0  0
   -6.8540   24.7900  -30.0640 C   0  0  0  0  0  0  0  0  0  0  0  0
   -5.5000   25.1320  -30.0270 C   0  0  0  0  0  0  0  0  0  0  0  0
   -4.5340   24.2560  -30.5340 C   0  0  0  0  0  0  0  0  0  0  0  0
   -3.1520   24.6070  -30.4190 N   0  0  0  0  0  0  0  0  0  0  0  0
   -2.3460   24.7060  -28.8850 S   0  0  0  0  0  0  0  0  0  0  0  0
   -1.4120   25.8830  -28.8570 O   0  0  0  0  0  0  0  0  0  0  0  0
   -3.3800   24.8890  -27.8100 O   0  0  0  0  0  0  0  0  0  0  0  0
   -1.4480   23.2170  -28.5950 C   0  0  0  0  0  0  0  0  0  0  0  0
   -1.0910   22.8340  -27.2960 C   0  0  0  0  0  0  0  0  0  0  0  0
   -0.4580   21.6080  -27.0770 C   0  0  0  0  0  0  0  0  0  0  0  0
   -0.1990   20.7450  -28.1480 C   0  0  0  0  0  0  0  0  0  0  0  0
    0.4040   19.5160  -27.9010 O   0  0  0  0  0  0  0  0  0  0  0  0
   -0.5500   21.1180  -29.4590 C   0  0  0  0  0  0  0  0  0  0  0  0
   -0.3850   20.1830  -30.5430 N   0  0  0  0  0  0  0  0  0  0  0  0
   -0.5410   20.5410  -31.9230 C   0  0  0  0  0  0  0  0  0  0  0  0
    0.0510   21.5570  -32.3750 O   0  0  0  0  0  0  0  0  0  0  0  0
   -1.4040   19.7320  -32.8020 C   0  0  0  0  0  0  0  0  0  0  0  0
   -2.4540   18.9280  -32.4070 C   0  0  0  0  0  0  0  0  0  0  0  0
   -3.0370   18.4270  -33.5120 N   0  0  0  0  0  0  0  0  0  0  0  0
   -4.1650   17.5020  -33.5380 C   0  0  0  0  0  0  0  0  0  0  0  0
   -5.4290   18.2310  -33.1760 C   0  0  0  0  0  0  0  0  0  0  0  0
   -5.7740   19.4210  -33.8370 C   0  0  0  0  0  0  0  0  0  0  0  0
   -6.9280   20.1200  -33.4700 C   0  0  0  0  0  0  0  0  0  0  0  0
   -7.7390   19.6420  -32.4370 C   0  0  0  0  0  0  0  0  0  0  0  0
   -7.3930   18.4660  -31.7640 C   0  0  0  0  0  0  0  0  0  0  0  0
   -6.2380   17.7650  -32.1280 C   0  0  0  0  0  0  0  0  0  0  0  0
   -2.4090   18.8550  -34.5960 N   0  0  0  0  0  0  0  0  0  0  0  0
   -1.4070   19.6590  -34.1890 C   0  0  0  0  0  0  0  0  0  0  0  0
   -0.4890   20.3700  -35.1310 C   0  0  0  0  0  0  0  0  0  0  0  0
   -1.1540   22.3710  -29.6700 C   0  0  0  0  0  0  0  0  0  0  0  0
   -3.2640   20.9769  -33.1914 H   0  0  0  0  0  0  0  0  0  0  0  0
   -4.7890   21.8638  -33.5296 H   0  0  0  0  0  0  0  0  0  0  0  0
   -3.2213   22.7406  -33.5296 H   0  0  0  0  0  0  0  0  0  0  0  0
   -6.6167   21.7436  -31.5911 H   0  0  0  0  0  0  0  0  0  0  0  0
   -8.3168   23.3025  -30.6430 H   0  0  0  0  0  0  0  0  0  0  0  0
   -7.6069   25.4793  -29.6541 H   0  0  0  0  0  0  0  0  0  0  0  0
   -5.1914   26.0961  -29.5965 H   0  0  0  0  0  0  0  0  0  0  0  0
   -1.3092   23.4991  -26.4475 H   0  0  0  0  0  0  0  0  0  0  0  0
   -0.1617   21.3195  -26.0577 H   0  0  0  0  0  0  0  0  0  0  0  0
   -0.2670   19.1700  -30.3190 H   0  0  0  0  0  0  0  0  0  0  0  0
   -2.7611   18.7309  -31.3693 H   0  0  0  0  0  0  0  0  0  0  0  0
   -4.2651   17.0763  -34.5473 H   0  0  0  0  0  0  0  0  0  0  0  0
   -3.9901   16.6949  -32.8113 H   0  0  0  0  0  0  0  0  0  0  0  0
   -5.1345   19.8043  -34.6458 H   0  0  0  0  0  0  0  0  0  0  0  0
   -7.1981   21.0479  -33.9953 H   0  0  0  0  0  0  0  0  0  0  0  0
   -8.6492   20.1907  -32.1534 H   0  0  0  0  0  0  0  0  0  0  0  0
   -8.0290   18.0919  -30.9482 H   0  0  0  0  0  0  0  0  0  0  0  0
   -5.9630   16.8453  -31.5908 H   0  0  0  0  0  0  0  0  0  0  0  0
    0.2527   20.9444  -34.5566 H   0  0  0  0  0  0  0  0  0  0  0  0
    0.0278   19.6342  -35.7647 H   0  0  0  0  0  0  0  0  0  0  0  0
   -1.0721   21.0544  -35.7647 H   0  0  0  0  0  0  0  0  0  0  0  0
   -1.3984   22.6899  -30.6940 H   0  0  0  0  0  0  0  0  0  0  0  0
  1  2  1  0
  2  3  1  0
  3  4  2  0
  4  5  1  0
  5  6  2  0
  6  7  1  0
  7  8  2  0
  8  9  1  0
  9 10  1  0
 10 11  2  0
 10 12  2  0
 10 13  1  0
 13 14  2  0
 14 15  1  0
 15 16  2  0
 16 17  1  0
 16 18  1  0
 18 19  1  0
 19 20  1  0
 20 21  2  0
 20 22  1  0
 22 23  2  0
 23 24  1  0
 24 25  1  0
 25 26  1  0
 26 27  2  0
 27 28  1  0
 28 29  2  0
 29 30  1  0
 30 31  2  0
 24 32  1  0
 32 33  2  0
 33 34  1  0
 18 35  2  0
  8  3  1  0
 35 13  1  0
 33 22  1  0
 31 26  1  0
  1 36  1  0
  1 37  1  0
  1 38  1  0
  4 39  1  0
  5 40  1  0
  6 41  1  0
  7 42  1  0
 14 43  1  0
 15 44  1  0
 19 45  1  0
 23 46  1  0
 25 47  1  0
 25 48  1  0
 27 49  1  0
 28 50  1  0
 29 51  1  0
 30 52  1  0
 31 53  1  0
 34 54  1  0
 34 55  1  0
 34 56  1  0
 35 57  1  0
M  CHG  2   9  -1  17  -1
M  END
>  <UniqueID>  (27) 
26

>  <SMILES>  (27) 
COc1ccccc1[N-]S(=O)(=O)c1ccc([O-])c(NC(=O)c2cn(Cc3ccccc3)nc2C)c1

>  <Energy>  (27) 
98.58540152366027

>  <Genealogy>  (27) 
COc1ccccc1[N-]S(=O)(=O)c1ccc([O-])c(NC(=O)c2cn(Cc3ccccc3)nc2C)c1 (protonated)
COc1ccccc1[N-]S(=O)(=O)c1ccc([O-])c(NC(=O)c2cn(Cc3ccccc3)nc2C)c1 (3D coordinates assigned)
COc1ccccc1[N-]S(=O)(=O)c1ccc([O-])c(NC(=O)c2cn(Cc3ccccc3)nc2C)c1 (optimized conformer: 98.58540152366027 kcal/mol)

>  <smiles>  (27) 
COc1ccccc1NS(=O)(=O)c1ccc(O)c(NC(=O)c2cn(Cc3ccccc3)nc2C)c1

>  <score_type>  (27) 
oracle

>  <origin>  (27) 
adgpu

>  <m_score__min__energy>  (27) 
-12.75

>  <m_primary>  (27) 
energy

$$$$
27:0
     RDKit          3D

 59 62  0  0  0  0  0  0  0  0999 V2000
   -3.6500   25.1110  -30.0210 N   0  0  0  0  0  0  0  0  0  0  0  0
   -4.7930   24.3450  -30.4220 C   0  0  0  0  0  0  0  0  0  0  0  0
   -6.0420   24.9790  -30.5110 C   0  0  0  0  0  0  0  0  0  0  0  0
   -7.1840   24.2550  -30.8510 C   0  0  0  0  0  0  0  0  0  0  0  0
   -7.0970   22.8830  -31.1120 C   0  0  0  0  0  0  0  0  0  0  0  0
   -8.5450   21.9620  -31.5260 S   0  0  0  0  0  0  0  0  0  0  0  0
   -9.5570   22.8850  -32.1460 O   0  0  0  0  0  0  0  0  0  0  0  0
   -9.1460   21.3960  -30.2690 O   0  0  0  0  0  0  0  0  0  0  0  0
   -8.1940   20.6560  -32.6390 N   0  0  0  0  0  0  0  0  0  0  0  0
   -9.3410   19.7520  -32.7710 C   0  0  0  0  0  0  0  0  0  0  0  0
   -9.1090   18.5480  -31.8690 C   0  0  0  0  0  0  0  0  0  0  0  0
   -7.6470   18.6030  -31.4730 C   0  0  0  0  0  0  0  0  0  0  0  0
   -7.0780   19.8350  -32.1600 C   0  0  0  0  0  0  0  0  0  0  0  0
   -5.8530   22.2450  -31.0440 C   0  0  0  0  0  0  0  0  0  0  0  0
   -4.6950   22.9610  -30.6920 C   0  0  0  0  0  0  0  0  0  0  0  0
   -3.4230   22.2920  -30.6700 N   0  0  0  0  0  0  0  0  0  0  0  0
   -2.5900   22.2450  -29.4980 C   0  0  0  0  0  0  0  0  0  0  0  0
   -2.7620   23.0920  -28.5790 O   0  0  0  0  0  0  0  0  0  0  0  0
   -1.5090   21.2390  -29.3710 C   0  0  0  0  0  0  0  0  0  0  0  0
   -0.5930   21.0500  -30.4210 C   0  0  0  0  0  0  0  0  0  0  0  0
    0.4370   20.1120  -30.3040 C   0  0  0  0  0  0  0  0  0  0  0  0
    0.5710   19.3530  -29.1350 C   0  0  0  0  0  0  0  0  0  0  0  0
    1.8790   18.1860  -28.9600 S   0  0  0  0  0  0  0  0  0  0  0  0
    1.8710   17.2710  -30.1520 O   0  0  0  0  0  0  0  0  0  0  0  0
    3.2060   18.8960  -28.9050 O   0  0  0  0  0  0  0  0  0  0  0  0
    1.6400   17.2630  -27.4960 N   0  0  0  0  0  0  0  0  0  0  0  0
    2.8940   17.1610  -26.7150 C   0  0  0  0  0  0  0  0  0  0  0  0
    3.5250   15.7600  -26.8060 C   0  0  0  0  0  0  0  0  0  0  0  0
    2.6570   14.7290  -26.3590 O   0  0  0  0  0  0  0  0  0  0  0  0
    1.2880   14.9540  -26.6740 C   0  0  0  0  0  0  0  0  0  0  0  0
    1.0580   15.9480  -27.8250 C   0  0  0  0  0  0  0  0  0  0  0  0
   -0.3280   19.5460  -28.0800 C   0  0  0  0  0  0  0  0  0  0  0  0
   -1.3600   20.4820  -28.1940 C   0  0  0  0  0  0  0  0  0  0  0  0
   -3.3540   25.1850  -29.0240 H   0  0  0  0  0  0  0  0  0  0  0  0
   -3.1170   25.6740  -30.7210 H   0  0  0  0  0  0  0  0  0  0  0  0
   -6.1207   26.0577  -30.3105 H   0  0  0  0  0  0  0  0  0  0  0  0
   -8.1570   24.7642  -30.9143 H   0  0  0  0  0  0  0  0  0  0  0  0
  -10.2612   20.2723  -32.4670 H   0  0  0  0  0  0  0  0  0  0  0  0
   -9.4479   19.4266  -33.8163 H   0  0  0  0  0  0  0  0  0  0  0  0
   -9.7498   18.6087  -30.9770 H   0  0  0  0  0  0  0  0  0  0  0  0
   -9.3541   17.6058  -32.3811 H   0  0  0  0  0  0  0  0  0  0  0  0
   -7.5490   18.6936  -30.3811 H   0  0  0  0  0  0  0  0  0  0  0  0
   -7.1119   17.6894  -31.7715 H   0  0  0  0  0  0  0  0  0  0  0  0
   -6.4724   20.4120  -31.4457 H   0  0  0  0  0  0  0  0  0  0  0  0
   -6.4401   19.5354  -33.0046 H   0  0  0  0  0  0  0  0  0  0  0  0
   -5.7803   21.1706  -31.2686 H   0  0  0  0  0  0  0  0  0  0  0  0
   -3.0730   21.8550  -31.5510 H   0  0  0  0  0  0  0  0  0  0  0  0
   -0.6876   21.6448  -31.3415 H   0  0  0  0  0  0  0  0  0  0  0  0
    1.1451   19.9696  -31.1337 H   0  0  0  0  0  0  0  0  0  0  0  0
    3.6127   17.8987  -27.1014 H   0  0  0  0  0  0  0  0  0  0  0  0
    2.6504   17.3531  -25.6596 H   0  0  0  0  0  0  0  0  0  0  0  0
    3.7914   15.5633  -27.8550 H   0  0  0  0  0  0  0  0  0  0  0  0
    4.4075   15.7540  -26.1494 H   0  0  0  0  0  0  0  0  0  0  0  0
    0.8365   13.9911  -26.9551 H   0  0  0  0  0  0  0  0  0  0  0  0
    0.8277   15.3971  -25.7786 H   0  0  0  0  0  0  0  0  0  0  0  0
    1.5327   15.5603  -28.7384 H   0  0  0  0  0  0  0  0  0  0  0  0
   -0.0243   16.0670  -27.9814 H   0  0  0  0  0  0  0  0  0  0  0  0
   -0.2220   18.9582  -27.1563 H   0  0  0  0  0  0  0  0  0  0  0  0
   -2.0602   20.6278  -27.3583 H   0  0  0  0  0  0  0  0  0  0  0  0
  1  2  1  0
  2  3  2  0
  3  4  1  0
  4  5  2  0
  5  6  1  0
  6  7  2  0
  6  8  2  0
  6  9  1  0
  9 10  1  0
 10 11  1  0
 11 12  1  0
 12 13  1  0
  5 14  1  0
 14 15  2  0
 15 16  1  0
 16 17  1  0
 17 18  2  0
 17 19  1  0
 19 20  2  0
 20 21  1  0
 21 22  2  0
 22 23  1  0
 23 24  2  0
 23 25  2  0
 23 26  1  0
 26 27  1  0
 27 28  1  0
 28 29  1  0
 29 30  1  0
 30 31  1  0
 22 32  1  0
 32 33  2  0
 15  2  1  0
 33 19  1  0
 13  9  1  0
 31 26  1  0
  1 34  1  0
  1 35  1  0
  3 36  1  0
  4 37  1  0
 10 38  1  0
 10 39  1  0
 11 40  1  0
 11 41  1  0
 12 42  1  0
 12 43  1  0
 13 44  1  0
 13 45  1  0
 14 46  1  0
 16 47  1  0
 20 48  1  0
 21 49  1  0
 27 50  1  0
 27 51  1  0
 28 52  1  0
 28 53  1  0
 30 54  1  0
 30 55  1  0
 31 56  1  0
 31 57  1  0
 32 58  1  0
 33 59  1  0
M  END
>  <UniqueID>  (28) 
27

>  <SMILES>  (28) 
Nc1ccc(S(=O)(=O)N2CCCC2)cc1NC(=O)c1ccc(S(=O)(=O)N2CCOCC2)cc1

>  <Energy>  (28) 
79.53285744334961

>  <Genealogy>  (28) 
Nc1ccc(S(=O)(=O)N2CCCC2)cc1NC(=O)c1ccc(S(=O)(=O)N2CCOCC2)cc1 (3D coordinates assigned)
Nc1ccc(S(=O)(=O)N2CCCC2)cc1NC(=O)c1ccc(S(=O)(=O)N2CCOCC2)cc1 (nonaromatic ring conformer: 79.53285744334961 kcal/mol)

>  <smiles>  (28) 
Nc1ccc(S(=O)(=O)N2CCCC2)cc1NC(=O)c1ccc(S(=O)(=O)N2CCOCC2)cc1

>  <score_type>  (28) 
oracle

>  <origin>  (28) 
adgpu

>  <m_score__min__energy>  (28) 
-9.8399999999999999

>  <m_primary>  (28) 
energy

$$$$
28:0
     RDKit          3D

 49 52  0  0  0  0  0  0  0  0999 V2000
   -5.7020   23.3530  -31.5320 N   0  0  0  0  0  0  0  0  0  0  0  0
   -6.8840   22.9680  -32.2400 C   0  0  0  0  0  0  0  0  0  0  0  0
   -7.5280   23.8500  -32.8760 O   0  0  0  0  0  0  0  0  0  0  0  0
   -7.3240   21.5490  -32.3010 C   0  0  0  0  0  0  0  0  0  0  0  0
   -6.5440   20.6150  -33.0090 C   0  0  0  0  0  0  0  0  0  0  0  0
   -6.9000   19.2590  -33.0490 C   0  0  0  0  0  0  0  0  0  0  0  0
   -5.9200   18.1260  -33.9770 S   0  0  0  0  0  0  0  0  0  0  0  0
   -6.4880   16.7430  -33.8100 O   0  0  0  0  0  0  0  0  0  0  0  0
   -5.9480   18.4570  -35.4430 O   0  0  0  0  0  0  0  0  0  0  0  0
   -4.2910   18.1340  -33.3720 N   0  0  0  0  0  0  0  0  0  0  0  0
   -3.6000   19.2310  -32.7470 C   0  0  0  0  0  0  0  0  0  0  0  0
   -4.1320   19.8850  -31.6220 C   0  0  0  0  0  0  0  0  0  0  0  0
   -3.4800   20.9780  -31.0560 C   0  0  0  0  0  0  0  0  0  0  0  0
   -2.2870   21.4610  -31.6020 C   0  0  0  0  0  0  0  0  0  0  0  0
   -1.7440   22.6720  -31.0520 N   0  0  0  0  0  0  0  0  0  0  0  0
   -2.4110   23.5570  -30.1370 C   0  0  0  0  0  0  0  0  0  0  0  0
   -3.4570   24.1470  -30.5260 O   0  0  0  0  0  0  0  0  0  0  0  0
   -1.9070   23.8010  -28.7620 C   0  0  0  0  0  0  0  0  0  0  0  0
   -1.9780   22.7860  -27.7870 C   0  0  0  0  0  0  0  0  0  0  0  0
   -1.5310   23.0220  -26.4830 C   0  0  0  0  0  0  0  0  0  0  0  0
   -0.9950   24.2650  -26.1430 C   0  0  0  0  0  0  0  0  0  0  0  0
   -0.8980   25.2740  -27.1070 C   0  0  0  0  0  0  0  0  0  0  0  0
   -1.3490   25.0490  -28.4120 C   0  0  0  0  0  0  0  0  0  0  0  0
   -1.2500   26.0740  -29.3510 O   0  0  0  0  0  0  0  0  0  0  0  0
   -1.6800   20.7680  -32.6790 C   0  0  0  0  0  0  0  0  0  0  0  0
   -0.4050   21.1260  -33.1610 C   0  0  0  0  0  0  0  0  0  0  0  0
    0.1650   20.4480  -34.2420 C   0  0  0  0  0  0  0  0  0  0  0  0
   -0.5120   19.3870  -34.8390 C   0  0  0  0  0  0  0  0  0  0  0  0
   -1.7600   18.9880  -34.3550 C   0  0  0  0  0  0  0  0  0  0  0  0
   -2.3570   19.6610  -33.2690 C   0  0  0  0  0  0  0  0  0  0  0  0
   -8.0470   18.8270  -32.3720 C   0  0  0  0  0  0  0  0  0  0  0  0
   -8.8550   19.7500  -31.6850 C   0  0  0  0  0  0  0  0  0  0  0  0
   -8.5070   21.1060  -31.6620 C   0  0  0  0  0  0  0  0  0  0  0  0
   -9.3470   21.9800  -31.0600 F   0  0  0  0  0  0  0  0  0  0  0  0
   -5.0200   22.6440  -31.1900 H   0  0  0  0  0  0  0  0  0  0  0  0
   -5.4340   24.3610  -31.4710 H   0  0  0  0  0  0  0  0  0  0  0  0
   -5.6416   20.9539  -33.5389 H   0  0  0  0  0  0  0  0  0  0  0  0
   -5.0756   19.5289  -31.1829 H   0  0  0  0  0  0  0  0  0  0  0  0
   -3.9088   21.4670  -30.1689 H   0  0  0  0  0  0  0  0  0  0  0  0
   -2.3881   21.8007  -28.0536 H   0  0  0  0  0  0  0  0  0  0  0  0
   -1.6019   22.2278  -25.7252 H   0  0  0  0  0  0  0  0  0  0  0  0
   -0.6484   24.4514  -25.1158 H   0  0  0  0  0  0  0  0  0  0  0  0
   -0.4652   26.2487  -26.8377 H   0  0  0  0  0  0  0  0  0  0  0  0
    0.1473   21.9476  -32.6814 H   0  0  0  0  0  0  0  0  0  0  0  0
    1.1510   20.7530  -34.6225 H   0  0  0  0  0  0  0  0  0  0  0  0
   -0.0623   18.8617  -35.6944 H   0  0  0  0  0  0  0  0  0  0  0  0
   -2.2818   18.1414  -34.8251 H   0  0  0  0  0  0  0  0  0  0  0  0
   -8.3171   17.7607  -32.3777 H   0  0  0  0  0  0  0  0  0  0  0  0
   -9.7615   19.4065  -31.1651 H   0  0  0  0  0  0  0  0  0  0  0  0
  1  2  1  0
  2  3  2  0
  2  4  1  0
  4  5  2  0
  5  6  1  0
  6  7  1  0
  7  8  2  0
  7  9  2  0
  7 10  1  0
 10 11  1  0
 11 12  2  0
 12 13  1  0
 13 14  2  0
 14 15  1  0
 15 16  1  0
 16 17  2  0
 16 18  1  0
 18 19  2  0
 19 20  1  0
 20 21  2  0
 21 22  1  0
 22 23  2  0
 23 24  1  0
 14 25  1  0
 25 26  2  0
 26 27  1  0
 27 28  2  0
 28 29  1  0
 29 30  2  0
  6 31  2  0
 31 32  1  0
 32 33  2  0
 33 34  1  0
 33  4  1  0
 30 11  1  0
 23 18  1  0
 30 25  1  0
  1 35  1  0
  1 36  1  0
  5 37  1  0
 12 38  1  0
 13 39  1  0
 19 40  1  0
 20 41  1  0
 21 42  1  0
 22 43  1  0
 26 44  1  0
 27 45  1  0
 28 46  1  0
 29 47  1  0
 31 48  1  0
 32 49  1  0
M  CHG  3  10  -1  15  -1  24  -1
M  END
>  <UniqueID>  (29) 
28

>  <SMILES>  (29) 
NC(=O)c1cc(S(=O)(=O)[N-]c2ccc([N-]C(=O)c3ccccc3[O-])c3ccccc23)ccc1F

>  <Energy>  (29) 
78.35114117756315

>  <Genealogy>  (29) 
NC(=O)c1cc(S(=O)(=O)[N-]c2ccc([N-]C(=O)c3ccccc3[O-])c3ccccc23)ccc1F (protonated)
NC(=O)c1cc(S(=O)(=O)[N-]c2ccc([N-]C(=O)c3ccccc3[O-])c3ccccc23)ccc1F (3D coordinates assigned)
NC(=O)c1cc(S(=O)(=O)[N-]c2ccc([N-]C(=O)c3ccccc3[O-])c3ccccc23)ccc1F (optimized conformer: 78.35114117756315 kcal/mol)

>  <smiles>  (29) 
NC(=O)c1cc(S(=O)(=O)Nc2ccc(NC(=O)c3ccccc3O)c3ccccc23)ccc1F

>  <score_type>  (29) 
oracle

>  <origin>  (29) 
adgpu

>  <m_score__min__energy>  (29) 
-14.59

>  <m_primary>  (29) 
energy

$$$$
29:0
     RDKit          3D

 47 49  0  0  0  0  0  0  0  0999 V2000
   -8.7900   18.5260  -31.6450 C   0  0  0  0  0  0  0  0  0  0  0  0
   -7.7510   18.8500  -32.7090 C   0  0  0  0  0  0  0  0  0  0  0  0
   -7.8380   20.2230  -33.0990 O   0  0  0  0  0  0  0  0  0  0  0  0
   -7.2490   21.3080  -32.4270 C   0  0  0  0  0  0  0  0  0  0  0  0
   -5.8880   21.5620  -32.6450 C   0  0  0  0  0  0  0  0  0  0  0  0
   -5.2510   22.6320  -32.0110 C   0  0  0  0  0  0  0  0  0  0  0  0
   -5.9770   23.4760  -31.1620 C   0  0  0  0  0  0  0  0  0  0  0  0
   -5.2140   24.8780  -30.4140 S   0  0  0  0  0  0  0  0  0  0  0  0
   -5.6010   26.1080  -31.1820 O   0  0  0  0  0  0  0  0  0  0  0  0
   -5.6620   25.0420  -28.9880 O   0  0  0  0  0  0  0  0  0  0  0  0
   -3.4940   24.6910  -30.4750 N   0  0  0  0  0  0  0  0  0  0  0  0
   -2.7440   23.8870  -29.5590 C   0  0  0  0  0  0  0  0  0  0  0  0
   -1.7610   24.3370  -28.7010 C   0  0  0  0  0  0  0  0  0  0  0  0
   -1.2730   25.7520  -28.5830 C   0  0  0  0  0  0  0  0  0  0  0  0
   -1.2250   23.2660  -28.0630 N   0  0  0  0  0  0  0  0  0  0  0  0
   -0.0980   23.3110  -27.1360 C   0  0  0  0  0  0  0  0  0  0  0  0
   -1.8650   22.1660  -28.4510 N   0  0  0  0  0  0  0  0  0  0  0  0
   -1.6400   20.8320  -27.9600 C   0  0  0  0  0  0  0  0  0  0  0  0
   -0.4800   20.1300  -28.3250 C   0  0  0  0  0  0  0  0  0  0  0  0
   -0.2740   18.8200  -27.8750 C   0  0  0  0  0  0  0  0  0  0  0  0
   -1.2280   18.2000  -27.0660 C   0  0  0  0  0  0  0  0  0  0  0  0
   -2.3890   18.8890  -26.7080 C   0  0  0  0  0  0  0  0  0  0  0  0
   -2.5980   20.1960  -27.1570 C   0  0  0  0  0  0  0  0  0  0  0  0
   -2.7860   22.5210  -29.3660 C   0  0  0  0  0  0  0  0  0  0  0  0
   -3.5880   21.7170  -29.9080 O   0  0  0  0  0  0  0  0  0  0  0  0
   -7.3390   23.2300  -30.9410 C   0  0  0  0  0  0  0  0  0  0  0  0
   -7.9730   22.1510  -31.5620 C   0  0  0  0  0  0  0  0  0  0  0  0
   -8.3482   18.6638  -30.6471 H   0  0  0  0  0  0  0  0  0  0  0  0
   -9.6537   19.1975  -31.7595 H   0  0  0  0  0  0  0  0  0  0  0  0
   -9.1190   17.4826  -31.7595 H   0  0  0  0  0  0  0  0  0  0  0  0
   -6.7470   18.6522  -32.3054 H   0  0  0  0  0  0  0  0  0  0  0  0
   -7.9390   18.2194  -33.5905 H   0  0  0  0  0  0  0  0  0  0  0  0
   -5.3150   20.9119  -33.3226 H   0  0  0  0  0  0  0  0  0  0  0  0
   -4.1788   22.8113  -32.1790 H   0  0  0  0  0  0  0  0  0  0  0  0
   -1.1804   26.0205  -27.5203 H   0  0  0  0  0  0  0  0  0  0  0  0
   -0.2915   25.8433  -29.0711 H   0  0  0  0  0  0  0  0  0  0  0  0
   -1.9896   26.4289  -29.0711 H   0  0  0  0  0  0  0  0  0  0  0  0
   -0.4729   23.2960  -26.1020 H   0  0  0  0  0  0  0  0  0  0  0  0
    0.5499   22.4380  -27.3038 H   0  0  0  0  0  0  0  0  0  0  0  0
    0.4782   24.2329  -27.3038 H   0  0  0  0  0  0  0  0  0  0  0  0
    0.2712   20.6118  -28.9681 H   0  0  0  0  0  0  0  0  0  0  0  0
    0.6405   18.2789  -28.1593 H   0  0  0  0  0  0  0  0  0  0  0  0
   -1.0657   17.1714  -26.7114 H   0  0  0  0  0  0  0  0  0  0  0  0
   -3.1413   18.4014  -26.0706 H   0  0  0  0  0  0  0  0  0  0  0  0
   -3.5192   20.7289  -26.8789 H   0  0  0  0  0  0  0  0  0  0  0  0
   -7.9125   23.8908  -30.2743 H   0  0  0  0  0  0  0  0  0  0  0  0
   -9.0399   21.9595  -31.3749 H   0  0  0  0  0  0  0  0  0  0  0  0
  1  2  1  0
  2  3  1  0
  3  4  1  0
  4  5  2  0
  5  6  1  0
  6  7  2  0
  7  8  1  0
  8  9  2  0
  8 10  2  0
  8 11  1  0
 11 12  1  0
 12 13  2  0
 13 14  1  0
 13 15  1  0
 15 16  1  0
 15 17  1  0
 17 18  1  0
 18 19  2  0
 19 20  1  0
 20 21  2  0
 21 22  1  0
 22 23  2  0
 17 24  1  0
 24 25  2  0
  7 26  1  0
 26 27  2  0
 27  4  1  0
 24 12  1  0
 23 18  1  0
  1 28  1  0
  1 29  1  0
  1 30  1  0
  2 31  1  0
  2 32  1  0
  5 33  1  0
  6 34  1  0
 14 35  1  0
 14 36  1  0
 14 37  1  0
 16 38  1  0
 16 39  1  0
 16 40  1  0
 19 41  1  0
 20 42  1  0
 21 43  1  0
 22 44  1  0
 23 45  1  0
 26 46  1  0
 27 47  1  0
M  CHG  1  11  -1
M  END
>  <UniqueID>  (30) 
29

>  <SMILES>  (30) 
CCOc1ccc(S(=O)(=O)[N-]c2c(C)n(C)n(-c3ccccc3)c2=O)cc1

>  <Energy>  (30) 
91.58392904100484

>  <Genealogy>  (30) 
CCOc1ccc(S(=O)(=O)[N-]c2c(C)n(C)n(-c3ccccc3)c2=O)cc1 (protonated)
CCOc1ccc(S(=O)(=O)[N-]c2c(C)n(C)n(-c3ccccc3)c2=O)cc1 (3D coordinates assigned)
CCOc1ccc(S(=O)(=O)[N-]c2c(C)n(C)n(-c3ccccc3)c2=O)cc1 (optimized conformer: 91.58392904100484 kcal/mol)

>  <smiles>  (30) 
CCOc1ccc(S(=O)(=O)Nc2c(C)n(C)n(-c3ccccc3)c2=O)cc1

>  <score_type>  (30) 
oracle

>  <origin>  (30) 
adgpu

>  <m_score__min__energy>  (30) 
-9.8599999999999994

>  <m_primary>  (30) 
energy

$$$$
30:0
     RDKit          3D

 39 40  0  0  0  0  0  0  0  0999 V2000
   -0.5360   20.1270  -29.2400 C   0  0  0  0  0  0  0  0  0  0  0  0
   -1.2610   21.3900  -29.6030 C   0  0  0  0  0  0  0  0  0  0  0  0
   -2.1810   21.3940  -30.6600 C   0  0  0  0  0  0  0  0  0  0  0  0
   -2.8980   22.5530  -30.9660 C   0  0  0  0  0  0  0  0  0  0  0  0
   -2.7440   23.7110  -30.1840 C   0  0  0  0  0  0  0  0  0  0  0  0
   -3.4950   24.9030  -30.4570 N   0  0  0  0  0  0  0  0  0  0  0  0
   -4.9230   25.0440  -30.5300 C   0  0  0  0  0  0  0  0  0  0  0  0
   -5.4150   26.2020  -30.4790 O   0  0  0  0  0  0  0  0  0  0  0  0
   -5.8600   23.8670  -30.5560 C   0  0  0  0  0  0  0  0  0  0  0  0
   -6.8570   23.8460  -32.0830 S   0  0  0  0  0  0  0  0  0  0  0  0
   -6.7300   22.0760  -32.3220 C   0  0  0  0  0  0  0  0  0  0  0  0
   -5.5550   21.5320  -32.7200 N   0  0  0  0  0  0  0  0  0  0  0  0
   -5.4170   20.1920  -32.9010 C   0  0  0  0  0  0  0  0  0  0  0  0
   -4.0640   19.6660  -33.2840 C   0  0  0  0  0  0  0  0  0  0  0  0
   -6.5370   19.3440  -32.7250 C   0  0  0  0  0  0  0  0  0  0  0  0
   -6.4380   17.8510  -32.9340 C   0  0  0  0  0  0  0  0  0  0  0  0
   -7.7410   19.9350  -32.2770 C   0  0  0  0  0  0  0  0  0  0  0  0
   -8.9810   19.1280  -32.0230 C   0  0  0  0  0  0  0  0  0  0  0  0
   -7.8000   21.2790  -32.0880 N   0  0  0  0  0  0  0  0  0  0  0  0
   -1.7760   23.7240  -29.1660 C   0  0  0  0  0  0  0  0  0  0  0  0
   -1.3920   25.3260  -28.1920 Br  0  0  0  0  0  0  0  0  0  0  0  0
   -1.0600   22.5620  -28.8600 C   0  0  0  0  0  0  0  0  0  0  0  0
   -0.4838   20.0360  -28.1450 H   0  0  0  0  0  0  0  0  0  0  0  0
   -1.0754   19.2625  -29.6545 H   0  0  0  0  0  0  0  0  0  0  0  0
    0.4825   20.1568  -29.6545 H   0  0  0  0  0  0  0  0  0  0  0  0
   -2.3393   20.4802  -31.2515 H   0  0  0  0  0  0  0  0  0  0  0  0
   -3.5869   22.5597  -31.8235 H   0  0  0  0  0  0  0  0  0  0  0  0
   -5.2715   22.9394  -30.4997 H   0  0  0  0  0  0  0  0  0  0  0  0
   -6.5426   23.9481  -29.6972 H   0  0  0  0  0  0  0  0  0  0  0  0
   -3.4870   19.4417  -32.3748 H   0  0  0  0  0  0  0  0  0  0  0  0
   -4.1823   18.7484  -33.8789 H   0  0  0  0  0  0  0  0  0  0  0  0
   -3.5314   20.4226  -33.8789 H   0  0  0  0  0  0  0  0  0  0  0  0
   -6.4045   17.3455  -31.9576 H   0  0  0  0  0  0  0  0  0  0  0  0
   -7.3149   17.5008  -33.4983 H   0  0  0  0  0  0  0  0  0  0  0  0
   -5.5225   17.6197  -33.4983 H   0  0  0  0  0  0  0  0  0  0  0  0
   -9.1368   19.0266  -30.9388 H   0  0  0  0  0  0  0  0  0  0  0  0
   -9.8473   19.6358  -32.4720 H   0  0  0  0  0  0  0  0  0  0  0  0
   -8.8675   18.1303  -32.4720 H   0  0  0  0  0  0  0  0  0  0  0  0
   -0.3356   22.5677  -28.0323 H   0  0  0  0  0  0  0  0  0  0  0  0
  1  2  1  0
  2  3  2  0
  3  4  1  0
  4  5  2  0
  5  6  1  0
  6  7  1  0
  7  8  2  0
  7  9  1  0
  9 10  1  0
 10 11  1  0
 11 12  2  0
 12 13  1  0
 13 14  1  0
 13 15  2  0
 15 16  1  0
 15 17  1  0
 17 18  1  0
 17 19  2  0
  5 20  1  0
 20 21  1  0
 20 22  2  0
 22  2  1  0
 19 11  1  0
  1 23  1  0
  1 24  1  0
  1 25  1  0
  3 26  1  0
  4 27  1  0
  9 28  1  0
  9 29  1  0
 14 30  1  0
 14 31  1  0
 14 32  1  0
 16 33  1  0
 16 34  1  0
 16 35  1  0
 18 36  1  0
 18 37  1  0
 18 38  1  0
 22 39  1  0
M  CHG  1   6  -1
M  END
>  <UniqueID>  (31) 
30

>  <SMILES>  (31) 
Cc1ccc([N-]C(=O)CSc2nc(C)c(C)c(C)n2)c(Br)c1

>  <Energy>  (31) 
37.35700610355277

>  <Genealogy>  (31) 
Cc1ccc([N-]C(=O)CSc2nc(C)c(C)c(C)n2)c(Br)c1 (protonated)
Cc1ccc([N-]C(=O)CSc2nc(C)c(C)c(C)n2)c(Br)c1 (3D coordinates assigned)
Cc1ccc([N-]C(=O)CSc2nc(C)c(C)c(C)n2)c(Br)c1 (optimized conformer: 37.35700610355277 kcal/mol)

>  <smiles>  (31) 
Cc1ccc(NC(=O)CSc2nc(C)c(C)c(C)n2)c(Br)c1

>  <score_type>  (31) 
oracle

>  <origin>  (31) 
adgpu

>  <m_score__min__energy>  (31) 
-10.35

>  <m_primary>  (31) 
energy

$$$$
31:0
     RDKit          3D

 45 47  0  0  0  0  0  0  0  0999 V2000
   -3.3960   23.9840  -28.7390 C   0  0  0  0  0  0  0  0  0  0  0  0
   -4.6020   22.6800  -29.1450 S   0  0  0  0  0  0  0  0  0  0  0  0
   -3.7860   22.2030  -30.6770 C   0  0  0  0  0  0  0  0  0  0  0  0
   -2.3910   22.0540  -30.6910 C   0  0  0  0  0  0  0  0  0  0  0  0
   -1.7320   21.7150  -31.8750 C   0  0  0  0  0  0  0  0  0  0  0  0
   -2.4570   21.5440  -33.0560 C   0  0  0  0  0  0  0  0  0  0  0  0
   -3.8420   21.7150  -33.0570 C   0  0  0  0  0  0  0  0  0  0  0  0
   -4.5180   22.0320  -31.8700 C   0  0  0  0  0  0  0  0  0  0  0  0
   -5.9320   22.2860  -31.9120 N   0  0  0  0  0  0  0  0  0  0  0  0
   -6.5230   23.4600  -31.5950 C   0  0  0  0  0  0  0  0  0  0  0  0
   -5.7890   24.6990  -31.1860 C   0  0  0  0  0  0  0  0  0  0  0  0
   -7.8980   23.3240  -31.6200 C   0  0  0  0  0  0  0  0  0  0  0  0
   -8.1560   22.0140  -31.9710 C   0  0  0  0  0  0  0  0  0  0  0  0
   -6.9270   21.3990  -32.1500 C   0  0  0  0  0  0  0  0  0  0  0  0
   -6.7480   19.9760  -32.5150 C   0  0  0  0  0  0  0  0  0  0  0  0
   -7.0710   18.9710  -31.5930 C   0  0  0  0  0  0  0  0  0  0  0  0
   -6.8850   17.6240  -31.9170 C   0  0  0  0  0  0  0  0  0  0  0  0
   -6.3830   17.2470  -33.1790 C   0  0  0  0  0  0  0  0  0  0  0  0
   -6.1810   15.8490  -33.5140 N   0  0  0  0  0  0  0  0  0  0  0  0
   -7.1970   15.1110  -34.2750 C   0  0  0  0  0  0  0  0  0  0  0  0
   -4.9630   15.1490  -33.0920 C   0  0  0  0  0  0  0  0  0  0  0  0
   -6.0850   18.2660  -34.1080 C   0  0  0  0  0  0  0  0  0  0  0  0
   -6.2700   19.6110  -33.7800 C   0  0  0  0  0  0  0  0  0  0  0  0
   -3.3102   24.0768  -27.6463 H   0  0  0  0  0  0  0  0  0  0  0  0
   -2.4155   23.7214  -29.1628 H   0  0  0  0  0  0  0  0  0  0  0  0
   -3.7342   24.9411  -29.1628 H   0  0  0  0  0  0  0  0  0  0  0  0
   -1.8143   22.2047  -29.7665 H   0  0  0  0  0  0  0  0  0  0  0  0
   -0.6400   21.5825  -31.8770 H   0  0  0  0  0  0  0  0  0  0  0  0
   -1.9360   21.2743  -33.9865 H   0  0  0  0  0  0  0  0  0  0  0  0
   -4.4066   21.6005  -33.9941 H   0  0  0  0  0  0  0  0  0  0  0  0
   -5.7536   24.7587  -30.0882 H   0  0  0  0  0  0  0  0  0  0  0  0
   -4.7643   24.6666  -31.5846 H   0  0  0  0  0  0  0  0  0  0  0  0
   -6.3097   25.5821  -31.5846 H   0  0  0  0  0  0  0  0  0  0  0  0
   -8.6408   24.1058  -31.4029 H   0  0  0  0  0  0  0  0  0  0  0  0
   -9.1459   21.5483  -32.0863 H   0  0  0  0  0  0  0  0  0  0  0  0
   -7.4740   19.2444  -30.6067 H   0  0  0  0  0  0  0  0  0  0  0  0
   -7.1336   16.8484  -31.1777 H   0  0  0  0  0  0  0  0  0  0  0  0
   -7.8856   14.6108  -33.5781 H   0  0  0  0  0  0  0  0  0  0  0  0
   -7.7611   15.8113  -34.9085 H   0  0  0  0  0  0  0  0  0  0  0  0
   -6.7054   14.3580  -34.9085 H   0  0  0  0  0  0  0  0  0  0  0  0
   -4.9172   15.1227  -31.9933 H   0  0  0  0  0  0  0  0  0  0  0  0
   -4.9767   14.1210  -33.4831 H   0  0  0  0  0  0  0  0  0  0  0  0
   -4.0817   15.6784  -33.4831 H   0  0  0  0  0  0  0  0  0  0  0  0
   -5.7020   17.9978  -35.1037 H   0  0  0  0  0  0  0  0  0  0  0  0
   -6.0384   20.3901  -34.5212 H   0  0  0  0  0  0  0  0  0  0  0  0
  1  2  1  0
  2  3  1  0
  3  4  2  0
  4  5  1  0
  5  6  2  0
  6  7  1  0
  7  8  2  0
  8  9  1  0
  9 10  1  0
 10 11  1  0
 10 12  2  0
 12 13  1  0
 13 14  2  0
 14 15  1  0
 15 16  2  0
 16 17  1  0
 17 18  2  0
 18 19  1  0
 19 20  1  0
 19 21  1  0
 18 22  1  0
 22 23  2  0
  8  3  1  0
 14  9  1  0
 23 15  1  0
  1 24  1  0
  1 25  1  0
  1 26  1  0
  4 27  1  0
  5 28  1  0
  6 29  1  0
  7 30  1  0
 11 31  1  0
 11 32  1  0
 11 33  1  0
 12 34  1  0
 13 35  1  0
 16 36  1  0
 17 37  1  0
 20 38  1  0
 20 39  1  0
 20 40  1  0
 21 41  1  0
 21 42  1  0
 21 43  1  0
 22 44  1  0
 23 45  1  0
M  END
>  <UniqueID>  (32) 
31

>  <SMILES>  (32) 
CSc1ccccc1-n1c(C)ccc1-c1ccc(N(C)C)cc1

>  <Energy>  (32) 
80.07752154701345

>  <Genealogy>  (32) 
CSc1ccccc1-n1c(C)ccc1-c1ccc(N(C)C)cc1 (3D coordinates assigned)
CSc1ccccc1-n1c(C)ccc1-c1ccc(N(C)C)cc1 (optimized conformer: 80.07752154701345 kcal/mol)

>  <smiles>  (32) 
CSc1ccccc1-n1c(C)ccc1-c1ccc(N(C)C)cc1

>  <score_type>  (32) 
oracle

>  <origin>  (32) 
adgpu

>  <m_score__min__energy>  (32) 
-7.7699999999999996

>  <m_primary>  (32) 
energy

$$$$
32:0
     RDKit          3D

 42 44  0  0  0  0  0  0  0  0999 V2000
   -1.8370   16.7690  -34.4050 C   0  0  0  0  0  0  0  0  0  0  0  0
   -1.3700   18.1150  -34.4290 O   0  0  0  0  0  0  0  0  0  0  0  0
   -2.0060   19.1830  -33.7800 C   0  0  0  0  0  0  0  0  0  0  0  0
   -3.2180   19.0300  -33.0830 C   0  0  0  0  0  0  0  0  0  0  0  0
   -3.8130   20.1270  -32.4530 C   0  0  0  0  0  0  0  0  0  0  0  0
   -3.2150   21.3980  -32.5130 C   0  0  0  0  0  0  0  0  0  0  0  0
   -3.8430   22.5590  -31.8410 C   0  0  0  0  0  0  0  0  0  0  0  0
   -3.1200   23.4080  -31.2530 O   0  0  0  0  0  0  0  0  0  0  0  0
   -5.2660   22.7440  -31.8960 N   0  0  0  0  0  0  0  0  0  0  0  0
   -6.0770   23.2060  -30.7940 C   0  0  0  0  0  0  0  0  0  0  0  0
   -5.3950   23.6390  -29.3630 S   0  0  0  0  0  0  0  0  0  0  0  0
   -7.5120   23.2100  -30.8870 N   0  0  0  0  0  0  0  0  0  0  0  0
   -8.2660   22.6780  -32.0230 C   0  0  0  0  0  0  0  0  0  0  0  0
   -8.2460   21.1690  -32.0410 C   0  0  0  0  0  0  0  0  0  0  0  0
   -9.1110   20.4440  -31.2070 C   0  0  0  0  0  0  0  0  0  0  0  0
   -9.0960   19.0500  -31.2180 C   0  0  0  0  0  0  0  0  0  0  0  0
   -8.2130   18.3630  -32.0540 C   0  0  0  0  0  0  0  0  0  0  0  0
   -7.3210   19.0660  -32.8840 C   0  0  0  0  0  0  0  0  0  0  0  0
   -6.4140   18.3420  -33.7400 N   0  0  0  0  0  0  0  0  0  0  0  0
   -5.9190   17.0980  -33.5930 C   0  0  0  0  0  0  0  0  0  0  0  0
   -5.0970   16.8110  -34.6200 N   0  0  0  0  0  0  0  0  0  0  0  0
   -5.1030   17.8920  -35.3860 N   0  0  0  0  0  0  0  0  0  0  0  0
   -5.8930   18.8150  -34.8600 N   0  0  0  0  0  0  0  0  0  0  0  0
   -7.3360   20.4740  -32.8590 C   0  0  0  0  0  0  0  0  0  0  0  0
   -1.9980   21.5430  -33.2010 C   0  0  0  0  0  0  0  0  0  0  0  0
   -1.4040   20.4450  -33.8310 C   0  0  0  0  0  0  0  0  0  0  0  0
   -1.9514   16.4391  -33.3619 H   0  0  0  0  0  0  0  0  0  0  0  0
   -2.8086   16.7088  -34.9173 H   0  0  0  0  0  0  0  0  0  0  0  0
   -1.1115   16.1200  -34.9173 H   0  0  0  0  0  0  0  0  0  0  0  0
   -3.7000   18.0425  -33.0334 H   0  0  0  0  0  0  0  0  0  0  0  0
   -4.7577   19.9945  -31.9053 H   0  0  0  0  0  0  0  0  0  0  0  0
   -5.7350   22.4670  -32.7840 H   0  0  0  0  0  0  0  0  0  0  0  0
   -8.0620   23.5850  -30.0800 H   0  0  0  0  0  0  0  0  0  0  0  0
   -9.3088   23.0210  -31.9522 H   0  0  0  0  0  0  0  0  0  0  0  0
   -7.7969   23.0409  -32.9494 H   0  0  0  0  0  0  0  0  0  0  0  0
   -9.8045   20.9784  -30.5411 H   0  0  0  0  0  0  0  0  0  0  0  0
   -9.7820   18.4893  -30.5660 H   0  0  0  0  0  0  0  0  0  0  0  0
   -8.2151   17.2630  -32.0635 H   0  0  0  0  0  0  0  0  0  0  0  0
   -6.1513   16.4188  -32.7595 H   0  0  0  0  0  0  0  0  0  0  0  0
   -6.6286   21.0367  -33.4858 H   0  0  0  0  0  0  0  0  0  0  0  0
   -1.5092   22.5275  -33.2442 H   0  0  0  0  0  0  0  0  0  0  0  0
   -0.4548   20.5746  -34.3716 H   0  0  0  0  0  0  0  0  0  0  0  0
  1  2  1  0
  2  3  1  0
  3  4  2  0
  4  5  1  0
  5  6  2  0
  6  7  1  0
  7  8  2  0
  7  9  1  0
  9 10  1  0
 10 11  2  0
 10 12  1  0
 12 13  1  0
 13 14  1  0
 14 15  2  0
 15 16  1  0
 16 17  2  0
 17 18  1  0
 18 19  1  0
 19 20  1  0
 20 21  2  0
 21 22  1  0
 22 23  2  0
 18 24  2  0
  6 25  1  0
 25 26  2  0
 26  3  1  0
 24 14  1  0
 23 19  1  0
  1 27  1  0
  1 28  1  0
  1 29  1  0
  4 30  1  0
  5 31  1  0
  9 32  1  0
 12 33  1  0
 13 34  1  0
 13 35  1  0
 15 36  1  0
 16 37  1  0
 17 38  1  0
 20 39  1  0
 24 40  1  0
 25 41  1  0
 26 42  1  0
M  END
>  <UniqueID>  (33) 
32

>  <SMILES>  (33) 
COc1ccc(C(=O)NC(=S)NCc2cccc(-n3cnnn3)c2)cc1

>  <Energy>  (33) 
87.72658084944914

>  <Genealogy>  (33) 
COc1ccc(C(=O)NC(=S)NCc2cccc(-n3cnnn3)c2)cc1 (3D coordinates assigned)
COc1ccc(C(=O)NC(=S)NCc2cccc(-n3cnnn3)c2)cc1 (optimized conformer: 87.72658084944914 kcal/mol)

>  <smiles>  (33) 
COc1ccc(C(=O)NC(=S)NCc2cccc(-n3cnnn3)c2)cc1

>  <score_type>  (33) 
oracle

>  <origin>  (33) 
adgpu

>  <m_score__min__energy>  (33) 
-9.1899999999999995

>  <m_primary>  (33) 
energy

$$$$
33:0
     RDKit          3D

 46 49  0  0  0  0  0  0  0  0999 V2000
   -2.8990   18.0580  -25.6070 O   0  0  0  0  0  0  0  0  0  0  0  0
   -2.6320   18.9600  -26.4420 C   0  0  0  0  0  0  0  0  0  0  0  0
   -3.5010   20.0210  -26.8000 N   0  0  0  0  0  0  0  0  0  0  0  0
   -2.8770   20.7510  -27.6810 C   0  0  0  0  0  0  0  0  0  0  0  0
   -3.4800   21.9640  -28.2690 C   0  0  0  0  0  0  0  0  0  0  0  0
   -3.8910   23.0200  -27.4420 C   0  0  0  0  0  0  0  0  0  0  0  0
   -4.4260   24.1820  -27.9990 C   0  0  0  0  0  0  0  0  0  0  0  0
   -4.5730   24.2950  -29.3850 C   0  0  0  0  0  0  0  0  0  0  0  0
   -4.2020   23.2280  -30.2230 C   0  0  0  0  0  0  0  0  0  0  0  0
   -4.3200   23.3060  -31.6510 N   0  0  0  0  0  0  0  0  0  0  0  0
   -4.4240   22.2040  -32.5640 C   0  0  0  0  0  0  0  0  0  0  0  0
   -3.5330   22.0200  -33.4370 O   0  0  0  0  0  0  0  0  0  0  0  0
   -5.6070   21.3130  -32.5170 C   0  0  0  0  0  0  0  0  0  0  0  0
   -6.8470   21.7910  -32.0500 C   0  0  0  0  0  0  0  0  0  0  0  0
   -7.9610   20.9450  -32.0050 C   0  0  0  0  0  0  0  0  0  0  0  0
   -9.4990   21.5540  -31.4210 Cl  0  0  0  0  0  0  0  0  0  0  0  0
   -7.8510   19.6170  -32.4250 C   0  0  0  0  0  0  0  0  0  0  0  0
   -6.6260   19.1310  -32.8910 C   0  0  0  0  0  0  0  0  0  0  0  0
   -6.4900   17.4630  -33.4170 Cl  0  0  0  0  0  0  0  0  0  0  0  0
   -5.5090   19.9720  -32.9370 C   0  0  0  0  0  0  0  0  0  0  0  0
   -3.6430   22.0750  -29.6580 C   0  0  0  0  0  0  0  0  0  0  0  0
   -1.5520   20.2730  -28.0070 N   0  0  0  0  0  0  0  0  0  0  0  0
   -0.4330   21.0830  -28.4940 C   0  0  0  0  0  0  0  0  0  0  0  0
   -0.4920   22.4690  -27.9090 C   0  0  0  0  0  0  0  0  0  0  0  0
   -0.6560   23.5890  -28.7430 C   0  0  0  0  0  0  0  0  0  0  0  0
   -0.7560   24.8690  -28.1920 C   0  0  0  0  0  0  0  0  0  0  0  0
   -0.6950   25.0430  -26.8070 C   0  0  0  0  0  0  0  0  0  0  0  0
   -0.5350   23.9340  -25.9700 C   0  0  0  0  0  0  0  0  0  0  0  0
   -0.4360   22.6520  -26.5170 C   0  0  0  0  0  0  0  0  0  0  0  0
   -1.4110   19.1220  -27.1820 C   0  0  0  0  0  0  0  0  0  0  0  0
   -0.3770   18.4090  -27.0990 O   0  0  0  0  0  0  0  0  0  0  0  0
   -4.4640   20.1860  -26.4290 H   0  0  0  0  0  0  0  0  0  0  0  0
   -3.7911   22.9316  -26.3501 H   0  0  0  0  0  0  0  0  0  0  0  0
   -4.7332   25.0120  -27.3457 H   0  0  0  0  0  0  0  0  0  0  0  0
   -4.9794   25.2197  -29.8206 H   0  0  0  0  0  0  0  0  0  0  0  0
   -6.9403   22.8357  -31.7186 H   0  0  0  0  0  0  0  0  0  0  0  0
   -8.7281   18.9541  -32.3890 H   0  0  0  0  0  0  0  0  0  0  0  0
   -4.5475   19.5834  -33.3037 H   0  0  0  0  0  0  0  0  0  0  0  0
   -3.3282   21.2472  -30.3105 H   0  0  0  0  0  0  0  0  0  0  0  0
    0.5138   20.6061  -28.2005 H   0  0  0  0  0  0  0  0  0  0  0  0
   -0.4969   21.1561  -29.5897 H   0  0  0  0  0  0  0  0  0  0  0  0
   -0.7058   23.4569  -29.8339 H   0  0  0  0  0  0  0  0  0  0  0  0
   -0.8830   25.7414  -28.8498 H   0  0  0  0  0  0  0  0  0  0  0  0
   -0.7728   26.0517  -26.3752 H   0  0  0  0  0  0  0  0  0  0  0  0
   -0.4870   24.0712  -24.8796 H   0  0  0  0  0  0  0  0  0  0  0  0
   -0.3137   21.7821  -25.8549 H   0  0  0  0  0  0  0  0  0  0  0  0
  1  2  2  0
  2  3  1  0
  3  4  2  0
  4  5  1  0
  5  6  2  0
  6  7  1  0
  7  8  2  0
  8  9  1  0
  9 10  1  0
 10 11  1  0
 11 12  2  0
 11 13  1  0
 13 14  2  0
 14 15  1  0
 15 16  1  0
 15 17  2  0
 17 18  1  0
 18 19  1  0
 18 20  2  0
  9 21  2  0
  4 22  1  0
 22 23  1  0
 23 24  1  0
 24 25  2  0
 25 26  1  0
 26 27  2  0
 27 28  1  0
 28 29  2  0
 22 30  1  0
 30 31  2  0
 30  2  1  0
 21  5  1  0
 29 24  1  0
 20 13  1  0
  3 32  1  0
  6 33  1  0
  7 34  1  0
  8 35  1  0
 14 36  1  0
 17 37  1  0
 20 38  1  0
 21 39  1  0
 23 40  1  0
 23 41  1  0
 25 42  1  0
 26 43  1  0
 27 44  1  0
 28 45  1  0
 29 46  1  0
M  CHG  2   3   1  10  -1
M  END
>  <UniqueID>  (34) 
33

>  <SMILES>  (34) 
O=C1[NH+]=C(c2cccc([N-]C(=O)c3cc(Cl)cc(Cl)c3)c2)N(Cc2ccccc2)C1=O

>  <Energy>  (34) 
87.54339449773296

>  <Genealogy>  (34) 
O=C1[NH+]=C(c2cccc([N-]C(=O)c3cc(Cl)cc(Cl)c3)c2)N(Cc2ccccc2)C1=O (protonated)
O=C1[NH+]=C(c2cccc([N-]C(=O)c3cc(Cl)cc(Cl)c3)c2)N(Cc2ccccc2)C1=O (3D coordinates assigned)
O=C1[NH+]=C(c2cccc([N-]C(=O)c3cc(Cl)cc(Cl)c3)c2)N(Cc2ccccc2)C1=O (nonaromatic ring conformer: 87.54339449773296 kcal/mol)

>  <smiles>  (34) 
O=C1N=C(c2cccc(NC(=O)c3cc(Cl)cc(Cl)c3)c2)N(Cc2ccccc2)C1=O

>  <score_type>  (34) 
oracle

>  <origin>  (34) 
adgpu

>  <m_score__min__energy>  (34) 
-11.5

>  <m_primary>  (34) 
energy

$$$$
34:0
     RDKit          3D

 49 52  0  0  0  0  0  0  0  0999 V2000
   -0.6290   19.5740  -34.3170 O   0  0  0  0  0  0  0  0  0  0  0  0
   -1.7960   19.4430  -33.3780 S   0  0  0  0  0  0  0  0  0  0  0  0
   -1.7120   18.1010  -32.7070 O   0  0  0  0  0  0  0  0  0  0  0  0
   -3.2700   19.5190  -34.2900 N   0  0  0  0  0  0  0  0  0  0  0  0
   -4.4900   18.9150  -33.8530 C   0  0  0  0  0  0  0  0  0  0  0  0
   -4.6950   17.5310  -33.9570 C   0  0  0  0  0  0  0  0  0  0  0  0
   -5.9000   16.9660  -33.5300 C   0  0  0  0  0  0  0  0  0  0  0  0
   -6.9090   17.7780  -33.0040 C   0  0  0  0  0  0  0  0  0  0  0  0
   -6.7190   19.1630  -32.9120 C   0  0  0  0  0  0  0  0  0  0  0  0
   -7.9960   20.1930  -32.2650 S   0  0  0  0  0  0  0  0  0  0  0  0
   -8.3410   19.7390  -30.8730 O   0  0  0  0  0  0  0  0  0  0  0  0
   -9.2250   20.0700  -33.1240 O   0  0  0  0  0  0  0  0  0  0  0  0
   -7.4400   21.8480  -32.2160 N   0  0  0  0  0  0  0  0  0  0  0  0
   -8.3960   22.7100  -31.5190 C   0  0  0  0  0  0  0  0  0  0  0  0
   -7.5900   23.8540  -30.9180 C   0  0  0  0  0  0  0  0  0  0  0  0
   -6.1440   23.3820  -30.9220 C   0  0  0  0  0  0  0  0  0  0  0  0
   -6.1890   21.9630  -31.4660 C   0  0  0  0  0  0  0  0  0  0  0  0
   -5.5160   19.7290  -33.3560 C   0  0  0  0  0  0  0  0  0  0  0  0
   -1.7270   20.7000  -32.1470 C   0  0  0  0  0  0  0  0  0  0  0  0
   -0.5140   20.9920  -31.5070 C   0  0  0  0  0  0  0  0  0  0  0  0
   -0.4610   21.9720  -30.5100 C   0  0  0  0  0  0  0  0  0  0  0  0
   -1.6240   22.6690  -30.1350 C   0  0  0  0  0  0  0  0  0  0  0  0
   -1.5730   23.6690  -29.1000 N   0  0  0  0  0  0  0  0  0  0  0  0
   -2.2520   24.8360  -29.0570 C   0  0  0  0  0  0  0  0  0  0  0  0
   -3.1080   25.2830  -30.0590 O   0  0  0  0  0  0  0  0  0  0  0  0
   -1.9620   25.5380  -27.9040 C   0  0  0  0  0  0  0  0  0  0  0  0
   -1.0560   24.7630  -27.2000 C   0  0  0  0  0  0  0  0  0  0  0  0
   -0.8450   23.6310  -27.9620 C   0  0  0  0  0  0  0  0  0  0  0  0
   -0.0170   22.5760  -27.5960 O   0  0  0  0  0  0  0  0  0  0  0  0
   -2.8380   22.3720  -30.7800 C   0  0  0  0  0  0  0  0  0  0  0  0
   -2.8890   21.3950  -31.7800 C   0  0  0  0  0  0  0  0  0  0  0  0
   -3.9057   16.8892  -34.3755 H   0  0  0  0  0  0  0  0  0  0  0  0
   -6.0547   15.8797  -33.6080 H   0  0  0  0  0  0  0  0  0  0  0  0
   -7.8532   17.3290  -32.6620 H   0  0  0  0  0  0  0  0  0  0  0  0
   -9.1411   23.1014  -32.2273 H   0  0  0  0  0  0  0  0  0  0  0  0
   -8.9381   22.1537  -30.7401 H   0  0  0  0  0  0  0  0  0  0  0  0
   -7.6990   24.7626  -31.5284 H   0  0  0  0  0  0  0  0  0  0  0  0
   -7.9334   24.1048  -29.9035 H   0  0  0  0  0  0  0  0  0  0  0  0
   -5.5304   24.0244  -31.5707 H   0  0  0  0  0  0  0  0  0  0  0  0
   -5.6954   23.4234  -29.9185 H   0  0  0  0  0  0  0  0  0  0  0  0
   -5.3300   21.7822  -32.1288 H   0  0  0  0  0  0  0  0  0  0  0  0
   -6.1413   21.2227  -30.6538 H   0  0  0  0  0  0  0  0  0  0  0  0
   -5.3767   20.8193  -33.3139 H   0  0  0  0  0  0  0  0  0  0  0  0
    0.3995   20.4484  -31.7900 H   0  0  0  0  0  0  0  0  0  0  0  0
    0.4955   22.1988  -30.0165 H   0  0  0  0  0  0  0  0  0  0  0  0
   -2.3686   26.5154  -27.6051 H   0  0  0  0  0  0  0  0  0  0  0  0
   -0.5968   25.0011  -26.2292 H   0  0  0  0  0  0  0  0  0  0  0  0
   -3.7536   22.9116  -30.4963 H   0  0  0  0  0  0  0  0  0  0  0  0
   -3.8429   21.1711  -32.2799 H   0  0  0  0  0  0  0  0  0  0  0  0
  1  2  2  0
  2  3  2  0
  2  4  1  0
  4  5  1  0
  5  6  2  0
  6  7  1  0
  7  8  2  0
  8  9  1  0
  9 10  1  0
 10 11  2  0
 10 12  2  0
 10 13  1  0
 13 14  1  0
 14 15  1  0
 15 16  1  0
 16 17  1  0
  9 18  2  0
  2 19  1  0
 19 20  2  0
 20 21  1  0
 21 22  2  0
 22 23  1  0
 23 24  1  0
 24 25  1  0
 24 26  2  0
 26 27  1  0
 27 28  2  0
 28 29  1  0
 22 30  1  0
 30 31  2  0
 18  5  1  0
 31 19  1  0
 17 13  1  0
 28 23  1  0
  6 32  1  0
  7 33  1  0
  8 34  1  0
 14 35  1  0
 14 36  1  0
 15 37  1  0
 15 38  1  0
 16 39  1  0
 16 40  1  0
 17 41  1  0
 17 42  1  0
 18 43  1  0
 20 44  1  0
 21 45  1  0
 26 46  1  0
 27 47  1  0
 30 48  1  0
 31 49  1  0
M  CHG  3   4  -1  25  -1  29  -1
M  END
>  <UniqueID>  (35) 
34

>  <SMILES>  (35) 
O=S(=O)([N-]c1cccc(S(=O)(=O)N2CCCC2)c1)c1ccc(-n2c([O-])ccc2[O-])cc1

>  <Energy>  (35) 
94.67140646580161

>  <Genealogy>  (35) 
O=S(=O)([N-]c1cccc(S(=O)(=O)N2CCCC2)c1)c1ccc(-n2c([O-])ccc2[O-])cc1 (protonated)
O=S(=O)([N-]c1cccc(S(=O)(=O)N2CCCC2)c1)c1ccc(-n2c([O-])ccc2[O-])cc1 (3D coordinates assigned)
O=S(=O)([N-]c1cccc(S(=O)(=O)N2CCCC2)c1)c1ccc(-n2c([O-])ccc2[O-])cc1 (nonaromatic ring conformer: 94.67140646580161 kcal/mol)

>  <smiles>  (35) 
O=S(=O)(Nc1cccc(S(=O)(=O)N2CCCC2)c1)c1ccc(-n2c(O)ccc2O)cc1

>  <score_type>  (35) 
oracle

>  <origin>  (35) 
adgpu

>  <m_score__min__energy>  (35) 
-12.93

>  <m_primary>  (35) 
energy

$$$$
35:0
     RDKit          3D

 40 42  0  0  0  0  0  0  0  0999 V2000
   -2.2940   19.0760  -26.3650 C   0  0  0  0  0  0  0  0  0  0  0  0
   -1.0890   19.4700  -27.0950 N   0  0  0  0  0  0  0  0  0  0  0  0
   -0.7990   21.1690  -26.8750 S   0  0  0  0  0  0  0  0  0  0  0  0
   -0.8480   21.5090  -25.4100 O   0  0  0  0  0  0  0  0  0  0  0  0
    0.5680   21.5100  -27.3990 O   0  0  0  0  0  0  0  0  0  0  0  0
   -2.0000   22.1070  -27.7590 C   0  0  0  0  0  0  0  0  0  0  0  0
   -3.3670   21.9760  -27.4680 C   0  0  0  0  0  0  0  0  0  0  0  0
   -4.3120   22.7050  -28.1950 C   0  0  0  0  0  0  0  0  0  0  0  0
   -3.9000   23.5640  -29.2240 C   0  0  0  0  0  0  0  0  0  0  0  0
   -5.0850   24.4620  -30.1660 S   0  0  0  0  0  0  0  0  0  0  0  0
   -5.8760   25.3840  -29.2810 O   0  0  0  0  0  0  0  0  0  0  0  0
   -4.3680   25.2750  -31.2070 O   0  0  0  0  0  0  0  0  0  0  0  0
   -6.1730   23.3500  -30.9320 N   0  0  0  0  0  0  0  0  0  0  0  0
   -7.5230   23.4340  -30.9390 C   0  0  0  0  0  0  0  0  0  0  0  0
   -8.0590   22.3900  -31.6850 C   0  0  0  0  0  0  0  0  0  0  0  0
   -9.5050   22.1530  -31.9790 C   0  0  0  0  0  0  0  0  0  0  0  0
   -6.9820   21.6650  -32.1540 C   0  0  0  0  0  0  0  0  0  0  0  0
   -6.9230   20.5370  -32.9740 C   0  0  0  0  0  0  0  0  0  0  0  0
   -5.6520   20.0270  -33.2980 C   0  0  0  0  0  0  0  0  0  0  0  0
   -5.5080   18.4880  -34.4190 Br  0  0  0  0  0  0  0  0  0  0  0  0
   -4.4850   20.6500  -32.8040 C   0  0  0  0  0  0  0  0  0  0  0  0
   -4.5750   21.7870  -31.9820 C   0  0  0  0  0  0  0  0  0  0  0  0
   -5.8480   22.2720  -31.6740 C   0  0  0  0  0  0  0  0  0  0  0  0
   -2.5360   23.6950  -29.5120 C   0  0  0  0  0  0  0  0  0  0  0  0
   -1.5900   22.9680  -28.7850 C   0  0  0  0  0  0  0  0  0  0  0  0
   -2.1041   19.1381  -25.2833 H   0  0  0  0  0  0  0  0  0  0  0  0
   -3.1211   19.7505  -26.6314 H   0  0  0  0  0  0  0  0  0  0  0  0
   -2.5628   18.0432  -26.6314 H   0  0  0  0  0  0  0  0  0  0  0  0
   -0.2800   18.9630  -26.6680 H   0  0  0  0  0  0  0  0  0  0  0  0
   -3.6950   21.2982  -26.6661 H   0  0  0  0  0  0  0  0  0  0  0  0
   -5.3818   22.6047  -27.9595 H   0  0  0  0  0  0  0  0  0  0  0  0
   -8.1099   24.2128  -30.4300 H   0  0  0  0  0  0  0  0  0  0  0  0
  -10.0611   22.0619  -31.0343 H   0  0  0  0  0  0  0  0  0  0  0  0
   -9.9044   22.9977  -32.5595 H   0  0  0  0  0  0  0  0  0  0  0  0
   -9.6138   21.2250  -32.5595 H   0  0  0  0  0  0  0  0  0  0  0  0
   -7.8396   20.0624  -33.3544 H   0  0  0  0  0  0  0  0  0  0  0  0
   -3.4971   20.2422  -33.0645 H   0  0  0  0  0  0  0  0  0  0  0  0
   -3.6712   22.2792  -31.5936 H   0  0  0  0  0  0  0  0  0  0  0  0
   -2.2080   24.3729  -30.3138 H   0  0  0  0  0  0  0  0  0  0  0  0
   -0.5202   23.0720  -29.0190 H   0  0  0  0  0  0  0  0  0  0  0  0
  1  2  1  0
  2  3  1  0
  3  4  2  0
  3  5  2  0
  3  6  1  0
  6  7  2  0
  7  8  1  0
  8  9  2  0
  9 10  1  0
 10 11  2  0
 10 12  2  0
 10 13  1  0
 13 14  1  0
 14 15  2  0
 15 16  1  0
 15 17  1  0
 17 18  2  0
 18 19  1  0
 19 20  1  0
 19 21  2  0
 21 22  1  0
 22 23  2  0
  9 24  1  0
 24 25  2  0
 25  6  1  0
 23 13  1  0
 23 17  1  0
  1 26  1  0
  1 27  1  0
  1 28  1  0
  2 29  1  0
  7 30  1  0
  8 31  1  0
 14 32  1  0
 16 33  1  0
 16 34  1  0
 16 35  1  0
 18 36  1  0
 21 37  1  0
 22 38  1  0
 24 39  1  0
 25 40  1  0
M  END
>  <UniqueID>  (36) 
35

>  <SMILES>  (36) 
CNS(=O)(=O)c1ccc(S(=O)(=O)n2cc(C)c3cc(Br)ccc32)cc1

>  <Energy>  (36) 
73.16668794537907

>  <Genealogy>  (36) 
CNS(=O)(=O)c1ccc(S(=O)(=O)n2cc(C)c3cc(Br)ccc32)cc1 (3D coordinates assigned)
CNS(=O)(=O)c1ccc(S(=O)(=O)n2cc(C)c3cc(Br)ccc32)cc1 (optimized conformer: 73.16668794537907 kcal/mol)

>  <smiles>  (36) 
CNS(=O)(=O)c1ccc(S(=O)(=O)n2cc(C)c3cc(Br)ccc32)cc1

>  <score_type>  (36) 
oracle

>  <origin>  (36) 
adgpu

>  <m_score__min__energy>  (36) 
-9.7400000000000002

>  <m_primary>  (36) 
energy

$$$$
36:0
     RDKit          3D

 42 45  0  0  0  0  0  0  0  0999 V2000
   -2.0280   25.6710  -29.8520 H   0  0  0  0  0  0  0  0  0  0  0  0
   -1.2360   26.0230  -29.3290 O   0  0  0  0  0  0  0  0  0  0  0  0
   -0.7500   25.3840  -28.1880 C   0  0  0  0  0  0  0  0  0  0  0  0
   -0.0270   26.1340  -27.2520 C   0  0  0  0  0  0  0  0  0  0  0  0
    0.1400   27.2076  -27.4236 H   0  0  0  0  0  0  0  0  0  0  0  0
    0.4830   25.5280  -26.1030 C   0  0  0  0  0  0  0  0  0  0  0  0
    1.0419   26.1258  -25.3680 H   0  0  0  0  0  0  0  0  0  0  0  0
    0.2840   24.1630  -25.8860 C   0  0  0  0  0  0  0  0  0  0  0  0
    0.6938   23.6847  -24.9842 H   0  0  0  0  0  0  0  0  0  0  0  0
   -0.4350   23.4040  -26.8130 C   0  0  0  0  0  0  0  0  0  0  0  0
   -0.5773   22.3264  -26.6440 H   0  0  0  0  0  0  0  0  0  0  0  0
   -0.9790   24.0100  -27.9630 C   0  0  0  0  0  0  0  0  0  0  0  0
   -1.6940   23.2460  -28.9490 N   0  0  0  0  0  0  0  0  0  0  0  0
   -2.7690   23.6130  -29.5830 C   0  0  0  0  0  0  0  0  0  0  0  0
   -3.3600   24.8270  -29.4880 N   0  0  0  0  0  0  0  0  0  0  0  0
   -4.3790   24.8180  -30.3100 O   0  0  0  0  0  0  0  0  0  0  0  0
   -4.4580   23.6620  -30.9280 C   0  0  0  0  0  0  0  0  0  0  0  0
   -5.3800   23.2450  -31.8900 C   0  0  0  0  0  0  0  0  0  0  0  0
   -6.5040   24.1330  -32.3290 C   0  0  0  0  0  0  0  0  0  0  0  0
   -7.0175   24.5387  -31.4449 H   0  0  0  0  0  0  0  0  0  0  0  0
   -6.1031   24.9609  -32.9322 H   0  0  0  0  0  0  0  0  0  0  0  0
   -7.2166   23.5514  -32.9322 H   0  0  0  0  0  0  0  0  0  0  0  0
   -5.2420   21.9300  -32.3910 C   0  0  0  0  0  0  0  0  0  0  0  0
   -5.9487   21.5616  -33.1492 H   0  0  0  0  0  0  0  0  0  0  0  0
   -4.2060   21.0800  -31.9300 C   0  0  0  0  0  0  0  0  0  0  0  0
   -4.0660   19.7750  -32.5130 N   0  0  0  0  0  0  0  0  0  0  0  0
   -4.9980   18.8800  -32.6930 C   0  0  0  0  0  0  0  0  0  0  0  0
   -4.6360   17.6600  -33.1780 N   0  0  0  0  0  0  0  0  0  0  0  0
   -5.5390   16.6670  -33.4070 C   0  0  0  0  0  0  0  0  0  0  0  0
   -5.0770   15.3500  -33.9430 C   0  0  0  0  0  0  0  0  0  0  0  0
   -4.8406   14.6762  -33.1063 H   0  0  0  0  0  0  0  0  0  0  0  0
   -5.8727   14.9051  -34.5585 H   0  0  0  0  0  0  0  0  0  0  0  0
   -4.1777   15.4997  -34.5585 H   0  0  0  0  0  0  0  0  0  0  0  0
   -6.8970   16.8920  -33.1540 C   0  0  0  0  0  0  0  0  0  0  0  0
   -7.6350   16.0960  -33.3322 H   0  0  0  0  0  0  0  0  0  0  0  0
   -7.3040   18.1350  -32.6740 C   0  0  0  0  0  0  0  0  0  0  0  0
   -8.3690   18.3253  -32.4753 H   0  0  0  0  0  0  0  0  0  0  0  0
   -6.3620   19.1390  -32.4450 C   0  0  0  0  0  0  0  0  0  0  0  0
   -6.6808   20.1243  -32.0741 H   0  0  0  0  0  0  0  0  0  0  0  0
   -3.2690   21.5590  -30.9850 C   0  0  0  0  0  0  0  0  0  0  0  0
   -2.4300   20.9335  -30.6460 H   0  0  0  0  0  0  0  0  0  0  0  0
   -3.4480   22.8510  -30.5000 C   0  0  0  0  0  0  0  0  0  0  0  0
  1  2  1  0
  2  3  1  0
  3  4  2  0
  4  5  1  0
  4  6  1  0
  6  7  1  0
  6  8  2  0
  8  9  1  0
  8 10  1  0
 10 11  1  0
 10 12  2  0
 12 13  1  0
 13 14  2  0
 14 15  1  0
 15 16  1  0
 16 17  1  0
 17 18  2  0
 18 19  1  0
 19 20  1  0
 19 21  1  0
 19 22  1  0
 18 23  1  0
 23 24  1  0
 23 25  2  0
 25 26  1  0
 26 27  2  0
 27 28  1  0
 28 29  1  0
 29 30  1  0
 30 31  1  0
 30 32  1  0
 30 33  1  0
 29 34  2  0
 34 35  1  0
 34 36  1  0
 36 37  1  0
 36 38  2  0
 38 39  1  0
 25 40  1  0
 40 41  1  0
 40 42  2  0
 12  3  1  0
 42 14  1  0
 42 17  1  0
 38 27  1  0
M  CHG  2  15  -1  28  -1
M  END
>  <UniqueID>  (37) 
36

>  <SMILES>  (37) 
Cc1ccc/c(=N\c2cc(C)c3o[n-]/c(=N\c4ccccc4O)c3c2)[n-]1

>  <Energy>  (37) 
101.29203993316665

>  <Genealogy>  (37) 
Cc1cccc(=Nc2cc(C)c3o[n-]c(=Nc4ccccc4O)c3c2)[n-]1 (protonated)
Cc1ccc/c(=N\c2cc(C)c3o[n-]/c(=N\c4ccccc4O)c3c2)[n-]1 (cis-trans isomerization)
Cc1ccc/c(=N\c2cc(C)c3o[n-]/c(=N\c4ccccc4O)c3c2)[n-]1 (3D coordinates assigned)
Cc1ccc/c(=N\c2cc(C)c3o[n-]/c(=N\c4ccccc4O)c3c2)[n-]1 (optimized conformer: 101.29203993316665 kcal/mol)

>  <smiles>  (37) 
Cc1cccc(=Nc2cc(C)c3o[nH]c(=Nc4ccccc4O)c3c2)[nH]1

>  <score_type>  (37) 
oracle

>  <origin>  (37) 
adgpu

>  <m_score__min__energy>  (37) 
-10.75

>  <m_primary>  (37) 
energy

$$$$
37:0
     RDKit          3D

 56 59  0  0  0  0  0  0  0  0999 V2000
   -3.7850   22.5400  -32.6990 O   0  0  0  0  0  0  0  0  0  0  0  0
   -3.0060   21.5900  -32.4130 C   0  0  0  0  0  0  0  0  0  0  0  0
   -2.8780   20.4980  -33.3300 N   0  0  0  0  0  0  0  0  0  0  0  0
   -3.4450   19.1730  -33.1150 C   0  0  0  0  0  0  0  0  0  0  0  0
   -4.9050   19.3050  -32.7950 C   0  0  0  0  0  0  0  0  0  0  0  0
   -5.5210   18.4100  -31.9030 C   0  0  0  0  0  0  0  0  0  0  0  0
   -6.8940   18.5040  -31.6460 C   0  0  0  0  0  0  0  0  0  0  0  0
   -7.6610   19.4840  -32.2840 C   0  0  0  0  0  0  0  0  0  0  0  0
   -7.0570   20.3700  -33.1820 C   0  0  0  0  0  0  0  0  0  0  0  0
   -5.6840   20.2780  -33.4430 C   0  0  0  0  0  0  0  0  0  0  0  0
   -2.2810   21.6140  -31.1250 C   0  0  0  0  0  0  0  0  0  0  0  0
   -1.1020   20.8680  -30.9860 C   0  0  0  0  0  0  0  0  0  0  0  0
   -0.3610   20.9360  -29.8070 C   0  0  0  0  0  0  0  0  0  0  0  0
   -0.7940   21.7700  -28.7740 C   0  0  0  0  0  0  0  0  0  0  0  0
    0.1110   21.8780  -27.2720 S   0  0  0  0  0  0  0  0  0  0  0  0
   -0.6370   21.1390  -26.1980 O   0  0  0  0  0  0  0  0  0  0  0  0
    1.4550   21.2270  -27.4560 O   0  0  0  0  0  0  0  0  0  0  0  0
    0.3100   23.5510  -26.8100 N   0  0  0  0  0  0  0  0  0  0  0  0
    0.0740   23.7030  -25.3560 C   0  0  0  0  0  0  0  0  0  0  0  0
   -0.2190   25.1600  -24.9830 C   0  0  0  0  0  0  0  0  0  0  0  0
   -1.5000   25.6630  -25.6740 C   0  0  0  0  0  0  0  0  0  0  0  0
   -1.8070   24.9070  -26.9780 C   0  0  0  0  0  0  0  0  0  0  0  0
   -0.5150   24.4400  -27.6660 C   0  0  0  0  0  0  0  0  0  0  0  0
   -1.9440   22.4810  -28.9160 N   0  0  0  0  0  0  0  0  0  0  0  0
   -2.7020   22.4280  -30.0470 C   0  0  0  0  0  0  0  0  0  0  0  0
   -3.9730   23.1880  -30.0800 C   0  0  0  0  0  0  0  0  0  0  0  0
   -5.1950   22.5110  -30.2350 C   0  0  0  0  0  0  0  0  0  0  0  0
   -6.4020   23.2160  -30.2460 C   0  0  0  0  0  0  0  0  0  0  0  0
   -7.9100   22.3390  -30.4530 Cl  0  0  0  0  0  0  0  0  0  0  0  0
   -6.4030   24.6090  -30.0880 C   0  0  0  0  0  0  0  0  0  0  0  0
   -7.6080   25.3130  -30.1010 O   0  0  0  0  0  0  0  0  0  0  0  0
   -5.1890   25.2880  -29.9160 C   0  0  0  0  0  0  0  0  0  0  0  0
   -3.9780   24.5850  -29.9070 C   0  0  0  0  0  0  0  0  0  0  0  0
   -2.7870   25.2840  -29.7400 O   0  0  0  0  0  0  0  0  0  0  0  0
   -3.3215   18.5682  -34.0255 H   0  0  0  0  0  0  0  0  0  0  0  0
   -2.9270   18.6816  -32.2782 H   0  0  0  0  0  0  0  0  0  0  0  0
   -4.9221   17.6331  -31.4052 H   0  0  0  0  0  0  0  0  0  0  0  0
   -7.3700   17.8062  -30.9414 H   0  0  0  0  0  0  0  0  0  0  0  0
   -8.7393   19.5580  -32.0796 H   0  0  0  0  0  0  0  0  0  0  0  0
   -7.6611   21.1401  -33.6840 H   0  0  0  0  0  0  0  0  0  0  0  0
   -5.2142   20.9698  -34.1576 H   0  0  0  0  0  0  0  0  0  0  0  0
   -0.7600   20.2260  -31.8111 H   0  0  0  0  0  0  0  0  0  0  0  0
    0.5555   20.3387  -29.6916 H   0  0  0  0  0  0  0  0  0  0  0  0
   -0.7854   23.0804  -25.0665 H   0  0  0  0  0  0  0  0  0  0  0  0
    0.9837   23.3873  -24.8242 H   0  0  0  0  0  0  0  0  0  0  0  0
   -0.3467   25.2329  -23.8929 H   0  0  0  0  0  0  0  0  0  0  0  0
    0.6247   25.7821  -25.3163 H   0  0  0  0  0  0  0  0  0  0  0  0
   -2.3466   25.5325  -24.9839 H   0  0  0  0  0  0  0  0  0  0  0  0
   -1.3449   26.7210  -25.9319 H   0  0  0  0  0  0  0  0  0  0  0  0
   -2.4278   24.0290  -26.7462 H   0  0  0  0  0  0  0  0  0  0  0  0
   -2.3381   25.5882  -27.6591 H   0  0  0  0  0  0  0  0  0  0  0  0
   -0.7836   23.8937  -28.5822 H   0  0  0  0  0  0  0  0  0  0  0  0
    0.0845   25.3364  -27.8829 H   0  0  0  0  0  0  0  0  0  0  0  0
   -5.2016   21.4169  -30.3486 H   0  0  0  0  0  0  0  0  0  0  0  0
   -7.8730   25.9270  -29.3410 H   0  0  0  0  0  0  0  0  0  0  0  0
   -5.1875   26.3804  -29.7872 H   0  0  0  0  0  0  0  0  0  0  0  0
  1  2  2  0
  2  3  1  0
  3  4  1  0
  4  5  1  0
  5  6  2  0
  6  7  1  0
  7  8  2  0
  8  9  1  0
  9 10  2  0
  2 11  1  0
 11 12  2  0
 12 13  1  0
 13 14  2  0
 14 15  1  0
 15 16  2  0
 15 17  2  0
 15 18  1  0
 18 19  1  0
 19 20  1  0
 20 21  1  0
 21 22  1  0
 22 23  1  0
 14 24  1  0
 24 25  2  0
 25 26  1  0
 26 27  2  0
 27 28  1  0
 28 29  1  0
 28 30  2  0
 30 31  1  0
 30 32  1  0
 32 33  2  0
 33 34  1  0
 10  5  1  0
 25 11  1  0
 33 26  1  0
 23 18  1  0
  4 35  1  0
  4 36  1  0
  6 37  1  0
  7 38  1  0
  8 39  1  0
  9 40  1  0
 10 41  1  0
 12 42  1  0
 13 43  1  0
 19 44  1  0
 19 45  1  0
 20 46  1  0
 20 47  1  0
 21 48  1  0
 21 49  1  0
 22 50  1  0
 22 51  1  0
 23 52  1  0
 23 53  1  0
 27 54  1  0
 31 55  1  0
 32 56  1  0
M  CHG  2   3  -1  34  -1
M  END
>  <UniqueID>  (38) 
37

>  <SMILES>  (38) 
O=C([N-]Cc1ccccc1)c1ccc(S(=O)(=O)N2CCCCC2)nc1-c1cc(Cl)c(O)cc1[O-]

>  <Energy>  (38) 
74.90487296998042

>  <Genealogy>  (38) 
O=C([N-]Cc1ccccc1)c1ccc(S(=O)(=O)N2CCCCC2)nc1-c1cc(Cl)c(O)cc1[O-] (protonated)
O=C([N-]Cc1ccccc1)c1ccc(S(=O)(=O)N2CCCCC2)nc1-c1cc(Cl)c(O)cc1[O-] (3D coordinates assigned)
O=C([N-]Cc1ccccc1)c1ccc(S(=O)(=O)N2CCCCC2)nc1-c1cc(Cl)c(O)cc1[O-] (nonaromatic ring conformer: 74.90487296998042 kcal/mol)

>  <smiles>  (38) 
O=C(NCc1ccccc1)c1ccc(S(=O)(=O)N2CCCCC2)nc1-c1cc(Cl)c(O)cc1O

>  <score_type>  (38) 
oracle

>  <origin>  (38) 
adgpu

>  <m_score__min__energy>  (38) 
-12.880000000000001

>  <m_primary>  (38) 
energy

$$$$
38:0
     RDKit          3D

 43 46  0  0  0  0  0  0  0  0999 V2000
   -3.8730   21.5390  -33.2890 O   0  0  0  0  0  0  0  0  0  0  0  0
   -4.3630   21.8410  -32.1670 C   0  0  0  0  0  0  0  0  0  0  0  0
   -3.8600   22.9680  -31.4420 N   0  0  0  0  0  0  0  0  0  0  0  0
   -2.8310   22.9160  -30.4440 C   0  0  0  0  0  0  0  0  0  0  0  0
   -2.2390   21.6830  -30.1630 C   0  0  0  0  0  0  0  0  0  0  0  0
   -1.2220   21.5900  -29.2150 C   0  0  0  0  0  0  0  0  0  0  0  0
   -0.8000   22.7210  -28.5130 C   0  0  0  0  0  0  0  0  0  0  0  0
    0.5440   22.5250  -27.3900 Cl  0  0  0  0  0  0  0  0  0  0  0  0
   -1.4260   23.9690  -28.7370 C   0  0  0  0  0  0  0  0  0  0  0  0
   -0.9220   25.4160  -27.8300 S   0  0  0  0  0  0  0  0  0  0  0  0
    0.5590   25.3800  -27.5770 O   0  0  0  0  0  0  0  0  0  0  0  0
   -1.2040   26.6430  -28.6500 O   0  0  0  0  0  0  0  0  0  0  0  0
   -1.7530   25.5840  -26.2460 C   0  0  0  0  0  0  0  0  0  0  0  0
   -0.9150   25.3690  -24.9950 C   0  0  0  0  0  0  0  0  0  0  0  0
   -1.2800   26.7770  -25.4330 C   0  0  0  0  0  0  0  0  0  0  0  0
   -2.4490   24.0570  -29.7090 C   0  0  0  0  0  0  0  0  0  0  0  0
   -3.1020   25.2640  -29.9310 O   0  0  0  0  0  0  0  0  0  0  0  0
   -5.4230   21.0590  -31.5990 N   0  0  0  0  0  0  0  0  0  0  0  0
   -5.8850   19.8080  -32.1370 C   0  0  0  0  0  0  0  0  0  0  0  0
   -7.2580   19.4950  -32.1950 C   0  0  0  0  0  0  0  0  0  0  0  0
   -7.6840   18.2790  -32.7380 C   0  0  0  0  0  0  0  0  0  0  0  0
   -6.7460   17.3730  -33.2390 C   0  0  0  0  0  0  0  0  0  0  0  0
   -5.3840   17.6980  -33.2320 C   0  0  0  0  0  0  0  0  0  0  0  0
   -4.9530   18.9070  -32.6770 C   0  0  0  0  0  0  0  0  0  0  0  0
   -4.4680   16.7980  -33.7880 O   0  0  0  0  0  0  0  0  0  0  0  0
   -4.9050   15.7020  -34.5940 C   0  0  0  0  0  0  0  0  0  0  0  0
   -6.1970   15.1030  -34.0220 C   0  0  0  0  0  0  0  0  0  0  0  0
   -7.1480   16.1380  -33.7590 O   0  0  0  0  0  0  0  0  0  0  0  0
   -2.5773   20.7803  -30.6928 H   0  0  0  0  0  0  0  0  0  0  0  0
   -0.7475   20.6174  -29.0179 H   0  0  0  0  0  0  0  0  0  0  0  0
   -2.7171   25.1834  -26.5924 H   0  0  0  0  0  0  0  0  0  0  0  0
   -1.3736   24.9372  -24.0932 H   0  0  0  0  0  0  0  0  0  0  0  0
    0.0245   24.8436  -24.7687 H   0  0  0  0  0  0  0  0  0  0  0  0
   -2.0026   27.3648  -24.8479 H   0  0  0  0  0  0  0  0  0  0  0  0
   -0.7136   27.6935  -25.6548 H   0  0  0  0  0  0  0  0  0  0  0  0
   -5.9530   21.4780  -30.8020 H   0  0  0  0  0  0  0  0  0  0  0  0
   -7.9988   20.2116  -31.8108 H   0  0  0  0  0  0  0  0  0  0  0  0
   -8.7563   18.0360  -32.7707 H   0  0  0  0  0  0  0  0  0  0  0  0
   -3.8809   19.1529  -32.6634 H   0  0  0  0  0  0  0  0  0  0  0  0
   -5.0917   16.0565  -35.6184 H   0  0  0  0  0  0  0  0  0  0  0  0
   -4.1235   14.9280  -34.6001 H   0  0  0  0  0  0  0  0  0  0  0  0
   -6.6221   14.3953  -34.7489 H   0  0  0  0  0  0  0  0  0  0  0  0
   -5.9649   14.5819  -33.0815 H   0  0  0  0  0  0  0  0  0  0  0  0
  1  2  2  0
  2  3  1  0
  3  4  1  0
  4  5  2  0
  5  6  1  0
  6  7  2  0
  7  8  1  0
  7  9  1  0
  9 10  1  0
 10 11  2  0
 10 12  2  0
 10 13  1  0
 13 14  1  0
 14 15  1  0
  9 16  2  0
 16 17  1  0
  2 18  1  0
 18 19  1  0
 19 20  2  0
 20 21  1  0
 21 22  2  0
 22 23  1  0
 23 24  2  0
 23 25  1  0
 25 26  1  0
 26 27  1  0
 27 28  1  0
 16  4  1  0
 24 19  1  0
 15 13  1  0
 28 22  1  0
  5 29  1  0
  6 30  1  0
 13 31  1  0
 14 32  1  0
 14 33  1  0
 15 34  1  0
 15 35  1  0
 18 36  1  0
 20 37  1  0
 21 38  1  0
 24 39  1  0
 26 40  1  0
 26 41  1  0
 27 42  1  0
 27 43  1  0
M  CHG  2   3  -1  17  -1
M  END
>  <UniqueID>  (39) 
38

>  <SMILES>  (39) 
O=C([N-]c1ccc(Cl)c(S(=O)(=O)C2CC2)c1[O-])Nc1ccc2c(c1)OCCO2

>  <Energy>  (39) 
322.4544735610542

>  <Genealogy>  (39) 
O=C([N-]c1ccc(Cl)c(S(=O)(=O)C2CC2)c1[O-])Nc1ccc2c(c1)OCCO2 (protonated)
O=C([N-]c1ccc(Cl)c(S(=O)(=O)C2CC2)c1[O-])Nc1ccc2c(c1)OCCO2 (3D coordinates assigned)
O=C([N-]c1ccc(Cl)c(S(=O)(=O)C2CC2)c1[O-])Nc1ccc2c(c1)OCCO2 (nonaromatic ring conformer: 322.4544735610542 kcal/mol)

>  <smiles>  (39) 
O=C(Nc1ccc2c(c1)OCCO2)Nc1ccc(Cl)c(S(=O)(=O)C2CC2)c1O

>  <score_type>  (39) 
oracle

>  <origin>  (39) 
adgpu

>  <m_score__min__energy>  (39) 
-12.76

>  <m_primary>  (39) 
energy

$$$$
39:0
     RDKit          3D

 53 56  0  0  0  0  0  0  0  0999 V2000
   -9.3800   21.9300  -31.3640 C   0  0  0  0  0  0  0  0  0  0  0  0
   -8.0190   21.5790  -31.8170 N   0  0  0  0  0  0  0  0  0  0  0  0
   -7.8300   20.4540  -32.5770 C   0  0  0  0  0  0  0  0  0  0  0  0
   -8.8080   19.7190  -32.8940 O   0  0  0  0  0  0  0  0  0  0  0  0
   -6.5520   20.1000  -33.0180 C   0  0  0  0  0  0  0  0  0  0  0  0
   -6.4170   19.0440  -33.6980 O   0  0  0  0  0  0  0  0  0  0  0  0
   -5.4680   20.8830  -32.7170 N   0  0  0  0  0  0  0  0  0  0  0  0
   -4.1280   20.4960  -33.2090 C   0  0  0  0  0  0  0  0  0  0  0  0
   -5.6400   22.0250  -31.9630 C   0  0  0  0  0  0  0  0  0  0  0  0
   -4.5460   22.8600  -31.6250 C   0  0  0  0  0  0  0  0  0  0  0  0
   -4.7220   24.0160  -30.8530 C   0  0  0  0  0  0  0  0  0  0  0  0
   -3.6200   24.8470  -30.4590 N   0  0  0  0  0  0  0  0  0  0  0  0
   -2.5710   24.5340  -29.1110 S   0  0  0  0  0  0  0  0  0  0  0  0
   -3.3930   24.4170  -27.8590 O   0  0  0  0  0  0  0  0  0  0  0  0
   -1.6060   25.6750  -28.9550 O   0  0  0  0  0  0  0  0  0  0  0  0
   -1.7130   23.0170  -29.3730 C   0  0  0  0  0  0  0  0  0  0  0  0
   -1.1450   22.3450  -28.2830 C   0  0  0  0  0  0  0  0  0  0  0  0
   -0.5000   21.1200  -28.4690 C   0  0  0  0  0  0  0  0  0  0  0  0
   -0.4240   20.5520  -29.7490 C   0  0  0  0  0  0  0  0  0  0  0  0
    0.3920   19.0130  -30.0100 S   0  0  0  0  0  0  0  0  0  0  0  0
    1.6880   19.2670  -30.7220 O   0  0  0  0  0  0  0  0  0  0  0  0
   -0.4590   18.1110  -30.8600 O   0  0  0  0  0  0  0  0  0  0  0  0
    0.7120   18.2660  -28.4650 N   0  0  0  0  0  0  0  0  0  0  0  0
    0.6390   16.8100  -28.5560 C   0  0  0  0  0  0  0  0  0  0  0  0
    1.4910   16.2780  -27.4200 C   0  0  0  0  0  0  0  0  0  0  0  0
    2.5110   17.3720  -27.1500 C   0  0  0  0  0  0  0  0  0  0  0  0
    2.0670   18.5600  -27.9960 C   0  0  0  0  0  0  0  0  0  0  0  0
   -0.9860   21.2270  -30.8400 C   0  0  0  0  0  0  0  0  0  0  0  0
   -1.6250   22.4560  -30.6560 C   0  0  0  0  0  0  0  0  0  0  0  0
   -6.0030   24.3760  -30.4440 C   0  0  0  0  0  0  0  0  0  0  0  0
   -7.0990   23.5810  -30.7670 C   0  0  0  0  0  0  0  0  0  0  0  0
   -6.9440   22.3870  -31.5120 C   0  0  0  0  0  0  0  0  0  0  0  0
   -9.4099   21.9377  -30.2644 H   0  0  0  0  0  0  0  0  0  0  0  0
   -9.6477   22.9266  -31.7451 H   0  0  0  0  0  0  0  0  0  0  0  0
  -10.0963   21.1872  -31.7451 H   0  0  0  0  0  0  0  0  0  0  0  0
   -3.4643   20.3043  -32.3529 H   0  0  0  0  0  0  0  0  0  0  0  0
   -4.2107   19.5850  -33.8200 H   0  0  0  0  0  0  0  0  0  0  0  0
   -3.7123   21.3108  -33.8200 H   0  0  0  0  0  0  0  0  0  0  0  0
   -3.5377   22.5951  -31.9760 H   0  0  0  0  0  0  0  0  0  0  0  0
   -1.2072   22.7839  -27.2763 H   0  0  0  0  0  0  0  0  0  0  0  0
   -0.0509   20.6000  -27.6100 H   0  0  0  0  0  0  0  0  0  0  0  0
   -0.4017   16.4716  -28.4444 H   0  0  0  0  0  0  0  0  0  0  0  0
    0.9962   16.4485  -29.5316 H   0  0  0  0  0  0  0  0  0  0  0  0
    0.8749   16.0945  -26.5274 H   0  0  0  0  0  0  0  0  0  0  0  0
    1.9687   15.3203  -27.6743 H   0  0  0  0  0  0  0  0  0  0  0  0
    2.5145   17.6397  -26.0831 H   0  0  0  0  0  0  0  0  0  0  0  0
    3.5319   17.0497  -27.4027 H   0  0  0  0  0  0  0  0  0  0  0  0
    2.0663   19.4773  -27.3890 H   0  0  0  0  0  0  0  0  0  0  0  0
    2.7510   18.7174  -28.8429 H   0  0  0  0  0  0  0  0  0  0  0  0
   -0.9241   20.7875  -31.8465 H   0  0  0  0  0  0  0  0  0  0  0  0
   -2.0594   22.9840  -31.5177 H   0  0  0  0  0  0  0  0  0  0  0  0
   -6.1504   25.2967  -29.8605 H   0  0  0  0  0  0  0  0  0  0  0  0
   -8.1033   23.8858  -30.4376 H   0  0  0  0  0  0  0  0  0  0  0  0
  1  2  1  0
  2  3  1  0
  3  4  2  0
  3  5  1  0
  5  6  2  0
  5  7  1  0
  7  8  1  0
  7  9  1  0
  9 10  2  0
 10 11  1  0
 11 12  1  0
 12 13  1  0
 13 14  2  0
 13 15  2  0
 13 16  1  0
 16 17  2  0
 17 18  1  0
 18 19  2  0
 19 20  1  0
 20 21  2  0
 20 22  2  0
 20 23  1  0
 23 24  1  0
 24 25  1  0
 25 26  1  0
 26 27  1  0
 19 28  1  0
 28 29  2  0
 11 30  2  0
 30 31  1  0
 31 32  2  0
 32  2  1  0
 32  9  1  0
 29 16  1  0
 27 23  1  0
  1 33  1  0
  1 34  1  0
  1 35  1  0
  8 36  1  0
  8 37  1  0
  8 38  1  0
 10 39  1  0
 17 40  1  0
 18 41  1  0
 24 42  1  0
 24 43  1  0
 25 44  1  0
 25 45  1  0
 26 46  1  0
 26 47  1  0
 27 48  1  0
 27 49  1  0
 28 50  1  0
 29 51  1  0
 30 52  1  0
 31 53  1  0
M  CHG  1  12  -1
M  END
>  <UniqueID>  (40) 
39

>  <SMILES>  (40) 
Cn1c(=O)c(=O)n(C)c2cc([N-]S(=O)(=O)c3ccc(S(=O)(=O)N4CCCC4)cc3)ccc21

>  <Energy>  (40) 
76.65210869821085

>  <Genealogy>  (40) 
Cn1c(=O)c(=O)n(C)c2cc([N-]S(=O)(=O)c3ccc(S(=O)(=O)N4CCCC4)cc3)ccc21 (protonated)
Cn1c(=O)c(=O)n(C)c2cc([N-]S(=O)(=O)c3ccc(S(=O)(=O)N4CCCC4)cc3)ccc21 (3D coordinates assigned)
Cn1c(=O)c(=O)n(C)c2cc([N-]S(=O)(=O)c3ccc(S(=O)(=O)N4CCCC4)cc3)ccc21 (nonaromatic ring conformer: 76.65210869821085 kcal/mol)

>  <smiles>  (40) 
Cn1c(=O)c(=O)n(C)c2cc(NS(=O)(=O)c3ccc(S(=O)(=O)N4CCCC4)cc3)ccc21

>  <score_type>  (40) 
oracle

>  <origin>  (40) 
adgpu

>  <m_score__min__energy>  (40) 
-11.43

>  <m_primary>  (40) 
energy

$$$$
40:0
     RDKit          3D

 54 57  0  0  0  0  0  0  0  0999 V2000
   -6.1140   23.6750  -31.9630 C   0  0  0  0  0  0  0  0  0  0  0  0
   -5.1770   24.1800  -30.9180 C   0  0  0  0  0  0  0  0  0  0  0  0
   -5.0500   23.6840  -29.6370 C   0  0  0  0  0  0  0  0  0  0  0  0
   -4.0230   24.4330  -29.1060 C   0  0  0  0  0  0  0  0  0  0  0  0
   -3.4670   24.3260  -27.7120 C   0  0  0  0  0  0  0  0  0  0  0  0
   -2.2770   25.1810  -27.4770 N   0  0  0  0  0  0  0  0  0  0  0  0
   -1.6620   24.9030  -26.1690 C   0  0  0  0  0  0  0  0  0  0  0  0
   -1.2660   25.1120  -28.5560 C   0  0  0  0  0  0  0  0  0  0  0  0
   -0.3570   23.8850  -28.4180 C   0  0  0  0  0  0  0  0  0  0  0  0
   -1.0330   22.6830  -28.8980 N   0  0  0  0  0  0  0  0  0  0  0  0
   -1.1650   21.5250  -28.2260 C   0  0  0  0  0  0  0  0  0  0  0  0
   -1.8960   20.6520  -29.0030 C   0  0  0  0  0  0  0  0  0  0  0  0
   -2.1830   21.3680  -30.1570 C   0  0  0  0  0  0  0  0  0  0  0  0
   -2.9540   20.9060  -31.3270 C   0  0  0  0  0  0  0  0  0  0  0  0
   -2.3760   20.8040  -32.6020 C   0  0  0  0  0  0  0  0  0  0  0  0
   -3.1560   20.3710  -33.6730 C   0  0  0  0  0  0  0  0  0  0  0  0
   -4.4960   20.0390  -33.4740 C   0  0  0  0  0  0  0  0  0  0  0  0
   -5.0520   20.1400  -32.1870 C   0  0  0  0  0  0  0  0  0  0  0  0
   -6.4320   19.7980  -31.9290 N   0  0  0  0  0  0  0  0  0  0  0  0
   -6.7870   18.3980  -31.6590 C   0  0  0  0  0  0  0  0  0  0  0  0
   -8.2460   18.1330  -32.0390 C   0  0  0  0  0  0  0  0  0  0  0  0
   -9.1010   19.0930  -31.4500 O   0  0  0  0  0  0  0  0  0  0  0  0
   -8.8300   20.3670  -32.0010 C   0  0  0  0  0  0  0  0  0  0  0  0
   -7.4230   20.8380  -31.6200 C   0  0  0  0  0  0  0  0  0  0  0  0
   -4.2640   20.5750  -31.1630 N   0  0  0  0  0  0  0  0  0  0  0  0
   -1.6510   22.6040  -30.0650 N   0  0  0  0  0  0  0  0  0  0  0  0
   -3.5930   25.2760  -30.0180 O   0  0  0  0  0  0  0  0  0  0  0  0
   -4.2610   25.1460  -31.1270 N   0  0  0  0  0  0  0  0  0  0  0  0
   -6.9839   23.2062  -31.4798 H   0  0  0  0  0  0  0  0  0  0  0  0
   -6.4507   24.5138  -32.5899 H   0  0  0  0  0  0  0  0  0  0  0  0
   -5.5984   22.9326  -32.5899 H   0  0  0  0  0  0  0  0  0  0  0  0
   -5.6296   22.8828  -29.1552 H   0  0  0  0  0  0  0  0  0  0  0  0
   -4.2527   24.6215  -27.0011 H   0  0  0  0  0  0  0  0  0  0  0  0
   -3.1459   23.2831  -27.5732 H   0  0  0  0  0  0  0  0  0  0  0  0
   -2.3486   25.2134  -25.3676 H   0  0  0  0  0  0  0  0  0  0  0  0
   -1.4588   23.8255  -26.0809 H   0  0  0  0  0  0  0  0  0  0  0  0
   -0.7189   25.4623  -26.0809 H   0  0  0  0  0  0  0  0  0  0  0  0
   -1.7844   25.0621  -29.5249 H   0  0  0  0  0  0  0  0  0  0  0  0
   -0.6349   26.0103  -28.4864 H   0  0  0  0  0  0  0  0  0  0  0  0
    0.5571   24.0450  -29.0086 H   0  0  0  0  0  0  0  0  0  0  0  0
   -0.1071   23.7488  -27.3555 H   0  0  0  0  0  0  0  0  0  0  0  0
   -0.7587   21.3112  -27.2264 H   0  0  0  0  0  0  0  0  0  0  0  0
   -2.1869   19.6188  -28.7623 H   0  0  0  0  0  0  0  0  0  0  0  0
   -1.3179   21.0632  -32.7545 H   0  0  0  0  0  0  0  0  0  0  0  0
   -2.7139   20.2910  -34.6771 H   0  0  0  0  0  0  0  0  0  0  0  0
   -5.1137   19.7003  -34.3188 H   0  0  0  0  0  0  0  0  0  0  0  0
   -6.1336   17.7384  -32.2489 H   0  0  0  0  0  0  0  0  0  0  0  0
   -6.6567   18.1983  -30.5852 H   0  0  0  0  0  0  0  0  0  0  0  0
   -8.3483   18.1821  -33.1331 H   0  0  0  0  0  0  0  0  0  0  0  0
   -8.5302   17.1357  -31.6721 H   0  0  0  0  0  0  0  0  0  0  0  0
   -8.9063   20.3093  -33.0968 H   0  0  0  0  0  0  0  0  0  0  0  0
   -9.5615   21.0855  -31.6028 H   0  0  0  0  0  0  0  0  0  0  0  0
   -7.1803   21.7492  -32.1864 H   0  0  0  0  0  0  0  0  0  0  0  0
   -7.3970   21.0452  -30.5400 H   0  0  0  0  0  0  0  0  0  0  0  0
  1  2  1  0
  2  3  1  0
  3  4  2  0
  4  5  1  0
  5  6  1  0
  6  7  1  0
  6  8  1  0
  8  9  1  0
  9 10  1  0
 10 11  1  0
 11 12  2  0
 12 13  1  0
 13 14  1  0
 14 15  2  0
 15 16  1  0
 16 17  2  0
 17 18  1  0
 18 19  1  0
 19 20  1  0
 20 21  1  0
 21 22  1  0
 22 23  1  0
 23 24  1  0
 18 25  2  0
 13 26  2  0
  4 27  1  0
 27 28  1  0
 28  2  2  0
 26 10  1  0
 25 14  1  0
 24 19  1  0
  1 29  1  0
  1 30  1  0
  1 31  1  0
  3 32  1  0
  5 33  1  0
  5 34  1  0
  7 35  1  0
  7 36  1  0
  7 37  1  0
  8 38  1  0
  8 39  1  0
  9 40  1  0
  9 41  1  0
 11 42  1  0
 12 43  1  0
 15 44  1  0
 16 45  1  0
 17 46  1  0
 20 47  1  0
 20 48  1  0
 21 49  1  0
 21 50  1  0
 23 51  1  0
 23 52  1  0
 24 53  1  0
 24 54  1  0
M  END
>  <UniqueID>  (41) 
40

>  <SMILES>  (41) 
Cc1cc(CN(C)CCn2ccc(-c3cccc(N4CCOCC4)n3)n2)on1

>  <Energy>  (41) 
119.68379688876334

>  <Genealogy>  (41) 
Cc1cc(CN(C)CCn2ccc(-c3cccc(N4CCOCC4)n3)n2)on1 (3D coordinates assigned)
Cc1cc(CN(C)CCn2ccc(-c3cccc(N4CCOCC4)n3)n2)on1 (nonaromatic ring conformer: 119.68379688876334 kcal/mol)

>  <smiles>  (41) 
Cc1cc(CN(C)CCn2ccc(-c3cccc(N4CCOCC4)n3)n2)on1

>  <score_type>  (41) 
oracle

>  <origin>  (41) 
adgpu

>  <m_score__min__energy>  (41) 
-9.5199999999999996

>  <m_primary>  (41) 
energy

$$$$
41:0
     RDKit          3D

 54 56  0  0  0  0  0  0  0  0999 V2000
   -4.8290   15.4290  -32.9880 C   0  0  0  0  0  0  0  0  0  0  0  0
   -4.7500   16.8090  -32.6450 O   0  0  0  0  0  0  0  0  0  0  0  0
   -5.8550   17.6700  -32.5570 C   0  0  0  0  0  0  0  0  0  0  0  0
   -6.9060   17.4460  -31.6480 C   0  0  0  0  0  0  0  0  0  0  0  0
   -7.9890   18.3260  -31.5890 C   0  0  0  0  0  0  0  0  0  0  0  0
   -8.0440   19.4380  -32.4370 C   0  0  0  0  0  0  0  0  0  0  0  0
   -9.2040   20.4030  -32.3470 C   0  0  0  0  0  0  0  0  0  0  0  0
   -8.9360   21.5040  -31.4100 N   0  0  0  0  0  0  0  0  0  0  0  0
   -8.3390   22.6650  -32.0820 C   0  0  0  0  0  0  0  0  0  0  0  0
   -7.0670   23.0540  -31.3820 C   0  0  0  0  0  0  0  0  0  0  0  0
   -5.9790   22.1700  -31.3470 C   0  0  0  0  0  0  0  0  0  0  0  0
   -4.8100   22.5160  -30.6650 C   0  0  0  0  0  0  0  0  0  0  0  0
   -4.7080   23.7520  -30.0020 C   0  0  0  0  0  0  0  0  0  0  0  0
   -3.4600   24.1010  -29.2810 C   0  0  0  0  0  0  0  0  0  0  0  0
   -2.3550   23.6960  -29.7360 O   0  0  0  0  0  0  0  0  0  0  0  0
   -3.4860   24.9000  -28.0840 N   0  0  0  0  0  0  0  0  0  0  0  0
   -2.3010   25.1760  -27.3260 C   0  0  0  0  0  0  0  0  0  0  0  0
   -2.3330   25.0010  -25.9340 C   0  0  0  0  0  0  0  0  0  0  0  0
   -1.1910   25.2350  -25.1650 C   0  0  0  0  0  0  0  0  0  0  0  0
   -0.0100   25.6550  -25.7780 C   0  0  0  0  0  0  0  0  0  0  0  0
    0.0280   25.8570  -27.1600 C   0  0  0  0  0  0  0  0  0  0  0  0
   -1.1150   25.6340  -27.9440 C   0  0  0  0  0  0  0  0  0  0  0  0
   -1.0690   25.9230  -29.3470 N   0  0  0  0  0  0  0  0  0  0  0  0
   -5.8120   24.6230  -30.0150 C   0  0  0  0  0  0  0  0  0  0  0  0
   -6.9820   24.2740  -30.6970 C   0  0  0  0  0  0  0  0  0  0  0  0
   -6.9960   19.6690  -33.3410 C   0  0  0  0  0  0  0  0  0  0  0  0
   -5.8990   18.7880  -33.4060 C   0  0  0  0  0  0  0  0  0  0  0  0
   -4.8340   18.9900  -34.2980 O   0  0  0  0  0  0  0  0  0  0  0  0
   -3.5020   19.3040  -33.9060 C   0  0  0  0  0  0  0  0  0  0  0  0
   -4.8636   14.8243  -32.0697 H   0  0  0  0  0  0  0  0  0  0  0  0
   -5.7389   15.2497  -33.5796 H   0  0  0  0  0  0  0  0  0  0  0  0
   -3.9455   15.1471  -33.5796 H   0  0  0  0  0  0  0  0  0  0  0  0
   -6.8743   16.5726  -30.9800 H   0  0  0  0  0  0  0  0  0  0  0  0
   -8.8032   18.1441  -30.8721 H   0  0  0  0  0  0  0  0  0  0  0  0
   -9.3928   20.8248  -33.3452 H   0  0  0  0  0  0  0  0  0  0  0  0
  -10.0784   19.8480  -31.9764 H   0  0  0  0  0  0  0  0  0  0  0  0
   -8.2810   21.1690  -30.6630 H   0  0  0  0  0  0  0  0  0  0  0  0
   -8.1172   22.4082  -33.1284 H   0  0  0  0  0  0  0  0  0  0  0  0
   -9.0452   23.5078  -32.0513 H   0  0  0  0  0  0  0  0  0  0  0  0
   -6.0464   21.1989  -31.8593 H   0  0  0  0  0  0  0  0  0  0  0  0
   -3.9620   21.8156  -30.6464 H   0  0  0  0  0  0  0  0  0  0  0  0
   -4.3970   25.1910  -27.6690 H   0  0  0  0  0  0  0  0  0  0  0  0
   -3.2638   24.6773  -25.4453 H   0  0  0  0  0  0  0  0  0  0  0  0
   -1.2225   25.0881  -24.0753 H   0  0  0  0  0  0  0  0  0  0  0  0
    0.8921   25.8273  -25.1726 H   0  0  0  0  0  0  0  0  0  0  0  0
    0.9603   26.1932  -27.6372 H   0  0  0  0  0  0  0  0  0  0  0  0
   -0.8100   25.1810  -30.0340 H   0  0  0  0  0  0  0  0  0  0  0  0
   -1.2260   26.8870  -29.7130 H   0  0  0  0  0  0  0  0  0  0  0  0
   -5.7549   25.5853  -29.4852 H   0  0  0  0  0  0  0  0  0  0  0  0
   -7.8409   24.9612  -30.6959 H   0  0  0  0  0  0  0  0  0  0  0  0
   -7.0315   20.5456  -34.0046 H   0  0  0  0  0  0  0  0  0  0  0  0
   -3.4369   19.3194  -32.8080 H   0  0  0  0  0  0  0  0  0  0  0  0
   -2.8139   18.5435  -34.3035 H   0  0  0  0  0  0  0  0  0  0  0  0
   -3.2260   20.2918  -34.3035 H   0  0  0  0  0  0  0  0  0  0  0  0
  1  2  1  0
  2  3  1  0
  3  4  2  0
  4  5  1  0
  5  6  2  0
  6  7  1  0
  7  8  1  0
  8  9  1  0
  9 10  1  0
 10 11  2  0
 11 12  1  0
 12 13  2  0
 13 14  1  0
 14 15  2  0
 14 16  1  0
 16 17  1  0
 17 18  2  0
 18 19  1  0
 19 20  2  0
 20 21  1  0
 21 22  2  0
 22 23  1  0
 13 24  1  0
 24 25  2  0
  6 26  1  0
 26 27  2  0
 27 28  1  0
 28 29  1  0
 27  3  1  0
 25 10  1  0
 22 17  1  0
  1 30  1  0
  1 31  1  0
  1 32  1  0
  4 33  1  0
  5 34  1  0
  7 35  1  0
  7 36  1  0
  8 37  1  0
  9 38  1  0
  9 39  1  0
 11 40  1  0
 12 41  1  0
 16 42  1  0
 18 43  1  0
 19 44  1  0
 20 45  1  0
 21 46  1  0
 23 47  1  0
 23 48  1  0
 24 49  1  0
 25 50  1  0
 26 51  1  0
 29 52  1  0
 29 53  1  0
 29 54  1  0
M  END
>  <UniqueID>  (42) 
41

>  <SMILES>  (42) 
COc1ccc(CNCc2ccc(C(=O)Nc3ccccc3N)cc2)cc1OC

>  <Energy>  (42) 
62.727709010506246

>  <Genealogy>  (42) 
COc1ccc(CNCc2ccc(C(=O)Nc3ccccc3N)cc2)cc1OC (3D coordinates assigned)
COc1ccc(CNCc2ccc(C(=O)Nc3ccccc3N)cc2)cc1OC (optimized conformer: 62.727709010506246 kcal/mol)

>  <smiles>  (42) 
COc1ccc(CNCc2ccc(C(=O)Nc3ccccc3N)cc2)cc1OC

>  <score_type>  (42) 
oracle

>  <origin>  (42) 
adgpu

>  <m_score__min__energy>  (42) 
-9.1600000000000001

>  <m_primary>  (42) 
energy

$$$$
42:0
     RDKit          3D

 61 65  0  0  0  0  0  0  0  0999 V2000
   -8.8870   23.3610  -32.2350 O   0  0  0  0  0  0  0  0  0  0  0  0
   -7.7270   22.6580  -31.5850 S   0  0  0  0  0  0  0  0  0  0  0  0
   -7.7440   22.9920  -30.1200 O   0  0  0  0  0  0  0  0  0  0  0  0
   -6.2580   23.2040  -32.3280 N   0  0  0  0  0  0  0  0  0  0  0  0
   -4.9680   23.1410  -31.6940 C   0  0  0  0  0  0  0  0  0  0  0  0
   -4.1100   22.0190  -31.8590 C   0  0  0  0  0  0  0  0  0  0  0  0
   -2.9020   21.9230  -31.1370 C   0  0  0  0  0  0  0  0  0  0  0  0
   -2.5830   22.9650  -30.2670 C   0  0  0  0  0  0  0  0  0  0  0  0
   -3.3870   24.0560  -30.1250 C   0  0  0  0  0  0  0  0  0  0  0  0
   -4.5900   24.1790  -30.8140 C   0  0  0  0  0  0  0  0  0  0  0  0
   -2.8870   24.8990  -29.2050 N   0  0  0  0  0  0  0  0  0  0  0  0
   -1.7560   24.2690  -28.7950 C   0  0  0  0  0  0  0  0  0  0  0  0
   -1.5480   23.0820  -29.4160 N   0  0  0  0  0  0  0  0  0  0  0  0
   -0.4800   22.1230  -29.1240 C   0  0  0  0  0  0  0  0  0  0  0  0
   -1.0040   20.9690  -28.3150 C   0  0  0  0  0  0  0  0  0  0  0  0
   -2.2740   21.0440  -27.7160 C   0  0  0  0  0  0  0  0  0  0  0  0
   -2.7650   19.9690  -26.9690 C   0  0  0  0  0  0  0  0  0  0  0  0
   -2.0010   18.8080  -26.8230 C   0  0  0  0  0  0  0  0  0  0  0  0
   -0.7400   18.7230  -27.4210 C   0  0  0  0  0  0  0  0  0  0  0  0
   -0.2380   19.8010  -28.1580 C   0  0  0  0  0  0  0  0  0  0  0  0
   -7.8920   20.9230  -31.8230 C   0  0  0  0  0  0  0  0  0  0  0  0
   -9.0310   20.2430  -31.3670 C   0  0  0  0  0  0  0  0  0  0  0  0
   -9.1800   18.8750  -31.6190 C   0  0  0  0  0  0  0  0  0  0  0  0
   -8.2010   18.1830  -32.3400 C   0  0  0  0  0  0  0  0  0  0  0  0
   -7.0660   18.8620  -32.8060 C   0  0  0  0  0  0  0  0  0  0  0  0
   -5.8680   18.0490  -33.8020 S   0  0  0  0  0  0  0  0  0  0  0  0
   -5.5130   18.9010  -34.9890 O   0  0  0  0  0  0  0  0  0  0  0  0
   -6.4370   16.7410  -34.2780 O   0  0  0  0  0  0  0  0  0  0  0  0
   -4.4540   17.7830  -32.8120 N   0  0  0  0  0  0  0  0  0  0  0  0
   -3.5570   18.9670  -32.8080 C   0  0  0  0  0  0  0  0  0  0  0  0
   -2.1250   18.6620  -33.2520 C   0  0  0  0  0  0  0  0  0  0  0  0
   -2.1280   17.8330  -34.5340 C   0  0  0  0  0  0  0  0  0  0  0  0
   -2.9540   16.5430  -34.3980 C   0  0  0  0  0  0  0  0  0  0  0  0
   -3.8000   16.4960  -33.1150 C   0  0  0  0  0  0  0  0  0  0  0  0
   -6.9080   20.2240  -32.5310 C   0  0  0  0  0  0  0  0  0  0  0  0
   -6.2950   23.3570  -33.3600 H   0  0  0  0  0  0  0  0  0  0  0  0
   -4.3914   21.2171  -32.5574 H   0  0  0  0  0  0  0  0  0  0  0  0
   -2.2350   21.0565  -31.2561 H   0  0  0  0  0  0  0  0  0  0  0  0
   -5.2305   25.0627  -30.6766 H   0  0  0  0  0  0  0  0  0  0  0  0
   -1.0762   24.6809  -28.0346 H   0  0  0  0  0  0  0  0  0  0  0  0
   -0.0686   21.7423  -30.0705 H   0  0  0  0  0  0  0  0  0  0  0  0
    0.3027   22.6334  -28.5436 H   0  0  0  0  0  0  0  0  0  0  0  0
   -2.8835   21.9519  -27.8356 H   0  0  0  0  0  0  0  0  0  0  0  0
   -3.7553   20.0373  -26.4950 H   0  0  0  0  0  0  0  0  0  0  0  0
   -2.3913   17.9620  -26.2383 H   0  0  0  0  0  0  0  0  0  0  0  0
   -0.1414   17.8066  -27.3118 H   0  0  0  0  0  0  0  0  0  0  0  0
    0.7598   19.7343  -28.6163 H   0  0  0  0  0  0  0  0  0  0  0  0
   -9.8086   20.7865  -30.8102 H   0  0  0  0  0  0  0  0  0  0  0  0
  -10.0687   18.3424  -31.2495 H   0  0  0  0  0  0  0  0  0  0  0  0
   -8.3213   17.1082  -32.5410 H   0  0  0  0  0  0  0  0  0  0  0  0
   -3.9772   19.7220  -33.4887 H   0  0  0  0  0  0  0  0  0  0  0  0
   -3.5001   19.3207  -31.7680 H   0  0  0  0  0  0  0  0  0  0  0  0
   -1.5931   19.6076  -33.4336 H   0  0  0  0  0  0  0  0  0  0  0  0
   -1.6209   18.0897  -32.4593 H   0  0  0  0  0  0  0  0  0  0  0  0
   -2.5536   18.4406  -35.3462 H   0  0  0  0  0  0  0  0  0  0  0  0
   -1.0885   17.5438  -34.7480 H   0  0  0  0  0  0  0  0  0  0  0  0
   -3.6281   16.4670  -35.2639 H   0  0  0  0  0  0  0  0  0  0  0  0
   -2.2438   15.7043  -34.3513 H   0  0  0  0  0  0  0  0  0  0  0  0
   -4.5772   15.7269  -33.2349 H   0  0  0  0  0  0  0  0  0  0  0  0
   -3.1217   16.2655  -32.2803 H   0  0  0  0  0  0  0  0  0  0  0  0
   -6.0043   20.7493  -32.8735 H   0  0  0  0  0  0  0  0  0  0  0  0
  1  2  2  0
  2  3  2  0
  2  4  1  0
  4  5  1  0
  5  6  2  0
  6  7  1  0
  7  8  2  0
  8  9  1  0
  9 10  2  0
  9 11  1  0
 11 12  2  0
 12 13  1  0
 13 14  1  0
 14 15  1  0
 15 16  2  0
 16 17  1  0
 17 18  2  0
 18 19  1  0
 19 20  2  0
  2 21  1  0
 21 22  2  0
 22 23  1  0
 23 24  2  0
 24 25  1  0
 25 26  1  0
 26 27  2  0
 26 28  2  0
 26 29  1  0
 29 30  1  0
 30 31  1  0
 31 32  1  0
 32 33  1  0
 33 34  1  0
 25 35  2  0
 10  5  1  0
 20 15  1  0
 35 21  1  0
 13  8  1  0
 34 29  1  0
  4 36  1  0
  6 37  1  0
  7 38  1  0
 10 39  1  0
 12 40  1  0
 14 41  1  0
 14 42  1  0
 16 43  1  0
 17 44  1  0
 18 45  1  0
 19 46  1  0
 20 47  1  0
 22 48  1  0
 23 49  1  0
 24 50  1  0
 30 51  1  0
 30 52  1  0
 31 53  1  0
 31 54  1  0
 32 55  1  0
 32 56  1  0
 33 57  1  0
 33 58  1  0
 34 59  1  0
 34 60  1  0
 35 61  1  0
M  END
>  <UniqueID>  (43) 
42

>  <SMILES>  (43) 
O=S(=O)(Nc1ccc2c(c1)ncn2Cc1ccccc1)c1cccc(S(=O)(=O)N2CCCCC2)c1

>  <Energy>  (43) 
107.24150995255248

>  <Genealogy>  (43) 
O=S(=O)(Nc1ccc2c(c1)ncn2Cc1ccccc1)c1cccc(S(=O)(=O)N2CCCCC2)c1 (3D coordinates assigned)
O=S(=O)(Nc1ccc2c(c1)ncn2Cc1ccccc1)c1cccc(S(=O)(=O)N2CCCCC2)c1 (nonaromatic ring conformer: 107.24150995255248 kcal/mol)

>  <smiles>  (43) 
O=S(=O)(Nc1ccc2c(c1)ncn2Cc1ccccc1)c1cccc(S(=O)(=O)N2CCCCC2)c1

>  <score_type>  (43) 
oracle

>  <origin>  (43) 
adgpu

>  <m_score__min__energy>  (43) 
-11.83

>  <m_primary>  (43) 
energy

$$$$
43:0
     RDKit          3D

 40 42  0  0  0  0  0  0  0  0999 V2000
   -7.6420   20.1140  -33.0830 C   0  0  0  0  0  0  0  0  0  0  0  0
   -7.0870   21.3030  -32.3570 C   0  0  0  0  0  0  0  0  0  0  0  0
   -7.9430   22.1910  -31.6880 C   0  0  0  0  0  0  0  0  0  0  0  0
   -7.4220   23.3140  -31.0360 C   0  0  0  0  0  0  0  0  0  0  0  0
   -6.0450   23.5700  -31.0630 C   0  0  0  0  0  0  0  0  0  0  0  0
   -5.4060   24.9820  -30.2280 S   0  0  0  0  0  0  0  0  0  0  0  0
   -6.5130   25.9820  -30.0510 O   0  0  0  0  0  0  0  0  0  0  0  0
   -4.3010   25.6230  -31.0180 O   0  0  0  0  0  0  0  0  0  0  0  0
   -4.8000   24.5230  -28.6690 N   0  0  0  0  0  0  0  0  0  0  0  0
   -3.6900   23.6430  -28.4330 C   0  0  0  0  0  0  0  0  0  0  0  0
   -3.8690   22.3260  -27.9790 C   0  0  0  0  0  0  0  0  0  0  0  0
   -2.7680   21.4870  -27.7530 C   0  0  0  0  0  0  0  0  0  0  0  0
   -1.4600   21.9830  -27.9590 C   0  0  0  0  0  0  0  0  0  0  0  0
   -1.2870   23.2920  -28.4290 C   0  0  0  0  0  0  0  0  0  0  0  0
   -2.3930   24.1210  -28.6610 C   0  0  0  0  0  0  0  0  0  0  0  0
   -2.2070   25.4230  -29.1260 O   0  0  0  0  0  0  0  0  0  0  0  0
   -0.2450   21.0990  -27.8000 C   0  0  0  0  0  0  0  0  0  0  0  0
   -0.5210   19.8660  -26.9330 C   0  0  0  0  0  0  0  0  0  0  0  0
   -1.8090   19.1750  -27.3810 C   0  0  0  0  0  0  0  0  0  0  0  0
   -3.0080   20.1060  -27.1870 C   0  0  0  0  0  0  0  0  0  0  0  0
   -5.1920   22.6960  -31.7500 C   0  0  0  0  0  0  0  0  0  0  0  0
   -5.7100   21.5690  -32.3960 C   0  0  0  0  0  0  0  0  0  0  0  0
   -7.9901   19.3683  -32.3531 H   0  0  0  0  0  0  0  0  0  0  0  0
   -8.4854   20.4306  -33.7142 H   0  0  0  0  0  0  0  0  0  0  0  0
   -6.8577   19.6709  -33.7142 H   0  0  0  0  0  0  0  0  0  0  0  0
   -9.0269   22.0037  -31.6761 H   0  0  0  0  0  0  0  0  0  0  0  0
   -8.0962   23.9984  -30.5002 H   0  0  0  0  0  0  0  0  0  0  0  0
   -4.8859   21.9476  -27.7983 H   0  0  0  0  0  0  0  0  0  0  0  0
   -0.2724   23.6728  -28.6178 H   0  0  0  0  0  0  0  0  0  0  0  0
   -2.9910   26.0260  -29.3430 H   0  0  0  0  0  0  0  0  0  0  0  0
    0.0790   20.7635  -28.7962 H   0  0  0  0  0  0  0  0  0  0  0  0
    0.5338   21.6914  -27.2974 H   0  0  0  0  0  0  0  0  0  0  0  0
    0.3191   19.1621  -27.0266 H   0  0  0  0  0  0  0  0  0  0  0  0
   -0.6333   20.1846  -25.8862 H   0  0  0  0  0  0  0  0  0  0  0  0
   -1.7259   18.9076  -28.4448 H   0  0  0  0  0  0  0  0  0  0  0  0
   -1.9581   18.2694  -26.7746 H   0  0  0  0  0  0  0  0  0  0  0  0
   -3.8813   19.6656  -27.6904 H   0  0  0  0  0  0  0  0  0  0  0  0
   -3.1754   20.2133  -26.1051 H   0  0  0  0  0  0  0  0  0  0  0  0
   -4.1110   22.8971  -31.7813 H   0  0  0  0  0  0  0  0  0  0  0  0
   -5.0355   20.8887  -32.9366 H   0  0  0  0  0  0  0  0  0  0  0  0
  1  2  1  0
  2  3  2  0
  3  4  1  0
  4  5  2  0
  5  6  1  0
  6  7  2  0
  6  8  2  0
  6  9  1  0
  9 10  1  0
 10 11  2  0
 11 12  1  0
 12 13  2  0
 13 14  1  0
 14 15  2  0
 15 16  1  0
 13 17  1  0
 17 18  1  0
 18 19  1  0
 19 20  1  0
  5 21  1  0
 21 22  2  0
 22  2  1  0
 15 10  1  0
 20 12  1  0
  1 23  1  0
  1 24  1  0
  1 25  1  0
  3 26  1  0
  4 27  1  0
 11 28  1  0
 14 29  1  0
 16 30  1  0
 17 31  1  0
 17 32  1  0
 18 33  1  0
 18 34  1  0
 19 35  1  0
 19 36  1  0
 20 37  1  0
 20 38  1  0
 21 39  1  0
 22 40  1  0
M  CHG  1   9  -1
M  END
>  <UniqueID>  (44) 
43

>  <SMILES>  (44) 
Cc1ccc(S(=O)(=O)[N-]c2cc3c(cc2O)CCCC3)cc1

>  <Energy>  (44) 
42.57419642344663

>  <Genealogy>  (44) 
Cc1ccc(S(=O)(=O)[N-]c2cc3c(cc2O)CCCC3)cc1 (protonated)
Cc1ccc(S(=O)(=O)[N-]c2cc3c(cc2O)CCCC3)cc1 (3D coordinates assigned)
Cc1ccc(S(=O)(=O)[N-]c2cc3c(cc2O)CCCC3)cc1 (nonaromatic ring conformer: 42.57419642344663 kcal/mol)

>  <smiles>  (44) 
Cc1ccc(S(=O)(=O)Nc2cc3c(cc2O)CCCC3)cc1

>  <score_type>  (44) 
oracle

>  <origin>  (44) 
adgpu

>  <m_score__min__energy>  (44) 
-10.25

>  <m_primary>  (44) 
energy

$$$$
44:0
     RDKit          3D

 40 42  0  0  0  0  0  0  0  0999 V2000
   -0.1200   23.0930  -24.3130 C   0  0  0  0  0  0  0  0  0  0  0  0
   -0.4340   23.8970  -25.5400 C   0  0  0  0  0  0  0  0  0  0  0  0
   -0.9990   25.1730  -25.4200 C   0  0  0  0  0  0  0  0  0  0  0  0
   -1.3420   25.9010  -26.5610 C   0  0  0  0  0  0  0  0  0  0  0  0
   -1.1440   25.3560  -27.8360 C   0  0  0  0  0  0  0  0  0  0  0  0
   -1.4950   26.0940  -28.9660 O   0  0  0  0  0  0  0  0  0  0  0  0
   -0.5970   24.0620  -27.9690 C   0  0  0  0  0  0  0  0  0  0  0  0
   -0.4770   23.3930  -29.3160 C   0  0  0  0  0  0  0  0  0  0  0  0
   -1.7270   22.7210  -29.6510 N   0  0  0  0  0  0  0  0  0  0  0  0
   -3.0130   23.3180  -29.4480 C   0  0  0  0  0  0  0  0  0  0  0  0
   -3.5720   23.2460  -28.3210 O   0  0  0  0  0  0  0  0  0  0  0  0
   -3.6910   23.9970  -30.5640 C   0  0  0  0  0  0  0  0  0  0  0  0
   -3.8590   25.2430  -30.5190 O   0  0  0  0  0  0  0  0  0  0  0  0
   -4.1760   23.2680  -31.7000 N   0  0  0  0  0  0  0  0  0  0  0  0
   -5.5150   22.7670  -31.8210 C   0  0  0  0  0  0  0  0  0  0  0  0
   -6.5820   23.5800  -31.3680 C   0  0  0  0  0  0  0  0  0  0  0  0
   -7.9030   23.1020  -31.3780 C   0  0  0  0  0  0  0  0  0  0  0  0
   -8.1240   21.8150  -31.8540 C   0  0  0  0  0  0  0  0  0  0  0  0
   -9.2940   21.1630  -31.9310 N   0  0  0  0  0  0  0  0  0  0  0  0
   -8.9200   19.9730  -32.4660 C   0  0  0  0  0  0  0  0  0  0  0  0
   -9.7440   19.0510  -32.7030 O   0  0  0  0  0  0  0  0  0  0  0  0
   -7.5950   19.8460  -32.7270 N   0  0  0  0  0  0  0  0  0  0  0  0
   -7.1120   21.0340  -32.3270 C   0  0  0  0  0  0  0  0  0  0  0  0
   -5.7840   21.4760  -32.3620 C   0  0  0  0  0  0  0  0  0  0  0  0
   -4.7050   20.6030  -32.9400 C   0  0  0  0  0  0  0  0  0  0  0  0
   -0.2490   23.3410  -26.8140 C   0  0  0  0  0  0  0  0  0  0  0  0
   -0.3518   23.6866  -23.4164 H   0  0  0  0  0  0  0  0  0  0  0  0
   -0.7256   22.1747  -24.3114 H   0  0  0  0  0  0  0  0  0  0  0  0
    0.9476   22.8282  -24.3114 H   0  0  0  0  0  0  0  0  0  0  0  0
   -1.1732   25.6033  -24.4228 H   0  0  0  0  0  0  0  0  0  0  0  0
   -1.7704   26.9089  -26.4579 H   0  0  0  0  0  0  0  0  0  0  0  0
   -1.9810   25.6710  -29.7470 H   0  0  0  0  0  0  0  0  0  0  0  0
   -0.2545   24.1514  -30.0811 H   0  0  0  0  0  0  0  0  0  0  0  0
    0.3341   22.6509  -29.2801 H   0  0  0  0  0  0  0  0  0  0  0  0
   -6.3743   24.5971  -31.0042 H   0  0  0  0  0  0  0  0  0  0  0  0
   -8.7354   23.7260  -31.0207 H   0  0  0  0  0  0  0  0  0  0  0  0
   -4.1319   20.1393  -32.1236 H   0  0  0  0  0  0  0  0  0  0  0  0
   -5.1618   19.8173  -33.5597 H   0  0  0  0  0  0  0  0  0  0  0  0
   -4.0319   21.2137  -33.5597 H   0  0  0  0  0  0  0  0  0  0  0  0
    0.1730   22.3297  -26.9103 H   0  0  0  0  0  0  0  0  0  0  0  0
  1  2  1  0
  2  3  2  0
  3  4  1  0
  4  5  2  0
  5  6  1  0
  5  7  1  0
  7  8  1  0
  8  9  1  0
  9 10  1  0
 10 11  2  0
 10 12  1  0
 12 13  2  0
 12 14  1  0
 14 15  1  0
 15 16  2  0
 16 17  1  0
 17 18  2  0
 18 19  1  0
 19 20  1  0
 20 21  2  0
 20 22  1  0
 22 23  1  0
 23 24  2  0
 24 25  1  0
  7 26  2  0
 26  2  1  0
 24 15  1  0
 23 18  1  0
  1 27  1  0
  1 28  1  0
  1 29  1  0
  3 30  1  0
  4 31  1  0
  6 32  1  0
  8 33  1  0
  8 34  1  0
 16 35  1  0
 17 36  1  0
 25 37  1  0
 25 38  1  0
 25 39  1  0
 26 40  1  0
M  CHG  4   9  -1  14  -1  19  -1  22  -1
M  END
>  <UniqueID>  (45) 
44

>  <SMILES>  (45) 
Cc1ccc(O)c(C[N-]C(=O)C(=O)[N-]c2ccc3[n-]c(=O)[n-]c3c2C)c1

>  <Energy>  (45) 
79.50346180572338

>  <Genealogy>  (45) 
Cc1ccc(O)c(C[N-]C(=O)C(=O)[N-]c2ccc3[n-]c(=O)[n-]c3c2C)c1 (protonated)
Cc1ccc(O)c(C[N-]C(=O)C(=O)[N-]c2ccc3[n-]c(=O)[n-]c3c2C)c1 (3D coordinates assigned)
Cc1ccc(O)c(C[N-]C(=O)C(=O)[N-]c2ccc3[n-]c(=O)[n-]c3c2C)c1 (optimized conformer: 79.50346180572338 kcal/mol)

>  <smiles>  (45) 
Cc1ccc(O)c(CNC(=O)C(=O)Nc2ccc3[nH]c(=O)[nH]c3c2C)c1

>  <score_type>  (45) 
oracle

>  <origin>  (45) 
adgpu

>  <m_score__min__energy>  (45) 
-10.32

>  <m_primary>  (45) 
energy

$$$$
45:0
     RDKit          3D

 52 54  0  0  0  0  0  0  0  0999 V2000
   -3.8430   19.1480  -35.0150 H   0  0  0  0  0  0  0  0  0  0  0  0
   -4.5790   18.5450  -34.5870 N   0  0  0  0  0  0  0  0  0  0  0  0
   -5.5350   19.0290  -33.8550 C   0  0  0  0  0  0  0  0  0  0  0  0
   -6.5190   18.1740  -33.3040 C   0  0  0  0  0  0  0  0  0  0  0  0
   -6.5080   16.7000  -33.5110 C   0  0  0  0  0  0  0  0  0  0  0  0
   -7.2070   16.1740  -34.4190 O   0  0  0  0  0  0  0  0  0  0  0  0
   -5.6950   15.8660  -32.6740 N   0  0  0  0  0  0  0  0  0  0  0  0
   -4.4440   15.2510  -33.1050 C   0  0  0  0  0  0  0  0  0  0  0  0
   -3.6071   15.7235  -32.5698 H   0  0  0  0  0  0  0  0  0  0  0  0
   -4.4851   14.1751  -32.8798 H   0  0  0  0  0  0  0  0  0  0  0  0
   -4.2400   15.4280  -34.6090 C   0  0  0  0  0  0  0  0  0  0  0  0
   -4.1123   14.4424  -35.0804 H   0  0  0  0  0  0  0  0  0  0  0  0
   -5.1178   15.9300  -35.0419 H   0  0  0  0  0  0  0  0  0  0  0  0
   -3.0870   16.2130  -34.8380 O   0  0  0  0  0  0  0  0  0  0  0  0
   -2.4120   16.4200  -33.6180 C   0  0  0  0  0  0  0  0  0  0  0  0
   -3.0946   16.2107  -32.7812 H   0  0  0  0  0  0  0  0  0  0  0  0
   -1.5440   15.7468  -33.5604 H   0  0  0  0  0  0  0  0  0  0  0  0
   -2.0707   17.4641  -33.5604 H   0  0  0  0  0  0  0  0  0  0  0  0
   -7.5500   18.7530  -32.5470 C   0  0  0  0  0  0  0  0  0  0  0  0
   -8.3331   18.1123  -32.1154 H   0  0  0  0  0  0  0  0  0  0  0  0
   -7.5930   20.1300  -32.3360 C   0  0  0  0  0  0  0  0  0  0  0  0
   -8.8890   20.8000  -31.3540 Cl  0  0  0  0  0  0  0  0  0  0  0  0
   -6.5910   20.9440  -32.8830 C   0  0  0  0  0  0  0  0  0  0  0  0
   -6.6420   22.3730  -32.7090 N   0  0  0  0  0  0  0  0  0  0  0  0
   -7.3610   22.9090  -33.2460 H   0  0  0  0  0  0  0  0  0  0  0  0
   -5.7230   23.1170  -31.8920 C   0  0  0  0  0  0  0  0  0  0  0  0
   -6.1420   24.3200  -31.3050 C   0  0  0  0  0  0  0  0  0  0  0  0
   -7.1640   24.6868  -31.4807 H   0  0  0  0  0  0  0  0  0  0  0  0
   -5.2690   25.0560  -30.4980 C   0  0  0  0  0  0  0  0  0  0  0  0
   -5.6015   26.0078  -30.0580 H   0  0  0  0  0  0  0  0  0  0  0  0
   -3.9670   24.5850  -30.2460 C   0  0  0  0  0  0  0  0  0  0  0  0
   -3.0540   25.2990  -29.4540 O   0  0  0  0  0  0  0  0  0  0  0  0
   -2.1600   24.7030  -28.5560 C   0  0  0  0  0  0  0  0  0  0  0  0
   -0.8570   24.4310  -28.9890 C   0  0  0  0  0  0  0  0  0  0  0  0
   -0.5621   24.6702  -30.0214 H   0  0  0  0  0  0  0  0  0  0  0  0
    0.0710   23.8570  -28.1160 C   0  0  0  0  0  0  0  0  0  0  0  0
    1.0962   23.6540  -28.4591 H   0  0  0  0  0  0  0  0  0  0  0  0
   -0.3030   23.5410  -26.8080 C   0  0  0  0  0  0  0  0  0  0  0  0
    0.4308   23.0956  -26.1201 H   0  0  0  0  0  0  0  0  0  0  0  0
   -1.6060   23.7890  -26.3710 C   0  0  0  0  0  0  0  0  0  0  0  0
   -1.8932   23.5421  -25.3383 H   0  0  0  0  0  0  0  0  0  0  0  0
   -2.5530   24.3530  -27.2450 C   0  0  0  0  0  0  0  0  0  0  0  0
   -3.9520   24.6040  -26.7540 C   0  0  0  0  0  0  0  0  0  0  0  0
   -3.9598   24.6054  -25.6540 H   0  0  0  0  0  0  0  0  0  0  0  0
   -4.3012   25.5791  -27.1244 H   0  0  0  0  0  0  0  0  0  0  0  0
   -4.6184   23.8111  -27.1244 H   0  0  0  0  0  0  0  0  0  0  0  0
   -3.5550   23.3780  -30.8200 C   0  0  0  0  0  0  0  0  0  0  0  0
   -2.5368   23.0052  -30.6345 H   0  0  0  0  0  0  0  0  0  0  0  0
   -4.4270   22.6410  -31.6280 C   0  0  0  0  0  0  0  0  0  0  0  0
   -4.0970   21.6842  -32.0589 H   0  0  0  0  0  0  0  0  0  0  0  0
   -5.6030   20.3760  -33.6360 N   0  0  0  0  0  0  0  0  0  0  0  0
   -4.8900   20.9960  -34.0840 H   0  0  0  0  0  0  0  0  0  0  0  0
  1  2  1  0
  2  3  2  0
  3  4  1  0
  4  5  1  0
  5  6  2  0
  5  7  1  0
  7  8  1  0
  8  9  1  0
  8 10  1  0
  8 11  1  0
 11 12  1  0
 11 13  1  0
 11 14  1  0
 14 15  1  0
 15 16  1  0
 15 17  1  0
 15 18  1  0
  4 19  2  0
 19 20  1  0
 19 21  1  0
 21 22  1  0
 21 23  2  0
 23 24  1  0
 24 25  1  0
 24 26  1  0
 26 27  2  0
 27 28  1  0
 27 29  1  0
 29 30  1  0
 29 31  2  0
 31 32  1  0
 32 33  1  0
 33 34  2  0
 34 35  1  0
 34 36  1  0
 36 37  1  0
 36 38  2  0
 38 39  1  0
 38 40  1  0
 40 41  1  0
 40 42  2  0
 42 43  1  0
 43 44  1  0
 43 45  1  0
 43 46  1  0
 31 47  1  0
 47 48  1  0
 47 49  2  0
 49 50  1  0
 23 51  1  0
 51 52  1  0
 51  3  1  0
 49 26  1  0
 42 33  1  0
M  CHG  1   7  -1
M  END
>  <UniqueID>  (46) 
45

>  <SMILES>  (46) 
[H]/N=c1\[nH]c(Nc2ccc(Oc3ccccc3C)cc2)c(Cl)cc1C(=O)[N-]CCOC

>  <Energy>  (46) 
68.73046725573613

>  <Genealogy>  (46) 
COCC[N-]C(=O)c1cc(Cl)c(Nc2ccc(Oc3ccccc3C)cc2)[nH]c1=N (protonated)
[H]/N=c1\[nH]c(Nc2ccc(Oc3ccccc3C)cc2)c(Cl)cc1C(=O)[N-]CCOC (cis-trans isomerization)
[H]/N=c1\[nH]c(Nc2ccc(Oc3ccccc3C)cc2)c(Cl)cc1C(=O)[N-]CCOC (3D coordinates assigned)
[H]/N=c1\[nH]c(Nc2ccc(Oc3ccccc3C)cc2)c(Cl)cc1C(=O)[N-]CCOC (optimized conformer: 68.73046725573613 kcal/mol)

>  <smiles>  (46) 
COCCNC(=O)c1cc(Cl)c(Nc2ccc(Oc3ccccc3C)cc2)[nH]c1=N

>  <score_type>  (46) 
oracle

>  <origin>  (46) 
adgpu

>  <m_score__min__energy>  (46) 
-10.800000000000001

>  <m_primary>  (46) 
energy

$$$$
46:0
     RDKit          3D

 47 50  0  0  0  0  0  0  0  0999 V2000
   -3.5280   19.2850  -34.1090 C   0  0  0  0  0  0  0  0  0  0  0  0
   -2.4220   20.1390  -33.5800 C   0  0  0  0  0  0  0  0  0  0  0  0
   -2.1930   20.4510  -32.2560 C   0  0  0  0  0  0  0  0  0  0  0  0
   -1.0920   21.2980  -32.3200 C   0  0  0  0  0  0  0  0  0  0  0  0
   -0.4870   21.8810  -31.3250 N   0  0  0  0  0  0  0  0  0  0  0  0
   -0.7880   21.6780  -29.9340 C   0  0  0  0  0  0  0  0  0  0  0  0
    0.0700   21.1140  -29.2030 O   0  0  0  0  0  0  0  0  0  0  0  0
   -2.0970   22.0670  -29.3580 C   0  0  0  0  0  0  0  0  0  0  0  0
   -2.5310   21.5130  -28.1400 C   0  0  0  0  0  0  0  0  0  0  0  0
   -3.7440   21.9170  -27.5740 C   0  0  0  0  0  0  0  0  0  0  0  0
   -4.5380   22.8690  -28.2210 C   0  0  0  0  0  0  0  0  0  0  0  0
   -4.1300   23.4100  -29.4490 C   0  0  0  0  0  0  0  0  0  0  0  0
   -5.1190   24.6300  -30.2500 S   0  0  0  0  0  0  0  0  0  0  0  0
   -4.2170   25.6740  -30.8470 O   0  0  0  0  0  0  0  0  0  0  0  0
   -6.0220   25.2960  -29.2450 O   0  0  0  0  0  0  0  0  0  0  0  0
   -6.0820   23.8770  -31.5030 N   0  0  0  0  0  0  0  0  0  0  0  0
   -7.4760   23.7350  -31.0300 C   0  0  0  0  0  0  0  0  0  0  0  0
   -8.2890   22.8140  -31.9430 C   0  0  0  0  0  0  0  0  0  0  0  0
   -7.6600   21.4580  -31.9150 C   0  0  0  0  0  0  0  0  0  0  0  0
   -8.4370   20.2900  -31.8990 C   0  0  0  0  0  0  0  0  0  0  0  0
   -7.8180   19.0380  -31.8170 C   0  0  0  0  0  0  0  0  0  0  0  0
   -6.4250   18.9490  -31.7510 C   0  0  0  0  0  0  0  0  0  0  0  0
   -5.6470   20.1140  -31.7830 C   0  0  0  0  0  0  0  0  0  0  0  0
   -6.2610   21.3730  -31.8570 C   0  0  0  0  0  0  0  0  0  0  0  0
   -5.4280   22.6310  -32.0020 C   0  0  0  0  0  0  0  0  0  0  0  0
   -2.9170   22.9990  -30.0180 C   0  0  0  0  0  0  0  0  0  0  0  0
   -0.7370   21.4640  -33.5720 O   0  0  0  0  0  0  0  0  0  0  0  0
   -1.5200   20.7780  -34.3510 N   0  0  0  0  0  0  0  0  0  0  0  0
   -4.0900   18.8510  -33.2689 H   0  0  0  0  0  0  0  0  0  0  0  0
   -4.2030   19.8985  -34.7238 H   0  0  0  0  0  0  0  0  0  0  0  0
   -3.1052   18.4767  -34.7238 H   0  0  0  0  0  0  0  0  0  0  0  0
   -2.7459   20.1127  -31.3673 H   0  0  0  0  0  0  0  0  0  0  0  0
   -1.9134   20.7586  -27.6306 H   0  0  0  0  0  0  0  0  0  0  0  0
   -4.0744   21.4851  -26.6178 H   0  0  0  0  0  0  0  0  0  0  0  0
   -5.4850   23.1944  -27.7657 H   0  0  0  0  0  0  0  0  0  0  0  0
   -7.4672   23.3135  -30.0140 H   0  0  0  0  0  0  0  0  0  0  0  0
   -7.9454   24.7298  -31.0382 H   0  0  0  0  0  0  0  0  0  0  0  0
   -9.3260   22.7514  -31.5813 H   0  0  0  0  0  0  0  0  0  0  0  0
   -8.2990   23.2080  -32.9700 H   0  0  0  0  0  0  0  0  0  0  0  0
   -9.5336   20.3586  -31.9510 H   0  0  0  0  0  0  0  0  0  0  0  0
   -8.4283   18.1229  -31.8045 H   0  0  0  0  0  0  0  0  0  0  0  0
   -5.9395   17.9650  -31.6740 H   0  0  0  0  0  0  0  0  0  0  0  0
   -4.5499   20.0409  -31.7499 H   0  0  0  0  0  0  0  0  0  0  0  0
   -4.4922   22.4880  -31.4418 H   0  0  0  0  0  0  0  0  0  0  0  0
   -5.2708   22.7751  -33.0811 H   0  0  0  0  0  0  0  0  0  0  0  0
   -2.6038   23.4092  -30.9894 H   0  0  0  0  0  0  0  0  0  0  0  0
   -1.4580   20.7530  -35.3950 H   0  0  0  0  0  0  0  0  0  0  0  0
  1  2  1  0
  2  3  2  0
  3  4  1  0
  4  5  2  3
  5  6  1  0
  6  7  2  0
  6  8  1  0
  8  9  2  0
  9 10  1  0
 10 11  2  0
 11 12  1  0
 12 13  1  0
 13 14  2  0
 13 15  2  0
 13 16  1  0
 16 17  1  0
 17 18  1  0
 18 19  1  0
 19 20  2  0
 20 21  1  0
 21 22  2  0
 22 23  1  0
 23 24  2  0
 24 25  1  0
 12 26  2  0
  4 27  1  0
 27 28  1  0
 28  2  1  0
 26  8  1  0
 25 16  1  0
 24 19  1  0
  1 29  1  0
  1 30  1  0
  1 31  1  0
  3 32  1  0
  9 33  1  0
 10 34  1  0
 11 35  1  0
 17 36  1  0
 17 37  1  0
 18 38  1  0
 18 39  1  0
 20 40  1  0
 21 41  1  0
 22 42  1  0
 23 43  1  0
 25 44  1  0
 25 45  1  0
 26 46  1  0
 28 47  1  0
M  END
>  <UniqueID>  (47) 
46

>  <SMILES>  (47) 
Cc1cc(=NC(=O)c2cccc(S(=O)(=O)N3CCc4ccccc4C3)c2)o[nH]1

>  <Energy>  (47) 
95.33083290593994

>  <Genealogy>  (47) 
Cc1cc(=NC(=O)c2cccc(S(=O)(=O)N3CCc4ccccc4C3)c2)o[nH]1 (3D coordinates assigned)
Cc1cc(=NC(=O)c2cccc(S(=O)(=O)N3CCc4ccccc4C3)c2)o[nH]1 (nonaromatic ring conformer: 95.33083290593994 kcal/mol)

>  <smiles>  (47) 
Cc1cc(=NC(=O)c2cccc(S(=O)(=O)N3CCc4ccccc4C3)c2)o[nH]1

>  <score_type>  (47) 
oracle

>  <origin>  (47) 
adgpu

>  <m_score__min__energy>  (47) 
-10.84

>  <m_primary>  (47) 
energy

$$$$
47:0
     RDKit          3D

 51 54  0  0  0  0  0  0  0  0999 V2000
   -9.4430   18.1790  -31.8230 C   0  0  0  0  0  0  0  0  0  0  0  0
   -8.3970   19.2540  -31.8330 C   0  0  0  0  0  0  0  0  0  0  0  0
   -8.7660   20.5920  -31.6250 C   0  0  0  0  0  0  0  0  0  0  0  0
   -7.7920   21.5940  -31.5770 C   0  0  0  0  0  0  0  0  0  0  0  0
   -6.4390   21.2690  -31.7400 C   0  0  0  0  0  0  0  0  0  0  0  0
   -5.1970   22.5150  -31.6300 S   0  0  0  0  0  0  0  0  0  0  0  0
   -5.4600   23.5840  -32.6530 O   0  0  0  0  0  0  0  0  0  0  0  0
   -3.8450   21.9140  -31.8950 O   0  0  0  0  0  0  0  0  0  0  0  0
   -5.2230   23.2240  -30.0520 N   0  0  0  0  0  0  0  0  0  0  0  0
   -4.0000   23.4930  -29.3670 C   0  0  0  0  0  0  0  0  0  0  0  0
   -3.4440   22.5160  -28.5370 C   0  0  0  0  0  0  0  0  0  0  0  0
   -2.1890   22.7170  -27.9270 C   0  0  0  0  0  0  0  0  0  0  0  0
   -1.5390   23.9600  -28.1090 C   0  0  0  0  0  0  0  0  0  0  0  0
   -2.1060   24.9360  -28.9430 C   0  0  0  0  0  0  0  0  0  0  0  0
   -3.3280   24.7020  -29.5740 C   0  0  0  0  0  0  0  0  0  0  0  0
   -3.8700   25.6740  -30.4070 O   0  0  0  0  0  0  0  0  0  0  0  0
   -0.2100   24.2210  -27.4590 C   0  0  0  0  0  0  0  0  0  0  0  0
   -0.1040   23.4580  -26.1410 C   0  0  0  0  0  0  0  0  0  0  0  0
   -0.3190   21.9630  -26.3780 C   0  0  0  0  0  0  0  0  0  0  0  0
   -1.5690   21.6920  -27.1060 N   0  0  0  0  0  0  0  0  0  0  0  0
   -2.1110   20.0350  -27.1660 S   0  0  0  0  0  0  0  0  0  0  0  0
   -2.3980   19.5500  -25.7720 O   0  0  0  0  0  0  0  0  0  0  0  0
   -3.3670   19.9360  -27.9850 O   0  0  0  0  0  0  0  0  0  0  0  0
   -0.8950   18.9980  -27.9110 C   0  0  0  0  0  0  0  0  0  0  0  0
   -0.4340   19.2800  -29.2050 C   0  0  0  0  0  0  0  0  0  0  0  0
    0.5410   18.4700  -29.7950 C   0  0  0  0  0  0  0  0  0  0  0  0
    1.0630   17.3790  -29.0950 C   0  0  0  0  0  0  0  0  0  0  0  0
    0.6100   17.0970  -27.8020 C   0  0  0  0  0  0  0  0  0  0  0  0
   -0.3640   17.9050  -27.2090 C   0  0  0  0  0  0  0  0  0  0  0  0
   -6.0670   19.9320  -31.9390 C   0  0  0  0  0  0  0  0  0  0  0  0
   -7.0390   18.9290  -31.9760 C   0  0  0  0  0  0  0  0  0  0  0  0
   -9.6939   17.9212  -30.7835 H   0  0  0  0  0  0  0  0  0  0  0  0
  -10.3448   18.5401  -32.3391 H   0  0  0  0  0  0  0  0  0  0  0  0
   -9.0574   17.2874  -32.3391 H   0  0  0  0  0  0  0  0  0  0  0  0
   -9.8270   20.8538  -31.4991 H   0  0  0  0  0  0  0  0  0  0  0  0
   -8.0888   22.6401  -31.4108 H   0  0  0  0  0  0  0  0  0  0  0  0
   -3.9919   21.5792  -28.3575 H   0  0  0  0  0  0  0  0  0  0  0  0
   -1.5837   25.8913  -29.1001 H   0  0  0  0  0  0  0  0  0  0  0  0
    0.5943   23.8927  -28.1337 H   0  0  0  0  0  0  0  0  0  0  0  0
   -0.1169   25.2982  -27.2565 H   0  0  0  0  0  0  0  0  0  0  0  0
    0.8946   23.6174  -25.7081 H   0  0  0  0  0  0  0  0  0  0  0  0
   -0.8761   23.8266  -25.4496 H   0  0  0  0  0  0  0  0  0  0  0  0
    0.5252   21.5719  -26.9649 H   0  0  0  0  0  0  0  0  0  0  0  0
   -0.3850   21.4705  -25.3966 H   0  0  0  0  0  0  0  0  0  0  0  0
   -0.8403   20.1403  -29.7570 H   0  0  0  0  0  0  0  0  0  0  0  0
    0.8977   18.6918  -30.8116 H   0  0  0  0  0  0  0  0  0  0  0  0
    1.8297   16.7423  -29.5605 H   0  0  0  0  0  0  0  0  0  0  0  0
    1.0209   16.2381  -27.2512 H   0  0  0  0  0  0  0  0  0  0  0  0
   -0.7150   17.6838  -26.1902 H   0  0  0  0  0  0  0  0  0  0  0  0
   -5.0059   19.6717  -32.0665 H   0  0  0  0  0  0  0  0  0  0  0  0
   -6.7388   17.8803  -32.1178 H   0  0  0  0  0  0  0  0  0  0  0  0
  1  2  1  0
  2  3  2  0
  3  4  1  0
  4  5  2  0
  5  6  1  0
  6  7  2  0
  6  8  2  0
  6  9  1  0
  9 10  1  0
 10 11  2  0
 11 12  1  0
 12 13  2  0
 13 14  1  0
 14 15  2  0
 15 16  1  0
 13 17  1  0
 17 18  1  0
 18 19  1  0
 19 20  1  0
 20 21  1  0
 21 22  2  0
 21 23  2  0
 21 24  1  0
 24 25  2  0
 25 26  1  0
 26 27  2  0
 27 28  1  0
 28 29  2  0
  5 30  1  0
 30 31  2  0
 31  2  1  0
 15 10  1  0
 29 24  1  0
 20 12  1  0
  1 32  1  0
  1 33  1  0
  1 34  1  0
  3 35  1  0
  4 36  1  0
 11 37  1  0
 14 38  1  0
 17 39  1  0
 17 40  1  0
 18 41  1  0
 18 42  1  0
 19 43  1  0
 19 44  1  0
 25 45  1  0
 26 46  1  0
 27 47  1  0
 28 48  1  0
 29 49  1  0
 30 50  1  0
 31 51  1  0
M  CHG  2   9  -1  16  -1
M  END
>  <UniqueID>  (48) 
47

>  <SMILES>  (48) 
Cc1ccc(S(=O)(=O)[N-]c2cc3c(cc2[O-])CCCN3S(=O)(=O)c2ccccc2)cc1

>  <Energy>  (48) 
65.25360592921223

>  <Genealogy>  (48) 
Cc1ccc(S(=O)(=O)[N-]c2cc3c(cc2[O-])CCCN3S(=O)(=O)c2ccccc2)cc1 (protonated)
Cc1ccc(S(=O)(=O)[N-]c2cc3c(cc2[O-])CCCN3S(=O)(=O)c2ccccc2)cc1 (3D coordinates assigned)
Cc1ccc(S(=O)(=O)[N-]c2cc3c(cc2[O-])CCCN3S(=O)(=O)c2ccccc2)cc1 (nonaromatic ring conformer: 65.25360592921223 kcal/mol)

>  <smiles>  (48) 
Cc1ccc(S(=O)(=O)Nc2cc3c(cc2O)CCCN3S(=O)(=O)c2ccccc2)cc1

>  <score_type>  (48) 
oracle

>  <origin>  (48) 
adgpu

>  <m_score__min__energy>  (48) 
-14.109999999999999

>  <m_primary>  (48) 
energy

$$$$
48:0
     RDKit          3D

 51 54  0  0  0  0  0  0  0  0999 V2000
   -3.0380   14.3180  -32.7220 C   0  0  0  0  0  0  0  0  0  0  0  0
   -3.4560   15.7150  -33.0370 C   0  0  0  0  0  0  0  0  0  0  0  0
   -4.6280   16.0830  -33.6610 C   0  0  0  0  0  0  0  0  0  0  0  0
   -4.6230   17.4220  -33.7910 N   0  0  0  0  0  0  0  0  0  0  0  0
   -5.7030   18.2280  -34.2950 C   0  0  0  0  0  0  0  0  0  0  0  0
   -5.9900   18.1870  -35.5210 O   0  0  0  0  0  0  0  0  0  0  0  0
   -6.4990   19.0940  -33.3920 C   0  0  0  0  0  0  0  0  0  0  0  0
   -7.6690   18.6050  -32.7940 C   0  0  0  0  0  0  0  0  0  0  0  0
   -8.4220   19.4190  -31.9470 C   0  0  0  0  0  0  0  0  0  0  0  0
   -8.0280   20.7410  -31.6820 C   0  0  0  0  0  0  0  0  0  0  0  0
   -8.8750   21.5790  -30.7620 C   0  0  0  0  0  0  0  0  0  0  0  0
   -6.8730   21.2590  -32.3170 C   0  0  0  0  0  0  0  0  0  0  0  0
   -6.3300   22.9280  -32.0620 S   0  0  0  0  0  0  0  0  0  0  0  0
   -5.0110   23.1390  -32.7540 O   0  0  0  0  0  0  0  0  0  0  0  0
   -7.3560   23.8530  -32.6530 O   0  0  0  0  0  0  0  0  0  0  0  0
   -6.1540   23.2490  -30.3470 N   0  0  0  0  0  0  0  0  0  0  0  0
   -4.8040   22.8940  -29.8540 C   0  0  0  0  0  0  0  0  0  0  0  0
   -3.8750   24.1170  -29.7280 C   0  0  0  0  0  0  0  0  0  0  0  0
   -4.1830   25.0700  -30.7210 O   0  0  0  0  0  0  0  0  0  0  0  0
   -5.4500   25.6530  -30.4680 C   0  0  0  0  0  0  0  0  0  0  0  0
   -6.5220   24.6350  -30.0080 C   0  0  0  0  0  0  0  0  0  0  0  0
   -6.1160   20.4230  -33.1560 C   0  0  0  0  0  0  0  0  0  0  0  0
   -3.4410   17.8240  -33.2670 C   0  0  0  0  0  0  0  0  0  0  0  0
   -3.0440   19.1920  -33.1210 N   0  0  0  0  0  0  0  0  0  0  0  0
   -2.3400   19.9240  -34.0060 C   0  0  0  0  0  0  0  0  0  0  0  0
   -2.0600   21.1620  -33.4640 C   0  0  0  0  0  0  0  0  0  0  0  0
   -2.6020   21.1690  -32.1930 C   0  0  0  0  0  0  0  0  0  0  0  0
   -3.1880   19.9330  -32.0080 C   0  0  0  0  0  0  0  0  0  0  0  0
   -2.7020   16.8040  -32.7820 N   0  0  0  0  0  0  0  0  0  0  0  0
   -2.9980   14.1844  -31.6309 H   0  0  0  0  0  0  0  0  0  0  0  0
   -3.7643   13.6123  -33.1514 H   0  0  0  0  0  0  0  0  0  0  0  0
   -2.0434   14.1272  -33.1514 H   0  0  0  0  0  0  0  0  0  0  0  0
   -5.4259   15.4029  -33.9937 H   0  0  0  0  0  0  0  0  0  0  0  0
   -7.9953   17.5736  -32.9937 H   0  0  0  0  0  0  0  0  0  0  0  0
   -9.3353   19.0206  -31.4811 H   0  0  0  0  0  0  0  0  0  0  0  0
   -8.6307   21.3373  -29.7170 H   0  0  0  0  0  0  0  0  0  0  0  0
   -8.6749   22.6445  -30.9483 H   0  0  0  0  0  0  0  0  0  0  0  0
   -9.9383   21.3675  -30.9483 H   0  0  0  0  0  0  0  0  0  0  0  0
   -4.9033   22.4243  -28.8643 H   0  0  0  0  0  0  0  0  0  0  0  0
   -4.3528   22.2088  -30.5867 H   0  0  0  0  0  0  0  0  0  0  0  0
   -4.0066   24.5719  -28.7352 H   0  0  0  0  0  0  0  0  0  0  0  0
   -2.8329   23.7896  -29.8573 H   0  0  0  0  0  0  0  0  0  0  0  0
   -5.3320   26.4127  -29.6812 H   0  0  0  0  0  0  0  0  0  0  0  0
   -5.8014   26.0836  -31.4173 H   0  0  0  0  0  0  0  0  0  0  0  0
   -6.6404   24.7136  -28.9172 H   0  0  0  0  0  0  0  0  0  0  0  0
   -7.4604   24.8730  -30.5303 H   0  0  0  0  0  0  0  0  0  0  0  0
   -5.2080   20.8174  -33.6356 H   0  0  0  0  0  0  0  0  0  0  0  0
   -2.0349   19.5866  -35.0075 H   0  0  0  0  0  0  0  0  0  0  0  0
   -1.5121   21.9832  -33.9493 H   0  0  0  0  0  0  0  0  0  0  0  0
   -2.5723   21.9975  -31.4700 H   0  0  0  0  0  0  0  0  0  0  0  0
   -3.6958   19.6040  -31.0894 H   0  0  0  0  0  0  0  0  0  0  0  0
  1  2  1  0
  2  3  2  0
  3  4  1  0
  4  5  1  0
  5  6  2  0
  5  7  1  0
  7  8  2  0
  8  9  1  0
  9 10  2  0
 10 11  1  0
 10 12  1  0
 12 13  1  0
 13 14  2  0
 13 15  2  0
 13 16  1  0
 16 17  1  0
 17 18  1  0
 18 19  1  0
 19 20  1  0
 20 21  1  0
 12 22  2  0
  4 23  1  0
 23 24  1  0
 24 25  1  0
 25 26  2  0
 26 27  1  0
 27 28  2  0
 23 29  2  0
 29  2  1  0
 22  7  1  0
 28 24  1  0
 21 16  1  0
  1 30  1  0
  1 31  1  0
  1 32  1  0
  3 33  1  0
  8 34  1  0
  9 35  1  0
 11 36  1  0
 11 37  1  0
 11 38  1  0
 17 39  1  0
 17 40  1  0
 18 41  1  0
 18 42  1  0
 20 43  1  0
 20 44  1  0
 21 45  1  0
 21 46  1  0
 22 47  1  0
 25 48  1  0
 26 49  1  0
 27 50  1  0
 28 51  1  0
M  END
>  <UniqueID>  (49) 
48

>  <SMILES>  (49) 
Cc1cn(C(=O)c2ccc(C)c(S(=O)(=O)N3CCOCC3)c2)c(-n2cccc2)n1

>  <Energy>  (49) 
132.41818529963305

>  <Genealogy>  (49) 
Cc1cn(C(=O)c2ccc(C)c(S(=O)(=O)N3CCOCC3)c2)c(-n2cccc2)n1 (3D coordinates assigned)
Cc1cn(C(=O)c2ccc(C)c(S(=O)(=O)N3CCOCC3)c2)c(-n2cccc2)n1 (nonaromatic ring conformer: 132.41818529963305 kcal/mol)

>  <smiles>  (49) 
Cc1cn(C(=O)c2ccc(C)c(S(=O)(=O)N3CCOCC3)c2)c(-n2cccc2)n1

>  <score_type>  (49) 
oracle

>  <origin>  (49) 
adgpu

>  <m_score__min__energy>  (49) 
-10.16

>  <m_primary>  (49) 
energy

$$$$
49:0
     RDKit          3D

 45 47  0  0  0  0  0  0  0  0999 V2000
   -1.2150   21.7860  -26.6590 C   0  0  0  0  0  0  0  0  0  0  0  0
   -1.8190   22.7150  -27.6780 C   0  0  0  0  0  0  0  0  0  0  0  0
   -3.0170   22.3340  -28.3020 C   0  0  0  0  0  0  0  0  0  0  0  0
   -3.6450   23.1770  -29.2150 C   0  0  0  0  0  0  0  0  0  0  0  0
   -3.0970   24.4240  -29.5150 C   0  0  0  0  0  0  0  0  0  0  0  0
   -3.8100   25.2960  -30.4020 N   0  0  0  0  0  0  0  0  0  0  0  0
   -4.9860   24.9170  -31.1240 C   0  0  0  0  0  0  0  0  0  0  0  0
   -6.0210   25.6280  -31.0240 O   0  0  0  0  0  0  0  0  0  0  0  0
   -4.9810   23.7370  -31.9400 N   0  0  0  0  0  0  0  0  0  0  0  0
   -6.0300   22.7690  -32.0770 C   0  0  0  0  0  0  0  0  0  0  0  0
   -7.3710   23.0650  -31.7680 C   0  0  0  0  0  0  0  0  0  0  0  0
   -8.3630   22.0950  -31.9420 C   0  0  0  0  0  0  0  0  0  0  0  0
   -8.0310   20.8270  -32.4380 C   0  0  0  0  0  0  0  0  0  0  0  0
   -9.0100   19.8530  -32.6130 O   0  0  0  0  0  0  0  0  0  0  0  0
   -6.7030   20.5380  -32.7670 C   0  0  0  0  0  0  0  0  0  0  0  0
   -5.7090   21.5070  -32.5950 C   0  0  0  0  0  0  0  0  0  0  0  0
   -1.8550   24.7900  -28.9640 C   0  0  0  0  0  0  0  0  0  0  0  0
   -1.2720   25.9960  -29.3430 O   0  0  0  0  0  0  0  0  0  0  0  0
   -1.2010   23.9400  -28.0450 C   0  0  0  0  0  0  0  0  0  0  0  0
    0.3340   24.4510  -27.3030 S   0  0  0  0  0  0  0  0  0  0  0  0
    0.7360   23.4370  -26.2670 O   0  0  0  0  0  0  0  0  0  0  0  0
    1.4380   24.5240  -28.3210 O   0  0  0  0  0  0  0  0  0  0  0  0
    0.1260   26.0250  -26.5860 N   0  0  0  0  0  0  0  0  0  0  0  0
   -1.1930   26.3700  -26.0410 C   0  0  0  0  0  0  0  0  0  0  0  0
   -1.0910   27.4840  -24.9940 C   0  0  0  0  0  0  0  0  0  0  0  0
   -0.3920   28.7060  -25.5910 C   0  0  0  0  0  0  0  0  0  0  0  0
    0.9130   28.3320  -26.1230 N   0  0  0  0  0  0  0  0  0  0  0  0
    1.1360   27.0440  -26.7020 C   0  0  0  0  0  0  0  0  0  0  0  0
    2.2300   26.8110  -27.2790 O   0  0  0  0  0  0  0  0  0  0  0  0
   -1.4505   22.1483  -25.6474 H   0  0  0  0  0  0  0  0  0  0  0  0
   -1.6295   20.7759  -26.7925 H   0  0  0  0  0  0  0  0  0  0  0  0
   -0.1236   21.7550  -26.7925 H   0  0  0  0  0  0  0  0  0  0  0  0
   -3.4653   21.3574  -28.0669 H   0  0  0  0  0  0  0  0  0  0  0  0
   -4.5782   22.8579  -29.7022 H   0  0  0  0  0  0  0  0  0  0  0  0
   -7.6393   24.0620  -31.3886 H   0  0  0  0  0  0  0  0  0  0  0  0
   -9.4078   22.3280  -31.6886 H   0  0  0  0  0  0  0  0  0  0  0  0
   -9.0620   19.3010  -33.4620 H   0  0  0  0  0  0  0  0  0  0  0  0
   -6.4393   19.5459  -33.1622 H   0  0  0  0  0  0  0  0  0  0  0  0
   -4.6686   21.2770  -32.8681 H   0  0  0  0  0  0  0  0  0  0  0  0
   -1.8421   26.7087  -26.8620 H   0  0  0  0  0  0  0  0  0  0  0  0
   -1.6119   25.4760  -25.5558 H   0  0  0  0  0  0  0  0  0  0  0  0
   -2.1017   27.7677  -24.6654 H   0  0  0  0  0  0  0  0  0  0  0  0
   -0.5066   27.1189  -24.1366 H   0  0  0  0  0  0  0  0  0  0  0  0
   -1.0104   29.1176  -26.4023 H   0  0  0  0  0  0  0  0  0  0  0  0
   -0.2544   29.4606  -24.8026 H   0  0  0  0  0  0  0  0  0  0  0  0
  1  2  1  0
  2  3  2  0
  3  4  1  0
  4  5  2  0
  5  6  1  0
  6  7  1  0
  7  8  2  0
  7  9  1  0
  9 10  1  0
 10 11  2  0
 11 12  1  0
 12 13  2  0
 13 14  1  0
 13 15  1  0
 15 16  2  0
  5 17  1  0
 17 18  1  0
 17 19  2  0
 19 20  1  0
 20 21  2  0
 20 22  2  0
 20 23  1  0
 23 24  1  0
 24 25  1  0
 25 26  1  0
 26 27  1  0
 27 28  1  0
 28 29  2  0
 19  2  1  0
 28 23  1  0
 16 10  1  0
  1 30  1  0
  1 31  1  0
  1 32  1  0
  3 33  1  0
  4 34  1  0
 11 35  1  0
 12 36  1  0
 14 37  1  0
 15 38  1  0
 16 39  1  0
 24 40  1  0
 24 41  1  0
 25 42  1  0
 25 43  1  0
 26 44  1  0
 26 45  1  0
M  CHG  4   6  -1   9  -1  18  -1  27  -1
M  END
>  <UniqueID>  (50) 
49

>  <SMILES>  (50) 
Cc1ccc([N-]C(=O)[N-]c2ccc(O)cc2)c([O-])c1S(=O)(=O)N1CCC[N-]C1=O

>  <Energy>  (50) 
57.21739874433896

>  <Genealogy>  (50) 
Cc1ccc([N-]C(=O)[N-]c2ccc(O)cc2)c([O-])c1S(=O)(=O)N1CCC[N-]C1=O (protonated)
Cc1ccc([N-]C(=O)[N-]c2ccc(O)cc2)c([O-])c1S(=O)(=O)N1CCC[N-]C1=O (3D coordinates assigned)
Cc1ccc([N-]C(=O)[N-]c2ccc(O)cc2)c([O-])c1S(=O)(=O)N1CCC[N-]C1=O (nonaromatic ring conformer: 57.21739874433896 kcal/mol)

>  <smiles>  (50) 
Cc1ccc(NC(=O)Nc2ccc(O)cc2)c(O)c1S(=O)(=O)N1CCCNC1=O

>  <score_type>  (50) 
oracle

>  <origin>  (50) 
adgpu

>  <m_score__min__energy>  (50) 
-14.390000000000001

>  <m_primary>  (50) 
energy

$$$$
