0:0
     RDKit          3D

 48 51  0  0  0  0  0  0  0  0999 V2000
   -0.4670   21.9160  -34.1250 O   0  0  0  0  0  0  0  0  0  0  0  0
    0.0430   20.8430  -34.5460 C   0  0  0  0  0  0  0  0  0  0  0  0
    1.4780   20.8320  -34.9780 C   0  0  0  0  0  0  0  0  0  0  0  0
    1.8630   22.1760  -35.5330 C   0  0  0  0  0  0  0  0  0  0  0  0
    3.0830   22.7700  -35.1780 C   0  0  0  0  0  0  0  0  0  0  0  0
    3.4110   24.0360  -35.6670 C   0  0  0  0  0  0  0  0  0  0  0  0
    2.5120   24.7010  -36.5040 C   0  0  0  0  0  0  0  0  0  0  0  0
    1.3290   24.1170  -36.8350 N   0  0  0  0  0  0  0  0  0  0  0  0
    0.9860   22.8840  -36.3720 C   0  0  0  0  0  0  0  0  0  0  0  0
   -0.7570   19.6590  -34.6900 N   0  0  0  0  0  0  0  0  0  0  0  0
   -2.0990   19.5260  -34.1910 C   0  0  0  0  0  0  0  0  0  0  0  0
   -2.8100   18.3200  -34.3090 C   0  0  0  0  0  0  0  0  0  0  0  0
   -4.1240   18.2230  -33.8380 C   0  0  0  0  0  0  0  0  0  0  0  0
   -4.7600   19.3380  -33.2580 C   0  0  0  0  0  0  0  0  0  0  0  0
   -6.1490   19.2520  -32.7380 C   0  0  0  0  0  0  0  0  0  0  0  0
   -6.9160   20.4020  -32.4850 C   0  0  0  0  0  0  0  0  0  0  0  0
   -8.2190   20.2700  -31.9930 C   0  0  0  0  0  0  0  0  0  0  0  0
   -9.1980   21.7320  -31.6430 S   0  0  0  0  0  0  0  0  0  0  0  0
   -7.7470   22.7280  -31.2970 C   0  0  0  0  0  0  0  0  0  0  0  0
   -7.1020   23.4180  -32.3320 C   0  0  0  0  0  0  0  0  0  0  0  0
   -5.9580   24.1760  -32.0620 C   0  0  0  0  0  0  0  0  0  0  0  0
   -5.4600   24.2530  -30.7570 C   0  0  0  0  0  0  0  0  0  0  0  0
   -4.3480   24.9860  -30.4960 F   0  0  0  0  0  0  0  0  0  0  0  0
   -6.1090   23.5740  -29.7200 C   0  0  0  0  0  0  0  0  0  0  0  0
   -7.2520   22.8110  -29.9890 C   0  0  0  0  0  0  0  0  0  0  0  0
   -8.7460   18.9990  -31.7620 C   0  0  0  0  0  0  0  0  0  0  0  0
   -7.9550   17.8770  -32.0080 C   0  0  0  0  0  0  0  0  0  0  0  0
   -6.6900   18.0260  -32.4820 N   0  0  0  0  0  0  0  0  0  0  0  0
   -4.0480   20.5450  -33.1530 C   0  0  0  0  0  0  0  0  0  0  0  0
   -2.7350   20.6390  -33.6270 C   0  0  0  0  0  0  0  0  0  0  0  0
    2.1163   20.5996  -34.1128 H   0  0  0  0  0  0  0  0  0  0  0  0
    1.6122   20.0690  -35.7589 H   0  0  0  0  0  0  0  0  0  0  0  0
    3.7812   22.2386  -34.5145 H   0  0  0  0  0  0  0  0  0  0  0  0
    4.3682   24.5052  -35.3957 H   0  0  0  0  0  0  0  0  0  0  0  0
    2.7610   25.6982  -36.8959 H   0  0  0  0  0  0  0  0  0  0  0  0
    0.0200   22.4407  -36.6553 H   0  0  0  0  0  0  0  0  0  0  0  0
   -0.3770   18.8850  -35.2800 H   0  0  0  0  0  0  0  0  0  0  0  0
   -2.3306   17.4463  -34.7747 H   0  0  0  0  0  0  0  0  0  0  0  0
   -4.6645   17.2686  -33.9213 H   0  0  0  0  0  0  0  0  0  0  0  0
   -6.4942   21.4004  -32.6728 H   0  0  0  0  0  0  0  0  0  0  0  0
   -7.4957   23.3635  -33.3577 H   0  0  0  0  0  0  0  0  0  0  0  0
   -5.4493   24.7122  -32.8767 H   0  0  0  0  0  0  0  0  0  0  0  0
   -5.7211   23.6396  -28.6927 H   0  0  0  0  0  0  0  0  0  0  0  0
   -7.7612   22.2768  -29.1733 H   0  0  0  0  0  0  0  0  0  0  0  0
   -9.7746   18.8831  -31.3898 H   0  0  0  0  0  0  0  0  0  0  0  0
   -8.3555   16.8702  -31.8182 H   0  0  0  0  0  0  0  0  0  0  0  0
   -4.5268   21.4228  -32.6945 H   0  0  0  0  0  0  0  0  0  0  0  0
   -2.1973   21.5960  -33.5560 H   0  0  0  0  0  0  0  0  0  0  0  0
  1  2  2  0
  2  3  1  0
  3  4  1  0
  4  5  2  0
  5  6  1  0
  6  7  2  0
  7  8  1  0
  8  9  2  0
  2 10  1  0
 10 11  1  0
 11 12  2  0
 12 13  1  0
 13 14  2  0
 14 15  1  0
 15 16  2  0
 16 17  1  0
 17 18  1  0
 18 19  1  0
 19 20  2  0
 20 21  1  0
 21 22  2  0
 22 23  1  0
 22 24  1  0
 24 25  2  0
 17 26  2  0
 26 27  1  0
 27 28  2  0
 14 29  1  0
 29 30  2  0
  9  4  1  0
 30 11  1  0
 28 15  1  0
 25 19  1  0
  3 31  1  0
  3 32  1  0
  5 33  1  0
  6 34  1  0
  7 35  1  0
  9 36  1  0
 10 37  1  0
 12 38  1  0
 13 39  1  0
 16 40  1  0
 20 41  1  0
 21 42  1  0
 24 43  1  0
 25 44  1  0
 26 45  1  0
 27 46  1  0
 29 47  1  0
 30 48  1  0
M  END
>  <UniqueID>  (1) 
1

>  <SMILES>  (1) 
O=C(Cc1cccnc1)Nc1ccc(-c2cc(Sc3ccc(F)cc3)ccn2)cc1

>  <Energy>  (1) 
55.154225286926064

>  <Genealogy>  (1) 
O=C(Cc1cccnc1)Nc1ccc(-c2cc(Sc3ccc(F)cc3)ccn2)cc1 (3D coordinates assigned)
O=C(Cc1cccnc1)Nc1ccc(-c2cc(Sc3ccc(F)cc3)ccn2)cc1 (optimized conformer: 55.154225286926064 kcal/mol)

>  <smiles>  (1) 
O=C(Cc1cccnc1)Nc1ccc(-c2cc(Sc3ccc(F)cc3)ccn2)cc1

>  <score_type>  (1) 
oracle

>  <origin>  (1) 
adgpu

>  <m_score__min__energy>  (1) 
-10.449999999999999

>  <m_primary>  (1) 
energy

$$$$
1:0
     RDKit          3D

 36 38  0  0  0  0  0  0  0  0999 V2000
   -4.5220   25.0340  -30.8690 O   0  0  0  0  0  0  0  0  0  0  0  0
   -4.8250   23.8930  -30.4230 C   0  0  0  0  0  0  0  0  0  0  0  0
   -4.0980   23.3490  -29.3080 N   0  0  0  0  0  0  0  0  0  0  0  0
   -3.3640   24.1510  -28.3660 C   0  0  0  0  0  0  0  0  0  0  0  0
   -2.0560   24.5490  -28.6730 C   0  0  0  0  0  0  0  0  0  0  0  0
   -1.3140   25.3110  -27.7650 C   0  0  0  0  0  0  0  0  0  0  0  0
   -1.8640   25.6790  -26.5240 C   0  0  0  0  0  0  0  0  0  0  0  0
   -1.0780   26.4880  -25.5590 C   0  0  0  0  0  0  0  0  0  0  0  0
   -0.8720   26.0330  -24.2420 C   0  0  0  0  0  0  0  0  0  0  0  0
   -0.1320   26.7990  -23.3350 C   0  0  0  0  0  0  0  0  0  0  0  0
    0.4100   28.0230  -23.7310 C   0  0  0  0  0  0  0  0  0  0  0  0
    0.2140   28.4860  -25.0330 C   0  0  0  0  0  0  0  0  0  0  0  0
   -0.5260   27.7250  -25.9440 C   0  0  0  0  0  0  0  0  0  0  0  0
   -3.1690   25.2620  -26.2100 C   0  0  0  0  0  0  0  0  0  0  0  0
   -3.9100   24.5000  -27.1190 C   0  0  0  0  0  0  0  0  0  0  0  0
   -5.8930   23.1090  -31.0900 C   0  0  0  0  0  0  0  0  0  0  0  0
   -7.2400   23.4970  -30.9640 C   0  0  0  0  0  0  0  0  0  0  0  0
   -8.2520   22.7590  -31.5850 C   0  0  0  0  0  0  0  0  0  0  0  0
   -7.9340   21.6230  -32.3320 C   0  0  0  0  0  0  0  0  0  0  0  0
   -6.6010   21.2190  -32.4560 C   0  0  0  0  0  0  0  0  0  0  0  0
   -6.2040   19.7830  -33.3830 Cl  0  0  0  0  0  0  0  0  0  0  0  0
   -5.5850   21.9550  -31.8370 C   0  0  0  0  0  0  0  0  0  0  0  0
   -4.0040   22.3110  -29.2420 H   0  0  0  0  0  0  0  0  0  0  0  0
   -1.6094   24.2598  -29.6357 H   0  0  0  0  0  0  0  0  0  0  0  0
   -0.2920   25.6251  -28.0235 H   0  0  0  0  0  0  0  0  0  0  0  0
   -1.2958   25.0689  -23.9245 H   0  0  0  0  0  0  0  0  0  0  0  0
    0.0230   26.4363  -22.3082 H   0  0  0  0  0  0  0  0  0  0  0  0
    0.9921   28.6232  -23.0162 H   0  0  0  0  0  0  0  0  0  0  0  0
    0.6420   29.4507  -25.3432 H   0  0  0  0  0  0  0  0  0  0  0  0
   -0.6778   28.0955  -26.9685 H   0  0  0  0  0  0  0  0  0  0  0  0
   -3.6112   25.5373  -25.2412 H   0  0  0  0  0  0  0  0  0  0  0  0
   -4.9265   24.1718  -26.8562 H   0  0  0  0  0  0  0  0  0  0  0  0
   -7.4985   24.3876  -30.3724 H   0  0  0  0  0  0  0  0  0  0  0  0
   -9.3012   23.0740  -31.4849 H   0  0  0  0  0  0  0  0  0  0  0  0
   -8.7317   21.0461  -32.8227 H   0  0  0  0  0  0  0  0  0  0  0  0
   -4.5385   21.6304  -31.9342 H   0  0  0  0  0  0  0  0  0  0  0  0
  1  2  2  0
  2  3  1  0
  3  4  1  0
  4  5  2  0
  5  6  1  0
  6  7  2  0
  7  8  1  0
  8  9  2  0
  9 10  1  0
 10 11  2  0
 11 12  1  0
 12 13  2  0
  7 14  1  0
 14 15  2  0
  2 16  1  0
 16 17  2  0
 17 18  1  0
 18 19  2  0
 19 20  1  0
 20 21  1  0
 20 22  2  0
 15  4  1  0
 22 16  1  0
 13  8  1  0
  3 23  1  0
  5 24  1  0
  6 25  1  0
  9 26  1  0
 10 27  1  0
 11 28  1  0
 12 29  1  0
 13 30  1  0
 14 31  1  0
 15 32  1  0
 17 33  1  0
 18 34  1  0
 19 35  1  0
 22 36  1  0
M  END
>  <UniqueID>  (2) 
2

>  <SMILES>  (2) 
O=C(Nc1ccc(-c2ccccc2)cc1)c1cccc(Cl)c1

>  <Energy>  (2) 
49.73299142800363

>  <Genealogy>  (2) 
O=C(Nc1ccc(-c2ccccc2)cc1)c1cccc(Cl)c1 (3D coordinates assigned)
O=C(Nc1ccc(-c2ccccc2)cc1)c1cccc(Cl)c1 (optimized conformer: 49.73299142800363 kcal/mol)

>  <smiles>  (2) 
O=C(Nc1ccc(-c2ccccc2)cc1)c1cccc(Cl)c1

>  <score_type>  (2) 
oracle

>  <origin>  (2) 
adgpu

>  <m_score__min__energy>  (2) 
-8.5999999999999996

>  <m_primary>  (2) 
energy

$$$$
2:0
     RDKit          3D

 29 30  0  0  0  0  0  0  0  0999 V2000
   -1.4450   20.8460  -29.4400 N   0  0  0  0  0  0  0  0  0  0  0  0
   -2.2320   22.0080  -29.7260 C   0  0  0  0  0  0  0  0  0  0  0  0
   -1.7360   23.2750  -29.3950 C   0  0  0  0  0  0  0  0  0  0  0  0
   -2.4860   24.4200  -29.6660 C   0  0  0  0  0  0  0  0  0  0  0  0
   -1.9840   25.6730  -29.3330 O   0  0  0  0  0  0  0  0  0  0  0  0
   -3.7380   24.3080  -30.2700 C   0  0  0  0  0  0  0  0  0  0  0  0
   -4.2570   23.0510  -30.6120 C   0  0  0  0  0  0  0  0  0  0  0  0
   -5.8470   22.9630  -31.3740 S   0  0  0  0  0  0  0  0  0  0  0  0
   -6.0470   24.1680  -32.2510 O   0  0  0  0  0  0  0  0  0  0  0  0
   -6.9080   22.9180  -30.3090 O   0  0  0  0  0  0  0  0  0  0  0  0
   -5.9590   21.5490  -32.3340 O   0  0  0  0  0  0  0  0  0  0  0  0
   -6.9780   20.5920  -32.2340 C   0  0  0  0  0  0  0  0  0  0  0  0
   -6.6110   19.2570  -32.0160 C   0  0  0  0  0  0  0  0  0  0  0  0
   -7.5860   18.2610  -31.9070 C   0  0  0  0  0  0  0  0  0  0  0  0
   -8.9390   18.5910  -32.0160 C   0  0  0  0  0  0  0  0  0  0  0  0
   -9.3170   19.9190  -32.2340 C   0  0  0  0  0  0  0  0  0  0  0  0
   -8.3440   20.9190  -32.3430 C   0  0  0  0  0  0  0  0  0  0  0  0
   -3.4970   21.8870  -30.3370 C   0  0  0  0  0  0  0  0  0  0  0  0
   -3.9670   20.6100  -30.6570 O   0  0  0  0  0  0  0  0  0  0  0  0
   -0.5180   20.9180  -28.9670 H   0  0  0  0  0  0  0  0  0  0  0  0
   -1.7880   19.8940  -29.6990 H   0  0  0  0  0  0  0  0  0  0  0  0
   -0.7490   23.3682  -28.9184 H   0  0  0  0  0  0  0  0  0  0  0  0
   -4.3242   25.2147  -30.4802 H   0  0  0  0  0  0  0  0  0  0  0  0
   -5.5472   18.9908  -31.9300 H   0  0  0  0  0  0  0  0  0  0  0  0
   -7.2874   17.2163  -31.7352 H   0  0  0  0  0  0  0  0  0  0  0  0
   -9.7058   17.8070  -31.9304 H   0  0  0  0  0  0  0  0  0  0  0  0
  -10.3824   20.1788  -32.3201 H   0  0  0  0  0  0  0  0  0  0  0  0
   -8.6465   21.9627  -32.5142 H   0  0  0  0  0  0  0  0  0  0  0  0
   -4.5320   20.4090  -31.4700 H   0  0  0  0  0  0  0  0  0  0  0  0
  1  2  1  0
  2  3  2  0
  3  4  1  0
  4  5  1  0
  4  6  2  0
  6  7  1  0
  7  8  1  0
  8  9  2  0
  8 10  2  0
  8 11  1  0
 11 12  1  0
 12 13  2  0
 13 14  1  0
 14 15  2  0
 15 16  1  0
 16 17  2  0
  7 18  2  0
 18 19  1  0
 18  2  1  0
 17 12  1  0
  1 20  1  0
  1 21  1  0
  3 22  1  0
  6 23  1  0
 13 24  1  0
 14 25  1  0
 15 26  1  0
 16 27  1  0
 17 28  1  0
 19 29  1  0
M  CHG  1   5  -1
M  END
>  <UniqueID>  (3) 
3

>  <SMILES>  (3) 
Nc1cc([O-])cc(S(=O)(=O)Oc2ccccc2)c1O

>  <Energy>  (3) 
32.121261133349215

>  <Genealogy>  (3) 
Nc1cc([O-])cc(S(=O)(=O)Oc2ccccc2)c1O (protonated)
Nc1cc([O-])cc(S(=O)(=O)Oc2ccccc2)c1O (3D coordinates assigned)
Nc1cc([O-])cc(S(=O)(=O)Oc2ccccc2)c1O (optimized conformer: 32.121261133349215 kcal/mol)

>  <smiles>  (3) 
Nc1cc(O)cc(S(=O)(=O)Oc2ccccc2)c1O

>  <score_type>  (3) 
oracle

>  <origin>  (3) 
adgpu

>  <m_score__min__energy>  (3) 
-8.5099999999999998

>  <m_primary>  (3) 
energy

$$$$
3:0
     RDKit          3D

 31 32  0  0  0  0  0  0  0  0999 V2000
   -0.4620   26.3530  -26.9440 C   0  0  0  0  0  0  0  0  0  0  0  0
   -0.9510   25.3330  -27.9190 C   0  0  0  0  0  0  0  0  0  0  0  0
   -0.1190   24.7120  -28.6350 O   0  0  0  0  0  0  0  0  0  0  0  0
   -2.3610   25.1330  -28.0980 N   0  0  0  0  0  0  0  0  0  0  0  0
   -2.9170   24.0910  -28.9160 C   0  0  0  0  0  0  0  0  0  0  0  0
   -2.6450   22.7530  -28.5980 C   0  0  0  0  0  0  0  0  0  0  0  0
   -3.1620   21.7180  -29.3840 C   0  0  0  0  0  0  0  0  0  0  0  0
   -3.9440   22.0130  -30.5050 C   0  0  0  0  0  0  0  0  0  0  0  0
   -4.4750   20.9490  -31.3160 C   0  0  0  0  0  0  0  0  0  0  0  0
   -4.9190   20.0580  -31.9950 C   0  0  0  0  0  0  0  0  0  0  0  0
   -5.4500   18.9930  -32.8050 C   0  0  0  0  0  0  0  0  0  0  0  0
   -5.0360   18.8500  -34.1360 C   0  0  0  0  0  0  0  0  0  0  0  0
   -5.5530   17.8150  -34.9220 C   0  0  0  0  0  0  0  0  0  0  0  0
   -6.4830   16.9210  -34.3810 C   0  0  0  0  0  0  0  0  0  0  0  0
   -6.8970   17.0630  -33.0530 C   0  0  0  0  0  0  0  0  0  0  0  0
   -6.3820   18.0960  -32.2650 C   0  0  0  0  0  0  0  0  0  0  0  0
   -4.1980   23.3480  -30.8460 C   0  0  0  0  0  0  0  0  0  0  0  0
   -3.6830   24.3850  -30.0610 C   0  0  0  0  0  0  0  0  0  0  0  0
   -3.8890   25.6690  -30.4490 F   0  0  0  0  0  0  0  0  0  0  0  0
   -0.6346   25.9929  -25.9191 H   0  0  0  0  0  0  0  0  0  0  0  0
    0.6143   26.5205  -27.0974 H   0  0  0  0  0  0  0  0  0  0  0  0
   -1.0055   27.2970  -27.0974 H   0  0  0  0  0  0  0  0  0  0  0  0
   -3.0090   25.8630  -27.7220 H   0  0  0  0  0  0  0  0  0  0  0  0
   -2.0206   22.5154  -27.7241 H   0  0  0  0  0  0  0  0  0  0  0  0
   -2.9532   20.6708  -29.1200 H   0  0  0  0  0  0  0  0  0  0  0  0
   -4.3043   19.5518  -34.5628 H   0  0  0  0  0  0  0  0  0  0  0  0
   -5.2279   17.7039  -35.9670 H   0  0  0  0  0  0  0  0  0  0  0  0
   -6.8883   16.1069  -34.9998 H   0  0  0  0  0  0  0  0  0  0  0  0
   -7.6291   16.3606  -32.6279 H   0  0  0  0  0  0  0  0  0  0  0  0
   -6.7083   18.2052  -31.2202 H   0  0  0  0  0  0  0  0  0  0  0  0
   -4.8042   23.5814  -31.7337 H   0  0  0  0  0  0  0  0  0  0  0  0
  1  2  1  0
  2  3  2  0
  2  4  1  0
  4  5  1  0
  5  6  2  0
  6  7  1  0
  7  8  2  0
  8  9  1  0
  9 10  3  0
 10 11  1  0
 11 12  2  0
 12 13  1  0
 13 14  2  0
 14 15  1  0
 15 16  2  0
  8 17  1  0
 17 18  2  0
 18 19  1  0
 18  5  1  0
 16 11  1  0
  1 20  1  0
  1 21  1  0
  1 22  1  0
  4 23  1  0
  6 24  1  0
  7 25  1  0
 12 26  1  0
 13 27  1  0
 14 28  1  0
 15 29  1  0
 16 30  1  0
 17 31  1  0
M  END
>  <UniqueID>  (4) 
4

>  <SMILES>  (4) 
CC(=O)Nc1ccc(C#Cc2ccccc2)cc1F

>  <Energy>  (4) 
30.468052861900695

>  <Genealogy>  (4) 
CC(=O)Nc1ccc(C#Cc2ccccc2)cc1F (3D coordinates assigned)
CC(=O)Nc1ccc(C#Cc2ccccc2)cc1F (optimized conformer: 30.468052861900695 kcal/mol)

>  <smiles>  (4) 
CC(=O)Nc1ccc(C#Cc2ccccc2)cc1F

>  <score_type>  (4) 
oracle

>  <origin>  (4) 
adgpu

>  <m_score__min__energy>  (4) 
-7.0499999999999998

>  <m_primary>  (4) 
energy

$$$$
4:0
     RDKit          3D

 27 28  0  0  0  0  0  0  0  0999 V2000
   -1.6360   23.2370  -29.8000 H   0  0  0  0  0  0  0  0  0  0  0  0
   -2.4740   22.8320  -30.2740 N   0  0  0  0  0  0  0  0  0  0  0  0
   -3.4590   23.5850  -30.6430 C   0  0  0  0  0  0  0  0  0  0  0  0
   -3.5140   24.9160  -30.4640 N   0  0  0  0  0  0  0  0  0  0  0  0
   -4.6850   25.2710  -30.9860 N   0  0  0  0  0  0  0  0  0  0  0  0
   -5.3220   24.2080  -31.4640 N   0  0  0  0  0  0  0  0  0  0  0  0
   -4.5630   23.1480  -31.2550 N   0  0  0  0  0  0  0  0  0  0  0  0
   -4.8690   21.8220  -31.6120 N   0  0  0  0  0  0  0  0  0  0  0  0
   -5.6470   21.5260  -32.6080 C   0  0  0  0  0  0  0  0  0  0  0  0
   -6.0925   22.3344  -33.2063 H   0  0  0  0  0  0  0  0  0  0  0  0
   -5.9430   20.1200  -32.9500 C   0  0  0  0  0  0  0  0  0  0  0  0
   -7.1200   19.5270  -32.4670 C   0  0  0  0  0  0  0  0  0  0  0  0
   -7.8097   20.1128  -31.8417 H   0  0  0  0  0  0  0  0  0  0  0  0
   -7.4220   18.1970  -32.7750 C   0  0  0  0  0  0  0  0  0  0  0  0
   -8.3433   17.7404  -32.3841 H   0  0  0  0  0  0  0  0  0  0  0  0
   -6.5560   17.4420  -33.5800 C   0  0  0  0  0  0  0  0  0  0  0  0
   -6.8650   16.0010  -33.8840 C   0  0  0  0  0  0  0  0  0  0  0  0
   -7.5904   15.6243  -33.1479 H   0  0  0  0  0  0  0  0  0  0  0  0
   -7.2825   15.9358  -34.8996 H   0  0  0  0  0  0  0  0  0  0  0  0
   -5.5990   15.1520  -33.8190 C   0  0  0  0  0  0  0  0  0  0  0  0
   -5.3314   14.9726  -32.7672 H   0  0  0  0  0  0  0  0  0  0  0  0
   -5.7766   14.1897  -34.3215 H   0  0  0  0  0  0  0  0  0  0  0  0
   -4.7762   15.6816  -34.3215 H   0  0  0  0  0  0  0  0  0  0  0  0
   -5.3720   18.0280  -34.0530 C   0  0  0  0  0  0  0  0  0  0  0  0
   -4.6787   17.4377  -34.6701 H   0  0  0  0  0  0  0  0  0  0  0  0
   -5.0680   19.3570  -33.7450 C   0  0  0  0  0  0  0  0  0  0  0  0
   -4.1402   19.8087  -34.1260 H   0  0  0  0  0  0  0  0  0  0  0  0
  1  2  1  0
  2  3  2  0
  3  4  1  0
  4  5  1  0
  5  6  2  0
  6  7  1  0
  7  8  1  0
  8  9  2  0
  9 10  1  0
  9 11  1  0
 11 12  2  0
 12 13  1  0
 12 14  1  0
 14 15  1  0
 14 16  2  0
 16 17  1  0
 17 18  1  0
 17 19  1  0
 17 20  1  0
 20 21  1  0
 20 22  1  0
 20 23  1  0
 16 24  1  0
 24 25  1  0
 24 26  2  0
 26 27  1  0
  7  3  1  0
 26 11  1  0
M  CHG  1   4  -1
M  END
>  <UniqueID>  (5) 
5

>  <SMILES>  (5) 
[H]/N=c1\[n-]nnn1/N=C/c1ccc(CC)cc1

>  <Energy>  (5) 
66.41618692506309

>  <Genealogy>  (5) 
CCc1ccc(C=Nn2nn[n-]c2=N)cc1 (protonated)
[H]/N=c1\[n-]nnn1/N=C/c1ccc(CC)cc1 (cis-trans isomerization)
[H]/N=c1\[n-]nnn1/N=C/c1ccc(CC)cc1 (3D coordinates assigned)
[H]/N=c1\[n-]nnn1/N=C/c1ccc(CC)cc1 (optimized conformer: 66.41618692506309 kcal/mol)

>  <smiles>  (5) 
CCc1ccc(C=Nn2nn[nH]c2=N)cc1

>  <score_type>  (5) 
oracle

>  <origin>  (5) 
adgpu

>  <m_score__min__energy>  (5) 
-7.7300000000000004

>  <m_primary>  (5) 
energy

$$$$
5:0
     RDKit          3D

 48 51  0  0  0  0  0  0  0  0999 V2000
   -3.9730   25.0390  -30.4680 O   0  0  0  0  0  0  0  0  0  0  0  0
   -3.8010   23.8140  -30.2090 C   0  0  0  0  0  0  0  0  0  0  0  0
   -4.3920   22.8450  -31.0380 C   0  0  0  0  0  0  0  0  0  0  0  0
   -5.3510   23.2200  -32.1390 C   0  0  0  0  0  0  0  0  0  0  0  0
   -6.5710   22.3400  -32.0680 C   0  0  0  0  0  0  0  0  0  0  0  0
   -7.7310   22.7930  -31.4170 C   0  0  0  0  0  0  0  0  0  0  0  0
   -8.8870   22.0070  -31.4090 C   0  0  0  0  0  0  0  0  0  0  0  0
   -8.8970   20.7680  -32.0570 C   0  0  0  0  0  0  0  0  0  0  0  0
   -7.7500   20.3130  -32.7120 C   0  0  0  0  0  0  0  0  0  0  0  0
   -6.5910   21.0960  -32.7220 C   0  0  0  0  0  0  0  0  0  0  0  0
   -4.1490   21.5000  -30.7530 C   0  0  0  0  0  0  0  0  0  0  0  0
   -3.3970   21.1600  -29.6800 N   0  0  0  0  0  0  0  0  0  0  0  0
   -2.8620   22.1000  -28.8610 C   0  0  0  0  0  0  0  0  0  0  0  0
   -2.0060   21.5320  -27.3790 S   0  0  0  0  0  0  0  0  0  0  0  0
   -2.0450   19.7620  -27.8350 C   0  0  0  0  0  0  0  0  0  0  0  0
   -0.6890   19.2620  -28.2690 C   0  0  0  0  0  0  0  0  0  0  0  0
   -0.1400   18.1080  -27.6780 C   0  0  0  0  0  0  0  0  0  0  0  0
   -0.8290   17.4240  -26.7300 F   0  0  0  0  0  0  0  0  0  0  0  0
    1.1250   17.6540  -28.0640 C   0  0  0  0  0  0  0  0  0  0  0  0
    1.8490   18.3370  -29.0430 C   0  0  0  0  0  0  0  0  0  0  0  0
    1.3070   19.4760  -29.6460 C   0  0  0  0  0  0  0  0  0  0  0  0
    0.0450   19.9390  -29.2650 C   0  0  0  0  0  0  0  0  0  0  0  0
   -0.4580   21.0480  -29.8660 F   0  0  0  0  0  0  0  0  0  0  0  0
   -3.0400   23.4350  -29.1330 N   0  0  0  0  0  0  0  0  0  0  0  0
   -2.4240   24.4440  -28.3020 C   0  0  0  0  0  0  0  0  0  0  0  0
   -2.9470   24.7320  -27.0300 C   0  0  0  0  0  0  0  0  0  0  0  0
   -2.3460   25.7020  -26.2230 C   0  0  0  0  0  0  0  0  0  0  0  0
   -1.2290   26.4020  -26.6850 C   0  0  0  0  0  0  0  0  0  0  0  0
   -0.7160   26.1400  -27.9580 C   0  0  0  0  0  0  0  0  0  0  0  0
   -1.3130   25.1690  -28.7670 C   0  0  0  0  0  0  0  0  0  0  0  0
   -5.6509   24.2717  -32.0208 H   0  0  0  0  0  0  0  0  0  0  0  0
   -4.8592   23.0846  -33.1136 H   0  0  0  0  0  0  0  0  0  0  0  0
   -7.7294   23.7700  -30.9116 H   0  0  0  0  0  0  0  0  0  0  0  0
   -9.7901   22.3638  -30.8922 H   0  0  0  0  0  0  0  0  0  0  0  0
   -9.8080   20.1515  -32.0510 H   0  0  0  0  0  0  0  0  0  0  0  0
   -7.7583   19.3377  -33.2206 H   0  0  0  0  0  0  0  0  0  0  0  0
   -5.6917   20.7368  -33.2437 H   0  0  0  0  0  0  0  0  0  0  0  0
   -4.5688   20.7162  -31.4007 H   0  0  0  0  0  0  0  0  0  0  0  0
   -2.3773   19.1778  -26.9642 H   0  0  0  0  0  0  0  0  0  0  0  0
   -2.7384   19.6433  -28.6806 H   0  0  0  0  0  0  0  0  0  0  0  0
    1.5513   16.7552  -27.5945 H   0  0  0  0  0  0  0  0  0  0  0  0
    2.8458   17.9790  -29.3399 H   0  0  0  0  0  0  0  0  0  0  0  0
    1.8756   20.0090  -30.4223 H   0  0  0  0  0  0  0  0  0  0  0  0
   -3.8338   24.1914  -26.6676 H   0  0  0  0  0  0  0  0  0  0  0  0
   -2.7529   25.9143  -25.2233 H   0  0  0  0  0  0  0  0  0  0  0  0
   -0.7528   27.1602  -26.0460 H   0  0  0  0  0  0  0  0  0  0  0  0
    0.1583   26.6983  -28.3238 H   0  0  0  0  0  0  0  0  0  0  0  0
   -0.9117   24.9713  -29.7719 H   0  0  0  0  0  0  0  0  0  0  0  0
  1  2  2  0
  2  3  1  0
  3  4  1  0
  4  5  1  0
  5  6  2  0
  6  7  1  0
  7  8  2  0
  8  9  1  0
  9 10  2  0
  3 11  2  0
 11 12  1  0
 12 13  2  0
 13 14  1  0
 14 15  1  0
 15 16  1  0
 16 17  2  0
 17 18  1  0
 17 19  1  0
 19 20  2  0
 20 21  1  0
 21 22  2  0
 22 23  1  0
 13 24  1  0
 24 25  1  0
 25 26  2  0
 26 27  1  0
 27 28  2  0
 28 29  1  0
 29 30  2  0
 24  2  1  0
 30 25  1  0
 10  5  1  0
 22 16  1  0
  4 31  1  0
  4 32  1  0
  6 33  1  0
  7 34  1  0
  8 35  1  0
  9 36  1  0
 10 37  1  0
 11 38  1  0
 15 39  1  0
 15 40  1  0
 19 41  1  0
 20 42  1  0
 21 43  1  0
 26 44  1  0
 27 45  1  0
 28 46  1  0
 29 47  1  0
 30 48  1  0
M  END
>  <UniqueID>  (6) 
6

>  <SMILES>  (6) 
O=c1c(Cc2ccccc2)cnc(SCc2c(F)cccc2F)n1-c1ccccc1

>  <Energy>  (6) 
56.07078110206044

>  <Genealogy>  (6) 
O=c1c(Cc2ccccc2)cnc(SCc2c(F)cccc2F)n1-c1ccccc1 (3D coordinates assigned)
O=c1c(Cc2ccccc2)cnc(SCc2c(F)cccc2F)n1-c1ccccc1 (optimized conformer: 56.07078110206044 kcal/mol)

>  <smiles>  (6) 
O=c1c(Cc2ccccc2)cnc(SCc2c(F)cccc2F)n1-c1ccccc1

>  <score_type>  (6) 
oracle

>  <origin>  (6) 
adgpu

>  <m_score__min__energy>  (6) 
-8.8599999999999994

>  <m_primary>  (6) 
energy

$$$$
6:0
     RDKit          3D

 31 33  0  0  0  0  0  0  0  0999 V2000
   -4.0630   25.0110  -30.8100 O   0  0  0  0  0  0  0  0  0  0  0  0
   -4.8120   24.2490  -30.1400 C   0  0  0  0  0  0  0  0  0  0  0  0
   -4.6110   24.0950  -28.7260 N   0  0  0  0  0  0  0  0  0  0  0  0
   -3.4250   24.5220  -28.0320 C   0  0  0  0  0  0  0  0  0  0  0  0
   -3.5190   24.9230  -26.6900 C   0  0  0  0  0  0  0  0  0  0  0  0
   -2.3770   25.3210  -25.9870 C   0  0  0  0  0  0  0  0  0  0  0  0
   -1.1300   25.3070  -26.6160 C   0  0  0  0  0  0  0  0  0  0  0  0
   -1.0200   24.8890  -27.9430 C   0  0  0  0  0  0  0  0  0  0  0  0
   -2.1610   24.4900  -28.6490 C   0  0  0  0  0  0  0  0  0  0  0  0
   -5.9210   23.5470  -30.8130 C   0  0  0  0  0  0  0  0  0  0  0  0
   -7.1110   24.1720  -31.1780 C   0  0  0  0  0  0  0  0  0  0  0  0
   -8.0890   23.0210  -31.9150 S   0  0  0  0  0  0  0  0  0  0  0  0
   -6.9650   21.7760  -31.7440 C   0  0  0  0  0  0  0  0  0  0  0  0
   -7.1460   20.3770  -32.1920 C   0  0  0  0  0  0  0  0  0  0  0  0
   -6.2810   19.8010  -33.1390 C   0  0  0  0  0  0  0  0  0  0  0  0
   -6.4780   18.4780  -33.5420 C   0  0  0  0  0  0  0  0  0  0  0  0
   -7.5010   17.7510  -33.0200 N   0  0  0  0  0  0  0  0  0  0  0  0
   -8.3530   18.2780  -32.1020 C   0  0  0  0  0  0  0  0  0  0  0  0
   -8.1930   19.5980  -31.6730 C   0  0  0  0  0  0  0  0  0  0  0  0
   -5.8480   22.2240  -31.1300 N   0  0  0  0  0  0  0  0  0  0  0  0
   -5.4050   23.7320  -28.1510 H   0  0  0  0  0  0  0  0  0  0  0  0
   -4.4976   24.9243  -26.1877 H   0  0  0  0  0  0  0  0  0  0  0  0
   -2.4610   25.6449  -24.9391 H   0  0  0  0  0  0  0  0  0  0  0  0
   -0.2332   25.6259  -26.0646 H   0  0  0  0  0  0  0  0  0  0  0  0
   -0.0360   24.8731  -28.4345 H   0  0  0  0  0  0  0  0  0  0  0  0
   -2.0689   24.1499  -29.6910 H   0  0  0  0  0  0  0  0  0  0  0  0
   -7.3652   25.2295  -31.0134 H   0  0  0  0  0  0  0  0  0  0  0  0
   -5.4528   20.3895  -33.5607 H   0  0  0  0  0  0  0  0  0  0  0  0
   -5.8040   18.0237  -34.2832 H   0  0  0  0  0  0  0  0  0  0  0  0
   -9.1704   17.6641  -31.6958 H   0  0  0  0  0  0  0  0  0  0  0  0
   -8.8843   20.0254  -30.9317 H   0  0  0  0  0  0  0  0  0  0  0  0
  1  2  2  0
  2  3  1  0
  3  4  1  0
  4  5  2  0
  5  6  1  0
  6  7  2  0
  7  8  1  0
  8  9  2  0
  2 10  1  0
 10 11  2  0
 11 12  1  0
 12 13  1  0
 13 14  1  0
 14 15  2  0
 15 16  1  0
 16 17  2  0
 17 18  1  0
 18 19  2  0
 13 20  2  0
  9  4  1  0
 20 10  1  0
 19 14  1  0
  3 21  1  0
  5 22  1  0
  6 23  1  0
  7 24  1  0
  8 25  1  0
  9 26  1  0
 11 27  1  0
 15 28  1  0
 16 29  1  0
 18 30  1  0
 19 31  1  0
M  END
>  <UniqueID>  (7) 
7

>  <SMILES>  (7) 
O=C(Nc1ccccc1)c1csc(-c2ccncc2)n1

>  <Energy>  (7) 
68.01452480780127

>  <Genealogy>  (7) 
O=C(Nc1ccccc1)c1csc(-c2ccncc2)n1 (3D coordinates assigned)
O=C(Nc1ccccc1)c1csc(-c2ccncc2)n1 (optimized conformer: 68.01452480780127 kcal/mol)

>  <smiles>  (7) 
O=C(Nc1ccccc1)c1csc(-c2ccncc2)n1

>  <score_type>  (7) 
oracle

>  <origin>  (7) 
adgpu

>  <m_score__min__energy>  (7) 
-8.2899999999999991

>  <m_primary>  (7) 
energy

$$$$
7:0
     RDKit          3D

 37 39  0  0  1  0  0  0  0  0999 V2000
   -5.5920   18.4040  -34.8210 C   0  0  0  0  0  0  0  0  0  0  0  0
   -6.4930   18.7920  -33.6840 C   0  0  0  0  0  0  0  0  0  0  0  0
   -7.2210   17.8070  -33.0340 C   0  0  0  0  0  0  0  0  0  0  0  0
   -8.0450   18.1760  -31.9910 C   0  0  0  0  0  0  0  0  0  0  0  0
   -8.1480   19.5070  -31.5970 C   0  0  0  0  0  0  0  0  0  0  0  0
   -7.4240   20.5030  -32.2410 C   0  0  0  0  0  0  0  0  0  0  0  0
   -7.5350   21.8630  -31.8300 N   0  0  0  0  0  0  0  0  0  0  0  0
   -6.5010   22.5420  -31.5240 C   0  0  0  0  0  0  0  0  0  0  0  0
   -6.6860   23.8530  -31.1350 C   0  0  0  0  0  0  0  0  0  0  0  0
   -5.5640   24.5900  -30.8030 C   0  0  0  0  0  0  0  0  0  0  0  0
   -5.7340   26.0140  -30.3780 C   0  0  0  0  0  0  0  0  0  0  0  0
   -4.3420   24.0110  -30.8690 N   0  0  0  0  0  0  0  0  0  0  0  0
   -4.1690   22.7330  -31.2490 C   0  0  0  0  0  0  0  0  0  0  0  0
   -2.8100   22.2070  -31.2870 C   0  0  0  0  0  0  0  0  0  0  0  0
   -2.3220   21.5330  -32.4120 C   0  0  0  0  0  0  0  0  0  0  0  0
   -1.0380   21.0320  -32.4560 C   0  0  0  0  0  0  0  0  0  0  0  0
   -0.2400   21.1930  -31.3980 N   0  0  0  0  0  0  0  0  0  0  0  0
   -0.6340   21.8300  -30.2750 C   0  0  0  0  0  0  0  0  0  0  0  0
   -1.9210   22.3280  -30.2390 C   0  0  0  0  0  0  0  0  0  0  0  0
   -5.2580   22.0300  -31.5680 N   0  0  0  0  0  0  0  0  0  0  0  0
   -6.6060   20.1110  -33.2810 C   0  0  0  0  0  0  0  0  0  0  0  0
   -4.6508   17.9987  -34.4211 H   0  0  0  0  0  0  0  0  0  0  0  0
   -6.0878   17.6396  -35.4374 H   0  0  0  0  0  0  0  0  0  0  0  0
   -5.3774   19.2895  -35.4374 H   0  0  0  0  0  0  0  0  0  0  0  0
   -7.1432   16.7543  -33.3433 H   0  0  0  0  0  0  0  0  0  0  0  0
   -8.6289   17.4075  -31.4632 H   0  0  0  0  0  0  0  0  0  0  0  0
   -8.8130   19.7747  -30.7627 H   0  0  0  0  0  0  0  0  0  0  0  0
   -7.6916   24.2966  -31.0905 H   0  0  0  0  0  0  0  0  0  0  0  0
   -5.7407   26.0705  -29.2795 H   0  0  0  0  0  0  0  0  0  0  0  0
   -4.9013   26.6158  -30.7710 H   0  0  0  0  0  0  0  0  0  0  0  0
   -6.6850   26.4029  -30.7710 H   0  0  0  0  0  0  0  0  0  0  0  0
   -2.9795   21.3994  -33.2837 H   0  0  0  0  0  0  0  0  0  0  0  0
   -0.6758   20.5062  -33.3518 H   0  0  0  0  0  0  0  0  0  0  0  0
    0.0464   21.9481  -29.4188 H   0  0  0  0  0  0  0  0  0  0  0  0
   -2.2546   22.8476  -29.3286 H   0  0  0  0  0  0  0  0  0  0  0  0
   -5.1600   21.0410  -31.8650 H   0  0  0  0  0  0  0  0  0  0  0  0
   -6.0207   20.8772  -33.8105 H   0  0  0  0  0  0  0  0  0  0  0  0
  1  2  1  0
  2  3  2  0
  3  4  1  0
  4  5  2  0
  5  6  1  0
  6  7  1  0
  7  8  2  0
  8  9  1  0
  9 10  2  0
 10 11  1  0
 10 12  1  0
 12 13  2  0
 13 14  1  0
 14 15  2  0
 15 16  1  0
 16 17  2  0
 17 18  1  0
 18 19  2  0
 13 20  1  0
  6 21  2  0
 21  2  1  0
 20  8  1  0
 19 14  1  0
  1 22  1  0
  1 23  1  0
  1 24  1  0
  3 25  1  0
  4 26  1  0
  5 27  1  0
  9 28  1  0
 11 29  1  0
 11 30  1  0
 11 31  1  0
 15 32  1  0
 16 33  1  0
 18 34  1  0
 19 35  1  0
 20 36  1  0
 21 37  1  0
M  END
>  <smiles>  (8) 
Cc1cccc(N=c2cc(C)nc(-c3ccncc3)[nH]2)c1

>  <score_type>  (8) 
oracle

>  <origin>  (8) 
adgpu

>  <m_score__min__energy>  (8) 
-8

>  <m_primary>  (8) 
energy

$$$$
8:0
     RDKit          3D

 34 37  0  0  0  0  0  0  0  0999 V2000
   -8.8460   22.4000  -31.4090 O   0  0  0  0  0  0  0  0  0  0  0  0
   -7.6230   22.6850  -31.5070 C   0  0  0  0  0  0  0  0  0  0  0  0
   -7.1500   23.9400  -31.1030 C   0  0  0  0  0  0  0  0  0  0  0  0
   -5.7740   24.2200  -31.2230 C   0  0  0  0  0  0  0  0  0  0  0  0
   -5.2370   25.5610  -30.8350 C   0  0  0  0  0  0  0  0  0  0  0  0
   -3.8740   25.4260  -30.4460 O   0  0  0  0  0  0  0  0  0  0  0  0
   -3.4000   24.4710  -29.5340 C   0  0  0  0  0  0  0  0  0  0  0  0
   -4.1850   24.1760  -28.4120 C   0  0  0  0  0  0  0  0  0  0  0  0
   -3.7560   23.2310  -27.4760 C   0  0  0  0  0  0  0  0  0  0  0  0
   -2.5370   22.5730  -27.6530 C   0  0  0  0  0  0  0  0  0  0  0  0
   -1.7450   22.8600  -28.7690 C   0  0  0  0  0  0  0  0  0  0  0  0
   -2.1710   23.8030  -29.7080 C   0  0  0  0  0  0  0  0  0  0  0  0
   -4.9310   23.2810  -31.7430 N   0  0  0  0  0  0  0  0  0  0  0  0
   -5.4270   22.0790  -32.1230 C   0  0  0  0  0  0  0  0  0  0  0  0
   -4.5540   20.8020  -32.7740 S   0  0  0  0  0  0  0  0  0  0  0  0
   -5.9760   19.8770  -32.8850 C   0  0  0  0  0  0  0  0  0  0  0  0
   -6.0510   18.5070  -33.4060 C   0  0  0  0  0  0  0  0  0  0  0  0
   -5.1540   17.9230  -34.2920 C   0  0  0  0  0  0  0  0  0  0  0  0
   -5.4780   16.6000  -34.6130 C   0  0  0  0  0  0  0  0  0  0  0  0
   -6.6260   16.1380  -33.9860 C   0  0  0  0  0  0  0  0  0  0  0  0
   -7.2390   17.3770  -33.0290 S   0  0  0  0  0  0  0  0  0  0  0  0
   -7.0560   20.5610  -32.4290 N   0  0  0  0  0  0  0  0  0  0  0  0
   -6.7370   21.7830  -32.0080 N   0  0  0  0  0  0  0  0  0  0  0  0
   -7.8410   24.6944  -30.6988 H   0  0  0  0  0  0  0  0  0  0  0  0
   -5.3087   26.2476  -31.6914 H   0  0  0  0  0  0  0  0  0  0  0  0
   -5.8223   25.9641  -29.9954 H   0  0  0  0  0  0  0  0  0  0  0  0
   -5.1457   24.6917  -28.2666 H   0  0  0  0  0  0  0  0  0  0  0  0
   -4.3795   23.0051  -26.5984 H   0  0  0  0  0  0  0  0  0  0  0  0
   -2.2003   21.8298  -26.9153 H   0  0  0  0  0  0  0  0  0  0  0  0
   -0.7845   22.3423  -28.9080 H   0  0  0  0  0  0  0  0  0  0  0  0
   -1.5456   24.0247  -30.5854 H   0  0  0  0  0  0  0  0  0  0  0  0
   -4.2775   18.4477  -34.7000 H   0  0  0  0  0  0  0  0  0  0  0  0
   -4.8781   15.9837  -35.2988 H   0  0  0  0  0  0  0  0  0  0  0  0
   -7.0606   15.1335  -34.0961 H   0  0  0  0  0  0  0  0  0  0  0  0
  1  2  2  0
  2  3  1  0
  3  4  2  0
  4  5  1  0
  5  6  1  0
  6  7  1  0
  7  8  2  0
  8  9  1  0
  9 10  2  0
 10 11  1  0
 11 12  2  0
  4 13  1  0
 13 14  2  0
 14 15  1  0
 15 16  1  0
 16 17  1  0
 17 18  2  0
 18 19  1  0
 19 20  2  0
 20 21  1  0
 16 22  2  0
 22 23  1  0
 23  2  1  0
 12  7  1  0
 23 14  1  0
 21 17  1  0
  3 24  1  0
  5 25  1  0
  5 26  1  0
  8 27  1  0
  9 28  1  0
 10 29  1  0
 11 30  1  0
 12 31  1  0
 18 32  1  0
 19 33  1  0
 20 34  1  0
M  END
>  <UniqueID>  (9) 
8

>  <SMILES>  (9) 
O=c1cc(COc2ccccc2)nc2sc(-c3cccs3)nn12

>  <Energy>  (9) 
101.21291035488576

>  <Genealogy>  (9) 
O=c1cc(COc2ccccc2)nc2sc(-c3cccs3)nn12 (3D coordinates assigned)
O=c1cc(COc2ccccc2)nc2sc(-c3cccs3)nn12 (optimized conformer: 101.21291035488576 kcal/mol)

>  <smiles>  (9) 
O=c1cc(COc2ccccc2)nc2sc(-c3cccs3)nn12

>  <score_type>  (9) 
oracle

>  <origin>  (9) 
adgpu

>  <m_score__min__energy>  (9) 
-8.8800000000000008

>  <m_primary>  (9) 
energy

$$$$
9:0
     RDKit          3D

 43 45  0  0  0  0  0  0  0  0999 V2000
   -8.3543   24.4546  -32.1242 H   0  0  0  0  0  0  0  0  0  0  0  0
   -7.9710   23.4240  -32.0950 C   0  0  0  0  0  0  0  0  0  0  0  0
   -8.8590   22.3530  -31.9640 C   0  0  0  0  0  0  0  0  0  0  0  0
   -9.9400   22.5456  -31.8973 H   0  0  0  0  0  0  0  0  0  0  0  0
   -8.3840   21.0370  -31.9170 C   0  0  0  0  0  0  0  0  0  0  0  0
   -9.3160   19.9970  -31.7890 O   0  0  0  0  0  0  0  0  0  0  0  0
   -9.0030   18.6160  -31.9380 C   0  0  0  0  0  0  0  0  0  0  0  0
   -8.8984   18.1545  -30.9450 H   0  0  0  0  0  0  0  0  0  0  0  0
   -9.8103   18.1148  -32.4921 H   0  0  0  0  0  0  0  0  0  0  0  0
   -8.0585   18.5118  -32.4921 H   0  0  0  0  0  0  0  0  0  0  0  0
   -6.9980   20.8030  -32.0080 C   0  0  0  0  0  0  0  0  0  0  0  0
   -6.6129   19.7739  -31.9565 H   0  0  0  0  0  0  0  0  0  0  0  0
   -6.1050   21.8750  -32.1640 C   0  0  0  0  0  0  0  0  0  0  0  0
   -4.6550   21.6140  -32.2830 C   0  0  0  0  0  0  0  0  0  0  0  0
   -4.2110   20.7880  -33.3290 C   0  0  0  0  0  0  0  0  0  0  0  0
   -4.9400   20.3650  -34.0359 H   0  0  0  0  0  0  0  0  0  0  0  0
   -2.8550   20.4990  -33.4800 C   0  0  0  0  0  0  0  0  0  0  0  0
   -2.5198   19.8479  -34.3008 H   0  0  0  0  0  0  0  0  0  0  0  0
   -1.9240   21.0350  -32.5910 C   0  0  0  0  0  0  0  0  0  0  0  0
   -0.8556   20.8006  -32.7075 H   0  0  0  0  0  0  0  0  0  0  0  0
   -2.3450   21.8680  -31.5540 C   0  0  0  0  0  0  0  0  0  0  0  0
   -1.6040   22.2863  -30.8569 H   0  0  0  0  0  0  0  0  0  0  0  0
   -3.7050   22.1780  -31.3910 C   0  0  0  0  0  0  0  0  0  0  0  0
   -4.1640   23.2920  -30.0880 S   0  0  0  0  0  0  0  0  0  0  0  0
   -4.2290   24.6890  -30.6370 O   0  0  0  0  0  0  0  0  0  0  0  0
   -5.5150   22.9230  -29.5410 O   0  0  0  0  0  0  0  0  0  0  0  0
   -3.0170   23.2440  -28.7900 N   0  0  0  0  0  0  0  0  0  0  0  0
   -2.1730   24.2020  -28.5670 C   0  0  0  0  0  0  0  0  0  0  0  0
   -2.0810   25.2990  -29.2830 O   0  0  0  0  0  0  0  0  0  0  0  0
   -1.1560   26.0710  -28.7920 N   0  0  0  0  0  0  0  0  0  0  0  0
   -0.8840   26.9990  -29.1840 H   0  0  0  0  0  0  0  0  0  0  0  0
   -0.6290   25.4640  -27.7090 C   0  0  0  0  0  0  0  0  0  0  0  0
    0.4930   26.0160  -26.8910 C   0  0  0  0  0  0  0  0  0  0  0  0
    0.2589   25.9008  -25.8224 H   0  0  0  0  0  0  0  0  0  0  0  0
    1.4195   25.4709  -27.1242 H   0  0  0  0  0  0  0  0  0  0  0  0
    0.6266   27.0827  -27.1242 H   0  0  0  0  0  0  0  0  0  0  0  0
   -1.2520   24.2390  -27.5400 C   0  0  0  0  0  0  0  0  0  0  0  0
   -1.0210   23.2300  -26.4600 C   0  0  0  0  0  0  0  0  0  0  0  0
   -1.1315   23.7125  -25.4777 H   0  0  0  0  0  0  0  0  0  0  0  0
   -1.7563   22.4173  -26.5541 H   0  0  0  0  0  0  0  0  0  0  0  0
   -0.0053   22.8182  -26.5541 H   0  0  0  0  0  0  0  0  0  0  0  0
   -6.5970   23.1880  -32.1890 C   0  0  0  0  0  0  0  0  0  0  0  0
   -5.8999   24.0337  -32.2828 H   0  0  0  0  0  0  0  0  0  0  0  0
  1  2  1  0
  2  3  2  0
  3  4  1  0
  3  5  1  0
  5  6  1  0
  6  7  1  0
  7  8  1  0
  7  9  1  0
  7 10  1  0
  5 11  2  0
 11 12  1  0
 11 13  1  0
 13 14  1  0
 14 15  2  0
 15 16  1  0
 15 17  1  0
 17 18  1  0
 17 19  2  0
 19 20  1  0
 19 21  1  0
 21 22  1  0
 21 23  2  0
 23 24  1  0
 24 25  2  0
 24 26  2  0
 24 27  1  0
 27 28  2  0
 28 29  1  0
 29 30  1  0
 30 31  1  0
 30 32  1  0
 32 33  1  0
 33 34  1  0
 33 35  1  0
 33 36  1  0
 32 37  2  0
 37 38  1  0
 38 39  1  0
 38 40  1  0
 38 41  1  0
 13 42  2  0
 42 43  1  0
 42  2  1  0
 23 14  1  0
 37 28  1  0
M  END
>  <UniqueID>  (10) 
9

>  <SMILES>  (10) 
COc1cccc(-c2ccccc2S(=O)(=O)/N=c2\o[nH]c(C)c2C)c1

>  <Energy>  (10) 
81.47017623212386

>  <Genealogy>  (10) 
COc1cccc(-c2ccccc2S(=O)(=O)/N=c2\o[nH]c(C)c2C)c1 (cis-trans isomerization)
COc1cccc(-c2ccccc2S(=O)(=O)/N=c2\o[nH]c(C)c2C)c1 (3D coordinates assigned)
COc1cccc(-c2ccccc2S(=O)(=O)/N=c2\o[nH]c(C)c2C)c1 (optimized conformer: 81.47017623212386 kcal/mol)

>  <smiles>  (10) 
COc1cccc(-c2ccccc2S(=O)(=O)N=c2o[nH]c(C)c2C)c1

>  <score_type>  (10) 
oracle

>  <origin>  (10) 
adgpu

>  <m_score__min__energy>  (10) 
-9.5600000000000005

>  <m_primary>  (10) 
energy

$$$$
10:0
     RDKit          3D

 28 29  0  0  0  0  0  0  0  0999 V2000
  -10.1500   21.5902  -30.9541 H   0  0  0  0  0  0  0  0  0  0  0  0
   -9.2220   21.2040  -31.4010 C   0  0  0  0  0  0  0  0  0  0  0  0
   -9.2820   20.3240  -32.4830 C   0  0  0  0  0  0  0  0  0  0  0  0
  -10.2576   20.0238  -32.8929 H   0  0  0  0  0  0  0  0  0  0  0  0
   -8.1060   19.8240  -33.0460 C   0  0  0  0  0  0  0  0  0  0  0  0
   -8.1596   19.1257  -33.8942 H   0  0  0  0  0  0  0  0  0  0  0  0
   -6.8540   20.2080  -32.5350 C   0  0  0  0  0  0  0  0  0  0  0  0
   -5.5920   19.6630  -33.1450 C   0  0  0  0  0  0  0  0  0  0  0  0
   -4.8981   19.3634  -32.3458 H   0  0  0  0  0  0  0  0  0  0  0  0
   -5.8335   18.7890  -33.7677 H   0  0  0  0  0  0  0  0  0  0  0  0
   -5.1213   20.4381  -33.7677 H   0  0  0  0  0  0  0  0  0  0  0  0
   -6.7930   21.1240  -31.4660 C   0  0  0  0  0  0  0  0  0  0  0  0
   -5.5230   21.4810  -30.8980 N   0  0  0  0  0  0  0  0  0  0  0  0
   -4.9990   22.6670  -30.7210 C   0  0  0  0  0  0  0  0  0  0  0  0
   -3.8670   22.7450  -29.9000 C   0  0  0  0  0  0  0  0  0  0  0  0
   -3.4005   21.8237  -29.5211 H   0  0  0  0  0  0  0  0  0  0  0  0
   -3.3290   23.9860  -29.5610 C   0  0  0  0  0  0  0  0  0  0  0  0
   -2.4472   24.0409  -28.9057 H   0  0  0  0  0  0  0  0  0  0  0  0
   -3.8900   25.1260  -30.0370 N   0  0  0  0  0  0  0  0  0  0  0  0
   -3.4800   26.0470  -29.7670 H   0  0  0  0  0  0  0  0  0  0  0  0
   -4.9510   25.0920  -30.8860 C   0  0  0  0  0  0  0  0  0  0  0  0
   -5.3741   26.0341  -31.2648 H   0  0  0  0  0  0  0  0  0  0  0  0
   -5.5130   23.8700  -31.2850 C   0  0  0  0  0  0  0  0  0  0  0  0
   -6.4770   23.8850  -32.3440 N   0  0  0  0  0  0  0  0  0  0  0  0
   -6.1930   23.7360  -33.3370 H   0  0  0  0  0  0  0  0  0  0  0  0
   -7.4350   24.2690  -32.1800 H   0  0  0  0  0  0  0  0  0  0  0  0
   -7.9840   21.5940  -30.8860 C   0  0  0  0  0  0  0  0  0  0  0  0
   -7.9406   22.2729  -30.0215 H   0  0  0  0  0  0  0  0  0  0  0  0
  1  2  1  0
  2  3  2  0
  3  4  1  0
  3  5  1  0
  5  6  1  0
  5  7  2  0
  7  8  1  0
  8  9  1  0
  8 10  1  0
  8 11  1  0
  7 12  1  0
 12 13  1  0
 13 14  2  0
 14 15  1  0
 15 16  1  0
 15 17  2  0
 17 18  1  0
 17 19  1  0
 19 20  1  0
 19 21  1  0
 21 22  1  0
 21 23  2  0
 23 24  1  0
 24 25  1  0
 24 26  1  0
 12 27  2  0
 27 28  1  0
 27  2  1  0
 23 14  1  0
M  END
>  <UniqueID>  (11) 
10

>  <SMILES>  (11) 
Cc1ccccc1/N=c1/cc[nH]cc1N

>  <Energy>  (11) 
44.908609515149735

>  <Genealogy>  (11) 
Cc1ccccc1/N=c1/cc[nH]cc1N (cis-trans isomerization)
Cc1ccccc1/N=c1/cc[nH]cc1N (3D coordinates assigned)
Cc1ccccc1/N=c1/cc[nH]cc1N (optimized conformer: 44.908609515149735 kcal/mol)

>  <smiles>  (11) 
Cc1ccccc1N=c1cc[nH]cc1N

>  <score_type>  (11) 
oracle

>  <origin>  (11) 
adgpu

>  <m_score__min__energy>  (11) 
-6.5899999999999999

>  <m_primary>  (11) 
energy

$$$$
11:0
     RDKit          3D

 39 41  0  0  0  0  0  0  0  0999 V2000
   -5.5870   25.6730  -30.2100 C   0  0  0  0  0  0  0  0  0  0  0  0
   -4.9090   24.7270  -31.0300 O   0  0  0  0  0  0  0  0  0  0  0  0
   -5.4720   23.5250  -31.4930 C   0  0  0  0  0  0  0  0  0  0  0  0
   -6.8640   23.3060  -31.4970 C   0  0  0  0  0  0  0  0  0  0  0  0
   -7.3890   22.0940  -31.9550 C   0  0  0  0  0  0  0  0  0  0  0  0
   -6.5290   21.0990  -32.4570 C   0  0  0  0  0  0  0  0  0  0  0  0
   -5.1400   21.3070  -32.4340 C   0  0  0  0  0  0  0  0  0  0  0  0
   -4.6080   22.5200  -31.9580 C   0  0  0  0  0  0  0  0  0  0  0  0
   -3.2250   22.7660  -31.9330 O   0  0  0  0  0  0  0  0  0  0  0  0
   -2.2330   21.7810  -31.6590 C   0  0  0  0  0  0  0  0  0  0  0  0
   -7.1320   19.8400  -32.9770 C   0  0  0  0  0  0  0  0  0  0  0  0
   -6.3920   18.9050  -33.8510 C   0  0  0  0  0  0  0  0  0  0  0  0
   -6.1010   19.2950  -35.0150 O   0  0  0  0  0  0  0  0  0  0  0  0
   -5.9370   17.5590  -33.3930 C   0  0  0  0  0  0  0  0  0  0  0  0
   -5.7980   17.2520  -32.0220 C   0  0  0  0  0  0  0  0  0  0  0  0
   -5.3460   15.9890  -31.6160 C   0  0  0  0  0  0  0  0  0  0  0  0
   -4.9900   15.0320  -32.5690 C   0  0  0  0  0  0  0  0  0  0  0  0
   -5.1000   15.3270  -33.9310 C   0  0  0  0  0  0  0  0  0  0  0  0
   -5.5800   16.5760  -34.3410 C   0  0  0  0  0  0  0  0  0  0  0  0
   -8.3690   19.5520  -32.6760 N   0  0  0  0  0  0  0  0  0  0  0  0
   -9.1900   20.3840  -31.7930 C   0  0  0  0  0  0  0  0  0  0  0  0
   -8.8790   21.8720  -31.9990 C   0  0  0  0  0  0  0  0  0  0  0  0
   -5.4137   25.4311  -29.1510 H   0  0  0  0  0  0  0  0  0  0  0  0
   -5.2056   26.6826  -30.4227 H   0  0  0  0  0  0  0  0  0  0  0  0
   -6.6656   25.6362  -30.4227 H   0  0  0  0  0  0  0  0  0  0  0  0
   -7.5421   24.0940  -31.1373 H   0  0  0  0  0  0  0  0  0  0  0  0
   -4.4634   20.5164  -32.7905 H   0  0  0  0  0  0  0  0  0  0  0  0
   -2.1192   21.6680  -30.5707 H   0  0  0  0  0  0  0  0  0  0  0  0
   -2.5397   20.8199  -32.0973 H   0  0  0  0  0  0  0  0  0  0  0  0
   -1.2741   22.0945  -32.0973 H   0  0  0  0  0  0  0  0  0  0  0  0
   -6.0467   18.0109  -31.2656 H   0  0  0  0  0  0  0  0  0  0  0  0
   -5.2715   15.7510  -30.5447 H   0  0  0  0  0  0  0  0  0  0  0  0
   -4.6230   14.0460  -32.2478 H   0  0  0  0  0  0  0  0  0  0  0  0
   -4.8090   14.5768  -34.6811 H   0  0  0  0  0  0  0  0  0  0  0  0
   -5.6802   16.7942  -35.4145 H   0  0  0  0  0  0  0  0  0  0  0  0
  -10.2525   20.2041  -32.0137 H   0  0  0  0  0  0  0  0  0  0  0  0
   -8.9644   20.1186  -30.7496 H   0  0  0  0  0  0  0  0  0  0  0  0
   -9.2673   22.1941  -32.9765 H   0  0  0  0  0  0  0  0  0  0  0  0
   -9.3567   22.4566  -31.1989 H   0  0  0  0  0  0  0  0  0  0  0  0
  1  2  1  0
  2  3  1  0
  3  4  2  0
  4  5  1  0
  5  6  2  0
  6  7  1  0
  7  8  2  0
  8  9  1  0
  9 10  1  0
  6 11  1  0
 11 12  1  0
 12 13  2  0
 12 14  1  0
 14 15  2  0
 15 16  1  0
 16 17  2  0
 17 18  1  0
 18 19  2  0
 11 20  2  0
 20 21  1  0
 21 22  1  0
  8  3  1  0
 19 14  1  0
 22  5  1  0
  1 23  1  0
  1 24  1  0
  1 25  1  0
  4 26  1  0
  7 27  1  0
 10 28  1  0
 10 29  1  0
 10 30  1  0
 15 31  1  0
 16 32  1  0
 17 33  1  0
 18 34  1  0
 19 35  1  0
 21 36  1  0
 21 37  1  0
 22 38  1  0
 22 39  1  0
M  END
>  <UniqueID>  (12) 
11

>  <SMILES>  (12) 
COc1cc2c(cc1OC)C(C(=O)c1ccccc1)=NCC2

>  <Energy>  (12) 
48.85783493520987

>  <Genealogy>  (12) 
COc1cc2c(cc1OC)C(C(=O)c1ccccc1)=NCC2 (3D coordinates assigned)
COc1cc2c(cc1OC)C(C(=O)c1ccccc1)=NCC2 (nonaromatic ring conformer: 48.85783493520987 kcal/mol)

>  <smiles>  (12) 
COc1cc2c(cc1OC)C(C(=O)c1ccccc1)=NCC2

>  <score_type>  (12) 
oracle

>  <origin>  (12) 
adgpu

>  <m_score__min__energy>  (12) 
-7.9900000000000002

>  <m_primary>  (12) 
energy

$$$$
12:0
     RDKit          3D

 43 46  0  0  0  0  0  0  0  0999 V2000
   -3.4270   20.8480  -27.6400 C   0  0  0  0  0  0  0  0  0  0  0  0
   -2.1770   20.6290  -28.4480 C   0  0  0  0  0  0  0  0  0  0  0  0
   -1.3380   19.5520  -28.1170 C   0  0  0  0  0  0  0  0  0  0  0  0
   -0.1820   19.2910  -28.8640 C   0  0  0  0  0  0  0  0  0  0  0  0
    0.6600   18.1850  -28.5250 N   0  0  0  0  0  0  0  0  0  0  0  0
    0.1440   20.1160  -29.9470 C   0  0  0  0  0  0  0  0  0  0  0  0
   -0.6710   21.2010  -30.2720 C   0  0  0  0  0  0  0  0  0  0  0  0
   -1.8210   21.4820  -29.5180 C   0  0  0  0  0  0  0  0  0  0  0  0
   -2.6230   22.6230  -29.8710 N   0  0  0  0  0  0  0  0  0  0  0  0
   -3.5380   22.7290  -30.8620 C   0  0  0  0  0  0  0  0  0  0  0  0
   -3.9710   21.6410  -31.7650 C   0  0  0  0  0  0  0  0  0  0  0  0
   -5.3130   21.2250  -31.8140 C   0  0  0  0  0  0  0  0  0  0  0  0
   -5.7040   20.1970  -32.6780 C   0  0  0  0  0  0  0  0  0  0  0  0
   -4.7620   19.5860  -33.5110 C   0  0  0  0  0  0  0  0  0  0  0  0
   -5.1500   18.5650  -34.3690 O   0  0  0  0  0  0  0  0  0  0  0  0
   -3.4290   20.0070  -33.4840 C   0  0  0  0  0  0  0  0  0  0  0  0
   -3.0360   21.0340  -32.6200 C   0  0  0  0  0  0  0  0  0  0  0  0
   -4.0400   23.9780  -30.9270 N   0  0  0  0  0  0  0  0  0  0  0  0
   -3.4520   24.6890  -29.9770 N   0  0  0  0  0  0  0  0  0  0  0  0
   -2.5860   23.8700  -29.3500 C   0  0  0  0  0  0  0  0  0  0  0  0
   -1.7280   24.3150  -28.2330 C   0  0  0  0  0  0  0  0  0  0  0  0
   -1.5980   23.4900  -27.1030 C   0  0  0  0  0  0  0  0  0  0  0  0
   -0.7740   23.8710  -26.0410 C   0  0  0  0  0  0  0  0  0  0  0  0
   -0.0870   25.0870  -26.0890 C   0  0  0  0  0  0  0  0  0  0  0  0
   -0.2330   25.9280  -27.1950 C   0  0  0  0  0  0  0  0  0  0  0  0
   -1.0610   25.5550  -28.2600 C   0  0  0  0  0  0  0  0  0  0  0  0
   -1.2360   26.4370  -29.3210 O   0  0  0  0  0  0  0  0  0  0  0  0
   -3.1830   20.8053  -26.5683 H   0  0  0  0  0  0  0  0  0  0  0  0
   -3.8510   21.8341  -27.8805 H   0  0  0  0  0  0  0  0  0  0  0  0
   -4.1610   20.0648  -27.8805 H   0  0  0  0  0  0  0  0  0  0  0  0
   -1.5913   18.9071  -27.2626 H   0  0  0  0  0  0  0  0  0  0  0  0
    0.3750   17.5030  -27.7870 H   0  0  0  0  0  0  0  0  0  0  0  0
    1.5720   18.0400  -29.0100 H   0  0  0  0  0  0  0  0  0  0  0  0
    1.0448   19.9084  -30.5432 H   0  0  0  0  0  0  0  0  0  0  0  0
   -0.4098   21.8420  -31.1270 H   0  0  0  0  0  0  0  0  0  0  0  0
   -6.0599   21.7109  -31.1690 H   0  0  0  0  0  0  0  0  0  0  0  0
   -6.7537   19.8689  -32.7021 H   0  0  0  0  0  0  0  0  0  0  0  0
   -2.6887   19.5299  -34.1430 H   0  0  0  0  0  0  0  0  0  0  0  0
   -1.9882   21.3687  -32.6098 H   0  0  0  0  0  0  0  0  0  0  0  0
   -2.1482   22.5387  -27.0543 H   0  0  0  0  0  0  0  0  0  0  0  0
   -0.6659   23.2131  -25.1661 H   0  0  0  0  0  0  0  0  0  0  0  0
    0.5685   25.3819  -25.2563 H   0  0  0  0  0  0  0  0  0  0  0  0
    0.3048   26.8869  -27.2289 H   0  0  0  0  0  0  0  0  0  0  0  0
  1  2  1  0
  2  3  2  0
  3  4  1  0
  4  5  1  0
  4  6  2  0
  6  7  1  0
  7  8  2  0
  8  9  1  0
  9 10  1  0
 10 11  1  0
 11 12  2  0
 12 13  1  0
 13 14  2  0
 14 15  1  0
 14 16  1  0
 16 17  2  0
 10 18  2  0
 18 19  1  0
 19 20  2  0
 20 21  1  0
 21 22  2  0
 22 23  1  0
 23 24  2  0
 24 25  1  0
 25 26  2  0
 26 27  1  0
  8  2  1  0
 20  9  1  0
 26 21  1  0
 17 11  1  0
  1 28  1  0
  1 29  1  0
  1 30  1  0
  3 31  1  0
  5 32  1  0
  5 33  1  0
  6 34  1  0
  7 35  1  0
 12 36  1  0
 13 37  1  0
 16 38  1  0
 17 39  1  0
 22 40  1  0
 23 41  1  0
 24 42  1  0
 25 43  1  0
M  CHG  2  15  -1  27  -1
M  END
>  <UniqueID>  (13) 
12

>  <SMILES>  (13) 
Cc1cc(N)ccc1-n1c(-c2ccc([O-])cc2)nnc1-c1ccccc1[O-]

>  <Energy>  (13) 
96.82390380201404

>  <Genealogy>  (13) 
Cc1cc(N)ccc1-n1c(-c2ccc([O-])cc2)nnc1-c1ccccc1[O-] (protonated)
Cc1cc(N)ccc1-n1c(-c2ccc([O-])cc2)nnc1-c1ccccc1[O-] (3D coordinates assigned)
Cc1cc(N)ccc1-n1c(-c2ccc([O-])cc2)nnc1-c1ccccc1[O-] (optimized conformer: 96.82390380201404 kcal/mol)

>  <smiles>  (13) 
Cc1cc(N)ccc1-n1c(-c2ccc(O)cc2)nnc1-c1ccccc1O

>  <score_type>  (13) 
oracle

>  <origin>  (13) 
adgpu

>  <m_score__min__energy>  (13) 
-11.09

>  <m_primary>  (13) 
energy

$$$$
13:0
     RDKit          3D

 34 36  0  0  0  0  0  0  0  0999 V2000
   -7.6410   23.3880  -29.3410 O   0  0  0  0  0  0  0  0  0  0  0  0
   -7.4560   22.5740  -30.4580 C   0  0  0  0  0  0  0  0  0  0  0  0
   -8.4230   21.6120  -30.7780 C   0  0  0  0  0  0  0  0  0  0  0  0
   -8.2440   20.7640  -31.8700 C   0  0  0  0  0  0  0  0  0  0  0  0
   -7.0950   20.8580  -32.6650 C   0  0  0  0  0  0  0  0  0  0  0  0
   -6.9460   19.9700  -33.7910 N   0  0  0  0  0  0  0  0  0  0  0  0
   -5.6800   19.3610  -34.2070 C   0  0  0  0  0  0  0  0  0  0  0  0
   -5.4860   18.0230  -33.5410 C   0  0  0  0  0  0  0  0  0  0  0  0
   -5.9030   17.8170  -32.2160 C   0  0  0  0  0  0  0  0  0  0  0  0
   -5.7200   16.5720  -31.6050 C   0  0  0  0  0  0  0  0  0  0  0  0
   -5.1300   15.5230  -32.3150 C   0  0  0  0  0  0  0  0  0  0  0  0
   -4.7240   15.7150  -33.6400 C   0  0  0  0  0  0  0  0  0  0  0  0
   -3.9880   14.3970  -34.5320 Cl  0  0  0  0  0  0  0  0  0  0  0  0
   -4.9050   16.9600  -34.2530 C   0  0  0  0  0  0  0  0  0  0  0  0
   -6.1190   21.8200  -32.3420 C   0  0  0  0  0  0  0  0  0  0  0  0
   -6.2950   22.6930  -31.2510 C   0  0  0  0  0  0  0  0  0  0  0  0
   -5.2550   23.7100  -30.9600 C   0  0  0  0  0  0  0  0  0  0  0  0
   -3.9370   23.5070  -30.6020 C   0  0  0  0  0  0  0  0  0  0  0  0
   -3.3480   24.6990  -30.3900 N   0  0  0  0  0  0  0  0  0  0  0  0
   -4.2410   25.6550  -30.5970 N   0  0  0  0  0  0  0  0  0  0  0  0
   -5.4100   25.0830  -30.9380 C   0  0  0  0  0  0  0  0  0  0  0  0
   -6.8780   23.9160  -28.9350 H   0  0  0  0  0  0  0  0  0  0  0  0
   -9.3307   21.5251  -30.1627 H   0  0  0  0  0  0  0  0  0  0  0  0
   -9.0124   20.0142  -32.1093 H   0  0  0  0  0  0  0  0  0  0  0  0
   -7.7850   19.7720  -34.3830 H   0  0  0  0  0  0  0  0  0  0  0  0
   -5.6875   19.2230  -35.2983 H   0  0  0  0  0  0  0  0  0  0  0  0
   -4.8548   20.0254  -33.9110 H   0  0  0  0  0  0  0  0  0  0  0  0
   -6.3754   18.6378  -31.6564 H   0  0  0  0  0  0  0  0  0  0  0  0
   -6.0410   16.4186  -30.5641 H   0  0  0  0  0  0  0  0  0  0  0  0
   -4.9847   14.5456  -31.8318 H   0  0  0  0  0  0  0  0  0  0  0  0
   -4.5910   17.1071  -35.2969 H   0  0  0  0  0  0  0  0  0  0  0  0
   -5.2055   21.8908  -32.9508 H   0  0  0  0  0  0  0  0  0  0  0  0
   -3.4463   22.5273  -30.5054 H   0  0  0  0  0  0  0  0  0  0  0  0
   -6.3416   25.6227  -31.1636 H   0  0  0  0  0  0  0  0  0  0  0  0
  1  2  1  0
  2  3  2  0
  3  4  1  0
  4  5  2  0
  5  6  1  0
  6  7  1  0
  7  8  1  0
  8  9  2  0
  9 10  1  0
 10 11  2  0
 11 12  1  0
 12 13  1  0
 12 14  2  0
  5 15  1  0
 15 16  2  0
 16 17  1  0
 17 18  1  0
 18 19  2  0
 19 20  1  0
 20 21  1  0
 16  2  1  0
 21 17  2  0
 14  8  1  0
  1 22  1  0
  3 23  1  0
  4 24  1  0
  6 25  1  0
  7 26  1  0
  7 27  1  0
  9 28  1  0
 10 29  1  0
 11 30  1  0
 14 31  1  0
 15 32  1  0
 18 33  1  0
 21 34  1  0
M  CHG  1  20  -1
M  END
>  <UniqueID>  (14) 
13

>  <SMILES>  (14) 
Oc1ccc(NCc2cccc(Cl)c2)cc1-c1cn[n-]c1

>  <Energy>  (14) 
68.92932311524693

>  <Genealogy>  (14) 
Oc1ccc(NCc2cccc(Cl)c2)cc1-c1cn[n-]c1 (protonated)
Oc1ccc(NCc2cccc(Cl)c2)cc1-c1cn[n-]c1 (3D coordinates assigned)
Oc1ccc(NCc2cccc(Cl)c2)cc1-c1cn[n-]c1 (optimized conformer: 68.92932311524693 kcal/mol)

>  <smiles>  (14) 
Oc1ccc(NCc2cccc(Cl)c2)cc1-c1cn[nH]c1

>  <score_type>  (14) 
oracle

>  <origin>  (14) 
adgpu

>  <m_score__min__energy>  (14) 
-9.4399999999999995

>  <m_primary>  (14) 
energy

$$$$
14:0
     RDKit          3D

 44 47  0  0  0  0  0  0  0  0999 V2000
   -3.1170   23.8370  -28.1290 O   0  0  0  0  0  0  0  0  0  0  0  0
   -2.6930   24.5570  -29.0730 C   0  0  0  0  0  0  0  0  0  0  0  0
   -3.5550   24.9190  -30.1580 N   0  0  0  0  0  0  0  0  0  0  0  0
   -4.6180   24.1240  -30.7070 C   0  0  0  0  0  0  0  0  0  0  0  0
   -4.2890   23.0580  -31.5530 C   0  0  0  0  0  0  0  0  0  0  0  0
   -5.2920   22.2700  -32.1230 C   0  0  0  0  0  0  0  0  0  0  0  0
   -6.6400   22.5380  -31.8580 C   0  0  0  0  0  0  0  0  0  0  0  0
   -7.6180   21.7320  -32.4600 O   0  0  0  0  0  0  0  0  0  0  0  0
   -7.5820   20.3320  -32.5380 C   0  0  0  0  0  0  0  0  0  0  0  0
   -6.6720   19.6540  -33.3700 C   0  0  0  0  0  0  0  0  0  0  0  0
   -6.6810   18.2570  -33.4310 C   0  0  0  0  0  0  0  0  0  0  0  0
   -7.6020   17.5280  -32.6730 C   0  0  0  0  0  0  0  0  0  0  0  0
   -8.5200   18.1960  -31.8590 C   0  0  0  0  0  0  0  0  0  0  0  0
   -8.5150   19.5940  -31.7970 C   0  0  0  0  0  0  0  0  0  0  0  0
   -6.9750   23.6350  -31.0450 C   0  0  0  0  0  0  0  0  0  0  0  0
   -5.9720   24.4230  -30.4750 C   0  0  0  0  0  0  0  0  0  0  0  0
   -1.3280   24.9920  -29.0910 N   0  0  0  0  0  0  0  0  0  0  0  0
   -0.4110   24.6870  -28.0290 C   0  0  0  0  0  0  0  0  0  0  0  0
    0.6190   23.7700  -28.2790 C   0  0  0  0  0  0  0  0  0  0  0  0
    1.5560   23.4680  -27.2900 C   0  0  0  0  0  0  0  0  0  0  0  0
    1.4730   24.0680  -26.0340 C   0  0  0  0  0  0  0  0  0  0  0  0
    0.4330   24.9660  -25.7490 C   0  0  0  0  0  0  0  0  0  0  0  0
    0.3360   25.5490  -24.4750 C   0  0  0  0  0  0  0  0  0  0  0  0
   -0.7150   26.4170  -24.1790 C   0  0  0  0  0  0  0  0  0  0  0  0
   -1.6810   26.7060  -25.1450 C   0  0  0  0  0  0  0  0  0  0  0  0
   -1.5960   26.1360  -26.4180 C   0  0  0  0  0  0  0  0  0  0  0  0
   -0.5300   25.2740  -26.7460 C   0  0  0  0  0  0  0  0  0  0  0  0
   -3.2331   22.8393  -31.7705 H   0  0  0  0  0  0  0  0  0  0  0  0
   -5.0207   21.4338  -32.7841 H   0  0  0  0  0  0  0  0  0  0  0  0
   -5.9514   20.2246  -33.9742 H   0  0  0  0  0  0  0  0  0  0  0  0
   -5.9623   17.7309  -34.0764 H   0  0  0  0  0  0  0  0  0  0  0  0
   -7.6039   16.4289  -32.7175 H   0  0  0  0  0  0  0  0  0  0  0  0
   -9.2476   17.6224  -31.2661 H   0  0  0  0  0  0  0  0  0  0  0  0
   -9.2470   20.1163  -31.1635 H   0  0  0  0  0  0  0  0  0  0  0  0
   -8.0321   23.8741  -30.8568 H   0  0  0  0  0  0  0  0  0  0  0  0
   -6.2428   25.2809  -29.8421 H   0  0  0  0  0  0  0  0  0  0  0  0
   -1.0580   25.7300  -29.7800 H   0  0  0  0  0  0  0  0  0  0  0  0
    0.6894   23.2841  -29.2634 H   0  0  0  0  0  0  0  0  0  0  0  0
    2.3644   22.7528  -27.5023 H   0  0  0  0  0  0  0  0  0  0  0  0
    2.2246   23.8368  -25.2648 H   0  0  0  0  0  0  0  0  0  0  0  0
    1.0910   25.3205  -23.7084 H   0  0  0  0  0  0  0  0  0  0  0  0
   -0.7831   26.8753  -23.1814 H   0  0  0  0  0  0  0  0  0  0  0  0
   -2.5120   27.3849  -24.9030 H   0  0  0  0  0  0  0  0  0  0  0  0
   -2.3667   26.3617  -27.1697 H   0  0  0  0  0  0  0  0  0  0  0  0
  1  2  2  0
  2  3  1  0
  3  4  1  0
  4  5  2  0
  5  6  1  0
  6  7  2  0
  7  8  1  0
  8  9  1  0
  9 10  2  0
 10 11  1  0
 11 12  2  0
 12 13  1  0
 13 14  2  0
  7 15  1  0
 15 16  2  0
  2 17  1  0
 17 18  1  0
 18 19  2  0
 19 20  1  0
 20 21  2  0
 21 22  1  0
 22 23  2  0
 23 24  1  0
 24 25  2  0
 25 26  1  0
 26 27  2  0
 16  4  1  0
 27 18  1  0
 14  9  1  0
 27 22  1  0
  5 28  1  0
  6 29  1  0
 10 30  1  0
 11 31  1  0
 12 32  1  0
 13 33  1  0
 14 34  1  0
 15 35  1  0
 16 36  1  0
 17 37  1  0
 19 38  1  0
 20 39  1  0
 21 40  1  0
 23 41  1  0
 24 42  1  0
 25 43  1  0
 26 44  1  0
M  CHG  1   3  -1
M  END
>  <UniqueID>  (15) 
14

>  <SMILES>  (15) 
O=C([N-]c1ccc(Oc2ccccc2)cc1)Nc1cccc2ccccc12

>  <Energy>  (15) 
68.67591741569542

>  <Genealogy>  (15) 
O=C([N-]c1ccc(Oc2ccccc2)cc1)Nc1cccc2ccccc12 (protonated)
O=C([N-]c1ccc(Oc2ccccc2)cc1)Nc1cccc2ccccc12 (3D coordinates assigned)
O=C([N-]c1ccc(Oc2ccccc2)cc1)Nc1cccc2ccccc12 (optimized conformer: 68.67591741569542 kcal/mol)

>  <smiles>  (15) 
O=C(Nc1ccc(Oc2ccccc2)cc1)Nc1cccc2ccccc12

>  <score_type>  (15) 
oracle

>  <origin>  (15) 
adgpu

>  <m_score__min__energy>  (15) 
-10.960000000000001

>  <m_primary>  (15) 
energy

$$$$
15:0
     RDKit          3D

 48 51  0  0  0  0  0  0  0  0999 V2000
    0.6400   27.5850  -23.2460 C   0  0  0  0  0  0  0  0  0  0  0  0
   -0.6220   27.0870  -23.6790 O   0  0  0  0  0  0  0  0  0  0  0  0
   -0.9270   26.7480  -25.0060 C   0  0  0  0  0  0  0  0  0  0  0  0
   -1.9610   25.8340  -25.2380 C   0  0  0  0  0  0  0  0  0  0  0  0
   -2.3050   25.4660  -26.5420 C   0  0  0  0  0  0  0  0  0  0  0  0
   -1.6220   26.0220  -27.6390 C   0  0  0  0  0  0  0  0  0  0  0  0
   -1.9240   25.6730  -28.9640 O   0  0  0  0  0  0  0  0  0  0  0  0
   -2.4650   24.4490  -29.3750 C   0  0  0  0  0  0  0  0  0  0  0  0
   -3.2940   24.3710  -30.4490 N   0  0  0  0  0  0  0  0  0  0  0  0
   -3.7890   23.1740  -30.8490 C   0  0  0  0  0  0  0  0  0  0  0  0
   -4.6620   23.1250  -31.9430 O   0  0  0  0  0  0  0  0  0  0  0  0
   -5.9440   22.5540  -31.9310 C   0  0  0  0  0  0  0  0  0  0  0  0
   -7.0870   23.2860  -31.5600 C   0  0  0  0  0  0  0  0  0  0  0  0
   -8.3440   22.6760  -31.5610 C   0  0  0  0  0  0  0  0  0  0  0  0
   -8.4700   21.3300  -31.9130 C   0  0  0  0  0  0  0  0  0  0  0  0
   -7.3340   20.5790  -32.2470 C   0  0  0  0  0  0  0  0  0  0  0  0
   -7.4720   19.1400  -32.6480 C   0  0  0  0  0  0  0  0  0  0  0  0
   -6.0750   21.2000  -32.2610 C   0  0  0  0  0  0  0  0  0  0  0  0
   -3.4570   22.0490  -30.1630 N   0  0  0  0  0  0  0  0  0  0  0  0
   -2.6190   22.1110  -29.0940 C   0  0  0  0  0  0  0  0  0  0  0  0
   -2.2470   20.8760  -28.3640 C   0  0  0  0  0  0  0  0  0  0  0  0
   -1.0220   20.2310  -28.6210 C   0  0  0  0  0  0  0  0  0  0  0  0
   -0.6750   19.0650  -27.9310 C   0  0  0  0  0  0  0  0  0  0  0  0
   -1.5440   18.5290  -26.9790 C   0  0  0  0  0  0  0  0  0  0  0  0
   -2.7630   19.1570  -26.7140 C   0  0  0  0  0  0  0  0  0  0  0  0
   -3.1150   20.3230  -27.4010 C   0  0  0  0  0  0  0  0  0  0  0  0
   -2.1230   23.3170  -28.7090 N   0  0  0  0  0  0  0  0  0  0  0  0
   -0.5760   26.9220  -27.4060 C   0  0  0  0  0  0  0  0  0  0  0  0
   -0.2310   27.2910  -26.1030 C   0  0  0  0  0  0  0  0  0  0  0  0
    0.6716   27.5975  -22.1465 H   0  0  0  0  0  0  0  0  0  0  0  0
    1.4413   26.9356  -23.6285 H   0  0  0  0  0  0  0  0  0  0  0  0
    0.7819   28.6065  -23.6285 H   0  0  0  0  0  0  0  0  0  0  0  0
   -2.5077   25.4015  -24.3871 H   0  0  0  0  0  0  0  0  0  0  0  0
   -3.1129   24.7388  -26.7110 H   0  0  0  0  0  0  0  0  0  0  0  0
   -6.9906   24.3422  -31.2682 H   0  0  0  0  0  0  0  0  0  0  0  0
   -9.2362   23.2568  -31.2841 H   0  0  0  0  0  0  0  0  0  0  0  0
   -9.4634   20.8579  -31.9282 H   0  0  0  0  0  0  0  0  0  0  0  0
   -7.5322   18.5123  -31.7467 H   0  0  0  0  0  0  0  0  0  0  0  0
   -8.3865   19.0120  -33.2457 H   0  0  0  0  0  0  0  0  0  0  0  0
   -6.5985   18.8405  -33.2457 H   0  0  0  0  0  0  0  0  0  0  0  0
   -5.1830   20.6170  -32.5339 H   0  0  0  0  0  0  0  0  0  0  0  0
   -0.3326   20.6474  -29.3702 H   0  0  0  0  0  0  0  0  0  0  0  0
    0.2847   18.5692  -28.1389 H   0  0  0  0  0  0  0  0  0  0  0  0
   -1.2686   17.6120  -26.4375 H   0  0  0  0  0  0  0  0  0  0  0  0
   -3.4472   18.7338  -25.9638 H   0  0  0  0  0  0  0  0  0  0  0  0
   -4.0768   20.8125  -27.1882 H   0  0  0  0  0  0  0  0  0  0  0  0
   -0.0200   27.3430  -28.2567 H   0  0  0  0  0  0  0  0  0  0  0  0
    0.5864   28.0075  -25.9339 H   0  0  0  0  0  0  0  0  0  0  0  0
  1  2  1  0
  2  3  1  0
  3  4  2  0
  4  5  1  0
  5  6  2  0
  6  7  1  0
  7  8  1  0
  8  9  2  0
  9 10  1  0
 10 11  1  0
 11 12  1  0
 12 13  2  0
 13 14  1  0
 14 15  2  0
 15 16  1  0
 16 17  1  0
 16 18  2  0
 10 19  2  0
 19 20  1  0
 20 21  1  0
 21 22  2  0
 22 23  1  0
 23 24  2  0
 24 25  1  0
 25 26  2  0
 20 27  2  0
  6 28  1  0
 28 29  2  0
 29  3  1  0
 27  8  1  0
 18 12  1  0
 26 21  1  0
  1 30  1  0
  1 31  1  0
  1 32  1  0
  4 33  1  0
  5 34  1  0
 13 35  1  0
 14 36  1  0
 15 37  1  0
 17 38  1  0
 17 39  1  0
 17 40  1  0
 18 41  1  0
 22 42  1  0
 23 43  1  0
 24 44  1  0
 25 45  1  0
 26 46  1  0
 28 47  1  0
 29 48  1  0
M  END
>  <UniqueID>  (16) 
15

>  <SMILES>  (16) 
COc1ccc(Oc2nc(Oc3cccc(C)c3)nc(-c3ccccc3)n2)cc1

>  <Energy>  (16) 
62.75739098647492

>  <Genealogy>  (16) 
COc1ccc(Oc2nc(Oc3cccc(C)c3)nc(-c3ccccc3)n2)cc1 (3D coordinates assigned)
COc1ccc(Oc2nc(Oc3cccc(C)c3)nc(-c3ccccc3)n2)cc1 (optimized conformer: 62.75739098647492 kcal/mol)

>  <smiles>  (16) 
COc1ccc(Oc2nc(Oc3cccc(C)c3)nc(-c3ccccc3)n2)cc1

>  <score_type>  (16) 
oracle

>  <origin>  (16) 
adgpu

>  <m_score__min__energy>  (16) 
-9.1799999999999997

>  <m_primary>  (16) 
energy

$$$$
16:0
     RDKit          3D

 44 47  0  0  0  0  0  0  0  0999 V2000
   -1.7910   22.7540  -29.2940 O   0  0  0  0  0  0  0  0  0  0  0  0
   -2.4150   22.7030  -30.3890 C   0  0  0  0  0  0  0  0  0  0  0  0
   -3.7120   23.4180  -30.4660 C   0  0  0  0  0  0  0  0  0  0  0  0
   -4.9430   22.8550  -30.1840 C   0  0  0  0  0  0  0  0  0  0  0  0
   -5.8720   23.8490  -30.3970 C   0  0  0  0  0  0  0  0  0  0  0  0
   -5.1560   24.9610  -30.7860 C   0  0  0  0  0  0  0  0  0  0  0  0
   -3.8760   24.6740  -30.8160 O   0  0  0  0  0  0  0  0  0  0  0  0
   -1.8620   21.9230  -31.4840 N   0  0  0  0  0  0  0  0  0  0  0  0
   -2.5330   21.9130  -32.8010 C   0  0  0  0  0  0  0  0  0  0  0  0
   -1.9360   20.9430  -33.8420 C   0  0  0  0  0  0  0  0  0  0  0  0
   -1.1960   19.8240  -33.2460 N   0  0  0  0  0  0  0  0  0  0  0  0
   -1.9750   18.6470  -32.7860 C   0  0  0  0  0  0  0  0  0  0  0  0
   -3.4460   18.7110  -33.0920 C   0  0  0  0  0  0  0  0  0  0  0  0
   -4.0550   18.2520  -34.2410 C   0  0  0  0  0  0  0  0  0  0  0  0
   -5.3190   18.5930  -34.1770 O   0  0  0  0  0  0  0  0  0  0  0  0
   -5.4930   19.2350  -33.0410 C   0  0  0  0  0  0  0  0  0  0  0  0
   -6.7730   19.8430  -32.6320 C   0  0  0  0  0  0  0  0  0  0  0  0
   -7.9150   19.0440  -32.4360 C   0  0  0  0  0  0  0  0  0  0  0  0
   -9.1120   19.6200  -32.0000 C   0  0  0  0  0  0  0  0  0  0  0  0
   -9.1810   20.9930  -31.7550 C   0  0  0  0  0  0  0  0  0  0  0  0
  -10.3410   21.5490  -31.3270 F   0  0  0  0  0  0  0  0  0  0  0  0
   -8.0520   21.7950  -31.9490 C   0  0  0  0  0  0  0  0  0  0  0  0
   -6.8540   21.2240  -32.3860 C   0  0  0  0  0  0  0  0  0  0  0  0
   -4.3570   19.3250  -32.3170 N   0  0  0  0  0  0  0  0  0  0  0  0
   -0.1400   20.2950  -32.3460 C   0  0  0  0  0  0  0  0  0  0  0  0
   -0.6970   21.0780  -31.1600 C   0  0  0  0  0  0  0  0  0  0  0  0
   -5.1401   21.8236  -29.8564 H   0  0  0  0  0  0  0  0  0  0  0  0
   -6.9631   23.7715  -30.2805 H   0  0  0  0  0  0  0  0  0  0  0  0
   -5.5916   25.9402  -31.0336 H   0  0  0  0  0  0  0  0  0  0  0  0
   -3.5856   21.6353  -32.6432 H   0  0  0  0  0  0  0  0  0  0  0  0
   -2.3990   22.9227  -33.2165 H   0  0  0  0  0  0  0  0  0  0  0  0
   -2.7581   20.5332  -34.4471 H   0  0  0  0  0  0  0  0  0  0  0  0
   -1.2190   21.5189  -34.4456 H   0  0  0  0  0  0  0  0  0  0  0  0
   -1.5621   17.7510  -33.2724 H   0  0  0  0  0  0  0  0  0  0  0  0
   -1.8855   18.6231  -31.6899 H   0  0  0  0  0  0  0  0  0  0  0  0
   -3.5695   17.7013  -35.0602 H   0  0  0  0  0  0  0  0  0  0  0  0
   -7.8655   17.9618  -32.6267 H   0  0  0  0  0  0  0  0  0  0  0  0
  -10.0013   18.9903  -31.8496 H   0  0  0  0  0  0  0  0  0  0  0  0
   -8.1071   22.8768  -31.7573 H   0  0  0  0  0  0  0  0  0  0  0  0
   -5.9691   21.8593  -32.5384 H   0  0  0  0  0  0  0  0  0  0  0  0
    0.4153   19.4248  -31.9661 H   0  0  0  0  0  0  0  0  0  0  0  0
    0.5137   20.9699  -32.9180 H   0  0  0  0  0  0  0  0  0  0  0  0
   -0.9979   20.3594  -30.3835 H   0  0  0  0  0  0  0  0  0  0  0  0
    0.1020   21.7570  -30.8275 H   0  0  0  0  0  0  0  0  0  0  0  0
  1  2  2  0
  2  3  1  0
  3  4  2  0
  4  5  1  0
  5  6  2  0
  6  7  1  0
  2  8  1  0
  8  9  1  0
  9 10  1  0
 10 11  1  0
 11 12  1  0
 12 13  1  0
 13 14  2  0
 14 15  1  0
 15 16  1  0
 16 17  1  0
 17 18  2  0
 18 19  1  0
 19 20  2  0
 20 21  1  0
 20 22  1  0
 22 23  2  0
 16 24  2  0
 11 25  1  0
 25 26  1  0
  7  3  1  0
 26  8  1  0
 24 13  1  0
 23 17  1  0
  4 27  1  0
  5 28  1  0
  6 29  1  0
  9 30  1  0
  9 31  1  0
 10 32  1  0
 10 33  1  0
 12 34  1  0
 12 35  1  0
 14 36  1  0
 18 37  1  0
 19 38  1  0
 22 39  1  0
 23 40  1  0
 25 41  1  0
 25 42  1  0
 26 43  1  0
 26 44  1  0
M  END
>  <UniqueID>  (17) 
16

>  <SMILES>  (17) 
O=C(c1ccco1)N1CCN(Cc2coc(-c3ccc(F)cc3)n2)CC1

>  <Energy>  (17) 
112.74682803933739

>  <Genealogy>  (17) 
O=C(c1ccco1)N1CCN(Cc2coc(-c3ccc(F)cc3)n2)CC1 (3D coordinates assigned)
O=C(c1ccco1)N1CCN(Cc2coc(-c3ccc(F)cc3)n2)CC1 (nonaromatic ring conformer: 112.74682803933739 kcal/mol)

>  <smiles>  (17) 
O=C(c1ccco1)N1CCN(Cc2coc(-c3ccc(F)cc3)n2)CC1

>  <score_type>  (17) 
oracle

>  <origin>  (17) 
adgpu

>  <m_score__min__energy>  (17) 
-8.9000000000000004

>  <m_primary>  (17) 
energy

$$$$
17:0
     RDKit          3D

 69 72  0  0  1  0  0  0  0  0999 V2000
   -2.3080   25.4360  -25.9080 C   0  0  0  0  0  0  0  0  0  0  0  0
   -2.1400   24.4970  -26.8160 C   0  0  0  0  0  0  0  0  0  0  0  0
   -2.8430   24.5670  -28.1170 C   0  0  0  0  0  0  0  0  0  0  0  0
   -2.2780   25.2470  -28.9980 O   0  0  0  0  0  0  0  0  0  0  0  0
   -4.0690   23.8900  -28.2900 N   0  0  0  0  0  0  0  0  0  0  0  0
   -4.8430   23.8730  -29.4790 C   0  0  0  0  0  0  0  0  0  0  0  0
   -5.3550   24.9840  -30.0920 C   0  0  0  0  0  0  0  0  0  0  0  0
   -6.1160   24.9360  -31.2590 C   0  0  0  0  0  0  0  0  0  0  0  0
   -6.3460   23.6970  -31.7920 C   0  0  0  0  0  0  0  0  0  0  0  0
   -5.8680   22.5160  -31.2380 C   0  0  0  0  0  0  0  0  0  0  0  0
   -5.9360   21.2620  -31.7680 N   0  0  0  0  0  0  0  0  0  0  0  0
   -6.8180   20.4130  -31.7980 C   0  0  0  0  0  0  0  0  0  0  0  0
   -6.5090   19.2290  -32.4440 N   0  0  0  0  0  0  0  0  0  0  0  0
   -7.3840   18.2280  -32.5400 C   0  0  0  0  0  0  0  0  0  0  0  0
   -7.0620   17.1520  -33.1380 N   0  0  0  0  0  0  0  0  0  0  0  0
   -5.7860   16.9380  -33.7330 C   0  0  0  0  0  0  0  0  0  0  0  0
   -5.3670   17.5620  -34.8760 C   0  0  0  0  0  0  0  0  0  0  0  0
   -4.1330   17.3520  -35.4400 C   0  0  0  0  0  0  0  0  0  0  0  0
   -3.2230   16.4680  -34.8600 C   0  0  0  0  0  0  0  0  0  0  0  0
   -1.9540   16.2660  -35.4580 N   0  0  0  0  0  0  0  0  0  0  0  0
   -0.8420   17.1870  -35.3390 C   0  0  0  0  0  0  0  0  0  0  0  0
    0.3970   16.3340  -35.1630 C   0  0  0  0  0  0  0  0  0  0  0  0
    0.6830   15.6390  -36.3810 N   0  0  0  0  0  0  0  0  0  0  0  0
    1.7670   16.5080  -37.4160 S   0  0  0  0  0  0  0  0  0  0  0  0
    2.0550   15.5820  -38.9020 C   0  0  0  0  0  0  0  0  0  0  0  0
    1.0870   17.8000  -37.8000 O   0  0  0  0  0  0  0  0  0  0  0  0
    3.0490   16.8160  -36.7290 O   0  0  0  0  0  0  0  0  0  0  0  0
   -0.4930   15.2280  -37.0800 C   0  0  0  0  0  0  0  0  0  0  0  0
   -1.7230   15.0640  -36.2490 C   0  0  0  0  0  0  0  0  0  0  0  0
   -3.6330   15.8340  -33.7090 C   0  0  0  0  0  0  0  0  0  0  0  0
   -4.8880   16.0510  -33.1400 C   0  0  0  0  0  0  0  0  0  0  0  0
   -5.2980   15.4090  -31.9800 O   0  0  0  0  0  0  0  0  0  0  0  0
   -4.6200   14.2200  -31.6140 C   0  0  0  0  0  0  0  0  0  0  0  0
   -8.5890   18.3970  -31.9880 N   0  0  0  0  0  0  0  0  0  0  0  0
   -8.9270   19.5220  -31.3570 C   0  0  0  0  0  0  0  0  0  0  0  0
   -8.0340   20.6210  -31.2240 C   0  0  0  0  0  0  0  0  0  0  0  0
   -8.5540   21.7640  -30.5310 C   0  0  0  0  0  0  0  0  0  0  0  0
   -9.9110   21.5580  -30.1440 F   0  0  0  0  0  0  0  0  0  0  0  0
   -7.9410   22.4550  -29.5820 F   0  0  0  0  0  0  0  0  0  0  0  0
   -8.8580   22.6940  -31.5090 F   0  0  0  0  0  0  0  0  0  0  0  0
   -5.0970   22.6510  -30.0430 C   0  0  0  0  0  0  0  0  0  0  0  0
   -1.7793   25.3713  -24.9455 H   0  0  0  0  0  0  0  0  0  0  0  0
   -2.9770   26.2850  -26.1120 H   0  0  0  0  0  0  0  0  0  0  0  0
   -1.4695   23.6508  -26.6053 H   0  0  0  0  0  0  0  0  0  0  0  0
   -4.4130   23.3560  -27.4370 H   0  0  0  0  0  0  0  0  0  0  0  0
   -5.1556   25.9669  -29.6401 H   0  0  0  0  0  0  0  0  0  0  0  0
   -6.5119   25.8488  -31.7280 H   0  0  0  0  0  0  0  0  0  0  0  0
   -6.9442   23.6322  -32.7128 H   0  0  0  0  0  0  0  0  0  0  0  0
   -5.5730   19.0860  -32.8790 H   0  0  0  0  0  0  0  0  0  0  0  0
   -6.0531   18.2673  -35.3678 H   0  0  0  0  0  0  0  0  0  0  0  0
   -3.8584   17.8875  -36.3608 H   0  0  0  0  0  0  0  0  0  0  0  0
   -0.7564   17.8007  -36.2479 H   0  0  0  0  0  0  0  0  0  0  0  0
   -0.9795   17.8735  -34.4906 H   0  0  0  0  0  0  0  0  0  0  0  0
    1.2496   16.9778  -34.9008 H   0  0  0  0  0  0  0  0  0  0  0  0
    0.2241   15.6031  -34.3593 H   0  0  0  0  0  0  0  0  0  0  0  0
    2.3724   14.5613  -38.6423 H   0  0  0  0  0  0  0  0  0  0  0  0
    1.1279   15.5386  -39.4925 H   0  0  0  0  0  0  0  0  0  0  0  0
    2.8432   16.0720  -39.4925 H   0  0  0  0  0  0  0  0  0  0  0  0
   -0.7064   15.9815  -37.8525 H   0  0  0  0  0  0  0  0  0  0  0  0
   -0.2678   14.2277  -37.4782 H   0  0  0  0  0  0  0  0  0  0  0  0
   -2.5868   14.8896  -36.9073 H   0  0  0  0  0  0  0  0  0  0  0  0
   -1.5902   14.2067  -35.5727 H   0  0  0  0  0  0  0  0  0  0  0  0
   -2.9448   15.1294  -33.2193 H   0  0  0  0  0  0  0  0  0  0  0  0
   -4.5772   14.1450  -30.5174 H   0  0  0  0  0  0  0  0  0  0  0  0
   -5.1584   13.3510  -32.0202 H   0  0  0  0  0  0  0  0  0  0  0  0
   -3.5980   14.2408  -32.0202 H   0  0  0  0  0  0  0  0  0  0  0  0
   -9.2870   17.6220  -32.0530 H   0  0  0  0  0  0  0  0  0  0  0  0
   -9.9345   19.6032  -30.9229 H   0  0  0  0  0  0  0  0  0  0  0  0
   -4.6955   21.7470  -29.5617 H   0  0  0  0  0  0  0  0  0  0  0  0
  1  2  2  0
  2  3  1  0
  3  4  2  0
  3  5  1  0
  5  6  1  0
  6  7  2  0
  7  8  1  0
  8  9  2  0
  9 10  1  0
 10 11  1  0
 11 12  2  0
 12 13  1  0
 13 14  1  0
 14 15  2  0
 15 16  1  0
 16 17  2  0
 17 18  1  0
 18 19  2  0
 19 20  1  0
 20 21  1  0
 21 22  1  0
 22 23  1  0
 23 24  1  0
 24 25  1  0
 24 26  2  0
 24 27  2  0
 23 28  1  0
 28 29  1  0
 19 30  1  0
 30 31  2  0
 31 32  1  0
 32 33  1  0
 14 34  1  0
 34 35  1  0
 35 36  2  0
 36 37  1  0
 37 38  1  0
 37 39  1  0
 37 40  1  0
 10 41  2  0
 41  6  1  0
 36 12  1  0
 31 16  1  0
 29 20  1  0
  1 42  1  0
  1 43  1  0
  2 44  1  0
  5 45  1  0
  7 46  1  0
  8 47  1  0
  9 48  1  0
 13 49  1  0
 17 50  1  0
 18 51  1  0
 21 52  1  0
 21 53  1  0
 22 54  1  0
 22 55  1  0
 25 56  1  0
 25 57  1  0
 25 58  1  0
 28 59  1  0
 28 60  1  0
 29 61  1  0
 29 62  1  0
 30 63  1  0
 33 64  1  0
 33 65  1  0
 33 66  1  0
 34 67  1  0
 35 68  1  0
 41 69  1  0
M  END
>  <smiles>  (18) 
C=CC(=O)Nc1cccc(N=c2[nH]c(=Nc3ccc(N4CCN(S(C)(=O)=O)CC4)cc3OC)[nH]cc2C(F)(F)F)c1

>  <score_type>  (18) 
oracle

>  <origin>  (18) 
adgpu

>  <m_score__min__energy>  (18) 
-9.8499999999999996

>  <m_primary>  (18) 
energy

$$$$
18:0
     RDKit          3D

 35 36  0  0  0  0  0  0  0  0999 V2000
   -0.8220   26.7830  -27.8270 C   0  0  0  0  0  0  0  0  0  0  0  0
   -1.2530   26.0090  -28.9420 O   0  0  0  0  0  0  0  0  0  0  0  0
   -1.7350   24.6930  -28.8640 C   0  0  0  0  0  0  0  0  0  0  0  0
   -1.1080   23.7210  -28.0590 C   0  0  0  0  0  0  0  0  0  0  0  0
   -1.5640   22.3910  -28.0460 C   0  0  0  0  0  0  0  0  0  0  0  0
   -0.9130   21.4050  -27.2220 N   0  0  0  0  0  0  0  0  0  0  0  0
    0.2860   21.1110  -27.4080 O   0  0  0  0  0  0  0  0  0  0  0  0
   -1.6020   20.7650  -26.2170 O   0  0  0  0  0  0  0  0  0  0  0  0
   -2.6540   22.0370  -28.8580 C   0  0  0  0  0  0  0  0  0  0  0  0
   -3.2860   22.9960  -29.6500 C   0  0  0  0  0  0  0  0  0  0  0  0
   -2.8560   24.3270  -29.6370 C   0  0  0  0  0  0  0  0  0  0  0  0
   -3.5420   25.2730  -30.4680 N   0  0  0  0  0  0  0  0  0  0  0  0
   -4.9410   25.2420  -30.7660 C   0  0  0  0  0  0  0  0  0  0  0  0
   -5.6850   26.1550  -30.3210 O   0  0  0  0  0  0  0  0  0  0  0  0
   -5.4830   24.2100  -31.5990 N   0  0  0  0  0  0  0  0  0  0  0  0
   -6.8810   23.7980  -31.5700 C   0  0  0  0  0  0  0  0  0  0  0  0
   -7.0080   22.3520  -31.9690 C   0  0  0  0  0  0  0  0  0  0  0  0
   -5.8830   21.6230  -32.3890 C   0  0  0  0  0  0  0  0  0  0  0  0
   -6.0070   20.2750  -32.7370 C   0  0  0  0  0  0  0  0  0  0  0  0
   -7.2520   19.6450  -32.6650 C   0  0  0  0  0  0  0  0  0  0  0  0
   -8.3760   20.3610  -32.2420 C   0  0  0  0  0  0  0  0  0  0  0  0
   -8.2550   21.7100  -31.8930 C   0  0  0  0  0  0  0  0  0  0  0  0
   -1.1061   26.2729  -26.8948 H   0  0  0  0  0  0  0  0  0  0  0  0
    0.2712   26.9000  -27.8625 H   0  0  0  0  0  0  0  0  0  0  0  0
   -1.2982   27.7739  -27.8625 H   0  0  0  0  0  0  0  0  0  0  0  0
   -0.2503   24.0066  -27.4324 H   0  0  0  0  0  0  0  0  0  0  0  0
   -3.0117   20.9968  -28.8695 H   0  0  0  0  0  0  0  0  0  0  0  0
   -4.1306   22.7026  -30.2908 H   0  0  0  0  0  0  0  0  0  0  0  0
   -7.2771   23.9297  -30.5523 H   0  0  0  0  0  0  0  0  0  0  0  0
   -7.4510   24.4162  -32.2792 H   0  0  0  0  0  0  0  0  0  0  0  0
   -4.9007   22.1150  -32.4442 H   0  0  0  0  0  0  0  0  0  0  0  0
   -5.1234   19.7095  -33.0679 H   0  0  0  0  0  0  0  0  0  0  0  0
   -7.3480   18.5846  -32.9414 H   0  0  0  0  0  0  0  0  0  0  0  0
   -9.3553   19.8634  -32.1837 H   0  0  0  0  0  0  0  0  0  0  0  0
   -9.1401   22.2705  -31.5576 H   0  0  0  0  0  0  0  0  0  0  0  0
  1  2  1  0
  2  3  1  0
  3  4  2  0
  4  5  1  0
  5  6  1  0
  6  7  2  0
  6  8  1  0
  5  9  2  0
  9 10  1  0
 10 11  2  0
 11 12  1  0
 12 13  1  0
 13 14  2  0
 13 15  1  0
 15 16  1  0
 16 17  1  0
 17 18  2  0
 18 19  1  0
 19 20  2  0
 20 21  1  0
 21 22  2  0
 11  3  1  0
 22 17  1  0
  1 23  1  0
  1 24  1  0
  1 25  1  0
  4 26  1  0
  9 27  1  0
 10 28  1  0
 16 29  1  0
 16 30  1  0
 18 31  1  0
 19 32  1  0
 20 33  1  0
 21 34  1  0
 22 35  1  0
M  CHG  4   6   1   8  -1  12  -1  15  -1
M  END
>  <UniqueID>  (19) 
17

>  <SMILES>  (19) 
COc1cc([N+](=O)[O-])ccc1[N-]C(=O)[N-]Cc1ccccc1

>  <Energy>  (19) 
38.854196994420626

>  <Genealogy>  (19) 
COc1cc([N+](=O)[O-])ccc1[N-]C(=O)[N-]Cc1ccccc1 (protonated)
COc1cc([N+](=O)[O-])ccc1[N-]C(=O)[N-]Cc1ccccc1 (3D coordinates assigned)
COc1cc([N+](=O)[O-])ccc1[N-]C(=O)[N-]Cc1ccccc1 (optimized conformer: 38.854196994420626 kcal/mol)

>  <smiles>  (19) 
COc1cc([N+](=O)[O-])ccc1NC(=O)NCc1ccccc1

>  <score_type>  (19) 
oracle

>  <origin>  (19) 
adgpu

>  <m_score__min__energy>  (19) 
-10.199999999999999

>  <m_primary>  (19) 
energy

$$$$
19:0
     RDKit          3D

 46 47  0  0  0  0  0  0  0  0999 V2000
   -4.3630   15.6900  -34.5420 C   0  0  0  0  0  0  0  0  0  0  0  0
   -4.1870   17.0310  -35.2520 C   0  0  0  0  0  0  0  0  0  0  0  0
   -4.0620   18.1300  -34.2830 N   0  0  0  0  0  0  0  0  0  0  0  0
   -2.7390   18.7280  -34.0460 C   0  0  0  0  0  0  0  0  0  0  0  0
   -2.8760   20.1260  -33.4470 C   0  0  0  0  0  0  0  0  0  0  0  0
   -5.2280   18.6090  -33.5730 C   0  0  0  0  0  0  0  0  0  0  0  0
   -5.5190   18.1380  -32.2800 C   0  0  0  0  0  0  0  0  0  0  0  0
   -6.6480   18.5940  -31.5930 C   0  0  0  0  0  0  0  0  0  0  0  0
   -7.5100   19.5300  -32.1880 C   0  0  0  0  0  0  0  0  0  0  0  0
   -8.6780   20.0260  -31.5200 N   0  0  0  0  0  0  0  0  0  0  0  0
   -9.0290   21.6990  -31.2300 S   0  0  0  0  0  0  0  0  0  0  0  0
   -9.8220   21.8240  -29.9600 O   0  0  0  0  0  0  0  0  0  0  0  0
   -9.8510   22.2370  -32.3680 O   0  0  0  0  0  0  0  0  0  0  0  0
   -7.5280   22.6020  -31.0550 C   0  0  0  0  0  0  0  0  0  0  0  0
   -6.6790   22.8000  -32.1520 C   0  0  0  0  0  0  0  0  0  0  0  0
   -5.4850   23.5080  -31.9990 C   0  0  0  0  0  0  0  0  0  0  0  0
   -5.1370   24.0480  -30.7480 C   0  0  0  0  0  0  0  0  0  0  0  0
   -3.9060   24.7560  -30.5510 N   0  0  0  0  0  0  0  0  0  0  0  0
   -2.8650   24.4210  -29.6240 C   0  0  0  0  0  0  0  0  0  0  0  0
   -2.7360   23.0500  -29.0330 C   0  0  0  0  0  0  0  0  0  0  0  0
   -2.0140   25.2960  -29.3210 O   0  0  0  0  0  0  0  0  0  0  0  0
   -5.9740   23.8250  -29.6500 C   0  0  0  0  0  0  0  0  0  0  0  0
   -7.1690   23.1150  -29.8030 C   0  0  0  0  0  0  0  0  0  0  0  0
   -7.2230   20.0020  -33.4730 C   0  0  0  0  0  0  0  0  0  0  0  0
   -6.0940   19.5480  -34.1610 C   0  0  0  0  0  0  0  0  0  0  0  0
   -4.3425   15.8461  -33.4533 H   0  0  0  0  0  0  0  0  0  0  0  0
   -5.3271   15.2460  -34.8307 H   0  0  0  0  0  0  0  0  0  0  0  0
   -3.5461   15.0123  -34.8307 H   0  0  0  0  0  0  0  0  0  0  0  0
   -3.2789   16.9931  -35.8716 H   0  0  0  0  0  0  0  0  0  0  0  0
   -5.0735   17.2148  -35.8767 H   0  0  0  0  0  0  0  0  0  0  0  0
   -2.1746   18.0907  -33.3493 H   0  0  0  0  0  0  0  0  0  0  0  0
   -2.2098   18.8062  -35.0072 H   0  0  0  0  0  0  0  0  0  0  0  0
   -2.8692   20.0568  -32.3492 H   0  0  0  0  0  0  0  0  0  0  0  0
   -2.0349   20.7517  -33.7802 H   0  0  0  0  0  0  0  0  0  0  0  0
   -3.8226   20.5765  -33.7802 H   0  0  0  0  0  0  0  0  0  0  0  0
   -4.8518   17.4038  -31.8048 H   0  0  0  0  0  0  0  0  0  0  0  0
   -6.8623   18.2180  -30.5817 H   0  0  0  0  0  0  0  0  0  0  0  0
   -6.9541   22.3962  -33.1375 H   0  0  0  0  0  0  0  0  0  0  0  0
   -4.8142   23.6438  -32.8602 H   0  0  0  0  0  0  0  0  0  0  0  0
   -2.7428   23.1218  -27.9354 H   0  0  0  0  0  0  0  0  0  0  0  0
   -3.5795   22.4268  -29.3649 H   0  0  0  0  0  0  0  0  0  0  0  0
   -1.7911   22.5951  -29.3649 H   0  0  0  0  0  0  0  0  0  0  0  0
   -5.6905   24.2106  -28.6596 H   0  0  0  0  0  0  0  0  0  0  0  0
   -7.8289   22.9591  -28.9369 H   0  0  0  0  0  0  0  0  0  0  0  0
   -7.8913   20.7366  -33.9461 H   0  0  0  0  0  0  0  0  0  0  0  0
   -5.8812   19.9285  -35.1709 H   0  0  0  0  0  0  0  0  0  0  0  0
  1  2  1  0
  2  3  1  0
  3  4  1  0
  4  5  1  0
  3  6  1  0
  6  7  2  0
  7  8  1  0
  8  9  2  0
  9 10  1  0
 10 11  1  0
 11 12  2  0
 11 13  2  0
 11 14  1  0
 14 15  2  0
 15 16  1  0
 16 17  2  0
 17 18  1  0
 18 19  1  0
 19 20  1  0
 19 21  2  0
 17 22  1  0
 22 23  2  0
  9 24  1  0
 24 25  2  0
 25  6  1  0
 23 14  1  0
  1 26  1  0
  1 27  1  0
  1 28  1  0
  2 29  1  0
  2 30  1  0
  4 31  1  0
  4 32  1  0
  5 33  1  0
  5 34  1  0
  5 35  1  0
  7 36  1  0
  8 37  1  0
 15 38  1  0
 16 39  1  0
 20 40  1  0
 20 41  1  0
 20 42  1  0
 22 43  1  0
 23 44  1  0
 24 45  1  0
 25 46  1  0
M  CHG  2  10  -1  18  -1
M  END
>  <UniqueID>  (20) 
18

>  <SMILES>  (20) 
CCN(CC)c1ccc([N-]S(=O)(=O)c2ccc([N-]C(C)=O)cc2)cc1

>  <Energy>  (20) 
49.575334360168185

>  <Genealogy>  (20) 
CCN(CC)c1ccc([N-]S(=O)(=O)c2ccc([N-]C(C)=O)cc2)cc1 (protonated)
CCN(CC)c1ccc([N-]S(=O)(=O)c2ccc([N-]C(C)=O)cc2)cc1 (3D coordinates assigned)
CCN(CC)c1ccc([N-]S(=O)(=O)c2ccc([N-]C(C)=O)cc2)cc1 (optimized conformer: 49.575334360168185 kcal/mol)

>  <smiles>  (20) 
CCN(CC)c1ccc(NS(=O)(=O)c2ccc(NC(C)=O)cc2)cc1

>  <score_type>  (20) 
oracle

>  <origin>  (20) 
adgpu

>  <m_score__min__energy>  (20) 
-9.8599999999999994

>  <m_primary>  (20) 
energy

$$$$
20:0
     RDKit          3D

 57 60  0  0  0  0  0  0  0  0999 V2000
   -5.0210   15.9310  -32.3490 C   0  0  0  0  0  0  0  0  0  0  0  0
   -5.9340   16.6460  -31.5210 O   0  0  0  0  0  0  0  0  0  0  0  0
   -6.6250   17.8060  -31.9120 C   0  0  0  0  0  0  0  0  0  0  0  0
   -8.0280   17.8260  -32.0460 C   0  0  0  0  0  0  0  0  0  0  0  0
   -8.6850   19.0030  -32.4160 C   0  0  0  0  0  0  0  0  0  0  0  0
   -7.9540   20.1740  -32.6450 C   0  0  0  0  0  0  0  0  0  0  0  0
   -6.5630   20.1670  -32.5140 C   0  0  0  0  0  0  0  0  0  0  0  0
   -5.8940   18.9820  -32.1690 C   0  0  0  0  0  0  0  0  0  0  0  0
   -4.4660   18.9870  -32.1150 N   0  0  0  0  0  0  0  0  0  0  0  0
   -3.5430   20.2850  -32.7940 S   0  0  0  0  0  0  0  0  0  0  0  0
   -4.3480   21.0130  -33.8350 O   0  0  0  0  0  0  0  0  0  0  0  0
   -2.3080   19.7280  -33.4450 O   0  0  0  0  0  0  0  0  0  0  0  0
   -3.0770   21.3830  -31.4990 C   0  0  0  0  0  0  0  0  0  0  0  0
   -2.1380   20.9810  -30.5440 C   0  0  0  0  0  0  0  0  0  0  0  0
   -1.6620   21.8910  -29.6010 C   0  0  0  0  0  0  0  0  0  0  0  0
   -2.1320   23.2140  -29.5860 C   0  0  0  0  0  0  0  0  0  0  0  0
   -1.5690   24.1590  -28.6580 N   0  0  0  0  0  0  0  0  0  0  0  0
   -0.1220   24.1380  -28.4150 C   0  0  0  0  0  0  0  0  0  0  0  0
    0.2560   25.0690  -27.2500 C   0  0  0  0  0  0  0  0  0  0  0  0
   -0.5790   24.8510  -26.0430 N   0  0  0  0  0  0  0  0  0  0  0  0
   -0.0020   23.8180  -25.1680 C   0  0  0  0  0  0  0  0  0  0  0  0
   -2.0200   24.5890  -26.3090 C   0  0  0  0  0  0  0  0  0  0  0  0
   -2.4330   24.9080  -27.7470 C   0  0  0  0  0  0  0  0  0  0  0  0
   -3.1210   23.6080  -30.5060 C   0  0  0  0  0  0  0  0  0  0  0  0
   -3.6390   24.9470  -30.4620 N   0  0  0  0  0  0  0  0  0  0  0  0
   -5.0180   25.3240  -30.5960 C   0  0  0  0  0  0  0  0  0  0  0  0
   -5.3340   26.5350  -30.4450 O   0  0  0  0  0  0  0  0  0  0  0  0
   -6.0820   24.3340  -30.8470 C   0  0  0  0  0  0  0  0  0  0  0  0
   -6.6170   23.4450  -29.9320 C   0  0  0  0  0  0  0  0  0  0  0  0
   -7.5800   22.7370  -30.6170 C   0  0  0  0  0  0  0  0  0  0  0  0
   -7.5840   23.2410  -31.9010 C   0  0  0  0  0  0  0  0  0  0  0  0
   -6.6840   24.1930  -32.0060 O   0  0  0  0  0  0  0  0  0  0  0  0
   -3.5630   22.6960  -31.4820 C   0  0  0  0  0  0  0  0  0  0  0  0
   -4.3116   15.3754  -31.7180 H   0  0  0  0  0  0  0  0  0  0  0  0
   -5.5771   15.2257  -32.9841 H   0  0  0  0  0  0  0  0  0  0  0  0
   -4.4695   16.6399  -32.9841 H   0  0  0  0  0  0  0  0  0  0  0  0
   -8.6088   16.9108  -31.8585 H   0  0  0  0  0  0  0  0  0  0  0  0
   -9.7793   19.0087  -32.5274 H   0  0  0  0  0  0  0  0  0  0  0  0
   -8.4748   21.1006  -32.9283 H   0  0  0  0  0  0  0  0  0  0  0  0
   -5.9911   21.0916  -32.6815 H   0  0  0  0  0  0  0  0  0  0  0  0
   -1.7736   19.9431  -30.5367 H   0  0  0  0  0  0  0  0  0  0  0  0
   -0.9123   21.5699  -28.8629 H   0  0  0  0  0  0  0  0  0  0  0  0
    0.1864   23.1111  -28.1692 H   0  0  0  0  0  0  0  0  0  0  0  0
    0.3906   24.4880  -29.3232 H   0  0  0  0  0  0  0  0  0  0  0  0
    1.3087   24.8907  -26.9855 H   0  0  0  0  0  0  0  0  0  0  0  0
    0.0879   26.1030  -27.5856 H   0  0  0  0  0  0  0  0  0  0  0  0
   -0.1589   24.0990  -24.1161 H   0  0  0  0  0  0  0  0  0  0  0  0
   -0.4920   22.8535  -25.3669 H   0  0  0  0  0  0  0  0  0  0  0  0
    1.0762   23.7294  -25.3669 H   0  0  0  0  0  0  0  0  0  0  0  0
   -2.2243   23.5259  -26.1138 H   0  0  0  0  0  0  0  0  0  0  0  0
   -2.6007   25.2485  -25.6473 H   0  0  0  0  0  0  0  0  0  0  0  0
   -3.4812   24.6144  -27.9052 H   0  0  0  0  0  0  0  0  0  0  0  0
   -2.3325   25.9870  -27.9361 H   0  0  0  0  0  0  0  0  0  0  0  0
   -6.3324   23.3277  -28.8760 H   0  0  0  0  0  0  0  0  0  0  0  0
   -8.2168   21.9326  -30.2203 H   0  0  0  0  0  0  0  0  0  0  0  0
   -8.2409   22.8981  -32.7139 H   0  0  0  0  0  0  0  0  0  0  0  0
   -4.2957   23.0168  -32.2371 H   0  0  0  0  0  0  0  0  0  0  0  0
  1  2  1  0
  2  3  1  0
  3  4  2  0
  4  5  1  0
  5  6  2  0
  6  7  1  0
  7  8  2  0
  8  9  1  0
  9 10  1  0
 10 11  2  0
 10 12  2  0
 10 13  1  0
 13 14  2  0
 14 15  1  0
 15 16  2  0
 16 17  1  0
 17 18  1  0
 18 19  1  0
 19 20  1  0
 20 21  1  0
 20 22  1  0
 22 23  1  0
 16 24  1  0
 24 25  1  0
 25 26  1  0
 26 27  2  0
 26 28  1  0
 28 29  2  0
 29 30  1  0
 30 31  2  0
 31 32  1  0
 24 33  2  0
  8  3  1  0
 33 13  1  0
 23 17  1  0
 32 28  1  0
  1 34  1  0
  1 35  1  0
  1 36  1  0
  4 37  1  0
  5 38  1  0
  6 39  1  0
  7 40  1  0
 14 41  1  0
 15 42  1  0
 18 43  1  0
 18 44  1  0
 19 45  1  0
 19 46  1  0
 21 47  1  0
 21 48  1  0
 21 49  1  0
 22 50  1  0
 22 51  1  0
 23 52  1  0
 23 53  1  0
 29 54  1  0
 30 55  1  0
 31 56  1  0
 33 57  1  0
M  CHG  2   9  -1  25  -1
M  END
>  <UniqueID>  (21) 
19

>  <SMILES>  (21) 
COc1ccccc1[N-]S(=O)(=O)c1ccc(N2CCN(C)CC2)c([N-]C(=O)c2ccco2)c1

>  <Energy>  (21) 
110.6928119724078

>  <Genealogy>  (21) 
COc1ccccc1[N-]S(=O)(=O)c1ccc(N2CCN(C)CC2)c([N-]C(=O)c2ccco2)c1 (protonated)
COc1ccccc1[N-]S(=O)(=O)c1ccc(N2CCN(C)CC2)c([N-]C(=O)c2ccco2)c1 (3D coordinates assigned)
COc1ccccc1[N-]S(=O)(=O)c1ccc(N2CCN(C)CC2)c([N-]C(=O)c2ccco2)c1 (nonaromatic ring conformer: 110.6928119724078 kcal/mol)

>  <smiles>  (21) 
COc1ccccc1NS(=O)(=O)c1ccc(N2CCN(C)CC2)c(NC(=O)c2ccco2)c1

>  <score_type>  (21) 
oracle

>  <origin>  (21) 
adgpu

>  <m_score__min__energy>  (21) 
-11.18

>  <m_primary>  (21) 
energy

$$$$
21:0
     RDKit          3D

 58 63  0  0  0  0  0  0  0  0999 V2000
   -0.2680   29.8050  -24.8390 C   0  0  0  0  0  0  0  0  0  0  0  0
   -0.5910   28.5230  -25.5490 C   0  0  0  0  0  0  0  0  0  0  0  0
   -1.1620   27.4490  -24.8470 C   0  0  0  0  0  0  0  0  0  0  0  0
   -1.4260   26.2410  -25.5000 C   0  0  0  0  0  0  0  0  0  0  0  0
   -1.0990   26.0800  -26.8600 C   0  0  0  0  0  0  0  0  0  0  0  0
   -1.3540   24.7920  -27.5390 C   0  0  0  0  0  0  0  0  0  0  0  0
   -1.5670   24.6720  -28.8690 N   0  0  0  0  0  0  0  0  0  0  0  0
   -1.7180   23.3410  -29.0200 C   0  0  0  0  0  0  0  0  0  0  0  0
   -1.9920   22.7160  -30.3260 C   0  0  0  0  0  0  0  0  0  0  0  0
   -1.0950   21.9610  -31.0530 C   0  0  0  0  0  0  0  0  0  0  0  0
   -1.7330   21.4670  -32.1350 N   0  0  0  0  0  0  0  0  0  0  0  0
   -1.1870   20.5950  -33.1500 C   0  0  0  0  0  0  0  0  0  0  0  0
   -0.3400   21.1190  -34.1480 C   0  0  0  0  0  0  0  0  0  0  0  0
    0.1880   20.2870  -35.1410 C   0  0  0  0  0  0  0  0  0  0  0  0
   -0.1250   18.9250  -35.1540 C   0  0  0  0  0  0  0  0  0  0  0  0
   -0.9660   18.3930  -34.1750 C   0  0  0  0  0  0  0  0  0  0  0  0
   -1.4960   19.2180  -33.1780 C   0  0  0  0  0  0  0  0  0  0  0  0
   -2.9900   21.8910  -32.1390 N   0  0  0  0  0  0  0  0  0  0  0  0
   -3.1760   22.6640  -31.0490 C   0  0  0  0  0  0  0  0  0  0  0  0
   -4.4540   23.3400  -30.7500 C   0  0  0  0  0  0  0  0  0  0  0  0
   -4.4450   24.6830  -30.3310 C   0  0  0  0  0  0  0  0  0  0  0  0
   -5.6490   25.3460  -30.0640 C   0  0  0  0  0  0  0  0  0  0  0  0
   -6.8660   24.6720  -30.1970 C   0  0  0  0  0  0  0  0  0  0  0  0
   -6.8820   23.3320  -30.5960 C   0  0  0  0  0  0  0  0  0  0  0  0
   -5.6830   22.6640  -30.8670 C   0  0  0  0  0  0  0  0  0  0  0  0
   -1.5860   22.6950  -27.8390 N   0  0  0  0  0  0  0  0  0  0  0  0
   -1.5860   21.2830  -27.5740 C   0  0  0  0  0  0  0  0  0  0  0  0
   -0.4170   20.5330  -27.7860 C   0  0  0  0  0  0  0  0  0  0  0  0
   -0.4020   19.1590  -27.5270 C   0  0  0  0  0  0  0  0  0  0  0  0
   -1.5550   18.5220  -27.0650 C   0  0  0  0  0  0  0  0  0  0  0  0
   -2.7290   19.2560  -26.8740 C   0  0  0  0  0  0  0  0  0  0  0  0
   -2.7510   20.6280  -27.1370 C   0  0  0  0  0  0  0  0  0  0  0  0
   -1.3610   23.6030  -26.9070 N   0  0  0  0  0  0  0  0  0  0  0  0
   -0.5000   27.1470  -27.5510 C   0  0  0  0  0  0  0  0  0  0  0  0
   -0.2540   28.3610  -26.9010 C   0  0  0  0  0  0  0  0  0  0  0  0
   -0.3090   29.6424  -23.7519 H   0  0  0  0  0  0  0  0  0  0  0  0
    0.7418   30.1367  -25.1224 H   0  0  0  0  0  0  0  0  0  0  0  0
   -1.0001   30.5756  -25.1224 H   0  0  0  0  0  0  0  0  0  0  0  0
   -1.4025   27.5585  -23.7792 H   0  0  0  0  0  0  0  0  0  0  0  0
   -1.8919   25.4115  -24.9479 H   0  0  0  0  0  0  0  0  0  0  0  0
   -0.0394   21.7906  -30.7948 H   0  0  0  0  0  0  0  0  0  0  0  0
   -0.0923   22.1908  -34.1458 H   0  0  0  0  0  0  0  0  0  0  0  0
    0.8506   20.7055  -35.9129 H   0  0  0  0  0  0  0  0  0  0  0  0
    0.2913   18.2723  -35.9355 H   0  0  0  0  0  0  0  0  0  0  0  0
   -1.2127   17.3211  -34.1879 H   0  0  0  0  0  0  0  0  0  0  0  0
   -2.1582   18.7910  -32.4104 H   0  0  0  0  0  0  0  0  0  0  0  0
   -3.4889   25.2140  -30.2128 H   0  0  0  0  0  0  0  0  0  0  0  0
   -5.6369   26.3998  -29.7488 H   0  0  0  0  0  0  0  0  0  0  0  0
   -7.8107   25.1953  -29.9879 H   0  0  0  0  0  0  0  0  0  0  0  0
   -7.8403   22.8014  -30.6971 H   0  0  0  0  0  0  0  0  0  0  0  0
   -5.7008   21.6074  -31.1724 H   0  0  0  0  0  0  0  0  0  0  0  0
    0.4915   21.0295  -28.1578 H   0  0  0  0  0  0  0  0  0  0  0  0
    0.5191   18.5796  -27.6874 H   0  0  0  0  0  0  0  0  0  0  0  0
   -1.5396   17.4430  -26.8514 H   0  0  0  0  0  0  0  0  0  0  0  0
   -3.6386   18.7519  -26.5155 H   0  0  0  0  0  0  0  0  0  0  0  0
   -3.6824   21.1974  -27.0018 H   0  0  0  0  0  0  0  0  0  0  0  0
   -0.2231   27.0269  -28.6088 H   0  0  0  0  0  0  0  0  0  0  0  0
    0.2064   29.1935  -27.4533 H   0  0  0  0  0  0  0  0  0  0  0  0
  1  2  1  0
  2  3  2  0
  3  4  1  0
  4  5  2  0
  5  6  1  0
  6  7  1  0
  7  8  2  0
  8  9  1  0
  9 10  2  0
 10 11  1  0
 11 12  1  0
 12 13  2  0
 13 14  1  0
 14 15  2  0
 15 16  1  0
 16 17  2  0
 11 18  1  0
 18 19  2  0
 19 20  1  0
 20 21  2  0
 21 22  1  0
 22 23  2  0
 23 24  1  0
 24 25  2  0
  8 26  1  0
 26 27  1  0
 27 28  2  0
 28 29  1  0
 29 30  2  0
 30 31  1  0
 31 32  2  0
 26 33  1  0
  5 34  1  0
 34 35  2  0
 35  2  1  0
 33  6  2  0
 19  9  1  0
 25 20  1  0
 32 27  1  0
 17 12  1  0
  1 36  1  0
  1 37  1  0
  1 38  1  0
  3 39  1  0
  4 40  1  0
 10 41  1  0
 13 42  1  0
 14 43  1  0
 15 44  1  0
 16 45  1  0
 17 46  1  0
 21 47  1  0
 22 48  1  0
 23 49  1  0
 24 50  1  0
 25 51  1  0
 28 52  1  0
 29 53  1  0
 30 54  1  0
 31 55  1  0
 32 56  1  0
 34 57  1  0
 35 58  1  0
M  END
>  <UniqueID>  (22) 
20

>  <SMILES>  (22) 
Cc1ccc(-c2nc(-c3cn(-c4ccccc4)nc3-c3ccccc3)n(-c3ccccc3)n2)cc1

>  <Energy>  (22) 
142.0265593592915

>  <Genealogy>  (22) 
Cc1ccc(-c2nc(-c3cn(-c4ccccc4)nc3-c3ccccc3)n(-c3ccccc3)n2)cc1 (3D coordinates assigned)
Cc1ccc(-c2nc(-c3cn(-c4ccccc4)nc3-c3ccccc3)n(-c3ccccc3)n2)cc1 (optimized conformer: 142.0265593592915 kcal/mol)

>  <smiles>  (22) 
Cc1ccc(-c2nc(-c3cn(-c4ccccc4)nc3-c3ccccc3)n(-c3ccccc3)n2)cc1

>  <score_type>  (22) 
oracle

>  <origin>  (22) 
adgpu

>  <m_score__min__energy>  (22) 
-9.8399999999999999

>  <m_primary>  (22) 
energy

$$$$
22:0
     RDKit          3D

 40 42  0  0  0  0  0  0  0  0999 V2000
   -5.9390   19.1720  -33.9310 C   0  0  0  0  0  0  0  0  0  0  0  0
   -7.2480   18.7880  -32.7260 S   0  0  0  0  0  0  0  0  0  0  0  0
   -7.5340   20.5090  -32.3090 C   0  0  0  0  0  0  0  0  0  0  0  0
   -8.8200   20.9430  -31.9730 C   0  0  0  0  0  0  0  0  0  0  0  0
   -9.0440   22.2840  -31.6510 C   0  0  0  0  0  0  0  0  0  0  0  0
   -7.9840   23.1960  -31.6660 C   0  0  0  0  0  0  0  0  0  0  0  0
   -6.6880   22.7680  -32.0090 C   0  0  0  0  0  0  0  0  0  0  0  0
   -5.5710   23.6670  -32.0400 N   0  0  0  0  0  0  0  0  0  0  0  0
   -4.4590   23.9250  -30.7340 S   0  0  0  0  0  0  0  0  0  0  0  0
   -3.8780   25.3070  -30.8350 O   0  0  0  0  0  0  0  0  0  0  0  0
   -5.1990   23.7680  -29.4340 O   0  0  0  0  0  0  0  0  0  0  0  0
   -3.1490   22.7360  -30.8250 C   0  0  0  0  0  0  0  0  0  0  0  0
   -3.1830   21.7730  -31.8470 C   0  0  0  0  0  0  0  0  0  0  0  0
   -2.2000   20.7860  -31.9280 C   0  0  0  0  0  0  0  0  0  0  0  0
   -1.1690   20.7470  -30.9890 C   0  0  0  0  0  0  0  0  0  0  0  0
   -1.1120   21.7030  -29.9730 C   0  0  0  0  0  0  0  0  0  0  0  0
   -2.0870   22.7110  -29.8860 C   0  0  0  0  0  0  0  0  0  0  0  0
   -1.9600   23.7170  -28.8120 C   0  0  0  0  0  0  0  0  0  0  0  0
   -0.9800   24.7190  -28.8990 C   0  0  0  0  0  0  0  0  0  0  0  0
   -0.8630   25.6770  -27.8880 C   0  0  0  0  0  0  0  0  0  0  0  0
   -1.7290   25.6470  -26.7910 C   0  0  0  0  0  0  0  0  0  0  0  0
   -2.7170   24.6610  -26.7060 C   0  0  0  0  0  0  0  0  0  0  0  0
   -2.8360   23.7010  -27.7150 C   0  0  0  0  0  0  0  0  0  0  0  0
   -6.4730   21.4220  -32.3300 C   0  0  0  0  0  0  0  0  0  0  0  0
   -5.0165   19.4426  -33.3965 H   0  0  0  0  0  0  0  0  0  0  0  0
   -5.7519   18.2909  -34.5624 H   0  0  0  0  0  0  0  0  0  0  0  0
   -6.2575   20.0146  -34.5624 H   0  0  0  0  0  0  0  0  0  0  0  0
   -9.6560   20.2281  -31.9622 H   0  0  0  0  0  0  0  0  0  0  0  0
  -10.0561   22.6230  -31.3852 H   0  0  0  0  0  0  0  0  0  0  0  0
   -8.1636   24.2504  -31.4091 H   0  0  0  0  0  0  0  0  0  0  0  0
   -3.9928   21.7972  -32.5911 H   0  0  0  0  0  0  0  0  0  0  0  0
   -2.2381   20.0377  -32.7333 H   0  0  0  0  0  0  0  0  0  0  0  0
   -0.4003   19.9624  -31.0491 H   0  0  0  0  0  0  0  0  0  0  0  0
   -0.2973   21.6667  -29.2348 H   0  0  0  0  0  0  0  0  0  0  0  0
   -0.3026   24.7500  -29.7651 H   0  0  0  0  0  0  0  0  0  0  0  0
   -0.0887   26.4554  -27.9556 H   0  0  0  0  0  0  0  0  0  0  0  0
   -1.6332   26.3994  -25.9943 H   0  0  0  0  0  0  0  0  0  0  0  0
   -3.4009   24.6409  -25.8447 H   0  0  0  0  0  0  0  0  0  0  0  0
   -3.6184   22.9306  -27.6493 H   0  0  0  0  0  0  0  0  0  0  0  0
   -5.4632   21.0797  -32.6006 H   0  0  0  0  0  0  0  0  0  0  0  0
  1  2  1  0
  2  3  1  0
  3  4  2  0
  4  5  1  0
  5  6  2  0
  6  7  1  0
  7  8  1  0
  8  9  1  0
  9 10  2  0
  9 11  2  0
  9 12  1  0
 12 13  2  0
 13 14  1  0
 14 15  2  0
 15 16  1  0
 16 17  2  0
 17 18  1  0
 18 19  2  0
 19 20  1  0
 20 21  2  0
 21 22  1  0
 22 23  2  0
  7 24  2  0
 24  3  1  0
 17 12  1  0
 23 18  1  0
  1 25  1  0
  1 26  1  0
  1 27  1  0
  4 28  1  0
  5 29  1  0
  6 30  1  0
 13 31  1  0
 14 32  1  0
 15 33  1  0
 16 34  1  0
 19 35  1  0
 20 36  1  0
 21 37  1  0
 22 38  1  0
 23 39  1  0
 24 40  1  0
M  CHG  1   8  -1
M  END
>  <UniqueID>  (23) 
21

>  <SMILES>  (23) 
CSc1cccc([N-]S(=O)(=O)c2ccccc2-c2ccccc2)c1

>  <Energy>  (23) 
50.899877698757216

>  <Genealogy>  (23) 
CSc1cccc([N-]S(=O)(=O)c2ccccc2-c2ccccc2)c1 (protonated)
CSc1cccc([N-]S(=O)(=O)c2ccccc2-c2ccccc2)c1 (3D coordinates assigned)
CSc1cccc([N-]S(=O)(=O)c2ccccc2-c2ccccc2)c1 (optimized conformer: 50.899877698757216 kcal/mol)

>  <smiles>  (23) 
CSc1cccc(NS(=O)(=O)c2ccccc2-c2ccccc2)c1

>  <score_type>  (23) 
oracle

>  <origin>  (23) 
adgpu

>  <m_score__min__energy>  (23) 
-9.9499999999999993

>  <m_primary>  (23) 
energy

$$$$
23:0
     RDKit          3D

 27 28  0  0  0  0  0  0  0  0999 V2000
   -3.4910   25.2500  -30.5200 N   0  0  0  0  0  0  0  0  0  0  0  0
   -5.1110   25.1090  -29.9380 S   0  0  0  0  0  0  0  0  0  0  0  0
   -5.0940   24.7800  -28.4720 O   0  0  0  0  0  0  0  0  0  0  0  0
   -5.8250   26.4180  -30.1300 O   0  0  0  0  0  0  0  0  0  0  0  0
   -5.9440   23.8340  -30.8210 C   0  0  0  0  0  0  0  0  0  0  0  0
   -7.3360   23.6980  -30.7230 C   0  0  0  0  0  0  0  0  0  0  0  0
   -7.9920   22.6800  -31.4220 C   0  0  0  0  0  0  0  0  0  0  0  0
   -7.2640   21.8030  -32.2300 C   0  0  0  0  0  0  0  0  0  0  0  0
   -5.8740   21.9460  -32.3630 C   0  0  0  0  0  0  0  0  0  0  0  0
   -5.1460   21.0220  -33.1890 N   0  0  0  0  0  0  0  0  0  0  0  0
   -4.5250   19.8250  -32.6920 C   0  0  0  0  0  0  0  0  0  0  0  0
   -4.2890   19.7000  -31.4600 O   0  0  0  0  0  0  0  0  0  0  0  0
   -4.1140   18.7490  -33.6120 C   0  0  0  0  0  0  0  0  0  0  0  0
   -2.8250   18.2570  -33.7990 C   0  0  0  0  0  0  0  0  0  0  0  0
   -2.7550   17.2420  -34.7610 C   0  0  0  0  0  0  0  0  0  0  0  0
   -3.9790   16.9310  -35.3370 C   0  0  0  0  0  0  0  0  0  0  0  0
   -5.1500   17.9230  -34.6500 S   0  0  0  0  0  0  0  0  0  0  0  0
   -5.2170   22.9580  -31.6390 C   0  0  0  0  0  0  0  0  0  0  0  0
   -3.4870   26.0140  -31.2320 H   0  0  0  0  0  0  0  0  0  0  0  0
   -7.9129   24.3931  -30.0953 H   0  0  0  0  0  0  0  0  0  0  0  0
   -9.0830   22.5695  -31.3356 H   0  0  0  0  0  0  0  0  0  0  0  0
   -7.7837   20.9949  -32.7656 H   0  0  0  0  0  0  0  0  0  0  0  0
   -4.9710   21.2930  -34.1830 H   0  0  0  0  0  0  0  0  0  0  0  0
   -1.9494   18.6284  -33.2464 H   0  0  0  0  0  0  0  0  0  0  0  0
   -1.8166   16.7376  -35.0350 H   0  0  0  0  0  0  0  0  0  0  0  0
   -4.1529   16.1674  -36.1095 H   0  0  0  0  0  0  0  0  0  0  0  0
   -4.1247   23.0625  -31.7155 H   0  0  0  0  0  0  0  0  0  0  0  0
  1  2  1  0
  2  3  2  0
  2  4  2  0
  2  5  1  0
  5  6  2  0
  6  7  1  0
  7  8  2  0
  8  9  1  0
  9 10  1  0
 10 11  1  0
 11 12  2  0
 11 13  1  0
 13 14  2  0
 14 15  1  0
 15 16  2  0
 16 17  1  0
  9 18  2  0
 18  5  1  0
 17 13  1  0
  1 19  1  0
  6 20  1  0
  7 21  1  0
  8 22  1  0
 10 23  1  0
 14 24  1  0
 15 25  1  0
 16 26  1  0
 18 27  1  0
M  CHG  1   1  -1
M  END
>  <UniqueID>  (24) 
22

>  <SMILES>  (24) 
[NH-]S(=O)(=O)c1cccc(NC(=O)c2cccs2)c1

>  <Energy>  (24) 
56.43559380695708

>  <Genealogy>  (24) 
[NH-]S(=O)(=O)c1cccc(NC(=O)c2cccs2)c1 (protonated)
[NH-]S(=O)(=O)c1cccc(NC(=O)c2cccs2)c1 (3D coordinates assigned)
[NH-]S(=O)(=O)c1cccc(NC(=O)c2cccs2)c1 (optimized conformer: 56.43559380695708 kcal/mol)

>  <smiles>  (24) 
NS(=O)(=O)c1cccc(NC(=O)c2cccs2)c1

>  <score_type>  (24) 
oracle

>  <origin>  (24) 
adgpu

>  <m_score__min__energy>  (24) 
-9.1699999999999999

>  <m_primary>  (24) 
energy

$$$$
24:0
     RDKit          3D

 50 53  0  0  0  0  0  0  0  0999 V2000
   -9.5830   18.5972  -32.3010 H   0  0  0  0  0  0  0  0  0  0  0  0
   -8.7800   19.3460  -32.2340 C   0  0  0  0  0  0  0  0  0  0  0  0
   -7.4460   18.9390  -32.2120 C   0  0  0  0  0  0  0  0  0  0  0  0
   -7.2027   17.8672  -32.2580 H   0  0  0  0  0  0  0  0  0  0  0  0
   -6.4140   19.8810  -32.1320 C   0  0  0  0  0  0  0  0  0  0  0  0
   -4.7560   19.2870  -32.0640 Cl  0  0  0  0  0  0  0  0  0  0  0  0
   -6.7200   21.2630  -32.0850 C   0  0  0  0  0  0  0  0  0  0  0  0
   -5.6200   22.2920  -31.9480 C   0  0  0  0  0  0  0  0  0  0  0  0
   -5.6645   22.9938  -32.7939 H   0  0  0  0  0  0  0  0  0  0  0  0
   -4.6411   21.7902  -31.9451 H   0  0  0  0  0  0  0  0  0  0  0  0
   -5.8480   23.2040  -30.3850 S   0  0  0  0  0  0  0  0  0  0  0  0
   -4.0950   23.3300  -30.0450 C   0  0  0  0  0  0  0  0  0  0  0  0
   -3.2230   22.5130  -30.6830 N   0  0  0  0  0  0  0  0  0  0  0  0
   -1.8980   22.5650  -30.3910 C   0  0  0  0  0  0  0  0  0  0  0  0
   -1.0540   21.7610  -30.9620 N   0  0  0  0  0  0  0  0  0  0  0  0
   -1.3440   20.8370  -32.0250 C   0  0  0  0  0  0  0  0  0  0  0  0
   -1.9690   21.3160  -33.1800 C   0  0  0  0  0  0  0  0  0  0  0  0
   -2.2037   22.3868  -33.2714 H   0  0  0  0  0  0  0  0  0  0  0  0
   -2.2970   20.4410  -34.2190 C   0  0  0  0  0  0  0  0  0  0  0  0
   -2.7768   20.8270  -35.1305 H   0  0  0  0  0  0  0  0  0  0  0  0
   -2.0170   19.0770  -34.1030 C   0  0  0  0  0  0  0  0  0  0  0  0
   -2.2714   18.3932  -34.9263 H   0  0  0  0  0  0  0  0  0  0  0  0
   -1.4130   18.5770  -32.9410 C   0  0  0  0  0  0  0  0  0  0  0  0
   -1.1360   17.1090  -32.7890 C   0  0  0  0  0  0  0  0  0  0  0  0
   -1.0878   16.8537  -31.7201 H   0  0  0  0  0  0  0  0  0  0  0  0
   -1.9412   16.5324  -33.2678 H   0  0  0  0  0  0  0  0  0  0  0  0
   -0.1761   16.8655  -33.2678 H   0  0  0  0  0  0  0  0  0  0  0  0
   -1.0910   19.4570  -31.8980 C   0  0  0  0  0  0  0  0  0  0  0  0
   -0.6379   19.0673  -30.9745 H   0  0  0  0  0  0  0  0  0  0  0  0
   -1.4560   23.4340  -29.4460 N   0  0  0  0  0  0  0  0  0  0  0  0
   -2.3250   24.2690  -28.8110 C   0  0  0  0  0  0  0  0  0  0  0  0
   -1.8470   25.2090  -27.8250 N   0  0  0  0  0  0  0  0  0  0  0  0
   -2.5270   25.3330  -26.5270 C   0  0  0  0  0  0  0  0  0  0  0  0
   -3.3652   26.0391  -26.6211 H   0  0  0  0  0  0  0  0  0  0  0  0
   -2.9030   24.3456  -26.2210 H   0  0  0  0  0  0  0  0  0  0  0  0
   -1.5460   25.8480  -25.4670 C   0  0  0  0  0  0  0  0  0  0  0  0
   -2.0988   26.0686  -24.5419 H   0  0  0  0  0  0  0  0  0  0  0  0
   -0.7864   25.0733  -25.2859 H   0  0  0  0  0  0  0  0  0  0  0  0
   -0.8950   27.0240  -25.9090 O   0  0  0  0  0  0  0  0  0  0  0  0
   -0.0800   26.7240  -27.0280 C   0  0  0  0  0  0  0  0  0  0  0  0
    0.4975   27.6187  -27.3037 H   0  0  0  0  0  0  0  0  0  0  0  0
    0.5966   25.8990  -26.7604 H   0  0  0  0  0  0  0  0  0  0  0  0
   -0.9350   26.2900  -28.2230 C   0  0  0  0  0  0  0  0  0  0  0  0
   -1.5224   27.1484  -28.5809 H   0  0  0  0  0  0  0  0  0  0  0  0
   -0.2752   25.9275  -29.0251 H   0  0  0  0  0  0  0  0  0  0  0  0
   -3.6470   24.2050  -29.1130 N   0  0  0  0  0  0  0  0  0  0  0  0
   -8.0800   21.6650  -32.0920 C   0  0  0  0  0  0  0  0  0  0  0  0
   -8.5580   23.3580  -31.9740 Cl  0  0  0  0  0  0  0  0  0  0  0  0
   -9.0950   20.7040  -32.1710 C   0  0  0  0  0  0  0  0  0  0  0  0
  -10.1481   21.0216  -32.1835 H   0  0  0  0  0  0  0  0  0  0  0  0
  1  2  1  0
  2  3  2  0
  3  4  1  0
  3  5  1  0
  5  6  1  0
  5  7  2  0
  7  8  1  0
  8  9  1  0
  8 10  1  0
  8 11  1  0
 11 12  1  0
 12 13  2  0
 13 14  1  0
 14 15  2  0
 15 16  1  0
 16 17  2  0
 17 18  1  0
 17 19  1  0
 19 20  1  0
 19 21  2  0
 21 22  1  0
 21 23  1  0
 23 24  1  0
 24 25  1  0
 24 26  1  0
 24 27  1  0
 23 28  2  0
 28 29  1  0
 14 30  1  0
 30 31  2  0
 31 32  1  0
 32 33  1  0
 33 34  1  0
 33 35  1  0
 33 36  1  0
 36 37  1  0
 36 38  1  0
 36 39  1  0
 39 40  1  0
 40 41  1  0
 40 42  1  0
 40 43  1  0
 43 44  1  0
 43 45  1  0
 31 46  1  0
  7 47  1  0
 47 48  1  0
 47 49  2  0
 49 50  1  0
 49  2  1  0
 46 12  1  0
 28 16  1  0
 43 32  1  0
M  CHG  1  46  -1
M  END
>  <UniqueID>  (25) 
23

>  <SMILES>  (25) 
Cc1cccc(/N=c2\nc(SCc3c(Cl)cccc3Cl)[n-]c(N3CCOCC3)n2)c1

>  <Energy>  (25) 
59.15390713472039

>  <Genealogy>  (25) 
Cc1cccc(N=c2nc(SCc3c(Cl)cccc3Cl)[n-]c(N3CCOCC3)n2)c1 (protonated)
Cc1cccc(/N=c2\nc(SCc3c(Cl)cccc3Cl)[n-]c(N3CCOCC3)n2)c1 (cis-trans isomerization)
Cc1cccc(/N=c2\nc(SCc3c(Cl)cccc3Cl)[n-]c(N3CCOCC3)n2)c1 (3D coordinates assigned)
Cc1cccc(/N=c2\nc(SCc3c(Cl)cccc3Cl)[n-]c(N3CCOCC3)n2)c1 (nonaromatic ring conformer: 59.15390713472039 kcal/mol)

>  <smiles>  (25) 
Cc1cccc(N=c2nc(SCc3c(Cl)cccc3Cl)[nH]c(N3CCOCC3)n2)c1

>  <score_type>  (25) 
oracle

>  <origin>  (25) 
adgpu

>  <m_score__min__energy>  (25) 
-9.2899999999999991

>  <m_primary>  (25) 
energy

$$$$
25:0
     RDKit          3D

 41 44  0  0  0  0  0  0  0  0999 V2000
   -5.2110   25.2990  -30.1940 C   0  0  0  0  0  0  0  0  0  0  0  0
   -4.6760   24.2730  -31.0260 O   0  0  0  0  0  0  0  0  0  0  0  0
   -5.3910   23.1480  -31.4730 C   0  0  0  0  0  0  0  0  0  0  0  0
   -6.7810   23.1870  -31.6740 C   0  0  0  0  0  0  0  0  0  0  0  0
   -7.4890   22.0500  -32.1040 C   0  0  0  0  0  0  0  0  0  0  0  0
   -8.8810   22.0940  -32.2990 O   0  0  0  0  0  0  0  0  0  0  0  0
   -9.8560   21.7900  -31.3060 C   0  0  0  0  0  0  0  0  0  0  0  0
   -6.7840   20.8450  -32.3450 C   0  0  0  0  0  0  0  0  0  0  0  0
   -7.4230   19.6600  -32.7840 C   0  0  0  0  0  0  0  0  0  0  0  0
   -8.6710   19.6290  -32.9740 O   0  0  0  0  0  0  0  0  0  0  0  0
   -6.6580   18.5040  -33.0140 C   0  0  0  0  0  0  0  0  0  0  0  0
   -7.2360   17.2960  -33.4510 C   0  0  0  0  0  0  0  0  0  0  0  0
   -6.4340   16.1720  -33.6680 C   0  0  0  0  0  0  0  0  0  0  0  0
   -5.0550   16.2410  -33.4510 C   0  0  0  0  0  0  0  0  0  0  0  0
   -4.4720   17.4340  -33.0180 C   0  0  0  0  0  0  0  0  0  0  0  0
   -5.2660   18.5650  -32.7980 C   0  0  0  0  0  0  0  0  0  0  0  0
   -4.6990   19.6900  -32.3840 O   0  0  0  0  0  0  0  0  0  0  0  0
   -5.3810   20.8080  -32.1480 C   0  0  0  0  0  0  0  0  0  0  0  0
   -4.6910   21.9520  -31.7100 C   0  0  0  0  0  0  0  0  0  0  0  0
   -3.2230   21.9030  -31.5070 C   0  0  0  0  0  0  0  0  0  0  0  0
   -2.6780   22.2190  -30.2500 C   0  0  0  0  0  0  0  0  0  0  0  0
   -1.2940   22.1820  -30.0540 C   0  0  0  0  0  0  0  0  0  0  0  0
   -0.4460   21.8280  -31.1060 C   0  0  0  0  0  0  0  0  0  0  0  0
   -0.9800   21.5100  -32.3570 C   0  0  0  0  0  0  0  0  0  0  0  0
   -2.3630   21.5450  -32.5620 C   0  0  0  0  0  0  0  0  0  0  0  0
   -2.8630   21.2120  -33.7790 F   0  0  0  0  0  0  0  0  0  0  0  0
   -5.0687   25.0261  -29.1379 H   0  0  0  0  0  0  0  0  0  0  0  0
   -4.6922   26.2467  -30.4010 H   0  0  0  0  0  0  0  0  0  0  0  0
   -6.2850   25.4161  -30.4010 H   0  0  0  0  0  0  0  0  0  0  0  0
   -7.3262   24.1248  -31.4916 H   0  0  0  0  0  0  0  0  0  0  0  0
   -9.4168   21.9269  -30.3068 H   0  0  0  0  0  0  0  0  0  0  0  0
  -10.7194   22.4616  -31.4222 H   0  0  0  0  0  0  0  0  0  0  0  0
  -10.1847   20.7467  -31.4222 H   0  0  0  0  0  0  0  0  0  0  0  0
   -8.3211   17.2371  -33.6219 H   0  0  0  0  0  0  0  0  0  0  0  0
   -6.8892   15.2309  -34.0104 H   0  0  0  0  0  0  0  0  0  0  0  0
   -4.4275   15.3538  -33.6216 H   0  0  0  0  0  0  0  0  0  0  0  0
   -3.3862   17.4846  -32.8495 H   0  0  0  0  0  0  0  0  0  0  0  0
   -3.3424   22.4962  -29.4183 H   0  0  0  0  0  0  0  0  0  0  0  0
   -0.8722   22.4322  -29.0694 H   0  0  0  0  0  0  0  0  0  0  0  0
    0.6424   21.7996  -30.9493 H   0  0  0  0  0  0  0  0  0  0  0  0
   -0.3103   21.2310  -33.1839 H   0  0  0  0  0  0  0  0  0  0  0  0
  1  2  1  0
  2  3  1  0
  3  4  2  0
  4  5  1  0
  5  6  1  0
  6  7  1  0
  5  8  2  0
  8  9  1  0
  9 10  2  0
  9 11  1  0
 11 12  2  0
 12 13  1  0
 13 14  2  0
 14 15  1  0
 15 16  2  0
 16 17  1  0
 17 18  1  0
 18 19  2  0
 19 20  1  0
 20 21  2  0
 21 22  1  0
 22 23  2  0
 23 24  1  0
 24 25  2  0
 25 26  1  0
 19  3  1  0
 25 20  1  0
 18  8  1  0
 16 11  1  0
  1 27  1  0
  1 28  1  0
  1 29  1  0
  4 30  1  0
  7 31  1  0
  7 32  1  0
  7 33  1  0
 12 34  1  0
 13 35  1  0
 14 36  1  0
 15 37  1  0
 21 38  1  0
 22 39  1  0
 23 40  1  0
 24 41  1  0
M  END
>  <UniqueID>  (26) 
24

>  <SMILES>  (26) 
COc1cc(OC)c2c(=O)c3ccccc3oc2c1-c1ccccc1F

>  <Energy>  (26) 
63.18592344754011

>  <Genealogy>  (26) 
COc1cc(OC)c2c(=O)c3ccccc3oc2c1-c1ccccc1F (3D coordinates assigned)
COc1cc(OC)c2c(=O)c3ccccc3oc2c1-c1ccccc1F (optimized conformer: 63.18592344754011 kcal/mol)

>  <smiles>  (26) 
COc1cc(OC)c2c(=O)c3ccccc3oc2c1-c1ccccc1F

>  <score_type>  (26) 
oracle

>  <origin>  (26) 
adgpu

>  <m_score__min__energy>  (26) 
-8.1799999999999997

>  <m_primary>  (26) 
energy

$$$$
26:0
     RDKit          3D

 40 42  0  0  0  0  0  0  0  0999 V2000
   -3.0330   18.5610  -26.2070 N   0  0  0  0  0  0  0  0  0  0  0  0
   -2.3790   19.4800  -26.4670 C   0  0  0  0  0  0  0  0  0  0  0  0
   -1.5540   20.6470  -26.7870 C   0  0  0  0  0  0  0  0  0  0  0  0
   -1.1270   20.7040  -28.5630 S   0  0  0  0  0  0  0  0  0  0  0  0
   -0.8950   22.4850  -28.6270 C   0  0  0  0  0  0  0  0  0  0  0  0
    0.2730   23.0830  -28.3150 N   0  0  0  0  0  0  0  0  0  0  0  0
    0.1210   24.3810  -28.5380 N   0  0  0  0  0  0  0  0  0  0  0  0
   -1.1320   24.5420  -28.9970 C   0  0  0  0  0  0  0  0  0  0  0  0
   -1.6120   25.6630  -29.3170 O   0  0  0  0  0  0  0  0  0  0  0  0
   -1.8080   23.3790  -29.0700 N   0  0  0  0  0  0  0  0  0  0  0  0
   -3.1030   23.1430  -29.6580 C   0  0  0  0  0  0  0  0  0  0  0  0
   -3.2240   22.7410  -30.9970 C   0  0  0  0  0  0  0  0  0  0  0  0
   -4.4830   22.5110  -31.5580 C   0  0  0  0  0  0  0  0  0  0  0  0
   -5.6400   22.6830  -30.7900 C   0  0  0  0  0  0  0  0  0  0  0  0
   -7.2200   22.3630  -31.5020 S   0  0  0  0  0  0  0  0  0  0  0  0
   -7.5740   23.4970  -32.4230 O   0  0  0  0  0  0  0  0  0  0  0  0
   -8.2620   22.2820  -30.4200 O   0  0  0  0  0  0  0  0  0  0  0  0
   -7.1740   20.8640  -32.4000 N   0  0  0  0  0  0  0  0  0  0  0  0
   -6.3690   19.8630  -31.6680 C   0  0  0  0  0  0  0  0  0  0  0  0
   -6.7490   18.4360  -32.1000 C   0  0  0  0  0  0  0  0  0  0  0  0
   -8.1120   18.1030  -31.8690 O   0  0  0  0  0  0  0  0  0  0  0  0
   -8.9730   19.2290  -31.7870 C   0  0  0  0  0  0  0  0  0  0  0  0
   -8.5460   20.3870  -32.7080 C   0  0  0  0  0  0  0  0  0  0  0  0
   -5.5280   23.0770  -29.4500 C   0  0  0  0  0  0  0  0  0  0  0  0
   -4.2690   23.3060  -28.8890 C   0  0  0  0  0  0  0  0  0  0  0  0
   -2.1093   21.5594  -26.5241 H   0  0  0  0  0  0  0  0  0  0  0  0
   -0.6196   20.5755  -26.2111 H   0  0  0  0  0  0  0  0  0  0  0  0
   -2.3206   22.6059  -31.6099 H   0  0  0  0  0  0  0  0  0  0  0  0
   -4.5649   22.1933  -32.6079 H   0  0  0  0  0  0  0  0  0  0  0  0
   -6.6910   21.0730  -33.3060 H   0  0  0  0  0  0  0  0  0  0  0  0
   -5.3030   20.0323  -31.8800 H   0  0  0  0  0  0  0  0  0  0  0  0
   -6.5665   19.9702  -30.5912 H   0  0  0  0  0  0  0  0  0  0  0  0
   -6.5465   18.3355  -33.1765 H   0  0  0  0  0  0  0  0  0  0  0  0
   -6.1464   17.7484  -31.4883 H   0  0  0  0  0  0  0  0  0  0  0  0
   -9.9885   18.9140  -32.0692 H   0  0  0  0  0  0  0  0  0  0  0  0
   -8.9283   19.6003  -30.7525 H   0  0  0  0  0  0  0  0  0  0  0  0
   -8.5759   20.0406  -33.7516 H   0  0  0  0  0  0  0  0  0  0  0  0
   -9.2414   21.2240  -32.5472 H   0  0  0  0  0  0  0  0  0  0  0  0
   -6.4331   23.2063  -28.8384 H   0  0  0  0  0  0  0  0  0  0  0  0
   -4.1892   23.6165  -27.8367 H   0  0  0  0  0  0  0  0  0  0  0  0
  1  2  3  0
  2  3  1  0
  3  4  1  0
  4  5  1  0
  5  6  2  0
  6  7  1  0
  7  8  1  0
  8  9  2  0
  8 10  1  0
 10 11  1  0
 11 12  2  0
 12 13  1  0
 13 14  2  0
 14 15  1  0
 15 16  2  0
 15 17  2  0
 15 18  1  0
 18 19  1  0
 19 20  1  0
 20 21  1  0
 21 22  1  0
 22 23  1  0
 14 24  1  0
 24 25  2  0
 10  5  1  0
 25 11  1  0
 23 18  1  0
  3 26  1  0
  3 27  1  0
 12 28  1  0
 13 29  1  0
 18 30  1  0
 19 31  1  0
 19 32  1  0
 20 33  1  0
 20 34  1  0
 22 35  1  0
 22 36  1  0
 23 37  1  0
 23 38  1  0
 24 39  1  0
 25 40  1  0
M  CHG  2   7  -1  18   1
M  END
>  <UniqueID>  (27) 
25

>  <SMILES>  (27) 
N#CCSc1n[n-]c(=O)n1-c1ccc(S(=O)(=O)[NH+]2CCOCC2)cc1

>  <Energy>  (27) 
92.57742960894909

>  <Genealogy>  (27) 
N#CCSc1n[n-]c(=O)n1-c1ccc(S(=O)(=O)[NH+]2CCOCC2)cc1 (protonated)
N#CCSc1n[n-]c(=O)n1-c1ccc(S(=O)(=O)[NH+]2CCOCC2)cc1 (3D coordinates assigned)
N#CCSc1n[n-]c(=O)n1-c1ccc(S(=O)(=O)[NH+]2CCOCC2)cc1 (nonaromatic ring conformer: 92.57742960894909 kcal/mol)

>  <smiles>  (27) 
N#CCSc1n[nH]c(=O)n1-c1ccc(S(=O)(=O)N2CCOCC2)cc1

>  <score_type>  (27) 
oracle

>  <origin>  (27) 
adgpu

>  <m_score__min__energy>  (27) 
-9

>  <m_primary>  (27) 
energy

$$$$
27:0
     RDKit          3D

 58 61  0  0  0  0  0  0  0  0999 V2000
   -3.1520   19.3440  -33.6460 C   0  0  0  0  0  0  0  0  0  0  0  0
   -3.8070   18.5580  -34.6370 O   0  0  0  0  0  0  0  0  0  0  0  0
   -4.3200   17.2640  -34.4280 C   0  0  0  0  0  0  0  0  0  0  0  0
   -3.5660   16.1140  -34.7450 C   0  0  0  0  0  0  0  0  0  0  0  0
   -4.1300   14.8380  -34.6190 C   0  0  0  0  0  0  0  0  0  0  0  0
   -5.4500   14.6950  -34.1880 C   0  0  0  0  0  0  0  0  0  0  0  0
   -6.1990   15.8230  -33.8470 C   0  0  0  0  0  0  0  0  0  0  0  0
   -5.6340   17.1050  -33.9230 C   0  0  0  0  0  0  0  0  0  0  0  0
   -6.4470   18.2230  -33.5330 N   0  0  0  0  0  0  0  0  0  0  0  0
   -7.3080   18.2900  -32.3830 C   0  0  0  0  0  0  0  0  0  0  0  0
   -7.2260   17.4270  -31.4560 O   0  0  0  0  0  0  0  0  0  0  0  0
   -8.3180   19.3960  -32.2890 C   0  0  0  0  0  0  0  0  0  0  0  0
   -7.8690   20.6700  -33.0270 C   0  0  0  0  0  0  0  0  0  0  0  0
   -7.3770   21.7340  -32.0750 C   0  0  0  0  0  0  0  0  0  0  0  0
   -8.0050   22.9380  -31.7800 C   0  0  0  0  0  0  0  0  0  0  0  0
   -9.3160   23.4250  -32.3150 C   0  0  0  0  0  0  0  0  0  0  0  0
   -7.2150   23.6790  -30.9830 N   0  0  0  0  0  0  0  0  0  0  0  0
   -6.1060   22.9900  -30.7390 N   0  0  0  0  0  0  0  0  0  0  0  0
   -5.0320   23.5090  -29.9270 C   0  0  0  0  0  0  0  0  0  0  0  0
   -4.8720   23.0900  -28.5990 C   0  0  0  0  0  0  0  0  0  0  0  0
   -3.8320   23.6110  -27.8340 C   0  0  0  0  0  0  0  0  0  0  0  0
   -2.9570   24.5470  -28.4060 C   0  0  0  0  0  0  0  0  0  0  0  0
   -1.8710   25.1230  -27.6550 N   0  0  0  0  0  0  0  0  0  0  0  0
   -2.0600   25.7560  -26.3620 C   0  0  0  0  0  0  0  0  0  0  0  0
   -0.6620   26.0850  -25.8520 C   0  0  0  0  0  0  0  0  0  0  0  0
    0.2690   25.9600  -27.0540 C   0  0  0  0  0  0  0  0  0  0  0  0
   -0.4840   25.1390  -28.0930 C   0  0  0  0  0  0  0  0  0  0  0  0
   -3.1530   24.9150  -29.7020 N   0  0  0  0  0  0  0  0  0  0  0  0
   -4.1500   24.4150  -30.4350 N   0  0  0  0  0  0  0  0  0  0  0  0
   -6.1640   21.7970  -31.3910 C   0  0  0  0  0  0  0  0  0  0  0  0
   -5.0830   20.7460  -31.3860 C   0  0  0  0  0  0  0  0  0  0  0  0
   -3.4453   18.9920  -32.6460 H   0  0  0  0  0  0  0  0  0  0  0  0
   -2.0625   19.2485  -33.7634 H   0  0  0  0  0  0  0  0  0  0  0  0
   -3.4424   20.3985  -33.7634 H   0  0  0  0  0  0  0  0  0  0  0  0
   -2.5281   16.2204  -35.0935 H   0  0  0  0  0  0  0  0  0  0  0  0
   -3.5316   13.9470  -34.8601 H   0  0  0  0  0  0  0  0  0  0  0  0
   -5.9001   13.6938  -34.1170 H   0  0  0  0  0  0  0  0  0  0  0  0
   -7.2414   15.7055  -33.5158 H   0  0  0  0  0  0  0  0  0  0  0  0
   -9.2639   19.0481  -32.7297 H   0  0  0  0  0  0  0  0  0  0  0  0
   -8.4363   19.6505  -31.2254 H   0  0  0  0  0  0  0  0  0  0  0  0
   -7.0552   20.4103  -33.7201 H   0  0  0  0  0  0  0  0  0  0  0  0
   -8.7387   21.0736  -33.5662 H   0  0  0  0  0  0  0  0  0  0  0  0
   -9.9844   23.6733  -31.4774 H   0  0  0  0  0  0  0  0  0  0  0  0
   -9.1506   24.3217  -32.9303 H   0  0  0  0  0  0  0  0  0  0  0  0
   -9.7761   22.6378  -32.9303 H   0  0  0  0  0  0  0  0  0  0  0  0
   -5.5640   22.3539  -28.1639 H   0  0  0  0  0  0  0  0  0  0  0  0
   -3.6974   23.2916  -26.7900 H   0  0  0  0  0  0  0  0  0  0  0  0
   -2.6548   26.6751  -26.4688 H   0  0  0  0  0  0  0  0  0  0  0  0
   -2.6009   25.0990  -25.6650 H   0  0  0  0  0  0  0  0  0  0  0  0
   -0.6331   27.1093  -25.4520 H   0  0  0  0  0  0  0  0  0  0  0  0
   -0.3615   25.4070  -25.0396 H   0  0  0  0  0  0  0  0  0  0  0  0
    0.5086   26.9556  -27.4556 H   0  0  0  0  0  0  0  0  0  0  0  0
    1.2190   25.4800  -26.7763 H   0  0  0  0  0  0  0  0  0  0  0  0
   -0.4008   25.6070  -29.0850 H   0  0  0  0  0  0  0  0  0  0  0  0
   -0.0747   24.1217  -28.1798 H   0  0  0  0  0  0  0  0  0  0  0  0
   -4.8226   20.4928  -30.3477 H   0  0  0  0  0  0  0  0  0  0  0  0
   -5.4450   19.8452  -31.9033 H   0  0  0  0  0  0  0  0  0  0  0  0
   -4.1928   21.1332  -31.9033 H   0  0  0  0  0  0  0  0  0  0  0  0
  1  2  1  0
  2  3  1  0
  3  4  2  0
  4  5  1  0
  5  6  2  0
  6  7  1  0
  7  8  2  0
  8  9  1  0
  9 10  1  0
 10 11  2  0
 10 12  1  0
 12 13  1  0
 13 14  1  0
 14 15  1  0
 15 16  1  0
 15 17  2  0
 17 18  1  0
 18 19  1  0
 19 20  2  0
 20 21  1  0
 21 22  2  0
 22 23  1  0
 23 24  1  0
 24 25  1  0
 25 26  1  0
 26 27  1  0
 22 28  1  0
 28 29  2  0
 18 30  1  0
 30 31  1  0
  8  3  1  0
 30 14  2  0
 29 19  1  0
 27 23  1  0
  1 32  1  0
  1 33  1  0
  1 34  1  0
  4 35  1  0
  5 36  1  0
  6 37  1  0
  7 38  1  0
 12 39  1  0
 12 40  1  0
 13 41  1  0
 13 42  1  0
 16 43  1  0
 16 44  1  0
 16 45  1  0
 20 46  1  0
 21 47  1  0
 24 48  1  0
 24 49  1  0
 25 50  1  0
 25 51  1  0
 26 52  1  0
 26 53  1  0
 27 54  1  0
 27 55  1  0
 31 56  1  0
 31 57  1  0
 31 58  1  0
M  CHG  1   9  -1
M  END
>  <UniqueID>  (28) 
26

>  <SMILES>  (28) 
COc1ccccc1[N-]C(=O)CCc1c(C)nn(-c2ccc(N3CCCC3)nn2)c1C

>  <Energy>  (28) 
95.8579148003662

>  <Genealogy>  (28) 
COc1ccccc1[N-]C(=O)CCc1c(C)nn(-c2ccc(N3CCCC3)nn2)c1C (protonated)
COc1ccccc1[N-]C(=O)CCc1c(C)nn(-c2ccc(N3CCCC3)nn2)c1C (3D coordinates assigned)
COc1ccccc1[N-]C(=O)CCc1c(C)nn(-c2ccc(N3CCCC3)nn2)c1C (nonaromatic ring conformer: 95.8579148003662 kcal/mol)

>  <smiles>  (28) 
COc1ccccc1NC(=O)CCc1c(C)nn(-c2ccc(N3CCCC3)nn2)c1C

>  <score_type>  (28) 
oracle

>  <origin>  (28) 
adgpu

>  <m_score__min__energy>  (28) 
-12.16

>  <m_primary>  (28) 
energy

$$$$
28:0
     RDKit          3D

 36 38  0  0  0  0  0  0  0  0999 V2000
    2.3420   27.3400  -23.3930 C   0  0  0  0  0  0  0  0  0  0  0  0
    1.1600   27.9410  -23.9120 O   0  0  0  0  0  0  0  0  0  0  0  0
    0.4920   27.5070  -25.0670 C   0  0  0  0  0  0  0  0  0  0  0  0
    0.5910   28.1850  -26.2960 C   0  0  0  0  0  0  0  0  0  0  0  0
   -0.0960   27.7140  -27.4200 C   0  0  0  0  0  0  0  0  0  0  0  0
   -0.9030   26.5670  -27.3300 C   0  0  0  0  0  0  0  0  0  0  0  0
   -1.6020   26.0480  -28.4760 N   0  0  0  0  0  0  0  0  0  0  0  0
   -2.1670   24.7280  -28.5380 C   0  0  0  0  0  0  0  0  0  0  0  0
   -1.7970   23.8410  -27.7210 O   0  0  0  0  0  0  0  0  0  0  0  0
   -3.1490   24.3740  -29.5770 C   0  0  0  0  0  0  0  0  0  0  0  0
   -3.5780   23.1040  -29.9110 C   0  0  0  0  0  0  0  0  0  0  0  0
   -4.4840   23.3150  -30.9360 C   0  0  0  0  0  0  0  0  0  0  0  0
   -5.2820   22.2920  -31.6540 C   0  0  0  0  0  0  0  0  0  0  0  0
   -6.6760   22.2600  -31.4640 C   0  0  0  0  0  0  0  0  0  0  0  0
   -7.4630   21.3030  -32.1150 C   0  0  0  0  0  0  0  0  0  0  0  0
   -9.1970   21.2700  -31.8570 Cl  0  0  0  0  0  0  0  0  0  0  0  0
   -6.8660   20.3730  -32.9690 C   0  0  0  0  0  0  0  0  0  0  0  0
   -5.4870   20.4030  -33.1800 C   0  0  0  0  0  0  0  0  0  0  0  0
   -4.6930   21.3590  -32.5370 C   0  0  0  0  0  0  0  0  0  0  0  0
   -3.3290   21.3840  -32.8070 O   0  0  0  0  0  0  0  0  0  0  0  0
   -4.5840   24.6390  -31.1760 N   0  0  0  0  0  0  0  0  0  0  0  0
   -3.7680   25.2810  -30.3540 N   0  0  0  0  0  0  0  0  0  0  0  0
   -0.9820   25.8820  -26.1090 C   0  0  0  0  0  0  0  0  0  0  0  0
   -0.2960   26.3540  -24.9860 C   0  0  0  0  0  0  0  0  0  0  0  0
    2.3094   27.3566  -22.2936 H   0  0  0  0  0  0  0  0  0  0  0  0
    2.4078   26.2990  -23.7422 H   0  0  0  0  0  0  0  0  0  0  0  0
    3.2219   27.9002  -23.7422 H   0  0  0  0  0  0  0  0  0  0  0  0
    1.2117   29.0899  -26.3734 H   0  0  0  0  0  0  0  0  0  0  0  0
   -0.0040   28.2443  -28.3793 H   0  0  0  0  0  0  0  0  0  0  0  0
   -1.6100   26.6300  -29.3430 H   0  0  0  0  0  0  0  0  0  0  0  0
   -3.2706   22.1464  -29.4654 H   0  0  0  0  0  0  0  0  0  0  0  0
   -7.1518   22.9943  -30.7973 H   0  0  0  0  0  0  0  0  0  0  0  0
   -7.4833   19.6164  -33.4756 H   0  0  0  0  0  0  0  0  0  0  0  0
   -5.0213   19.6707  -33.8559 H   0  0  0  0  0  0  0  0  0  0  0  0
   -1.5879   24.9670  -26.0343 H   0  0  0  0  0  0  0  0  0  0  0  0
   -0.3765   25.8143  -24.0309 H   0  0  0  0  0  0  0  0  0  0  0  0
  1  2  1  0
  2  3  1  0
  3  4  2  0
  4  5  1  0
  5  6  2  0
  6  7  1  0
  7  8  1  0
  8  9  2  0
  8 10  1  0
 10 11  2  0
 11 12  1  0
 12 13  1  0
 13 14  2  0
 14 15  1  0
 15 16  1  0
 15 17  2  0
 17 18  1  0
 18 19  2  0
 19 20  1  0
 12 21  2  0
 21 22  1  0
  6 23  1  0
 23 24  2  0
 24  3  1  0
 22 10  1  0
 19 13  1  0
  1 25  1  0
  1 26  1  0
  1 27  1  0
  4 28  1  0
  5 29  1  0
  7 30  1  0
 11 31  1  0
 14 32  1  0
 17 33  1  0
 18 34  1  0
 23 35  1  0
 24 36  1  0
M  CHG  2  20  -1  22  -1
M  END
>  <UniqueID>  (29) 
27

>  <SMILES>  (29) 
COc1ccc(NC(=O)c2cc(-c3cc(Cl)ccc3[O-])n[n-]2)cc1

>  <Energy>  (29) 
74.58531085946848

>  <Genealogy>  (29) 
COc1ccc(NC(=O)c2cc(-c3cc(Cl)ccc3[O-])n[n-]2)cc1 (protonated)
COc1ccc(NC(=O)c2cc(-c3cc(Cl)ccc3[O-])n[n-]2)cc1 (3D coordinates assigned)
COc1ccc(NC(=O)c2cc(-c3cc(Cl)ccc3[O-])n[n-]2)cc1 (optimized conformer: 74.58531085946848 kcal/mol)

>  <smiles>  (29) 
COc1ccc(NC(=O)c2cc(-c3cc(Cl)ccc3O)n[nH]2)cc1

>  <score_type>  (29) 
oracle

>  <origin>  (29) 
adgpu

>  <m_score__min__energy>  (29) 
-12.07

>  <m_primary>  (29) 
energy

$$$$
29:0
     RDKit          3D

 41 43  0  0  0  0  0  0  0  0999 V2000
    0.6440   23.0570  -35.9160 C   0  0  0  0  0  0  0  0  0  0  0  0
    0.1900   21.7500  -35.3580 C   0  0  0  0  0  0  0  0  0  0  0  0
    0.2820   20.5170  -35.9910 C   0  0  0  0  0  0  0  0  0  0  0  0
   -0.2930   19.4880  -35.3160 N   0  0  0  0  0  0  0  0  0  0  0  0
   -0.8430   19.8850  -34.1460 C   0  0  0  0  0  0  0  0  0  0  0  0
   -1.6200   18.9500  -33.2540 C   0  0  1  0  0  0  0  0  0  0  0  0
   -1.2190   19.0860  -31.7790 C   0  0  0  0  0  0  0  0  0  0  0  0
   -3.1100   19.1510  -33.4420 C   0  0  0  0  0  0  0  0  0  0  0  0
   -3.8450   18.2550  -34.2350 C   0  0  0  0  0  0  0  0  0  0  0  0
   -5.2160   18.4380  -34.4240 C   0  0  0  0  0  0  0  0  0  0  0  0
   -5.8700   19.5190  -33.8300 C   0  0  0  0  0  0  0  0  0  0  0  0
   -5.1560   20.4320  -33.0340 C   0  0  0  0  0  0  0  0  0  0  0  0
   -5.8450   21.5930  -32.4150 C   0  0  0  0  0  0  0  0  0  0  0  0
   -7.2330   21.7550  -32.5550 C   0  0  0  0  0  0  0  0  0  0  0  0
   -7.8810   22.8400  -31.9610 C   0  0  0  0  0  0  0  0  0  0  0  0
   -7.1540   23.7770  -31.2260 C   0  0  0  0  0  0  0  0  0  0  0  0
   -5.7610   23.6470  -31.0820 C   0  0  0  0  0  0  0  0  0  0  0  0
   -5.0020   24.6500  -30.2970 C   0  0  0  0  0  0  0  0  0  0  0  0
   -5.3070   24.9130  -28.9240 N   0  0  0  0  0  0  0  0  0  0  0  0
   -4.0540   25.2790  -30.8390 O   0  0  0  0  0  0  0  0  0  0  0  0
   -5.1170   22.5430  -31.6750 C   0  0  0  0  0  0  0  0  0  0  0  0
   -3.7780   20.2340  -32.8390 C   0  0  0  0  0  0  0  0  0  0  0  0
   -0.6640   21.5510  -33.9250 S   0  0  0  0  0  0  0  0  0  0  0  0
    0.8829   23.7446  -35.0913 H   0  0  0  0  0  0  0  0  0  0  0  0
    1.5404   22.9003  -36.5341 H   0  0  0  0  0  0  0  0  0  0  0  0
   -0.1565   23.4897  -36.5341 H   0  0  0  0  0  0  0  0  0  0  0  0
    0.7811   20.3843  -36.9622 H   0  0  0  0  0  0  0  0  0  0  0  0
   -1.3674   17.9223  -33.5539 H   0  0  0  0  0  0  0  0  0  0  0  0
   -2.0672   18.7983  -31.1404 H   0  0  0  0  0  0  0  0  0  0  0  0
   -0.3627   18.4280  -31.5696 H   0  0  0  0  0  0  0  0  0  0  0  0
   -0.9396   20.1291  -31.5696 H   0  0  0  0  0  0  0  0  0  0  0  0
   -3.3370   17.4031  -34.7105 H   0  0  0  0  0  0  0  0  0  0  0  0
   -5.7832   17.7277  -35.0434 H   0  0  0  0  0  0  0  0  0  0  0  0
   -6.9501   19.6573  -33.9856 H   0  0  0  0  0  0  0  0  0  0  0  0
   -7.8131   21.0229  -33.1360 H   0  0  0  0  0  0  0  0  0  0  0  0
   -8.9691   22.9564  -32.0730 H   0  0  0  0  0  0  0  0  0  0  0  0
   -7.6745   24.6241  -30.7554 H   0  0  0  0  0  0  0  0  0  0  0  0
   -4.7970   25.6690  -28.4150 H   0  0  0  0  0  0  0  0  0  0  0  0
   -5.9630   24.3120  -28.3810 H   0  0  0  0  0  0  0  0  0  0  0  0
   -4.0300   22.4220  -31.5579 H   0  0  0  0  0  0  0  0  0  0  0  0
   -3.2136   20.9350  -32.2065 H   0  0  0  0  0  0  0  0  0  0  0  0
  1  2  1  0
  2  3  2  0
  3  4  1  0
  4  5  2  0
  5  6  1  0
  6  7  1  0
  6  8  1  0
  8  9  2  0
  9 10  1  0
 10 11  2  0
 11 12  1  0
 12 13  1  0
 13 14  2  0
 14 15  1  0
 15 16  2  0
 16 17  1  0
 17 18  1  0
 18 19  1  0
 18 20  2  0
 17 21  2  0
 12 22  2  0
  5 23  1  0
 23  2  1  0
 22  8  1  0
 21 13  1  0
  1 24  1  0
  1 25  1  0
  1 26  1  0
  3 27  1  0
  6 28  1  6
  7 29  1  0
  7 30  1  0
  7 31  1  0
  9 32  1  0
 10 33  1  0
 11 34  1  0
 14 35  1  0
 15 36  1  0
 16 37  1  0
 19 38  1  0
 19 39  1  0
 21 40  1  0
 22 41  1  0
M  END
>  <UniqueID>  (30) 
28

>  <SMILES>  (30) 
Cc1cnc([C@@H](C)c2cccc(-c3cccc(C(N)=O)c3)c2)s1

>  <Energy>  (30) 
76.0768448917535

>  <Genealogy>  (30) 
Cc1cnc([C@@H](C)c2cccc(-c3cccc(C(N)=O)c3)c2)s1 (chirality)
Cc1cnc([C@@H](C)c2cccc(-c3cccc(C(N)=O)c3)c2)s1 (3D coordinates assigned)
Cc1cnc([C@@H](C)c2cccc(-c3cccc(C(N)=O)c3)c2)s1 (optimized conformer: 76.0768448917535 kcal/mol)

>  <smiles>  (30) 
Cc1cnc(C(C)c2cccc(-c3cccc(C(N)=O)c3)c2)s1

>  <score_type>  (30) 
oracle

>  <origin>  (30) 
adgpu

>  <m_score__min__energy>  (30) 
-9.3000000000000007

>  <m_primary>  (30) 
energy

$$$$
30:0
     RDKit          3D

 43 44  0  0  0  0  0  0  0  0999 V2000
   -3.5057   22.7168  -31.8965 H   0  0  0  0  0  0  0  0  0  0  0  0
   -4.5340   23.0150  -31.6440 C   0  0  0  0  0  0  0  0  0  0  0  0
   -4.7560   24.1520  -30.8560 C   0  0  0  0  0  0  0  0  0  0  0  0
   -3.6480   24.9030  -30.3340 N   0  0  0  0  0  0  0  0  0  0  0  0
   -2.8440   24.5930  -29.3510 C   0  0  0  0  0  0  0  0  0  0  0  0
   -1.9480   25.5300  -28.9550 N   0  0  0  0  0  0  0  0  0  0  0  0
   -1.0810   25.3110  -27.9400 C   0  0  0  0  0  0  0  0  0  0  0  0
    0.0470   26.5670  -27.4700 Cl  0  0  0  0  0  0  0  0  0  0  0  0
   -1.1000   24.0910  -27.2720 C   0  0  0  0  0  0  0  0  0  0  0  0
   -0.4101   23.9172  -26.4330 H   0  0  0  0  0  0  0  0  0  0  0  0
   -1.9710   23.1050  -27.6510 N   0  0  0  0  0  0  0  0  0  0  0  0
   -1.9390   21.8170  -26.9130 C   0  0  2  0  0  0  0  0  0  0  0  0
   -2.9131   21.6705  -26.4235 H   0  0  0  0  0  0  0  0  0  0  0  0
   -0.8840   21.8490  -25.7940 C   0  0  0  0  0  0  0  0  0  0  0  0
   -1.3866   21.8338  -24.8157 H   0  0  0  0  0  0  0  0  0  0  0  0
   -0.2282   20.9703  -25.8831 H   0  0  0  0  0  0  0  0  0  0  0  0
   -0.2827   22.7658  -25.8831 H   0  0  0  0  0  0  0  0  0  0  0  0
   -1.7480   20.6260  -27.8820 C   0  0  0  0  0  0  0  0  0  0  0  0
   -0.7243   20.6589  -28.2833 H   0  0  0  0  0  0  0  0  0  0  0  0
   -2.4995   20.7214  -28.6796 H   0  0  0  0  0  0  0  0  0  0  0  0
   -1.9640   19.2740  -27.2010 C   0  0  0  0  0  0  0  0  0  0  0  0
   -1.9429   19.4059  -26.1091 H   0  0  0  0  0  0  0  0  0  0  0  0
   -2.9391   18.8635  -27.5020 H   0  0  0  0  0  0  0  0  0  0  0  0
   -1.1653   18.5801  -27.5020 H   0  0  0  0  0  0  0  0  0  0  0  0
   -2.8350   23.3280  -28.7020 C   0  0  0  0  0  0  0  0  0  0  0  0
   -3.5860   22.4010  -29.1060 O   0  0  0  0  0  0  0  0  0  0  0  0
   -6.0720   24.4800  -30.4910 C   0  0  0  0  0  0  0  0  0  0  0  0
   -6.3590   25.6620  -29.6180 C   0  0  0  0  0  0  0  0  0  0  0  0
   -6.2866   25.3638  -28.5617 H   0  0  0  0  0  0  0  0  0  0  0  0
   -5.6278   26.4572  -29.8255 H   0  0  0  0  0  0  0  0  0  0  0  0
   -7.3734   26.0334  -29.8255 H   0  0  0  0  0  0  0  0  0  0  0  0
   -7.1040   23.7210  -30.9460 N   0  0  0  0  0  0  0  0  0  0  0  0
   -6.9160   22.6300  -31.7410 C   0  0  0  0  0  0  0  0  0  0  0  0
   -8.0110   21.8790  -32.1830 O   0  0  0  0  0  0  0  0  0  0  0  0
   -9.1010   21.5330  -31.3370 C   0  0  0  0  0  0  0  0  0  0  0  0
   -8.7941   21.6304  -30.2852 H   0  0  0  0  0  0  0  0  0  0  0  0
   -9.9476   22.2066  -31.5358 H   0  0  0  0  0  0  0  0  0  0  0  0
   -9.4042   20.4945  -31.5358 H   0  0  0  0  0  0  0  0  0  0  0  0
   -5.6140   22.2560  -32.1120 C   0  0  0  0  0  0  0  0  0  0  0  0
   -5.3810   21.0400  -32.9630 C   0  0  0  0  0  0  0  0  0  0  0  0
   -5.2136   20.1663  -32.3160 H   0  0  0  0  0  0  0  0  0  0  0  0
   -6.2615   20.8627  -33.5980 H   0  0  0  0  0  0  0  0  0  0  0  0
   -4.4973   21.2007  -33.5980 H   0  0  0  0  0  0  0  0  0  0  0  0
  1  2  1  0
  2  3  2  0
  3  4  1  0
  4  5  2  0
  5  6  1  0
  6  7  1  0
  7  8  1  0
  7  9  2  0
  9 10  1  0
  9 11  1  0
 11 12  1  0
 12 13  1  1
 12 14  1  0
 14 15  1  0
 14 16  1  0
 14 17  1  0
 12 18  1  0
 18 19  1  0
 18 20  1  0
 18 21  1  0
 21 22  1  0
 21 23  1  0
 21 24  1  0
 11 25  1  0
 25 26  2  0
  3 27  1  0
 27 28  1  0
 28 29  1  0
 28 30  1  0
 28 31  1  0
 27 32  2  0
 32 33  1  0
 33 34  1  0
 34 35  1  0
 35 36  1  0
 35 37  1  0
 35 38  1  0
 33 39  2  0
 39 40  1  0
 40 41  1  0
 40 42  1  0
 40 43  1  0
 39  2  1  0
 25  5  1  0
M  CHG  1   6  -1
M  END
>  <UniqueID>  (31) 
29

>  <SMILES>  (31) 
CC[C@@H](C)n1cc(Cl)[n-]/c(=N/c2cc(C)c(OC)nc2C)c1=O

>  <Energy>  (31) 
53.93244841661521

>  <Genealogy>  (31) 
CCC(C)n1cc(Cl)[n-]c(=Nc2cc(C)c(OC)nc2C)c1=O (protonated)
CC[C@@H](C)n1cc(Cl)[n-]c(=Nc2cc(C)c(OC)nc2C)c1=O (chirality)
CC[C@@H](C)n1cc(Cl)[n-]/c(=N/c2cc(C)c(OC)nc2C)c1=O (cis-trans isomerization)
CC[C@@H](C)n1cc(Cl)[n-]/c(=N/c2cc(C)c(OC)nc2C)c1=O (3D coordinates assigned)
CC[C@@H](C)n1cc(Cl)[n-]/c(=N/c2cc(C)c(OC)nc2C)c1=O (optimized conformer: 53.93244841661521 kcal/mol)

>  <smiles>  (31) 
CCC(C)n1cc(Cl)[nH]c(=Nc2cc(C)c(OC)nc2C)c1=O

>  <score_type>  (31) 
oracle

>  <origin>  (31) 
adgpu

>  <m_score__min__energy>  (31) 
-9.0600000000000005

>  <m_primary>  (31) 
energy

$$$$
31:0
     RDKit          3D

 58 61  0  0  0  0  0  0  0  0999 V2000
   -3.1630   15.7110  -35.7150 C   0  0  0  0  0  0  0  0  0  0  0  0
   -3.4830   16.9070  -34.8630 C   0  0  0  0  0  0  0  0  0  0  0  0
   -4.8140   17.3080  -34.6730 C   0  0  0  0  0  0  0  0  0  0  0  0
   -5.1120   18.4040  -33.8570 C   0  0  0  0  0  0  0  0  0  0  0  0
   -4.0840   19.1010  -33.2010 C   0  0  0  0  0  0  0  0  0  0  0  0
   -4.3630   20.2350  -32.3650 N   0  0  0  0  0  0  0  0  0  0  0  0
   -3.9500   21.5760  -32.6720 C   0  0  0  0  0  0  0  0  0  0  0  0
   -3.4080   21.8380  -33.7800 O   0  0  0  0  0  0  0  0  0  0  0  0
   -4.1950   22.6680  -31.7040 C   0  0  0  0  0  0  0  0  0  0  0  0
   -3.1920   22.9890  -30.7750 C   0  0  0  0  0  0  0  0  0  0  0  0
   -3.3510   24.0630  -29.8830 C   0  0  0  0  0  0  0  0  0  0  0  0
   -2.3050   24.3970  -28.9510 N   0  0  0  0  0  0  0  0  0  0  0  0
   -0.8990   24.1760  -29.3090 C   0  0  0  0  0  0  0  0  0  0  0  0
   -0.0240   24.0840  -28.0470 C   0  0  0  0  0  0  0  0  0  0  0  0
   -0.7160   23.3740  -26.9480 N   0  0  0  0  0  0  0  0  0  0  0  0
   -0.9150   21.9470  -27.2580 C   0  0  0  0  0  0  0  0  0  0  0  0
   -1.9830   24.0310  -26.5310 C   0  0  0  0  0  0  0  0  0  0  0  0
   -2.6120   24.9240  -27.6170 C   0  0  0  0  0  0  0  0  0  0  0  0
   -4.5200   24.8350  -29.9450 C   0  0  0  0  0  0  0  0  0  0  0  0
   -5.5290   24.5190  -30.8550 C   0  0  0  0  0  0  0  0  0  0  0  0
   -5.3940   23.4240  -31.7190 C   0  0  0  0  0  0  0  0  0  0  0  0
   -6.4850   23.1030  -32.5990 N   0  0  0  0  0  0  0  0  0  0  0  0
   -7.4340   22.0490  -32.3520 C   0  0  0  0  0  0  0  0  0  0  0  0
   -8.5820   22.2600  -31.5640 C   0  0  0  0  0  0  0  0  0  0  0  0
   -9.4800   21.2140  -31.3320 C   0  0  0  0  0  0  0  0  0  0  0  0
   -9.2500   19.9550  -31.8930 C   0  0  0  0  0  0  0  0  0  0  0  0
   -8.1250   19.7430  -32.6920 C   0  0  0  0  0  0  0  0  0  0  0  0
   -7.2230   20.7850  -32.9250 C   0  0  0  0  0  0  0  0  0  0  0  0
   -2.7540   18.7070  -33.4040 C   0  0  0  0  0  0  0  0  0  0  0  0
   -2.4540   17.6110  -34.2190 C   0  0  0  0  0  0  0  0  0  0  0  0
   -1.1590   17.2330  -34.3750 F   0  0  0  0  0  0  0  0  0  0  0  0
   -2.9330   14.8513  -35.0685 H   0  0  0  0  0  0  0  0  0  0  0  0
   -4.0285   15.4710  -36.3500 H   0  0  0  0  0  0  0  0  0  0  0  0
   -2.2933   15.9353  -36.3500 H   0  0  0  0  0  0  0  0  0  0  0  0
   -5.6273   16.7575  -35.1684 H   0  0  0  0  0  0  0  0  0  0  0  0
   -6.1571   18.7219  -33.7282 H   0  0  0  0  0  0  0  0  0  0  0  0
   -5.0380   20.1040  -31.5780 H   0  0  0  0  0  0  0  0  0  0  0  0
   -2.2690   22.3913  -30.7452 H   0  0  0  0  0  0  0  0  0  0  0  0
   -0.8142   23.2374  -29.8763 H   0  0  0  0  0  0  0  0  0  0  0  0
   -0.5521   25.0234  -29.9186 H   0  0  0  0  0  0  0  0  0  0  0  0
    0.9009   23.5422  -28.2939 H   0  0  0  0  0  0  0  0  0  0  0  0
    0.1952   25.1072  -27.7080 H   0  0  0  0  0  0  0  0  0  0  0  0
   -0.9946   21.3759  -26.3212 H   0  0  0  0  0  0  0  0  0  0  0  0
   -1.8390   21.8240  -27.8421 H   0  0  0  0  0  0  0  0  0  0  0  0
   -0.0599   21.5759  -27.8421 H   0  0  0  0  0  0  0  0  0  0  0  0
   -2.7077   23.2475  -26.2648 H   0  0  0  0  0  0  0  0  0  0  0  0
   -1.7375   24.6865  -25.6825 H   0  0  0  0  0  0  0  0  0  0  0  0
   -3.7030   24.9490  -27.4791 H   0  0  0  0  0  0  0  0  0  0  0  0
   -2.1975   25.9391  -27.5295 H   0  0  0  0  0  0  0  0  0  0  0  0
   -4.6423   25.6959  -29.2713 H   0  0  0  0  0  0  0  0  0  0  0  0
   -6.4393   25.1353  -30.8947 H   0  0  0  0  0  0  0  0  0  0  0  0
   -6.6560   23.7420  -33.4090 H   0  0  0  0  0  0  0  0  0  0  0  0
   -8.7729   23.2522  -31.1292 H   0  0  0  0  0  0  0  0  0  0  0  0
  -10.3692   21.3823  -30.7067 H   0  0  0  0  0  0  0  0  0  0  0  0
   -9.9548   19.1316  -31.7052 H   0  0  0  0  0  0  0  0  0  0  0  0
   -7.9480   18.7537  -33.1392 H   0  0  0  0  0  0  0  0  0  0  0  0
   -6.3423   20.6135  -33.5613 H   0  0  0  0  0  0  0  0  0  0  0  0
   -1.9397   19.2646  -32.9182 H   0  0  0  0  0  0  0  0  0  0  0  0
  1  2  1  0
  2  3  2  0
  3  4  1  0
  4  5  2  0
  5  6  1  0
  6  7  1  0
  7  8  2  0
  7  9  1  0
  9 10  2  0
 10 11  1  0
 11 12  1  0
 12 13  1  0
 13 14  1  0
 14 15  1  0
 15 16  1  0
 15 17  1  0
 17 18  1  0
 11 19  2  0
 19 20  1  0
 20 21  2  0
 21 22  1  0
 22 23  1  0
 23 24  2  0
 24 25  1  0
 25 26  2  0
 26 27  1  0
 27 28  2  0
  5 29  1  0
 29 30  2  0
 30 31  1  0
 30  2  1  0
 21  9  1  0
 28 23  1  0
 18 12  1  0
  1 32  1  0
  1 33  1  0
  1 34  1  0
  3 35  1  0
  4 36  1  0
  6 37  1  0
 10 38  1  0
 13 39  1  0
 13 40  1  0
 14 41  1  0
 14 42  1  0
 16 43  1  0
 16 44  1  0
 16 45  1  0
 17 46  1  0
 17 47  1  0
 18 48  1  0
 18 49  1  0
 19 50  1  0
 20 51  1  0
 22 52  1  0
 24 53  1  0
 25 54  1  0
 26 55  1  0
 27 56  1  0
 28 57  1  0
 29 58  1  0
M  END
>  <UniqueID>  (32) 
30

>  <SMILES>  (32) 
Cc1ccc(NC(=O)c2cc(N3CCN(C)CC3)ccc2Nc2ccccc2)cc1F

>  <Energy>  (32) 
85.44134086330575

>  <Genealogy>  (32) 
Cc1ccc(NC(=O)c2cc(N3CCN(C)CC3)ccc2Nc2ccccc2)cc1F (3D coordinates assigned)
Cc1ccc(NC(=O)c2cc(N3CCN(C)CC3)ccc2Nc2ccccc2)cc1F (nonaromatic ring conformer: 85.44134086330575 kcal/mol)

>  <smiles>  (32) 
Cc1ccc(NC(=O)c2cc(N3CCN(C)CC3)ccc2Nc2ccccc2)cc1F

>  <score_type>  (32) 
oracle

>  <origin>  (32) 
adgpu

>  <m_score__min__energy>  (32) 
-9.1899999999999995

>  <m_primary>  (32) 
energy

$$$$
32:0
     RDKit          3D

 28 30  0  0  0  0  0  0  0  0999 V2000
   -7.8339   25.8475  -29.2250 H   0  0  0  0  0  0  0  0  0  0  0  0
   -7.0900   25.2590  -29.7820 C   0  0  0  0  0  0  0  0  0  0  0  0
   -7.4880   24.1250  -30.4940 C   0  0  0  0  0  0  0  0  0  0  0  0
   -8.5439   23.8166  -30.4900 H   0  0  0  0  0  0  0  0  0  0  0  0
   -6.5460   23.3810  -31.2120 C   0  0  0  0  0  0  0  0  0  0  0  0
   -6.8607   22.4801  -31.7590 H   0  0  0  0  0  0  0  0  0  0  0  0
   -5.1940   23.7820  -31.2370 C   0  0  0  0  0  0  0  0  0  0  0  0
   -4.1900   23.0250  -31.9350 N   0  0  0  0  0  0  0  0  0  0  0  0
   -4.2870   21.7910  -32.3350 C   0  0  0  0  0  0  0  0  0  0  0  0
   -5.4040   21.0390  -32.2360 N   0  0  0  0  0  0  0  0  0  0  0  0
   -5.2600   19.8220  -32.7590 N   0  0  0  0  0  0  0  0  0  0  0  0
   -4.0330   19.5990  -33.2870 C   0  0  0  0  0  0  0  0  0  0  0  0
   -3.6380   18.3230  -33.9270 C   0  0  0  0  0  0  0  0  0  0  0  0
   -4.6140   17.3640  -34.2520 C   0  0  0  0  0  0  0  0  0  0  0  0
   -5.6721   17.5650  -34.0285 H   0  0  0  0  0  0  0  0  0  0  0  0
   -4.2500   16.1570  -34.8570 C   0  0  0  0  0  0  0  0  0  0  0  0
   -5.0214   15.4139  -35.1075 H   0  0  0  0  0  0  0  0  0  0  0  0
   -2.9080   15.8930  -35.1440 C   0  0  0  0  0  0  0  0  0  0  0  0
   -2.4530   14.3780  -35.9020 Cl  0  0  0  0  0  0  0  0  0  0  0  0
   -1.9290   16.8380  -34.8250 C   0  0  0  0  0  0  0  0  0  0  0  0
   -0.8725   16.6306  -35.0502 H   0  0  0  0  0  0  0  0  0  0  0  0
   -2.2890   18.0470  -34.2200 C   0  0  0  0  0  0  0  0  0  0  0  0
   -1.5133   18.7864  -33.9718 H   0  0  0  0  0  0  0  0  0  0  0  0
   -3.0500   20.9660  -33.1140 S   0  0  0  0  0  0  0  0  0  0  0  0
   -4.8000   24.9060  -30.4930 C   0  0  0  0  0  0  0  0  0  0  0  0
   -3.4670   25.2970  -30.4710 O   0  0  0  0  0  0  0  0  0  0  0  0
   -5.7480   25.6460  -29.7770 C   0  0  0  0  0  0  0  0  0  0  0  0
   -5.4354   26.5346  -29.2089 H   0  0  0  0  0  0  0  0  0  0  0  0
  1  2  1  0
  2  3  2  0
  3  4  1  0
  3  5  1  0
  5  6  1  0
  5  7  2  0
  7  8  1  0
  8  9  2  0
  9 10  1  0
 10 11  1  0
 11 12  2  0
 12 13  1  0
 13 14  2  0
 14 15  1  0
 14 16  1  0
 16 17  1  0
 16 18  2  0
 18 19  1  0
 18 20  1  0
 20 21  1  0
 20 22  2  0
 22 23  1  0
 12 24  1  0
  7 25  1  0
 25 26  1  0
 25 27  2  0
 27 28  1  0
 27  2  1  0
 24  9  1  0
 22 13  1  0
M  CHG  2  10  -1  26  -1
M  END
>  <UniqueID>  (33) 
31

>  <SMILES>  (33) 
[O-]c1ccccc1/N=c1\[n-]nc(-c2ccc(Cl)cc2)s1

>  <Energy>  (33) 
72.4665313971732

>  <Genealogy>  (33) 
[O-]c1ccccc1N=c1[n-]nc(-c2ccc(Cl)cc2)s1 (protonated)
[O-]c1ccccc1/N=c1\[n-]nc(-c2ccc(Cl)cc2)s1 (cis-trans isomerization)
[O-]c1ccccc1/N=c1\[n-]nc(-c2ccc(Cl)cc2)s1 (3D coordinates assigned)
[O-]c1ccccc1/N=c1\[n-]nc(-c2ccc(Cl)cc2)s1 (optimized conformer: 72.4665313971732 kcal/mol)

>  <smiles>  (33) 
Oc1ccccc1N=c1[nH]nc(-c2ccc(Cl)cc2)s1

>  <score_type>  (33) 
oracle

>  <origin>  (33) 
adgpu

>  <m_score__min__energy>  (33) 
-10.17

>  <m_primary>  (33) 
energy

$$$$
33:0
     RDKit          3D

 51 54  0  0  0  0  0  0  0  0999 V2000
    0.8500   25.7110  -23.7270 N   0  0  0  0  0  0  0  0  0  0  0  0
   -0.1200   25.3780  -24.7700 C   0  0  0  0  0  0  0  0  0  0  0  0
    0.4830   24.5250  -25.8640 C   0  0  0  0  0  0  0  0  0  0  0  0
    1.6320   24.0290  -25.6990 O   0  0  0  0  0  0  0  0  0  0  0  0
   -0.2160   24.3100  -27.1120 N   0  0  0  0  0  0  0  0  0  0  0  0
    0.2950   23.3230  -28.0770 C   0  0  0  0  0  0  0  0  0  0  0  0
   -0.8630   22.5990  -28.7770 C   0  0  0  0  0  0  0  0  0  0  0  0
   -1.9090   23.5370  -29.2050 N   0  0  0  0  0  0  0  0  0  0  0  0
   -3.0670   23.0380  -29.8960 C   0  0  0  0  0  0  0  0  0  0  0  0
   -3.2640   21.6570  -30.0320 C   0  0  0  0  0  0  0  0  0  0  0  0
   -4.3900   21.1660  -30.6990 C   0  0  0  0  0  0  0  0  0  0  0  0
   -5.3440   22.0490  -31.2320 C   0  0  0  0  0  0  0  0  0  0  0  0
   -6.4990   21.5530  -31.9350 N   0  0  0  0  0  0  0  0  0  0  0  0
   -6.5140   20.4050  -32.8360 C   0  0  0  0  0  0  0  0  0  0  0  0
   -8.0180   20.1040  -33.0860 C   0  0  1  0  0  0  0  0  0  0  0  0
   -8.4760   18.7780  -32.4560 C   0  0  0  0  0  0  0  0  0  0  0  0
   -7.3730   17.8220  -32.3580 N   0  0  0  0  0  0  0  0  0  0  0  0
   -6.8210   17.1160  -33.3590 C   0  0  0  0  0  0  0  0  0  0  0  0
   -5.7900   16.3950  -32.8020 C   0  0  0  0  0  0  0  0  0  0  0  0
   -5.7440   16.6810  -31.4850 N   0  0  0  0  0  0  0  0  0  0  0  0
   -6.7140   17.5510  -31.2440 N   0  0  0  0  0  0  0  0  0  0  0  0
   -8.7230   21.1950  -32.4990 O   0  0  0  0  0  0  0  0  0  0  0  0
   -7.8370   22.0040  -31.8250 C   0  0  0  0  0  0  0  0  0  0  0  0
   -8.1830   23.0560  -31.2260 O   0  0  0  0  0  0  0  0  0  0  0  0
   -5.1380   23.4330  -31.1030 C   0  0  0  0  0  0  0  0  0  0  0  0
   -4.0130   23.9250  -30.4340 C   0  0  0  0  0  0  0  0  0  0  0  0
   -3.8590   25.2660  -30.2910 F   0  0  0  0  0  0  0  0  0  0  0  0
   -1.7680   24.9710  -28.9390 C   0  0  0  0  0  0  0  0  0  0  0  0
   -1.3400   25.1880  -27.4860 C   0  0  0  0  0  0  0  0  0  0  0  0
    1.5640   24.9470  -23.6670 H   0  0  0  0  0  0  0  0  0  0  0  0
    0.3560   25.7680  -22.8060 H   0  0  0  0  0  0  0  0  0  0  0  0
   -0.9560   24.8281  -24.3130 H   0  0  0  0  0  0  0  0  0  0  0  0
   -0.4598   26.3194  -25.2263 H   0  0  0  0  0  0  0  0  0  0  0  0
    0.9070   23.8390  -28.8315 H   0  0  0  0  0  0  0  0  0  0  0  0
    0.9010   22.5809  -27.5366 H   0  0  0  0  0  0  0  0  0  0  0  0
   -0.4726   22.0727  -29.6605 H   0  0  0  0  0  0  0  0  0  0  0  0
   -1.3079   21.8913  -28.0620 H   0  0  0  0  0  0  0  0  0  0  0  0
   -2.5283   20.9556  -29.6115 H   0  0  0  0  0  0  0  0  0  0  0  0
   -4.5302   20.0804  -30.8074 H   0  0  0  0  0  0  0  0  0  0  0  0
   -6.0071   20.6496  -33.7811 H   0  0  0  0  0  0  0  0  0  0  0  0
   -5.9867   19.5395  -32.4085 H   0  0  0  0  0  0  0  0  0  0  0  0
   -8.2104   19.9978  -34.1638 H   0  0  0  0  0  0  0  0  0  0  0  0
   -8.8667   18.9776  -31.4473 H   0  0  0  0  0  0  0  0  0  0  0  0
   -9.2551   18.3416  -33.0983 H   0  0  0  0  0  0  0  0  0  0  0  0
   -7.1316   17.1147  -34.4142 H   0  0  0  0  0  0  0  0  0  0  0  0
   -5.1204   15.7058  -33.3374 H   0  0  0  0  0  0  0  0  0  0  0  0
   -5.8679   24.1353  -31.5319 H   0  0  0  0  0  0  0  0  0  0  0  0
   -1.0070   25.3942  -29.6111 H   0  0  0  0  0  0  0  0  0  0  0  0
   -2.7331   25.4695  -29.1121 H   0  0  0  0  0  0  0  0  0  0  0  0
   -1.0317   26.2361  -27.3579 H   0  0  0  0  0  0  0  0  0  0  0  0
   -2.1946   24.9465  -26.8369 H   0  0  0  0  0  0  0  0  0  0  0  0
  1  2  1  0
  2  3  1  0
  3  4  2  0
  3  5  1  0
  5  6  1  0
  6  7  1  0
  7  8  1  0
  8  9  1  0
  9 10  2  0
 10 11  1  0
 11 12  2  0
 12 13  1  0
 13 14  1  0
 14 15  1  0
 15 16  1  0
 16 17  1  0
 17 18  1  0
 18 19  2  0
 19 20  1  0
 20 21  2  0
 15 22  1  0
 22 23  1  0
 23 24  2  0
 12 25  1  0
 25 26  2  0
 26 27  1  0
  8 28  1  0
 28 29  1  0
 29  5  1  0
 26  9  1  0
 23 13  1  0
 21 17  1  0
  1 30  1  0
  1 31  1  0
  2 32  1  0
  2 33  1  0
  6 34  1  0
  6 35  1  0
  7 36  1  0
  7 37  1  0
 10 38  1  0
 11 39  1  0
 14 40  1  0
 14 41  1  0
 15 42  1  6
 16 43  1  0
 16 44  1  0
 18 45  1  0
 19 46  1  0
 25 47  1  0
 28 48  1  0
 28 49  1  0
 29 50  1  0
 29 51  1  0
M  END
>  <UniqueID>  (34) 
32

>  <SMILES>  (34) 
NCC(=O)N1CCN(c2ccc(N3C[C@@H](Cn4ccnn4)OC3=O)cc2F)CC1

>  <Energy>  (34) 
108.92491633421606

>  <Genealogy>  (34) 
NCC(=O)N1CCN(c2ccc(N3C[C@@H](Cn4ccnn4)OC3=O)cc2F)CC1 (chirality)
NCC(=O)N1CCN(c2ccc(N3C[C@@H](Cn4ccnn4)OC3=O)cc2F)CC1 (3D coordinates assigned)
NCC(=O)N1CCN(c2ccc(N3C[C@@H](Cn4ccnn4)OC3=O)cc2F)CC1 (nonaromatic ring conformer: 108.92491633421606 kcal/mol)

>  <smiles>  (34) 
NCC(=O)N1CCN(c2ccc(N3CC(Cn4ccnn4)OC3=O)cc2F)CC1

>  <score_type>  (34) 
oracle

>  <origin>  (34) 
adgpu

>  <m_score__min__energy>  (34) 
-7.4400000000000004

>  <m_primary>  (34) 
energy

$$$$
34:0
     RDKit          3D

 40 42  0  0  0  0  0  0  0  0999 V2000
   -2.9460   23.2040  -28.7150 C   0  0  0  0  0  0  0  0  0  0  0  0
   -2.9090   24.4630  -29.5250 C   0  0  0  0  0  0  0  0  0  0  0  0
   -1.9680   25.2790  -29.3420 O   0  0  0  0  0  0  0  0  0  0  0  0
   -3.9360   24.7920  -30.4700 N   0  0  0  0  0  0  0  0  0  0  0  0
   -5.0200   23.9540  -30.8970 C   0  0  0  0  0  0  0  0  0  0  0  0
   -6.2760   23.9860  -30.2640 C   0  0  0  0  0  0  0  0  0  0  0  0
   -7.2860   23.1040  -30.6590 C   0  0  0  0  0  0  0  0  0  0  0  0
   -7.0470   22.1620  -31.6660 C   0  0  0  0  0  0  0  0  0  0  0  0
   -8.3050   21.0020  -32.0930 S   0  0  0  0  0  0  0  0  0  0  0  0
   -8.0560   20.4420  -33.4660 O   0  0  0  0  0  0  0  0  0  0  0  0
   -9.6290   21.7100  -32.1000 O   0  0  0  0  0  0  0  0  0  0  0  0
   -8.3620   19.7000  -30.9400 N   0  0  0  0  0  0  0  0  0  0  0  0
   -8.2770   18.3950  -31.6010 C   0  0  0  0  0  0  0  0  0  0  0  0
   -6.9170   18.1950  -32.1930 C   0  0  0  0  0  0  0  0  0  0  0  0
   -6.5090   16.9950  -32.7680 C   0  0  0  0  0  0  0  0  0  0  0  0
   -4.8990   17.1680  -33.2160 S   0  0  0  0  0  0  0  0  0  0  0  0
   -4.7880   18.7600  -32.6740 C   0  0  0  0  0  0  0  0  0  0  0  0
   -3.5690   19.5980  -32.6860 C   0  0  0  0  0  0  0  0  0  0  0  0
   -2.8180   19.7670  -33.8610 C   0  0  0  0  0  0  0  0  0  0  0  0
   -1.6480   20.5310  -33.8300 C   0  0  0  0  0  0  0  0  0  0  0  0
   -1.2400   21.1080  -32.6690 N   0  0  0  0  0  0  0  0  0  0  0  0
   -1.9470   20.9650  -31.5170 C   0  0  0  0  0  0  0  0  0  0  0  0
   -3.1220   20.2110  -31.5040 C   0  0  0  0  0  0  0  0  0  0  0  0
   -5.9660   19.1680  -32.1480 N   0  0  0  0  0  0  0  0  0  0  0  0
   -5.7920   22.1180  -32.2880 C   0  0  0  0  0  0  0  0  0  0  0  0
   -4.7840   23.0060  -31.8990 C   0  0  0  0  0  0  0  0  0  0  0  0
   -2.9386   23.4565  -27.6444 H   0  0  0  0  0  0  0  0  0  0  0  0
   -3.8611   22.6418  -28.9528 H   0  0  0  0  0  0  0  0  0  0  0  0
   -2.0655   22.5890  -28.9528 H   0  0  0  0  0  0  0  0  0  0  0  0
   -6.4639   24.7076  -29.4554 H   0  0  0  0  0  0  0  0  0  0  0  0
   -8.2732   23.1506  -30.1761 H   0  0  0  0  0  0  0  0  0  0  0  0
   -8.4709   17.6023  -30.8634 H   0  0  0  0  0  0  0  0  0  0  0  0
   -9.0251   18.3547  -32.4064 H   0  0  0  0  0  0  0  0  0  0  0  0
   -7.1284   16.0962  -32.9044 H   0  0  0  0  0  0  0  0  0  0  0  0
   -3.1490   19.3005  -34.8006 H   0  0  0  0  0  0  0  0  0  0  0  0
   -1.0561   20.6656  -34.7473 H   0  0  0  0  0  0  0  0  0  0  0  0
   -1.5926   21.4445  -30.5926 H   0  0  0  0  0  0  0  0  0  0  0  0
   -3.6952   20.0975  -30.5720 H   0  0  0  0  0  0  0  0  0  0  0  0
   -5.5993   21.3835  -33.0838 H   0  0  0  0  0  0  0  0  0  0  0  0
   -3.7980   22.9589  -32.3844 H   0  0  0  0  0  0  0  0  0  0  0  0
  1  2  1  0
  2  3  2  0
  2  4  1  0
  4  5  1  0
  5  6  2  0
  6  7  1  0
  7  8  2  0
  8  9  1  0
  9 10  2  0
  9 11  2  0
  9 12  1  0
 12 13  1  0
 13 14  1  0
 14 15  2  0
 15 16  1  0
 16 17  1  0
 17 18  1  0
 18 19  2  0
 19 20  1  0
 20 21  2  0
 21 22  1  0
 22 23  2  0
 17 24  2  0
  8 25  1  0
 25 26  2  0
 26  5  1  0
 24 14  1  0
 23 18  1  0
  1 27  1  0
  1 28  1  0
  1 29  1  0
  6 30  1  0
  7 31  1  0
 13 32  1  0
 13 33  1  0
 15 34  1  0
 19 35  1  0
 20 36  1  0
 22 37  1  0
 23 38  1  0
 25 39  1  0
 26 40  1  0
M  CHG  2   4  -1  12  -1
M  END
>  <UniqueID>  (35) 
33

>  <SMILES>  (35) 
CC(=O)[N-]c1ccc(S(=O)(=O)[N-]Cc2csc(-c3ccncc3)n2)cc1

>  <Energy>  (35) 
69.42963139979607

>  <Genealogy>  (35) 
CC(=O)[N-]c1ccc(S(=O)(=O)[N-]Cc2csc(-c3ccncc3)n2)cc1 (protonated)
CC(=O)[N-]c1ccc(S(=O)(=O)[N-]Cc2csc(-c3ccncc3)n2)cc1 (3D coordinates assigned)
CC(=O)[N-]c1ccc(S(=O)(=O)[N-]Cc2csc(-c3ccncc3)n2)cc1 (optimized conformer: 69.42963139979607 kcal/mol)

>  <smiles>  (35) 
CC(=O)Nc1ccc(S(=O)(=O)NCc2csc(-c3ccncc3)n2)cc1

>  <score_type>  (35) 
oracle

>  <origin>  (35) 
adgpu

>  <m_score__min__energy>  (35) 
-10.67

>  <m_primary>  (35) 
energy

$$$$
35:0
     RDKit          3D

 39 41  0  0  0  0  0  0  0  0999 V2000
    0.0110   20.9300  -33.3640 C   0  0  0  0  0  0  0  0  0  0  0  0
   -1.2190   21.1810  -34.1030 N   0  0  0  0  0  0  0  0  0  0  0  0
   -2.4230   20.4740  -33.7910 C   0  0  0  0  0  0  0  0  0  0  0  0
   -3.5450   21.0370  -33.4220 O   0  0  0  0  0  0  0  0  0  0  0  0
   -4.4090   20.0600  -33.2290 C   0  0  0  0  0  0  0  0  0  0  0  0
   -5.8060   20.2790  -32.8010 C   0  0  0  0  0  0  0  0  0  0  0  0
   -6.8620   19.5920  -33.4240 C   0  0  0  0  0  0  0  0  0  0  0  0
   -8.1790   19.7980  -33.0070 C   0  0  0  0  0  0  0  0  0  0  0  0
   -8.4570   20.6920  -31.9700 C   0  0  0  0  0  0  0  0  0  0  0  0
   -7.4160   21.3970  -31.3470 C   0  0  0  0  0  0  0  0  0  0  0  0
   -7.7110   22.3320  -30.2060 C   0  0  0  0  0  0  0  0  0  0  0  0
   -7.3200   23.7660  -30.5730 C   0  0  0  0  0  0  0  0  0  0  0  0
   -5.8800   24.0300  -30.2190 C   0  0  0  0  0  0  0  0  0  0  0  0
   -5.2020   23.1950  -29.3200 C   0  0  0  0  0  0  0  0  0  0  0  0
   -3.8580   23.4320  -29.0260 C   0  0  0  0  0  0  0  0  0  0  0  0
   -3.2000   24.4980  -29.6440 C   0  0  0  0  0  0  0  0  0  0  0  0
   -3.8660   25.2900  -30.5250 N   0  0  0  0  0  0  0  0  0  0  0  0
   -5.1760   25.0810  -30.8270 C   0  0  0  0  0  0  0  0  0  0  0  0
   -6.0910   21.1780  -31.7580 C   0  0  0  0  0  0  0  0  0  0  0  0
   -3.8770   18.8360  -33.4660 N   0  0  0  0  0  0  0  0  0  0  0  0
   -2.6110   19.1140  -33.8240 C   0  0  0  0  0  0  0  0  0  0  0  0
   -1.6370   18.1180  -34.1780 C   0  0  0  0  0  0  0  0  0  0  0  0
   -0.8520   17.3160  -34.4620 N   0  0  0  0  0  0  0  0  0  0  0  0
   -0.1949   20.9720  -32.2843 H   0  0  0  0  0  0  0  0  0  0  0  0
    0.3988   19.9342  -33.6248 H   0  0  0  0  0  0  0  0  0  0  0  0
    0.7579   21.6942  -33.6248 H   0  0  0  0  0  0  0  0  0  0  0  0
   -1.2160   21.8880  -34.8720 H   0  0  0  0  0  0  0  0  0  0  0  0
   -6.6504   18.8892  -34.2433 H   0  0  0  0  0  0  0  0  0  0  0  0
   -9.0003   19.2544  -33.4968 H   0  0  0  0  0  0  0  0  0  0  0  0
   -9.4956   20.8437  -31.6408 H   0  0  0  0  0  0  0  0  0  0  0  0
   -8.7866   22.2971  -29.9782 H   0  0  0  0  0  0  0  0  0  0  0  0
   -7.1271   22.0176  -29.3284 H   0  0  0  0  0  0  0  0  0  0  0  0
   -7.4593   23.9132  -31.6542 H   0  0  0  0  0  0  0  0  0  0  0  0
   -7.9573   24.4628  -30.0088 H   0  0  0  0  0  0  0  0  0  0  0  0
   -5.7287   22.3534  -28.8464 H   0  0  0  0  0  0  0  0  0  0  0  0
   -3.3226   22.7858  -28.3148 H   0  0  0  0  0  0  0  0  0  0  0  0
   -2.1421   24.6965  -29.4174 H   0  0  0  0  0  0  0  0  0  0  0  0
   -5.6843   25.7369  -31.5490 H   0  0  0  0  0  0  0  0  0  0  0  0
   -5.2696   21.7140  -31.2600 H   0  0  0  0  0  0  0  0  0  0  0  0
  1  2  1  0
  2  3  1  0
  3  4  1  0
  4  5  1  0
  5  6  1  0
  6  7  2  0
  7  8  1  0
  8  9  2  0
  9 10  1  0
 10 11  1  0
 11 12  1  0
 12 13  1  0
 13 14  2  0
 14 15  1  0
 15 16  2  0
 16 17  1  0
 17 18  2  0
 10 19  2  0
  5 20  2  0
 20 21  1  0
 21 22  1  0
 22 23  3  0
 21  3  2  0
 19  6  1  0
 18 13  1  0
  1 24  1  0
  1 25  1  0
  1 26  1  0
  2 27  1  0
  7 28  1  0
  8 29  1  0
  9 30  1  0
 11 31  1  0
 11 32  1  0
 12 33  1  0
 12 34  1  0
 14 35  1  0
 15 36  1  0
 16 37  1  0
 18 38  1  0
 19 39  1  0
M  END
>  <UniqueID>  (36) 
34

>  <SMILES>  (36) 
CNc1oc(-c2cccc(CCc3cccnc3)c2)nc1C#N

>  <Energy>  (36) 
65.58906794726568

>  <Genealogy>  (36) 
CNc1oc(-c2cccc(CCc3cccnc3)c2)nc1C#N (3D coordinates assigned)
CNc1oc(-c2cccc(CCc3cccnc3)c2)nc1C#N (optimized conformer: 65.58906794726568 kcal/mol)

>  <smiles>  (36) 
CNc1oc(-c2cccc(CCc3cccnc3)c2)nc1C#N

>  <score_type>  (36) 
oracle

>  <origin>  (36) 
adgpu

>  <m_score__min__energy>  (36) 
-8.4199999999999999

>  <m_primary>  (36) 
energy

$$$$
36:0
     RDKit          3D

 24 25  0  0  0  0  0  0  0  0999 V2000
   -7.9480   18.2250  -31.5910 C   0  0  0  0  0  0  0  0  0  0  0  0
   -9.1070   18.9650  -32.2400 C   0  0  0  0  0  0  0  0  0  0  0  0
   -8.6020   20.0210  -33.0520 O   0  0  0  0  0  0  0  0  0  0  0  0
   -7.5350   20.8580  -32.6900 C   0  0  0  0  0  0  0  0  0  0  0  0
   -6.2050   20.5940  -33.0740 C   0  0  0  0  0  0  0  0  0  0  0  0
   -5.1730   21.4570  -32.6900 C   0  0  0  0  0  0  0  0  0  0  0  0
   -5.4580   22.5880  -31.9220 C   0  0  0  0  0  0  0  0  0  0  0  0
   -4.4620   23.4330  -31.5440 N   0  0  0  0  0  0  0  0  0  0  0  0
   -4.7220   24.5370  -30.7970 C   0  0  0  0  0  0  0  0  0  0  0  0
   -3.7780   25.3020  -30.4630 O   0  0  0  0  0  0  0  0  0  0  0  0
   -6.0400   24.8150  -30.4070 C   0  0  0  0  0  0  0  0  0  0  0  0
   -6.2990   25.8350  -29.7130 O   0  0  0  0  0  0  0  0  0  0  0  0
   -7.0440   23.9720  -30.7820 N   0  0  0  0  0  0  0  0  0  0  0  0
   -6.7850   22.8630  -31.5320 C   0  0  0  0  0  0  0  0  0  0  0  0
   -7.8150   21.9940  -31.9190 C   0  0  0  0  0  0  0  0  0  0  0  0
   -8.0416   18.2848  -30.4966 H   0  0  0  0  0  0  0  0  0  0  0  0
   -7.9653   17.1704  -31.9034 H   0  0  0  0  0  0  0  0  0  0  0  0
   -6.9986   18.6845  -31.9034 H   0  0  0  0  0  0  0  0  0  0  0  0
   -9.6843   18.2668  -32.8639 H   0  0  0  0  0  0  0  0  0  0  0  0
   -9.7583   19.3832  -31.4584 H   0  0  0  0  0  0  0  0  0  0  0  0
   -5.9770   19.7042  -33.6792 H   0  0  0  0  0  0  0  0  0  0  0  0
   -4.1371   21.2447  -32.9930 H   0  0  0  0  0  0  0  0  0  0  0  0
   -8.0240   24.1860  -30.4860 H   0  0  0  0  0  0  0  0  0  0  0  0
   -8.8508   22.2056  -31.6150 H   0  0  0  0  0  0  0  0  0  0  0  0
  1  2  1  0
  2  3  1  0
  3  4  1  0
  4  5  2  0
  5  6  1  0
  6  7  2  0
  7  8  1  0
  8  9  1  0
  9 10  2  0
  9 11  1  0
 11 12  2  0
 11 13  1  0
 13 14  1  0
 14 15  2  0
 15  4  1  0
 14  7  1  0
  1 16  1  0
  1 17  1  0
  1 18  1  0
  2 19  1  0
  2 20  1  0
  5 21  1  0
  6 22  1  0
 13 23  1  0
 15 24  1  0
M  CHG  1   8  -1
M  END
>  <UniqueID>  (37) 
35

>  <SMILES>  (37) 
CCOc1ccc2[n-]c(=O)c(=O)[nH]c2c1

>  <Energy>  (37) 
25.727713413286352

>  <Genealogy>  (37) 
CCOc1ccc2[n-]c(=O)c(=O)[nH]c2c1 (protonated)
CCOc1ccc2[n-]c(=O)c(=O)[nH]c2c1 (3D coordinates assigned)
CCOc1ccc2[n-]c(=O)c(=O)[nH]c2c1 (optimized conformer: 25.727713413286352 kcal/mol)

>  <smiles>  (37) 
CCOc1ccc2[nH]c(=O)c(=O)[nH]c2c1

>  <score_type>  (37) 
oracle

>  <origin>  (37) 
adgpu

>  <m_score__min__energy>  (37) 
-7.0099999999999998

>  <m_primary>  (37) 
energy

$$$$
37:0
     RDKit          3D

 56 59  0  0  0  0  0  0  0  0999 V2000
   -7.9970   23.3390  -31.9610 C   0  0  0  0  0  0  0  0  0  0  0  0
   -6.8850   24.2020  -31.7560 O   0  0  0  0  0  0  0  0  0  0  0  0
   -5.7930   23.9050  -30.9260 C   0  0  0  0  0  0  0  0  0  0  0  0
   -4.8870   22.9240  -31.3440 C   0  0  0  0  0  0  0  0  0  0  0  0
   -3.7830   22.5910  -30.5550 C   0  0  0  0  0  0  0  0  0  0  0  0
   -3.5600   23.2440  -29.3270 C   0  0  0  0  0  0  0  0  0  0  0  0
   -2.4000   22.8960  -28.4660 C   0  0  0  0  0  0  0  0  0  0  0  0
   -1.7760   21.6410  -28.5420 C   0  0  0  0  0  0  0  0  0  0  0  0
   -0.6900   21.3680  -27.6950 C   0  0  0  0  0  0  0  0  0  0  0  0
    0.0140   20.0600  -27.7190 C   0  0  0  0  0  0  0  0  0  0  0  0
    1.3870   19.9690  -28.0230 C   0  0  0  0  0  0  0  0  0  0  0  0
    2.0260   18.7260  -28.0510 C   0  0  0  0  0  0  0  0  0  0  0  0
    1.3150   17.5520  -27.7850 C   0  0  0  0  0  0  0  0  0  0  0  0
    2.0040   16.3300  -27.8260 O   0  0  0  0  0  0  0  0  0  0  0  0
    1.7040   15.2110  -26.9990 C   0  0  0  0  0  0  0  0  0  0  0  0
   -0.0590   17.6340  -27.4910 C   0  0  0  0  0  0  0  0  0  0  0  0
   -0.7010   18.8750  -27.4630 C   0  0  0  0  0  0  0  0  0  0  0  0
   -0.2590   22.3390  -26.8450 N   0  0  0  0  0  0  0  0  0  0  0  0
   -0.8550   23.5600  -26.7870 C   0  0  0  0  0  0  0  0  0  0  0  0
   -0.3730   24.5580  -25.8660 N   0  0  0  0  0  0  0  0  0  0  0  0
    0.9710   25.1300  -26.0070 C   0  0  0  0  0  0  0  0  0  0  0  0
    1.5680   25.4090  -24.6200 C   0  0  0  0  0  0  0  0  0  0  0  0
    0.6720   26.1970  -23.7200 N   0  0  0  0  0  0  0  0  0  0  0  0
    1.2660   27.5120  -23.4010 C   0  0  0  0  0  0  0  0  0  0  0  0
   -0.7040   26.3880  -24.2420 C   0  0  0  0  0  0  0  0  0  0  0  0
   -1.2690   25.0910  -24.8330 C   0  0  0  0  0  0  0  0  0  0  0  0
   -1.9160   23.8220  -27.5950 N   0  0  0  0  0  0  0  0  0  0  0  0
   -4.4780   24.2200  -28.9030 C   0  0  0  0  0  0  0  0  0  0  0  0
   -5.5820   24.5520  -29.6950 C   0  0  0  0  0  0  0  0  0  0  0  0
   -8.4017   23.0249  -30.9876 H   0  0  0  0  0  0  0  0  0  0  0  0
   -8.7753   23.8719  -32.5270 H   0  0  0  0  0  0  0  0  0  0  0  0
   -7.6740   22.4528  -32.5270 H   0  0  0  0  0  0  0  0  0  0  0  0
   -5.0455   22.4098  -32.3034 H   0  0  0  0  0  0  0  0  0  0  0  0
   -3.0831   21.8135  -30.8952 H   0  0  0  0  0  0  0  0  0  0  0  0
   -2.1325   20.8826  -29.2546 H   0  0  0  0  0  0  0  0  0  0  0  0
    1.9600   20.8826  -28.2398 H   0  0  0  0  0  0  0  0  0  0  0  0
    3.0995   18.6710  -28.2848 H   0  0  0  0  0  0  0  0  0  0  0  0
    1.7828   15.5047  -25.9419 H   0  0  0  0  0  0  0  0  0  0  0  0
    0.6812   14.8643  -27.2080 H   0  0  0  0  0  0  0  0  0  0  0  0
    2.4162   14.3992  -27.2080 H   0  0  0  0  0  0  0  0  0  0  0  0
   -0.6300   16.7173  -27.2824 H   0  0  0  0  0  0  0  0  0  0  0  0
   -1.7766   18.9262  -27.2385 H   0  0  0  0  0  0  0  0  0  0  0  0
    1.6153   24.4193  -26.5452 H   0  0  0  0  0  0  0  0  0  0  0  0
    0.9063   26.0728  -26.5699 H   0  0  0  0  0  0  0  0  0  0  0  0
    1.7835   24.4451  -24.1359 H   0  0  0  0  0  0  0  0  0  0  0  0
    2.4723   26.0148  -24.7787 H   0  0  0  0  0  0  0  0  0  0  0  0
    0.5900   25.6780  -22.8110 H   0  0  0  0  0  0  0  0  0  0  0  0
    1.3212   27.6343  -22.3092 H   0  0  0  0  0  0  0  0  0  0  0  0
    2.2780   27.5706  -23.8282 H   0  0  0  0  0  0  0  0  0  0  0  0
    0.6410   28.3100  -23.8282 H   0  0  0  0  0  0  0  0  0  0  0  0
   -1.3551   26.7187  -23.4194 H   0  0  0  0  0  0  0  0  0  0  0  0
   -0.6668   27.1426  -25.0415 H   0  0  0  0  0  0  0  0  0  0  0  0
   -1.3785   24.3464  -24.0308 H   0  0  0  0  0  0  0  0  0  0  0  0
   -2.2462   25.3068  -25.2896 H   0  0  0  0  0  0  0  0  0  0  0  0
   -4.3268   24.7277  -27.9390 H   0  0  0  0  0  0  0  0  0  0  0  0
   -6.2886   25.3228  -29.3536 H   0  0  0  0  0  0  0  0  0  0  0  0
  1  2  1  0
  2  3  1  0
  3  4  2  0
  4  5  1  0
  5  6  2  0
  6  7  1  0
  7  8  2  0
  8  9  1  0
  9 10  1  0
 10 11  2  0
 11 12  1  0
 12 13  2  0
 13 14  1  0
 14 15  1  0
 13 16  1  0
 16 17  2  0
  9 18  2  0
 18 19  1  0
 19 20  1  0
 20 21  1  0
 21 22  1  0
 22 23  1  0
 23 24  1  0
 23 25  1  0
 25 26  1  0
 19 27  2  0
  6 28  1  0
 28 29  2  0
 29  3  1  0
 27  7  1  0
 17 10  1  0
 26 20  1  0
  1 30  1  0
  1 31  1  0
  1 32  1  0
  4 33  1  0
  5 34  1  0
  8 35  1  0
 11 36  1  0
 12 37  1  0
 15 38  1  0
 15 39  1  0
 15 40  1  0
 16 41  1  0
 17 42  1  0
 21 43  1  0
 21 44  1  0
 22 45  1  0
 22 46  1  0
 23 47  1  0
 24 48  1  0
 24 49  1  0
 24 50  1  0
 25 51  1  0
 25 52  1  0
 26 53  1  0
 26 54  1  0
 28 55  1  0
 29 56  1  0
M  CHG  1  23   1
M  END
>  <UniqueID>  (38) 
36

>  <SMILES>  (38) 
COc1ccc(-c2cc(-c3ccc(OC)cc3)nc(N3CC[NH+](C)CC3)n2)cc1

>  <Energy>  (38) 
72.77916655111045

>  <Genealogy>  (38) 
COc1ccc(-c2cc(-c3ccc(OC)cc3)nc(N3CC[NH+](C)CC3)n2)cc1 (protonated)
COc1ccc(-c2cc(-c3ccc(OC)cc3)nc(N3CC[NH+](C)CC3)n2)cc1 (3D coordinates assigned)
COc1ccc(-c2cc(-c3ccc(OC)cc3)nc(N3CC[NH+](C)CC3)n2)cc1 (nonaromatic ring conformer: 72.77916655111045 kcal/mol)

>  <smiles>  (38) 
COc1ccc(-c2cc(-c3ccc(OC)cc3)nc(N3CCN(C)CC3)n2)cc1

>  <score_type>  (38) 
oracle

>  <origin>  (38) 
adgpu

>  <m_score__min__energy>  (38) 
-7.0499999999999998

>  <m_primary>  (38) 
energy

$$$$
38:0
     RDKit          3D

 36 38  0  0  0  0  0  0  0  0999 V2000
   -6.4770   25.5510  -29.4690 C   0  0  0  0  0  0  0  0  0  0  0  0
   -5.0070   25.5770  -30.5420 S   0  0  0  0  0  0  0  0  0  0  0  0
   -5.2030   23.8640  -31.0420 C   0  0  0  0  0  0  0  0  0  0  0  0
   -6.2440   23.3910  -32.2690 S   0  0  0  0  0  0  0  0  0  0  0  0
   -5.8970   21.7450  -32.2020 C   0  0  0  0  0  0  0  0  0  0  0  0
   -6.5000   20.6990  -33.0630 C   0  0  0  0  0  0  0  0  0  0  0  0
   -7.9120   20.4560  -33.0260 N   0  0  0  0  0  0  0  0  0  0  0  0
   -5.7560   19.9940  -33.8630 N   0  0  0  0  0  0  0  0  0  0  0  0
   -4.9440   21.5490  -31.2020 C   0  0  0  0  0  0  0  0  0  0  0  0
   -4.5500   22.7290  -30.5420 C   0  0  0  0  0  0  0  0  0  0  0  0
   -3.5430   22.7000  -29.4560 C   0  0  0  0  0  0  0  0  0  0  0  0
   -3.0090   23.8250  -28.9270 N   0  0  0  0  0  0  0  0  0  0  0  0
   -2.1010   23.5660  -27.9450 C   0  0  0  0  0  0  0  0  0  0  0  0
   -1.3670   24.6500  -27.2530 C   0  0  0  0  0  0  0  0  0  0  0  0
   -1.0750   24.5090  -25.8830 C   0  0  0  0  0  0  0  0  0  0  0  0
   -0.3260   25.4780  -25.2130 C   0  0  0  0  0  0  0  0  0  0  0  0
    0.1440   26.5970  -25.8980 C   0  0  0  0  0  0  0  0  0  0  0  0
   -0.1480   26.7590  -27.2540 C   0  0  0  0  0  0  0  0  0  0  0  0
   -0.9130   25.8050  -27.9370 C   0  0  0  0  0  0  0  0  0  0  0  0
   -1.2270   26.0540  -29.2740 O   0  0  0  0  0  0  0  0  0  0  0  0
   -1.8800   22.2130  -27.6940 C   0  0  0  0  0  0  0  0  0  0  0  0
   -2.8750   21.3370  -28.7250 S   0  0  0  0  0  0  0  0  0  0  0  0
   -6.1618   25.5566  -28.4151 H   0  0  0  0  0  0  0  0  0  0  0  0
   -7.0947   26.4384  -29.6717 H   0  0  0  0  0  0  0  0  0  0  0  0
   -7.0629   24.6424  -29.6717 H   0  0  0  0  0  0  0  0  0  0  0  0
   -8.3350   19.6930  -33.5990 H   0  0  0  0  0  0  0  0  0  0  0  0
   -8.5580   21.0560  -32.4680 H   0  0  0  0  0  0  0  0  0  0  0  0
   -6.1780   19.2590  -34.4740 H   0  0  0  0  0  0  0  0  0  0  0  0
   -4.7230   20.1280  -33.9210 H   0  0  0  0  0  0  0  0  0  0  0  0
   -4.5359   20.5588  -30.9509 H   0  0  0  0  0  0  0  0  0  0  0  0
   -1.4403   23.6275  -25.3357 H   0  0  0  0  0  0  0  0  0  0  0  0
   -0.1063   25.3580  -24.1419 H   0  0  0  0  0  0  0  0  0  0  0  0
    0.7449   27.3525  -25.3706 H   0  0  0  0  0  0  0  0  0  0  0  0
    0.2260   27.6435  -27.7904 H   0  0  0  0  0  0  0  0  0  0  0  0
   -2.0420   25.6730  -29.7340 H   0  0  0  0  0  0  0  0  0  0  0  0
   -1.1808   21.7949  -26.9549 H   0  0  0  0  0  0  0  0  0  0  0  0
  1  2  1  0
  2  3  1  0
  3  4  1  0
  4  5  1  0
  5  6  1  0
  6  7  1  0
  6  8  2  0
  5  9  2  0
  9 10  1  0
 10 11  1  0
 11 12  2  0
 12 13  1  0
 13 14  1  0
 14 15  2  0
 15 16  1  0
 16 17  2  0
 17 18  1  0
 18 19  2  0
 19 20  1  0
 13 21  2  0
 21 22  1  0
 10  3  2  0
 22 11  1  0
 19 14  1  0
  1 23  1  0
  1 24  1  0
  1 25  1  0
  7 26  1  0
  7 27  1  0
  8 28  1  0
  8 29  1  0
  9 30  1  0
 15 31  1  0
 16 32  1  0
 17 33  1  0
 18 34  1  0
 20 35  1  0
 21 36  1  0
M  CHG  1   8   1
M  END
>  <UniqueID>  (39) 
37

>  <SMILES>  (39) 
CSc1sc(C(N)=[NH2+])cc1-c1nc(-c2ccccc2O)cs1

>  <Energy>  (39) 
97.72673606734115

>  <Genealogy>  (39) 
CSc1sc(C(N)=[NH2+])cc1-c1nc(-c2ccccc2O)cs1 (protonated)
CSc1sc(C(N)=[NH2+])cc1-c1nc(-c2ccccc2O)cs1 (3D coordinates assigned)
CSc1sc(C(N)=[NH2+])cc1-c1nc(-c2ccccc2O)cs1 (optimized conformer: 97.72673606734115 kcal/mol)

>  <smiles>  (39) 
CSc1sc(C(=N)N)cc1-c1nc(-c2ccccc2O)cs1

>  <score_type>  (39) 
oracle

>  <origin>  (39) 
adgpu

>  <m_score__min__energy>  (39) 
-8.2899999999999991

>  <m_primary>  (39) 
energy

$$$$
39:0
     RDKit          3D

 44 46  0  0  0  0  0  0  0  0999 V2000
   -3.1060   18.9330  -26.2740 C   0  0  0  0  0  0  0  0  0  0  0  0
   -1.6280   18.9750  -27.3350 S   0  0  0  0  0  0  0  0  0  0  0  0
   -1.9790   20.6180  -27.9640 C   0  0  0  0  0  0  0  0  0  0  0  0
   -3.1140   21.3080  -27.5270 C   0  0  0  0  0  0  0  0  0  0  0  0
   -3.3900   22.5870  -28.0170 C   0  0  0  0  0  0  0  0  0  0  0  0
   -2.5350   23.1920  -28.9580 C   0  0  0  0  0  0  0  0  0  0  0  0
   -2.8260   24.5480  -29.4800 C   0  0  0  0  0  0  0  0  0  0  0  0
   -2.2720   25.5550  -28.9580 O   0  0  0  0  0  0  0  0  0  0  0  0
   -3.6950   24.7110  -30.6100 N   0  0  0  0  0  0  0  0  0  0  0  0
   -4.8630   23.9330  -30.9110 C   0  0  0  0  0  0  0  0  0  0  0  0
   -6.0510   24.0490  -30.1660 C   0  0  0  0  0  0  0  0  0  0  0  0
   -7.1570   23.2530  -30.4750 C   0  0  0  0  0  0  0  0  0  0  0  0
   -7.0890   22.3250  -31.5250 C   0  0  0  0  0  0  0  0  0  0  0  0
   -8.4670   21.3010  -31.9160 S   0  0  0  0  0  0  0  0  0  0  0  0
   -9.6170   22.1720  -32.3380 O   0  0  0  0  0  0  0  0  0  0  0  0
   -8.8640   20.4970  -30.7080 O   0  0  0  0  0  0  0  0  0  0  0  0
   -8.0240   20.2320  -33.2090 N   0  0  0  0  0  0  0  0  0  0  0  0
   -7.1070   19.1300  -33.0680 C   0  0  0  0  0  0  0  0  0  0  0  0
   -6.1080   18.9460  -34.0380 C   0  0  0  0  0  0  0  0  0  0  0  0
   -5.2000   17.8880  -33.9310 C   0  0  0  0  0  0  0  0  0  0  0  0
   -5.2780   17.0030  -32.8530 C   0  0  0  0  0  0  0  0  0  0  0  0
   -4.1370   15.6780  -32.7180 Cl  0  0  0  0  0  0  0  0  0  0  0  0
   -6.2670   17.1790  -31.8790 C   0  0  0  0  0  0  0  0  0  0  0  0
   -7.1780   18.2350  -31.9830 C   0  0  0  0  0  0  0  0  0  0  0  0
   -5.8980   22.1900  -32.2490 C   0  0  0  0  0  0  0  0  0  0  0  0
   -4.7910   22.9840  -31.9390 C   0  0  0  0  0  0  0  0  0  0  0  0
   -1.3980   22.4860  -29.3940 C   0  0  0  0  0  0  0  0  0  0  0  0
   -1.1230   21.2080  -28.9000 C   0  0  0  0  0  0  0  0  0  0  0  0
   -2.7994   18.9417  -25.2176 H   0  0  0  0  0  0  0  0  0  0  0  0
   -3.7315   19.8137  -26.4815 H   0  0  0  0  0  0  0  0  0  0  0  0
   -3.6805   18.0182  -26.4815 H   0  0  0  0  0  0  0  0  0  0  0  0
   -3.7912   20.8427  -26.7957 H   0  0  0  0  0  0  0  0  0  0  0  0
   -4.2822   23.1255  -27.6649 H   0  0  0  0  0  0  0  0  0  0  0  0
   -6.1093   24.7694  -29.3368 H   0  0  0  0  0  0  0  0  0  0  0  0
   -8.0847   23.3544  -29.8927 H   0  0  0  0  0  0  0  0  0  0  0  0
   -8.4760   20.3990  -34.1360 H   0  0  0  0  0  0  0  0  0  0  0  0
   -6.0393   19.6399  -34.8888 H   0  0  0  0  0  0  0  0  0  0  0  0
   -4.4226   17.7523  -34.6973 H   0  0  0  0  0  0  0  0  0  0  0  0
   -6.3282   16.4842  -31.0284 H   0  0  0  0  0  0  0  0  0  0  0  0
   -7.9534   18.3671  -31.2140 H   0  0  0  0  0  0  0  0  0  0  0  0
   -5.8337   21.4556  -33.0654 H   0  0  0  0  0  0  0  0  0  0  0  0
   -3.8563   22.8631  -32.5061 H   0  0  0  0  0  0  0  0  0  0  0  0
   -0.7204   22.9440  -30.1296 H   0  0  0  0  0  0  0  0  0  0  0  0
   -0.2318   20.6650  -29.2478 H   0  0  0  0  0  0  0  0  0  0  0  0
  1  2  1  0
  2  3  1  0
  3  4  2  0
  4  5  1  0
  5  6  2  0
  6  7  1  0
  7  8  2  0
  7  9  1  0
  9 10  1  0
 10 11  2  0
 11 12  1  0
 12 13  2  0
 13 14  1  0
 14 15  2  0
 14 16  2  0
 14 17  1  0
 17 18  1  0
 18 19  2  0
 19 20  1  0
 20 21  2  0
 21 22  1  0
 21 23  1  0
 23 24  2  0
 13 25  1  0
 25 26  2  0
  6 27  1  0
 27 28  2  0
 28  3  1  0
 26 10  1  0
 24 18  1  0
  1 29  1  0
  1 30  1  0
  1 31  1  0
  4 32  1  0
  5 33  1  0
 11 34  1  0
 12 35  1  0
 17 36  1  0
 19 37  1  0
 20 38  1  0
 23 39  1  0
 24 40  1  0
 25 41  1  0
 26 42  1  0
 27 43  1  0
 28 44  1  0
M  CHG  1   9  -1
M  END
>  <UniqueID>  (40) 
38

>  <SMILES>  (40) 
CSc1ccc(C(=O)[N-]c2ccc(S(=O)(=O)Nc3ccc(Cl)cc3)cc2)cc1

>  <Energy>  (40) 
50.545874723335466

>  <Genealogy>  (40) 
CSc1ccc(C(=O)[N-]c2ccc(S(=O)(=O)Nc3ccc(Cl)cc3)cc2)cc1 (protonated)
CSc1ccc(C(=O)[N-]c2ccc(S(=O)(=O)Nc3ccc(Cl)cc3)cc2)cc1 (3D coordinates assigned)
CSc1ccc(C(=O)[N-]c2ccc(S(=O)(=O)Nc3ccc(Cl)cc3)cc2)cc1 (optimized conformer: 50.545874723335466 kcal/mol)

>  <smiles>  (40) 
CSc1ccc(C(=O)Nc2ccc(S(=O)(=O)Nc3ccc(Cl)cc3)cc2)cc1

>  <score_type>  (40) 
oracle

>  <origin>  (40) 
adgpu

>  <m_score__min__energy>  (40) 
-12.210000000000001

>  <m_primary>  (40) 
energy

$$$$
40:0
     RDKit          3D

 22 22  0  0  0  0  0  0  0  0999 V2000
   -1.3290   20.4590  -26.0250 C   0  0  0  0  0  0  0  0  0  0  0  0
   -1.1720   21.9000  -26.2620 N   0  0  0  0  0  0  0  0  0  0  0  0
   -0.2700   22.6670  -25.3940 C   0  0  0  0  0  0  0  0  0  0  0  0
   -1.8950   22.5540  -27.3370 C   0  0  0  0  0  0  0  0  0  0  0  0
   -3.0400   21.9610  -27.9050 C   0  0  0  0  0  0  0  0  0  0  0  0
   -3.7350   22.5910  -28.9390 C   0  0  0  0  0  0  0  0  0  0  0  0
   -3.3120   23.8320  -29.4400 C   0  0  0  0  0  0  0  0  0  0  0  0
   -4.0760   24.4720  -30.5410 C   0  0  0  0  0  0  0  0  0  0  0  0
   -3.8840   25.6770  -30.8510 O   0  0  0  0  0  0  0  0  0  0  0  0
   -5.0240   23.7440  -31.2520 O   0  0  0  0  0  0  0  0  0  0  0  0
   -2.1670   24.4340  -28.8770 C   0  0  0  0  0  0  0  0  0  0  0  0
   -1.7040   25.6650  -29.3310 O   0  0  0  0  0  0  0  0  0  0  0  0
   -1.4730   23.7990  -27.8410 C   0  0  0  0  0  0  0  0  0  0  0  0
   -1.3501   20.2656  -24.9423 H   0  0  0  0  0  0  0  0  0  0  0  0
   -2.2701   20.1134  -26.4776 H   0  0  0  0  0  0  0  0  0  0  0  0
   -0.4844   19.9188  -26.4776 H   0  0  0  0  0  0  0  0  0  0  0  0
   -0.5118   22.4614  -24.3408 H   0  0  0  0  0  0  0  0  0  0  0  0
    0.7707   22.3729  -25.5954 H   0  0  0  0  0  0  0  0  0  0  0  0
   -0.3930   23.7414  -25.5954 H   0  0  0  0  0  0  0  0  0  0  0  0
   -3.3910   20.9888  -27.5287 H   0  0  0  0  0  0  0  0  0  0  0  0
   -4.6261   22.1083  -29.3668 H   0  0  0  0  0  0  0  0  0  0  0  0
   -0.5819   24.2812  -27.4128 H   0  0  0  0  0  0  0  0  0  0  0  0
  1  2  1  0
  2  3  1  0
  2  4  1  0
  4  5  2  0
  5  6  1  0
  6  7  2  0
  7  8  1  0
  8  9  2  0
  8 10  1  0
  7 11  1  0
 11 12  1  0
 11 13  2  0
 13  4  1  0
  1 14  1  0
  1 15  1  0
  1 16  1  0
  3 17  1  0
  3 18  1  0
  3 19  1  0
  5 20  1  0
  6 21  1  0
 13 22  1  0
M  CHG  2  10  -1  12  -1
M  END
>  <UniqueID>  (41) 
39

>  <SMILES>  (41) 
CN(C)c1ccc(C(=O)[O-])c([O-])c1

>  <Energy>  (41) 
24.152767039097228

>  <Genealogy>  (41) 
CN(C)c1ccc(C(=O)[O-])c([O-])c1 (protonated)
CN(C)c1ccc(C(=O)[O-])c([O-])c1 (3D coordinates assigned)
CN(C)c1ccc(C(=O)[O-])c([O-])c1 (optimized conformer: 24.152767039097228 kcal/mol)

>  <smiles>  (41) 
CN(C)c1ccc(C(=O)O)c(O)c1

>  <score_type>  (41) 
oracle

>  <origin>  (41) 
adgpu

>  <m_score__min__energy>  (41) 
-9.7200000000000006

>  <m_primary>  (41) 
energy

$$$$
41:0
     RDKit          3D

 51 53  0  0  0  0  0  0  0  0999 V2000
   -2.7370   21.2650  -33.8570 H   0  0  0  0  0  0  0  0  0  0  0  0
   -2.5350   21.9170  -33.0650 N   0  0  0  0  0  0  0  0  0  0  0  0
   -3.4600   22.2750  -32.2330 C   0  0  0  0  0  0  0  0  0  0  0  0
   -4.7290   21.8090  -32.3750 N   0  0  0  0  0  0  0  0  0  0  0  0
   -5.7130   22.1650  -31.5080 C   0  0  0  0  0  0  0  0  0  0  0  0
   -7.0920   21.6790  -31.7340 C   0  0  0  0  0  0  0  0  0  0  0  0
   -8.1270   22.2610  -30.9820 C   0  0  0  0  0  0  0  0  0  0  0  0
   -7.9005   23.0855  -30.2900 H   0  0  0  0  0  0  0  0  0  0  0  0
   -9.4380   21.8030  -31.1050 C   0  0  0  0  0  0  0  0  0  0  0  0
  -10.2391   22.2642  -30.5087 H   0  0  0  0  0  0  0  0  0  0  0  0
   -9.7350   20.7620  -31.9820 C   0  0  0  0  0  0  0  0  0  0  0  0
  -10.7675   20.3916  -32.0647 H   0  0  0  0  0  0  0  0  0  0  0  0
   -8.7250   20.1880  -32.7560 C   0  0  0  0  0  0  0  0  0  0  0  0
   -8.9710   19.3734  -33.4530 H   0  0  0  0  0  0  0  0  0  0  0  0
   -7.3930   20.6400  -32.6550 C   0  0  0  0  0  0  0  0  0  0  0  0
   -6.3690   20.0990  -33.5180 N   0  0  0  0  0  0  0  0  0  0  0  0
   -5.7960   20.7570  -34.0950 H   0  0  0  0  0  0  0  0  0  0  0  0
   -6.0920   18.6630  -33.6240 C   0  0  0  0  0  0  0  0  0  0  0  0
   -6.4545   18.1606  -32.7151 H   0  0  0  0  0  0  0  0  0  0  0  0
   -6.6069   18.2762  -34.5158 H   0  0  0  0  0  0  0  0  0  0  0  0
   -4.5950   18.3930  -33.7780 C   0  0  0  0  0  0  0  0  0  0  0  0
   -4.1859   18.0461  -32.8176 H   0  0  0  0  0  0  0  0  0  0  0  0
   -4.4427   17.6210  -34.5467 H   0  0  0  0  0  0  0  0  0  0  0  0
   -3.9380   19.5670  -34.1660 O   0  0  0  0  0  0  0  0  0  0  0  0
   -3.8250   20.1070  -33.3420 H   0  0  0  0  0  0  0  0  0  0  0  0
   -5.4210   23.0510  -30.4620 C   0  0  0  0  0  0  0  0  0  0  0  0
   -6.2063   23.3646  -29.7585 H   0  0  0  0  0  0  0  0  0  0  0  0
   -4.1090   23.5310  -30.3280 C   0  0  0  0  0  0  0  0  0  0  0  0
   -3.7230   24.5020  -29.2340 C   0  0  0  0  0  0  0  0  0  0  0  0
   -4.0731   25.4974  -29.5449 H   0  0  0  0  0  0  0  0  0  0  0  0
   -2.1870   24.6280  -29.0680 C   0  0  0  0  0  0  0  0  0  0  0  0
   -1.7006   24.1771  -29.9456 H   0  0  0  0  0  0  0  0  0  0  0  0
   -1.9509   25.6984  -28.9751 H   0  0  0  0  0  0  0  0  0  0  0  0
   -1.6630   23.9260  -27.8000 C   0  0  0  0  0  0  0  0  0  0  0  0
   -1.8034   22.8415  -27.9191 H   0  0  0  0  0  0  0  0  0  0  0  0
   -0.6031   24.2001  -27.6930 H   0  0  0  0  0  0  0  0  0  0  0  0
   -2.3520   24.3550  -26.5590 N   0  0  0  0  0  0  0  0  0  0  0  0
   -1.3890   25.4900  -25.6390 S   0  0  0  0  0  0  0  0  0  0  0  0
   -2.3050   26.4180  -24.8870 O   0  0  0  0  0  0  0  0  0  0  0  0
   -0.5420   26.3050  -26.5770 O   0  0  0  0  0  0  0  0  0  0  0  0
   -0.3200   24.6660  -24.4720 C   0  0  0  0  0  0  0  0  0  0  0  0
   -0.6376   24.9108  -23.4477 H   0  0  0  0  0  0  0  0  0  0  0  0
   -0.3800   23.5783  -24.6244 H   0  0  0  0  0  0  0  0  0  0  0  0
    0.7166   25.0010  -24.6244 H   0  0  0  0  0  0  0  0  0  0  0  0
   -3.7280   24.8680  -26.7470 C   0  0  0  0  0  0  0  0  0  0  0  0
   -4.3018   24.6991  -25.8238 H   0  0  0  0  0  0  0  0  0  0  0  0
   -3.6676   25.9415  -26.9794 H   0  0  0  0  0  0  0  0  0  0  0  0
   -4.4350   24.1640  -27.9080 C   0  0  0  0  0  0  0  0  0  0  0  0
   -4.4088   23.0763  -27.7462 H   0  0  0  0  0  0  0  0  0  0  0  0
   -5.4794   24.5056  -27.9587 H   0  0  0  0  0  0  0  0  0  0  0  0
   -3.1610   23.1270  -31.2180 N   0  0  0  0  0  0  0  0  0  0  0  0
  1  2  1  0
  2  3  2  0
  3  4  1  0
  4  5  2  0
  5  6  1  0
  6  7  2  0
  7  8  1  0
  7  9  1  0
  9 10  1  0
  9 11  2  0
 11 12  1  0
 11 13  1  0
 13 14  1  0
 13 15  2  0
 15 16  1  0
 16 17  1  0
 16 18  1  0
 18 19  1  0
 18 20  1  0
 18 21  1  0
 21 22  1  0
 21 23  1  0
 21 24  1  0
 24 25  1  0
  5 26  1  0
 26 27  1  0
 26 28  2  0
 28 29  1  0
 29 30  1  0
 29 31  1  0
 31 32  1  0
 31 33  1  0
 31 34  1  0
 34 35  1  0
 34 36  1  0
 34 37  1  0
 37 38  1  0
 38 39  2  0
 38 40  2  0
 38 41  1  0
 41 42  1  0
 41 43  1  0
 41 44  1  0
 37 45  1  0
 45 46  1  0
 45 47  1  0
 45 48  1  0
 48 49  1  0
 48 50  1  0
 28 51  1  0
 51  3  1  0
 15  6  1  0
 48 29  1  0
M  CHG  1  51  -1
M  END
>  <UniqueID>  (42) 
40

>  <SMILES>  (42) 
[H]/N=c1\nc(-c2ccccc2NCCO)cc(C2CCN(S(C)(=O)=O)CC2)[n-]1

>  <Energy>  (42) 
58.37714176843583

>  <Genealogy>  (42) 
CS(=O)(=O)N1CCC(c2cc(-c3ccccc3NCCO)nc(=N)[n-]2)CC1 (protonated)
[H]/N=c1\nc(-c2ccccc2NCCO)cc(C2CCN(S(C)(=O)=O)CC2)[n-]1 (cis-trans isomerization)
[H]/N=c1\nc(-c2ccccc2NCCO)cc(C2CCN(S(C)(=O)=O)CC2)[n-]1 (3D coordinates assigned)
[H]/N=c1\nc(-c2ccccc2NCCO)cc(C2CCN(S(C)(=O)=O)CC2)[n-]1 (nonaromatic ring conformer: 58.37714176843583 kcal/mol)

>  <smiles>  (42) 
CS(=O)(=O)N1CCC(c2cc(-c3ccccc3NCCO)nc(=N)[nH]2)CC1

>  <score_type>  (42) 
oracle

>  <origin>  (42) 
adgpu

>  <m_score__min__energy>  (42) 
-8.7400000000000002

>  <m_primary>  (42) 
energy

$$$$
42:0
     RDKit          3D

 31 33  0  0  0  0  0  0  0  0999 V2000
   -7.1540   24.7840  -30.2910 C   0  0  0  0  0  0  0  0  0  0  0  0
   -7.4160   23.3980  -30.1110 O   0  0  0  0  0  0  0  0  0  0  0  0
   -6.8600   22.4360  -30.9570 C   0  0  0  0  0  0  0  0  0  0  0  0
   -7.7060   21.4990  -31.5670 C   0  0  0  0  0  0  0  0  0  0  0  0
   -9.4440   21.5670  -31.3090 Cl  0  0  0  0  0  0  0  0  0  0  0  0
   -7.1760   20.4870  -32.3700 C   0  0  0  0  0  0  0  0  0  0  0  0
   -5.7910   20.3860  -32.5730 C   0  0  0  0  0  0  0  0  0  0  0  0
   -5.2470   19.2970  -33.4250 C   0  0  0  0  0  0  0  0  0  0  0  0
   -6.0900   18.4330  -34.1480 C   0  0  0  0  0  0  0  0  0  0  0  0
   -5.5300   17.4280  -34.9390 C   0  0  0  0  0  0  0  0  0  0  0  0
   -4.1430   17.2890  -35.0100 C   0  0  0  0  0  0  0  0  0  0  0  0
   -3.3330   18.1670  -34.2910 C   0  0  0  0  0  0  0  0  0  0  0  0
   -3.8960   19.1400  -33.5260 N   0  0  0  0  0  0  0  0  0  0  0  0
   -4.9470   21.3470  -31.9860 C   0  0  0  0  0  0  0  0  0  0  0  0
   -5.4680   22.3840  -31.1930 C   0  0  0  0  0  0  0  0  0  0  0  0
   -4.5380   23.4000  -30.6460 C   0  0  0  0  0  0  0  0  0  0  0  0
   -3.7570   23.2900  -29.5110 C   0  0  0  0  0  0  0  0  0  0  0  0
   -3.1210   24.5080  -29.4160 C   0  0  0  0  0  0  0  0  0  0  0  0
   -3.5120   25.2990  -30.4320 N   0  0  0  0  0  0  0  0  0  0  0  0
   -4.3780   24.6290  -31.1770 N   0  0  0  0  0  0  0  0  0  0  0  0
   -7.0621   25.2704  -29.3087 H   0  0  0  0  0  0  0  0  0  0  0  0
   -6.2161   24.9101  -30.8518 H   0  0  0  0  0  0  0  0  0  0  0  0
   -7.9811   25.2437  -30.8518 H   0  0  0  0  0  0  0  0  0  0  0  0
   -7.8508   19.7617  -32.8482 H   0  0  0  0  0  0  0  0  0  0  0  0
   -7.1824   18.5485  -34.0904 H   0  0  0  0  0  0  0  0  0  0  0  0
   -6.1813   16.7464  -35.5057 H   0  0  0  0  0  0  0  0  0  0  0  0
   -3.6941   16.4959  -35.6261 H   0  0  0  0  0  0  0  0  0  0  0  0
   -2.2383   18.0726  -34.3426 H   0  0  0  0  0  0  0  0  0  0  0  0
   -3.8611   21.2856  -32.1506 H   0  0  0  0  0  0  0  0  0  0  0  0
   -3.6644   22.4259  -28.8367 H   0  0  0  0  0  0  0  0  0  0  0  0
   -2.4042   24.7905  -28.6309 H   0  0  0  0  0  0  0  0  0  0  0  0
  1  2  1  0
  2  3  1  0
  3  4  2  0
  4  5  1  0
  4  6  1  0
  6  7  2  0
  7  8  1  0
  8  9  2  0
  9 10  1  0
 10 11  2  0
 11 12  1  0
 12 13  2  0
  7 14  1  0
 14 15  2  0
 15 16  1  0
 16 17  1  0
 17 18  2  0
 18 19  1  0
 19 20  1  0
 15  3  1  0
 20 16  2  0
 13  8  1  0
  1 21  1  0
  1 22  1  0
  1 23  1  0
  6 24  1  0
  9 25  1  0
 10 26  1  0
 11 27  1  0
 12 28  1  0
 14 29  1  0
 17 30  1  0
 18 31  1  0
M  CHG  1  19  -1
M  END
>  <UniqueID>  (43) 
41

>  <SMILES>  (43) 
COc1c(Cl)cc(-c2ccccn2)cc1-c1cc[n-]n1

>  <Energy>  (43) 
77.40360419297875

>  <Genealogy>  (43) 
COc1c(Cl)cc(-c2ccccn2)cc1-c1cc[n-]n1 (protonated)
COc1c(Cl)cc(-c2ccccn2)cc1-c1cc[n-]n1 (3D coordinates assigned)
COc1c(Cl)cc(-c2ccccn2)cc1-c1cc[n-]n1 (optimized conformer: 77.40360419297875 kcal/mol)

>  <smiles>  (43) 
COc1c(Cl)cc(-c2ccccn2)cc1-c1cc[nH]n1

>  <score_type>  (43) 
oracle

>  <origin>  (43) 
adgpu

>  <m_score__min__energy>  (43) 
-9.5099999999999998

>  <m_primary>  (43) 
energy

$$$$
43:0
     RDKit          3D

 42 44  0  0  0  0  0  0  0  0999 V2000
   -7.6680   21.7600  -30.6290 H   0  0  0  0  0  0  0  0  0  0  0  0
   -8.3900   21.0970  -30.7900 O   0  0  0  0  0  0  0  0  0  0  0  0
   -9.5080   21.8340  -31.1990 C   0  0  0  0  0  0  0  0  0  0  0  0
  -10.2046   21.1733  -31.7358 H   0  0  0  0  0  0  0  0  0  0  0  0
  -10.0068   22.2583  -30.3152 H   0  0  0  0  0  0  0  0  0  0  0  0
   -9.0690   22.9690  -32.1250 C   0  0  0  0  0  0  0  0  0  0  0  0
   -8.7493   22.5447  -33.0882 H   0  0  0  0  0  0  0  0  0  0  0  0
   -9.9182   23.6531  -32.2694 H   0  0  0  0  0  0  0  0  0  0  0  0
   -7.9580   23.7200  -31.5400 N   0  0  0  0  0  0  0  0  0  0  0  0
   -6.7090   23.3630  -31.5890 C   0  0  0  0  0  0  0  0  0  0  0  0
   -6.3270   22.2260  -32.2360 N   0  0  0  0  0  0  0  0  0  0  0  0
   -5.0180   21.8620  -32.3090 C   0  0  0  0  0  0  0  0  0  0  0  0
   -4.6230   20.7150  -33.0100 O   0  0  0  0  0  0  0  0  0  0  0  0
   -5.3820   19.5410  -33.1110 C   0  0  0  0  0  0  0  0  0  0  0  0
   -5.2840   18.7740  -34.2780 C   0  0  0  0  0  0  0  0  0  0  0  0
   -4.6221   19.1005  -35.0936 H   0  0  0  0  0  0  0  0  0  0  0  0
   -6.0240   17.5940  -34.4120 C   0  0  0  0  0  0  0  0  0  0  0  0
   -5.9499   17.0010  -35.3355 H   0  0  0  0  0  0  0  0  0  0  0  0
   -6.8570   17.1680  -33.3740 C   0  0  0  0  0  0  0  0  0  0  0  0
   -7.4447   16.2447  -33.4837 H   0  0  0  0  0  0  0  0  0  0  0  0
   -6.9430   17.9160  -32.1960 C   0  0  0  0  0  0  0  0  0  0  0  0
   -7.5931   17.5768  -31.3761 H   0  0  0  0  0  0  0  0  0  0  0  0
   -6.2040   19.0940  -32.0590 C   0  0  0  0  0  0  0  0  0  0  0  0
   -6.2647   19.6739  -31.1263 H   0  0  0  0  0  0  0  0  0  0  0  0
   -4.0460   22.6690  -31.7160 C   0  0  0  0  0  0  0  0  0  0  0  0
   -2.9802   22.4072  -31.7899 H   0  0  0  0  0  0  0  0  0  0  0  0
   -4.4500   23.8150  -31.0270 C   0  0  0  0  0  0  0  0  0  0  0  0
   -3.4530   24.6820  -30.4650 N   0  0  0  0  0  0  0  0  0  0  0  0
   -2.7980   24.5550  -29.3440 C   0  0  0  0  0  0  0  0  0  0  0  0
   -1.9750   25.5690  -28.9640 N   0  0  0  0  0  0  0  0  0  0  0  0
   -1.2400   25.5280  -27.8220 C   0  0  0  0  0  0  0  0  0  0  0  0
   -0.6036   26.3828  -27.5496 H   0  0  0  0  0  0  0  0  0  0  0  0
   -1.2890   24.4010  -26.9890 C   0  0  0  0  0  0  0  0  0  0  0  0
   -0.5200   24.3640  -25.6930 C   0  0  0  0  0  0  0  0  0  0  0  0
   -0.5080   23.0830  -25.1680 F   0  0  0  0  0  0  0  0  0  0  0  0
   -1.1170   25.2170  -24.7840 F   0  0  0  0  0  0  0  0  0  0  0  0
    0.7910   24.7620  -25.8910 F   0  0  0  0  0  0  0  0  0  0  0  0
   -2.1350   23.3430  -27.3510 C   0  0  0  0  0  0  0  0  0  0  0  0
   -2.2136   22.4589  -26.7012 H   0  0  0  0  0  0  0  0  0  0  0  0
   -2.8780   23.4050  -28.5310 C   0  0  0  0  0  0  0  0  0  0  0  0
   -3.5216   22.5628  -28.8250 H   0  0  0  0  0  0  0  0  0  0  0  0
   -5.7690   24.1490  -31.0020 N   0  0  0  0  0  0  0  0  0  0  0  0
  1  2  1  0
  2  3  1  0
  3  4  1  0
  3  5  1  0
  3  6  1  0
  6  7  1  0
  6  8  1  0
  6  9  1  0
  9 10  2  0
 10 11  1  0
 11 12  2  0
 12 13  1  0
 13 14  1  0
 14 15  2  0
 15 16  1  0
 15 17  1  0
 17 18  1  0
 17 19  2  0
 19 20  1  0
 19 21  1  0
 21 22  1  0
 21 23  2  0
 23 24  1  0
 12 25  1  0
 25 26  1  0
 25 27  2  0
 27 28  1  0
 28 29  2  0
 29 30  1  0
 30 31  1  0
 31 32  1  0
 31 33  2  0
 33 34  1  0
 34 35  1  0
 34 36  1  0
 34 37  1  0
 33 38  1  0
 38 39  1  0
 38 40  2  0
 40 41  1  0
 27 42  1  0
 42 10  1  0
 23 14  1  0
 40 29  1  0
M  CHG  2  30  -1  42  -1
M  END
>  <UniqueID>  (44) 
42

>  <SMILES>  (44) 
OCC/N=c1\nc(Oc2ccccc2)cc(/N=c2\ccc(C(F)(F)F)c[n-]2)[n-]1

>  <Energy>  (44) 
55.66948917502796

>  <Genealogy>  (44) 
OCCN=c1nc(Oc2ccccc2)cc(N=c2ccc(C(F)(F)F)c[n-]2)[n-]1 (protonated)
OCC/N=c1\nc(Oc2ccccc2)cc(/N=c2\ccc(C(F)(F)F)c[n-]2)[n-]1 (cis-trans isomerization)
OCC/N=c1\nc(Oc2ccccc2)cc(/N=c2\ccc(C(F)(F)F)c[n-]2)[n-]1 (3D coordinates assigned)
OCC/N=c1\nc(Oc2ccccc2)cc(/N=c2\ccc(C(F)(F)F)c[n-]2)[n-]1 (optimized conformer: 55.66948917502796 kcal/mol)

>  <smiles>  (44) 
OCCN=c1nc(Oc2ccccc2)cc(N=c2ccc(C(F)(F)F)c[nH]2)[nH]1

>  <score_type>  (44) 
oracle

>  <origin>  (44) 
adgpu

>  <m_score__min__energy>  (44) 
-8.9399999999999995

>  <m_primary>  (44) 
energy

$$$$
44:0
     RDKit          3D

 52 54  0  0  0  0  0  0  0  0999 V2000
   -5.1740   25.6180  -30.8370 C   0  0  0  0  0  0  0  0  0  0  0  0
   -3.9640   24.8830  -30.6890 O   0  0  0  0  0  0  0  0  0  0  0  0
   -3.6600   24.0740  -29.5850 C   0  0  0  0  0  0  0  0  0  0  0  0
   -4.5860   23.8200  -28.5570 C   0  0  0  0  0  0  0  0  0  0  0  0
   -4.2340   23.0030  -27.4800 C   0  0  0  0  0  0  0  0  0  0  0  0
   -2.9590   22.4370  -27.4150 C   0  0  0  0  0  0  0  0  0  0  0  0
   -2.0170   22.6840  -28.4290 C   0  0  0  0  0  0  0  0  0  0  0  0
   -0.7000   22.0970  -28.3650 N   0  0  0  0  0  0  0  0  0  0  0  0
    0.3410   22.7110  -27.5400 C   0  0  0  0  0  0  0  0  0  0  0  0
   -0.3330   20.6430  -29.2500 S   0  0  0  0  0  0  0  0  0  0  0  0
    1.1440   20.3690  -29.1700 O   0  0  0  0  0  0  0  0  0  0  0  0
   -1.0540   19.4760  -28.6360 O   0  0  0  0  0  0  0  0  0  0  0  0
   -0.8310   20.8190  -30.9320 C   0  0  0  0  0  0  0  0  0  0  0  0
    0.1270   20.7540  -31.9510 C   0  0  0  0  0  0  0  0  0  0  0  0
   -0.2630   20.8540  -33.2870 C   0  0  0  0  0  0  0  0  0  0  0  0
   -1.6110   21.0170  -33.6160 C   0  0  0  0  0  0  0  0  0  0  0  0
   -2.5870   21.0940  -32.6060 C   0  0  0  0  0  0  0  0  0  0  0  0
   -4.0200   21.2290  -32.9580 C   0  0  0  0  0  0  0  0  0  0  0  0
   -4.5190   20.4780  -33.8410 O   0  0  0  0  0  0  0  0  0  0  0  0
   -4.8420   22.2230  -32.3270 N   0  0  0  0  0  0  0  0  0  0  0  0
   -6.2570   22.0720  -32.1180 C   0  0  0  0  0  0  0  0  0  0  0  0
   -7.0370   23.2050  -31.8400 C   0  0  0  0  0  0  0  0  0  0  0  0
   -8.4090   23.0780  -31.5980 C   0  0  0  0  0  0  0  0  0  0  0  0
   -9.0090   21.8170  -31.6140 C   0  0  0  0  0  0  0  0  0  0  0  0
   -8.2380   20.6770  -31.8680 C   0  0  0  0  0  0  0  0  0  0  0  0
   -9.0040   19.0550  -31.8600 S   0  0  0  0  0  0  0  0  0  0  0  0
   -7.4580   18.1920  -32.2800 C   0  0  0  0  0  0  0  0  0  0  0  0
   -6.8670   20.8030  -32.1200 C   0  0  0  0  0  0  0  0  0  0  0  0
   -2.1830   20.9950  -31.2610 C   0  0  0  0  0  0  0  0  0  0  0  0
   -2.3840   23.5000  -29.5120 C   0  0  0  0  0  0  0  0  0  0  0  0
   -5.5778   25.8633  -29.8437 H   0  0  0  0  0  0  0  0  0  0  0  0
   -4.9733   26.5470  -31.3909 H   0  0  0  0  0  0  0  0  0  0  0  0
   -5.9059   25.0117  -31.3909 H   0  0  0  0  0  0  0  0  0  0  0  0
   -5.5905   24.2661  -28.6014 H   0  0  0  0  0  0  0  0  0  0  0  0
   -4.9633   22.8049  -26.6807 H   0  0  0  0  0  0  0  0  0  0  0  0
   -2.6899   21.7934  -26.5645 H   0  0  0  0  0  0  0  0  0  0  0  0
    0.0982   22.5678  -26.4767 H   0  0  0  0  0  0  0  0  0  0  0  0
    1.3099   22.2398  -27.7616 H   0  0  0  0  0  0  0  0  0  0  0  0
    0.3974   23.7870  -27.7616 H   0  0  0  0  0  0  0  0  0  0  0  0
    1.1895   20.6238  -31.6978 H   0  0  0  0  0  0  0  0  0  0  0  0
    0.4935   20.8043  -34.0840 H   0  0  0  0  0  0  0  0  0  0  0  0
   -1.9111   21.0856  -34.6720 H   0  0  0  0  0  0  0  0  0  0  0  0
   -4.3990   23.1320  -32.0640 H   0  0  0  0  0  0  0  0  0  0  0  0
   -6.5667   24.1990  -31.8122 H   0  0  0  0  0  0  0  0  0  0  0  0
   -9.0160   23.9726  -31.3948 H   0  0  0  0  0  0  0  0  0  0  0  0
  -10.0886   21.7197  -31.4268 H   0  0  0  0  0  0  0  0  0  0  0  0
   -6.9375   17.9014  -31.3555 H   0  0  0  0  0  0  0  0  0  0  0  0
   -7.6888   17.2922  -32.8692 H   0  0  0  0  0  0  0  0  0  0  0  0
   -6.8132   18.8607  -32.8692 H   0  0  0  0  0  0  0  0  0  0  0  0
   -6.2629   19.9059  -32.3207 H   0  0  0  0  0  0  0  0  0  0  0  0
   -2.9349   21.0563  -30.4605 H   0  0  0  0  0  0  0  0  0  0  0  0
   -1.6578   23.6914  -30.3157 H   0  0  0  0  0  0  0  0  0  0  0  0
  1  2  1  0
  2  3  1  0
  3  4  2  0
  4  5  1  0
  5  6  2  0
  6  7  1  0
  7  8  1  0
  8  9  1  0
  8 10  1  0
 10 11  2  0
 10 12  2  0
 10 13  1  0
 13 14  2  0
 14 15  1  0
 15 16  2  0
 16 17  1  0
 17 18  1  0
 18 19  2  0
 18 20  1  0
 20 21  1  0
 21 22  2  0
 22 23  1  0
 23 24  2  0
 24 25  1  0
 25 26  1  0
 26 27  1  0
 25 28  2  0
 17 29  2  0
  7 30  2  0
 30  3  1  0
 29 13  1  0
 28 21  1  0
  1 31  1  0
  1 32  1  0
  1 33  1  0
  4 34  1  0
  5 35  1  0
  6 36  1  0
  9 37  1  0
  9 38  1  0
  9 39  1  0
 14 40  1  0
 15 41  1  0
 16 42  1  0
 20 43  1  0
 22 44  1  0
 23 45  1  0
 24 46  1  0
 27 47  1  0
 27 48  1  0
 27 49  1  0
 28 50  1  0
 29 51  1  0
 30 52  1  0
M  END
>  <UniqueID>  (45) 
43

>  <SMILES>  (45) 
COc1cccc(N(C)S(=O)(=O)c2cccc(C(=O)Nc3cccc(SC)c3)c2)c1

>  <Energy>  (45) 
58.2099716140258

>  <Genealogy>  (45) 
COc1cccc(N(C)S(=O)(=O)c2cccc(C(=O)Nc3cccc(SC)c3)c2)c1 (3D coordinates assigned)
COc1cccc(N(C)S(=O)(=O)c2cccc(C(=O)Nc3cccc(SC)c3)c2)c1 (optimized conformer: 58.2099716140258 kcal/mol)

>  <smiles>  (45) 
COc1cccc(N(C)S(=O)(=O)c2cccc(C(=O)Nc3cccc(SC)c3)c2)c1

>  <score_type>  (45) 
oracle

>  <origin>  (45) 
adgpu

>  <m_score__min__energy>  (45) 
-9.6799999999999997

>  <m_primary>  (45) 
energy

$$$$
45:0
     RDKit          3D

 47 49  0  0  0  0  0  0  0  0999 V2000
   -8.5510   23.3090  -32.0040 C   0  0  0  0  0  0  0  0  0  0  0  0
   -7.4930   22.3760  -32.2030 O   0  0  0  0  0  0  0  0  0  0  0  0
   -7.6580   20.9810  -32.2290 C   0  0  0  0  0  0  0  0  0  0  0  0
   -8.8030   20.3530  -31.6990 C   0  0  0  0  0  0  0  0  0  0  0  0
   -8.9350   18.9640  -31.7530 C   0  0  0  0  0  0  0  0  0  0  0  0
   -7.9350   18.1890  -32.3410 C   0  0  0  0  0  0  0  0  0  0  0  0
   -6.7970   18.7990  -32.8730 C   0  0  0  0  0  0  0  0  0  0  0  0
   -6.6410   20.1960  -32.8010 C   0  0  0  0  0  0  0  0  0  0  0  0
   -5.4860   20.8550  -33.3450 N   0  0  0  0  0  0  0  0  0  0  0  0
   -4.1210   20.4310  -33.2250 C   0  0  0  0  0  0  0  0  0  0  0  0
   -3.7150   19.4220  -33.8620 O   0  0  0  0  0  0  0  0  0  0  0  0
   -3.2080   21.1060  -32.2710 C   0  0  0  0  0  0  0  0  0  0  0  0
   -3.6710   22.2510  -31.5940 C   0  0  0  0  0  0  0  0  0  0  0  0
   -2.8430   22.9470  -30.7050 C   0  0  0  0  0  0  0  0  0  0  0  0
   -3.4530   24.3800  -29.8820 S   0  0  0  0  0  0  0  0  0  0  0  0
   -2.1300   25.2810  -29.2270 N   0  0  0  0  0  0  0  0  0  0  0  0
   -4.3710   23.9840  -28.7610 O   0  0  0  0  0  0  0  0  0  0  0  0
   -4.2130   25.2320  -30.8590 O   0  0  0  0  0  0  0  0  0  0  0  0
   -1.5380   22.4970  -30.4800 C   0  0  0  0  0  0  0  0  0  0  0  0
   -1.0680   21.3570  -31.1330 C   0  0  0  0  0  0  0  0  0  0  0  0
   -1.8910   20.6470  -32.0170 C   0  0  0  0  0  0  0  0  0  0  0  0
   -1.2270   19.1380  -32.7420 S   0  0  0  0  0  0  0  0  0  0  0  0
   -0.0410   20.0240  -33.7560 C   0  0  0  0  0  0  0  0  0  0  0  0
    1.3290   19.7880  -33.5990 C   0  0  0  0  0  0  0  0  0  0  0  0
    2.2550   20.4750  -34.3900 C   0  0  0  0  0  0  0  0  0  0  0  0
    1.8160   21.4090  -35.3410 C   0  0  0  0  0  0  0  0  0  0  0  0
    2.8050   22.1160  -36.2190 C   0  0  0  0  0  0  0  0  0  0  0  0
    0.4390   21.6240  -35.5130 C   0  0  0  0  0  0  0  0  0  0  0  0
   -0.4850   20.9360  -34.7210 C   0  0  0  0  0  0  0  0  0  0  0  0
   -8.7147   23.4533  -30.9259 H   0  0  0  0  0  0  0  0  0  0  0  0
   -8.2836   24.2707  -32.4662 H   0  0  0  0  0  0  0  0  0  0  0  0
   -9.4717   22.9234  -32.4662 H   0  0  0  0  0  0  0  0  0  0  0  0
   -9.5971   20.9605  -31.2403 H   0  0  0  0  0  0  0  0  0  0  0  0
   -9.8285   18.4803  -31.3314 H   0  0  0  0  0  0  0  0  0  0  0  0
   -8.0432   17.0952  -32.3857 H   0  0  0  0  0  0  0  0  0  0  0  0
   -6.0191   18.1850  -33.3504 H   0  0  0  0  0  0  0  0  0  0  0  0
   -4.6986   22.6037  -31.7663 H   0  0  0  0  0  0  0  0  0  0  0  0
   -1.5940   25.6730  -30.0330 H   0  0  0  0  0  0  0  0  0  0  0  0
   -0.8809   23.0428  -29.7869 H   0  0  0  0  0  0  0  0  0  0  0  0
   -0.0395   21.0117  -30.9516 H   0  0  0  0  0  0  0  0  0  0  0  0
    1.6785   19.0604  -32.8517 H   0  0  0  0  0  0  0  0  0  0  0  0
    3.3310   20.2828  -34.2665 H   0  0  0  0  0  0  0  0  0  0  0  0
    3.5408   22.6420  -35.5929 H   0  0  0  0  0  0  0  0  0  0  0  0
    3.3222   21.3817  -36.8541 H   0  0  0  0  0  0  0  0  0  0  0  0
    2.2775   22.8430  -36.8541 H   0  0  0  0  0  0  0  0  0  0  0  0
    0.0862   22.3362  -36.2735 H   0  0  0  0  0  0  0  0  0  0  0  0
   -1.5625   21.1115  -34.8562 H   0  0  0  0  0  0  0  0  0  0  0  0
  1  2  1  0
  2  3  1  0
  3  4  2  0
  4  5  1  0
  5  6  2  0
  6  7  1  0
  7  8  2  0
  8  9  1  0
  9 10  1  0
 10 11  2  0
 10 12  1  0
 12 13  2  0
 13 14  1  0
 14 15  1  0
 15 16  1  0
 15 17  2  0
 15 18  2  0
 14 19  2  0
 19 20  1  0
 20 21  2  0
 21 22  1  0
 22 23  1  0
 23 24  2  0
 24 25  1  0
 25 26  2  0
 26 27  1  0
 26 28  1  0
 28 29  2  0
  8  3  1  0
 21 12  1  0
 29 23  1  0
  1 30  1  0
  1 31  1  0
  1 32  1  0
  4 33  1  0
  5 34  1  0
  6 35  1  0
  7 36  1  0
 13 37  1  0
 16 38  1  0
 19 39  1  0
 20 40  1  0
 24 41  1  0
 25 42  1  0
 27 43  1  0
 27 44  1  0
 27 45  1  0
 28 46  1  0
 29 47  1  0
M  CHG  2   9  -1  16  -1
M  END
>  <UniqueID>  (46) 
44

>  <SMILES>  (46) 
COc1ccccc1[N-]C(=O)c1cc(S([NH-])(=O)=O)ccc1Sc1ccc(C)cc1

>  <Energy>  (46) 
50.89058343455382

>  <Genealogy>  (46) 
COc1ccccc1[N-]C(=O)c1cc(S([NH-])(=O)=O)ccc1Sc1ccc(C)cc1 (protonated)
COc1ccccc1[N-]C(=O)c1cc(S([NH-])(=O)=O)ccc1Sc1ccc(C)cc1 (3D coordinates assigned)
COc1ccccc1[N-]C(=O)c1cc(S([NH-])(=O)=O)ccc1Sc1ccc(C)cc1 (optimized conformer: 50.89058343455382 kcal/mol)

>  <smiles>  (46) 
COc1ccccc1NC(=O)c1cc(S(N)(=O)=O)ccc1Sc1ccc(C)cc1

>  <score_type>  (46) 
oracle

>  <origin>  (46) 
adgpu

>  <m_score__min__energy>  (46) 
-11.300000000000001

>  <m_primary>  (46) 
energy

$$$$
46:0
     RDKit          3D

 36 38  0  0  0  0  0  0  0  0999 V2000
   -4.4560   21.6220  -28.1020 H   0  0  0  0  0  0  0  0  0  0  0  0
   -3.7230   22.3540  -28.2290 N   0  0  0  0  0  0  0  0  0  0  0  0
   -3.9100   23.3940  -28.9800 C   0  0  0  0  0  0  0  0  0  0  0  0
   -5.0660   23.7000  -29.6710 C   0  0  0  0  0  0  0  0  0  0  0  0
   -6.5920   22.7520  -29.7460 S   0  0  0  0  0  0  0  0  0  0  0  0
   -6.0730   21.8330  -31.1990 C   0  0  0  0  0  0  0  0  0  0  0  0
   -7.0050   21.0760  -31.9180 C   0  0  0  0  0  0  0  0  0  0  0  0
   -8.0557   21.0456  -31.5938 H   0  0  0  0  0  0  0  0  0  0  0  0
   -6.6020   20.3590  -33.0470 C   0  0  0  0  0  0  0  0  0  0  0  0
   -7.3359   19.7629  -33.6092 H   0  0  0  0  0  0  0  0  0  0  0  0
   -5.2690   20.3970  -33.4640 C   0  0  0  0  0  0  0  0  0  0  0  0
   -4.9580   19.8258  -34.3511 H   0  0  0  0  0  0  0  0  0  0  0  0
   -4.3210   21.1610  -32.7570 C   0  0  0  0  0  0  0  0  0  0  0  0
   -2.9430   21.1940  -33.1740 N   0  0  0  0  0  0  0  0  0  0  0  0
   -2.5690   20.5610  -34.1850 O   0  0  0  0  0  0  0  0  0  0  0  0
   -2.0140   21.9160  -32.4600 O   0  0  0  0  0  0  0  0  0  0  0  0
   -4.7400   21.8850  -31.6250 C   0  0  0  0  0  0  0  0  0  0  0  0
   -4.0139   22.4971  -31.0700 H   0  0  0  0  0  0  0  0  0  0  0  0
   -4.7810   24.9090  -30.2840 C   0  0  0  0  0  0  0  0  0  0  0  0
   -5.6660   25.6800  -31.2100 C   0  0  0  0  0  0  0  0  0  0  0  0
   -6.3674   26.2910  -30.6229 H   0  0  0  0  0  0  0  0  0  0  0  0
   -5.0509   26.3353  -31.8442 H   0  0  0  0  0  0  0  0  0  0  0  0
   -6.2309   24.9809  -31.8442 H   0  0  0  0  0  0  0  0  0  0  0  0
   -3.5280   25.2970  -29.9660 N   0  0  0  0  0  0  0  0  0  0  0  0
   -2.9980   24.3720  -29.1760 N   0  0  0  0  0  0  0  0  0  0  0  0
   -1.6670   24.4700  -28.6340 C   0  0  0  0  0  0  0  0  0  0  0  0
   -0.7890   23.3760  -28.7350 C   0  0  0  0  0  0  0  0  0  0  0  0
   -1.1200   22.4539  -29.2352 H   0  0  0  0  0  0  0  0  0  0  0  0
    0.5010   23.4530  -28.2040 C   0  0  0  0  0  0  0  0  0  0  0  0
    1.1839   22.5954  -28.2941 H   0  0  0  0  0  0  0  0  0  0  0  0
    0.9250   24.6170  -27.5590 C   0  0  0  0  0  0  0  0  0  0  0  0
    1.9435   24.6782  -27.1479 H   0  0  0  0  0  0  0  0  0  0  0  0
    0.0560   25.7030  -27.4360 C   0  0  0  0  0  0  0  0  0  0  0  0
    0.3891   26.6171  -26.9227 H   0  0  0  0  0  0  0  0  0  0  0  0
   -1.2370   25.6310  -27.9640 C   0  0  0  0  0  0  0  0  0  0  0  0
   -1.9211   26.4855  -27.8553 H   0  0  0  0  0  0  0  0  0  0  0  0
  1  2  1  0
  2  3  2  0
  3  4  1  0
  4  5  1  0
  5  6  1  0
  6  7  2  0
  7  8  1  0
  7  9  1  0
  9 10  1  0
  9 11  2  0
 11 12  1  0
 11 13  1  0
 13 14  1  0
 14 15  2  0
 14 16  1  0
 13 17  2  0
 17 18  1  0
  4 19  2  0
 19 20  1  0
 20 21  1  0
 20 22  1  0
 20 23  1  0
 19 24  1  0
 24 25  1  0
 25 26  1  0
 26 27  2  0
 27 28  1  0
 27 29  1  0
 29 30  1  0
 29 31  2  0
 31 32  1  0
 31 33  1  0
 33 34  1  0
 33 35  2  0
 35 36  1  0
 25  3  1  0
 35 26  1  0
 17  6  1  0
M  CHG  3  14   1  16  -1  24  -1
M  END
>  <UniqueID>  (47) 
45

>  <SMILES>  (47) 
[H]/N=c1\c(Sc2cccc([N+](=O)[O-])c2)c(C)[n-]n1-c1ccccc1

>  <Energy>  (47) 
71.87067186560614

>  <Genealogy>  (47) 
Cc1[n-]n(-c2ccccc2)c(=N)c1Sc1cccc([N+](=O)[O-])c1 (protonated)
[H]/N=c1\c(Sc2cccc([N+](=O)[O-])c2)c(C)[n-]n1-c1ccccc1 (cis-trans isomerization)
[H]/N=c1\c(Sc2cccc([N+](=O)[O-])c2)c(C)[n-]n1-c1ccccc1 (3D coordinates assigned)
[H]/N=c1\c(Sc2cccc([N+](=O)[O-])c2)c(C)[n-]n1-c1ccccc1 (optimized conformer: 71.87067186560614 kcal/mol)

>  <smiles>  (47) 
Cc1[nH]n(-c2ccccc2)c(=N)c1Sc1cccc([N+](=O)[O-])c1

>  <score_type>  (47) 
oracle

>  <origin>  (47) 
adgpu

>  <m_score__min__energy>  (47) 
-8.5

>  <m_primary>  (47) 
energy

$$$$
