0:0
     RDKit          3D

 36 38  0  0  0  0  0  0  0  0999 V2000
   -1.8770   25.6530  -28.9080 O   0  0  0  0  0  0  0  0  0  0  0  0
   -2.3350   24.5430  -29.2840 C   0  0  0  0  0  0  0  0  0  0  0  0
   -3.1400   24.4940  -30.4700 N   0  0  0  0  0  0  0  0  0  0  0  0
   -4.5550   24.2640  -30.5170 C   0  0  0  0  0  0  0  0  0  0  0  0
   -5.4530   25.1670  -29.9210 C   0  0  0  0  0  0  0  0  0  0  0  0
   -6.8270   24.9100  -29.9330 C   0  0  0  0  0  0  0  0  0  0  0  0
   -7.3150   23.7430  -30.5230 C   0  0  0  0  0  0  0  0  0  0  0  0
   -6.4310   22.8280  -31.0980 C   0  0  0  0  0  0  0  0  0  0  0  0
   -5.0500   23.0780  -31.0980 C   0  0  0  0  0  0  0  0  0  0  0  0
   -4.1600   22.1320  -31.7150 N   0  0  0  0  0  0  0  0  0  0  0  0
   -2.8910   21.7770  -31.0690 C   0  0  0  0  0  0  0  0  0  0  0  0
   -1.7520   21.6250  -32.1020 C   0  0  0  0  0  0  0  0  0  0  0  0
   -2.2060   21.2920  -33.4660 N   0  0  0  0  0  0  0  0  0  0  0  0
   -3.4690   20.5450  -33.4700 C   0  0  0  0  0  0  0  0  0  0  0  0
   -4.5990   21.4180  -32.9170 C   0  0  0  0  0  0  0  0  0  0  0  0
   -2.0690   23.3440  -28.4690 C   0  0  0  0  0  0  0  0  0  0  0  0
   -0.8240   22.8210  -28.1360 C   0  0  0  0  0  0  0  0  0  0  0  0
   -0.9030   21.6490  -27.3730 C   0  0  0  0  0  0  0  0  0  0  0  0
   -2.2040   21.2370  -27.1130 C   0  0  0  0  0  0  0  0  0  0  0  0
   -3.2560   22.3290  -27.8370 S   0  0  0  0  0  0  0  0  0  0  0  0
   -5.0720   26.0812  -29.4424 H   0  0  0  0  0  0  0  0  0  0  0  0
   -7.5243   25.6282  -29.4770 H   0  0  0  0  0  0  0  0  0  0  0  0
   -8.3968   23.5440  -30.5350 H   0  0  0  0  0  0  0  0  0  0  0  0
   -6.8194   21.9053  -31.5539 H   0  0  0  0  0  0  0  0  0  0  0  0
   -2.6211   22.5674  -30.3532 H   0  0  0  0  0  0  0  0  0  0  0  0
   -3.0228   20.8126  -30.5566 H   0  0  0  0  0  0  0  0  0  0  0  0
   -1.1985   22.5746  -32.1459 H   0  0  0  0  0  0  0  0  0  0  0  0
   -1.1317   20.7821  -31.7633 H   0  0  0  0  0  0  0  0  0  0  0  0
   -2.3420   22.1820  -34.0030 H   0  0  0  0  0  0  0  0  0  0  0  0
   -3.7114   20.2459  -34.5004 H   0  0  0  0  0  0  0  0  0  0  0  0
   -3.3611   19.6523  -32.8365 H   0  0  0  0  0  0  0  0  0  0  0  0
   -4.8982   22.1492  -33.6824 H   0  0  0  0  0  0  0  0  0  0  0  0
   -5.4494   20.7717  -32.6541 H   0  0  0  0  0  0  0  0  0  0  0  0
    0.1272   23.2815  -28.4412 H   0  0  0  0  0  0  0  0  0  0  0  0
   -0.0171   21.1053  -27.0131 H   0  0  0  0  0  0  0  0  0  0  0  0
   -2.4953   20.3489  -26.5330 H   0  0  0  0  0  0  0  0  0  0  0  0
  1  2  2  0
  2  3  1  0
  3  4  1  0
  4  5  2  0
  5  6  1  0
  6  7  2  0
  7  8  1  0
  8  9  2  0
  9 10  1  0
 10 11  1  0
 11 12  1  0
 12 13  1  0
 13 14  1  0
 14 15  1  0
  2 16  1  0
 16 17  2  0
 17 18  1  0
 18 19  2  0
 19 20  1  0
  9  4  1  0
 15 10  1  0
 20 16  1  0
  5 21  1  0
  6 22  1  0
  7 23  1  0
  8 24  1  0
 11 25  1  0
 11 26  1  0
 12 27  1  0
 12 28  1  0
 13 29  1  0
 14 30  1  0
 14 31  1  0
 15 32  1  0
 15 33  1  0
 17 34  1  0
 18 35  1  0
 19 36  1  0
M  CHG  1   3  -1
M  END
>  <UniqueID>  (1) 
1

>  <SMILES>  (1) 
O=C([N-]c1ccccc1N1CCNCC1)c1cccs1

>  <Energy>  (1) 
77.30191493025475

>  <Genealogy>  (1) 
O=C([N-]c1ccccc1N1CCNCC1)c1cccs1 (protonated)
O=C([N-]c1ccccc1N1CCNCC1)c1cccs1 (3D coordinates assigned)
O=C([N-]c1ccccc1N1CCNCC1)c1cccs1 (nonaromatic ring conformer: 77.30191493025475 kcal/mol)

>  <smiles>  (1) 
O=C(Nc1ccccc1N1CCNCC1)c1cccs1

>  <score_type>  (1) 
oracle

>  <origin>  (1) 
adgpu

>  <m_score__min__energy>  (1) 
-8.3200000000000003

>  <m_primary>  (1) 
energy

$$$$
1:0
     RDKit          3D

 39 41  0  0  0  0  0  0  0  0999 V2000
    1.0110   21.7820  -27.5080 O   0  0  0  0  0  0  0  0  0  0  0  0
   -0.0690   21.2150  -27.8230 C   0  0  0  0  0  0  0  0  0  0  0  0
   -0.0840   19.8330  -27.9790 O   0  0  0  0  0  0  0  0  0  0  0  0
   -1.3020   22.0060  -28.0260 C   0  0  0  0  0  0  0  0  0  0  0  0
   -2.5580   21.4790  -27.6770 C   0  0  0  0  0  0  0  0  0  0  0  0
   -3.7200   22.2290  -27.8690 C   0  0  0  0  0  0  0  0  0  0  0  0
   -3.6550   23.5270  -28.4090 C   0  0  0  0  0  0  0  0  0  0  0  0
   -4.8380   24.3220  -28.6100 N   0  0  0  0  0  0  0  0  0  0  0  0
   -5.3680   24.8950  -30.1610 S   0  0  0  0  0  0  0  0  0  0  0  0
   -6.4880   25.8780  -29.9700 O   0  0  0  0  0  0  0  0  0  0  0  0
   -4.2220   25.5870  -30.8470 O   0  0  0  0  0  0  0  0  0  0  0  0
   -5.9560   23.5500  -31.1340 C   0  0  0  0  0  0  0  0  0  0  0  0
   -5.0670   22.7470  -31.8560 C   0  0  0  0  0  0  0  0  0  0  0  0
   -5.5340   21.7050  -32.5940 N   0  0  0  0  0  0  0  0  0  0  0  0
   -6.8610   21.4100  -32.6700 C   0  0  0  0  0  0  0  0  0  0  0  0
   -7.2620   20.3110  -33.4410 O   0  0  0  0  0  0  0  0  0  0  0  0
   -6.7230   19.0190  -33.3460 C   0  0  0  0  0  0  0  0  0  0  0  0
   -6.7660   18.3610  -32.1110 C   0  0  0  0  0  0  0  0  0  0  0  0
   -6.2260   17.0780  -31.9730 C   0  0  0  0  0  0  0  0  0  0  0  0
   -5.6290   16.4480  -33.0690 C   0  0  0  0  0  0  0  0  0  0  0  0
   -5.1040   15.2050  -32.9340 F   0  0  0  0  0  0  0  0  0  0  0  0
   -5.5640   17.1040  -34.3020 C   0  0  0  0  0  0  0  0  0  0  0  0
   -6.1030   18.3860  -34.4420 C   0  0  0  0  0  0  0  0  0  0  0  0
   -7.7830   22.1830  -31.9420 C   0  0  0  0  0  0  0  0  0  0  0  0
   -9.1030   21.8710  -31.9270 F   0  0  0  0  0  0  0  0  0  0  0  0
   -7.3230   23.2600  -31.1810 C   0  0  0  0  0  0  0  0  0  0  0  0
   -2.3990   24.0500  -28.7660 C   0  0  0  0  0  0  0  0  0  0  0  0
   -2.2970   25.2960  -29.2910 F   0  0  0  0  0  0  0  0  0  0  0  0
   -1.2360   23.2970  -28.5730 C   0  0  0  0  0  0  0  0  0  0  0  0
   -2.6257   20.4678  -27.2493 H   0  0  0  0  0  0  0  0  0  0  0  0
   -4.6958   21.8011  -27.5955 H   0  0  0  0  0  0  0  0  0  0  0  0
   -5.4720   24.5100  -27.8020 H   0  0  0  0  0  0  0  0  0  0  0  0
   -3.9880   22.9589  -31.8267 H   0  0  0  0  0  0  0  0  0  0  0  0
   -7.2273   18.8560  -31.2437 H   0  0  0  0  0  0  0  0  0  0  0  0
   -6.2711   16.5644  -31.0013 H   0  0  0  0  0  0  0  0  0  0  0  0
   -5.0883   16.6108  -35.1625 H   0  0  0  0  0  0  0  0  0  0  0  0
   -6.0431   18.9028  -35.4112 H   0  0  0  0  0  0  0  0  0  0  0  0
   -8.0363   23.8803  -30.6185 H   0  0  0  0  0  0  0  0  0  0  0  0
   -0.2602   23.7208  -28.8526 H   0  0  0  0  0  0  0  0  0  0  0  0
  1  2  2  0
  2  3  1  0
  2  4  1  0
  4  5  2  0
  5  6  1  0
  6  7  2  0
  7  8  1  0
  8  9  1  0
  9 10  2  0
  9 11  2  0
  9 12  1  0
 12 13  2  0
 13 14  1  0
 14 15  2  0
 15 16  1  0
 16 17  1  0
 17 18  2  0
 18 19  1  0
 19 20  2  0
 20 21  1  0
 20 22  1  0
 22 23  2  0
 15 24  1  0
 24 25  1  0
 24 26  2  0
  7 27  1  0
 27 28  1  0
 27 29  2  0
 29  4  1  0
 26 12  1  0
 23 17  1  0
  5 30  1  0
  6 31  1  0
  8 32  1  0
 13 33  1  0
 18 34  1  0
 19 35  1  0
 22 36  1  0
 23 37  1  0
 26 38  1  0
 29 39  1  0
M  CHG  1   3  -1
M  END
>  <UniqueID>  (2) 
2

>  <SMILES>  (2) 
O=C([O-])c1ccc(NS(=O)(=O)c2cnc(Oc3ccc(F)cc3)c(F)c2)c(F)c1

>  <Energy>  (2) 
54.342847496440086

>  <Genealogy>  (2) 
O=C([O-])c1ccc(NS(=O)(=O)c2cnc(Oc3ccc(F)cc3)c(F)c2)c(F)c1 (protonated)
O=C([O-])c1ccc(NS(=O)(=O)c2cnc(Oc3ccc(F)cc3)c(F)c2)c(F)c1 (3D coordinates assigned)
O=C([O-])c1ccc(NS(=O)(=O)c2cnc(Oc3ccc(F)cc3)c(F)c2)c(F)c1 (optimized conformer: 54.342847496440086 kcal/mol)

>  <smiles>  (2) 
O=C(O)c1ccc(NS(=O)(=O)c2cnc(Oc3ccc(F)cc3)c(F)c2)c(F)c1

>  <score_type>  (2) 
oracle

>  <origin>  (2) 
adgpu

>  <m_score__min__energy>  (2) 
-10.1

>  <m_primary>  (2) 
energy

$$$$
2:0
     RDKit          3D

 54 57  0  0  0  0  0  0  0  0999 V2000
   -2.7840   16.3680  -35.5450 H   0  0  0  0  0  0  0  0  0  0  0  0
   -3.7670   16.2130  -35.2380 N   0  0  0  0  0  0  0  0  0  0  0  0
   -4.4350   17.0530  -34.5110 C   0  0  0  0  0  0  0  0  0  0  0  0
   -5.7400   16.8370  -34.1930 N   0  0  0  0  0  0  0  0  0  0  0  0
   -6.0730   17.9630  -33.5400 C   0  0  0  0  0  0  0  0  0  0  0  0
   -7.3060   18.3220  -33.0140 C   0  0  0  0  0  0  0  0  0  0  0  0
   -8.1666   17.6383  -33.0591 H   0  0  0  0  0  0  0  0  0  0  0  0
   -7.4140   19.5930  -32.4210 C   0  0  0  0  0  0  0  0  0  0  0  0
   -8.3686   19.9144  -31.9789 H   0  0  0  0  0  0  0  0  0  0  0  0
   -6.2870   20.4640  -32.3930 C   0  0  0  0  0  0  0  0  0  0  0  0
   -6.3560   21.8050  -31.7650 C   0  0  0  0  0  0  0  0  0  0  0  0
   -7.5750   22.4980  -31.6450 C   0  0  0  0  0  0  0  0  0  0  0  0
   -8.5030   22.0401  -32.0181 H   0  0  0  0  0  0  0  0  0  0  0  0
   -7.6140   23.7640  -31.0550 C   0  0  0  0  0  0  0  0  0  0  0  0
   -8.5734   24.2929  -30.9560 H   0  0  0  0  0  0  0  0  0  0  0  0
   -6.4410   24.3600  -30.5910 C   0  0  0  0  0  0  0  0  0  0  0  0
   -6.4801   25.3519  -30.1171 H   0  0  0  0  0  0  0  0  0  0  0  0
   -5.2120   23.6980  -30.7270 C   0  0  0  0  0  0  0  0  0  0  0  0
   -3.9670   24.3140  -30.2290 C   0  0  0  0  0  0  0  0  0  0  0  0
   -3.5140   25.3340  -30.8110 O   0  0  0  0  0  0  0  0  0  0  0  0
   -3.2640   23.8000  -29.0890 N   0  0  0  0  0  0  0  0  0  0  0  0
   -2.9480   24.5450  -27.8730 C   0  0  0  0  0  0  0  0  0  0  0  0
   -3.7036   25.3310  -27.7269 H   0  0  0  0  0  0  0  0  0  0  0  0
   -2.9487   23.8447  -27.0247 H   0  0  0  0  0  0  0  0  0  0  0  0
   -1.5670   25.1920  -27.9660 C   0  0  0  0  0  0  0  0  0  0  0  0
   -1.4996   26.0141  -27.2383 H   0  0  0  0  0  0  0  0  0  0  0  0
   -0.7978   24.4370  -27.7463 H   0  0  0  0  0  0  0  0  0  0  0  0
   -1.3630   25.6960  -29.2560 O   0  0  0  0  0  0  0  0  0  0  0  0
   -2.2400   25.6340  -29.7170 H   0  0  0  0  0  0  0  0  0  0  0  0
   -5.1770   22.4180  -31.2990 C   0  0  0  0  0  0  0  0  0  0  0  0
   -4.2176   21.8868  -31.3846 H   0  0  0  0  0  0  0  0  0  0  0  0
   -5.1000   20.0450  -32.9340 N   0  0  0  0  0  0  0  0  0  0  0  0
   -5.0120   18.8060  -33.4770 C   0  0  0  0  0  0  0  0  0  0  0  0
   -3.9410   18.2460  -34.0620 N   0  0  0  0  0  0  0  0  0  0  0  0
   -2.6060   18.8420  -34.2260 C   0  0  0  0  0  0  0  0  0  0  0  0
   -1.8557   18.1121  -33.8880 H   0  0  0  0  0  0  0  0  0  0  0  0
   -2.4948   19.0947  -35.2908 H   0  0  0  0  0  0  0  0  0  0  0  0
   -2.4080   20.1560  -33.4240 C   0  0  0  0  0  0  0  0  0  0  0  0
   -3.3096   20.7539  -33.6229 H   0  0  0  0  0  0  0  0  0  0  0  0
   -1.2210   21.0260  -33.9280 C   0  0  0  0  0  0  0  0  0  0  0  0
   -0.9238   20.6744  -34.9270 H   0  0  0  0  0  0  0  0  0  0  0  0
   -1.5582   22.0727  -33.9546 H   0  0  0  0  0  0  0  0  0  0  0  0
   -0.0060   20.9480  -32.9960 C   0  0  0  0  0  0  0  0  0  0  0  0
    0.3359   19.9039  -32.9408 H   0  0  0  0  0  0  0  0  0  0  0  0
    0.7834   21.5972  -33.4026 H   0  0  0  0  0  0  0  0  0  0  0  0
   -0.3520   21.4380  -31.5750 C   0  0  0  0  0  0  0  0  0  0  0  0
    0.3194   20.9385  -30.8611 H   0  0  0  0  0  0  0  0  0  0  0  0
   -0.2271   22.5309  -31.5697 H   0  0  0  0  0  0  0  0  0  0  0  0
   -1.8100   21.1450  -31.1620 C   0  0  0  0  0  0  0  0  0  0  0  0
   -1.8452   20.9620  -30.0779 H   0  0  0  0  0  0  0  0  0  0  0  0
   -2.4278   22.0145  -31.4309 H   0  0  0  0  0  0  0  0  0  0  0  0
   -2.3610   19.9170  -31.8930 C   0  0  0  0  0  0  0  0  0  0  0  0
   -1.7131   19.0531  -31.6836 H   0  0  0  0  0  0  0  0  0  0  0  0
   -3.3842   19.7270  -31.5366 H   0  0  0  0  0  0  0  0  0  0  0  0
  1  2  1  0
  2  3  2  0
  3  4  1  0
  4  5  1  0
  5  6  2  0
  6  7  1  0
  6  8  1  0
  8  9  1  0
  8 10  2  0
 10 11  1  0
 11 12  2  0
 12 13  1  0
 12 14  1  0
 14 15  1  0
 14 16  2  0
 16 17  1  0
 16 18  1  0
 18 19  1  0
 19 20  2  0
 19 21  1  0
 21 22  1  0
 22 23  1  0
 22 24  1  0
 22 25  1  0
 25 26  1  0
 25 27  1  0
 25 28  1  0
 28 29  1  0
 18 30  2  0
 30 31  1  0
 10 32  1  0
 32 33  2  0
 33 34  1  0
 34 35  1  0
 35 36  1  0
 35 37  1  0
 35 38  1  0
 38 39  1  0
 38 40  1  0
 40 41  1  0
 40 42  1  0
 40 43  1  0
 43 44  1  0
 43 45  1  0
 43 46  1  0
 46 47  1  0
 46 48  1  0
 46 49  1  0
 49 50  1  0
 49 51  1  0
 49 52  1  0
 52 53  1  0
 52 54  1  0
 34  3  1  0
 52 38  1  0
 33  5  1  0
 30 11  1  0
M  CHG  2   4  -1  21  -1
M  END
>  <UniqueID>  (3) 
3

>  <SMILES>  (3) 
[H]/N=c1/[n-]c2ccc(-c3cccc(C(=O)[N-]CCO)c3)nc2n1CC1CCCCC1

>  <Energy>  (3) 
104.8530745372005

>  <Genealogy>  (3) 
N=c1[n-]c2ccc(-c3cccc(C(=O)[N-]CCO)c3)nc2n1CC1CCCCC1 (protonated)
[H]/N=c1/[n-]c2ccc(-c3cccc(C(=O)[N-]CCO)c3)nc2n1CC1CCCCC1 (cis-trans isomerization)
[H]/N=c1/[n-]c2ccc(-c3cccc(C(=O)[N-]CCO)c3)nc2n1CC1CCCCC1 (3D coordinates assigned)
[H]/N=c1/[n-]c2ccc(-c3cccc(C(=O)[N-]CCO)c3)nc2n1CC1CCCCC1 (nonaromatic ring conformer: 104.8530745372005 kcal/mol)

>  <smiles>  (3) 
N=c1[nH]c2ccc(-c3cccc(C(=O)NCCO)c3)nc2n1CC1CCCCC1

>  <score_type>  (3) 
oracle

>  <origin>  (3) 
adgpu

>  <m_score__min__energy>  (3) 
-11.23

>  <m_primary>  (3) 
energy

$$$$
3:0
     RDKit          3D

 40 42  0  0  0  0  0  0  0  0999 V2000
   -3.2090   21.8410  -33.9670 H   0  0  0  0  0  0  0  0  0  0  0  0
   -4.1180   21.9650  -33.4700 N   0  0  0  0  0  0  0  0  0  0  0  0
   -4.9080   20.9780  -33.1800 C   0  0  0  0  0  0  0  0  0  0  0  0
   -6.0990   21.1510  -32.5490 N   0  0  0  0  0  0  0  0  0  0  0  0
   -6.6540   22.3980  -32.0140 C   0  0  0  0  0  0  0  0  0  0  0  0
   -7.0544   23.0028  -32.8410 H   0  0  0  0  0  0  0  0  0  0  0  0
   -7.4585   22.1592  -31.3028 H   0  0  0  0  0  0  0  0  0  0  0  0
   -5.5800   23.1760  -31.3020 C   0  0  0  0  0  0  0  0  0  0  0  0
   -4.5420   22.5050  -30.6370 C   0  0  0  0  0  0  0  0  0  0  0  0
   -4.4956   21.4063  -30.6629 H   0  0  0  0  0  0  0  0  0  0  0  0
   -3.5670   23.2260  -29.9420 C   0  0  0  0  0  0  0  0  0  0  0  0
   -2.7548   22.6901  -29.4291 H   0  0  0  0  0  0  0  0  0  0  0  0
   -3.6150   24.6230  -29.8930 C   0  0  0  0  0  0  0  0  0  0  0  0
   -2.6130   25.3000  -29.1820 O   0  0  0  0  0  0  0  0  0  0  0  0
   -2.1250   24.9010  -27.9040 C   0  0  0  0  0  0  0  0  0  0  0  0
   -2.7195   25.3871  -27.1164 H   0  0  0  0  0  0  0  0  0  0  0  0
   -2.2079   23.8086  -27.8045 H   0  0  0  0  0  0  0  0  0  0  0  0
   -1.0709   25.1993  -27.8045 H   0  0  0  0  0  0  0  0  0  0  0  0
   -4.6600   25.2980  -30.5530 C   0  0  0  0  0  0  0  0  0  0  0  0
   -4.7090   26.3964  -30.5211 H   0  0  0  0  0  0  0  0  0  0  0  0
   -5.6360   24.5770  -31.2490 C   0  0  0  0  0  0  0  0  0  0  0  0
   -6.4519   25.1114  -31.7576 H   0  0  0  0  0  0  0  0  0  0  0  0
   -6.6120   19.9050  -32.4630 C   0  0  0  0  0  0  0  0  0  0  0  0
   -7.8310   19.4930  -31.9190 C   0  0  0  0  0  0  0  0  0  0  0  0
   -8.5218   20.2152  -31.4594 H   0  0  0  0  0  0  0  0  0  0  0  0
   -8.1450   18.1230  -31.9790 C   0  0  0  0  0  0  0  0  0  0  0  0
   -9.0935   17.7617  -31.5549 H   0  0  0  0  0  0  0  0  0  0  0  0
   -7.2530   17.2080  -32.5790 C   0  0  0  0  0  0  0  0  0  0  0  0
   -7.5132   16.1400  -32.6211 H   0  0  0  0  0  0  0  0  0  0  0  0
   -6.0350   17.6510  -33.1230 C   0  0  0  0  0  0  0  0  0  0  0  0
   -5.3352   16.9470  -33.5969 H   0  0  0  0  0  0  0  0  0  0  0  0
   -5.7420   19.0160  -33.0420 C   0  0  0  0  0  0  0  0  0  0  0  0
   -4.6520   19.6760  -33.4870 N   0  0  0  0  0  0  0  0  0  0  0  0
   -3.5060   19.1190  -34.2140 C   0  0  0  0  0  0  0  0  0  0  0  0
   -3.6458   18.0348  -34.3360 H   0  0  0  0  0  0  0  0  0  0  0  0
   -3.4375   19.6032  -35.1993 H   0  0  0  0  0  0  0  0  0  0  0  0
   -2.2170   19.3760  -33.4450 C   0  0  0  0  0  0  0  0  0  0  0  0
   -2.4202   19.3355  -32.3647 H   0  0  0  0  0  0  0  0  0  0  0  0
   -1.4742   18.6083  -33.7074 H   0  0  0  0  0  0  0  0  0  0  0  0
   -1.8254   20.3699  -33.7074 H   0  0  0  0  0  0  0  0  0  0  0  0
  1  2  1  0
  2  3  2  0
  3  4  1  0
  4  5  1  0
  5  6  1  0
  5  7  1  0
  5  8  1  0
  8  9  2  0
  9 10  1  0
  9 11  1  0
 11 12  1  0
 11 13  2  0
 13 14  1  0
 14 15  1  0
 15 16  1  0
 15 17  1  0
 15 18  1  0
 13 19  1  0
 19 20  1  0
 19 21  2  0
 21 22  1  0
  4 23  1  0
 23 24  2  0
 24 25  1  0
 24 26  1  0
 26 27  1  0
 26 28  2  0
 28 29  1  0
 28 30  1  0
 30 31  1  0
 30 32  2  0
 32 33  1  0
 33 34  1  0
 34 35  1  0
 34 36  1  0
 34 37  1  0
 37 38  1  0
 37 39  1  0
 37 40  1  0
 33  3  1  0
 21  8  1  0
 32 23  1  0
M  END
>  <UniqueID>  (4) 
4

>  <SMILES>  (4) 
[H]/N=c1\n(CC)c2ccccc2n1Cc1ccc(OC)cc1

>  <Energy>  (4) 
78.8322784682132

>  <Genealogy>  (4) 
[H]/N=c1\n(CC)c2ccccc2n1Cc1ccc(OC)cc1 (cis-trans isomerization)
[H]/N=c1\n(CC)c2ccccc2n1Cc1ccc(OC)cc1 (3D coordinates assigned)
[H]/N=c1\n(CC)c2ccccc2n1Cc1ccc(OC)cc1 (optimized conformer: 78.8322784682132 kcal/mol)

>  <smiles>  (4) 
CCn1c(=N)n(Cc2ccc(OC)cc2)c2ccccc21

>  <score_type>  (4) 
oracle

>  <origin>  (4) 
adgpu

>  <m_score__min__energy>  (4) 
-7.7300000000000004

>  <m_primary>  (4) 
energy

$$$$
4:0
     RDKit          3D

 45 47  0  0  0  0  0  0  0  0999 V2000
   -9.1840   18.5160  -31.9730 C   0  0  0  0  0  0  0  0  0  0  0  0
   -8.3230   19.7450  -32.0500 C   0  0  0  0  0  0  0  0  0  0  0  0
   -8.8060   20.9820  -31.6100 C   0  0  0  0  0  0  0  0  0  0  0  0
   -7.9930   22.1170  -31.6590 C   0  0  0  0  0  0  0  0  0  0  0  0
   -6.6730   22.0400  -32.1450 C   0  0  0  0  0  0  0  0  0  0  0  0
   -5.8380   23.2180  -32.1990 N   0  0  0  0  0  0  0  0  0  0  0  0
   -5.0380   23.9020  -30.8160 S   0  0  0  0  0  0  0  0  0  0  0  0
   -4.5540   25.2840  -31.1620 O   0  0  0  0  0  0  0  0  0  0  0  0
   -6.0130   23.9960  -29.6750 O   0  0  0  0  0  0  0  0  0  0  0  0
   -3.6940   22.8750  -30.3220 C   0  0  0  0  0  0  0  0  0  0  0  0
   -2.6670   22.5840  -31.2280 C   0  0  0  0  0  0  0  0  0  0  0  0
   -1.6000   21.7660  -30.8470 C   0  0  0  0  0  0  0  0  0  0  0  0
   -1.5460   21.2320  -29.5410 C   0  0  0  0  0  0  0  0  0  0  0  0
   -0.4910   20.3610  -29.1000 N   0  0  0  0  0  0  0  0  0  0  0  0
   -0.6290   19.2620  -28.4210 C   0  0  0  0  0  0  0  0  0  0  0  0
    0.5580   18.5030  -28.0180 C   0  0  0  0  0  0  0  0  0  0  0  0
    0.5600   17.1960  -27.5650 C   0  0  0  0  0  0  0  0  0  0  0  0
    1.8790   16.8940  -27.2930 C   0  0  0  0  0  0  0  0  0  0  0  0
    2.5870   18.0400  -27.5990 C   0  0  0  0  0  0  0  0  0  0  0  0
    4.0020   18.2040  -27.4750 N   0  0  0  0  0  0  0  0  0  0  0  0
    4.7750   17.2590  -27.7340 O   0  0  0  0  0  0  0  0  0  0  0  0
    4.5180   19.4110  -27.0660 O   0  0  0  0  0  0  0  0  0  0  0  0
    1.7810   18.9830  -28.0290 O   0  0  0  0  0  0  0  0  0  0  0  0
   -2.5850   21.5170  -28.6460 C   0  0  0  0  0  0  0  0  0  0  0  0
   -3.6520   22.3340  -29.0300 C   0  0  0  0  0  0  0  0  0  0  0  0
   -6.1750   20.7800  -32.5700 C   0  0  0  0  0  0  0  0  0  0  0  0
   -4.7690   20.6260  -33.0890 C   0  0  0  0  0  0  0  0  0  0  0  0
   -7.0040   19.6450  -32.5120 C   0  0  0  0  0  0  0  0  0  0  0  0
   -9.3636   18.2596  -30.9185 H   0  0  0  0  0  0  0  0  0  0  0  0
  -10.1449   18.7097  -32.4721 H   0  0  0  0  0  0  0  0  0  0  0  0
   -8.6738   17.6790  -32.4721 H   0  0  0  0  0  0  0  0  0  0  0  0
   -9.8326   21.0615  -31.2229 H   0  0  0  0  0  0  0  0  0  0  0  0
   -8.3887   23.0835  -31.3136 H   0  0  0  0  0  0  0  0  0  0  0  0
   -5.7330   23.7510  -33.0900 H   0  0  0  0  0  0  0  0  0  0  0  0
   -2.7002   23.0015  -32.2451 H   0  0  0  0  0  0  0  0  0  0  0  0
   -0.7999   21.5375  -31.5665 H   0  0  0  0  0  0  0  0  0  0  0  0
   -1.6327   18.9027  -28.1497 H   0  0  0  0  0  0  0  0  0  0  0  0
   -0.3103   16.5338  -27.4461 H   0  0  0  0  0  0  0  0  0  0  0  0
    2.2809   15.9431  -26.9133 H   0  0  0  0  0  0  0  0  0  0  0  0
   -2.5610   21.0937  -27.6310 H   0  0  0  0  0  0  0  0  0  0  0  0
   -4.4603   22.5527  -28.3167 H   0  0  0  0  0  0  0  0  0  0  0  0
   -4.0717   20.5496  -32.2417 H   0  0  0  0  0  0  0  0  0  0  0  0
   -4.7022   19.7152  -33.7021 H   0  0  0  0  0  0  0  0  0  0  0  0
   -4.5066   21.5008  -33.7021 H   0  0  0  0  0  0  0  0  0  0  0  0
   -6.6125   18.6684  -32.8328 H   0  0  0  0  0  0  0  0  0  0  0  0
  1  2  1  0
  2  3  2  0
  3  4  1  0
  4  5  2  0
  5  6  1  0
  6  7  1  0
  7  8  2  0
  7  9  2  0
  7 10  1  0
 10 11  2  0
 11 12  1  0
 12 13  2  0
 13 14  1  0
 14 15  2  3
 15 16  1  0
 16 17  2  0
 17 18  1  0
 18 19  2  0
 19 20  1  0
 20 21  2  0
 20 22  1  0
 19 23  1  0
 13 24  1  0
 24 25  2  0
  5 26  1  0
 26 27  1  0
 26 28  2  0
 28  2  1  0
 25 10  1  0
 23 16  1  0
  1 29  1  0
  1 30  1  0
  1 31  1  0
  3 32  1  0
  4 33  1  0
  6 34  1  0
 11 35  1  0
 12 36  1  0
 15 37  1  0
 17 38  1  0
 18 39  1  0
 24 40  1  0
 25 41  1  0
 27 42  1  0
 27 43  1  0
 27 44  1  0
 28 45  1  0
M  CHG  2  20   1  22  -1
M  END
>  <UniqueID>  (5) 
5

>  <SMILES>  (5) 
Cc1ccc(NS(=O)(=O)c2ccc(N=Cc3ccc([N+](=O)[O-])o3)cc2)c(C)c1

>  <Energy>  (5) 
77.57424026645043

>  <Genealogy>  (5) 
Cc1ccc(NS(=O)(=O)c2ccc(N=Cc3ccc([N+](=O)[O-])o3)cc2)c(C)c1 (3D coordinates assigned)
Cc1ccc(NS(=O)(=O)c2ccc(N=Cc3ccc([N+](=O)[O-])o3)cc2)c(C)c1 (optimized conformer: 77.57424026645043 kcal/mol)

>  <smiles>  (5) 
Cc1ccc(NS(=O)(=O)c2ccc(N=Cc3ccc([N+](=O)[O-])o3)cc2)c(C)c1

>  <score_type>  (5) 
oracle

>  <origin>  (5) 
adgpu

>  <m_score__min__energy>  (5) 
-8.7300000000000004

>  <m_primary>  (5) 
energy

$$$$
5:0
     RDKit          3D

 31 32  0  0  0  0  0  0  0  0999 V2000
   -6.5060   25.6770  -29.3450 C   0  0  0  0  0  0  0  0  0  0  0  0
   -5.5890   24.6730  -29.9790 C   0  0  0  0  0  0  0  0  0  0  0  0
   -4.3060   24.4600  -29.4540 C   0  0  0  0  0  0  0  0  0  0  0  0
   -3.4580   23.4970  -30.0200 C   0  0  0  0  0  0  0  0  0  0  0  0
   -2.1050   23.2420  -29.4260 C   0  0  0  0  0  0  0  0  0  0  0  0
   -3.9150   22.7180  -31.0930 C   0  0  0  0  0  0  0  0  0  0  0  0
   -5.1980   22.9250  -31.6310 C   0  0  0  0  0  0  0  0  0  0  0  0
   -5.6900   22.1210  -32.7170 N   0  0  0  0  0  0  0  0  0  0  0  0
   -6.6440   21.0530  -32.5640 C   0  0  0  0  0  0  0  0  0  0  0  0
   -7.9120   21.3130  -32.0130 C   0  0  0  0  0  0  0  0  0  0  0  0
   -8.8320   20.2790  -31.8340 C   0  0  0  0  0  0  0  0  0  0  0  0
   -8.4950   18.9720  -32.1880 C   0  0  0  0  0  0  0  0  0  0  0  0
   -7.2330   18.6890  -32.7200 C   0  0  0  0  0  0  0  0  0  0  0  0
   -6.8550   17.0220  -33.1460 Cl  0  0  0  0  0  0  0  0  0  0  0  0
   -6.2980   19.7270  -32.9060 C   0  0  0  0  0  0  0  0  0  0  0  0
   -5.0010   19.4360  -33.4700 C   0  0  0  0  0  0  0  0  0  0  0  0
   -3.9610   19.2030  -33.9220 N   0  0  0  0  0  0  0  0  0  0  0  0
   -6.0360   23.8890  -31.0530 C   0  0  0  0  0  0  0  0  0  0  0  0
   -6.4346   25.5988  -28.2501 H   0  0  0  0  0  0  0  0  0  0  0  0
   -6.2147   26.6899  -29.6600 H   0  0  0  0  0  0  0  0  0  0  0  0
   -7.5411   25.4785  -29.6600 H   0  0  0  0  0  0  0  0  0  0  0  0
   -3.9627   25.0520  -28.5928 H   0  0  0  0  0  0  0  0  0  0  0  0
   -2.1779   23.2557  -28.3285 H   0  0  0  0  0  0  0  0  0  0  0  0
   -1.7386   22.2590  -29.7569 H   0  0  0  0  0  0  0  0  0  0  0  0
   -1.4059   24.0242  -29.7569 H   0  0  0  0  0  0  0  0  0  0  0  0
   -3.2648   21.9388  -31.5173 H   0  0  0  0  0  0  0  0  0  0  0  0
   -5.3140   22.3100  -33.6740 H   0  0  0  0  0  0  0  0  0  0  0  0
   -8.1804   22.3390  -31.7211 H   0  0  0  0  0  0  0  0  0  0  0  0
   -9.8250   20.4948  -31.4129 H   0  0  0  0  0  0  0  0  0  0  0  0
   -9.2249   18.1610  -32.0480 H   0  0  0  0  0  0  0  0  0  0  0  0
   -7.0536   24.0319  -31.4454 H   0  0  0  0  0  0  0  0  0  0  0  0
  1  2  1  0
  2  3  2  0
  3  4  1  0
  4  5  1  0
  4  6  2  0
  6  7  1  0
  7  8  1  0
  8  9  1  0
  9 10  2  0
 10 11  1  0
 11 12  2  0
 12 13  1  0
 13 14  1  0
 13 15  2  0
 15 16  1  0
 16 17  3  0
  7 18  2  0
 18  2  1  0
 15  9  1  0
  1 19  1  0
  1 20  1  0
  1 21  1  0
  3 22  1  0
  5 23  1  0
  5 24  1  0
  5 25  1  0
  6 26  1  0
  8 27  1  0
 10 28  1  0
 11 29  1  0
 12 30  1  0
 18 31  1  0
M  END
>  <UniqueID>  (6) 
6

>  <SMILES>  (6) 
Cc1cc(C)cc(Nc2cccc(Cl)c2C#N)c1

>  <Energy>  (6) 
36.506723523157454

>  <Genealogy>  (6) 
Cc1cc(C)cc(Nc2cccc(Cl)c2C#N)c1 (3D coordinates assigned)
Cc1cc(C)cc(Nc2cccc(Cl)c2C#N)c1 (optimized conformer: 36.506723523157454 kcal/mol)

>  <smiles>  (6) 
Cc1cc(C)cc(Nc2cccc(Cl)c2C#N)c1

>  <score_type>  (6) 
oracle

>  <origin>  (6) 
adgpu

>  <m_score__min__energy>  (6) 
-7.9100000000000001

>  <m_primary>  (6) 
energy

$$$$
6:0
     RDKit          3D

 39 41  0  0  0  0  0  0  0  0999 V2000
   -4.0200   25.2280  -30.7410 O   0  0  0  0  0  0  0  0  0  0  0  0
   -5.2100   24.5940  -30.0790 S   0  0  0  0  0  0  0  0  0  0  0  0
   -6.2670   25.6430  -29.8640 O   0  0  0  0  0  0  0  0  0  0  0  0
   -4.7350   23.9410  -28.5430 N   0  0  0  0  0  0  0  0  0  0  0  0
   -3.4710   24.2390  -27.9200 C   0  0  0  0  0  0  0  0  0  0  0  0
   -3.4170   24.9510  -26.7060 C   0  0  0  0  0  0  0  0  0  0  0  0
   -2.1900   25.2340  -26.1030 C   0  0  0  0  0  0  0  0  0  0  0  0
   -1.0010   24.8190  -26.7040 C   0  0  0  0  0  0  0  0  0  0  0  0
   -1.0370   24.1210  -27.9120 C   0  0  0  0  0  0  0  0  0  0  0  0
   -2.2610   23.8300  -28.5250 C   0  0  0  0  0  0  0  0  0  0  0  0
   -2.2420   22.9180  -30.0300 Cl  0  0  0  0  0  0  0  0  0  0  0  0
   -5.8100   23.3030  -31.1150 C   0  0  0  0  0  0  0  0  0  0  0  0
   -4.9140   22.5830  -31.9160 C   0  0  0  0  0  0  0  0  0  0  0  0
   -5.3730   21.5380  -32.7210 C   0  0  0  0  0  0  0  0  0  0  0  0
   -6.7310   21.1880  -32.7240 C   0  0  0  0  0  0  0  0  0  0  0  0
   -7.1850   20.1200  -33.5730 N   0  0  0  0  0  0  0  0  0  0  0  0
   -6.5710   18.8210  -33.6410 C   0  0  0  0  0  0  0  0  0  0  0  0
   -6.7450   17.8760  -32.6110 C   0  0  0  0  0  0  0  0  0  0  0  0
   -6.1150   16.6300  -32.6860 C   0  0  0  0  0  0  0  0  0  0  0  0
   -5.2990   16.3210  -33.7770 C   0  0  0  0  0  0  0  0  0  0  0  0
   -5.1040   17.2620  -34.7920 C   0  0  0  0  0  0  0  0  0  0  0  0
   -5.7310   18.5090  -34.7200 C   0  0  0  0  0  0  0  0  0  0  0  0
   -7.6320   21.9310  -31.9410 C   0  0  0  0  0  0  0  0  0  0  0  0
   -7.1720   22.9770  -31.1370 C   0  0  0  0  0  0  0  0  0  0  0  0
   -5.4590   23.3990  -28.0230 H   0  0  0  0  0  0  0  0  0  0  0  0
   -4.3495   25.2870  -26.2289 H   0  0  0  0  0  0  0  0  0  0  0  0
   -2.1605   25.7855  -25.1517 H   0  0  0  0  0  0  0  0  0  0  0  0
   -0.0358   25.0419  -26.2259 H   0  0  0  0  0  0  0  0  0  0  0  0
   -0.0980   23.7977  -28.3850 H   0  0  0  0  0  0  0  0  0  0  0  0
   -3.8449   22.8417  -31.9109 H   0  0  0  0  0  0  0  0  0  0  0  0
   -4.6649   20.9861  -33.3566 H   0  0  0  0  0  0  0  0  0  0  0  0
   -8.0110   20.3030  -34.1870 H   0  0  0  0  0  0  0  0  0  0  0  0
   -7.3784   18.1190  -31.7451 H   0  0  0  0  0  0  0  0  0  0  0  0
   -6.2622   15.8915  -31.8842 H   0  0  0  0  0  0  0  0  0  0  0  0
   -4.8101   15.3375  -33.8373 H   0  0  0  0  0  0  0  0  0  0  0  0
   -4.4566   17.0209  -35.6480 H   0  0  0  0  0  0  0  0  0  0  0  0
   -5.5646   19.2508  -35.5150 H   0  0  0  0  0  0  0  0  0  0  0  0
   -8.7045   21.6875  -31.9615 H   0  0  0  0  0  0  0  0  0  0  0  0
   -7.8819   23.5464  -30.5192 H   0  0  0  0  0  0  0  0  0  0  0  0
  1  2  2  0
  2  3  2  0
  2  4  1  0
  4  5  1  0
  5  6  2  0
  6  7  1  0
  7  8  2  0
  8  9  1  0
  9 10  2  0
 10 11  1  0
  2 12  1  0
 12 13  2  0
 13 14  1  0
 14 15  2  0
 15 16  1  0
 16 17  1  0
 17 18  2  0
 18 19  1  0
 19 20  2  0
 20 21  1  0
 21 22  2  0
 15 23  1  0
 23 24  2  0
 10  5  1  0
 24 12  1  0
 22 17  1  0
  4 25  1  0
  6 26  1  0
  7 27  1  0
  8 28  1  0
  9 29  1  0
 13 30  1  0
 14 31  1  0
 16 32  1  0
 18 33  1  0
 19 34  1  0
 20 35  1  0
 21 36  1  0
 22 37  1  0
 23 38  1  0
 24 39  1  0
M  END
>  <UniqueID>  (7) 
7

>  <SMILES>  (7) 
O=S(=O)(Nc1ccccc1Cl)c1ccc(Nc2ccccc2)cc1

>  <Energy>  (7) 
51.14453567906365

>  <Genealogy>  (7) 
O=S(=O)(Nc1ccccc1Cl)c1ccc(Nc2ccccc2)cc1 (3D coordinates assigned)
O=S(=O)(Nc1ccccc1Cl)c1ccc(Nc2ccccc2)cc1 (optimized conformer: 51.14453567906365 kcal/mol)

>  <smiles>  (7) 
O=S(=O)(Nc1ccccc1Cl)c1ccc(Nc2ccccc2)cc1

>  <score_type>  (7) 
oracle

>  <origin>  (7) 
adgpu

>  <m_score__min__energy>  (7) 
-9.9399999999999995

>  <m_primary>  (7) 
energy

$$$$
7:0
     RDKit          3D

 42 44  0  0  0  0  0  0  0  0999 V2000
   -9.5100   21.4460  -30.9330 C   0  0  0  0  0  0  0  0  0  0  0  0
   -8.0700   21.4770  -31.3630 C   0  0  0  0  0  0  0  0  0  0  0  0
   -7.1930   22.4260  -30.8110 C   0  0  0  0  0  0  0  0  0  0  0  0
   -5.8470   22.4720  -31.2070 C   0  0  0  0  0  0  0  0  0  0  0  0
   -4.9260   23.4700  -30.6280 C   0  0  0  0  0  0  0  0  0  0  0  0
   -4.1790   23.2660  -29.5240 N   0  0  0  0  0  0  0  0  0  0  0  0
   -3.5310   24.4440  -29.4150 C   0  0  0  0  0  0  0  0  0  0  0  0
   -2.5670   24.7390  -28.3410 C   0  0  0  0  0  0  0  0  0  0  0  0
   -0.9060   24.8780  -28.5730 S   0  0  0  0  0  0  0  0  0  0  0  0
   -0.5830   25.2010  -26.9570 C   0  0  0  0  0  0  0  0  0  0  0  0
   -1.7200   25.2070  -26.2270 N   0  0  0  0  0  0  0  0  0  0  0  0
   -2.8250   24.9530  -26.9820 C   0  0  0  0  0  0  0  0  0  0  0  0
   -4.1860   24.9150  -26.3630 C   0  0  0  0  0  0  0  0  0  0  0  0
   -3.8660   25.3070  -30.3930 N   0  0  0  0  0  0  0  0  0  0  0  0
   -4.7300   24.6680  -31.1220 O   0  0  0  0  0  0  0  0  0  0  0  0
   -5.3840   21.5590  -32.1630 C   0  0  0  0  0  0  0  0  0  0  0  0
   -6.2490   20.6140  -32.7180 C   0  0  0  0  0  0  0  0  0  0  0  0
   -7.6020   20.5640  -32.3280 C   0  0  0  0  0  0  0  0  0  0  0  0
   -8.5130   19.6310  -32.8600 O   0  0  0  0  0  0  0  0  0  0  0  0
   -8.7930   18.3210  -32.3590 C   0  0  0  0  0  0  0  0  0  0  0  0
   -7.5340   17.4320  -32.3800 C   0  0  0  0  0  0  0  0  0  0  0  0
   -6.6290   17.7680  -31.1880 C   0  0  0  0  0  0  0  0  0  0  0  0
   -6.7480   17.5700  -33.6900 C   0  0  0  0  0  0  0  0  0  0  0  0
   -9.5647   21.4448  -29.8344 H   0  0  0  0  0  0  0  0  0  0  0  0
  -10.0289   22.3332  -31.3250 H   0  0  0  0  0  0  0  0  0  0  0  0
   -9.9902   20.5373  -31.3250 H   0  0  0  0  0  0  0  0  0  0  0  0
   -7.5648   23.1399  -30.0612 H   0  0  0  0  0  0  0  0  0  0  0  0
    0.4213   25.3835  -26.5470 H   0  0  0  0  0  0  0  0  0  0  0  0
   -4.0906   24.9177  -25.2671 H   0  0  0  0  0  0  0  0  0  0  0  0
   -4.7593   25.7975  -26.6833 H   0  0  0  0  0  0  0  0  0  0  0  0
   -4.7091   24.0019  -26.6833 H   0  0  0  0  0  0  0  0  0  0  0  0
   -4.3307   21.5867  -32.4790 H   0  0  0  0  0  0  0  0  0  0  0  0
   -5.8708   19.9021  -33.4665 H   0  0  0  0  0  0  0  0  0  0  0  0
   -9.1562   18.4033  -31.3240 H   0  0  0  0  0  0  0  0  0  0  0  0
   -9.5551   17.8586  -33.0034 H   0  0  0  0  0  0  0  0  0  0  0  0
   -7.8708   16.3875  -32.3054 H   0  0  0  0  0  0  0  0  0  0  0  0
   -7.1682   17.5678  -30.2504 H   0  0  0  0  0  0  0  0  0  0  0  0
   -5.7223   17.1466  -31.2294 H   0  0  0  0  0  0  0  0  0  0  0  0
   -6.3475   18.8306  -31.2294 H   0  0  0  0  0  0  0  0  0  0  0  0
   -5.6878   17.7561  -33.4636 H   0  0  0  0  0  0  0  0  0  0  0  0
   -6.8410   16.6418  -34.2729 H   0  0  0  0  0  0  0  0  0  0  0  0
   -7.1516   18.4110  -34.2729 H   0  0  0  0  0  0  0  0  0  0  0  0
  1  2  1  0
  2  3  2  0
  3  4  1  0
  4  5  1  0
  5  6  2  0
  6  7  1  0
  7  8  1  0
  8  9  1  0
  9 10  1  0
 10 11  2  0
 11 12  1  0
 12 13  1  0
  7 14  2  0
 14 15  1  0
  4 16  2  0
 16 17  1  0
 17 18  2  0
 18 19  1  0
 19 20  1  0
 20 21  1  0
 21 22  1  0
 21 23  1  0
 18  2  1  0
 15  5  1  0
 12  8  2  0
  1 24  1  0
  1 25  1  0
  1 26  1  0
  3 27  1  0
 10 28  1  0
 13 29  1  0
 13 30  1  0
 13 31  1  0
 16 32  1  0
 17 33  1  0
 20 34  1  0
 20 35  1  0
 21 36  1  0
 22 37  1  0
 22 38  1  0
 22 39  1  0
 23 40  1  0
 23 41  1  0
 23 42  1  0
M  END
>  <UniqueID>  (8) 
8

>  <SMILES>  (8) 
Cc1cc(-c2nc(-c3scnc3C)no2)ccc1OCC(C)C

>  <Energy>  (8) 
102.13168515487898

>  <Genealogy>  (8) 
Cc1cc(-c2nc(-c3scnc3C)no2)ccc1OCC(C)C (3D coordinates assigned)
Cc1cc(-c2nc(-c3scnc3C)no2)ccc1OCC(C)C (optimized conformer: 102.13168515487898 kcal/mol)

>  <smiles>  (8) 
Cc1cc(-c2nc(-c3scnc3C)no2)ccc1OCC(C)C

>  <score_type>  (8) 
oracle

>  <origin>  (8) 
adgpu

>  <m_score__min__energy>  (8) 
-8.2300000000000004

>  <m_primary>  (8) 
energy

$$$$
8:0
     RDKit          3D

 41 43  0  0  0  0  0  0  0  0999 V2000
   -0.5690   24.1660  -29.5900 O   0  0  0  0  0  0  0  0  0  0  0  0
   -1.5370   24.7480  -29.0310 C   0  0  0  0  0  0  0  0  0  0  0  0
   -2.7840   24.9030  -29.7210 N   0  0  0  0  0  0  0  0  0  0  0  0
   -3.5500   23.8620  -30.3460 C   0  0  0  0  0  0  0  0  0  0  0  0
   -2.9750   22.6360  -30.7170 C   0  0  0  0  0  0  0  0  0  0  0  0
   -3.7480   21.6600  -31.3480 C   0  0  0  0  0  0  0  0  0  0  0  0
   -5.1030   21.8910  -31.6260 C   0  0  0  0  0  0  0  0  0  0  0  0
   -5.8430   20.8990  -32.3570 N   0  0  0  0  0  0  0  0  0  0  0  0
   -7.1520   20.4400  -31.8940 C   0  0  0  0  0  0  0  0  0  0  0  0
   -7.1490   18.9100  -31.8200 C   0  0  0  0  0  0  0  0  0  0  0  0
   -6.7280   18.3480  -33.0500 O   0  0  0  0  0  0  0  0  0  0  0  0
   -5.3810   18.7040  -33.3120 C   0  0  0  0  0  0  0  0  0  0  0  0
   -5.2470   20.2170  -33.5080 C   0  0  0  0  0  0  0  0  0  0  0  0
   -5.6910   23.1230  -31.2600 C   0  0  0  0  0  0  0  0  0  0  0  0
   -7.0910   23.3740  -31.4740 N   0  0  0  0  0  0  0  0  0  0  0  0
   -7.9250   23.0820  -30.5930 O   0  0  0  0  0  0  0  0  0  0  0  0
   -7.5440   23.7850  -32.7060 O   0  0  0  0  0  0  0  0  0  0  0  0
   -4.8960   24.1040  -30.6400 C   0  0  0  0  0  0  0  0  0  0  0  0
   -1.4220   25.1590  -27.6150 C   0  0  0  0  0  0  0  0  0  0  0  0
   -2.5900   25.2210  -26.8330 C   0  0  0  0  0  0  0  0  0  0  0  0
   -2.5390   25.6750  -25.5130 C   0  0  0  0  0  0  0  0  0  0  0  0
   -1.3240   26.0690  -24.9560 C   0  0  0  0  0  0  0  0  0  0  0  0
   -0.1530   25.9960  -25.7110 C   0  0  0  0  0  0  0  0  0  0  0  0
   -0.1830   25.5240  -27.0300 C   0  0  0  0  0  0  0  0  0  0  0  0
    1.0310   25.4010  -27.7080 O   0  0  0  0  0  0  0  0  0  0  0  0
   -1.9119   22.4440  -30.5097 H   0  0  0  0  0  0  0  0  0  0  0  0
   -3.2900   20.7005  -31.6299 H   0  0  0  0  0  0  0  0  0  0  0  0
   -7.3569   20.8567  -30.8968 H   0  0  0  0  0  0  0  0  0  0  0  0
   -7.9314   20.7757  -32.5939 H   0  0  0  0  0  0  0  0  0  0  0  0
   -6.4624   18.5888  -31.0229 H   0  0  0  0  0  0  0  0  0  0  0  0
   -8.1715   18.5652  -31.6064 H   0  0  0  0  0  0  0  0  0  0  0  0
   -4.7542   18.3933  -32.4631 H   0  0  0  0  0  0  0  0  0  0  0  0
   -5.0554   18.1988  -34.2333 H   0  0  0  0  0  0  0  0  0  0  0  0
   -4.1834   20.4864  -33.5868 H   0  0  0  0  0  0  0  0  0  0  0  0
   -5.7643   20.5207  -34.4301 H   0  0  0  0  0  0  0  0  0  0  0  0
   -5.3399   25.0769  -30.3823 H   0  0  0  0  0  0  0  0  0  0  0  0
   -3.5523   24.9091  -27.2651 H   0  0  0  0  0  0  0  0  0  0  0  0
   -3.4593   25.7216  -24.9123 H   0  0  0  0  0  0  0  0  0  0  0  0
   -1.2881   26.4378  -23.9203 H   0  0  0  0  0  0  0  0  0  0  0  0
    0.8025   26.3118  -25.2668 H   0  0  0  0  0  0  0  0  0  0  0  0
    1.1240   24.9320  -28.5990 H   0  0  0  0  0  0  0  0  0  0  0  0
  1  2  2  0
  2  3  1  0
  3  4  1  0
  4  5  2  0
  5  6  1  0
  6  7  2  0
  7  8  1  0
  8  9  1  0
  9 10  1  0
 10 11  1  0
 11 12  1  0
 12 13  1  0
  7 14  1  0
 14 15  1  0
 15 16  2  0
 15 17  1  0
 14 18  2  0
  2 19  1  0
 19 20  2  0
 20 21  1  0
 21 22  2  0
 22 23  1  0
 23 24  2  0
 24 25  1  0
 18  4  1  0
 24 19  1  0
 13  8  1  0
  5 26  1  0
  6 27  1  0
  9 28  1  0
  9 29  1  0
 10 30  1  0
 10 31  1  0
 12 32  1  0
 12 33  1  0
 13 34  1  0
 13 35  1  0
 18 36  1  0
 20 37  1  0
 21 38  1  0
 22 39  1  0
 23 40  1  0
 25 41  1  0
M  CHG  3   3  -1  15   1  17  -1
M  END
>  <UniqueID>  (9) 
9

>  <SMILES>  (9) 
O=C([N-]c1ccc(N2CCOCC2)c([N+](=O)[O-])c1)c1ccccc1O

>  <Energy>  (9) 
62.69705144295808

>  <Genealogy>  (9) 
O=C([N-]c1ccc(N2CCOCC2)c([N+](=O)[O-])c1)c1ccccc1O (protonated)
O=C([N-]c1ccc(N2CCOCC2)c([N+](=O)[O-])c1)c1ccccc1O (3D coordinates assigned)
O=C([N-]c1ccc(N2CCOCC2)c([N+](=O)[O-])c1)c1ccccc1O (nonaromatic ring conformer: 62.69705144295808 kcal/mol)

>  <smiles>  (9) 
O=C(Nc1ccc(N2CCOCC2)c([N+](=O)[O-])c1)c1ccccc1O

>  <score_type>  (9) 
oracle

>  <origin>  (9) 
adgpu

>  <m_score__min__energy>  (9) 
-9.4600000000000009

>  <m_primary>  (9) 
energy

$$$$
9:0
     RDKit          3D

 61 64  0  0  1  0  0  0  0  0999 V2000
   -0.5090   21.1680  -33.8720 C   0  0  0  0  0  0  0  0  0  0  0  0
   -1.4690   21.2720  -32.8370 O   0  0  0  0  0  0  0  0  0  0  0  0
   -1.1320   21.1360  -31.5040 C   0  0  0  0  0  0  0  0  0  0  0  0
   -1.0060   22.2040  -30.6340 C   0  0  0  0  0  0  0  0  0  0  0  0
   -0.6710   22.0530  -29.3070 C   0  0  0  0  0  0  0  0  0  0  0  0
   -0.5370   23.1340  -28.4080 N   0  0  0  0  0  0  0  0  0  0  0  0
    0.6500   23.9010  -28.1970 C   0  0  0  0  0  0  0  0  0  0  0  0
    0.9940   24.0310  -26.7240 C   0  0  0  0  0  0  0  0  0  0  0  0
   -0.1700   24.0770  -25.8890 N   0  0  0  0  0  0  0  0  0  0  0  0
   -0.4700   22.7670  -25.3250 C   0  0  0  0  0  0  0  0  0  0  0  0
   -1.3330   24.5740  -26.5970 C   0  0  0  0  0  0  0  0  0  0  0  0
   -1.7160   23.5140  -27.6110 C   0  0  0  0  0  0  0  0  0  0  0  0
   -0.4610   20.7450  -28.8790 C   0  0  0  0  0  0  0  0  0  0  0  0
   -0.5840   19.6680  -29.7370 C   0  0  0  0  0  0  0  0  0  0  0  0
   -0.9190   19.8310  -31.0570 C   0  0  0  0  0  0  0  0  0  0  0  0
   -1.0350   18.7130  -31.9120 N   0  0  0  0  0  0  0  0  0  0  0  0
   -2.1310   18.5250  -32.5630 C   0  0  0  0  0  0  0  0  0  0  0  0
   -2.1510   17.4180  -33.3630 N   0  0  0  0  0  0  0  0  0  0  0  0
   -3.2260   17.0930  -34.1020 C   0  0  0  0  0  0  0  0  0  0  0  0
   -4.3310   17.9160  -34.0360 C   0  0  0  0  0  0  0  0  0  0  0  0
   -5.7540   17.5330  -34.9810 Cl  0  0  0  0  0  0  0  0  0  0  0  0
   -4.2800   19.0420  -33.2070 C   0  0  0  0  0  0  0  0  0  0  0  0
   -5.3290   19.7690  -33.1810 N   0  0  0  0  0  0  0  0  0  0  0  0
   -5.3550   20.9330  -32.3620 C   0  0  0  0  0  0  0  0  0  0  0  0
   -6.3290   21.1150  -31.3980 C   0  0  0  0  0  0  0  0  0  0  0  0
   -6.2730   22.2850  -30.6430 C   0  0  0  0  0  0  0  0  0  0  0  0
   -5.2700   23.1970  -30.8770 C   0  0  0  0  0  0  0  0  0  0  0  0
   -5.1600   24.6940  -29.9420 S   0  0  0  0  0  0  0  0  0  0  0  0
   -6.7550   25.3930  -29.7310 C   0  0  0  0  0  0  0  0  0  0  0  0
   -4.2870   25.6750  -30.6650 O   0  0  0  0  0  0  0  0  0  0  0  0
   -4.4800   24.3720  -28.6470 O   0  0  0  0  0  0  0  0  0  0  0  0
   -4.2910   23.0200  -31.8390 C   0  0  0  0  0  0  0  0  0  0  0  0
   -4.3480   21.8610  -32.5880 C   0  0  0  0  0  0  0  0  0  0  0  0
   -3.1970   19.3400  -32.4830 N   0  0  0  0  0  0  0  0  0  0  0  0
    0.4936   21.0594  -33.4326 H   0  0  0  0  0  0  0  0  0  0  0  0
   -0.7340   20.2890  -34.4938 H   0  0  0  0  0  0  0  0  0  0  0  0
   -0.5405   22.0748  -34.4938 H   0  0  0  0  0  0  0  0  0  0  0  0
   -1.1812   23.2192  -31.0195 H   0  0  0  0  0  0  0  0  0  0  0  0
    1.4867   23.4085  -28.7141 H   0  0  0  0  0  0  0  0  0  0  0  0
    0.4740   24.9119  -28.5934 H   0  0  0  0  0  0  0  0  0  0  0  0
    1.6065   23.1668  -26.4275 H   0  0  0  0  0  0  0  0  0  0  0  0
    1.5377   24.9779  -26.5908 H   0  0  0  0  0  0  0  0  0  0  0  0
   -0.4559   22.8286  -24.2268 H   0  0  0  0  0  0  0  0  0  0  0  0
   -1.4657   22.4423  -25.6613 H   0  0  0  0  0  0  0  0  0  0  0  0
    0.2852   22.0413  -25.6613 H   0  0  0  0  0  0  0  0  0  0  0  0
   -2.1616   24.7414  -25.8932 H   0  0  0  0  0  0  0  0  0  0  0  0
   -1.1139   25.5318  -27.0916 H   0  0  0  0  0  0  0  0  0  0  0  0
   -2.1016   22.6283  -27.0849 H   0  0  0  0  0  0  0  0  0  0  0  0
   -2.4914   23.9158  -28.2799 H   0  0  0  0  0  0  0  0  0  0  0  0
   -0.1896   20.5633  -27.8286 H   0  0  0  0  0  0  0  0  0  0  0  0
   -0.4085   18.6531  -29.3507 H   0  0  0  0  0  0  0  0  0  0  0  0
   -1.3050   16.7830  -33.4160 H   0  0  0  0  0  0  0  0  0  0  0  0
   -3.2244   16.1972  -34.7404 H   0  0  0  0  0  0  0  0  0  0  0  0
   -7.1173   20.3657  -31.2333 H   0  0  0  0  0  0  0  0  0  0  0  0
   -7.0261   22.4781  -29.8648 H   0  0  0  0  0  0  0  0  0  0  0  0
   -6.9741   25.4890  -28.6573 H   0  0  0  0  0  0  0  0  0  0  0  0
   -6.7850   26.3868  -30.2017 H   0  0  0  0  0  0  0  0  0  0  0  0
   -7.5060   24.7415  -30.2017 H   0  0  0  0  0  0  0  0  0  0  0  0
   -3.5021   23.7695  -32.0000 H   0  0  0  0  0  0  0  0  0  0  0  0
   -3.5932   21.6729  -33.3658 H   0  0  0  0  0  0  0  0  0  0  0  0
   -3.1460   20.1760  -31.8610 H   0  0  0  0  0  0  0  0  0  0  0  0
  1  2  1  0
  2  3  1  0
  3  4  2  0
  4  5  1  0
  5  6  1  0
  6  7  1  0
  7  8  1  0
  8  9  1  0
  9 10  1  0
  9 11  1  0
 11 12  1  0
  5 13  2  0
 13 14  1  0
 14 15  2  0
 15 16  1  0
 16 17  2  0
 17 18  1  0
 18 19  1  0
 19 20  2  0
 20 21  1  0
 20 22  1  0
 22 23  2  0
 23 24  1  0
 24 25  2  0
 25 26  1  0
 26 27  2  0
 27 28  1  0
 28 29  1  0
 28 30  2  0
 28 31  2  0
 27 32  1  0
 32 33  2  0
 22 34  1  0
 15  3  1  0
 34 17  1  0
 12  6  1  0
 33 24  1  0
  1 35  1  0
  1 36  1  0
  1 37  1  0
  4 38  1  0
  7 39  1  0
  7 40  1  0
  8 41  1  0
  8 42  1  0
 10 43  1  0
 10 44  1  0
 10 45  1  0
 11 46  1  0
 11 47  1  0
 12 48  1  0
 12 49  1  0
 13 50  1  0
 14 51  1  0
 18 52  1  0
 19 53  1  0
 25 54  1  0
 26 55  1  0
 29 56  1  0
 29 57  1  0
 29 58  1  0
 32 59  1  0
 33 60  1  0
 34 61  1  0
M  END
>  <smiles>  (10) 
COc1cc(N2CCN(C)CC2)ccc1N=c1[nH]cc(Cl)c(=Nc2ccc(S(C)(=O)=O)cc2)[nH]1

>  <score_type>  (10) 
oracle

>  <origin>  (10) 
adgpu

>  <m_score__min__energy>  (10) 
-9.25

>  <m_primary>  (10) 
energy

$$$$
10:0
     RDKit          3D

 52 54  0  0  0  0  0  0  0  0999 V2000
   -9.4930   19.8820  -32.3820 C   0  0  0  0  0  0  0  0  0  0  0  0
   -8.3410   19.1760  -31.6740 C   0  0  0  0  0  0  0  0  0  0  0  0
   -7.4560   18.4540  -32.6510 C   0  0  0  0  0  0  0  0  0  0  0  0
   -7.4120   17.1070  -32.7350 N   0  0  0  0  0  0  0  0  0  0  0  0
   -6.4350   16.7820  -33.5690 N   0  0  0  0  0  0  0  0  0  0  0  0
   -6.0730   15.4060  -33.8910 C   0  0  0  0  0  0  0  0  0  0  0  0
   -5.8340   17.8990  -34.0290 C   0  0  0  0  0  0  0  0  0  0  0  0
   -4.6400   17.9300  -34.9330 C   0  0  0  0  0  0  0  0  0  0  0  0
   -6.4620   18.9870  -33.4670 C   0  0  0  0  0  0  0  0  0  0  0  0
   -6.1110   20.3270  -33.6790 O   0  0  0  0  0  0  0  0  0  0  0  0
   -5.7480   21.2080  -32.6530 C   0  0  0  0  0  0  0  0  0  0  0  0
   -4.4590   21.1800  -32.0740 C   0  0  0  0  0  0  0  0  0  0  0  0
   -3.4420   20.1500  -32.4850 C   0  0  0  0  0  0  0  0  0  0  0  0
   -4.1260   22.1290  -31.0930 C   0  0  0  0  0  0  0  0  0  0  0  0
   -5.0750   23.0590  -30.6520 C   0  0  0  0  0  0  0  0  0  0  0  0
   -4.6430   24.2250  -29.4060 S   0  0  0  0  0  0  0  0  0  0  0  0
   -4.5890   23.5640  -28.0550 O   0  0  0  0  0  0  0  0  0  0  0  0
   -5.6800   25.3110  -29.3770 O   0  0  0  0  0  0  0  0  0  0  0  0
   -3.0970   24.9240  -29.7480 N   0  0  0  0  0  0  0  0  0  0  0  0
   -1.8620   24.3500  -29.3130 C   0  0  0  0  0  0  0  0  0  0  0  0
   -1.3140   23.1380  -29.6910 C   0  0  0  0  0  0  0  0  0  0  0  0
   -0.1910   22.9300  -28.9690 N   0  0  0  0  0  0  0  0  0  0  0  0
   -0.0220   23.9700  -28.1620 N   0  0  0  0  0  0  0  0  0  0  0  0
    1.0340   24.0450  -27.1560 C   0  0  0  0  0  0  0  0  0  0  0  0
   -1.0230   24.8600  -28.3460 C   0  0  0  0  0  0  0  0  0  0  0  0
   -1.2690   26.0730  -27.4970 C   0  0  0  0  0  0  0  0  0  0  0  0
   -6.3660   23.0420  -31.1920 C   0  0  0  0  0  0  0  0  0  0  0  0
   -6.7030   22.1150  -32.1790 C   0  0  0  0  0  0  0  0  0  0  0  0
   -7.9540   22.1210  -32.7030 F   0  0  0  0  0  0  0  0  0  0  0  0
  -10.1803   20.3032  -31.6336 H   0  0  0  0  0  0  0  0  0  0  0  0
   -9.0954   20.6917  -33.0115 H   0  0  0  0  0  0  0  0  0  0  0  0
  -10.0340   19.1602  -33.0115 H   0  0  0  0  0  0  0  0  0  0  0  0
   -7.7418   19.9232  -31.1330 H   0  0  0  0  0  0  0  0  0  0  0  0
   -8.7639   18.4363  -30.9783 H   0  0  0  0  0  0  0  0  0  0  0  0
   -5.9238   14.8388  -32.9604 H   0  0  0  0  0  0  0  0  0  0  0  0
   -6.8797   14.9423  -34.4777 H   0  0  0  0  0  0  0  0  0  0  0  0
   -5.1425   15.3993  -34.4777 H   0  0  0  0  0  0  0  0  0  0  0  0
   -3.7221   17.9538  -34.3273 H   0  0  0  0  0  0  0  0  0  0  0  0
   -4.6373   17.0316  -35.5678 H   0  0  0  0  0  0  0  0  0  0  0  0
   -4.6839   18.8273  -35.5678 H   0  0  0  0  0  0  0  0  0  0  0  0
   -2.9951   19.6974  -31.5875 H   0  0  0  0  0  0  0  0  0  0  0  0
   -3.9328   19.3688  -33.0840 H   0  0  0  0  0  0  0  0  0  0  0  0
   -2.6546   20.6308  -33.0840 H   0  0  0  0  0  0  0  0  0  0  0  0
   -3.1115   22.1414  -30.6680 H   0  0  0  0  0  0  0  0  0  0  0  0
   -1.7236   22.4574  -30.4519 H   0  0  0  0  0  0  0  0  0  0  0  0
    0.5865   24.0132  -26.1516 H   0  0  0  0  0  0  0  0  0  0  0  0
    1.7191   23.1932  -27.2793 H   0  0  0  0  0  0  0  0  0  0  0  0
    1.5918   24.9850  -27.2793 H   0  0  0  0  0  0  0  0  0  0  0  0
   -1.2125   25.7944  -26.4344 H   0  0  0  0  0  0  0  0  0  0  0  0
   -0.5072   26.8353  -27.7172 H   0  0  0  0  0  0  0  0  0  0  0  0
   -2.2676   26.4783  -27.7172 H   0  0  0  0  0  0  0  0  0  0  0  0
   -7.1179   23.7621  -30.8370 H   0  0  0  0  0  0  0  0  0  0  0  0
  1  2  1  0
  2  3  1  0
  3  4  2  0
  4  5  1  0
  5  6  1  0
  5  7  1  0
  7  8  1  0
  7  9  2  0
  9 10  1  0
 10 11  1  0
 11 12  2  0
 12 13  1  0
 12 14  1  0
 14 15  2  0
 15 16  1  0
 16 17  2  0
 16 18  2  0
 16 19  1  0
 19 20  1  0
 20 21  1  0
 21 22  2  0
 22 23  1  0
 23 24  1  0
 23 25  1  0
 25 26  1  0
 15 27  1  0
 27 28  2  0
 28 29  1  0
  9  3  1  0
 28 11  1  0
 25 20  2  0
  1 30  1  0
  1 31  1  0
  1 32  1  0
  2 33  1  0
  2 34  1  0
  6 35  1  0
  6 36  1  0
  6 37  1  0
  8 38  1  0
  8 39  1  0
  8 40  1  0
 13 41  1  0
 13 42  1  0
 13 43  1  0
 14 44  1  0
 21 45  1  0
 24 46  1  0
 24 47  1  0
 24 48  1  0
 26 49  1  0
 26 50  1  0
 26 51  1  0
 27 52  1  0
M  CHG  1  19  -1
M  END
>  <UniqueID>  (11) 
10

>  <SMILES>  (11) 
CCc1nn(C)c(C)c1Oc1c(C)cc(S(=O)(=O)[N-]c2cnn(C)c2C)cc1F

>  <Energy>  (11) 
119.7461465761638

>  <Genealogy>  (11) 
CCc1nn(C)c(C)c1Oc1c(C)cc(S(=O)(=O)[N-]c2cnn(C)c2C)cc1F (protonated)
CCc1nn(C)c(C)c1Oc1c(C)cc(S(=O)(=O)[N-]c2cnn(C)c2C)cc1F (3D coordinates assigned)
CCc1nn(C)c(C)c1Oc1c(C)cc(S(=O)(=O)[N-]c2cnn(C)c2C)cc1F (optimized conformer: 119.7461465761638 kcal/mol)

>  <smiles>  (11) 
CCc1nn(C)c(C)c1Oc1c(C)cc(S(=O)(=O)Nc2cnn(C)c2C)cc1F

>  <score_type>  (11) 
oracle

>  <origin>  (11) 
adgpu

>  <m_score__min__energy>  (11) 
-10.52

>  <m_primary>  (11) 
energy

$$$$
11:0
     RDKit          3D

 39 41  0  0  0  0  0  0  0  0999 V2000
    3.2020   24.2500  -26.8120 N   0  0  0  0  0  0  0  0  0  0  0  0
    2.1040   24.4630  -27.1090 C   0  0  0  0  0  0  0  0  0  0  0  0
    0.7380   24.7280  -27.4790 C   0  0  0  0  0  0  0  0  0  0  0  0
    0.0580   25.8150  -26.9160 C   0  0  0  0  0  0  0  0  0  0  0  0
   -1.2610   26.0830  -27.2900 C   0  0  0  0  0  0  0  0  0  0  0  0
   -1.9070   25.2640  -28.2190 C   0  0  0  0  0  0  0  0  0  0  0  0
   -1.2450   24.1590  -28.7760 C   0  0  0  0  0  0  0  0  0  0  0  0
   -1.9240   23.3440  -29.7470 N   0  0  0  0  0  0  0  0  0  0  0  0
   -3.1620   23.7150  -30.3770 C   0  0  0  0  0  0  0  0  0  0  0  0
   -3.4950   24.9310  -30.4300 O   0  0  0  0  0  0  0  0  0  0  0  0
   -4.0290   22.6940  -31.0100 C   0  0  0  0  0  0  0  0  0  0  0  0
   -3.4860   21.4830  -31.4670 C   0  0  0  0  0  0  0  0  0  0  0  0
   -4.2820   20.5510  -32.0540 N   0  0  0  0  0  0  0  0  0  0  0  0
   -5.6170   20.7430  -32.2330 C   0  0  0  0  0  0  0  0  0  0  0  0
   -6.3900   19.7120  -32.8710 N   0  0  0  0  0  0  0  0  0  0  0  0
   -7.4310   18.9970  -32.1290 C   0  0  0  0  0  0  0  0  0  0  0  0
   -7.2680   17.4910  -32.3550 C   0  0  0  0  0  0  0  0  0  0  0  0
   -7.2190   17.1920  -33.7390 O   0  0  0  0  0  0  0  0  0  0  0  0
   -6.0620   17.7700  -34.3180 C   0  0  0  0  0  0  0  0  0  0  0  0
   -6.1260   19.3000  -34.2510 C   0  0  0  0  0  0  0  0  0  0  0  0
   -6.2090   21.9400  -31.7880 C   0  0  0  0  0  0  0  0  0  0  0  0
   -7.9400   22.2270  -31.9040 Cl  0  0  0  0  0  0  0  0  0  0  0  0
   -5.4060   22.9120  -31.1820 C   0  0  0  0  0  0  0  0  0  0  0  0
    0.0910   23.9050  -28.4120 C   0  0  0  0  0  0  0  0  0  0  0  0
    0.5624   26.4577  -26.1794 H   0  0  0  0  0  0  0  0  0  0  0  0
   -1.7921   26.9409  -26.8519 H   0  0  0  0  0  0  0  0  0  0  0  0
   -2.9424   25.4868  -28.5162 H   0  0  0  0  0  0  0  0  0  0  0  0
   -1.4340   22.4890  -30.0960 H   0  0  0  0  0  0  0  0  0  0  0  0
   -2.4100   21.2872  -31.3493 H   0  0  0  0  0  0  0  0  0  0  0  0
   -7.3368   19.2201  -31.0560 H   0  0  0  0  0  0  0  0  0  0  0  0
   -8.4222   19.3180  -32.4818 H   0  0  0  0  0  0  0  0  0  0  0  0
   -6.3348   17.1541  -31.8801 H   0  0  0  0  0  0  0  0  0  0  0  0
   -8.1317   16.9728  -31.9128 H   0  0  0  0  0  0  0  0  0  0  0  0
   -5.1730   17.4220  -33.7715 H   0  0  0  0  0  0  0  0  0  0  0  0
   -6.0063   17.4654  -35.3735 H   0  0  0  0  0  0  0  0  0  0  0  0
   -5.1667   19.7231  -34.5839 H   0  0  0  0  0  0  0  0  0  0  0  0
   -6.9313   19.6647  -34.9055 H   0  0  0  0  0  0  0  0  0  0  0  0
   -5.8564   23.8545  -30.8374 H   0  0  0  0  0  0  0  0  0  0  0  0
    0.6295   23.0576  -28.8613 H   0  0  0  0  0  0  0  0  0  0  0  0
  1  2  3  0
  2  3  1  0
  3  4  2  0
  4  5  1  0
  5  6  2  0
  6  7  1  0
  7  8  1  0
  8  9  1  0
  9 10  2  0
  9 11  1  0
 11 12  2  0
 12 13  1  0
 13 14  2  0
 14 15  1  0
 15 16  1  0
 16 17  1  0
 17 18  1  0
 18 19  1  0
 19 20  1  0
 14 21  1  0
 21 22  1  0
 21 23  2  0
  7 24  2  0
 24  3  1  0
 23 11  1  0
 20 15  1  0
  4 25  1  0
  5 26  1  0
  6 27  1  0
  8 28  1  0
 12 29  1  0
 16 30  1  0
 16 31  1  0
 17 32  1  0
 17 33  1  0
 19 34  1  0
 19 35  1  0
 20 36  1  0
 20 37  1  0
 23 38  1  0
 24 39  1  0
M  END
>  <UniqueID>  (12) 
11

>  <SMILES>  (12) 
N#Cc1cccc(NC(=O)c2cnc(N3CCOCC3)c(Cl)c2)c1

>  <Energy>  (12) 
53.3646238637506

>  <Genealogy>  (12) 
N#Cc1cccc(NC(=O)c2cnc(N3CCOCC3)c(Cl)c2)c1 (3D coordinates assigned)
N#Cc1cccc(NC(=O)c2cnc(N3CCOCC3)c(Cl)c2)c1 (nonaromatic ring conformer: 53.3646238637506 kcal/mol)

>  <smiles>  (12) 
N#Cc1cccc(NC(=O)c2cnc(N3CCOCC3)c(Cl)c2)c1

>  <score_type>  (12) 
oracle

>  <origin>  (12) 
adgpu

>  <m_score__min__energy>  (12) 
-7.9500000000000002

>  <m_primary>  (12) 
energy

$$$$
12:0
     RDKit          3D

 42 44  0  0  0  0  0  0  0  0999 V2000
   -2.0080   25.2830  -29.1880 N   0  0  0  0  0  0  0  0  0  0  0  0
   -3.4530   24.4980  -29.7190 S   0  0  0  0  0  0  0  0  0  0  0  0
   -4.0860   25.3000  -30.8220 O   0  0  0  0  0  0  0  0  0  0  0  0
   -4.4210   24.4050  -28.5730 O   0  0  0  0  0  0  0  0  0  0  0  0
   -3.0620   22.8840  -30.3020 C   0  0  0  0  0  0  0  0  0  0  0  0
   -2.4710   21.9450  -29.4430 C   0  0  0  0  0  0  0  0  0  0  0  0
   -2.1460   20.6700  -29.9150 C   0  0  0  0  0  0  0  0  0  0  0  0
   -2.4020   20.3280  -31.2460 C   0  0  0  0  0  0  0  0  0  0  0  0
   -2.9780   21.2650  -32.1110 C   0  0  0  0  0  0  0  0  0  0  0  0
   -3.2890   20.8340  -33.8230 S   0  0  0  0  0  0  0  0  0  0  0  0
   -2.6390   19.1680  -33.6250 C   0  0  0  0  0  0  0  0  0  0  0  0
   -1.2850   18.9430  -33.9040 C   0  0  0  0  0  0  0  0  0  0  0  0
   -0.7180   17.6850  -33.6920 C   0  0  0  0  0  0  0  0  0  0  0  0
   -1.4990   16.6410  -33.1900 C   0  0  0  0  0  0  0  0  0  0  0  0
   -0.7180   14.9260  -32.8830 Br  0  0  0  0  0  0  0  0  0  0  0  0
   -2.8530   16.8530  -32.9140 C   0  0  0  0  0  0  0  0  0  0  0  0
   -3.4410   18.1050  -33.1490 C   0  0  0  0  0  0  0  0  0  0  0  0
   -4.8300   18.2860  -32.8400 N   0  0  0  0  0  0  0  0  0  0  0  0
   -5.8360   18.4560  -33.8450 C   0  0  0  0  0  0  0  0  0  0  0  0
   -5.5550   18.2730  -35.0600 O   0  0  0  0  0  0  0  0  0  0  0  0
   -7.1760   18.7670  -33.4470 N   0  0  0  0  0  0  0  0  0  0  0  0
   -7.5950   19.9280  -32.7170 C   0  0  0  0  0  0  0  0  0  0  0  0
   -8.7420   19.8420  -31.9170 C   0  0  0  0  0  0  0  0  0  0  0  0
   -9.1710   20.9450  -31.1730 C   0  0  0  0  0  0  0  0  0  0  0  0
   -8.4450   22.1390  -31.2090 C   0  0  0  0  0  0  0  0  0  0  0  0
   -7.2850   22.2280  -31.9840 C   0  0  0  0  0  0  0  0  0  0  0  0
   -6.3590   23.7190  -32.0090 Cl  0  0  0  0  0  0  0  0  0  0  0  0
   -6.8550   21.1260  -32.7320 C   0  0  0  0  0  0  0  0  0  0  0  0
   -3.3130   22.5400  -31.6380 C   0  0  0  0  0  0  0  0  0  0  0  0
   -1.5450   25.6750  -30.0380 H   0  0  0  0  0  0  0  0  0  0  0  0
   -2.2631   22.2126  -28.3965 H   0  0  0  0  0  0  0  0  0  0  0  0
   -1.6879   19.9343  -29.2376 H   0  0  0  0  0  0  0  0  0  0  0  0
   -2.1506   19.3221  -31.6134 H   0  0  0  0  0  0  0  0  0  0  0  0
   -0.6639   19.7634  -34.2929 H   0  0  0  0  0  0  0  0  0  0  0  0
    0.3446   17.5156  -33.9204 H   0  0  0  0  0  0  0  0  0  0  0  0
   -3.4624   16.0315  -32.5093 H   0  0  0  0  0  0  0  0  0  0  0  0
   -5.1420   18.1470  -31.8520 H   0  0  0  0  0  0  0  0  0  0  0  0
   -9.3088   18.9002  -31.8741 H   0  0  0  0  0  0  0  0  0  0  0  0
  -10.0807   20.8733  -30.5587 H   0  0  0  0  0  0  0  0  0  0  0  0
   -8.7864   23.0082  -30.6277 H   0  0  0  0  0  0  0  0  0  0  0  0
   -5.9365   21.1959  -33.3332 H   0  0  0  0  0  0  0  0  0  0  0  0
   -3.7741   23.2732  -32.3161 H   0  0  0  0  0  0  0  0  0  0  0  0
  1  2  1  0
  2  3  2  0
  2  4  2  0
  2  5  1  0
  5  6  2  0
  6  7  1  0
  7  8  2  0
  8  9  1  0
  9 10  1  0
 10 11  1  0
 11 12  2  0
 12 13  1  0
 13 14  2  0
 14 15  1  0
 14 16  1  0
 16 17  2  0
 17 18  1  0
 18 19  1  0
 19 20  2  0
 19 21  1  0
 21 22  1  0
 22 23  2  0
 23 24  1  0
 24 25  2  0
 25 26  1  0
 26 27  1  0
 26 28  2  0
  9 29  2  0
 29  5  1  0
 17 11  1  0
 28 22  1  0
  1 30  1  0
  6 31  1  0
  7 32  1  0
  8 33  1  0
 12 34  1  0
 13 35  1  0
 16 36  1  0
 18 37  1  0
 23 38  1  0
 24 39  1  0
 25 40  1  0
 28 41  1  0
 29 42  1  0
M  CHG  2   1  -1  21  -1
M  END
>  <UniqueID>  (13) 
12

>  <SMILES>  (13) 
[NH-]S(=O)(=O)c1cccc(Sc2ccc(Br)cc2NC(=O)[N-]c2cccc(Cl)c2)c1

>  <Energy>  (13) 
47.65916306970284

>  <Genealogy>  (13) 
[NH-]S(=O)(=O)c1cccc(Sc2ccc(Br)cc2NC(=O)[N-]c2cccc(Cl)c2)c1 (protonated)
[NH-]S(=O)(=O)c1cccc(Sc2ccc(Br)cc2NC(=O)[N-]c2cccc(Cl)c2)c1 (3D coordinates assigned)
[NH-]S(=O)(=O)c1cccc(Sc2ccc(Br)cc2NC(=O)[N-]c2cccc(Cl)c2)c1 (optimized conformer: 47.65916306970284 kcal/mol)

>  <smiles>  (13) 
NS(=O)(=O)c1cccc(Sc2ccc(Br)cc2NC(=O)Nc2cccc(Cl)c2)c1

>  <score_type>  (13) 
oracle

>  <origin>  (13) 
adgpu

>  <m_score__min__energy>  (13) 
-12.52

>  <m_primary>  (13) 
energy

$$$$
13:0
     RDKit          3D

 24 25  0  0  0  0  0  0  0  0999 V2000
   -1.6070   25.7400  -29.3370 O   0  0  0  0  0  0  0  0  0  0  0  0
   -1.5220   24.4950  -28.7240 C   0  0  0  0  0  0  0  0  0  0  0  0
   -0.9990   24.4150  -27.4280 C   0  0  0  0  0  0  0  0  0  0  0  0
   -0.8610   23.1730  -26.8000 C   0  0  0  0  0  0  0  0  0  0  0  0
   -0.1420   23.0720  -25.0330 Br  0  0  0  0  0  0  0  0  0  0  0  0
   -1.2390   22.0080  -27.4680 C   0  0  0  0  0  0  0  0  0  0  0  0
   -1.7660   22.0810  -28.7600 C   0  0  0  0  0  0  0  0  0  0  0  0
   -1.9310   23.3200  -29.3940 C   0  0  0  0  0  0  0  0  0  0  0  0
   -2.4740   23.3320  -30.6890 O   0  0  0  0  0  0  0  0  0  0  0  0
   -3.8400   23.2460  -30.9920 C   0  0  0  0  0  0  0  0  0  0  0  0
   -4.6230   24.4060  -30.9050 C   0  0  0  0  0  0  0  0  0  0  0  0
   -4.0340   25.6070  -30.5180 O   0  0  0  0  0  0  0  0  0  0  0  0
   -5.9930   24.3520  -31.1960 C   0  0  0  0  0  0  0  0  0  0  0  0
   -6.5820   23.1450  -31.5830 C   0  0  0  0  0  0  0  0  0  0  0  0
   -8.4490   23.0770  -31.9790 Br  0  0  0  0  0  0  0  0  0  0  0  0
   -5.8010   21.9910  -31.6960 C   0  0  0  0  0  0  0  0  0  0  0  0
   -4.4320   22.0340  -31.4100 C   0  0  0  0  0  0  0  0  0  0  0  0
   -3.3990   20.4430  -31.6830 Br  0  0  0  0  0  0  0  0  0  0  0  0
   -0.6955   25.3321  -26.9018 H   0  0  0  0  0  0  0  0  0  0  0  0
   -1.1220   21.0307  -26.9769 H   0  0  0  0  0  0  0  0  0  0  0  0
   -2.0540   21.1578  -29.2842 H   0  0  0  0  0  0  0  0  0  0  0  0
   -3.0420   25.6740  -30.3200 H   0  0  0  0  0  0  0  0  0  0  0  0
   -6.6063   25.2620  -31.1196 H   0  0  0  0  0  0  0  0  0  0  0  0
   -6.2649   21.0447  -32.0112 H   0  0  0  0  0  0  0  0  0  0  0  0
  1  2  1  0
  2  3  2  0
  3  4  1  0
  4  5  1  0
  4  6  2  0
  6  7  1  0
  7  8  2  0
  8  9  1  0
  9 10  1  0
 10 11  2  0
 11 12  1  0
 11 13  1  0
 13 14  2  0
 14 15  1  0
 14 16  1  0
 16 17  2  0
 17 18  1  0
  8  2  1  0
 17 10  1  0
  3 19  1  0
  6 20  1  0
  7 21  1  0
 12 22  1  0
 13 23  1  0
 16 24  1  0
M  CHG  1   1  -1
M  END
>  <UniqueID>  (14) 
13

>  <SMILES>  (14) 
[O-]c1cc(Br)ccc1Oc1c(O)cc(Br)cc1Br

>  <Energy>  (14) 
34.939131970752435

>  <Genealogy>  (14) 
[O-]c1cc(Br)ccc1Oc1c(O)cc(Br)cc1Br (protonated)
[O-]c1cc(Br)ccc1Oc1c(O)cc(Br)cc1Br (3D coordinates assigned)
[O-]c1cc(Br)ccc1Oc1c(O)cc(Br)cc1Br (optimized conformer: 34.939131970752435 kcal/mol)

>  <smiles>  (14) 
Oc1cc(Br)ccc1Oc1c(O)cc(Br)cc1Br

>  <score_type>  (14) 
oracle

>  <origin>  (14) 
adgpu

>  <m_score__min__energy>  (14) 
-11.27

>  <m_primary>  (14) 
energy

$$$$
14:0
     RDKit          3D

 22 23  0  0  0  0  0  0  0  0999 V2000
   -9.4400   21.5980  -31.2180 C   0  0  0  0  0  0  0  0  0  0  0  0
   -8.6450   20.7940  -32.2520 C   0  0  0  0  0  0  0  0  0  0  0  0
   -8.7370   19.2930  -31.9650 C   0  0  0  0  0  0  0  0  0  0  0  0
   -7.2060   21.2380  -32.2680 C   0  0  0  0  0  0  0  0  0  0  0  0
   -6.2090   20.5580  -32.9670 C   0  0  0  0  0  0  0  0  0  0  0  0
   -4.7600   21.3760  -32.7260 S   0  0  0  0  0  0  0  0  0  0  0  0
   -5.4580   22.5530  -31.7490 C   0  0  0  0  0  0  0  0  0  0  0  0
   -4.7380   23.6720  -31.1350 C   0  0  0  0  0  0  0  0  0  0  0  0
   -5.1070   24.9600  -31.2770 N   0  0  0  0  0  0  0  0  0  0  0  0
   -4.2370   25.6810  -30.5910 N   0  0  0  0  0  0  0  0  0  0  0  0
   -3.3690   24.8060  -30.0560 C   0  0  0  0  0  0  0  0  0  0  0  0
   -2.3990   25.1510  -29.3340 O   0  0  0  0  0  0  0  0  0  0  0  0
   -3.6400   23.5250  -30.3680 N   0  0  0  0  0  0  0  0  0  0  0  0
   -6.7830   22.3440  -31.5960 N   0  0  0  0  0  0  0  0  0  0  0  0
   -9.1381   21.2927  -30.2052 H   0  0  0  0  0  0  0  0  0  0  0  0
   -9.2377   22.6707  -31.3532 H   0  0  0  0  0  0  0  0  0  0  0  0
  -10.5149   21.4077  -31.3532 H   0  0  0  0  0  0  0  0  0  0  0  0
   -9.0833   20.9813  -33.2434 H   0  0  0  0  0  0  0  0  0  0  0  0
   -8.7471   19.1276  -30.8776 H   0  0  0  0  0  0  0  0  0  0  0  0
   -9.6614   18.8914  -32.4056 H   0  0  0  0  0  0  0  0  0  0  0  0
   -7.8685   18.7815  -32.4056 H   0  0  0  0  0  0  0  0  0  0  0  0
   -6.3463   19.6478  -33.5692 H   0  0  0  0  0  0  0  0  0  0  0  0
  1  2  1  0
  2  3  1  0
  2  4  1  0
  4  5  2  0
  5  6  1  0
  6  7  1  0
  7  8  1  0
  8  9  2  0
  9 10  1  0
 10 11  1  0
 11 12  2  0
 11 13  1  0
  7 14  2  0
 14  4  1  0
 13  8  1  0
  1 15  1  0
  1 16  1  0
  1 17  1  0
  2 18  1  0
  3 19  1  0
  3 20  1  0
  3 21  1  0
  5 22  1  0
M  CHG  2  10  -1  13  -1
M  END
>  <UniqueID>  (15) 
14

>  <SMILES>  (15) 
CC(C)c1csc(-c2n[n-]c(=O)[n-]2)n1

>  <Energy>  (15) 
77.89543183194978

>  <Genealogy>  (15) 
CC(C)c1csc(-c2n[n-]c(=O)[n-]2)n1 (protonated)
CC(C)c1csc(-c2n[n-]c(=O)[n-]2)n1 (3D coordinates assigned)
CC(C)c1csc(-c2n[n-]c(=O)[n-]2)n1 (optimized conformer: 77.89543183194978 kcal/mol)

>  <smiles>  (15) 
CC(C)c1csc(-c2n[nH]c(=O)[nH]2)n1

>  <score_type>  (15) 
oracle

>  <origin>  (15) 
adgpu

>  <m_score__min__energy>  (15) 
-9.1400000000000006

>  <m_primary>  (15) 
energy

$$$$
15:0
     RDKit          3D

 58 62  0  0  0  0  0  0  0  0999 V2000
   -3.0990   23.8060  -27.6480 C   0  0  0  0  0  0  0  0  0  0  0  0
   -3.6760   24.2430  -28.9490 C   0  0  0  0  0  0  0  0  0  0  0  0
   -4.8160   23.7400  -29.5440 C   0  0  0  0  0  0  0  0  0  0  0  0
   -4.8880   24.4630  -30.7200 C   0  0  0  0  0  0  0  0  0  0  0  0
   -5.7880   24.3480  -31.6500 N   0  0  0  0  0  0  0  0  0  0  0  0
   -7.1180   23.2350  -31.5940 S   0  0  0  0  0  0  0  0  0  0  0  0
   -8.2540   23.7760  -32.4160 O   0  0  0  0  0  0  0  0  0  0  0  0
   -7.5790   23.0900  -30.1730 O   0  0  0  0  0  0  0  0  0  0  0  0
   -6.6050   21.6580  -32.1890 C   0  0  0  0  0  0  0  0  0  0  0  0
   -5.2440   21.4090  -32.3980 C   0  0  0  0  0  0  0  0  0  0  0  0
   -4.8170   20.1540  -32.8420 C   0  0  0  0  0  0  0  0  0  0  0  0
   -5.7490   19.1250  -33.0650 C   0  0  0  0  0  0  0  0  0  0  0  0
   -5.3380   17.8240  -33.5130 N   0  0  0  0  0  0  0  0  0  0  0  0
   -6.1290   16.6320  -33.3460 C   0  0  0  0  0  0  0  0  0  0  0  0
   -7.2470   16.6900  -32.7610 O   0  0  0  0  0  0  0  0  0  0  0  0
   -5.6640   15.3230  -33.8610 C   0  0  0  0  0  0  0  0  0  0  0  0
   -6.5740   14.3310  -34.2660 C   0  0  0  0  0  0  0  0  0  0  0  0
   -6.1120   13.0950  -34.7260 C   0  0  0  0  0  0  0  0  0  0  0  0
   -4.7420   12.8340  -34.7840 C   0  0  0  0  0  0  0  0  0  0  0  0
   -3.8240   13.8090  -34.3760 C   0  0  0  0  0  0  0  0  0  0  0  0
   -2.0930   13.5030  -34.4540 S   0  0  0  0  0  0  0  0  0  0  0  0
   -1.8180   12.1000  -33.9890 O   0  0  0  0  0  0  0  0  0  0  0  0
   -1.5860   13.6440  -35.8610 O   0  0  0  0  0  0  0  0  0  0  0  0
   -1.2700   14.6300  -33.4280 N   0  0  0  0  0  0  0  0  0  0  0  0
   -0.5580   14.2680  -32.2050 C   0  0  0  0  0  0  0  0  0  0  0  0
   -0.0750   15.6040  -31.5890 C   0  0  0  0  0  0  0  0  0  0  0  0
   -0.6050   16.6330  -32.5320 C   0  0  0  0  0  0  0  0  0  0  0  0
   -0.4740   18.0250  -32.4570 C   0  0  0  0  0  0  0  0  0  0  0  0
   -1.0600   18.8070  -33.4660 C   0  0  0  0  0  0  0  0  0  0  0  0
   -1.7630   18.1920  -34.5210 C   0  0  0  0  0  0  0  0  0  0  0  0
   -1.8810   16.7940  -34.5740 C   0  0  0  0  0  0  0  0  0  0  0  0
   -1.2820   16.0370  -33.5610 C   0  0  0  0  0  0  0  0  0  0  0  0
   -4.2860   15.0480  -33.9170 C   0  0  0  0  0  0  0  0  0  0  0  0
   -7.1160   19.3920  -32.8910 C   0  0  0  0  0  0  0  0  0  0  0  0
   -7.5420   20.6470  -32.4460 C   0  0  0  0  0  0  0  0  0  0  0  0
   -3.8620   25.3300  -30.8020 N   0  0  0  0  0  0  0  0  0  0  0  0
   -3.1530   25.1670  -29.7220 O   0  0  0  0  0  0  0  0  0  0  0  0
   -3.6794   24.2455  -26.8234 H   0  0  0  0  0  0  0  0  0  0  0  0
   -3.1379   22.7088  -27.5797 H   0  0  0  0  0  0  0  0  0  0  0  0
   -2.0534   24.1408  -27.5797 H   0  0  0  0  0  0  0  0  0  0  0  0
   -5.4968   22.9590  -29.1745 H   0  0  0  0  0  0  0  0  0  0  0  0
   -4.5069   22.2041  -32.2122 H   0  0  0  0  0  0  0  0  0  0  0  0
   -3.7467   19.9706  -33.0178 H   0  0  0  0  0  0  0  0  0  0  0  0
   -4.4470   17.7670  -34.0530 H   0  0  0  0  0  0  0  0  0  0  0  0
   -7.6551   14.5287  -34.2206 H   0  0  0  0  0  0  0  0  0  0  0  0
   -6.8305   12.3250  -35.0435 H   0  0  0  0  0  0  0  0  0  0  0  0
   -4.3832   11.8610  -35.1508 H   0  0  0  0  0  0  0  0  0  0  0  0
   -1.2318   13.7465  -31.5093 H   0  0  0  0  0  0  0  0  0  0  0  0
    0.2826   13.5890  -32.4109 H   0  0  0  0  0  0  0  0  0  0  0  0
   -0.4896   15.7445  -30.5799 H   0  0  0  0  0  0  0  0  0  0  0  0
    1.0177   15.6520  -31.4717 H   0  0  0  0  0  0  0  0  0  0  0  0
    0.0748   18.4950  -31.6276 H   0  0  0  0  0  0  0  0  0  0  0  0
   -0.9698   19.9028  -33.4325 H   0  0  0  0  0  0  0  0  0  0  0  0
   -2.2216   18.8102  -35.3069 H   0  0  0  0  0  0  0  0  0  0  0  0
   -2.4310   16.3056  -35.3920 H   0  0  0  0  0  0  0  0  0  0  0  0
   -3.5643   15.8140  -33.5970 H   0  0  0  0  0  0  0  0  0  0  0  0
   -7.8573   18.6083  -33.1063 H   0  0  0  0  0  0  0  0  0  0  0  0
   -8.6144   20.8417  -32.2972 H   0  0  0  0  0  0  0  0  0  0  0  0
  1  2  1  0
  2  3  2  0
  3  4  1  0
  4  5  2  3
  5  6  1  0
  6  7  2  0
  6  8  2  0
  6  9  1  0
  9 10  2  0
 10 11  1  0
 11 12  2  0
 12 13  1  0
 13 14  1  0
 14 15  2  0
 14 16  1  0
 16 17  2  0
 17 18  1  0
 18 19  2  0
 19 20  1  0
 20 21  1  0
 21 22  2  0
 21 23  2  0
 21 24  1  0
 24 25  1  0
 25 26  1  0
 26 27  1  0
 27 28  2  0
 28 29  1  0
 29 30  2  0
 30 31  1  0
 31 32  2  0
 20 33  2  0
 12 34  1  0
 34 35  2  0
  4 36  1  0
 36 37  1  0
 37  2  1  0
 35  9  1  0
 33 16  1  0
 32 24  1  0
 32 27  1  0
  1 38  1  0
  1 39  1  0
  1 40  1  0
  3 41  1  0
 10 42  1  0
 11 43  1  0
 13 44  1  0
 17 45  1  0
 18 46  1  0
 19 47  1  0
 25 48  1  0
 25 49  1  0
 26 50  1  0
 26 51  1  0
 28 52  1  0
 29 53  1  0
 30 54  1  0
 31 55  1  0
 33 56  1  0
 34 57  1  0
 35 58  1  0
M  CHG  1  36  -1
M  END
>  <UniqueID>  (16) 
15

>  <SMILES>  (16) 
Cc1cc(=NS(=O)(=O)c2ccc(NC(=O)c3cccc(S(=O)(=O)N4CCc5ccccc54)c3)cc2)[n-]o1

>  <Energy>  (16) 
119.56882173427877

>  <Genealogy>  (16) 
Cc1cc(=NS(=O)(=O)c2ccc(NC(=O)c3cccc(S(=O)(=O)N4CCc5ccccc54)c3)cc2)[n-]o1 (protonated)
Cc1cc(=NS(=O)(=O)c2ccc(NC(=O)c3cccc(S(=O)(=O)N4CCc5ccccc54)c3)cc2)[n-]o1 (3D coordinates assigned)
Cc1cc(=NS(=O)(=O)c2ccc(NC(=O)c3cccc(S(=O)(=O)N4CCc5ccccc54)c3)cc2)[n-]o1 (nonaromatic ring conformer: 119.56882173427877 kcal/mol)

>  <smiles>  (16) 
Cc1cc(=NS(=O)(=O)c2ccc(NC(=O)c3cccc(S(=O)(=O)N4CCc5ccccc54)c3)cc2)[nH]o1

>  <score_type>  (16) 
oracle

>  <origin>  (16) 
adgpu

>  <m_score__min__energy>  (16) 
-11.279999999999999

>  <m_primary>  (16) 
energy

$$$$
16:0
     RDKit          3D

 43 45  0  0  0  0  0  0  0  0999 V2000
   -1.9560   24.9080  -28.1880 C   0  0  0  0  0  0  0  0  0  0  0  0
   -2.6820   25.2970  -29.3490 O   0  0  0  0  0  0  0  0  0  0  0  0
   -3.8070   24.6200  -29.8430 C   0  0  0  0  0  0  0  0  0  0  0  0
   -4.9650   25.3590  -30.1060 C   0  0  0  0  0  0  0  0  0  0  0  0
   -6.1130   24.7320  -30.6010 C   0  0  0  0  0  0  0  0  0  0  0  0
   -6.1190   23.3470  -30.8410 C   0  0  0  0  0  0  0  0  0  0  0  0
   -7.3330   22.6840  -31.3610 C   0  0  0  0  0  0  0  0  0  0  0  0
   -8.3210   23.3270  -32.0170 N   0  0  0  0  0  0  0  0  0  0  0  0
   -9.1870   22.4050  -32.3100 O   0  0  0  0  0  0  0  0  0  0  0  0
   -8.7660   21.2510  -31.8590 C   0  0  0  0  0  0  0  0  0  0  0  0
   -9.5010   19.9560  -32.0370 C   0  0  0  0  0  0  0  0  0  0  0  0
   -8.8440   19.0750  -33.0180 N   0  0  0  0  0  0  0  0  0  0  0  0
   -7.8210   18.2030  -32.4170 C   0  0  0  0  0  0  0  0  0  0  0  0
   -6.4740   18.4250  -33.0550 C   0  0  0  0  0  0  0  0  0  0  0  0
   -5.9160   17.4370  -33.8790 C   0  0  0  0  0  0  0  0  0  0  0  0
   -4.6580   17.6310  -34.4540 C   0  0  0  0  0  0  0  0  0  0  0  0
   -3.9460   18.8070  -34.2080 C   0  0  0  0  0  0  0  0  0  0  0  0
   -4.4920   19.8060  -33.3770 C   0  0  0  0  0  0  0  0  0  0  0  0
   -3.8160   21.0020  -33.0950 O   0  0  0  0  0  0  0  0  0  0  0  0
   -2.4070   21.1740  -33.2030 C   0  0  0  0  0  0  0  0  0  0  0  0
   -5.7540   19.6050  -32.8070 C   0  0  0  0  0  0  0  0  0  0  0  0
   -7.5760   21.3610  -31.2390 N   0  0  0  0  0  0  0  0  0  0  0  0
   -4.9570   22.6050  -30.5770 C   0  0  0  0  0  0  0  0  0  0  0  0
   -3.8100   23.2330  -30.0820 C   0  0  0  0  0  0  0  0  0  0  0  0
   -2.5146   25.2073  -27.2889 H   0  0  0  0  0  0  0  0  0  0  0  0
   -1.8204   23.8164  -28.1890 H   0  0  0  0  0  0  0  0  0  0  0  0
   -0.9720   25.3997  -28.1890 H   0  0  0  0  0  0  0  0  0  0  0  0
   -4.9729   26.4434  -29.9218 H   0  0  0  0  0  0  0  0  0  0  0  0
   -7.0163   25.3261  -30.8037 H   0  0  0  0  0  0  0  0  0  0  0  0
   -9.5448   19.4372  -31.0680 H   0  0  0  0  0  0  0  0  0  0  0  0
  -10.5087   20.1878  -32.4121 H   0  0  0  0  0  0  0  0  0  0  0  0
   -8.3830   19.6700  -33.7450 H   0  0  0  0  0  0  0  0  0  0  0  0
   -7.7493   18.4222  -31.3415 H   0  0  0  0  0  0  0  0  0  0  0  0
   -8.1158   17.1559  -32.5801 H   0  0  0  0  0  0  0  0  0  0  0  0
   -6.4704   16.5069  -34.0730 H   0  0  0  0  0  0  0  0  0  0  0  0
   -4.2265   16.8547  -35.1030 H   0  0  0  0  0  0  0  0  0  0  0  0
   -2.9559   18.9541  -34.6642 H   0  0  0  0  0  0  0  0  0  0  0  0
   -1.9660   21.2278  -32.1967 H   0  0  0  0  0  0  0  0  0  0  0  0
   -1.9743   20.3220  -33.7479 H   0  0  0  0  0  0  0  0  0  0  0  0
   -2.1920   22.1051  -33.7479 H   0  0  0  0  0  0  0  0  0  0  0  0
   -6.1870   20.3799  -32.1574 H   0  0  0  0  0  0  0  0  0  0  0  0
   -4.9487   21.5205  -30.7611 H   0  0  0  0  0  0  0  0  0  0  0  0
   -2.9059   22.6404  -29.8785 H   0  0  0  0  0  0  0  0  0  0  0  0
  1  2  1  0
  2  3  1  0
  3  4  2  0
  4  5  1  0
  5  6  2  0
  6  7  1  0
  7  8  2  0
  8  9  1  0
  9 10  1  0
 10 11  1  0
 11 12  1  0
 12 13  1  0
 13 14  1  0
 14 15  2  0
 15 16  1  0
 16 17  2  0
 17 18  1  0
 18 19  1  0
 19 20  1  0
 18 21  2  0
 10 22  2  0
  6 23  1  0
 23 24  2  0
 24  3  1  0
 22  7  1  0
 21 14  1  0
  1 25  1  0
  1 26  1  0
  1 27  1  0
  4 28  1  0
  5 29  1  0
 11 30  1  0
 11 31  1  0
 12 32  1  0
 13 33  1  0
 13 34  1  0
 15 35  1  0
 16 36  1  0
 17 37  1  0
 20 38  1  0
 20 39  1  0
 20 40  1  0
 21 41  1  0
 23 42  1  0
 24 43  1  0
M  END
>  <UniqueID>  (17) 
16

>  <SMILES>  (17) 
COc1ccc(-c2noc(CNCc3cccc(OC)c3)n2)cc1

>  <Energy>  (17) 
76.14344375488434

>  <Genealogy>  (17) 
COc1ccc(-c2noc(CNCc3cccc(OC)c3)n2)cc1 (3D coordinates assigned)
COc1ccc(-c2noc(CNCc3cccc(OC)c3)n2)cc1 (optimized conformer: 76.14344375488434 kcal/mol)

>  <smiles>  (17) 
COc1ccc(-c2noc(CNCc3cccc(OC)c3)n2)cc1

>  <score_type>  (17) 
oracle

>  <origin>  (17) 
adgpu

>  <m_score__min__energy>  (17) 
-8.4199999999999999

>  <m_primary>  (17) 
energy

$$$$
17:0
     RDKit          3D

 53 56  0  0  0  0  0  0  0  0999 V2000
    0.9925   23.0308  -28.9033 H   0  0  0  0  0  0  0  0  0  0  0  0
    0.0540   23.6000  -28.9760 C   0  0  0  0  0  0  0  0  0  0  0  0
   -0.0130   24.8630  -28.4830 N   0  0  0  0  0  0  0  0  0  0  0  0
   -1.1650   25.5830  -28.5600 C   0  0  0  0  0  0  0  0  0  0  0  0
   -1.2310   26.7910  -28.0850 N   0  0  0  0  0  0  0  0  0  0  0  0
   -0.1160   27.4790  -27.4400 C   0  0  0  0  0  0  0  0  0  0  0  0
   -0.4920   28.3575  -26.8952 H   0  0  0  0  0  0  0  0  0  0  0  0
    0.6067   27.8047  -28.2027 H   0  0  0  0  0  0  0  0  0  0  0  0
    0.5560   26.5420  -26.4780 C   0  0  0  0  0  0  0  0  0  0  0  0
   -0.1860   25.9180  -25.4640 C   0  0  0  0  0  0  0  0  0  0  0  0
   -1.2586   26.1371  -25.3563 H   0  0  0  0  0  0  0  0  0  0  0  0
    0.4320   25.0190  -24.5900 C   0  0  0  0  0  0  0  0  0  0  0  0
   -0.1561   24.5418  -23.7922 H   0  0  0  0  0  0  0  0  0  0  0  0
    1.7940   24.7210  -24.7220 C   0  0  0  0  0  0  0  0  0  0  0  0
    2.3670   23.8120  -23.8200 O   0  0  0  0  0  0  0  0  0  0  0  0
    3.4750   24.1090  -22.9760 C   0  0  0  0  0  0  0  0  0  0  0  0
    3.1666   24.0263  -21.9234 H   0  0  0  0  0  0  0  0  0  0  0  0
    4.2896   23.3975  -23.1764 H   0  0  0  0  0  0  0  0  0  0  0  0
    3.8246   25.1326  -23.1764 H   0  0  0  0  0  0  0  0  0  0  0  0
    2.5350   25.3350  -25.7500 C   0  0  0  0  0  0  0  0  0  0  0  0
    3.6046   25.1061  -25.8663 H   0  0  0  0  0  0  0  0  0  0  0  0
    1.9160   26.2350  -26.6240 C   0  0  0  0  0  0  0  0  0  0  0  0
    2.4994   26.7042  -27.4299 H   0  0  0  0  0  0  0  0  0  0  0  0
   -2.2640   25.0350  -29.1410 N   0  0  0  0  0  0  0  0  0  0  0  0
   -2.2490   23.7760  -29.6580 C   0  0  0  0  0  0  0  0  0  0  0  0
   -3.4830   23.2280  -30.2770 C   0  0  0  0  0  0  0  0  0  0  0  0
   -4.7470   23.7920  -30.0220 C   0  0  0  0  0  0  0  0  0  0  0  0
   -4.8315   24.6617  -29.3538 H   0  0  0  0  0  0  0  0  0  0  0  0
   -5.8960   23.2560  -30.6110 C   0  0  0  0  0  0  0  0  0  0  0  0
   -6.8757   23.7141  -30.4102 H   0  0  0  0  0  0  0  0  0  0  0  0
   -5.8110   22.1390  -31.4560 C   0  0  0  0  0  0  0  0  0  0  0  0
   -6.9960   21.5950  -32.0710 N   0  0  0  0  0  0  0  0  0  0  0  0
   -6.9130   20.3340  -32.8260 C   0  0  0  0  0  0  0  0  0  0  0  0
   -6.4277   20.5283  -33.7939 H   0  0  0  0  0  0  0  0  0  0  0  0
   -6.3298   19.6145  -32.2325 H   0  0  0  0  0  0  0  0  0  0  0  0
   -8.3040   19.7350  -33.0770 C   0  0  0  0  0  0  0  0  0  0  0  0
   -8.7915   20.2821  -33.8974 H   0  0  0  0  0  0  0  0  0  0  0  0
   -8.1925   18.6737  -33.3440 H   0  0  0  0  0  0  0  0  0  0  0  0
   -9.1680   19.8420  -31.8150 C   0  0  0  0  0  0  0  0  0  0  0  0
  -10.1645   19.4315  -32.0352 H   0  0  0  0  0  0  0  0  0  0  0  0
   -8.6619   19.2778  -31.0178 H   0  0  0  0  0  0  0  0  0  0  0  0
   -9.3310   21.2980  -31.3240 C   0  0  0  0  0  0  0  0  0  0  0  0
  -10.3363   21.6488  -31.6002 H   0  0  0  0  0  0  0  0  0  0  0  0
   -9.1777   21.2929  -30.2348 H   0  0  0  0  0  0  0  0  0  0  0  0
   -8.2960   22.2630  -31.9240 C   0  0  0  0  0  0  0  0  0  0  0  0
   -8.6442   22.5992  -32.9118 H   0  0  0  0  0  0  0  0  0  0  0  0
   -8.1796   23.1246  -31.2501 H   0  0  0  0  0  0  0  0  0  0  0  0
   -4.5520   21.5720  -31.7080 C   0  0  0  0  0  0  0  0  0  0  0  0
   -4.4702   20.6995  -32.3728 H   0  0  0  0  0  0  0  0  0  0  0  0
   -3.4020   22.1060  -31.1220 C   0  0  0  0  0  0  0  0  0  0  0  0
   -2.4237   21.6449  -31.3231 H   0  0  0  0  0  0  0  0  0  0  0  0
   -1.0650   23.0240  -29.5740 C   0  0  0  0  0  0  0  0  0  0  0  0
   -1.0223   21.9998  -29.9729 H   0  0  0  0  0  0  0  0  0  0  0  0
  1  2  1  0
  2  3  1  0
  3  4  1  0
  4  5  2  0
  5  6  1  0
  6  7  1  0
  6  8  1  0
  6  9  1  0
  9 10  2  0
 10 11  1  0
 10 12  1  0
 12 13  1  0
 12 14  2  0
 14 15  1  0
 15 16  1  0
 16 17  1  0
 16 18  1  0
 16 19  1  0
 14 20  1  0
 20 21  1  0
 20 22  2  0
 22 23  1  0
  4 24  1  0
 24 25  2  0
 25 26  1  0
 26 27  2  0
 27 28  1  0
 27 29  1  0
 29 30  1  0
 29 31  2  0
 31 32  1  0
 32 33  1  0
 33 34  1  0
 33 35  1  0
 33 36  1  0
 36 37  1  0
 36 38  1  0
 36 39  1  0
 39 40  1  0
 39 41  1  0
 39 42  1  0
 42 43  1  0
 42 44  1  0
 42 45  1  0
 45 46  1  0
 45 47  1  0
 31 48  1  0
 48 49  1  0
 48 50  2  0
 50 51  1  0
 25 52  1  0
 52 53  1  0
 52  2  2  0
 22  9  1  0
 50 26  1  0
 45 32  1  0
M  CHG  1   3  -1
M  END
>  <UniqueID>  (18) 
17

>  <SMILES>  (18) 
COc1ccc(C/N=c2/nc(-c3ccc(N4CCCCC4)cc3)cc[n-]2)cc1

>  <Energy>  (18) 
64.24736639599212

>  <Genealogy>  (18) 
COc1ccc(CN=c2nc(-c3ccc(N4CCCCC4)cc3)cc[n-]2)cc1 (protonated)
COc1ccc(C/N=c2/nc(-c3ccc(N4CCCCC4)cc3)cc[n-]2)cc1 (cis-trans isomerization)
COc1ccc(C/N=c2/nc(-c3ccc(N4CCCCC4)cc3)cc[n-]2)cc1 (3D coordinates assigned)
COc1ccc(C/N=c2/nc(-c3ccc(N4CCCCC4)cc3)cc[n-]2)cc1 (nonaromatic ring conformer: 64.24736639599212 kcal/mol)

>  <smiles>  (18) 
COc1ccc(CN=c2nc(-c3ccc(N4CCCCC4)cc3)cc[nH]2)cc1

>  <score_type>  (18) 
oracle

>  <origin>  (18) 
adgpu

>  <m_score__min__energy>  (18) 
-9.0600000000000005

>  <m_primary>  (18) 
energy

$$$$
18:0
     RDKit          3D

 45 46  0  0  0  0  0  0  0  0999 V2000
    0.3190   18.2450  -28.4330 C   0  0  0  0  0  0  0  0  0  0  0  0
   -0.4610   18.9260  -29.4030 O   0  0  0  0  0  0  0  0  0  0  0  0
   -1.0120   20.2150  -29.2740 C   0  0  0  0  0  0  0  0  0  0  0  0
   -0.8860   21.0680  -30.3790 C   0  0  0  0  0  0  0  0  0  0  0  0
   -1.3570   22.3810  -30.3350 C   0  0  0  0  0  0  0  0  0  0  0  0
   -1.9860   22.8610  -29.1840 C   0  0  0  0  0  0  0  0  0  0  0  0
   -2.5320   24.5380  -29.0890 S   0  0  0  0  0  0  0  0  0  0  0  0
   -3.3470   24.7280  -27.8370 O   0  0  0  0  0  0  0  0  0  0  0  0
   -1.3380   25.4520  -29.0270 O   0  0  0  0  0  0  0  0  0  0  0  0
   -3.5020   24.9620  -30.4610 N   0  0  0  0  0  0  0  0  0  0  0  0
   -4.7000   24.2600  -30.8010 C   0  0  0  0  0  0  0  0  0  0  0  0
   -5.9410   24.7930  -30.4310 C   0  0  0  0  0  0  0  0  0  0  0  0
   -7.1200   24.1240  -30.7690 C   0  0  0  0  0  0  0  0  0  0  0  0
   -7.0650   22.9090  -31.4580 C   0  0  0  0  0  0  0  0  0  0  0  0
   -5.8270   22.3450  -31.8020 C   0  0  0  0  0  0  0  0  0  0  0  0
   -5.7720   21.0820  -32.4860 N   0  0  0  0  0  0  0  0  0  0  0  0
   -7.0020   20.4350  -32.9360 C   0  0  0  0  0  0  0  0  0  0  0  0
   -4.2380   20.3560  -32.8720 S   0  0  0  0  0  0  0  0  0  0  0  0
   -4.5150   18.8810  -33.8280 C   0  0  0  0  0  0  0  0  0  0  0  0
   -3.3990   21.3030  -33.6820 O   0  0  0  0  0  0  0  0  0  0  0  0
   -3.5090   20.0150  -31.6030 O   0  0  0  0  0  0  0  0  0  0  0  0
   -4.6430   23.0280  -31.4690 C   0  0  0  0  0  0  0  0  0  0  0  0
   -2.1430   22.0190  -28.0770 C   0  0  0  0  0  0  0  0  0  0  0  0
   -1.6550   20.6960  -28.1010 C   0  0  0  0  0  0  0  0  0  0  0  0
   -1.7830   19.8590  -26.9810 O   0  0  0  0  0  0  0  0  0  0  0  0
   -2.9030   19.0220  -26.7040 C   0  0  0  0  0  0  0  0  0  0  0  0
   -0.0135   18.5353  -27.4255 H   0  0  0  0  0  0  0  0  0  0  0  0
    0.1969   17.1593  -28.5608 H   0  0  0  0  0  0  0  0  0  0  0  0
    1.3783   18.5124  -28.5608 H   0  0  0  0  0  0  0  0  0  0  0  0
   -0.4075   20.6960  -31.2970 H   0  0  0  0  0  0  0  0  0  0  0  0
   -1.2327   23.0387  -31.2079 H   0  0  0  0  0  0  0  0  0  0  0  0
   -5.9876   25.7400  -29.8733 H   0  0  0  0  0  0  0  0  0  0  0  0
   -8.0938   24.5544  -30.4923 H   0  0  0  0  0  0  0  0  0  0  0  0
   -7.9968   22.3925  -31.7319 H   0  0  0  0  0  0  0  0  0  0  0  0
   -7.5935   20.1239  -32.0623 H   0  0  0  0  0  0  0  0  0  0  0  0
   -7.5875   21.1418  -33.5423 H   0  0  0  0  0  0  0  0  0  0  0  0
   -6.7512   19.5521  -33.5423 H   0  0  0  0  0  0  0  0  0  0  0  0
   -4.6749   18.0295  -33.1503 H   0  0  0  0  0  0  0  0  0  0  0  0
   -5.4034   19.0166  -34.4623 H   0  0  0  0  0  0  0  0  0  0  0  0
   -3.6379   18.6851  -34.4623 H   0  0  0  0  0  0  0  0  0  0  0  0
   -3.6677   22.5937  -31.7338 H   0  0  0  0  0  0  0  0  0  0  0  0
   -2.6532   22.3937  -27.1774 H   0  0  0  0  0  0  0  0  0  0  0  0
   -3.0297   18.9273  -25.6154 H   0  0  0  0  0  0  0  0  0  0  0  0
   -3.8095   19.4658  -27.1414 H   0  0  0  0  0  0  0  0  0  0  0  0
   -2.7342   18.0269  -27.1414 H   0  0  0  0  0  0  0  0  0  0  0  0
  1  2  1  0
  2  3  1  0
  3  4  2  0
  4  5  1  0
  5  6  2  0
  6  7  1  0
  7  8  2  0
  7  9  2  0
  7 10  1  0
 10 11  1  0
 11 12  2  0
 12 13  1  0
 13 14  2  0
 14 15  1  0
 15 16  1  0
 16 17  1  0
 16 18  1  0
 18 19  1  0
 18 20  2  0
 18 21  2  0
 15 22  2  0
  6 23  1  0
 23 24  2  0
 24 25  1  0
 25 26  1  0
 24  3  1  0
 22 11  1  0
  1 27  1  0
  1 28  1  0
  1 29  1  0
  4 30  1  0
  5 31  1  0
 12 32  1  0
 13 33  1  0
 14 34  1  0
 17 35  1  0
 17 36  1  0
 17 37  1  0
 19 38  1  0
 19 39  1  0
 19 40  1  0
 22 41  1  0
 23 42  1  0
 26 43  1  0
 26 44  1  0
 26 45  1  0
M  CHG  1  10  -1
M  END
>  <UniqueID>  (19) 
18

>  <SMILES>  (19) 
COc1ccc(S(=O)(=O)[N-]c2cccc(N(C)S(C)(=O)=O)c2)cc1OC

>  <Energy>  (19) 
53.08951418846699

>  <Genealogy>  (19) 
COc1ccc(S(=O)(=O)[N-]c2cccc(N(C)S(C)(=O)=O)c2)cc1OC (protonated)
COc1ccc(S(=O)(=O)[N-]c2cccc(N(C)S(C)(=O)=O)c2)cc1OC (3D coordinates assigned)
COc1ccc(S(=O)(=O)[N-]c2cccc(N(C)S(C)(=O)=O)c2)cc1OC (optimized conformer: 53.08951418846699 kcal/mol)

>  <smiles>  (19) 
COc1ccc(S(=O)(=O)Nc2cccc(N(C)S(C)(=O)=O)c2)cc1OC

>  <score_type>  (19) 
oracle

>  <origin>  (19) 
adgpu

>  <m_score__min__energy>  (19) 
-9.1400000000000006

>  <m_primary>  (19) 
energy

$$$$
19:0
     RDKit          3D

 23 24  0  0  0  0  0  0  0  0999 V2000
   -1.5250   25.2950  -29.3360 O   0  0  0  0  0  0  0  0  0  0  0  0
   -2.5140   24.5720  -29.6290 C   0  0  0  0  0  0  0  0  0  0  0  0
   -3.5480   25.1210  -30.4580 N   0  0  0  0  0  0  0  0  0  0  0  0
   -4.8560   24.5690  -30.6680 C   0  0  0  0  0  0  0  0  0  0  0  0
   -4.9880   23.3910  -31.4100 C   0  0  0  0  0  0  0  0  0  0  0  0
   -6.2490   22.8310  -31.6170 C   0  0  0  0  0  0  0  0  0  0  0  0
   -7.3710   23.4480  -31.0610 C   0  0  0  0  0  0  0  0  0  0  0  0
   -7.2270   24.5770  -30.3190 N   0  0  0  0  0  0  0  0  0  0  0  0
   -6.0100   25.1440  -30.1060 C   0  0  0  0  0  0  0  0  0  0  0  0
   -2.5840   23.1960  -29.0880 C   0  0  0  0  0  0  0  0  0  0  0  0
   -1.8460   22.1780  -29.7140 C   0  0  0  0  0  0  0  0  0  0  0  0
   -1.9070   20.9010  -29.2520 N   0  0  0  0  0  0  0  0  0  0  0  0
   -2.6630   20.5670  -28.1740 C   0  0  0  0  0  0  0  0  0  0  0  0
   -3.3950   21.5460  -27.5020 C   0  0  0  0  0  0  0  0  0  0  0  0
   -3.3550   22.8690  -27.9510 C   0  0  0  0  0  0  0  0  0  0  0  0
   -4.2110   24.0910  -27.0160 Cl  0  0  0  0  0  0  0  0  0  0  0  0
   -4.0957   22.9049  -31.8313 H   0  0  0  0  0  0  0  0  0  0  0  0
   -6.3580   21.9125  -32.2124 H   0  0  0  0  0  0  0  0  0  0  0  0
   -8.3713   23.0203  -31.2236 H   0  0  0  0  0  0  0  0  0  0  0  0
   -5.9276   26.0538  -29.4932 H   0  0  0  0  0  0  0  0  0  0  0  0
   -1.2150   22.4155  -30.5832 H   0  0  0  0  0  0  0  0  0  0  0  0
   -2.6980   19.5226  -27.8303 H   0  0  0  0  0  0  0  0  0  0  0  0
   -4.0004   21.2782  -26.6235 H   0  0  0  0  0  0  0  0  0  0  0  0
  1  2  2  0
  2  3  1  0
  3  4  1  0
  4  5  2  0
  5  6  1  0
  6  7  2  0
  7  8  1  0
  8  9  2  0
  2 10  1  0
 10 11  2  0
 11 12  1  0
 12 13  2  0
 13 14  1  0
 14 15  2  0
 15 16  1  0
  9  4  1  0
 15 10  1  0
  5 17  1  0
  6 18  1  0
  7 19  1  0
  9 20  1  0
 11 21  1  0
 13 22  1  0
 14 23  1  0
M  CHG  1   3  -1
M  END
>  <UniqueID>  (20) 
19

>  <SMILES>  (20) 
O=C([N-]c1cccnc1)c1cnccc1Cl

>  <Energy>  (20) 
35.27353904254903

>  <Genealogy>  (20) 
O=C([N-]c1cccnc1)c1cnccc1Cl (protonated)
O=C([N-]c1cccnc1)c1cnccc1Cl (3D coordinates assigned)
O=C([N-]c1cccnc1)c1cnccc1Cl (optimized conformer: 35.27353904254903 kcal/mol)

>  <smiles>  (20) 
O=C(Nc1cccnc1)c1cnccc1Cl

>  <score_type>  (20) 
oracle

>  <origin>  (20) 
adgpu

>  <m_score__min__energy>  (20) 
-7.2800000000000002

>  <m_primary>  (20) 
energy

$$$$
20:0
     RDKit          3D

 33 35  0  0  0  0  0  0  0  0999 V2000
   -9.2640   19.6080  -32.8820 N   0  0  0  0  0  0  0  0  0  0  0  0
   -8.1080   20.4230  -32.6740 C   0  0  0  0  0  0  0  0  0  0  0  0
   -6.8510   20.0260  -33.1810 C   0  0  0  0  0  0  0  0  0  0  0  0
   -5.7160   20.8270  -32.9780 C   0  0  0  0  0  0  0  0  0  0  0  0
   -5.8790   22.0110  -32.2640 C   0  0  0  0  0  0  0  0  0  0  0  0
   -4.9090   22.9000  -31.9750 N   0  0  0  0  0  0  0  0  0  0  0  0
   -5.5620   23.8630  -31.2790 C   0  0  0  0  0  0  0  0  0  0  0  0
   -4.9320   25.0820  -30.7230 C   0  0  0  0  0  0  0  0  0  0  0  0
   -5.6620   26.0740  -30.4610 O   0  0  0  0  0  0  0  0  0  0  0  0
   -3.5240   25.1900  -30.4680 N   0  0  0  0  0  0  0  0  0  0  0  0
   -2.7110   24.2440  -29.7150 C   0  0  0  0  0  0  0  0  0  0  0  0
   -2.3450   24.8510  -28.3910 C   0  0  0  0  0  0  0  0  0  0  0  0
   -3.1530   24.6350  -27.2630 C   0  0  0  0  0  0  0  0  0  0  0  0
   -2.8300   25.2290  -26.0400 C   0  0  0  0  0  0  0  0  0  0  0  0
   -1.7030   26.0510  -25.9360 C   0  0  0  0  0  0  0  0  0  0  0  0
   -1.3910   26.6270  -24.7490 F   0  0  0  0  0  0  0  0  0  0  0  0
   -0.9020   26.2830  -27.0580 C   0  0  0  0  0  0  0  0  0  0  0  0
   -1.2230   25.6920  -28.2830 C   0  0  0  0  0  0  0  0  0  0  0  0
   -6.9070   23.5400  -31.1630 C   0  0  0  0  0  0  0  0  0  0  0  0
   -7.0830   22.3700  -31.7920 N   0  0  0  0  0  0  0  0  0  0  0  0
   -8.2090   21.6320  -31.9620 C   0  0  0  0  0  0  0  0  0  0  0  0
   -9.8440   19.2880  -32.0740 H   0  0  0  0  0  0  0  0  0  0  0  0
   -9.5480   19.3190  -33.8440 H   0  0  0  0  0  0  0  0  0  0  0  0
   -6.7606   19.0823  -33.7390 H   0  0  0  0  0  0  0  0  0  0  0  0
   -4.7320   20.5294  -33.3695 H   0  0  0  0  0  0  0  0  0  0  0  0
   -3.2818   23.3183  -29.5500 H   0  0  0  0  0  0  0  0  0  0  0  0
   -1.7964   24.0114  -30.2801 H   0  0  0  0  0  0  0  0  0  0  0  0
   -4.0443   23.9953  -27.3424 H   0  0  0  0  0  0  0  0  0  0  0  0
   -3.4627   25.0500  -25.1582 H   0  0  0  0  0  0  0  0  0  0  0  0
   -0.0175   26.9319  -26.9765 H   0  0  0  0  0  0  0  0  0  0  0  0
   -0.5959   25.8853  -29.1658 H   0  0  0  0  0  0  0  0  0  0  0  0
   -7.6809   24.1317  -30.6521 H   0  0  0  0  0  0  0  0  0  0  0  0
   -9.1734   21.9696  -31.5546 H   0  0  0  0  0  0  0  0  0  0  0  0
  1  2  1  0
  2  3  1  0
  3  4  2  0
  4  5  1  0
  5  6  2  0
  6  7  1  0
  7  8  1  0
  8  9  2  0
  8 10  1  0
 10 11  1  0
 11 12  1  0
 12 13  2  0
 13 14  1  0
 14 15  2  0
 15 16  1  0
 15 17  1  0
 17 18  2  0
  7 19  2  0
 19 20  1  0
 20 21  1  0
 21  2  2  0
 20  5  1  0
 18 12  1  0
  1 22  1  0
  1 23  1  0
  3 24  1  0
  4 25  1  0
 11 26  1  0
 11 27  1  0
 13 28  1  0
 14 29  1  0
 17 30  1  0
 18 31  1  0
 19 32  1  0
 21 33  1  0
M  CHG  1  10  -1
M  END
>  <UniqueID>  (21) 
20

>  <SMILES>  (21) 
Nc1ccc2nc(C(=O)[N-]Cc3ccc(F)cc3)cn2c1

>  <Energy>  (21) 
67.71260674835521

>  <Genealogy>  (21) 
Nc1ccc2nc(C(=O)[N-]Cc3ccc(F)cc3)cn2c1 (protonated)
Nc1ccc2nc(C(=O)[N-]Cc3ccc(F)cc3)cn2c1 (3D coordinates assigned)
Nc1ccc2nc(C(=O)[N-]Cc3ccc(F)cc3)cn2c1 (optimized conformer: 67.71260674835521 kcal/mol)

>  <smiles>  (21) 
Nc1ccc2nc(C(=O)NCc3ccc(F)cc3)cn2c1

>  <score_type>  (21) 
oracle

>  <origin>  (21) 
adgpu

>  <m_score__min__energy>  (21) 
-9.0899999999999999

>  <m_primary>  (21) 
energy

$$$$
21:0
     RDKit          3D

 37 39  0  0  0  0  0  0  0  0999 V2000
   -7.1660   17.3100  -32.6810 O   0  0  0  0  0  0  0  0  0  0  0  0
   -7.8880   18.2950  -32.3710 C   0  0  0  0  0  0  0  0  0  0  0  0
   -8.9700   18.2100  -31.5820 N   0  0  0  0  0  0  0  0  0  0  0  0
   -9.4820   19.4250  -31.4730 N   0  0  0  0  0  0  0  0  0  0  0  0
   -8.6960   20.2380  -32.2140 C   0  0  0  0  0  0  0  0  0  0  0  0
   -8.9170   21.7200  -32.3120 C   0  0  0  0  0  0  0  0  0  0  0  0
   -7.7900   22.4710  -31.6550 C   0  0  0  0  0  0  0  0  0  0  0  0
   -7.4260   22.1980  -30.3280 C   0  0  0  0  0  0  0  0  0  0  0  0
   -6.3840   22.9040  -29.7200 C   0  0  0  0  0  0  0  0  0  0  0  0
   -5.6810   23.8930  -30.4300 C   0  0  0  0  0  0  0  0  0  0  0  0
   -4.6080   24.6180  -29.8010 N   0  0  0  0  0  0  0  0  0  0  0  0
   -4.5140   24.6660  -28.5580 O   0  0  0  0  0  0  0  0  0  0  0  0
   -3.6680   25.2720  -30.5630 O   0  0  0  0  0  0  0  0  0  0  0  0
   -6.0430   24.1580  -31.7630 C   0  0  0  0  0  0  0  0  0  0  0  0
   -7.0860   23.4520  -32.3700 C   0  0  0  0  0  0  0  0  0  0  0  0
   -7.6720   19.5570  -32.7840 N   0  0  0  0  0  0  0  0  0  0  0  0
   -6.6190   20.0420  -33.6790 C   0  0  0  0  0  0  0  0  0  0  0  0
   -5.4180   20.4920  -32.8890 C   0  0  0  0  0  0  0  0  0  0  0  0
   -4.4920   21.3930  -33.4430 C   0  0  0  0  0  0  0  0  0  0  0  0
   -3.3790   21.8040  -32.7030 C   0  0  0  0  0  0  0  0  0  0  0  0
   -3.1830   21.3240  -31.4060 C   0  0  0  0  0  0  0  0  0  0  0  0
   -4.1030   20.4340  -30.8450 C   0  0  0  0  0  0  0  0  0  0  0  0
   -5.2170   20.0200  -31.5800 C   0  0  0  0  0  0  0  0  0  0  0  0
   -9.3550   17.3540  -31.1250 H   0  0  0  0  0  0  0  0  0  0  0  0
   -8.9725   22.0074  -33.3723 H   0  0  0  0  0  0  0  0  0  0  0  0
   -9.8565   21.9720  -31.7983 H   0  0  0  0  0  0  0  0  0  0  0  0
   -7.9641   21.4232  -29.7622 H   0  0  0  0  0  0  0  0  0  0  0  0
   -6.1118   22.6839  -28.6772 H   0  0  0  0  0  0  0  0  0  0  0  0
   -5.5010   24.9272  -32.3327 H   0  0  0  0  0  0  0  0  0  0  0  0
   -7.3564   23.6668  -33.4144 H   0  0  0  0  0  0  0  0  0  0  0  0
   -6.3209   19.2308  -34.3596 H   0  0  0  0  0  0  0  0  0  0  0  0
   -7.0068   20.8966  -34.2528 H   0  0  0  0  0  0  0  0  0  0  0  0
   -4.6436   21.7763  -34.4629 H   0  0  0  0  0  0  0  0  0  0  0  0
   -2.6563   22.5068  -33.1432 H   0  0  0  0  0  0  0  0  0  0  0  0
   -2.3052   21.6462  -30.8266 H   0  0  0  0  0  0  0  0  0  0  0  0
   -3.9498   20.0585  -29.8225 H   0  0  0  0  0  0  0  0  0  0  0  0
   -5.9397   19.3218  -31.1325 H   0  0  0  0  0  0  0  0  0  0  0  0
  1  2  2  0
  2  3  1  0
  3  4  1  0
  4  5  2  0
  5  6  1  0
  6  7  1  0
  7  8  2  0
  8  9  1  0
  9 10  2  0
 10 11  1  0
 11 12  2  0
 11 13  1  0
 10 14  1  0
 14 15  2  0
  5 16  1  0
 16 17  1  0
 17 18  1  0
 18 19  2  0
 19 20  1  0
 20 21  2  0
 21 22  1  0
 22 23  2  0
 16  2  1  0
 23 18  1  0
 15  7  1  0
  3 24  1  0
  6 25  1  0
  6 26  1  0
  8 27  1  0
  9 28  1  0
 14 29  1  0
 15 30  1  0
 17 31  1  0
 17 32  1  0
 19 33  1  0
 20 34  1  0
 21 35  1  0
 22 36  1  0
 23 37  1  0
M  CHG  2  11   1  13  -1
M  END
>  <UniqueID>  (22) 
21

>  <SMILES>  (22) 
O=c1[nH]nc(Cc2ccc([N+](=O)[O-])cc2)n1Cc1ccccc1

>  <Energy>  (22) 
74.44838811447036

>  <Genealogy>  (22) 
O=c1[nH]nc(Cc2ccc([N+](=O)[O-])cc2)n1Cc1ccccc1 (3D coordinates assigned)
O=c1[nH]nc(Cc2ccc([N+](=O)[O-])cc2)n1Cc1ccccc1 (optimized conformer: 74.44838811447036 kcal/mol)

>  <smiles>  (22) 
O=c1[nH]nc(Cc2ccc([N+](=O)[O-])cc2)n1Cc1ccccc1

>  <score_type>  (22) 
oracle

>  <origin>  (22) 
adgpu

>  <m_score__min__energy>  (22) 
-8.4900000000000002

>  <m_primary>  (22) 
energy

$$$$
22:0
     RDKit          3D

 46 49  0  0  0  0  0  0  0  0999 V2000
   -8.5370   19.3070  -32.1820 C   0  0  0  0  0  0  0  0  0  0  0  0
   -7.0100   19.7400  -33.0700 S   0  0  0  0  0  0  0  0  0  0  0  0
   -6.8670   21.3540  -32.2990 C   0  0  0  0  0  0  0  0  0  0  0  0
   -8.0190   22.0650  -31.9470 C   0  0  0  0  0  0  0  0  0  0  0  0
   -7.9090   23.3400  -31.3860 C   0  0  0  0  0  0  0  0  0  0  0  0
   -6.6500   23.9050  -31.1660 C   0  0  0  0  0  0  0  0  0  0  0  0
   -5.4870   23.1820  -31.4850 C   0  0  0  0  0  0  0  0  0  0  0  0
   -4.1760   23.7250  -31.2700 N   0  0  0  0  0  0  0  0  0  0  0  0
   -3.8410   24.8700  -30.4720 C   0  0  0  0  0  0  0  0  0  0  0  0
   -4.6200   25.8590  -30.4770 O   0  0  0  0  0  0  0  0  0  0  0  0
   -2.6510   24.9310  -29.6720 N   0  0  0  0  0  0  0  0  0  0  0  0
   -1.9410   23.8250  -29.0960 C   0  0  0  0  0  0  0  0  0  0  0  0
   -1.5590   23.8970  -27.7520 C   0  0  0  0  0  0  0  0  0  0  0  0
   -0.8620   22.8420  -27.1580 C   0  0  0  0  0  0  0  0  0  0  0  0
   -0.5330   21.7090  -27.9060 C   0  0  0  0  0  0  0  0  0  0  0  0
   -0.8900   21.6280  -29.2610 C   0  0  0  0  0  0  0  0  0  0  0  0
   -0.5560   20.4020  -30.0670 C   0  0  0  0  0  0  0  0  0  0  0  0
   -1.0680   20.5270  -31.4320 N   0  0  0  0  0  0  0  0  0  0  0  0
   -2.3620   20.4810  -31.8390 C   0  0  0  0  0  0  0  0  0  0  0  0
   -3.3370   20.3650  -31.0490 O   0  0  0  0  0  0  0  0  0  0  0  0
   -2.4970   20.5620  -33.1510 O   0  0  0  0  0  0  0  0  0  0  0  0
   -1.2770   20.6550  -33.6250 C   0  0  0  0  0  0  0  0  0  0  0  0
   -0.8670   20.7530  -34.9510 C   0  0  0  0  0  0  0  0  0  0  0  0
    0.5170   20.8240  -35.2030 C   0  0  0  0  0  0  0  0  0  0  0  0
    0.9760   20.9210  -36.5120 O   0  0  0  0  0  0  0  0  0  0  0  0
    1.4420   20.7940  -34.1330 C   0  0  0  0  0  0  0  0  0  0  0  0
    0.9940   20.6970  -32.8030 C   0  0  0  0  0  0  0  0  0  0  0  0
   -0.3850   20.6320  -32.5880 C   0  0  0  0  0  0  0  0  0  0  0  0
   -1.5830   22.6970  -29.8550 C   0  0  0  0  0  0  0  0  0  0  0  0
   -5.6040   21.9160  -32.0730 C   0  0  0  0  0  0  0  0  0  0  0  0
   -8.3577   19.3578  -31.0979 H   0  0  0  0  0  0  0  0  0  0  0  0
   -9.3335   20.0147  -32.4555 H   0  0  0  0  0  0  0  0  0  0  0  0
   -8.8434   18.2866  -32.4555 H   0  0  0  0  0  0  0  0  0  0  0  0
   -9.0116   21.6204  -32.1118 H   0  0  0  0  0  0  0  0  0  0  0  0
   -8.8163   23.9007  -31.1167 H   0  0  0  0  0  0  0  0  0  0  0  0
   -6.5686   24.9170  -30.7426 H   0  0  0  0  0  0  0  0  0  0  0  0
   -1.8089   24.7895  -27.1596 H   0  0  0  0  0  0  0  0  0  0  0  0
   -0.5716   22.9036  -26.0988 H   0  0  0  0  0  0  0  0  0  0  0  0
    0.0079   20.8771  -27.4313 H   0  0  0  0  0  0  0  0  0  0  0  0
    0.5365   20.2783  -30.1007 H   0  0  0  0  0  0  0  0  0  0  0  0
   -1.0239   19.5272  -29.5918 H   0  0  0  0  0  0  0  0  0  0  0  0
   -1.5976   20.7743  -35.7731 H   0  0  0  0  0  0  0  0  0  0  0  0
    2.5205   20.8470  -34.3427 H   0  0  0  0  0  0  0  0  0  0  0  0
    1.7036   20.6732  -31.9628 H   0  0  0  0  0  0  0  0  0  0  0  0
   -1.8472   22.6507  -30.9218 H   0  0  0  0  0  0  0  0  0  0  0  0
   -4.6989   21.3600  -32.3589 H   0  0  0  0  0  0  0  0  0  0  0  0
  1  2  1  0
  2  3  1  0
  3  4  2  0
  4  5  1  0
  5  6  2  0
  6  7  1  0
  7  8  1  0
  8  9  1  0
  9 10  2  0
  9 11  1  0
 11 12  1  0
 12 13  2  0
 13 14  1  0
 14 15  2  0
 15 16  1  0
 16 17  1  0
 17 18  1  0
 18 19  1  0
 19 20  2  0
 19 21  1  0
 21 22  1  0
 22 23  2  0
 23 24  1  0
 24 25  1  0
 24 26  2  0
 26 27  1  0
 27 28  2  0
 16 29  2  0
  7 30  2  0
 30  3  1  0
 29 12  1  0
 28 18  1  0
 28 22  1  0
  1 31  1  0
  1 32  1  0
  1 33  1  0
  4 34  1  0
  5 35  1  0
  6 36  1  0
 13 37  1  0
 14 38  1  0
 15 39  1  0
 17 40  1  0
 17 41  1  0
 23 42  1  0
 26 43  1  0
 27 44  1  0
 29 45  1  0
 30 46  1  0
M  CHG  3   8  -1  11  -1  25  -1
M  END
>  <UniqueID>  (23) 
22

>  <SMILES>  (23) 
CSc1cccc([N-]C(=O)[N-]c2cccc(Cn3c(=O)oc4cc([O-])ccc43)c2)c1

>  <Energy>  (23) 
91.624769165924

>  <Genealogy>  (23) 
CSc1cccc([N-]C(=O)[N-]c2cccc(Cn3c(=O)oc4cc([O-])ccc43)c2)c1 (protonated)
CSc1cccc([N-]C(=O)[N-]c2cccc(Cn3c(=O)oc4cc([O-])ccc43)c2)c1 (3D coordinates assigned)
CSc1cccc([N-]C(=O)[N-]c2cccc(Cn3c(=O)oc4cc([O-])ccc43)c2)c1 (optimized conformer: 91.624769165924 kcal/mol)

>  <smiles>  (23) 
CSc1cccc(NC(=O)Nc2cccc(Cn3c(=O)oc4cc(O)ccc43)c2)c1

>  <score_type>  (23) 
oracle

>  <origin>  (23) 
adgpu

>  <m_score__min__energy>  (23) 
-11.6

>  <m_primary>  (23) 
energy

$$$$
23:0
     RDKit          3D

 36 38  0  0  0  0  0  0  0  0999 V2000
    2.9440   20.2500  -35.5620 O   0  0  0  0  0  0  0  0  0  0  0  0
    1.8200   20.5620  -34.8060 C   0  0  0  0  0  0  0  0  0  0  0  0
    0.7810   21.3040  -35.3710 C   0  0  0  0  0  0  0  0  0  0  0  0
   -0.3510   21.6190  -34.6130 C   0  0  0  0  0  0  0  0  0  0  0  0
   -0.4550   21.1940  -33.2750 C   0  0  0  0  0  0  0  0  0  0  0  0
   -1.6260   21.5150  -32.4920 N   0  0  0  0  0  0  0  0  0  0  0  0
   -2.9430   21.5560  -33.1500 C   0  0  0  0  0  0  0  0  0  0  0  0
   -4.0830   21.5440  -32.1300 C   0  0  0  0  0  0  0  0  0  0  0  0
   -3.8320   22.5560  -31.0990 N   0  0  0  0  0  0  0  0  0  0  0  0
   -4.9010   23.4030  -30.6460 C   0  0  0  0  0  0  0  0  0  0  0  0
   -6.1950   22.8800  -30.4930 C   0  0  0  0  0  0  0  0  0  0  0  0
   -7.2390   23.7000  -30.0550 C   0  0  0  0  0  0  0  0  0  0  0  0
   -6.9980   25.0450  -29.7640 C   0  0  0  0  0  0  0  0  0  0  0  0
   -5.7120   25.5730  -29.9080 C   0  0  0  0  0  0  0  0  0  0  0  0
   -4.6620   24.7560  -30.3440 C   0  0  0  0  0  0  0  0  0  0  0  0
   -3.3840   25.2910  -30.4630 O   0  0  0  0  0  0  0  0  0  0  0  0
   -2.5010   22.6890  -30.4950 C   0  0  0  0  0  0  0  0  0  0  0  0
   -1.5280   21.6280  -31.0270 C   0  0  0  0  0  0  0  0  0  0  0  0
    0.5980   20.4430  -32.7180 C   0  0  0  0  0  0  0  0  0  0  0  0
    1.7270   20.1310  -33.4800 C   0  0  0  0  0  0  0  0  0  0  0  0
    0.8531   21.6417  -36.4154 H   0  0  0  0  0  0  0  0  0  0  0  0
   -1.1660   22.2030  -35.0654 H   0  0  0  0  0  0  0  0  0  0  0  0
   -3.0126   22.4738  -33.7523 H   0  0  0  0  0  0  0  0  0  0  0  0
   -3.0389   20.6619  -33.7836 H   0  0  0  0  0  0  0  0  0  0  0  0
   -5.0320   21.7678  -32.6392 H   0  0  0  0  0  0  0  0  0  0  0  0
   -4.1421   20.5511  -31.6602 H   0  0  0  0  0  0  0  0  0  0  0  0
   -6.3880   21.8208  -30.7187 H   0  0  0  0  0  0  0  0  0  0  0  0
   -8.2514   23.2858  -29.9393 H   0  0  0  0  0  0  0  0  0  0  0  0
   -7.8212   25.6891  -29.4212 H   0  0  0  0  0  0  0  0  0  0  0  0
   -5.5245   26.6323  -29.6784 H   0  0  0  0  0  0  0  0  0  0  0  0
   -2.1020   23.6873  -30.7277 H   0  0  0  0  0  0  0  0  0  0  0  0
   -2.6016   22.5483  -29.4087 H   0  0  0  0  0  0  0  0  0  0  0  0
   -0.5007   21.9124  -30.7553 H   0  0  0  0  0  0  0  0  0  0  0  0
   -1.7876   20.6567  -30.5807 H   0  0  0  0  0  0  0  0  0  0  0  0
    0.5313   20.0994  -31.6752 H   0  0  0  0  0  0  0  0  0  0  0  0
    2.5445   19.5447  -33.0350 H   0  0  0  0  0  0  0  0  0  0  0  0
  1  2  1  0
  2  3  2  0
  3  4  1  0
  4  5  2  0
  5  6  1  0
  6  7  1  0
  7  8  1  0
  8  9  1  0
  9 10  1  0
 10 11  2  0
 11 12  1  0
 12 13  2  0
 13 14  1  0
 14 15  2  0
 15 16  1  0
  9 17  1  0
 17 18  1  0
  5 19  1  0
 19 20  2  0
 20  2  1  0
 18  6  1  0
 15 10  1  0
  3 21  1  0
  4 22  1  0
  7 23  1  0
  7 24  1  0
  8 25  1  0
  8 26  1  0
 11 27  1  0
 12 28  1  0
 13 29  1  0
 14 30  1  0
 17 31  1  0
 17 32  1  0
 18 33  1  0
 18 34  1  0
 19 35  1  0
 20 36  1  0
M  CHG  2   1  -1  16  -1
M  END
>  <UniqueID>  (24) 
23

>  <SMILES>  (24) 
[O-]c1ccc(N2CCN(c3ccccc3[O-])CC2)cc1

>  <Energy>  (24) 
46.87330966269545

>  <Genealogy>  (24) 
[O-]c1ccc(N2CCN(c3ccccc3[O-])CC2)cc1 (protonated)
[O-]c1ccc(N2CCN(c3ccccc3[O-])CC2)cc1 (3D coordinates assigned)
[O-]c1ccc(N2CCN(c3ccccc3[O-])CC2)cc1 (nonaromatic ring conformer: 46.87330966269545 kcal/mol)

>  <smiles>  (24) 
Oc1ccc(N2CCN(c3ccccc3O)CC2)cc1

>  <score_type>  (24) 
oracle

>  <origin>  (24) 
adgpu

>  <m_score__min__energy>  (24) 
-9.6300000000000008

>  <m_primary>  (24) 
energy

$$$$
24:0
     RDKit          3D

 40 42  0  0  0  0  0  0  0  0999 V2000
   -8.0120   20.4430  -33.4500 O   0  0  0  0  0  0  0  0  0  0  0  0
   -7.7040   20.3770  -31.9800 S   0  0  0  0  0  0  0  0  0  0  0  0
   -8.9600   20.5850  -31.1810 O   0  0  0  0  0  0  0  0  0  0  0  0
   -7.0110   18.8300  -31.6070 N   0  0  0  0  0  0  0  0  0  0  0  0
   -6.4580   18.0090  -32.4520 C   0  0  0  0  0  0  0  0  0  0  0  0
   -5.9560   16.7930  -31.9690 C   0  0  0  0  0  0  0  0  0  0  0  0
   -5.3600   15.8930  -32.8510 C   0  0  0  0  0  0  0  0  0  0  0  0
   -5.2630   16.2110  -34.2050 C   0  0  0  0  0  0  0  0  0  0  0  0
   -5.7690   17.4280  -34.6580 C   0  0  0  0  0  0  0  0  0  0  0  0
   -6.3540   18.2970  -33.7880 N   0  0  0  0  0  0  0  0  0  0  0  0
   -6.5450   21.6330  -31.5610 C   0  0  0  0  0  0  0  0  0  0  0  0
   -5.2360   21.5920  -32.0620 C   0  0  0  0  0  0  0  0  0  0  0  0
   -4.3180   22.5860  -31.7150 C   0  0  0  0  0  0  0  0  0  0  0  0
   -4.6990   23.6380  -30.8620 C   0  0  0  0  0  0  0  0  0  0  0  0
   -3.7820   24.6670  -30.4630 N   0  0  0  0  0  0  0  0  0  0  0  0
   -2.6770   24.5560  -29.1310 S   0  0  0  0  0  0  0  0  0  0  0  0
   -1.5560   25.5350  -29.3410 O   0  0  0  0  0  0  0  0  0  0  0  0
   -3.4000   24.9050  -27.8630 O   0  0  0  0  0  0  0  0  0  0  0  0
   -2.0610   22.9110  -29.0030 C   0  0  0  0  0  0  0  0  0  0  0  0
   -2.6340   22.0020  -28.1010 C   0  0  0  0  0  0  0  0  0  0  0  0
   -2.1270   20.7040  -27.9980 C   0  0  0  0  0  0  0  0  0  0  0  0
   -1.0430   20.3080  -28.7930 C   0  0  0  0  0  0  0  0  0  0  0  0
   -0.5510   19.0490  -28.6900 F   0  0  0  0  0  0  0  0  0  0  0  0
   -0.4700   21.2130  -29.6910 C   0  0  0  0  0  0  0  0  0  0  0  0
   -0.9760   22.5110  -29.7980 C   0  0  0  0  0  0  0  0  0  0  0  0
   -6.0130   23.6840  -30.3790 C   0  0  0  0  0  0  0  0  0  0  0  0
   -6.9290   22.6860  -30.7210 C   0  0  0  0  0  0  0  0  0  0  0  0
   -6.0319   16.5499  -30.8989 H   0  0  0  0  0  0  0  0  0  0  0  0
   -4.9674   14.9348  -32.4799 H   0  0  0  0  0  0  0  0  0  0  0  0
   -4.7920   15.5086  -34.9084 H   0  0  0  0  0  0  0  0  0  0  0  0
   -5.6954   17.6880  -35.7243 H   0  0  0  0  0  0  0  0  0  0  0  0
   -6.7190   19.1910  -34.1830 H   0  0  0  0  0  0  0  0  0  0  0  0
   -4.9308   20.7738  -32.7309 H   0  0  0  0  0  0  0  0  0  0  0  0
   -3.2923   22.5461  -32.1105 H   0  0  0  0  0  0  0  0  0  0  0  0
   -3.4833   22.3114  -27.4742 H   0  0  0  0  0  0  0  0  0  0  0  0
   -2.5794   19.9921  -27.2919 H   0  0  0  0  0  0  0  0  0  0  0  0
    0.3812   20.9026  -30.3148 H   0  0  0  0  0  0  0  0  0  0  0  0
   -0.5232   23.2203  -30.5064 H   0  0  0  0  0  0  0  0  0  0  0  0
   -6.3260   24.5118  -29.7257 H   0  0  0  0  0  0  0  0  0  0  0  0
   -7.9559   22.7274  -30.3290 H   0  0  0  0  0  0  0  0  0  0  0  0
  1  2  2  0
  2  3  2  0
  2  4  1  0
  4  5  2  3
  5  6  1  0
  6  7  2  0
  7  8  1  0
  8  9  2  0
  9 10  1  0
  2 11  1  0
 11 12  2  0
 12 13  1  0
 13 14  2  0
 14 15  1  0
 15 16  1  0
 16 17  2  0
 16 18  2  0
 16 19  1  0
 19 20  2  0
 20 21  1  0
 21 22  2  0
 22 23  1  0
 22 24  1  0
 24 25  2  0
 14 26  1  0
 26 27  2  0
 10  5  1  0
 27 11  1  0
 25 19  1  0
  6 28  1  0
  7 29  1  0
  8 30  1  0
  9 31  1  0
 10 32  1  0
 12 33  1  0
 13 34  1  0
 20 35  1  0
 21 36  1  0
 24 37  1  0
 25 38  1  0
 26 39  1  0
 27 40  1  0
M  CHG  1  15  -1
M  END
>  <UniqueID>  (25) 
24

>  <SMILES>  (25) 
O=S(=O)(N=c1cccc[nH]1)c1ccc([N-]S(=O)(=O)c2ccc(F)cc2)cc1

>  <Energy>  (25) 
52.01572511382415

>  <Genealogy>  (25) 
O=S(=O)(N=c1cccc[nH]1)c1ccc([N-]S(=O)(=O)c2ccc(F)cc2)cc1 (protonated)
O=S(=O)(N=c1cccc[nH]1)c1ccc([N-]S(=O)(=O)c2ccc(F)cc2)cc1 (3D coordinates assigned)
O=S(=O)(N=c1cccc[nH]1)c1ccc([N-]S(=O)(=O)c2ccc(F)cc2)cc1 (optimized conformer: 52.01572511382415 kcal/mol)

>  <smiles>  (25) 
O=S(=O)(N=c1cccc[nH]1)c1ccc(NS(=O)(=O)c2ccc(F)cc2)cc1

>  <score_type>  (25) 
oracle

>  <origin>  (25) 
adgpu

>  <m_score__min__energy>  (25) 
-10.720000000000001

>  <m_primary>  (25) 
energy

$$$$
25:0
     RDKit          3D

 41 43  0  0  0  0  0  0  0  0999 V2000
   -5.1240   25.3860  -31.4580 H   0  0  0  0  0  0  0  0  0  0  0  0
   -4.3080   25.5820  -30.8400 N   0  0  0  0  0  0  0  0  0  0  0  0
   -3.8050   24.7010  -30.0320 C   0  0  0  0  0  0  0  0  0  0  0  0
   -2.7100   24.9420  -29.2880 N   0  0  0  0  0  0  0  0  0  0  0  0
   -2.5150   23.7380  -28.7020 C   0  0  0  0  0  0  0  0  0  0  0  0
   -1.5680   23.4830  -27.8470 N   0  0  0  0  0  0  0  0  0  0  0  0
   -0.5200   24.3780  -27.4400 C   0  0  0  0  0  0  0  0  0  0  0  0
    0.7890   24.0960  -27.8330 C   0  0  0  0  0  0  0  0  0  0  0  0
    0.9974   23.1959  -28.4300 H   0  0  0  0  0  0  0  0  0  0  0  0
    1.8350   24.9460  -27.4750 C   0  0  0  0  0  0  0  0  0  0  0  0
    2.8627   24.7033  -27.7832 H   0  0  0  0  0  0  0  0  0  0  0  0
    1.5910   26.1090  -26.7250 C   0  0  0  0  0  0  0  0  0  0  0  0
    2.7570   26.9930  -26.3690 C   0  0  0  0  0  0  0  0  0  0  0  0
    2.8455   27.0601  -25.2746 H   0  0  0  0  0  0  0  0  0  0  0  0
    3.6812   26.5666  -26.7862 H   0  0  0  0  0  0  0  0  0  0  0  0
    2.5960   27.9980  -26.7862 H   0  0  0  0  0  0  0  0  0  0  0  0
    0.2560   26.4370  -26.3750 C   0  0  0  0  0  0  0  0  0  0  0  0
   -0.1610   27.9060  -25.4720 S   0  0  0  0  0  0  0  0  0  0  0  0
    1.0500   28.7730  -25.2730 O   0  0  0  0  0  0  0  0  0  0  0  0
   -1.1800   28.7000  -26.2420 O   0  0  0  0  0  0  0  0  0  0  0  0
   -0.8300   27.4780  -23.9360 N   0  0  0  0  0  0  0  0  0  0  0  0
   -1.8610   27.6330  -23.9900 H   0  0  0  0  0  0  0  0  0  0  0  0
   -0.4600   28.1660  -23.2410 H   0  0  0  0  0  0  0  0  0  0  0  0
   -0.7840   25.5640  -26.7340 C   0  0  0  0  0  0  0  0  0  0  0  0
   -1.8197   25.8121  -26.4587 H   0  0  0  0  0  0  0  0  0  0  0  0
   -3.4370   22.8190  -29.0510 N   0  0  0  0  0  0  0  0  0  0  0  0
   -4.2520   23.4340  -29.8900 N   0  0  0  0  0  0  0  0  0  0  0  0
   -5.3980   22.8040  -30.4850 C   0  0  0  0  0  0  0  0  0  0  0  0
   -6.6850   23.2660  -30.1770 C   0  0  0  0  0  0  0  0  0  0  0  0
   -6.8126   24.0937  -29.4638 H   0  0  0  0  0  0  0  0  0  0  0  0
   -7.8060   22.6820  -30.7700 C   0  0  0  0  0  0  0  0  0  0  0  0
   -8.8116   23.0454  -30.5116 H   0  0  0  0  0  0  0  0  0  0  0  0
   -7.6600   21.6340  -31.6940 C   0  0  0  0  0  0  0  0  0  0  0  0
   -8.8750   21.0170  -32.3250 C   0  0  0  0  0  0  0  0  0  0  0  0
   -9.5602   20.6690  -31.5380 H   0  0  0  0  0  0  0  0  0  0  0  0
   -9.3841   21.7658  -32.9496 H   0  0  0  0  0  0  0  0  0  0  0  0
   -8.5707   20.1642  -32.9496 H   0  0  0  0  0  0  0  0  0  0  0  0
   -6.3650   21.1860  -32.0250 C   0  0  0  0  0  0  0  0  0  0  0  0
   -6.0790   19.7810  -33.3000 Br  0  0  0  0  0  0  0  0  0  0  0  0
   -5.2450   21.7760  -31.4270 C   0  0  0  0  0  0  0  0  0  0  0  0
   -4.2365   21.4305  -31.6982 H   0  0  0  0  0  0  0  0  0  0  0  0
  1  2  1  0
  2  3  2  3
  3  4  1  0
  4  5  1  0
  5  6  2  0
  6  7  1  0
  7  8  2  0
  8  9  1  0
  8 10  1  0
 10 11  1  0
 10 12  2  0
 12 13  1  0
 13 14  1  0
 13 15  1  0
 13 16  1  0
 12 17  1  0
 17 18  1  0
 18 19  2  0
 18 20  2  0
 18 21  1  0
 21 22  1  0
 21 23  1  0
 17 24  2  0
 24 25  1  0
  5 26  1  0
 26 27  1  0
 27 28  1  0
 28 29  2  0
 29 30  1  0
 29 31  1  0
 31 32  1  0
 31 33  2  0
 33 34  1  0
 34 35  1  0
 34 36  1  0
 34 37  1  0
 33 38  1  0
 38 39  1  0
 38 40  2  0
 40 41  1  0
 27  3  1  0
 40 28  1  0
 24  7  1  0
M  CHG  2   4  -1  26  -1
M  END
>  <UniqueID>  (26) 
25

>  <SMILES>  (26) 
Cc1ccc(-n2[n-]/c(=N/c3ccc(C)c(S(N)(=O)=O)c3)[n-]c2=N)cc1Br

>  <Energy>  (26) 
90.75733113417849

>  <Genealogy>  (26) 
Cc1ccc(-n2[n-]c(=Nc3ccc(C)c(S(N)(=O)=O)c3)[n-]c2=N)cc1Br (protonated)
Cc1ccc(-n2[n-]/c(=N/c3ccc(C)c(S(N)(=O)=O)c3)[n-]c2=N)cc1Br (cis-trans isomerization)
Cc1ccc(-n2[n-]/c(=N/c3ccc(C)c(S(N)(=O)=O)c3)[n-]c2=N)cc1Br (3D coordinates assigned)
Cc1ccc(-n2[n-]/c(=N/c3ccc(C)c(S(N)(=O)=O)c3)[n-]c2=N)cc1Br (optimized conformer: 90.75733113417849 kcal/mol)

>  <smiles>  (26) 
Cc1ccc(-n2[nH]c(=Nc3ccc(C)c(S(N)(=O)=O)c3)[nH]c2=N)cc1Br

>  <score_type>  (26) 
oracle

>  <origin>  (26) 
adgpu

>  <m_score__min__energy>  (26) 
-10.869999999999999

>  <m_primary>  (26) 
energy

$$$$
26:0
     RDKit          3D

 41 43  0  0  0  0  0  0  0  0999 V2000
   -1.1620   25.4140  -28.4690 C   0  0  0  0  0  0  0  0  0  0  0  0
   -2.3420   25.2960  -29.3190 N   0  0  0  0  0  0  0  0  0  0  0  0
   -3.2590   23.8940  -28.8590 S   0  0  0  0  0  0  0  0  0  0  0  0
   -3.5530   23.9600  -27.3870 O   0  0  0  0  0  0  0  0  0  0  0  0
   -2.4560   22.6510  -29.1270 O   0  0  0  0  0  0  0  0  0  0  0  0
   -4.7780   23.8370  -29.7480 C   0  0  0  0  0  0  0  0  0  0  0  0
   -5.6360   24.9440  -29.7330 C   0  0  0  0  0  0  0  0  0  0  0  0
   -6.8300   24.9190  -30.4600 C   0  0  0  0  0  0  0  0  0  0  0  0
   -7.1740   23.7860  -31.2020 C   0  0  0  0  0  0  0  0  0  0  0  0
   -6.3350   22.6580  -31.2010 C   0  0  0  0  0  0  0  0  0  0  0  0
   -6.6360   21.5060  -32.0020 N   0  0  0  0  0  0  0  0  0  0  0  0
   -5.7880   20.7280  -32.6140 C   0  0  0  0  0  0  0  0  0  0  0  0
   -6.2620   19.6150  -33.2330 N   0  0  0  0  0  0  0  0  0  0  0  0
   -5.4380   18.7650  -33.8960 C   0  0  0  0  0  0  0  0  0  0  0  0
   -5.9970   17.5340  -34.5370 C   0  0  0  0  0  0  0  0  0  0  0  0
   -4.0690   19.0270  -33.9430 C   0  0  0  0  0  0  0  0  0  0  0  0
   -3.5800   20.1860  -33.3240 C   0  0  0  0  0  0  0  0  0  0  0  0
   -2.1300   20.5050  -33.3630 C   0  0  0  0  0  0  0  0  0  0  0  0
   -1.4460   20.9020  -32.2010 C   0  0  0  0  0  0  0  0  0  0  0  0
   -0.0810   21.1920  -32.2670 C   0  0  0  0  0  0  0  0  0  0  0  0
    0.5820   21.0910  -33.4480 N   0  0  0  0  0  0  0  0  0  0  0  0
   -0.0500   20.7080  -34.5890 C   0  0  0  0  0  0  0  0  0  0  0  0
   -1.4140   20.4090  -34.5680 C   0  0  0  0  0  0  0  0  0  0  0  0
   -4.4520   21.0190  -32.6830 N   0  0  0  0  0  0  0  0  0  0  0  0
   -5.1240   22.7030  -30.4980 C   0  0  0  0  0  0  0  0  0  0  0  0
   -1.4666   25.3835  -27.4125 H   0  0  0  0  0  0  0  0  0  0  0  0
   -0.4755   24.5800  -28.6769 H   0  0  0  0  0  0  0  0  0  0  0  0
   -0.6542   26.3674  -28.6769 H   0  0  0  0  0  0  0  0  0  0  0  0
   -5.3695   25.8361  -29.1472 H   0  0  0  0  0  0  0  0  0  0  0  0
   -7.4992   25.7920  -30.4479 H   0  0  0  0  0  0  0  0  0  0  0  0
   -8.1044   23.7767  -31.7888 H   0  0  0  0  0  0  0  0  0  0  0  0
   -6.3177   16.8278  -33.7570 H   0  0  0  0  0  0  0  0  0  0  0  0
   -6.8599   17.8060  -35.1626 H   0  0  0  0  0  0  0  0  0  0  0  0
   -5.2244   17.0632  -35.1626 H   0  0  0  0  0  0  0  0  0  0  0  0
   -3.3846   18.3361  -34.4570 H   0  0  0  0  0  0  0  0  0  0  0  0
   -1.9828   20.9839  -31.2444 H   0  0  0  0  0  0  0  0  0  0  0  0
    0.4582   21.5030  -31.3601 H   0  0  0  0  0  0  0  0  0  0  0  0
    0.5140   20.6335  -35.5305 H   0  0  0  0  0  0  0  0  0  0  0  0
   -1.9257   20.0996  -35.4912 H   0  0  0  0  0  0  0  0  0  0  0  0
   -4.0860   21.9160  -32.2940 H   0  0  0  0  0  0  0  0  0  0  0  0
   -4.4394   21.8428  -30.5344 H   0  0  0  0  0  0  0  0  0  0  0  0
  1  2  1  0
  2  3  1  0
  3  4  2  0
  3  5  2  0
  3  6  1  0
  6  7  2  0
  7  8  1  0
  8  9  2  0
  9 10  1  0
 10 11  1  0
 11 12  2  3
 12 13  1  0
 13 14  2  0
 14 15  1  0
 14 16  1  0
 16 17  2  0
 17 18  1  0
 18 19  2  0
 19 20  1  0
 20 21  2  0
 21 22  1  0
 22 23  2  0
 17 24  1  0
 10 25  2  0
 25  6  1  0
 24 12  1  0
 23 18  1  0
  1 26  1  0
  1 27  1  0
  1 28  1  0
  7 29  1  0
  8 30  1  0
  9 31  1  0
 15 32  1  0
 15 33  1  0
 15 34  1  0
 16 35  1  0
 19 36  1  0
 20 37  1  0
 22 38  1  0
 23 39  1  0
 24 40  1  0
 25 41  1  0
M  CHG  1   2  -1
M  END
>  <UniqueID>  (27) 
26

>  <SMILES>  (27) 
C[N-]S(=O)(=O)c1cccc(N=c2nc(C)cc(-c3ccncc3)[nH]2)c1

>  <Energy>  (27) 
55.026528032230395

>  <Genealogy>  (27) 
C[N-]S(=O)(=O)c1cccc(N=c2nc(C)cc(-c3ccncc3)[nH]2)c1 (protonated)
C[N-]S(=O)(=O)c1cccc(N=c2nc(C)cc(-c3ccncc3)[nH]2)c1 (3D coordinates assigned)
C[N-]S(=O)(=O)c1cccc(N=c2nc(C)cc(-c3ccncc3)[nH]2)c1 (optimized conformer: 55.026528032230395 kcal/mol)

>  <smiles>  (27) 
CNS(=O)(=O)c1cccc(N=c2nc(C)cc(-c3ccncc3)[nH]2)c1

>  <score_type>  (27) 
oracle

>  <origin>  (27) 
adgpu

>  <m_score__min__energy>  (27) 
-9.5399999999999991

>  <m_primary>  (27) 
energy

$$$$
27:0
     RDKit          3D

 47 49  0  0  0  0  0  0  0  0999 V2000
   -8.6730   19.3490  -31.9960 C   0  0  0  0  0  0  0  0  0  0  0  0
   -8.2660   20.5290  -32.6840 O   0  0  0  0  0  0  0  0  0  0  0  0
   -7.5680   21.5950  -32.0930 C   0  0  0  0  0  0  0  0  0  0  0  0
   -8.1880   22.8260  -31.8090 C   0  0  0  0  0  0  0  0  0  0  0  0
   -7.4630   23.8630  -31.2190 C   0  0  0  0  0  0  0  0  0  0  0  0
   -6.1060   23.6970  -30.9280 C   0  0  0  0  0  0  0  0  0  0  0  0
   -5.2010   25.0020  -30.1620 S   0  0  0  0  0  0  0  0  0  0  0  0
   -5.6950   26.3380  -30.6430 O   0  0  0  0  0  0  0  0  0  0  0  0
   -5.4020   24.9310  -28.6740 O   0  0  0  0  0  0  0  0  0  0  0  0
   -3.5140   24.8160  -30.5080 N   0  0  0  0  0  0  0  0  0  0  0  0
   -2.6340   24.0280  -29.6990 C   0  0  0  0  0  0  0  0  0  0  0  0
   -2.8380   22.6420  -29.6370 C   0  0  0  0  0  0  0  0  0  0  0  0
   -1.9920   21.8360  -28.8730 C   0  0  0  0  0  0  0  0  0  0  0  0
   -0.9450   22.4120  -28.1510 C   0  0  0  0  0  0  0  0  0  0  0  0
   -0.7510   23.7970  -28.1770 C   0  0  0  0  0  0  0  0  0  0  0  0
   -1.6010   24.6210  -28.9430 C   0  0  0  0  0  0  0  0  0  0  0  0
   -1.4620   26.0180  -28.9520 O   0  0  0  0  0  0  0  0  0  0  0  0
   -0.8520   26.7790  -27.9120 C   0  0  0  0  0  0  0  0  0  0  0  0
   -5.4810   22.4770  -31.2110 C   0  0  0  0  0  0  0  0  0  0  0  0
   -6.2140   21.4140  -31.7690 C   0  0  0  0  0  0  0  0  0  0  0  0
   -5.6020   20.1470  -32.0580 N   0  0  0  0  0  0  0  0  0  0  0  0
   -4.8790   19.7980  -33.2460 C   0  0  0  0  0  0  0  0  0  0  0  0
   -5.4820   19.2850  -34.2260 O   0  0  0  0  0  0  0  0  0  0  0  0
   -3.4280   20.0790  -33.3380 C   0  0  0  0  0  0  0  0  0  0  0  0
   -2.8900   21.2540  -32.7790 C   0  0  0  0  0  0  0  0  0  0  0  0
   -1.5190   21.5180  -32.8630 C   0  0  0  0  0  0  0  0  0  0  0  0
   -0.6700   20.6160  -33.5050 C   0  0  0  0  0  0  0  0  0  0  0  0
   -1.1900   19.4460  -34.0650 C   0  0  0  0  0  0  0  0  0  0  0  0
   -2.5600   19.1770  -33.9840 C   0  0  0  0  0  0  0  0  0  0  0  0
   -8.6145   19.5187  -30.9107 H   0  0  0  0  0  0  0  0  0  0  0  0
   -9.7084   19.1017  -32.2731 H   0  0  0  0  0  0  0  0  0  0  0  0
   -8.0103   18.5159  -32.2731 H   0  0  0  0  0  0  0  0  0  0  0  0
   -9.2505   22.9721  -32.0534 H   0  0  0  0  0  0  0  0  0  0  0  0
   -7.9617   24.8145  -30.9822 H   0  0  0  0  0  0  0  0  0  0  0  0
   -3.6702   22.1868  -30.1941 H   0  0  0  0  0  0  0  0  0  0  0  0
   -2.1502   20.7479  -28.8399 H   0  0  0  0  0  0  0  0  0  0  0  0
   -0.2707   21.7748  -27.5600 H   0  0  0  0  0  0  0  0  0  0  0  0
    0.0689   24.2457  -27.5969 H   0  0  0  0  0  0  0  0  0  0  0  0
   -1.1683   26.3844  -26.9351 H   0  0  0  0  0  0  0  0  0  0  0  0
    0.2422   26.7081  -27.9993 H   0  0  0  0  0  0  0  0  0  0  0  0
   -1.1593   27.8316  -27.9993 H   0  0  0  0  0  0  0  0  0  0  0  0
   -4.4099   22.3487  -30.9957 H   0  0  0  0  0  0  0  0  0  0  0  0
   -3.5534   21.9702  -32.2721 H   0  0  0  0  0  0  0  0  0  0  0  0
   -1.1093   22.4387  -32.4220 H   0  0  0  0  0  0  0  0  0  0  0  0
    0.4079   20.8256  -33.5703 H   0  0  0  0  0  0  0  0  0  0  0  0
   -0.5202   18.7350  -34.5707 H   0  0  0  0  0  0  0  0  0  0  0  0
   -2.9626   18.2546  -34.4279 H   0  0  0  0  0  0  0  0  0  0  0  0
  1  2  1  0
  2  3  1  0
  3  4  2  0
  4  5  1  0
  5  6  2  0
  6  7  1  0
  7  8  2  0
  7  9  2  0
  7 10  1  0
 10 11  1  0
 11 12  2  0
 12 13  1  0
 13 14  2  0
 14 15  1  0
 15 16  2  0
 16 17  1  0
 17 18  1  0
  6 19  1  0
 19 20  2  0
 20 21  1  0
 21 22  1  0
 22 23  2  0
 22 24  1  0
 24 25  2  0
 25 26  1  0
 26 27  2  0
 27 28  1  0
 28 29  2  0
 20  3  1  0
 29 24  1  0
 16 11  1  0
  1 30  1  0
  1 31  1  0
  1 32  1  0
  4 33  1  0
  5 34  1  0
 12 35  1  0
 13 36  1  0
 14 37  1  0
 15 38  1  0
 18 39  1  0
 18 40  1  0
 18 41  1  0
 19 42  1  0
 25 43  1  0
 26 44  1  0
 27 45  1  0
 28 46  1  0
 29 47  1  0
M  CHG  2  10  -1  21  -1
M  END
>  <UniqueID>  (28) 
27

>  <SMILES>  (28) 
COc1ccc(S(=O)(=O)[N-]c2ccccc2OC)cc1[N-]C(=O)c1ccccc1

>  <Energy>  (28) 
59.69638051022967

>  <Genealogy>  (28) 
COc1ccc(S(=O)(=O)[N-]c2ccccc2OC)cc1[N-]C(=O)c1ccccc1 (protonated)
COc1ccc(S(=O)(=O)[N-]c2ccccc2OC)cc1[N-]C(=O)c1ccccc1 (3D coordinates assigned)
COc1ccc(S(=O)(=O)[N-]c2ccccc2OC)cc1[N-]C(=O)c1ccccc1 (optimized conformer: 59.69638051022967 kcal/mol)

>  <smiles>  (28) 
COc1ccc(S(=O)(=O)Nc2ccccc2OC)cc1NC(=O)c1ccccc1

>  <score_type>  (28) 
oracle

>  <origin>  (28) 
adgpu

>  <m_score__min__energy>  (28) 
-10.470000000000001

>  <m_primary>  (28) 
energy

$$$$
28:0
     RDKit          3D

 44 46  0  0  0  0  0  0  0  0999 V2000
    1.8500   25.5670  -24.3120 C   0  0  0  0  0  0  0  0  0  0  0  0
    0.4480   25.1750  -24.1080 N   0  0  0  0  0  0  0  0  0  0  0  0
    0.1870   23.8590  -24.7060 C   0  0  0  0  0  0  0  0  0  0  0  0
   -0.6100   26.3730  -24.8100 S   0  0  0  0  0  0  0  0  0  0  0  0
    0.1800   27.5910  -25.2050 O   0  0  0  0  0  0  0  0  0  0  0  0
   -1.6510   26.7850  -23.8060 O   0  0  0  0  0  0  0  0  0  0  0  0
   -1.4230   25.7030  -26.2220 C   0  0  0  0  0  0  0  0  0  0  0  0
   -0.7980   25.7110  -27.4760 C   0  0  0  0  0  0  0  0  0  0  0  0
   -1.4440   25.1610  -28.5880 C   0  0  0  0  0  0  0  0  0  0  0  0
   -2.7230   24.5900  -28.4620 C   0  0  0  0  0  0  0  0  0  0  0  0
   -3.3920   24.0110  -29.6540 C   0  0  0  0  0  0  0  0  0  0  0  0
   -4.6320   24.3550  -30.1640 C   0  0  0  0  0  0  0  0  0  0  0  0
   -4.8620   23.5960  -31.2500 N   0  0  0  0  0  0  0  0  0  0  0  0
   -6.0260   23.6880  -32.1330 C   0  0  0  0  0  0  0  0  0  0  0  0
   -6.9260   22.5010  -31.9280 C   0  0  0  0  0  0  0  0  0  0  0  0
   -8.0060   22.5820  -31.0330 C   0  0  0  0  0  0  0  0  0  0  0  0
   -8.8640   21.4920  -30.8650 C   0  0  0  0  0  0  0  0  0  0  0  0
   -8.6560   20.3150  -31.5910 C   0  0  0  0  0  0  0  0  0  0  0  0
   -7.5880   20.2300  -32.4900 C   0  0  0  0  0  0  0  0  0  0  0  0
   -6.7270   21.3180  -32.6610 C   0  0  0  0  0  0  0  0  0  0  0  0
   -3.7620   22.8230  -31.3830 C   0  0  0  0  0  0  0  0  0  0  0  0
   -3.5350   21.7290  -32.5820 S   0  0  0  0  0  0  0  0  0  0  0  0
   -2.8430   23.0450  -30.4230 N   0  0  0  0  0  0  0  0  0  0  0  0
   -3.3400   24.5800  -27.1980 C   0  0  0  0  0  0  0  0  0  0  0  0
   -2.6920   25.1300  -26.0880 C   0  0  0  0  0  0  0  0  0  0  0  0
    2.3383   25.7035  -23.3358 H   0  0  0  0  0  0  0  0  0  0  0  0
    2.3723   24.7804  -24.8764 H   0  0  0  0  0  0  0  0  0  0  0  0
    1.8886   26.5104  -24.8764 H   0  0  0  0  0  0  0  0  0  0  0  0
    0.2560   25.1270  -23.0810 H   0  0  0  0  0  0  0  0  0  0  0  0
    0.0397   23.1163  -23.9080 H   0  0  0  0  0  0  0  0  0  0  0  0
   -0.7181   23.9123  -25.3289 H   0  0  0  0  0  0  0  0  0  0  0  0
    1.0439   23.5628  -25.3289 H   0  0  0  0  0  0  0  0  0  0  0  0
    0.2040   26.1513  -27.5863 H   0  0  0  0  0  0  0  0  0  0  0  0
   -0.9474   25.1752  -29.5694 H   0  0  0  0  0  0  0  0  0  0  0  0
   -5.3109   25.1165  -29.7527 H   0  0  0  0  0  0  0  0  0  0  0  0
   -6.5823   24.6096  -31.9067 H   0  0  0  0  0  0  0  0  0  0  0  0
   -5.6841   23.7040  -33.1784 H   0  0  0  0  0  0  0  0  0  0  0  0
   -8.1767   23.5068  -30.4625 H   0  0  0  0  0  0  0  0  0  0  0  0
   -9.7054   21.5599  -30.1597 H   0  0  0  0  0  0  0  0  0  0  0  0
   -9.3313   19.4574  -31.4552 H   0  0  0  0  0  0  0  0  0  0  0  0
   -7.4252   19.3055  -33.0635 H   0  0  0  0  0  0  0  0  0  0  0  0
   -5.8905   21.2482  -33.3719 H   0  0  0  0  0  0  0  0  0  0  0  0
   -4.3398   24.1361  -27.0820 H   0  0  0  0  0  0  0  0  0  0  0  0
   -3.1828   25.1120  -25.1037 H   0  0  0  0  0  0  0  0  0  0  0  0
  1  2  1  0
  2  3  1  0
  2  4  1  0
  4  5  2  0
  4  6  2  0
  4  7  1  0
  7  8  2  0
  8  9  1  0
  9 10  2  0
 10 11  1  0
 11 12  2  0
 12 13  1  0
 13 14  1  0
 14 15  1  0
 15 16  2  0
 16 17  1  0
 17 18  2  0
 18 19  1  0
 19 20  2  0
 13 21  1  0
 21 22  2  0
 21 23  1  0
 10 24  1  0
 24 25  2  0
 25  7  1  0
 23 11  1  0
 20 15  1  0
  1 26  1  0
  1 27  1  0
  1 28  1  0
  2 29  1  0
  3 30  1  0
  3 31  1  0
  3 32  1  0
  8 33  1  0
  9 34  1  0
 12 35  1  0
 14 36  1  0
 14 37  1  0
 16 38  1  0
 17 39  1  0
 18 40  1  0
 19 41  1  0
 20 42  1  0
 24 43  1  0
 25 44  1  0
M  CHG  2   2   1  23  -1
M  END
>  <UniqueID>  (29) 
28

>  <SMILES>  (29) 
C[NH+](C)S(=O)(=O)c1ccc(-c2cn(Cc3ccccc3)c(=S)[n-]2)cc1

>  <Energy>  (29) 
73.74049397791103

>  <Genealogy>  (29) 
C[NH+](C)S(=O)(=O)c1ccc(-c2cn(Cc3ccccc3)c(=S)[n-]2)cc1 (protonated)
C[NH+](C)S(=O)(=O)c1ccc(-c2cn(Cc3ccccc3)c(=S)[n-]2)cc1 (3D coordinates assigned)
C[NH+](C)S(=O)(=O)c1ccc(-c2cn(Cc3ccccc3)c(=S)[n-]2)cc1 (optimized conformer: 73.74049397791103 kcal/mol)

>  <smiles>  (29) 
CN(C)S(=O)(=O)c1ccc(-c2cn(Cc3ccccc3)c(=S)[nH]2)cc1

>  <score_type>  (29) 
oracle

>  <origin>  (29) 
adgpu

>  <m_score__min__energy>  (29) 
-9.5099999999999998

>  <m_primary>  (29) 
energy

$$$$
29:0
     RDKit          3D

 39 41  0  0  0  0  0  0  0  0999 V2000
   -5.6450   25.9700  -30.8250 O   0  0  0  0  0  0  0  0  0  0  0  0
   -4.8840   24.9660  -30.7660 C   0  0  0  0  0  0  0  0  0  0  0  0
   -3.5020   25.1300  -30.4170 N   0  0  0  0  0  0  0  0  0  0  0  0
   -2.8650   24.6700  -29.2170 C   0  0  0  0  0  0  0  0  0  0  0  0
   -1.4920   24.8480  -28.9780 C   0  0  0  0  0  0  0  0  0  0  0  0
   -0.9300   24.4020  -27.7800 C   0  0  0  0  0  0  0  0  0  0  0  0
   -1.7450   23.7950  -26.8250 C   0  0  0  0  0  0  0  0  0  0  0  0
   -3.0770   23.6510  -27.0600 N   0  0  0  0  0  0  0  0  0  0  0  0
   -3.6480   24.0760  -28.2180 C   0  0  0  0  0  0  0  0  0  0  0  0
   -5.3900   23.6280  -31.1500 C   0  0  0  0  0  0  0  0  0  0  0  0
   -6.7820   23.4310  -31.2290 C   0  0  0  0  0  0  0  0  0  0  0  0
   -7.3090   22.1720  -31.5210 C   0  0  0  0  0  0  0  0  0  0  0  0
   -9.2010   21.9240  -31.6080 Br  0  0  0  0  0  0  0  0  0  0  0  0
   -6.4550   21.0920  -31.7420 C   0  0  0  0  0  0  0  0  0  0  0  0
   -5.0720   21.2710  -31.6850 C   0  0  0  0  0  0  0  0  0  0  0  0
   -4.5210   22.5330  -31.3980 C   0  0  0  0  0  0  0  0  0  0  0  0
   -3.0940   22.7200  -31.4420 N   0  0  0  0  0  0  0  0  0  0  0  0
   -1.9630   21.4190  -31.2440 S   0  0  0  0  0  0  0  0  0  0  0  0
   -0.6120   21.8650  -31.7330 O   0  0  0  0  0  0  0  0  0  0  0  0
   -2.4130   20.2450  -32.0640 O   0  0  0  0  0  0  0  0  0  0  0  0
   -1.8730   20.9470  -29.5520 C   0  0  0  0  0  0  0  0  0  0  0  0
   -0.6260   20.7530  -28.9400 C   0  0  0  0  0  0  0  0  0  0  0  0
   -0.5540   20.3730  -27.5960 C   0  0  0  0  0  0  0  0  0  0  0  0
   -1.7270   20.1890  -26.8560 C   0  0  0  0  0  0  0  0  0  0  0  0
   -2.9720   20.3870  -27.4610 C   0  0  0  0  0  0  0  0  0  0  0  0
   -3.0460   20.7660  -28.8050 C   0  0  0  0  0  0  0  0  0  0  0  0
   -0.8605   25.3381  -29.7337 H   0  0  0  0  0  0  0  0  0  0  0  0
    0.1463   24.5284  -27.5912 H   0  0  0  0  0  0  0  0  0  0  0  0
   -1.3107   23.4326  -25.8816 H   0  0  0  0  0  0  0  0  0  0  0  0
   -4.7302   23.9531  -28.3718 H   0  0  0  0  0  0  0  0  0  0  0  0
   -7.4618   24.2789  -31.0587 H   0  0  0  0  0  0  0  0  0  0  0  0
   -6.8718   20.0980  -31.9615 H   0  0  0  0  0  0  0  0  0  0  0  0
   -4.4052   20.4152  -31.8666 H   0  0  0  0  0  0  0  0  0  0  0  0
   -2.6990   23.6740  -31.5930 H   0  0  0  0  0  0  0  0  0  0  0  0
    0.2978   20.9001  -29.5187 H   0  0  0  0  0  0  0  0  0  0  0  0
    0.4257   20.2186  -27.1203 H   0  0  0  0  0  0  0  0  0  0  0  0
   -1.6699   19.8889  -25.7993 H   0  0  0  0  0  0  0  0  0  0  0  0
   -3.8944   20.2444  -26.8789 H   0  0  0  0  0  0  0  0  0  0  0  0
   -4.0269   20.9226  -29.2776 H   0  0  0  0  0  0  0  0  0  0  0  0
  1  2  2  0
  2  3  1  0
  3  4  1  0
  4  5  2  0
  5  6  1  0
  6  7  2  0
  7  8  1  0
  8  9  2  0
  2 10  1  0
 10 11  2  0
 11 12  1  0
 12 13  1  0
 12 14  2  0
 14 15  1  0
 15 16  2  0
 16 17  1  0
 17 18  1  0
 18 19  2  0
 18 20  2  0
 18 21  1  0
 21 22  2  0
 22 23  1  0
 23 24  2  0
 24 25  1  0
 25 26  2  0
  9  4  1  0
 16 10  1  0
 26 21  1  0
  5 27  1  0
  6 28  1  0
  7 29  1  0
  9 30  1  0
 11 31  1  0
 14 32  1  0
 15 33  1  0
 17 34  1  0
 22 35  1  0
 23 36  1  0
 24 37  1  0
 25 38  1  0
 26 39  1  0
M  CHG  1   3  -1
M  END
>  <UniqueID>  (30) 
29

>  <SMILES>  (30) 
O=C([N-]c1cccnc1)c1cc(Br)ccc1NS(=O)(=O)c1ccccc1

>  <Energy>  (30) 
54.66095496138538

>  <Genealogy>  (30) 
O=C([N-]c1cccnc1)c1cc(Br)ccc1NS(=O)(=O)c1ccccc1 (protonated)
O=C([N-]c1cccnc1)c1cc(Br)ccc1NS(=O)(=O)c1ccccc1 (3D coordinates assigned)
O=C([N-]c1cccnc1)c1cc(Br)ccc1NS(=O)(=O)c1ccccc1 (optimized conformer: 54.66095496138538 kcal/mol)

>  <smiles>  (30) 
O=C(Nc1cccnc1)c1cc(Br)ccc1NS(=O)(=O)c1ccccc1

>  <score_type>  (30) 
oracle

>  <origin>  (30) 
adgpu

>  <m_score__min__energy>  (30) 
-10.92

>  <m_primary>  (30) 
energy

$$$$
30:0
     RDKit          3D

 49 52  0  0  0  0  0  0  0  0999 V2000
   -4.2950   23.5300  -32.5110 H   0  0  0  0  0  0  0  0  0  0  0  0
   -5.0890   22.9020  -32.2540 N   0  0  0  0  0  0  0  0  0  0  0  0
   -5.9030   23.1630  -31.2830 C   0  0  0  0  0  0  0  0  0  0  0  0
   -5.8830   24.2990  -30.4970 C   0  0  0  0  0  0  0  0  0  0  0  0
   -4.9230   25.4190  -30.4780 C   0  0  0  0  0  0  0  0  0  0  0  0
   -5.3630   26.6000  -30.4750 O   0  0  0  0  0  0  0  0  0  0  0  0
   -3.5030   25.2060  -30.4770 N   0  0  0  0  0  0  0  0  0  0  0  0
   -2.7790   24.2720  -29.6560 C   0  0  0  0  0  0  0  0  0  0  0  0
   -1.9900   24.7700  -28.6160 C   0  0  0  0  0  0  0  0  0  0  0  0
   -1.9315   25.8560  -28.4508 H   0  0  0  0  0  0  0  0  0  0  0  0
   -1.2760   23.9080  -27.7850 C   0  0  0  0  0  0  0  0  0  0  0  0
   -0.6415   24.3148  -26.9838 H   0  0  0  0  0  0  0  0  0  0  0  0
   -1.3680   22.5250  -27.9720 C   0  0  0  0  0  0  0  0  0  0  0  0
   -0.4700   21.4210  -26.9310 S   0  0  0  0  0  0  0  0  0  0  0  0
   -1.1350   20.0740  -26.9360 O   0  0  0  0  0  0  0  0  0  0  0  0
   -0.4530   21.9610  -25.5300 O   0  0  0  0  0  0  0  0  0  0  0  0
    1.1500   21.2470  -27.5060 N   0  0  0  0  0  0  0  0  0  0  0  0
    1.7830   21.3450  -26.6880 H   0  0  0  0  0  0  0  0  0  0  0  0
   -2.1690   22.0200  -28.9980 C   0  0  0  0  0  0  0  0  0  0  0  0
   -2.2373   20.9328  -29.1505 H   0  0  0  0  0  0  0  0  0  0  0  0
   -2.8830   22.8800  -29.8310 C   0  0  0  0  0  0  0  0  0  0  0  0
   -3.5266   22.4709  -30.6237 H   0  0  0  0  0  0  0  0  0  0  0  0
   -7.0170   24.1930  -29.7200 C   0  0  0  0  0  0  0  0  0  0  0  0
   -7.3451   24.9299  -28.9721 H   0  0  0  0  0  0  0  0  0  0  0  0
   -7.6620   23.0470  -30.0180 N   0  0  0  0  0  0  0  0  0  0  0  0
   -6.9860   22.4150  -30.9650 N   0  0  0  0  0  0  0  0  0  0  0  0
   -7.4570   21.1870  -31.5640 C   0  0  0  0  0  0  0  0  0  0  0  0
   -8.8290   21.0200  -31.7990 C   0  0  0  0  0  0  0  0  0  0  0  0
   -9.5270   21.8301  -31.5411 H   0  0  0  0  0  0  0  0  0  0  0  0
   -9.3190   19.8410  -32.3550 C   0  0  0  0  0  0  0  0  0  0  0  0
  -10.3993   19.7243  -32.5262 H   0  0  0  0  0  0  0  0  0  0  0  0
   -8.4490   18.8100  -32.6950 C   0  0  0  0  0  0  0  0  0  0  0  0
   -8.8454   17.8845  -33.1381 H   0  0  0  0  0  0  0  0  0  0  0  0
   -7.0660   18.9430  -32.4760 C   0  0  0  0  0  0  0  0  0  0  0  0
   -6.1320   17.8560  -32.8850 C   0  0  0  0  0  0  0  0  0  0  0  0
   -5.4810   17.9080  -34.1310 C   0  0  0  0  0  0  0  0  0  0  0  0
   -5.6557   18.7643  -34.7990 H   0  0  0  0  0  0  0  0  0  0  0  0
   -4.6190   16.8910  -34.5300 C   0  0  0  0  0  0  0  0  0  0  0  0
   -4.1316   16.9385  -35.5150 H   0  0  0  0  0  0  0  0  0  0  0  0
   -4.3730   15.8130  -33.6830 C   0  0  0  0  0  0  0  0  0  0  0  0
   -3.6916   15.0104  -34.0015 H   0  0  0  0  0  0  0  0  0  0  0  0
   -4.9890   15.7470  -32.4290 C   0  0  0  0  0  0  0  0  0  0  0  0
   -4.7150   14.6500  -31.5540 N   0  0  0  0  0  0  0  0  0  0  0  0
   -3.9660   13.9630  -31.7840 H   0  0  0  0  0  0  0  0  0  0  0  0
   -5.2440   14.5250  -30.6650 H   0  0  0  0  0  0  0  0  0  0  0  0
   -5.8690   16.7650  -32.0360 C   0  0  0  0  0  0  0  0  0  0  0  0
   -6.3595   16.7104  -31.0529 H   0  0  0  0  0  0  0  0  0  0  0  0
   -6.5840   20.1310  -31.8890 C   0  0  0  0  0  0  0  0  0  0  0  0
   -5.5087   20.2345  -31.6816 H   0  0  0  0  0  0  0  0  0  0  0  0
  1  2  1  0
  2  3  2  0
  3  4  1  0
  4  5  1  0
  5  6  2  0
  5  7  1  0
  7  8  1  0
  8  9  2  0
  9 10  1  0
  9 11  1  0
 11 12  1  0
 11 13  2  0
 13 14  1  0
 14 15  2  0
 14 16  2  0
 14 17  1  0
 17 18  1  0
 13 19  1  0
 19 20  1  0
 19 21  2  0
 21 22  1  0
  4 23  2  0
 23 24  1  0
 23 25  1  0
 25 26  1  0
 26 27  1  0
 27 28  2  0
 28 29  1  0
 28 30  1  0
 30 31  1  0
 30 32  2  0
 32 33  1  0
 32 34  1  0
 34 35  1  0
 35 36  2  0
 36 37  1  0
 36 38  1  0
 38 39  1  0
 38 40  2  0
 40 41  1  0
 40 42  1  0
 42 43  1  0
 43 44  1  0
 43 45  1  0
 42 46  2  0
 46 47  1  0
 34 48  2  0
 48 49  1  0
 26  3  1  0
 48 27  1  0
 21  8  1  0
 46 35  1  0
M  CHG  3   7  -1  17  -1  25  -1
M  END
>  <UniqueID>  (31) 
30

>  <SMILES>  (31) 
[H]/N=c1\c(C(=O)[N-]c2ccc(S([NH-])(=O)=O)cc2)c[n-]n1-c1cccc(-c2cccc(N)c2)c1

>  <Energy>  (31) 
103.2764750845174

>  <Genealogy>  (31) 
N=c1c(C(=O)[N-]c2ccc(S([NH-])(=O)=O)cc2)c[n-]n1-c1cccc(-c2cccc(N)c2)c1 (protonated)
[H]/N=c1\c(C(=O)[N-]c2ccc(S([NH-])(=O)=O)cc2)c[n-]n1-c1cccc(-c2cccc(N)c2)c1 (cis-trans isomerization)
[H]/N=c1\c(C(=O)[N-]c2ccc(S([NH-])(=O)=O)cc2)c[n-]n1-c1cccc(-c2cccc(N)c2)c1 (3D coordinates assigned)
[H]/N=c1\c(C(=O)[N-]c2ccc(S([NH-])(=O)=O)cc2)c[n-]n1-c1cccc(-c2cccc(N)c2)c1 (optimized conformer: 103.2764750845174 kcal/mol)

>  <smiles>  (31) 
N=c1c(C(=O)Nc2ccc(S(N)(=O)=O)cc2)c[nH]n1-c1cccc(-c2cccc(N)c2)c1

>  <score_type>  (31) 
oracle

>  <origin>  (31) 
adgpu

>  <m_score__min__energy>  (31) 
-12.41

>  <m_primary>  (31) 
energy

$$$$
31:0
     RDKit          3D

 43 45  0  0  0  0  0  0  0  0999 V2000
   -2.9640   25.2920  -29.7260 O   0  0  0  0  0  0  0  0  0  0  0  0
   -4.1240   24.7510  -30.2670 C   0  0  0  0  0  0  0  0  0  0  0  0
   -5.3330   25.4480  -30.1680 C   0  0  0  0  0  0  0  0  0  0  0  0
   -6.5010   24.9050  -30.7120 C   0  0  0  0  0  0  0  0  0  0  0  0
   -6.4660   23.6630  -31.3670 C   0  0  0  0  0  0  0  0  0  0  0  0
   -7.7290   23.0620  -31.9220 C   0  0  0  0  0  0  0  0  0  0  0  0
   -7.9220   21.6340  -31.4010 C   0  0  0  0  0  0  0  0  0  0  0  0
   -8.3620   20.7490  -32.4870 N   0  0  0  0  0  0  0  0  0  0  0  0
   -8.3680   19.3420  -32.0650 C   0  0  0  0  0  0  0  0  0  0  0  0
   -7.1430   18.6510  -32.6010 C   0  0  0  0  0  0  0  0  0  0  0  0
   -7.2080   17.3020  -32.9790 C   0  0  0  0  0  0  0  0  0  0  0  0
   -6.0820   16.6670  -33.5070 C   0  0  0  0  0  0  0  0  0  0  0  0
   -4.8880   17.3740  -33.6730 C   0  0  0  0  0  0  0  0  0  0  0  0
   -4.8090   18.7320  -33.3170 C   0  0  0  0  0  0  0  0  0  0  0  0
   -3.5450   19.4890  -33.5040 C   0  0  0  0  0  0  0  0  0  0  0  0
   -2.4190   18.8680  -34.0790 C   0  0  0  0  0  0  0  0  0  0  0  0
   -1.2280   19.5820  -34.2530 C   0  0  0  0  0  0  0  0  0  0  0  0
   -1.1490   20.9200  -33.8570 C   0  0  0  0  0  0  0  0  0  0  0  0
    0.0340   21.6280  -34.0320 O   0  0  0  0  0  0  0  0  0  0  0  0
   -2.2600   21.5460  -33.2870 C   0  0  0  0  0  0  0  0  0  0  0  0
   -3.4520   20.8360  -33.1100 C   0  0  0  0  0  0  0  0  0  0  0  0
   -5.9490   19.3650  -32.7840 C   0  0  0  0  0  0  0  0  0  0  0  0
   -5.2510   22.9630  -31.4510 C   0  0  0  0  0  0  0  0  0  0  0  0
   -4.0840   23.5090  -30.9070 C   0  0  0  0  0  0  0  0  0  0  0  0
   -5.3647   26.4241  -29.6617 H   0  0  0  0  0  0  0  0  0  0  0  0
   -7.4511   25.4527  -30.6267 H   0  0  0  0  0  0  0  0  0  0  0  0
   -8.5873   23.6777  -31.6152 H   0  0  0  0  0  0  0  0  0  0  0  0
   -7.6546   23.0318  -33.0191 H   0  0  0  0  0  0  0  0  0  0  0  0
   -6.9688   21.2640  -30.9954 H   0  0  0  0  0  0  0  0  0  0  0  0
   -8.6898   21.6418  -30.6133 H   0  0  0  0  0  0  0  0  0  0  0  0
   -7.6740   20.8380  -33.2730 H   0  0  0  0  0  0  0  0  0  0  0  0
   -8.3674   19.2889  -30.9663 H   0  0  0  0  0  0  0  0  0  0  0  0
   -9.2687   18.8462  -32.4561 H   0  0  0  0  0  0  0  0  0  0  0  0
   -8.1478   16.7431  -32.8593 H   0  0  0  0  0  0  0  0  0  0  0  0
   -6.1350   15.6063  -33.7934 H   0  0  0  0  0  0  0  0  0  0  0  0
   -4.0042   16.8648  -34.0849 H   0  0  0  0  0  0  0  0  0  0  0  0
   -2.4762   17.8154  -34.3932 H   0  0  0  0  0  0  0  0  0  0  0  0
   -0.3529   19.0895  -34.7020 H   0  0  0  0  0  0  0  0  0  0  0  0
   -2.1973   22.5995  -32.9767 H   0  0  0  0  0  0  0  0  0  0  0  0
   -4.3229   21.3346  -32.6595 H   0  0  0  0  0  0  0  0  0  0  0  0
   -5.9027   20.4290  -32.5087 H   0  0  0  0  0  0  0  0  0  0  0  0
   -5.2173   21.9815  -31.9466 H   0  0  0  0  0  0  0  0  0  0  0  0
   -3.1336   22.9604  -30.9829 H   0  0  0  0  0  0  0  0  0  0  0  0
  1  2  1  0
  2  3  2  0
  3  4  1  0
  4  5  2  0
  5  6  1  0
  6  7  1  0
  7  8  1  0
  8  9  1  0
  9 10  1  0
 10 11  2  0
 11 12  1  0
 12 13  2  0
 13 14  1  0
 14 15  1  0
 15 16  2  0
 16 17  1  0
 17 18  2  0
 18 19  1  0
 18 20  1  0
 20 21  2  0
 14 22  2  0
  5 23  1  0
 23 24  2  0
 24  2  1  0
 22 10  1  0
 21 15  1  0
  3 25  1  0
  4 26  1  0
  6 27  1  0
  6 28  1  0
  7 29  1  0
  7 30  1  0
  8 31  1  0
  9 32  1  0
  9 33  1  0
 11 34  1  0
 12 35  1  0
 13 36  1  0
 16 37  1  0
 17 38  1  0
 20 39  1  0
 21 40  1  0
 22 41  1  0
 23 42  1  0
 24 43  1  0
M  CHG  2   1  -1  19  -1
M  END
>  <UniqueID>  (32) 
31

>  <SMILES>  (32) 
[O-]c1ccc(CCNCc2cccc(-c3ccc([O-])cc3)c2)cc1

>  <Energy>  (32) 
47.478338375317186

>  <Genealogy>  (32) 
[O-]c1ccc(CCNCc2cccc(-c3ccc([O-])cc3)c2)cc1 (protonated)
[O-]c1ccc(CCNCc2cccc(-c3ccc([O-])cc3)c2)cc1 (3D coordinates assigned)
[O-]c1ccc(CCNCc2cccc(-c3ccc([O-])cc3)c2)cc1 (optimized conformer: 47.478338375317186 kcal/mol)

>  <smiles>  (32) 
Oc1ccc(CCNCc2cccc(-c3ccc(O)cc3)c2)cc1

>  <score_type>  (32) 
oracle

>  <origin>  (32) 
adgpu

>  <m_score__min__energy>  (32) 
-12.33

>  <m_primary>  (32) 
energy

$$$$
32:0
     RDKit          3D

 42 44  0  0  0  0  0  0  0  0999 V2000
   -9.1080   18.6330  -32.0400 C   0  0  0  0  0  0  0  0  0  0  0  0
   -9.4100   19.7820  -32.9020 N   0  0  0  0  0  0  0  0  0  0  0  0
   -8.8890   21.0460  -32.3530 C   0  0  0  0  0  0  0  0  0  0  0  0
   -7.9640   20.8220  -31.1480 C   0  0  0  0  0  0  0  0  0  0  0  0
   -6.5680   21.0470  -31.5360 N   0  0  0  0  0  0  0  0  0  0  0  0
   -5.6700   21.9210  -30.9980 C   0  0  0  0  0  0  0  0  0  0  0  0
   -6.0080   22.9360  -29.9230 C   0  0  0  0  0  0  0  0  0  0  0  0
   -4.8420   23.1680  -28.9260 C   0  0  0  0  0  0  0  0  0  0  0  0
   -4.1750   24.5460  -29.0890 C   0  0  0  0  0  0  0  0  0  0  0  0
   -4.0230   24.9050  -30.5030 N   0  0  0  0  0  0  0  0  0  0  0  0
   -5.3130   25.0360  -31.2120 C   0  0  0  0  0  0  0  0  0  0  0  0
   -6.4760   24.2560  -30.5600 C   0  0  0  0  0  0  0  0  0  0  0  0
   -4.4410   21.8430  -31.5780 N   0  0  0  0  0  0  0  0  0  0  0  0
   -4.5870   20.8610  -32.4830 C   0  0  0  0  0  0  0  0  0  0  0  0
   -3.6190   20.3550  -33.3470 C   0  0  0  0  0  0  0  0  0  0  0  0
   -3.9930   19.3040  -34.2060 C   0  0  0  0  0  0  0  0  0  0  0  0
   -5.3090   18.7910  -34.1770 C   0  0  0  0  0  0  0  0  0  0  0  0
   -6.2640   19.3250  -33.2920 C   0  0  0  0  0  0  0  0  0  0  0  0
   -5.8600   20.3710  -32.4580 C   0  0  0  0  0  0  0  0  0  0  0  0
   -9.1874   18.9350  -30.9853 H   0  0  0  0  0  0  0  0  0  0  0  0
   -9.8238   17.8231  -32.2444 H   0  0  0  0  0  0  0  0  0  0  0  0
   -8.0865   18.2798  -32.2444 H   0  0  0  0  0  0  0  0  0  0  0  0
   -8.9580   19.6160  -33.8320 H   0  0  0  0  0  0  0  0  0  0  0  0
  -10.4440   19.8460  -33.0510 H   0  0  0  0  0  0  0  0  0  0  0  0
   -8.3243   21.5671  -33.1401 H   0  0  0  0  0  0  0  0  0  0  0  0
   -9.7474   21.6430  -32.0113 H   0  0  0  0  0  0  0  0  0  0  0  0
   -8.2360   21.5231  -30.3452 H   0  0  0  0  0  0  0  0  0  0  0  0
   -8.0772   19.7864  -30.7947 H   0  0  0  0  0  0  0  0  0  0  0  0
   -6.8352   22.5185  -29.3302 H   0  0  0  0  0  0  0  0  0  0  0  0
   -5.2356   23.0882  -27.9019 H   0  0  0  0  0  0  0  0  0  0  0  0
   -4.0763   22.4058  -29.1327 H   0  0  0  0  0  0  0  0  0  0  0  0
   -4.7968   25.3053  -28.5922 H   0  0  0  0  0  0  0  0  0  0  0  0
   -3.1743   24.5013  -28.6345 H   0  0  0  0  0  0  0  0  0  0  0  0
   -3.4370   24.1760  -30.9740 H   0  0  0  0  0  0  0  0  0  0  0  0
   -5.5849   26.1015  -31.2395 H   0  0  0  0  0  0  0  0  0  0  0  0
   -5.1676   24.6072  -32.2145 H   0  0  0  0  0  0  0  0  0  0  0  0
   -6.9298   24.8843  -29.7794 H   0  0  0  0  0  0  0  0  0  0  0  0
   -7.2014   24.0104  -31.3496 H   0  0  0  0  0  0  0  0  0  0  0  0
   -2.5973   20.7625  -33.3579 H   0  0  0  0  0  0  0  0  0  0  0  0
   -3.2561   18.8798  -34.9039 H   0  0  0  0  0  0  0  0  0  0  0  0
   -5.5892   17.9682  -34.8511 H   0  0  0  0  0  0  0  0  0  0  0  0
   -7.2913   18.9332  -33.2579 H   0  0  0  0  0  0  0  0  0  0  0  0
  1  2  1  0
  2  3  1  0
  3  4  1  0
  4  5  1  0
  5  6  1  0
  6  7  1  0
  7  8  1  0
  8  9  1  0
  9 10  1  0
 10 11  1  0
 11 12  1  0
  6 13  2  0
 13 14  1  0
 14 15  2  0
 15 16  1  0
 16 17  2  0
 17 18  1  0
 18 19  2  0
 19  5  1  0
 12  7  1  0
 19 14  1  0
  1 20  1  0
  1 21  1  0
  1 22  1  0
  2 23  1  0
  2 24  1  0
  3 25  1  0
  3 26  1  0
  4 27  1  0
  4 28  1  0
  7 29  1  0
  8 30  1  0
  8 31  1  0
  9 32  1  0
  9 33  1  0
 10 34  1  0
 11 35  1  0
 11 36  1  0
 12 37  1  0
 12 38  1  0
 15 39  1  0
 16 40  1  0
 17 41  1  0
 18 42  1  0
M  CHG  1   2   1
M  END
>  <UniqueID>  (33) 
32

>  <SMILES>  (33) 
C[NH2+]CCn1c(C2CCNCC2)nc2ccccc21

>  <Energy>  (33) 
83.04487304434704

>  <Genealogy>  (33) 
C[NH2+]CCn1c(C2CCNCC2)nc2ccccc21 (protonated)
C[NH2+]CCn1c(C2CCNCC2)nc2ccccc21 (3D coordinates assigned)
C[NH2+]CCn1c(C2CCNCC2)nc2ccccc21 (nonaromatic ring conformer: 83.04487304434704 kcal/mol)

>  <smiles>  (33) 
CNCCn1c(C2CCNCC2)nc2ccccc21

>  <score_type>  (33) 
oracle

>  <origin>  (33) 
adgpu

>  <m_score__min__energy>  (33) 
-6.4699999999999998

>  <m_primary>  (33) 
energy

$$$$
33:0
     RDKit          3D

 57 60  0  0  0  0  0  0  0  0999 V2000
   -0.4880   16.7830  -34.6980 C   0  0  0  0  0  0  0  0  0  0  0  0
   -1.8580   17.2990  -34.3720 C   0  0  0  0  0  0  0  0  0  0  0  0
   -2.9410   16.4130  -34.2690 C   0  0  0  0  0  0  0  0  0  0  0  0
   -4.2120   16.8850  -33.9350 C   0  0  0  0  0  0  0  0  0  0  0  0
   -4.4250   18.2570  -33.6930 C   0  0  0  0  0  0  0  0  0  0  0  0
   -5.7660   18.7800  -33.3210 C   0  0  0  0  0  0  0  0  0  0  0  0
   -6.7580   17.9580  -32.7580 C   0  0  0  0  0  0  0  0  0  0  0  0
   -7.9950   18.5060  -32.4270 C   0  0  0  0  0  0  0  0  0  0  0  0
   -8.2230   19.8600  -32.6610 C   0  0  0  0  0  0  0  0  0  0  0  0
   -9.8060   20.6010  -32.2610 S   0  0  0  0  0  0  0  0  0  0  0  0
   -9.1100   21.9240  -31.2000 C   0  0  0  0  0  0  0  0  0  0  0  0
   -8.7910   23.2140  -31.9740 C   0  0  0  0  0  0  0  0  0  0  0  0
   -7.3040   23.4410  -32.3670 C   0  0  0  0  0  0  0  0  0  0  0  0
   -6.2870   22.5650  -31.7190 N   0  0  0  0  0  0  0  0  0  0  0  0
   -4.9450   22.6740  -32.3520 C   0  0  0  0  0  0  0  0  0  0  0  0
   -3.8070   22.3160  -31.3940 C   0  0  0  0  0  0  0  0  0  0  0  0
   -3.8760   23.1730  -30.2040 N   0  0  0  0  0  0  0  0  0  0  0  0
   -2.6620   23.5900  -29.5430 C   0  0  0  0  0  0  0  0  0  0  0  0
   -1.6470   22.6690  -29.2220 C   0  0  0  0  0  0  0  0  0  0  0  0
   -0.4890   23.1140  -28.5810 C   0  0  0  0  0  0  0  0  0  0  0  0
   -0.3430   24.4630  -28.2620 C   0  0  0  0  0  0  0  0  0  0  0  0
   -1.3650   25.3540  -28.5910 C   0  0  0  0  0  0  0  0  0  0  0  0
   -2.4860   24.9040  -29.2150 N   0  0  0  0  0  0  0  0  0  0  0  0
   -5.1920   23.4850  -29.6270 C   0  0  0  0  0  0  0  0  0  0  0  0
   -6.2970   22.6030  -30.2300 C   0  0  0  0  0  0  0  0  0  0  0  0
   -7.2450   20.6150  -33.2260 N   0  0  0  0  0  0  0  0  0  0  0  0
   -6.0590   20.0910  -33.5440 N   0  0  0  0  0  0  0  0  0  0  0  0
   -3.3300   19.1360  -33.7730 C   0  0  0  0  0  0  0  0  0  0  0  0
   -2.0590   18.6630  -34.1080 C   0  0  0  0  0  0  0  0  0  0  0  0
   -1.0200   19.5360  -34.1680 F   0  0  0  0  0  0  0  0  0  0  0  0
    0.0579   16.5774  -33.7654 H   0  0  0  0  0  0  0  0  0  0  0  0
   -0.5751   15.8561  -35.2838 H   0  0  0  0  0  0  0  0  0  0  0  0
    0.0580   17.5371  -35.2838 H   0  0  0  0  0  0  0  0  0  0  0  0
   -2.7878   15.3393  -34.4526 H   0  0  0  0  0  0  0  0  0  0  0  0
   -5.0535   16.1805  -33.8602 H   0  0  0  0  0  0  0  0  0  0  0  0
   -6.5588   16.8909  -32.5804 H   0  0  0  0  0  0  0  0  0  0  0  0
   -8.7824   17.8770  -31.9861 H   0  0  0  0  0  0  0  0  0  0  0  0
   -9.8397   22.1604  -30.4115 H   0  0  0  0  0  0  0  0  0  0  0  0
   -8.1629   21.5477  -30.7860 H   0  0  0  0  0  0  0  0  0  0  0  0
   -9.3830   23.2019  -32.9011 H   0  0  0  0  0  0  0  0  0  0  0  0
   -9.0368   24.0344  -31.2837 H   0  0  0  0  0  0  0  0  0  0  0  0
   -7.2229   23.2941  -33.4541 H   0  0  0  0  0  0  0  0  0  0  0  0
   -7.0694   24.4564  -32.0149 H   0  0  0  0  0  0  0  0  0  0  0  0
   -6.6050   21.5940  -31.9550 H   0  0  0  0  0  0  0  0  0  0  0  0
   -4.9065   21.9918  -33.2140 H   0  0  0  0  0  0  0  0  0  0  0  0
   -4.8057   23.7223  -32.6548 H   0  0  0  0  0  0  0  0  0  0  0  0
   -3.9006   21.2624  -31.0921 H   0  0  0  0  0  0  0  0  0  0  0  0
   -2.8423   22.4703  -31.8994 H   0  0  0  0  0  0  0  0  0  0  0  0
   -1.7654   21.6050  -29.4746 H   0  0  0  0  0  0  0  0  0  0  0  0
    0.3083   22.3997  -28.3277 H   0  0  0  0  0  0  0  0  0  0  0  0
    0.5666   24.8206  -27.7572 H   0  0  0  0  0  0  0  0  0  0  0  0
   -1.2637   26.4214  -28.3453 H   0  0  0  0  0  0  0  0  0  0  0  0
   -5.1544   23.3173  -28.5405 H   0  0  0  0  0  0  0  0  0  0  0  0
   -5.4273   24.5352  -29.8542 H   0  0  0  0  0  0  0  0  0  0  0  0
   -6.1655   21.5771  -29.8555 H   0  0  0  0  0  0  0  0  0  0  0  0
   -7.2593   23.0406  -29.9261 H   0  0  0  0  0  0  0  0  0  0  0  0
   -3.4759   20.2071  -33.5696 H   0  0  0  0  0  0  0  0  0  0  0  0
  1  2  1  0
  2  3  2  0
  3  4  1  0
  4  5  2  0
  5  6  1  0
  6  7  2  0
  7  8  1  0
  8  9  2  0
  9 10  1  0
 10 11  1  0
 11 12  1  0
 12 13  1  0
 13 14  1  0
 14 15  1  0
 15 16  1  0
 16 17  1  0
 17 18  1  0
 18 19  2  0
 19 20  1  0
 20 21  2  0
 21 22  1  0
 22 23  2  0
 17 24  1  0
 24 25  1  0
  9 26  1  0
 26 27  2  0
  5 28  1  0
 28 29  2  0
 29 30  1  0
 29  2  1  0
 27  6  1  0
 25 14  1  0
 23 18  1  0
  1 31  1  0
  1 32  1  0
  1 33  1  0
  3 34  1  0
  4 35  1  0
  7 36  1  0
  8 37  1  0
 11 38  1  0
 11 39  1  0
 12 40  1  0
 12 41  1  0
 13 42  1  0
 13 43  1  0
 14 44  1  0
 15 45  1  0
 15 46  1  0
 16 47  1  0
 16 48  1  0
 19 49  1  0
 20 50  1  0
 21 51  1  0
 22 52  1  0
 24 53  1  0
 24 54  1  0
 25 55  1  0
 25 56  1  0
 28 57  1  0
M  CHG  1  14   1
M  END
>  <UniqueID>  (34) 
33

>  <SMILES>  (34) 
Cc1ccc(-c2ccc(SCCC[NH+]3CCN(c4ccccn4)CC3)nn2)cc1F

>  <Energy>  (34) 
77.97041532197989

>  <Genealogy>  (34) 
Cc1ccc(-c2ccc(SCCC[NH+]3CCN(c4ccccn4)CC3)nn2)cc1F (protonated)
Cc1ccc(-c2ccc(SCCC[NH+]3CCN(c4ccccn4)CC3)nn2)cc1F (3D coordinates assigned)
Cc1ccc(-c2ccc(SCCC[NH+]3CCN(c4ccccn4)CC3)nn2)cc1F (nonaromatic ring conformer: 77.97041532197989 kcal/mol)

>  <smiles>  (34) 
Cc1ccc(-c2ccc(SCCCN3CCN(c4ccccn4)CC3)nn2)cc1F

>  <score_type>  (34) 
oracle

>  <origin>  (34) 
adgpu

>  <m_score__min__energy>  (34) 
-9.2599999999999998

>  <m_primary>  (34) 
energy

$$$$
34:0
     RDKit          3D

 46 48  0  0  0  0  0  0  0  0999 V2000
   -0.2290   23.1470  -25.4790 C   0  0  0  0  0  0  0  0  0  0  0  0
   -1.0090   23.6080  -26.6740 C   0  0  0  0  0  0  0  0  0  0  0  0
   -2.0130   22.8000  -27.2230 C   0  0  0  0  0  0  0  0  0  0  0  0
   -2.7190   23.2240  -28.3500 C   0  0  0  0  0  0  0  0  0  0  0  0
   -2.4510   24.4740  -28.9260 C   0  0  0  0  0  0  0  0  0  0  0  0
   -3.1260   24.9160  -30.1050 N   0  0  0  0  0  0  0  0  0  0  0  0
   -4.8100   24.6530  -30.4030 S   0  0  0  0  0  0  0  0  0  0  0  0
   -5.3440   25.8070  -31.2060 O   0  0  0  0  0  0  0  0  0  0  0  0
   -5.5390   24.6170  -29.0910 O   0  0  0  0  0  0  0  0  0  0  0  0
   -5.1000   23.1330  -31.2450 C   0  0  0  0  0  0  0  0  0  0  0  0
   -6.4060   22.7420  -31.5570 C   0  0  0  0  0  0  0  0  0  0  0  0
   -6.6370   21.5460  -32.2480 C   0  0  0  0  0  0  0  0  0  0  0  0
   -5.5630   20.7280  -32.6320 C   0  0  0  0  0  0  0  0  0  0  0  0
   -5.7970   19.4670  -33.3640 C   0  0  0  0  0  0  0  0  0  0  0  0
   -5.9790   18.2690  -32.7730 N   0  0  0  0  0  0  0  0  0  0  0  0
   -6.1430   17.4670  -33.8470 C   0  0  0  0  0  0  0  0  0  0  0  0
   -6.3320   15.9830  -33.7510 C   0  0  0  0  0  0  0  0  0  0  0  0
   -5.0060   15.1960  -33.7560 C   0  0  0  0  0  0  0  0  0  0  0  0
   -3.8620   15.9820  -34.4130 C   0  0  0  0  0  0  0  0  0  0  0  0
   -4.6070   14.7280  -32.3450 C   0  0  0  0  0  0  0  0  0  0  0  0
   -6.0620   18.1370  -35.0110 N   0  0  0  0  0  0  0  0  0  0  0  0
   -5.8500   19.3700  -34.6690 O   0  0  0  0  0  0  0  0  0  0  0  0
   -4.2570   21.1210  -32.3090 C   0  0  0  0  0  0  0  0  0  0  0  0
   -4.0270   22.3150  -31.6190 C   0  0  0  0  0  0  0  0  0  0  0  0
   -1.4960   25.3080  -28.3380 C   0  0  0  0  0  0  0  0  0  0  0  0
   -0.7710   24.8750  -27.2240 C   0  0  0  0  0  0  0  0  0  0  0  0
   -0.7497   23.4548  -24.5602 H   0  0  0  0  0  0  0  0  0  0  0  0
   -0.1395   22.0508  -25.5001 H   0  0  0  0  0  0  0  0  0  0  0  0
    0.7744   23.5972  -25.5001 H   0  0  0  0  0  0  0  0  0  0  0  0
   -2.2459   21.8277  -26.7642 H   0  0  0  0  0  0  0  0  0  0  0  0
   -3.4901   22.5737  -28.7888 H   0  0  0  0  0  0  0  0  0  0  0  0
   -7.2542   23.3757  -31.2588 H   0  0  0  0  0  0  0  0  0  0  0  0
   -7.6668   21.2457  -32.4914 H   0  0  0  0  0  0  0  0  0  0  0  0
   -6.8669   15.7592  -32.8162 H   0  0  0  0  0  0  0  0  0  0  0  0
   -6.8995   15.6694  -34.6396 H   0  0  0  0  0  0  0  0  0  0  0  0
   -5.1858   14.3008  -34.3694 H   0  0  0  0  0  0  0  0  0  0  0  0
   -3.2231   16.4209  -33.6325 H   0  0  0  0  0  0  0  0  0  0  0  0
   -3.2631   15.3038  -35.0386 H   0  0  0  0  0  0  0  0  0  0  0  0
   -4.2803   16.7843  -35.0386 H   0  0  0  0  0  0  0  0  0  0  0  0
   -5.1288   15.3400  -31.5945 H   0  0  0  0  0  0  0  0  0  0  0  0
   -4.8870   13.6721  -32.2161 H   0  0  0  0  0  0  0  0  0  0  0  0
   -3.5201   14.8375  -32.2161 H   0  0  0  0  0  0  0  0  0  0  0  0
   -3.4074   20.4859  -32.6003 H   0  0  0  0  0  0  0  0  0  0  0  0
   -2.9982   22.6132  -31.3688 H   0  0  0  0  0  0  0  0  0  0  0  0
   -1.3140   26.3100  -28.7538 H   0  0  0  0  0  0  0  0  0  0  0  0
   -0.0102   25.5317  -26.7770 H   0  0  0  0  0  0  0  0  0  0  0  0
  1  2  1  0
  2  3  2  0
  3  4  1  0
  4  5  2  0
  5  6  1  0
  6  7  1  0
  7  8  2  0
  7  9  2  0
  7 10  1  0
 10 11  2  0
 11 12  1  0
 12 13  2  0
 13 14  1  0
 14 15  2  0
 15 16  1  0
 16 17  1  0
 17 18  1  0
 18 19  1  0
 18 20  1  0
 16 21  2  0
 21 22  1  0
 13 23  1  0
 23 24  2  0
  5 25  1  0
 25 26  2  0
 26  2  1  0
 24 10  1  0
 22 14  1  0
  1 27  1  0
  1 28  1  0
  1 29  1  0
  3 30  1  0
  4 31  1  0
 11 32  1  0
 12 33  1  0
 17 34  1  0
 17 35  1  0
 18 36  1  0
 19 37  1  0
 19 38  1  0
 19 39  1  0
 20 40  1  0
 20 41  1  0
 20 42  1  0
 23 43  1  0
 24 44  1  0
 25 45  1  0
 26 46  1  0
M  CHG  1   6  -1
M  END
>  <UniqueID>  (35) 
34

>  <SMILES>  (35) 
Cc1ccc([N-]S(=O)(=O)c2ccc(-c3nc(CC(C)C)no3)cc2)cc1

>  <Energy>  (35) 
81.48835207996723

>  <Genealogy>  (35) 
Cc1ccc([N-]S(=O)(=O)c2ccc(-c3nc(CC(C)C)no3)cc2)cc1 (protonated)
Cc1ccc([N-]S(=O)(=O)c2ccc(-c3nc(CC(C)C)no3)cc2)cc1 (3D coordinates assigned)
Cc1ccc([N-]S(=O)(=O)c2ccc(-c3nc(CC(C)C)no3)cc2)cc1 (optimized conformer: 81.48835207996723 kcal/mol)

>  <smiles>  (35) 
Cc1ccc(NS(=O)(=O)c2ccc(-c3nc(CC(C)C)no3)cc2)cc1

>  <score_type>  (35) 
oracle

>  <origin>  (35) 
adgpu

>  <m_score__min__energy>  (35) 
-10.210000000000001

>  <m_primary>  (35) 
energy

$$$$
35:0
     RDKit          3D

 39 41  0  0  0  0  0  0  0  0999 V2000
   -5.4040   16.5600  -31.7820 C   0  0  0  0  0  0  0  0  0  0  0  0
   -5.2030   16.8040  -33.2180 N   0  0  1  0  0  0  0  0  0  0  0  0
   -6.4150   17.3360  -33.8890 C   0  0  0  0  0  0  0  0  0  0  0  0
   -7.1880   18.3570  -33.0810 C   0  0  0  0  0  0  0  0  0  0  0  0
   -7.1250   19.7220  -33.4120 C   0  0  0  0  0  0  0  0  0  0  0  0
   -7.8460   20.6650  -32.6730 C   0  0  0  0  0  0  0  0  0  0  0  0
   -8.6500   20.2510  -31.6070 C   0  0  0  0  0  0  0  0  0  0  0  0
   -8.7420   18.8950  -31.2870 C   0  0  0  0  0  0  0  0  0  0  0  0
   -8.0230   17.9500  -32.0240 C   0  0  0  0  0  0  0  0  0  0  0  0
   -3.7870   17.8030  -33.4660 S   0  0  0  0  0  0  0  0  0  0  0  0
   -2.5990   17.1830  -32.7820 O   0  0  0  0  0  0  0  0  0  0  0  0
   -3.4950   17.8940  -34.9370 O   0  0  0  0  0  0  0  0  0  0  0  0
   -4.0470   19.4390  -32.8590 C   0  0  0  0  0  0  0  0  0  0  0  0
   -3.6430   20.5390  -33.6240 C   0  0  0  0  0  0  0  0  0  0  0  0
   -3.8420   21.8390  -33.1500 C   0  0  0  0  0  0  0  0  0  0  0  0
   -4.4430   22.0610  -31.8980 C   0  0  0  0  0  0  0  0  0  0  0  0
   -4.6420   23.4070  -31.4240 N   0  0  0  0  0  0  0  0  0  0  0  0
   -5.7560   24.1650  -31.4650 C   0  0  0  0  0  0  0  0  0  0  0  0
   -5.5090   25.3680  -30.9130 N   0  0  0  0  0  0  0  0  0  0  0  0
   -4.2370   25.3270  -30.5390 N   0  0  0  0  0  0  0  0  0  0  0  0
   -3.7140   24.1500  -30.8460 N   0  0  0  0  0  0  0  0  0  0  0  0
   -4.8330   20.9490  -31.1280 C   0  0  0  0  0  0  0  0  0  0  0  0
   -4.6310   19.6490  -31.6040 C   0  0  0  0  0  0  0  0  0  0  0  0
   -4.8101   17.2809  -31.2009 H   0  0  0  0  0  0  0  0  0  0  0  0
   -6.4693   16.6793  -31.5354 H   0  0  0  0  0  0  0  0  0  0  0  0
   -5.0829   15.5372  -31.5354 H   0  0  0  0  0  0  0  0  0  0  0  0
   -4.9940   15.8770  -33.6560 H   0  0  0  0  0  0  0  0  0  0  0  0
   -6.1048   17.8091  -34.8324 H   0  0  0  0  0  0  0  0  0  0  0  0
   -7.0901   16.4801  -34.0361 H   0  0  0  0  0  0  0  0  0  0  0  0
   -6.5040   20.0505  -34.2584 H   0  0  0  0  0  0  0  0  0  0  0  0
   -7.7805   21.7324  -32.9304 H   0  0  0  0  0  0  0  0  0  0  0  0
   -9.2103   20.9937  -31.0201 H   0  0  0  0  0  0  0  0  0  0  0  0
   -9.3816   18.5699  -30.4532 H   0  0  0  0  0  0  0  0  0  0  0  0
   -8.1103   16.8818  -31.7764 H   0  0  0  0  0  0  0  0  0  0  0  0
   -3.1667   20.3800  -34.6027 H   0  0  0  0  0  0  0  0  0  0  0  0
   -3.5255   22.6964  -33.7621 H   0  0  0  0  0  0  0  0  0  0  0  0
   -6.7216   23.8483  -31.8861 H   0  0  0  0  0  0  0  0  0  0  0  0
   -5.3003   21.1034  -30.1442 H   0  0  0  0  0  0  0  0  0  0  0  0
   -4.9324   18.7879  -30.9894 H   0  0  0  0  0  0  0  0  0  0  0  0
  1  2  1  0
  2  3  1  0
  3  4  1  0
  4  5  2  0
  5  6  1  0
  6  7  2  0
  7  8  1  0
  8  9  2  0
  2 10  1  0
 10 11  2  0
 10 12  2  0
 10 13  1  0
 13 14  2  0
 14 15  1  0
 15 16  2  0
 16 17  1  0
 17 18  1  0
 18 19  2  0
 19 20  1  0
 20 21  2  0
 16 22  1  0
 22 23  2  0
  9  4  1  0
 23 13  1  0
 21 17  1  0
  1 24  1  0
  1 25  1  0
  1 26  1  0
  2 27  1  6
  3 28  1  0
  3 29  1  0
  5 30  1  0
  6 31  1  0
  7 32  1  0
  8 33  1  0
  9 34  1  0
 14 35  1  0
 15 36  1  0
 18 37  1  0
 22 38  1  0
 23 39  1  0
M  CHG  1   2   1
M  END
>  <UniqueID>  (36) 
35

>  <SMILES>  (36) 
C[N@@H+](Cc1ccccc1)S(=O)(=O)c1ccc(-n2cnnn2)cc1

>  <Energy>  (36) 
84.12746132884912

>  <Genealogy>  (36) 
C[NH+](Cc1ccccc1)S(=O)(=O)c1ccc(-n2cnnn2)cc1 (protonated)
C[N@@H+](Cc1ccccc1)S(=O)(=O)c1ccc(-n2cnnn2)cc1 (chirality)
C[N@@H+](Cc1ccccc1)S(=O)(=O)c1ccc(-n2cnnn2)cc1 (3D coordinates assigned)
C[N@@H+](Cc1ccccc1)S(=O)(=O)c1ccc(-n2cnnn2)cc1 (optimized conformer: 84.12746132884912 kcal/mol)

>  <smiles>  (36) 
CN(Cc1ccccc1)S(=O)(=O)c1ccc(-n2cnnn2)cc1

>  <score_type>  (36) 
oracle

>  <origin>  (36) 
adgpu

>  <m_score__min__energy>  (36) 
-7.8799999999999999

>  <m_primary>  (36) 
energy

$$$$
36:0
     RDKit          3D

 71 75  0  0  0  0  0  0  0  0999 V2000
    3.0350   13.3190  -26.8550 C   0  0  0  0  0  0  0  0  0  0  0  0
    3.7340   14.6760  -26.8530 C   0  0  0  0  0  0  0  0  0  0  0  0
    2.7800   15.7500  -27.1800 N   0  0  0  0  0  0  0  0  0  0  0  0
    1.4410   15.4870  -27.1050 C   0  0  0  0  0  0  0  0  0  0  0  0
    0.5020   16.4790  -27.3920 C   0  0  0  0  0  0  0  0  0  0  0  0
    0.9250   17.7610  -27.7530 C   0  0  0  0  0  0  0  0  0  0  0  0
   -0.0830   18.7980  -28.0680 C   0  0  0  0  0  0  0  0  0  0  0  0
   -1.1160   19.0870  -27.1610 C   0  0  0  0  0  0  0  0  0  0  0  0
   -2.0910   20.0370  -27.4780 C   0  0  0  0  0  0  0  0  0  0  0  0
   -2.0450   20.7240  -28.6970 C   0  0  0  0  0  0  0  0  0  0  0  0
   -3.0780   21.6300  -28.9890 O   0  0  0  0  0  0  0  0  0  0  0  0
   -3.9710   21.5330  -30.1010 C   0  0  0  0  0  0  0  0  0  0  0  0
   -4.6110   22.8680  -30.4190 C   0  0  0  0  0  0  0  0  0  0  0  0
   -3.8570   24.0520  -30.2900 C   0  0  0  0  0  0  0  0  0  0  0  0
   -4.3760   25.2500  -30.6630 N   0  0  0  0  0  0  0  0  0  0  0  0
   -5.6220   25.3560  -31.1900 C   0  0  0  0  0  0  0  0  0  0  0  0
   -6.4040   24.2170  -31.3650 C   0  0  0  0  0  0  0  0  0  0  0  0
   -5.9050   22.9620  -30.9860 C   0  0  0  0  0  0  0  0  0  0  0  0
   -6.7630   21.7790  -31.2030 C   0  0  0  0  0  0  0  0  0  0  0  0
   -8.1350   21.8390  -30.9220 C   0  0  0  0  0  0  0  0  0  0  0  0
   -8.9600   20.7490  -31.2140 C   0  0  0  0  0  0  0  0  0  0  0  0
   -8.4250   19.6010  -31.8070 C   0  0  0  0  0  0  0  0  0  0  0  0
   -7.0580   19.5380  -32.1110 C   0  0  0  0  0  0  0  0  0  0  0  0
   -6.3830   18.1190  -32.9100 S   0  0  0  0  0  0  0  0  0  0  0  0
   -5.4400   17.4050  -31.9820 O   0  0  0  0  0  0  0  0  0  0  0  0
   -7.5030   17.1790  -33.2500 O   0  0  0  0  0  0  0  0  0  0  0  0
   -5.5600   18.5640  -34.3770 N   0  0  0  0  0  0  0  0  0  0  0  0
   -4.1080   18.6380  -34.1840 C   0  0  0  0  0  0  0  0  0  0  0  0
   -3.6990   19.9120  -33.4350 C   0  0  0  0  0  0  0  0  0  0  0  0
   -2.2200   19.9410  -33.1430 C   0  0  0  0  0  0  0  0  0  0  0  0
   -1.5280   18.7500  -32.8590 C   0  0  0  0  0  0  0  0  0  0  0  0
   -0.1520   18.7780  -32.6150 C   0  0  0  0  0  0  0  0  0  0  0  0
    0.5440   19.9890  -32.6580 C   0  0  0  0  0  0  0  0  0  0  0  0
   -0.1350   21.1760  -32.9490 C   0  0  0  0  0  0  0  0  0  0  0  0
   -1.5120   21.1540  -33.1960 C   0  0  0  0  0  0  0  0  0  0  0  0
   -6.2300   20.6270  -31.8030 C   0  0  0  0  0  0  0  0  0  0  0  0
   -0.9880   20.4670  -29.5910 C   0  0  0  0  0  0  0  0  0  0  0  0
   -0.0140   19.5130  -29.2760 C   0  0  0  0  0  0  0  0  0  0  0  0
    2.3070   18.0340  -27.7950 C   0  0  0  0  0  0  0  0  0  0  0  0
    2.9110   19.6600  -28.1350 Cl  0  0  0  0  0  0  0  0  0  0  0  0
    3.2220   17.0100  -27.4990 C   0  0  0  0  0  0  0  0  0  0  0  0
    4.4580   17.2620  -27.5270 O   0  0  0  0  0  0  0  0  0  0  0  0
    2.8665   12.9918  -25.8184 H   0  0  0  0  0  0  0  0  0  0  0  0
    2.0690   13.4049  -27.3740 H   0  0  0  0  0  0  0  0  0  0  0  0
    3.6658   12.5824  -27.3740 H   0  0  0  0  0  0  0  0  0  0  0  0
    4.1602   14.8619  -25.8561 H   0  0  0  0  0  0  0  0  0  0  0  0
    4.5310   14.6660  -27.6111 H   0  0  0  0  0  0  0  0  0  0  0  0
    1.0995   14.4823  -26.8152 H   0  0  0  0  0  0  0  0  0  0  0  0
   -0.5726   16.2513  -27.3339 H   0  0  0  0  0  0  0  0  0  0  0  0
   -1.1579   18.5623  -26.1951 H   0  0  0  0  0  0  0  0  0  0  0  0
   -2.9010   20.2466  -26.7639 H   0  0  0  0  0  0  0  0  0  0  0  0
   -3.4090   21.1877  -30.9813 H   0  0  0  0  0  0  0  0  0  0  0  0
   -4.7689   20.8218  -29.8410 H   0  0  0  0  0  0  0  0  0  0  0  0
   -2.8364   24.0049  -29.8825 H   0  0  0  0  0  0  0  0  0  0  0  0
   -6.0145   26.3421  -31.4791 H   0  0  0  0  0  0  0  0  0  0  0  0
   -7.4110   24.3013  -31.7996 H   0  0  0  0  0  0  0  0  0  0  0  0
   -8.5635   22.7460  -30.4706 H   0  0  0  0  0  0  0  0  0  0  0  0
  -10.0331   20.7944  -30.9767 H   0  0  0  0  0  0  0  0  0  0  0  0
   -9.0781   18.7458  -32.0353 H   0  0  0  0  0  0  0  0  0  0  0  0
   -3.7806   17.7628  -33.6037 H   0  0  0  0  0  0  0  0  0  0  0  0
   -3.6310   18.6551  -35.1751 H   0  0  0  0  0  0  0  0  0  0  0  0
   -3.9572   20.7856  -34.0516 H   0  0  0  0  0  0  0  0  0  0  0  0
   -4.2368   19.9315  -32.4756 H   0  0  0  0  0  0  0  0  0  0  0  0
   -2.0711   17.7939  -32.8288 H   0  0  0  0  0  0  0  0  0  0  0  0
    0.3843   17.8446  -32.3886 H   0  0  0  0  0  0  0  0  0  0  0  0
    1.6264   20.0084  -32.4628 H   0  0  0  0  0  0  0  0  0  0  0  0
    0.4141   22.1285  -32.9838 H   0  0  0  0  0  0  0  0  0  0  0  0
   -2.0419   22.0885  -33.4323 H   0  0  0  0  0  0  0  0  0  0  0  0
   -5.1554   20.5784  -32.0331 H   0  0  0  0  0  0  0  0  0  0  0  0
   -0.9277   21.0184  -30.5409 H   0  0  0  0  0  0  0  0  0  0  0  0
    0.8108   19.3215  -29.9782 H   0  0  0  0  0  0  0  0  0  0  0  0
  1  2  1  0
  2  3  1  0
  3  4  1  0
  4  5  2  0
  5  6  1  0
  6  7  1  0
  7  8  2  0
  8  9  1  0
  9 10  2  0
 10 11  1  0
 11 12  1  0
 12 13  1  0
 13 14  2  0
 14 15  1  0
 15 16  2  0
 16 17  1  0
 17 18  2  0
 18 19  1  0
 19 20  2  0
 20 21  1  0
 21 22  2  0
 22 23  1  0
 23 24  1  0
 24 25  2  0
 24 26  2  0
 24 27  1  0
 27 28  1  0
 28 29  1  0
 29 30  1  0
 30 31  2  0
 31 32  1  0
 32 33  2  0
 33 34  1  0
 34 35  2  0
 23 36  2  0
 10 37  1  0
 37 38  2  0
  6 39  2  0
 39 40  1  0
 39 41  1  0
 41 42  2  0
 41  3  1  0
 38  7  1  0
 18 13  1  0
 36 19  1  0
 35 30  1  0
  1 43  1  0
  1 44  1  0
  1 45  1  0
  2 46  1  0
  2 47  1  0
  4 48  1  0
  5 49  1  0
  8 50  1  0
  9 51  1  0
 12 52  1  0
 12 53  1  0
 14 54  1  0
 16 55  1  0
 17 56  1  0
 20 57  1  0
 21 58  1  0
 22 59  1  0
 28 60  1  0
 28 61  1  0
 29 62  1  0
 29 63  1  0
 31 64  1  0
 32 65  1  0
 33 66  1  0
 34 67  1  0
 35 68  1  0
 36 69  1  0
 37 70  1  0
 38 71  1  0
M  CHG  1  27  -1
M  END
>  <UniqueID>  (37) 
36

>  <SMILES>  (37) 
CCn1ccc(-c2ccc(OCc3cnccc3-c3cccc(S(=O)(=O)[N-]CCc4ccccc4)c3)cc2)c(Cl)c1=O

>  <Energy>  (37) 
93.17654272944753

>  <Genealogy>  (37) 
CCn1ccc(-c2ccc(OCc3cnccc3-c3cccc(S(=O)(=O)[N-]CCc4ccccc4)c3)cc2)c(Cl)c1=O (protonated)
CCn1ccc(-c2ccc(OCc3cnccc3-c3cccc(S(=O)(=O)[N-]CCc4ccccc4)c3)cc2)c(Cl)c1=O (3D coordinates assigned)
CCn1ccc(-c2ccc(OCc3cnccc3-c3cccc(S(=O)(=O)[N-]CCc4ccccc4)c3)cc2)c(Cl)c1=O (optimized conformer: 93.17654272944753 kcal/mol)

>  <smiles>  (37) 
CCn1ccc(-c2ccc(OCc3cnccc3-c3cccc(S(=O)(=O)NCCc4ccccc4)c3)cc2)c(Cl)c1=O

>  <score_type>  (37) 
oracle

>  <origin>  (37) 
adgpu

>  <m_score__min__energy>  (37) 
-11.119999999999999

>  <m_primary>  (37) 
energy

$$$$
37:0
     RDKit          3D

 45 48  0  0  0  0  0  0  0  0999 V2000
   -4.9670   15.5680  -32.0430 C   0  0  0  0  0  0  0  0  0  0  0  0
   -3.8270   15.7390  -33.0090 C   0  0  0  0  0  0  0  0  0  0  0  0
   -2.9330   14.6770  -33.2240 C   0  0  0  0  0  0  0  0  0  0  0  0
   -1.8680   14.8190  -34.1190 C   0  0  0  0  0  0  0  0  0  0  0  0
   -1.6820   16.0230  -34.8010 C   0  0  0  0  0  0  0  0  0  0  0  0
   -2.5540   17.0920  -34.5830 C   0  0  0  0  0  0  0  0  0  0  0  0
   -3.6200   16.9650  -33.6820 C   0  0  0  0  0  0  0  0  0  0  0  0
   -4.4920   18.0810  -33.4640 N   0  0  0  0  0  0  0  0  0  0  0  0
   -4.0520   19.2510  -32.7590 C   0  0  0  0  0  0  0  0  0  0  0  0
   -2.8580   19.3250  -32.3590 O   0  0  0  0  0  0  0  0  0  0  0  0
   -4.9450   20.3660  -32.5480 N   0  0  0  0  0  0  0  0  0  0  0  0
   -4.4240   21.7190  -32.8000 C   0  0  0  0  0  0  0  0  0  0  0  0
   -4.2350   22.4340  -31.4910 C   0  0  0  0  0  0  0  0  0  0  0  0
   -3.3440   21.9280  -30.5310 C   0  0  0  0  0  0  0  0  0  0  0  0
   -3.2230   22.5520  -29.2850 C   0  0  0  0  0  0  0  0  0  0  0  0
   -3.9980   23.6760  -28.9850 C   0  0  0  0  0  0  0  0  0  0  0  0
   -3.8490   24.4530  -27.4190 Cl  0  0  0  0  0  0  0  0  0  0  0  0
   -4.8980   24.1770  -29.9320 C   0  0  0  0  0  0  0  0  0  0  0  0
   -5.0210   23.5560  -31.1780 C   0  0  0  0  0  0  0  0  0  0  0  0
   -6.3750   20.1630  -32.4280 C   0  0  0  0  0  0  0  0  0  0  0  0
   -7.1450   20.9860  -31.5840 C   0  0  0  0  0  0  0  0  0  0  0  0
   -8.5330   20.8270  -31.5080 C   0  0  0  0  0  0  0  0  0  0  0  0
   -9.4780   21.8660  -30.4570 Cl  0  0  0  0  0  0  0  0  0  0  0  0
   -9.1670   19.8390  -32.2650 C   0  0  0  0  0  0  0  0  0  0  0  0
   -8.4140   19.0010  -33.0890 C   0  0  0  0  0  0  0  0  0  0  0  0
   -7.0250   19.1540  -33.1640 C   0  0  0  0  0  0  0  0  0  0  0  0
   -6.0730   18.0750  -34.1540 S   0  0  0  0  0  0  0  0  0  0  0  0
   -6.6450   16.6860  -34.0990 O   0  0  0  0  0  0  0  0  0  0  0  0
   -6.0260   18.5670  -35.5730 O   0  0  0  0  0  0  0  0  0  0  0  0
   -4.5862   15.6251  -31.0126 H   0  0  0  0  0  0  0  0  0  0  0  0
   -5.7075   16.3651  -32.2049 H   0  0  0  0  0  0  0  0  0  0  0  0
   -5.4411   14.5887  -32.2049 H   0  0  0  0  0  0  0  0  0  0  0  0
   -3.0715   13.7281  -32.6851 H   0  0  0  0  0  0  0  0  0  0  0  0
   -1.1756   13.9807  -34.2860 H   0  0  0  0  0  0  0  0  0  0  0  0
   -0.8482   16.1297  -35.5105 H   0  0  0  0  0  0  0  0  0  0  0  0
   -2.4032   18.0392  -35.1216 H   0  0  0  0  0  0  0  0  0  0  0  0
   -3.4585   21.6489  -33.3225 H   0  0  0  0  0  0  0  0  0  0  0  0
   -5.1381   22.2771  -33.4234 H   0  0  0  0  0  0  0  0  0  0  0  0
   -2.7392   21.0380  -30.7595 H   0  0  0  0  0  0  0  0  0  0  0  0
   -2.5166   22.1575  -28.5398 H   0  0  0  0  0  0  0  0  0  0  0  0
   -5.5093   25.0604  -29.6956 H   0  0  0  0  0  0  0  0  0  0  0  0
   -5.7360   23.9471  -31.9167 H   0  0  0  0  0  0  0  0  0  0  0  0
   -6.6510   21.7607  -30.9791 H   0  0  0  0  0  0  0  0  0  0  0  0
  -10.2594   19.7214  -32.2118 H   0  0  0  0  0  0  0  0  0  0  0  0
   -8.9131   18.2192  -33.6803 H   0  0  0  0  0  0  0  0  0  0  0  0
  1  2  1  0
  2  3  2  0
  3  4  1  0
  4  5  2  0
  5  6  1  0
  6  7  2  0
  7  8  1  0
  8  9  1  0
  9 10  2  0
  9 11  1  0
 11 12  1  0
 12 13  1  0
 13 14  2  0
 14 15  1  0
 15 16  2  0
 16 17  1  0
 16 18  1  0
 18 19  2  0
 11 20  1  0
 20 21  2  0
 21 22  1  0
 22 23  1  0
 22 24  2  0
 24 25  1  0
 25 26  2  0
 26 27  1  0
 27 28  2  0
 27 29  2  0
  7  2  1  0
 27  8  1  0
 19 13  1  0
 26 20  1  0
  1 30  1  0
  1 31  1  0
  1 32  1  0
  3 33  1  0
  4 34  1  0
  5 35  1  0
  6 36  1  0
 12 37  1  0
 12 38  1  0
 14 39  1  0
 15 40  1  0
 18 41  1  0
 19 42  1  0
 21 43  1  0
 24 44  1  0
 25 45  1  0
M  END
>  <UniqueID>  (38) 
37

>  <SMILES>  (38) 
Cc1ccccc1N1C(=O)N(Cc2ccc(Cl)cc2)c2cc(Cl)ccc2S1(=O)=O

>  <Energy>  (38) 
64.09456651954314

>  <Genealogy>  (38) 
Cc1ccccc1N1C(=O)N(Cc2ccc(Cl)cc2)c2cc(Cl)ccc2S1(=O)=O (3D coordinates assigned)
Cc1ccccc1N1C(=O)N(Cc2ccc(Cl)cc2)c2cc(Cl)ccc2S1(=O)=O (nonaromatic ring conformer: 64.09456651954314 kcal/mol)

>  <smiles>  (38) 
Cc1ccccc1N1C(=O)N(Cc2ccc(Cl)cc2)c2cc(Cl)ccc2S1(=O)=O

>  <score_type>  (38) 
oracle

>  <origin>  (38) 
adgpu

>  <m_score__min__energy>  (38) 
-9.3000000000000007

>  <m_primary>  (38) 
energy

$$$$
38:0
     RDKit          3D

 62 65  0  0  0  0  0  0  0  0999 V2000
   -3.6750   21.5050  -31.0710 C   0  0  0  0  0  0  0  0  0  0  0  0
   -4.9180   22.3430  -31.0080 C   0  0  0  0  0  0  0  0  0  0  0  0
   -4.8670   23.6580  -30.5210 C   0  0  0  0  0  0  0  0  0  0  0  0
   -6.0340   24.4250  -30.4460 C   0  0  0  0  0  0  0  0  0  0  0  0
   -7.2580   23.8810  -30.8380 C   0  0  0  0  0  0  0  0  0  0  0  0
   -7.3290   22.5560  -31.2960 C   0  0  0  0  0  0  0  0  0  0  0  0
   -8.6420   21.9750  -31.7410 C   0  0  0  0  0  0  0  0  0  0  0  0
   -8.9420   20.7750  -30.9560 N   0  0  0  0  0  0  0  0  0  0  0  0
   -8.9150   19.3770  -31.9860 S   0  0  0  0  0  0  0  0  0  0  0  0
   -9.8410   19.5990  -33.1500 O   0  0  0  0  0  0  0  0  0  0  0  0
   -9.3890   18.1690  -31.2250 O   0  0  0  0  0  0  0  0  0  0  0  0
   -7.2830   19.1140  -32.5940 C   0  0  0  0  0  0  0  0  0  0  0  0
   -6.4540   18.1750  -31.9700 C   0  0  0  0  0  0  0  0  0  0  0  0
   -5.1680   17.9350  -32.4610 C   0  0  0  0  0  0  0  0  0  0  0  0
   -4.6980   18.6280  -33.5930 C   0  0  0  0  0  0  0  0  0  0  0  0
   -3.3800   18.3970  -34.1250 N   0  0  0  0  0  0  0  0  0  0  0  0
   -2.1690   18.6760  -33.4050 C   0  0  0  0  0  0  0  0  0  0  0  0
   -1.6120   17.6680  -32.6070 C   0  0  0  0  0  0  0  0  0  0  0  0
   -0.4200   17.8890  -31.9140 C   0  0  0  0  0  0  0  0  0  0  0  0
    0.2330   19.1260  -32.0080 C   0  0  0  0  0  0  0  0  0  0  0  0
    1.5020   19.3750  -31.2370 C   0  0  0  0  0  0  0  0  0  0  0  0
    1.5120   18.5600  -29.9410 C   0  0  0  0  0  0  0  0  0  0  0  0
    0.4360   19.0400  -29.0060 C   0  0  0  0  0  0  0  0  0  0  0  0
   -0.0620   20.3470  -29.0990 C   0  0  0  0  0  0  0  0  0  0  0  0
   -1.0800   20.7680  -28.2440 C   0  0  0  0  0  0  0  0  0  0  0  0
   -1.6000   19.8730  -27.3080 C   0  0  0  0  0  0  0  0  0  0  0  0
   -1.1190   18.6040  -27.2370 N   0  0  0  0  0  0  0  0  0  0  0  0
   -0.1260   18.1700  -28.0590 C   0  0  0  0  0  0  0  0  0  0  0  0
   -0.3430   20.1530  -32.7730 C   0  0  0  0  0  0  0  0  0  0  0  0
   -1.5450   19.9430  -33.4650 C   0  0  0  0  0  0  0  0  0  0  0  0
   -2.1380   21.0340  -34.1820 N   0  0  0  0  0  0  0  0  0  0  0  0
   -5.5300   19.5750  -34.2070 C   0  0  0  0  0  0  0  0  0  0  0  0
   -6.8170   19.8130  -33.7160 C   0  0  0  0  0  0  0  0  0  0  0  0
   -6.1520   21.7940  -31.3880 C   0  0  0  0  0  0  0  0  0  0  0  0
   -3.3351   21.2759  -30.0502 H   0  0  0  0  0  0  0  0  0  0  0  0
   -3.8914   20.5677  -31.6045 H   0  0  0  0  0  0  0  0  0  0  0  0
   -2.8872   22.0571  -31.6045 H   0  0  0  0  0  0  0  0  0  0  0  0
   -3.9069   24.0865  -30.1975 H   0  0  0  0  0  0  0  0  0  0  0  0
   -5.9870   25.4602  -30.0769 H   0  0  0  0  0  0  0  0  0  0  0  0
   -8.1707   24.4930  -30.7879 H   0  0  0  0  0  0  0  0  0  0  0  0
   -9.4396   22.7178  -31.5928 H   0  0  0  0  0  0  0  0  0  0  0  0
   -8.5798   21.7075  -32.8062 H   0  0  0  0  0  0  0  0  0  0  0  0
   -8.1770   20.6470  -30.2530 H   0  0  0  0  0  0  0  0  0  0  0  0
   -6.8161   17.6238  -31.0897 H   0  0  0  0  0  0  0  0  0  0  0  0
   -4.5194   17.2009  -31.9606 H   0  0  0  0  0  0  0  0  0  0  0  0
   -3.2920   18.1270  -35.1310 H   0  0  0  0  0  0  0  0  0  0  0  0
   -2.1178   16.6946  -32.5257 H   0  0  0  0  0  0  0  0  0  0  0  0
    0.0083   17.0893  -31.2919 H   0  0  0  0  0  0  0  0  0  0  0  0
    2.3639   19.0828  -31.8548 H   0  0  0  0  0  0  0  0  0  0  0  0
    1.5605   20.4441  -30.9848 H   0  0  0  0  0  0  0  0  0  0  0  0
    1.3380   17.5002  -30.1789 H   0  0  0  0  0  0  0  0  0  0  0  0
    2.4891   18.6843  -29.4512 H   0  0  0  0  0  0  0  0  0  0  0  0
    0.3503   21.0407  -29.8466 H   0  0  0  0  0  0  0  0  0  0  0  0
   -1.4691   21.7950  -28.3067 H   0  0  0  0  0  0  0  0  0  0  0  0
   -2.4009   20.1954  -26.6263 H   0  0  0  0  0  0  0  0  0  0  0  0
    0.2374   17.1347  -27.9813 H   0  0  0  0  0  0  0  0  0  0  0  0
    0.1537   21.1328  -32.8303 H   0  0  0  0  0  0  0  0  0  0  0  0
   -1.6420   21.9500  -34.2600 H   0  0  0  0  0  0  0  0  0  0  0  0
   -3.0990   20.9720  -34.5820 H   0  0  0  0  0  0  0  0  0  0  0  0
   -5.1672   20.1349  -35.0816 H   0  0  0  0  0  0  0  0  0  0  0  0
   -7.4656   20.5506  -34.2113 H   0  0  0  0  0  0  0  0  0  0  0  0
   -6.1984   20.7600  -31.7605 H   0  0  0  0  0  0  0  0  0  0  0  0
  1  2  1  0
  2  3  2  0
  3  4  1  0
  4  5  2  0
  5  6  1  0
  6  7  1  0
  7  8  1  0
  8  9  1  0
  9 10  2  0
  9 11  2  0
  9 12  1  0
 12 13  2  0
 13 14  1  0
 14 15  2  0
 15 16  1  0
 16 17  1  0
 17 18  2  0
 18 19  1  0
 19 20  2  0
 20 21  1  0
 21 22  1  0
 22 23  1  0
 23 24  2  0
 24 25  1  0
 25 26  2  0
 26 27  1  0
 27 28  2  0
 20 29  1  0
 29 30  2  0
 30 31  1  0
 15 32  1  0
 32 33  2  0
  6 34  2  0
 34  2  1  0
 33 12  1  0
 30 17  1  0
 28 23  1  0
  1 35  1  0
  1 36  1  0
  1 37  1  0
  3 38  1  0
  4 39  1  0
  5 40  1  0
  7 41  1  0
  7 42  1  0
  8 43  1  0
 13 44  1  0
 14 45  1  0
 16 46  1  0
 18 47  1  0
 19 48  1  0
 21 49  1  0
 21 50  1  0
 22 51  1  0
 22 52  1  0
 24 53  1  0
 25 54  1  0
 26 55  1  0
 28 56  1  0
 29 57  1  0
 31 58  1  0
 31 59  1  0
 32 60  1  0
 33 61  1  0
 34 62  1  0
M  END
>  <UniqueID>  (39) 
38

>  <SMILES>  (39) 
Cc1cccc(CNS(=O)(=O)c2ccc(Nc3ccc(CCc4cccnc4)cc3N)cc2)c1

>  <Energy>  (39) 
66.59037801852871

>  <Genealogy>  (39) 
Cc1cccc(CNS(=O)(=O)c2ccc(Nc3ccc(CCc4cccnc4)cc3N)cc2)c1 (3D coordinates assigned)
Cc1cccc(CNS(=O)(=O)c2ccc(Nc3ccc(CCc4cccnc4)cc3N)cc2)c1 (optimized conformer: 66.59037801852871 kcal/mol)

>  <smiles>  (39) 
Cc1cccc(CNS(=O)(=O)c2ccc(Nc3ccc(CCc4cccnc4)cc3N)cc2)c1

>  <score_type>  (39) 
oracle

>  <origin>  (39) 
adgpu

>  <m_score__min__energy>  (39) 
-11.23

>  <m_primary>  (39) 
energy

$$$$
39:0
     RDKit          3D

 58 60  0  0  0  0  0  0  0  0999 V2000
   -6.4890   25.9600  -28.9810 C   0  0  0  0  0  0  0  0  0  0  0  0
   -6.3840   25.6540  -30.3670 O   0  0  0  0  0  0  0  0  0  0  0  0
   -6.0970   24.3800  -30.8800 C   0  0  0  0  0  0  0  0  0  0  0  0
   -7.1110   23.4980  -31.3030 C   0  0  0  0  0  0  0  0  0  0  0  0
   -6.7820   22.2420  -31.8200 C   0  0  0  0  0  0  0  0  0  0  0  0
   -5.4460   21.8570  -31.9290 C   0  0  0  0  0  0  0  0  0  0  0  0
   -4.4330   22.7240  -31.5140 C   0  0  0  0  0  0  0  0  0  0  0  0
   -4.7540   23.9780  -30.9810 C   0  0  0  0  0  0  0  0  0  0  0  0
   -3.7060   24.8290  -30.5210 N   0  0  0  0  0  0  0  0  0  0  0  0
   -2.8060   24.4360  -29.0960 S   0  0  0  0  0  0  0  0  0  0  0  0
   -3.6780   24.5620  -27.8790 O   0  0  0  0  0  0  0  0  0  0  0  0
   -1.6540   25.3920  -28.9610 O   0  0  0  0  0  0  0  0  0  0  0  0
   -2.2040   22.7880  -29.2400 C   0  0  0  0  0  0  0  0  0  0  0  0
   -2.4790   21.8390  -28.2530 C   0  0  0  0  0  0  0  0  0  0  0  0
   -1.9350   20.5580  -28.3390 C   0  0  0  0  0  0  0  0  0  0  0  0
   -1.0940   20.2050  -29.4150 C   0  0  0  0  0  0  0  0  0  0  0  0
   -0.4850   18.9430  -29.4750 O   0  0  0  0  0  0  0  0  0  0  0  0
    0.1340   18.2830  -28.3750 C   0  0  0  0  0  0  0  0  0  0  0  0
   -0.8390   21.1550  -30.4320 C   0  0  0  0  0  0  0  0  0  0  0  0
    0.0060   20.8700  -31.5640 N   0  0  0  0  0  0  0  0  0  0  0  0
   -0.4070   21.0030  -32.9640 C   0  0  0  0  0  0  0  0  0  0  0  0
   -1.4050   19.9360  -33.3430 C   0  0  0  0  0  0  0  0  0  0  0  0
   -0.9910   18.6030  -33.4680 C   0  0  0  0  0  0  0  0  0  0  0  0
   -1.9160   17.5900  -33.7800 C   0  0  0  0  0  0  0  0  0  0  0  0
   -1.5330   16.2470  -33.9280 O   0  0  0  0  0  0  0  0  0  0  0  0
   -1.3380   15.3410  -32.8500 C   0  0  0  0  0  0  0  0  0  0  0  0
   -3.2680   17.9200  -33.9500 C   0  0  0  0  0  0  0  0  0  0  0  0
   -4.1750   16.9040  -34.2580 O   0  0  0  0  0  0  0  0  0  0  0  0
   -3.7030   19.2510  -33.8100 C   0  0  0  0  0  0  0  0  0  0  0  0
   -5.0650   19.5420  -33.9910 O   0  0  0  0  0  0  0  0  0  0  0  0
   -6.1260   18.9450  -33.2480 C   0  0  0  0  0  0  0  0  0  0  0  0
   -2.7650   20.2510  -33.4950 C   0  0  0  0  0  0  0  0  0  0  0  0
   -1.3870   22.4430  -30.3210 C   0  0  0  0  0  0  0  0  0  0  0  0
   -6.1883   25.0836  -28.3882 H   0  0  0  0  0  0  0  0  0  0  0  0
   -5.8304   26.8080  -28.7418 H   0  0  0  0  0  0  0  0  0  0  0  0
   -7.5295   26.2250  -28.7418 H   0  0  0  0  0  0  0  0  0  0  0  0
   -8.1661   23.7993  -31.2260 H   0  0  0  0  0  0  0  0  0  0  0  0
   -7.5788   21.5553  -32.1418 H   0  0  0  0  0  0  0  0  0  0  0  0
   -5.1901   20.8701  -32.3420 H   0  0  0  0  0  0  0  0  0  0  0  0
   -3.3797   22.4207  -31.6062 H   0  0  0  0  0  0  0  0  0  0  0  0
   -3.1273   22.1031  -27.4045 H   0  0  0  0  0  0  0  0  0  0  0  0
   -2.1639   19.8156  -27.5603 H   0  0  0  0  0  0  0  0  0  0  0  0
   -0.2546   18.6973  -27.4330 H   0  0  0  0  0  0  0  0  0  0  0  0
   -0.0878   17.2066  -28.4212 H   0  0  0  0  0  0  0  0  0  0  0  0
    1.2224   18.4354  -28.4212 H   0  0  0  0  0  0  0  0  0  0  0  0
    1.0320   20.7750  -31.3930 H   0  0  0  0  0  0  0  0  0  0  0  0
   -0.8662   21.9918  -33.1101 H   0  0  0  0  0  0  0  0  0  0  0  0
    0.4823   20.8900  -33.6015 H   0  0  0  0  0  0  0  0  0  0  0  0
    0.0684   18.3461  -33.3206 H   0  0  0  0  0  0  0  0  0  0  0  0
   -1.4532   15.8761  -31.8959 H   0  0  0  0  0  0  0  0  0  0  0  0
   -2.0830   14.5339  -32.9100 H   0  0  0  0  0  0  0  0  0  0  0  0
   -0.3269   14.9119  -32.9100 H   0  0  0  0  0  0  0  0  0  0  0  0
   -5.1400   17.0940  -34.4970 H   0  0  0  0  0  0  0  0  0  0  0  0
   -5.9279   19.0565  -32.1717 H   0  0  0  0  0  0  0  0  0  0  0  0
   -7.0746   19.4418  -33.4996 H   0  0  0  0  0  0  0  0  0  0  0  0
   -6.1938   17.8763  -33.4996 H   0  0  0  0  0  0  0  0  0  0  0  0
   -3.1004   21.2907  -33.3664 H   0  0  0  0  0  0  0  0  0  0  0  0
   -1.1702   23.1923  -31.0966 H   0  0  0  0  0  0  0  0  0  0  0  0
  1  2  1  0
  2  3  1  0
  3  4  2  0
  4  5  1  0
  5  6  2  0
  6  7  1  0
  7  8  2  0
  8  9  1  0
  9 10  1  0
 10 11  2  0
 10 12  2  0
 10 13  1  0
 13 14  2  0
 14 15  1  0
 15 16  2  0
 16 17  1  0
 17 18  1  0
 16 19  1  0
 19 20  1  0
 20 21  1  0
 21 22  1  0
 22 23  2  0
 23 24  1  0
 24 25  1  0
 25 26  1  0
 24 27  2  0
 27 28  1  0
 27 29  1  0
 29 30  1  0
 30 31  1  0
 29 32  2  0
 19 33  2  0
  8  3  1  0
 33 13  1  0
 32 22  1  0
  1 34  1  0
  1 35  1  0
  1 36  1  0
  4 37  1  0
  5 38  1  0
  6 39  1  0
  7 40  1  0
 14 41  1  0
 15 42  1  0
 18 43  1  0
 18 44  1  0
 18 45  1  0
 20 46  1  0
 21 47  1  0
 21 48  1  0
 23 49  1  0
 26 50  1  0
 26 51  1  0
 26 52  1  0
 28 53  1  0
 31 54  1  0
 31 55  1  0
 31 56  1  0
 32 57  1  0
 33 58  1  0
M  CHG  1   9  -1
M  END
>  <UniqueID>  (40) 
39

>  <SMILES>  (40) 
COc1ccccc1[N-]S(=O)(=O)c1ccc(OC)c(NCc2cc(OC)c(O)c(OC)c2)c1

>  <Energy>  (40) 
68.92733039788563

>  <Genealogy>  (40) 
COc1ccccc1[N-]S(=O)(=O)c1ccc(OC)c(NCc2cc(OC)c(O)c(OC)c2)c1 (protonated)
COc1ccccc1[N-]S(=O)(=O)c1ccc(OC)c(NCc2cc(OC)c(O)c(OC)c2)c1 (3D coordinates assigned)
COc1ccccc1[N-]S(=O)(=O)c1ccc(OC)c(NCc2cc(OC)c(O)c(OC)c2)c1 (optimized conformer: 68.92733039788563 kcal/mol)

>  <smiles>  (40) 
COc1ccc(S(=O)(=O)Nc2ccccc2OC)cc1NCc1cc(OC)c(O)c(OC)c1

>  <score_type>  (40) 
oracle

>  <origin>  (40) 
adgpu

>  <m_score__min__energy>  (40) 
-10.039999999999999

>  <m_primary>  (40) 
energy

$$$$
40:0
     RDKit          3D

 57 59  0  0  0  0  0  0  0  0999 V2000
   -0.8660   26.3420  -27.8270 C   0  0  0  0  0  0  0  0  0  0  0  0
   -1.5860   25.8850  -28.9680 O   0  0  0  0  0  0  0  0  0  0  0  0
   -2.2150   24.6340  -29.0590 C   0  0  0  0  0  0  0  0  0  0  0  0
   -1.7300   23.4950  -28.3830 C   0  0  0  0  0  0  0  0  0  0  0  0
   -2.3920   22.2620  -28.4980 C   0  0  0  0  0  0  0  0  0  0  0  0
   -1.8560   21.0380  -27.8060 C   0  0  0  0  0  0  0  0  0  0  0  0
   -0.6630   20.5420  -28.5070 N   0  0  0  0  0  0  0  0  0  0  0  0
    0.6550   20.8470  -27.9370 C   0  0  0  0  0  0  0  0  0  0  0  0
   -0.7850   19.8360  -29.7670 C   0  0  0  0  0  0  0  0  0  0  0  0
   -0.2350   18.5570  -29.9590 C   0  0  0  0  0  0  0  0  0  0  0  0
   -0.3810   17.9350  -31.1560 N   0  0  0  0  0  0  0  0  0  0  0  0
   -1.0480   18.5100  -32.1910 C   0  0  0  0  0  0  0  0  0  0  0  0
   -1.1880   17.7410  -33.4710 C   0  0  0  0  0  0  0  0  0  0  0  0
   -1.6180   19.7880  -32.0060 C   0  0  0  0  0  0  0  0  0  0  0  0
   -2.3790   20.5100  -33.0860 C   0  0  0  0  0  0  0  0  0  0  0  0
   -4.1310   20.1850  -32.9480 S   0  0  0  0  0  0  0  0  0  0  0  0
   -4.3880   19.3050  -31.7590 O   0  0  0  0  0  0  0  0  0  0  0  0
   -4.6080   19.4820  -34.1880 O   0  0  0  0  0  0  0  0  0  0  0  0
   -5.0420   21.7100  -32.7460 C   0  0  0  0  0  0  0  0  0  0  0  0
   -6.4980   21.4390  -32.4410 C   0  0  0  0  0  0  0  0  0  0  0  0
   -7.0160   20.1650  -32.7430 C   0  0  0  0  0  0  0  0  0  0  0  0
   -8.3590   19.8670  -32.5110 C   0  0  0  0  0  0  0  0  0  0  0  0
   -9.2050   20.8330  -31.9700 C   0  0  0  0  0  0  0  0  0  0  0  0
   -8.7110   22.1000  -31.6560 C   0  0  0  0  0  0  0  0  0  0  0  0
   -7.3620   22.4220  -31.8880 C   0  0  0  0  0  0  0  0  0  0  0  0
   -6.8670   23.7910  -31.5000 C   0  0  0  0  0  0  0  0  0  0  0  0
   -1.4570   20.4060  -30.8050 N   0  0  0  0  0  0  0  0  0  0  0  0
   -3.5320   22.1650  -29.3090 C   0  0  0  0  0  0  0  0  0  0  0  0
   -4.0180   23.2890  -29.9790 C   0  0  0  0  0  0  0  0  0  0  0  0
   -3.3650   24.5180  -29.8540 C   0  0  0  0  0  0  0  0  0  0  0  0
   -3.8580   25.6300  -30.5280 O   0  0  0  0  0  0  0  0  0  0  0  0
   -1.3820   26.0145  -26.9124 H   0  0  0  0  0  0  0  0  0  0  0  0
    0.1513   25.9239  -27.8437 H   0  0  0  0  0  0  0  0  0  0  0  0
   -0.8113   27.4405  -27.8437 H   0  0  0  0  0  0  0  0  0  0  0  0
   -0.8262   23.5732  -27.7609 H   0  0  0  0  0  0  0  0  0  0  0  0
   -1.5890   21.2936  -26.7699 H   0  0  0  0  0  0  0  0  0  0  0  0
   -2.6281   20.2546  -27.8116 H   0  0  0  0  0  0  0  0  0  0  0  0
    0.5919   20.8324  -26.8389 H   0  0  0  0  0  0  0  0  0  0  0  0
    1.3828   20.0936  -28.2725 H   0  0  0  0  0  0  0  0  0  0  0  0
    0.9779   21.8436  -28.2725 H   0  0  0  0  0  0  0  0  0  0  0  0
    0.3114   18.0624  -29.1424 H   0  0  0  0  0  0  0  0  0  0  0  0
   -1.3808   16.6822  -33.2434 H   0  0  0  0  0  0  0  0  0  0  0  0
   -2.0266   18.1493  -34.0542 H   0  0  0  0  0  0  0  0  0  0  0  0
   -0.2593   17.8275  -34.0542 H   0  0  0  0  0  0  0  0  0  0  0  0
   -2.2036   21.5917  -32.9901 H   0  0  0  0  0  0  0  0  0  0  0  0
   -2.0287   20.1524  -34.0655 H   0  0  0  0  0  0  0  0  0  0  0  0
   -4.6022   22.2839  -31.9170 H   0  0  0  0  0  0  0  0  0  0  0  0
   -4.9823   22.2793  -33.6853 H   0  0  0  0  0  0  0  0  0  0  0  0
   -6.3539   19.3956  -33.1669 H   0  0  0  0  0  0  0  0  0  0  0  0
   -8.7504   18.8685  -32.7554 H   0  0  0  0  0  0  0  0  0  0  0  0
  -10.2641   20.5966  -31.7901 H   0  0  0  0  0  0  0  0  0  0  0  0
   -9.3839   22.8545  -31.2225 H   0  0  0  0  0  0  0  0  0  0  0  0
   -6.8373   23.8730  -30.4035 H   0  0  0  0  0  0  0  0  0  0  0  0
   -5.8565   23.9444  -31.9066 H   0  0  0  0  0  0  0  0  0  0  0  0
   -7.5457   24.5552  -31.9066 H   0  0  0  0  0  0  0  0  0  0  0  0
   -4.0457   21.1984  -29.4177 H   0  0  0  0  0  0  0  0  0  0  0  0
   -4.9174   23.2070  -30.6070 H   0  0  0  0  0  0  0  0  0  0  0  0
  1  2  1  0
  2  3  1  0
  3  4  2  0
  4  5  1  0
  5  6  1  0
  6  7  1  0
  7  8  1  0
  7  9  1  0
  9 10  2  0
 10 11  1  0
 11 12  2  0
 12 13  1  0
 12 14  1  0
 14 15  1  0
 15 16  1  0
 16 17  2  0
 16 18  2  0
 16 19  1  0
 19 20  1  0
 20 21  2  0
 21 22  1  0
 22 23  2  0
 23 24  1  0
 24 25  2  0
 25 26  1  0
 14 27  2  0
  5 28  2  0
 28 29  1  0
 29 30  2  0
 30 31  1  0
 30  3  1  0
 27  9  1  0
 25 20  1  0
  1 32  1  0
  1 33  1  0
  1 34  1  0
  4 35  1  0
  6 36  1  0
  6 37  1  0
  8 38  1  0
  8 39  1  0
  8 40  1  0
 10 41  1  0
 13 42  1  0
 13 43  1  0
 13 44  1  0
 15 45  1  0
 15 46  1  0
 19 47  1  0
 19 48  1  0
 21 49  1  0
 22 50  1  0
 23 51  1  0
 24 52  1  0
 26 53  1  0
 26 54  1  0
 26 55  1  0
 28 56  1  0
 29 57  1  0
M  CHG  1  31  -1
M  END
>  <UniqueID>  (41) 
40

>  <SMILES>  (41) 
COc1cc(CN(C)c2cnc(C)c(CS(=O)(=O)Cc3ccccc3C)n2)ccc1[O-]

>  <Energy>  (41) 
51.46567311506258

>  <Genealogy>  (41) 
COc1cc(CN(C)c2cnc(C)c(CS(=O)(=O)Cc3ccccc3C)n2)ccc1[O-] (protonated)
COc1cc(CN(C)c2cnc(C)c(CS(=O)(=O)Cc3ccccc3C)n2)ccc1[O-] (3D coordinates assigned)
COc1cc(CN(C)c2cnc(C)c(CS(=O)(=O)Cc3ccccc3C)n2)ccc1[O-] (optimized conformer: 51.46567311506258 kcal/mol)

>  <smiles>  (41) 
COc1cc(CN(C)c2cnc(C)c(CS(=O)(=O)Cc3ccccc3C)n2)ccc1O

>  <score_type>  (41) 
oracle

>  <origin>  (41) 
adgpu

>  <m_score__min__energy>  (41) 
-12.93

>  <m_primary>  (41) 
energy

$$$$
41:0
     RDKit          3D

 55 58  0  0  1  0  0  0  0  0999 V2000
   -5.7910   18.9700  -34.2080 C   0  0  0  0  0  0  0  0  0  0  0  0
   -5.9210   19.3920  -32.4480 S   0  0  0  0  0  0  0  0  0  0  0  0
   -6.1420   21.1420  -32.2170 C   0  0  0  0  0  0  0  0  0  0  0  0
   -7.4500   21.6210  -32.3460 C   0  0  0  0  0  0  0  0  0  0  0  0
   -7.7440   22.9560  -32.1980 C   0  0  0  0  0  0  0  0  0  0  0  0
   -6.7180   23.8100  -31.9180 C   0  0  0  0  0  0  0  0  0  0  0  0
   -5.4240   23.3340  -31.7900 C   0  0  0  0  0  0  0  0  0  0  0  0
   -5.0930   22.0030  -31.9310 C   0  0  0  0  0  0  0  0  0  0  0  0
   -3.7350   21.4880  -31.7810 C   0  0  0  0  0  0  0  0  0  0  0  0
   -3.2790   21.2080  -30.5480 N   0  0  0  0  0  0  0  0  0  0  0  0
   -2.0140   20.7420  -30.4050 C   0  0  0  0  0  0  0  0  0  0  0  0
   -1.5540   20.4770  -29.2330 N   0  0  0  0  0  0  0  0  0  0  0  0
   -2.2980   20.6370  -28.0000 C   0  0  0  0  0  0  0  0  0  0  0  0
   -1.7340   21.8230  -27.2460 C   0  0  0  0  0  0  0  0  0  0  0  0
   -2.1050   23.0700  -27.7280 N   0  0  0  0  0  0  0  0  0  0  0  0
   -3.3650   23.3160  -28.2700 C   0  0  0  0  0  0  0  0  0  0  0  0
   -3.4010   24.3370  -29.3700 C   0  0  0  0  0  0  0  0  0  0  0  0
   -2.4090   25.2880  -29.3420 O   0  0  0  0  0  0  0  0  0  0  0  0
   -1.1650   24.8210  -28.9690 C   0  0  0  0  0  0  0  0  0  0  0  0
   -1.2250   24.1790  -27.5790 C   0  0  0  0  0  0  0  0  0  0  0  0
   -1.1890   20.5510  -31.4960 C   0  0  0  0  0  0  0  0  0  0  0  0
   -1.6670   20.8410  -32.7530 C   0  0  0  0  0  0  0  0  0  0  0  0
   -0.8080   20.6450  -33.9270 C   0  0  0  0  0  0  0  0  0  0  0  0
   -0.2290   21.7020  -34.5980 C   0  0  0  0  0  0  0  0  0  0  0  0
    0.5880   21.5110  -35.7180 C   0  0  0  0  0  0  0  0  0  0  0  0
    0.8370   20.2510  -36.1830 C   0  0  0  0  0  0  0  0  0  0  0  0
    1.6290   20.0610  -37.2680 F   0  0  0  0  0  0  0  0  0  0  0  0
    0.2800   19.1920  -35.5440 C   0  0  0  0  0  0  0  0  0  0  0  0
   -0.5370   19.3820  -34.4230 C   0  0  0  0  0  0  0  0  0  0  0  0
   -2.9240   21.2980  -32.8360 N   0  0  0  0  0  0  0  0  0  0  0  0
   -5.4686   17.9234  -34.3113 H   0  0  0  0  0  0  0  0  0  0  0  0
   -6.7711   19.1010  -34.6898 H   0  0  0  0  0  0  0  0  0  0  0  0
   -5.0545   19.6298  -34.6898 H   0  0  0  0  0  0  0  0  0  0  0  0
   -8.2617   20.9136  -32.5709 H   0  0  0  0  0  0  0  0  0  0  0  0
   -8.7753   23.3241  -32.3022 H   0  0  0  0  0  0  0  0  0  0  0  0
   -6.9199   24.8841  -31.7930 H   0  0  0  0  0  0  0  0  0  0  0  0
   -4.6217   24.0521  -31.5651 H   0  0  0  0  0  0  0  0  0  0  0  0
   -3.3595   20.8135  -28.2279 H   0  0  0  0  0  0  0  0  0  0  0  0
   -2.2116   19.7270  -27.3881 H   0  0  0  0  0  0  0  0  0  0  0  0
   -2.0693   21.7504  -26.2009 H   0  0  0  0  0  0  0  0  0  0  0  0
   -0.6422   21.7657  -27.3671 H   0  0  0  0  0  0  0  0  0  0  0  0
   -3.7528   22.3686  -28.6726 H   0  0  0  0  0  0  0  0  0  0  0  0
   -3.9734   23.7284  -27.4516 H   0  0  0  0  0  0  0  0  0  0  0  0
   -3.3274   23.8020  -30.3283 H   0  0  0  0  0  0  0  0  0  0  0  0
   -4.3435   24.8874  -29.2330 H   0  0  0  0  0  0  0  0  0  0  0  0
   -0.8263   24.0713  -29.6992 H   0  0  0  0  0  0  0  0  0  0  0  0
   -0.4627   25.6671  -28.9391 H   0  0  0  0  0  0  0  0  0  0  0  0
   -0.2263   23.8416  -27.2646 H   0  0  0  0  0  0  0  0  0  0  0  0
   -1.5731   24.8848  -26.8105 H   0  0  0  0  0  0  0  0  0  0  0  0
   -0.1649   20.1726  -31.3619 H   0  0  0  0  0  0  0  0  0  0  0  0
   -0.4151   22.7260  -34.2420 H   0  0  0  0  0  0  0  0  0  0  0  0
    1.0318   22.3797  -36.2263 H   0  0  0  0  0  0  0  0  0  0  0  0
    0.4723   18.1729  -35.9105 H   0  0  0  0  0  0  0  0  0  0  0  0
   -0.9746   18.5049  -33.9239 H   0  0  0  0  0  0  0  0  0  0  0  0
   -3.2930   21.5170  -33.7630 H   0  0  0  0  0  0  0  0  0  0  0  0
  1  2  1  0
  2  3  1  0
  3  4  2  0
  4  5  1  0
  5  6  2  0
  6  7  1  0
  7  8  2  0
  8  9  1  0
  9 10  2  0
 10 11  1  0
 11 12  2  0
 12 13  1  0
 13 14  1  0
 14 15  1  0
 15 16  1  0
 16 17  1  0
 17 18  1  0
 18 19  1  0
 19 20  1  0
 11 21  1  0
 21 22  2  0
 22 23  1  0
 23 24  2  0
 24 25  1  0
 25 26  2  0
 26 27  1  0
 26 28  1  0
 28 29  2  0
 22 30  1  0
  8  3  1  0
 30  9  1  0
 20 15  1  0
 29 23  1  0
  1 31  1  0
  1 32  1  0
  1 33  1  0
  4 34  1  0
  5 35  1  0
  6 36  1  0
  7 37  1  0
 13 38  1  0
 13 39  1  0
 14 40  1  0
 14 41  1  0
 16 42  1  0
 16 43  1  0
 17 44  1  0
 17 45  1  0
 19 46  1  0
 19 47  1  0
 20 48  1  0
 20 49  1  0
 21 50  1  0
 24 51  1  0
 25 52  1  0
 28 53  1  0
 29 54  1  0
 30 55  1  0
M  END
>  <smiles>  (42) 
CSc1ccccc1-c1nc(=NCCN2CCOCC2)cc(-c2ccc(F)cc2)[nH]1

>  <score_type>  (42) 
oracle

>  <origin>  (42) 
adgpu

>  <m_score__min__energy>  (42) 
-8.8699999999999992

>  <m_primary>  (42) 
energy

$$$$
42:0
     RDKit          3D

 49 51  0  0  0  0  0  0  0  0999 V2000
   -1.1570   24.8590  -29.6700 H   0  0  0  0  0  0  0  0  0  0  0  0
   -1.6100   25.6340  -29.1950 O   0  0  0  0  0  0  0  0  0  0  0  0
   -1.1660   26.0820  -27.9500 C   0  0  0  0  0  0  0  0  0  0  0  0
   -0.5080   27.3130  -27.8440 C   0  0  0  0  0  0  0  0  0  0  0  0
   -0.3592   27.9332  -28.7403 H   0  0  0  0  0  0  0  0  0  0  0  0
   -0.0400   27.7570  -26.6070 C   0  0  0  0  0  0  0  0  0  0  0  0
    0.4867   28.7203  -26.5388 H   0  0  0  0  0  0  0  0  0  0  0  0
   -0.2340   26.9870  -25.4460 C   0  0  0  0  0  0  0  0  0  0  0  0
    0.2730   27.4460  -24.1290 C   0  0  0  0  0  0  0  0  0  0  0  0
    0.7680   26.4930  -23.1790 N   0  0  0  0  0  0  0  0  0  0  0  0
    1.2300   26.8170  -22.3030 H   0  0  0  0  0  0  0  0  0  0  0  0
    0.6640   25.4680  -23.3340 H   0  0  0  0  0  0  0  0  0  0  0  0
    0.2920   28.7130  -23.8320 N   0  0  0  0  0  0  0  0  0  0  0  0
   -0.0290   29.4460  -24.5040 H   0  0  0  0  0  0  0  0  0  0  0  0
    0.6530   29.0420  -22.9070 H   0  0  0  0  0  0  0  0  0  0  0  0
   -0.9270   25.7660  -25.5520 C   0  0  0  0  0  0  0  0  0  0  0  0
   -1.1241   25.1732  -24.6466 H   0  0  0  0  0  0  0  0  0  0  0  0
   -1.3710   25.2940  -26.8020 C   0  0  0  0  0  0  0  0  0  0  0  0
   -2.1220   24.0200  -26.9160 C   0  0  0  0  0  0  0  0  0  0  0  0
   -3.0673   23.9391  -26.3594 H   0  0  0  0  0  0  0  0  0  0  0  0
   -1.7430   22.9610  -27.6410 C   0  0  0  0  0  0  0  0  0  0  0  0
   -2.3929   22.0738  -27.6198 H   0  0  0  0  0  0  0  0  0  0  0  0
   -0.4980   22.8880  -28.4830 C   0  0  0  0  0  0  0  0  0  0  0  0
    0.2505   23.5841  -28.0764 H   0  0  0  0  0  0  0  0  0  0  0  0
   -0.1232   21.8541  -28.4583 H   0  0  0  0  0  0  0  0  0  0  0  0
   -0.7730   23.2440  -29.8710 N   0  0  0  0  0  0  0  0  0  0  0  0
   -1.2370   22.3080  -30.8550 C   0  0  0  0  0  0  0  0  0  0  0  0
   -0.4030   21.6320  -31.5150 O   0  0  0  0  0  0  0  0  0  0  0  0
   -2.6870   22.1410  -31.0970 C   0  0  0  0  0  0  0  0  0  0  0  0
   -3.1490   21.2630  -32.0900 C   0  0  0  0  0  0  0  0  0  0  0  0
   -2.4270   20.7094  -32.7082 H   0  0  0  0  0  0  0  0  0  0  0  0
   -4.5200   21.0870  -32.2990 C   0  0  0  0  0  0  0  0  0  0  0  0
   -4.8668   20.3962  -33.0816 H   0  0  0  0  0  0  0  0  0  0  0  0
   -5.4610   21.7840  -31.5190 C   0  0  0  0  0  0  0  0  0  0  0  0
   -6.9190   21.5680  -31.7110 C   0  0  0  0  0  0  0  0  0  0  0  0
   -7.8100   22.6590  -31.7470 C   0  0  0  0  0  0  0  0  0  0  0  0
   -7.4265   23.6801  -31.6051 H   0  0  0  0  0  0  0  0  0  0  0  0
   -9.1810   22.4560  -31.9620 C   0  0  0  0  0  0  0  0  0  0  0  0
   -9.8666   23.3157  -31.9919 H   0  0  0  0  0  0  0  0  0  0  0  0
   -9.6750   21.1620  -32.1380 C   0  0  0  0  0  0  0  0  0  0  0  0
  -10.7491   21.0024  -32.3136 H   0  0  0  0  0  0  0  0  0  0  0  0
   -8.8050   20.0700  -32.0910 C   0  0  0  0  0  0  0  0  0  0  0  0
   -9.1983   19.0504  -32.2165 H   0  0  0  0  0  0  0  0  0  0  0  0
   -7.4360   20.2680  -31.8850 C   0  0  0  0  0  0  0  0  0  0  0  0
   -6.7573   19.4027  -31.8585 H   0  0  0  0  0  0  0  0  0  0  0  0
   -4.9930   22.6620  -30.5220 C   0  0  0  0  0  0  0  0  0  0  0  0
   -5.7130   23.2136  -29.8997 H   0  0  0  0  0  0  0  0  0  0  0  0
   -3.6260   22.8380  -30.3170 C   0  0  0  0  0  0  0  0  0  0  0  0
   -3.2778   23.5301  -29.5361 H   0  0  0  0  0  0  0  0  0  0  0  0
  1  2  1  0
  2  3  1  0
  3  4  2  0
  4  5  1  0
  4  6  1  0
  6  7  1  0
  6  8  2  0
  8  9  1  0
  9 10  1  0
 10 11  1  0
 10 12  1  0
  9 13  2  0
 13 14  1  0
 13 15  1  0
  8 16  1  0
 16 17  1  0
 16 18  2  0
 18 19  1  0
 19 20  1  0
 19 21  2  0
 21 22  1  0
 21 23  1  0
 23 24  1  0
 23 25  1  0
 23 26  1  0
 26 27  1  0
 27 28  2  0
 27 29  1  0
 29 30  2  0
 30 31  1  0
 30 32  1  0
 32 33  1  0
 32 34  2  0
 34 35  1  0
 35 36  2  0
 36 37  1  0
 36 38  1  0
 38 39  1  0
 38 40  2  0
 40 41  1  0
 40 42  1  0
 42 43  1  0
 42 44  2  0
 44 45  1  0
 34 46  1  0
 46 47  1  0
 46 48  2  0
 48 49  1  0
 18  3  1  0
 48 29  1  0
 44 35  1  0
M  CHG  2  13   1  26  -1
M  END
>  <UniqueID>  (43) 
41

>  <SMILES>  (43) 
NC(=[NH2+])c1ccc(O)c(/C=C\C[N-]C(=O)c2ccc(-c3ccccc3)cc2)c1

>  <Energy>  (43) 
62.26884404610044

>  <Genealogy>  (43) 
NC(=[NH2+])c1ccc(O)c(C=CC[N-]C(=O)c2ccc(-c3ccccc3)cc2)c1 (protonated)
NC(=[NH2+])c1ccc(O)c(/C=C\C[N-]C(=O)c2ccc(-c3ccccc3)cc2)c1 (cis-trans isomerization)
NC(=[NH2+])c1ccc(O)c(/C=C\C[N-]C(=O)c2ccc(-c3ccccc3)cc2)c1 (3D coordinates assigned)
NC(=[NH2+])c1ccc(O)c(/C=C\C[N-]C(=O)c2ccc(-c3ccccc3)cc2)c1 (optimized conformer: 62.26884404610044 kcal/mol)

>  <smiles>  (43) 
N=C(N)c1ccc(O)c(C=CCNC(=O)c2ccc(-c3ccccc3)cc2)c1

>  <score_type>  (43) 
oracle

>  <origin>  (43) 
adgpu

>  <m_score__min__energy>  (43) 
-13.19

>  <m_primary>  (43) 
energy

$$$$
43:0
     RDKit          3D

 28 30  0  0  0  0  0  0  0  0999 V2000
   -8.5210   19.2750  -31.7120 O   0  0  0  0  0  0  0  0  0  0  0  0
   -8.3110   20.6490  -31.6800 C   0  0  0  0  0  0  0  0  0  0  0  0
   -9.3570   21.5200  -31.9910 C   0  0  0  0  0  0  0  0  0  0  0  0
   -9.1490   22.9000  -31.9590 C   0  0  0  0  0  0  0  0  0  0  0  0
   -7.8950   23.4120  -31.6150 C   0  0  0  0  0  0  0  0  0  0  0  0
   -6.8310   22.5470  -31.3000 C   0  0  0  0  0  0  0  0  0  0  0  0
   -5.5070   23.1040  -30.9370 C   0  0  0  0  0  0  0  0  0  0  0  0
   -4.5310   22.5270  -30.1470 C   0  0  0  0  0  0  0  0  0  0  0  0
   -3.5040   23.3990  -30.1080 N   0  0  0  0  0  0  0  0  0  0  0  0
   -2.2540   23.2500  -29.4050 C   0  0  0  0  0  0  0  0  0  0  0  0
   -1.7720   21.9680  -29.0730 C   0  0  0  0  0  0  0  0  0  0  0  0
   -0.5660   21.8180  -28.3830 C   0  0  0  0  0  0  0  0  0  0  0  0
    0.1750   22.9410  -28.0140 C   0  0  0  0  0  0  0  0  0  0  0  0
    1.3740   22.7880  -27.3270 O   0  0  0  0  0  0  0  0  0  0  0  0
   -0.2890   24.2180  -28.3330 C   0  0  0  0  0  0  0  0  0  0  0  0
   -1.4940   24.3790  -29.0260 C   0  0  0  0  0  0  0  0  0  0  0  0
   -1.9190   25.6650  -29.3430 O   0  0  0  0  0  0  0  0  0  0  0  0
   -3.8370   24.4540  -30.8370 N   0  0  0  0  0  0  0  0  0  0  0  0
   -5.0470   24.3020  -31.3530 N   0  0  0  0  0  0  0  0  0  0  0  0
   -7.0540   21.1560  -31.3350 C   0  0  0  0  0  0  0  0  0  0  0  0
  -10.3449   21.1188  -32.2612 H   0  0  0  0  0  0  0  0  0  0  0  0
   -9.9734   23.5855  -32.2049 H   0  0  0  0  0  0  0  0  0  0  0  0
   -7.7385   24.5005  -31.5903 H   0  0  0  0  0  0  0  0  0  0  0  0
   -4.5822   21.5481  -29.6479 H   0  0  0  0  0  0  0  0  0  0  0  0
   -2.3503   21.0773  -29.3596 H   0  0  0  0  0  0  0  0  0  0  0  0
   -0.2001   20.8119  -28.1302 H   0  0  0  0  0  0  0  0  0  0  0  0
    0.2953   25.1022  -28.0383 H   0  0  0  0  0  0  0  0  0  0  0  0
   -6.2344   20.4647  -31.0895 H   0  0  0  0  0  0  0  0  0  0  0  0
  1  2  1  0
  2  3  2  0
  3  4  1  0
  4  5  2  0
  5  6  1  0
  6  7  1  0
  7  8  2  0
  8  9  1  0
  9 10  1  0
 10 11  2  0
 11 12  1  0
 12 13  2  0
 13 14  1  0
 13 15  1  0
 15 16  2  0
 16 17  1  0
  9 18  1  0
 18 19  2  0
  6 20  2  0
 20  2  1  0
 19  7  1  0
 16 10  1  0
  3 21  1  0
  4 22  1  0
  5 23  1  0
  8 24  1  0
 11 25  1  0
 12 26  1  0
 15 27  1  0
 20 28  1  0
M  CHG  3   1  -1  14  -1  17  -1
M  END
>  <UniqueID>  (44) 
42

>  <SMILES>  (44) 
[O-]c1cccc(-c2cn(-c3ccc([O-])cc3[O-])nn2)c1

>  <Energy>  (44) 
71.47889421789989

>  <Genealogy>  (44) 
[O-]c1cccc(-c2cn(-c3ccc([O-])cc3[O-])nn2)c1 (protonated)
[O-]c1cccc(-c2cn(-c3ccc([O-])cc3[O-])nn2)c1 (3D coordinates assigned)
[O-]c1cccc(-c2cn(-c3ccc([O-])cc3[O-])nn2)c1 (optimized conformer: 71.47889421789989 kcal/mol)

>  <smiles>  (44) 
Oc1cccc(-c2cn(-c3ccc(O)cc3O)nn2)c1

>  <score_type>  (44) 
oracle

>  <origin>  (44) 
adgpu

>  <m_score__min__energy>  (44) 
-10.949999999999999

>  <m_primary>  (44) 
energy

$$$$
44:0
     RDKit          3D

 65 69  0  0  0  0  0  0  0  0999 V2000
    0.8950   15.7350  -37.1151 H   0  0  0  0  0  0  0  0  0  0  0  0
    0.3040   16.2670  -36.3550 C   0  0  0  0  0  0  0  0  0  0  0  0
    0.6500   17.5260  -35.9870 N   0  0  0  0  0  0  0  0  0  0  0  0
   -0.0600   18.2000  -35.0480 C   0  0  0  0  0  0  0  0  0  0  0  0
    0.2990   19.4050  -34.7180 N   0  0  0  0  0  0  0  0  0  0  0  0
   -0.3220   20.2040  -33.6990 C   0  0  0  0  0  0  0  0  0  0  0  0
   -1.5800   20.7590  -33.9550 C   0  0  0  0  0  0  0  0  0  0  0  0
   -2.0742   20.5681  -34.9190 H   0  0  0  0  0  0  0  0  0  0  0  0
   -2.2130   21.5520  -32.9990 C   0  0  0  0  0  0  0  0  0  0  0  0
   -3.2099   21.9675  -33.2076 H   0  0  0  0  0  0  0  0  0  0  0  0
   -1.5880   21.8240  -31.7730 C   0  0  0  0  0  0  0  0  0  0  0  0
   -2.2430   22.6520  -30.7930 N   0  0  0  0  0  0  0  0  0  0  0  0
   -1.5420   22.9990  -29.5470 C   0  0  0  0  0  0  0  0  0  0  0  0
   -1.7203   22.2049  -28.8070 H   0  0  0  0  0  0  0  0  0  0  0  0
   -0.4709   23.0973  -29.7776 H   0  0  0  0  0  0  0  0  0  0  0  0
   -2.0280   24.3460  -28.9600 C   0  0  0  0  0  0  0  0  0  0  0  0
   -2.4097   24.1661  -27.9441 H   0  0  0  0  0  0  0  0  0  0  0  0
   -1.1680   25.0318  -28.9659 H   0  0  0  0  0  0  0  0  0  0  0  0
   -3.0530   24.9550  -29.7230 O   0  0  0  0  0  0  0  0  0  0  0  0
   -4.0960   24.0310  -29.9380 C   0  0  0  0  0  0  0  0  0  0  0  0
   -4.3346   23.5211  -28.9930 H   0  0  0  0  0  0  0  0  0  0  0  0
   -4.9870   24.5626  -30.3032 H   0  0  0  0  0  0  0  0  0  0  0  0
   -3.6580   23.0010  -30.9750 C   0  0  0  0  0  0  0  0  0  0  0  0
   -4.2708   22.0942  -30.8648 H   0  0  0  0  0  0  0  0  0  0  0  0
   -3.7904   23.4308  -31.9789 H   0  0  0  0  0  0  0  0  0  0  0  0
   -0.3140   21.2900  -31.5210 C   0  0  0  0  0  0  0  0  0  0  0  0
    0.1826   21.4969  -30.5615 H   0  0  0  0  0  0  0  0  0  0  0  0
    0.3360   20.4910  -32.4850 C   0  0  0  0  0  0  0  0  0  0  0  0
    1.6340   19.9940  -32.2810 O   0  0  0  0  0  0  0  0  0  0  0  0
    1.9630   18.6120  -32.1570 C   0  0  0  0  0  0  0  0  0  0  0  0
    2.0267   18.3444  -31.0920 H   0  0  0  0  0  0  0  0  0  0  0  0
    1.1843   18.0048  -32.6417 H   0  0  0  0  0  0  0  0  0  0  0  0
    2.9318   18.4208  -32.6417 H   0  0  0  0  0  0  0  0  0  0  0  0
   -1.1520   17.6140  -34.4840 N   0  0  0  0  0  0  0  0  0  0  0  0
   -1.5490   16.3550  -34.8170 C   0  0  0  0  0  0  0  0  0  0  0  0
   -2.7420   15.7700  -34.1400 C   0  0  0  0  0  0  0  0  0  0  0  0
   -2.6910   14.4440  -33.6710 C   0  0  0  0  0  0  0  0  0  0  0  0
   -1.7727   13.8535  -33.8050 H   0  0  0  0  0  0  0  0  0  0  0  0
   -3.7940   13.8720  -33.0380 C   0  0  0  0  0  0  0  0  0  0  0  0
   -3.7436   12.8316  -32.6845 H   0  0  0  0  0  0  0  0  0  0  0  0
   -4.9610   14.6130  -32.8510 C   0  0  0  0  0  0  0  0  0  0  0  0
   -5.8293   14.1498  -32.3596 H   0  0  0  0  0  0  0  0  0  0  0  0
   -5.0350   15.9470  -33.2860 C   0  0  0  0  0  0  0  0  0  0  0  0
   -6.2820   16.7260  -33.0830 C   0  0  0  0  0  0  0  0  0  0  0  0
   -7.2740   16.5160  -33.8340 O   0  0  0  0  0  0  0  0  0  0  0  0
   -6.3890   17.6890  -32.0220 N   0  0  0  0  0  0  0  0  0  0  0  0
   -5.8530   17.5100  -31.1420 H   0  0  0  0  0  0  0  0  0  0  0  0
   -7.2650   18.8290  -32.0590 C   0  0  0  0  0  0  0  0  0  0  0  0
   -8.6590   18.6810  -32.1590 C   0  0  0  0  0  0  0  0  0  0  0  0
   -9.1003   17.6742  -32.1990 H   0  0  0  0  0  0  0  0  0  0  0  0
   -9.4880   19.8050  -32.2080 C   0  0  0  0  0  0  0  0  0  0  0  0
  -10.5790   19.6796  -32.2712 H   0  0  0  0  0  0  0  0  0  0  0  0
   -8.9350   21.0870  -32.1770 C   0  0  0  0  0  0  0  0  0  0  0  0
   -9.5938   21.9676  -32.1981 H   0  0  0  0  0  0  0  0  0  0  0  0
   -7.5420   21.2580  -32.1190 C   0  0  0  0  0  0  0  0  0  0  0  0
   -6.9430   22.6420  -32.0490 C   0  0  0  0  0  0  0  0  0  0  0  0
   -5.7310   22.6500  -32.7140 F   0  0  0  0  0  0  0  0  0  0  0  0
   -7.7850   23.5680  -32.6380 F   0  0  0  0  0  0  0  0  0  0  0  0
   -6.7360   23.0220  -30.7340 F   0  0  0  0  0  0  0  0  0  0  0  0
   -6.7150   20.1220  -32.0430 C   0  0  0  0  0  0  0  0  0  0  0  0
   -5.6246   20.2477  -31.9702 H   0  0  0  0  0  0  0  0  0  0  0  0
   -3.9200   16.5170  -33.9310 C   0  0  0  0  0  0  0  0  0  0  0  0
   -3.9687   17.5601  -34.2768 H   0  0  0  0  0  0  0  0  0  0  0  0
   -0.8000   15.6460  -35.7710 C   0  0  0  0  0  0  0  0  0  0  0  0
   -1.0791   14.6198  -36.0523 H   0  0  0  0  0  0  0  0  0  0  0  0
  1  2  1  0
  2  3  1  0
  3  4  1  0
  4  5  2  0
  5  6  1  0
  6  7  2  0
  7  8  1  0
  7  9  1  0
  9 10  1  0
  9 11  2  0
 11 12  1  0
 12 13  1  0
 13 14  1  0
 13 15  1  0
 13 16  1  0
 16 17  1  0
 16 18  1  0
 16 19  1  0
 19 20  1  0
 20 21  1  0
 20 22  1  0
 20 23  1  0
 23 24  1  0
 23 25  1  0
 11 26  1  0
 26 27  1  0
 26 28  2  0
 28 29  1  0
 29 30  1  0
 30 31  1  0
 30 32  1  0
 30 33  1  0
  4 34  1  0
 34 35  2  0
 35 36  1  0
 36 37  2  0
 37 38  1  0
 37 39  1  0
 39 40  1  0
 39 41  2  0
 41 42  1  0
 41 43  1  0
 43 44  1  0
 44 45  2  0
 44 46  1  0
 46 47  1  0
 46 48  1  0
 48 49  2  0
 49 50  1  0
 49 51  1  0
 51 52  1  0
 51 53  2  0
 53 54  1  0
 53 55  1  0
 55 56  1  0
 56 57  1  0
 56 58  1  0
 56 59  1  0
 55 60  2  0
 60 61  1  0
 43 62  2  0
 62 63  1  0
 35 64  1  0
 64 65  1  0
 64  2  2  0
 28  6  1  0
 62 36  1  0
 23 12  1  0
 60 48  1  0
M  CHG  1   3  -1
M  END
>  <UniqueID>  (45) 
43

>  <SMILES>  (45) 
COc1cc(N2CCOCC2)ccc1/N=c1\nc(-c2cccc(C(=O)Nc3cccc(C(F)(F)F)c3)c2)cc[n-]1

>  <Energy>  (45) 
98.45926793974006

>  <Genealogy>  (45) 
COc1cc(N2CCOCC2)ccc1N=c1nc(-c2cccc(C(=O)Nc3cccc(C(F)(F)F)c3)c2)cc[n-]1 (protonated)
COc1cc(N2CCOCC2)ccc1/N=c1\nc(-c2cccc(C(=O)Nc3cccc(C(F)(F)F)c3)c2)cc[n-]1 (cis-trans isomerization)
COc1cc(N2CCOCC2)ccc1/N=c1\nc(-c2cccc(C(=O)Nc3cccc(C(F)(F)F)c3)c2)cc[n-]1 (3D coordinates assigned)
COc1cc(N2CCOCC2)ccc1/N=c1\nc(-c2cccc(C(=O)Nc3cccc(C(F)(F)F)c3)c2)cc[n-]1 (nonaromatic ring conformer: 98.45926793974006 kcal/mol)

>  <smiles>  (45) 
COc1cc(N2CCOCC2)ccc1N=c1nc(-c2cccc(C(=O)Nc3cccc(C(F)(F)F)c3)c2)cc[nH]1

>  <score_type>  (45) 
oracle

>  <origin>  (45) 
adgpu

>  <m_score__min__energy>  (45) 
-11.359999999999999

>  <m_primary>  (45) 
energy

$$$$
45:0
     RDKit          3D

 41 43  0  0  0  0  0  0  0  0999 V2000
   -7.2440   17.1750  -33.0530 C   0  0  0  0  0  0  0  0  0  0  0  0
   -7.6530   18.5700  -32.6850 C   0  0  0  0  0  0  0  0  0  0  0  0
   -9.0110   18.9190  -32.6410 C   0  0  0  0  0  0  0  0  0  0  0  0
   -9.3940   20.2100  -32.2680 C   0  0  0  0  0  0  0  0  0  0  0  0
   -8.4260   21.1560  -31.9220 C   0  0  0  0  0  0  0  0  0  0  0  0
   -7.0640   20.8150  -31.9400 C   0  0  0  0  0  0  0  0  0  0  0  0
   -6.0720   21.7880  -31.5580 N   0  0  0  0  0  0  0  0  0  0  0  0
   -6.4100   22.8070  -30.5530 C   0  0  0  0  0  0  0  0  0  0  0  0
   -5.2310   23.6920  -30.2840 C   0  0  0  0  0  0  0  0  0  0  0  0
   -4.1940   23.4440  -29.4090 C   0  0  0  0  0  0  0  0  0  0  0  0
   -3.3680   24.5460  -29.4940 C   0  0  0  0  0  0  0  0  0  0  0  0
   -3.8630   25.4090  -30.3540 O   0  0  0  0  0  0  0  0  0  0  0  0
   -4.9830   24.9290  -30.8440 C   0  0  0  0  0  0  0  0  0  0  0  0
   -4.7850   21.7830  -32.2130 C   0  0  0  0  0  0  0  0  0  0  0  0
   -4.5170   22.6750  -33.0640 O   0  0  0  0  0  0  0  0  0  0  0  0
   -3.7940   20.7950  -31.8840 N   0  0  0  0  0  0  0  0  0  0  0  0
   -2.6760   20.4700  -32.7290 C   0  0  0  0  0  0  0  0  0  0  0  0
   -2.6320   19.2160  -33.3600 C   0  0  0  0  0  0  0  0  0  0  0  0
   -1.5670   18.8870  -34.2040 C   0  0  0  0  0  0  0  0  0  0  0  0
   -0.5450   19.8110  -34.4360 C   0  0  0  0  0  0  0  0  0  0  0  0
   -0.5910   21.0690  -33.8300 C   0  0  0  0  0  0  0  0  0  0  0  0
   -1.6540   21.4030  -32.9850 C   0  0  0  0  0  0  0  0  0  0  0  0
   -6.6840   19.5170  -32.3200 C   0  0  0  0  0  0  0  0  0  0  0  0
   -7.0724   16.5897  -32.1376 H   0  0  0  0  0  0  0  0  0  0  0  0
   -8.0417   16.7033  -33.6457 H   0  0  0  0  0  0  0  0  0  0  0  0
   -6.3179   17.2087  -33.6457 H   0  0  0  0  0  0  0  0  0  0  0  0
   -9.7771   18.1737  -32.9011 H   0  0  0  0  0  0  0  0  0  0  0  0
  -10.4596   20.4819  -32.2468 H   0  0  0  0  0  0  0  0  0  0  0  0
   -8.7322   22.1726  -31.6342 H   0  0  0  0  0  0  0  0  0  0  0  0
   -7.2445   23.4194  -30.9252 H   0  0  0  0  0  0  0  0  0  0  0  0
   -6.6963   22.3028  -29.6182 H   0  0  0  0  0  0  0  0  0  0  0  0
   -4.0548   22.5548  -28.7765 H   0  0  0  0  0  0  0  0  0  0  0  0
   -2.4351   24.6823  -28.9273 H   0  0  0  0  0  0  0  0  0  0  0  0
   -5.6223   25.4331  -31.5837 H   0  0  0  0  0  0  0  0  0  0  0  0
   -3.8210   20.3690  -30.9320 H   0  0  0  0  0  0  0  0  0  0  0  0
   -3.4396   18.4889  -33.1893 H   0  0  0  0  0  0  0  0  0  0  0  0
   -1.5337   17.8989  -34.6862 H   0  0  0  0  0  0  0  0  0  0  0  0
    0.2953   19.5482  -35.0954 H   0  0  0  0  0  0  0  0  0  0  0  0
    0.2107   21.7983  -34.0180 H   0  0  0  0  0  0  0  0  0  0  0  0
   -1.6915   22.3986  -32.5187 H   0  0  0  0  0  0  0  0  0  0  0  0
   -5.6192   19.2411  -32.3315 H   0  0  0  0  0  0  0  0  0  0  0  0
  1  2  1  0
  2  3  2  0
  3  4  1  0
  4  5  2  0
  5  6  1  0
  6  7  1  0
  7  8  1  0
  8  9  1  0
  9 10  1  0
 10 11  2  0
 11 12  1  0
 12 13  1  0
  7 14  1  0
 14 15  2  0
 14 16  1  0
 16 17  1  0
 17 18  2  0
 18 19  1  0
 19 20  2  0
 20 21  1  0
 21 22  2  0
  6 23  2  0
 23  2  1  0
 13  9  2  0
 22 17  1  0
  1 24  1  0
  1 25  1  0
  1 26  1  0
  3 27  1  0
  4 28  1  0
  5 29  1  0
  8 30  1  0
  8 31  1  0
 10 32  1  0
 11 33  1  0
 13 34  1  0
 16 35  1  0
 18 36  1  0
 19 37  1  0
 20 38  1  0
 21 39  1  0
 22 40  1  0
 23 41  1  0
M  END
>  <UniqueID>  (46) 
44

>  <SMILES>  (46) 
Cc1cccc(N(Cc2ccoc2)C(=O)Nc2ccccc2)c1

>  <Energy>  (46) 
77.0299006995222

>  <Genealogy>  (46) 
Cc1cccc(N(Cc2ccoc2)C(=O)Nc2ccccc2)c1 (3D coordinates assigned)
Cc1cccc(N(Cc2ccoc2)C(=O)Nc2ccccc2)c1 (optimized conformer: 77.0299006995222 kcal/mol)

>  <smiles>  (46) 
Cc1cccc(N(Cc2ccoc2)C(=O)Nc2ccccc2)c1

>  <score_type>  (46) 
oracle

>  <origin>  (46) 
adgpu

>  <m_score__min__energy>  (46) 
-8.1500000000000004

>  <m_primary>  (46) 
energy

$$$$
46:0
     RDKit          3D

 49 51  0  0  0  0  0  0  0  0999 V2000
   -1.4580   24.9920  -28.2720 C   0  0  0  0  0  0  0  0  0  0  0  0
   -2.3370   25.2970  -29.3490 O   0  0  0  0  0  0  0  0  0  0  0  0
   -3.5690   24.6630  -29.5690 C   0  0  0  0  0  0  0  0  0  0  0  0
   -3.9170   23.4510  -28.9400 C   0  0  0  0  0  0  0  0  0  0  0  0
   -5.1590   22.8600  -29.1900 C   0  0  0  0  0  0  0  0  0  0  0  0
   -6.0700   23.4660  -30.0690 C   0  0  0  0  0  0  0  0  0  0  0  0
   -7.4250   22.8560  -30.3030 C   0  0  0  0  0  0  0  0  0  0  0  0
   -7.8900   22.9420  -32.0690 S   0  0  0  0  0  0  0  0  0  0  0  0
   -7.7010   21.1830  -32.3580 C   0  0  0  0  0  0  0  0  0  0  0  0
   -8.4400   20.3060  -31.6380 N   0  0  0  0  0  0  0  0  0  0  0  0
   -8.3090   18.9680  -31.8080 C   0  0  0  0  0  0  0  0  0  0  0  0
   -9.0240   18.1920  -31.1200 O   0  0  0  0  0  0  0  0  0  0  0  0
   -7.3850   18.4620  -32.7420 C   0  0  0  0  0  0  0  0  0  0  0  0
   -7.2550   16.9710  -32.9510 C   0  0  0  0  0  0  0  0  0  0  0  0
   -6.6430   19.3960  -33.5100 C   0  0  0  0  0  0  0  0  0  0  0  0
   -5.6730   18.9620  -34.5900 C   0  0  0  0  0  0  0  0  0  0  0  0
   -4.2760   18.7740  -34.0470 C   0  0  0  0  0  0  0  0  0  0  0  0
   -3.6900   17.4960  -34.0630 C   0  0  0  0  0  0  0  0  0  0  0  0
   -2.3980   17.3020  -33.5700 C   0  0  0  0  0  0  0  0  0  0  0  0
   -1.6800   18.3780  -33.0490 C   0  0  0  0  0  0  0  0  0  0  0  0
   -2.2520   19.6510  -33.0120 C   0  0  0  0  0  0  0  0  0  0  0  0
   -3.5550   19.8620  -33.5040 C   0  0  0  0  0  0  0  0  0  0  0  0
   -4.1620   21.1280  -33.4660 O   0  0  0  0  0  0  0  0  0  0  0  0
   -3.9610   22.0930  -32.4390 C   0  0  0  0  0  0  0  0  0  0  0  0
   -6.8190   20.7310  -33.2860 N   0  0  0  0  0  0  0  0  0  0  0  0
   -5.7230   24.6740  -30.6920 C   0  0  0  0  0  0  0  0  0  0  0  0
   -4.4810   25.2640  -30.4440 C   0  0  0  0  0  0  0  0  0  0  0  0
   -1.9730   25.1707  -27.3166 H   0  0  0  0  0  0  0  0  0  0  0  0
   -1.1553   23.9363  -28.3335 H   0  0  0  0  0  0  0  0  0  0  0  0
   -0.5664   25.6333  -28.3335 H   0  0  0  0  0  0  0  0  0  0  0  0
   -3.2091   22.9684  -28.2501 H   0  0  0  0  0  0  0  0  0  0  0  0
   -5.4239   21.9142  -28.6947 H   0  0  0  0  0  0  0  0  0  0  0  0
   -7.4038   21.8023  -29.9881 H   0  0  0  0  0  0  0  0  0  0  0  0
   -8.1673   23.4195  -29.7186 H   0  0  0  0  0  0  0  0  0  0  0  0
   -7.2110   16.4663  -31.9746 H   0  0  0  0  0  0  0  0  0  0  0  0
   -8.1244   16.6027  -33.5153 H   0  0  0  0  0  0  0  0  0  0  0  0
   -6.3349   16.7587  -33.5153 H   0  0  0  0  0  0  0  0  0  0  0  0
   -6.0196   18.0099  -35.0182 H   0  0  0  0  0  0  0  0  0  0  0  0
   -5.6388   19.7509  -35.3558 H   0  0  0  0  0  0  0  0  0  0  0  0
   -4.2538   16.6422  -34.4671 H   0  0  0  0  0  0  0  0  0  0  0  0
   -1.9461   16.2994  -33.5926 H   0  0  0  0  0  0  0  0  0  0  0  0
   -0.6604   18.2233  -32.6662 H   0  0  0  0  0  0  0  0  0  0  0  0
   -1.6816   20.4946  -32.5960 H   0  0  0  0  0  0  0  0  0  0  0  0
   -4.0618   21.6091  -31.4563 H   0  0  0  0  0  0  0  0  0  0  0  0
   -2.9537   22.5247  -32.5335 H   0  0  0  0  0  0  0  0  0  0  0  0
   -4.7122   22.8910  -32.5335 H   0  0  0  0  0  0  0  0  0  0  0  0
   -6.2690   21.4320  -33.8330 H   0  0  0  0  0  0  0  0  0  0  0  0
   -6.4320   25.1590  -31.3790 H   0  0  0  0  0  0  0  0  0  0  0  0
   -4.2177   26.2094  -30.9410 H   0  0  0  0  0  0  0  0  0  0  0  0
  1  2  1  0
  2  3  1  0
  3  4  2  0
  4  5  1  0
  5  6  2  0
  6  7  1  0
  7  8  1  0
  8  9  1  0
  9 10  2  0
 10 11  1  0
 11 12  2  0
 11 13  1  0
 13 14  1  0
 13 15  2  0
 15 16  1  0
 16 17  1  0
 17 18  2  0
 18 19  1  0
 19 20  2  0
 20 21  1  0
 21 22  2  0
 22 23  1  0
 23 24  1  0
 15 25  1  0
  6 26  1  0
 26 27  2  0
 27  3  1  0
 25  9  1  0
 22 17  1  0
  1 28  1  0
  1 29  1  0
  1 30  1  0
  4 31  1  0
  5 32  1  0
  7 33  1  0
  7 34  1  0
 14 35  1  0
 14 36  1  0
 14 37  1  0
 16 38  1  0
 16 39  1  0
 18 40  1  0
 19 41  1  0
 20 42  1  0
 21 43  1  0
 24 44  1  0
 24 45  1  0
 24 46  1  0
 25 47  1  0
 26 48  1  0
 27 49  1  0
M  END
>  <UniqueID>  (47) 
45

>  <SMILES>  (47) 
COc1ccc(CSc2nc(=O)c(C)c(Cc3ccccc3OC)[nH]2)cc1

>  <Energy>  (47) 
46.6428507766028

>  <Genealogy>  (47) 
COc1ccc(CSc2nc(=O)c(C)c(Cc3ccccc3OC)[nH]2)cc1 (3D coordinates assigned)
COc1ccc(CSc2nc(=O)c(C)c(Cc3ccccc3OC)[nH]2)cc1 (optimized conformer: 46.6428507766028 kcal/mol)

>  <smiles>  (47) 
COc1ccc(CSc2nc(=O)c(C)c(Cc3ccccc3OC)[nH]2)cc1

>  <score_type>  (47) 
oracle

>  <origin>  (47) 
adgpu

>  <m_score__min__energy>  (47) 
-8.7300000000000004

>  <m_primary>  (47) 
energy

$$$$
