0:0
     RDKit          3D

 46 49  0  0  0  0  0  0  0  0999 V2000
   -7.5890   25.4000  -29.3540 O   0  0  0  0  0  0  0  0  0  0  0  0
   -6.9170   24.6940  -30.1510 C   0  0  0  0  0  0  0  0  0  0  0  0
   -7.5940   24.0330  -31.2280 N   0  0  0  0  0  0  0  0  0  0  0  0
   -7.3070   22.7190  -31.7280 C   0  0  0  0  0  0  0  0  0  0  0  0
   -8.3350   21.7710  -31.7690 C   0  0  0  0  0  0  0  0  0  0  0  0
   -8.0800   20.4740  -32.2260 C   0  0  0  0  0  0  0  0  0  0  0  0
   -6.7930   20.1140  -32.6340 C   0  0  0  0  0  0  0  0  0  0  0  0
   -5.7520   21.0500  -32.5810 C   0  0  0  0  0  0  0  0  0  0  0  0
   -4.1220   20.5890  -33.0640 S   0  0  0  0  0  0  0  0  0  0  0  0
   -4.1880   19.3460  -33.9080 O   0  0  0  0  0  0  0  0  0  0  0  0
   -3.5090   21.6920  -33.8850 O   0  0  0  0  0  0  0  0  0  0  0  0
   -3.1620   20.2750  -31.6410 N   0  0  0  0  0  0  0  0  0  0  0  0
   -3.8570   20.6980  -30.4260 C   0  0  0  0  0  0  0  0  0  0  0  0
   -2.7800   21.0190  -29.4020 C   0  0  0  0  0  0  0  0  0  0  0  0
   -1.5140   21.2560  -30.2110 C   0  0  0  0  0  0  0  0  0  0  0  0
   -1.9150   21.0390  -31.6630 C   0  0  0  0  0  0  0  0  0  0  0  0
   -6.0060   22.3450  -32.1100 C   0  0  0  0  0  0  0  0  0  0  0  0
   -5.4520   24.6230  -29.9940 C   0  0  0  0  0  0  0  0  0  0  0  0
   -4.7730   24.4950  -28.8010 C   0  0  0  0  0  0  0  0  0  0  0  0
   -3.4380   24.4990  -29.1690 C   0  0  0  0  0  0  0  0  0  0  0  0
   -2.2630   24.3740  -28.2650 C   0  0  0  0  0  0  0  0  0  0  0  0
   -2.1790   23.3000  -27.3540 C   0  0  0  0  0  0  0  0  0  0  0  0
   -1.0780   23.1720  -26.5050 C   0  0  0  0  0  0  0  0  0  0  0  0
   -0.0440   24.1070  -26.5480 C   0  0  0  0  0  0  0  0  0  0  0  0
   -0.1100   25.1750  -27.4420 C   0  0  0  0  0  0  0  0  0  0  0  0
   -1.2080   25.3160  -28.2980 C   0  0  0  0  0  0  0  0  0  0  0  0
   -1.2390   26.4010  -29.1690 O   0  0  0  0  0  0  0  0  0  0  0  0
   -3.3510   24.6330  -30.5090 N   0  0  0  0  0  0  0  0  0  0  0  0
   -4.5740   24.7120  -31.0100 N   0  0  0  0  0  0  0  0  0  0  0  0
   -9.3479   22.0468  -31.4405 H   0  0  0  0  0  0  0  0  0  0  0  0
   -8.8945   19.7356  -32.2643 H   0  0  0  0  0  0  0  0  0  0  0  0
   -6.5970   19.0944  -32.9973 H   0  0  0  0  0  0  0  0  0  0  0  0
   -4.4670   21.5907  -30.6284 H   0  0  0  0  0  0  0  0  0  0  0  0
   -4.5323   19.9108  -30.0595 H   0  0  0  0  0  0  0  0  0  0  0  0
   -3.0472   21.9209  -28.8318 H   0  0  0  0  0  0  0  0  0  0  0  0
   -2.6536   20.2062  -28.6717 H   0  0  0  0  0  0  0  0  0  0  0  0
   -1.1488   22.2829  -30.0620 H   0  0  0  0  0  0  0  0  0  0  0  0
   -0.7014   20.5803  -29.9059 H   0  0  0  0  0  0  0  0  0  0  0  0
   -2.0711   22.0065  -32.1625 H   0  0  0  0  0  0  0  0  0  0  0  0
   -1.1300   20.5023  -32.2160 H   0  0  0  0  0  0  0  0  0  0  0  0
   -5.1841   23.0726  -32.0387 H   0  0  0  0  0  0  0  0  0  0  0  0
   -5.1950   24.4093  -27.7888 H   0  0  0  0  0  0  0  0  0  0  0  0
   -2.9886   22.5565  -27.3122 H   0  0  0  0  0  0  0  0  0  0  0  0
   -1.0259   22.3300  -25.7991 H   0  0  0  0  0  0  0  0  0  0  0  0
    0.8220   24.0021  -25.8779 H   0  0  0  0  0  0  0  0  0  0  0  0
    0.7064   25.9115  -27.4746 H   0  0  0  0  0  0  0  0  0  0  0  0
  1  2  2  0
  2  3  1  0
  3  4  1  0
  4  5  2  0
  5  6  1  0
  6  7  2  0
  7  8  1  0
  8  9  1  0
  9 10  2  0
  9 11  2  0
  9 12  1  0
 12 13  1  0
 13 14  1  0
 14 15  1  0
 15 16  1  0
  8 17  2  0
  2 18  1  0
 18 19  1  0
 19 20  2  0
 20 21  1  0
 21 22  2  0
 22 23  1  0
 23 24  2  0
 24 25  1  0
 25 26  2  0
 26 27  1  0
 20 28  1  0
 28 29  1  0
 17  4  1  0
 29 18  2  0
 16 12  1  0
 26 21  1  0
  5 30  1  0
  6 31  1  0
  7 32  1  0
 13 33  1  0
 13 34  1  0
 14 35  1  0
 14 36  1  0
 15 37  1  0
 15 38  1  0
 16 39  1  0
 16 40  1  0
 17 41  1  0
 19 42  1  0
 22 43  1  0
 23 44  1  0
 24 45  1  0
 25 46  1  0
M  CHG  3   3  -1  27  -1  28  -1
M  END
>  <UniqueID>  (1) 
1

>  <SMILES>  (1) 
O=C([N-]c1cccc(S(=O)(=O)N2CCCC2)c1)c1cc(-c2ccccc2[O-])[n-]n1

>  <Energy>  (1) 
86.80762733488513

>  <Genealogy>  (1) 
O=C([N-]c1cccc(S(=O)(=O)N2CCCC2)c1)c1cc(-c2ccccc2[O-])[n-]n1 (protonated)
O=C([N-]c1cccc(S(=O)(=O)N2CCCC2)c1)c1cc(-c2ccccc2[O-])[n-]n1 (3D coordinates assigned)
O=C([N-]c1cccc(S(=O)(=O)N2CCCC2)c1)c1cc(-c2ccccc2[O-])[n-]n1 (nonaromatic ring conformer: 86.80762733488513 kcal/mol)

>  <smiles>  (1) 
O=C(Nc1cccc(S(=O)(=O)N2CCCC2)c1)c1cc(-c2ccccc2O)[nH]n1

>  <score_type>  (1) 
oracle

>  <origin>  (1) 
adgpu

>  <m_score__min__energy>  (1) 
-15.43

>  <m_primary>  (1) 
energy

$$$$
1:0
     RDKit          3D

 52 54  0  0  0  0  0  0  0  0999 V2000
   -0.3120   21.5250  -34.5050 C   0  0  0  0  0  0  0  0  0  0  0  0
   -0.6290   20.5970  -33.3330 C   0  0  0  0  0  0  0  0  0  0  0  0
   -1.4190   21.3250  -32.2810 C   0  0  0  0  0  0  0  0  0  0  0  0
   -0.7740   21.8540  -31.2120 N   0  0  0  0  0  0  0  0  0  0  0  0
   -1.4270   22.5570  -30.2910 N   0  0  0  0  0  0  0  0  0  0  0  0
   -2.7630   22.7780  -30.3880 C   0  0  0  0  0  0  0  0  0  0  0  0
   -3.5520   23.7880  -29.1230 S   0  0  0  0  0  0  0  0  0  0  0  0
   -3.8590   22.3770  -28.0200 C   0  0  0  0  0  0  0  0  0  0  0  0
   -3.4630   22.2640  -31.4470 N   0  0  0  0  0  0  0  0  0  0  0  0
   -4.8780   22.5030  -31.5850 C   0  0  0  0  0  0  0  0  0  0  0  0
   -5.3990   23.7910  -31.4330 C   0  0  0  0  0  0  0  0  0  0  0  0
   -6.7670   24.0130  -31.5720 C   0  0  0  0  0  0  0  0  0  0  0  0
   -7.6470   22.9480  -31.8380 C   0  0  0  0  0  0  0  0  0  0  0  0
   -9.1070   23.2660  -32.0180 C   0  0  0  0  0  0  0  0  0  0  0  0
   -7.1370   21.6220  -31.9160 C   0  0  0  0  0  0  0  0  0  0  0  0
   -8.1950   20.2010  -32.1650 S   0  0  0  0  0  0  0  0  0  0  0  0
   -9.4870   20.6730  -32.7750 O   0  0  0  0  0  0  0  0  0  0  0  0
   -8.5060   19.5620  -30.8400 O   0  0  0  0  0  0  0  0  0  0  0  0
   -7.4940   18.9460  -33.1700 N   0  0  0  0  0  0  0  0  0  0  0  0
   -6.4580   19.4890  -34.0920 C   0  0  0  0  0  0  0  0  0  0  0  0
   -5.3050   18.5070  -34.3620 C   0  0  0  0  0  0  0  0  0  0  0  0
   -5.8330   17.0770  -34.4880 C   0  0  0  0  0  0  0  0  0  0  0  0
   -6.5820   16.6290  -33.2190 C   0  0  0  0  0  0  0  0  0  0  0  0
   -7.0360   17.8100  -32.3440 C   0  0  0  0  0  0  0  0  0  0  0  0
   -5.7460   21.4340  -31.8370 C   0  0  0  0  0  0  0  0  0  0  0  0
   -2.7990   21.5430  -32.4050 C   0  0  0  0  0  0  0  0  0  0  0  0
   -3.4220   21.0730  -33.3980 O   0  0  0  0  0  0  0  0  0  0  0  0
    0.0212   22.5003  -34.1207 H   0  0  0  0  0  0  0  0  0  0  0  0
    0.4854   21.0810  -35.1190 H   0  0  0  0  0  0  0  0  0  0  0  0
   -1.2144   21.6617  -35.1190 H   0  0  0  0  0  0  0  0  0  0  0  0
   -1.2156   19.7410  -33.6979 H   0  0  0  0  0  0  0  0  0  0  0  0
    0.3159   20.2493  -32.8900 H   0  0  0  0  0  0  0  0  0  0  0  0
   -3.7871   22.7074  -26.9733 H   0  0  0  0  0  0  0  0  0  0  0  0
   -4.8655   21.9757  -28.2095 H   0  0  0  0  0  0  0  0  0  0  0  0
   -3.1103   21.5938  -28.2095 H   0  0  0  0  0  0  0  0  0  0  0  0
   -4.7272   24.6312  -31.2031 H   0  0  0  0  0  0  0  0  0  0  0  0
   -7.1644   25.0339  -31.4725 H   0  0  0  0  0  0  0  0  0  0  0  0
   -9.5839   23.3699  -31.0322 H   0  0  0  0  0  0  0  0  0  0  0  0
   -9.2110   24.2078  -32.5767 H   0  0  0  0  0  0  0  0  0  0  0  0
   -9.5932   22.4527  -32.5767 H   0  0  0  0  0  0  0  0  0  0  0  0
   -8.2820   18.5890  -33.7620 H   0  0  0  0  0  0  0  0  0  0  0  0
   -6.9385   19.7345  -35.0505 H   0  0  0  0  0  0  0  0  0  0  0  0
   -6.0230   20.3747  -33.6060 H   0  0  0  0  0  0  0  0  0  0  0  0
   -4.8011   18.7899  -35.2980 H   0  0  0  0  0  0  0  0  0  0  0  0
   -4.5980   18.5507  -33.5204 H   0  0  0  0  0  0  0  0  0  0  0  0
   -6.5215   17.0260  -35.3443 H   0  0  0  0  0  0  0  0  0  0  0  0
   -4.9727   16.4067  -34.6314 H   0  0  0  0  0  0  0  0  0  0  0  0
   -7.4698   16.0535  -33.5201 H   0  0  0  0  0  0  0  0  0  0  0  0
   -5.8853   16.0234  -32.6208 H   0  0  0  0  0  0  0  0  0  0  0  0
   -7.8632   17.4802  -31.6983 H   0  0  0  0  0  0  0  0  0  0  0  0
   -6.1794   18.1435  -31.7398 H   0  0  0  0  0  0  0  0  0  0  0  0
   -5.3307   20.4250  -31.9762 H   0  0  0  0  0  0  0  0  0  0  0  0
  1  2  1  0
  2  3  1  0
  3  4  2  0
  4  5  1  0
  5  6  2  0
  6  7  1  0
  7  8  1  0
  6  9  1  0
  9 10  1  0
 10 11  2  0
 11 12  1  0
 12 13  2  0
 13 14  1  0
 13 15  1  0
 15 16  1  0
 16 17  2  0
 16 18  2  0
 16 19  1  0
 19 20  1  0
 20 21  1  0
 21 22  1  0
 22 23  1  0
 23 24  1  0
 15 25  2  0
  9 26  1  0
 26 27  2  0
 26  3  1  0
 25 10  1  0
 24 19  1  0
  1 28  1  0
  1 29  1  0
  1 30  1  0
  2 31  1  0
  2 32  1  0
  8 33  1  0
  8 34  1  0
  8 35  1  0
 11 36  1  0
 12 37  1  0
 14 38  1  0
 14 39  1  0
 14 40  1  0
 19 41  1  0
 20 42  1  0
 20 43  1  0
 21 44  1  0
 21 45  1  0
 22 46  1  0
 22 47  1  0
 23 48  1  0
 23 49  1  0
 24 50  1  0
 24 51  1  0
 25 52  1  0
M  CHG  1  19   1
M  END
>  <UniqueID>  (2) 
2

>  <SMILES>  (2) 
CCc1nnc(SC)n(-c2ccc(C)c(S(=O)(=O)[NH+]3CCCCC3)c2)c1=O

>  <Energy>  (2) 
65.9222929372764

>  <Genealogy>  (2) 
CCc1nnc(SC)n(-c2ccc(C)c(S(=O)(=O)[NH+]3CCCCC3)c2)c1=O (protonated)
CCc1nnc(SC)n(-c2ccc(C)c(S(=O)(=O)[NH+]3CCCCC3)c2)c1=O (3D coordinates assigned)
CCc1nnc(SC)n(-c2ccc(C)c(S(=O)(=O)[NH+]3CCCCC3)c2)c1=O (nonaromatic ring conformer: 65.9222929372764 kcal/mol)

>  <smiles>  (2) 
CCc1nnc(SC)n(-c2ccc(C)c(S(=O)(=O)N3CCCCC3)c2)c1=O

>  <score_type>  (2) 
oracle

>  <origin>  (2) 
adgpu

>  <m_score__min__energy>  (2) 
-8.8699999999999992

>  <m_primary>  (2) 
energy

$$$$
2:0
     RDKit          3D

 39 41  0  0  0  0  0  0  0  0999 V2000
   -7.9550   22.2740  -30.8750 N   0  0  0  0  0  0  0  0  0  0  0  0
   -8.5820   21.5030  -31.9490 C   0  0  0  0  0  0  0  0  0  0  0  0
   -8.2980   19.9970  -31.8280 C   0  0  0  0  0  0  0  0  0  0  0  0
   -6.9200   19.6490  -32.3130 C   0  0  0  0  0  0  0  0  0  0  0  0
   -5.7690   20.4100  -32.1420 C   0  0  0  0  0  0  0  0  0  0  0  0
   -4.6970   19.7430  -32.6260 N   0  0  0  0  0  0  0  0  0  0  0  0
   -3.0480   20.2700  -32.5460 S   0  0  0  0  0  0  0  0  0  0  0  0
   -2.2200   19.1840  -31.9190 O   0  0  0  0  0  0  0  0  0  0  0  0
   -2.5310   20.5430  -33.9320 O   0  0  0  0  0  0  0  0  0  0  0  0
   -2.9520   21.7470  -31.5950 C   0  0  0  0  0  0  0  0  0  0  0  0
   -1.8080   22.0100  -30.8350 C   0  0  0  0  0  0  0  0  0  0  0  0
   -1.7160   23.1850  -30.0870 C   0  0  0  0  0  0  0  0  0  0  0  0
   -0.2610   23.4920  -29.1500 Cl  0  0  0  0  0  0  0  0  0  0  0  0
   -2.7720   24.1080  -30.0870 C   0  0  0  0  0  0  0  0  0  0  0  0
   -2.6520   25.2720  -29.3330 O   0  0  0  0  0  0  0  0  0  0  0  0
   -3.9380   23.8510  -30.8440 C   0  0  0  0  0  0  0  0  0  0  0  0
   -5.0790   24.8040  -30.8680 C   0  0  0  0  0  0  0  0  0  0  0  0
   -4.8750   26.0430  -30.7610 O   0  0  0  0  0  0  0  0  0  0  0  0
   -6.3860   24.3560  -31.0070 O   0  0  0  0  0  0  0  0  0  0  0  0
   -4.0110   22.6620  -31.5950 C   0  0  0  0  0  0  0  0  0  0  0  0
   -5.1530   18.5630  -33.0890 C   0  0  0  0  0  0  0  0  0  0  0  0
   -4.4180   17.5130  -33.6460 C   0  0  0  0  0  0  0  0  0  0  0  0
   -5.1150   16.3530  -34.0290 C   0  0  0  0  0  0  0  0  0  0  0  0
   -6.5120   16.2610  -33.8450 C   0  0  0  0  0  0  0  0  0  0  0  0
   -7.1850   15.1060  -34.2260 O   0  0  0  0  0  0  0  0  0  0  0  0
   -7.2260   17.3300  -33.2760 C   0  0  0  0  0  0  0  0  0  0  0  0
   -6.5110   18.4720  -32.9110 C   0  0  0  0  0  0  0  0  0  0  0  0
   -6.9170   22.2520  -30.9970 H   0  0  0  0  0  0  0  0  0  0  0  0
   -8.2680   23.2700  -30.9390 H   0  0  0  0  0  0  0  0  0  0  0  0
   -9.6697   21.6622  -31.9103 H   0  0  0  0  0  0  0  0  0  0  0  0
   -8.1592   21.8497  -32.9035 H   0  0  0  0  0  0  0  0  0  0  0  0
   -8.3894   19.7010  -30.7725 H   0  0  0  0  0  0  0  0  0  0  0  0
   -9.0265   19.4602  -32.4534 H   0  0  0  0  0  0  0  0  0  0  0  0
   -5.7354   21.4081  -31.6807 H   0  0  0  0  0  0  0  0  0  0  0  0
   -0.9777   21.2885  -30.8266 H   0  0  0  0  0  0  0  0  0  0  0  0
   -4.9120   22.4497  -32.1893 H   0  0  0  0  0  0  0  0  0  0  0  0
   -3.3291   17.5913  -33.7806 H   0  0  0  0  0  0  0  0  0  0  0  0
   -4.5672   15.5102  -34.4757 H   0  0  0  0  0  0  0  0  0  0  0  0
   -8.3136   17.2685  -33.1232 H   0  0  0  0  0  0  0  0  0  0  0  0
  1  2  1  0
  2  3  1  0
  3  4  1  0
  4  5  2  0
  5  6  1  0
  6  7  1  0
  7  8  2  0
  7  9  2  0
  7 10  1  0
 10 11  2  0
 11 12  1  0
 12 13  1  0
 12 14  2  0
 14 15  1  0
 14 16  1  0
 16 17  1  0
 17 18  2  0
 17 19  1  0
 16 20  2  0
  6 21  1  0
 21 22  2  0
 22 23  1  0
 23 24  2  0
 24 25  1  0
 24 26  1  0
 26 27  2  0
 27  4  1  0
 20 10  1  0
 27 21  1  0
  1 28  1  0
  1 29  1  0
  2 30  1  0
  2 31  1  0
  3 32  1  0
  3 33  1  0
  5 34  1  0
 11 35  1  0
 20 36  1  0
 22 37  1  0
 23 38  1  0
 26 39  1  0
M  CHG  3  15  -1  19  -1  25  -1
M  END
>  <UniqueID>  (3) 
3

>  <SMILES>  (3) 
NCCc1cn(S(=O)(=O)c2cc(Cl)c([O-])c(C(=O)[O-])c2)c2ccc([O-])cc12

>  <Energy>  (3) 
75.48322457470783

>  <Genealogy>  (3) 
NCCc1cn(S(=O)(=O)c2cc(Cl)c([O-])c(C(=O)[O-])c2)c2ccc([O-])cc12 (protonated)
NCCc1cn(S(=O)(=O)c2cc(Cl)c([O-])c(C(=O)[O-])c2)c2ccc([O-])cc12 (3D coordinates assigned)
NCCc1cn(S(=O)(=O)c2cc(Cl)c([O-])c(C(=O)[O-])c2)c2ccc([O-])cc12 (optimized conformer: 75.48322457470783 kcal/mol)

>  <smiles>  (3) 
NCCc1cn(S(=O)(=O)c2cc(Cl)c(O)c(C(=O)O)c2)c2ccc(O)cc12

>  <score_type>  (3) 
oracle

>  <origin>  (3) 
adgpu

>  <m_score__min__energy>  (3) 
-12.51

>  <m_primary>  (3) 
energy

$$$$
3:0
     RDKit          3D

 48 51  0  0  0  0  0  0  0  0999 V2000
    2.0170   26.2530  -26.7090 H   0  0  0  0  0  0  0  0  0  0  0  0
    1.0660   26.6210  -26.9350 N   0  0  0  0  0  0  0  0  0  0  0  0
    0.2000   25.9060  -27.5780 C   0  0  0  0  0  0  0  0  0  0  0  0
    0.5110   24.6440  -27.9780 N   0  0  0  0  0  0  0  0  0  0  0  0
   -0.3810   23.8780  -28.6590 C   0  0  0  0  0  0  0  0  0  0  0  0
   -0.1107   22.8584  -28.9710 H   0  0  0  0  0  0  0  0  0  0  0  0
   -1.6510   24.3970  -28.9620 C   0  0  0  0  0  0  0  0  0  0  0  0
   -2.6690   23.5990  -29.6870 C   0  0  0  0  0  0  0  0  0  0  0  0
   -2.5960   22.1970  -29.6510 C   0  0  0  0  0  0  0  0  0  0  0  0
   -1.7844   21.7081  -29.0921 H   0  0  0  0  0  0  0  0  0  0  0  0
   -3.5440   21.4170  -30.3180 C   0  0  0  0  0  0  0  0  0  0  0  0
   -3.4621   20.3202  -30.2979 H   0  0  0  0  0  0  0  0  0  0  0  0
   -4.6010   22.0260  -31.0140 C   0  0  0  0  0  0  0  0  0  0  0  0
   -5.6170   21.2130  -31.7230 C   0  0  0  0  0  0  0  0  0  0  0  0
   -6.8940   21.2260  -31.2550 N   0  0  0  0  0  0  0  0  0  0  0  0
   -7.8750   20.5050  -31.8510 C   0  0  0  0  0  0  0  0  0  0  0  0
   -8.8995   20.5368  -31.4517 H   0  0  0  0  0  0  0  0  0  0  0  0
   -7.5960   19.7450  -32.9380 N   0  0  0  0  0  0  0  0  0  0  0  0
   -6.3410   19.6810  -33.4560 C   0  0  0  0  0  0  0  0  0  0  0  0
   -6.1010   18.7810  -34.6420 C   0  0  0  0  0  0  0  0  0  0  0  0
   -6.9038   18.9336  -35.3784 H   0  0  0  0  0  0  0  0  0  0  0  0
   -5.1242   19.0313  -35.0816 H   0  0  0  0  0  0  0  0  0  0  0  0
   -6.0840   17.3160  -34.2180 C   0  0  0  0  0  0  0  0  0  0  0  0
   -6.0833   17.2521  -33.1199 H   0  0  0  0  0  0  0  0  0  0  0  0
   -6.9763   16.8092  -34.6142 H   0  0  0  0  0  0  0  0  0  0  0  0
   -5.1802   16.8301  -34.6142 H   0  0  0  0  0  0  0  0  0  0  0  0
   -5.3010   20.4120  -32.8420 C   0  0  0  0  0  0  0  0  0  0  0  0
   -3.9380   20.2890  -33.3070 C   0  0  0  0  0  0  0  0  0  0  0  0
   -2.7960   20.1960  -33.6840 C   0  0  0  0  0  0  0  0  0  0  0  0
   -1.4370   20.0700  -34.1370 C   0  0  0  0  0  0  0  0  0  0  0  0
   -0.5920   21.1830  -34.1570 C   0  0  0  0  0  0  0  0  0  0  0  0
   -0.9629   22.1636  -33.8240 H   0  0  0  0  0  0  0  0  0  0  0  0
    0.7240   21.0460  -34.6010 C   0  0  0  0  0  0  0  0  0  0  0  0
    1.3957   21.9168  -34.6223 H   0  0  0  0  0  0  0  0  0  0  0  0
    1.1830   19.7880  -35.0200 C   0  0  0  0  0  0  0  0  0  0  0  0
    2.4020   19.6350  -35.4360 N   0  0  0  0  0  0  0  0  0  0  0  0
    3.0840   20.4250  -35.4780 H   0  0  0  0  0  0  0  0  0  0  0  0
    0.3390   18.7150  -34.9910 N   0  0  0  0  0  0  0  0  0  0  0  0
    0.6810   17.7780  -35.3040 H   0  0  0  0  0  0  0  0  0  0  0  0
   -0.9470   18.8310  -34.5620 C   0  0  0  0  0  0  0  0  0  0  0  0
   -1.6029   17.9480  -34.5494 H   0  0  0  0  0  0  0  0  0  0  0  0
   -4.6730   23.4260  -31.0590 C   0  0  0  0  0  0  0  0  0  0  0  0
   -5.4837   23.9122  -31.6215 H   0  0  0  0  0  0  0  0  0  0  0  0
   -3.7230   24.2100  -30.3950 C   0  0  0  0  0  0  0  0  0  0  0  0
   -3.8720   25.5590  -30.4040 F   0  0  0  0  0  0  0  0  0  0  0  0
   -1.9600   25.6550  -28.5430 N   0  0  0  0  0  0  0  0  0  0  0  0
   -1.0660   26.4220  -27.8650 C   0  0  0  0  0  0  0  0  0  0  0  0
   -1.3367   27.4391  -27.5454 H   0  0  0  0  0  0  0  0  0  0  0  0
  1  2  1  0
  2  3  2  0
  3  4  1  0
  4  5  1  0
  5  6  1  0
  5  7  2  0
  7  8  1  0
  8  9  2  0
  9 10  1  0
  9 11  1  0
 11 12  1  0
 11 13  2  0
 13 14  1  0
 14 15  2  0
 15 16  1  0
 16 17  1  0
 16 18  2  0
 18 19  1  0
 19 20  1  0
 20 21  1  0
 20 22  1  0
 20 23  1  0
 23 24  1  0
 23 25  1  0
 23 26  1  0
 19 27  2  0
 27 28  1  0
 28 29  3  0
 29 30  1  0
 30 31  1  0
 31 32  1  0
 31 33  2  0
 33 34  1  0
 33 35  1  0
 35 36  2  0
 36 37  1  0
 35 38  1  0
 38 39  1  0
 38 40  1  0
 40 41  1  0
 13 42  1  0
 42 43  1  0
 42 44  2  0
 44 45  1  0
  7 46  1  0
 46 47  2  0
 47 48  1  0
 47  3  1  0
 44  8  1  0
 27 14  1  0
 40 30  2  0
M  CHG  1   4  -1
M  END
>  <UniqueID>  (4) 
4

>  <SMILES>  (4) 
[H]/N=c1/cnc(-c2ccc(-c3ncnc(CC)c3C#Cc3cc/c(=N\[H])[nH]c3)cc2F)c[n-]1

>  <Energy>  (4) 
61.06703059380764

>  <Genealogy>  (4) 
CCc1ncnc(-c2ccc(-c3c[n-]c(=N)cn3)c(F)c2)c1C#Cc1ccc(=N)[nH]c1 (protonated)
[H]/N=c1/cnc(-c2ccc(-c3ncnc(CC)c3C#Cc3cc/c(=N\[H])[nH]c3)cc2F)c[n-]1 (cis-trans isomerization)
[H]/N=c1/cnc(-c2ccc(-c3ncnc(CC)c3C#Cc3cc/c(=N\[H])[nH]c3)cc2F)c[n-]1 (3D coordinates assigned)
[H]/N=c1/cnc(-c2ccc(-c3ncnc(CC)c3C#Cc3cc/c(=N\[H])[nH]c3)cc2F)c[n-]1 (optimized conformer: 61.06703059380764 kcal/mol)

>  <smiles>  (4) 
CCc1ncnc(-c2ccc(-c3c[nH]c(=N)cn3)c(F)c2)c1C#Cc1ccc(=N)[nH]c1

>  <score_type>  (4) 
oracle

>  <origin>  (4) 
adgpu

>  <m_score__min__energy>  (4) 
-10.23

>  <m_primary>  (4) 
energy

$$$$
4:0
     RDKit          3D

 60 63  0  0  0  0  0  0  0  0999 V2000
   -2.7630   16.8090  -35.3100 O   0  0  0  0  0  0  0  0  0  0  0  0
   -2.3280   16.6660  -33.8780 S   0  0  0  0  0  0  0  0  0  0  0  0
   -0.9330   16.1080  -33.8580 O   0  0  0  0  0  0  0  0  0  0  0  0
   -3.3930   15.5740  -33.0470 N   0  0  0  0  0  0  0  0  0  0  0  0
   -4.3310   14.9770  -34.0030 C   0  0  0  0  0  0  0  0  0  0  0  0
   -5.7810   15.2530  -33.5880 C   0  0  0  0  0  0  0  0  0  0  0  0
   -6.0790   16.7300  -33.5490 C   0  0  0  0  0  0  0  0  0  0  0  0
   -5.8130   17.5410  -34.6660 C   0  0  0  0  0  0  0  0  0  0  0  0
   -6.1230   18.9030  -34.6360 C   0  0  0  0  0  0  0  0  0  0  0  0
   -6.7030   19.4660  -33.4950 C   0  0  0  0  0  0  0  0  0  0  0  0
   -6.9760   18.6650  -32.3830 C   0  0  0  0  0  0  0  0  0  0  0  0
   -6.6680   17.3010  -32.4090 C   0  0  0  0  0  0  0  0  0  0  0  0
   -2.3310   18.2370  -33.0800 C   0  0  0  0  0  0  0  0  0  0  0  0
   -1.2110   18.6450  -32.3460 C   0  0  0  0  0  0  0  0  0  0  0  0
   -1.2140   19.8730  -31.6790 C   0  0  0  0  0  0  0  0  0  0  0  0
   -2.3420   20.7110  -31.7330 C   0  0  0  0  0  0  0  0  0  0  0  0
   -2.3530   22.0120  -31.0180 C   0  0  0  0  0  0  0  0  0  0  0  0
   -1.2860   22.3770  -30.1820 C   0  0  0  0  0  0  0  0  0  0  0  0
   -1.3020   23.5980  -29.5060 C   0  0  0  0  0  0  0  0  0  0  0  0
   -2.3880   24.4650  -29.6410 C   0  0  0  0  0  0  0  0  0  0  0  0
   -2.3730   25.6770  -28.9570 O   0  0  0  0  0  0  0  0  0  0  0  0
   -3.4810   24.1110  -30.4590 C   0  0  0  0  0  0  0  0  0  0  0  0
   -4.6800   25.0320  -30.6030 C   0  0  0  0  0  0  0  0  0  0  0  0
   -5.9730   24.3200  -30.7240 N   0  0  0  0  0  0  0  0  0  0  0  0
   -6.3350   23.9220  -32.1050 C   0  0  0  0  0  0  0  0  0  0  0  0
   -6.3070   22.3980  -32.2910 C   0  0  0  0  0  0  0  0  0  0  0  0
   -7.2320   21.7180  -31.3650 N   0  0  0  0  0  0  0  0  0  0  0  0
   -7.3860   22.3960  -30.0610 C   0  0  0  0  0  0  0  0  0  0  0  0
   -6.1710   23.2610  -29.7100 C   0  0  0  0  0  0  0  0  0  0  0  0
   -3.4390   22.8940  -31.1610 C   0  0  0  0  0  0  0  0  0  0  0  0
   -3.4660   20.2920  -32.4690 C   0  0  0  0  0  0  0  0  0  0  0  0
   -3.4590   19.0630  -33.1360 C   0  0  0  0  0  0  0  0  0  0  0  0
   -3.9370   16.1560  -32.3700 H   0  0  0  0  0  0  0  0  0  0  0  0
   -4.1530   15.4074  -34.9995 H   0  0  0  0  0  0  0  0  0  0  0  0
   -4.1707   13.8889  -34.0215 H   0  0  0  0  0  0  0  0  0  0  0  0
   -6.4563   14.7722  -34.3111 H   0  0  0  0  0  0  0  0  0  0  0  0
   -5.9313   14.8464  -32.5770 H   0  0  0  0  0  0  0  0  0  0  0  0
   -5.3593   17.1018  -35.5667 H   0  0  0  0  0  0  0  0  0  0  0  0
   -5.9104   19.5337  -35.5118 H   0  0  0  0  0  0  0  0  0  0  0  0
   -6.9443   20.5390  -33.4728 H   0  0  0  0  0  0  0  0  0  0  0  0
   -7.4337   19.1078  -31.4861 H   0  0  0  0  0  0  0  0  0  0  0  0
   -6.8879   16.6729  -31.5331 H   0  0  0  0  0  0  0  0  0  0  0  0
   -0.3244   17.9960  -32.2940 H   0  0  0  0  0  0  0  0  0  0  0  0
   -0.3278   20.1863  -31.1077 H   0  0  0  0  0  0  0  0  0  0  0  0
   -0.4311   21.6958  -30.0588 H   0  0  0  0  0  0  0  0  0  0  0  0
   -0.4545   23.8787  -28.8634 H   0  0  0  0  0  0  0  0  0  0  0  0
   -4.7248   25.6831  -29.7176 H   0  0  0  0  0  0  0  0  0  0  0  0
   -4.5382   25.5969  -31.5362 H   0  0  0  0  0  0  0  0  0  0  0  0
   -7.3485   24.2881  -32.3259 H   0  0  0  0  0  0  0  0  0  0  0  0
   -5.5949   24.3613  -32.7900 H   0  0  0  0  0  0  0  0  0  0  0  0
   -6.5982   22.1597  -33.3246 H   0  0  0  0  0  0  0  0  0  0  0  0
   -5.2872   22.0453  -32.0773 H   0  0  0  0  0  0  0  0  0  0  0  0
   -6.8660   20.7510  -31.1980 H   0  0  0  0  0  0  0  0  0  0  0  0
   -8.2785   23.0379  -30.0990 H   0  0  0  0  0  0  0  0  0  0  0  0
   -7.4826   21.6204  -29.2870 H   0  0  0  0  0  0  0  0  0  0  0  0
   -6.3318   23.7277  -28.7270 H   0  0  0  0  0  0  0  0  0  0  0  0
   -5.2763   22.6216  -29.6869 H   0  0  0  0  0  0  0  0  0  0  0  0
   -4.2684   22.6273  -31.8326 H   0  0  0  0  0  0  0  0  0  0  0  0
   -4.3564   20.9359  -32.5199 H   0  0  0  0  0  0  0  0  0  0  0  0
   -4.3436   18.7444  -33.7069 H   0  0  0  0  0  0  0  0  0  0  0  0
  1  2  2  0
  2  3  2  0
  2  4  1  0
  4  5  1  0
  5  6  1  0
  6  7  1  0
  7  8  2  0
  8  9  1  0
  9 10  2  0
 10 11  1  0
 11 12  2  0
  2 13  1  0
 13 14  2  0
 14 15  1  0
 15 16  2  0
 16 17  1  0
 17 18  2  0
 18 19  1  0
 19 20  2  0
 20 21  1  0
 20 22  1  0
 22 23  1  0
 23 24  1  0
 24 25  1  0
 25 26  1  0
 26 27  1  0
 27 28  1  0
 28 29  1  0
 22 30  2  0
 16 31  1  0
 31 32  2  0
 12  7  1  0
 32 13  1  0
 30 17  1  0
 29 24  1  0
  4 33  1  0
  5 34  1  0
  5 35  1  0
  6 36  1  0
  6 37  1  0
  8 38  1  0
  9 39  1  0
 10 40  1  0
 11 41  1  0
 12 42  1  0
 14 43  1  0
 15 44  1  0
 18 45  1  0
 19 46  1  0
 23 47  1  0
 23 48  1  0
 25 49  1  0
 25 50  1  0
 26 51  1  0
 26 52  1  0
 27 53  1  0
 28 54  1  0
 28 55  1  0
 29 56  1  0
 29 57  1  0
 30 58  1  0
 31 59  1  0
 32 60  1  0
M  CHG  1  21  -1
M  END
>  <UniqueID>  (5) 
5

>  <SMILES>  (5) 
O=S(=O)(NCCc1ccccc1)c1ccc(-c2ccc([O-])c(CN3CCNCC3)c2)cc1

>  <Energy>  (5) 
76.46483875646688

>  <Genealogy>  (5) 
O=S(=O)(NCCc1ccccc1)c1ccc(-c2ccc([O-])c(CN3CCNCC3)c2)cc1 (protonated)
O=S(=O)(NCCc1ccccc1)c1ccc(-c2ccc([O-])c(CN3CCNCC3)c2)cc1 (3D coordinates assigned)
O=S(=O)(NCCc1ccccc1)c1ccc(-c2ccc([O-])c(CN3CCNCC3)c2)cc1 (nonaromatic ring conformer: 76.46483875646688 kcal/mol)

>  <smiles>  (5) 
O=S(=O)(NCCc1ccccc1)c1ccc(-c2ccc(O)c(CN3CCNCC3)c2)cc1

>  <score_type>  (5) 
oracle

>  <origin>  (5) 
adgpu

>  <m_score__min__energy>  (5) 
-11.529999999999999

>  <m_primary>  (5) 
energy

$$$$
5:0
     RDKit          3D

 64 68  0  0  0  0  0  0  0  0999 V2000
    0.5600   17.6030  -35.5790 C   0  0  0  0  0  0  0  0  0  0  0  0
    1.1890   18.9880  -35.6250 C   0  0  0  0  0  0  0  0  0  0  0  0
    0.1390   20.0010  -35.6340 N   0  0  0  0  0  0  0  0  0  0  0  0
    0.1920   20.9200  -34.1620 S   0  0  0  0  0  0  0  0  0  0  0  0
    1.3710   21.8550  -34.1980 O   0  0  0  0  0  0  0  0  0  0  0  0
   -1.0640   21.7410  -34.0560 O   0  0  0  0  0  0  0  0  0  0  0  0
    0.2970   19.8490  -32.7670 C   0  0  0  0  0  0  0  0  0  0  0  0
   -0.8280   19.1140  -32.3690 C   0  0  0  0  0  0  0  0  0  0  0  0
   -0.7550   18.2550  -31.2650 C   0  0  0  0  0  0  0  0  0  0  0  0
    0.4390   18.1300  -30.5430 C   0  0  0  0  0  0  0  0  0  0  0  0
    0.4730   17.2460  -29.4110 N   0  0  0  0  0  0  0  0  0  0  0  0
    0.5340   17.6450  -28.0340 C   0  0  0  0  0  0  0  0  0  0  0  0
    1.4700   17.2330  -27.2970 O   0  0  0  0  0  0  0  0  0  0  0  0
   -0.4280   18.5770  -27.5180 N   0  0  0  0  0  0  0  0  0  0  0  0
   -1.6520   18.1820  -26.8180 C   0  0  0  0  0  0  0  0  0  0  0  0
   -2.4950   19.4720  -26.6670 C   0  0  0  0  0  0  0  0  0  0  0  0
   -1.6360   20.5190  -27.2840 C   0  0  0  0  0  0  0  0  0  0  0  0
   -1.8810   21.8920  -27.3560 C   0  0  0  0  0  0  0  0  0  0  0  0
   -0.8890   22.7250  -27.9020 C   0  0  0  0  0  0  0  0  0  0  0  0
   -1.1330   24.4690  -27.9450 S   0  0  0  0  0  0  0  0  0  0  0  0
    0.1880   25.1850  -27.8980 O   0  0  0  0  0  0  0  0  0  0  0  0
   -1.9400   24.8730  -26.7440 O   0  0  0  0  0  0  0  0  0  0  0  0
   -1.9780   24.9560  -29.3770 N   0  0  0  0  0  0  0  0  0  0  0  0
   -2.9230   24.1190  -30.0520 C   0  0  0  0  0  0  0  0  0  0  0  0
   -2.7100   22.7360  -30.1790 C   0  0  0  0  0  0  0  0  0  0  0  0
   -3.6400   21.9330  -30.8540 C   0  0  0  0  0  0  0  0  0  0  0  0
   -4.7930   22.5230  -31.4160 C   0  0  0  0  0  0  0  0  0  0  0  0
   -4.9990   23.9050  -31.2900 C   0  0  0  0  0  0  0  0  0  0  0  0
   -4.0810   24.6950  -30.5930 C   0  0  0  0  0  0  0  0  0  0  0  0
   -4.3110   26.0610  -30.4630 O   0  0  0  0  0  0  0  0  0  0  0  0
   -5.7470   21.7030  -32.2520 C   0  0  0  0  0  0  0  0  0  0  0  0
   -5.7060   20.2760  -31.8980 N   0  0  0  0  0  0  0  0  0  0  0  0
   -4.3270   19.7660  -31.9420 C   0  0  0  0  0  0  0  0  0  0  0  0
   -3.4540   20.4360  -30.8730 C   0  0  0  0  0  0  0  0  0  0  0  0
    0.3230   22.1680  -28.3600 C   0  0  0  0  0  0  0  0  0  0  0  0
    0.5430   20.7870  -28.2760 C   0  0  0  0  0  0  0  0  0  0  0  0
   -0.4690   19.9780  -27.7470 C   0  0  0  0  0  0  0  0  0  0  0  0
    1.5780   18.8380  -30.9710 C   0  0  0  0  0  0  0  0  0  0  0  0
    1.5020   19.7020  -32.0670 C   0  0  0  0  0  0  0  0  0  0  0  0
    0.4214   17.2978  -34.5313 H   0  0  0  0  0  0  0  0  0  0  0  0
   -0.4158   17.6264  -36.0862 H   0  0  0  0  0  0  0  0  0  0  0  0
    1.2197   16.8836  -36.0862 H   0  0  0  0  0  0  0  0  0  0  0  0
    1.8274   19.1300  -34.7405 H   0  0  0  0  0  0  0  0  0  0  0  0
    1.7973   19.0835  -36.5365 H   0  0  0  0  0  0  0  0  0  0  0  0
   -1.7717   19.2121  -32.9256 H   0  0  0  0  0  0  0  0  0  0  0  0
   -1.6399   17.6755  -30.9633 H   0  0  0  0  0  0  0  0  0  0  0  0
   -2.2028   17.4325  -27.4052 H   0  0  0  0  0  0  0  0  0  0  0  0
   -1.4282   17.7312  -25.8399 H   0  0  0  0  0  0  0  0  0  0  0  0
   -3.4518   19.3820  -27.2022 H   0  0  0  0  0  0  0  0  0  0  0  0
   -2.7585   19.6932  -25.6222 H   0  0  0  0  0  0  0  0  0  0  0  0
   -2.8303   22.3128  -26.9931 H   0  0  0  0  0  0  0  0  0  0  0  0
   -1.8074   22.2803  -29.7459 H   0  0  0  0  0  0  0  0  0  0  0  0
   -5.8878   24.3691  -31.7423 H   0  0  0  0  0  0  0  0  0  0  0  0
   -6.7690   22.0783  -32.0948 H   0  0  0  0  0  0  0  0  0  0  0  0
   -5.4440   21.7998  -33.3050 H   0  0  0  0  0  0  0  0  0  0  0  0
   -6.0870   20.1560  -30.9280 H   0  0  0  0  0  0  0  0  0  0  0  0
   -4.3401   18.6803  -31.7659 H   0  0  0  0  0  0  0  0  0  0  0  0
   -3.9027   19.9931  -32.9311 H   0  0  0  0  0  0  0  0  0  0  0  0
   -3.7254   20.0311  -29.8869 H   0  0  0  0  0  0  0  0  0  0  0  0
   -2.4009   20.2257  -31.1111 H   0  0  0  0  0  0  0  0  0  0  0  0
    1.0993   22.8211  -28.7852 H   0  0  0  0  0  0  0  0  0  0  0  0
    1.4914   20.3477  -28.6187 H   0  0  0  0  0  0  0  0  0  0  0  0
    2.5329   18.7106  -30.4400 H   0  0  0  0  0  0  0  0  0  0  0  0
    2.3911   20.2685  -32.3811 H   0  0  0  0  0  0  0  0  0  0  0  0
  1  2  1  0
  2  3  1  0
  3  4  1  0
  4  5  2  0
  4  6  2  0
  4  7  1  0
  7  8  2  0
  8  9  1  0
  9 10  2  0
 10 11  1  0
 11 12  1  0
 12 13  2  0
 12 14  1  0
 14 15  1  0
 15 16  1  0
 16 17  1  0
 17 18  2  0
 18 19  1  0
 19 20  1  0
 20 21  2  0
 20 22  2  0
 20 23  1  0
 23 24  1  0
 24 25  2  0
 25 26  1  0
 26 27  2  0
 27 28  1  0
 28 29  2  0
 29 30  1  0
 27 31  1  0
 31 32  1  0
 32 33  1  0
 33 34  1  0
 19 35  2  0
 35 36  1  0
 36 37  2  0
 10 38  1  0
 38 39  2  0
 39  7  1  0
 37 14  1  0
 37 17  1  0
 29 24  1  0
 34 26  1  0
  1 40  1  0
  1 41  1  0
  1 42  1  0
  2 43  1  0
  2 44  1  0
  8 45  1  0
  9 46  1  0
 15 47  1  0
 15 48  1  0
 16 49  1  0
 16 50  1  0
 18 51  1  0
 25 52  1  0
 28 53  1  0
 31 54  1  0
 31 55  1  0
 32 56  1  0
 33 57  1  0
 33 58  1  0
 34 59  1  0
 34 60  1  0
 35 61  1  0
 36 62  1  0
 38 63  1  0
 39 64  1  0
M  CHG  4   3  -1  11  -1  23  -1  30  -1
M  END
>  <UniqueID>  (6) 
6

>  <SMILES>  (6) 
CC[N-]S(=O)(=O)c1ccc([N-]C(=O)N2CCc3cc(S(=O)(=O)[N-]c4cc5c(cc4[O-])CNCC5)ccc32)cc1

>  <Energy>  (6) 
92.45254542385698

>  <Genealogy>  (6) 
CC[N-]S(=O)(=O)c1ccc([N-]C(=O)N2CCc3cc(S(=O)(=O)[N-]c4cc5c(cc4[O-])CNCC5)ccc32)cc1 (protonated)
CC[N-]S(=O)(=O)c1ccc([N-]C(=O)N2CCc3cc(S(=O)(=O)[N-]c4cc5c(cc4[O-])CNCC5)ccc32)cc1 (3D coordinates assigned)
CC[N-]S(=O)(=O)c1ccc([N-]C(=O)N2CCc3cc(S(=O)(=O)[N-]c4cc5c(cc4[O-])CNCC5)ccc32)cc1 (nonaromatic ring conformer: 92.45254542385698 kcal/mol)

>  <smiles>  (6) 
CCNS(=O)(=O)c1ccc(NC(=O)N2CCc3cc(S(=O)(=O)Nc4cc5c(cc4O)CNCC5)ccc32)cc1

>  <score_type>  (6) 
oracle

>  <origin>  (6) 
adgpu

>  <m_score__min__energy>  (6) 
-15.449999999999999

>  <m_primary>  (6) 
energy

$$$$
6:0
     RDKit          3D

 58 62  0  0  0  0  0  0  0  0999 V2000
   -4.9870   14.3680  -33.7740 C   0  0  0  0  0  0  0  0  0  0  0  0
   -5.5830   15.4070  -34.5460 O   0  0  0  0  0  0  0  0  0  0  0  0
   -6.0720   16.6110  -34.0130 C   0  0  0  0  0  0  0  0  0  0  0  0
   -7.1610   16.6460  -33.1230 C   0  0  0  0  0  0  0  0  0  0  0  0
   -7.6150   17.8620  -32.6090 C   0  0  0  0  0  0  0  0  0  0  0  0
   -6.9890   19.0630  -32.9710 C   0  0  0  0  0  0  0  0  0  0  0  0
   -7.4830   20.3430  -32.4200 C   0  0  0  0  0  0  0  0  0  0  0  0
   -8.8180   20.7360  -32.3320 C   0  0  0  0  0  0  0  0  0  0  0  0
   -8.9150   21.9670  -31.7840 N   0  0  0  0  0  0  0  0  0  0  0  0
   -7.6570   22.3540  -31.5130 C   0  0  0  0  0  0  0  0  0  0  0  0
   -7.2570   23.5560  -30.9310 C   0  0  0  0  0  0  0  0  0  0  0  0
   -5.8780   23.7630  -30.7200 C   0  0  0  0  0  0  0  0  0  0  0  0
   -5.2990   25.3090  -30.0980 S   0  0  0  0  0  0  0  0  0  0  0  0
   -5.6350   26.3960  -31.0790 O   0  0  0  0  0  0  0  0  0  0  0  0
   -5.9920   25.6020  -28.7980 O   0  0  0  0  0  0  0  0  0  0  0  0
   -3.5800   25.2970  -29.8370 N   0  0  0  0  0  0  0  0  0  0  0  0
   -2.8900   24.2410  -29.1580 C   0  0  0  0  0  0  0  0  0  0  0  0
   -2.0090   23.3960  -29.8490 C   0  0  0  0  0  0  0  0  0  0  0  0
   -1.4040   22.3120  -29.1990 C   0  0  0  0  0  0  0  0  0  0  0  0
   -1.6010   22.1320  -27.8120 C   0  0  0  0  0  0  0  0  0  0  0  0
   -2.4410   23.0130  -27.1120 C   0  0  0  0  0  0  0  0  0  0  0  0
   -3.0840   24.0640  -27.7800 C   0  0  0  0  0  0  0  0  0  0  0  0
   -3.9340   24.9260  -27.0840 O   0  0  0  0  0  0  0  0  0  0  0  0
   -1.0060   20.9410  -27.0940 C   0  0  0  0  0  0  0  0  0  0  0  0
    0.1140   20.3370  -27.8320 N   0  0  0  0  0  0  0  0  0  0  0  0
   -0.2580   20.0800  -29.2300 C   0  0  0  0  0  0  0  0  0  0  0  0
   -0.4970   21.3950  -29.9780 C   0  0  0  0  0  0  0  0  0  0  0  0
   -4.9490   22.7540  -31.0690 C   0  0  0  0  0  0  0  0  0  0  0  0
   -5.3840   21.5510  -31.6510 C   0  0  0  0  0  0  0  0  0  0  0  0
   -6.7520   21.3910  -31.8830 C   0  0  0  0  0  0  0  0  0  0  0  0
   -5.9190   19.0330  -33.8790 C   0  0  0  0  0  0  0  0  0  0  0  0
   -5.4490   17.8080  -34.3950 C   0  0  0  0  0  0  0  0  0  0  0  0
   -4.3700   17.7400  -35.2900 O   0  0  0  0  0  0  0  0  0  0  0  0
   -3.0890   17.2040  -34.9720 C   0  0  0  0  0  0  0  0  0  0  0  0
   -5.1132   14.5880  -32.7036 H   0  0  0  0  0  0  0  0  0  0  0  0
   -5.4729   13.4101  -34.0112 H   0  0  0  0  0  0  0  0  0  0  0  0
   -3.9148   14.3039  -34.0112 H   0  0  0  0  0  0  0  0  0  0  0  0
   -7.6579   15.7093  -32.8303 H   0  0  0  0  0  0  0  0  0  0  0  0
   -8.4690   17.8779  -31.9158 H   0  0  0  0  0  0  0  0  0  0  0  0
   -9.6731   20.1283  -32.6628 H   0  0  0  0  0  0  0  0  0  0  0  0
   -9.7930   22.5030  -31.6040 H   0  0  0  0  0  0  0  0  0  0  0  0
   -7.9948   24.3201  -30.6449 H   0  0  0  0  0  0  0  0  0  0  0  0
   -1.7912   23.5860  -30.9104 H   0  0  0  0  0  0  0  0  0  0  0  0
   -2.5955   22.8773  -26.0314 H   0  0  0  0  0  0  0  0  0  0  0  0
   -4.4540   25.6580  -27.5580 H   0  0  0  0  0  0  0  0  0  0  0  0
   -0.6427   21.2690  -26.1089 H   0  0  0  0  0  0  0  0  0  0  0  0
   -1.7942   20.1792  -27.0028 H   0  0  0  0  0  0  0  0  0  0  0  0
    0.9290   20.9950  -27.8110 H   0  0  0  0  0  0  0  0  0  0  0  0
    0.5543   19.5264  -29.7237 H   0  0  0  0  0  0  0  0  0  0  0  0
   -1.1867   19.4907  -29.2459 H   0  0  0  0  0  0  0  0  0  0  0  0
    0.4687   21.8970  -30.1373 H   0  0  0  0  0  0  0  0  0  0  0  0
   -0.9796   21.1644  -30.9392 H   0  0  0  0  0  0  0  0  0  0  0  0
   -3.8765   22.9128  -30.8830 H   0  0  0  0  0  0  0  0  0  0  0  0
   -4.6683   20.7589  -31.9160 H   0  0  0  0  0  0  0  0  0  0  0  0
   -5.4427   19.9742  -34.1909 H   0  0  0  0  0  0  0  0  0  0  0  0
   -2.9729   17.1554  -33.8792 H   0  0  0  0  0  0  0  0  0  0  0  0
   -2.9992   16.1928  -35.3956 H   0  0  0  0  0  0  0  0  0  0  0  0
   -2.3058   17.8499  -35.3956 H   0  0  0  0  0  0  0  0  0  0  0  0
  1  2  1  0
  2  3  1  0
  3  4  2  0
  4  5  1  0
  5  6  2  0
  6  7  1  0
  7  8  2  0
  8  9  1  0
  9 10  1  0
 10 11  2  0
 11 12  1  0
 12 13  1  0
 13 14  2  0
 13 15  2  0
 13 16  1  0
 16 17  1  0
 17 18  2  0
 18 19  1  0
 19 20  2  0
 20 21  1  0
 21 22  2  0
 22 23  1  0
 20 24  1  0
 24 25  1  0
 25 26  1  0
 26 27  1  0
 12 28  2  0
 28 29  1  0
 29 30  2  0
  6 31  1  0
 31 32  2  0
 32 33  1  0
 33 34  1  0
 32  3  1  0
 30  7  1  0
 30 10  1  0
 22 17  1  0
 27 19  1  0
  1 35  1  0
  1 36  1  0
  1 37  1  0
  4 38  1  0
  5 39  1  0
  8 40  1  0
  9 41  1  0
 11 42  1  0
 18 43  1  0
 21 44  1  0
 23 45  1  0
 24 46  1  0
 24 47  1  0
 25 48  1  0
 26 49  1  0
 26 50  1  0
 27 51  1  0
 27 52  1  0
 28 53  1  0
 29 54  1  0
 31 55  1  0
 34 56  1  0
 34 57  1  0
 34 58  1  0
M  CHG  1  16  -1
M  END
>  <UniqueID>  (7) 
7

>  <SMILES>  (7) 
COc1ccc(-c2c[nH]c3cc(S(=O)(=O)[N-]c4cc5c(cc4O)CNCC5)ccc23)cc1OC

>  <Energy>  (7) 
107.4309078034891

>  <Genealogy>  (7) 
COc1ccc(-c2c[nH]c3cc(S(=O)(=O)[N-]c4cc5c(cc4O)CNCC5)ccc23)cc1OC (protonated)
COc1ccc(-c2c[nH]c3cc(S(=O)(=O)[N-]c4cc5c(cc4O)CNCC5)ccc23)cc1OC (3D coordinates assigned)
COc1ccc(-c2c[nH]c3cc(S(=O)(=O)[N-]c4cc5c(cc4O)CNCC5)ccc23)cc1OC (nonaromatic ring conformer: 107.4309078034891 kcal/mol)

>  <smiles>  (7) 
COc1ccc(-c2c[nH]c3cc(S(=O)(=O)Nc4cc5c(cc4O)CNCC5)ccc23)cc1OC

>  <score_type>  (7) 
oracle

>  <origin>  (7) 
adgpu

>  <m_score__min__energy>  (7) 
-12.529999999999999

>  <m_primary>  (7) 
energy

$$$$
7:0
     RDKit          3D

 45 48  0  0  0  0  0  0  0  0999 V2000
   -1.1340   16.5100  -32.9410 O   0  0  0  0  0  0  0  0  0  0  0  0
   -1.7170   17.3960  -34.0060 S   0  0  0  0  0  0  0  0  0  0  0  0
   -1.0930   17.0480  -35.3290 O   0  0  0  0  0  0  0  0  0  0  0  0
   -1.3500   19.0510  -33.6330 N   0  0  0  0  0  0  0  0  0  0  0  0
   -2.2750   19.9600  -33.0090 C   0  0  0  0  0  0  0  0  0  0  0  0
   -2.3170   20.0390  -31.6080 C   0  0  0  0  0  0  0  0  0  0  0  0
   -3.2140   20.9010  -30.9710 C   0  0  0  0  0  0  0  0  0  0  0  0
   -4.0830   21.6970  -31.7260 C   0  0  0  0  0  0  0  0  0  0  0  0
   -5.2010   22.7860  -30.9120 S   0  0  0  0  0  0  0  0  0  0  0  0
   -4.8730   24.2030  -31.3000 O   0  0  0  0  0  0  0  0  0  0  0  0
   -5.0630   22.6660  -29.4200 O   0  0  0  0  0  0  0  0  0  0  0  0
   -6.8540   22.3810  -31.3840 C   0  0  0  0  0  0  0  0  0  0  0  0
   -7.7930   23.4050  -31.5840 C   0  0  0  0  0  0  0  0  0  0  0  0
   -9.1020   23.1020  -31.9680 C   0  0  0  0  0  0  0  0  0  0  0  0
   -9.4910   21.7750  -32.1600 C   0  0  0  0  0  0  0  0  0  0  0  0
   -8.5650   20.7390  -31.9710 C   0  0  0  0  0  0  0  0  0  0  0  0
   -8.9300   19.4000  -32.1630 C   0  0  0  0  0  0  0  0  0  0  0  0
   -7.9870   18.3890  -31.9700 C   0  0  0  0  0  0  0  0  0  0  0  0
   -6.6870   18.7260  -31.5870 C   0  0  0  0  0  0  0  0  0  0  0  0
   -6.3460   20.0280  -31.4020 N   0  0  0  0  0  0  0  0  0  0  0  0
   -7.2400   21.0410  -31.5810 C   0  0  0  0  0  0  0  0  0  0  0  0
   -4.0380   21.6350  -33.1240 C   0  0  0  0  0  0  0  0  0  0  0  0
   -3.1410   20.7750  -33.7630 C   0  0  0  0  0  0  0  0  0  0  0  0
   -3.4630   17.1510  -34.0530 C   0  0  0  0  0  0  0  0  0  0  0  0
   -4.2630   17.9950  -34.8380 C   0  0  0  0  0  0  0  0  0  0  0  0
   -5.6460   17.8010  -34.8970 C   0  0  0  0  0  0  0  0  0  0  0  0
   -6.2400   16.7690  -34.1650 C   0  0  0  0  0  0  0  0  0  0  0  0
   -5.4520   15.9340  -33.3700 C   0  0  0  0  0  0  0  0  0  0  0  0
   -4.0660   16.1210  -33.3100 C   0  0  0  0  0  0  0  0  0  0  0  0
   -3.3210   15.3020  -32.5250 F   0  0  0  0  0  0  0  0  0  0  0  0
   -0.3710   19.3690  -33.8150 H   0  0  0  0  0  0  0  0  0  0  0  0
   -1.6380   19.4170  -31.0063 H   0  0  0  0  0  0  0  0  0  0  0  0
   -3.2371   20.9540  -29.8725 H   0  0  0  0  0  0  0  0  0  0  0  0
   -7.4962   24.4540  -31.4373 H   0  0  0  0  0  0  0  0  0  0  0  0
   -9.8295   23.9130  -32.1197 H   0  0  0  0  0  0  0  0  0  0  0  0
  -10.5235   21.5422  -32.4594 H   0  0  0  0  0  0  0  0  0  0  0  0
   -9.9568   19.1461  -32.4650 H   0  0  0  0  0  0  0  0  0  0  0  0
   -8.2657   17.3353  -32.1184 H   0  0  0  0  0  0  0  0  0  0  0  0
   -5.9374   17.9355  -31.4348 H   0  0  0  0  0  0  0  0  0  0  0  0
   -4.7118   22.2661  -33.7220 H   0  0  0  0  0  0  0  0  0  0  0  0
   -3.1112   20.7344  -34.8618 H   0  0  0  0  0  0  0  0  0  0  0  0
   -3.7999   18.8129  -35.4095 H   0  0  0  0  0  0  0  0  0  0  0  0
   -6.2674   18.4611  -35.5200 H   0  0  0  0  0  0  0  0  0  0  0  0
   -7.3280   16.6146  -34.2151 H   0  0  0  0  0  0  0  0  0  0  0  0
   -5.9219   15.1267  -32.7891 H   0  0  0  0  0  0  0  0  0  0  0  0
  1  2  2  0
  2  3  2  0
  2  4  1  0
  4  5  1  0
  5  6  2  0
  6  7  1  0
  7  8  2  0
  8  9  1  0
  9 10  2  0
  9 11  2  0
  9 12  1  0
 12 13  2  0
 13 14  1  0
 14 15  2  0
 15 16  1  0
 16 17  2  0
 17 18  1  0
 18 19  2  0
 19 20  1  0
 20 21  2  0
  8 22  1  0
 22 23  2  0
  2 24  1  0
 24 25  2  0
 25 26  1  0
 26 27  2  0
 27 28  1  0
 28 29  2  0
 29 30  1  0
 23  5  1  0
 29 24  1  0
 21 12  1  0
 21 16  1  0
  4 31  1  0
  6 32  1  0
  7 33  1  0
 13 34  1  0
 14 35  1  0
 15 36  1  0
 17 37  1  0
 18 38  1  0
 19 39  1  0
 22 40  1  0
 23 41  1  0
 25 42  1  0
 26 43  1  0
 27 44  1  0
 28 45  1  0
M  END
>  <UniqueID>  (8) 
8

>  <SMILES>  (8) 
O=S(=O)(Nc1ccc(S(=O)(=O)c2cccc3cccnc23)cc1)c1ccccc1F

>  <Energy>  (8) 
59.012232147192236

>  <Genealogy>  (8) 
O=S(=O)(Nc1ccc(S(=O)(=O)c2cccc3cccnc23)cc1)c1ccccc1F (3D coordinates assigned)
O=S(=O)(Nc1ccc(S(=O)(=O)c2cccc3cccnc23)cc1)c1ccccc1F (optimized conformer: 59.012232147192236 kcal/mol)

>  <smiles>  (8) 
O=S(=O)(Nc1ccc(S(=O)(=O)c2cccc3cccnc23)cc1)c1ccccc1F

>  <score_type>  (8) 
oracle

>  <origin>  (8) 
adgpu

>  <m_score__min__energy>  (8) 
-10.380000000000001

>  <m_primary>  (8) 
energy

$$$$
8:0
     RDKit          3D

 45 47  0  0  0  0  0  0  0  0999 V2000
   -0.8810   20.3980  -32.8770 O   0  0  0  0  0  0  0  0  0  0  0  0
   -1.3210   20.6090  -31.7150 C   0  0  0  0  0  0  0  0  0  0  0  0
   -0.3660   20.9410  -30.6110 C   0  0  0  0  0  0  0  0  0  0  0  0
   -1.0850   21.3580  -29.4530 O   0  0  0  0  0  0  0  0  0  0  0  0
   -0.7890   22.5320  -28.7480 C   0  0  0  0  0  0  0  0  0  0  0  0
    0.3530   23.0610  -28.8310 O   0  0  0  0  0  0  0  0  0  0  0  0
   -1.8200   23.1400  -27.8460 C   0  0  0  0  0  0  0  0  0  0  0  0
   -2.9680   23.7030  -28.6420 C   0  0  0  0  0  0  0  0  0  0  0  0
   -4.1880   23.0120  -28.7100 C   0  0  0  0  0  0  0  0  0  0  0  0
   -5.2370   23.5180  -29.4780 C   0  0  0  0  0  0  0  0  0  0  0  0
   -5.0570   24.7110  -30.1820 C   0  0  0  0  0  0  0  0  0  0  0  0
   -5.9930   25.1810  -30.8810 O   0  0  0  0  0  0  0  0  0  0  0  0
   -3.8680   25.3660  -30.1160 N   0  0  0  0  0  0  0  0  0  0  0  0
   -2.8300   24.8970  -29.3740 C   0  0  0  0  0  0  0  0  0  0  0  0
   -1.6340   25.6060  -29.3510 O   0  0  0  0  0  0  0  0  0  0  0  0
   -2.7230   20.5000  -31.4380 N   0  0  0  0  0  0  0  0  0  0  0  0
   -3.6580   19.9730  -32.3890 C   0  0  0  0  0  0  0  0  0  0  0  0
   -3.4550   18.6820  -32.8980 C   0  0  0  0  0  0  0  0  0  0  0  0
   -4.3460   18.1410  -33.8280 C   0  0  0  0  0  0  0  0  0  0  0  0
   -5.4410   18.8900  -34.2660 C   0  0  0  0  0  0  0  0  0  0  0  0
   -5.6370   20.1880  -33.7870 C   0  0  0  0  0  0  0  0  0  0  0  0
   -4.7450   20.7430  -32.8600 C   0  0  0  0  0  0  0  0  0  0  0  0
   -4.9830   22.4520  -32.3510 S   0  0  0  0  0  0  0  0  0  0  0  0
   -6.7320   22.2180  -32.0350 C   0  0  0  0  0  0  0  0  0  0  0  0
   -7.1810   21.0470  -31.4090 C   0  0  0  0  0  0  0  0  0  0  0  0
   -8.5450   20.8620  -31.1650 C   0  0  0  0  0  0  0  0  0  0  0  0
   -9.4640   21.8470  -31.5430 C   0  0  0  0  0  0  0  0  0  0  0  0
   -9.0180   23.0170  -32.1640 C   0  0  0  0  0  0  0  0  0  0  0  0
   -7.6530   23.2050  -32.4080 C   0  0  0  0  0  0  0  0  0  0  0  0
    0.2325   20.0509  -30.3672 H   0  0  0  0  0  0  0  0  0  0  0  0
    0.2950   21.7569  -30.9387 H   0  0  0  0  0  0  0  0  0  0  0  0
   -2.2010   22.3669  -27.1625 H   0  0  0  0  0  0  0  0  0  0  0  0
   -1.3516   23.9581  -27.2792 H   0  0  0  0  0  0  0  0  0  0  0  0
   -4.3171   22.0700  -28.1568 H   0  0  0  0  0  0  0  0  0  0  0  0
   -6.1966   22.9827  -29.5287 H   0  0  0  0  0  0  0  0  0  0  0  0
   -3.0970   20.9440  -30.5690 H   0  0  0  0  0  0  0  0  0  0  0  0
   -2.5892   18.0920  -32.5630 H   0  0  0  0  0  0  0  0  0  0  0  0
   -4.1853   17.1243  -34.2158 H   0  0  0  0  0  0  0  0  0  0  0  0
   -6.1492   18.4578  -34.9882 H   0  0  0  0  0  0  0  0  0  0  0  0
   -6.4963   20.7773  -34.1397 H   0  0  0  0  0  0  0  0  0  0  0  0
   -6.4593   20.2728  -31.1094 H   0  0  0  0  0  0  0  0  0  0  0  0
   -8.8960   19.9415  -30.6756 H   0  0  0  0  0  0  0  0  0  0  0  0
  -10.5373   21.7006  -31.3515 H   0  0  0  0  0  0  0  0  0  0  0  0
   -9.7409   23.7910  -32.4613 H   0  0  0  0  0  0  0  0  0  0  0  0
   -7.3032   24.1283  -32.8929 H   0  0  0  0  0  0  0  0  0  0  0  0
  1  2  2  0
  2  3  1  0
  3  4  1  0
  4  5  1  0
  5  6  2  0
  5  7  1  0
  7  8  1  0
  8  9  1  0
  9 10  2  0
 10 11  1  0
 11 12  2  0
 11 13  1  0
 13 14  1  0
 14 15  1  0
  2 16  1  0
 16 17  1  0
 17 18  2  0
 18 19  1  0
 19 20  2  0
 20 21  1  0
 21 22  2  0
 22 23  1  0
 23 24  1  0
 24 25  2  0
 25 26  1  0
 26 27  2  0
 27 28  1  0
 28 29  2  0
 14  8  2  0
 22 17  1  0
 29 24  1  0
  3 30  1  0
  3 31  1  0
  7 32  1  0
  7 33  1  0
  9 34  1  0
 10 35  1  0
 16 36  1  0
 18 37  1  0
 19 38  1  0
 20 39  1  0
 21 40  1  0
 25 41  1  0
 26 42  1  0
 27 43  1  0
 28 44  1  0
 29 45  1  0
M  CHG  2  13  -1  15  -1
M  END
>  <UniqueID>  (9) 
9

>  <SMILES>  (9) 
O=C(COC(=O)Cc1ccc(=O)[n-]c1[O-])Nc1ccccc1Sc1ccccc1

>  <Energy>  (9) 
43.018891522009184

>  <Genealogy>  (9) 
O=C(COC(=O)Cc1ccc(=O)[n-]c1[O-])Nc1ccccc1Sc1ccccc1 (protonated)
O=C(COC(=O)Cc1ccc(=O)[n-]c1[O-])Nc1ccccc1Sc1ccccc1 (3D coordinates assigned)
O=C(COC(=O)Cc1ccc(=O)[n-]c1[O-])Nc1ccccc1Sc1ccccc1 (optimized conformer: 43.018891522009184 kcal/mol)

>  <smiles>  (9) 
O=C(COC(=O)Cc1ccc(=O)[nH]c1O)Nc1ccccc1Sc1ccccc1

>  <score_type>  (9) 
oracle

>  <origin>  (9) 
adgpu

>  <m_score__min__energy>  (9) 
-14.369999999999999

>  <m_primary>  (9) 
energy

$$$$
9:0
     RDKit          3D

 45 47  0  0  0  0  0  0  0  0999 V2000
   -2.1730   21.0310  -27.6480 C   0  0  0  0  0  0  0  0  0  0  0  0
   -1.9150   22.4310  -28.1160 C   0  0  0  0  0  0  0  0  0  0  0  0
   -0.8150   23.1480  -27.6260 C   0  0  0  0  0  0  0  0  0  0  0  0
   -0.5880   24.4610  -28.0440 C   0  0  0  0  0  0  0  0  0  0  0  0
   -1.4570   25.0720  -28.9530 C   0  0  0  0  0  0  0  0  0  0  0  0
   -1.2250   26.3890  -29.3300 O   0  0  0  0  0  0  0  0  0  0  0  0
   -2.5660   24.3610  -29.4510 C   0  0  0  0  0  0  0  0  0  0  0  0
   -3.4650   24.9390  -30.4060 N   0  0  0  0  0  0  0  0  0  0  0  0
   -5.1880   24.8770  -30.2320 S   0  0  0  0  0  0  0  0  0  0  0  0
   -5.8180   26.0510  -30.9250 O   0  0  0  0  0  0  0  0  0  0  0  0
   -5.5430   24.9250  -28.7720 O   0  0  0  0  0  0  0  0  0  0  0  0
   -5.7670   23.3560  -30.9050 C   0  0  0  0  0  0  0  0  0  0  0  0
   -7.1400   23.0890  -30.9990 C   0  0  0  0  0  0  0  0  0  0  0  0
   -7.5860   21.9360  -31.6500 C   0  0  0  0  0  0  0  0  0  0  0  0
   -6.6650   21.0430  -32.2160 C   0  0  0  0  0  0  0  0  0  0  0  0
   -7.2290   19.6540  -33.1420 S   0  0  0  0  0  0  0  0  0  0  0  0
   -6.8400   19.8410  -34.5820 O   0  0  0  0  0  0  0  0  0  0  0  0
   -8.7300   19.5920  -33.0760 O   0  0  0  0  0  0  0  0  0  0  0  0
   -6.5560   18.1470  -32.5530 N   0  0  0  0  0  0  0  0  0  0  0  0
   -7.2450   16.9600  -33.1030 C   0  0  0  0  0  0  0  0  0  0  0  0
   -6.4770   16.3010  -34.2610 C   0  0  0  0  0  0  0  0  0  0  0  0
   -5.6800   17.2500  -34.9290 O   0  0  0  0  0  0  0  0  0  0  0  0
   -4.6170   17.6500  -34.0900 C   0  0  0  0  0  0  0  0  0  0  0  0
   -5.0870   18.0890  -32.6830 C   0  0  0  0  0  0  0  0  0  0  0  0
   -5.2920   21.2930  -32.0870 C   0  0  0  0  0  0  0  0  0  0  0  0
   -4.8460   22.4490  -31.4410 C   0  0  0  0  0  0  0  0  0  0  0  0
   -2.8040   23.0550  -29.0070 C   0  0  0  0  0  0  0  0  0  0  0  0
   -2.1774   21.0070  -26.5483 H   0  0  0  0  0  0  0  0  0  0  0  0
   -3.1488   20.6920  -28.0261 H   0  0  0  0  0  0  0  0  0  0  0  0
   -1.3822   20.3664  -28.0261 H   0  0  0  0  0  0  0  0  0  0  0  0
   -0.1277   22.6747  -26.9093 H   0  0  0  0  0  0  0  0  0  0  0  0
    0.2784   25.0170  -27.6564 H   0  0  0  0  0  0  0  0  0  0  0  0
   -7.8670   23.7880  -30.5598 H   0  0  0  0  0  0  0  0  0  0  0  0
   -8.6640   21.7280  -31.7188 H   0  0  0  0  0  0  0  0  0  0  0  0
   -7.3663   16.2208  -32.2975 H   0  0  0  0  0  0  0  0  0  0  0  0
   -8.2135   17.2972  -33.5008 H   0  0  0  0  0  0  0  0  0  0  0  0
   -5.8323   15.5047  -33.8607 H   0  0  0  0  0  0  0  0  0  0  0  0
   -7.2015   15.8807  -34.9740 H   0  0  0  0  0  0  0  0  0  0  0  0
   -3.9215   16.8050  -33.9790 H   0  0  0  0  0  0  0  0  0  0  0  0
   -4.1362   18.5198  -34.5616 H   0  0  0  0  0  0  0  0  0  0  0  0
   -4.6987   17.3717  -31.9450 H   0  0  0  0  0  0  0  0  0  0  0  0
   -4.7032   19.1056  -32.5124 H   0  0  0  0  0  0  0  0  0  0  0  0
   -4.5634   20.5772  -32.4954 H   0  0  0  0  0  0  0  0  0  0  0  0
   -3.7674   22.6467  -31.3535 H   0  0  0  0  0  0  0  0  0  0  0  0
   -3.6943   22.5129  -29.3586 H   0  0  0  0  0  0  0  0  0  0  0  0
  1  2  1  0
  2  3  2  0
  3  4  1  0
  4  5  2  0
  5  6  1  0
  5  7  1  0
  7  8  1  0
  8  9  1  0
  9 10  2  0
  9 11  2  0
  9 12  1  0
 12 13  2  0
 13 14  1  0
 14 15  2  0
 15 16  1  0
 16 17  2  0
 16 18  2  0
 16 19  1  0
 19 20  1  0
 20 21  1  0
 21 22  1  0
 22 23  1  0
 23 24  1  0
 15 25  1  0
 25 26  2  0
  7 27  2  0
 27  2  1  0
 26 12  1  0
 24 19  1  0
  1 28  1  0
  1 29  1  0
  1 30  1  0
  3 31  1  0
  4 32  1  0
 13 33  1  0
 14 34  1  0
 20 35  1  0
 20 36  1  0
 21 37  1  0
 21 38  1  0
 23 39  1  0
 23 40  1  0
 24 41  1  0
 24 42  1  0
 25 43  1  0
 26 44  1  0
 27 45  1  0
M  CHG  2   6  -1   8  -1
M  END
>  <UniqueID>  (10) 
10

>  <SMILES>  (10) 
Cc1ccc([O-])c([N-]S(=O)(=O)c2ccc(S(=O)(=O)N3CCOCC3)cc2)c1

>  <Energy>  (10) 
60.63128102515153

>  <Genealogy>  (10) 
Cc1ccc([O-])c([N-]S(=O)(=O)c2ccc(S(=O)(=O)N3CCOCC3)cc2)c1 (protonated)
Cc1ccc([O-])c([N-]S(=O)(=O)c2ccc(S(=O)(=O)N3CCOCC3)cc2)c1 (3D coordinates assigned)
Cc1ccc([O-])c([N-]S(=O)(=O)c2ccc(S(=O)(=O)N3CCOCC3)cc2)c1 (nonaromatic ring conformer: 60.63128102515153 kcal/mol)

>  <smiles>  (10) 
Cc1ccc(O)c(NS(=O)(=O)c2ccc(S(=O)(=O)N3CCOCC3)cc2)c1

>  <score_type>  (10) 
oracle

>  <origin>  (10) 
adgpu

>  <m_score__min__energy>  (10) 
-14.65

>  <m_primary>  (10) 
energy

$$$$
10:0
     RDKit          3D

 66 70  0  0  0  0  0  0  0  0999 V2000
   -1.2630   21.1510  -33.6320 O   0  0  0  0  0  0  0  0  0  0  0  0
   -1.0750   20.1690  -32.8620 C   0  0  0  0  0  0  0  0  0  0  0  0
   -0.3820   20.3530  -31.6200 N   0  0  0  0  0  0  0  0  0  0  0  0
   -0.9380   20.8970  -30.4160 C   0  0  0  0  0  0  0  0  0  0  0  0
   -1.5940   22.1420  -30.4090 C   0  0  0  0  0  0  0  0  0  0  0  0
   -2.0930   22.6750  -29.2120 C   0  0  0  0  0  0  0  0  0  0  0  0
   -2.9070   24.2400  -29.2030 S   0  0  0  0  0  0  0  0  0  0  0  0
   -3.6040   24.4260  -27.8840 O   0  0  0  0  0  0  0  0  0  0  0  0
   -1.8640   25.3150  -29.3350 O   0  0  0  0  0  0  0  0  0  0  0  0
   -4.0300   24.3540  -30.5420 N   0  0  0  0  0  0  0  0  0  0  0  0
   -4.7810   23.1060  -30.7830 C   0  0  0  0  0  0  0  0  0  0  0  0
   -5.9050   22.8840  -29.7640 C   0  0  0  0  0  0  0  0  0  0  0  0
   -6.8470   24.0870  -29.7370 C   0  0  0  0  0  0  0  0  0  0  0  0
   -6.0710   25.3760  -29.4660 C   0  0  0  0  0  0  0  0  0  0  0  0
   -4.9020   25.5440  -30.4530 C   0  0  0  0  0  0  0  0  0  0  0  0
   -1.9190   21.9690  -28.0140 C   0  0  0  0  0  0  0  0  0  0  0  0
   -1.2530   20.7410  -28.0130 C   0  0  0  0  0  0  0  0  0  0  0  0
   -0.7570   20.2050  -29.2080 C   0  0  0  0  0  0  0  0  0  0  0  0
   -0.0910   18.9790  -29.2060 O   0  0  0  0  0  0  0  0  0  0  0  0
   -1.6150   18.8380  -33.2180 C   0  0  0  0  0  0  0  0  0  0  0  0
   -0.7870   17.7020  -33.1860 C   0  0  0  0  0  0  0  0  0  0  0  0
   -1.2940   16.4450  -33.5300 C   0  0  0  0  0  0  0  0  0  0  0  0
   -2.6330   16.3070  -33.9010 C   0  0  0  0  0  0  0  0  0  0  0  0
   -3.4730   17.4260  -33.9330 C   0  0  0  0  0  0  0  0  0  0  0  0
   -5.1800   17.2510  -34.3370 S   0  0  0  0  0  0  0  0  0  0  0  0
   -5.5570   15.7950  -34.3420 O   0  0  0  0  0  0  0  0  0  0  0  0
   -5.4100   17.8090  -35.7140 O   0  0  0  0  0  0  0  0  0  0  0  0
   -6.1440   18.1190  -33.1710 N   0  0  0  0  0  0  0  0  0  0  0  0
   -7.4530   17.4630  -33.0270 C   0  0  0  0  0  0  0  0  0  0  0  0
   -8.2180   18.0840  -31.8550 C   0  0  0  0  0  0  0  0  0  0  0  0
   -8.1960   19.5900  -31.9080 C   0  0  0  0  0  0  0  0  0  0  0  0
   -9.0670   20.3230  -31.0830 C   0  0  0  0  0  0  0  0  0  0  0  0
   -9.0220   21.7200  -31.0750 C   0  0  0  0  0  0  0  0  0  0  0  0
   -8.1110   22.3970  -31.8890 C   0  0  0  0  0  0  0  0  0  0  0  0
   -7.2360   21.6780  -32.7080 C   0  0  0  0  0  0  0  0  0  0  0  0
   -7.2550   20.2740  -32.7080 C   0  0  0  0  0  0  0  0  0  0  0  0
   -6.3190   19.5130  -33.6180 C   0  0  0  0  0  0  0  0  0  0  0  0
   -2.9630   18.6880  -33.5940 C   0  0  0  0  0  0  0  0  0  0  0  0
   -1.7161   22.7006  -31.3487 H   0  0  0  0  0  0  0  0  0  0  0  0
   -5.2225   23.1501  -31.7895 H   0  0  0  0  0  0  0  0  0  0  0  0
   -4.0739   22.2691  -30.6844 H   0  0  0  0  0  0  0  0  0  0  0  0
   -6.4739   21.9847  -30.0425 H   0  0  0  0  0  0  0  0  0  0  0  0
   -5.4607   22.7571  -28.7657 H   0  0  0  0  0  0  0  0  0  0  0  0
   -7.3553   24.1693  -30.7090 H   0  0  0  0  0  0  0  0  0  0  0  0
   -7.5827   23.9417  -28.9322 H   0  0  0  0  0  0  0  0  0  0  0  0
   -6.7529   26.2330  -29.5692 H   0  0  0  0  0  0  0  0  0  0  0  0
   -5.6600   25.3257  -28.4469 H   0  0  0  0  0  0  0  0  0  0  0  0
   -5.3159   25.7478  -31.4516 H   0  0  0  0  0  0  0  0  0  0  0  0
   -4.2815   26.3728  -30.0815 H   0  0  0  0  0  0  0  0  0  0  0  0
   -2.3079   22.3829  -27.0719 H   0  0  0  0  0  0  0  0  0  0  0  0
   -1.1175   20.1925  -27.0692 H   0  0  0  0  0  0  0  0  0  0  0  0
    0.2950   18.5830  -30.0560 H   0  0  0  0  0  0  0  0  0  0  0  0
    0.2671   17.8028  -32.8882 H   0  0  0  0  0  0  0  0  0  0  0  0
   -0.6367   15.5632  -33.5083 H   0  0  0  0  0  0  0  0  0  0  0  0
   -3.0287   15.3162  -34.1688 H   0  0  0  0  0  0  0  0  0  0  0  0
   -8.0321   17.5962  -33.9527 H   0  0  0  0  0  0  0  0  0  0  0  0
   -7.3026   16.3904  -32.8351 H   0  0  0  0  0  0  0  0  0  0  0  0
   -9.2628   17.7416  -31.8903 H   0  0  0  0  0  0  0  0  0  0  0  0
   -7.7297   17.7674  -30.9216 H   0  0  0  0  0  0  0  0  0  0  0  0
   -9.7872   19.7947  -30.4409 H   0  0  0  0  0  0  0  0  0  0  0  0
   -9.7055   22.2874  -30.4263 H   0  0  0  0  0  0  0  0  0  0  0  0
   -8.0822   23.4966  -31.8855 H   0  0  0  0  0  0  0  0  0  0  0  0
   -6.5282   22.2152  -33.3564 H   0  0  0  0  0  0  0  0  0  0  0  0
   -6.7336   19.5121  -34.6369 H   0  0  0  0  0  0  0  0  0  0  0  0
   -5.3371   20.0083  -33.5947 H   0  0  0  0  0  0  0  0  0  0  0  0
   -3.6223   19.5681  -33.6223 H   0  0  0  0  0  0  0  0  0  0  0  0
  1  2  2  0
  2  3  1  0
  3  4  1  0
  4  5  2  0
  5  6  1  0
  6  7  1  0
  7  8  2  0
  7  9  2  0
  7 10  1  0
 10 11  1  0
 11 12  1  0
 12 13  1  0
 13 14  1  0
 14 15  1  0
  6 16  2  0
 16 17  1  0
 17 18  2  0
 18 19  1  0
  2 20  1  0
 20 21  2  0
 21 22  1  0
 22 23  2  0
 23 24  1  0
 24 25  1  0
 25 26  2  0
 25 27  2  0
 25 28  1  0
 28 29  1  0
 29 30  1  0
 30 31  1  0
 31 32  2  0
 32 33  1  0
 33 34  2  0
 34 35  1  0
 35 36  2  0
 36 37  1  0
 24 38  2  0
 18  4  1  0
 38 20  1  0
 15 10  1  0
 37 28  1  0
 36 31  1  0
  5 39  1  0
 11 40  1  0
 11 41  1  0
 12 42  1  0
 12 43  1  0
 13 44  1  0
 13 45  1  0
 14 46  1  0
 14 47  1  0
 15 48  1  0
 15 49  1  0
 16 50  1  0
 17 51  1  0
 19 52  1  0
 21 53  1  0
 22 54  1  0
 23 55  1  0
 29 56  1  0
 29 57  1  0
 30 58  1  0
 30 59  1  0
 32 60  1  0
 33 61  1  0
 34 62  1  0
 35 63  1  0
 37 64  1  0
 37 65  1  0
 38 66  1  0
M  CHG  1   3  -1
M  END
>  <UniqueID>  (11) 
11

>  <SMILES>  (11) 
O=C([N-]c1cc(S(=O)(=O)N2CCCCC2)ccc1O)c1cccc(S(=O)(=O)N2CCc3ccccc3C2)c1

>  <Energy>  (11) 
75.65149906003626

>  <Genealogy>  (11) 
O=C([N-]c1cc(S(=O)(=O)N2CCCCC2)ccc1O)c1cccc(S(=O)(=O)N2CCc3ccccc3C2)c1 (protonated)
O=C([N-]c1cc(S(=O)(=O)N2CCCCC2)ccc1O)c1cccc(S(=O)(=O)N2CCc3ccccc3C2)c1 (3D coordinates assigned)
O=C([N-]c1cc(S(=O)(=O)N2CCCCC2)ccc1O)c1cccc(S(=O)(=O)N2CCc3ccccc3C2)c1 (nonaromatic ring conformer: 75.65149906003626 kcal/mol)

>  <smiles>  (11) 
O=C(Nc1cc(S(=O)(=O)N2CCCCC2)ccc1O)c1cccc(S(=O)(=O)N2CCc3ccccc3C2)c1

>  <score_type>  (11) 
oracle

>  <origin>  (11) 
adgpu

>  <m_score__min__energy>  (11) 
-13.35

>  <m_primary>  (11) 
energy

$$$$
11:0
     RDKit          3D

 53 56  0  0  0  0  0  0  0  0999 V2000
   -0.0260   21.9260  -22.6460 C   0  0  0  0  0  0  0  0  0  0  0  0
    0.0730   22.2750  -24.0790 N   0  0  0  0  0  0  0  0  0  0  0  0
    0.1740   23.7260  -24.3520 C   0  0  0  0  0  0  0  0  0  0  0  0
    0.9580   24.0780  -25.6310 C   0  0  0  0  0  0  0  0  0  0  0  0
    0.0640   24.0680  -26.8440 C   0  0  0  0  0  0  0  0  0  0  0  0
   -0.1400   25.2540  -27.5650 C   0  0  0  0  0  0  0  0  0  0  0  0
   -1.0300   25.2910  -28.6410 C   0  0  0  0  0  0  0  0  0  0  0  0
   -1.2160   26.4760  -29.3400 O   0  0  0  0  0  0  0  0  0  0  0  0
   -1.7400   24.1470  -29.0060 C   0  0  0  0  0  0  0  0  0  0  0  0
   -2.6990   24.2150  -30.0680 N   0  0  0  0  0  0  0  0  0  0  0  0
   -4.3820   24.5730  -29.8440 S   0  0  0  0  0  0  0  0  0  0  0  0
   -4.7470   25.8310  -30.5840 O   0  0  0  0  0  0  0  0  0  0  0  0
   -4.6480   24.7910  -28.3820 O   0  0  0  0  0  0  0  0  0  0  0  0
   -5.3400   23.2060  -30.4030 C   0  0  0  0  0  0  0  0  0  0  0  0
   -6.6300   22.9870  -29.9120 C   0  0  0  0  0  0  0  0  0  0  0  0
   -7.4120   21.9510  -30.4200 C   0  0  0  0  0  0  0  0  0  0  0  0
   -6.9120   21.0840  -31.4240 C   0  0  0  0  0  0  0  0  0  0  0  0
   -5.5930   21.2920  -31.8910 C   0  0  0  0  0  0  0  0  0  0  0  0
   -4.8250   22.3590  -31.3880 C   0  0  0  0  0  0  0  0  0  0  0  0
   -5.0750   20.4180  -32.8570 C   0  0  0  0  0  0  0  0  0  0  0  0
   -3.9040   20.5980  -33.3000 O   0  0  0  0  0  0  0  0  0  0  0  0
   -5.8300   19.3720  -33.3180 N   0  0  0  0  0  0  0  0  0  0  0  0
   -5.2700   18.4570  -34.3370 C   0  0  0  0  0  0  0  0  0  0  0  0
   -7.1260   19.2160  -32.8970 C   0  0  0  0  0  0  0  0  0  0  0  0
   -7.8260   18.2880  -33.3990 O   0  0  0  0  0  0  0  0  0  0  0  0
   -7.6700   20.0580  -31.9500 N   0  0  0  0  0  0  0  0  0  0  0  0
   -9.0720   19.8630  -31.5070 C   0  0  0  0  0  0  0  0  0  0  0  0
   -1.5120   22.9460  -28.3070 C   0  0  0  0  0  0  0  0  0  0  0  0
   -0.6390   22.8950  -27.2070 C   0  0  0  0  0  0  0  0  0  0  0  0
   -0.4570   21.5690  -26.4870 C   0  0  0  0  0  0  0  0  0  0  0  0
   -0.8270   21.5220  -24.9790 C   0  0  0  0  0  0  0  0  0  0  0  0
    0.2238   22.8066  -22.0360 H   0  0  0  0  0  0  0  0  0  0  0  0
   -1.0518   21.6009  -22.4178 H   0  0  0  0  0  0  0  0  0  0  0  0
    0.6763   21.1107  -22.4178 H   0  0  0  0  0  0  0  0  0  0  0  0
   -0.8445   24.1297  -24.4503 H   0  0  0  0  0  0  0  0  0  0  0  0
    0.7295   24.1666  -23.5110 H   0  0  0  0  0  0  0  0  0  0  0  0
    1.3963   25.0805  -25.5176 H   0  0  0  0  0  0  0  0  0  0  0  0
    1.7443   23.3222  -25.7742 H   0  0  0  0  0  0  0  0  0  0  0  0
    0.4069   26.1648  -27.2799 H   0  0  0  0  0  0  0  0  0  0  0  0
   -7.0307   23.6363  -29.1196 H   0  0  0  0  0  0  0  0  0  0  0  0
   -8.4323   21.8040  -30.0361 H   0  0  0  0  0  0  0  0  0  0  0  0
   -3.8090   22.5279  -31.7742 H   0  0  0  0  0  0  0  0  0  0  0  0
   -4.7584   17.6210  -33.8376 H   0  0  0  0  0  0  0  0  0  0  0  0
   -6.0837   18.0660  -34.9655 H   0  0  0  0  0  0  0  0  0  0  0  0
   -4.5516   19.0037  -34.9655 H   0  0  0  0  0  0  0  0  0  0  0  0
   -9.1118   19.8575  -30.4077 H   0  0  0  0  0  0  0  0  0  0  0  0
   -9.6957   20.6830  -31.8924 H   0  0  0  0  0  0  0  0  0  0  0  0
   -9.4483   18.9039  -31.8924 H   0  0  0  0  0  0  0  0  0  0  0  0
   -2.0277   22.0291  -28.6286 H   0  0  0  0  0  0  0  0  0  0  0  0
   -1.0798   20.8239  -27.0037 H   0  0  0  0  0  0  0  0  0  0  0  0
    0.6254   21.3759  -26.5190 H   0  0  0  0  0  0  0  0  0  0  0  0
   -1.8410   21.9331  -24.8658 H   0  0  0  0  0  0  0  0  0  0  0  0
   -0.7403   20.4671  -24.6795 H   0  0  0  0  0  0  0  0  0  0  0  0
  1  2  1  0
  2  3  1  0
  3  4  1  0
  4  5  1  0
  5  6  2  0
  6  7  1  0
  7  8  1  0
  7  9  2  0
  9 10  1  0
 10 11  1  0
 11 12  2  0
 11 13  2  0
 11 14  1  0
 14 15  2  0
 15 16  1  0
 16 17  2  0
 17 18  1  0
 18 19  2  0
 18 20  1  0
 20 21  2  0
 20 22  1  0
 22 23  1  0
 22 24  1  0
 24 25  2  0
 24 26  1  0
 26 27  1  0
  9 28  1  0
 28 29  2  0
 29 30  1  0
 30 31  1  0
 31  2  1  0
 29  5  1  0
 19 14  1  0
 26 17  1  0
  1 32  1  0
  1 33  1  0
  1 34  1  0
  3 35  1  0
  3 36  1  0
  4 37  1  0
  4 38  1  0
  6 39  1  0
 15 40  1  0
 16 41  1  0
 19 42  1  0
 23 43  1  0
 23 44  1  0
 23 45  1  0
 27 46  1  0
 27 47  1  0
 27 48  1  0
 28 49  1  0
 30 50  1  0
 30 51  1  0
 31 52  1  0
 31 53  1  0
M  CHG  2   8  -1  10  -1
M  END
>  <UniqueID>  (12) 
12

>  <SMILES>  (12) 
CN1CCc2cc([O-])c([N-]S(=O)(=O)c3ccc4c(c3)c(=O)n(C)c(=O)n4C)cc2CC1

>  <Energy>  (12) 
91.82029151597169

>  <Genealogy>  (12) 
CN1CCc2cc([O-])c([N-]S(=O)(=O)c3ccc4c(c3)c(=O)n(C)c(=O)n4C)cc2CC1 (protonated)
CN1CCc2cc([O-])c([N-]S(=O)(=O)c3ccc4c(c3)c(=O)n(C)c(=O)n4C)cc2CC1 (3D coordinates assigned)
CN1CCc2cc([O-])c([N-]S(=O)(=O)c3ccc4c(c3)c(=O)n(C)c(=O)n4C)cc2CC1 (nonaromatic ring conformer: 91.82029151597169 kcal/mol)

>  <smiles>  (12) 
CN1CCc2cc(O)c(NS(=O)(=O)c3ccc4c(c3)c(=O)n(C)c(=O)n4C)cc2CC1

>  <score_type>  (12) 
oracle

>  <origin>  (12) 
adgpu

>  <m_score__min__energy>  (12) 
-12.359999999999999

>  <m_primary>  (12) 
energy

$$$$
12:0
     RDKit          3D

 41 43  0  0  0  0  0  0  0  0999 V2000
   -3.9990   25.6640  -31.1940 O   0  0  0  0  0  0  0  0  0  0  0  0
   -4.3930   24.8270  -30.3390 C   0  0  0  0  0  0  0  0  0  0  0  0
   -3.7720   24.8240  -29.0460 N   0  0  0  0  0  0  0  0  0  0  0  0
   -2.5250   24.2000  -28.7040 C   0  0  0  0  0  0  0  0  0  0  0  0
   -2.5320   22.8650  -28.2700 C   0  0  0  0  0  0  0  0  0  0  0  0
   -3.7320   22.1700  -28.1660 O   0  0  0  0  0  0  0  0  0  0  0  0
   -1.3350   22.2280  -27.9270 C   0  0  0  0  0  0  0  0  0  0  0  0
   -0.1220   22.9140  -28.0260 C   0  0  0  0  0  0  0  0  0  0  0  0
   -0.1020   24.2340  -28.4840 C   0  0  0  0  0  0  0  0  0  0  0  0
   -1.2930   24.8760  -28.8380 C   0  0  0  0  0  0  0  0  0  0  0  0
   -1.2370   26.1690  -29.3460 O   0  0  0  0  0  0  0  0  0  0  0  0
   -5.4440   23.8490  -30.7100 C   0  0  0  0  0  0  0  0  0  0  0  0
   -6.7420   24.2750  -31.0410 C   0  0  0  0  0  0  0  0  0  0  0  0
   -7.7240   23.3430  -31.3880 C   0  0  0  0  0  0  0  0  0  0  0  0
   -7.4320   21.9730  -31.3950 C   0  0  0  0  0  0  0  0  0  0  0  0
   -8.6790   20.7970  -31.8160 S   0  0  0  0  0  0  0  0  0  0  0  0
   -9.1170   20.0730  -30.5730 O   0  0  0  0  0  0  0  0  0  0  0  0
   -9.8720   21.5200  -32.3770 O   0  0  0  0  0  0  0  0  0  0  0  0
   -8.1030   19.6370  -32.9910 N   0  0  0  0  0  0  0  0  0  0  0  0
   -7.9420   18.3090  -32.3700 C   0  0  0  0  0  0  0  0  0  0  0  0
   -6.9870   17.4350  -33.1990 C   0  0  0  0  0  0  0  0  0  0  0  0
   -5.6780   17.9750  -33.3380 O   0  0  0  0  0  0  0  0  0  0  0  0
   -5.6190   19.3850  -33.1700 C   0  0  0  0  0  0  0  0  0  0  0  0
   -6.8790   20.1110  -33.6730 C   0  0  0  0  0  0  0  0  0  0  0  0
   -6.1410   21.5450  -31.0570 C   0  0  0  0  0  0  0  0  0  0  0  0
   -5.1570   22.4740  -30.7090 C   0  0  0  0  0  0  0  0  0  0  0  0
   -1.3487   21.1847  -27.5786 H   0  0  0  0  0  0  0  0  0  0  0  0
    0.8169   22.4153  -27.7435 H   0  0  0  0  0  0  0  0  0  0  0  0
    0.8547   24.7705  -28.5665 H   0  0  0  0  0  0  0  0  0  0  0  0
   -6.9861   25.3475  -31.0268 H   0  0  0  0  0  0  0  0  0  0  0  0
   -8.7332   23.6877  -31.6575 H   0  0  0  0  0  0  0  0  0  0  0  0
   -7.5320   18.4313  -31.3566 H   0  0  0  0  0  0  0  0  0  0  0  0
   -8.9248   17.8168  -32.3266 H   0  0  0  0  0  0  0  0  0  0  0  0
   -6.9054   16.4530  -32.7102 H   0  0  0  0  0  0  0  0  0  0  0  0
   -7.4131   17.3718  -34.2112 H   0  0  0  0  0  0  0  0  0  0  0  0
   -5.4937   19.6041  -32.0993 H   0  0  0  0  0  0  0  0  0  0  0  0
   -4.7718   19.7494  -33.7695 H   0  0  0  0  0  0  0  0  0  0  0  0
   -6.7648   21.1893  -33.4882 H   0  0  0  0  0  0  0  0  0  0  0  0
   -6.9860   19.8997  -34.7472 H   0  0  0  0  0  0  0  0  0  0  0  0
   -5.9010   20.4715  -31.0657 H   0  0  0  0  0  0  0  0  0  0  0  0
   -4.1508   22.1262  -30.4324 H   0  0  0  0  0  0  0  0  0  0  0  0
  1  2  2  0
  2  3  1  0
  3  4  1  0
  4  5  2  0
  5  6  1  0
  5  7  1  0
  7  8  2  0
  8  9  1  0
  9 10  2  0
 10 11  1  0
  2 12  1  0
 12 13  2  0
 13 14  1  0
 14 15  2  0
 15 16  1  0
 16 17  2  0
 16 18  2  0
 16 19  1  0
 19 20  1  0
 20 21  1  0
 21 22  1  0
 22 23  1  0
 23 24  1  0
 15 25  1  0
 25 26  2  0
 10  4  1  0
 26 12  1  0
 24 19  1  0
  7 27  1  0
  8 28  1  0
  9 29  1  0
 13 30  1  0
 14 31  1  0
 20 32  1  0
 20 33  1  0
 21 34  1  0
 21 35  1  0
 23 36  1  0
 23 37  1  0
 24 38  1  0
 24 39  1  0
 25 40  1  0
 26 41  1  0
M  CHG  3   3  -1   6  -1  11  -1
M  END
>  <UniqueID>  (13) 
13

>  <SMILES>  (13) 
O=C([N-]c1c([O-])cccc1[O-])c1ccc(S(=O)(=O)N2CCOCC2)cc1

>  <Energy>  (13) 
63.509764387922516

>  <Genealogy>  (13) 
O=C([N-]c1c([O-])cccc1[O-])c1ccc(S(=O)(=O)N2CCOCC2)cc1 (protonated)
O=C([N-]c1c([O-])cccc1[O-])c1ccc(S(=O)(=O)N2CCOCC2)cc1 (3D coordinates assigned)
O=C([N-]c1c([O-])cccc1[O-])c1ccc(S(=O)(=O)N2CCOCC2)cc1 (nonaromatic ring conformer: 63.509764387922516 kcal/mol)

>  <smiles>  (13) 
O=C(Nc1c(O)cccc1O)c1ccc(S(=O)(=O)N2CCOCC2)cc1

>  <score_type>  (13) 
oracle

>  <origin>  (13) 
adgpu

>  <m_score__min__energy>  (13) 
-14.43

>  <m_primary>  (13) 
energy

$$$$
13:0
     RDKit          3D

 46 48  0  0  0  0  0  0  0  0999 V2000
   -2.5960   24.5630  -29.3190 C   0  0  0  0  0  0  0  0  0  0  0  0
   -3.4930   24.7700  -30.4530 N   0  0  0  0  0  0  0  0  0  0  0  0
   -4.6480   24.1960  -30.6330 C   0  0  0  0  0  0  0  0  0  0  0  0
   -5.1860   23.2730  -29.7110 C   0  0  0  0  0  0  0  0  0  0  0  0
   -6.4300   22.6940  -29.9670 C   0  0  0  0  0  0  0  0  0  0  0  0
   -7.1320   23.0270  -31.1310 C   0  0  0  0  0  0  0  0  0  0  0  0
   -8.6880   22.2890  -31.4960 S   0  0  0  0  0  0  0  0  0  0  0  0
   -9.6070   23.3460  -32.0400 O   0  0  0  0  0  0  0  0  0  0  0  0
   -9.3060   21.6940  -30.2600 O   0  0  0  0  0  0  0  0  0  0  0  0
   -8.4790   21.0470  -32.6880 N   0  0  0  0  0  0  0  0  0  0  0  0
   -7.5780   19.9360  -32.5780 C   0  0  0  0  0  0  0  0  0  0  0  0
   -6.4000   19.8610  -33.3470 C   0  0  0  0  0  0  0  0  0  0  0  0
   -5.5380   18.7590  -33.2370 C   0  0  0  0  0  0  0  0  0  0  0  0
   -4.3160   18.6860  -34.0710 C   0  0  0  0  0  0  0  0  0  0  0  0
   -4.3550   18.0410  -35.1550 O   0  0  0  0  0  0  0  0  0  0  0  0
   -3.0850   19.3210  -33.6750 N   0  0  0  0  0  0  0  0  0  0  0  0
   -3.0810   20.5800  -32.9190 C   0  0  0  0  0  0  0  0  0  0  0  0
   -2.0260   21.5550  -33.4790 C   0  0  0  0  0  0  0  0  0  0  0  0
   -0.7840   20.9120  -33.9600 N   0  0  0  0  0  0  0  0  0  0  0  0
   -0.6300   19.5190  -33.5200 C   0  0  0  0  0  0  0  0  0  0  0  0
   -1.8120   18.6730  -34.0050 C   0  0  0  0  0  0  0  0  0  0  0  0
   -5.8720   17.7140  -32.3630 C   0  0  0  0  0  0  0  0  0  0  0  0
   -7.0300   17.7860  -31.5860 C   0  0  0  0  0  0  0  0  0  0  0  0
   -7.8810   18.8910  -31.6840 C   0  0  0  0  0  0  0  0  0  0  0  0
   -9.0280   18.9240  -30.8900 O   0  0  0  0  0  0  0  0  0  0  0  0
   -6.5680   23.9450  -32.0200 C   0  0  0  0  0  0  0  0  0  0  0  0
   -5.3570   24.5000  -31.7540 N   0  0  0  0  0  0  0  0  0  0  0  0
   -3.1554   24.6921  -28.3807 H   0  0  0  0  0  0  0  0  0  0  0  0
   -2.1805   23.5454  -29.3611 H   0  0  0  0  0  0  0  0  0  0  0  0
   -1.7766   25.2957  -29.3611 H   0  0  0  0  0  0  0  0  0  0  0  0
   -4.6298   23.0121  -28.7985 H   0  0  0  0  0  0  0  0  0  0  0  0
   -6.8590   21.9753  -29.2532 H   0  0  0  0  0  0  0  0  0  0  0  0
   -6.1527   20.6766  -34.0425 H   0  0  0  0  0  0  0  0  0  0  0  0
   -4.0751   21.0456  -32.9897 H   0  0  0  0  0  0  0  0  0  0  0  0
   -2.8337   20.3592  -31.8702 H   0  0  0  0  0  0  0  0  0  0  0  0
   -2.4769   22.1015  -34.3204 H   0  0  0  0  0  0  0  0  0  0  0  0
   -1.7340   22.2096  -32.6446 H   0  0  0  0  0  0  0  0  0  0  0  0
   -0.7760   20.9280  -35.0070 H   0  0  0  0  0  0  0  0  0  0  0  0
    0.3032   19.1091  -33.9336 H   0  0  0  0  0  0  0  0  0  0  0  0
   -0.5992   19.4929  -32.4207 H   0  0  0  0  0  0  0  0  0  0  0  0
   -1.7428   18.5481  -35.0957 H   0  0  0  0  0  0  0  0  0  0  0  0
   -1.7742   17.6940  -33.5048 H   0  0  0  0  0  0  0  0  0  0  0  0
   -5.2179   16.8327  -32.2892 H   0  0  0  0  0  0  0  0  0  0  0  0
   -7.2743   16.9680  -30.8923 H   0  0  0  0  0  0  0  0  0  0  0  0
   -9.5810   19.7650  -30.7700 H   0  0  0  0  0  0  0  0  0  0  0  0
   -7.1065   24.2196  -32.9390 H   0  0  0  0  0  0  0  0  0  0  0  0
  1  2  1  0
  2  3  2  3
  3  4  1  0
  4  5  2  0
  5  6  1  0
  6  7  1  0
  7  8  2  0
  7  9  2  0
  7 10  1  0
 10 11  1  0
 11 12  2  0
 12 13  1  0
 13 14  1  0
 14 15  2  0
 14 16  1  0
 16 17  1  0
 17 18  1  0
 18 19  1  0
 19 20  1  0
 20 21  1  0
 13 22  2  0
 22 23  1  0
 23 24  2  0
 24 25  1  0
  6 26  2  0
 26 27  1  0
 27  3  1  0
 24 11  1  0
 21 16  1  0
  1 28  1  0
  1 29  1  0
  1 30  1  0
  4 31  1  0
  5 32  1  0
 12 33  1  0
 17 34  1  0
 17 35  1  0
 18 36  1  0
 18 37  1  0
 19 38  1  0
 20 39  1  0
 20 40  1  0
 21 41  1  0
 21 42  1  0
 22 43  1  0
 23 44  1  0
 25 45  1  0
 26 46  1  0
M  CHG  2  10  -1  27  -1
M  END
>  <UniqueID>  (14) 
14

>  <SMILES>  (14) 
CN=c1ccc(S(=O)(=O)[N-]c2cc(C(=O)N3CCNCC3)ccc2O)c[n-]1

>  <Energy>  (14) 
61.14548945254147

>  <Genealogy>  (14) 
CN=c1ccc(S(=O)(=O)[N-]c2cc(C(=O)N3CCNCC3)ccc2O)c[n-]1 (protonated)
CN=c1ccc(S(=O)(=O)[N-]c2cc(C(=O)N3CCNCC3)ccc2O)c[n-]1 (3D coordinates assigned)
CN=c1ccc(S(=O)(=O)[N-]c2cc(C(=O)N3CCNCC3)ccc2O)c[n-]1 (nonaromatic ring conformer: 61.14548945254147 kcal/mol)

>  <smiles>  (14) 
CN=c1ccc(S(=O)(=O)Nc2cc(C(=O)N3CCNCC3)ccc2O)c[nH]1

>  <score_type>  (14) 
oracle

>  <origin>  (14) 
adgpu

>  <m_score__min__energy>  (14) 
-11.19

>  <m_primary>  (14) 
energy

$$$$
14:0
     RDKit          3D

 57 61  0  0  0  0  0  0  0  0999 V2000
   -0.2600   25.1780  -28.6990 H   0  0  0  0  0  0  0  0  0  0  0  0
   -1.0800   25.3540  -29.3230 N   0  0  0  0  0  0  0  0  0  0  0  0
   -2.1710   24.6650  -29.2180 C   0  0  0  0  0  0  0  0  0  0  0  0
   -2.2670   23.6830  -28.2830 N   0  0  0  0  0  0  0  0  0  0  0  0
   -3.4010   22.9490  -28.1520 C   0  0  0  0  0  0  0  0  0  0  0  0
   -3.4540   22.0280  -27.2970 O   0  0  0  0  0  0  0  0  0  0  0  0
   -4.4980   23.2140  -28.9710 C   0  0  0  0  0  0  0  0  0  0  0  0
   -5.4290   22.6381  -28.8637 H   0  0  0  0  0  0  0  0  0  0  0  0
   -4.3930   24.2270  -29.9330 C   0  0  0  0  0  0  0  0  0  0  0  0
   -5.5340   24.4840  -30.8890 C   0  0  0  0  0  0  0  0  0  0  0  0
   -5.6982   25.5696  -30.9561 H   0  0  0  0  0  0  0  0  0  0  0  0
   -5.2544   24.0520  -31.8612 H   0  0  0  0  0  0  0  0  0  0  0  0
   -6.8410   23.8180  -30.4480 C   0  0  0  0  0  0  0  0  0  0  0  0
   -6.9984   24.0075  -29.3759 H   0  0  0  0  0  0  0  0  0  0  0  0
   -7.6682   24.2406  -31.0372 H   0  0  0  0  0  0  0  0  0  0  0  0
   -6.7920   22.3780  -30.6770 N   0  0  0  0  0  0  0  0  0  0  0  0
   -7.3560   21.7770  -31.8470 C   0  0  0  0  0  0  0  0  0  0  0  0
   -8.4280   22.2290  -32.3340 O   0  0  0  0  0  0  0  0  0  0  0  0
   -6.6850   20.6280  -32.4850 C   0  0  0  0  0  0  0  0  0  0  0  0
   -7.3760   19.4120  -32.6020 C   0  0  0  0  0  0  0  0  0  0  0  0
   -8.4202   19.3425  -32.2631 H   0  0  0  0  0  0  0  0  0  0  0  0
   -6.7470   18.2890  -33.1460 C   0  0  0  0  0  0  0  0  0  0  0  0
   -7.2960   17.3397  -33.2316 H   0  0  0  0  0  0  0  0  0  0  0  0
   -5.4230   18.3700  -33.5810 C   0  0  0  0  0  0  0  0  0  0  0  0
   -4.9255   17.4810  -33.9958 H   0  0  0  0  0  0  0  0  0  0  0  0
   -4.7300   19.5780  -33.4900 C   0  0  0  0  0  0  0  0  0  0  0  0
   -3.6871   19.6373  -33.8347 H   0  0  0  0  0  0  0  0  0  0  0  0
   -5.3550   20.7160  -32.9620 C   0  0  0  0  0  0  0  0  0  0  0  0
   -4.4860   22.2950  -33.0470 S   0  0  0  0  0  0  0  0  0  0  0  0
   -2.9540   21.5450  -32.4970 C   0  0  0  0  0  0  0  0  0  0  0  0
   -1.9640   21.1740  -33.4420 C   0  0  0  0  0  0  0  0  0  0  0  0
   -2.0688   21.4821  -34.4928 H   0  0  0  0  0  0  0  0  0  0  0  0
   -0.8510   20.4160  -33.0450 C   0  0  0  0  0  0  0  0  0  0  0  0
   -0.0873   20.1010  -33.7713 H   0  0  0  0  0  0  0  0  0  0  0  0
   -0.7490   20.0770  -31.6960 C   0  0  0  0  0  0  0  0  0  0  0  0
    0.1370   19.2960  -30.9870 C   0  0  0  0  0  0  0  0  0  0  0  0
    1.2170   18.4540  -31.5240 C   0  0  0  0  0  0  0  0  0  0  0  0
    2.2165   18.5485  -31.0744 H   0  0  0  0  0  0  0  0  0  0  0  0
    1.0590   17.5770  -32.5290 C   0  0  0  0  0  0  0  0  0  0  0  0
    1.9616   17.0795  -32.9135 H   0  0  0  0  0  0  0  0  0  0  0  0
   -0.2330   17.2270  -33.1600 C   0  0  0  0  0  0  0  0  0  0  0  0
   -1.2000   16.6540  -32.3940 N   0  0  0  0  0  0  0  0  0  0  0  0
   -2.4090   16.2970  -32.9040 C   0  0  0  0  0  0  0  0  0  0  0  0
   -3.1628   15.8282  -32.2544 H   0  0  0  0  0  0  0  0  0  0  0  0
   -2.6940   16.5250  -34.2510 C   0  0  0  0  0  0  0  0  0  0  0  0
   -3.6641   16.2234  -34.6728 H   0  0  0  0  0  0  0  0  0  0  0  0
   -1.7360   17.1390  -35.0560 C   0  0  0  0  0  0  0  0  0  0  0  0
   -1.9493   17.3315  -36.1178 H   0  0  0  0  0  0  0  0  0  0  0  0
   -0.5050   17.5090  -34.5110 C   0  0  0  0  0  0  0  0  0  0  0  0
    0.2464   18.0171  -35.1333 H   0  0  0  0  0  0  0  0  0  0  0  0
   -0.2280   19.3080  -29.6840 N   0  0  0  0  0  0  0  0  0  0  0  0
   -1.3310   20.0400  -29.5490 N   0  0  0  0  0  0  0  0  0  0  0  0
   -1.6570   20.5010  -30.7700 C   0  0  0  0  0  0  0  0  0  0  0  0
   -2.7860   21.2300  -31.1330 C   0  0  0  0  0  0  0  0  0  0  0  0
   -3.5224   21.5496  -30.3809 H   0  0  0  0  0  0  0  0  0  0  0  0
   -3.2200   24.9190  -30.0480 N   0  0  0  0  0  0  0  0  0  0  0  0
   -3.1130   25.6490  -30.7880 H   0  0  0  0  0  0  0  0  0  0  0  0
  1  2  1  0
  2  3  2  0
  3  4  1  0
  4  5  1  0
  5  6  2  0
  5  7  1  0
  7  8  1  0
  7  9  2  0
  9 10  1  0
 10 11  1  0
 10 12  1  0
 10 13  1  0
 13 14  1  0
 13 15  1  0
 13 16  1  0
 16 17  1  0
 17 18  2  0
 17 19  1  0
 19 20  2  0
 20 21  1  0
 20 22  1  0
 22 23  1  0
 22 24  2  0
 24 25  1  0
 24 26  1  0
 26 27  1  0
 26 28  2  0
 28 29  1  0
 29 30  1  0
 30 31  1  0
 31 32  1  0
 31 33  2  0
 33 34  1  0
 33 35  1  0
 35 36  2  0
 36 37  1  0
 37 38  1  0
 37 39  2  3
 39 40  1  0
 39 41  1  0
 41 42  2  0
 42 43  1  0
 43 44  1  0
 43 45  2  0
 45 46  1  0
 45 47  1  0
 47 48  1  0
 47 49  2  0
 49 50  1  0
 36 51  1  0
 51 52  1  0
 52 53  2  0
 53 54  1  0
 54 55  1  0
  9 56  1  0
 56 57  1  0
 56  3  1  0
 28 19  1  0
 54 30  2  0
 53 35  1  0
 49 41  1  0
M  CHG  3   4  -1  16  -1  51  -1
M  END
>  <UniqueID>  (15) 
15

>  <SMILES>  (15) 
[H]/N=c1\[n-]c(=O)cc(CC[N-]C(=O)c2ccccc2Sc2ccc3c(C=Cc4ccccn4)[n-]nc3c2)[nH]1

>  <Energy>  (15) 
103.34555950327754

>  <Genealogy>  (15) 
N=c1[n-]c(=O)cc(CC[N-]C(=O)c2ccccc2Sc2ccc3c(C=Cc4ccccn4)[n-]nc3c2)[nH]1 (protonated)
[H]/N=c1\[n-]c(=O)cc(CC[N-]C(=O)c2ccccc2Sc2ccc3c(C=Cc4ccccn4)[n-]nc3c2)[nH]1 (cis-trans isomerization)
[H]/N=c1\[n-]c(=O)cc(CC[N-]C(=O)c2ccccc2Sc2ccc3c(C=Cc4ccccn4)[n-]nc3c2)[nH]1 (3D coordinates assigned)
[H]/N=c1\[n-]c(=O)cc(CC[N-]C(=O)c2ccccc2Sc2ccc3c(C=Cc4ccccn4)[n-]nc3c2)[nH]1 (optimized conformer: 103.34555950327754 kcal/mol)

>  <smiles>  (15) 
N=c1[nH]c(CCNC(=O)c2ccccc2Sc2ccc3c(C=Cc4ccccn4)[nH]nc3c2)cc(=O)[nH]1

>  <score_type>  (15) 
oracle

>  <origin>  (15) 
adgpu

>  <m_score__min__energy>  (15) 
-11.279999999999999

>  <m_primary>  (15) 
energy

$$$$
15:0
     RDKit          3D

 58 61  0  0  0  0  0  0  0  0999 V2000
   -5.2650   17.8610  -34.3260 O   0  0  0  0  0  0  0  0  0  0  0  0
   -5.1480   18.9620  -33.7210 C   0  0  0  0  0  0  0  0  0  0  0  0
   -3.9010   19.6680  -33.7650 N   0  0  0  0  0  0  0  0  0  0  0  0
   -3.0250   19.9130  -32.6570 C   0  0  0  0  0  0  0  0  0  0  0  0
   -3.4750   20.7300  -31.6100 C   0  0  0  0  0  0  0  0  0  0  0  0
   -2.6580   20.9770  -30.5030 C   0  0  0  0  0  0  0  0  0  0  0  0
   -1.3870   20.3920  -30.4190 C   0  0  0  0  0  0  0  0  0  0  0  0
   -0.3620   20.6950  -29.0150 S   0  0  0  0  0  0  0  0  0  0  0  0
    0.9690   20.0230  -29.2200 O   0  0  0  0  0  0  0  0  0  0  0  0
   -1.0060   20.0870  -27.7970 O   0  0  0  0  0  0  0  0  0  0  0  0
   -0.1110   22.4030  -28.7450 N   0  0  0  0  0  0  0  0  0  0  0  0
   -1.3980   23.1020  -28.6050 C   0  0  0  0  0  0  0  0  0  0  0  0
   -1.1570   24.6100  -28.3770 C   0  0  0  0  0  0  0  0  0  0  0  0
    0.2180   24.9140  -28.2120 O   0  0  0  0  0  0  0  0  0  0  0  0
    0.7640   24.1160  -27.1770 C   0  0  0  0  0  0  0  0  0  0  0  0
    0.7130   22.6170  -27.5430 C   0  0  0  0  0  0  0  0  0  0  0  0
   -0.9440   19.5550  -31.4530 C   0  0  0  0  0  0  0  0  0  0  0  0
   -1.7580   19.3110  -32.5620 C   0  0  0  0  0  0  0  0  0  0  0  0
   -6.3240   19.5440  -33.0220 C   0  0  0  0  0  0  0  0  0  0  0  0
   -6.3540   20.9270  -32.7580 C   0  0  0  0  0  0  0  0  0  0  0  0
   -7.4430   21.5090  -32.0980 C   0  0  0  0  0  0  0  0  0  0  0  0
   -7.4310   23.2410  -31.7690 S   0  0  0  0  0  0  0  0  0  0  0  0
   -8.8240   23.7700  -31.9720 O   0  0  0  0  0  0  0  0  0  0  0  0
   -6.5010   23.9400  -32.7230 O   0  0  0  0  0  0  0  0  0  0  0  0
   -6.9110   23.5000  -30.1160 N   0  0  0  0  0  0  0  0  0  0  0  0
   -6.8480   24.9350  -29.7830 C   0  0  0  0  0  0  0  0  0  0  0  0
   -5.6230   25.6320  -30.4260 C   0  0  0  0  0  0  0  0  0  0  0  0
   -4.6140   24.7310  -30.8470 O   0  0  0  0  0  0  0  0  0  0  0  0
   -4.4190   23.7280  -29.8760 C   0  0  0  0  0  0  0  0  0  0  0  0
   -5.6430   22.7950  -29.8210 C   0  0  0  0  0  0  0  0  0  0  0  0
   -8.5240   20.7130  -31.7030 C   0  0  0  0  0  0  0  0  0  0  0  0
   -8.5110   19.3410  -31.9600 C   0  0  0  0  0  0  0  0  0  0  0  0
   -7.4230   18.7470  -32.6140 C   0  0  0  0  0  0  0  0  0  0  0  0
   -7.4430   17.3750  -32.8640 O   0  0  0  0  0  0  0  0  0  0  0  0
   -4.4777   21.1796  -31.6601 H   0  0  0  0  0  0  0  0  0  0  0  0
   -3.0138   21.6329  -29.6948 H   0  0  0  0  0  0  0  0  0  0  0  0
   -1.9903   22.9621  -29.5213 H   0  0  0  0  0  0  0  0  0  0  0  0
   -1.9419   22.6885  -27.7429 H   0  0  0  0  0  0  0  0  0  0  0  0
   -1.5408   25.1653  -29.2455 H   0  0  0  0  0  0  0  0  0  0  0  0
   -1.6799   24.8996  -27.4536 H   0  0  0  0  0  0  0  0  0  0  0  0
    1.8111   24.4097  -27.0117 H   0  0  0  0  0  0  0  0  0  0  0  0
    0.1691   24.2727  -26.2651 H   0  0  0  0  0  0  0  0  0  0  0  0
    1.7344   22.2575  -27.7365 H   0  0  0  0  0  0  0  0  0  0  0  0
    0.2662   22.0629  -26.7043 H   0  0  0  0  0  0  0  0  0  0  0  0
    0.0499   19.0879  -31.3907 H   0  0  0  0  0  0  0  0  0  0  0  0
   -1.4062   18.6453  -33.3639 H   0  0  0  0  0  0  0  0  0  0  0  0
   -5.5107   21.5584  -33.0745 H   0  0  0  0  0  0  0  0  0  0  0  0
   -7.7643   25.4234  -30.1460 H   0  0  0  0  0  0  0  0  0  0  0  0
   -6.7524   25.0242  -28.6908 H   0  0  0  0  0  0  0  0  0  0  0  0
   -5.9672   26.2023  -31.3014 H   0  0  0  0  0  0  0  0  0  0  0  0
   -5.1776   26.2776  -29.6547 H   0  0  0  0  0  0  0  0  0  0  0  0
   -3.5258   23.1405  -30.1349 H   0  0  0  0  0  0  0  0  0  0  0  0
   -4.2849   24.2021  -28.8925 H   0  0  0  0  0  0  0  0  0  0  0  0
   -5.5067   21.9914  -30.5597 H   0  0  0  0  0  0  0  0  0  0  0  0
   -5.7132   22.3981  -28.7975 H   0  0  0  0  0  0  0  0  0  0  0  0
   -9.3839   21.1684  -31.1900 H   0  0  0  0  0  0  0  0  0  0  0  0
   -9.3630   18.7200  -31.6462 H   0  0  0  0  0  0  0  0  0  0  0  0
   -6.7130   16.9200  -33.4010 H   0  0  0  0  0  0  0  0  0  0  0  0
  1  2  2  0
  2  3  1  0
  3  4  1  0
  4  5  2  0
  5  6  1  0
  6  7  2  0
  7  8  1  0
  8  9  2  0
  8 10  2  0
  8 11  1  0
 11 12  1  0
 12 13  1  0
 13 14  1  0
 14 15  1  0
 15 16  1  0
  7 17  1  0
 17 18  2  0
  2 19  1  0
 19 20  2  0
 20 21  1  0
 21 22  1  0
 22 23  2  0
 22 24  2  0
 22 25  1  0
 25 26  1  0
 26 27  1  0
 27 28  1  0
 28 29  1  0
 29 30  1  0
 21 31  2  0
 31 32  1  0
 32 33  2  0
 33 34  1  0
 18  4  1  0
 33 19  1  0
 16 11  1  0
 30 25  1  0
  5 35  1  0
  6 36  1  0
 12 37  1  0
 12 38  1  0
 13 39  1  0
 13 40  1  0
 15 41  1  0
 15 42  1  0
 16 43  1  0
 16 44  1  0
 17 45  1  0
 18 46  1  0
 20 47  1  0
 26 48  1  0
 26 49  1  0
 27 50  1  0
 27 51  1  0
 29 52  1  0
 29 53  1  0
 30 54  1  0
 30 55  1  0
 31 56  1  0
 32 57  1  0
 34 58  1  0
M  CHG  1   3  -1
M  END
>  <UniqueID>  (16) 
16

>  <SMILES>  (16) 
O=C([N-]c1ccc(S(=O)(=O)N2CCOCC2)cc1)c1cc(S(=O)(=O)N2CCOCC2)ccc1O

>  <Energy>  (16) 
84.49636970266891

>  <Genealogy>  (16) 
O=C([N-]c1ccc(S(=O)(=O)N2CCOCC2)cc1)c1cc(S(=O)(=O)N2CCOCC2)ccc1O (protonated)
O=C([N-]c1ccc(S(=O)(=O)N2CCOCC2)cc1)c1cc(S(=O)(=O)N2CCOCC2)ccc1O (3D coordinates assigned)
O=C([N-]c1ccc(S(=O)(=O)N2CCOCC2)cc1)c1cc(S(=O)(=O)N2CCOCC2)ccc1O (nonaromatic ring conformer: 84.49636970266891 kcal/mol)

>  <smiles>  (16) 
O=C(Nc1ccc(S(=O)(=O)N2CCOCC2)cc1)c1cc(S(=O)(=O)N2CCOCC2)ccc1O

>  <score_type>  (16) 
oracle

>  <origin>  (16) 
adgpu

>  <m_score__min__energy>  (16) 
-11.300000000000001

>  <m_primary>  (16) 
energy

$$$$
16:0
     RDKit          3D

 62 65  0  0  0  0  0  0  0  0999 V2000
   -4.3820   25.1940  -30.8030 N   0  0  0  0  0  0  0  0  0  0  0  0
   -5.3420   24.1750  -31.1100 C   0  0  0  0  0  0  0  0  0  0  0  0
   -6.6850   24.5430  -31.2860 C   0  0  0  0  0  0  0  0  0  0  0  0
   -7.6640   23.5760  -31.5180 C   0  0  0  0  0  0  0  0  0  0  0  0
   -7.3170   22.2230  -31.5850 C   0  0  0  0  0  0  0  0  0  0  0  0
   -8.5590   20.9970  -31.8710 S   0  0  0  0  0  0  0  0  0  0  0  0
   -9.0340   20.4670  -30.5470 O   0  0  0  0  0  0  0  0  0  0  0  0
   -9.7300   21.6400  -32.5600 O   0  0  0  0  0  0  0  0  0  0  0  0
   -7.9880   19.6650  -32.8450 N   0  0  0  0  0  0  0  0  0  0  0  0
   -6.8320   20.0350  -33.6590 C   0  0  0  0  0  0  0  0  0  0  0  0
   -6.0630   18.7490  -33.9250 C   0  0  0  0  0  0  0  0  0  0  0  0
   -6.5500   17.7610  -32.8750 C   0  0  0  0  0  0  0  0  0  0  0  0
   -7.5470   18.5360  -32.0280 C   0  0  0  0  0  0  0  0  0  0  0  0
   -5.9800   21.8450  -31.4130 C   0  0  0  0  0  0  0  0  0  0  0  0
   -4.9800   22.8080  -31.1900 C   0  0  0  0  0  0  0  0  0  0  0  0
   -3.5730   22.3590  -31.0950 C   0  0  0  0  0  0  0  0  0  0  0  0
   -3.2240   21.2870  -31.6590 O   0  0  0  0  0  0  0  0  0  0  0  0
   -2.6250   23.1160  -30.3230 N   0  0  0  0  0  0  0  0  0  0  0  0
   -1.2820   22.6780  -30.0530 C   0  0  0  0  0  0  0  0  0  0  0  0
   -0.7620   21.7700  -30.7580 O   0  0  0  0  0  0  0  0  0  0  0  0
   -0.4870   23.2960  -28.9640 C   0  0  0  0  0  0  0  0  0  0  0  0
   -0.7230   24.6220  -28.5580 C   0  0  0  0  0  0  0  0  0  0  0  0
    0.0240   25.1900  -27.5230 C   0  0  0  0  0  0  0  0  0  0  0  0
    1.0070   24.4410  -26.8660 C   0  0  0  0  0  0  0  0  0  0  0  0
    1.9250   25.1520  -25.5350 S   0  0  0  0  0  0  0  0  0  0  0  0
    3.0750   24.2460  -25.1890 O   0  0  0  0  0  0  0  0  0  0  0  0
    2.4920   26.4730  -25.9760 O   0  0  0  0  0  0  0  0  0  0  0  0
    0.9280   25.3920  -24.1160 N   0  0  0  0  0  0  0  0  0  0  0  0
    1.1070   26.7620  -23.5890 C   0  0  0  0  0  0  0  0  0  0  0  0
   -0.0960   27.1750  -22.7210 C   0  0  0  0  0  0  0  0  0  0  0  0
   -1.3410   27.1640  -23.4100 O   0  0  0  0  0  0  0  0  0  0  0  0
   -1.3570   26.3220  -24.5550 C   0  0  0  0  0  0  0  0  0  0  0  0
   -0.4920   25.0590  -24.3870 C   0  0  0  0  0  0  0  0  0  0  0  0
    1.2470   23.1200  -27.2640 C   0  0  0  0  0  0  0  0  0  0  0  0
    0.5030   22.5490  -28.3000 C   0  0  0  0  0  0  0  0  0  0  0  0
   -4.2670   25.5730  -29.8380 H   0  0  0  0  0  0  0  0  0  0  0  0
   -3.8450   25.6620  -31.5670 H   0  0  0  0  0  0  0  0  0  0  0  0
   -6.9688   25.6048  -31.2406 H   0  0  0  0  0  0  0  0  0  0  0  0
   -8.7132   23.8794  -31.6487 H   0  0  0  0  0  0  0  0  0  0  0  0
   -7.1627   20.4834  -34.6075 H   0  0  0  0  0  0  0  0  0  0  0  0
   -6.2029   20.7759  -33.1439 H   0  0  0  0  0  0  0  0  0  0  0  0
   -6.2793   18.3736  -34.9361 H   0  0  0  0  0  0  0  0  0  0  0  0
   -4.9755   18.9038  -33.8671 H   0  0  0  0  0  0  0  0  0  0  0  0
   -7.0385   16.8994  -33.3536 H   0  0  0  0  0  0  0  0  0  0  0  0
   -5.7215   17.3618  -32.2714 H   0  0  0  0  0  0  0  0  0  0  0  0
   -8.4034   17.8968  -31.7673 H   0  0  0  0  0  0  0  0  0  0  0  0
   -7.0921   18.8771  -31.0863 H   0  0  0  0  0  0  0  0  0  0  0  0
   -5.7081   20.7799  -31.4529 H   0  0  0  0  0  0  0  0  0  0  0  0
   -2.9260   24.0470  -29.9590 H   0  0  0  0  0  0  0  0  0  0  0  0
   -1.5014   25.2161  -29.0591 H   0  0  0  0  0  0  0  0  0  0  0  0
   -0.1615   26.2318  -27.2227 H   0  0  0  0  0  0  0  0  0  0  0  0
    1.2820   24.7230  -23.3930 H   0  0  0  0  0  0  0  0  0  0  0  0
    2.0213   26.7970  -22.9784 H   0  0  0  0  0  0  0  0  0  0  0  0
    1.1861   27.4585  -24.4367 H   0  0  0  0  0  0  0  0  0  0  0  0
   -0.1648   26.4786  -21.8723 H   0  0  0  0  0  0  0  0  0  0  0  0
    0.0825   28.2135  -22.4053 H   0  0  0  0  0  0  0  0  0  0  0  0
   -2.3948   26.0126  -24.7478 H   0  0  0  0  0  0  0  0  0  0  0  0
   -0.9373   26.8985  -25.3925 H   0  0  0  0  0  0  0  0  0  0  0  0
   -0.8852   24.4681  -23.5466 H   0  0  0  0  0  0  0  0  0  0  0  0
   -0.5348   24.4895  -25.3271 H   0  0  0  0  0  0  0  0  0  0  0  0
    2.0250   22.5289  -26.7587 H   0  0  0  0  0  0  0  0  0  0  0  0
    0.6929   21.5075  -28.5986 H   0  0  0  0  0  0  0  0  0  0  0  0
  1  2  1  0
  2  3  2  0
  3  4  1  0
  4  5  2  0
  5  6  1  0
  6  7  2  0
  6  8  2  0
  6  9  1  0
  9 10  1  0
 10 11  1  0
 11 12  1  0
 12 13  1  0
  5 14  1  0
 14 15  2  0
 15 16  1  0
 16 17  2  0
 16 18  1  0
 18 19  1  0
 19 20  2  0
 19 21  1  0
 21 22  2  0
 22 23  1  0
 23 24  2  0
 24 25  1  0
 25 26  2  0
 25 27  2  0
 25 28  1  0
 28 29  1  0
 29 30  1  0
 30 31  1  0
 31 32  1  0
 32 33  1  0
 24 34  1  0
 34 35  2  0
 15  2  1  0
 35 21  1  0
 13  9  1  0
 33 28  1  0
  1 36  1  0
  1 37  1  0
  3 38  1  0
  4 39  1  0
 10 40  1  0
 10 41  1  0
 11 42  1  0
 11 43  1  0
 12 44  1  0
 12 45  1  0
 13 46  1  0
 13 47  1  0
 14 48  1  0
 18 49  1  0
 22 50  1  0
 23 51  1  0
 28 52  1  0
 29 53  1  0
 29 54  1  0
 30 55  1  0
 30 56  1  0
 32 57  1  0
 32 58  1  0
 33 59  1  0
 33 60  1  0
 34 61  1  0
 35 62  1  0
M  CHG  1  28   1
M  END
>  <UniqueID>  (17) 
17

>  <SMILES>  (17) 
Nc1ccc(S(=O)(=O)N2CCCC2)cc1C(=O)NC(=O)c1ccc(S(=O)(=O)[NH+]2CCOCC2)cc1

>  <Energy>  (17) 
85.06651494994519

>  <Genealogy>  (17) 
Nc1ccc(S(=O)(=O)N2CCCC2)cc1C(=O)NC(=O)c1ccc(S(=O)(=O)[NH+]2CCOCC2)cc1 (protonated)
Nc1ccc(S(=O)(=O)N2CCCC2)cc1C(=O)NC(=O)c1ccc(S(=O)(=O)[NH+]2CCOCC2)cc1 (3D coordinates assigned)
Nc1ccc(S(=O)(=O)N2CCCC2)cc1C(=O)NC(=O)c1ccc(S(=O)(=O)[NH+]2CCOCC2)cc1 (nonaromatic ring conformer: 85.06651494994519 kcal/mol)

>  <smiles>  (17) 
Nc1ccc(S(=O)(=O)N2CCCC2)cc1C(=O)NC(=O)c1ccc(S(=O)(=O)N2CCOCC2)cc1

>  <score_type>  (17) 
oracle

>  <origin>  (17) 
adgpu

>  <m_score__min__energy>  (17) 
-11.24

>  <m_primary>  (17) 
energy

$$$$
17:0
     RDKit          3D

 51 53  0  0  0  0  0  0  0  0999 V2000
   -8.9270   18.5520  -31.9620 C   0  0  0  0  0  0  0  0  0  0  0  0
   -7.2050   18.2470  -32.2840 S   0  0  0  0  0  0  0  0  0  0  0  0
   -6.6300   17.4380  -31.1550 O   0  0  0  0  0  0  0  0  0  0  0  0
   -7.0560   17.4670  -33.5600 O   0  0  0  0  0  0  0  0  0  0  0  0
   -6.3520   19.7860  -32.4250 C   0  0  0  0  0  0  0  0  0  0  0  0
   -6.9700   20.9700  -31.9970 C   0  0  0  0  0  0  0  0  0  0  0  0
   -6.3010   22.1950  -32.1000 C   0  0  0  0  0  0  0  0  0  0  0  0
   -7.1020   23.7070  -31.5550 S   0  0  0  0  0  0  0  0  0  0  0  0
   -5.9490   24.0390  -30.1750 C   0  0  0  0  0  0  0  0  0  0  0  0
   -5.1380   25.2800  -30.4230 C   0  0  0  0  0  0  0  0  0  0  0  0
   -5.7270   26.3890  -30.5000 O   0  0  0  0  0  0  0  0  0  0  0  0
   -3.7040   25.2600  -30.4650 N   0  0  0  0  0  0  0  0  0  0  0  0
   -2.8400   24.2680  -29.8970 C   0  0  0  0  0  0  0  0  0  0  0  0
   -2.8550   22.9370  -30.3430 C   0  0  0  0  0  0  0  0  0  0  0  0
   -1.9790   21.9980  -29.7920 C   0  0  0  0  0  0  0  0  0  0  0  0
   -1.0700   22.3810  -28.7960 C   0  0  0  0  0  0  0  0  0  0  0  0
    0.0490   21.2000  -28.1230 S   0  0  0  0  0  0  0  0  0  0  0  0
    1.1900   21.9240  -27.4640 O   0  0  0  0  0  0  0  0  0  0  0  0
    0.6030   20.3400  -29.2260 O   0  0  0  0  0  0  0  0  0  0  0  0
   -0.7830   20.2230  -26.9410 N   0  0  0  0  0  0  0  0  0  0  0  0
   -2.2000   20.5740  -26.8660 C   0  0  0  0  0  0  0  0  0  0  0  0
   -2.9310   19.3270  -26.3920 C   0  0  0  0  0  0  0  0  0  0  0  0
   -1.9840   18.1720  -26.6820 C   0  0  0  0  0  0  0  0  0  0  0  0
   -0.7500   18.8070  -27.3040 C   0  0  0  0  0  0  0  0  0  0  0  0
   -1.0280   23.7180  -28.3770 C   0  0  0  0  0  0  0  0  0  0  0  0
   -1.9040   24.6560  -28.9310 C   0  0  0  0  0  0  0  0  0  0  0  0
   -5.0210   22.2450  -32.6590 C   0  0  0  0  0  0  0  0  0  0  0  0
   -4.4010   21.0720  -33.0960 C   0  0  0  0  0  0  0  0  0  0  0  0
   -5.0610   19.8390  -32.9840 C   0  0  0  0  0  0  0  0  0  0  0  0
   -4.4390   18.6730  -33.4280 O   0  0  0  0  0  0  0  0  0  0  0  0
   -9.0972   18.5821  -30.8757 H   0  0  0  0  0  0  0  0  0  0  0  0
   -9.2179   19.5156  -32.4056 H   0  0  0  0  0  0  0  0  0  0  0  0
   -9.5312   17.7469  -32.4056 H   0  0  0  0  0  0  0  0  0  0  0  0
   -7.9865   20.9356  -31.5779 H   0  0  0  0  0  0  0  0  0  0  0  0
   -6.5278   24.1691  -29.2487 H   0  0  0  0  0  0  0  0  0  0  0  0
   -5.2590   23.1867  -30.0883 H   0  0  0  0  0  0  0  0  0  0  0  0
   -3.5600   22.6316  -31.1303 H   0  0  0  0  0  0  0  0  0  0  0  0
   -2.0028   20.9551  -30.1409 H   0  0  0  0  0  0  0  0  0  0  0  0
   -2.3501   21.3968  -26.1515 H   0  0  0  0  0  0  0  0  0  0  0  0
   -2.5784   20.9089  -27.8430 H   0  0  0  0  0  0  0  0  0  0  0  0
   -3.1425   19.3906  -25.3144 H   0  0  0  0  0  0  0  0  0  0  0  0
   -3.8988   19.2011  -26.8994 H   0  0  0  0  0  0  0  0  0  0  0  0
   -1.7196   17.6483  -25.7515 H   0  0  0  0  0  0  0  0  0  0  0  0
   -2.4408   17.4266  -27.3497 H   0  0  0  0  0  0  0  0  0  0  0  0
    0.1610   18.3345  -26.9079 H   0  0  0  0  0  0  0  0  0  0  0  0
   -0.7437   18.6768  -28.3962 H   0  0  0  0  0  0  0  0  0  0  0  0
   -0.3037   24.0300  -27.6101 H   0  0  0  0  0  0  0  0  0  0  0  0
   -1.8575   25.7058  -28.6058 H   0  0  0  0  0  0  0  0  0  0  0  0
   -4.5010   23.2096  -32.7550 H   0  0  0  0  0  0  0  0  0  0  0  0
   -3.3911   21.1152  -33.5298 H   0  0  0  0  0  0  0  0  0  0  0  0
   -4.9110   17.7780  -33.4050 H   0  0  0  0  0  0  0  0  0  0  0  0
  1  2  1  0
  2  3  2  0
  2  4  2  0
  2  5  1  0
  5  6  2  0
  6  7  1  0
  7  8  1  0
  8  9  1  0
  9 10  1  0
 10 11  2  0
 10 12  1  0
 12 13  1  0
 13 14  2  0
 14 15  1  0
 15 16  2  0
 16 17  1  0
 17 18  2  0
 17 19  2  0
 17 20  1  0
 20 21  1  0
 21 22  1  0
 22 23  1  0
 23 24  1  0
 16 25  1  0
 25 26  2  0
  7 27  2  0
 27 28  1  0
 28 29  2  0
 29 30  1  0
 29  5  1  0
 26 13  1  0
 24 20  1  0
  1 31  1  0
  1 32  1  0
  1 33  1  0
  6 34  1  0
  9 35  1  0
  9 36  1  0
 14 37  1  0
 15 38  1  0
 21 39  1  0
 21 40  1  0
 22 41  1  0
 22 42  1  0
 23 43  1  0
 23 44  1  0
 24 45  1  0
 24 46  1  0
 25 47  1  0
 26 48  1  0
 27 49  1  0
 28 50  1  0
 30 51  1  0
M  CHG  1  12  -1
M  END
>  <UniqueID>  (18) 
18

>  <SMILES>  (18) 
CS(=O)(=O)c1cc(SCC(=O)[N-]c2ccc(S(=O)(=O)N3CCCC3)cc2)ccc1O

>  <Energy>  (18) 
51.297482599328866

>  <Genealogy>  (18) 
CS(=O)(=O)c1cc(SCC(=O)[N-]c2ccc(S(=O)(=O)N3CCCC3)cc2)ccc1O (protonated)
CS(=O)(=O)c1cc(SCC(=O)[N-]c2ccc(S(=O)(=O)N3CCCC3)cc2)ccc1O (3D coordinates assigned)
CS(=O)(=O)c1cc(SCC(=O)[N-]c2ccc(S(=O)(=O)N3CCCC3)cc2)ccc1O (nonaromatic ring conformer: 51.297482599328866 kcal/mol)

>  <smiles>  (18) 
CS(=O)(=O)c1cc(SCC(=O)Nc2ccc(S(=O)(=O)N3CCCC3)cc2)ccc1O

>  <score_type>  (18) 
oracle

>  <origin>  (18) 
adgpu

>  <m_score__min__energy>  (18) 
-11.880000000000001

>  <m_primary>  (18) 
energy

$$$$
18:0
     RDKit          3D

 45 47  0  0  0  0  0  0  0  0999 V2000
   -2.3660   22.0570  -30.1170 O   0  0  0  0  0  0  0  0  0  0  0  0
   -3.1810   22.4990  -30.9690 C   0  0  0  0  0  0  0  0  0  0  0  0
   -2.9290   22.2620  -32.3150 O   0  0  0  0  0  0  0  0  0  0  0  0
   -4.3820   23.2600  -30.5370 C   0  0  0  0  0  0  0  0  0  0  0  0
   -5.6430   22.6290  -30.5350 C   0  0  0  0  0  0  0  0  0  0  0  0
   -6.7990   23.3160  -30.1340 C   0  0  0  0  0  0  0  0  0  0  0  0
   -8.0640   22.6310  -30.1590 N   0  0  0  0  0  0  0  0  0  0  0  0
   -8.8530   22.1090  -31.6150 S   0  0  0  0  0  0  0  0  0  0  0  0
  -10.2220   21.5890  -31.2790 O   0  0  0  0  0  0  0  0  0  0  0  0
   -8.9880   23.2790  -32.5480 O   0  0  0  0  0  0  0  0  0  0  0  0
   -7.9260   20.8140  -32.3660 C   0  0  0  0  0  0  0  0  0  0  0  0
   -8.3620   19.4870  -32.2510 C   0  0  0  0  0  0  0  0  0  0  0  0
   -7.6220   18.4520  -32.8310 C   0  0  0  0  0  0  0  0  0  0  0  0
   -6.4450   18.7340  -33.5350 C   0  0  0  0  0  0  0  0  0  0  0  0
   -5.5110   17.4270  -34.2690 S   0  0  0  0  0  0  0  0  0  0  0  0
   -5.3690   17.6880  -35.7420 O   0  0  0  0  0  0  0  0  0  0  0  0
   -6.2560   16.1330  -34.0950 O   0  0  0  0  0  0  0  0  0  0  0  0
   -3.9240   17.2790  -33.5520 N   0  0  0  0  0  0  0  0  0  0  0  0
   -3.2530   18.5860  -33.5080 C   0  0  0  0  0  0  0  0  0  0  0  0
   -1.8630   18.4400  -32.8530 C   0  0  0  0  0  0  0  0  0  0  0  0
   -1.5180   17.0850  -32.6210 O   0  0  0  0  0  0  0  0  0  0  0  0
   -1.6430   16.3450  -33.8210 C   0  0  0  0  0  0  0  0  0  0  0  0
   -3.1070   16.3130  -34.3050 C   0  0  0  0  0  0  0  0  0  0  0  0
   -6.0100   20.0620  -33.6510 C   0  0  0  0  0  0  0  0  0  0  0  0
   -6.7490   21.0980  -33.0720 C   0  0  0  0  0  0  0  0  0  0  0  0
   -6.6870   24.6520  -29.7140 C   0  0  0  0  0  0  0  0  0  0  0  0
   -5.4460   25.2880  -29.7110 C   0  0  0  0  0  0  0  0  0  0  0  0
   -4.2970   24.6060  -30.1200 C   0  0  0  0  0  0  0  0  0  0  0  0
   -3.0810   25.2810  -30.1040 O   0  0  0  0  0  0  0  0  0  0  0  0
   -5.7220   21.5791  -30.8536 H   0  0  0  0  0  0  0  0  0  0  0  0
   -8.5030   22.3410  -29.2560 H   0  0  0  0  0  0  0  0  0  0  0  0
   -9.2883   19.2592  -31.7033 H   0  0  0  0  0  0  0  0  0  0  0  0
   -7.9660   17.4117  -32.7338 H   0  0  0  0  0  0  0  0  0  0  0  0
   -3.1354   18.9704  -34.5319 H   0  0  0  0  0  0  0  0  0  0  0  0
   -3.8610   19.2860  -32.9161 H   0  0  0  0  0  0  0  0  0  0  0  0
   -1.1098   18.8881  -33.5177 H   0  0  0  0  0  0  0  0  0  0  0  0
   -1.8941   18.9511  -31.8794 H   0  0  0  0  0  0  0  0  0  0  0  0
   -1.0184   16.8113  -34.5971 H   0  0  0  0  0  0  0  0  0  0  0  0
   -1.3161   15.3123  -33.6297 H   0  0  0  0  0  0  0  0  0  0  0  0
   -3.1397   16.5683  -35.3745 H   0  0  0  0  0  0  0  0  0  0  0  0
   -3.5120   15.3034  -34.1418 H   0  0  0  0  0  0  0  0  0  0  0  0
   -5.0840   20.2895  -34.1995 H   0  0  0  0  0  0  0  0  0  0  0  0
   -6.4059   22.1384  -33.1708 H   0  0  0  0  0  0  0  0  0  0  0  0
   -7.5830   25.1992  -29.3858 H   0  0  0  0  0  0  0  0  0  0  0  0
   -5.3709   26.3355  -29.3839 H   0  0  0  0  0  0  0  0  0  0  0  0
  1  2  2  0
  2  3  1  0
  2  4  1  0
  4  5  2  0
  5  6  1  0
  6  7  1  0
  7  8  1  0
  8  9  2  0
  8 10  2  0
  8 11  1  0
 11 12  2  0
 12 13  1  0
 13 14  2  0
 14 15  1  0
 15 16  2  0
 15 17  2  0
 15 18  1  0
 18 19  1  0
 19 20  1  0
 20 21  1  0
 21 22  1  0
 22 23  1  0
 14 24  1  0
 24 25  2  0
  6 26  2  0
 26 27  1  0
 27 28  2  0
 28 29  1  0
 28  4  1  0
 25 11  1  0
 23 18  1  0
  5 30  1  0
  7 31  1  0
 12 32  1  0
 13 33  1  0
 19 34  1  0
 19 35  1  0
 20 36  1  0
 20 37  1  0
 22 38  1  0
 22 39  1  0
 23 40  1  0
 23 41  1  0
 24 42  1  0
 25 43  1  0
 26 44  1  0
 27 45  1  0
M  CHG  2   3  -1  29  -1
M  END
>  <UniqueID>  (19) 
19

>  <SMILES>  (19) 
O=C([O-])c1cc(NS(=O)(=O)c2ccc(S(=O)(=O)N3CCOCC3)cc2)ccc1[O-]

>  <Energy>  (19) 
58.68638910154651

>  <Genealogy>  (19) 
O=C([O-])c1cc(NS(=O)(=O)c2ccc(S(=O)(=O)N3CCOCC3)cc2)ccc1[O-] (protonated)
O=C([O-])c1cc(NS(=O)(=O)c2ccc(S(=O)(=O)N3CCOCC3)cc2)ccc1[O-] (3D coordinates assigned)
O=C([O-])c1cc(NS(=O)(=O)c2ccc(S(=O)(=O)N3CCOCC3)cc2)ccc1[O-] (nonaromatic ring conformer: 58.68638910154651 kcal/mol)

>  <smiles>  (19) 
O=C(O)c1cc(NS(=O)(=O)c2ccc(S(=O)(=O)N3CCOCC3)cc2)ccc1O

>  <score_type>  (19) 
oracle

>  <origin>  (19) 
adgpu

>  <m_score__min__energy>  (19) 
-13.01

>  <m_primary>  (19) 
energy

$$$$
19:0
     RDKit          3D

 43 45  0  0  0  0  0  0  0  0999 V2000
   -4.3440   25.4180  -30.8120 O   0  0  0  0  0  0  0  0  0  0  0  0
   -4.1880   24.1680  -30.8300 C   0  0  0  0  0  0  0  0  0  0  0  0
   -4.7400   23.4200  -31.9170 N   0  0  0  0  0  0  0  0  0  0  0  0
   -6.0430   22.8180  -31.9540 C   0  0  0  0  0  0  0  0  0  0  0  0
   -7.2010   23.5960  -31.7610 C   0  0  0  0  0  0  0  0  0  0  0  0
   -8.4630   22.9970  -31.7470 C   0  0  0  0  0  0  0  0  0  0  0  0
   -8.5830   21.6160  -31.9040 C   0  0  0  0  0  0  0  0  0  0  0  0
   -7.4440   20.8300  -32.0720 C   0  0  0  0  0  0  0  0  0  0  0  0
   -6.1690   21.4190  -32.1010 C   0  0  0  0  0  0  0  0  0  0  0  0
   -4.7570   20.3690  -32.3000 S   0  0  0  0  0  0  0  0  0  0  0  0
   -4.5240   20.0710  -33.7560 O   0  0  0  0  0  0  0  0  0  0  0  0
   -5.0240   19.0660  -31.5960 O   0  0  0  0  0  0  0  0  0  0  0  0
   -3.3470   21.1270  -31.6010 N   0  0  0  0  0  0  0  0  0  0  0  0
   -2.1790   20.9510  -32.4820 C   0  0  0  0  0  0  0  0  0  0  0  0
   -0.9060   21.5410  -31.8340 C   0  0  0  0  0  0  0  0  0  0  0  0
   -1.1480   22.0350  -30.5300 O   0  0  0  0  0  0  0  0  0  0  0  0
   -1.7030   21.0110  -29.7290 C   0  0  0  0  0  0  0  0  0  0  0  0
   -3.0820   20.5660  -30.2630 C   0  0  0  0  0  0  0  0  0  0  0  0
   -3.4840   23.5170  -29.8100 O   0  0  0  0  0  0  0  0  0  0  0  0
   -3.1420   24.0740  -28.5680 C   0  0  0  0  0  0  0  0  0  0  0  0
   -1.8170   24.4240  -28.2370 C   0  0  0  0  0  0  0  0  0  0  0  0
   -1.5310   24.9960  -26.9940 C   0  0  0  0  0  0  0  0  0  0  0  0
   -2.5580   25.2340  -26.0770 C   0  0  0  0  0  0  0  0  0  0  0  0
   -3.8760   24.9060  -26.4060 C   0  0  0  0  0  0  0  0  0  0  0  0
   -4.1660   24.3330  -27.6490 C   0  0  0  0  0  0  0  0  0  0  0  0
   -7.1111   24.6832  -31.6203 H   0  0  0  0  0  0  0  0  0  0  0  0
   -9.3630   23.6149  -31.6120 H   0  0  0  0  0  0  0  0  0  0  0  0
   -9.5778   21.1466  -31.8952 H   0  0  0  0  0  0  0  0  0  0  0  0
   -7.5444   19.7402  -32.1827 H   0  0  0  0  0  0  0  0  0  0  0  0
   -3.5560   22.1500  -31.5100 H   0  0  0  0  0  0  0  0  0  0  0  0
   -2.0251   19.8775  -32.6660 H   0  0  0  0  0  0  0  0  0  0  0  0
   -2.3693   21.4793  -33.4279 H   0  0  0  0  0  0  0  0  0  0  0  0
   -0.1400   20.7536  -31.7777 H   0  0  0  0  0  0  0  0  0  0  0  0
   -0.5703   22.3834  -32.4566 H   0  0  0  0  0  0  0  0  0  0  0  0
   -1.0225   20.1468  -29.7300 H   0  0  0  0  0  0  0  0  0  0  0  0
   -1.8351   21.4012  -28.7091 H   0  0  0  0  0  0  0  0  0  0  0  0
   -3.1048   19.4679  -30.3243 H   0  0  0  0  0  0  0  0  0  0  0  0
   -3.8558   20.9344  -29.5734 H   0  0  0  0  0  0  0  0  0  0  0  0
   -1.0061   24.2465  -28.9588 H   0  0  0  0  0  0  0  0  0  0  0  0
   -0.4944   25.2595  -26.7370 H   0  0  0  0  0  0  0  0  0  0  0  0
   -2.3294   25.6790  -25.0973 H   0  0  0  0  0  0  0  0  0  0  0  0
   -4.6861   25.0985  -25.6871 H   0  0  0  0  0  0  0  0  0  0  0  0
   -5.2062   24.0842  -27.9061 H   0  0  0  0  0  0  0  0  0  0  0  0
  1  2  2  0
  2  3  1  0
  3  4  1  0
  4  5  2  0
  5  6  1  0
  6  7  2  0
  7  8  1  0
  8  9  2  0
  9 10  1  0
 10 11  2  0
 10 12  2  0
 10 13  1  0
 13 14  1  0
 14 15  1  0
 15 16  1  0
 16 17  1  0
 17 18  1  0
  2 19  1  0
 19 20  1  0
 20 21  2  0
 21 22  1  0
 22 23  2  0
 23 24  1  0
 24 25  2  0
  9  4  1  0
 18 13  1  0
 25 20  1  0
  5 26  1  0
  6 27  1  0
  7 28  1  0
  8 29  1  0
 13 30  1  0
 14 31  1  0
 14 32  1  0
 15 33  1  0
 15 34  1  0
 17 35  1  0
 17 36  1  0
 18 37  1  0
 18 38  1  0
 21 39  1  0
 22 40  1  0
 23 41  1  0
 24 42  1  0
 25 43  1  0
M  CHG  2   3  -1  13   1
M  END
>  <UniqueID>  (20) 
20

>  <SMILES>  (20) 
O=C([N-]c1ccccc1S(=O)(=O)[NH+]1CCOCC1)Oc1ccccc1

>  <Energy>  (20) 
60.52929196209349

>  <Genealogy>  (20) 
O=C([N-]c1ccccc1S(=O)(=O)[NH+]1CCOCC1)Oc1ccccc1 (protonated)
O=C([N-]c1ccccc1S(=O)(=O)[NH+]1CCOCC1)Oc1ccccc1 (3D coordinates assigned)
O=C([N-]c1ccccc1S(=O)(=O)[NH+]1CCOCC1)Oc1ccccc1 (nonaromatic ring conformer: 60.52929196209349 kcal/mol)

>  <smiles>  (20) 
O=C(Nc1ccccc1S(=O)(=O)N1CCOCC1)Oc1ccccc1

>  <score_type>  (20) 
oracle

>  <origin>  (20) 
adgpu

>  <m_score__min__energy>  (20) 
-7.7999999999999998

>  <m_primary>  (20) 
energy

$$$$
20:0
     RDKit          3D

 42 44  0  0  1  0  0  0  0  0999 V2000
   -3.3840   20.3390  -33.4060 C   0  0  0  0  0  0  0  0  0  0  0  0
   -4.7320   19.8110  -33.1260 C   0  0  0  0  0  0  0  0  0  0  0  0
   -5.0890   18.5720  -33.6060 C   0  0  0  0  0  0  0  0  0  0  0  0
   -6.3380   18.0400  -33.3720 C   0  0  0  0  0  0  0  0  0  0  0  0
   -6.7560   16.7560  -33.8510 C   0  0  0  0  0  0  0  0  0  0  0  0
   -7.0920   15.7230  -34.2280 N   0  0  0  0  0  0  0  0  0  0  0  0
   -7.2380   18.7980  -32.6290 C   0  0  0  0  0  0  0  0  0  0  0  0
   -6.8710   20.0330  -32.1560 C   0  0  0  0  0  0  0  0  0  0  0  0
   -7.8910   20.7890  -31.3660 C   0  0  0  0  0  0  0  0  0  0  0  0
   -5.6190   20.5700  -32.3880 C   0  0  0  0  0  0  0  0  0  0  0  0
   -5.3230   21.8100  -31.8820 O   0  0  0  0  0  0  0  0  0  0  0  0
   -4.4430   22.0010  -30.8230 C   0  0  0  0  0  0  0  0  0  0  0  0
   -3.8450   20.9170  -30.2620 N   0  0  0  0  0  0  0  0  0  0  0  0
   -3.0040   21.1520  -29.2430 C   0  0  0  0  0  0  0  0  0  0  0  0
   -2.7270   22.3730  -28.7600 N   0  0  0  0  0  0  0  0  0  0  0  0
   -3.3260   23.4440  -29.3260 C   0  0  0  0  0  0  0  0  0  0  0  0
   -3.0270   24.5940  -28.8270 N   0  0  0  0  0  0  0  0  0  0  0  0
   -2.1110   24.7370  -27.7380 C   0  0  0  0  0  0  0  0  0  0  0  0
   -2.5580   25.0120  -26.4570 C   0  0  0  0  0  0  0  0  0  0  0  0
   -1.6030   25.1330  -25.4680 C   0  0  0  0  0  0  0  0  0  0  0  0
   -0.2500   24.9930  -25.7090 C   0  0  0  0  0  0  0  0  0  0  0  0
    0.1520   24.7180  -27.0050 C   0  0  0  0  0  0  0  0  0  0  0  0
   -0.7620   24.5860  -28.0370 C   0  0  0  0  0  0  0  0  0  0  0  0
   -4.1960   23.2600  -30.3720 C   0  0  0  0  0  0  0  0  0  0  0  0
   -4.7970   24.4250  -30.9290 N   0  0  0  0  0  0  0  0  0  0  0  0
   -5.9080   24.2400  -31.5010 O   0  0  0  0  0  0  0  0  0  0  0  0
   -4.2210   25.6730  -30.8570 O   0  0  0  0  0  0  0  0  0  0  0  0
   -2.8654   20.5421  -32.4574 H   0  0  0  0  0  0  0  0  0  0  0  0
   -2.8129   19.5981  -33.9847 H   0  0  0  0  0  0  0  0  0  0  0  0
   -3.4680   21.2707  -33.9847 H   0  0  0  0  0  0  0  0  0  0  0  0
   -4.3596   17.9923  -34.1907 H   0  0  0  0  0  0  0  0  0  0  0  0
   -8.2448   18.4069  -32.4206 H   0  0  0  0  0  0  0  0  0  0  0  0
   -7.7009   20.6481  -30.2917 H   0  0  0  0  0  0  0  0  0  0  0  0
   -7.8264   21.8591  -31.6126 H   0  0  0  0  0  0  0  0  0  0  0  0
   -8.8960   20.4159  -31.6126 H   0  0  0  0  0  0  0  0  0  0  0  0
   -4.0550   19.9550  -30.6310 H   0  0  0  0  0  0  0  0  0  0  0  0
   -2.5101   20.2885  -28.7736 H   0  0  0  0  0  0  0  0  0  0  0  0
   -3.6293   25.1292  -26.2366 H   0  0  0  0  0  0  0  0  0  0  0  0
   -1.9341   25.3507  -24.4418 H   0  0  0  0  0  0  0  0  0  0  0  0
    0.4847   25.0967  -24.8969 H   0  0  0  0  0  0  0  0  0  0  0  0
    1.2244   24.6014  -27.2204 H   0  0  0  0  0  0  0  0  0  0  0  0
   -0.4303   24.3681  -29.0629 H   0  0  0  0  0  0  0  0  0  0  0  0
  1  2  1  0
  2  3  2  0
  3  4  1  0
  4  5  1  0
  5  6  3  0
  4  7  2  0
  7  8  1  0
  8  9  1  0
  8 10  2  0
 10 11  1  0
 11 12  1  0
 12 13  1  0
 13 14  1  0
 14 15  2  0
 15 16  1  0
 16 17  2  0
 17 18  1  0
 18 19  2  0
 19 20  1  0
 20 21  2  0
 21 22  1  0
 22 23  2  0
 16 24  1  0
 24 25  1  0
 25 26  2  0
 25 27  1  0
 10  2  1  0
 24 12  2  0
 23 18  1  0
  1 28  1  0
  1 29  1  0
  1 30  1  0
  3 31  1  0
  7 32  1  0
  9 33  1  0
  9 34  1  0
  9 35  1  0
 13 36  1  0
 14 37  1  0
 19 38  1  0
 20 39  1  0
 21 40  1  0
 22 41  1  0
 23 42  1  0
M  CHG  2  25   1  27  -1
M  END
>  <smiles>  (21) 
Cc1cc(C#N)cc(C)c1Oc1[nH]cnc(=Nc2ccccc2)c1[N+](=O)[O-]

>  <score_type>  (21) 
oracle

>  <origin>  (21) 
adgpu

>  <m_score__min__energy>  (21) 
-8.6899999999999995

>  <m_primary>  (21) 
energy

$$$$
21:0
     RDKit          3D

 70 74  0  0  0  0  0  0  0  0999 V2000
   -4.6350   14.4280  -31.7330 C   0  0  0  0  0  0  0  0  0  0  0  0
   -3.8290   15.2350  -32.7020 C   0  0  0  0  0  0  0  0  0  0  0  0
   -2.6890   14.8270  -33.3980 C   0  0  0  0  0  0  0  0  0  0  0  0
   -2.0170   13.4910  -33.2470 C   0  0  0  0  0  0  0  0  0  0  0  0
   -2.2120   15.8450  -34.1640 N   0  0  0  0  0  0  0  0  0  0  0  0
   -0.9730   15.8400  -34.9560 C   0  0  0  0  0  0  0  0  0  0  0  0
   -0.2820   17.1740  -34.8640 C   0  0  0  0  0  0  0  0  0  0  0  0
    0.0420   17.8920  -36.0260 C   0  0  0  0  0  0  0  0  0  0  0  0
    0.6780   19.1330  -35.9370 C   0  0  0  0  0  0  0  0  0  0  0  0
    1.0050   19.6790  -34.6830 C   0  0  0  0  0  0  0  0  0  0  0  0
    1.6810   20.9890  -34.5840 C   0  0  0  0  0  0  0  0  0  0  0  0
    1.0080   22.0530  -34.5360 O   0  0  0  0  0  0  0  0  0  0  0  0
    3.0690   21.0650  -34.5430 O   0  0  0  0  0  0  0  0  0  0  0  0
    0.6780   18.9580  -33.5210 C   0  0  0  0  0  0  0  0  0  0  0  0
    0.0360   17.7210  -33.6110 C   0  0  0  0  0  0  0  0  0  0  0  0
   -3.0540   16.8860  -33.9670 C   0  0  0  0  0  0  0  0  0  0  0  0
   -2.9780   18.1770  -34.5050 C   0  0  0  0  0  0  0  0  0  0  0  0
   -3.9720   19.1050  -34.1520 C   0  0  0  0  0  0  0  0  0  0  0  0
   -5.0320   18.7380  -33.2870 C   0  0  0  0  0  0  0  0  0  0  0  0
   -6.0850   19.7210  -32.9540 C   0  0  0  0  0  0  0  0  0  0  0  0
   -6.6910   20.3220  -33.8840 O   0  0  0  0  0  0  0  0  0  0  0  0
   -6.4420   19.9750  -31.5880 N   0  0  0  0  0  0  0  0  0  0  0  0
   -7.2650   21.1170  -31.1970 C   0  0  0  0  0  0  0  0  0  0  0  0
   -6.3950   22.3250  -30.9920 C   0  0  0  0  0  0  0  0  0  0  0  0
   -6.8230   23.5960  -31.4050 C   0  0  0  0  0  0  0  0  0  0  0  0
   -5.9910   24.7060  -31.2350 C   0  0  0  0  0  0  0  0  0  0  0  0
   -4.7230   24.5570  -30.6640 C   0  0  0  0  0  0  0  0  0  0  0  0
   -3.9050   25.6710  -30.5190 O   0  0  0  0  0  0  0  0  0  0  0  0
   -4.2850   23.2880  -30.2490 C   0  0  0  0  0  0  0  0  0  0  0  0
   -2.6660   23.0790  -29.5760 S   0  0  0  0  0  0  0  0  0  0  0  0
   -1.8190   22.3420  -30.5770 O   0  0  0  0  0  0  0  0  0  0  0  0
   -2.0390   24.4200  -29.3030 O   0  0  0  0  0  0  0  0  0  0  0  0
   -2.7680   22.1660  -28.0920 N   0  0  0  0  0  0  0  0  0  0  0  0
   -1.7030   22.5580  -27.1400 C   0  0  0  0  0  0  0  0  0  0  0  0
   -0.6540   21.4490  -26.9340 C   0  0  0  0  0  0  0  0  0  0  0  0
   -1.2240   20.2210  -26.5040 O   0  0  0  0  0  0  0  0  0  0  0  0
   -2.4690   19.9150  -27.1240 C   0  0  0  0  0  0  0  0  0  0  0  0
   -2.7690   20.7250  -28.3960 C   0  0  0  0  0  0  0  0  0  0  0  0
   -5.1260   22.1790  -30.4100 C   0  0  0  0  0  0  0  0  0  0  0  0
   -5.0690   17.4360  -32.7420 C   0  0  0  0  0  0  0  0  0  0  0  0
   -4.0600   16.5390  -33.0980 C   0  0  0  0  0  0  0  0  0  0  0  0
   -4.3580   14.7054  -30.7052 H   0  0  0  0  0  0  0  0  0  0  0  0
   -5.7052   14.6274  -31.8908 H   0  0  0  0  0  0  0  0  0  0  0  0
   -4.4342   13.3580  -31.8908 H   0  0  0  0  0  0  0  0  0  0  0  0
   -1.8999   13.2582  -32.1783 H   0  0  0  0  0  0  0  0  0  0  0  0
   -2.6320   12.7150  -33.7261 H   0  0  0  0  0  0  0  0  0  0  0  0
   -1.0273   13.5221  -33.7261 H   0  0  0  0  0  0  0  0  0  0  0  0
   -0.3016   15.0576  -34.5725 H   0  0  0  0  0  0  0  0  0  0  0  0
   -1.2248   15.6421  -36.0084 H   0  0  0  0  0  0  0  0  0  0  0  0
   -0.2064   17.4749  -37.0131 H   0  0  0  0  0  0  0  0  0  0  0  0
    0.9247   19.6870  -36.8547 H   0  0  0  0  0  0  0  0  0  0  0  0
    0.9298   19.3715  -32.5333 H   0  0  0  0  0  0  0  0  0  0  0  0
   -0.2222   17.1716  -32.6937 H   0  0  0  0  0  0  0  0  0  0  0  0
   -2.1611   18.4571  -35.1863 H   0  0  0  0  0  0  0  0  0  0  0  0
   -3.9266   20.1287  -34.5521 H   0  0  0  0  0  0  0  0  0  0  0  0
   -6.0910   19.3380  -30.8360 H   0  0  0  0  0  0  0  0  0  0  0  0
   -7.9994   21.3260  -31.9888 H   0  0  0  0  0  0  0  0  0  0  0  0
   -7.7885   20.8829  -30.2583 H   0  0  0  0  0  0  0  0  0  0  0  0
   -7.8153   23.7189  -31.8635 H   0  0  0  0  0  0  0  0  0  0  0  0
   -6.3351   25.7016  -31.5518 H   0  0  0  0  0  0  0  0  0  0  0  0
   -1.1965   23.4542  -27.5277 H   0  0  0  0  0  0  0  0  0  0  0  0
   -2.1800   22.7498  -26.1675 H   0  0  0  0  0  0  0  0  0  0  0  0
   -0.1317   21.2787  -27.8870 H   0  0  0  0  0  0  0  0  0  0  0  0
    0.0334   21.7877  -26.1449 H   0  0  0  0  0  0  0  0  0  0  0  0
   -2.4662   18.8477  -27.3901 H   0  0  0  0  0  0  0  0  0  0  0  0
   -3.2513   20.1774  -26.3966 H   0  0  0  0  0  0  0  0  0  0  0  0
   -1.9991   20.5125  -29.1524 H   0  0  0  0  0  0  0  0  0  0  0  0
   -3.7598   20.4391  -28.7788 H   0  0  0  0  0  0  0  0  0  0  0  0
   -4.7891   21.1860  -30.0777 H   0  0  0  0  0  0  0  0  0  0  0  0
   -5.8730   17.1357  -32.0539 H   0  0  0  0  0  0  0  0  0  0  0  0
  1  2  1  0
  2  3  2  0
  3  4  1  0
  3  5  1  0
  5  6  1  0
  6  7  1  0
  7  8  2  0
  8  9  1  0
  9 10  2  0
 10 11  1  0
 11 12  2  0
 11 13  1  0
 10 14  1  0
 14 15  2  0
  5 16  1  0
 16 17  2  0
 17 18  1  0
 18 19  2  0
 19 20  1  0
 20 21  2  0
 20 22  1  0
 22 23  1  0
 23 24  1  0
 24 25  2  0
 25 26  1  0
 26 27  2  0
 27 28  1  0
 27 29  1  0
 29 30  1  0
 30 31  2  0
 30 32  2  0
 30 33  1  0
 33 34  1  0
 34 35  1  0
 35 36  1  0
 36 37  1  0
 37 38  1  0
 29 39  2  0
 19 40  1  0
 40 41  2  0
 41  2  1  0
 15  7  1  0
 41 16  1  0
 39 24  1  0
 38 33  1  0
  1 42  1  0
  1 43  1  0
  1 44  1  0
  4 45  1  0
  4 46  1  0
  4 47  1  0
  6 48  1  0
  6 49  1  0
  8 50  1  0
  9 51  1  0
 14 52  1  0
 15 53  1  0
 17 54  1  0
 18 55  1  0
 22 56  1  0
 23 57  1  0
 23 58  1  0
 25 59  1  0
 26 60  1  0
 34 61  1  0
 34 62  1  0
 35 63  1  0
 35 64  1  0
 37 65  1  0
 37 66  1  0
 38 67  1  0
 38 68  1  0
 39 69  1  0
 40 70  1  0
M  CHG  2  13  -1  28  -1
M  END
>  <UniqueID>  (22) 
21

>  <SMILES>  (22) 
Cc1c(C)n(Cc2ccc(C(=O)[O-])cc2)c2ccc(C(=O)NCc3ccc([O-])c(S(=O)(=O)N4CCOCC4)c3)cc12

>  <Energy>  (22) 
118.8827567362908

>  <Genealogy>  (22) 
Cc1c(C)n(Cc2ccc(C(=O)[O-])cc2)c2ccc(C(=O)NCc3ccc([O-])c(S(=O)(=O)N4CCOCC4)c3)cc12 (protonated)
Cc1c(C)n(Cc2ccc(C(=O)[O-])cc2)c2ccc(C(=O)NCc3ccc([O-])c(S(=O)(=O)N4CCOCC4)c3)cc12 (3D coordinates assigned)
Cc1c(C)n(Cc2ccc(C(=O)[O-])cc2)c2ccc(C(=O)NCc3ccc([O-])c(S(=O)(=O)N4CCOCC4)c3)cc12 (nonaromatic ring conformer: 118.8827567362908 kcal/mol)

>  <smiles>  (22) 
Cc1c(C)n(Cc2ccc(C(=O)O)cc2)c2ccc(C(=O)NCc3ccc(O)c(S(=O)(=O)N4CCOCC4)c3)cc12

>  <score_type>  (22) 
oracle

>  <origin>  (22) 
adgpu

>  <m_score__min__energy>  (22) 
-13.470000000000001

>  <m_primary>  (22) 
energy

$$$$
22:0
     RDKit          3D

 49 51  0  0  0  0  0  0  0  0999 V2000
   -7.0020   18.2730  -33.0960 C   0  0  0  0  0  0  0  0  0  0  0  0
   -8.2450   19.2220  -32.2490 S   0  0  0  0  0  0  0  0  0  0  0  0
   -8.5820   18.5620  -30.9410 O   0  0  0  0  0  0  0  0  0  0  0  0
   -9.4850   19.2760  -33.0970 O   0  0  0  0  0  0  0  0  0  0  0  0
   -7.6380   20.8470  -31.9470 C   0  0  0  0  0  0  0  0  0  0  0  0
   -8.3590   21.7450  -31.1480 C   0  0  0  0  0  0  0  0  0  0  0  0
   -7.8690   23.0340  -30.9200 C   0  0  0  0  0  0  0  0  0  0  0  0
   -6.6550   23.4430  -31.4960 C   0  0  0  0  0  0  0  0  0  0  0  0
   -6.1110   24.8170  -31.2180 C   0  0  0  0  0  0  0  0  0  0  0  0
   -4.7480   24.7170  -30.6140 C   0  0  0  0  0  0  0  0  0  0  0  0
   -3.8970   25.6170  -30.8450 O   0  0  0  0  0  0  0  0  0  0  0  0
   -4.3920   23.5410  -29.8770 N   0  0  0  0  0  0  0  0  0  0  0  0
   -3.0730   23.0020  -29.7010 C   0  0  0  0  0  0  0  0  0  0  0  0
   -2.5700   21.9770  -30.5230 C   0  0  0  0  0  0  0  0  0  0  0  0
   -1.2690   21.5010  -30.3340 C   0  0  0  0  0  0  0  0  0  0  0  0
   -0.4590   22.0480  -29.3350 C   0  0  0  0  0  0  0  0  0  0  0  0
   -0.9460   23.0780  -28.5210 C   0  0  0  0  0  0  0  0  0  0  0  0
    0.0900   23.7900  -27.2880 S   0  0  0  0  0  0  0  0  0  0  0  0
    0.9530   24.8460  -27.9190 O   0  0  0  0  0  0  0  0  0  0  0  0
    0.9820   22.7300  -26.7030 O   0  0  0  0  0  0  0  0  0  0  0  0
   -0.9000   24.5120  -26.0450 N   0  0  0  0  0  0  0  0  0  0  0  0
   -0.1390   24.7220  -24.8140 C   0  0  0  0  0  0  0  0  0  0  0  0
   -0.7850   25.9000  -24.0990 C   0  0  0  0  0  0  0  0  0  0  0  0
   -1.6020   26.6180  -25.1610 C   0  0  0  0  0  0  0  0  0  0  0  0
   -1.3730   25.8350  -26.4440 C   0  0  0  0  0  0  0  0  0  0  0  0
   -2.2470   23.5610  -28.7190 C   0  0  0  0  0  0  0  0  0  0  0  0
   -5.9320   22.5370  -32.2890 C   0  0  0  0  0  0  0  0  0  0  0  0
   -6.4230   21.2500  -32.5180 C   0  0  0  0  0  0  0  0  0  0  0  0
   -6.3532   17.7776  -32.3587 H   0  0  0  0  0  0  0  0  0  0  0  0
   -7.4870   17.5133  -33.7266 H   0  0  0  0  0  0  0  0  0  0  0  0
   -6.3970   18.9411  -33.7266 H   0  0  0  0  0  0  0  0  0  0  0  0
   -9.3138   21.4342  -30.6988 H   0  0  0  0  0  0  0  0  0  0  0  0
   -8.4368   23.7314  -30.2865 H   0  0  0  0  0  0  0  0  0  0  0  0
   -6.0510   25.3820  -32.1599 H   0  0  0  0  0  0  0  0  0  0  0  0
   -6.7799   25.3334  -30.5138 H   0  0  0  0  0  0  0  0  0  0  0  0
   -3.2014   21.5493  -31.3158 H   0  0  0  0  0  0  0  0  0  0  0  0
   -0.8819   20.6938  -30.9733 H   0  0  0  0  0  0  0  0  0  0  0  0
    0.5630   21.6687  -29.1879 H   0  0  0  0  0  0  0  0  0  0  0  0
   -0.1844   23.8230  -24.1817 H   0  0  0  0  0  0  0  0  0  0  0  0
    0.9204   24.9227  -25.0319 H   0  0  0  0  0  0  0  0  0  0  0  0
   -1.4363   25.5466  -23.2860 H   0  0  0  0  0  0  0  0  0  0  0  0
   -0.0351   26.5626  -23.6423 H   0  0  0  0  0  0  0  0  0  0  0  0
   -2.6689   26.6148  -24.8933 H   0  0  0  0  0  0  0  0  0  0  0  0
   -1.3022   27.6712  -25.2653 H   0  0  0  0  0  0  0  0  0  0  0  0
   -2.3130   25.7479  -27.0087 H   0  0  0  0  0  0  0  0  0  0  0  0
   -0.6415   26.3396  -27.0922 H   0  0  0  0  0  0  0  0  0  0  0  0
   -2.6222   24.3869  -28.0969 H   0  0  0  0  0  0  0  0  0  0  0  0
   -4.9730   22.8431  -32.7325 H   0  0  0  0  0  0  0  0  0  0  0  0
   -5.8546   20.5503  -33.1484 H   0  0  0  0  0  0  0  0  0  0  0  0
  1  2  1  0
  2  3  2  0
  2  4  2  0
  2  5  1  0
  5  6  2  0
  6  7  1  0
  7  8  2  0
  8  9  1  0
  9 10  1  0
 10 11  2  0
 10 12  1  0
 12 13  1  0
 13 14  2  0
 14 15  1  0
 15 16  2  0
 16 17  1  0
 17 18  1  0
 18 19  2  0
 18 20  2  0
 18 21  1  0
 21 22  1  0
 22 23  1  0
 23 24  1  0
 24 25  1  0
 17 26  2  0
  8 27  1  0
 27 28  2  0
 28  5  1  0
 26 13  1  0
 25 21  1  0
  1 29  1  0
  1 30  1  0
  1 31  1  0
  6 32  1  0
  7 33  1  0
  9 34  1  0
  9 35  1  0
 14 36  1  0
 15 37  1  0
 16 38  1  0
 22 39  1  0
 22 40  1  0
 23 41  1  0
 23 42  1  0
 24 43  1  0
 24 44  1  0
 25 45  1  0
 25 46  1  0
 26 47  1  0
 27 48  1  0
 28 49  1  0
M  CHG  1  12  -1
M  END
>  <UniqueID>  (23) 
22

>  <SMILES>  (23) 
CS(=O)(=O)c1ccc(CC(=O)[N-]c2cccc(S(=O)(=O)N3CCCC3)c2)cc1

>  <Energy>  (23) 
49.21539511156105

>  <Genealogy>  (23) 
CS(=O)(=O)c1ccc(CC(=O)[N-]c2cccc(S(=O)(=O)N3CCCC3)c2)cc1 (protonated)
CS(=O)(=O)c1ccc(CC(=O)[N-]c2cccc(S(=O)(=O)N3CCCC3)c2)cc1 (3D coordinates assigned)
CS(=O)(=O)c1ccc(CC(=O)[N-]c2cccc(S(=O)(=O)N3CCCC3)c2)cc1 (nonaromatic ring conformer: 49.21539511156105 kcal/mol)

>  <smiles>  (23) 
CS(=O)(=O)c1ccc(CC(=O)Nc2cccc(S(=O)(=O)N3CCCC3)c2)cc1

>  <score_type>  (23) 
oracle

>  <origin>  (23) 
adgpu

>  <m_score__min__energy>  (23) 
-11.289999999999999

>  <m_primary>  (23) 
energy

$$$$
23:0
     RDKit          3D

 60 64  0  0  0  0  0  0  0  0999 V2000
    1.5080   23.8670  -24.2820 C   0  0  0  0  0  0  0  0  0  0  0  0
    1.8370   24.9700  -25.2030 N   0  0  0  0  0  0  0  0  0  0  0  0
    2.2740   24.4690  -26.5340 C   0  0  0  0  0  0  0  0  0  0  0  0
    1.3110   24.8060  -27.6890 C   0  0  0  0  0  0  0  0  0  0  0  0
   -0.0780   24.7370  -27.2310 N   0  0  0  0  0  0  0  0  0  0  0  0
   -1.0900   24.1910  -28.0880 C   0  0  0  0  0  0  0  0  0  0  0  0
   -1.8350   25.0380  -28.9210 C   0  0  0  0  0  0  0  0  0  0  0  0
   -1.5940   26.4080  -28.9230 O   0  0  0  0  0  0  0  0  0  0  0  0
   -2.8280   24.5130  -29.7520 C   0  0  0  0  0  0  0  0  0  0  0  0
   -3.0860   23.1320  -29.7680 C   0  0  0  0  0  0  0  0  0  0  0  0
   -4.1160   22.5540  -30.6620 C   0  0  0  0  0  0  0  0  0  0  0  0
   -3.7900   22.2290  -31.8360 O   0  0  0  0  0  0  0  0  0  0  0  0
   -5.4740   22.3800  -30.2170 N   0  0  0  0  0  0  0  0  0  0  0  0
   -6.4770   21.6790  -30.9720 C   0  0  0  0  0  0  0  0  0  0  0  0
   -7.7910   22.1660  -30.9860 C   0  0  0  0  0  0  0  0  0  0  0  0
   -8.7830   21.4920  -31.6960 C   0  0  0  0  0  0  0  0  0  0  0  0
   -8.4810   20.3170  -32.3870 C   0  0  0  0  0  0  0  0  0  0  0  0
   -7.1750   19.7930  -32.3690 C   0  0  0  0  0  0  0  0  0  0  0  0
   -6.8560   18.5340  -33.0900 C   0  0  0  0  0  0  0  0  0  0  0  0
   -7.1980   17.2410  -32.7360 C   0  0  0  0  0  0  0  0  0  0  0  0
   -6.7150   16.3870  -33.6560 N   0  0  0  0  0  0  0  0  0  0  0  0
   -6.0750   17.0830  -34.5840 N   0  0  0  0  0  0  0  0  0  0  0  0
   -6.1450   18.3880  -34.2680 C   0  0  0  0  0  0  0  0  0  0  0  0
   -6.1800   20.4800  -31.6470 C   0  0  0  0  0  0  0  0  0  0  0  0
   -2.3280   22.2850  -28.9430 C   0  0  0  0  0  0  0  0  0  0  0  0
   -1.3470   22.8100  -28.0850 C   0  0  0  0  0  0  0  0  0  0  0  0
   -0.5760   21.9760  -27.2610 O   0  0  0  0  0  0  0  0  0  0  0  0
   -0.5320   20.5750  -27.3390 C   0  0  0  0  0  0  0  0  0  0  0  0
    0.4840   19.8980  -28.0400 C   0  0  0  0  0  0  0  0  0  0  0  0
    0.4780   18.5020  -28.1140 C   0  0  0  0  0  0  0  0  0  0  0  0
   -0.5420   17.7720  -27.4950 C   0  0  0  0  0  0  0  0  0  0  0  0
   -1.5600   18.4400  -26.8070 C   0  0  0  0  0  0  0  0  0  0  0  0
   -1.5600   19.8370  -26.7390 C   0  0  0  0  0  0  0  0  0  0  0  0
   -0.4800   25.4360  -26.0080 C   0  0  0  0  0  0  0  0  0  0  0  0
    0.7500   25.9740  -25.2630 C   0  0  0  0  0  0  0  0  0  0  0  0
    1.6114   24.2136  -23.2432 H   0  0  0  0  0  0  0  0  0  0  0  0
    0.4729   23.5389  -24.4578 H   0  0  0  0  0  0  0  0  0  0  0  0
    2.1942   23.0255  -24.4578 H   0  0  0  0  0  0  0  0  0  0  0  0
    3.2545   24.9119  -26.7633 H   0  0  0  0  0  0  0  0  0  0  0  0
    2.3052   23.3718  -26.4615 H   0  0  0  0  0  0  0  0  0  0  0  0
    1.5228   25.8223  -28.0529 H   0  0  0  0  0  0  0  0  0  0  0  0
    1.4564   24.0768  -28.4996 H   0  0  0  0  0  0  0  0  0  0  0  0
   -3.4116   25.1854  -30.3980 H   0  0  0  0  0  0  0  0  0  0  0  0
   -5.7740   22.8140  -29.3170 H   0  0  0  0  0  0  0  0  0  0  0  0
   -8.0405   23.0843  -30.4342 H   0  0  0  0  0  0  0  0  0  0  0  0
   -9.8092   21.8878  -31.7120 H   0  0  0  0  0  0  0  0  0  0  0  0
   -9.2700   19.7968  -32.9499 H   0  0  0  0  0  0  0  0  0  0  0  0
   -7.7740   16.9564  -31.8431 H   0  0  0  0  0  0  0  0  0  0  0  0
   -5.7064   19.2096  -34.8534 H   0  0  0  0  0  0  0  0  0  0  0  0
   -5.1581   20.0746  -31.6101 H   0  0  0  0  0  0  0  0  0  0  0  0
   -2.5042   21.1995  -28.9688 H   0  0  0  0  0  0  0  0  0  0  0  0
    1.2853   20.4695  -28.5312 H   0  0  0  0  0  0  0  0  0  0  0  0
    1.2761   17.9772  -28.6595 H   0  0  0  0  0  0  0  0  0  0  0  0
   -0.5435   16.6733  -27.5493 H   0  0  0  0  0  0  0  0  0  0  0  0
   -2.3615   17.8661  -26.3189 H   0  0  0  0  0  0  0  0  0  0  0  0
   -2.3719   20.3589  -26.2114 H   0  0  0  0  0  0  0  0  0  0  0  0
   -1.1388   26.2764  -26.2720 H   0  0  0  0  0  0  0  0  0  0  0  0
   -1.0094   24.7283  -25.3531 H   0  0  0  0  0  0  0  0  0  0  0  0
    1.1197   26.8688  -25.7851 H   0  0  0  0  0  0  0  0  0  0  0  0
    0.4486   26.2148  -24.2329 H   0  0  0  0  0  0  0  0  0  0  0  0
  1  2  1  0
  2  3  1  0
  3  4  1  0
  4  5  1  0
  5  6  1  0
  6  7  2  0
  7  8  1  0
  7  9  1  0
  9 10  2  0
 10 11  1  0
 11 12  2  0
 11 13  1  0
 13 14  1  0
 14 15  2  0
 15 16  1  0
 16 17  2  0
 17 18  1  0
 18 19  1  0
 19 20  1  0
 20 21  2  0
 21 22  1  0
 22 23  1  0
 18 24  2  0
 10 25  1  0
 25 26  2  0
 26 27  1  0
 27 28  1  0
 28 29  2  0
 29 30  1  0
 30 31  2  0
 31 32  1  0
 32 33  2  0
  5 34  1  0
 34 35  1  0
 35  2  1  0
 26  6  1  0
 33 28  1  0
 24 14  1  0
 23 19  2  0
  1 36  1  0
  1 37  1  0
  1 38  1  0
  3 39  1  0
  3 40  1  0
  4 41  1  0
  4 42  1  0
  9 43  1  0
 13 44  1  0
 15 45  1  0
 16 46  1  0
 17 47  1  0
 20 48  1  0
 23 49  1  0
 24 50  1  0
 25 51  1  0
 29 52  1  0
 30 53  1  0
 31 54  1  0
 32 55  1  0
 33 56  1  0
 34 57  1  0
 34 58  1  0
 35 59  1  0
 35 60  1  0
M  CHG  2   8  -1  22  -1
M  END
>  <UniqueID>  (24) 
23

>  <SMILES>  (24) 
CN1CCN(c2c([O-])cc(C(=O)Nc3cccc(-c4cn[n-]c4)c3)cc2Oc2ccccc2)CC1

>  <Energy>  (24) 
123.03898005576988

>  <Genealogy>  (24) 
CN1CCN(c2c([O-])cc(C(=O)Nc3cccc(-c4cn[n-]c4)c3)cc2Oc2ccccc2)CC1 (protonated)
CN1CCN(c2c([O-])cc(C(=O)Nc3cccc(-c4cn[n-]c4)c3)cc2Oc2ccccc2)CC1 (3D coordinates assigned)
CN1CCN(c2c([O-])cc(C(=O)Nc3cccc(-c4cn[n-]c4)c3)cc2Oc2ccccc2)CC1 (nonaromatic ring conformer: 123.03898005576988 kcal/mol)

>  <smiles>  (24) 
CN1CCN(c2c(O)cc(C(=O)Nc3cccc(-c4cn[nH]c4)c3)cc2Oc2ccccc2)CC1

>  <score_type>  (24) 
oracle

>  <origin>  (24) 
adgpu

>  <m_score__min__energy>  (24) 
-11.800000000000001

>  <m_primary>  (24) 
energy

$$$$
24:0
     RDKit          3D

 45 47  0  0  0  0  0  0  0  0999 V2000
   -3.0220   21.1050  -33.5730 N   0  0  0  0  0  0  0  0  0  0  0  0
   -1.6300   20.7760  -33.4760 C   0  0  0  0  0  0  0  0  0  0  0  0
   -0.7880   21.0140  -34.5730 C   0  0  0  0  0  0  0  0  0  0  0  0
    0.5720   20.6860  -34.5120 C   0  0  0  0  0  0  0  0  0  0  0  0
    1.6140   20.9280  -35.9150 S   0  0  0  0  0  0  0  0  0  0  0  0
    2.9730   20.3490  -35.6340 O   0  0  0  0  0  0  0  0  0  0  0  0
    1.0320   20.1970  -37.0930 O   0  0  0  0  0  0  0  0  0  0  0  0
    1.7720   22.6230  -36.3070 N   0  0  0  0  0  0  0  0  0  0  0  0
    2.9930   23.1780  -35.6860 C   0  0  0  0  0  0  0  0  0  0  0  0
    3.0340   24.7230  -35.7430 C   0  0  0  0  0  0  0  0  0  0  0  0
    2.0250   25.2800  -36.7500 C   0  0  0  0  0  0  0  0  0  0  0  0
    0.5990   24.7970  -36.4300 C   0  0  0  0  0  0  0  0  0  0  0  0
    0.5760   23.3630  -35.8700 C   0  0  0  0  0  0  0  0  0  0  0  0
    1.1000   20.1440  -33.3350 C   0  0  0  0  0  0  0  0  0  0  0  0
    0.2700   19.9040  -32.2390 C   0  0  0  0  0  0  0  0  0  0  0  0
   -1.1040   20.1900  -32.3080 C   0  0  0  0  0  0  0  0  0  0  0  0
   -1.9690   19.9170  -31.1940 N   0  0  0  0  0  0  0  0  0  0  0  0
   -2.9550   20.8110  -30.6580 C   0  0  0  0  0  0  0  0  0  0  0  0
   -4.1380   20.3980  -30.5340 O   0  0  0  0  0  0  0  0  0  0  0  0
   -2.6110   22.1800  -30.2060 C   0  0  0  0  0  0  0  0  0  0  0  0
   -1.4630   22.3960  -29.4240 C   0  0  0  0  0  0  0  0  0  0  0  0
   -1.1370   23.6830  -28.9850 C   0  0  0  0  0  0  0  0  0  0  0  0
   -1.9470   24.7690  -29.3290 C   0  0  0  0  0  0  0  0  0  0  0  0
   -1.6200   26.0440  -28.8850 O   0  0  0  0  0  0  0  0  0  0  0  0
   -3.0830   24.5690  -30.1210 C   0  0  0  0  0  0  0  0  0  0  0  0
   -3.8890   25.6450  -30.4730 O   0  0  0  0  0  0  0  0  0  0  0  0
   -3.4090   23.2820  -30.5650 C   0  0  0  0  0  0  0  0  0  0  0  0
   -3.4150   21.5720  -34.4190 H   0  0  0  0  0  0  0  0  0  0  0  0
   -3.6770   20.8820  -32.7900 H   0  0  0  0  0  0  0  0  0  0  0  0
   -1.2000   21.4623  -35.4891 H   0  0  0  0  0  0  0  0  0  0  0  0
    3.0283   22.8624  -34.6328 H   0  0  0  0  0  0  0  0  0  0  0  0
    3.8579   22.7987  -36.2499 H   0  0  0  0  0  0  0  0  0  0  0  0
    2.7995   25.1227  -34.7454 H   0  0  0  0  0  0  0  0  0  0  0  0
    4.0414   25.0274  -36.0633 H   0  0  0  0  0  0  0  0  0  0  0  0
    2.0490   26.3791  -36.7123 H   0  0  0  0  0  0  0  0  0  0  0  0
    2.2985   24.9217  -37.7534 H   0  0  0  0  0  0  0  0  0  0  0  0
    0.1557   25.4741  -35.6851 H   0  0  0  0  0  0  0  0  0  0  0  0
    0.0259   24.7993  -37.3689 H   0  0  0  0  0  0  0  0  0  0  0  0
    0.5559   23.4032  -34.7709 H   0  0  0  0  0  0  0  0  0  0  0  0
   -0.3202   22.8472  -36.2453 H   0  0  0  0  0  0  0  0  0  0  0  0
    2.1723   19.9064  -33.2734 H   0  0  0  0  0  0  0  0  0  0  0  0
    0.6948   19.4876  -31.3137 H   0  0  0  0  0  0  0  0  0  0  0  0
   -0.8169   21.5471  -29.1557 H   0  0  0  0  0  0  0  0  0  0  0  0
   -0.2407   23.8412  -28.3673 H   0  0  0  0  0  0  0  0  0  0  0  0
   -4.2952   23.1311  -31.1990 H   0  0  0  0  0  0  0  0  0  0  0  0
  1  2  1  0
  2  3  2  0
  3  4  1  0
  4  5  1  0
  5  6  2  0
  5  7  2  0
  5  8  1  0
  8  9  1  0
  9 10  1  0
 10 11  1  0
 11 12  1  0
 12 13  1  0
  4 14  2  0
 14 15  1  0
 15 16  2  0
 16 17  1  0
 17 18  1  0
 18 19  2  0
 18 20  1  0
 20 21  2  0
 21 22  1  0
 22 23  2  0
 23 24  1  0
 23 25  1  0
 25 26  1  0
 25 27  2  0
 16  2  1  0
 27 20  1  0
 13  8  1  0
  1 28  1  0
  1 29  1  0
  3 30  1  0
  9 31  1  0
  9 32  1  0
 10 33  1  0
 10 34  1  0
 11 35  1  0
 11 36  1  0
 12 37  1  0
 12 38  1  0
 13 39  1  0
 13 40  1  0
 14 41  1  0
 15 42  1  0
 21 43  1  0
 22 44  1  0
 27 45  1  0
M  CHG  3  17  -1  24  -1  26  -1
M  END
>  <UniqueID>  (25) 
24

>  <SMILES>  (25) 
Nc1cc(S(=O)(=O)N2CCCCC2)ccc1[N-]C(=O)c1ccc([O-])c([O-])c1

>  <Energy>  (25) 
55.39420447635774

>  <Genealogy>  (25) 
Nc1cc(S(=O)(=O)N2CCCCC2)ccc1[N-]C(=O)c1ccc([O-])c([O-])c1 (protonated)
Nc1cc(S(=O)(=O)N2CCCCC2)ccc1[N-]C(=O)c1ccc([O-])c([O-])c1 (3D coordinates assigned)
Nc1cc(S(=O)(=O)N2CCCCC2)ccc1[N-]C(=O)c1ccc([O-])c([O-])c1 (nonaromatic ring conformer: 55.39420447635774 kcal/mol)

>  <smiles>  (25) 
Nc1cc(S(=O)(=O)N2CCCCC2)ccc1NC(=O)c1ccc(O)c(O)c1

>  <score_type>  (25) 
oracle

>  <origin>  (25) 
adgpu

>  <m_score__min__energy>  (25) 
-12.92

>  <m_primary>  (25) 
energy

$$$$
25:0
     RDKit          3D

 66 69  0  0  0  0  0  0  0  0999 V2000
   -7.1460   19.2040  -32.0980 C   0  0  0  0  0  0  0  0  0  0  0  0
   -6.7560   20.6580  -32.0650 C   0  0  0  0  0  0  0  0  0  0  0  0
   -7.7720   21.6100  -31.8880 C   0  0  0  0  0  0  0  0  0  0  0  0
   -7.4800   22.9700  -31.8260 C   0  0  0  0  0  0  0  0  0  0  0  0
   -6.1560   23.4170  -31.9440 C   0  0  0  0  0  0  0  0  0  0  0  0
   -5.8010   24.8050  -31.8310 N   0  0  0  0  0  0  0  0  0  0  0  0
   -5.1620   25.5050  -30.7520 C   0  0  0  0  0  0  0  0  0  0  0  0
   -5.7890   26.3420  -30.0560 O   0  0  0  0  0  0  0  0  0  0  0  0
   -3.7810   25.2620  -30.4630 N   0  0  0  0  0  0  0  0  0  0  0  0
   -3.2690   24.7630  -29.2190 C   0  0  0  0  0  0  0  0  0  0  0  0
   -4.1410   24.1120  -28.3380 C   0  0  0  0  0  0  0  0  0  0  0  0
   -3.6720   23.6070  -27.1230 C   0  0  0  0  0  0  0  0  0  0  0  0
   -2.3220   23.7340  -26.7840 C   0  0  0  0  0  0  0  0  0  0  0  0
   -1.4300   24.3540  -27.6690 C   0  0  0  0  0  0  0  0  0  0  0  0
    0.2770   24.5230  -27.2600 S   0  0  0  0  0  0  0  0  0  0  0  0
    0.7230   23.3540  -26.4260 O   0  0  0  0  0  0  0  0  0  0  0  0
    1.0740   24.5350  -28.5350 O   0  0  0  0  0  0  0  0  0  0  0  0
    0.5320   26.0220  -26.3930 N   0  0  0  0  0  0  0  0  0  0  0  0
   -0.6600   26.8710  -26.4640 C   0  0  0  0  0  0  0  0  0  0  0  0
   -1.5160   26.5880  -25.2390 C   0  0  0  0  0  0  0  0  0  0  0  0
   -0.6050   25.8680  -24.2630 C   0  0  0  0  0  0  0  0  0  0  0  0
    0.7410   25.7610  -24.9650 C   0  0  0  0  0  0  0  0  0  0  0  0
   -1.9040   24.8590  -28.8880 C   0  0  0  0  0  0  0  0  0  0  0  0
   -5.1330   22.4800  -32.1810 C   0  0  0  0  0  0  0  0  0  0  0  0
   -3.8180   22.9160  -32.3690 O   0  0  0  0  0  0  0  0  0  0  0  0
   -5.4130   21.0970  -32.2230 C   0  0  0  0  0  0  0  0  0  0  0  0
   -4.0340   19.9830  -32.4210 S   0  0  0  0  0  0  0  0  0  0  0  0
   -3.4140   20.2210  -33.7700 O   0  0  0  0  0  0  0  0  0  0  0  0
   -4.4330   18.5370  -32.3410 O   0  0  0  0  0  0  0  0  0  0  0  0
   -2.8220   20.3270  -31.1410 C   0  0  0  0  0  0  0  0  0  0  0  0
   -3.4850   20.9720  -29.9210 C   0  0  0  0  0  0  0  0  0  0  0  0
   -2.4600   21.1890  -28.7890 C   0  0  0  0  0  0  0  0  0  0  0  0
   -1.1060   21.5830  -29.2600 N   0  0  0  0  0  0  0  0  0  0  0  0
   -0.1140   20.5040  -29.1100 C   0  0  0  0  0  0  0  0  0  0  0  0
   -1.0940   22.1610  -30.6190 C   0  0  0  0  0  0  0  0  0  0  0  0
   -1.6750   21.2060  -31.6820 C   0  0  0  0  0  0  0  0  0  0  0  0
   -7.2469   18.8280  -31.0692 H   0  0  0  0  0  0  0  0  0  0  0  0
   -8.1055   19.0936  -32.6245 H   0  0  0  0  0  0  0  0  0  0  0  0
   -6.3705   18.6282  -32.6245 H   0  0  0  0  0  0  0  0  0  0  0  0
   -8.8162   21.2762  -31.7968 H   0  0  0  0  0  0  0  0  0  0  0  0
   -8.2924   23.6979  -31.6837 H   0  0  0  0  0  0  0  0  0  0  0  0
   -5.2021   23.9975  -28.6043 H   0  0  0  0  0  0  0  0  0  0  0  0
   -4.3668   23.1082  -26.4313 H   0  0  0  0  0  0  0  0  0  0  0  0
   -1.9591   23.3465  -25.8206 H   0  0  0  0  0  0  0  0  0  0  0  0
   -0.3632   27.9301  -26.4747 H   0  0  0  0  0  0  0  0  0  0  0  0
   -1.2263   26.6563  -27.3822 H   0  0  0  0  0  0  0  0  0  0  0  0
   -1.8820   27.5282  -24.8007 H   0  0  0  0  0  0  0  0  0  0  0  0
   -2.4008   25.9850  -25.4909 H   0  0  0  0  0  0  0  0  0  0  0  0
   -0.5077   26.4445  -23.3313 H   0  0  0  0  0  0  0  0  0  0  0  0
   -1.0015   24.8793  -23.9886 H   0  0  0  0  0  0  0  0  0  0  0  0
    1.4387   26.5025  -24.5486 H   0  0  0  0  0  0  0  0  0  0  0  0
    1.1681   24.7578  -24.8194 H   0  0  0  0  0  0  0  0  0  0  0  0
   -1.2040   25.3339  -29.5912 H   0  0  0  0  0  0  0  0  0  0  0  0
   -3.4640   23.7800  -31.9800 H   0  0  0  0  0  0  0  0  0  0  0  0
   -2.3853   19.3692  -30.8218 H   0  0  0  0  0  0  0  0  0  0  0  0
   -3.9099   21.9436  -30.2134 H   0  0  0  0  0  0  0  0  0  0  0  0
   -4.2765   20.3014  -29.5551 H   0  0  0  0  0  0  0  0  0  0  0  0
   -2.8393   21.9818  -28.1275 H   0  0  0  0  0  0  0  0  0  0  0  0
   -2.3472   20.2229  -28.2753 H   0  0  0  0  0  0  0  0  0  0  0  0
    0.0614   20.3132  -28.0410 H   0  0  0  0  0  0  0  0  0  0  0  0
   -0.4926   19.5887  -29.5885 H   0  0  0  0  0  0  0  0  0  0  0  0
    0.8298   20.8045  -29.5885 H   0  0  0  0  0  0  0  0  0  0  0  0
   -1.6912   23.0847  -30.6129 H   0  0  0  0  0  0  0  0  0  0  0  0
   -0.0447   22.3541  -30.8866 H   0  0  0  0  0  0  0  0  0  0  0  0
   -2.0589   21.8063  -32.5200 H   0  0  0  0  0  0  0  0  0  0  0  0
   -0.8646   20.5321  -31.9967 H   0  0  0  0  0  0  0  0  0  0  0  0
  1  2  1  0
  2  3  2  0
  3  4  1  0
  4  5  2  0
  5  6  1  0
  6  7  1  0
  7  8  2  0
  7  9  1  0
  9 10  1  0
 10 11  2  0
 11 12  1  0
 12 13  2  0
 13 14  1  0
 14 15  1  0
 15 16  2  0
 15 17  2  0
 15 18  1  0
 18 19  1  0
 19 20  1  0
 20 21  1  0
 21 22  1  0
 14 23  2  0
  5 24  1  0
 24 25  1  0
 24 26  2  0
 26 27  1  0
 27 28  2  0
 27 29  2  0
 27 30  1  0
 30 31  1  0
 31 32  1  0
 32 33  1  0
 33 34  1  0
 33 35  1  0
 35 36  1  0
 26  2  1  0
 36 30  1  0
 23 10  1  0
 22 18  1  0
  1 37  1  0
  1 38  1  0
  1 39  1  0
  3 40  1  0
  4 41  1  0
 11 42  1  0
 12 43  1  0
 13 44  1  0
 19 45  1  0
 19 46  1  0
 20 47  1  0
 20 48  1  0
 21 49  1  0
 21 50  1  0
 22 51  1  0
 22 52  1  0
 23 53  1  0
 25 54  1  0
 30 55  1  0
 31 56  1  0
 31 57  1  0
 32 58  1  0
 32 59  1  0
 34 60  1  0
 34 61  1  0
 34 62  1  0
 35 63  1  0
 35 64  1  0
 36 65  1  0
 36 66  1  0
M  CHG  2   6  -1   9  -1
M  END
>  <UniqueID>  (26) 
25

>  <SMILES>  (26) 
Cc1ccc([N-]C(=O)[N-]c2cccc(S(=O)(=O)N3CCCC3)c2)c(O)c1S(=O)(=O)C1CCN(C)CC1

>  <Energy>  (26) 
81.89619492326186

>  <Genealogy>  (26) 
Cc1ccc([N-]C(=O)[N-]c2cccc(S(=O)(=O)N3CCCC3)c2)c(O)c1S(=O)(=O)C1CCN(C)CC1 (protonated)
Cc1ccc([N-]C(=O)[N-]c2cccc(S(=O)(=O)N3CCCC3)c2)c(O)c1S(=O)(=O)C1CCN(C)CC1 (3D coordinates assigned)
Cc1ccc([N-]C(=O)[N-]c2cccc(S(=O)(=O)N3CCCC3)c2)c(O)c1S(=O)(=O)C1CCN(C)CC1 (nonaromatic ring conformer: 81.89619492326186 kcal/mol)

>  <smiles>  (26) 
Cc1ccc(NC(=O)Nc2cccc(S(=O)(=O)N3CCCC3)c2)c(O)c1S(=O)(=O)C1CCN(C)CC1

>  <score_type>  (26) 
oracle

>  <origin>  (26) 
adgpu

>  <m_score__min__energy>  (26) 
-13.859999999999999

>  <m_primary>  (26) 
energy

$$$$
26:0
     RDKit          3D

 51 54  0  0  0  0  0  0  0  0999 V2000
   -4.9390   18.4920  -33.8550 C   0  0  0  0  0  0  0  0  0  0  0  0
   -5.8190   18.4710  -32.6440 C   0  0  0  0  0  0  0  0  0  0  0  0
   -5.6580   17.5600  -31.7880 O   0  0  0  0  0  0  0  0  0  0  0  0
   -6.7960   19.5030  -32.4120 N   0  0  0  0  0  0  0  0  0  0  0  0
   -8.1990   19.2290  -32.7410 C   0  0  0  0  0  0  0  0  0  0  0  0
   -9.0940   19.6990  -31.5960 C   0  0  0  0  0  0  0  0  0  0  0  0
   -8.9120   21.2000  -31.3530 C   0  0  0  0  0  0  0  0  0  0  0  0
   -7.4580   21.6020  -31.2810 C   0  0  0  0  0  0  0  0  0  0  0  0
   -7.1260   22.8530  -30.7410 C   0  0  0  0  0  0  0  0  0  0  0  0
   -5.8030   23.3120  -30.7660 C   0  0  0  0  0  0  0  0  0  0  0  0
   -5.3930   24.9140  -30.1580 S   0  0  0  0  0  0  0  0  0  0  0  0
   -4.5300   25.6580  -31.1390 O   0  0  0  0  0  0  0  0  0  0  0  0
   -6.6630   25.6870  -29.9420 O   0  0  0  0  0  0  0  0  0  0  0  0
   -4.5470   24.7630  -28.6510 N   0  0  0  0  0  0  0  0  0  0  0  0
   -3.3970   23.9140  -28.4810 C   0  0  0  0  0  0  0  0  0  0  0  0
   -3.5270   22.6080  -27.9730 C   0  0  0  0  0  0  0  0  0  0  0  0
   -2.3980   21.8000  -27.7860 C   0  0  0  0  0  0  0  0  0  0  0  0
   -1.1260   22.2910  -28.1110 C   0  0  0  0  0  0  0  0  0  0  0  0
   -0.9890   23.5860  -28.6290 C   0  0  0  0  0  0  0  0  0  0  0  0
   -2.1160   24.3910  -28.8190 C   0  0  0  0  0  0  0  0  0  0  0  0
   -1.9540   25.6740  -29.3300 O   0  0  0  0  0  0  0  0  0  0  0  0
    0.0690   21.4140  -27.8640 C   0  0  0  0  0  0  0  0  0  0  0  0
   -0.2250   19.9840  -28.3440 C   0  0  0  0  0  0  0  0  0  0  0  0
   -1.5730   19.4110  -27.8320 C   0  0  0  0  0  0  0  0  0  0  0  0
   -2.5090   20.4370  -27.1560 C   0  0  0  0  0  0  0  0  0  0  0  0
   -4.8090   22.5210  -31.3480 C   0  0  0  0  0  0  0  0  0  0  0  0
   -5.1270   21.2770  -31.8950 C   0  0  0  0  0  0  0  0  0  0  0  0
   -6.4490   20.7930  -31.8520 C   0  0  0  0  0  0  0  0  0  0  0  0
   -3.8848   18.5172  -33.5418 H   0  0  0  0  0  0  0  0  0  0  0  0
   -5.1214   17.5892  -34.4565 H   0  0  0  0  0  0  0  0  0  0  0  0
   -5.1642   19.3850  -34.4565 H   0  0  0  0  0  0  0  0  0  0  0  0
   -8.4707   19.7654  -33.6621 H   0  0  0  0  0  0  0  0  0  0  0  0
   -8.3350   18.1478  -32.8913 H   0  0  0  0  0  0  0  0  0  0  0  0
  -10.1448   19.4988  -31.8525 H   0  0  0  0  0  0  0  0  0  0  0  0
   -8.8161   19.1547  -30.6814 H   0  0  0  0  0  0  0  0  0  0  0  0
   -9.3901   21.7512  -32.1762 H   0  0  0  0  0  0  0  0  0  0  0  0
   -9.3736   21.4401  -30.3838 H   0  0  0  0  0  0  0  0  0  0  0  0
   -7.9118   23.4794  -30.2937 H   0  0  0  0  0  0  0  0  0  0  0  0
   -4.9960   25.1940  -27.8130 H   0  0  0  0  0  0  0  0  0  0  0  0
   -4.5241   22.2181  -27.7205 H   0  0  0  0  0  0  0  0  0  0  0  0
    0.0089   23.9704  -28.8870 H   0  0  0  0  0  0  0  0  0  0  0  0
    0.9343   21.8128  -28.4138 H   0  0  0  0  0  0  0  0  0  0  0  0
    0.2896   21.3967  -26.7865 H   0  0  0  0  0  0  0  0  0  0  0  0
   -0.2453   19.9856  -29.4438 H   0  0  0  0  0  0  0  0  0  0  0  0
    0.5693   19.3417  -27.9359 H   0  0  0  0  0  0  0  0  0  0  0  0
   -2.1067   18.9775  -28.6907 H   0  0  0  0  0  0  0  0  0  0  0  0
   -1.3168   18.6741  -27.0566 H   0  0  0  0  0  0  0  0  0  0  0  0
   -3.5474   20.0860  -27.2488 H   0  0  0  0  0  0  0  0  0  0  0  0
   -2.2124   20.5246  -26.1004 H   0  0  0  0  0  0  0  0  0  0  0  0
   -3.7699   22.8808  -31.3752 H   0  0  0  0  0  0  0  0  0  0  0  0
   -4.3387   20.6695  -32.3636 H   0  0  0  0  0  0  0  0  0  0  0  0
  1  2  1  0
  2  3  2  0
  2  4  1  0
  4  5  1  0
  5  6  1  0
  6  7  1  0
  7  8  1  0
  8  9  2  0
  9 10  1  0
 10 11  1  0
 11 12  2  0
 11 13  2  0
 11 14  1  0
 14 15  1  0
 15 16  2  0
 16 17  1  0
 17 18  2  0
 18 19  1  0
 19 20  2  0
 20 21  1  0
 18 22  1  0
 22 23  1  0
 23 24  1  0
 24 25  1  0
 10 26  2  0
 26 27  1  0
 27 28  2  0
 28  4  1  0
 28  8  1  0
 20 15  1  0
 25 17  1  0
  1 29  1  0
  1 30  1  0
  1 31  1  0
  5 32  1  0
  5 33  1  0
  6 34  1  0
  6 35  1  0
  7 36  1  0
  7 37  1  0
  9 38  1  0
 14 39  1  0
 16 40  1  0
 19 41  1  0
 22 42  1  0
 22 43  1  0
 23 44  1  0
 23 45  1  0
 24 46  1  0
 24 47  1  0
 25 48  1  0
 25 49  1  0
 26 50  1  0
 27 51  1  0
M  CHG  1  21  -1
M  END
>  <UniqueID>  (27) 
26

>  <SMILES>  (27) 
CC(=O)N1CCCc2cc(S(=O)(=O)Nc3cc4c(cc3[O-])CCCC4)ccc21

>  <Energy>  (27) 
65.57113194476351

>  <Genealogy>  (27) 
CC(=O)N1CCCc2cc(S(=O)(=O)Nc3cc4c(cc3[O-])CCCC4)ccc21 (protonated)
CC(=O)N1CCCc2cc(S(=O)(=O)Nc3cc4c(cc3[O-])CCCC4)ccc21 (3D coordinates assigned)
CC(=O)N1CCCc2cc(S(=O)(=O)Nc3cc4c(cc3[O-])CCCC4)ccc21 (nonaromatic ring conformer: 65.57113194476351 kcal/mol)

>  <smiles>  (27) 
CC(=O)N1CCCc2cc(S(=O)(=O)Nc3cc4c(cc3O)CCCC4)ccc21

>  <score_type>  (27) 
oracle

>  <origin>  (27) 
adgpu

>  <m_score__min__energy>  (27) 
-14.65

>  <m_primary>  (27) 
energy

$$$$
27:0
     RDKit          3D

 48 51  0  0  0  0  0  0  0  0999 V2000
   -9.7450   22.7320  -31.0140 H   0  0  0  0  0  0  0  0  0  0  0  0
  -10.0340   21.8240  -31.4440 N   0  0  0  0  0  0  0  0  0  0  0  0
   -9.1800   20.9120  -31.7840 C   0  0  0  0  0  0  0  0  0  0  0  0
   -9.6130   19.7480  -32.3470 N   0  0  0  0  0  0  0  0  0  0  0  0
   -8.7490   18.7560  -32.7220 C   0  0  0  0  0  0  0  0  0  0  0  0
   -9.1426   17.8358  -33.1783 H   0  0  0  0  0  0  0  0  0  0  0  0
   -7.3580   18.9000  -32.5300 C   0  0  0  0  0  0  0  0  0  0  0  0
   -6.4550   17.7830  -32.8620 C   0  0  0  0  0  0  0  0  0  0  0  0
   -5.8330   17.0480  -31.8410 C   0  0  0  0  0  0  0  0  0  0  0  0
   -6.0117   17.3124  -30.7883 H   0  0  0  0  0  0  0  0  0  0  0  0
   -4.9880   15.9820  -32.1570 C   0  0  0  0  0  0  0  0  0  0  0  0
   -4.4820   15.4277  -31.3528 H   0  0  0  0  0  0  0  0  0  0  0  0
   -4.7810   15.6140  -33.4970 C   0  0  0  0  0  0  0  0  0  0  0  0
   -3.8900   14.5490  -33.8520 N   0  0  0  0  0  0  0  0  0  0  0  0
   -4.0920   13.5780  -34.8870 C   0  0  0  0  0  0  0  0  0  0  0  0
   -3.4560   13.7050  -35.9660 O   0  0  0  0  0  0  0  0  0  0  0  0
   -5.1650   12.5230  -34.7900 C   0  0  0  0  0  0  0  0  0  0  0  0
   -4.7853   11.5845  -35.2202 H   0  0  0  0  0  0  0  0  0  0  0  0
   -5.4245   12.3867  -33.7298 H   0  0  0  0  0  0  0  0  0  0  0  0
   -6.3310   12.9130  -35.4900 O   0  0  0  0  0  0  0  0  0  0  0  0
   -7.2690   13.4770  -34.6000 C   0  0  0  0  0  0  0  0  0  0  0  0
   -6.9521   13.2864  -33.5640 H   0  0  0  0  0  0  0  0  0  0  0  0
   -7.3304   14.5619  -34.7710 H   0  0  0  0  0  0  0  0  0  0  0  0
   -8.2560   13.0225  -34.7710 H   0  0  0  0  0  0  0  0  0  0  0  0
   -5.3930   16.3560  -34.5140 C   0  0  0  0  0  0  0  0  0  0  0  0
   -5.2072   16.0972  -35.5669 H   0  0  0  0  0  0  0  0  0  0  0  0
   -6.2390   17.4240  -34.2000 C   0  0  0  0  0  0  0  0  0  0  0  0
   -6.7367   17.9843  -35.0052 H   0  0  0  0  0  0  0  0  0  0  0  0
   -6.9140   20.1110  -31.9680 C   0  0  0  0  0  0  0  0  0  0  0  0
   -5.6530   20.6320  -31.7010 C   0  0  0  0  0  0  0  0  0  0  0  0
   -4.3210   20.0460  -32.0660 C   0  0  0  0  0  0  0  0  0  0  0  0
   -3.7645   19.8012  -31.1493 H   0  0  0  0  0  0  0  0  0  0  0  0
   -4.4726   19.1315  -32.6582 H   0  0  0  0  0  0  0  0  0  0  0  0
   -3.7493   20.7757  -32.6582 H   0  0  0  0  0  0  0  0  0  0  0  0
   -5.8950   21.8890  -31.1310 C   0  0  0  0  0  0  0  0  0  0  0  0
   -4.8980   22.8600  -30.6340 C   0  0  0  0  0  0  0  0  0  0  0  0
   -5.1470   24.2440  -30.6640 C   0  0  0  0  0  0  0  0  0  0  0  0
   -6.1077   24.6190  -31.0467 H   0  0  0  0  0  0  0  0  0  0  0  0
   -4.1800   25.1450  -30.2100 C   0  0  0  0  0  0  0  0  0  0  0  0
   -4.3861   26.2254  -30.2256 H   0  0  0  0  0  0  0  0  0  0  0  0
   -2.9510   24.6760  -29.7360 C   0  0  0  0  0  0  0  0  0  0  0  0
   -1.9910   25.5730  -29.2850 O   0  0  0  0  0  0  0  0  0  0  0  0
   -2.6870   23.3030  -29.7240 C   0  0  0  0  0  0  0  0  0  0  0  0
   -1.7180   22.9335  -29.3573 H   0  0  0  0  0  0  0  0  0  0  0  0
   -3.6520   22.3990  -30.1770 C   0  0  0  0  0  0  0  0  0  0  0  0
   -3.4347   21.3207  -30.1757 H   0  0  0  0  0  0  0  0  0  0  0  0
   -7.1910   22.1290  -31.1030 O   0  0  0  0  0  0  0  0  0  0  0  0
   -7.8070   21.0850  -31.6000 C   0  0  0  0  0  0  0  0  0  0  0  0
  1  2  1  0
  2  3  2  0
  3  4  1  0
  4  5  1  0
  5  6  1  0
  5  7  2  0
  7  8  1  0
  8  9  2  0
  9 10  1  0
  9 11  1  0
 11 12  1  0
 11 13  2  0
 13 14  1  0
 14 15  1  0
 15 16  2  0
 15 17  1  0
 17 18  1  0
 17 19  1  0
 17 20  1  0
 20 21  1  0
 21 22  1  0
 21 23  1  0
 21 24  1  0
 13 25  1  0
 25 26  1  0
 25 27  2  0
 27 28  1  0
  7 29  1  0
 29 30  1  0
 30 31  1  0
 31 32  1  0
 31 33  1  0
 31 34  1  0
 30 35  2  0
 35 36  1  0
 36 37  2  0
 37 38  1  0
 37 39  1  0
 39 40  1  0
 39 41  2  0
 41 42  1  0
 41 43  1  0
 43 44  1  0
 43 45  2  0
 45 46  1  0
 35 47  1  0
 47 48  1  0
 48  3  1  0
 27  8  1  0
 48 29  2  0
 45 36  1  0
M  CHG  3   4  -1  14  -1  42  -1
M  END
>  <UniqueID>  (28) 
27

>  <SMILES>  (28) 
[H]/N=c1/[n-]cc(-c2ccc([N-]C(=O)COC)cc2)c2c(C)c(-c3ccc([O-])cc3)oc12

>  <Energy>  (28) 
106.1811287900794

>  <Genealogy>  (28) 
COCC(=O)[N-]c1ccc(-c2c[n-]c(=N)c3oc(-c4ccc([O-])cc4)c(C)c23)cc1 (protonated)
[H]/N=c1/[n-]cc(-c2ccc([N-]C(=O)COC)cc2)c2c(C)c(-c3ccc([O-])cc3)oc12 (cis-trans isomerization)
[H]/N=c1/[n-]cc(-c2ccc([N-]C(=O)COC)cc2)c2c(C)c(-c3ccc([O-])cc3)oc12 (3D coordinates assigned)
[H]/N=c1/[n-]cc(-c2ccc([N-]C(=O)COC)cc2)c2c(C)c(-c3ccc([O-])cc3)oc12 (optimized conformer: 106.1811287900794 kcal/mol)

>  <smiles>  (28) 
COCC(=O)Nc1ccc(-c2c[nH]c(=N)c3oc(-c4ccc(O)cc4)c(C)c23)cc1

>  <score_type>  (28) 
oracle

>  <origin>  (28) 
adgpu

>  <m_score__min__energy>  (28) 
-10.73

>  <m_primary>  (28) 
energy

$$$$
28:0
     RDKit          3D

 64 68  0  0  0  0  0  0  0  0999 V2000
   -1.1850   27.0930  -24.7810 C   0  0  0  0  0  0  0  0  0  0  0  0
   -1.2990   25.9150  -25.6970 C   0  0  0  0  0  0  0  0  0  0  0  0
   -1.6970   25.9540  -27.0180 C   0  0  0  0  0  0  0  0  0  0  0  0
   -1.6150   24.6330  -27.4360 C   0  0  0  0  0  0  0  0  0  0  0  0
   -1.9520   24.1040  -28.7700 C   0  0  0  0  0  0  0  0  0  0  0  0
   -2.4280   24.8910  -29.6320 O   0  0  0  0  0  0  0  0  0  0  0  0
   -1.7480   22.7170  -29.0940 N   0  0  0  0  0  0  0  0  0  0  0  0
   -1.8540   22.2050  -30.4650 C   0  0  1  0  0  0  0  0  0  0  0  0
   -1.2300   20.7910  -30.5450 C   0  0  0  0  0  0  0  0  0  0  0  0
   -1.8460   19.9080  -31.6490 C   0  0  0  0  0  0  0  0  0  0  0  0
   -2.3610   20.7470  -32.8260 C   0  0  1  0  0  0  0  0  0  0  0  0
   -2.8720   19.8560  -33.8650 N   0  0  0  0  0  0  0  0  0  0  0  0
   -2.2870   18.5980  -34.2250 C   0  0  0  0  0  0  0  0  0  0  0  0
   -1.2660   18.5900  -34.9620 O   0  0  0  0  0  0  0  0  0  0  0  0
   -2.8430   17.3130  -33.7530 C   0  0  0  0  0  0  0  0  0  0  0  0
   -1.9670   16.3400  -33.2480 C   0  0  0  0  0  0  0  0  0  0  0  0
   -2.4660   15.1420  -32.7380 C   0  0  0  0  0  0  0  0  0  0  0  0
   -3.8410   14.9220  -32.7350 C   0  0  0  0  0  0  0  0  0  0  0  0
   -4.6810   15.8540  -33.2570 N   0  0  0  0  0  0  0  0  0  0  0  0
   -4.2300   17.0240  -33.7850 C   0  0  0  0  0  0  0  0  0  0  0  0
   -5.1760   17.9130  -34.3200 O   0  0  0  0  0  0  0  0  0  0  0  0
   -6.1380   18.6180  -33.5830 C   0  0  0  0  0  0  0  0  0  0  0  0
   -7.2270   17.9110  -33.0630 C   0  0  0  0  0  0  0  0  0  0  0  0
   -8.2110   18.5670  -32.3180 C   0  0  0  0  0  0  0  0  0  0  0  0
   -8.1220   19.9490  -32.0940 C   0  0  0  0  0  0  0  0  0  0  0  0
   -9.1040   20.6190  -31.3460 C   0  0  0  0  0  0  0  0  0  0  0  0
   -9.0040   21.9980  -31.1330 C   0  0  0  0  0  0  0  0  0  0  0  0
   -7.9270   22.7150  -31.6580 C   0  0  0  0  0  0  0  0  0  0  0  0
   -6.9440   22.0600  -32.4060 C   0  0  0  0  0  0  0  0  0  0  0  0
   -7.0340   20.6770  -32.6310 C   0  0  0  0  0  0  0  0  0  0  0  0
   -6.0540   20.0080  -33.3810 C   0  0  0  0  0  0  0  0  0  0  0  0
   -3.4720   21.7260  -32.3720 C   0  0  0  0  0  0  0  0  0  0  0  0
   -3.3250   22.1880  -30.9070 C   0  0  0  0  0  0  0  0  0  0  0  0
   -1.1860   23.8580  -26.4200 N   0  0  0  0  0  0  0  0  0  0  0  0
   -0.9950   24.6430  -25.3720 N   0  0  0  0  0  0  0  0  0  0  0  0
   -0.5090   24.1670  -24.0830 C   0  0  0  0  0  0  0  0  0  0  0  0
   -1.2182   26.7498  -23.7364 H   0  0  0  0  0  0  0  0  0  0  0  0
   -0.2325   27.6110  -24.9666 H   0  0  0  0  0  0  0  0  0  0  0  0
   -2.0205   27.7840  -24.9666 H   0  0  0  0  0  0  0  0  0  0  0  0
   -2.0079   26.8309  -27.6049 H   0  0  0  0  0  0  0  0  0  0  0  0
   -1.3670   22.0730  -28.3670 H   0  0  0  0  0  0  0  0  0  0  0  0
   -1.3004   22.8661  -31.1480 H   0  0  0  0  0  0  0  0  0  0  0  0
   -1.3767   20.2904  -29.5765 H   0  0  0  0  0  0  0  0  0  0  0  0
   -0.1657   20.9206  -30.7908 H   0  0  0  0  0  0  0  0  0  0  0  0
   -2.6852   19.3385  -31.2231 H   0  0  0  0  0  0  0  0  0  0  0  0
   -1.0626   19.2338  -32.0256 H   0  0  0  0  0  0  0  0  0  0  0  0
   -1.5276   21.3447  -33.2237 H   0  0  0  0  0  0  0  0  0  0  0  0
   -0.8824   16.5231  -33.2545 H   0  0  0  0  0  0  0  0  0  0  0  0
   -1.7804   14.3784  -32.3420 H   0  0  0  0  0  0  0  0  0  0  0  0
   -4.2477   13.9927  -32.3096 H   0  0  0  0  0  0  0  0  0  0  0  0
   -7.3098   16.8288  -33.2420 H   0  0  0  0  0  0  0  0  0  0  0  0
   -9.0576   17.9980  -31.9062 H   0  0  0  0  0  0  0  0  0  0  0  0
   -9.9528   20.0586  -30.9271 H   0  0  0  0  0  0  0  0  0  0  0  0
   -9.7770   22.5196  -30.5495 H   0  0  0  0  0  0  0  0  0  0  0  0
   -7.8517   23.7983  -31.4826 H   0  0  0  0  0  0  0  0  0  0  0  0
   -6.0983   22.6294  -32.8191 H   0  0  0  0  0  0  0  0  0  0  0  0
   -5.2155   20.5737  -33.8133 H   0  0  0  0  0  0  0  0  0  0  0  0
   -4.4446   21.2243  -32.4828 H   0  0  0  0  0  0  0  0  0  0  0  0
   -3.3905   22.6229  -33.0036 H   0  0  0  0  0  0  0  0  0  0  0  0
   -3.8851   21.4992  -30.2575 H   0  0  0  0  0  0  0  0  0  0  0  0
   -3.7203   23.2114  -30.8274 H   0  0  0  0  0  0  0  0  0  0  0  0
   -1.0420   24.6890  -23.2747 H   0  0  0  0  0  0  0  0  0  0  0  0
   -0.6876   23.0847  -24.0007 H   0  0  0  0  0  0  0  0  0  0  0  0
    0.5693   24.3680  -24.0007 H   0  0  0  0  0  0  0  0  0  0  0  0
  1  2  1  0
  2  3  2  0
  3  4  1  0
  4  5  1  0
  5  6  2  0
  5  7  1  0
  7  8  1  0
  8  9  1  0
  9 10  1  0
 10 11  1  0
 11 12  1  0
 12 13  1  0
 13 14  2  0
 13 15  1  0
 15 16  2  0
 16 17  1  0
 17 18  2  0
 18 19  1  0
 19 20  2  0
 20 21  1  0
 21 22  1  0
 22 23  2  0
 23 24  1  0
 24 25  2  0
 25 26  1  0
 26 27  2  0
 27 28  1  0
 28 29  2  0
 29 30  1  0
 30 31  2  0
 11 32  1  0
 32 33  1  0
  4 34  2  0
 34 35  1  0
 35 36  1  0
 35  2  1  0
 33  8  1  0
 20 15  1  0
 31 22  1  0
 30 25  1  0
  1 37  1  0
  1 38  1  0
  1 39  1  0
  3 40  1  0
  7 41  1  0
  8 42  1  6
  9 43  1  0
  9 44  1  0
 10 45  1  0
 10 46  1  0
 11 47  1  6
 16 48  1  0
 17 49  1  0
 18 50  1  0
 23 51  1  0
 24 52  1  0
 26 53  1  0
 27 54  1  0
 28 55  1  0
 29 56  1  0
 31 57  1  0
 32 58  1  0
 32 59  1  0
 33 60  1  0
 33 61  1  0
 36 62  1  0
 36 63  1  0
 36 64  1  0
M  CHG  1  12  -1
M  END
>  <UniqueID>  (29) 
28

>  <SMILES>  (29) 
Cc1cc(C(=O)NC2CCC([N-]C(=O)c3cccnc3Oc3ccc4ccccc4c3)CC2)nn1C

>  <Energy>  (29) 
112.82147729739718

>  <Genealogy>  (29) 
Cc1cc(C(=O)NC2CCC([N-]C(=O)c3cccnc3Oc3ccc4ccccc4c3)CC2)nn1C (protonated)
Cc1cc(C(=O)NC2CCC([N-]C(=O)c3cccnc3Oc3ccc4ccccc4c3)CC2)nn1C (3D coordinates assigned)
Cc1cc(C(=O)NC2CCC([N-]C(=O)c3cccnc3Oc3ccc4ccccc4c3)CC2)nn1C (nonaromatic ring conformer: 112.82147729739718 kcal/mol)

>  <smiles>  (29) 
Cc1cc(C(=O)NC2CCC(NC(=O)c3cccnc3Oc3ccc4ccccc4c3)CC2)nn1C

>  <score_type>  (29) 
oracle

>  <origin>  (29) 
adgpu

>  <m_score__min__energy>  (29) 
-10.800000000000001

>  <m_primary>  (29) 
energy

$$$$
29:0
     RDKit          3D

 64 68  0  0  0  0  0  0  0  0999 V2000
   -4.5240   24.5720  -27.9080 N   0  0  0  0  0  0  0  0  0  0  0  0
   -3.4670   23.7330  -28.3910 C   0  0  0  0  0  0  0  0  0  0  0  0
   -2.9050   22.7730  -27.5370 C   0  0  0  0  0  0  0  0  0  0  0  0
   -1.8650   21.9530  -27.9830 C   0  0  0  0  0  0  0  0  0  0  0  0
   -1.3740   22.0890  -29.2800 C   0  0  0  0  0  0  0  0  0  0  0  0
   -1.9230   23.0440  -30.1390 C   0  0  0  0  0  0  0  0  0  0  0  0
   -2.9700   23.8770  -29.7040 C   0  0  0  0  0  0  0  0  0  0  0  0
   -3.6030   24.7990  -30.6060 N   0  0  0  0  0  0  0  0  0  0  0  0
   -5.0050   25.0800  -30.6680 C   0  0  0  0  0  0  0  0  0  0  0  0
   -5.3960   26.2610  -30.4610 O   0  0  0  0  0  0  0  0  0  0  0  0
   -5.9900   24.0380  -31.0310 C   0  0  0  0  0  0  0  0  0  0  0  0
   -6.9330   23.5980  -30.0900 C   0  0  0  0  0  0  0  0  0  0  0  0
   -7.9040   22.6580  -30.4440 C   0  0  0  0  0  0  0  0  0  0  0  0
   -7.9620   22.1570  -31.7530 C   0  0  0  0  0  0  0  0  0  0  0  0
   -9.0560   21.2020  -32.1540 C   0  0  0  0  0  0  0  0  0  0  0  0
   -8.4900   20.0130  -32.7790 N   0  0  0  0  0  0  0  0  0  0  0  0
   -8.3980   18.7750  -32.0680 C   0  0  0  0  0  0  0  0  0  0  0  0
   -9.4450   18.2380  -31.6250 O   0  0  0  0  0  0  0  0  0  0  0  0
   -7.1300   18.1870  -31.7610 N   0  0  0  0  0  0  0  0  0  0  0  0
   -5.8980   18.4990  -32.4220 C   0  0  0  0  0  0  0  0  0  0  0  0
   -5.4390   17.6430  -33.4510 C   0  0  0  0  0  0  0  0  0  0  0  0
   -4.2360   17.9160  -34.1270 C   0  0  0  0  0  0  0  0  0  0  0  0
   -3.5330   19.0590  -33.7590 C   0  0  0  0  0  0  0  0  0  0  0  0
   -2.3860   19.5180  -34.2790 N   0  0  0  0  0  0  0  0  0  0  0  0
   -2.1780   20.6580  -33.5660 C   0  0  0  0  0  0  0  0  0  0  0  0
   -0.9920   21.5550  -33.7980 C   0  0  0  0  0  0  0  0  0  0  0  0
    0.2440   21.0730  -33.1440 N   0  0  0  0  0  0  0  0  0  0  0  0
    1.0100   20.1300  -33.9880 C   0  0  0  0  0  0  0  0  0  0  0  0
    2.0860   19.4200  -33.1630 C   0  0  0  0  0  0  0  0  0  0  0  0
    1.5060   18.6170  -32.0700 N   0  0  0  0  0  0  0  0  0  0  0  0
    0.1980   19.1060  -31.5930 C   0  0  0  0  0  0  0  0  0  0  0  0
    0.0590   20.6310  -31.7420 C   0  0  0  0  0  0  0  0  0  0  0  0
   -3.1360   20.9300  -32.6410 N   0  0  0  0  0  0  0  0  0  0  0  0
   -3.9810   19.9000  -32.7870 C   0  0  0  0  0  0  0  0  0  0  0  0
   -5.1690   19.6660  -32.0980 C   0  0  0  0  0  0  0  0  0  0  0  0
   -7.0270   22.6080  -32.7010 C   0  0  0  0  0  0  0  0  0  0  0  0
   -6.0410   23.5290  -32.3400 C   0  0  0  0  0  0  0  0  0  0  0  0
   -4.8240   25.4130  -28.4490 H   0  0  0  0  0  0  0  0  0  0  0  0
   -5.0250   24.3570  -27.0170 H   0  0  0  0  0  0  0  0  0  0  0  0
   -3.2849   22.6649  -26.5104 H   0  0  0  0  0  0  0  0  0  0  0  0
   -1.4331   21.1987  -27.3089 H   0  0  0  0  0  0  0  0  0  0  0  0
   -0.5536   21.4439  -29.6276 H   0  0  0  0  0  0  0  0  0  0  0  0
   -1.5339   23.1455  -31.1629 H   0  0  0  0  0  0  0  0  0  0  0  0
   -6.9076   23.9964  -29.0650 H   0  0  0  0  0  0  0  0  0  0  0  0
   -8.6270   22.3088  -29.6921 H   0  0  0  0  0  0  0  0  0  0  0  0
   -9.6240   20.9057  -31.2598 H   0  0  0  0  0  0  0  0  0  0  0  0
   -9.7192   21.7023  -32.8751 H   0  0  0  0  0  0  0  0  0  0  0  0
   -8.1320   20.0810  -33.7590 H   0  0  0  0  0  0  0  0  0  0  0  0
   -6.0285   16.7556  -33.7249 H   0  0  0  0  0  0  0  0  0  0  0  0
   -3.8640   17.2492  -34.9188 H   0  0  0  0  0  0  0  0  0  0  0  0
   -0.8109   21.6209  -34.8810 H   0  0  0  0  0  0  0  0  0  0  0  0
   -1.2330   22.5336  -33.3573 H   0  0  0  0  0  0  0  0  0  0  0  0
    0.3229   19.3804  -34.4075 H   0  0  0  0  0  0  0  0  0  0  0  0
    1.4979   20.6940  -34.7966 H   0  0  0  0  0  0  0  0  0  0  0  0
    2.6602   18.7555  -33.8254 H   0  0  0  0  0  0  0  0  0  0  0  0
    2.7312   20.1891  -32.7133 H   0  0  0  0  0  0  0  0  0  0  0  0
    2.1790   18.6290  -31.2670 H   0  0  0  0  0  0  0  0  0  0  0  0
   -0.5968   18.6190  -32.1770 H   0  0  0  0  0  0  0  0  0  0  0  0
    0.1154   18.8619  -30.5236 H   0  0  0  0  0  0  0  0  0  0  0  0
   -0.9445   20.9303  -31.4052 H   0  0  0  0  0  0  0  0  0  0  0  0
    0.8424   21.1039  -31.1315 H   0  0  0  0  0  0  0  0  0  0  0  0
   -5.5275   20.3653  -31.3283 H   0  0  0  0  0  0  0  0  0  0  0  0
   -7.0723   22.2330  -33.7341 H   0  0  0  0  0  0  0  0  0  0  0  0
   -5.3005   23.8577  -33.0841 H   0  0  0  0  0  0  0  0  0  0  0  0
  1  2  1  0
  2  3  2  0
  3  4  1  0
  4  5  2  0
  5  6  1  0
  6  7  2  0
  7  8  1  0
  8  9  1  0
  9 10  2  0
  9 11  1  0
 11 12  2  0
 12 13  1  0
 13 14  2  0
 14 15  1  0
 15 16  1  0
 16 17  1  0
 17 18  2  0
 17 19  1  0
 19 20  1  0
 20 21  2  0
 21 22  1  0
 22 23  2  0
 23 24  1  0
 24 25  2  0
 25 26  1  0
 26 27  1  0
 27 28  1  0
 28 29  1  0
 29 30  1  0
 30 31  1  0
 31 32  1  0
 25 33  1  0
 33 34  1  0
 34 35  2  0
 14 36  1  0
 36 37  2  0
  7  2  1  0
 37 11  1  0
 35 20  1  0
 34 23  1  0
 32 27  1  0
  1 38  1  0
  1 39  1  0
  3 40  1  0
  4 41  1  0
  5 42  1  0
  6 43  1  0
 12 44  1  0
 13 45  1  0
 15 46  1  0
 15 47  1  0
 16 48  1  0
 21 49  1  0
 22 50  1  0
 26 51  1  0
 26 52  1  0
 28 53  1  0
 28 54  1  0
 29 55  1  0
 29 56  1  0
 30 57  1  0
 31 58  1  0
 31 59  1  0
 32 60  1  0
 32 61  1  0
 35 62  1  0
 36 63  1  0
 37 64  1  0
M  CHG  3   8  -1  19  -1  33  -1
M  END
>  <UniqueID>  (30) 
29

>  <SMILES>  (30) 
Nc1ccccc1[N-]C(=O)c1ccc(CNC(=O)[N-]c2ccc3nc(CN4CCNCC4)[n-]c3c2)cc1

>  <Energy>  (30) 
126.53250751294216

>  <Genealogy>  (30) 
Nc1ccccc1[N-]C(=O)c1ccc(CNC(=O)[N-]c2ccc3nc(CN4CCNCC4)[n-]c3c2)cc1 (protonated)
Nc1ccccc1[N-]C(=O)c1ccc(CNC(=O)[N-]c2ccc3nc(CN4CCNCC4)[n-]c3c2)cc1 (3D coordinates assigned)
Nc1ccccc1[N-]C(=O)c1ccc(CNC(=O)[N-]c2ccc3nc(CN4CCNCC4)[n-]c3c2)cc1 (nonaromatic ring conformer: 126.53250751294216 kcal/mol)

>  <smiles>  (30) 
Nc1ccccc1NC(=O)c1ccc(CNC(=O)Nc2ccc3nc(CN4CCNCC4)[nH]c3c2)cc1

>  <score_type>  (30) 
oracle

>  <origin>  (30) 
adgpu

>  <m_score__min__energy>  (30) 
-12.800000000000001

>  <m_primary>  (30) 
energy

$$$$
30:0
     RDKit          3D

 74 77  0  0  0  0  0  0  0  0999 V2000
    0.2890   20.9530  -35.6540 C   0  0  0  0  0  0  0  0  0  0  0  0
   -0.1470   21.1650  -34.2020 C   0  0  1  0  0  0  0  0  0  0  0  0
   -1.6070   21.1440  -34.0890 N   0  0  0  0  0  0  0  0  0  0  0  0
   -2.2750   21.0210  -32.8230 C   0  0  0  0  0  0  0  0  0  0  0  0
   -1.6560   21.2780  -31.7500 O   0  0  0  0  0  0  0  0  0  0  0  0
   -3.6600   20.5230  -32.7580 C   0  0  0  0  0  0  0  0  0  0  0  0
   -4.6200   20.9270  -31.8370 C   0  0  0  0  0  0  0  0  0  0  0  0
   -5.8350   20.2430  -31.9690 C   0  0  0  0  0  0  0  0  0  0  0  0
   -5.8390   19.2990  -32.9890 C   0  0  0  0  0  0  0  0  0  0  0  0
   -4.3270   19.3090  -33.7220 S   0  0  0  0  0  0  0  0  0  0  0  0
    0.4860   20.1230  -33.3080 C   0  0  0  0  0  0  0  0  0  0  0  0
    1.0180   20.4930  -32.2260 O   0  0  0  0  0  0  0  0  0  0  0  0
    0.4900   18.7230  -33.6550 N   0  0  0  0  0  0  0  0  0  0  0  0
    1.7350   17.9520  -33.4890 C   0  0  0  0  0  0  0  0  0  0  0  0
    1.4880   16.6710  -32.6630 C   0  0  0  0  0  0  0  0  0  0  0  0
    0.4010   16.8910  -31.6930 N   0  0  0  0  0  0  0  0  0  0  0  0
    0.7100   16.9420  -30.2840 C   0  0  0  0  0  0  0  0  0  0  0  0
    1.4530   15.8910  -29.7120 C   0  0  0  0  0  0  0  0  0  0  0  0
    1.7120   15.8590  -28.3420 C   0  0  0  0  0  0  0  0  0  0  0  0
    1.2220   16.8680  -27.5170 C   0  0  0  0  0  0  0  0  0  0  0  0
    0.4920   17.9250  -28.0630 C   0  0  0  0  0  0  0  0  0  0  0  0
    0.2410   17.9900  -29.4480 C   0  0  0  0  0  0  0  0  0  0  0  0
   -0.4840   19.1970  -29.9940 C   0  0  0  0  0  0  0  0  0  0  0  0
    0.2970   20.4150  -29.7230 N   0  0  0  0  0  0  0  0  0  0  0  0
   -0.0790   21.0510  -28.4500 C   0  0  0  0  0  0  0  0  0  0  0  0
   -1.3450   21.8430  -28.6280 C   0  0  0  0  0  0  0  0  0  0  0  0
   -1.3720   22.9740  -29.4620 C   0  0  0  0  0  0  0  0  0  0  0  0
   -2.5780   23.6340  -29.7190 C   0  0  0  0  0  0  0  0  0  0  0  0
   -3.7760   23.1830  -29.1380 C   0  0  0  0  0  0  0  0  0  0  0  0
   -5.0940   23.8190  -29.5090 C   0  0  0  0  0  0  0  0  0  0  0  0
   -4.9790   24.6080  -30.7530 N   0  0  0  0  0  0  0  0  0  0  0  0
   -5.7710   23.9820  -31.8240 C   0  0  0  0  0  0  0  0  0  0  0  0
   -5.4410   25.9910  -30.5450 C   0  0  0  0  0  0  0  0  0  0  0  0
   -3.7450   22.0570  -28.3000 C   0  0  0  0  0  0  0  0  0  0  0  0
   -2.5400   21.3930  -28.0470 C   0  0  0  0  0  0  0  0  0  0  0  0
   -0.9040   17.3650  -32.1910 C   0  0  0  0  0  0  0  0  0  0  0  0
   -0.7630   17.9640  -33.5960 C   0  0  0  0  0  0  0  0  0  0  0  0
    1.2781   20.4721  -35.6733 H   0  0  0  0  0  0  0  0  0  0  0  0
   -0.4416   20.3096  -36.1660 H   0  0  0  0  0  0  0  0  0  0  0  0
    0.3438   21.9250  -36.1660 H   0  0  0  0  0  0  0  0  0  0  0  0
    0.1983   22.1560  -33.8724 H   0  0  0  0  0  0  0  0  0  0  0  0
   -2.1800   21.1090  -34.9640 H   0  0  0  0  0  0  0  0  0  0  0  0
   -4.4430   21.7057  -31.0805 H   0  0  0  0  0  0  0  0  0  0  0  0
   -6.7057   20.4352  -31.3248 H   0  0  0  0  0  0  0  0  0  0  0  0
   -6.6864   18.6558  -33.2685 H   0  0  0  0  0  0  0  0  0  0  0  0
    2.1192   17.6717  -34.4809 H   0  0  0  0  0  0  0  0  0  0  0  0
    2.4654   18.5775  -32.9548 H   0  0  0  0  0  0  0  0  0  0  0  0
    1.2096   15.8503  -33.3404 H   0  0  0  0  0  0  0  0  0  0  0  0
    2.4080   16.4133  -32.1178 H   0  0  0  0  0  0  0  0  0  0  0  0
    1.8344   15.0840  -30.3549 H   0  0  0  0  0  0  0  0  0  0  0  0
    2.3034   15.0366  -27.9132 H   0  0  0  0  0  0  0  0  0  0  0  0
    1.4104   16.8321  -26.4338 H   0  0  0  0  0  0  0  0  0  0  0  0
    0.1078   18.7173  -27.4037 H   0  0  0  0  0  0  0  0  0  0  0  0
   -0.6164   19.0826  -31.0800 H   0  0  0  0  0  0  0  0  0  0  0  0
   -1.4666   19.2807  -29.5066 H   0  0  0  0  0  0  0  0  0  0  0  0
    0.1160   21.1030  -30.4900 H   0  0  0  0  0  0  0  0  0  0  0  0
   -0.2387   20.2745  -27.6875 H   0  0  0  0  0  0  0  0  0  0  0  0
    0.7285   21.7259  -28.1299 H   0  0  0  0  0  0  0  0  0  0  0  0
   -0.4396   23.3420  -29.9150 H   0  0  0  0  0  0  0  0  0  0  0  0
   -2.5892   24.5126  -30.3807 H   0  0  0  0  0  0  0  0  0  0  0  0
   -5.8448   23.0284  -29.6544 H   0  0  0  0  0  0  0  0  0  0  0  0
   -5.3936   24.4959  -28.6954 H   0  0  0  0  0  0  0  0  0  0  0  0
   -6.5604   23.3581  -31.3795 H   0  0  0  0  0  0  0  0  0  0  0  0
   -6.2292   24.7646  -32.4465 H   0  0  0  0  0  0  0  0  0  0  0  0
   -5.1153   23.3554  -32.4465 H   0  0  0  0  0  0  0  0  0  0  0  0
   -5.5096   26.1964  -29.4665 H   0  0  0  0  0  0  0  0  0  0  0  0
   -4.7273   26.6893  -31.0066 H   0  0  0  0  0  0  0  0  0  0  0  0
   -6.4311   26.1202  -31.0066 H   0  0  0  0  0  0  0  0  0  0  0  0
   -4.6754   21.6941  -27.8388 H   0  0  0  0  0  0  0  0  0  0  0  0
   -2.5294   20.5122  -27.3881 H   0  0  0  0  0  0  0  0  0  0  0  0
   -1.6055   16.5185  -32.2281 H   0  0  0  0  0  0  0  0  0  0  0  0
   -1.2806   18.1432  -31.5109 H   0  0  0  0  0  0  0  0  0  0  0  0
   -0.7434   17.1569  -34.3431 H   0  0  0  0  0  0  0  0  0  0  0  0
   -1.6149   18.6260  -33.8105 H   0  0  0  0  0  0  0  0  0  0  0  0
  1  2  1  0
  2  3  1  0
  3  4  1  0
  4  5  2  0
  4  6  1  0
  6  7  2  0
  7  8  1  0
  8  9  2  0
  9 10  1  0
  2 11  1  0
 11 12  2  0
 11 13  1  0
 13 14  1  0
 14 15  1  0
 15 16  1  0
 16 17  1  0
 17 18  2  0
 18 19  1  0
 19 20  2  0
 20 21  1  0
 21 22  2  0
 22 23  1  0
 23 24  1  0
 24 25  1  0
 25 26  1  0
 26 27  2  0
 27 28  1  0
 28 29  2  0
 29 30  1  0
 30 31  1  0
 31 32  1  0
 31 33  1  0
 29 34  1  0
 34 35  2  0
 16 36  1  0
 36 37  1  0
 10  6  1  0
 37 13  1  0
 22 17  1  0
 35 26  1  0
  1 38  1  0
  1 39  1  0
  1 40  1  0
  2 41  1  1
  3 42  1  0
  7 43  1  0
  8 44  1  0
  9 45  1  0
 14 46  1  0
 14 47  1  0
 15 48  1  0
 15 49  1  0
 18 50  1  0
 19 51  1  0
 20 52  1  0
 21 53  1  0
 23 54  1  0
 23 55  1  0
 24 56  1  0
 25 57  1  0
 25 58  1  0
 27 59  1  0
 28 60  1  0
 30 61  1  0
 30 62  1  0
 32 63  1  0
 32 64  1  0
 32 65  1  0
 33 66  1  0
 33 67  1  0
 33 68  1  0
 34 69  1  0
 35 70  1  0
 36 71  1  0
 36 72  1  0
 37 73  1  0
 37 74  1  0
M  END
>  <UniqueID>  (31) 
30

>  <SMILES>  (31) 
C[C@@H](NC(=O)c1cccs1)C(=O)N1CCN(c2ccccc2CNCc2ccc(CN(C)C)cc2)CC1

>  <Energy>  (31) 
110.63062660110141

>  <Genealogy>  (31) 
C[C@@H](NC(=O)c1cccs1)C(=O)N1CCN(c2ccccc2CNCc2ccc(CN(C)C)cc2)CC1 (chirality)
C[C@@H](NC(=O)c1cccs1)C(=O)N1CCN(c2ccccc2CNCc2ccc(CN(C)C)cc2)CC1 (3D coordinates assigned)
C[C@@H](NC(=O)c1cccs1)C(=O)N1CCN(c2ccccc2CNCc2ccc(CN(C)C)cc2)CC1 (nonaromatic ring conformer: 110.63062660110141 kcal/mol)

>  <smiles>  (31) 
CC(NC(=O)c1cccs1)C(=O)N1CCN(c2ccccc2CNCc2ccc(CN(C)C)cc2)CC1

>  <score_type>  (31) 
oracle

>  <origin>  (31) 
adgpu

>  <m_score__min__energy>  (31) 
-10.359999999999999

>  <m_primary>  (31) 
energy

$$$$
31:0
     RDKit          3D

 62 66  0  0  0  0  0  0  0  0999 V2000
   -5.2160   24.8550  -28.8620 O   0  0  0  0  0  0  0  0  0  0  0  0
   -4.4350   24.1840  -29.5920 C   0  0  0  0  0  0  0  0  0  0  0  0
   -3.0140   24.3690  -29.4750 N   0  0  0  0  0  0  0  0  0  0  0  0
   -2.3760   24.9470  -28.3230 C   0  0  0  0  0  0  0  0  0  0  0  0
   -2.9130   24.7160  -27.0480 C   0  0  0  0  0  0  0  0  0  0  0  0
   -2.3210   25.2850  -25.9170 C   0  0  0  0  0  0  0  0  0  0  0  0
   -1.1970   26.1090  -26.0470 C   0  0  0  0  0  0  0  0  0  0  0  0
   -0.4530   26.8050  -24.6100 S   0  0  0  0  0  0  0  0  0  0  0  0
   -0.9320   28.2170  -24.4120 O   0  0  0  0  0  0  0  0  0  0  0  0
   -0.8560   25.9870  -23.4150 O   0  0  0  0  0  0  0  0  0  0  0  0
    1.2850   26.7840  -24.7860 N   0  0  0  0  0  0  0  0  0  0  0  0
    1.8870   28.0520  -24.3130 C   0  0  0  0  0  0  0  0  0  0  0  0
    2.5850   27.8910  -22.9510 C   0  0  0  0  0  0  0  0  0  0  0  0
    3.6110   26.9090  -22.9610 O   0  0  0  0  0  0  0  0  0  0  0  0
    3.3360   25.7990  -23.8070 C   0  0  0  0  0  0  0  0  0  0  0  0
    1.8420   25.5960  -24.1140 C   0  0  0  0  0  0  0  0  0  0  0  0
   -0.6680   26.3590  -27.3200 C   0  0  0  0  0  0  0  0  0  0  0  0
   -1.2560   25.7880  -28.4530 C   0  0  0  0  0  0  0  0  0  0  0  0
   -4.9760   23.2670  -30.5620 N   0  0  0  0  0  0  0  0  0  0  0  0
   -4.1340   22.2160  -31.1430 C   0  0  0  0  0  0  0  0  0  0  0  0
   -4.9990   21.0500  -31.6340 C   0  0  0  0  0  0  0  0  0  0  0  0
   -6.0200   21.4860  -32.6200 N   0  0  0  0  0  0  0  0  0  0  0  0
   -7.0710   20.4600  -32.7910 C   0  0  0  0  0  0  0  0  0  0  0  0
   -6.4780   19.1320  -33.1850 C   0  0  0  0  0  0  0  0  0  0  0  0
   -6.1010   18.8980  -34.5330 C   0  0  0  0  0  0  0  0  0  0  0  0
   -5.5240   17.6720  -34.9100 C   0  0  0  0  0  0  0  0  0  0  0  0
   -5.3340   16.7130  -33.9210 C   0  0  0  0  0  0  0  0  0  0  0  0
   -5.6870   16.9310  -32.6300 C   0  0  0  0  0  0  0  0  0  0  0  0
   -6.2620   18.1290  -32.2140 C   0  0  0  0  0  0  0  0  0  0  0  0
   -5.3820   15.8160  -31.8730 O   0  0  0  0  0  0  0  0  0  0  0  0
   -4.8010   14.8360  -32.7440 C   0  0  0  0  0  0  0  0  0  0  0  0
   -4.7900   15.4480  -34.0410 O   0  0  0  0  0  0  0  0  0  0  0  0
   -6.6080   22.8240  -32.3440 C   0  0  0  0  0  0  0  0  0  0  0  0
   -6.4030   23.3000  -30.9000 C   0  0  0  0  0  0  0  0  0  0  0  0
   -2.4210   24.1580  -30.3090 H   0  0  0  0  0  0  0  0  0  0  0  0
   -3.8058   24.0830  -26.9375 H   0  0  0  0  0  0  0  0  0  0  0  0
   -2.7403   25.0843  -24.9201 H   0  0  0  0  0  0  0  0  0  0  0  0
    2.6274   28.3904  -25.0528 H   0  0  0  0  0  0  0  0  0  0  0  0
    1.0770   28.7865  -24.1929 H   0  0  0  0  0  0  0  0  0  0  0  0
    3.0286   28.8573  -22.6690 H   0  0  0  0  0  0  0  0  0  0  0  0
    1.8229   27.5603  -22.2300 H   0  0  0  0  0  0  0  0  0  0  0  0
    3.8664   25.9506  -24.7587 H   0  0  0  0  0  0  0  0  0  0  0  0
    3.6737   24.9004  -23.2699 H   0  0  0  0  0  0  0  0  0  0  0  0
    1.7232   24.7207  -24.7696 H   0  0  0  0  0  0  0  0  0  0  0  0
    1.3035   25.4383  -23.1679 H   0  0  0  0  0  0  0  0  0  0  0  0
    0.2139   27.0074  -27.4287 H   0  0  0  0  0  0  0  0  0  0  0  0
   -0.8410   25.9974  -29.4500 H   0  0  0  0  0  0  0  0  0  0  0  0
   -3.5696   22.6310  -31.9911 H   0  0  0  0  0  0  0  0  0  0  0  0
   -3.4410   21.8469  -30.3726 H   0  0  0  0  0  0  0  0  0  0  0  0
   -4.3476   20.3000  -32.1065 H   0  0  0  0  0  0  0  0  0  0  0  0
   -5.5264   20.6309  -30.7644 H   0  0  0  0  0  0  0  0  0  0  0  0
   -7.6153   20.3425  -31.8423 H   0  0  0  0  0  0  0  0  0  0  0  0
   -7.7512   20.7884  -33.5907 H   0  0  0  0  0  0  0  0  0  0  0  0
   -6.2612   19.6812  -35.2886 H   0  0  0  0  0  0  0  0  0  0  0  0
   -5.2326   17.4781  -35.9528 H   0  0  0  0  0  0  0  0  0  0  0  0
   -6.5395   18.2894  -31.1617 H   0  0  0  0  0  0  0  0  0  0  0  0
   -3.7773   14.5927  -32.4232 H   0  0  0  0  0  0  0  0  0  0  0  0
   -5.3668   13.8927  -32.7383 H   0  0  0  0  0  0  0  0  0  0  0  0
   -6.1412   23.5550  -33.0205 H   0  0  0  0  0  0  0  0  0  0  0  0
   -7.6929   22.7384  -32.5040 H   0  0  0  0  0  0  0  0  0  0  0  0
   -6.7784   24.3290  -30.7982 H   0  0  0  0  0  0  0  0  0  0  0  0
   -6.9526   22.6349  -30.2176 H   0  0  0  0  0  0  0  0  0  0  0  0
  1  2  2  0
  2  3  1  0
  3  4  1  0
  4  5  2  0
  5  6  1  0
  6  7  2  0
  7  8  1  0
  8  9  2  0
  8 10  2  0
  8 11  1  0
 11 12  1  0
 12 13  1  0
 13 14  1  0
 14 15  1  0
 15 16  1  0
  7 17  1  0
 17 18  2  0
  2 19  1  0
 19 20  1  0
 20 21  1  0
 21 22  1  0
 22 23  1  0
 23 24  1  0
 24 25  2  0
 25 26  1  0
 26 27  2  0
 27 28  1  0
 28 29  2  0
 28 30  1  0
 30 31  1  0
 31 32  1  0
 22 33  1  0
 33 34  1  0
 18  4  1  0
 34 19  1  0
 16 11  1  0
 29 24  1  0
 32 27  1  0
  3 35  1  0
  5 36  1  0
  6 37  1  0
 12 38  1  0
 12 39  1  0
 13 40  1  0
 13 41  1  0
 15 42  1  0
 15 43  1  0
 16 44  1  0
 16 45  1  0
 17 46  1  0
 18 47  1  0
 20 48  1  0
 20 49  1  0
 21 50  1  0
 21 51  1  0
 23 52  1  0
 23 53  1  0
 25 54  1  0
 26 55  1  0
 29 56  1  0
 31 57  1  0
 31 58  1  0
 33 59  1  0
 33 60  1  0
 34 61  1  0
 34 62  1  0
M  END
>  <UniqueID>  (32) 
31

>  <SMILES>  (32) 
O=C(Nc1ccc(S(=O)(=O)N2CCOCC2)cc1)N1CCN(Cc2ccc3c(c2)OCO3)CC1

>  <Energy>  (32) 
116.85067559185927

>  <Genealogy>  (32) 
O=C(Nc1ccc(S(=O)(=O)N2CCOCC2)cc1)N1CCN(Cc2ccc3c(c2)OCO3)CC1 (3D coordinates assigned)
O=C(Nc1ccc(S(=O)(=O)N2CCOCC2)cc1)N1CCN(Cc2ccc3c(c2)OCO3)CC1 (nonaromatic ring conformer: 116.85067559185927 kcal/mol)

>  <smiles>  (32) 
O=C(Nc1ccc(S(=O)(=O)N2CCOCC2)cc1)N1CCN(Cc2ccc3c(c2)OCO3)CC1

>  <score_type>  (32) 
oracle

>  <origin>  (32) 
adgpu

>  <m_score__min__energy>  (32) 
-8.7300000000000004

>  <m_primary>  (32) 
energy

$$$$
32:0
     RDKit          3D

 46 49  0  0  0  0  0  0  0  0999 V2000
   -1.5970   26.0620  -28.9010 O   0  0  0  0  0  0  0  0  0  0  0  0
   -1.3160   24.7230  -28.6180 C   0  0  0  0  0  0  0  0  0  0  0  0
   -0.0600   24.4250  -28.0730 C   0  0  0  0  0  0  0  0  0  0  0  0
    0.2610   23.1190  -27.6990 C   0  0  0  0  0  0  0  0  0  0  0  0
   -0.6720   22.0970  -27.8680 C   0  0  0  0  0  0  0  0  0  0  0  0
   -1.9200   22.3730  -28.4290 C   0  0  0  0  0  0  0  0  0  0  0  0
   -2.2540   23.6810  -28.8300 C   0  0  0  0  0  0  0  0  0  0  0  0
   -3.5580   23.9030  -29.4930 C   0  0  0  0  0  0  0  0  0  0  0  0
   -4.5420   22.9770  -29.5240 N   0  0  0  0  0  0  0  0  0  0  0  0
   -5.5070   23.5760  -30.2440 C   0  0  0  0  0  0  0  0  0  0  0  0
   -6.8280   22.9380  -30.5840 C   0  0  0  0  0  0  0  0  0  0  0  0
   -6.7030   21.7450  -31.4490 N   0  0  0  0  0  0  0  0  0  0  0  0
   -7.9130   21.4710  -32.2450 C   0  0  0  0  0  0  0  0  0  0  0  0
   -7.8510   20.0310  -32.7630 C   0  0  0  0  0  0  0  0  0  0  0  0
   -6.4830   19.6820  -33.1730 N   0  0  0  0  0  0  0  0  0  0  0  0
   -6.1100   18.3010  -33.3460 C   0  0  0  0  0  0  0  0  0  0  0  0
   -7.0950   17.3020  -33.4310 C   0  0  0  0  0  0  0  0  0  0  0  0
   -6.7300   15.9610  -33.5880 C   0  0  0  0  0  0  0  0  0  0  0  0
   -5.3800   15.6050  -33.6520 C   0  0  0  0  0  0  0  0  0  0  0  0
   -4.3920   16.5890  -33.5600 C   0  0  0  0  0  0  0  0  0  0  0  0
   -2.6980   16.1390  -33.6280 Cl  0  0  0  0  0  0  0  0  0  0  0  0
   -4.7540   17.9310  -33.4040 C   0  0  0  0  0  0  0  0  0  0  0  0
   -5.5260   20.7620  -33.4470 C   0  0  0  0  0  0  0  0  0  0  0  0
   -5.4650   21.7510  -32.2640 C   0  0  0  0  0  0  0  0  0  0  0  0
   -5.0850   24.8270  -30.6290 C   0  0  0  0  0  0  0  0  0  0  0  0
   -3.8780   24.9960  -30.1530 O   0  0  0  0  0  0  0  0  0  0  0  0
   -2.5330   26.4340  -28.9710 H   0  0  0  0  0  0  0  0  0  0  0  0
    0.6800   25.2277  -27.9386 H   0  0  0  0  0  0  0  0  0  0  0  0
    1.2496   22.8964  -27.2711 H   0  0  0  0  0  0  0  0  0  0  0  0
   -0.4242   21.0709  -27.5586 H   0  0  0  0  0  0  0  0  0  0  0  0
   -2.6500   21.5605  -28.5592 H   0  0  0  0  0  0  0  0  0  0  0  0
   -7.3211   22.6386  -29.6474 H   0  0  0  0  0  0  0  0  0  0  0  0
   -7.4120   23.6832  -31.1440 H   0  0  0  0  0  0  0  0  0  0  0  0
   -8.8059   21.5987  -31.6153 H   0  0  0  0  0  0  0  0  0  0  0  0
   -7.9674   22.1698  -33.0927 H   0  0  0  0  0  0  0  0  0  0  0  0
   -8.1740   19.3464  -31.9648 H   0  0  0  0  0  0  0  0  0  0  0  0
   -8.5143   19.9415  -33.6359 H   0  0  0  0  0  0  0  0  0  0  0  0
   -8.1587   17.5763  -33.3737 H   0  0  0  0  0  0  0  0  0  0  0  0
   -7.5066   15.1854  -33.6612 H   0  0  0  0  0  0  0  0  0  0  0  0
   -5.0950   14.5497  -33.7749 H   0  0  0  0  0  0  0  0  0  0  0  0
   -3.9734   18.7021  -33.3262 H   0  0  0  0  0  0  0  0  0  0  0  0
   -4.5279   20.3280  -33.6065 H   0  0  0  0  0  0  0  0  0  0  0  0
   -5.8543   21.3055  -34.3453 H   0  0  0  0  0  0  0  0  0  0  0  0
   -4.6176   21.4761  -31.6188 H   0  0  0  0  0  0  0  0  0  0  0  0
   -5.3471   22.7618  -32.6817 H   0  0  0  0  0  0  0  0  0  0  0  0
   -5.6568   25.5519  -31.2269 H   0  0  0  0  0  0  0  0  0  0  0  0
  1  2  1  0
  2  3  2  0
  3  4  1  0
  4  5  2  0
  5  6  1  0
  6  7  2  0
  7  8  1  0
  8  9  2  0
  9 10  1  0
 10 11  1  0
 11 12  1  0
 12 13  1  0
 13 14  1  0
 14 15  1  0
 15 16  1  0
 16 17  2  0
 17 18  1  0
 18 19  2  0
 19 20  1  0
 20 21  1  0
 20 22  2  0
 15 23  1  0
 23 24  1  0
 10 25  2  0
 25 26  1  0
  7  2  1  0
 26  8  1  0
 24 12  1  0
 22 16  1  0
  1 27  1  0
  3 28  1  0
  4 29  1  0
  5 30  1  0
  6 31  1  0
 11 32  1  0
 11 33  1  0
 13 34  1  0
 13 35  1  0
 14 36  1  0
 14 37  1  0
 17 38  1  0
 18 39  1  0
 19 40  1  0
 22 41  1  0
 23 42  1  0
 23 43  1  0
 24 44  1  0
 24 45  1  0
 25 46  1  0
M  END
>  <UniqueID>  (33) 
32

>  <SMILES>  (33) 
Oc1ccccc1-c1nc(CN2CCN(c3cccc(Cl)c3)CC2)co1

>  <Energy>  (33) 
94.90214876799571

>  <Genealogy>  (33) 
Oc1ccccc1-c1nc(CN2CCN(c3cccc(Cl)c3)CC2)co1 (3D coordinates assigned)
Oc1ccccc1-c1nc(CN2CCN(c3cccc(Cl)c3)CC2)co1 (nonaromatic ring conformer: 94.90214876799571 kcal/mol)

>  <smiles>  (33) 
Oc1ccccc1-c1nc(CN2CCN(c3cccc(Cl)c3)CC2)co1

>  <score_type>  (33) 
oracle

>  <origin>  (33) 
adgpu

>  <m_score__min__energy>  (33) 
-9.7799999999999994

>  <m_primary>  (33) 
energy

$$$$
33:0
     RDKit          3D

 66 70  0  0  0  0  0  0  0  0999 V2000
   -2.8720   15.0160  -35.8580 C   0  0  0  0  0  0  0  0  0  0  0  0
   -1.1050   15.0240  -35.6430 S   0  0  0  0  0  0  0  0  0  0  0  0
   -0.4970   15.8900  -36.7100 O   0  0  0  0  0  0  0  0  0  0  0  0
   -0.5470   13.6330  -35.7790 O   0  0  0  0  0  0  0  0  0  0  0  0
   -0.6920   15.6870  -34.0900 N   0  0  0  0  0  0  0  0  0  0  0  0
   -1.0030   16.8650  -33.6200 C   0  0  0  0  0  0  0  0  0  0  0  0
   -1.7690   17.7840  -34.3630 C   0  0  0  0  0  0  0  0  0  0  0  0
   -2.0810   19.0280  -33.8210 C   0  0  0  0  0  0  0  0  0  0  0  0
   -1.6410   19.3660  -32.5840 N   0  0  0  0  0  0  0  0  0  0  0  0
   -0.8860   18.5240  -31.8270 C   0  0  0  0  0  0  0  0  0  0  0  0
   -0.4490   18.9210  -30.5410 C   0  0  0  0  0  0  0  0  0  0  0  0
   -0.7580   20.2660  -29.9940 C   0  0  0  0  0  0  0  0  0  0  0  0
   -1.5180   20.3950  -28.8180 C   0  0  0  0  0  0  0  0  0  0  0  0
   -1.8030   21.6590  -28.2950 C   0  0  0  0  0  0  0  0  0  0  0  0
   -1.3370   22.8130  -28.9400 C   0  0  0  0  0  0  0  0  0  0  0  0
   -1.7350   24.4060  -28.3050 S   0  0  0  0  0  0  0  0  0  0  0  0
   -0.4700   25.2040  -28.1650 O   0  0  0  0  0  0  0  0  0  0  0  0
   -2.3630   24.2760  -26.9450 O   0  0  0  0  0  0  0  0  0  0  0  0
   -2.8230   25.2550  -29.3530 N   0  0  0  0  0  0  0  0  0  0  0  0
   -3.9040   24.6080  -30.0260 C   0  0  0  0  0  0  0  0  0  0  0  0
   -3.6990   23.4280  -30.7580 C   0  0  0  0  0  0  0  0  0  0  0  0
   -4.7710   22.8010  -31.3970 C   0  0  0  0  0  0  0  0  0  0  0  0
   -6.0680   23.3410  -31.3050 C   0  0  0  0  0  0  0  0  0  0  0  0
   -7.1920   22.7130  -31.9460 N   0  0  0  0  0  0  0  0  0  0  0  0
   -8.2560   22.0540  -31.2410 C   0  0  0  0  0  0  0  0  0  0  0  0
   -8.3250   22.1300  -29.9840 O   0  0  0  0  0  0  0  0  0  0  0  0
   -9.2620   21.2870  -32.0090 C   0  0  0  0  0  0  0  0  0  0  0  0
   -9.0400   20.1440  -32.6800 C   0  0  0  0  0  0  0  0  0  0  0  0
   -7.7850   19.3640  -32.6530 C   0  0  0  0  0  0  0  0  0  0  0  0
   -7.6500   18.3110  -31.7360 C   0  0  0  0  0  0  0  0  0  0  0  0
   -6.4570   17.5850  -31.6690 C   0  0  0  0  0  0  0  0  0  0  0  0
   -5.3870   17.9150  -32.5070 C   0  0  0  0  0  0  0  0  0  0  0  0
   -5.5020   18.9820  -33.4010 C   0  0  0  0  0  0  0  0  0  0  0  0
   -6.6910   19.7160  -33.4660 C   0  0  0  0  0  0  0  0  0  0  0  0
   -6.2540   24.5540  -30.6210 C   0  0  0  0  0  0  0  0  0  0  0  0
   -5.1790   25.1850  -29.9890 C   0  0  0  0  0  0  0  0  0  0  0  0
   -0.5720   22.6900  -30.1060 C   0  0  0  0  0  0  0  0  0  0  0  0
   -0.2770   21.4260  -30.6250 C   0  0  0  0  0  0  0  0  0  0  0  0
    0.2920   18.0180  -29.7620 C   0  0  0  0  0  0  0  0  0  0  0  0
    0.6070   16.7500  -30.2490 C   0  0  0  0  0  0  0  0  0  0  0  0
    0.1920   16.3600  -31.5210 C   0  0  0  0  0  0  0  0  0  0  0  0
   -0.5600   17.2380  -32.3280 C   0  0  0  0  0  0  0  0  0  0  0  0
   -3.3612   15.0138  -34.8728 H   0  0  0  0  0  0  0  0  0  0  0  0
   -3.1774   15.9128  -36.4170 H   0  0  0  0  0  0  0  0  0  0  0  0
   -3.1693   14.1165  -36.4170 H   0  0  0  0  0  0  0  0  0  0  0  0
   -2.1206   17.5191  -35.3711 H   0  0  0  0  0  0  0  0  0  0  0  0
   -2.6877   19.7403  -34.3995 H   0  0  0  0  0  0  0  0  0  0  0  0
   -1.8905   19.4952  -28.3065 H   0  0  0  0  0  0  0  0  0  0  0  0
   -2.3958   21.7489  -27.3728 H   0  0  0  0  0  0  0  0  0  0  0  0
   -2.6901   22.9954  -30.8286 H   0  0  0  0  0  0  0  0  0  0  0  0
   -4.6011   21.8807  -31.9750 H   0  0  0  0  0  0  0  0  0  0  0  0
   -7.2980   22.8400  -32.9790 H   0  0  0  0  0  0  0  0  0  0  0  0
  -10.2855   21.6894  -32.0328 H   0  0  0  0  0  0  0  0  0  0  0  0
   -9.8610   19.7566  -33.3012 H   0  0  0  0  0  0  0  0  0  0  0  0
   -8.4854   18.0557  -31.0675 H   0  0  0  0  0  0  0  0  0  0  0  0
   -6.3598   16.7530  -30.9561 H   0  0  0  0  0  0  0  0  0  0  0  0
   -4.4542   17.3338  -32.4620 H   0  0  0  0  0  0  0  0  0  0  0  0
   -4.6571   19.2452  -34.0543 H   0  0  0  0  0  0  0  0  0  0  0  0
   -6.7714   20.5704  -34.1541 H   0  0  0  0  0  0  0  0  0  0  0  0
   -7.2539   25.0108  -30.5826 H   0  0  0  0  0  0  0  0  0  0  0  0
   -5.3351   26.1374  -29.4612 H   0  0  0  0  0  0  0  0  0  0  0  0
   -0.2016   23.5916  -30.6158 H   0  0  0  0  0  0  0  0  0  0  0  0
    0.3362   21.3386  -31.5341 H   0  0  0  0  0  0  0  0  0  0  0  0
    0.6275   18.3139  -28.7571 H   0  0  0  0  0  0  0  0  0  0  0  0
    1.1865   16.0533  -29.6255 H   0  0  0  0  0  0  0  0  0  0  0  0
    0.4530   15.3601  -31.8980 H   0  0  0  0  0  0  0  0  0  0  0  0
  1  2  1  0
  2  3  2  0
  2  4  2  0
  2  5  1  0
  5  6  2  3
  6  7  1  0
  7  8  2  0
  8  9  1  0
  9 10  1  0
 10 11  2  0
 11 12  1  0
 12 13  2  0
 13 14  1  0
 14 15  2  0
 15 16  1  0
 16 17  2  0
 16 18  2  0
 16 19  1  0
 19 20  1  0
 20 21  2  0
 21 22  1  0
 22 23  2  0
 23 24  1  0
 24 25  1  0
 25 26  2  0
 25 27  1  0
 27 28  2  3
 28 29  1  0
 29 30  2  0
 30 31  1  0
 31 32  2  0
 32 33  1  0
 33 34  2  0
 23 35  1  0
 35 36  2  0
 15 37  1  0
 37 38  2  0
 11 39  1  0
 39 40  2  0
 40 41  1  0
 41 42  2  0
 42  6  1  0
 42 10  1  0
 38 12  1  0
 36 20  1  0
 34 29  1  0
  1 43  1  0
  1 44  1  0
  1 45  1  0
  7 46  1  0
  8 47  1  0
 13 48  1  0
 14 49  1  0
 21 50  1  0
 22 51  1  0
 24 52  1  0
 27 53  1  0
 28 54  1  0
 30 55  1  0
 31 56  1  0
 32 57  1  0
 33 58  1  0
 34 59  1  0
 35 60  1  0
 36 61  1  0
 37 62  1  0
 38 63  1  0
 39 64  1  0
 40 65  1  0
 41 66  1  0
M  CHG  2   9  -1  19  -1
M  END
>  <UniqueID>  (34) 
33

>  <SMILES>  (34) 
CS(=O)(=O)N=c1cc[n-]c2c(-c3ccc(S(=O)(=O)[N-]c4ccc(NC(=O)C=Cc5ccccc5)cc4)cc3)cccc12

>  <Energy>  (34) 
105.65742503205543

>  <Genealogy>  (34) 
CS(=O)(=O)N=c1cc[n-]c2c(-c3ccc(S(=O)(=O)[N-]c4ccc(NC(=O)C=Cc5ccccc5)cc4)cc3)cccc12 (protonated)
CS(=O)(=O)N=c1cc[n-]c2c(-c3ccc(S(=O)(=O)[N-]c4ccc(NC(=O)C=Cc5ccccc5)cc4)cc3)cccc12 (3D coordinates assigned)
CS(=O)(=O)N=c1cc[n-]c2c(-c3ccc(S(=O)(=O)[N-]c4ccc(NC(=O)C=Cc5ccccc5)cc4)cc3)cccc12 (optimized conformer: 105.65742503205543 kcal/mol)

>  <smiles>  (34) 
CS(=O)(=O)N=c1cc[nH]c2c(-c3ccc(S(=O)(=O)Nc4ccc(NC(=O)C=Cc5ccccc5)cc4)cc3)cccc12

>  <score_type>  (34) 
oracle

>  <origin>  (34) 
adgpu

>  <m_score__min__energy>  (34) 
-12.51

>  <m_primary>  (34) 
energy

$$$$
34:0
     RDKit          3D

 47 50  0  0  0  0  0  0  0  0999 V2000
   -5.6970   25.9170  -30.0850 O   0  0  0  0  0  0  0  0  0  0  0  0
   -5.1310   24.8770  -30.5170 C   0  0  0  0  0  0  0  0  0  0  0  0
   -3.7010   24.7680  -30.5090 N   0  0  0  0  0  0  0  0  0  0  0  0
   -2.8780   24.3420  -29.4140 C   0  0  0  0  0  0  0  0  0  0  0  0
   -1.6160   23.8030  -29.6950 C   0  0  0  0  0  0  0  0  0  0  0  0
   -0.7740   23.3920  -28.6580 C   0  0  0  0  0  0  0  0  0  0  0  0
   -1.1760   23.5360  -27.3250 C   0  0  0  0  0  0  0  0  0  0  0  0
   -0.1110   22.9960  -26.0290 S   0  0  0  0  0  0  0  0  0  0  0  0
    1.1040   22.3230  -26.6070 O   0  0  0  0  0  0  0  0  0  0  0  0
   -0.8520   22.0020  -25.1790 O   0  0  0  0  0  0  0  0  0  0  0  0
    0.3760   24.3600  -25.0510 N   0  0  0  0  0  0  0  0  0  0  0  0
   -0.6990   24.7030  -24.1010 C   0  0  0  0  0  0  0  0  0  0  0  0
   -0.5350   26.1470  -23.5950 C   0  0  0  0  0  0  0  0  0  0  0  0
   -0.5590   27.1340  -24.6200 O   0  0  0  0  0  0  0  0  0  0  0  0
   -0.2690   26.6240  -25.9140 C   0  0  0  0  0  0  0  0  0  0  0  0
    0.7860   25.5030  -25.8970 C   0  0  0  0  0  0  0  0  0  0  0  0
   -2.4280   24.0930  -27.0360 C   0  0  0  0  0  0  0  0  0  0  0  0
   -3.2730   24.5030  -28.0730 C   0  0  0  0  0  0  0  0  0  0  0  0
   -5.9250   23.7720  -30.9690 N   0  0  0  0  0  0  0  0  0  0  0  0
   -5.3600   22.5070  -31.4430 C   0  0  0  0  0  0  0  0  0  0  0  0
   -6.5650   21.7160  -31.7900 C   0  0  0  0  0  0  0  0  0  0  0  0
   -6.6210   20.4150  -32.2900 C   0  0  0  0  0  0  0  0  0  0  0  0
   -7.8810   19.8490  -32.5450 C   0  0  0  0  0  0  0  0  0  0  0  0
   -9.0540   20.5880  -32.2990 C   0  0  0  0  0  0  0  0  0  0  0  0
   -8.9750   21.8960  -31.7950 C   0  0  0  0  0  0  0  0  0  0  0  0
   -7.7120   22.4380  -31.5490 C   0  0  0  0  0  0  0  0  0  0  0  0
   -7.3870   23.7840  -31.0150 C   0  0  0  0  0  0  0  0  0  0  0  0
   -1.2853   23.7025  -30.7393 H   0  0  0  0  0  0  0  0  0  0  0  0
    0.2079   22.9539  -28.8901 H   0  0  0  0  0  0  0  0  0  0  0  0
   -1.6717   24.6050  -24.6052 H   0  0  0  0  0  0  0  0  0  0  0  0
   -0.6447   24.0181  -23.2419 H   0  0  0  0  0  0  0  0  0  0  0  0
   -1.3537   26.3606  -22.8921 H   0  0  0  0  0  0  0  0  0  0  0  0
    0.4582   26.2050  -23.1257 H   0  0  0  0  0  0  0  0  0  0  0  0
   -1.1970   26.2252  -26.3495 H   0  0  0  0  0  0  0  0  0  0  0  0
    0.1415   27.4527  -26.5095 H   0  0  0  0  0  0  0  0  0  0  0  0
    0.9386   25.1450  -26.9259 H   0  0  0  0  0  0  0  0  0  0  0  0
    1.7129   25.9190  -25.4753 H   0  0  0  0  0  0  0  0  0  0  0  0
   -2.7482   24.2086  -25.9900 H   0  0  0  0  0  0  0  0  0  0  0  0
   -4.2493   24.9527  -27.8393 H   0  0  0  0  0  0  0  0  0  0  0  0
   -4.7222   22.6643  -32.3253 H   0  0  0  0  0  0  0  0  0  0  0  0
   -4.7153   22.0138  -30.7007 H   0  0  0  0  0  0  0  0  0  0  0  0
   -5.6995   19.8453  -32.4803 H   0  0  0  0  0  0  0  0  0  0  0  0
   -7.9516   18.8242  -32.9385 H   0  0  0  0  0  0  0  0  0  0  0  0
  -10.0370   20.1383  -32.5027 H   0  0  0  0  0  0  0  0  0  0  0  0
   -9.8864   22.4798  -31.5986 H   0  0  0  0  0  0  0  0  0  0  0  0
   -7.7556   24.5751  -31.6845 H   0  0  0  0  0  0  0  0  0  0  0  0
   -7.8511   23.9881  -30.0388 H   0  0  0  0  0  0  0  0  0  0  0  0
  1  2  2  0
  2  3  1  0
  3  4  1  0
  4  5  2  0
  5  6  1  0
  6  7  2  0
  7  8  1  0
  8  9  2  0
  8 10  2  0
  8 11  1  0
 11 12  1  0
 12 13  1  0
 13 14  1  0
 14 15  1  0
 15 16  1  0
  7 17  1  0
 17 18  2  0
  2 19  1  0
 19 20  1  0
 20 21  1  0
 21 22  2  0
 22 23  1  0
 23 24  2  0
 24 25  1  0
 25 26  2  0
 26 27  1  0
 18  4  1  0
 27 19  1  0
 16 11  1  0
 26 21  1  0
  5 28  1  0
  6 29  1  0
 12 30  1  0
 12 31  1  0
 13 32  1  0
 13 33  1  0
 15 34  1  0
 15 35  1  0
 16 36  1  0
 16 37  1  0
 17 38  1  0
 18 39  1  0
 20 40  1  0
 20 41  1  0
 22 42  1  0
 23 43  1  0
 24 44  1  0
 25 45  1  0
 27 46  1  0
 27 47  1  0
M  CHG  1   3  -1
M  END
>  <UniqueID>  (35) 
34

>  <SMILES>  (35) 
O=C([N-]c1ccc(S(=O)(=O)N2CCOCC2)cc1)N1Cc2ccccc2C1

>  <Energy>  (35) 
74.56594364365361

>  <Genealogy>  (35) 
O=C([N-]c1ccc(S(=O)(=O)N2CCOCC2)cc1)N1Cc2ccccc2C1 (protonated)
O=C([N-]c1ccc(S(=O)(=O)N2CCOCC2)cc1)N1Cc2ccccc2C1 (3D coordinates assigned)
O=C([N-]c1ccc(S(=O)(=O)N2CCOCC2)cc1)N1Cc2ccccc2C1 (nonaromatic ring conformer: 74.56594364365361 kcal/mol)

>  <smiles>  (35) 
O=C(Nc1ccc(S(=O)(=O)N2CCOCC2)cc1)N1Cc2ccccc2C1

>  <score_type>  (35) 
oracle

>  <origin>  (35) 
adgpu

>  <m_score__min__energy>  (35) 
-10.279999999999999

>  <m_primary>  (35) 
energy

$$$$
35:0
     RDKit          3D

 46 49  0  0  0  0  0  0  0  0999 V2000
   -0.8957   23.1320  -25.1955 H   0  0  0  0  0  0  0  0  0  0  0  0
   -1.0630   22.7410  -26.2100 C   0  0  0  0  0  0  0  0  0  0  0  0
   -1.9100   23.4220  -27.0880 C   0  0  0  0  0  0  0  0  0  0  0  0
   -2.4044   24.3483  -26.7602 H   0  0  0  0  0  0  0  0  0  0  0  0
   -2.1360   22.9330  -28.3880 C   0  0  0  0  0  0  0  0  0  0  0  0
   -3.0430   23.6650  -29.3060 C   0  0  0  0  0  0  0  0  0  0  0  0
   -2.8980   24.9740  -29.6110 N   0  0  0  0  0  0  0  0  0  0  0  0
   -3.8570   25.3060  -30.4580 N   0  0  0  0  0  0  0  0  0  0  0  0
   -3.9780   26.2600  -30.8660 H   0  0  0  0  0  0  0  0  0  0  0  0
   -4.6230   24.2300  -30.6970 C   0  0  0  0  0  0  0  0  0  0  0  0
   -5.6260   24.2450  -31.5270 N   0  0  0  0  0  0  0  0  0  0  0  0
   -6.5280   23.1610  -31.7950 C   0  0  0  0  0  0  0  0  0  0  0  0
   -6.0690   21.9240  -32.2800 C   0  0  0  0  0  0  0  0  0  0  0  0
   -4.9995   21.7827  -32.4951 H   0  0  0  0  0  0  0  0  0  0  0  0
   -6.9660   20.8730  -32.4900 C   0  0  0  0  0  0  0  0  0  0  0  0
   -6.5999   19.9145  -32.8865 H   0  0  0  0  0  0  0  0  0  0  0  0
   -8.3260   21.0300  -32.2000 C   0  0  0  0  0  0  0  0  0  0  0  0
   -9.1860   19.9460  -32.4320 O   0  0  0  0  0  0  0  0  0  0  0  0
   -9.0440   18.6640  -31.8280 C   0  0  0  0  0  0  0  0  0  0  0  0
   -9.0559   18.7711  -30.7333 H   0  0  0  0  0  0  0  0  0  0  0  0
   -9.8759   18.0165  -32.1421 H   0  0  0  0  0  0  0  0  0  0  0  0
   -8.0905   18.2143  -32.1421 H   0  0  0  0  0  0  0  0  0  0  0  0
   -8.7800   22.2580  -31.6830 C   0  0  0  0  0  0  0  0  0  0  0  0
   -9.8453   22.3916  -31.4435 H   0  0  0  0  0  0  0  0  0  0  0  0
   -7.8820   23.3080  -31.4730 C   0  0  0  0  0  0  0  0  0  0  0  0
   -8.2424   24.2578  -31.0511 H   0  0  0  0  0  0  0  0  0  0  0  0
   -4.1360   23.1470  -29.9880 C   0  0  0  0  0  0  0  0  0  0  0  0
   -4.5233   22.1176  -29.9689 H   0  0  0  0  0  0  0  0  0  0  0  0
   -1.4920   21.7470  -28.7880 C   0  0  0  0  0  0  0  0  0  0  0  0
   -1.6658   21.3482  -29.7983 H   0  0  0  0  0  0  0  0  0  0  0  0
   -0.6290   21.0660  -27.9110 C   0  0  0  0  0  0  0  0  0  0  0  0
    0.0210   19.8070  -28.3360 C   0  0  0  0  0  0  0  0  0  0  0  0
    0.9950   19.8580  -29.3490 C   0  0  0  0  0  0  0  0  0  0  0  0
    1.2812   20.8281  -29.7814 H   0  0  0  0  0  0  0  0  0  0  0  0
    1.6020   18.6890  -29.8110 C   0  0  0  0  0  0  0  0  0  0  0  0
    2.3618   18.7405  -30.6047 H   0  0  0  0  0  0  0  0  0  0  0  0
    1.2450   17.4550  -29.2660 C   0  0  0  0  0  0  0  0  0  0  0  0
    1.7169   16.5335  -29.6376 H   0  0  0  0  0  0  0  0  0  0  0  0
    0.2900   17.3880  -28.2500 C   0  0  0  0  0  0  0  0  0  0  0  0
    0.0160   16.4119  -27.8231 H   0  0  0  0  0  0  0  0  0  0  0  0
   -0.3240   18.5550  -27.7680 C   0  0  0  0  0  0  0  0  0  0  0  0
   -1.2530   18.4520  -26.6810 N   0  0  0  0  0  0  0  0  0  0  0  0
   -2.0420   19.1310  -26.5930 H   0  0  0  0  0  0  0  0  0  0  0  0
   -1.2170   17.6680  -25.9940 H   0  0  0  0  0  0  0  0  0  0  0  0
   -0.4290   21.5670  -26.6160 C   0  0  0  0  0  0  0  0  0  0  0  0
    0.2309   21.0314  -25.9176 H   0  0  0  0  0  0  0  0  0  0  0  0
  1  2  1  0
  2  3  2  0
  3  4  1  0
  3  5  1  0
  5  6  1  0
  6  7  1  0
  7  8  1  0
  8  9  1  0
  8 10  1  0
 10 11  2  0
 11 12  1  0
 12 13  2  0
 13 14  1  0
 13 15  1  0
 15 16  1  0
 15 17  2  0
 17 18  1  0
 18 19  1  0
 19 20  1  0
 19 21  1  0
 19 22  1  0
 17 23  1  0
 23 24  1  0
 23 25  2  0
 25 26  1  0
 10 27  1  0
 27 28  1  0
  5 29  2  0
 29 30  1  0
 29 31  1  0
 31 32  1  0
 32 33  2  0
 33 34  1  0
 33 35  1  0
 35 36  1  0
 35 37  2  0
 37 38  1  0
 37 39  1  0
 39 40  1  0
 39 41  2  0
 41 42  1  0
 42 43  1  0
 42 44  1  0
 31 45  2  0
 45 46  1  0
 45  2  1  0
 27  6  2  0
 41 32  1  0
 25 12  1  0
M  CHG  1   7  -1
M  END
>  <UniqueID>  (36) 
35

>  <SMILES>  (36) 
COc1ccc(/N=c2\cc(-c3cccc(-c4ccccc4N)c3)[n-][nH]2)cc1

>  <Energy>  (36) 
96.60677242803668

>  <Genealogy>  (36) 
COc1ccc(N=c2cc(-c3cccc(-c4ccccc4N)c3)[n-][nH]2)cc1 (protonated)
COc1ccc(/N=c2\cc(-c3cccc(-c4ccccc4N)c3)[n-][nH]2)cc1 (cis-trans isomerization)
COc1ccc(/N=c2\cc(-c3cccc(-c4ccccc4N)c3)[n-][nH]2)cc1 (3D coordinates assigned)
COc1ccc(/N=c2\cc(-c3cccc(-c4ccccc4N)c3)[n-][nH]2)cc1 (optimized conformer: 96.60677242803668 kcal/mol)

>  <smiles>  (36) 
COc1ccc(N=c2cc(-c3cccc(-c4ccccc4N)c3)[nH][nH]2)cc1

>  <score_type>  (36) 
oracle

>  <origin>  (36) 
adgpu

>  <m_score__min__energy>  (36) 
-11

>  <m_primary>  (36) 
energy

$$$$
36:0
     RDKit          3D

 50 53  0  0  0  0  0  0  0  0999 V2000
   -1.5950   18.5520  -32.5050 C   0  0  0  0  0  0  0  0  0  0  0  0
   -0.2050   18.3160  -32.0760 N   0  0  0  0  0  0  0  0  0  0  0  0
   -0.1390   17.7360  -30.7090 C   0  0  0  0  0  0  0  0  0  0  0  0
    0.3230   18.7330  -29.6290 C   0  0  0  0  0  0  0  0  0  0  0  0
   -0.1420   20.0840  -29.9570 N   0  0  0  0  0  0  0  0  0  0  0  0
   -1.1400   20.7320  -29.1410 C   0  0  0  0  0  0  0  0  0  0  0  0
   -1.9470   20.0310  -28.4720 O   0  0  0  0  0  0  0  0  0  0  0  0
   -1.2610   22.2060  -29.0920 C   0  0  0  0  0  0  0  0  0  0  0  0
   -0.3450   22.9760  -28.3590 C   0  0  0  0  0  0  0  0  0  0  0  0
   -0.4660   24.3670  -28.3210 C   0  0  0  0  0  0  0  0  0  0  0  0
   -1.5060   25.0020  -29.0050 C   0  0  0  0  0  0  0  0  0  0  0  0
   -1.6080   26.3880  -28.9610 O   0  0  0  0  0  0  0  0  0  0  0  0
   -2.4420   24.2490  -29.7270 C   0  0  0  0  0  0  0  0  0  0  0  0
   -3.4970   24.9330  -30.4180 N   0  0  0  0  0  0  0  0  0  0  0  0
   -5.1320   24.3720  -30.5570 S   0  0  0  0  0  0  0  0  0  0  0  0
   -5.9670   25.4400  -31.2050 O   0  0  0  0  0  0  0  0  0  0  0  0
   -5.6670   24.0560  -29.1890 O   0  0  0  0  0  0  0  0  0  0  0  0
   -5.1940   22.9110  -31.5470 C   0  0  0  0  0  0  0  0  0  0  0  0
   -4.0350   22.4500  -32.1900 C   0  0  0  0  0  0  0  0  0  0  0  0
   -4.0710   21.2910  -32.9710 C   0  0  0  0  0  0  0  0  0  0  0  0
   -5.2610   20.5770  -33.1200 C   0  0  0  0  0  0  0  0  0  0  0  0
   -6.4280   21.0210  -32.4840 C   0  0  0  0  0  0  0  0  0  0  0  0
   -7.6350   20.3220  -32.6160 C   0  0  0  0  0  0  0  0  0  0  0  0
   -8.7810   20.7870  -31.9720 C   0  0  0  0  0  0  0  0  0  0  0  0
   -8.7130   21.9480  -31.2000 C   0  0  0  0  0  0  0  0  0  0  0  0
   -7.5370   22.6180  -31.0780 N   0  0  0  0  0  0  0  0  0  0  0  0
   -6.3980   22.1940  -31.6930 C   0  0  0  0  0  0  0  0  0  0  0  0
   -2.3170   22.8470  -29.7610 C   0  0  0  0  0  0  0  0  0  0  0  0
    0.2250   20.6420  -31.2650 C   0  0  0  0  0  0  0  0  0  0  0  0
    0.6320   19.5250  -32.2420 C   0  0  0  0  0  0  0  0  0  0  0  0
   -2.2385   18.6613  -31.6196 H   0  0  0  0  0  0  0  0  0  0  0  0
   -1.6417   19.4709  -33.1078 H   0  0  0  0  0  0  0  0  0  0  0  0
   -1.9424   17.7000  -33.1078 H   0  0  0  0  0  0  0  0  0  0  0  0
   -1.1412   17.3722  -30.4384 H   0  0  0  0  0  0  0  0  0  0  0  0
    0.6089   16.9300  -30.7401 H   0  0  0  0  0  0  0  0  0  0  0  0
   -0.0913   18.4322  -28.6554 H   0  0  0  0  0  0  0  0  0  0  0  0
    1.4221   18.7318  -29.5852 H   0  0  0  0  0  0  0  0  0  0  0  0
    0.4717   22.4821  -27.8121 H   0  0  0  0  0  0  0  0  0  0  0  0
    0.2601   24.9648  -27.7505 H   0  0  0  0  0  0  0  0  0  0  0  0
   -3.0915   23.0045  -32.0787 H   0  0  0  0  0  0  0  0  0  0  0  0
   -3.1563   20.9398  -33.4709 H   0  0  0  0  0  0  0  0  0  0  0  0
   -5.2827   19.6662  -33.7364 H   0  0  0  0  0  0  0  0  0  0  0  0
   -7.6785   19.4080  -33.2266 H   0  0  0  0  0  0  0  0  0  0  0  0
   -9.7318   20.2429  -32.0716 H   0  0  0  0  0  0  0  0  0  0  0  0
   -9.6130   22.3213  -30.6894 H   0  0  0  0  0  0  0  0  0  0  0  0
   -3.0533   22.2478  -30.3167 H   0  0  0  0  0  0  0  0  0  0  0  0
   -0.6363   21.1868  -31.6790 H   0  0  0  0  0  0  0  0  0  0  0  0
    1.0798   21.3212  -31.1308 H   0  0  0  0  0  0  0  0  0  0  0  0
    0.5217   19.8954  -33.2719 H   0  0  0  0  0  0  0  0  0  0  0  0
    1.6756   19.2494  -32.0298 H   0  0  0  0  0  0  0  0  0  0  0  0
  1  2  1  0
  2  3  1  0
  3  4  1  0
  4  5  1  0
  5  6  1  0
  6  7  2  0
  6  8  1  0
  8  9  2  0
  9 10  1  0
 10 11  2  0
 11 12  1  0
 11 13  1  0
 13 14  1  0
 14 15  1  0
 15 16  2  0
 15 17  2  0
 15 18  1  0
 18 19  2  0
 19 20  1  0
 20 21  2  0
 21 22  1  0
 22 23  2  0
 23 24  1  0
 24 25  2  0
 25 26  1  0
 26 27  2  0
 13 28  2  0
  5 29  1  0
 29 30  1  0
 30  2  1  0
 28  8  1  0
 27 18  1  0
 27 22  1  0
  1 31  1  0
  1 32  1  0
  1 33  1  0
  3 34  1  0
  3 35  1  0
  4 36  1  0
  4 37  1  0
  9 38  1  0
 10 39  1  0
 19 40  1  0
 20 41  1  0
 21 42  1  0
 23 43  1  0
 24 44  1  0
 25 45  1  0
 28 46  1  0
 29 47  1  0
 29 48  1  0
 30 49  1  0
 30 50  1  0
M  CHG  2  12  -1  14  -1
M  END
>  <UniqueID>  (37) 
36

>  <SMILES>  (37) 
CN1CCN(C(=O)c2ccc([O-])c([N-]S(=O)(=O)c3cccc4cccnc34)c2)CC1

>  <Energy>  (37) 
75.13230023346968

>  <Genealogy>  (37) 
CN1CCN(C(=O)c2ccc([O-])c([N-]S(=O)(=O)c3cccc4cccnc34)c2)CC1 (protonated)
CN1CCN(C(=O)c2ccc([O-])c([N-]S(=O)(=O)c3cccc4cccnc34)c2)CC1 (3D coordinates assigned)
CN1CCN(C(=O)c2ccc([O-])c([N-]S(=O)(=O)c3cccc4cccnc34)c2)CC1 (nonaromatic ring conformer: 75.13230023346968 kcal/mol)

>  <smiles>  (37) 
CN1CCN(C(=O)c2ccc(O)c(NS(=O)(=O)c3cccc4cccnc34)c2)CC1

>  <score_type>  (37) 
oracle

>  <origin>  (37) 
adgpu

>  <m_score__min__energy>  (37) 
-14.17

>  <m_primary>  (37) 
energy

$$$$
37:0
     RDKit          3D

 30 32  0  0  0  0  0  0  0  0999 V2000
   -9.3630   18.9550  -33.5050 H   0  0  0  0  0  0  0  0  0  0  0  0
   -8.8540   19.7670  -33.0900 N   0  0  0  0  0  0  0  0  0  0  0  0
   -7.5630   19.8270  -33.0910 C   0  0  0  0  0  0  0  0  0  0  0  0
   -6.9340   20.8940  -32.5400 N   0  0  0  0  0  0  0  0  0  0  0  0
   -5.5780   20.9840  -32.5330 C   0  0  0  0  0  0  0  0  0  0  0  0
   -4.9520   22.1280  -31.8340 C   0  0  0  0  0  0  0  0  0  0  0  0
   -3.8150   21.9060  -31.0370 C   0  0  0  0  0  0  0  0  0  0  0  0
   -3.3898   20.8943  -30.9611 H   0  0  0  0  0  0  0  0  0  0  0  0
   -3.2220   22.9620  -30.3410 C   0  0  0  0  0  0  0  0  0  0  0  0
   -2.3285   22.7807  -29.7255 H   0  0  0  0  0  0  0  0  0  0  0  0
   -3.7610   24.2470  -30.4250 C   0  0  0  0  0  0  0  0  0  0  0  0
   -3.1710   25.2940  -29.7290 O   0  0  0  0  0  0  0  0  0  0  0  0
   -4.8930   24.4780  -31.2100 C   0  0  0  0  0  0  0  0  0  0  0  0
   -5.3177   25.4910  -31.2693 H   0  0  0  0  0  0  0  0  0  0  0  0
   -5.4920   23.4320  -31.9220 C   0  0  0  0  0  0  0  0  0  0  0  0
   -6.6000   23.7220  -32.7200 O   0  0  0  0  0  0  0  0  0  0  0  0
   -7.0630   23.0280  -33.2920 H   0  0  0  0  0  0  0  0  0  0  0  0
   -4.8250   19.9420  -33.1180 C   0  0  0  0  0  0  0  0  0  0  0  0
   -3.3470   19.9570  -33.2020 C   0  0  0  0  0  0  0  0  0  0  0  0
   -2.6030   18.8720  -32.7120 C   0  0  0  0  0  0  0  0  0  0  0  0
   -3.1201   18.0141  -32.2574 H   0  0  0  0  0  0  0  0  0  0  0  0
   -1.2460   18.8770  -32.7970 N   0  0  0  0  0  0  0  0  0  0  0  0
   -0.5680   19.9100  -33.3620 C   0  0  0  0  0  0  0  0  0  0  0  0
    0.5307   19.8859  -33.4101 H   0  0  0  0  0  0  0  0  0  0  0  0
   -1.2650   21.0010  -33.8810 C   0  0  0  0  0  0  0  0  0  0  0  0
   -0.7213   21.8379  -34.3436 H   0  0  0  0  0  0  0  0  0  0  0  0
   -2.6580   21.0210  -33.8080 C   0  0  0  0  0  0  0  0  0  0  0  0
   -3.2177   21.8710  -34.2255 H   0  0  0  0  0  0  0  0  0  0  0  0
   -5.4970   18.8820  -33.6440 N   0  0  0  0  0  0  0  0  0  0  0  0
   -6.8280   18.8240  -33.6340 N   0  0  0  0  0  0  0  0  0  0  0  0
  1  2  1  0
  2  3  2  0
  3  4  1  0
  4  5  2  0
  5  6  1  0
  6  7  2  0
  7  8  1  0
  7  9  1  0
  9 10  1  0
  9 11  2  0
 11 12  1  0
 11 13  1  0
 13 14  1  0
 13 15  2  0
 15 16  1  0
 16 17  1  0
  5 18  1  0
 18 19  1  0
 19 20  2  0
 20 21  1  0
 20 22  1  0
 22 23  2  0
 23 24  1  0
 23 25  1  0
 25 26  1  0
 25 27  2  0
 27 28  1  0
 18 29  2  0
 29 30  1  0
 30  3  1  0
 15  6  1  0
 27 19  1  0
M  CHG  2  12  -1  30  -1
M  END
>  <UniqueID>  (38) 
37

>  <SMILES>  (38) 
[H]/N=c1/nc(-c2ccc([O-])cc2O)c(-c2cccnc2)n[n-]1

>  <Energy>  (38) 
48.461115426967055

>  <Genealogy>  (38) 
N=c1nc(-c2ccc([O-])cc2O)c(-c2cccnc2)n[n-]1 (protonated)
[H]/N=c1/nc(-c2ccc([O-])cc2O)c(-c2cccnc2)n[n-]1 (cis-trans isomerization)
[H]/N=c1/nc(-c2ccc([O-])cc2O)c(-c2cccnc2)n[n-]1 (3D coordinates assigned)
[H]/N=c1/nc(-c2ccc([O-])cc2O)c(-c2cccnc2)n[n-]1 (optimized conformer: 48.461115426967055 kcal/mol)

>  <smiles>  (38) 
N=c1nc(-c2ccc(O)cc2O)c(-c2cccnc2)n[nH]1

>  <score_type>  (38) 
oracle

>  <origin>  (38) 
adgpu

>  <m_score__min__energy>  (38) 
-9.0800000000000001

>  <m_primary>  (38) 
energy

$$$$
38:0
     RDKit          3D

 40 42  0  0  0  0  0  0  0  0999 V2000
   -8.1750   20.1980  -32.2190 C   0  0  0  0  0  0  0  0  0  0  0  0
   -7.1180   21.1760  -32.4570 N   0  0  0  0  0  0  0  0  0  0  0  0
   -7.1100   22.5240  -31.9810 C   0  0  0  0  0  0  0  0  0  0  0  0
   -8.1280   23.1350  -31.5620 O   0  0  0  0  0  0  0  0  0  0  0  0
   -5.7590   23.0620  -32.0270 C   0  0  0  0  0  0  0  0  0  0  0  0
   -5.3880   24.2180  -31.6930 O   0  0  0  0  0  0  0  0  0  0  0  0
   -4.9240   21.9780  -32.5130 C   0  0  0  0  0  0  0  0  0  0  0  0
   -3.5480   21.9210  -32.7180 C   0  0  0  0  0  0  0  0  0  0  0  0
   -2.9910   20.7090  -33.1700 C   0  0  0  0  0  0  0  0  0  0  0  0
   -1.2580   20.6090  -33.4710 S   0  0  0  0  0  0  0  0  0  0  0  0
   -1.0080   19.6130  -34.5680 O   0  0  0  0  0  0  0  0  0  0  0  0
   -0.7310   21.9460  -33.9120 O   0  0  0  0  0  0  0  0  0  0  0  0
   -0.4250   20.0980  -32.0340 N   0  0  0  0  0  0  0  0  0  0  0  0
   -1.3890   19.8620  -30.9590 C   0  0  0  0  0  0  0  0  0  0  0  0
   -1.2530   20.9340  -29.9130 C   0  0  0  0  0  0  0  0  0  0  0  0
   -0.4990   20.6980  -28.7550 C   0  0  0  0  0  0  0  0  0  0  0  0
   -0.3430   21.7050  -27.8010 C   0  0  0  0  0  0  0  0  0  0  0  0
   -0.9270   22.9590  -27.9990 C   0  0  0  0  0  0  0  0  0  0  0  0
   -1.6740   23.2210  -29.1620 C   0  0  0  0  0  0  0  0  0  0  0  0
   -2.2880   24.5520  -29.3810 C   0  0  0  0  0  0  0  0  0  0  0  0
   -1.6160   25.7390  -28.9590 N   0  0  0  0  0  0  0  0  0  0  0  0
   -3.4120   24.6510  -29.9430 O   0  0  0  0  0  0  0  0  0  0  0  0
   -1.8260   22.1990  -30.1200 C   0  0  0  0  0  0  0  0  0  0  0  0
   -3.8250   19.5920  -33.4040 C   0  0  0  0  0  0  0  0  0  0  0  0
   -5.2110   19.6720  -33.1850 C   0  0  0  0  0  0  0  0  0  0  0  0
   -5.7430   20.8850  -32.7400 C   0  0  0  0  0  0  0  0  0  0  0  0
   -8.3164   20.0672  -31.1360 H   0  0  0  0  0  0  0  0  0  0  0  0
   -9.1126   20.5541  -32.6708 H   0  0  0  0  0  0  0  0  0  0  0  0
   -7.8926   19.2356  -32.6708 H   0  0  0  0  0  0  0  0  0  0  0  0
   -2.9127   22.7995  -32.5318 H   0  0  0  0  0  0  0  0  0  0  0  0
    0.0390   19.1880  -32.2620 H   0  0  0  0  0  0  0  0  0  0  0  0
   -2.4086   19.8805  -31.3714 H   0  0  0  0  0  0  0  0  0  0  0  0
   -1.1933   18.8804  -30.5027 H   0  0  0  0  0  0  0  0  0  0  0  0
   -0.0288   19.7161  -28.5976 H   0  0  0  0  0  0  0  0  0  0  0  0
    0.2419   21.5107  -26.8899 H   0  0  0  0  0  0  0  0  0  0  0  0
   -0.8019   23.7461  -27.2408 H   0  0  0  0  0  0  0  0  0  0  0  0
   -1.2350   26.4160  -29.6560 H   0  0  0  0  0  0  0  0  0  0  0  0
   -2.3989   22.3940  -31.0386 H   0  0  0  0  0  0  0  0  0  0  0  0
   -3.3844   18.6496  -33.7615 H   0  0  0  0  0  0  0  0  0  0  0  0
   -5.8606   18.8016  -33.3595 H   0  0  0  0  0  0  0  0  0  0  0  0
  1  2  1  0
  2  3  1  0
  3  4  2  0
  3  5  1  0
  5  6  2  0
  5  7  1  0
  7  8  2  0
  8  9  1  0
  9 10  1  0
 10 11  2  0
 10 12  2  0
 10 13  1  0
 13 14  1  0
 14 15  1  0
 15 16  2  0
 16 17  1  0
 17 18  2  0
 18 19  1  0
 19 20  1  0
 20 21  1  0
 20 22  2  0
 19 23  2  0
  9 24  2  0
 24 25  1  0
 25 26  2  0
 26  2  1  0
 26  7  1  0
 23 15  1  0
  1 27  1  0
  1 28  1  0
  1 29  1  0
  8 30  1  0
 13 31  1  0
 14 32  1  0
 14 33  1  0
 16 34  1  0
 17 35  1  0
 18 36  1  0
 21 37  1  0
 23 38  1  0
 24 39  1  0
 25 40  1  0
M  CHG  1  21  -1
M  END
>  <UniqueID>  (39) 
38

>  <SMILES>  (39) 
CN1C(=O)C(=O)c2cc(S(=O)(=O)NCc3cccc(C([NH-])=O)c3)ccc21

>  <Energy>  (39) 
70.66034349974339

>  <Genealogy>  (39) 
CN1C(=O)C(=O)c2cc(S(=O)(=O)NCc3cccc(C([NH-])=O)c3)ccc21 (protonated)
CN1C(=O)C(=O)c2cc(S(=O)(=O)NCc3cccc(C([NH-])=O)c3)ccc21 (3D coordinates assigned)
CN1C(=O)C(=O)c2cc(S(=O)(=O)NCc3cccc(C([NH-])=O)c3)ccc21 (nonaromatic ring conformer: 70.66034349974339 kcal/mol)

>  <smiles>  (39) 
CN1C(=O)C(=O)c2cc(S(=O)(=O)NCc3cccc(C(N)=O)c3)ccc21

>  <score_type>  (39) 
oracle

>  <origin>  (39) 
adgpu

>  <m_score__min__energy>  (39) 
-11.98

>  <m_primary>  (39) 
energy

$$$$
39:0
     RDKit          3D

 49 52  0  0  0  0  0  0  0  0999 V2000
   -4.2550   21.8800  -33.4210 O   0  0  0  0  0  0  0  0  0  0  0  0
   -4.8050   21.6170  -32.0480 S   0  0  0  0  0  0  0  0  0  0  0  0
   -3.9700   20.5430  -31.4070 O   0  0  0  0  0  0  0  0  0  0  0  0
   -4.6990   23.0710  -31.1110 N   0  0  0  0  0  0  0  0  0  0  0  0
   -3.7810   23.3050  -30.0330 C   0  0  0  0  0  0  0  0  0  0  0  0
   -3.2790   22.2550  -29.2450 C   0  0  0  0  0  0  0  0  0  0  0  0
   -2.3520   22.5090  -28.2240 C   0  0  0  0  0  0  0  0  0  0  0  0
   -1.9420   23.8290  -27.9620 C   0  0  0  0  0  0  0  0  0  0  0  0
   -2.4550   24.8760  -28.7400 C   0  0  0  0  0  0  0  0  0  0  0  0
   -3.3690   24.6180  -29.7640 C   0  0  0  0  0  0  0  0  0  0  0  0
   -3.8650   25.6750  -30.5220 O   0  0  0  0  0  0  0  0  0  0  0  0
   -0.8750   24.1240  -26.9370 C   0  0  0  0  0  0  0  0  0  0  0  0
   -0.5730   22.9210  -26.0230 C   0  0  0  0  0  0  0  0  0  0  0  0
   -0.5480   21.6400  -26.7570 N   0  0  0  0  0  0  0  0  0  0  0  0
    0.5580   21.5780  -27.7400 C   0  0  0  0  0  0  0  0  0  0  0  0
    0.1480   20.7930  -28.9590 C   0  0  0  0  0  0  0  0  0  0  0  0
    0.2410   19.3920  -28.9580 C   0  0  0  0  0  0  0  0  0  0  0  0
   -0.1860   18.6590  -30.0670 C   0  0  0  0  0  0  0  0  0  0  0  0
   -0.7120   19.3160  -31.1810 C   0  0  0  0  0  0  0  0  0  0  0  0
   -0.8080   20.7120  -31.1940 C   0  0  0  0  0  0  0  0  0  0  0  0
   -1.3350   21.3570  -32.3090 O   0  0  0  0  0  0  0  0  0  0  0  0
   -0.3750   21.4500  -30.0850 C   0  0  0  0  0  0  0  0  0  0  0  0
   -1.8720   21.3720  -27.3580 C   0  0  0  0  0  0  0  0  0  0  0  0
   -6.4870   21.1220  -32.1940 C   0  0  0  0  0  0  0  0  0  0  0  0
   -6.8310   19.8360  -32.6340 C   0  0  0  0  0  0  0  0  0  0  0  0
   -8.1750   19.4570  -32.7170 C   0  0  0  0  0  0  0  0  0  0  0  0
   -9.1820   20.3640  -32.3720 C   0  0  0  0  0  0  0  0  0  0  0  0
   -8.8440   21.6500  -31.9390 C   0  0  0  0  0  0  0  0  0  0  0  0
   -7.5020   22.0270  -31.8490 C   0  0  0  0  0  0  0  0  0  0  0  0
   -3.6164   21.2246  -29.4309 H   0  0  0  0  0  0  0  0  0  0  0  0
   -2.1350   25.9097  -28.5424 H   0  0  0  0  0  0  0  0  0  0  0  0
    0.0490   24.4057  -27.4632 H   0  0  0  0  0  0  0  0  0  0  0  0
   -1.2469   24.9388  -26.2984 H   0  0  0  0  0  0  0  0  0  0  0  0
    0.4085   23.0753  -25.5509 H   0  0  0  0  0  0  0  0  0  0  0  0
   -1.3785   22.8605  -25.2763 H   0  0  0  0  0  0  0  0  0  0  0  0
    0.8282   22.6002  -28.0435 H   0  0  0  0  0  0  0  0  0  0  0  0
    1.4181   21.0773  -27.2714 H   0  0  0  0  0  0  0  0  0  0  0  0
    0.6515   18.8703  -28.0809 H   0  0  0  0  0  0  0  0  0  0  0  0
   -0.1078   17.5618  -30.0630 H   0  0  0  0  0  0  0  0  0  0  0  0
   -1.0519   18.7347  -32.0508 H   0  0  0  0  0  0  0  0  0  0  0  0
   -2.3320   21.4820  -32.4300 H   0  0  0  0  0  0  0  0  0  0  0  0
   -0.4448   22.5477  -30.0959 H   0  0  0  0  0  0  0  0  0  0  0  0
   -1.8026   20.4636  -27.9745 H   0  0  0  0  0  0  0  0  0  0  0  0
   -2.5937   21.2485  -26.5371 H   0  0  0  0  0  0  0  0  0  0  0  0
   -6.0418   19.1230  -32.9147 H   0  0  0  0  0  0  0  0  0  0  0  0
   -8.4402   18.4441  -33.0541 H   0  0  0  0  0  0  0  0  0  0  0  0
  -10.2387   20.0662  -32.4412 H   0  0  0  0  0  0  0  0  0  0  0  0
   -9.6352   22.3650  -31.6692 H   0  0  0  0  0  0  0  0  0  0  0  0
   -7.2397   23.0387  -31.5059 H   0  0  0  0  0  0  0  0  0  0  0  0
  1  2  2  0
  2  3  2  0
  2  4  1  0
  4  5  1  0
  5  6  2  0
  6  7  1  0
  7  8  2  0
  8  9  1  0
  9 10  2  0
 10 11  1  0
  8 12  1  0
 12 13  1  0
 13 14  1  0
 14 15  1  0
 15 16  1  0
 16 17  2  0
 17 18  1  0
 18 19  2  0
 19 20  1  0
 20 21  1  0
 20 22  2  0
 14 23  1  0
  2 24  1  0
 24 25  2  0
 25 26  1  0
 26 27  2  0
 27 28  1  0
 28 29  2  0
 10  5  1  0
 22 16  1  0
 29 24  1  0
 23  7  1  0
  6 30  1  0
  9 31  1  0
 12 32  1  0
 12 33  1  0
 13 34  1  0
 13 35  1  0
 15 36  1  0
 15 37  1  0
 17 38  1  0
 18 39  1  0
 19 40  1  0
 21 41  1  0
 22 42  1  0
 23 43  1  0
 23 44  1  0
 25 45  1  0
 26 46  1  0
 27 47  1  0
 28 48  1  0
 29 49  1  0
M  CHG  2   4  -1  11  -1
M  END
>  <UniqueID>  (40) 
39

>  <SMILES>  (40) 
O=S(=O)([N-]c1cc2c(cc1[O-])CCN(Cc1cccc(O)c1)C2)c1ccccc1

>  <Energy>  (40) 
61.59036493681298

>  <Genealogy>  (40) 
O=S(=O)([N-]c1cc2c(cc1[O-])CCN(Cc1cccc(O)c1)C2)c1ccccc1 (protonated)
O=S(=O)([N-]c1cc2c(cc1[O-])CCN(Cc1cccc(O)c1)C2)c1ccccc1 (3D coordinates assigned)
O=S(=O)([N-]c1cc2c(cc1[O-])CCN(Cc1cccc(O)c1)C2)c1ccccc1 (nonaromatic ring conformer: 61.59036493681298 kcal/mol)

>  <smiles>  (40) 
O=S(=O)(Nc1cc2c(cc1O)CCN(Cc1cccc(O)c1)C2)c1ccccc1

>  <score_type>  (40) 
oracle

>  <origin>  (40) 
adgpu

>  <m_score__min__energy>  (40) 
-13.51

>  <m_primary>  (40) 
energy

$$$$
40:0
     RDKit          3D

 49 51  0  0  0  0  0  0  0  0999 V2000
   -9.1030   18.3920  -31.6440 C   0  0  0  0  0  0  0  0  0  0  0  0
   -7.8610   18.9870  -32.2540 C   0  0  0  0  0  0  0  0  0  0  0  0
   -6.8970   18.1330  -32.8180 C   0  0  0  0  0  0  0  0  0  0  0  0
   -5.7730   18.6580  -33.4580 C   0  0  0  0  0  0  0  0  0  0  0  0
   -5.6000   20.0380  -33.5530 C   0  0  0  0  0  0  0  0  0  0  0  0
   -6.5400   20.9010  -32.9860 C   0  0  0  0  0  0  0  0  0  0  0  0
   -7.6610   20.3900  -32.3100 C   0  0  0  0  0  0  0  0  0  0  0  0
   -8.5980   21.3410  -31.6750 C   0  0  0  0  0  0  0  0  0  0  0  0
   -9.7920   21.3830  -32.0670 O   0  0  0  0  0  0  0  0  0  0  0  0
   -8.1840   22.2150  -30.6150 N   0  0  0  0  0  0  0  0  0  0  0  0
   -6.9840   23.0010  -30.6030 C   0  0  0  0  0  0  0  0  0  0  0  0
   -6.9110   24.2430  -31.2540 C   0  0  0  0  0  0  0  0  0  0  0  0
   -5.7340   24.9920  -31.2050 C   0  0  0  0  0  0  0  0  0  0  0  0
   -4.6200   24.5160  -30.5080 C   0  0  0  0  0  0  0  0  0  0  0  0
   -3.4660   25.2890  -30.4720 O   0  0  0  0  0  0  0  0  0  0  0  0
   -4.6800   23.2720  -29.8510 C   0  0  0  0  0  0  0  0  0  0  0  0
   -3.2770   22.6110  -28.9940 S   0  0  0  0  0  0  0  0  0  0  0  0
   -3.7460   21.9120  -27.7490 O   0  0  0  0  0  0  0  0  0  0  0  0
   -2.3650   23.7300  -28.5760 O   0  0  0  0  0  0  0  0  0  0  0  0
   -2.3920   21.4750  -29.9870 N   0  0  0  0  0  0  0  0  0  0  0  0
   -1.1140   22.0660  -30.4400 C   0  0  0  0  0  0  0  0  0  0  0  0
   -0.5190   21.2730  -31.6040 C   0  0  0  0  0  0  0  0  0  0  0  0
   -1.4440   21.3410  -32.8420 C   0  0  0  0  0  0  0  0  0  0  0  0
   -1.2530   20.1050  -33.7280 C   0  0  0  0  0  0  0  0  0  0  0  0
   -2.9280   21.5300  -32.4490 C   0  0  0  0  0  0  0  0  0  0  0  0
   -3.2360   20.9180  -31.0730 C   0  0  0  0  0  0  0  0  0  0  0  0
   -5.8750   22.5340  -29.8870 C   0  0  0  0  0  0  0  0  0  0  0  0
   -9.0266   18.4286  -30.5473 H   0  0  0  0  0  0  0  0  0  0  0  0
   -9.9828   18.9664  -31.9696 H   0  0  0  0  0  0  0  0  0  0  0  0
   -9.2067   17.3464  -31.9696 H   0  0  0  0  0  0  0  0  0  0  0  0
   -7.0295   17.0429  -32.7545 H   0  0  0  0  0  0  0  0  0  0  0  0
   -5.0212   17.9804  -33.8889 H   0  0  0  0  0  0  0  0  0  0  0  0
   -4.7225   20.4473  -34.0749 H   0  0  0  0  0  0  0  0  0  0  0  0
   -6.4019   21.9891  -33.0691 H   0  0  0  0  0  0  0  0  0  0  0  0
   -7.7831   24.6266  -31.8038 H   0  0  0  0  0  0  0  0  0  0  0  0
   -5.6830   25.9635  -31.7185 H   0  0  0  0  0  0  0  0  0  0  0  0
   -1.2931   23.1013  -30.7658 H   0  0  0  0  0  0  0  0  0  0  0  0
   -0.4023   22.0404  -29.6017 H   0  0  0  0  0  0  0  0  0  0  0  0
    0.4631   21.6949  -31.8636 H   0  0  0  0  0  0  0  0  0  0  0  0
   -0.4142   20.2215  -31.2984 H   0  0  0  0  0  0  0  0  0  0  0  0
   -1.1551   22.2292  -33.4230 H   0  0  0  0  0  0  0  0  0  0  0  0
   -1.1158   19.2168  -33.0937 H   0  0  0  0  0  0  0  0  0  0  0  0
   -2.1407   19.9684  -34.3631 H   0  0  0  0  0  0  0  0  0  0  0  0
   -0.3655   20.2427  -34.3631 H   0  0  0  0  0  0  0  0  0  0  0  0
   -3.1542   22.6061  -32.4189 H   0  0  0  0  0  0  0  0  0  0  0  0
   -3.5484   21.0167  -33.1984 H   0  0  0  0  0  0  0  0  0  0  0  0
   -4.2913   21.1128  -30.8313 H   0  0  0  0  0  0  0  0  0  0  0  0
   -3.0205   19.8412  -31.1369 H   0  0  0  0  0  0  0  0  0  0  0  0
   -5.9401   21.5782  -29.3464 H   0  0  0  0  0  0  0  0  0  0  0  0
  1  2  1  0
  2  3  2  0
  3  4  1  0
  4  5  2  0
  5  6  1  0
  6  7  2  0
  7  8  1  0
  8  9  2  0
  8 10  1  0
 10 11  1  0
 11 12  2  0
 12 13  1  0
 13 14  2  0
 14 15  1  0
 14 16  1  0
 16 17  1  0
 17 18  2  0
 17 19  2  0
 17 20  1  0
 20 21  1  0
 21 22  1  0
 22 23  1  0
 23 24  1  0
 23 25  1  0
 25 26  1  0
 16 27  2  0
  7  2  1  0
 27 11  1  0
 26 20  1  0
  1 28  1  0
  1 29  1  0
  1 30  1  0
  3 31  1  0
  4 32  1  0
  5 33  1  0
  6 34  1  0
 12 35  1  0
 13 36  1  0
 21 37  1  0
 21 38  1  0
 22 39  1  0
 22 40  1  0
 23 41  1  0
 24 42  1  0
 24 43  1  0
 24 44  1  0
 25 45  1  0
 25 46  1  0
 26 47  1  0
 26 48  1  0
 27 49  1  0
M  CHG  2  10  -1  15  -1
M  END
>  <UniqueID>  (41) 
40

>  <SMILES>  (41) 
Cc1ccccc1C(=O)[N-]c1ccc([O-])c(S(=O)(=O)N2CCC(C)CC2)c1

>  <Energy>  (41) 
63.548935095622305

>  <Genealogy>  (41) 
Cc1ccccc1C(=O)[N-]c1ccc([O-])c(S(=O)(=O)N2CCC(C)CC2)c1 (protonated)
Cc1ccccc1C(=O)[N-]c1ccc([O-])c(S(=O)(=O)N2CCC(C)CC2)c1 (3D coordinates assigned)
Cc1ccccc1C(=O)[N-]c1ccc([O-])c(S(=O)(=O)N2CCC(C)CC2)c1 (nonaromatic ring conformer: 63.548935095622305 kcal/mol)

>  <smiles>  (41) 
Cc1ccccc1C(=O)Nc1ccc(O)c(S(=O)(=O)N2CCC(C)CC2)c1

>  <score_type>  (41) 
oracle

>  <origin>  (41) 
adgpu

>  <m_score__min__energy>  (41) 
-12.75

>  <m_primary>  (41) 
energy

$$$$
41:0
     RDKit          3D

 71 75  0  0  0  0  0  0  0  0999 V2000
   -1.1130   21.8260  -26.6710 C   0  0  0  0  0  0  0  0  0  0  0  0
   -1.7640   22.7960  -27.6220 C   0  0  0  0  0  0  0  0  0  0  0  0
   -2.9920   22.4220  -28.1950 C   0  0  0  0  0  0  0  0  0  0  0  0
   -3.6310   23.2440  -29.1170 C   0  0  0  0  0  0  0  0  0  0  0  0
   -3.0780   24.4710  -29.4770 C   0  0  0  0  0  0  0  0  0  0  0  0
   -3.8180   25.3000  -30.3860 N   0  0  0  0  0  0  0  0  0  0  0  0
   -5.2060   25.1660  -30.7180 C   0  0  0  0  0  0  0  0  0  0  0  0
   -6.0690   25.6240  -29.9270 O   0  0  0  0  0  0  0  0  0  0  0  0
   -5.6470   24.5640  -31.9440 N   0  0  0  0  0  0  0  0  0  0  0  0
   -6.2600   23.2750  -32.0670 C   0  0  0  0  0  0  0  0  0  0  0  0
   -7.5380   23.0750  -31.4910 C   0  0  0  0  0  0  0  0  0  0  0  0
   -8.1780   21.8220  -31.5700 C   0  0  0  0  0  0  0  0  0  0  0  0
   -7.5030   20.7920  -32.2280 C   0  0  0  0  0  0  0  0  0  0  0  0
   -6.2630   20.9750  -32.7570 C   0  0  0  0  0  0  0  0  0  0  0  0
   -5.6010   22.1950  -32.6920 C   0  0  0  0  0  0  0  0  0  0  0  0
   -5.7980   19.8240  -33.2720 N   0  0  0  0  0  0  0  0  0  0  0  0
   -6.8050   18.9440  -33.0470 C   0  0  0  0  0  0  0  0  0  0  0  0
   -6.6830   17.5080  -33.3850 C   0  0  0  0  0  0  0  0  0  0  0  0
   -7.2320   16.6550  -32.6390 O   0  0  0  0  0  0  0  0  0  0  0  0
   -5.9440   17.0440  -34.5260 N   0  0  0  0  0  0  0  0  0  0  0  0
   -4.5120   16.7380  -34.5680 C   0  0  2  0  0  0  0  0  0  0  0  0
   -4.0990   15.9620  -33.3410 C   0  0  0  0  0  0  0  0  0  0  0  0
   -2.6380   16.3450  -33.1500 C   0  0  0  0  0  0  0  0  0  0  0  0
   -2.4110   17.6400  -33.8010 N   0  0  0  0  0  0  0  0  0  0  0  0
   -3.6570   17.9990  -34.4890 C   0  0  0  0  0  0  0  0  0  0  0  0
   -7.8750   19.5110  -32.4170 N   0  0  0  0  0  0  0  0  0  0  0  0
   -9.1320   18.8860  -32.0090 C   0  0  0  0  0  0  0  0  0  0  0  0
   -1.8300   24.8540  -28.9430 C   0  0  0  0  0  0  0  0  0  0  0  0
   -1.2500   26.0510  -29.3520 O   0  0  0  0  0  0  0  0  0  0  0  0
   -1.1580   24.0250  -28.0100 C   0  0  0  0  0  0  0  0  0  0  0  0
    0.4710   24.5070  -27.4530 S   0  0  0  0  0  0  0  0  0  0  0  0
    1.4340   24.2970  -28.5890 O   0  0  0  0  0  0  0  0  0  0  0  0
    0.9230   23.6020  -26.3440 O   0  0  0  0  0  0  0  0  0  0  0  0
    0.6590   26.2180  -26.9020 C   0  0  0  0  0  0  0  0  0  0  0  0
   -0.6780   26.9010  -26.5430 C   0  0  0  0  0  0  0  0  0  0  0  0
   -1.1020   26.6530  -25.0900 C   0  0  0  0  0  0  0  0  0  0  0  0
   -0.0170   27.0270  -24.1660 N   0  0  0  0  0  0  0  0  0  0  0  0
   -0.4710   26.8950  -22.7720 C   0  0  0  0  0  0  0  0  0  0  0  0
    1.1530   26.1560  -24.3930 C   0  0  0  0  0  0  0  0  0  0  0  0
    1.7170   26.4010  -25.7970 C   0  0  0  0  0  0  0  0  0  0  0  0
   -1.3194   22.1335  -25.6352 H   0  0  0  0  0  0  0  0  0  0  0  0
   -1.5179   20.8176  -26.8417 H   0  0  0  0  0  0  0  0  0  0  0  0
   -0.0263   21.8186  -26.8417 H   0  0  0  0  0  0  0  0  0  0  0  0
   -3.4542   21.4654  -27.9100 H   0  0  0  0  0  0  0  0  0  0  0  0
   -4.5821   22.9223  -29.5663 H   0  0  0  0  0  0  0  0  0  0  0  0
   -8.0376   23.9083  -30.9753 H   0  0  0  0  0  0  0  0  0  0  0  0
   -9.1730   21.6613  -31.1294 H   0  0  0  0  0  0  0  0  0  0  0  0
   -4.5929   22.3154  -33.1153 H   0  0  0  0  0  0  0  0  0  0  0  0
   -4.3609   16.1888  -35.5091 H   0  0  0  0  0  0  0  0  0  0  0  0
   -4.6999   16.2580  -32.4685 H   0  0  0  0  0  0  0  0  0  0  0  0
   -4.2455   14.8775  -33.4519 H   0  0  0  0  0  0  0  0  0  0  0  0
   -2.4117   16.4239  -32.0764 H   0  0  0  0  0  0  0  0  0  0  0  0
   -1.9849   15.5789  -33.5934 H   0  0  0  0  0  0  0  0  0  0  0  0
   -2.2120   18.3630  -33.0690 H   0  0  0  0  0  0  0  0  0  0  0  0
   -4.1880   18.7788  -33.9234 H   0  0  0  0  0  0  0  0  0  0  0  0
   -3.4470   18.3905  -35.4953 H   0  0  0  0  0  0  0  0  0  0  0  0
   -9.1881   18.8581  -30.9108 H   0  0  0  0  0  0  0  0  0  0  0  0
   -9.9767   19.4690  -32.4046 H   0  0  0  0  0  0  0  0  0  0  0  0
   -9.1770   17.8606  -32.4046 H   0  0  0  0  0  0  0  0  0  0  0  0
    1.0473   26.7460  -27.7854 H   0  0  0  0  0  0  0  0  0  0  0  0
   -0.5714   27.9848  -26.6977 H   0  0  0  0  0  0  0  0  0  0  0  0
   -1.4544   26.4700  -27.1922 H   0  0  0  0  0  0  0  0  0  0  0  0
   -1.9936   27.2565  -24.8648 H   0  0  0  0  0  0  0  0  0  0  0  0
   -1.3263   25.5838  -24.9619 H   0  0  0  0  0  0  0  0  0  0  0  0
    0.3590   27.1363  -22.0917 H   0  0  0  0  0  0  0  0  0  0  0  0
   -1.3064   27.5875  -22.5913 H   0  0  0  0  0  0  0  0  0  0  0  0
   -0.8049   25.8626  -22.5913 H   0  0  0  0  0  0  0  0  0  0  0  0
    1.9267   26.3809  -23.6441 H   0  0  0  0  0  0  0  0  0  0  0  0
    0.8457   25.1036  -24.3032 H   0  0  0  0  0  0  0  0  0  0  0  0
    2.1036   27.4296  -25.8466 H   0  0  0  0  0  0  0  0  0  0  0  0
    2.5110   25.6597  -25.9706 H   0  0  0  0  0  0  0  0  0  0  0  0
  1  2  1  0
  2  3  2  0
  3  4  1  0
  4  5  2  0
  5  6  1  0
  6  7  1  0
  7  8  2  0
  7  9  1  0
  9 10  1  0
 10 11  2  0
 11 12  1  0
 12 13  2  0
 13 14  1  0
 14 15  2  0
 14 16  1  0
 16 17  2  0
 17 18  1  0
 18 19  2  0
 18 20  1  0
 20 21  1  0
 21 22  1  0
 22 23  1  0
 23 24  1  0
 24 25  1  0
 17 26  1  0
 26 27  1  0
  5 28  1  0
 28 29  1  0
 28 30  2  0
 30 31  1  0
 31 32  2  0
 31 33  2  0
 31 34  1  0
 34 35  1  0
 35 36  1  0
 36 37  1  0
 37 38  1  0
 37 39  1  0
 39 40  1  0
 30  2  1  0
 40 34  1  0
 15 10  1  0
 25 21  1  0
 26 13  1  0
  1 41  1  0
  1 42  1  0
  1 43  1  0
  3 44  1  0
  4 45  1  0
 11 46  1  0
 12 47  1  0
 15 48  1  0
 21 49  1  6
 22 50  1  0
 22 51  1  0
 23 52  1  0
 23 53  1  0
 24 54  1  0
 25 55  1  0
 25 56  1  0
 27 57  1  0
 27 58  1  0
 27 59  1  0
 34 60  1  0
 35 61  1  0
 35 62  1  0
 36 63  1  0
 36 64  1  0
 38 65  1  0
 38 66  1  0
 38 67  1  0
 39 68  1  0
 39 69  1  0
 40 70  1  0
 40 71  1  0
M  CHG  4   6  -1   9  -1  20  -1  29  -1
M  END
>  <UniqueID>  (42) 
41

>  <SMILES>  (42) 
Cc1ccc([N-]C(=O)[N-]c2ccc3c(c2)nc(C(=O)[N-][C@@H]2CCNC2)n3C)c([O-])c1S(=O)(=O)C1CCN(C)CC1

>  <Energy>  (42) 
132.28755390584706

>  <Genealogy>  (42) 
Cc1ccc([N-]C(=O)[N-]c2ccc3c(c2)nc(C(=O)[N-]C2CCNC2)n3C)c([O-])c1S(=O)(=O)C1CCN(C)CC1 (protonated)
Cc1ccc([N-]C(=O)[N-]c2ccc3c(c2)nc(C(=O)[N-][C@@H]2CCNC2)n3C)c([O-])c1S(=O)(=O)C1CCN(C)CC1 (chirality)
Cc1ccc([N-]C(=O)[N-]c2ccc3c(c2)nc(C(=O)[N-][C@@H]2CCNC2)n3C)c([O-])c1S(=O)(=O)C1CCN(C)CC1 (3D coordinates assigned)
Cc1ccc([N-]C(=O)[N-]c2ccc3c(c2)nc(C(=O)[N-][C@@H]2CCNC2)n3C)c([O-])c1S(=O)(=O)C1CCN(C)CC1 (nonaromatic ring conformer: 132.28755390584706 kcal/mol)

>  <smiles>  (42) 
Cc1ccc(NC(=O)Nc2ccc3c(c2)nc(C(=O)NC2CCNC2)n3C)c(O)c1S(=O)(=O)C1CCN(C)CC1

>  <score_type>  (42) 
oracle

>  <origin>  (42) 
adgpu

>  <m_score__min__energy>  (42) 
-16.859999999999999

>  <m_primary>  (42) 
energy

$$$$
42:0
     RDKit          3D

 55 58  0  0  0  0  0  0  0  0999 V2000
   -2.8610   20.8220  -31.1910 O   0  0  0  0  0  0  0  0  0  0  0  0
   -2.5740   20.2410  -32.2730 C   0  0  0  0  0  0  0  0  0  0  0  0
   -3.6110   19.5930  -33.0300 N   0  0  0  0  0  0  0  0  0  0  0  0
   -5.0140   19.8590  -32.8560 C   0  0  0  0  0  0  0  0  0  0  0  0
   -5.9810   18.8590  -33.0620 C   0  0  0  0  0  0  0  0  0  0  0  0
   -7.3370   19.1420  -32.8750 C   0  0  0  0  0  0  0  0  0  0  0  0
   -7.7400   20.4160  -32.4720 C   0  0  0  0  0  0  0  0  0  0  0  0
   -6.7860   21.4190  -32.2490 C   0  0  0  0  0  0  0  0  0  0  0  0
   -7.2910   23.0350  -31.7520 S   0  0  0  0  0  0  0  0  0  0  0  0
   -8.7910   23.1110  -31.8150 O   0  0  0  0  0  0  0  0  0  0  0  0
   -6.7410   24.0440  -32.7200 O   0  0  0  0  0  0  0  0  0  0  0  0
   -6.7630   23.4380  -30.1300 N   0  0  0  0  0  0  0  0  0  0  0  0
   -5.4790   22.8000  -29.7700 C   0  0  0  0  0  0  0  0  0  0  0  0
   -4.2840   23.7650  -29.8620 C   0  0  0  0  0  0  0  0  0  0  0  0
   -4.5180   24.7480  -30.8420 O   0  0  0  0  0  0  0  0  0  0  0  0
   -5.5380   25.6250  -30.4050 C   0  0  0  0  0  0  0  0  0  0  0  0
   -6.7910   24.8900  -29.8700 C   0  0  0  0  0  0  0  0  0  0  0  0
   -5.4250   21.1300  -32.4260 C   0  0  0  0  0  0  0  0  0  0  0  0
   -1.1610   20.1870  -32.7180 C   0  0  0  0  0  0  0  0  0  0  0  0
   -0.3630   19.0720  -32.4030 C   0  0  0  0  0  0  0  0  0  0  0  0
    0.9720   19.0160  -32.8130 C   0  0  0  0  0  0  0  0  0  0  0  0
    1.5250   20.0680  -33.5450 C   0  0  0  0  0  0  0  0  0  0  0  0
    0.7400   21.1840  -33.8800 C   0  0  0  0  0  0  0  0  0  0  0  0
    1.2820   22.2900  -34.6170 N   0  0  0  0  0  0  0  0  0  0  0  0
    0.8200   22.7700  -35.8880 C   0  0  0  0  0  0  0  0  0  0  0  0
    0.2920   21.9490  -36.6850 O   0  0  0  0  0  0  0  0  0  0  0  0
    1.0120   24.1790  -36.3130 C   0  0  0  0  0  0  0  0  0  0  0  0
   -0.0110   25.1200  -36.1040 C   0  0  0  0  0  0  0  0  0  0  0  0
    0.1540   26.4500  -36.5010 C   0  0  0  0  0  0  0  0  0  0  0  0
   -1.1370   27.6090  -36.2380 Cl  0  0  0  0  0  0  0  0  0  0  0  0
    1.3490   26.8580  -37.0990 C   0  0  0  0  0  0  0  0  0  0  0  0
    2.3820   25.9380  -37.3000 C   0  0  0  0  0  0  0  0  0  0  0  0
    3.8780   26.4730  -38.0500 Cl  0  0  0  0  0  0  0  0  0  0  0  0
    2.2200   24.6000  -36.9090 C   0  0  0  0  0  0  0  0  0  0  0  0
    3.2510   23.6920  -37.1310 O   0  0  0  0  0  0  0  0  0  0  0  0
   -0.5890   21.2480  -33.4440 C   0  0  0  0  0  0  0  0  0  0  0  0
   -3.3420   18.7930  -33.6460 H   0  0  0  0  0  0  0  0  0  0  0  0
   -5.6692   17.8505  -33.3714 H   0  0  0  0  0  0  0  0  0  0  0  0
   -8.0892   18.3578  -33.0461 H   0  0  0  0  0  0  0  0  0  0  0  0
   -8.8087   20.6337  -32.3290 H   0  0  0  0  0  0  0  0  0  0  0  0
   -5.5499   22.4266  -28.7377 H   0  0  0  0  0  0  0  0  0  0  0  0
   -5.3020   21.9862  -30.4886 H   0  0  0  0  0  0  0  0  0  0  0  0
   -4.1373   24.2534  -28.8873 H   0  0  0  0  0  0  0  0  0  0  0  0
   -3.3859   23.1934  -30.1390 H   0  0  0  0  0  0  0  0  0  0  0  0
   -5.1339   26.2569  -29.6003 H   0  0  0  0  0  0  0  0  0  0  0  0
   -5.8549   26.2158  -31.2771 H   0  0  0  0  0  0  0  0  0  0  0  0
   -6.8541   25.0503  -28.7836 H   0  0  0  0  0  0  0  0  0  0  0  0
   -7.6640   25.3018  -30.3975 H   0  0  0  0  0  0  0  0  0  0  0  0
   -4.6726   21.9070  -32.2258 H   0  0  0  0  0  0  0  0  0  0  0  0
   -0.7931   18.2377  -31.8295 H   0  0  0  0  0  0  0  0  0  0  0  0
    1.5882   18.1411  -32.5583 H   0  0  0  0  0  0  0  0  0  0  0  0
    2.5779   20.0232  -33.8603 H   0  0  0  0  0  0  0  0  0  0  0  0
   -0.9498   24.8070  -35.6237 H   0  0  0  0  0  0  0  0  0  0  0  0
    1.4771   27.9047  -37.4121 H   0  0  0  0  0  0  0  0  0  0  0  0
   -1.1933   22.1385  -33.6718 H   0  0  0  0  0  0  0  0  0  0  0  0
  1  2  2  0
  2  3  1  0
  3  4  1  0
  4  5  2  0
  5  6  1  0
  6  7  2  0
  7  8  1  0
  8  9  1  0
  9 10  2  0
  9 11  2  0
  9 12  1  0
 12 13  1  0
 13 14  1  0
 14 15  1  0
 15 16  1  0
 16 17  1  0
  8 18  2  0
  2 19  1  0
 19 20  2  0
 20 21  1  0
 21 22  2  0
 22 23  1  0
 23 24  1  0
 24 25  1  0
 25 26  2  0
 25 27  1  0
 27 28  2  0
 28 29  1  0
 29 30  1  0
 29 31  2  0
 31 32  1  0
 32 33  1  0
 32 34  2  0
 34 35  1  0
 23 36  2  0
 18  4  1  0
 36 19  1  0
 17 12  1  0
 34 27  1  0
  3 37  1  0
  5 38  1  0
  6 39  1  0
  7 40  1  0
 13 41  1  0
 13 42  1  0
 14 43  1  0
 14 44  1  0
 16 45  1  0
 16 46  1  0
 17 47  1  0
 17 48  1  0
 18 49  1  0
 20 50  1  0
 21 51  1  0
 22 52  1  0
 28 53  1  0
 31 54  1  0
 36 55  1  0
M  CHG  2  24  -1  35  -1
M  END
>  <UniqueID>  (43) 
42

>  <SMILES>  (43) 
O=C(Nc1cccc(S(=O)(=O)N2CCOCC2)c1)c1cccc([N-]C(=O)c2cc(Cl)cc(Cl)c2[O-])c1

>  <Energy>  (43) 
82.96965285290362

>  <Genealogy>  (43) 
O=C(Nc1cccc(S(=O)(=O)N2CCOCC2)c1)c1cccc([N-]C(=O)c2cc(Cl)cc(Cl)c2[O-])c1 (protonated)
O=C(Nc1cccc(S(=O)(=O)N2CCOCC2)c1)c1cccc([N-]C(=O)c2cc(Cl)cc(Cl)c2[O-])c1 (3D coordinates assigned)
O=C(Nc1cccc(S(=O)(=O)N2CCOCC2)c1)c1cccc([N-]C(=O)c2cc(Cl)cc(Cl)c2[O-])c1 (nonaromatic ring conformer: 82.96965285290362 kcal/mol)

>  <smiles>  (43) 
O=C(Nc1cccc(S(=O)(=O)N2CCOCC2)c1)c1cccc(NC(=O)c2cc(Cl)cc(Cl)c2O)c1

>  <score_type>  (43) 
oracle

>  <origin>  (43) 
adgpu

>  <m_score__min__energy>  (43) 
-14.130000000000001

>  <m_primary>  (43) 
energy

$$$$
43:0
     RDKit          3D

 50 52  0  0  0  0  0  0  0  0999 V2000
   -4.5430   14.4150  -32.2040 C   0  0  0  0  0  0  0  0  0  0  0  0
   -4.7500   15.8000  -32.4540 O   0  0  0  0  0  0  0  0  0  0  0  0
   -5.6860   16.5640  -31.7490 C   0  0  0  0  0  0  0  0  0  0  0  0
   -5.8050   16.4180  -30.5010 O   0  0  0  0  0  0  0  0  0  0  0  0
   -6.5150   17.5170  -32.4430 N   0  0  0  0  0  0  0  0  0  0  0  0
   -6.4090   17.6860  -33.8990 C   0  0  0  0  0  0  0  0  0  0  0  0
   -6.3350   19.1740  -34.2720 C   0  0  0  0  0  0  0  0  0  0  0  0
   -7.3150   20.0740  -33.4620 C   0  0  0  0  0  0  0  0  0  0  0  0
   -6.6020   21.1450  -32.6450 C   0  0  0  0  0  0  0  0  0  0  0  0
   -7.3400   21.9490  -31.7650 C   0  0  0  0  0  0  0  0  0  0  0  0
   -6.7050   22.9030  -30.9700 C   0  0  0  0  0  0  0  0  0  0  0  0
   -5.3130   23.0710  -31.0230 C   0  0  0  0  0  0  0  0  0  0  0  0
   -4.5550   24.2580  -29.9460 S   0  0  0  0  0  0  0  0  0  0  0  0
   -3.8620   25.2880  -30.7930 O   0  0  0  0  0  0  0  0  0  0  0  0
   -5.5930   24.9600  -29.1150 O   0  0  0  0  0  0  0  0  0  0  0  0
   -3.4050   23.4690  -28.8520 C   0  0  0  0  0  0  0  0  0  0  0  0
   -3.6930   22.1730  -28.3880 C   0  0  0  0  0  0  0  0  0  0  0  0
   -2.8360   21.5300  -27.4940 C   0  0  0  0  0  0  0  0  0  0  0  0
   -1.6780   22.1690  -27.0540 C   0  0  0  0  0  0  0  0  0  0  0  0
   -1.3700   23.4500  -27.5130 C   0  0  0  0  0  0  0  0  0  0  0  0
   -2.2160   24.1090  -28.4190 C   0  0  0  0  0  0  0  0  0  0  0  0
   -1.8410   25.4110  -28.8890 N   0  0  0  0  0  0  0  0  0  0  0  0
   -4.5560   22.2730  -31.9140 C   0  0  0  0  0  0  0  0  0  0  0  0
   -3.1350   22.4210  -32.0440 N   0  0  0  0  0  0  0  0  0  0  0  0
   -5.2060   21.3110  -32.7020 C   0  0  0  0  0  0  0  0  0  0  0  0
   -8.2860   19.2620  -32.5800 C   0  0  0  0  0  0  0  0  0  0  0  0
   -7.5530   18.2430  -31.6960 C   0  0  0  0  0  0  0  0  0  0  0  0
   -4.5166   14.2383  -31.1186 H   0  0  0  0  0  0  0  0  0  0  0  0
   -5.3645   13.8351  -32.6500 H   0  0  0  0  0  0  0  0  0  0  0  0
   -3.5879   14.1006  -32.6500 H   0  0  0  0  0  0  0  0  0  0  0  0
   -5.5001   17.1793  -34.2555 H   0  0  0  0  0  0  0  0  0  0  0  0
   -7.3015   17.2486  -34.3704 H   0  0  0  0  0  0  0  0  0  0  0  0
   -5.3091   19.5267  -34.0899 H   0  0  0  0  0  0  0  0  0  0  0  0
   -6.6259   19.2543  -35.3298 H   0  0  0  0  0  0  0  0  0  0  0  0
   -7.9189   20.5925  -34.2212 H   0  0  0  0  0  0  0  0  0  0  0  0
   -8.4312   21.8262  -31.7008 H   0  0  0  0  0  0  0  0  0  0  0  0
   -7.3027   23.5313  -30.2933 H   0  0  0  0  0  0  0  0  0  0  0  0
   -4.6032   21.6609  -28.7334 H   0  0  0  0  0  0  0  0  0  0  0  0
   -3.0746   20.5176  -27.1360 H   0  0  0  0  0  0  0  0  0  0  0  0
   -1.0067   21.6631  -26.3445 H   0  0  0  0  0  0  0  0  0  0  0  0
   -0.4548   23.9488  -27.1614 H   0  0  0  0  0  0  0  0  0  0  0  0
   -1.4730   26.1490  -28.2550 H   0  0  0  0  0  0  0  0  0  0  0  0
   -1.9910   25.6760  -29.8880 H   0  0  0  0  0  0  0  0  0  0  0  0
   -2.6570   23.2720  -31.6730 H   0  0  0  0  0  0  0  0  0  0  0  0
   -2.5290   21.6740  -32.4420 H   0  0  0  0  0  0  0  0  0  0  0  0
   -4.6135   20.6752  -33.3764 H   0  0  0  0  0  0  0  0  0  0  0  0
   -8.8421   19.9566  -31.9333 H   0  0  0  0  0  0  0  0  0  0  0  0
   -8.9624   18.7062  -33.2460 H   0  0  0  0  0  0  0  0  0  0  0  0
   -7.0811   18.7746  -30.8565 H   0  0  0  0  0  0  0  0  0  0  0  0
   -8.2904   17.5102  -31.3364 H   0  0  0  0  0  0  0  0  0  0  0  0
  1  2  1  0
  2  3  1  0
  3  4  2  0
  3  5  1  0
  5  6  1  0
  6  7  1  0
  7  8  1  0
  8  9  1  0
  9 10  2  0
 10 11  1  0
 11 12  2  0
 12 13  1  0
 13 14  2  0
 13 15  2  0
 13 16  1  0
 16 17  2  0
 17 18  1  0
 18 19  2  0
 19 20  1  0
 20 21  2  0
 21 22  1  0
 12 23  1  0
 23 24  1  0
 23 25  2  0
  8 26  1  0
 26 27  1  0
 27  5  1  0
 25  9  1  0
 21 16  1  0
  1 28  1  0
  1 29  1  0
  1 30  1  0
  6 31  1  0
  6 32  1  0
  7 33  1  0
  7 34  1  0
  8 35  1  0
 10 36  1  0
 11 37  1  0
 17 38  1  0
 18 39  1  0
 19 40  1  0
 20 41  1  0
 22 42  1  0
 22 43  1  0
 24 44  1  0
 24 45  1  0
 25 46  1  0
 26 47  1  0
 26 48  1  0
 27 49  1  0
 27 50  1  0
M  END
>  <UniqueID>  (44) 
43

>  <SMILES>  (44) 
COC(=O)N1CCC(c2ccc(S(=O)(=O)c3ccccc3N)c(N)c2)CC1

>  <Energy>  (44) 
57.71517465620115

>  <Genealogy>  (44) 
COC(=O)N1CCC(c2ccc(S(=O)(=O)c3ccccc3N)c(N)c2)CC1 (3D coordinates assigned)
COC(=O)N1CCC(c2ccc(S(=O)(=O)c3ccccc3N)c(N)c2)CC1 (nonaromatic ring conformer: 57.71517465620115 kcal/mol)

>  <smiles>  (44) 
COC(=O)N1CCC(c2ccc(S(=O)(=O)c3ccccc3N)c(N)c2)CC1

>  <score_type>  (44) 
oracle

>  <origin>  (44) 
adgpu

>  <m_score__min__energy>  (44) 
-9.6999999999999993

>  <m_primary>  (44) 
energy

$$$$
44:0
     RDKit          3D

 29 30  0  0  0  0  0  0  0  0999 V2000
   -8.1930   22.0890  -30.4680 C   0  0  0  0  0  0  0  0  0  0  0  0
   -6.9500   22.9300  -30.4510 C   0  0  0  0  0  0  0  0  0  0  0  0
   -7.0430   24.3280  -30.4700 C   0  0  0  0  0  0  0  0  0  0  0  0
   -5.8870   25.1090  -30.4930 C   0  0  0  0  0  0  0  0  0  0  0  0
   -4.6260   24.5050  -30.5040 C   0  0  0  0  0  0  0  0  0  0  0  0
   -3.4920   25.3100  -30.5070 O   0  0  0  0  0  0  0  0  0  0  0  0
   -4.5140   23.1000  -30.4950 C   0  0  0  0  0  0  0  0  0  0  0  0
   -3.1870   22.4380  -30.5200 C   0  0  0  0  0  0  0  0  0  0  0  0
   -3.1100   21.2130  -30.8010 O   0  0  0  0  0  0  0  0  0  0  0  0
   -1.9840   23.1360  -30.1660 N   0  0  0  0  0  0  0  0  0  0  0  0
   -1.4420   23.2770  -28.8440 C   0  0  0  0  0  0  0  0  0  0  0  0
   -1.0430   22.1520  -28.0980 C   0  0  0  0  0  0  0  0  0  0  0  0
   -0.5310   22.3060  -26.8070 C   0  0  0  0  0  0  0  0  0  0  0  0
   -0.4270   23.5780  -26.2420 C   0  0  0  0  0  0  0  0  0  0  0  0
   -0.8430   24.6990  -26.9650 C   0  0  0  0  0  0  0  0  0  0  0  0
   -1.3560   24.5570  -28.2600 C   0  0  0  0  0  0  0  0  0  0  0  0
   -1.7640   25.6990  -28.9490 O   0  0  0  0  0  0  0  0  0  0  0  0
   -5.6870   22.3220  -30.4860 C   0  0  0  0  0  0  0  0  0  0  0  0
   -8.5064   21.8770  -29.4351 H   0  0  0  0  0  0  0  0  0  0  0  0
   -8.9951   22.6307  -30.9907 H   0  0  0  0  0  0  0  0  0  0  0  0
   -7.9885   21.1430  -30.9907 H   0  0  0  0  0  0  0  0  0  0  0  0
   -8.0310   24.8115  -30.4668 H   0  0  0  0  0  0  0  0  0  0  0  0
   -5.9681   26.2060  -30.5025 H   0  0  0  0  0  0  0  0  0  0  0  0
   -1.1347   21.1461  -28.5337 H   0  0  0  0  0  0  0  0  0  0  0  0
   -0.2093   21.4232  -26.2350 H   0  0  0  0  0  0  0  0  0  0  0  0
   -0.0177   23.6979  -25.2280 H   0  0  0  0  0  0  0  0  0  0  0  0
   -0.7670   25.6994  -26.5139 H   0  0  0  0  0  0  0  0  0  0  0  0
   -2.0250   25.6760  -29.9270 H   0  0  0  0  0  0  0  0  0  0  0  0
   -5.6120   21.2248  -30.5067 H   0  0  0  0  0  0  0  0  0  0  0  0
  1  2  1  0
  2  3  2  0
  3  4  1  0
  4  5  2  0
  5  6  1  0
  5  7  1  0
  7  8  1  0
  8  9  2  0
  8 10  1  0
 10 11  1  0
 11 12  2  0
 12 13  1  0
 13 14  2  0
 14 15  1  0
 15 16  2  0
 16 17  1  0
  7 18  2  0
 18  2  1  0
 16 11  1  0
  1 19  1  0
  1 20  1  0
  1 21  1  0
  3 22  1  0
  4 23  1  0
 12 24  1  0
 13 25  1  0
 14 26  1  0
 15 27  1  0
 17 28  1  0
 18 29  1  0
M  CHG  2   6  -1  10  -1
M  END
>  <UniqueID>  (45) 
44

>  <SMILES>  (45) 
Cc1ccc([O-])c(C(=O)[N-]c2ccccc2O)c1

>  <Energy>  (45) 
37.14521675251276

>  <Genealogy>  (45) 
Cc1ccc([O-])c(C(=O)[N-]c2ccccc2O)c1 (protonated)
Cc1ccc([O-])c(C(=O)[N-]c2ccccc2O)c1 (3D coordinates assigned)
Cc1ccc([O-])c(C(=O)[N-]c2ccccc2O)c1 (optimized conformer: 37.14521675251276 kcal/mol)

>  <smiles>  (45) 
Cc1ccc(O)c(C(=O)Nc2ccccc2O)c1

>  <score_type>  (45) 
oracle

>  <origin>  (45) 
adgpu

>  <m_score__min__energy>  (45) 
-10.9

>  <m_primary>  (45) 
energy

$$$$
45:0
     RDKit          3D

 43 45  0  0  0  0  0  0  0  0999 V2000
   -3.5310   20.4930  -33.1030 C   0  0  0  0  0  0  0  0  0  0  0  0
   -4.6050   21.3940  -32.5680 C   0  0  0  0  0  0  0  0  0  0  0  0
   -5.9550   21.0520  -32.7200 C   0  0  0  0  0  0  0  0  0  0  0  0
   -6.9520   21.8760  -32.1930 C   0  0  0  0  0  0  0  0  0  0  0  0
   -6.6120   23.0370  -31.4900 C   0  0  0  0  0  0  0  0  0  0  0  0
   -7.6260   23.8270  -30.9620 O   0  0  0  0  0  0  0  0  0  0  0  0
   -5.2560   23.3810  -31.3070 C   0  0  0  0  0  0  0  0  0  0  0  0
   -4.8750   24.6040  -30.5580 C   0  0  0  0  0  0  0  0  0  0  0  0
   -5.7730   25.3740  -30.1260 O   0  0  0  0  0  0  0  0  0  0  0  0
   -3.5030   24.9730  -30.3570 N   0  0  0  0  0  0  0  0  0  0  0  0
   -2.6210   24.4290  -29.3650 C   0  0  0  0  0  0  0  0  0  0  0  0
   -2.8330   23.1170  -28.9260 C   0  0  0  0  0  0  0  0  0  0  0  0
   -2.0010   22.5450  -27.9530 C   0  0  0  0  0  0  0  0  0  0  0  0
   -2.2810   20.8910  -27.4050 S   0  0  0  0  0  0  0  0  0  0  0  0
   -1.5680   20.6770  -26.0980 O   0  0  0  0  0  0  0  0  0  0  0  0
   -3.7520   20.6930  -27.1650 O   0  0  0  0  0  0  0  0  0  0  0  0
   -1.7190   19.7090  -28.5690 N   0  0  0  0  0  0  0  0  0  0  0  0
   -0.3850   19.2120  -28.2170 C   0  0  0  0  0  0  0  0  0  0  0  0
    0.6430   19.9710  -29.0400 C   0  0  0  0  0  0  0  0  0  0  0  0
   -0.1370   20.6680  -30.1370 C   0  0  0  0  0  0  0  0  0  0  0  0
   -1.5960   20.2990  -29.9060 C   0  0  0  0  0  0  0  0  0  0  0  0
   -0.9460   23.2960  -27.4200 C   0  0  0  0  0  0  0  0  0  0  0  0
   -0.7080   24.5960  -27.8750 C   0  0  0  0  0  0  0  0  0  0  0  0
   -1.5290   25.1610  -28.8550 C   0  0  0  0  0  0  0  0  0  0  0  0
   -1.2360   26.4340  -29.3310 O   0  0  0  0  0  0  0  0  0  0  0  0
   -4.2610   22.5520  -31.8560 C   0  0  0  0  0  0  0  0  0  0  0  0
   -2.9853   20.0352  -32.2648 H   0  0  0  0  0  0  0  0  0  0  0  0
   -3.9874   19.7036  -33.7182 H   0  0  0  0  0  0  0  0  0  0  0  0
   -2.8330   21.0797  -33.7182 H   0  0  0  0  0  0  0  0  0  0  0  0
   -6.2306   20.1318  -33.2560 H   0  0  0  0  0  0  0  0  0  0  0  0
   -8.0105   21.6107  -32.3314 H   0  0  0  0  0  0  0  0  0  0  0  0
   -3.6608   22.5286  -29.3486 H   0  0  0  0  0  0  0  0  0  0  0  0
   -0.1980   19.3768  -27.1456 H   0  0  0  0  0  0  0  0  0  0  0  0
   -0.3159   18.1344  -28.4269 H   0  0  0  0  0  0  0  0  0  0  0  0
    1.1655   20.7090  -28.4137 H   0  0  0  0  0  0  0  0  0  0  0  0
    1.4075   19.2968  -29.4534 H   0  0  0  0  0  0  0  0  0  0  0  0
   -0.0021   21.7576  -30.0701 H   0  0  0  0  0  0  0  0  0  0  0  0
    0.2055   20.3603  -31.1360 H   0  0  0  0  0  0  0  0  0  0  0  0
   -2.2222   21.2009  -29.9730 H   0  0  0  0  0  0  0  0  0  0  0  0
   -1.9287   19.5793  -30.6684 H   0  0  0  0  0  0  0  0  0  0  0  0
   -0.3026   22.8614  -26.6408 H   0  0  0  0  0  0  0  0  0  0  0  0
    0.1289   25.1769  -27.4601 H   0  0  0  0  0  0  0  0  0  0  0  0
   -3.2010   22.8151  -31.7253 H   0  0  0  0  0  0  0  0  0  0  0  0
  1  2  1  0
  2  3  2  0
  3  4  1  0
  4  5  2  0
  5  6  1  0
  5  7  1  0
  7  8  1  0
  8  9  2  0
  8 10  1  0
 10 11  1  0
 11 12  2  0
 12 13  1  0
 13 14  1  0
 14 15  2  0
 14 16  2  0
 14 17  1  0
 17 18  1  0
 18 19  1  0
 19 20  1  0
 20 21  1  0
 13 22  2  0
 22 23  1  0
 23 24  2  0
 24 25  1  0
  7 26  2  0
 26  2  1  0
 24 11  1  0
 21 17  1  0
  1 27  1  0
  1 28  1  0
  1 29  1  0
  3 30  1  0
  4 31  1  0
 12 32  1  0
 18 33  1  0
 18 34  1  0
 19 35  1  0
 19 36  1  0
 20 37  1  0
 20 38  1  0
 21 39  1  0
 21 40  1  0
 22 41  1  0
 23 42  1  0
 26 43  1  0
M  CHG  3   6  -1  10  -1  25  -1
M  END
>  <UniqueID>  (46) 
45

>  <SMILES>  (46) 
Cc1ccc([O-])c(C(=O)[N-]c2cc(S(=O)(=O)N3CCCC3)ccc2[O-])c1

>  <Energy>  (46) 
53.103321104551895

>  <Genealogy>  (46) 
Cc1ccc([O-])c(C(=O)[N-]c2cc(S(=O)(=O)N3CCCC3)ccc2[O-])c1 (protonated)
Cc1ccc([O-])c(C(=O)[N-]c2cc(S(=O)(=O)N3CCCC3)ccc2[O-])c1 (3D coordinates assigned)
Cc1ccc([O-])c(C(=O)[N-]c2cc(S(=O)(=O)N3CCCC3)ccc2[O-])c1 (nonaromatic ring conformer: 53.103321104551895 kcal/mol)

>  <smiles>  (46) 
Cc1ccc(O)c(C(=O)Nc2cc(S(=O)(=O)N3CCCC3)ccc2O)c1

>  <score_type>  (46) 
oracle

>  <origin>  (46) 
adgpu

>  <m_score__min__energy>  (46) 
-15.539999999999999

>  <m_primary>  (46) 
energy

$$$$
46:0
     RDKit          3D

 48 50  0  0  0  0  0  0  0  0999 V2000
   -1.1550   22.1710  -26.2040 C   0  0  0  0  0  0  0  0  0  0  0  0
   -1.7670   22.9880  -27.3060 C   0  0  0  0  0  0  0  0  0  0  0  0
   -1.1180   24.1320  -27.7920 C   0  0  0  0  0  0  0  0  0  0  0  0
   -1.6920   24.8820  -28.8230 C   0  0  0  0  0  0  0  0  0  0  0  0
   -2.9320   24.5190  -29.3570 C   0  0  0  0  0  0  0  0  0  0  0  0
   -3.4800   25.2970  -30.3820 O   0  0  0  0  0  0  0  0  0  0  0  0
   -3.6140   23.3940  -28.8470 C   0  0  0  0  0  0  0  0  0  0  0  0
   -4.8970   23.0470  -29.3860 N   0  0  0  0  0  0  0  0  0  0  0  0
   -5.3750   23.2510  -31.0470 S   0  0  0  0  0  0  0  0  0  0  0  0
   -5.6670   24.7100  -31.2910 O   0  0  0  0  0  0  0  0  0  0  0  0
   -4.2410   22.8240  -31.9470 O   0  0  0  0  0  0  0  0  0  0  0  0
   -6.8320   22.3350  -31.4320 C   0  0  0  0  0  0  0  0  0  0  0  0
   -8.0470   23.0070  -31.6280 C   0  0  0  0  0  0  0  0  0  0  0  0
   -9.2110   22.2870  -31.9130 C   0  0  0  0  0  0  0  0  0  0  0  0
   -9.1680   20.8930  -32.0070 C   0  0  0  0  0  0  0  0  0  0  0  0
   -7.9560   20.2120  -31.8210 C   0  0  0  0  0  0  0  0  0  0  0  0
   -7.8830   18.4520  -31.9300 S   0  0  0  0  0  0  0  0  0  0  0  0
   -7.0130   17.9070  -30.8280 O   0  0  0  0  0  0  0  0  0  0  0  0
   -9.2740   17.9050  -31.7620 O   0  0  0  0  0  0  0  0  0  0  0  0
   -7.2460   17.9600  -33.4830 N   0  0  0  0  0  0  0  0  0  0  0  0
   -6.1330   18.8520  -33.8820 C   0  0  0  0  0  0  0  0  0  0  0  0
   -5.2390   18.2050  -34.9480 C   0  0  0  0  0  0  0  0  0  0  0  0
   -4.5960   16.9060  -34.4260 C   0  0  0  0  0  0  0  0  0  0  0  0
   -5.4030   16.2560  -33.2900 C   0  0  0  0  0  0  0  0  0  0  0  0
   -6.9060   16.5140  -33.4770 C   0  0  0  0  0  0  0  0  0  0  0  0
   -6.7910   20.9350  -31.5310 C   0  0  0  0  0  0  0  0  0  0  0  0
   -3.0130   22.6190  -27.8400 C   0  0  0  0  0  0  0  0  0  0  0  0
   -1.4618   22.5805  -25.2302 H   0  0  0  0  0  0  0  0  0  0  0  0
   -1.4964   21.1286  -26.2874 H   0  0  0  0  0  0  0  0  0  0  0  0
   -0.0587   22.2056  -26.2874 H   0  0  0  0  0  0  0  0  0  0  0  0
   -0.1542   24.4404  -27.3608 H   0  0  0  0  0  0  0  0  0  0  0  0
   -1.1645   25.7634  -29.2165 H   0  0  0  0  0  0  0  0  0  0  0  0
   -3.7570   24.9070  -31.2750 H   0  0  0  0  0  0  0  0  0  0  0  0
   -8.0844   24.1041  -31.5573 H   0  0  0  0  0  0  0  0  0  0  0  0
  -10.1623   22.8184  -32.0635 H   0  0  0  0  0  0  0  0  0  0  0  0
  -10.0864   20.3290  -32.2273 H   0  0  0  0  0  0  0  0  0  0  0  0
   -6.5520   19.7850  -34.2870 H   0  0  0  0  0  0  0  0  0  0  0  0
   -5.5168   19.0491  -32.9924 H   0  0  0  0  0  0  0  0  0  0  0  0
   -5.8485   17.9724  -35.8337 H   0  0  0  0  0  0  0  0  0  0  0  0
   -4.4357   18.9119  -35.2031 H   0  0  0  0  0  0  0  0  0  0  0  0
   -4.5227   16.1910  -35.2587 H   0  0  0  0  0  0  0  0  0  0  0  0
   -3.6062   17.1655  -34.0224 H   0  0  0  0  0  0  0  0  0  0  0  0
   -5.2196   15.1714  -33.2912 H   0  0  0  0  0  0  0  0  0  0  0  0
   -5.0846   16.6951  -32.3330 H   0  0  0  0  0  0  0  0  0  0  0  0
   -7.2213   16.0749  -34.4350 H   0  0  0  0  0  0  0  0  0  0  0  0
   -7.4291   16.0546  -32.6254 H   0  0  0  0  0  0  0  0  0  0  0  0
   -5.8400   20.4032  -31.3802 H   0  0  0  0  0  0  0  0  0  0  0  0
   -3.5217   21.7176  -27.4676 H   0  0  0  0  0  0  0  0  0  0  0  0
  1  2  1  0
  2  3  2  0
  3  4  1  0
  4  5  2  0
  5  6  1  0
  5  7  1  0
  7  8  1  0
  8  9  1  0
  9 10  2  0
  9 11  2  0
  9 12  1  0
 12 13  2  0
 13 14  1  0
 14 15  2  0
 15 16  1  0
 16 17  1  0
 17 18  2  0
 17 19  2  0
 17 20  1  0
 20 21  1  0
 21 22  1  0
 22 23  1  0
 23 24  1  0
 24 25  1  0
 16 26  2  0
  7 27  2  0
 27  2  1  0
 26 12  1  0
 25 20  1  0
  1 28  1  0
  1 29  1  0
  1 30  1  0
  3 31  1  0
  4 32  1  0
  6 33  1  0
 13 34  1  0
 14 35  1  0
 15 36  1  0
 21 37  1  0
 21 38  1  0
 22 39  1  0
 22 40  1  0
 23 41  1  0
 23 42  1  0
 24 43  1  0
 24 44  1  0
 25 45  1  0
 25 46  1  0
 26 47  1  0
 27 48  1  0
M  CHG  1   8  -1
M  END
>  <UniqueID>  (47) 
46

>  <SMILES>  (47) 
Cc1ccc(O)c([N-]S(=O)(=O)c2cccc(S(=O)(=O)N3CCCCC3)c2)c1

>  <Energy>  (47) 
58.17652178201045

>  <Genealogy>  (47) 
Cc1ccc(O)c([N-]S(=O)(=O)c2cccc(S(=O)(=O)N3CCCCC3)c2)c1 (protonated)
Cc1ccc(O)c([N-]S(=O)(=O)c2cccc(S(=O)(=O)N3CCCCC3)c2)c1 (3D coordinates assigned)
Cc1ccc(O)c([N-]S(=O)(=O)c2cccc(S(=O)(=O)N3CCCCC3)c2)c1 (nonaromatic ring conformer: 58.17652178201045 kcal/mol)

>  <smiles>  (47) 
Cc1ccc(O)c(NS(=O)(=O)c2cccc(S(=O)(=O)N3CCCCC3)c2)c1

>  <score_type>  (47) 
oracle

>  <origin>  (47) 
adgpu

>  <m_score__min__energy>  (47) 
-11.57

>  <m_primary>  (47) 
energy

$$$$
47:0
     RDKit          3D

 56 59  0  0  0  0  0  0  0  0999 V2000
   -0.4750   23.0160  -25.6330 C   0  0  0  0  0  0  0  0  0  0  0  0
   -1.0630   23.0250  -27.0210 C   0  0  0  0  0  0  0  0  0  0  0  0
   -1.1740   21.8010  -27.6970 C   0  0  0  0  0  0  0  0  0  0  0  0
   -1.6930   21.7420  -28.9870 C   0  0  0  0  0  0  0  0  0  0  0  0
   -2.0970   22.9100  -29.6440 C   0  0  0  0  0  0  0  0  0  0  0  0
   -2.6750   22.8500  -30.9610 N   0  0  0  0  0  0  0  0  0  0  0  0
   -2.3610   21.8330  -31.9250 C   0  0  0  0  0  0  0  0  0  0  0  0
   -1.2750   21.2000  -31.8470 O   0  0  0  0  0  0  0  0  0  0  0  0
   -3.2270   21.5890  -33.0400 N   0  0  0  0  0  0  0  0  0  0  0  0
   -4.5980   21.1760  -32.9600 C   0  0  0  0  0  0  0  0  0  0  0  0
   -4.9620   19.9200  -33.4610 C   0  0  0  0  0  0  0  0  0  0  0  0
   -6.2490   19.4930  -33.3800 N   0  0  0  0  0  0  0  0  0  0  0  0
   -7.2200   20.2490  -32.8040 C   0  0  0  0  0  0  0  0  0  0  0  0
   -8.5360   19.7760  -32.7390 C   0  0  0  0  0  0  0  0  0  0  0  0
   -9.5310   20.5550  -32.1380 C   0  0  0  0  0  0  0  0  0  0  0  0
   -9.2150   21.8060  -31.5960 C   0  0  0  0  0  0  0  0  0  0  0  0
   -7.9020   22.2870  -31.6560 C   0  0  0  0  0  0  0  0  0  0  0  0
   -6.8990   21.5140  -32.2600 C   0  0  0  0  0  0  0  0  0  0  0  0
   -5.5770   21.9670  -32.3350 C   0  0  0  0  0  0  0  0  0  0  0  0
   -1.9920   24.1450  -28.9820 C   0  0  0  0  0  0  0  0  0  0  0  0
   -2.4150   25.2970  -29.6390 O   0  0  0  0  0  0  0  0  0  0  0  0
   -1.4620   24.2210  -27.6730 C   0  0  0  0  0  0  0  0  0  0  0  0
   -1.3420   25.8070  -26.8630 S   0  0  0  0  0  0  0  0  0  0  0  0
   -1.2380   26.8990  -27.8900 O   0  0  0  0  0  0  0  0  0  0  0  0
   -2.5760   26.0740  -26.0460 O   0  0  0  0  0  0  0  0  0  0  0  0
    0.1020   25.8520  -25.7890 C   0  0  0  0  0  0  0  0  0  0  0  0
   -0.2870   26.0910  -24.3110 C   0  0  0  0  0  0  0  0  0  0  0  0
   -0.1610   27.5710  -23.9210 C   0  0  0  0  0  0  0  0  0  0  0  0
    1.2130   28.1020  -24.1160 N   0  0  0  0  0  0  0  0  0  0  0  0
    1.9580   28.1400  -22.8470 C   0  0  0  0  0  0  0  0  0  0  0  0
    2.0020   27.3980  -25.1550 C   0  0  0  0  0  0  0  0  0  0  0  0
    1.1110   26.9030  -26.3000 C   0  0  0  0  0  0  0  0  0  0  0  0
   -1.2868   23.0284  -24.8908 H   0  0  0  0  0  0  0  0  0  0  0  0
    0.1317   22.1085  -25.4977 H   0  0  0  0  0  0  0  0  0  0  0  0
    0.1592   23.9045  -25.4977 H   0  0  0  0  0  0  0  0  0  0  0  0
   -0.8465   20.8754  -27.2010 H   0  0  0  0  0  0  0  0  0  0  0  0
   -1.7864   20.7703  -29.4940 H   0  0  0  0  0  0  0  0  0  0  0  0
   -3.3170   23.6190  -31.2610 H   0  0  0  0  0  0  0  0  0  0  0  0
   -4.2005   19.2747  -33.9233 H   0  0  0  0  0  0  0  0  0  0  0  0
   -8.7879   18.7917  -33.1605 H   0  0  0  0  0  0  0  0  0  0  0  0
  -10.5651   20.1828  -32.0914 H   0  0  0  0  0  0  0  0  0  0  0  0
  -10.0005   22.4127  -31.1217 H   0  0  0  0  0  0  0  0  0  0  0  0
   -7.6565   23.2709  -31.2297 H   0  0  0  0  0  0  0  0  0  0  0  0
   -5.3043   22.9420  -31.9048 H   0  0  0  0  0  0  0  0  0  0  0  0
    0.5888   24.8662  -25.8229 H   0  0  0  0  0  0  0  0  0  0  0  0
   -1.3284   25.7704  -24.1605 H   0  0  0  0  0  0  0  0  0  0  0  0
    0.4004   25.5106  -23.6781 H   0  0  0  0  0  0  0  0  0  0  0  0
   -0.8559   28.1580  -24.5395 H   0  0  0  0  0  0  0  0  0  0  0  0
   -0.3994   27.6532  -22.8503 H   0  0  0  0  0  0  0  0  0  0  0  0
    1.2507   28.1039  -22.0053 H   0  0  0  0  0  0  0  0  0  0  0  0
    2.6358   27.2753  -22.7937 H   0  0  0  0  0  0  0  0  0  0  0  0
    2.5443   29.0692  -22.7937 H   0  0  0  0  0  0  0  0  0  0  0  0
    2.7547   28.0895  -25.5615 H   0  0  0  0  0  0  0  0  0  0  0  0
    2.4823   26.5245  -24.6899 H   0  0  0  0  0  0  0  0  0  0  0  0
    0.5608   27.7558  -26.7243 H   0  0  0  0  0  0  0  0  0  0  0  0
    1.7468   26.4394  -27.0687 H   0  0  0  0  0  0  0  0  0  0  0  0
  1  2  1  0
  2  3  2  0
  3  4  1  0
  4  5  2  0
  5  6  1  0
  6  7  1  0
  7  8  2  0
  7  9  1  0
  9 10  1  0
 10 11  2  0
 11 12  1  0
 12 13  2  0
 13 14  1  0
 14 15  2  0
 15 16  1  0
 16 17  2  0
 17 18  1  0
 18 19  2  0
  5 20  1  0
 20 21  1  0
 20 22  2  0
 22 23  1  0
 23 24  2  0
 23 25  2  0
 23 26  1  0
 26 27  1  0
 27 28  1  0
 28 29  1  0
 29 30  1  0
 29 31  1  0
 31 32  1  0
 22  2  1  0
 32 26  1  0
 19 10  1  0
 18 13  1  0
  1 33  1  0
  1 34  1  0
  1 35  1  0
  3 36  1  0
  4 37  1  0
  6 38  1  0
 11 39  1  0
 14 40  1  0
 15 41  1  0
 16 42  1  0
 17 43  1  0
 19 44  1  0
 26 45  1  0
 27 46  1  0
 27 47  1  0
 28 48  1  0
 28 49  1  0
 30 50  1  0
 30 51  1  0
 30 52  1  0
 31 53  1  0
 31 54  1  0
 32 55  1  0
 32 56  1  0
M  CHG  2   9  -1  21  -1
M  END
>  <UniqueID>  (48) 
47

>  <SMILES>  (48) 
Cc1ccc(NC(=O)[N-]c2cnc3ccccc3c2)c([O-])c1S(=O)(=O)C1CCN(C)CC1

>  <Energy>  (48) 
78.34199440329971

>  <Genealogy>  (48) 
Cc1ccc(NC(=O)[N-]c2cnc3ccccc3c2)c([O-])c1S(=O)(=O)C1CCN(C)CC1 (protonated)
Cc1ccc(NC(=O)[N-]c2cnc3ccccc3c2)c([O-])c1S(=O)(=O)C1CCN(C)CC1 (3D coordinates assigned)
Cc1ccc(NC(=O)[N-]c2cnc3ccccc3c2)c([O-])c1S(=O)(=O)C1CCN(C)CC1 (nonaromatic ring conformer: 78.34199440329971 kcal/mol)

>  <smiles>  (48) 
Cc1ccc(NC(=O)Nc2cnc3ccccc3c2)c(O)c1S(=O)(=O)C1CCN(C)CC1

>  <score_type>  (48) 
oracle

>  <origin>  (48) 
adgpu

>  <m_score__min__energy>  (48) 
-14.529999999999999

>  <m_primary>  (48) 
energy

$$$$
48:0
     RDKit          3D

 52 54  0  0  0  0  0  0  0  0999 V2000
    0.3210   17.2780  -27.6240 C   0  0  0  0  0  0  0  0  0  0  0  0
   -0.5050   18.2230  -26.9520 O   0  0  0  0  0  0  0  0  0  0  0  0
   -0.7600   19.5250  -27.4100 C   0  0  0  0  0  0  0  0  0  0  0  0
    0.2580   20.3500  -27.9250 C   0  0  0  0  0  0  0  0  0  0  0  0
   -0.0360   21.6400  -28.3730 C   0  0  0  0  0  0  0  0  0  0  0  0
   -1.3470   22.1280  -28.3080 C   0  0  0  0  0  0  0  0  0  0  0  0
   -1.7110   23.7480  -28.8940 S   0  0  0  0  0  0  0  0  0  0  0  0
   -2.6790   24.4150  -27.9560 O   0  0  0  0  0  0  0  0  0  0  0  0
   -0.4380   24.5450  -28.9550 O   0  0  0  0  0  0  0  0  0  0  0  0
   -2.4120   23.6130  -30.4750 N   0  0  0  0  0  0  0  0  0  0  0  0
   -3.8030   23.5400  -30.8310 C   0  0  0  0  0  0  0  0  0  0  0  0
   -4.3000   22.2830  -31.2050 C   0  0  0  0  0  0  0  0  0  0  0  0
   -5.6470   22.1110  -31.5610 C   0  0  0  0  0  0  0  0  0  0  0  0
   -6.1590   20.7800  -31.9630 C   0  0  0  0  0  0  0  0  0  0  0  0
   -7.2380   20.3630  -31.4600 O   0  0  0  0  0  0  0  0  0  0  0  0
   -5.4600   19.9570  -32.9180 N   0  0  0  0  0  0  0  0  0  0  0  0
   -6.2420   19.0960  -33.8180 C   0  0  0  0  0  0  0  0  0  0  0  0
   -5.3470   18.3750  -34.8300 C   0  0  0  0  0  0  0  0  0  0  0  0
   -4.2010   17.7520  -34.1500 N   0  0  0  0  0  0  0  0  0  0  0  0
   -3.7150   16.4630  -34.5850 C   0  0  0  0  0  0  0  0  0  0  0  0
   -2.6660   15.7220  -33.8100 C   0  0  0  0  0  0  0  0  0  0  0  0
   -4.1570   15.9470  -35.6470 O   0  0  0  0  0  0  0  0  0  0  0  0
   -3.4870   18.4940  -33.0960 C   0  0  0  0  0  0  0  0  0  0  0  0
   -3.9920   19.9350  -32.9680 C   0  0  0  0  0  0  0  0  0  0  0  0
   -6.4970   23.2240  -31.5720 C   0  0  0  0  0  0  0  0  0  0  0  0
   -6.0180   24.4810  -31.2020 C   0  0  0  0  0  0  0  0  0  0  0  0
   -4.6780   24.6520  -30.8280 C   0  0  0  0  0  0  0  0  0  0  0  0
   -4.2380   25.9210  -30.4620 O   0  0  0  0  0  0  0  0  0  0  0  0
   -2.3650   21.3100  -27.8010 C   0  0  0  0  0  0  0  0  0  0  0  0
   -2.0740   20.0170  -27.3520 C   0  0  0  0  0  0  0  0  0  0  0  0
   -3.3730   19.0160  -26.7190 Cl  0  0  0  0  0  0  0  0  0  0  0  0
    0.8559   16.6660  -26.8828 H   0  0  0  0  0  0  0  0  0  0  0  0
   -0.3036   16.6278  -28.2542 H   0  0  0  0  0  0  0  0  0  0  0  0
    1.0489   17.8100  -28.2542 H   0  0  0  0  0  0  0  0  0  0  0  0
    1.2914   19.9764  -27.9749 H   0  0  0  0  0  0  0  0  0  0  0  0
    0.7655   22.2750  -28.7785 H   0  0  0  0  0  0  0  0  0  0  0  0
   -3.6224   21.4166  -31.2196 H   0  0  0  0  0  0  0  0  0  0  0  0
   -6.7777   18.3459  -33.2177 H   0  0  0  0  0  0  0  0  0  0  0  0
   -6.9467   19.7314  -34.3745 H   0  0  0  0  0  0  0  0  0  0  0  0
   -5.9322   17.5962  -35.3409 H   0  0  0  0  0  0  0  0  0  0  0  0
   -4.9729   19.1076  -35.5603 H   0  0  0  0  0  0  0  0  0  0  0  0
   -2.8472   15.8500  -32.7326 H   0  0  0  0  0  0  0  0  0  0  0  0
   -2.7090   14.6527  -34.0645 H   0  0  0  0  0  0  0  0  0  0  0  0
   -1.6726   16.1199  -34.0645 H   0  0  0  0  0  0  0  0  0  0  0  0
   -3.6357   17.9787  -32.1356 H   0  0  0  0  0  0  0  0  0  0  0  0
   -2.4215   18.5295  -33.3669 H   0  0  0  0  0  0  0  0  0  0  0  0
   -3.5906   20.3798  -32.0455 H   0  0  0  0  0  0  0  0  0  0  0  0
   -3.6545   20.5119  -33.8417 H   0  0  0  0  0  0  0  0  0  0  0  0
   -7.5482   23.1064  -31.8741 H   0  0  0  0  0  0  0  0  0  0  0  0
   -6.6980   25.3456  -31.2038 H   0  0  0  0  0  0  0  0  0  0  0  0
   -3.4840   26.0550  -29.7980 H   0  0  0  0  0  0  0  0  0  0  0  0
   -3.3978   21.6858  -27.7556 H   0  0  0  0  0  0  0  0  0  0  0  0
  1  2  1  0
  2  3  1  0
  3  4  2  0
  4  5  1  0
  5  6  2  0
  6  7  1  0
  7  8  2  0
  7  9  2  0
  7 10  1  0
 10 11  1  0
 11 12  2  0
 12 13  1  0
 13 14  1  0
 14 15  2  0
 14 16  1  0
 16 17  1  0
 17 18  1  0
 18 19  1  0
 19 20  1  0
 20 21  1  0
 20 22  2  0
 19 23  1  0
 23 24  1  0
 13 25  2  0
 25 26  1  0
 26 27  2  0
 27 28  1  0
  6 29  1  0
 29 30  2  0
 30 31  1  0
 30  3  1  0
 27 11  1  0
 24 16  1  0
  1 32  1  0
  1 33  1  0
  1 34  1  0
  4 35  1  0
  5 36  1  0
 12 37  1  0
 17 38  1  0
 17 39  1  0
 18 40  1  0
 18 41  1  0
 21 42  1  0
 21 43  1  0
 21 44  1  0
 23 45  1  0
 23 46  1  0
 24 47  1  0
 24 48  1  0
 25 49  1  0
 26 50  1  0
 28 51  1  0
 29 52  1  0
M  CHG  1  10  -1
M  END
>  <UniqueID>  (49) 
48

>  <SMILES>  (49) 
COc1ccc(S(=O)(=O)[N-]c2cc(C(=O)N3CCN(C(C)=O)CC3)ccc2O)cc1Cl

>  <Energy>  (49) 
63.744744951528524

>  <Genealogy>  (49) 
COc1ccc(S(=O)(=O)[N-]c2cc(C(=O)N3CCN(C(C)=O)CC3)ccc2O)cc1Cl (protonated)
COc1ccc(S(=O)(=O)[N-]c2cc(C(=O)N3CCN(C(C)=O)CC3)ccc2O)cc1Cl (3D coordinates assigned)
COc1ccc(S(=O)(=O)[N-]c2cc(C(=O)N3CCN(C(C)=O)CC3)ccc2O)cc1Cl (nonaromatic ring conformer: 63.744744951528524 kcal/mol)

>  <smiles>  (49) 
COc1ccc(S(=O)(=O)Nc2cc(C(=O)N3CCN(C(C)=O)CC3)ccc2O)cc1Cl

>  <score_type>  (49) 
oracle

>  <origin>  (49) 
adgpu

>  <m_score__min__energy>  (49) 
-11.210000000000001

>  <m_primary>  (49) 
energy

$$$$
