0:0
     RDKit          3D

 21 22  0  0  0  0  0  0  0  0999 V2000
   -9.1090   20.2370  -32.3470 C   0  0  0  0  0  0  0  0  0  0  0  0
   -7.7800   20.0250  -32.7200 C   0  0  0  0  0  0  0  0  0  0  0  0
   -6.7940   20.9480  -32.3560 C   0  0  0  0  0  0  0  0  0  0  0  0
   -7.1300   22.0960  -31.6150 C   0  0  0  0  0  0  0  0  0  0  0  0
   -6.0850   23.0790  -31.2270 C   0  0  0  0  0  0  0  0  0  0  0  0
   -6.4320   24.3920  -30.8690 C   0  0  0  0  0  0  0  0  0  0  0  0
   -5.4330   25.2990  -30.5080 C   0  0  0  0  0  0  0  0  0  0  0  0
   -4.1300   24.9130  -30.5020 N   0  0  0  0  0  0  0  0  0  0  0  0
   -3.7610   23.6500  -30.8420 C   0  0  0  0  0  0  0  0  0  0  0  0
   -4.7280   22.7110  -31.2110 C   0  0  0  0  0  0  0  0  0  0  0  0
   -8.4750   22.2980  -31.2460 C   0  0  0  0  0  0  0  0  0  0  0  0
   -9.4560   21.3720  -31.6110 C   0  0  0  0  0  0  0  0  0  0  0  0
   -9.8829   19.5096  -32.6331 H   0  0  0  0  0  0  0  0  0  0  0  0
   -7.5083   19.1312  -33.3007 H   0  0  0  0  0  0  0  0  0  0  0  0
   -5.7485   20.7752  -32.6511 H   0  0  0  0  0  0  0  0  0  0  0  0
   -7.4866   24.7049  -30.8729 H   0  0  0  0  0  0  0  0  0  0  0  0
   -5.7016   26.3283  -30.2279 H   0  0  0  0  0  0  0  0  0  0  0  0
   -2.6984   23.3661  -30.8267 H   0  0  0  0  0  0  0  0  0  0  0  0
   -4.4291   21.6892  -31.4875 H   0  0  0  0  0  0  0  0  0  0  0  0
   -8.7545   23.1904  -30.6669 H   0  0  0  0  0  0  0  0  0  0  0  0
  -10.5033   21.5374  -31.3181 H   0  0  0  0  0  0  0  0  0  0  0  0
  1  2  2  0
  2  3  1  0
  3  4  2  0
  4  5  1  0
  5  6  2  0
  6  7  1  0
  7  8  2  0
  8  9  1  0
  9 10  2  0
  4 11  1  0
 11 12  2  0
 12  1  1  0
 10  5  1  0
  1 13  1  0
  2 14  1  0
  3 15  1  0
  6 16  1  0
  7 17  1  0
  9 18  1  0
 10 19  1  0
 11 20  1  0
 12 21  1  0
M  END
>  <UniqueID>  (1) 
1

>  <SMILES>  (1) 
c1ccc(-c2ccncc2)cc1

>  <Energy>  (1) 
27.95681309559616

>  <Genealogy>  (1) 
c1ccc(-c2ccncc2)cc1 (3D coordinates assigned)
c1ccc(-c2ccncc2)cc1 (optimized conformer: 27.95681309559616 kcal/mol)

>  <smiles>  (1) 
c1ccc(-c2ccncc2)cc1

>  <score_type>  (1) 
oracle

>  <origin>  (1) 
adgpu

>  <m_score__min__energy>  (1) 
-6.2800000000000002

>  <m_primary>  (1) 
energy

$$$$
1:0
     RDKit          3D

 42 42  0  0  0  0  0  0  0  0999 V2000
   -8.2790   21.2230  -31.2830 C   0  0  0  0  0  0  0  0  0  0  0  0
   -7.6830   20.8510  -32.6420 C   0  0  0  0  0  0  0  0  0  0  0  0
   -6.6120   19.8360  -32.5120 N   0  0  0  0  0  0  0  0  0  0  0  0
   -5.2530   20.3060  -32.6910 C   0  0  0  0  0  0  0  0  0  0  0  0
   -4.1040   19.2520  -33.2080 S   0  0  0  0  0  0  0  0  0  0  0  0
   -5.0200   21.7040  -32.9080 N   0  0  0  0  0  0  0  0  0  0  0  0
   -5.2050   22.6720  -31.8630 C   0  0  0  0  0  0  0  0  0  0  0  0
   -6.2460   23.6130  -31.9610 C   0  0  0  0  0  0  0  0  0  0  0  0
   -6.4640   24.5440  -30.9460 C   0  0  0  0  0  0  0  0  0  0  0  0
   -5.6490   24.5420  -29.8080 C   0  0  0  0  0  0  0  0  0  0  0  0
   -5.8590   25.4500  -28.8200 F   0  0  0  0  0  0  0  0  0  0  0  0
   -4.6300   23.5940  -29.6850 C   0  0  0  0  0  0  0  0  0  0  0  0
   -4.4050   22.6430  -30.6990 C   0  0  0  0  0  0  0  0  0  0  0  0
   -3.3160   21.6170  -30.5290 C   0  0  0  0  0  0  0  0  0  0  0  0
   -6.9380   18.3820  -32.3740 C   0  0  0  0  0  0  0  0  0  0  0  0
   -8.4320   18.2050  -31.9890 C   0  0  0  0  0  0  0  0  0  0  0  0
   -6.1080   17.7350  -31.2350 C   0  0  0  0  0  0  0  0  0  0  0  0
   -6.6370   17.6820  -33.7310 C   0  0  0  0  0  0  0  0  0  0  0  0
   -6.1700   16.2250  -33.6270 C   0  0  0  0  0  0  0  0  0  0  0  0
   -7.6403   20.8244  -30.4810 H   0  0  0  0  0  0  0  0  0  0  0  0
   -8.3371   22.3180  -31.1954 H   0  0  0  0  0  0  0  0  0  0  0  0
   -9.2882   20.7941  -31.1954 H   0  0  0  0  0  0  0  0  0  0  0  0
   -8.4809   20.4471  -33.2825 H   0  0  0  0  0  0  0  0  0  0  0  0
   -7.2438   21.7579  -33.0833 H   0  0  0  0  0  0  0  0  0  0  0  0
   -4.6510   22.0160  -33.8410 H   0  0  0  0  0  0  0  0  0  0  0  0
   -6.8957   23.6145  -32.8487 H   0  0  0  0  0  0  0  0  0  0  0  0
   -7.2763   25.2798  -31.0396 H   0  0  0  0  0  0  0  0  0  0  0  0
   -3.9963   23.5904  -28.7859 H   0  0  0  0  0  0  0  0  0  0  0  0
   -3.1361   21.4475  -29.4571 H   0  0  0  0  0  0  0  0  0  0  0  0
   -3.6241   20.6733  -31.0028 H   0  0  0  0  0  0  0  0  0  0  0  0
   -2.3923   21.9807  -31.0028 H   0  0  0  0  0  0  0  0  0  0  0  0
   -8.5294   18.1935  -30.8934 H   0  0  0  0  0  0  0  0  0  0  0  0
   -9.0181   19.0400  -32.4005 H   0  0  0  0  0  0  0  0  0  0  0  0
   -8.8068   17.2562  -32.4005 H   0  0  0  0  0  0  0  0  0  0  0  0
   -6.5125   18.0503  -30.2619 H   0  0  0  0  0  0  0  0  0  0  0  0
   -6.1635   16.6395  -31.3176 H   0  0  0  0  0  0  0  0  0  0  0  0
   -5.0592   18.0562  -31.3176 H   0  0  0  0  0  0  0  0  0  0  0  0
   -7.5561   17.7021  -34.3350 H   0  0  0  0  0  0  0  0  0  0  0  0
   -5.8016   18.2379  -34.1815 H   0  0  0  0  0  0  0  0  0  0  0  0
   -6.0798   15.9436  -32.5674 H   0  0  0  0  0  0  0  0  0  0  0  0
   -6.9029   15.5690  -34.1195 H   0  0  0  0  0  0  0  0  0  0  0  0
   -5.1923   16.1173  -34.1195 H   0  0  0  0  0  0  0  0  0  0  0  0
  1  2  1  0
  2  3  1  0
  3  4  1  0
  4  5  2  0
  4  6  1  0
  6  7  1  0
  7  8  2  0
  8  9  1  0
  9 10  2  0
 10 11  1  0
 10 12  1  0
 12 13  2  0
 13 14  1  0
  3 15  1  0
 15 16  1  0
 15 17  1  0
 15 18  1  0
 18 19  1  0
 13  7  1  0
  1 20  1  0
  1 21  1  0
  1 22  1  0
  2 23  1  0
  2 24  1  0
  6 25  1  0
  8 26  1  0
  9 27  1  0
 12 28  1  0
 14 29  1  0
 14 30  1  0
 14 31  1  0
 16 32  1  0
 16 33  1  0
 16 34  1  0
 17 35  1  0
 17 36  1  0
 17 37  1  0
 18 38  1  0
 18 39  1  0
 19 40  1  0
 19 41  1  0
 19 42  1  0
M  END
>  <UniqueID>  (2) 
2

>  <SMILES>  (2) 
CCN(C(=S)Nc1ccc(F)cc1C)C(C)(C)CC

>  <Energy>  (2) 
50.738171063389245

>  <Genealogy>  (2) 
CCN(C(=S)Nc1ccc(F)cc1C)C(C)(C)CC (3D coordinates assigned)
CCN(C(=S)Nc1ccc(F)cc1C)C(C)(C)CC (optimized conformer: 50.738171063389245 kcal/mol)

>  <smiles>  (2) 
CCN(C(=S)Nc1ccc(F)cc1C)C(C)(C)CC

>  <score_type>  (2) 
oracle

>  <origin>  (2) 
adgpu

>  <m_score__min__energy>  (2) 
-7.0300000000000002

>  <m_primary>  (2) 
energy

$$$$
2:0
     RDKit          3D

 29 30  0  0  0  0  0  0  0  0999 V2000
   -5.0470   23.4440  -29.2600 C   0  0  0  0  0  0  0  0  0  0  0  0
   -5.1970   24.6270  -30.5810 S   0  0  0  0  0  0  0  0  0  0  0  0
   -3.8780   25.2970  -30.8420 O   0  0  0  0  0  0  0  0  0  0  0  0
   -6.1960   25.6740  -30.1730 O   0  0  0  0  0  0  0  0  0  0  0  0
   -5.7640   23.8460  -32.0240 N   0  0  0  0  0  0  0  0  0  0  0  0
   -6.7620   22.8080  -32.0530 C   0  0  0  0  0  0  0  0  0  0  0  0
   -8.0730   23.0190  -31.5910 C   0  0  0  0  0  0  0  0  0  0  0  0
   -9.0120   21.9870  -31.6360 C   0  0  0  0  0  0  0  0  0  0  0  0
   -8.6590   20.7340  -32.1380 C   0  0  0  0  0  0  0  0  0  0  0  0
   -7.3520   20.4960  -32.5980 C   0  0  0  0  0  0  0  0  0  0  0  0
   -6.9710   19.1610  -33.1290 C   0  0  0  0  0  0  0  0  0  0  0  0
   -6.0420   19.0400  -34.1760 C   0  0  0  0  0  0  0  0  0  0  0  0
   -5.6930   17.7790  -34.6620 C   0  0  0  0  0  0  0  0  0  0  0  0
   -6.2760   16.6430  -34.1000 C   0  0  0  0  0  0  0  0  0  0  0  0
   -7.1740   16.7700  -33.0880 N   0  0  0  0  0  0  0  0  0  0  0  0
   -7.5300   17.9860  -32.5940 C   0  0  0  0  0  0  0  0  0  0  0  0
   -6.4110   21.5410  -32.5490 C   0  0  0  0  0  0  0  0  0  0  0  0
   -5.1129   23.9640  -28.2929 H   0  0  0  0  0  0  0  0  0  0  0  0
   -5.8587   22.7054  -29.3353 H   0  0  0  0  0  0  0  0  0  0  0  0
   -4.0767   22.9314  -29.3353 H   0  0  0  0  0  0  0  0  0  0  0  0
   -5.3920   24.2110  -32.9290 H   0  0  0  0  0  0  0  0  0  0  0  0
   -8.3604   24.0029  -31.1918 H   0  0  0  0  0  0  0  0  0  0  0  0
  -10.0357   22.1626  -31.2737 H   0  0  0  0  0  0  0  0  0  0  0  0
   -9.4071   19.9283  -32.1740 H   0  0  0  0  0  0  0  0  0  0  0  0
   -5.5885   19.9414  -34.6139 H   0  0  0  0  0  0  0  0  0  0  0  0
   -4.9648   17.6818  -35.4807 H   0  0  0  0  0  0  0  0  0  0  0  0
   -6.0088   15.6444  -34.4761 H   0  0  0  0  0  0  0  0  0  0  0  0
   -8.2584   18.0512  -31.7723 H   0  0  0  0  0  0  0  0  0  0  0  0
   -5.3852   21.3634  -32.9043 H   0  0  0  0  0  0  0  0  0  0  0  0
  1  2  1  0
  2  3  2  0
  2  4  2  0
  2  5  1  0
  5  6  1  0
  6  7  2  0
  7  8  1  0
  8  9  2  0
  9 10  1  0
 10 11  1  0
 11 12  2  0
 12 13  1  0
 13 14  2  0
 14 15  1  0
 15 16  2  0
 10 17  2  0
 17  6  1  0
 16 11  1  0
  1 18  1  0
  1 19  1  0
  1 20  1  0
  5 21  1  0
  7 22  1  0
  8 23  1  0
  9 24  1  0
 12 25  1  0
 13 26  1  0
 14 27  1  0
 16 28  1  0
 17 29  1  0
M  END
>  <UniqueID>  (3) 
3

>  <SMILES>  (3) 
CS(=O)(=O)Nc1cccc(-c2cccnc2)c1

>  <Energy>  (3) 
34.440321151783735

>  <Genealogy>  (3) 
CS(=O)(=O)Nc1cccc(-c2cccnc2)c1 (3D coordinates assigned)
CS(=O)(=O)Nc1cccc(-c2cccnc2)c1 (optimized conformer: 34.440321151783735 kcal/mol)

>  <smiles>  (3) 
CS(=O)(=O)Nc1cccc(-c2cccnc2)c1

>  <score_type>  (3) 
oracle

>  <origin>  (3) 
adgpu

>  <m_score__min__energy>  (3) 
-8.2300000000000004

>  <m_primary>  (3) 
energy

$$$$
3:0
     RDKit          3D

 33 35  0  0  0  0  0  0  0  0999 V2000
   -6.1270   25.2440  -30.3310 C   0  0  0  0  0  0  0  0  0  0  0  0
   -6.3870   24.0890  -31.1930 N   0  0  0  0  0  0  0  0  0  0  0  0
   -7.7420   23.7910  -31.6770 C   0  0  0  0  0  0  0  0  0  0  0  0
   -8.0550   22.2730  -31.5740 C   0  0  0  0  0  0  0  0  0  0  0  0
   -8.1690   21.8600  -30.0930 C   0  0  0  0  0  0  0  0  0  0  0  0
   -9.4000   22.0000  -32.2790 C   0  0  0  0  0  0  0  0  0  0  0  0
   -6.9370   21.4660  -32.2270 C   0  0  0  0  0  0  0  0  0  0  0  0
   -7.1900   20.2300  -32.7420 N   0  0  0  0  0  0  0  0  0  0  0  0
   -6.2000   19.4630  -33.2680 C   0  0  0  0  0  0  0  0  0  0  0  0
   -6.4830   18.2020  -33.8050 C   0  0  0  0  0  0  0  0  0  0  0  0
   -5.4500   17.4250  -34.3390 C   0  0  0  0  0  0  0  0  0  0  0  0
   -4.1340   17.9050  -34.3340 C   0  0  0  0  0  0  0  0  0  0  0  0
   -3.8450   19.1630  -33.7960 C   0  0  0  0  0  0  0  0  0  0  0  0
   -4.8760   19.9450  -33.2620 C   0  0  0  0  0  0  0  0  0  0  0  0
   -4.6140   21.1650  -32.7270 N   0  0  0  0  0  0  0  0  0  0  0  0
   -5.6080   21.9350  -32.2080 C   0  0  0  0  0  0  0  0  0  0  0  0
   -5.3040   23.2440  -31.6130 C   0  0  0  0  0  0  0  0  0  0  0  0
   -4.1070   23.6080  -31.4590 O   0  0  0  0  0  0  0  0  0  0  0  0
   -6.1960   24.9376  -29.2768 H   0  0  0  0  0  0  0  0  0  0  0  0
   -5.1187   25.6337  -30.5344 H   0  0  0  0  0  0  0  0  0  0  0  0
   -6.8711   26.0282  -30.5344 H   0  0  0  0  0  0  0  0  0  0  0  0
   -8.4703   24.3493  -31.0705 H   0  0  0  0  0  0  0  0  0  0  0  0
   -7.8073   24.0888  -32.7339 H   0  0  0  0  0  0  0  0  0  0  0  0
   -7.9310   22.7221  -29.4526 H   0  0  0  0  0  0  0  0  0  0  0  0
   -9.1944   21.5206  -29.8849 H   0  0  0  0  0  0  0  0  0  0  0  0
   -7.4629   21.0426  -29.8849 H   0  0  0  0  0  0  0  0  0  0  0  0
  -10.1840   21.8409  -31.5240 H   0  0  0  0  0  0  0  0  0  0  0  0
   -9.6661   22.8625  -32.9078 H   0  0  0  0  0  0  0  0  0  0  0  0
   -9.3088   21.1021  -32.9078 H   0  0  0  0  0  0  0  0  0  0  0  0
   -7.5156   17.8228  -33.8071 H   0  0  0  0  0  0  0  0  0  0  0  0
   -5.6714   16.4348  -34.7638 H   0  0  0  0  0  0  0  0  0  0  0  0
   -3.3249   17.2900  -34.7549 H   0  0  0  0  0  0  0  0  0  0  0  0
   -2.8105   19.5370  -33.7924 H   0  0  0  0  0  0  0  0  0  0  0  0
  1  2  1  0
  2  3  1  0
  3  4  1  0
  4  5  1  0
  4  6  1  0
  4  7  1  0
  7  8  2  0
  8  9  1  0
  9 10  2  0
 10 11  1  0
 11 12  2  0
 12 13  1  0
 13 14  2  0
 14 15  1  0
 15 16  2  0
 16 17  1  0
 17 18  2  0
 17  2  1  0
 16  7  1  0
 14  9  1  0
  1 19  1  0
  1 20  1  0
  1 21  1  0
  3 22  1  0
  3 23  1  0
  5 24  1  0
  5 25  1  0
  5 26  1  0
  6 27  1  0
  6 28  1  0
  6 29  1  0
 10 30  1  0
 11 31  1  0
 12 32  1  0
 13 33  1  0
M  END
>  <UniqueID>  (4) 
4

>  <SMILES>  (4) 
CN1CC(C)(C)c2nc3ccccc3nc2C1=O

>  <Energy>  (4) 
35.62822633054132

>  <Genealogy>  (4) 
CN1CC(C)(C)c2nc3ccccc3nc2C1=O (3D coordinates assigned)
CN1CC(C)(C)c2nc3ccccc3nc2C1=O (nonaromatic ring conformer: 35.62822633054132 kcal/mol)

>  <smiles>  (4) 
CN1CC(C)(C)c2nc3ccccc3nc2C1=O

>  <score_type>  (4) 
oracle

>  <origin>  (4) 
adgpu

>  <m_score__min__energy>  (4) 
-7.2599999999999998

>  <m_primary>  (4) 
energy

$$$$
4:0
     RDKit          3D

 25 26  0  0  0  0  0  0  0  0999 V2000
   -2.2680   24.7440  -28.9420 C   0  0  0  0  0  0  0  0  0  0  0  0
   -3.1160   24.9230  -30.0700 O   0  0  0  0  0  0  0  0  0  0  0  0
   -4.0360   23.9930  -30.5850 C   0  0  0  0  0  0  0  0  0  0  0  0
   -3.5160   22.9610  -31.2410 O   0  0  0  0  0  0  0  0  0  0  0  0
   -4.2350   22.0040  -31.8100 C   0  0  0  0  0  0  0  0  0  0  0  0
   -3.6390   21.0700  -32.4120 O   0  0  0  0  0  0  0  0  0  0  0  0
   -5.6350   22.0370  -31.7430 C   0  0  0  0  0  0  0  0  0  0  0  0
   -6.4240   21.0380  -32.3460 C   0  0  0  0  0  0  0  0  0  0  0  0
   -7.8160   21.0870  -32.2540 C   0  0  0  0  0  0  0  0  0  0  0  0
   -8.8140   19.8120  -33.0290 S   0  0  0  0  0  0  0  0  0  0  0  0
   -8.7060   18.6900  -31.6010 C   0  0  0  0  0  0  0  0  0  0  0  0
   -8.4320   22.1340  -31.5670 C   0  0  0  0  0  0  0  0  0  0  0  0
   -7.6620   23.1300  -30.9630 C   0  0  0  0  0  0  0  0  0  0  0  0
   -6.2530   23.0980  -31.0420 C   0  0  0  0  0  0  0  0  0  0  0  0
   -5.4460   24.0890  -30.4370 C   0  0  0  0  0  0  0  0  0  0  0  0
   -6.1990   25.3440  -29.4440 Cl  0  0  0  0  0  0  0  0  0  0  0  0
   -2.8541   24.8677  -28.0194 H   0  0  0  0  0  0  0  0  0  0  0  0
   -1.8326   23.7342  -28.9672 H   0  0  0  0  0  0  0  0  0  0  0  0
   -1.4616   25.4917  -28.9672 H   0  0  0  0  0  0  0  0  0  0  0  0
   -5.9406   20.2147  -32.8924 H   0  0  0  0  0  0  0  0  0  0  0  0
   -8.7622   19.2742  -30.6706 H   0  0  0  0  0  0  0  0  0  0  0  0
   -9.5392   17.9727  -31.6345 H   0  0  0  0  0  0  0  0  0  0  0  0
   -7.7512   18.1448  -31.6345 H   0  0  0  0  0  0  0  0  0  0  0  0
   -9.5293   22.1748  -31.5010 H   0  0  0  0  0  0  0  0  0  0  0  0
   -8.1584   23.9478  -30.4201 H   0  0  0  0  0  0  0  0  0  0  0  0
  1  2  1  0
  2  3  1  0
  3  4  1  0
  4  5  1  0
  5  6  2  0
  5  7  1  0
  7  8  2  0
  8  9  1  0
  9 10  1  0
 10 11  1  0
  9 12  2  0
 12 13  1  0
 13 14  2  0
 14 15  1  0
 15 16  1  0
 15  3  2  0
 14  7  1  0
  1 17  1  0
  1 18  1  0
  1 19  1  0
  8 20  1  0
 11 21  1  0
 11 22  1  0
 11 23  1  0
 12 24  1  0
 13 25  1  0
M  END
>  <UniqueID>  (5) 
5

>  <SMILES>  (5) 
COc1oc(=O)c2cc(SC)ccc2c1Cl

>  <Energy>  (5) 
35.874091028593384

>  <Genealogy>  (5) 
COc1oc(=O)c2cc(SC)ccc2c1Cl (3D coordinates assigned)
COc1oc(=O)c2cc(SC)ccc2c1Cl (optimized conformer: 35.874091028593384 kcal/mol)

>  <smiles>  (5) 
COc1oc(=O)c2cc(SC)ccc2c1Cl

>  <score_type>  (5) 
oracle

>  <origin>  (5) 
adgpu

>  <m_score__min__energy>  (5) 
-6.8700000000000001

>  <m_primary>  (5) 
energy

$$$$
5:0
     RDKit          3D

 38 41  0  0  0  0  0  0  0  0999 V2000
   -5.5996   26.2474  -30.9361 H   0  0  0  0  0  0  0  0  0  0  0  0
   -5.0460   25.3050  -30.8120 C   0  0  0  0  0  0  0  0  0  0  0  0
   -3.8620   25.2960  -30.1490 N   0  0  0  0  0  0  0  0  0  0  0  0
   -3.1590   24.1400  -29.9860 C   0  0  0  0  0  0  0  0  0  0  0  0
   -2.0250   24.1310  -29.3510 N   0  0  0  0  0  0  0  0  0  0  0  0
   -1.4080   25.3160  -28.7660 C   0  0  0  0  0  0  0  0  0  0  0  0
   -1.4450   25.2449  -27.6689 H   0  0  0  0  0  0  0  0  0  0  0  0
   -0.3602   25.3836  -29.0939 H   0  0  0  0  0  0  0  0  0  0  0  0
   -1.9535   26.2132  -29.0939 H   0  0  0  0  0  0  0  0  0  0  0  0
   -3.6480   22.9790  -30.4930 N   0  0  0  0  0  0  0  0  0  0  0  0
   -4.8350   22.9360  -31.1570 C   0  0  0  0  0  0  0  0  0  0  0  0
   -5.3250   21.6530  -31.7060 C   0  0  0  0  0  0  0  0  0  0  0  0
   -4.5970   20.6810  -32.3780 C   0  0  0  0  0  0  0  0  0  0  0  0
   -3.1320   20.6030  -32.5570 C   0  0  0  0  0  0  0  0  0  0  0  0
   -2.3020   20.4140  -31.4400 C   0  0  0  0  0  0  0  0  0  0  0  0
   -2.7464   20.3103  -30.4391 H   0  0  0  0  0  0  0  0  0  0  0  0
   -0.9130   20.3570  -31.5940 C   0  0  0  0  0  0  0  0  0  0  0  0
   -0.2692   20.1963  -30.7167 H   0  0  0  0  0  0  0  0  0  0  0  0
   -0.3420   20.5040  -32.8610 C   0  0  0  0  0  0  0  0  0  0  0  0
    1.0050   20.4510  -33.0070 F   0  0  0  0  0  0  0  0  0  0  0  0
   -1.1580   20.7170  -33.9740 C   0  0  0  0  0  0  0  0  0  0  0  0
   -0.7075   20.8401  -34.9699 H   0  0  0  0  0  0  0  0  0  0  0  0
   -2.5480   20.7740  -33.8240 C   0  0  0  0  0  0  0  0  0  0  0  0
   -3.1865   20.9534  -34.7015 H   0  0  0  0  0  0  0  0  0  0  0  0
   -5.4400   19.7330  -32.8380 N   0  0  0  0  0  0  0  0  0  0  0  0
   -6.6600   20.1390  -32.4320 C   0  0  0  0  0  0  0  0  0  0  0  0
   -7.9060   19.3550  -32.7560 C   0  0  0  0  0  0  0  0  0  0  0  0
   -7.5011   18.9328  -33.6875 H   0  0  0  0  0  0  0  0  0  0  0  0
   -8.6800   18.8000  -31.5710 C   0  0  0  0  0  0  0  0  0  0  0  0
   -9.1755   17.8209  -31.6476 H   0  0  0  0  0  0  0  0  0  0  0  0
   -8.4470   18.5995  -30.5148 H   0  0  0  0  0  0  0  0  0  0  0  0
   -9.2250   19.9910  -32.3450 C   0  0  0  0  0  0  0  0  0  0  0  0
  -10.1145   19.8731  -32.9814 H   0  0  0  0  0  0  0  0  0  0  0  0
   -9.5492   21.0083  -32.0806 H   0  0  0  0  0  0  0  0  0  0  0  0
   -6.6230   21.3000  -31.7400 N   0  0  0  0  0  0  0  0  0  0  0  0
   -7.4290   21.8410  -31.3570 H   0  0  0  0  0  0  0  0  0  0  0  0
   -5.5610   24.1200  -31.3360 C   0  0  0  0  0  0  0  0  0  0  0  0
   -6.5178   24.1153  -31.8788 H   0  0  0  0  0  0  0  0  0  0  0  0
  1  2  1  0
  2  3  1  0
  3  4  1  0
  4  5  2  0
  5  6  1  0
  6  7  1  0
  6  8  1  0
  6  9  1  0
  4 10  1  0
 10 11  2  0
 11 12  1  0
 12 13  2  0
 13 14  1  0
 14 15  2  0
 15 16  1  0
 15 17  1  0
 17 18  1  0
 17 19  2  0
 19 20  1  0
 19 21  1  0
 21 22  1  0
 21 23  2  0
 23 24  1  0
 13 25  1  0
 25 26  2  0
 26 27  1  0
 27 28  1  0
 27 29  1  0
 29 30  1  0
 29 31  1  0
 29 32  1  0
 32 33  1  0
 32 34  1  0
 26 35  1  0
 35 36  1  0
 11 37  1  0
 37 38  1  0
 37  2  2  0
 35 12  1  0
 23 14  1  0
 32 27  1  0
M  CHG  1   3  -1
M  END
>  <UniqueID>  (6) 
6

>  <SMILES>  (6) 
C/N=c1/nc(-c2[nH]c(C3CC3)nc2-c2ccc(F)cc2)cc[n-]1

>  <Energy>  (6) 
341.52377911470626

>  <Genealogy>  (6) 
CN=c1nc(-c2[nH]c(C3CC3)nc2-c2ccc(F)cc2)cc[n-]1 (protonated)
C/N=c1/nc(-c2[nH]c(C3CC3)nc2-c2ccc(F)cc2)cc[n-]1 (cis-trans isomerization)
C/N=c1/nc(-c2[nH]c(C3CC3)nc2-c2ccc(F)cc2)cc[n-]1 (3D coordinates assigned)
C/N=c1/nc(-c2[nH]c(C3CC3)nc2-c2ccc(F)cc2)cc[n-]1 (nonaromatic ring conformer: 341.52377911470626 kcal/mol)

>  <smiles>  (6) 
CN=c1nc(-c2[nH]c(C3CC3)nc2-c2ccc(F)cc2)cc[nH]1

>  <score_type>  (6) 
oracle

>  <origin>  (6) 
adgpu

>  <m_score__min__energy>  (6) 
-8.7100000000000009

>  <m_primary>  (6) 
energy

$$$$
6:0
     RDKit          3D

 31 33  0  0  1  0  0  0  0  0999 V2000
   -9.6450   18.6000  -32.4500 N   0  0  0  0  0  0  0  0  0  0  0  0
   -9.3370   19.8210  -32.2490 C   0  0  0  0  0  0  0  0  0  0  0  0
   -8.0640   20.2010  -31.9350 N   0  0  0  0  0  0  0  0  0  0  0  0
   -8.0290   21.5280  -31.7800 C   0  0  0  0  0  0  0  0  0  0  0  0
   -6.8540   22.3190  -31.4410 C   0  0  0  0  0  0  0  0  0  0  0  0
   -6.9870   23.4890  -30.7090 C   0  0  0  0  0  0  0  0  0  0  0  0
   -5.8630   24.2270  -30.3970 C   0  0  0  0  0  0  0  0  0  0  0  0
   -4.5950   23.8320  -30.7970 C   0  0  0  0  0  0  0  0  0  0  0  0
   -3.5040   24.6560  -30.4280 N   0  0  0  0  0  0  0  0  0  0  0  0
   -2.9340   24.5120  -29.2820 C   0  0  0  0  0  0  0  0  0  0  0  0
   -3.3310   23.5730  -28.3570 C   0  0  0  0  0  0  0  0  0  0  0  0
   -2.6380   23.5200  -27.1660 C   0  0  0  0  0  0  0  0  0  0  0  0
   -1.5840   24.3540  -26.8740 C   0  0  0  0  0  0  0  0  0  0  0  0
   -1.2270   25.2840  -27.8500 C   0  0  0  0  0  0  0  0  0  0  0  0
   -1.8950   25.3480  -29.0180 N   0  0  0  0  0  0  0  0  0  0  0  0
   -4.4710   22.6700  -31.5230 C   0  0  0  0  0  0  0  0  0  0  0  0
   -5.6030   21.9170  -31.8430 C   0  0  0  0  0  0  0  0  0  0  0  0
   -9.2710   21.9970  -31.9920 N   0  0  0  0  0  0  0  0  0  0  0  0
  -10.0540   20.9460  -32.2760 N   0  0  0  0  0  0  0  0  0  0  0  0
  -10.5710   18.2190  -32.6890 H   0  0  0  0  0  0  0  0  0  0  0  0
   -7.9807   23.8266  -30.3794 H   0  0  0  0  0  0  0  0  0  0  0  0
   -5.9760   25.1537  -29.8152 H   0  0  0  0  0  0  0  0  0  0  0  0
   -4.1695   22.8906  -28.5603 H   0  0  0  0  0  0  0  0  0  0  0  0
   -2.9422   22.7763  -26.4147 H   0  0  0  0  0  0  0  0  0  0  0  0
   -1.0478   24.2904  -25.9156 H   0  0  0  0  0  0  0  0  0  0  0  0
   -0.3902   25.9733  -27.6639 H   0  0  0  0  0  0  0  0  0  0  0  0
   -1.5730   26.0680  -29.7000 H   0  0  0  0  0  0  0  0  0  0  0  0
   -3.4771   22.3329  -31.8525 H   0  0  0  0  0  0  0  0  0  0  0  0
   -5.4916   20.9899  -32.4245 H   0  0  0  0  0  0  0  0  0  0  0  0
   -9.6150   22.9940  -31.9550 H   0  0  0  0  0  0  0  0  0  0  0  0
  -11.0880   20.9760  -32.4940 H   0  0  0  0  0  0  0  0  0  0  0  0
  1  2  2  3
  2  3  1  0
  3  4  2  0
  4  5  1  0
  5  6  2  0
  6  7  1  0
  7  8  2  0
  8  9  1  0
  9 10  2  0
 10 11  1  0
 11 12  2  0
 12 13  1  0
 13 14  2  0
 14 15  1  0
  8 16  1  0
 16 17  2  0
  4 18  1  0
 18 19  1  0
 19  2  1  0
 17  5  1  0
 15 10  1  0
  1 20  1  0
  6 21  1  0
  7 22  1  0
 11 23  1  0
 12 24  1  0
 13 25  1  0
 14 26  1  0
 15 27  1  0
 16 28  1  0
 17 29  1  0
 18 30  1  0
 19 31  1  0
M  END
>  <smiles>  (7) 
N=c1nc(-c2ccc(N=c3cccc[nH]3)cc2)[nH][nH]1

>  <score_type>  (7) 
oracle

>  <origin>  (7) 
adgpu

>  <m_score__min__energy>  (7) 
-7.5199999999999996

>  <m_primary>  (7) 
energy

$$$$
7:0
     RDKit          3D

 25 27  0  0  0  0  0  0  0  0999 V2000
   -9.8840   21.6690  -31.1380 F   0  0  0  0  0  0  0  0  0  0  0  0
   -8.5890   21.5670  -31.5250 C   0  0  0  0  0  0  0  0  0  0  0  0
   -8.2020   20.5520  -32.4020 C   0  0  0  0  0  0  0  0  0  0  0  0
   -6.8680   20.4460  -32.8020 C   0  0  0  0  0  0  0  0  0  0  0  0
   -5.9150   21.3530  -32.3270 C   0  0  0  0  0  0  0  0  0  0  0  0
   -4.6270   21.2230  -32.7350 F   0  0  0  0  0  0  0  0  0  0  0  0
   -6.2960   22.3810  -31.4410 C   0  0  0  0  0  0  0  0  0  0  0  0
   -5.3030   23.3500  -30.9290 C   0  0  0  0  0  0  0  0  0  0  0  0
   -4.5180   23.1340  -29.8530 N   0  0  0  0  0  0  0  0  0  0  0  0
   -3.8110   24.2820  -29.8020 C   0  0  0  0  0  0  0  0  0  0  0  0
   -2.7890   24.5660  -28.7860 C   0  0  0  0  0  0  0  0  0  0  0  0
   -2.7020   23.9670  -27.5430 C   0  0  0  0  0  0  0  0  0  0  0  0
   -1.6030   24.5260  -26.9230 C   0  0  0  0  0  0  0  0  0  0  0  0
   -1.0690   25.4390  -27.8120 C   0  0  0  0  0  0  0  0  0  0  0  0
   -1.7950   25.4590  -28.9450 N   0  0  0  0  0  0  0  0  0  0  0  0
   -4.1460   25.1400  -30.7840 N   0  0  0  0  0  0  0  0  0  0  0  0
   -5.0700   24.5270  -31.4580 O   0  0  0  0  0  0  0  0  0  0  0  0
   -7.6420   22.4780  -31.0450 C   0  0  0  0  0  0  0  0  0  0  0  0
   -8.9476   19.8359  -32.7779 H   0  0  0  0  0  0  0  0  0  0  0  0
   -6.5655   19.6458  -33.4935 H   0  0  0  0  0  0  0  0  0  0  0  0
   -3.3736   23.1993  -27.1311 H   0  0  0  0  0  0  0  0  0  0  0  0
   -1.2256   24.2905  -25.9169 H   0  0  0  0  0  0  0  0  0  0  0  0
   -0.1804   26.0588  -27.6216 H   0  0  0  0  0  0  0  0  0  0  0  0
   -1.6150   26.0570  -29.7810 H   0  0  0  0  0  0  0  0  0  0  0  0
   -7.9521   23.2752  -30.3535 H   0  0  0  0  0  0  0  0  0  0  0  0
  1  2  1  0
  2  3  2  0
  3  4  1  0
  4  5  2  0
  5  6  1  0
  5  7  1  0
  7  8  1  0
  8  9  2  0
  9 10  1  0
 10 11  1  0
 11 12  2  0
 12 13  1  0
 13 14  2  0
 14 15  1  0
 10 16  2  0
 16 17  1  0
  7 18  2  0
 18  2  1  0
 17  8  1  0
 15 11  1  0
  3 19  1  0
  4 20  1  0
 12 21  1  0
 13 22  1  0
 14 23  1  0
 15 24  1  0
 18 25  1  0
M  END
>  <UniqueID>  (8) 
7

>  <SMILES>  (8) 
Fc1ccc(F)c(-c2nc(-c3ccc[nH]3)no2)c1

>  <Energy>  (8) 
85.94508468567884

>  <Genealogy>  (8) 
Fc1ccc(F)c(-c2nc(-c3ccc[nH]3)no2)c1 (3D coordinates assigned)
Fc1ccc(F)c(-c2nc(-c3ccc[nH]3)no2)c1 (optimized conformer: 85.94508468567884 kcal/mol)

>  <smiles>  (8) 
Fc1ccc(F)c(-c2nc(-c3ccc[nH]3)no2)c1

>  <score_type>  (8) 
oracle

>  <origin>  (8) 
adgpu

>  <m_score__min__energy>  (8) 
-7.7599999999999998

>  <m_primary>  (8) 
energy

$$$$
8:0
     RDKit          3D

 45 48  0  0  0  0  0  0  0  0999 V2000
   -1.2230   25.6560  -28.9610 N   0  0  0  0  0  0  0  0  0  0  0  0
   -2.0450   24.5010  -28.6150 C   0  0  0  0  0  0  0  0  0  0  0  0
   -3.0900   24.2850  -29.6640 C   0  0  0  0  0  0  0  0  0  0  0  0
   -3.7390   25.2810  -30.3120 N   0  0  0  0  0  0  0  0  0  0  0  0
   -4.5590   24.7480  -31.2150 N   0  0  0  0  0  0  0  0  0  0  0  0
   -4.4190   23.4120  -31.1420 C   0  0  0  0  0  0  0  0  0  0  0  0
   -5.0670   22.4450  -31.9050 C   0  0  0  0  0  0  0  0  0  0  0  0
   -4.7540   21.0830  -31.6670 C   0  0  0  0  0  0  0  0  0  0  0  0
   -5.4150   20.0120  -32.4540 C   0  0  0  0  0  0  0  0  0  0  0  0
   -5.9530   20.1060  -33.7310 C   0  0  0  0  0  0  0  0  0  0  0  0
   -6.4550   18.9100  -34.0950 N   0  0  0  0  0  0  0  0  0  0  0  0
   -6.2460   18.0660  -33.0980 N   0  0  0  0  0  0  0  0  0  0  0  0
   -6.6760   16.6700  -33.1080 C   0  0  0  0  0  0  0  0  0  0  0  0
   -5.6790   15.7740  -33.8680 C   0  0  0  0  0  0  0  0  0  0  0  0
   -4.4890   16.5170  -34.3470 N   0  0  0  0  0  0  0  0  0  0  0  0
   -3.8230   15.8880  -35.5000 C   0  0  0  0  0  0  0  0  0  0  0  0
   -2.3250   16.1570  -35.3720 C   0  0  0  0  0  0  0  0  0  0  0  0
   -2.1360   16.7970  -34.0100 C   0  0  0  0  0  0  0  0  0  0  0  0
   -3.4620   16.5990  -33.3010 C   0  0  0  0  0  0  0  0  0  0  0  0
   -5.6290   18.6970  -32.0810 C   0  0  0  0  0  0  0  0  0  0  0  0
   -3.7930   20.7560  -30.6680 C   0  0  0  0  0  0  0  0  0  0  0  0
   -3.1580   21.7630  -29.9180 C   0  0  0  0  0  0  0  0  0  0  0  0
   -3.5050   23.0820  -30.1870 C   0  0  0  0  0  0  0  0  0  0  0  0
   -0.2610   25.3150  -29.1920 H   0  0  0  0  0  0  0  0  0  0  0  0
   -1.6120   26.0690  -29.8390 H   0  0  0  0  0  0  0  0  0  0  0  0
   -1.4073   23.6073  -28.5464 H   0  0  0  0  0  0  0  0  0  0  0  0
   -2.5361   24.6836  -27.6478 H   0  0  0  0  0  0  0  0  0  0  0  0
   -5.8022   22.7299  -32.6720 H   0  0  0  0  0  0  0  0  0  0  0  0
   -5.9670   21.0158  -34.3492 H   0  0  0  0  0  0  0  0  0  0  0  0
   -6.7565   16.3140  -32.0703 H   0  0  0  0  0  0  0  0  0  0  0  0
   -7.6481   16.6134  -33.6197 H   0  0  0  0  0  0  0  0  0  0  0  0
   -5.3445   14.9708  -33.1950 H   0  0  0  0  0  0  0  0  0  0  0  0
   -6.1987   15.3756  -34.7518 H   0  0  0  0  0  0  0  0  0  0  0  0
   -4.7650   17.4960  -34.6040 H   0  0  0  0  0  0  0  0  0  0  0  0
   -4.0110   14.8042  -35.4963 H   0  0  0  0  0  0  0  0  0  0  0  0
   -4.2104   16.3019  -36.4427 H   0  0  0  0  0  0  0  0  0  0  0  0
   -1.7598   15.2154  -35.4347 H   0  0  0  0  0  0  0  0  0  0  0  0
   -1.9597   16.8080  -36.1799 H   0  0  0  0  0  0  0  0  0  0  0  0
   -1.3238   16.3011  -33.4583 H   0  0  0  0  0  0  0  0  0  0  0  0
   -1.8601   17.8592  -34.0852 H   0  0  0  0  0  0  0  0  0  0  0  0
   -3.4432   15.6690  -32.7138 H   0  0  0  0  0  0  0  0  0  0  0  0
   -3.6681   17.4270  -32.6068 H   0  0  0  0  0  0  0  0  0  0  0  0
   -5.3442   18.2449  -31.1195 H   0  0  0  0  0  0  0  0  0  0  0  0
   -3.5437   19.7012  -30.4801 H   0  0  0  0  0  0  0  0  0  0  0  0
   -2.4139   21.5155  -29.1466 H   0  0  0  0  0  0  0  0  0  0  0  0
  1  2  1  0
  2  3  1  0
  3  4  1  0
  4  5  1  0
  5  6  2  0
  6  7  1  0
  7  8  2  0
  8  9  1  0
  9 10  1  0
 10 11  2  0
 11 12  1  0
 12 13  1  0
 13 14  1  0
 14 15  1  0
 15 16  1  0
 16 17  1  0
 17 18  1  0
 18 19  1  0
 12 20  1  0
  8 21  1  0
 21 22  2  0
 22 23  1  0
 23  3  2  0
 23  6  1  0
 20  9  2  0
 19 15  1  0
  1 24  1  0
  1 25  1  0
  2 26  1  0
  2 27  1  0
  7 28  1  0
 10 29  1  0
 13 30  1  0
 13 31  1  0
 14 32  1  0
 14 33  1  0
 15 34  1  0
 16 35  1  0
 16 36  1  0
 17 37  1  0
 17 38  1  0
 18 39  1  0
 18 40  1  0
 19 41  1  0
 19 42  1  0
 20 43  1  0
 21 44  1  0
 22 45  1  0
M  CHG  2   4  -1  15   1
M  END
>  <UniqueID>  (9) 
8

>  <SMILES>  (9) 
NCc1[n-]nc2cc(-c3cnn(CC[NH+]4CCCC4)c3)ccc12

>  <Energy>  (9) 
116.45339488134998

>  <Genealogy>  (9) 
NCc1[n-]nc2cc(-c3cnn(CC[NH+]4CCCC4)c3)ccc12 (protonated)
NCc1[n-]nc2cc(-c3cnn(CC[NH+]4CCCC4)c3)ccc12 (3D coordinates assigned)
NCc1[n-]nc2cc(-c3cnn(CC[NH+]4CCCC4)c3)ccc12 (nonaromatic ring conformer: 116.45339488134998 kcal/mol)

>  <smiles>  (9) 
NCc1[nH]nc2cc(-c3cnn(CCN4CCCC4)c3)ccc12

>  <score_type>  (9) 
oracle

>  <origin>  (9) 
adgpu

>  <m_score__min__energy>  (9) 
-9.1300000000000008

>  <m_primary>  (9) 
energy

$$$$
9:0
     RDKit          3D

 43 45  0  0  0  0  0  0  0  0999 V2000
    1.2440   19.8670  -33.7440 C   0  0  0  0  0  0  0  0  0  0  0  0
   -0.1140   21.0070  -33.9050 S   0  0  0  0  0  0  0  0  0  0  0  0
   -0.4310   21.5780  -32.5510 O   0  0  0  0  0  0  0  0  0  0  0  0
    0.2530   22.1350  -34.8320 O   0  0  0  0  0  0  0  0  0  0  0  0
   -1.5100   20.1720  -34.5040 N   0  0  0  0  0  0  0  0  0  0  0  0
   -2.7830   20.0900  -33.8480 C   0  0  0  0  0  0  0  0  0  0  0  0
   -3.5530   18.9140  -33.8410 C   0  0  0  0  0  0  0  0  0  0  0  0
   -4.7890   18.8860  -33.1920 C   0  0  0  0  0  0  0  0  0  0  0  0
   -5.2670   20.0260  -32.5400 C   0  0  0  0  0  0  0  0  0  0  0  0
   -4.5080   21.2060  -32.5310 C   0  0  0  0  0  0  0  0  0  0  0  0
   -4.9740   22.4020  -31.7930 C   0  0  0  0  0  0  0  0  0  0  0  0
   -4.0350   23.2350  -31.1660 C   0  0  0  0  0  0  0  0  0  0  0  0
   -4.4400   24.4020  -30.4970 C   0  0  0  0  0  0  0  0  0  0  0  0
   -3.4970   25.2940  -29.8840 N   0  0  0  0  0  0  0  0  0  0  0  0
   -2.2850   24.8290  -28.7320 S   0  0  0  0  0  0  0  0  0  0  0  0
   -1.0000   25.5370  -29.0510 O   0  0  0  0  0  0  0  0  0  0  0  0
   -2.7280   25.2340  -27.3550 O   0  0  0  0  0  0  0  0  0  0  0  0
   -2.0090   23.0890  -28.8190 C   0  0  0  0  0  0  0  0  0  0  0  0
   -2.8820   22.1890  -28.1840 C   0  0  0  0  0  0  0  0  0  0  0  0
   -2.6800   20.8120  -28.3080 C   0  0  0  0  0  0  0  0  0  0  0  0
   -1.6020   20.3250  -29.0540 C   0  0  0  0  0  0  0  0  0  0  0  0
   -0.7240   21.2180  -29.6760 C   0  0  0  0  0  0  0  0  0  0  0  0
   -0.9280   22.5970  -29.5630 C   0  0  0  0  0  0  0  0  0  0  0  0
   -5.8030   24.7120  -30.4300 C   0  0  0  0  0  0  0  0  0  0  0  0
   -6.7490   23.8790  -31.0340 C   0  0  0  0  0  0  0  0  0  0  0  0
   -6.3400   22.7300  -31.7180 C   0  0  0  0  0  0  0  0  0  0  0  0
   -7.2740   21.9600  -32.3320 F   0  0  0  0  0  0  0  0  0  0  0  0
   -3.2670   21.2290  -33.1930 C   0  0  0  0  0  0  0  0  0  0  0  0
    1.4518   19.6925  -32.6780 H   0  0  0  0  0  0  0  0  0  0  0  0
    0.9821   18.9142  -34.2273 H   0  0  0  0  0  0  0  0  0  0  0  0
    2.1371   20.2900  -34.2273 H   0  0  0  0  0  0  0  0  0  0  0  0
   -3.1804   18.0122  -34.3488 H   0  0  0  0  0  0  0  0  0  0  0  0
   -5.3884   17.9637  -33.1939 H   0  0  0  0  0  0  0  0  0  0  0  0
   -6.2422   19.9980  -32.0318 H   0  0  0  0  0  0  0  0  0  0  0  0
   -2.9677   22.9708  -31.1987 H   0  0  0  0  0  0  0  0  0  0  0  0
   -3.7253   22.5691  -27.5887 H   0  0  0  0  0  0  0  0  0  0  0  0
   -3.3702   20.1096  -27.8179 H   0  0  0  0  0  0  0  0  0  0  0  0
   -1.4450   19.2406  -29.1514 H   0  0  0  0  0  0  0  0  0  0  0  0
    0.1290   20.8351  -30.2554 H   0  0  0  0  0  0  0  0  0  0  0  0
   -0.2389   23.2965  -30.0588 H   0  0  0  0  0  0  0  0  0  0  0  0
   -6.1320   25.6171  -29.8985 H   0  0  0  0  0  0  0  0  0  0  0  0
   -7.8186   24.1281  -30.9711 H   0  0  0  0  0  0  0  0  0  0  0  0
   -2.6697   22.1527  -33.1961 H   0  0  0  0  0  0  0  0  0  0  0  0
  1  2  1  0
  2  3  2  0
  2  4  2  0
  2  5  1  0
  5  6  1  0
  6  7  2  0
  7  8  1  0
  8  9  2  0
  9 10  1  0
 10 11  1  0
 11 12  2  0
 12 13  1  0
 13 14  1  0
 14 15  1  0
 15 16  2  0
 15 17  2  0
 15 18  1  0
 18 19  2  0
 19 20  1  0
 20 21  2  0
 21 22  1  0
 22 23  2  0
 13 24  2  0
 24 25  1  0
 25 26  2  0
 26 27  1  0
 10 28  2  0
 28  6  1  0
 26 11  1  0
 23 18  1  0
  1 29  1  0
  1 30  1  0
  1 31  1  0
  7 32  1  0
  8 33  1  0
  9 34  1  0
 12 35  1  0
 19 36  1  0
 20 37  1  0
 21 38  1  0
 22 39  1  0
 23 40  1  0
 24 41  1  0
 25 42  1  0
 28 43  1  0
M  CHG  2   5  -1  14  -1
M  END
>  <UniqueID>  (10) 
9

>  <SMILES>  (10) 
CS(=O)(=O)[N-]c1cccc(-c2cc([N-]S(=O)(=O)c3ccccc3)ccc2F)c1

>  <Energy>  (10) 
52.819884751377096

>  <Genealogy>  (10) 
CS(=O)(=O)[N-]c1cccc(-c2cc([N-]S(=O)(=O)c3ccccc3)ccc2F)c1 (protonated)
CS(=O)(=O)[N-]c1cccc(-c2cc([N-]S(=O)(=O)c3ccccc3)ccc2F)c1 (3D coordinates assigned)
CS(=O)(=O)[N-]c1cccc(-c2cc([N-]S(=O)(=O)c3ccccc3)ccc2F)c1 (optimized conformer: 52.819884751377096 kcal/mol)

>  <smiles>  (10) 
CS(=O)(=O)Nc1cccc(-c2cc(NS(=O)(=O)c3ccccc3)ccc2F)c1

>  <score_type>  (10) 
oracle

>  <origin>  (10) 
adgpu

>  <m_score__min__energy>  (10) 
-11.470000000000001

>  <m_primary>  (10) 
energy

$$$$
10:0
     RDKit          3D

 33 34  0  0  0  0  0  0  0  0999 V2000
   -0.9610   26.4250  -28.2440 C   0  0  0  0  0  0  0  0  0  0  0  0
   -1.7810   25.4930  -28.9420 O   0  0  0  0  0  0  0  0  0  0  0  0
   -1.9400   24.1440  -28.5860 C   0  0  0  0  0  0  0  0  0  0  0  0
   -0.8420   23.2700  -28.5000 C   0  0  0  0  0  0  0  0  0  0  0  0
   -1.0250   21.9300  -28.1540 C   0  0  0  0  0  0  0  0  0  0  0  0
   -2.3070   21.4350  -27.8770 C   0  0  0  0  0  0  0  0  0  0  0  0
   -2.4900   20.0530  -27.5200 N   0  0  0  0  0  0  0  0  0  0  0  0
   -3.4990   19.6880  -26.8800 O   0  0  0  0  0  0  0  0  0  0  0  0
   -1.5600   19.1060  -27.8830 O   0  0  0  0  0  0  0  0  0  0  0  0
   -3.4050   22.3070  -27.9560 C   0  0  0  0  0  0  0  0  0  0  0  0
   -3.2350   23.6570  -28.3180 C   0  0  0  0  0  0  0  0  0  0  0  0
   -4.3640   24.5490  -28.4090 N   0  0  0  0  0  0  0  0  0  0  0  0
   -5.1980   24.8910  -29.8940 S   0  0  0  0  0  0  0  0  0  0  0  0
   -4.2290   25.4630  -30.8880 O   0  0  0  0  0  0  0  0  0  0  0  0
   -6.2800   25.8990  -29.6280 O   0  0  0  0  0  0  0  0  0  0  0  0
   -5.8760   23.4060  -30.5570 C   0  0  0  0  0  0  0  0  0  0  0  0
   -7.2180   23.0830  -30.3120 C   0  0  0  0  0  0  0  0  0  0  0  0
   -7.7690   21.9170  -30.8510 C   0  0  0  0  0  0  0  0  0  0  0  0
   -6.9820   21.0680  -31.6340 C   0  0  0  0  0  0  0  0  0  0  0  0
   -5.6420   21.3830  -31.8760 C   0  0  0  0  0  0  0  0  0  0  0  0
   -5.0880   22.5490  -31.3390 C   0  0  0  0  0  0  0  0  0  0  0  0
   -1.0856   26.2833  -27.1603 H   0  0  0  0  0  0  0  0  0  0  0  0
    0.0923   26.2625  -28.5163 H   0  0  0  0  0  0  0  0  0  0  0  0
   -1.2563   27.4490  -28.5163 H   0  0  0  0  0  0  0  0  0  0  0  0
    0.1709   23.6457  -28.7073 H   0  0  0  0  0  0  0  0  0  0  0  0
   -0.1565   21.2573  -28.0983 H   0  0  0  0  0  0  0  0  0  0  0  0
   -4.4135   21.9295  -27.7316 H   0  0  0  0  0  0  0  0  0  0  0  0
   -4.6450   25.1140  -27.5780 H   0  0  0  0  0  0  0  0  0  0  0  0
   -7.8387   23.7486  -29.6942 H   0  0  0  0  0  0  0  0  0  0  0  0
   -8.8229   21.6674  -30.6588 H   0  0  0  0  0  0  0  0  0  0  0  0
   -7.4172   20.1519  -32.0598 H   0  0  0  0  0  0  0  0  0  0  0  0
   -5.0224   20.7127  -32.4898 H   0  0  0  0  0  0  0  0  0  0  0  0
   -4.0329   22.7945  -31.5301 H   0  0  0  0  0  0  0  0  0  0  0  0
  1  2  1  0
  2  3  1  0
  3  4  2  0
  4  5  1  0
  5  6  2  0
  6  7  1  0
  7  8  2  0
  7  9  1  0
  6 10  1  0
 10 11  2  0
 11 12  1  0
 12 13  1  0
 13 14  2  0
 13 15  2  0
 13 16  1  0
 16 17  2  0
 17 18  1  0
 18 19  2  0
 19 20  1  0
 20 21  2  0
 11  3  1  0
 21 16  1  0
  1 22  1  0
  1 23  1  0
  1 24  1  0
  4 25  1  0
  5 26  1  0
 10 27  1  0
 12 28  1  0
 17 29  1  0
 18 30  1  0
 19 31  1  0
 20 32  1  0
 21 33  1  0
M  CHG  2   7   1   9  -1
M  END
>  <UniqueID>  (11) 
10

>  <SMILES>  (11) 
COc1ccc([N+](=O)[O-])cc1NS(=O)(=O)c1ccccc1

>  <Energy>  (11) 
37.543916570721755

>  <Genealogy>  (11) 
COc1ccc([N+](=O)[O-])cc1NS(=O)(=O)c1ccccc1 (3D coordinates assigned)
COc1ccc([N+](=O)[O-])cc1NS(=O)(=O)c1ccccc1 (optimized conformer: 37.543916570721755 kcal/mol)

>  <smiles>  (11) 
COc1ccc([N+](=O)[O-])cc1NS(=O)(=O)c1ccccc1

>  <score_type>  (11) 
oracle

>  <origin>  (11) 
adgpu

>  <m_score__min__energy>  (11) 
-7.9800000000000004

>  <m_primary>  (11) 
energy

$$$$
11:0
     RDKit          3D

 21 22  0  0  0  0  0  0  0  0999 V2000
   -9.0590   19.7140  -32.6040 C   0  0  0  0  0  0  0  0  0  0  0  0
   -8.0830   20.7720  -32.1830 C   0  0  0  0  0  0  0  0  0  0  0  0
   -8.4680   21.7660  -31.2720 C   0  0  0  0  0  0  0  0  0  0  0  0
   -7.5490   22.7310  -30.8490 C   0  0  0  0  0  0  0  0  0  0  0  0
   -6.2230   22.7130  -31.3230 C   0  0  0  0  0  0  0  0  0  0  0  0
   -5.2330   23.7280  -30.8870 C   0  0  0  0  0  0  0  0  0  0  0  0
   -5.3460   25.1040  -30.9800 C   0  0  0  0  0  0  0  0  0  0  0  0
   -4.2380   25.6760  -30.4780 N   0  0  0  0  0  0  0  0  0  0  0  0
   -3.4860   24.6250  -30.0960 C   0  0  0  0  0  0  0  0  0  0  0  0
   -2.3510   24.7570  -29.5690 O   0  0  0  0  0  0  0  0  0  0  0  0
   -4.0480   23.4220  -30.3240 N   0  0  0  0  0  0  0  0  0  0  0  0
   -5.8400   21.7020  -32.2220 C   0  0  0  0  0  0  0  0  0  0  0  0
   -6.7600   20.7370  -32.6430 C   0  0  0  0  0  0  0  0  0  0  0  0
   -9.4950   19.2413  -31.7115 H   0  0  0  0  0  0  0  0  0  0  0  0
   -9.8591   20.1713  -33.2046 H   0  0  0  0  0  0  0  0  0  0  0  0
   -8.5388   18.9533  -33.2046 H   0  0  0  0  0  0  0  0  0  0  0  0
   -9.4986   21.7866  -30.8881 H   0  0  0  0  0  0  0  0  0  0  0  0
   -7.8643   23.5108  -30.1401 H   0  0  0  0  0  0  0  0  0  0  0  0
   -6.2074   25.6449  -31.3990 H   0  0  0  0  0  0  0  0  0  0  0  0
   -4.8066   21.6700  -32.5977 H   0  0  0  0  0  0  0  0  0  0  0  0
   -6.4435   19.9462  -33.3390 H   0  0  0  0  0  0  0  0  0  0  0  0
  1  2  1  0
  2  3  2  0
  3  4  1  0
  4  5  2  0
  5  6  1  0
  6  7  2  0
  7  8  1  0
  8  9  1  0
  9 10  2  0
  9 11  1  0
  5 12  1  0
 12 13  2  0
 13  2  1  0
 11  6  1  0
  1 14  1  0
  1 15  1  0
  1 16  1  0
  3 17  1  0
  4 18  1  0
  7 19  1  0
 12 20  1  0
 13 21  1  0
M  CHG  2   8  -1  11  -1
M  END
>  <UniqueID>  (12) 
11

>  <SMILES>  (12) 
Cc1ccc(-c2c[n-]c(=O)[n-]2)cc1

>  <Energy>  (12) 
50.39563131866117

>  <Genealogy>  (12) 
Cc1ccc(-c2c[n-]c(=O)[n-]2)cc1 (protonated)
Cc1ccc(-c2c[n-]c(=O)[n-]2)cc1 (3D coordinates assigned)
Cc1ccc(-c2c[n-]c(=O)[n-]2)cc1 (optimized conformer: 50.39563131866117 kcal/mol)

>  <smiles>  (12) 
Cc1ccc(-c2c[nH]c(=O)[nH]2)cc1

>  <score_type>  (12) 
oracle

>  <origin>  (12) 
adgpu

>  <m_score__min__energy>  (12) 
-8.5999999999999996

>  <m_primary>  (12) 
energy

$$$$
12:0
     RDKit          3D

 41 43  0  0  0  0  0  0  0  0999 V2000
   -0.0843   22.4915  -30.2296 H   0  0  0  0  0  0  0  0  0  0  0  0
   -1.1470   22.7580  -30.1310 C   0  0  0  0  0  0  0  0  0  0  0  0
   -1.4530   23.8140  -29.3530 C   0  0  0  0  0  0  0  0  0  0  0  0
   -0.3930   24.4350  -28.5980 C   0  0  0  0  0  0  0  0  0  0  0  0
    0.4580   24.9340  -27.9920 N   0  0  0  0  0  0  0  0  0  0  0  0
   -2.8040   24.4160  -29.2710 C   0  0  0  0  0  0  0  0  0  0  0  0
   -3.3250   24.6110  -28.1390 O   0  0  0  0  0  0  0  0  0  0  0  0
   -3.5120   24.7750  -30.4670 N   0  0  0  0  0  0  0  0  0  0  0  0
   -4.8230   24.3480  -30.8620 C   0  0  0  0  0  0  0  0  0  0  0  0
   -5.0310   23.4470  -31.9230 C   0  0  0  0  0  0  0  0  0  0  0  0
   -4.1722   23.0578  -32.4895 H   0  0  0  0  0  0  0  0  0  0  0  0
   -6.3280   23.0460  -32.2580 C   0  0  0  0  0  0  0  0  0  0  0  0
   -6.4876   22.3499  -33.0946 H   0  0  0  0  0  0  0  0  0  0  0  0
   -7.4230   23.5270  -31.5330 C   0  0  0  0  0  0  0  0  0  0  0  0
   -9.0480   23.0200  -31.9540 Cl  0  0  0  0  0  0  0  0  0  0  0  0
   -7.2190   24.4040  -30.4620 C   0  0  0  0  0  0  0  0  0  0  0  0
   -8.0784   24.7774  -29.8857 H   0  0  0  0  0  0  0  0  0  0  0  0
   -5.9230   24.8060  -30.1240 C   0  0  0  0  0  0  0  0  0  0  0  0
   -5.7659   25.4859  -29.2737 H   0  0  0  0  0  0  0  0  0  0  0  0
   -2.1290   21.9290  -30.8630 C   0  0  0  0  0  0  0  0  0  0  0  0
   -2.0530   21.8450  -32.2590 C   0  0  0  0  0  0  0  0  0  0  0  0
   -1.2711   22.3988  -32.7992 H   0  0  0  0  0  0  0  0  0  0  0  0
   -2.9670   21.0600  -32.9690 C   0  0  0  0  0  0  0  0  0  0  0  0
   -2.9156   21.0205  -34.0671 H   0  0  0  0  0  0  0  0  0  0  0  0
   -3.9470   20.3240  -32.2920 C   0  0  0  0  0  0  0  0  0  0  0  0
   -4.8620   19.5700  -33.0430 O   0  0  0  0  0  0  0  0  0  0  0  0
   -6.2160   19.3860  -32.7270 C   0  0  0  0  0  0  0  0  0  0  0  0
   -6.6440   18.3720  -31.8500 C   0  0  0  0  0  0  0  0  0  0  0  0
   -5.9061   17.7047  -31.3807 H   0  0  0  0  0  0  0  0  0  0  0  0
   -8.0050   18.2110  -31.5740 C   0  0  0  0  0  0  0  0  0  0  0  0
   -8.3352   17.4237  -30.8804 H   0  0  0  0  0  0  0  0  0  0  0  0
   -8.9470   19.0490  -32.1780 C   0  0  0  0  0  0  0  0  0  0  0  0
  -10.0170   18.9242  -31.9557 H   0  0  0  0  0  0  0  0  0  0  0  0
   -8.5290   20.0450  -33.0640 C   0  0  0  0  0  0  0  0  0  0  0  0
   -9.2706   20.7015  -33.5425 H   0  0  0  0  0  0  0  0  0  0  0  0
   -7.1680   20.2080  -33.3430 C   0  0  0  0  0  0  0  0  0  0  0  0
   -6.8438   20.9859  -34.0499 H   0  0  0  0  0  0  0  0  0  0  0  0
   -4.0140   20.3960  -30.8900 C   0  0  0  0  0  0  0  0  0  0  0  0
   -4.7903   19.8343  -30.3498 H   0  0  0  0  0  0  0  0  0  0  0  0
   -3.1000   21.1770  -30.1790 C   0  0  0  0  0  0  0  0  0  0  0  0
   -3.1401   21.2037  -29.0801 H   0  0  0  0  0  0  0  0  0  0  0  0
  1  2  1  0
  2  3  2  0
  3  4  1  0
  4  5  3  0
  3  6  1  0
  6  7  2  0
  6  8  1  0
  8  9  1  0
  9 10  2  0
 10 11  1  0
 10 12  1  0
 12 13  1  0
 12 14  2  0
 14 15  1  0
 14 16  1  0
 16 17  1  0
 16 18  2  0
 18 19  1  0
  2 20  1  0
 20 21  2  0
 21 22  1  0
 21 23  1  0
 23 24  1  0
 23 25  2  0
 25 26  1  0
 26 27  1  0
 27 28  2  0
 28 29  1  0
 28 30  1  0
 30 31  1  0
 30 32  2  0
 32 33  1  0
 32 34  1  0
 34 35  1  0
 34 36  2  0
 36 37  1  0
 25 38  1  0
 38 39  1  0
 38 40  2  0
 40 41  1  0
 18  9  1  0
 40 20  1  0
 36 27  1  0
M  CHG  1   8  -1
M  END
>  <UniqueID>  (13) 
12

>  <SMILES>  (13) 
N#C/C(=C/c1ccc(Oc2ccccc2)cc1)C(=O)[N-]c1ccc(Cl)cc1

>  <Energy>  (13) 
60.85665142466036

>  <Genealogy>  (13) 
N#CC(=Cc1ccc(Oc2ccccc2)cc1)C(=O)[N-]c1ccc(Cl)cc1 (protonated)
N#C/C(=C/c1ccc(Oc2ccccc2)cc1)C(=O)[N-]c1ccc(Cl)cc1 (cis-trans isomerization)
N#C/C(=C/c1ccc(Oc2ccccc2)cc1)C(=O)[N-]c1ccc(Cl)cc1 (3D coordinates assigned)
N#C/C(=C/c1ccc(Oc2ccccc2)cc1)C(=O)[N-]c1ccc(Cl)cc1 (optimized conformer: 60.85665142466036 kcal/mol)

>  <smiles>  (13) 
N#CC(=Cc1ccc(Oc2ccccc2)cc1)C(=O)Nc1ccc(Cl)cc1

>  <score_type>  (13) 
oracle

>  <origin>  (13) 
adgpu

>  <m_score__min__energy>  (13) 
-10.56

>  <m_primary>  (13) 
energy

$$$$
13:0
     RDKit          3D

 25 26  0  0  0  0  0  0  0  0999 V2000
   -4.6140   23.9000  -28.4940 C   0  0  0  0  0  0  0  0  0  0  0  0
   -5.3350   24.9510  -29.7340 S   0  0  0  0  0  0  0  0  0  0  0  0
   -4.1870   25.3160  -30.9050 O   0  0  0  0  0  0  0  0  0  0  0  0
   -6.7420   24.1700  -30.4970 C   0  0  0  0  0  0  0  0  0  0  0  0
   -6.2880   23.0450  -31.3650 C   0  0  0  0  0  0  0  0  0  0  0  0
   -6.9210   21.8600  -31.4540 N   0  0  0  0  0  0  0  0  0  0  0  0
   -6.1220   21.1960  -32.3190 C   0  0  0  0  0  0  0  0  0  0  0  0
   -6.3680   19.8110  -32.7700 C   0  0  0  0  0  0  0  0  0  0  0  0
   -5.6690   19.2760  -33.8640 C   0  0  0  0  0  0  0  0  0  0  0  0
   -5.9130   17.9650  -34.2780 C   0  0  0  0  0  0  0  0  0  0  0  0
   -6.8570   17.1970  -33.5950 C   0  0  0  0  0  0  0  0  0  0  0  0
   -7.5280   17.7250  -32.5380 N   0  0  0  0  0  0  0  0  0  0  0  0
   -7.3080   18.9990  -32.1150 C   0  0  0  0  0  0  0  0  0  0  0  0
   -5.0700   21.9410  -32.7190 N   0  0  0  0  0  0  0  0  0  0  0  0
   -5.2090   23.0760  -32.1060 O   0  0  0  0  0  0  0  0  0  0  0  0
   -4.8744   24.2796  -27.4950 H   0  0  0  0  0  0  0  0  0  0  0  0
   -5.0014   22.8770  -28.6100 H   0  0  0  0  0  0  0  0  0  0  0  0
   -3.5202   23.8932  -28.6100 H   0  0  0  0  0  0  0  0  0  0  0  0
   -4.2790   24.5940  -31.5760 H   0  0  0  0  0  0  0  0  0  0  0  0
   -7.4116   23.7809  -29.7158 H   0  0  0  0  0  0  0  0  0  0  0  0
   -7.2779   24.9086  -31.1113 H   0  0  0  0  0  0  0  0  0  0  0  0
   -4.9279   19.8908  -34.3958 H   0  0  0  0  0  0  0  0  0  0  0  0
   -5.3667   17.5419  -35.1338 H   0  0  0  0  0  0  0  0  0  0  0  0
   -7.0581   16.1632  -33.9126 H   0  0  0  0  0  0  0  0  0  0  0  0
   -7.8691   19.3951  -31.2558 H   0  0  0  0  0  0  0  0  0  0  0  0
  1  2  1  0
  2  3  1  6
  2  4  1  0
  4  5  1  0
  5  6  2  0
  6  7  1  0
  7  8  1  0
  8  9  2  0
  9 10  1  0
 10 11  2  0
 11 12  1  0
 12 13  2  0
  7 14  2  0
 14 15  1  0
 15  5  1  0
 13  8  1  0
  1 16  1  0
  1 17  1  0
  1 18  1  0
  3 19  1  0
  4 20  1  0
  4 21  1  0
  9 22  1  0
 10 23  1  0
 11 24  1  0
 13 25  1  0
M  CHG  1   2   1
M  END
>  <UniqueID>  (14) 
13

>  <SMILES>  (14) 
C[S@@+](O)Cc1nc(-c2cccnc2)no1

>  <Energy>  (14) 
51.37297631897479

>  <Genealogy>  (14) 
C[S+](O)Cc1nc(-c2cccnc2)no1 (protonated)
C[S@@+](O)Cc1nc(-c2cccnc2)no1 (chirality)
C[S@@+](O)Cc1nc(-c2cccnc2)no1 (3D coordinates assigned)
C[S@@+](O)Cc1nc(-c2cccnc2)no1 (optimized conformer: 51.37297631897479 kcal/mol)

>  <smiles>  (14) 
C[S+]([O-])Cc1nc(-c2cccnc2)no1

>  <score_type>  (14) 
oracle

>  <origin>  (14) 
adgpu

>  <m_score__min__energy>  (14) 
-6.0099999999999998

>  <m_primary>  (14) 
energy

$$$$
14:0
     RDKit          3D

 40 42  0  0  0  0  0  0  0  0999 V2000
   -1.7120   19.4720  -26.7720 C   0  0  0  0  0  0  0  0  0  0  0  0
   -0.5020   19.3640  -27.3270 C   0  0  0  0  0  0  0  0  0  0  0  0
    0.4070   20.5530  -27.4630 C   0  0  0  0  0  0  0  0  0  0  0  0
    0.3040   21.1240  -28.7670 O   0  0  0  0  0  0  0  0  0  0  0  0
   -0.8210   21.7950  -29.2730 C   0  0  0  0  0  0  0  0  0  0  0  0
   -1.7670   21.0530  -29.9880 C   0  0  0  0  0  0  0  0  0  0  0  0
   -2.9100   21.6670  -30.5020 C   0  0  0  0  0  0  0  0  0  0  0  0
   -3.1300   23.0370  -30.3050 C   0  0  0  0  0  0  0  0  0  0  0  0
   -4.3740   23.6370  -30.8190 C   0  0  0  0  0  0  0  0  0  0  0  0
   -4.6230   24.9600  -30.7850 N   0  0  0  0  0  0  0  0  0  0  0  0
   -5.8030   25.1470  -31.3550 N   0  0  0  0  0  0  0  0  0  0  0  0
   -6.2530   23.9360  -31.7320 C   0  0  0  0  0  0  0  0  0  0  0  0
   -5.3700   22.9590  -31.4320 N   0  0  0  0  0  0  0  0  0  0  0  0
   -5.4340   21.5090  -31.6930 C   0  0  0  0  0  0  0  0  0  0  0  0
   -6.8370   20.9850  -32.0670 C   0  0  0  0  0  0  0  0  0  0  0  0
   -7.9580   21.5200  -31.1600 C   0  0  0  0  0  0  0  0  0  0  0  0
   -8.5270   22.8740  -31.6480 C   0  0  0  0  0  0  0  0  0  0  0  0
   -7.5420   23.7280  -32.4640 C   0  0  0  0  0  0  0  0  0  0  0  0
   -2.1660   23.8020  -29.6160 C   0  0  0  0  0  0  0  0  0  0  0  0
   -2.2950   25.1840  -29.4600 O   0  0  0  0  0  0  0  0  0  0  0  0
   -1.0280   23.1760  -29.0940 C   0  0  0  0  0  0  0  0  0  0  0  0
   -2.3580   18.5860  -26.6844 H   0  0  0  0  0  0  0  0  0  0  0  0
   -2.0626   20.4470  -26.4025 H   0  0  0  0  0  0  0  0  0  0  0  0
   -0.1634   18.3833  -27.6925 H   0  0  0  0  0  0  0  0  0  0  0  0
    0.1259   21.3091  -26.7151 H   0  0  0  0  0  0  0  0  0  0  0  0
    1.4443   20.2235  -27.3036 H   0  0  0  0  0  0  0  0  0  0  0  0
   -1.6086   19.9761  -30.1465 H   0  0  0  0  0  0  0  0  0  0  0  0
   -3.6433   21.0715  -31.0657 H   0  0  0  0  0  0  0  0  0  0  0  0
   -4.7494   21.2791  -32.5228 H   0  0  0  0  0  0  0  0  0  0  0  0
   -5.1552   21.0103  -30.7530 H   0  0  0  0  0  0  0  0  0  0  0  0
   -7.0552   21.2848  -33.1026 H   0  0  0  0  0  0  0  0  0  0  0  0
   -6.8162   19.8923  -31.9424 H   0  0  0  0  0  0  0  0  0  0  0  0
   -8.7743   20.7830  -31.1376 H   0  0  0  0  0  0  0  0  0  0  0  0
   -7.5278   21.6816  -30.1606 H   0  0  0  0  0  0  0  0  0  0  0  0
   -9.4060   22.6696  -32.2770 H   0  0  0  0  0  0  0  0  0  0  0  0
   -8.7669   23.4540  -30.7447 H   0  0  0  0  0  0  0  0  0  0  0  0
   -7.3331   23.2192  -33.4166 H   0  0  0  0  0  0  0  0  0  0  0  0
   -8.0019   24.7124  -32.6360 H   0  0  0  0  0  0  0  0  0  0  0  0
   -3.1220   25.6910  -29.7490 H   0  0  0  0  0  0  0  0  0  0  0  0
   -0.2874   23.7695  -28.5379 H   0  0  0  0  0  0  0  0  0  0  0  0
  1  2  2  0
  2  3  1  0
  3  4  1  0
  4  5  1  0
  5  6  2  0
  6  7  1  0
  7  8  2  0
  8  9  1  0
  9 10  2  0
 10 11  1  0
 11 12  2  0
 12 13  1  0
 13 14  1  0
 14 15  1  0
 15 16  1  0
 16 17  1  0
 17 18  1  0
  8 19  1  0
 19 20  1  0
 19 21  2  0
 21  5  1  0
 13  9  1  0
 18 12  1  0
  1 22  1  0
  1 23  1  0
  2 24  1  0
  3 25  1  0
  3 26  1  0
  6 27  1  0
  7 28  1  0
 14 29  1  0
 14 30  1  0
 15 31  1  0
 15 32  1  0
 16 33  1  0
 16 34  1  0
 17 35  1  0
 17 36  1  0
 18 37  1  0
 18 38  1  0
 20 39  1  0
 21 40  1  0
M  END
>  <UniqueID>  (15) 
14

>  <SMILES>  (15) 
C=CCOc1ccc(-c2nnc3n2CCCCC3)c(O)c1

>  <Energy>  (15) 
84.27905881322245

>  <Genealogy>  (15) 
C=CCOc1ccc(-c2nnc3n2CCCCC3)c(O)c1 (3D coordinates assigned)
C=CCOc1ccc(-c2nnc3n2CCCCC3)c(O)c1 (nonaromatic ring conformer: 84.27905881322245 kcal/mol)

>  <smiles>  (15) 
C=CCOc1ccc(-c2nnc3n2CCCCC3)c(O)c1

>  <score_type>  (15) 
oracle

>  <origin>  (15) 
adgpu

>  <m_score__min__energy>  (15) 
-6.21

>  <m_primary>  (15) 
energy

$$$$
15:0
     RDKit          3D

 35 37  0  0  0  0  0  0  0  0999 V2000
   -2.2470   19.5550  -33.4860 C   0  0  0  0  0  0  0  0  0  0  0  0
   -2.9030   20.6830  -32.7440 C   0  0  0  0  0  0  0  0  0  0  0  0
   -3.7360   21.5870  -33.4210 C   0  0  0  0  0  0  0  0  0  0  0  0
   -4.3820   22.6100  -32.7200 C   0  0  0  0  0  0  0  0  0  0  0  0
   -4.2160   22.7320  -31.3350 C   0  0  0  0  0  0  0  0  0  0  0  0
   -5.1090   23.9680  -30.4500 S   0  0  0  0  0  0  0  0  0  0  0  0
   -4.6000   25.3200  -30.8650 O   0  0  0  0  0  0  0  0  0  0  0  0
   -4.9110   23.8010  -28.9700 O   0  0  0  0  0  0  0  0  0  0  0  0
   -6.8040   23.8610  -30.8060 N   0  0  0  0  0  0  0  0  0  0  0  0
   -7.3680   22.7940  -31.2800 C   0  0  0  0  0  0  0  0  0  0  0  0
   -6.7010   21.6570  -31.5720 N   0  0  0  0  0  0  0  0  0  0  0  0
   -7.5190   20.7050  -32.0980 C   0  0  0  0  0  0  0  0  0  0  0  0
   -6.9820   19.3930  -32.5430 C   0  0  0  0  0  0  0  0  0  0  0  0
   -6.9760   18.3030  -31.6510 C   0  0  0  0  0  0  0  0  0  0  0  0
   -6.4630   17.0640  -32.0440 C   0  0  0  0  0  0  0  0  0  0  0  0
   -5.9540   16.8940  -33.3320 C   0  0  0  0  0  0  0  0  0  0  0  0
   -5.9600   17.9620  -34.2310 C   0  0  0  0  0  0  0  0  0  0  0  0
   -6.4690   19.2050  -33.8430 C   0  0  0  0  0  0  0  0  0  0  0  0
   -8.8580   21.0980  -32.2140 C   0  0  0  0  0  0  0  0  0  0  0  0
   -8.9980   22.6790  -31.6480 S   0  0  0  0  0  0  0  0  0  0  0  0
   -3.3830   21.8320  -30.6570 C   0  0  0  0  0  0  0  0  0  0  0  0
   -2.7330   20.8100  -31.3550 C   0  0  0  0  0  0  0  0  0  0  0  0
   -1.9500   19.9340  -30.6750 F   0  0  0  0  0  0  0  0  0  0  0  0
   -1.8290   18.8363  -32.7657 H   0  0  0  0  0  0  0  0  0  0  0  0
   -2.9920   19.0495  -34.1180 H   0  0  0  0  0  0  0  0  0  0  0  0
   -1.4392   19.9526  -34.1180 H   0  0  0  0  0  0  0  0  0  0  0  0
   -3.8813   21.4905  -34.5071 H   0  0  0  0  0  0  0  0  0  0  0  0
   -5.0237   23.3224  -33.2592 H   0  0  0  0  0  0  0  0  0  0  0  0
   -7.3790   18.4282  -30.6352 H   0  0  0  0  0  0  0  0  0  0  0  0
   -6.4604   16.2214  -31.3369 H   0  0  0  0  0  0  0  0  0  0  0  0
   -5.5481   15.9188  -33.6389 H   0  0  0  0  0  0  0  0  0  0  0  0
   -5.5631   17.8252  -35.2477 H   0  0  0  0  0  0  0  0  0  0  0  0
   -6.4693   20.0420  -34.5567 H   0  0  0  0  0  0  0  0  0  0  0  0
   -9.6785   20.4800  -32.6075 H   0  0  0  0  0  0  0  0  0  0  0  0
   -3.2399   21.9301  -29.5708 H   0  0  0  0  0  0  0  0  0  0  0  0
  1  2  1  0
  2  3  2  0
  3  4  1  0
  4  5  2  0
  5  6  1  0
  6  7  2  0
  6  8  2  0
  6  9  1  0
  9 10  2  3
 10 11  1  0
 11 12  1  0
 12 13  1  0
 13 14  2  0
 14 15  1  0
 15 16  2  0
 16 17  1  0
 17 18  2  0
 12 19  2  0
 19 20  1  0
  5 21  1  0
 21 22  2  0
 22 23  1  0
 22  2  1  0
 20 10  1  0
 18 13  1  0
  1 24  1  0
  1 25  1  0
  1 26  1  0
  3 27  1  0
  4 28  1  0
 14 29  1  0
 15 30  1  0
 16 31  1  0
 17 32  1  0
 18 33  1  0
 19 34  1  0
 21 35  1  0
M  CHG  1  11  -1
M  END
>  <UniqueID>  (16) 
15

>  <SMILES>  (16) 
Cc1ccc(S(=O)(=O)N=c2[n-]c(-c3ccccc3)cs2)cc1F

>  <Energy>  (16) 
70.6571609902184

>  <Genealogy>  (16) 
Cc1ccc(S(=O)(=O)N=c2[n-]c(-c3ccccc3)cs2)cc1F (protonated)
Cc1ccc(S(=O)(=O)N=c2[n-]c(-c3ccccc3)cs2)cc1F (3D coordinates assigned)
Cc1ccc(S(=O)(=O)N=c2[n-]c(-c3ccccc3)cs2)cc1F (optimized conformer: 70.6571609902184 kcal/mol)

>  <smiles>  (16) 
Cc1ccc(S(=O)(=O)N=c2[nH]c(-c3ccccc3)cs2)cc1F

>  <score_type>  (16) 
oracle

>  <origin>  (16) 
adgpu

>  <m_score__min__energy>  (16) 
-9.5999999999999996

>  <m_primary>  (16) 
energy

$$$$
16:0
     RDKit          3D

 26 28  0  0  0  0  0  0  0  0999 V2000
   -7.7753   16.0290  -32.8405 H   0  0  0  0  0  0  0  0  0  0  0  0
   -7.2430   16.9720  -33.0340 C   0  0  0  0  0  0  0  0  0  0  0  0
   -7.8480   18.1900  -32.7150 C   0  0  0  0  0  0  0  0  0  0  0  0
   -8.8627   18.2025  -32.2905 H   0  0  0  0  0  0  0  0  0  0  0  0
   -7.1690   19.3950  -32.9330 C   0  0  0  0  0  0  0  0  0  0  0  0
   -7.8340   20.6320  -32.6410 N   0  0  0  0  0  0  0  0  0  0  0  0
   -7.3430   21.6310  -31.9660 C   0  0  0  0  0  0  0  0  0  0  0  0
   -8.1700   23.0910  -31.7530 S   0  0  0  0  0  0  0  0  0  0  0  0
   -6.9400   23.7290  -30.8010 C   0  0  0  0  0  0  0  0  0  0  0  0
   -6.8710   24.9810  -30.1950 C   0  0  0  0  0  0  0  0  0  0  0  0
   -7.6833   25.7130  -30.3147 H   0  0  0  0  0  0  0  0  0  0  0  0
   -5.7350   25.2820  -29.4270 C   0  0  0  0  0  0  0  0  0  0  0  0
   -5.6500   26.2636  -28.9379 H   0  0  0  0  0  0  0  0  0  0  0  0
   -4.7030   24.3340  -29.2790 C   0  0  0  0  0  0  0  0  0  0  0  0
   -3.8175   24.5807  -28.6749 H   0  0  0  0  0  0  0  0  0  0  0  0
   -4.7970   23.0750  -29.8980 C   0  0  0  0  0  0  0  0  0  0  0  0
   -3.9947   22.3315  -29.7817 H   0  0  0  0  0  0  0  0  0  0  0  0
   -5.9300   22.7870  -30.6640 C   0  0  0  0  0  0  0  0  0  0  0  0
   -6.1520   21.6130  -31.3080 N   0  0  0  0  0  0  0  0  0  0  0  0
   -5.5020   20.7980  -31.2540 H   0  0  0  0  0  0  0  0  0  0  0  0
   -5.8980   19.3710  -33.5330 C   0  0  0  0  0  0  0  0  0  0  0  0
   -5.3789   20.3159  -33.7515 H   0  0  0  0  0  0  0  0  0  0  0  0
   -5.2890   18.1530  -33.8540 C   0  0  0  0  0  0  0  0  0  0  0  0
   -3.6900   18.1670  -34.5880 Cl  0  0  0  0  0  0  0  0  0  0  0  0
   -5.9620   16.9460  -33.5990 C   0  0  0  0  0  0  0  0  0  0  0  0
   -5.2330   15.3940  -33.9880 Cl  0  0  0  0  0  0  0  0  0  0  0  0
  1  2  1  0
  2  3  2  0
  3  4  1  0
  3  5  1  0
  5  6  1  0
  6  7  2  0
  7  8  1  0
  8  9  1  0
  9 10  2  0
 10 11  1  0
 10 12  1  0
 12 13  1  0
 12 14  2  0
 14 15  1  0
 14 16  1  0
 16 17  1  0
 16 18  2  0
 18 19  1  0
 19 20  1  0
  5 21  2  0
 21 22  1  0
 21 23  1  0
 23 24  1  0
 23 25  2  0
 25 26  1  0
 25  2  1  0
 19  7  1  0
 18  9  1  0
M  END
>  <UniqueID>  (17) 
16

>  <SMILES>  (17) 
Clc1ccc(/N=c2\[nH]c3ccccc3s2)cc1Cl

>  <Energy>  (17) 
71.7251825610324

>  <Genealogy>  (17) 
Clc1ccc(/N=c2\[nH]c3ccccc3s2)cc1Cl (cis-trans isomerization)
Clc1ccc(/N=c2\[nH]c3ccccc3s2)cc1Cl (3D coordinates assigned)
Clc1ccc(/N=c2\[nH]c3ccccc3s2)cc1Cl (optimized conformer: 71.7251825610324 kcal/mol)

>  <smiles>  (17) 
Clc1ccc(N=c2[nH]c3ccccc3s2)cc1Cl

>  <score_type>  (17) 
oracle

>  <origin>  (17) 
adgpu

>  <m_score__min__energy>  (17) 
-7.2000000000000002

>  <m_primary>  (17) 
energy

$$$$
17:0
     RDKit          3D

 24 25  0  0  0  0  0  0  0  0999 V2000
   -6.5790   24.6110  -29.9340 O   0  0  0  0  0  0  0  0  0  0  0  0
   -5.4320   24.1240  -30.7740 S   0  0  0  0  0  0  0  0  0  0  0  0
   -4.6060   25.3000  -31.2110 O   0  0  0  0  0  0  0  0  0  0  0  0
   -6.0520   23.3040  -32.1740 N   0  0  0  0  0  0  0  0  0  0  0  0
   -7.0710   22.2890  -32.1250 C   0  0  0  0  0  0  0  0  0  0  0  0
   -8.3820   22.6530  -31.7770 C   0  0  0  0  0  0  0  0  0  0  0  0
   -9.3930   21.6910  -31.7130 C   0  0  0  0  0  0  0  0  0  0  0  0
   -9.1070   20.3540  -31.9990 C   0  0  0  0  0  0  0  0  0  0  0  0
   -7.8080   19.9780  -32.3530 C   0  0  0  0  0  0  0  0  0  0  0  0
   -7.4500   18.2990  -32.7160 Cl  0  0  0  0  0  0  0  0  0  0  0  0
   -6.7940   20.9400  -32.4200 C   0  0  0  0  0  0  0  0  0  0  0  0
   -4.4610   23.0200  -29.8180 C   0  0  0  0  0  0  0  0  0  0  0  0
   -4.2430   23.1120  -28.4520 C   0  0  0  0  0  0  0  0  0  0  0  0
   -3.4460   22.0730  -27.9570 C   0  0  0  0  0  0  0  0  0  0  0  0
   -3.0410   21.1690  -28.9310 C   0  0  0  0  0  0  0  0  0  0  0  0
   -3.6760   21.6590  -30.4110 S   0  0  0  0  0  0  0  0  0  0  0  0
   -5.7070   23.6330  -33.1030 H   0  0  0  0  0  0  0  0  0  0  0  0
   -8.6148   23.7045  -31.5529 H   0  0  0  0  0  0  0  0  0  0  0  0
  -10.4159   21.9869  -31.4370 H   0  0  0  0  0  0  0  0  0  0  0  0
   -9.9036   19.5973  -31.9457 H   0  0  0  0  0  0  0  0  0  0  0  0
   -5.7745   20.6408  -32.7048 H   0  0  0  0  0  0  0  0  0  0  0  0
   -4.6529   23.9164  -27.8235 H   0  0  0  0  0  0  0  0  0  0  0  0
   -3.1668   21.9811  -26.8970 H   0  0  0  0  0  0  0  0  0  0  0  0
   -2.4116   20.2826  -28.7634 H   0  0  0  0  0  0  0  0  0  0  0  0
  1  2  2  0
  2  3  2  0
  2  4  1  0
  4  5  1  0
  5  6  2  0
  6  7  1  0
  7  8  2  0
  8  9  1  0
  9 10  1  0
  9 11  2  0
  2 12  1  0
 12 13  2  0
 13 14  1  0
 14 15  2  0
 15 16  1  0
 11  5  1  0
 16 12  1  0
  4 17  1  0
  6 18  1  0
  7 19  1  0
  8 20  1  0
 11 21  1  0
 13 22  1  0
 14 23  1  0
 15 24  1  0
M  END
>  <UniqueID>  (18) 
17

>  <SMILES>  (18) 
O=S(=O)(Nc1cccc(Cl)c1)c1cccs1

>  <Energy>  (18) 
52.9177704864094

>  <Genealogy>  (18) 
O=S(=O)(Nc1cccc(Cl)c1)c1cccs1 (3D coordinates assigned)
O=S(=O)(Nc1cccc(Cl)c1)c1cccs1 (optimized conformer: 52.9177704864094 kcal/mol)

>  <smiles>  (18) 
O=S(=O)(Nc1cccc(Cl)c1)c1cccs1

>  <score_type>  (18) 
oracle

>  <origin>  (18) 
adgpu

>  <m_score__min__energy>  (18) 
-7.3300000000000001

>  <m_primary>  (18) 
energy

$$$$
18:0
     RDKit          3D

 31 33  0  0  0  0  0  0  0  0999 V2000
   -5.3600   25.7240  -30.4670 C   0  0  0  0  0  0  0  0  0  0  0  0
   -4.0000   25.3040  -30.5180 O   0  0  0  0  0  0  0  0  0  0  0  0
   -3.5740   23.9650  -30.5200 C   0  0  0  0  0  0  0  0  0  0  0  0
   -4.0520   23.0450  -31.4760 C   0  0  0  0  0  0  0  0  0  0  0  0
   -3.6180   21.7190  -31.4640 C   0  0  0  0  0  0  0  0  0  0  0  0
   -2.7050   21.2910  -30.5030 C   0  0  0  0  0  0  0  0  0  0  0  0
   -2.2210   22.1870  -29.5490 C   0  0  0  0  0  0  0  0  0  0  0  0
   -2.6460   23.5290  -29.5440 C   0  0  0  0  0  0  0  0  0  0  0  0
   -2.1130   24.4570  -28.5170 C   0  0  0  0  0  0  0  0  0  0  0  0
   -2.2210   24.2300  -27.1780 N   0  0  0  0  0  0  0  0  0  0  0  0
   -1.6130   25.3080  -26.6560 C   0  0  0  0  0  0  0  0  0  0  0  0
   -1.4190   25.6150  -25.3120 C   0  0  0  0  0  0  0  0  0  0  0  0
   -0.7500   26.8210  -25.0000 C   0  0  0  0  0  0  0  0  0  0  0  0
   -0.4790   27.1820  -23.5710 C   0  0  0  0  0  0  0  0  0  0  0  0
   -0.2790   27.6570  -26.0480 C   0  0  0  0  0  0  0  0  0  0  0  0
   -0.4960   27.3110  -27.3940 C   0  0  0  0  0  0  0  0  0  0  0  0
   -1.1700   26.1210  -27.6510 C   0  0  0  0  0  0  0  0  0  0  0  0
   -1.4840   25.5880  -28.7990 O   0  0  0  0  0  0  0  0  0  0  0  0
   -5.6746   25.8212  -29.4174 H   0  0  0  0  0  0  0  0  0  0  0  0
   -5.4628   26.6958  -30.9721 H   0  0  0  0  0  0  0  0  0  0  0  0
   -5.9929   24.9794  -30.9721 H   0  0  0  0  0  0  0  0  0  0  0  0
   -4.7733   23.3757  -32.2378 H   0  0  0  0  0  0  0  0  0  0  0  0
   -3.9975   21.0103  -32.2148 H   0  0  0  0  0  0  0  0  0  0  0  0
   -2.3650   20.2449  -30.4961 H   0  0  0  0  0  0  0  0  0  0  0  0
   -1.5002   21.8412  -28.7934 H   0  0  0  0  0  0  0  0  0  0  0  0
   -1.7746   24.9412  -24.5186 H   0  0  0  0  0  0  0  0  0  0  0  0
   -1.0064   26.4794  -22.9090 H   0  0  0  0  0  0  0  0  0  0  0  0
    0.6024   27.1266  -23.3776 H   0  0  0  0  0  0  0  0  0  0  0  0
   -0.8341   28.2050  -23.3776 H   0  0  0  0  0  0  0  0  0  0  0  0
    0.2607   28.5840  -25.8043 H   0  0  0  0  0  0  0  0  0  0  0  0
   -0.1460   27.9569  -28.2128 H   0  0  0  0  0  0  0  0  0  0  0  0
  1  2  1  0
  2  3  1  0
  3  4  2  0
  4  5  1  0
  5  6  2  0
  6  7  1  0
  7  8  2  0
  8  9  1  0
  9 10  2  0
 10 11  1  0
 11 12  2  0
 12 13  1  0
 13 14  1  0
 13 15  2  0
 15 16  1  0
 16 17  2  0
 17 18  1  0
  8  3  1  0
 18  9  1  0
 17 11  1  0
  1 19  1  0
  1 20  1  0
  1 21  1  0
  4 22  1  0
  5 23  1  0
  6 24  1  0
  7 25  1  0
 12 26  1  0
 14 27  1  0
 14 28  1  0
 14 29  1  0
 15 30  1  0
 16 31  1  0
M  END
>  <UniqueID>  (19) 
18

>  <SMILES>  (19) 
COc1ccccc1-c1nc2cc(C)ccc2o1

>  <Energy>  (19) 
71.0257454406874

>  <Genealogy>  (19) 
COc1ccccc1-c1nc2cc(C)ccc2o1 (3D coordinates assigned)
COc1ccccc1-c1nc2cc(C)ccc2o1 (optimized conformer: 71.0257454406874 kcal/mol)

>  <smiles>  (19) 
COc1ccccc1-c1nc2cc(C)ccc2o1

>  <score_type>  (19) 
oracle

>  <origin>  (19) 
adgpu

>  <m_score__min__energy>  (19) 
-7.04

>  <m_primary>  (19) 
energy

$$$$
19:0
     RDKit          3D

 50 52  0  0  0  0  0  0  0  0999 V2000
   -6.4970   25.6820  -29.4360 C   0  0  0  0  0  0  0  0  0  0  0  0
   -5.9500   24.6760  -30.1280 C   0  0  0  0  0  0  0  0  0  0  0  0
   -4.5720   24.4400  -30.0700 C   0  0  0  0  0  0  0  0  0  0  0  0
   -4.0000   23.3900  -30.7930 C   0  0  0  0  0  0  0  0  0  0  0  0
   -4.7890   22.5300  -31.6010 C   0  0  0  0  0  0  0  0  0  0  0  0
   -4.2330   21.4940  -32.3140 C   0  0  0  0  0  0  0  0  0  0  0  0
   -2.8710   21.5120  -32.6750 C   0  0  0  0  0  0  0  0  0  0  0  0
   -2.3150   20.4730  -33.4160 C   0  0  0  0  0  0  0  0  0  0  0  0
   -0.8790   20.5470  -33.7930 C   0  0  0  0  0  0  0  0  0  0  0  0
    0.1050   19.9660  -32.9800 C   0  0  0  0  0  0  0  0  0  0  0  0
    1.4530   20.0280  -33.3430 C   0  0  0  0  0  0  0  0  0  0  0  0
    1.8530   20.6690  -34.5340 C   0  0  0  0  0  0  0  0  0  0  0  0
    3.2530   20.7340  -34.9120 N   0  0  0  0  0  0  0  0  0  0  0  0
    3.7670   21.8770  -35.6790 C   0  0  0  0  0  0  0  0  0  0  0  0
    4.1790   19.6600  -34.5330 C   0  0  0  0  0  0  0  0  0  0  0  0
    0.8550   21.2430  -35.3490 C   0  0  0  0  0  0  0  0  0  0  0  0
   -0.4930   21.1790  -34.9830 C   0  0  0  0  0  0  0  0  0  0  0  0
   -3.1180   19.3880  -33.8020 C   0  0  0  0  0  0  0  0  0  0  0  0
   -2.5770   18.4450  -34.4420 O   0  0  0  0  0  0  0  0  0  0  0  0
   -4.5010   19.3620  -33.4520 C   0  0  0  0  0  0  0  0  0  0  0  0
   -5.3470   18.3370  -33.8270 C   0  0  0  0  0  0  0  0  0  0  0  0
   -4.8950   17.1380  -34.6380 C   0  0  0  0  0  0  0  0  0  0  0  0
   -6.8200   18.3600  -33.4650 C   0  0  0  0  0  0  0  0  0  0  0  0
   -4.9880   20.4120  -32.7030 N   0  0  0  0  0  0  0  0  0  0  0  0
   -6.1830   22.7930  -31.6460 C   0  0  0  0  0  0  0  0  0  0  0  0
   -6.7500   23.8450  -30.9220 C   0  0  0  0  0  0  0  0  0  0  0  0
   -7.5813   25.8596  -29.4880 H   0  0  0  0  0  0  0  0  0  0  0  0
   -5.8624   26.3314  -28.8151 H   0  0  0  0  0  0  0  0  0  0  0  0
   -3.9336   25.0866  -29.4500 H   0  0  0  0  0  0  0  0  0  0  0  0
   -2.9138   23.2261  -30.7347 H   0  0  0  0  0  0  0  0  0  0  0  0
   -2.2390   22.3581  -32.3673 H   0  0  0  0  0  0  0  0  0  0  0  0
   -0.1866   19.4575  -32.0492 H   0  0  0  0  0  0  0  0  0  0  0  0
    2.2122   19.5709  -32.6913 H   0  0  0  0  0  0  0  0  0  0  0  0
    4.1173   22.6560  -34.9858 H   0  0  0  0  0  0  0  0  0  0  0  0
    4.6034   21.5470  -36.3127 H   0  0  0  0  0  0  0  0  0  0  0  0
    2.9651   22.2837  -36.3127 H   0  0  0  0  0  0  0  0  0  0  0  0
    4.2355   19.5945  -33.4364 H   0  0  0  0  0  0  0  0  0  0  0  0
    3.8175   18.7038  -34.9393 H   0  0  0  0  0  0  0  0  0  0  0  0
    5.1780   19.8768  -34.9393 H   0  0  0  0  0  0  0  0  0  0  0  0
    1.1407   21.7472  -36.2840 H   0  0  0  0  0  0  0  0  0  0  0  0
   -1.2569   21.6284  -35.6345 H   0  0  0  0  0  0  0  0  0  0  0  0
   -4.5901   16.3291  -33.9578 H   0  0  0  0  0  0  0  0  0  0  0  0
   -5.7239   16.7908  -35.2723 H   0  0  0  0  0  0  0  0  0  0  0  0
   -4.0431   17.4244  -35.2723 H   0  0  0  0  0  0  0  0  0  0  0  0
   -6.9286   18.3617  -32.3704 H   0  0  0  0  0  0  0  0  0  0  0  0
   -7.2857   19.2655  -33.8811 H   0  0  0  0  0  0  0  0  0  0  0  0
   -7.3138   17.4695  -33.8811 H   0  0  0  0  0  0  0  0  0  0  0  0
   -5.9540   20.3470  -32.3270 H   0  0  0  0  0  0  0  0  0  0  0  0
   -6.8312   22.1547  -32.2644 H   0  0  0  0  0  0  0  0  0  0  0  0
   -7.8343   24.0220  -30.9762 H   0  0  0  0  0  0  0  0  0  0  0  0
  1  2  2  0
  2  3  1  0
  3  4  2  0
  4  5  1  0
  5  6  2  3
  6  7  1  0
  7  8  2  0
  8  9  1  0
  9 10  2  0
 10 11  1  0
 11 12  2  0
 12 13  1  0
 13 14  1  0
 13 15  1  0
 12 16  1  0
 16 17  2  0
  8 18  1  0
 18 19  2  0
 18 20  1  0
 20 21  2  3
 21 22  1  0
 21 23  1  0
 20 24  1  0
  5 25  1  0
 25 26  2  0
 26  2  1  0
 24  6  1  0
 17  9  1  0
  1 27  1  0
  1 28  1  0
  3 29  1  0
  4 30  1  0
  7 31  1  0
 10 32  1  0
 11 33  1  0
 14 34  1  0
 14 35  1  0
 14 36  1  0
 15 37  1  0
 15 38  1  0
 15 39  1  0
 16 40  1  0
 17 41  1  0
 22 42  1  0
 22 43  1  0
 22 44  1  0
 23 45  1  0
 23 46  1  0
 23 47  1  0
 24 48  1  0
 25 49  1  0
 26 50  1  0
M  END
>  <UniqueID>  (20) 
19

>  <SMILES>  (20) 
C=c1ccc(=c2cc(-c3ccc(N(C)C)cc3)c(=O)c(=C(C)C)[nH]2)cc1

>  <Energy>  (20) 
88.79615075594602

>  <Genealogy>  (20) 
C=c1ccc(=c2cc(-c3ccc(N(C)C)cc3)c(=O)c(=C(C)C)[nH]2)cc1 (3D coordinates assigned)
C=c1ccc(=c2cc(-c3ccc(N(C)C)cc3)c(=O)c(=C(C)C)[nH]2)cc1 (optimized conformer: 88.79615075594602 kcal/mol)

>  <smiles>  (20) 
C=c1ccc(=c2cc(-c3ccc(N(C)C)cc3)c(=O)c(=C(C)C)[nH]2)cc1

>  <score_type>  (20) 
oracle

>  <origin>  (20) 
adgpu

>  <m_score__min__energy>  (20) 
-8.1699999999999999

>  <m_primary>  (20) 
energy

$$$$
20:0
     RDKit          3D

 34 36  0  0  0  0  0  0  0  0999 V2000
    0.9480   21.8690  -35.2400 C   0  0  0  0  0  0  0  0  0  0  0  0
   -0.0980   20.9870  -34.6220 C   0  0  0  0  0  0  0  0  0  0  0  0
   -0.0970   19.6080  -34.8760 C   0  0  0  0  0  0  0  0  0  0  0  0
   -1.0960   18.7950  -34.3400 C   0  0  0  0  0  0  0  0  0  0  0  0
   -2.1100   19.3510  -33.5550 C   0  0  0  0  0  0  0  0  0  0  0  0
   -2.1330   20.7330  -33.2950 C   0  0  0  0  0  0  0  0  0  0  0  0
   -3.2210   21.3190  -32.4740 C   0  0  0  0  0  0  0  0  0  0  0  0
   -3.1120   21.3370  -31.2170 O   0  0  0  0  0  0  0  0  0  0  0  0
   -4.3800   21.8990  -33.0940 N   0  0  0  0  0  0  0  0  0  0  0  0
   -5.5880   22.1910  -32.3720 C   0  0  0  0  0  0  0  0  0  0  0  0
   -6.6870   21.3300  -32.5060 C   0  0  0  0  0  0  0  0  0  0  0  0
   -7.8780   21.5810  -31.8180 C   0  0  0  0  0  0  0  0  0  0  0  0
   -7.9820   22.6870  -30.9720 C   0  0  0  0  0  0  0  0  0  0  0  0
   -6.8860   23.5430  -30.7990 C   0  0  0  0  0  0  0  0  0  0  0  0
   -6.9570   24.6400  -29.9310 C   0  0  0  0  0  0  0  0  0  0  0  0
   -5.8420   25.4590  -29.7530 C   0  0  0  0  0  0  0  0  0  0  0  0
   -4.6630   25.1720  -30.4420 C   0  0  0  0  0  0  0  0  0  0  0  0
   -4.6060   24.1070  -31.2850 N   0  0  0  0  0  0  0  0  0  0  0  0
   -5.6780   23.2940  -31.4940 C   0  0  0  0  0  0  0  0  0  0  0  0
   -1.1260   21.5470  -33.8480 C   0  0  0  0  0  0  0  0  0  0  0  0
    1.5298   22.3596  -34.4458 H   0  0  0  0  0  0  0  0  0  0  0  0
    1.6193   21.2602  -35.8635 H   0  0  0  0  0  0  0  0  0  0  0  0
    0.4613   22.6334  -35.8635 H   0  0  0  0  0  0  0  0  0  0  0  0
    0.6939   19.1659  -35.4998 H   0  0  0  0  0  0  0  0  0  0  0  0
   -1.0856   17.7126  -34.5359 H   0  0  0  0  0  0  0  0  0  0  0  0
   -2.8952   18.7034  -33.1378 H   0  0  0  0  0  0  0  0  0  0  0  0
   -4.2790   22.3020  -34.0530 H   0  0  0  0  0  0  0  0  0  0  0  0
   -6.6111   20.4481  -33.1591 H   0  0  0  0  0  0  0  0  0  0  0  0
   -8.7363   20.9046  -31.9436 H   0  0  0  0  0  0  0  0  0  0  0  0
   -8.9246   22.8864  -30.4411 H   0  0  0  0  0  0  0  0  0  0  0  0
   -7.8906   24.8553  -29.3906 H   0  0  0  0  0  0  0  0  0  0  0  0
   -5.8917   26.3239  -29.0751 H   0  0  0  0  0  0  0  0  0  0  0  0
   -3.7773   25.8092  -30.3026 H   0  0  0  0  0  0  0  0  0  0  0  0
   -1.1452   22.6326  -33.6716 H   0  0  0  0  0  0  0  0  0  0  0  0
  1  2  1  0
  2  3  2  0
  3  4  1  0
  4  5  2  0
  5  6  1  0
  6  7  1  0
  7  8  2  0
  7  9  1  0
  9 10  1  0
 10 11  2  0
 11 12  1  0
 12 13  2  0
 13 14  1  0
 14 15  2  0
 15 16  1  0
 16 17  2  0
 17 18  1  0
 18 19  2  0
  6 20  2  0
 20  2  1  0
 19 10  1  0
 19 14  1  0
  1 21  1  0
  1 22  1  0
  1 23  1  0
  3 24  1  0
  4 25  1  0
  5 26  1  0
  9 27  1  0
 11 28  1  0
 12 29  1  0
 13 30  1  0
 15 31  1  0
 16 32  1  0
 17 33  1  0
 20 34  1  0
M  END
>  <UniqueID>  (21) 
20

>  <SMILES>  (21) 
Cc1cccc(C(=O)Nc2cccc3cccnc23)c1

>  <Energy>  (21) 
46.48313082885773

>  <Genealogy>  (21) 
Cc1cccc(C(=O)Nc2cccc3cccnc23)c1 (3D coordinates assigned)
Cc1cccc(C(=O)Nc2cccc3cccnc23)c1 (optimized conformer: 46.48313082885773 kcal/mol)

>  <smiles>  (21) 
Cc1cccc(C(=O)Nc2cccc3cccnc23)c1

>  <score_type>  (21) 
oracle

>  <origin>  (21) 
adgpu

>  <m_score__min__energy>  (21) 
-7.79

>  <m_primary>  (21) 
energy

$$$$
21:0
     RDKit          3D

 31 32  0  0  0  0  0  0  0  0999 V2000
    0.1330   24.3860  -24.6520 C   0  0  0  0  0  0  0  0  0  0  0  0
   -0.5750   23.3730  -25.5020 C   0  0  0  0  0  0  0  0  0  0  0  0
   -0.5520   22.1660  -25.1370 O   0  0  0  0  0  0  0  0  0  0  0  0
   -1.2920   23.7540  -26.7480 C   0  0  0  0  0  0  0  0  0  0  0  0
   -2.3310   22.9420  -27.2380 C   0  0  0  0  0  0  0  0  0  0  0  0
   -3.0160   23.2900  -28.4040 C   0  0  0  0  0  0  0  0  0  0  0  0
   -2.6930   24.4580  -29.1000 C   0  0  0  0  0  0  0  0  0  0  0  0
   -3.4220   24.7620  -30.2610 O   0  0  0  0  0  0  0  0  0  0  0  0
   -4.6310   24.1620  -30.6360 C   0  0  0  0  0  0  0  0  0  0  0  0
   -5.8260   24.8070  -30.3000 C   0  0  0  0  0  0  0  0  0  0  0  0
   -7.0570   24.2450  -30.6450 C   0  0  0  0  0  0  0  0  0  0  0  0
   -7.1120   23.0410  -31.3670 C   0  0  0  0  0  0  0  0  0  0  0  0
   -8.4410   22.4070  -31.6970 C   0  0  0  0  0  0  0  0  0  0  0  0
   -9.2500   23.3430  -32.3120 F   0  0  0  0  0  0  0  0  0  0  0  0
   -9.0650   21.9560  -30.5470 F   0  0  0  0  0  0  0  0  0  0  0  0
   -8.2720   21.3280  -32.5470 F   0  0  0  0  0  0  0  0  0  0  0  0
   -5.9120   22.3940  -31.7060 C   0  0  0  0  0  0  0  0  0  0  0  0
   -4.6760   22.9540  -31.3620 C   0  0  0  0  0  0  0  0  0  0  0  0
   -3.2100   22.1520  -31.9120 Cl  0  0  0  0  0  0  0  0  0  0  0  0
   -1.6340   25.2650  -28.6340 C   0  0  0  0  0  0  0  0  0  0  0  0
   -1.2350   26.3980  -29.3350 O   0  0  0  0  0  0  0  0  0  0  0  0
   -0.9500   24.9170  -27.4640 C   0  0  0  0  0  0  0  0  0  0  0  0
   -0.0306   24.1519  -23.5897 H   0  0  0  0  0  0  0  0  0  0  0  0
    1.2106   24.3600  -24.8715 H   0  0  0  0  0  0  0  0  0  0  0  0
   -0.2618   25.3890  -24.8715 H   0  0  0  0  0  0  0  0  0  0  0  0
   -2.6064   22.0243  -26.6976 H   0  0  0  0  0  0  0  0  0  0  0  0
   -3.8185   22.6377  -28.7787 H   0  0  0  0  0  0  0  0  0  0  0  0
   -5.7958   25.7647  -29.7596 H   0  0  0  0  0  0  0  0  0  0  0  0
   -7.9895   24.7482  -30.3496 H   0  0  0  0  0  0  0  0  0  0  0  0
   -5.9440   21.4371  -32.2476 H   0  0  0  0  0  0  0  0  0  0  0  0
   -0.1353   25.5598  -27.0992 H   0  0  0  0  0  0  0  0  0  0  0  0
  1  2  1  0
  2  3  2  0
  2  4  1  0
  4  5  2  0
  5  6  1  0
  6  7  2  0
  7  8  1  0
  8  9  1  0
  9 10  2  0
 10 11  1  0
 11 12  2  0
 12 13  1  0
 13 14  1  0
 13 15  1  0
 13 16  1  0
 12 17  1  0
 17 18  2  0
 18 19  1  0
  7 20  1  0
 20 21  1  0
 20 22  2  0
 22  4  1  0
 18  9  1  0
  1 23  1  0
  1 24  1  0
  1 25  1  0
  5 26  1  0
  6 27  1  0
 10 28  1  0
 11 29  1  0
 17 30  1  0
 22 31  1  0
M  CHG  1  21  -1
M  END
>  <UniqueID>  (22) 
21

>  <SMILES>  (22) 
CC(=O)c1ccc(Oc2ccc(C(F)(F)F)cc2Cl)c([O-])c1

>  <Energy>  (22) 
42.97459600704426

>  <Genealogy>  (22) 
CC(=O)c1ccc(Oc2ccc(C(F)(F)F)cc2Cl)c([O-])c1 (protonated)
CC(=O)c1ccc(Oc2ccc(C(F)(F)F)cc2Cl)c([O-])c1 (3D coordinates assigned)
CC(=O)c1ccc(Oc2ccc(C(F)(F)F)cc2Cl)c([O-])c1 (optimized conformer: 42.97459600704426 kcal/mol)

>  <smiles>  (22) 
CC(=O)c1ccc(Oc2ccc(C(F)(F)F)cc2Cl)c(O)c1

>  <score_type>  (22) 
oracle

>  <origin>  (22) 
adgpu

>  <m_score__min__energy>  (22) 
-10.58

>  <m_primary>  (22) 
energy

$$$$
22:0
     RDKit          3D

 34 36  0  0  0  0  0  0  0  0999 V2000
   -1.0970   24.6590  -25.9730 C   0  0  0  0  0  0  0  0  0  0  0  0
   -1.6700   24.7330  -27.3470 C   0  0  0  0  0  0  0  0  0  0  0  0
   -1.1190   25.4470  -28.3470 N   0  0  0  0  0  0  0  0  0  0  0  0
   -1.9360   25.3040  -29.3450 O   0  0  0  0  0  0  0  0  0  0  0  0
   -2.9470   24.5500  -28.9850 C   0  0  0  0  0  0  0  0  0  0  0  0
   -4.0680   24.1840  -29.8750 C   0  0  0  0  0  0  0  0  0  0  0  0
   -5.2830   24.8850  -29.8200 C   0  0  0  0  0  0  0  0  0  0  0  0
   -6.3410   24.5360  -30.6650 C   0  0  0  0  0  0  0  0  0  0  0  0
   -6.2020   23.4780  -31.5830 C   0  0  0  0  0  0  0  0  0  0  0  0
   -7.2690   23.0940  -32.4710 N   0  0  0  0  0  0  0  0  0  0  0  0
   -8.4430   22.3180  -32.0700 C   0  0  0  0  0  0  0  0  0  0  0  0
   -8.1790   20.8470  -32.2120 C   0  0  0  0  0  0  0  0  0  0  0  0
   -9.0270   19.9070  -31.6070 C   0  0  0  0  0  0  0  0  0  0  0  0
   -8.7540   18.5450  -31.7530 C   0  0  0  0  0  0  0  0  0  0  0  0
   -7.6480   18.1330  -32.4990 C   0  0  0  0  0  0  0  0  0  0  0  0
   -6.8280   19.0970  -33.0910 C   0  0  0  0  0  0  0  0  0  0  0  0
   -7.1090   20.4180  -32.9380 N   0  0  0  0  0  0  0  0  0  0  0  0
   -4.9880   22.7760  -31.6290 C   0  0  0  0  0  0  0  0  0  0  0  0
   -3.9300   23.1260  -30.7850 C   0  0  0  0  0  0  0  0  0  0  0  0
   -2.8360   24.1560  -27.7010 N   0  0  0  0  0  0  0  0  0  0  0  0
   -1.9042   24.7632  -25.2330 H   0  0  0  0  0  0  0  0  0  0  0  0
   -0.5970   23.6888  -25.8360 H   0  0  0  0  0  0  0  0  0  0  0  0
   -0.3669   25.4703  -25.8360 H   0  0  0  0  0  0  0  0  0  0  0  0
   -5.4035   25.7143  -29.1075 H   0  0  0  0  0  0  0  0  0  0  0  0
   -7.2886   25.0921  -30.6120 H   0  0  0  0  0  0  0  0  0  0  0  0
   -7.2300   23.4150  -33.4660 H   0  0  0  0  0  0  0  0  0  0  0  0
   -8.6831   22.5423  -31.0202 H   0  0  0  0  0  0  0  0  0  0  0  0
   -9.2870   22.5908  -32.7205 H   0  0  0  0  0  0  0  0  0  0  0  0
   -9.8982   20.2394  -31.0235 H   0  0  0  0  0  0  0  0  0  0  0  0
   -9.4093   17.7981  -31.2810 H   0  0  0  0  0  0  0  0  0  0  0  0
   -7.4250   17.0626  -32.6192 H   0  0  0  0  0  0  0  0  0  0  0  0
   -5.9537   18.7864  -33.6818 H   0  0  0  0  0  0  0  0  0  0  0  0
   -4.8676   21.9421  -32.3361 H   0  0  0  0  0  0  0  0  0  0  0  0
   -2.9833   22.5680  -30.8350 H   0  0  0  0  0  0  0  0  0  0  0  0
  1  2  1  0
  2  3  2  0
  3  4  1  0
  4  5  1  0
  5  6  1  0
  6  7  2  0
  7  8  1  0
  8  9  2  0
  9 10  1  0
 10 11  1  0
 11 12  1  0
 12 13  2  0
 13 14  1  0
 14 15  2  0
 15 16  1  0
 16 17  2  0
  9 18  1  0
 18 19  2  0
  5 20  2  0
 20  2  1  0
 19  6  1  0
 17 12  1  0
  1 21  1  0
  1 22  1  0
  1 23  1  0
  7 24  1  0
  8 25  1  0
 10 26  1  0
 11 27  1  0
 11 28  1  0
 13 29  1  0
 14 30  1  0
 15 31  1  0
 16 32  1  0
 18 33  1  0
 19 34  1  0
M  END
>  <UniqueID>  (23) 
22

>  <SMILES>  (23) 
Cc1noc(-c2ccc(NCc3ccccn3)cc2)n1

>  <Energy>  (23) 
67.51608215337345

>  <Genealogy>  (23) 
Cc1noc(-c2ccc(NCc3ccccn3)cc2)n1 (3D coordinates assigned)
Cc1noc(-c2ccc(NCc3ccccn3)cc2)n1 (optimized conformer: 67.51608215337345 kcal/mol)

>  <smiles>  (23) 
Cc1noc(-c2ccc(NCc3ccccn3)cc2)n1

>  <score_type>  (23) 
oracle

>  <origin>  (23) 
adgpu

>  <m_score__min__energy>  (23) 
-8.1699999999999999

>  <m_primary>  (23) 
energy

$$$$
23:0
     RDKit          3D

 40 41  0  0  0  0  0  0  0  0999 V2000
    0.3000   24.8990  -25.8100 C   0  0  0  0  0  0  0  0  0  0  0  0
   -0.3950   24.6230  -27.1030 C   0  0  0  0  0  0  0  0  0  0  0  0
    0.1790   24.9130  -28.1870 O   0  0  0  0  0  0  0  0  0  0  0  0
   -1.6620   23.9480  -27.1040 N   0  0  0  0  0  0  0  0  0  0  0  0
   -2.4900   23.7900  -28.2690 C   0  0  0  0  0  0  0  0  0  0  0  0
   -3.6700   24.5340  -28.3760 C   0  0  0  0  0  0  0  0  0  0  0  0
   -4.4970   24.4110  -29.5020 C   0  0  0  0  0  0  0  0  0  0  0  0
   -5.7890   25.1770  -29.5660 C   0  0  0  0  0  0  0  0  0  0  0  0
   -4.1490   23.5190  -30.5350 C   0  0  0  0  0  0  0  0  0  0  0  0
   -5.0410   23.3680  -31.6100 O   0  0  0  0  0  0  0  0  0  0  0  0
   -5.9690   22.3260  -31.7590 C   0  0  0  0  0  0  0  0  0  0  0  0
   -7.0860   22.3220  -30.9170 C   0  0  0  0  0  0  0  0  0  0  0  0
   -8.0780   21.3510  -31.0540 C   0  0  0  0  0  0  0  0  0  0  0  0
   -7.9650   20.3500  -32.0320 C   0  0  0  0  0  0  0  0  0  0  0  0
   -8.9960   19.3560  -32.1770 N   0  0  0  0  0  0  0  0  0  0  0  0
   -9.8510   19.4510  -33.0830 O   0  0  0  0  0  0  0  0  0  0  0  0
   -9.0610   18.2850  -31.3150 O   0  0  0  0  0  0  0  0  0  0  0  0
   -6.8240   20.3280  -32.8530 C   0  0  0  0  0  0  0  0  0  0  0  0
   -5.8130   21.2910  -32.7120 C   0  0  0  0  0  0  0  0  0  0  0  0
   -4.6250   21.1690  -33.5030 N   0  0  0  0  0  0  0  0  0  0  0  0
   -2.9110   22.8300  -30.4740 C   0  0  0  0  0  0  0  0  0  0  0  0
   -2.4170   21.9770  -31.6120 C   0  0  0  0  0  0  0  0  0  0  0  0
   -2.1050   22.9600  -29.3320 C   0  0  0  0  0  0  0  0  0  0  0  0
   -0.3638   24.6354  -24.9734 H   0  0  0  0  0  0  0  0  0  0  0  0
    1.2193   24.2977  -25.7522 H   0  0  0  0  0  0  0  0  0  0  0  0
    0.5563   25.9672  -25.7522 H   0  0  0  0  0  0  0  0  0  0  0  0
   -1.9570   23.4700  -26.2210 H   0  0  0  0  0  0  0  0  0  0  0  0
   -3.9526   25.2238  -27.5671 H   0  0  0  0  0  0  0  0  0  0  0  0
   -6.1421   25.3863  -28.5455 H   0  0  0  0  0  0  0  0  0  0  0  0
   -5.6271   26.1251  -30.0997 H   0  0  0  0  0  0  0  0  0  0  0  0
   -6.5432   24.5800  -30.0997 H   0  0  0  0  0  0  0  0  0  0  0  0
   -7.1831   23.0929  -30.1384 H   0  0  0  0  0  0  0  0  0  0  0  0
   -8.9554   21.3697  -30.3908 H   0  0  0  0  0  0  0  0  0  0  0  0
   -6.7221   19.5439  -33.6177 H   0  0  0  0  0  0  0  0  0  0  0  0
   -4.3400   21.9370  -34.1510 H   0  0  0  0  0  0  0  0  0  0  0  0
   -4.0910   20.2770  -33.5570 H   0  0  0  0  0  0  0  0  0  0  0  0
   -1.9038   21.0909  -31.2101 H   0  0  0  0  0  0  0  0  0  0  0  0
   -3.2703   21.6583  -32.2287 H   0  0  0  0  0  0  0  0  0  0  0  0
   -1.7159   22.5585  -32.2287 H   0  0  0  0  0  0  0  0  0  0  0  0
   -1.1584   22.4032  -29.2700 H   0  0  0  0  0  0  0  0  0  0  0  0
  1  2  1  0
  2  3  2  0
  2  4  1  0
  4  5  1  0
  5  6  2  0
  6  7  1  0
  7  8  1  0
  7  9  2  0
  9 10  1  0
 10 11  1  0
 11 12  2  0
 12 13  1  0
 13 14  2  0
 14 15  1  0
 15 16  2  0
 15 17  1  0
 14 18  1  0
 18 19  2  0
 19 20  1  0
  9 21  1  0
 21 22  1  0
 21 23  2  0
 23  5  1  0
 19 11  1  0
  1 24  1  0
  1 25  1  0
  1 26  1  0
  4 27  1  0
  6 28  1  0
  8 29  1  0
  8 30  1  0
  8 31  1  0
 12 32  1  0
 13 33  1  0
 18 34  1  0
 20 35  1  0
 20 36  1  0
 22 37  1  0
 22 38  1  0
 22 39  1  0
 23 40  1  0
M  CHG  2  15   1  17  -1
M  END
>  <UniqueID>  (24) 
23

>  <SMILES>  (24) 
CC(=O)Nc1cc(C)c(Oc2ccc([N+](=O)[O-])cc2N)c(C)c1

>  <Energy>  (24) 
53.49560426657583

>  <Genealogy>  (24) 
CC(=O)Nc1cc(C)c(Oc2ccc([N+](=O)[O-])cc2N)c(C)c1 (3D coordinates assigned)
CC(=O)Nc1cc(C)c(Oc2ccc([N+](=O)[O-])cc2N)c(C)c1 (optimized conformer: 53.49560426657583 kcal/mol)

>  <smiles>  (24) 
CC(=O)Nc1cc(C)c(Oc2ccc([N+](=O)[O-])cc2N)c(C)c1

>  <score_type>  (24) 
oracle

>  <origin>  (24) 
adgpu

>  <m_score__min__energy>  (24) 
-7.9800000000000004

>  <m_primary>  (24) 
energy

$$$$
24:0
     RDKit          3D

 30 32  0  0  0  0  0  0  0  0999 V2000
   -7.3160   24.4040  -29.0790 H   0  0  0  0  0  0  0  0  0  0  0  0
   -6.7600   23.7790  -29.7060 N   0  0  0  0  0  0  0  0  0  0  0  0
   -5.6000   24.1370  -30.1510 C   0  0  0  0  0  0  0  0  0  0  0  0
   -4.7690   23.4160  -30.9760 C   0  0  0  0  0  0  0  0  0  0  0  0
   -4.9810   22.0800  -31.5540 C   0  0  0  0  0  0  0  0  0  0  0  0
   -4.0890   21.0860  -31.3120 N   0  0  0  0  0  0  0  0  0  0  0  0
   -4.2630   19.8680  -31.8240 N   0  0  0  0  0  0  0  0  0  0  0  0
   -5.3390   19.5710  -32.6040 C   0  0  0  0  0  0  0  0  0  0  0  0
   -5.4910   18.2010  -33.1590 C   0  0  0  0  0  0  0  0  0  0  0  0
   -4.4590   17.5870  -33.8930 C   0  0  0  0  0  0  0  0  0  0  0  0
   -3.5137   18.1247  -34.0584 H   0  0  0  0  0  0  0  0  0  0  0  0
   -4.6240   16.3000  -34.4140 C   0  0  0  0  0  0  0  0  0  0  0  0
   -3.8070   15.8302  -34.9814 H   0  0  0  0  0  0  0  0  0  0  0  0
   -5.8300   15.6030  -34.2160 C   0  0  0  0  0  0  0  0  0  0  0  0
   -6.0450   14.3110  -34.7180 O   0  0  0  0  0  0  0  0  0  0  0  0
   -7.2850   13.6150  -34.6430 C   0  0  0  0  0  0  0  0  0  0  0  0
   -7.5567   13.4625  -33.5880 H   0  0  0  0  0  0  0  0  0  0  0  0
   -8.0677   14.2056  -35.1415 H   0  0  0  0  0  0  0  0  0  0  0  0
   -7.1885   12.6392  -35.1415 H   0  0  0  0  0  0  0  0  0  0  0  0
   -6.8610   16.2160  -33.4970 C   0  0  0  0  0  0  0  0  0  0  0  0
   -7.8088   15.6804  -33.3393 H   0  0  0  0  0  0  0  0  0  0  0  0
   -6.6980   17.5030  -32.9770 C   0  0  0  0  0  0  0  0  0  0  0  0
   -7.5214   17.9742  -32.4203 H   0  0  0  0  0  0  0  0  0  0  0  0
   -6.2600   20.5950  -32.8680 C   0  0  0  0  0  0  0  0  0  0  0  0
   -7.1376   20.4007  -33.5020 H   0  0  0  0  0  0  0  0  0  0  0  0
   -6.0610   21.8270  -32.3360 N   0  0  0  0  0  0  0  0  0  0  0  0
   -3.6700   24.1730  -31.1810 N   0  0  0  0  0  0  0  0  0  0  0  0
   -3.8610   25.2760  -30.5070 O   0  0  0  0  0  0  0  0  0  0  0  0
   -4.9990   25.3020  -29.8750 N   0  0  0  0  0  0  0  0  0  0  0  0
   -5.3490   26.0850  -29.2780 H   0  0  0  0  0  0  0  0  0  0  0  0
  1  2  1  0
  2  3  2  0
  3  4  1  0
  4  5  1  0
  5  6  2  0
  6  7  1  0
  7  8  2  0
  8  9  1  0
  9 10  2  0
 10 11  1  0
 10 12  1  0
 12 13  1  0
 12 14  2  0
 14 15  1  0
 15 16  1  0
 16 17  1  0
 16 18  1  0
 16 19  1  0
 14 20  1  0
 20 21  1  0
 20 22  2  0
 22 23  1  0
  8 24  1  0
 24 25  1  0
 24 26  2  0
  4 27  2  0
 27 28  1  0
 28 29  1  0
 29 30  1  0
 29  3  1  0
 26  5  1  0
 22  9  1  0
M  END
>  <UniqueID>  (25) 
24

>  <SMILES>  (25) 
[H]/N=c1\[nH]onc1-c1ncc(-c2ccc(OC)cc2)nn1

>  <Energy>  (25) 
75.35772927698565

>  <Genealogy>  (25) 
[H]/N=c1\[nH]onc1-c1ncc(-c2ccc(OC)cc2)nn1 (cis-trans isomerization)
[H]/N=c1\[nH]onc1-c1ncc(-c2ccc(OC)cc2)nn1 (3D coordinates assigned)
[H]/N=c1\[nH]onc1-c1ncc(-c2ccc(OC)cc2)nn1 (optimized conformer: 75.35772927698565 kcal/mol)

>  <smiles>  (25) 
COc1ccc(-c2cnc(-c3no[nH]c3=N)nn2)cc1

>  <score_type>  (25) 
oracle

>  <origin>  (25) 
adgpu

>  <m_score__min__energy>  (25) 
-7.4699999999999998

>  <m_primary>  (25) 
energy

$$$$
25:0
     RDKit          3D

 55 58  0  0  0  0  0  0  0  0999 V2000
   -5.5890   21.5150  -32.6960 C   0  0  0  0  0  0  0  0  0  0  0  0
   -6.9320   20.9980  -32.4300 N   0  0  0  0  0  0  0  0  0  0  0  0
   -8.0030   21.6890  -31.9950 C   0  0  0  0  0  0  0  0  0  0  0  0
   -8.0010   23.4390  -31.5820 S   0  0  0  0  0  0  0  0  0  0  0  0
   -6.7420   23.3000  -30.2580 C   0  0  0  0  0  0  0  0  0  0  0  0
   -5.8470   24.5420  -30.2070 C   0  0  0  0  0  0  0  0  0  0  0  0
   -4.3600   24.1940  -30.3750 C   0  0  0  0  0  0  0  0  0  0  0  0
   -3.5960   24.5990  -29.1750 N   0  0  0  0  0  0  0  0  0  0  0  0
   -4.2310   24.1130  -27.9350 C   0  0  0  0  0  0  0  0  0  0  0  0
   -3.5960   24.8300  -26.7400 C   0  0  0  0  0  0  0  0  0  0  0  0
   -2.1480   24.9920  -26.9390 N   0  0  0  0  0  0  0  0  0  0  0  0
   -1.4060   25.9270  -26.1320 C   0  0  0  0  0  0  0  0  0  0  0  0
   -0.8640   27.0890  -26.7080 C   0  0  0  0  0  0  0  0  0  0  0  0
   -0.1490   28.0000  -25.9240 C   0  0  0  0  0  0  0  0  0  0  0  0
    0.0250   27.7640  -24.5580 C   0  0  0  0  0  0  0  0  0  0  0  0
    0.7200   28.6490  -23.8000 F   0  0  0  0  0  0  0  0  0  0  0  0
   -0.5200   26.6190  -23.9730 C   0  0  0  0  0  0  0  0  0  0  0  0
   -1.2350   25.7050  -24.7530 C   0  0  0  0  0  0  0  0  0  0  0  0
   -1.4660   24.1200  -27.9040 C   0  0  0  0  0  0  0  0  0  0  0  0
   -2.1900   24.1320  -29.2680 C   0  0  0  0  0  0  0  0  0  0  0  0
   -9.0920   20.9070  -31.8960 N   0  0  0  0  0  0  0  0  0  0  0  0
   -8.7240   19.6890  -32.2630 N   0  0  0  0  0  0  0  0  0  0  0  0
   -7.4130   19.7430  -32.5720 C   0  0  0  0  0  0  0  0  0  0  0  0
   -6.6450   18.5590  -33.0180 C   0  0  0  0  0  0  0  0  0  0  0  0
   -6.4860   17.4370  -32.1850 C   0  0  0  0  0  0  0  0  0  0  0  0
   -5.7750   16.3200  -32.6340 C   0  0  0  0  0  0  0  0  0  0  0  0
   -5.2290   16.3060  -33.9210 C   0  0  0  0  0  0  0  0  0  0  0  0
   -4.5430   15.2200  -34.3550 F   0  0  0  0  0  0  0  0  0  0  0  0
   -5.4000   17.4080  -34.7620 C   0  0  0  0  0  0  0  0  0  0  0  0
   -6.1100   18.5270  -34.3170 C   0  0  0  0  0  0  0  0  0  0  0  0
   -5.0766   21.7123  -31.7428 H   0  0  0  0  0  0  0  0  0  0  0  0
   -5.0178   20.7725  -33.2726 H   0  0  0  0  0  0  0  0  0  0  0  0
   -5.6631   22.4489  -33.2726 H   0  0  0  0  0  0  0  0  0  0  0  0
   -7.2515   23.1858  -29.2898 H   0  0  0  0  0  0  0  0  0  0  0  0
   -6.1097   22.4255  -30.4712 H   0  0  0  0  0  0  0  0  0  0  0  0
   -6.1441   25.2260  -31.0156 H   0  0  0  0  0  0  0  0  0  0  0  0
   -5.9746   25.0095  -29.2195 H   0  0  0  0  0  0  0  0  0  0  0  0
   -4.2562   23.1087  -30.5213 H   0  0  0  0  0  0  0  0  0  0  0  0
   -3.9642   24.7332  -31.2483 H   0  0  0  0  0  0  0  0  0  0  0  0
   -5.3096   24.3271  -27.9638 H   0  0  0  0  0  0  0  0  0  0  0  0
   -4.0827   23.0271  -27.8406 H   0  0  0  0  0  0  0  0  0  0  0  0
   -4.0580   25.8219  -26.6272 H   0  0  0  0  0  0  0  0  0  0  0  0
   -3.7628   24.2256  -25.8362 H   0  0  0  0  0  0  0  0  0  0  0  0
   -1.0031   27.2829  -27.7818 H   0  0  0  0  0  0  0  0  0  0  0  0
    0.2771   28.9040  -26.3836 H   0  0  0  0  0  0  0  0  0  0  0  0
   -0.3865   26.4358  -22.8966 H   0  0  0  0  0  0  0  0  0  0  0  0
   -1.6663   24.8073  -24.2860 H   0  0  0  0  0  0  0  0  0  0  0  0
   -0.4335   24.4737  -28.0415 H   0  0  0  0  0  0  0  0  0  0  0  0
   -1.4720   23.0919  -27.5129 H   0  0  0  0  0  0  0  0  0  0  0  0
   -1.6431   24.8005  -29.9491 H   0  0  0  0  0  0  0  0  0  0  0  0
   -2.2114   23.0963  -29.6380 H   0  0  0  0  0  0  0  0  0  0  0  0
   -6.9231   17.4383  -31.1756 H   0  0  0  0  0  0  0  0  0  0  0  0
   -5.6449   15.4503  -31.9732 H   0  0  0  0  0  0  0  0  0  0  0  0
   -4.9751   17.3953  -35.7766 H   0  0  0  0  0  0  0  0  0  0  0  0
   -6.2507   19.3875  -34.9876 H   0  0  0  0  0  0  0  0  0  0  0  0
  1  2  1  0
  2  3  1  0
  3  4  1  0
  4  5  1  0
  5  6  1  0
  6  7  1  0
  7  8  1  0
  8  9  1  0
  9 10  1  0
 10 11  1  0
 11 12  1  0
 12 13  2  0
 13 14  1  0
 14 15  2  0
 15 16  1  0
 15 17  1  0
 17 18  2  0
 11 19  1  0
 19 20  1  0
  3 21  2  0
 21 22  1  0
 22 23  2  0
 23 24  1  0
 24 25  2  0
 25 26  1  0
 26 27  2  0
 27 28  1  0
 27 29  1  0
 29 30  2  0
 23  2  1  0
 30 24  1  0
 20  8  1  0
 18 12  1  0
  1 31  1  0
  1 32  1  0
  1 33  1  0
  5 34  1  0
  5 35  1  0
  6 36  1  0
  6 37  1  0
  7 38  1  0
  7 39  1  0
  9 40  1  0
  9 41  1  0
 10 42  1  0
 10 43  1  0
 13 44  1  0
 14 45  1  0
 17 46  1  0
 18 47  1  0
 19 48  1  0
 19 49  1  0
 20 50  1  0
 20 51  1  0
 25 52  1  0
 26 53  1  0
 29 54  1  0
 30 55  1  0
M  END
>  <UniqueID>  (26) 
25

>  <SMILES>  (26) 
Cn1c(SCCCN2CCN(c3ccc(F)cc3)CC2)nnc1-c1ccc(F)cc1

>  <Energy>  (26) 
102.32169662739746

>  <Genealogy>  (26) 
Cn1c(SCCCN2CCN(c3ccc(F)cc3)CC2)nnc1-c1ccc(F)cc1 (3D coordinates assigned)
Cn1c(SCCCN2CCN(c3ccc(F)cc3)CC2)nnc1-c1ccc(F)cc1 (nonaromatic ring conformer: 102.32169662739746 kcal/mol)

>  <smiles>  (26) 
Cn1c(SCCCN2CCN(c3ccc(F)cc3)CC2)nnc1-c1ccc(F)cc1

>  <score_type>  (26) 
oracle

>  <origin>  (26) 
adgpu

>  <m_score__min__energy>  (26) 
-9.0500000000000007

>  <m_primary>  (26) 
energy

$$$$
26:0
     RDKit          3D

 43 44  0  0  0  0  0  0  0  0999 V2000
   -2.0060   19.6820  -26.8090 C   0  0  0  0  0  0  0  0  0  0  0  0
   -0.9230   20.2920  -27.5040 O   0  0  0  0  0  0  0  0  0  0  0  0
   -0.8730   20.4730  -28.8960 C   0  0  0  0  0  0  0  0  0  0  0  0
   -0.6140   19.4060  -29.7820 C   0  0  0  0  0  0  0  0  0  0  0  0
   -0.5790   19.6280  -31.1630 C   0  0  0  0  0  0  0  0  0  0  0  0
   -0.8020   20.9080  -31.6730 C   0  0  0  0  0  0  0  0  0  0  0  0
   -1.0590   21.9730  -30.8050 C   0  0  0  0  0  0  0  0  0  0  0  0
   -1.0940   21.7610  -29.4190 C   0  0  0  0  0  0  0  0  0  0  0  0
   -1.3720   22.8620  -28.5450 N   0  0  0  0  0  0  0  0  0  0  0  0
   -2.7040   23.4720  -28.5420 C   0  0  0  0  0  0  0  0  0  0  0  0
   -2.6720   24.7780  -29.2860 C   0  0  0  0  0  0  0  0  0  0  0  0
   -1.8100   25.6390  -28.9690 O   0  0  0  0  0  0  0  0  0  0  0  0
   -3.4900   25.0100  -30.4410 N   0  0  0  0  0  0  0  0  0  0  0  0
   -4.6160   24.2220  -30.8470 C   0  0  0  0  0  0  0  0  0  0  0  0
   -5.9050   24.6320  -30.4820 C   0  0  0  0  0  0  0  0  0  0  0  0
   -7.0190   23.8770  -30.8620 C   0  0  0  0  0  0  0  0  0  0  0  0
   -6.8500   22.6900  -31.5830 C   0  0  0  0  0  0  0  0  0  0  0  0
   -5.5610   22.2380  -31.9050 C   0  0  0  0  0  0  0  0  0  0  0  0
   -5.3840   20.9770  -32.6990 C   0  0  0  0  0  0  0  0  0  0  0  0
   -4.4460   23.0080  -31.5360 C   0  0  0  0  0  0  0  0  0  0  0  0
   -0.0970   23.4880  -27.5400 S   0  0  0  0  0  0  0  0  0  0  0  0
   -0.7810   24.2060  -26.0640 C   0  0  0  0  0  0  0  0  0  0  0  0
    0.8380   22.3730  -27.1640 O   0  0  0  0  0  0  0  0  0  0  0  0
    0.6820   24.5350  -28.2860 O   0  0  0  0  0  0  0  0  0  0  0  0
   -1.8438   19.7733  -25.7249 H   0  0  0  0  0  0  0  0  0  0  0  0
   -2.9461   20.1833  -27.0827 H   0  0  0  0  0  0  0  0  0  0  0  0
   -2.0646   18.6182  -27.0827 H   0  0  0  0  0  0  0  0  0  0  0  0
   -0.4388   18.3951  -29.3853 H   0  0  0  0  0  0  0  0  0  0  0  0
   -0.3753   18.7920  -31.8483 H   0  0  0  0  0  0  0  0  0  0  0  0
   -0.7755   21.0788  -32.7593 H   0  0  0  0  0  0  0  0  0  0  0  0
   -1.2343   22.9805  -31.2102 H   0  0  0  0  0  0  0  0  0  0  0  0
   -3.4175   22.7918  -29.0302 H   0  0  0  0  0  0  0  0  0  0  0  0
   -3.0153   23.6554  -27.5030 H   0  0  0  0  0  0  0  0  0  0  0  0
   -6.0413   25.5516  -29.8941 H   0  0  0  0  0  0  0  0  0  0  0  0
   -8.0301   24.2170  -30.5935 H   0  0  0  0  0  0  0  0  0  0  0  0
   -7.7296   22.1096  -31.8983 H   0  0  0  0  0  0  0  0  0  0  0  0
   -5.2645   20.1255  -32.0130 H   0  0  0  0  0  0  0  0  0  0  0  0
   -6.2683   20.8157  -33.3330 H   0  0  0  0  0  0  0  0  0  0  0  0
   -4.4895   21.0654  -33.3330 H   0  0  0  0  0  0  0  0  0  0  0  0
   -3.4335   22.6593  -31.7875 H   0  0  0  0  0  0  0  0  0  0  0  0
   -0.3283   23.7308  -25.1813 H   0  0  0  0  0  0  0  0  0  0  0  0
   -0.5686   25.2852  -26.0488 H   0  0  0  0  0  0  0  0  0  0  0  0
   -1.8692   24.0462  -26.0488 H   0  0  0  0  0  0  0  0  0  0  0  0
  1  2  1  0
  2  3  1  0
  3  4  2  0
  4  5  1  0
  5  6  2  0
  6  7  1  0
  7  8  2  0
  8  9  1  0
  9 10  1  0
 10 11  1  0
 11 12  2  0
 11 13  1  0
 13 14  1  0
 14 15  2  0
 15 16  1  0
 16 17  2  0
 17 18  1  0
 18 19  1  0
 18 20  2  0
  9 21  1  0
 21 22  1  0
 21 23  2  0
 21 24  2  0
  8  3  1  0
 20 14  1  0
  1 25  1  0
  1 26  1  0
  1 27  1  0
  4 28  1  0
  5 29  1  0
  6 30  1  0
  7 31  1  0
 10 32  1  0
 10 33  1  0
 15 34  1  0
 16 35  1  0
 17 36  1  0
 19 37  1  0
 19 38  1  0
 19 39  1  0
 20 40  1  0
 22 41  1  0
 22 42  1  0
 22 43  1  0
M  CHG  1  13  -1
M  END
>  <UniqueID>  (27) 
26

>  <SMILES>  (27) 
COc1ccccc1N(CC(=O)[N-]c1cccc(C)c1)S(C)(=O)=O

>  <Energy>  (27) 
46.63091528885319

>  <Genealogy>  (27) 
COc1ccccc1N(CC(=O)[N-]c1cccc(C)c1)S(C)(=O)=O (protonated)
COc1ccccc1N(CC(=O)[N-]c1cccc(C)c1)S(C)(=O)=O (3D coordinates assigned)
COc1ccccc1N(CC(=O)[N-]c1cccc(C)c1)S(C)(=O)=O (optimized conformer: 46.63091528885319 kcal/mol)

>  <smiles>  (27) 
COc1ccccc1N(CC(=O)Nc1cccc(C)c1)S(C)(=O)=O

>  <score_type>  (27) 
oracle

>  <origin>  (27) 
adgpu

>  <m_score__min__energy>  (27) 
-9.0899999999999999

>  <m_primary>  (27) 
energy

$$$$
27:0
     RDKit          3D

 24 25  0  0  0  0  0  0  0  0999 V2000
   -3.8280   25.2980  -30.1050 N   0  0  0  0  0  0  0  0  0  0  0  0
   -4.7490   24.2940  -30.5360 C   0  0  0  0  0  0  0  0  0  0  0  0
   -4.2860   23.0330  -30.9310 C   0  0  0  0  0  0  0  0  0  0  0  0
   -5.1860   22.0500  -31.3520 C   0  0  0  0  0  0  0  0  0  0  0  0
   -6.5670   22.3140  -31.3870 C   0  0  0  0  0  0  0  0  0  0  0  0
   -7.5260   21.2710  -31.8340 C   0  0  0  0  0  0  0  0  0  0  0  0
   -7.0730   19.9840  -32.1800 C   0  0  0  0  0  0  0  0  0  0  0  0
   -7.9770   19.0050  -32.6010 C   0  0  0  0  0  0  0  0  0  0  0  0
   -9.3390   19.2970  -32.6830 C   0  0  0  0  0  0  0  0  0  0  0  0
   -9.8020   20.5700  -32.3430 C   0  0  0  0  0  0  0  0  0  0  0  0
   -8.9020   21.5540  -31.9200 C   0  0  0  0  0  0  0  0  0  0  0  0
   -7.0260   23.5840  -30.9900 C   0  0  0  0  0  0  0  0  0  0  0  0
   -6.1240   24.5650  -30.5680 C   0  0  0  0  0  0  0  0  0  0  0  0
   -3.8540   25.6650  -29.1280 H   0  0  0  0  0  0  0  0  0  0  0  0
   -3.1110   25.6840  -30.7600 H   0  0  0  0  0  0  0  0  0  0  0  0
   -3.2081   22.8148  -30.9099 H   0  0  0  0  0  0  0  0  0  0  0  0
   -4.8113   21.0622  -31.6583 H   0  0  0  0  0  0  0  0  0  0  0  0
   -6.0005   19.7473  -32.1186 H   0  0  0  0  0  0  0  0  0  0  0  0
   -7.6140   18.0017  -32.8684 H   0  0  0  0  0  0  0  0  0  0  0  0
  -10.0481   18.5245  -33.0154 H   0  0  0  0  0  0  0  0  0  0  0  0
  -10.8759   20.7993  -32.4079 H   0  0  0  0  0  0  0  0  0  0  0  0
   -9.2720   22.5549  -31.6530 H   0  0  0  0  0  0  0  0  0  0  0  0
   -8.1031   23.8063  -31.0120 H   0  0  0  0  0  0  0  0  0  0  0  0
   -6.4947   25.5537  -30.2598 H   0  0  0  0  0  0  0  0  0  0  0  0
  1  2  1  0
  2  3  2  0
  3  4  1  0
  4  5  2  0
  5  6  1  0
  6  7  2  0
  7  8  1  0
  8  9  2  0
  9 10  1  0
 10 11  2  0
  5 12  1  0
 12 13  2  0
 13  2  1  0
 11  6  1  0
  1 14  1  0
  1 15  1  0
  3 16  1  0
  4 17  1  0
  7 18  1  0
  8 19  1  0
  9 20  1  0
 10 21  1  0
 11 22  1  0
 12 23  1  0
 13 24  1  0
M  END
>  <UniqueID>  (28) 
27

>  <SMILES>  (28) 
Nc1ccc(-c2ccccc2)cc1

>  <Energy>  (28) 
29.03651292641503

>  <Genealogy>  (28) 
Nc1ccc(-c2ccccc2)cc1 (3D coordinates assigned)
Nc1ccc(-c2ccccc2)cc1 (optimized conformer: 29.03651292641503 kcal/mol)

>  <smiles>  (28) 
Nc1ccc(-c2ccccc2)cc1

>  <score_type>  (28) 
oracle

>  <origin>  (28) 
adgpu

>  <m_score__min__energy>  (28) 
-7.1500000000000004

>  <m_primary>  (28) 
energy

$$$$
28:0
     RDKit          3D

 36 38  0  0  1  0  0  0  0  0999 V2000
   -0.9060   27.3370  -23.3230 N   0  0  0  0  0  0  0  0  0  0  0  0
   -0.2310   26.5830  -24.3270 C   0  0  0  0  0  0  0  0  0  0  0  0
    0.9660   25.9300  -24.0960 C   0  0  0  0  0  0  0  0  0  0  0  0
    1.5510   25.2190  -25.1320 C   0  0  0  0  0  0  0  0  0  0  0  0
    0.9360   25.1710  -26.3790 C   0  0  0  0  0  0  0  0  0  0  0  0
   -0.2600   25.8180  -26.6230 C   0  0  0  0  0  0  0  0  0  0  0  0
   -0.8950   25.7710  -27.9030 N   0  0  0  0  0  0  0  0  0  0  0  0
   -1.9580   25.0650  -28.0990 C   0  0  0  0  0  0  0  0  0  0  0  0
   -2.5190   24.3370  -27.1070 N   0  0  0  0  0  0  0  0  0  0  0  0
   -3.6230   23.6360  -27.4130 C   0  0  0  0  0  0  0  0  0  0  0  0
   -4.1990   23.6220  -28.6630 C   0  0  0  0  0  0  0  0  0  0  0  0
   -3.6020   24.3730  -29.6440 C   0  0  0  0  0  0  0  0  0  0  0  0
   -4.1130   24.3840  -30.8280 N   0  0  0  0  0  0  0  0  0  0  0  0
   -5.2780   23.6610  -31.2060 C   0  0  0  0  0  0  0  0  0  0  0  0
   -6.5590   24.0930  -30.9540 C   0  0  0  0  0  0  0  0  0  0  0  0
   -7.6840   23.3620  -31.3380 C   0  0  0  0  0  0  0  0  0  0  0  0
   -7.5380   22.1540  -31.9980 C   0  0  0  0  0  0  0  0  0  0  0  0
   -6.2610   21.7060  -32.2590 C   0  0  0  0  0  0  0  0  0  0  0  0
   -5.1660   22.4390  -31.8730 C   0  0  0  0  0  0  0  0  0  0  0  0
   -2.4990   25.0760  -29.3460 N   0  0  0  0  0  0  0  0  0  0  0  0
   -0.8270   26.5240  -25.5690 C   0  0  0  0  0  0  0  0  0  0  0  0
   -0.3580   27.5590  -22.4480 H   0  0  0  0  0  0  0  0  0  0  0  0
   -1.8930   27.6440  -23.4690 H   0  0  0  0  0  0  0  0  0  0  0  0
    1.4456   25.9741  -23.1070 H   0  0  0  0  0  0  0  0  0  0  0  0
    2.5026   24.6921  -24.9681 H   0  0  0  0  0  0  0  0  0  0  0  0
    1.4141   24.6036  -27.1911 H   0  0  0  0  0  0  0  0  0  0  0  0
   -2.0810   24.3480  -26.1570 H   0  0  0  0  0  0  0  0  0  0  0  0
   -4.0941   23.0385  -26.6187 H   0  0  0  0  0  0  0  0  0  0  0  0
   -5.1039   23.0310  -28.8678 H   0  0  0  0  0  0  0  0  0  0  0  0
   -6.7021   25.0498  -30.4306 H   0  0  0  0  0  0  0  0  0  0  0  0
   -8.6901   23.7470  -31.1155 H   0  0  0  0  0  0  0  0  0  0  0  0
   -8.4166   21.5680  -32.3056 H   0  0  0  0  0  0  0  0  0  0  0  0
   -6.1173   20.7495  -32.7829 H   0  0  0  0  0  0  0  0  0  0  0  0
   -4.1623   22.0489  -32.0976 H   0  0  0  0  0  0  0  0  0  0  0  0
   -2.0380   25.6500  -30.0910 H   0  0  0  0  0  0  0  0  0  0  0  0
   -1.7789   27.0511  -25.7301 H   0  0  0  0  0  0  0  0  0  0  0  0
  1  2  1  0
  2  3  2  0
  3  4  1  0
  4  5  2  0
  5  6  1  0
  6  7  1  0
  7  8  2  0
  8  9  1  0
  9 10  1  0
 10 11  2  0
 11 12  1  0
 12 13  2  0
 13 14  1  0
 14 15  2  0
 15 16  1  0
 16 17  2  0
 17 18  1  0
 18 19  2  0
 12 20  1  0
  6 21  2  0
 21  2  1  0
 20  8  1  0
 19 14  1  0
  1 22  1  0
  1 23  1  0
  3 24  1  0
  4 25  1  0
  5 26  1  0
  9 27  1  0
 10 28  1  0
 11 29  1  0
 15 30  1  0
 16 31  1  0
 17 32  1  0
 18 33  1  0
 19 34  1  0
 20 35  1  0
 21 36  1  0
M  END
>  <smiles>  (29) 
Nc1cccc(N=c2[nH]ccc(=Nc3ccccc3)[nH]2)c1

>  <score_type>  (29) 
oracle

>  <origin>  (29) 
adgpu

>  <m_score__min__energy>  (29) 
-8.4199999999999999

>  <m_primary>  (29) 
energy

$$$$
29:0
     RDKit          3D

 32 34  0  0  1  0  0  0  0  0999 V2000
   -2.3840   24.8100  -28.6050 C   0  0  0  0  0  0  0  0  0  0  0  0
   -3.1200   25.2820  -29.7200 O   0  0  0  0  0  0  0  0  0  0  0  0
   -4.2770   24.6550  -30.1610 C   0  0  0  0  0  0  0  0  0  0  0  0
   -5.5120   25.2650  -30.0270 C   0  0  0  0  0  0  0  0  0  0  0  0
   -6.6860   24.6450  -30.4670 C   0  0  0  0  0  0  0  0  0  0  0  0
   -6.5950   23.3970  -31.0490 C   0  0  0  0  0  0  0  0  0  0  0  0
   -5.3560   22.7800  -31.1870 C   0  0  0  0  0  0  0  0  0  0  0  0
   -5.2610   21.5300  -31.7690 C   0  0  0  0  0  0  0  0  0  0  0  0
   -6.3320   20.9770  -32.1640 N   0  0  0  0  0  0  0  0  0  0  0  0
   -6.4100   19.6970  -32.7820 C   0  0  0  0  0  0  0  0  0  0  0  0
   -5.7740   19.4520  -33.9830 C   0  0  0  0  0  0  0  0  0  0  0  0
   -5.8720   18.1840  -34.5600 C   0  0  0  0  0  0  0  0  0  0  0  0
   -6.6000   17.1690  -33.9400 C   0  0  0  0  0  0  0  0  0  0  0  0
   -6.6780   15.9400  -34.5290 F   0  0  0  0  0  0  0  0  0  0  0  0
   -7.2370   17.4290  -32.7290 C   0  0  0  0  0  0  0  0  0  0  0  0
   -7.1400   18.6960  -32.1510 C   0  0  0  0  0  0  0  0  0  0  0  0
   -4.1040   20.8860  -31.9300 N   0  0  0  0  0  0  0  0  0  0  0  0
   -2.9940   21.5240  -31.4880 C   0  0  0  0  0  0  0  0  0  0  0  0
   -1.4040   20.7900  -31.6380 Cl  0  0  0  0  0  0  0  0  0  0  0  0
   -3.0410   22.7440  -30.9150 N   0  0  0  0  0  0  0  0  0  0  0  0
   -4.2000   23.4060  -30.7450 C   0  0  0  0  0  0  0  0  0  0  0  0
   -2.8805   25.1284  -27.6765 H   0  0  0  0  0  0  0  0  0  0  0  0
   -2.3349   23.7115  -28.6364 H   0  0  0  0  0  0  0  0  0  0  0  0
   -1.3652   25.2236  -28.6364 H   0  0  0  0  0  0  0  0  0  0  0  0
   -5.5717   26.2608  -29.5636 H   0  0  0  0  0  0  0  0  0  0  0  0
   -7.6608   25.1414  -30.3516 H   0  0  0  0  0  0  0  0  0  0  0  0
   -7.5038   22.8893  -31.4044 H   0  0  0  0  0  0  0  0  0  0  0  0
   -5.1970   20.2462  -34.4793 H   0  0  0  0  0  0  0  0  0  0  0  0
   -5.3679   17.9831  -35.5168 H   0  0  0  0  0  0  0  0  0  0  0  0
   -7.8152   16.6378  -32.2292 H   0  0  0  0  0  0  0  0  0  0  0  0
   -7.6421   18.9028  -31.1944 H   0  0  0  0  0  0  0  0  0  0  0  0
   -2.1700   23.2380  -30.5710 H   0  0  0  0  0  0  0  0  0  0  0  0
  1  2  1  0
  2  3  1  0
  3  4  2  0
  4  5  1  0
  5  6  2  0
  6  7  1  0
  7  8  1  0
  8  9  2  0
  9 10  1  0
 10 11  2  0
 11 12  1  0
 12 13  2  0
 13 14  1  0
 13 15  1  0
 15 16  2  0
  8 17  1  0
 17 18  2  0
 18 19  1  0
 18 20  1  0
 20 21  1  0
 21  3  1  0
 21  7  2  0
 16 10  1  0
  1 22  1  0
  1 23  1  0
  1 24  1  0
  4 25  1  0
  5 26  1  0
  6 27  1  0
 11 28  1  0
 12 29  1  0
 15 30  1  0
 16 31  1  0
 20 32  1  0
M  END
>  <smiles>  (30) 
COc1cccc2c(=Nc3ccc(F)cc3)nc(Cl)[nH]c12

>  <score_type>  (30) 
oracle

>  <origin>  (30) 
adgpu

>  <m_score__min__energy>  (30) 
-7.96

>  <m_primary>  (30) 
energy

$$$$
30:0
     RDKit          3D

 28 30  0  0  0  0  0  0  0  0999 V2000
   -1.1410   22.5610  -29.2430 C   0  0  0  0  0  0  0  0  0  0  0  0
   -1.9320   22.7070  -30.4190 O   0  0  0  0  0  0  0  0  0  0  0  0
   -3.2440   23.2070  -30.4360 C   0  0  0  0  0  0  0  0  0  0  0  0
   -4.3380   22.4360  -30.8750 C   0  0  0  0  0  0  0  0  0  0  0  0
   -5.6400   22.9710  -30.8770 C   0  0  0  0  0  0  0  0  0  0  0  0
   -6.7900   22.1560  -31.3410 C   0  0  0  0  0  0  0  0  0  0  0  0
   -8.0650   22.7480  -31.5480 C   0  0  0  0  0  0  0  0  0  0  0  0
   -9.1540   21.9770  -31.9880 C   0  0  0  0  0  0  0  0  0  0  0  0
   -8.9320   20.6230  -32.2090 C   0  0  0  0  0  0  0  0  0  0  0  0
   -9.8270   19.7120  -32.6300 N   0  0  0  0  0  0  0  0  0  0  0  0
   -9.1700   18.5570  -32.7020 N   0  0  0  0  0  0  0  0  0  0  0  0
   -7.8910   18.7870  -32.3230 C   0  0  0  0  0  0  0  0  0  0  0  0
   -7.7280   20.0800  -32.0110 N   0  0  0  0  0  0  0  0  0  0  0  0
   -6.6420   20.7730  -31.5880 C   0  0  0  0  0  0  0  0  0  0  0  0
   -5.8340   24.2910  -30.4340 C   0  0  0  0  0  0  0  0  0  0  0  0
   -4.7520   25.0580  -29.9990 C   0  0  0  0  0  0  0  0  0  0  0  0
   -3.4620   24.5210  -30.0000 C   0  0  0  0  0  0  0  0  0  0  0  0
   -2.3950   25.2980  -29.5660 O   0  0  0  0  0  0  0  0  0  0  0  0
   -1.7792   22.6788  -28.3549 H   0  0  0  0  0  0  0  0  0  0  0  0
   -0.6796   21.5625  -29.2331 H   0  0  0  0  0  0  0  0  0  0  0  0
   -0.3535   23.3290  -29.2331 H   0  0  0  0  0  0  0  0  0  0  0  0
   -4.1731   21.4046  -31.2200 H   0  0  0  0  0  0  0  0  0  0  0  0
   -8.2012   23.8235  -31.3614 H   0  0  0  0  0  0  0  0  0  0  0  0
  -10.1441   22.4276  -32.1513 H   0  0  0  0  0  0  0  0  0  0  0  0
   -7.1004   18.0235  -32.2777 H   0  0  0  0  0  0  0  0  0  0  0  0
   -5.6734   20.2726  -31.4414 H   0  0  0  0  0  0  0  0  0  0  0  0
   -6.8458   24.7225  -30.4302 H   0  0  0  0  0  0  0  0  0  0  0  0
   -4.9155   26.0896  -29.6539 H   0  0  0  0  0  0  0  0  0  0  0  0
  1  2  1  0
  2  3  1  0
  3  4  2  0
  4  5  1  0
  5  6  1  0
  6  7  1  0
  7  8  2  0
  8  9  1  0
  9 10  2  0
 10 11  1  0
 11 12  2  0
 12 13  1  0
 13 14  1  0
  5 15  2  0
 15 16  1  0
 16 17  2  0
 17 18  1  0
 17  3  1  0
 14  6  2  0
 13  9  1  0
  1 19  1  0
  1 20  1  0
  1 21  1  0
  4 22  1  0
  7 23  1  0
  8 24  1  0
 12 25  1  0
 14 26  1  0
 15 27  1  0
 16 28  1  0
M  CHG  1  18  -1
M  END
>  <UniqueID>  (31) 
28

>  <SMILES>  (31) 
COc1cc(-c2ccc3nncn3c2)ccc1[O-]

>  <Energy>  (31) 
76.0752199285612

>  <Genealogy>  (31) 
COc1cc(-c2ccc3nncn3c2)ccc1[O-] (protonated)
COc1cc(-c2ccc3nncn3c2)ccc1[O-] (3D coordinates assigned)
COc1cc(-c2ccc3nncn3c2)ccc1[O-] (optimized conformer: 76.0752199285612 kcal/mol)

>  <smiles>  (31) 
COc1cc(-c2ccc3nncn3c2)ccc1O

>  <score_type>  (31) 
oracle

>  <origin>  (31) 
adgpu

>  <m_score__min__energy>  (31) 
-9.7799999999999994

>  <m_primary>  (31) 
energy

$$$$
31:0
     RDKit          3D

 27 27  0  0  0  0  0  0  0  0999 V2000
   -4.0100   25.6710  -31.0250 O   0  0  0  0  0  0  0  0  0  0  0  0
   -5.3250   25.2480  -30.7810 C   0  0  0  0  0  0  0  0  0  0  0  0
   -5.4140   24.5520  -29.4220 C   0  0  0  0  0  0  0  0  0  0  0  0
   -4.2950   23.6110  -29.2510 N   0  0  0  0  0  0  0  0  0  0  0  0
   -3.5430   23.6470  -27.9850 C   0  0  0  0  0  0  0  0  0  0  0  0
   -2.3080   24.5410  -28.1150 C   0  0  0  0  0  0  0  0  0  0  0  0
   -2.3380   25.2350  -29.3330 O   0  0  0  0  0  0  0  0  0  0  0  0
   -3.9670   22.6860  -30.3230 C   0  0  0  0  0  0  0  0  0  0  0  0
   -4.8630   21.6840  -30.7500 C   0  0  0  0  0  0  0  0  0  0  0  0
   -4.4970   20.8250  -31.7880 C   0  0  0  0  0  0  0  0  0  0  0  0
   -3.2500   20.9600  -32.3980 C   0  0  0  0  0  0  0  0  0  0  0  0
   -2.7370   19.7910  -33.8190 Br  0  0  0  0  0  0  0  0  0  0  0  0
   -2.3830   21.9590  -31.9570 C   0  0  0  0  0  0  0  0  0  0  0  0
   -2.7570   22.7860  -30.9460 N   0  0  0  0  0  0  0  0  0  0  0  0
   -3.4780   24.8530  -31.2050 H   0  0  0  0  0  0  0  0  0  0  0  0
   -5.9941   26.1211  -30.7863 H   0  0  0  0  0  0  0  0  0  0  0  0
   -5.6250   24.5392  -31.5669 H   0  0  0  0  0  0  0  0  0  0  0  0
   -5.3759   25.3087  -28.6245 H   0  0  0  0  0  0  0  0  0  0  0  0
   -6.3601   23.9933  -29.3695 H   0  0  0  0  0  0  0  0  0  0  0  0
   -4.1927   24.0420  -27.1901 H   0  0  0  0  0  0  0  0  0  0  0  0
   -3.2162   22.6260  -27.7385 H   0  0  0  0  0  0  0  0  0  0  0  0
   -2.2936   25.2634  -27.2856 H   0  0  0  0  0  0  0  0  0  0  0  0
   -1.4055   23.9130  -28.0822 H   0  0  0  0  0  0  0  0  0  0  0  0
   -2.4150   24.5500  -30.0470 H   0  0  0  0  0  0  0  0  0  0  0  0
   -5.8459   21.5797  -30.2673 H   0  0  0  0  0  0  0  0  0  0  0  0
   -5.1921   20.0418  -32.1247 H   0  0  0  0  0  0  0  0  0  0  0  0
   -1.3959   22.0776  -32.4278 H   0  0  0  0  0  0  0  0  0  0  0  0
  1  2  1  0
  2  3  1  0
  3  4  1  0
  4  5  1  0
  5  6  1  0
  6  7  1  0
  4  8  1  0
  8  9  2  0
  9 10  1  0
 10 11  2  0
 11 12  1  0
 11 13  1  0
 13 14  2  0
 14  8  1  0
  1 15  1  0
  2 16  1  0
  2 17  1  0
  3 18  1  0
  3 19  1  0
  5 20  1  0
  5 21  1  0
  6 22  1  0
  6 23  1  0
  7 24  1  0
  9 25  1  0
 10 26  1  0
 13 27  1  0
M  END
>  <UniqueID>  (32) 
29

>  <SMILES>  (32) 
OCCN(CCO)c1ccc(Br)cn1

>  <Energy>  (32) 
21.66547668815638

>  <Genealogy>  (32) 
OCCN(CCO)c1ccc(Br)cn1 (3D coordinates assigned)
OCCN(CCO)c1ccc(Br)cn1 (optimized conformer: 21.66547668815638 kcal/mol)

>  <smiles>  (32) 
OCCN(CCO)c1ccc(Br)cn1

>  <score_type>  (32) 
oracle

>  <origin>  (32) 
adgpu

>  <m_score__min__energy>  (32) 
-5.7199999999999998

>  <m_primary>  (32) 
energy

$$$$
32:0
     RDKit          3D

 39 40  0  0  0  0  0  0  0  0999 V2000
   -0.8400   26.5850  -27.8810 C   0  0  0  0  0  0  0  0  0  0  0  0
   -1.5340   25.9730  -28.9630 O   0  0  0  0  0  0  0  0  0  0  0  0
   -1.9970   24.6490  -28.9660 C   0  0  0  0  0  0  0  0  0  0  0  0
   -1.3560   23.6380  -28.2210 C   0  0  0  0  0  0  0  0  0  0  0  0
   -1.8870   22.3450  -28.1820 C   0  0  0  0  0  0  0  0  0  0  0  0
   -3.0600   22.0490  -28.8760 C   0  0  0  0  0  0  0  0  0  0  0  0
   -3.6920   23.0370  -29.6320 C   0  0  0  0  0  0  0  0  0  0  0  0
   -3.1510   24.3270  -29.7090 C   0  0  0  0  0  0  0  0  0  0  0  0
   -3.8310   25.3090  -30.5010 N   0  0  0  0  0  0  0  0  0  0  0  0
   -5.2460   25.5410  -30.5350 C   0  0  0  0  0  0  0  0  0  0  0  0
   -5.6830   26.6690  -30.1870 O   0  0  0  0  0  0  0  0  0  0  0  0
   -6.2280   24.4820  -30.9510 C   0  0  0  0  0  0  0  0  0  0  0  0
   -5.6610   23.6480  -31.9600 O   0  0  0  0  0  0  0  0  0  0  0  0
   -6.0750   22.3350  -32.2370 C   0  0  0  0  0  0  0  0  0  0  0  0
   -7.4010   21.9130  -32.0160 C   0  0  0  0  0  0  0  0  0  0  0  0
   -7.7970   20.6040  -32.3270 C   0  0  0  0  0  0  0  0  0  0  0  0
   -9.2020   20.1550  -32.0540 C   0  0  0  0  0  0  0  0  0  0  0  0
   -6.8550   19.7010  -32.8370 C   0  0  0  0  0  0  0  0  0  0  0  0
   -5.5380   20.1080  -33.0570 C   0  0  0  0  0  0  0  0  0  0  0  0
   -5.1360   21.4170  -32.7490 C   0  0  0  0  0  0  0  0  0  0  0  0
   -3.7240   21.8410  -33.0400 C   0  0  0  0  0  0  0  0  0  0  0  0
   -1.2524   26.2213  -26.9283 H   0  0  0  0  0  0  0  0  0  0  0  0
    0.2284   26.3296  -27.9394 H   0  0  0  0  0  0  0  0  0  0  0  0
   -0.9597   27.6769  -27.9394 H   0  0  0  0  0  0  0  0  0  0  0  0
   -0.4335   23.8676  -27.6676 H   0  0  0  0  0  0  0  0  0  0  0  0
   -1.3787   21.5599  -27.6029 H   0  0  0  0  0  0  0  0  0  0  0  0
   -3.4870   21.0364  -28.8274 H   0  0  0  0  0  0  0  0  0  0  0  0
   -4.6214   22.8014  -30.1712 H   0  0  0  0  0  0  0  0  0  0  0  0
   -6.4900   23.8671  -30.0773 H   0  0  0  0  0  0  0  0  0  0  0  0
   -7.1285   24.9684  -31.3541 H   0  0  0  0  0  0  0  0  0  0  0  0
   -8.1334   22.6176  -31.5951 H   0  0  0  0  0  0  0  0  0  0  0  0
   -9.3656   20.1027  -30.9675 H   0  0  0  0  0  0  0  0  0  0  0  0
   -9.9087   20.8720  -32.4972 H   0  0  0  0  0  0  0  0  0  0  0  0
   -9.3619   19.1610  -32.4972 H   0  0  0  0  0  0  0  0  0  0  0  0
   -7.1544   18.6674  -33.0649 H   0  0  0  0  0  0  0  0  0  0  0  0
   -4.8097   19.3974  -33.4749 H   0  0  0  0  0  0  0  0  0  0  0  0
   -3.1871   22.0022  -32.0935 H   0  0  0  0  0  0  0  0  0  0  0  0
   -3.2173   21.0554  -33.6197 H   0  0  0  0  0  0  0  0  0  0  0  0
   -3.7339   22.7758  -33.6197 H   0  0  0  0  0  0  0  0  0  0  0  0
  1  2  1  0
  2  3  1  0
  3  4  2  0
  4  5  1  0
  5  6  2  0
  6  7  1  0
  7  8  2  0
  8  9  1  0
  9 10  1  0
 10 11  2  0
 10 12  1  0
 12 13  1  0
 13 14  1  0
 14 15  2  0
 15 16  1  0
 16 17  1  0
 16 18  2  0
 18 19  1  0
 19 20  2  0
 20 21  1  0
  8  3  1  0
 20 14  1  0
  1 22  1  0
  1 23  1  0
  1 24  1  0
  4 25  1  0
  5 26  1  0
  6 27  1  0
  7 28  1  0
 12 29  1  0
 12 30  1  0
 15 31  1  0
 17 32  1  0
 17 33  1  0
 17 34  1  0
 18 35  1  0
 19 36  1  0
 21 37  1  0
 21 38  1  0
 21 39  1  0
M  CHG  1   9  -1
M  END
>  <UniqueID>  (33) 
30

>  <SMILES>  (33) 
COc1ccccc1[N-]C(=O)COc1cc(C)ccc1C

>  <Energy>  (33) 
40.76157158963874

>  <Genealogy>  (33) 
COc1ccccc1[N-]C(=O)COc1cc(C)ccc1C (protonated)
COc1ccccc1[N-]C(=O)COc1cc(C)ccc1C (3D coordinates assigned)
COc1ccccc1[N-]C(=O)COc1cc(C)ccc1C (optimized conformer: 40.76157158963874 kcal/mol)

>  <smiles>  (33) 
COc1ccccc1NC(=O)COc1cc(C)ccc1C

>  <score_type>  (33) 
oracle

>  <origin>  (33) 
adgpu

>  <m_score__min__energy>  (33) 
-10.09

>  <m_primary>  (33) 
energy

$$$$
33:0
     RDKit          3D

 42 45  0  0  0  0  0  0  0  0999 V2000
   -8.7930   22.3940  -31.9030 C   0  0  0  0  0  0  0  0  0  0  0  0
   -7.6670   23.1900  -32.2610 O   0  0  0  0  0  0  0  0  0  0  0  0
   -6.6310   23.5460  -31.3810 C   0  0  0  0  0  0  0  0  0  0  0  0
   -6.4750   24.8630  -30.9090 C   0  0  0  0  0  0  0  0  0  0  0  0
   -5.4350   25.1840  -30.0360 C   0  0  0  0  0  0  0  0  0  0  0  0
   -4.5250   24.2000  -29.6230 C   0  0  0  0  0  0  0  0  0  0  0  0
   -3.4120   24.5390  -28.7120 C   0  0  0  0  0  0  0  0  0  0  0  0
   -3.3400   24.1080  -27.4220 N   0  0  0  0  0  0  0  0  0  0  0  0
   -2.1850   24.6540  -27.0080 C   0  0  0  0  0  0  0  0  0  0  0  0
   -1.5900   24.5510  -25.7520 C   0  0  0  0  0  0  0  0  0  0  0  0
   -0.3660   25.2200  -25.5540 C   0  0  0  0  0  0  0  0  0  0  0  0
    0.2220   25.9630  -26.6030 C   0  0  0  0  0  0  0  0  0  0  0  0
   -0.4080   26.0450  -27.8600 C   0  0  0  0  0  0  0  0  0  0  0  0
   -1.6170   25.3710  -28.0150 C   0  0  0  0  0  0  0  0  0  0  0  0
   -2.3840   25.2940  -29.0680 O   0  0  0  0  0  0  0  0  0  0  0  0
   -4.6760   22.8870  -30.0940 C   0  0  0  0  0  0  0  0  0  0  0  0
   -5.7340   22.5490  -30.9560 C   0  0  0  0  0  0  0  0  0  0  0  0
   -5.8710   21.2080  -31.4580 N   0  0  0  0  0  0  0  0  0  0  0  0
   -5.2970   20.7620  -32.7000 C   0  0  0  0  0  0  0  0  0  0  0  0
   -4.5900   21.5530  -33.3860 O   0  0  0  0  0  0  0  0  0  0  0  0
   -5.5130   19.3820  -33.1950 C   0  0  0  0  0  0  0  0  0  0  0  0
   -6.7270   18.7250  -32.9260 C   0  0  0  0  0  0  0  0  0  0  0  0
   -6.9490   17.4240  -33.3880 C   0  0  0  0  0  0  0  0  0  0  0  0
   -5.9670   16.7680  -34.1330 C   0  0  0  0  0  0  0  0  0  0  0  0
   -4.7610   17.4140  -34.4210 C   0  0  0  0  0  0  0  0  0  0  0  0
   -3.5370   16.5950  -35.3750 Cl  0  0  0  0  0  0  0  0  0  0  0  0
   -4.5350   18.7150  -33.9600 C   0  0  0  0  0  0  0  0  0  0  0  0
   -8.8700   22.3396  -30.8070 H   0  0  0  0  0  0  0  0  0  0  0  0
   -9.7077   22.8473  -32.3128 H   0  0  0  0  0  0  0  0  0  0  0  0
   -8.6707   21.3805  -32.3128 H   0  0  0  0  0  0  0  0  0  0  0  0
   -7.1784   25.6451  -31.2309 H   0  0  0  0  0  0  0  0  0  0  0  0
   -5.3281   26.2156  -29.6693 H   0  0  0  0  0  0  0  0  0  0  0  0
   -2.0587   23.9688  -24.9449 H   0  0  0  0  0  0  0  0  0  0  0  0
    0.1354   25.1638  -24.5766 H   0  0  0  0  0  0  0  0  0  0  0  0
    1.1782   26.4807  -26.4364 H   0  0  0  0  0  0  0  0  0  0  0  0
    0.0371   26.6185  -28.6864 H   0  0  0  0  0  0  0  0  0  0  0  0
   -3.9581   22.1129  -29.7852 H   0  0  0  0  0  0  0  0  0  0  0  0
   -6.3840   20.5250  -30.8580 H   0  0  0  0  0  0  0  0  0  0  0  0
   -7.5086   19.2389  -32.3472 H   0  0  0  0  0  0  0  0  0  0  0  0
   -7.8989   16.9165  -33.1641 H   0  0  0  0  0  0  0  0  0  0  0  0
   -6.1422   15.7435  -34.4931 H   0  0  0  0  0  0  0  0  0  0  0  0
   -3.5874   19.2212  -34.1961 H   0  0  0  0  0  0  0  0  0  0  0  0
  1  2  1  0
  2  3  1  0
  3  4  2  0
  4  5  1  0
  5  6  2  0
  6  7  1  0
  7  8  2  0
  8  9  1  0
  9 10  2  0
 10 11  1  0
 11 12  2  0
 12 13  1  0
 13 14  2  0
 14 15  1  0
  6 16  1  0
 16 17  2  0
 17 18  1  0
 18 19  1  0
 19 20  2  0
 19 21  1  0
 21 22  2  0
 22 23  1  0
 23 24  2  0
 24 25  1  0
 25 26  1  0
 25 27  2  0
 17  3  1  0
 27 21  1  0
 15  7  1  0
 14  9  1  0
  1 28  1  0
  1 29  1  0
  1 30  1  0
  4 31  1  0
  5 32  1  0
 10 33  1  0
 11 34  1  0
 12 35  1  0
 13 36  1  0
 16 37  1  0
 18 38  1  0
 22 39  1  0
 23 40  1  0
 24 41  1  0
 27 42  1  0
M  END
>  <UniqueID>  (34) 
31

>  <SMILES>  (34) 
COc1ccc(-c2nc3ccccc3o2)cc1NC(=O)c1cccc(Cl)c1

>  <Energy>  (34) 
91.14237133882992

>  <Genealogy>  (34) 
COc1ccc(-c2nc3ccccc3o2)cc1NC(=O)c1cccc(Cl)c1 (3D coordinates assigned)
COc1ccc(-c2nc3ccccc3o2)cc1NC(=O)c1cccc(Cl)c1 (optimized conformer: 91.14237133882992 kcal/mol)

>  <smiles>  (34) 
COc1ccc(-c2nc3ccccc3o2)cc1NC(=O)c1cccc(Cl)c1

>  <score_type>  (34) 
oracle

>  <origin>  (34) 
adgpu

>  <m_score__min__energy>  (34) 
-8.8300000000000001

>  <m_primary>  (34) 
energy

$$$$
34:0
     RDKit          3D

 34 34  0  0  0  0  0  0  0  0999 V2000
   -4.4840   19.2540  -33.5960 C   0  0  0  0  0  0  0  0  0  0  0  0
   -5.7440   19.9310  -33.1650 C   0  0  0  0  0  0  0  0  0  0  0  0
   -6.9700   19.3820  -33.2980 N   0  0  0  0  0  0  0  0  0  0  0  0
   -7.8470   20.2250  -32.7760 N   0  0  0  0  0  0  0  0  0  0  0  0
   -9.2790   19.9540  -32.7070 C   0  0  0  0  0  0  0  0  0  0  0  0
   -7.1990   21.3050  -32.2920 C   0  0  0  0  0  0  0  0  0  0  0  0
   -7.8200   22.3780  -31.5660 N   0  0  0  0  0  0  0  0  0  0  0  0
   -8.5310   23.4230  -32.3040 C   0  0  0  0  0  0  0  0  0  0  0  0
   -7.9640   22.2950  -30.1140 C   0  0  0  0  0  0  0  0  0  0  0  0
   -5.8440   21.1610  -32.5320 C   0  0  0  0  0  0  0  0  0  0  0  0
   -4.7310   22.0590  -32.0780 C   0  0  0  0  0  0  0  0  0  0  0  0
   -5.1010   23.4550  -32.3130 N   0  0  0  0  0  0  0  0  0  0  0  0
   -5.0410   24.3490  -30.8240 S   0  0  0  0  0  0  0  0  0  0  0  0
   -4.8880   23.2490  -29.4320 C   0  0  0  0  0  0  0  0  0  0  0  0
   -6.3090   25.1400  -30.6810 O   0  0  0  0  0  0  0  0  0  0  0  0
   -3.8740   25.2970  -30.8440 O   0  0  0  0  0  0  0  0  0  0  0  0
   -3.9112   18.9462  -32.7088 H   0  0  0  0  0  0  0  0  0  0  0  0
   -4.7316   18.3675  -34.1983 H   0  0  0  0  0  0  0  0  0  0  0  0
   -3.8814   19.9498  -34.1983 H   0  0  0  0  0  0  0  0  0  0  0  0
   -9.5907   19.8950  -31.6537 H   0  0  0  0  0  0  0  0  0  0  0  0
   -9.8300   20.7638  -33.2076 H   0  0  0  0  0  0  0  0  0  0  0  0
   -9.4960   18.9989  -33.2076 H   0  0  0  0  0  0  0  0  0  0  0  0
   -9.0033   24.1171  -31.5933 H   0  0  0  0  0  0  0  0  0  0  0  0
   -7.8195   23.9739  -32.9367 H   0  0  0  0  0  0  0  0  0  0  0  0
   -9.3046   22.9634  -32.9367 H   0  0  0  0  0  0  0  0  0  0  0  0
   -7.1074   22.7887  -29.6318 H   0  0  0  0  0  0  0  0  0  0  0  0
   -8.8950   22.7950  -29.8087 H   0  0  0  0  0  0  0  0  0  0  0  0
   -7.9980   21.2388  -29.8087 H   0  0  0  0  0  0  0  0  0  0  0  0
   -4.5501   21.9038  -31.0041 H   0  0  0  0  0  0  0  0  0  0  0  0
   -3.8171   21.8228  -32.6428 H   0  0  0  0  0  0  0  0  0  0  0  0
   -6.0920   23.4790  -32.6460 H   0  0  0  0  0  0  0  0  0  0  0  0
   -4.9682   23.8255  -28.4986 H   0  0  0  0  0  0  0  0  0  0  0  0
   -5.6902   22.4973  -29.4688 H   0  0  0  0  0  0  0  0  0  0  0  0
   -3.9111   22.7448  -29.4688 H   0  0  0  0  0  0  0  0  0  0  0  0
  1  2  1  0
  2  3  2  0
  3  4  1  0
  4  5  1  0
  4  6  1  0
  6  7  1  0
  7  8  1  0
  7  9  1  0
  6 10  2  0
 10 11  1  0
 11 12  1  0
 12 13  1  0
 13 14  1  0
 13 15  2  0
 13 16  2  0
 10  2  1  0
  1 17  1  0
  1 18  1  0
  1 19  1  0
  5 20  1  0
  5 21  1  0
  5 22  1  0
  8 23  1  0
  8 24  1  0
  8 25  1  0
  9 26  1  0
  9 27  1  0
  9 28  1  0
 11 29  1  0
 11 30  1  0
 12 31  1  0
 14 32  1  0
 14 33  1  0
 14 34  1  0
M  END
>  <UniqueID>  (35) 
32

>  <SMILES>  (35) 
Cc1nn(C)c(N(C)C)c1CNS(C)(=O)=O

>  <Energy>  (35) 
54.625826873477514

>  <Genealogy>  (35) 
Cc1nn(C)c(N(C)C)c1CNS(C)(=O)=O (3D coordinates assigned)
Cc1nn(C)c(N(C)C)c1CNS(C)(=O)=O (optimized conformer: 54.625826873477514 kcal/mol)

>  <smiles>  (35) 
Cc1nn(C)c(N(C)C)c1CNS(C)(=O)=O

>  <score_type>  (35) 
oracle

>  <origin>  (35) 
adgpu

>  <m_score__min__energy>  (35) 
-6.6399999999999997

>  <m_primary>  (35) 
energy

$$$$
35:0
     RDKit          3D

 25 26  0  0  0  0  0  0  0  0999 V2000
   -8.7100   21.6790  -31.7860 C   0  0  0  0  0  0  0  0  0  0  0  0
   -7.3430   22.2720  -31.6550 C   0  0  0  0  0  0  0  0  0  0  0  0
   -7.1600   23.5360  -31.1840 N   0  0  0  0  0  0  0  0  0  0  0  0
   -5.9040   24.0290  -31.0840 C   0  0  0  0  0  0  0  0  0  0  0  0
   -5.7100   25.6740  -30.4670 Cl  0  0  0  0  0  0  0  0  0  0  0  0
   -4.8270   23.3150  -31.4340 N   0  0  0  0  0  0  0  0  0  0  0  0
   -4.9370   22.0590  -31.9080 C   0  0  0  0  0  0  0  0  0  0  0  0
   -3.9150   21.3460  -32.2540 N   0  0  0  0  0  0  0  0  0  0  0  0
   -6.2210   21.5520  -32.0110 C   0  0  0  0  0  0  0  0  0  0  0  0
   -6.3340   20.1850  -32.5270 C   0  0  0  0  0  0  0  0  0  0  0  0
   -6.0000   19.9090  -33.8440 C   0  0  0  0  0  0  0  0  0  0  0  0
   -6.1120   18.6090  -34.3190 C   0  0  0  0  0  0  0  0  0  0  0  0
   -6.5560   17.6140  -33.4680 C   0  0  0  0  0  0  0  0  0  0  0  0
   -6.6830   16.3330  -33.8820 F   0  0  0  0  0  0  0  0  0  0  0  0
   -6.8940   17.8790  -32.1510 C   0  0  0  0  0  0  0  0  0  0  0  0
   -6.7800   19.1510  -31.6970 C   0  0  0  0  0  0  0  0  0  0  0  0
   -9.1284   21.4975  -30.7850 H   0  0  0  0  0  0  0  0  0  0  0  0
   -9.3609   22.3757  -32.3347 H   0  0  0  0  0  0  0  0  0  0  0  0
   -8.6460   20.7278  -32.3347 H   0  0  0  0  0  0  0  0  0  0  0  0
   -7.9990   24.0930  -30.9100 H   0  0  0  0  0  0  0  0  0  0  0  0
   -2.9780   21.8070  -32.1440 H   0  0  0  0  0  0  0  0  0  0  0  0
   -5.6491   20.7133  -34.5073 H   0  0  0  0  0  0  0  0  0  0  0  0
   -5.8503   18.3734  -35.3611 H   0  0  0  0  0  0  0  0  0  0  0  0
   -7.2470   17.0750  -31.4884 H   0  0  0  0  0  0  0  0  0  0  0  0
   -7.0440   19.3752  -30.6529 H   0  0  0  0  0  0  0  0  0  0  0  0
  1  2  1  0
  2  3  1  0
  3  4  1  0
  4  5  1  0
  4  6  2  0
  6  7  1  0
  7  8  2  3
  7  9  1  0
  9 10  1  0
 10 11  2  0
 11 12  1  0
 12 13  2  0
 13 14  1  0
 13 15  1  0
 15 16  2  0
  9  2  2  0
 16 10  1  0
  1 17  1  0
  1 18  1  0
  1 19  1  0
  3 20  1  0
  8 21  1  0
 11 22  1  0
 12 23  1  0
 15 24  1  0
 16 25  1  0
M  END
>  <smiles>  (36) 
Cc1[nH]c(Cl)nc(=N)c1-c1ccc(F)cc1

>  <score_type>  (36) 
oracle

>  <origin>  (36) 
adgpu

>  <m_score__min__energy>  (36) 
-6.4500000000000002

>  <m_primary>  (36) 
energy

$$$$
36:0
     RDKit          3D

 43 44  0  0  0  0  0  0  0  0999 V2000
   -7.4910   17.9600  -32.0340 C   0  0  0  0  0  0  0  0  0  0  0  0
   -6.9390   19.1740  -31.5390 O   0  0  0  0  0  0  0  0  0  0  0  0
   -7.5470   20.4370  -31.6550 C   0  0  0  0  0  0  0  0  0  0  0  0
   -8.8770   20.6630  -31.2470 C   0  0  0  0  0  0  0  0  0  0  0  0
   -9.4550   21.9260  -31.3930 C   0  0  0  0  0  0  0  0  0  0  0  0
   -8.7200   22.9740  -31.9490 C   0  0  0  0  0  0  0  0  0  0  0  0
   -7.4020   22.7640  -32.3580 C   0  0  0  0  0  0  0  0  0  0  0  0
   -6.8020   21.5040  -32.2020 C   0  0  0  0  0  0  0  0  0  0  0  0
   -5.3880   21.2790  -32.6790 C   0  0  0  0  0  0  0  0  0  0  0  0
   -4.6980   20.3090  -31.8090 N   0  0  0  0  0  0  0  0  0  0  0  0
   -3.2490   20.5650  -31.7340 C   0  0  0  0  0  0  0  0  0  0  0  0
   -2.9400   21.8140  -30.9370 C   0  0  0  0  0  0  0  0  0  0  0  0
   -1.8750   21.8290  -30.0250 C   0  0  0  0  0  0  0  0  0  0  0  0
   -1.5610   22.9950  -29.3260 C   0  0  0  0  0  0  0  0  0  0  0  0
   -2.3030   24.1730  -29.5330 C   0  0  0  0  0  0  0  0  0  0  0  0
   -2.0090   25.3670  -28.8560 O   0  0  0  0  0  0  0  0  0  0  0  0
   -1.6180   25.4440  -27.4900 C   0  0  0  0  0  0  0  0  0  0  0  0
   -3.3690   24.1680  -30.4460 C   0  0  0  0  0  0  0  0  0  0  0  0
   -4.0820   25.3610  -30.6440 O   0  0  0  0  0  0  0  0  0  0  0  0
   -5.4810   25.5100  -30.4260 C   0  0  0  0  0  0  0  0  0  0  0  0
   -3.6900   22.9840  -31.1370 C   0  0  0  0  0  0  0  0  0  0  0  0
   -7.7827   17.3186  -31.1893 H   0  0  0  0  0  0  0  0  0  0  0  0
   -8.3762   18.1831  -32.6477 H   0  0  0  0  0  0  0  0  0  0  0  0
   -6.7410   17.4396  -32.6477 H   0  0  0  0  0  0  0  0  0  0  0  0
   -9.4629   19.8403  -30.8113 H   0  0  0  0  0  0  0  0  0  0  0  0
  -10.4924   22.0952  -31.0689 H   0  0  0  0  0  0  0  0  0  0  0  0
   -9.1798   23.9665  -32.0651 H   0  0  0  0  0  0  0  0  0  0  0  0
   -6.8300   23.5904  -32.8051 H   0  0  0  0  0  0  0  0  0  0  0  0
   -5.4105   20.8905  -33.7079 H   0  0  0  0  0  0  0  0  0  0  0  0
   -4.8451   22.2352  -32.6466 H   0  0  0  0  0  0  0  0  0  0  0  0
   -4.8420   19.3510  -32.2040 H   0  0  0  0  0  0  0  0  0  0  0  0
   -5.1050   20.3190  -30.8450 H   0  0  0  0  0  0  0  0  0  0  0  0
   -2.7599   19.7053  -31.2527 H   0  0  0  0  0  0  0  0  0  0  0  0
   -2.8739   20.7108  -32.7577 H   0  0  0  0  0  0  0  0  0  0  0  0
   -1.2837   20.9163  -29.8597 H   0  0  0  0  0  0  0  0  0  0  0  0
   -0.7276   22.9936  -28.6080 H   0  0  0  0  0  0  0  0  0  0  0  0
   -2.4941   25.2715  -26.8476 H   0  0  0  0  0  0  0  0  0  0  0  0
   -0.8553   24.6788  -27.2832 H   0  0  0  0  0  0  0  0  0  0  0  0
   -1.2024   26.4412  -27.2832 H   0  0  0  0  0  0  0  0  0  0  0  0
   -5.6834   25.5316  -29.3450 H   0  0  0  0  0  0  0  0  0  0  0  0
   -5.8251   26.4499  -30.8823 H   0  0  0  0  0  0  0  0  0  0  0  0
   -6.0154   24.6637  -30.8823 H   0  0  0  0  0  0  0  0  0  0  0  0
   -4.5361   22.9755  -31.8399 H   0  0  0  0  0  0  0  0  0  0  0  0
  1  2  1  0
  2  3  1  0
  3  4  2  0
  4  5  1  0
  5  6  2  0
  6  7  1  0
  7  8  2  0
  8  9  1  0
  9 10  1  0
 10 11  1  0
 11 12  1  0
 12 13  2  0
 13 14  1  0
 14 15  2  0
 15 16  1  0
 16 17  1  0
 15 18  1  0
 18 19  1  0
 19 20  1  0
 18 21  2  0
  8  3  1  0
 21 12  1  0
  1 22  1  0
  1 23  1  0
  1 24  1  0
  4 25  1  0
  5 26  1  0
  6 27  1  0
  7 28  1  0
  9 29  1  0
  9 30  1  0
 10 31  1  0
 10 32  1  0
 11 33  1  0
 11 34  1  0
 13 35  1  0
 14 36  1  0
 17 37  1  0
 17 38  1  0
 17 39  1  0
 20 40  1  0
 20 41  1  0
 20 42  1  0
 21 43  1  0
M  CHG  1  10   1
M  END
>  <UniqueID>  (37) 
33

>  <SMILES>  (37) 
COc1ccccc1C[NH2+]Cc1ccc(OC)c(OC)c1

>  <Energy>  (37) 
39.959230370958416

>  <Genealogy>  (37) 
COc1ccccc1C[NH2+]Cc1ccc(OC)c(OC)c1 (protonated)
COc1ccccc1C[NH2+]Cc1ccc(OC)c(OC)c1 (3D coordinates assigned)
COc1ccccc1C[NH2+]Cc1ccc(OC)c(OC)c1 (optimized conformer: 39.959230370958416 kcal/mol)

>  <smiles>  (37) 
COc1ccccc1CNCc1ccc(OC)c(OC)c1

>  <score_type>  (37) 
oracle

>  <origin>  (37) 
adgpu

>  <m_score__min__energy>  (37) 
-6.9900000000000002

>  <m_primary>  (37) 
energy

$$$$
37:0
     RDKit          3D

 35 37  0  0  0  0  0  0  0  0999 V2000
   -0.3830   21.2010  -34.2090 C   0  0  0  0  0  0  0  0  0  0  0  0
   -0.7500   20.4420  -32.9400 C   0  0  0  0  0  0  0  0  0  0  0  0
   -1.5330   21.5410  -31.7080 S   0  0  0  0  0  0  0  0  0  0  0  0
   -3.1990   21.3150  -32.3390 C   0  0  0  0  0  0  0  0  0  0  0  0
   -3.4700   20.7080  -33.5100 N   0  0  0  0  0  0  0  0  0  0  0  0
   -4.7900   20.6700  -33.6280 N   0  0  0  0  0  0  0  0  0  0  0  0
   -5.2990   21.2600  -32.5300 C   0  0  0  0  0  0  0  0  0  0  0  0
   -6.7420   21.3430  -32.2520 C   0  0  0  0  0  0  0  0  0  0  0  0
   -7.3550   22.6050  -32.2010 C   0  0  0  0  0  0  0  0  0  0  0  0
   -8.7280   22.7120  -31.9690 C   0  0  0  0  0  0  0  0  0  0  0  0
   -9.4960   21.5610  -31.7740 C   0  0  0  0  0  0  0  0  0  0  0  0
   -8.8910   20.3030  -31.8020 C   0  0  0  0  0  0  0  0  0  0  0  0
   -7.5160   20.1850  -32.0350 C   0  0  0  0  0  0  0  0  0  0  0  0
   -6.7260   18.4360  -31.9860 Br  0  0  0  0  0  0  0  0  0  0  0  0
   -4.3260   21.6790  -31.6950 N   0  0  0  0  0  0  0  0  0  0  0  0
   -4.4590   22.1530  -30.3150 C   0  0  0  0  0  0  0  0  0  0  0  0
   -4.9530   23.5640  -30.3080 C   0  0  0  0  0  0  0  0  0  0  0  0
   -6.1100   24.0120  -29.7010 C   0  0  0  0  0  0  0  0  0  0  0  0
   -6.1370   25.3720  -29.9190 C   0  0  0  0  0  0  0  0  0  0  0  0
   -4.9970   25.6680  -30.6400 C   0  0  0  0  0  0  0  0  0  0  0  0
   -4.3110   24.5700  -30.8540 O   0  0  0  0  0  0  0  0  0  0  0  0
    0.0814   22.1614  -33.9405 H   0  0  0  0  0  0  0  0  0  0  0  0
    0.3259   20.6039  -34.8014 H   0  0  0  0  0  0  0  0  0  0  0  0
   -1.2913   21.3858  -34.8014 H   0  0  0  0  0  0  0  0  0  0  0  0
   -1.4517   19.6345  -33.1963 H   0  0  0  0  0  0  0  0  0  0  0  0
    0.1727   20.0334  -32.5022 H   0  0  0  0  0  0  0  0  0  0  0  0
   -6.7513   23.5133  -32.3444 H   0  0  0  0  0  0  0  0  0  0  0  0
   -9.2051   23.7027  -31.9398 H   0  0  0  0  0  0  0  0  0  0  0  0
  -10.5785   21.6462  -31.5982 H   0  0  0  0  0  0  0  0  0  0  0  0
   -9.4981   19.4001  -31.6401 H   0  0  0  0  0  0  0  0  0  0  0  0
   -5.1740   21.5134  -29.7768 H   0  0  0  0  0  0  0  0  0  0  0  0
   -3.4772   22.1101  -29.8207 H   0  0  0  0  0  0  0  0  0  0  0  0
   -6.8532   23.4098  -29.1580 H   0  0  0  0  0  0  0  0  0  0  0  0
   -6.9106   26.0795  -29.5859 H   0  0  0  0  0  0  0  0  0  0  0  0
   -4.7077   26.6723  -30.9830 H   0  0  0  0  0  0  0  0  0  0  0  0
  1  2  1  0
  2  3  1  0
  3  4  1  0
  4  5  2  0
  5  6  1  0
  6  7  2  0
  7  8  1  0
  8  9  2  0
  9 10  1  0
 10 11  2  0
 11 12  1  0
 12 13  2  0
 13 14  1  0
  7 15  1  0
 15 16  1  0
 16 17  1  0
 17 18  2  0
 18 19  1  0
 19 20  2  0
 20 21  1  0
 15  4  1  0
 21 17  1  0
 13  8  1  0
  1 22  1  0
  1 23  1  0
  1 24  1  0
  2 25  1  0
  2 26  1  0
  9 27  1  0
 10 28  1  0
 11 29  1  0
 12 30  1  0
 16 31  1  0
 16 32  1  0
 18 33  1  0
 19 34  1  0
 20 35  1  0
M  END
>  <UniqueID>  (38) 
34

>  <SMILES>  (38) 
CCSc1nnc(-c2ccccc2Br)n1Cc1ccco1

>  <Energy>  (38) 
95.53346980228675

>  <Genealogy>  (38) 
CCSc1nnc(-c2ccccc2Br)n1Cc1ccco1 (3D coordinates assigned)
CCSc1nnc(-c2ccccc2Br)n1Cc1ccco1 (optimized conformer: 95.53346980228675 kcal/mol)

>  <smiles>  (38) 
CCSc1nnc(-c2ccccc2Br)n1Cc1ccco1

>  <score_type>  (38) 
oracle

>  <origin>  (38) 
adgpu

>  <m_score__min__energy>  (38) 
-8.0800000000000001

>  <m_primary>  (38) 
energy

$$$$
38:0
     RDKit          3D

 29 30  0  0  0  0  0  0  0  0999 V2000
   -2.4760   24.5280  -28.6050 C   0  0  0  0  0  0  0  0  0  0  0  0
   -3.1150   25.1410  -29.7070 O   0  0  0  0  0  0  0  0  0  0  0  0
   -4.2290   24.5500  -30.2740 C   0  0  0  0  0  0  0  0  0  0  0  0
   -5.5170   25.0170  -30.1050 C   0  0  0  0  0  0  0  0  0  0  0  0
   -6.5890   24.3680  -30.7070 C   0  0  0  0  0  0  0  0  0  0  0  0
   -6.4170   23.2420  -31.4910 C   0  0  0  0  0  0  0  0  0  0  0  0
   -5.1270   22.7780  -31.6580 C   0  0  0  0  0  0  0  0  0  0  0  0
   -4.7960   21.5790  -32.4720 C   0  0  0  0  0  0  0  0  0  0  0  0
   -5.8310   20.5440  -32.4200 C   0  0  0  0  0  0  0  0  0  0  0  0
   -5.6390   19.4470  -31.6040 C   0  0  0  0  0  0  0  0  0  0  0  0
   -6.6360   18.4710  -31.5670 C   0  0  0  0  0  0  0  0  0  0  0  0
   -6.4910   17.4510  -30.8280 O   0  0  0  0  0  0  0  0  0  0  0  0
   -7.7540   18.6690  -32.3530 C   0  0  0  0  0  0  0  0  0  0  0  0
   -8.6610   17.7820  -32.3220 O   0  0  0  0  0  0  0  0  0  0  0  0
   -7.8780   19.7760  -33.1350 N   0  0  0  0  0  0  0  0  0  0  0  0
   -6.9370   20.7070  -33.1780 N   0  0  0  0  0  0  0  0  0  0  0  0
   -4.0410   23.4220  -31.0570 C   0  0  0  0  0  0  0  0  0  0  0  0
   -2.8937   24.9287  -27.6696 H   0  0  0  0  0  0  0  0  0  0  0  0
   -2.6403   23.4410  -28.6440 H   0  0  0  0  0  0  0  0  0  0  0  0
   -1.3968   24.7373  -28.6440 H   0  0  0  0  0  0  0  0  0  0  0  0
   -5.6967   25.9103  -29.4887 H   0  0  0  0  0  0  0  0  0  0  0  0
   -7.6047   24.7621  -30.5551 H   0  0  0  0  0  0  0  0  0  0  0  0
   -7.2727   22.7365  -31.9624 H   0  0  0  0  0  0  0  0  0  0  0  0
   -4.6662   21.8917  -33.5186 H   0  0  0  0  0  0  0  0  0  0  0  0
   -3.8762   21.1435  -32.0544 H   0  0  0  0  0  0  0  0  0  0  0  0
   -4.7255   19.3450  -30.9997 H   0  0  0  0  0  0  0  0  0  0  0  0
   -8.7520   19.8800  -33.7190 H   0  0  0  0  0  0  0  0  0  0  0  0
   -7.0850   21.5380  -33.7980 H   0  0  0  0  0  0  0  0  0  0  0  0
   -3.0249   23.0285  -31.2075 H   0  0  0  0  0  0  0  0  0  0  0  0
  1  2  1  0
  2  3  1  0
  3  4  2  0
  4  5  1  0
  5  6  2  0
  6  7  1  0
  7  8  1  0
  8  9  1  0
  9 10  2  0
 10 11  1  0
 11 12  2  0
 11 13  1  0
 13 14  2  0
 13 15  1  0
 15 16  1  0
  7 17  2  0
 17  3  1  0
 16  9  1  0
  1 18  1  0
  1 19  1  0
  1 20  1  0
  4 21  1  0
  5 22  1  0
  6 23  1  0
  8 24  1  0
  8 25  1  0
 10 26  1  0
 15 27  1  0
 16 28  1  0
 17 29  1  0
M  END
>  <smiles>  (39) 
COc1cccc(Cc2cc(=O)c(=O)[nH][nH]2)c1

>  <score_type>  (39) 
oracle

>  <origin>  (39) 
adgpu

>  <m_score__min__energy>  (39) 
-7.1799999999999997

>  <m_primary>  (39) 
energy

$$$$
39:0
     RDKit          3D

 42 44  0  0  1  0  0  0  0  0999 V2000
   -1.4670   24.9670  -28.1460 C   0  0  0  0  0  0  0  0  0  0  0  0
   -2.1870   25.2710  -29.3280 O   0  0  0  0  0  0  0  0  0  0  0  0
   -3.3210   24.5530  -29.7040 C   0  0  0  0  0  0  0  0  0  0  0  0
   -4.3830   25.1960  -30.3090 C   0  0  0  0  0  0  0  0  0  0  0  0
   -5.4990   24.4660  -30.6760 C   0  0  0  0  0  0  0  0  0  0  0  0
   -5.5450   23.0890  -30.4310 C   0  0  0  0  0  0  0  0  0  0  0  0
   -6.7340   22.4200  -30.8390 N   0  0  0  0  0  0  0  0  0  0  0  0
   -6.8020   21.4270  -31.6270 C   0  0  0  0  0  0  0  0  0  0  0  0
   -5.6690   20.9340  -32.1440 N   0  0  0  0  0  0  0  0  0  0  0  0
   -5.7620   19.8800  -32.9710 C   0  0  0  0  0  0  0  0  0  0  0  0
   -4.7360   19.3560  -33.4970 N   0  0  0  0  0  0  0  0  0  0  0  0
   -3.4400   19.8500  -33.2410 C   0  0  0  0  0  0  0  0  0  0  0  0
   -2.5070   18.9380  -32.7420 C   0  0  0  0  0  0  0  0  0  0  0  0
   -1.2170   19.3610  -32.4680 C   0  0  0  0  0  0  0  0  0  0  0  0
   -0.8430   20.6600  -32.6800 C   0  0  0  0  0  0  0  0  0  0  0  0
   -1.7570   21.5590  -33.1700 C   0  0  0  0  0  0  0  0  0  0  0  0
   -3.0290   21.1390  -33.4390 C   0  0  0  0  0  0  0  0  0  0  0  0
   -6.9630   19.3420  -33.2670 N   0  0  0  0  0  0  0  0  0  0  0  0
   -8.1200   19.8190  -32.7600 C   0  0  0  0  0  0  0  0  0  0  0  0
   -9.3810   19.2520  -33.0730 N   0  0  0  0  0  0  0  0  0  0  0  0
   -8.0520   20.9070  -31.9030 C   0  0  0  0  0  0  0  0  0  0  0  0
   -9.2300   21.4750  -31.3210 N   0  0  0  0  0  0  0  0  0  0  0  0
  -10.2250   21.5860  -32.0670 O   0  0  0  0  0  0  0  0  0  0  0  0
   -9.2570   21.8780  -30.0070 O   0  0  0  0  0  0  0  0  0  0  0  0
   -4.4830   22.4620  -29.8290 C   0  0  0  0  0  0  0  0  0  0  0  0
   -3.3420   23.1820  -29.4500 C   0  0  0  0  0  0  0  0  0  0  0  0
   -2.0777   25.2248  -27.2681 H   0  0  0  0  0  0  0  0  0  0  0  0
   -1.2316   23.8927  -28.1261 H   0  0  0  0  0  0  0  0  0  0  0  0
   -0.5329   25.5475  -28.1261 H   0  0  0  0  0  0  0  0  0  0  0  0
   -4.3417   26.2790  -30.4973 H   0  0  0  0  0  0  0  0  0  0  0  0
   -6.3499   24.9675  -31.1602 H   0  0  0  0  0  0  0  0  0  0  0  0
   -4.7690   21.3580  -31.9090 H   0  0  0  0  0  0  0  0  0  0  0  0
   -2.7950   17.8907  -32.5678 H   0  0  0  0  0  0  0  0  0  0  0  0
   -0.4828   18.6426  -32.0744 H   0  0  0  0  0  0  0  0  0  0  0  0
    0.1852   20.9822  -32.4588 H   0  0  0  0  0  0  0  0  0  0  0  0
   -1.4686   22.6061  -33.3442 H   0  0  0  0  0  0  0  0  0  0  0  0
   -3.7528   21.8685  -33.8313 H   0  0  0  0  0  0  0  0  0  0  0  0
   -7.0720   18.5130  -33.9140 H   0  0  0  0  0  0  0  0  0  0  0  0
  -10.2700   19.4980  -32.5850 H   0  0  0  0  0  0  0  0  0  0  0  0
   -9.4250   18.5570  -33.8290 H   0  0  0  0  0  0  0  0  0  0  0  0
   -4.5280   21.3791  -29.6413 H   0  0  0  0  0  0  0  0  0  0  0  0
   -2.4897   22.6814  -28.9673 H   0  0  0  0  0  0  0  0  0  0  0  0
  1  2  1  0
  2  3  1  0
  3  4  2  0
  4  5  1  0
  5  6  2  0
  6  7  1  0
  7  8  2  0
  8  9  1  0
  9 10  1  0
 10 11  2  0
 11 12  1  0
 12 13  2  0
 13 14  1  0
 14 15  2  0
 15 16  1  0
 16 17  2  0
 10 18  1  0
 18 19  1  0
 19 20  1  0
 19 21  2  0
 21 22  1  0
 22 23  2  0
 22 24  1  0
  6 25  1  0
 25 26  2  0
 26  3  1  0
 21  8  1  0
 17 12  1  0
  1 27  1  0
  1 28  1  0
  1 29  1  0
  4 30  1  0
  5 31  1  0
  9 32  1  0
 13 33  1  0
 14 34  1  0
 15 35  1  0
 16 36  1  0
 17 37  1  0
 18 38  1  0
 20 39  1  0
 20 40  1  0
 25 41  1  0
 26 42  1  0
M  CHG  2  22   1  24  -1
M  END
>  <smiles>  (40) 
COc1ccc(N=c2[nH]c(=Nc3ccccc3)[nH]c(N)c2[N+](=O)[O-])cc1

>  <score_type>  (40) 
oracle

>  <origin>  (40) 
adgpu

>  <m_score__min__energy>  (40) 
-7.7300000000000004

>  <m_primary>  (40) 
energy

$$$$
40:0
     RDKit          3D

 36 38  0  0  0  0  0  0  0  0999 V2000
   -7.8635   25.7867  -29.9173 H   0  0  0  0  0  0  0  0  0  0  0  0
   -7.0150   25.1220  -30.1370 C   0  0  0  0  0  0  0  0  0  0  0  0
   -5.7130   25.6300  -30.1410 C   0  0  0  0  0  0  0  0  0  0  0  0
   -5.5362   26.6916  -29.9136 H   0  0  0  0  0  0  0  0  0  0  0  0
   -4.6350   24.7890  -30.4340 C   0  0  0  0  0  0  0  0  0  0  0  0
   -3.3430   25.2990  -30.4600 O   0  0  0  0  0  0  0  0  0  0  0  0
   -4.8580   23.4340  -30.7080 C   0  0  0  0  0  0  0  0  0  0  0  0
   -4.0103   22.7768  -30.9520 H   0  0  0  0  0  0  0  0  0  0  0  0
   -6.1640   22.9110  -30.6720 C   0  0  0  0  0  0  0  0  0  0  0  0
   -6.4340   21.5370  -30.9900 N   0  0  0  0  0  0  0  0  0  0  0  0
   -5.7410   20.7750  -31.7850 C   0  0  0  0  0  0  0  0  0  0  0  0
   -4.2830   21.1760  -32.5330 S   0  0  0  0  0  0  0  0  0  0  0  0
   -4.1110   19.6580  -33.2440 C   0  0  0  0  0  0  0  0  0  0  0  0
   -2.9500   19.2620  -34.1010 C   0  0  0  0  0  0  0  0  0  0  0  0
   -2.1034   18.9732  -33.4608 H   0  0  0  0  0  0  0  0  0  0  0  0
   -3.2365   18.4108  -34.7361 H   0  0  0  0  0  0  0  0  0  0  0  0
   -2.6566   20.1109  -34.7361 H   0  0  0  0  0  0  0  0  0  0  0  0
   -5.2140   18.8710  -32.8820 C   0  0  0  0  0  0  0  0  0  0  0  0
   -5.4250   17.4710  -33.3110 C   0  0  0  0  0  0  0  0  0  0  0  0
   -4.3960   16.5290  -33.1560 C   0  0  0  0  0  0  0  0  0  0  0  0
   -3.4328   16.8388  -32.7244 H   0  0  0  0  0  0  0  0  0  0  0  0
   -4.5860   15.2000  -33.5460 C   0  0  0  0  0  0  0  0  0  0  0  0
   -3.7664   14.4745  -33.4366 H   0  0  0  0  0  0  0  0  0  0  0  0
   -5.8170   14.7880  -34.0760 C   0  0  0  0  0  0  0  0  0  0  0  0
   -6.0080   13.3720  -34.5310 C   0  0  0  0  0  0  0  0  0  0  0  0
   -6.0968   12.7139  -33.6541 H   0  0  0  0  0  0  0  0  0  0  0  0
   -6.9238   13.3017  -35.1364 H   0  0  0  0  0  0  0  0  0  0  0  0
   -5.1436   13.0616  -35.1364 H   0  0  0  0  0  0  0  0  0  0  0  0
   -6.8470   15.7270  -34.2350 C   0  0  0  0  0  0  0  0  0  0  0  0
   -7.8087   15.4163  -34.6693 H   0  0  0  0  0  0  0  0  0  0  0  0
   -6.6570   17.0560  -33.8440 C   0  0  0  0  0  0  0  0  0  0  0  0
   -7.4770   17.7809  -33.9544 H   0  0  0  0  0  0  0  0  0  0  0  0
   -6.0970   19.5010  -32.0560 N   0  0  0  0  0  0  0  0  0  0  0  0
   -6.9670   19.0570  -31.6840 H   0  0  0  0  0  0  0  0  0  0  0  0
   -7.2400   23.7700  -30.4120 C   0  0  0  0  0  0  0  0  0  0  0  0
   -8.2678   23.3782  -30.4244 H   0  0  0  0  0  0  0  0  0  0  0  0
  1  2  1  0
  2  3  2  0
  3  4  1  0
  3  5  1  0
  5  6  1  0
  5  7  2  0
  7  8  1  0
  7  9  1  0
  9 10  1  0
 10 11  2  0
 11 12  1  0
 12 13  1  0
 13 14  1  0
 14 15  1  0
 14 16  1  0
 14 17  1  0
 13 18  2  0
 18 19  1  0
 19 20  2  0
 20 21  1  0
 20 22  1  0
 22 23  1  0
 22 24  2  0
 24 25  1  0
 25 26  1  0
 25 27  1  0
 25 28  1  0
 24 29  1  0
 29 30  1  0
 29 31  2  0
 31 32  1  0
 18 33  1  0
 33 34  1  0
  9 35  2  0
 35 36  1  0
 35  2  1  0
 33 11  1  0
 31 19  1  0
M  CHG  1   6  -1
M  END
>  <UniqueID>  (41) 
35

>  <SMILES>  (41) 
Cc1ccc(-c2[nH]/c(=N/c3cccc([O-])c3)sc2C)cc1

>  <Energy>  (41) 
79.01399984058062

>  <Genealogy>  (41) 
Cc1ccc(-c2[nH]c(=Nc3cccc([O-])c3)sc2C)cc1 (protonated)
Cc1ccc(-c2[nH]/c(=N/c3cccc([O-])c3)sc2C)cc1 (cis-trans isomerization)
Cc1ccc(-c2[nH]/c(=N/c3cccc([O-])c3)sc2C)cc1 (3D coordinates assigned)
Cc1ccc(-c2[nH]/c(=N/c3cccc([O-])c3)sc2C)cc1 (optimized conformer: 79.01399984058062 kcal/mol)

>  <smiles>  (41) 
Cc1ccc(-c2[nH]c(=Nc3cccc(O)c3)sc2C)cc1

>  <score_type>  (41) 
oracle

>  <origin>  (41) 
adgpu

>  <m_score__min__energy>  (41) 
-10.69

>  <m_primary>  (41) 
energy

$$$$
41:0
     RDKit          3D

 46 48  0  0  1  0  0  0  0  0999 V2000
   -0.5050   18.0010  -27.1210 C   0  0  0  0  0  0  0  0  0  0  0  0
   -1.2110   19.1480  -27.7240 C   0  0  0  0  0  0  0  0  0  0  0  0
   -2.4280   19.5440  -27.1980 C   0  0  0  0  0  0  0  0  0  0  0  0
   -3.1140   20.6130  -27.7400 C   0  0  0  0  0  0  0  0  0  0  0  0
   -2.5740   21.3060  -28.8340 C   0  0  0  0  0  0  0  0  0  0  0  0
   -3.2440   22.4150  -29.4250 C   0  0  0  0  0  0  0  0  0  0  0  0
   -3.2690   23.6830  -28.8720 C   0  0  0  0  0  0  0  0  0  0  0  0
   -2.5740   23.9430  -27.6000 C   0  0  0  0  0  0  0  0  0  0  0  0
   -3.9110   24.7180  -29.4540 N   0  0  0  0  0  0  0  0  0  0  0  0
   -4.5480   24.4840  -30.6200 C   0  0  0  0  0  0  0  0  0  0  0  0
   -5.1790   25.4450  -31.2160 N   0  0  0  0  0  0  0  0  0  0  0  0
   -4.5670   23.2760  -31.2160 N   0  0  0  0  0  0  0  0  0  0  0  0
   -3.9200   22.2560  -30.6210 C   0  0  0  0  0  0  0  0  0  0  0  0
   -3.9450   21.1240  -31.1920 N   0  0  0  0  0  0  0  0  0  0  0  0
   -4.5870   20.7830  -32.4160 C   0  0  0  0  0  0  0  0  0  0  0  0
   -6.0250   20.4070  -32.2420 C   0  0  0  0  0  0  0  0  0  0  0  0
   -6.4440   19.0950  -32.1590 C   0  0  0  0  0  0  0  0  0  0  0  0
   -7.7810   18.7460  -31.9990 C   0  0  0  0  0  0  0  0  0  0  0  0
   -8.7440   19.7300  -31.9170 C   0  0  0  0  0  0  0  0  0  0  0  0
   -8.3570   21.0460  -31.9960 C   0  0  0  0  0  0  0  0  0  0  0  0
   -7.0270   21.3700  -32.1550 C   0  0  0  0  0  0  0  0  0  0  0  0
   -1.3450   20.9170  -29.3740 C   0  0  0  0  0  0  0  0  0  0  0  0
   -0.7890   21.6600  -30.5290 C   0  0  0  0  0  0  0  0  0  0  0  0
   -0.6900   19.8400  -28.8040 C   0  0  0  0  0  0  0  0  0  0  0  0
   -0.5517   18.0769  -26.0246 H   0  0  0  0  0  0  0  0  0  0  0  0
   -0.9834   17.0648  -27.4444 H   0  0  0  0  0  0  0  0  0  0  0  0
    0.5464   18.0063  -27.4444 H   0  0  0  0  0  0  0  0  0  0  0  0
   -2.8530   19.0023  -26.3402 H   0  0  0  0  0  0  0  0  0  0  0  0
   -4.0810   20.9203  -27.3153 H   0  0  0  0  0  0  0  0  0  0  0  0
   -3.2400   23.6939  -26.7607 H   0  0  0  0  0  0  0  0  0  0  0  0
   -1.6667   23.3235  -27.5446 H   0  0  0  0  0  0  0  0  0  0  0  0
   -2.2961   25.0059  -27.5446 H   0  0  0  0  0  0  0  0  0  0  0  0
   -3.9000   25.6570  -28.9970 H   0  0  0  0  0  0  0  0  0  0  0  0
   -5.1760   26.4040  -30.7640 H   0  0  0  0  0  0  0  0  0  0  0  0
   -5.0590   23.1330  -32.0990 H   0  0  0  0  0  0  0  0  0  0  0  0
   -4.5312   21.6482  -33.0930 H   0  0  0  0  0  0  0  0  0  0  0  0
   -4.0663   19.9045  -32.8248 H   0  0  0  0  0  0  0  0  0  0  0  0
   -5.6921   18.2945  -32.2217 H   0  0  0  0  0  0  0  0  0  0  0  0
   -8.0699   17.6864  -31.9379 H   0  0  0  0  0  0  0  0  0  0  0  0
   -9.8042   19.4656  -31.7905 H   0  0  0  0  0  0  0  0  0  0  0  0
   -9.1115   21.8439  -31.9321 H   0  0  0  0  0  0  0  0  0  0  0  0
   -6.7457   22.4317  -32.2156 H   0  0  0  0  0  0  0  0  0  0  0  0
   -0.1670   22.4912  -30.1653 H   0  0  0  0  0  0  0  0  0  0  0  0
   -0.1745   20.9821  -31.1396 H   0  0  0  0  0  0  0  0  0  0  0  0
   -1.6127   22.0583  -31.1396 H   0  0  0  0  0  0  0  0  0  0  0  0
    0.2766   19.5230  -29.2227 H   0  0  0  0  0  0  0  0  0  0  0  0
  1  2  1  0
  2  3  2  0
  3  4  1  0
  4  5  2  0
  5  6  1  0
  6  7  2  0
  7  8  1  0
  7  9  1  0
  9 10  1  0
 10 11  2  3
 10 12  1  0
 12 13  1  0
 13 14  2  0
 14 15  1  0
 15 16  1  0
 16 17  2  0
 17 18  1  0
 18 19  2  0
 19 20  1  0
 20 21  2  0
  5 22  1  0
 22 23  1  0
 22 24  2  0
 24  2  1  0
 13  6  1  0
 21 16  1  0
  1 25  1  0
  1 26  1  0
  1 27  1  0
  3 28  1  0
  4 29  1  0
  8 30  1  0
  8 31  1  0
  8 32  1  0
  9 33  1  0
 11 34  1  0
 12 35  1  0
 15 36  1  0
 15 37  1  0
 17 38  1  0
 18 39  1  0
 19 40  1  0
 20 41  1  0
 21 42  1  0
 23 43  1  0
 23 44  1  0
 23 45  1  0
 24 46  1  0
M  END
>  <smiles>  (42) 
Cc1ccc(-c2c(C)[nH]c(=N)[nH]c2=NCc2ccccc2)c(C)c1

>  <score_type>  (42) 
oracle

>  <origin>  (42) 
adgpu

>  <m_score__min__energy>  (42) 
-8.3000000000000007

>  <m_primary>  (42) 
energy

$$$$
42:0
     RDKit          3D

 36 37  0  0  0  0  0  0  0  0999 V2000
   -7.7480   18.5490  -32.6430 C   0  0  0  0  0  0  0  0  0  0  0  0
   -8.7380   19.1070  -31.6250 C   0  0  0  0  0  0  0  0  0  0  0  0
   -9.4600   20.3460  -32.1730 C   0  0  0  0  0  0  0  0  0  0  0  0
   -9.4220   21.5240  -31.1790 C   0  0  0  0  0  0  0  0  0  0  0  0
   -8.9610   23.1020  -31.9850 S   0  0  0  0  0  0  0  0  0  0  0  0
   -7.2020   22.7590  -32.0140 C   0  0  0  0  0  0  0  0  0  0  0  0
   -6.3410   23.6220  -31.4120 N   0  0  0  0  0  0  0  0  0  0  0  0
   -5.0010   23.4070  -31.4250 C   0  0  0  0  0  0  0  0  0  0  0  0
   -4.2360   24.2330  -30.8590 O   0  0  0  0  0  0  0  0  0  0  0  0
   -4.4900   22.2710  -32.0700 C   0  0  0  0  0  0  0  0  0  0  0  0
   -3.1230   21.9740  -32.1370 C   0  0  0  0  0  0  0  0  0  0  0  0
   -2.7110   20.8520  -32.7820 N   0  0  0  0  0  0  0  0  0  0  0  0
   -3.5980   20.0010  -33.3700 C   0  0  0  0  0  0  0  0  0  0  0  0
   -3.1310   18.8180  -34.0480 N   0  0  0  0  0  0  0  0  0  0  0  0
   -4.0990   17.8550  -34.5800 C   0  0  0  0  0  0  0  0  0  0  0  0
   -1.6910   18.5890  -34.2010 C   0  0  0  0  0  0  0  0  0  0  0  0
   -4.9300   20.2790  -33.3130 N   0  0  0  0  0  0  0  0  0  0  0  0
   -5.3950   21.3870  -32.6800 C   0  0  0  0  0  0  0  0  0  0  0  0
   -6.7300   21.6440  -32.6370 N   0  0  0  0  0  0  0  0  0  0  0  0
   -6.9073   18.0751  -32.1152 H   0  0  0  0  0  0  0  0  0  0  0  0
   -8.2525   17.8024  -33.2739 H   0  0  0  0  0  0  0  0  0  0  0  0
   -7.3705   19.3672  -33.2739 H   0  0  0  0  0  0  0  0  0  0  0  0
   -9.4831   18.3333  -31.3880 H   0  0  0  0  0  0  0  0  0  0  0  0
   -8.1813   19.3994  -30.7224 H   0  0  0  0  0  0  0  0  0  0  0  0
   -8.9728   20.6557  -33.1093 H   0  0  0  0  0  0  0  0  0  0  0  0
  -10.5134   20.0781  -32.3420 H   0  0  0  0  0  0  0  0  0  0  0  0
  -10.4181   21.6364  -30.7260 H   0  0  0  0  0  0  0  0  0  0  0  0
   -8.6577   21.2987  -30.4206 H   0  0  0  0  0  0  0  0  0  0  0  0
   -2.3874   22.6454  -31.6700 H   0  0  0  0  0  0  0  0  0  0  0  0
   -4.6081   17.3485  -33.7468 H   0  0  0  0  0  0  0  0  0  0  0  0
   -4.8412   18.3835  -35.1963 H   0  0  0  0  0  0  0  0  0  0  0  0
   -3.5743   17.1101  -35.1963 H   0  0  0  0  0  0  0  0  0  0  0  0
   -1.2240   18.5147  -33.2078 H   0  0  0  0  0  0  0  0  0  0  0  0
   -1.5254   17.6532  -34.7550 H   0  0  0  0  0  0  0  0  0  0  0  0
   -1.2432   19.4272  -34.7550 H   0  0  0  0  0  0  0  0  0  0  0  0
   -7.4000   20.9860  -33.0950 H   0  0  0  0  0  0  0  0  0  0  0  0
  1  2  1  0
  2  3  1  0
  3  4  1  0
  4  5  1  0
  5  6  1  0
  6  7  2  0
  7  8  1  0
  8  9  2  0
  8 10  1  0
 10 11  2  0
 11 12  1  0
 12 13  2  0
 13 14  1  0
 14 15  1  0
 14 16  1  0
 13 17  1  0
 17 18  2  0
 18 19  1  0
 19  6  1  0
 18 10  1  0
  1 20  1  0
  1 21  1  0
  1 22  1  0
  2 23  1  0
  2 24  1  0
  3 25  1  0
  3 26  1  0
  4 27  1  0
  4 28  1  0
 11 29  1  0
 15 30  1  0
 15 31  1  0
 15 32  1  0
 16 33  1  0
 16 34  1  0
 16 35  1  0
 19 36  1  0
M  END
>  <UniqueID>  (43) 
36

>  <SMILES>  (43) 
CCCCSc1nc(=O)c2cnc(N(C)C)nc2[nH]1

>  <Energy>  (43) 
29.973865643822563

>  <Genealogy>  (43) 
CCCCSc1nc(=O)c2cnc(N(C)C)nc2[nH]1 (3D coordinates assigned)
CCCCSc1nc(=O)c2cnc(N(C)C)nc2[nH]1 (optimized conformer: 29.973865643822563 kcal/mol)

>  <smiles>  (43) 
CCCCSc1nc(=O)c2cnc(N(C)C)nc2[nH]1

>  <score_type>  (43) 
oracle

>  <origin>  (43) 
adgpu

>  <m_score__min__energy>  (43) 
-6.3499999999999996

>  <m_primary>  (43) 
energy

$$$$
43:0
     RDKit          3D

 24 25  0  0  0  0  0  0  0  0999 V2000
   -2.1570   24.7560  -29.3290 O   0  0  0  0  0  0  0  0  0  0  0  0
   -3.3310   24.5530  -29.7330 C   0  0  0  0  0  0  0  0  0  0  0  0
   -4.1310   23.5860  -29.1250 C   0  0  0  0  0  0  0  0  0  0  0  0
   -5.4280   23.3850  -29.5950 C   0  0  0  0  0  0  0  0  0  0  0  0
   -5.8910   24.1520  -30.6700 C   0  0  0  0  0  0  0  0  0  0  0  0
   -7.2920   23.9950  -31.1820 C   0  0  0  0  0  0  0  0  0  0  0  0
   -7.5300   22.5740  -31.6120 C   0  0  0  0  0  0  0  0  0  0  0  0
   -8.7350   21.9300  -31.2920 C   0  0  0  0  0  0  0  0  0  0  0  0
   -8.9430   20.6000  -31.6600 C   0  0  0  0  0  0  0  0  0  0  0  0
   -7.9490   19.8890  -32.3430 C   0  0  0  0  0  0  0  0  0  0  0  0
   -8.1970   18.5610  -32.6930 O   0  0  0  0  0  0  0  0  0  0  0  0
   -6.7320   20.5240  -32.6570 C   0  0  0  0  0  0  0  0  0  0  0  0
   -5.4430   19.6790  -33.5030 Cl  0  0  0  0  0  0  0  0  0  0  0  0
   -6.5270   21.8590  -32.2860 C   0  0  0  0  0  0  0  0  0  0  0  0
   -5.0710   25.0890  -31.2180 N   0  0  0  0  0  0  0  0  0  0  0  0
   -3.8290   25.2820  -30.7670 N   0  0  0  0  0  0  0  0  0  0  0  0
   -3.7438   22.9897  -28.2857 H   0  0  0  0  0  0  0  0  0  0  0  0
   -6.0795   22.6326  -29.1265 H   0  0  0  0  0  0  0  0  0  0  0  0
   -8.0023   24.2572  -30.3840 H   0  0  0  0  0  0  0  0  0  0  0  0
   -7.4359   24.6609  -32.0457 H   0  0  0  0  0  0  0  0  0  0  0  0
   -9.5197   22.4764  -30.7482 H   0  0  0  0  0  0  0  0  0  0  0  0
   -9.8944   20.1069  -31.4117 H   0  0  0  0  0  0  0  0  0  0  0  0
   -8.7160   18.3020  -33.5220 H   0  0  0  0  0  0  0  0  0  0  0  0
   -5.5726   22.3512  -32.5246 H   0  0  0  0  0  0  0  0  0  0  0  0
  1  2  2  0
  2  3  1  0
  3  4  2  0
  4  5  1  0
  5  6  1  0
  6  7  1  0
  7  8  2  0
  8  9  1  0
  9 10  2  0
 10 11  1  0
 10 12  1  0
 12 13  1  0
 12 14  2  0
  5 15  2  0
 15 16  1  0
 16  2  1  0
 14  7  1  0
  3 17  1  0
  4 18  1  0
  6 19  1  0
  6 20  1  0
  8 21  1  0
  9 22  1  0
 11 23  1  0
 14 24  1  0
M  CHG  1  16  -1
M  END
>  <UniqueID>  (44) 
37

>  <SMILES>  (44) 
O=c1ccc(Cc2ccc(O)c(Cl)c2)n[n-]1

>  <Energy>  (44) 
25.265368052188915

>  <Genealogy>  (44) 
O=c1ccc(Cc2ccc(O)c(Cl)c2)n[n-]1 (protonated)
O=c1ccc(Cc2ccc(O)c(Cl)c2)n[n-]1 (3D coordinates assigned)
O=c1ccc(Cc2ccc(O)c(Cl)c2)n[n-]1 (optimized conformer: 25.265368052188915 kcal/mol)

>  <smiles>  (44) 
O=c1ccc(Cc2ccc(O)c(Cl)c2)n[nH]1

>  <score_type>  (44) 
oracle

>  <origin>  (44) 
adgpu

>  <m_score__min__energy>  (44) 
-9.3900000000000006

>  <m_primary>  (44) 
energy

$$$$
44:0
     RDKit          3D

 48 52  0  0  0  0  0  0  0  0999 V2000
   -1.6660   30.8660  -24.8380 C   0  0  0  0  0  0  0  0  0  0  0  0
   -0.8570   30.5310  -26.0860 C   0  0  0  0  0  0  0  0  0  0  0  0
    0.4630   30.1200  -25.7340 O   0  0  0  0  0  0  0  0  0  0  0  0
    0.7410   29.2130  -24.7030 C   0  0  0  0  0  0  0  0  0  0  0  0
    1.4810   29.5560  -23.7410 O   0  0  0  0  0  0  0  0  0  0  0  0
    0.1730   27.8470  -24.7510 C   0  0  0  0  0  0  0  0  0  0  0  0
   -0.0120   27.1080  -23.5700 C   0  0  0  0  0  0  0  0  0  0  0  0
   -0.5520   25.8220  -23.6200 C   0  0  0  0  0  0  0  0  0  0  0  0
   -0.9130   25.2580  -24.8440 C   0  0  0  0  0  0  0  0  0  0  0  0
   -0.7370   25.9730  -26.0410 C   0  0  0  0  0  0  0  0  0  0  0  0
   -1.1170   25.3750  -27.2990 N   0  0  0  0  0  0  0  0  0  0  0  0
   -2.3590   25.1290  -27.7610 C   0  0  0  0  0  0  0  0  0  0  0  0
   -2.2000   24.5590  -29.0040 C   0  0  0  0  0  0  0  0  0  0  0  0
   -3.2620   24.1160  -29.9120 C   0  0  0  0  0  0  0  0  0  0  0  0
   -4.0470   24.9450  -30.6240 N   0  0  0  0  0  0  0  0  0  0  0  0
   -4.8720   24.1720  -31.3120 N   0  0  0  0  0  0  0  0  0  0  0  0
   -4.5590   22.8990  -30.9920 C   0  0  0  0  0  0  0  0  0  0  0  0
   -5.2390   21.7080  -31.5370 C   0  0  0  0  0  0  0  0  0  0  0  0
   -6.5870   21.4670  -31.2270 C   0  0  0  0  0  0  0  0  0  0  0  0
   -7.2430   20.3430  -31.7370 C   0  0  0  0  0  0  0  0  0  0  0  0
   -6.5600   19.4430  -32.5660 C   0  0  0  0  0  0  0  0  0  0  0  0
   -7.2110   18.3120  -33.0850 C   0  0  0  0  0  0  0  0  0  0  0  0
   -6.5180   17.4220  -33.9120 C   0  0  0  0  0  0  0  0  0  0  0  0
   -5.1770   17.6540  -34.2270 C   0  0  0  0  0  0  0  0  0  0  0  0
   -4.5170   18.7760  -33.7170 C   0  0  0  0  0  0  0  0  0  0  0  0
   -5.2000   19.6780  -32.8850 C   0  0  0  0  0  0  0  0  0  0  0  0
   -4.5490   20.8080  -32.3680 C   0  0  0  0  0  0  0  0  0  0  0  0
   -3.5690   22.8610  -30.1320 O   0  0  0  0  0  0  0  0  0  0  0  0
   -0.8850   24.4710  -29.2720 N   0  0  0  0  0  0  0  0  0  0  0  0
   -0.2520   24.9750  -28.2210 N   0  0  0  0  0  0  0  0  0  0  0  0
   -0.1940   27.2730  -25.9820 C   0  0  0  0  0  0  0  0  0  0  0  0
   -1.0762   30.6218  -23.9422 H   0  0  0  0  0  0  0  0  0  0  0  0
   -1.9091   31.9388  -24.8357 H   0  0  0  0  0  0  0  0  0  0  0  0
   -2.5964   30.2792  -24.8357 H   0  0  0  0  0  0  0  0  0  0  0  0
   -1.3556   29.7166  -26.6321 H   0  0  0  0  0  0  0  0  0  0  0  0
   -0.7919   31.4291  -26.7178 H   0  0  0  0  0  0  0  0  0  0  0  0
    0.2703   27.5455  -22.6010 H   0  0  0  0  0  0  0  0  0  0  0  0
   -0.6936   25.2508  -22.6906 H   0  0  0  0  0  0  0  0  0  0  0  0
   -1.3393   24.2444  -24.8724 H   0  0  0  0  0  0  0  0  0  0  0  0
   -3.3087   25.3410  -27.2480 H   0  0  0  0  0  0  0  0  0  0  0  0
   -7.1313   22.1684  -30.5775 H   0  0  0  0  0  0  0  0  0  0  0  0
   -8.2991   20.1643  -31.4867 H   0  0  0  0  0  0  0  0  0  0  0  0
   -8.2673   18.1258  -32.8408 H   0  0  0  0  0  0  0  0  0  0  0  0
   -7.0307   16.5364  -34.3157 H   0  0  0  0  0  0  0  0  0  0  0  0
   -4.6380   16.9509  -34.8791 H   0  0  0  0  0  0  0  0  0  0  0  0
   -3.4607   18.9526  -33.9679 H   0  0  0  0  0  0  0  0  0  0  0  0
   -3.4926   20.9909  -32.6142 H   0  0  0  0  0  0  0  0  0  0  0  0
   -0.0555   27.8460  -26.9107 H   0  0  0  0  0  0  0  0  0  0  0  0
  1  2  1  0
  2  3  1  0
  3  4  1  0
  4  5  2  0
  4  6  1  0
  6  7  2  0
  7  8  1  0
  8  9  2  0
  9 10  1  0
 10 11  1  0
 11 12  1  0
 12 13  2  0
 13 14  1  0
 14 15  2  0
 15 16  1  0
 16 17  2  0
 17 18  1  0
 18 19  2  0
 19 20  1  0
 20 21  2  0
 21 22  1  0
 22 23  2  0
 23 24  1  0
 24 25  2  0
 25 26  1  0
 26 27  2  0
 17 28  1  0
 13 29  1  0
 29 30  2  0
 10 31  2  0
 31  6  1  0
 30 11  1  0
 28 14  1  0
 27 18  1  0
 26 21  1  0
  1 32  1  0
  1 33  1  0
  1 34  1  0
  2 35  1  0
  2 36  1  0
  7 37  1  0
  8 38  1  0
  9 39  1  0
 12 40  1  0
 19 41  1  0
 20 42  1  0
 22 43  1  0
 23 44  1  0
 24 45  1  0
 25 46  1  0
 27 47  1  0
 31 48  1  0
M  END
>  <UniqueID>  (45) 
38

>  <SMILES>  (45) 
CCOC(=O)c1cccc(-n2cc(-c3nnc(-c4ccc5ccccc5c4)o3)nn2)c1

>  <Energy>  (45) 
125.4587876255807

>  <Genealogy>  (45) 
CCOC(=O)c1cccc(-n2cc(-c3nnc(-c4ccc5ccccc5c4)o3)nn2)c1 (3D coordinates assigned)
CCOC(=O)c1cccc(-n2cc(-c3nnc(-c4ccc5ccccc5c4)o3)nn2)c1 (optimized conformer: 125.4587876255807 kcal/mol)

>  <smiles>  (45) 
CCOC(=O)c1cccc(-n2cc(-c3nnc(-c4ccc5ccccc5c4)o3)nn2)c1

>  <score_type>  (45) 
oracle

>  <origin>  (45) 
adgpu

>  <m_score__min__energy>  (45) 
-9.8499999999999996

>  <m_primary>  (45) 
energy

$$$$
45:0
     RDKit          3D

 25 26  0  0  0  0  0  0  0  0999 V2000
   -5.5610   25.6710  -30.3180 C   0  0  0  0  0  0  0  0  0  0  0  0
   -4.9880   24.7280  -31.2170 O   0  0  0  0  0  0  0  0  0  0  0  0
   -5.5860   23.5110  -31.5750 C   0  0  0  0  0  0  0  0  0  0  0  0
   -4.8370   22.4140  -32.0720 C   0  0  0  0  0  0  0  0  0  0  0  0
   -5.4770   21.2130  -32.4190 C   0  0  0  0  0  0  0  0  0  0  0  0
   -6.8630   21.1310  -32.2620 C   0  0  0  0  0  0  0  0  0  0  0  0
   -7.5910   22.1820  -31.7840 C   0  0  0  0  0  0  0  0  0  0  0  0
   -6.9800   23.3870  -31.4310 C   0  0  0  0  0  0  0  0  0  0  0  0
   -9.0380   21.8290  -31.7150 C   0  0  0  0  0  0  0  0  0  0  0  0
   -9.0770   20.3700  -32.2380 C   0  0  0  0  0  0  0  0  0  0  0  0
   -7.6920   20.0220  -32.5510 N   0  0  0  0  0  0  0  0  0  0  0  0
   -7.2490   18.7350  -33.0750 C   0  0  0  0  0  0  0  0  0  0  0  0
   -5.3685   25.3541  -29.2824 H   0  0  0  0  0  0  0  0  0  0  0  0
   -5.1111   26.6602  -30.4884 H   0  0  0  0  0  0  0  0  0  0  0  0
   -6.6463   25.7274  -30.4884 H   0  0  0  0  0  0  0  0  0  0  0  0
   -3.7467   22.5045  -32.1865 H   0  0  0  0  0  0  0  0  0  0  0  0
   -4.9017   20.3584  -32.8046 H   0  0  0  0  0  0  0  0  0  0  0  0
   -7.5789   24.2257  -31.0465 H   0  0  0  0  0  0  0  0  0  0  0  0
   -9.4083   21.8865  -30.6808 H   0  0  0  0  0  0  0  0  0  0  0  0
   -9.6748   22.5112  -32.2973 H   0  0  0  0  0  0  0  0  0  0  0  0
   -9.4759   19.6966  -31.4651 H   0  0  0  0  0  0  0  0  0  0  0  0
   -9.7279   20.2731  -33.1194 H   0  0  0  0  0  0  0  0  0  0  0  0
   -7.0164   18.0591  -32.2389 H   0  0  0  0  0  0  0  0  0  0  0  0
   -8.0475   18.2953  -33.6907 H   0  0  0  0  0  0  0  0  0  0  0  0
   -6.3490   18.8799  -33.6907 H   0  0  0  0  0  0  0  0  0  0  0  0
  1  2  1  0
  2  3  1  0
  3  4  2  0
  4  5  1  0
  5  6  2  0
  6  7  1  0
  7  8  2  0
  7  9  1  0
  9 10  1  0
 10 11  1  0
 11 12  1  0
  8  3  1  0
 11  6  1  0
  1 13  1  0
  1 14  1  0
  1 15  1  0
  4 16  1  0
  5 17  1  0
  8 18  1  0
  9 19  1  0
  9 20  1  0
 10 21  1  0
 10 22  1  0
 12 23  1  0
 12 24  1  0
 12 25  1  0
M  END
>  <UniqueID>  (46) 
39

>  <SMILES>  (46) 
COc1ccc2c(c1)CCN2C

>  <Energy>  (46) 
35.955882177426716

>  <Genealogy>  (46) 
COc1ccc2c(c1)CCN2C (3D coordinates assigned)
COc1ccc2c(c1)CCN2C (nonaromatic ring conformer: 35.955882177426716 kcal/mol)

>  <smiles>  (46) 
COc1ccc2c(c1)CCN2C

>  <score_type>  (46) 
oracle

>  <origin>  (46) 
adgpu

>  <m_score__min__energy>  (46) 
-5.6600000000000001

>  <m_primary>  (46) 
energy

$$$$
46:0
     RDKit          3D

 32 34  0  0  0  0  0  0  0  0999 V2000
   -7.1980   14.0090  -34.3530 C   0  0  0  0  0  0  0  0  0  0  0  0
   -6.2960   15.1990  -34.2140 C   0  0  0  0  0  0  0  0  0  0  0  0
   -4.9430   15.1030  -34.5620 C   0  0  0  0  0  0  0  0  0  0  0  0
   -4.0940   16.1980  -34.3930 C   0  0  0  0  0  0  0  0  0  0  0  0
   -4.5850   17.3990  -33.8710 C   0  0  0  0  0  0  0  0  0  0  0  0
   -3.7150   18.4200  -33.6700 F   0  0  0  0  0  0  0  0  0  0  0  0
   -5.9450   17.5130  -33.5120 C   0  0  0  0  0  0  0  0  0  0  0  0
   -6.5020   18.7670  -32.9490 C   0  0  0  0  0  0  0  0  0  0  0  0
   -7.8580   18.9760  -32.6920 C   0  0  0  0  0  0  0  0  0  0  0  0
   -8.0240   20.5100  -32.0250 S   0  0  0  0  0  0  0  0  0  0  0  0
   -6.3760   20.8500  -32.0800 C   0  0  0  0  0  0  0  0  0  0  0  0
   -5.7320   22.1030  -31.6240 C   0  0  0  0  0  0  0  0  0  0  0  0
   -6.5190   23.2170  -31.2770 C   0  0  0  0  0  0  0  0  0  0  0  0
   -5.9180   24.4030  -30.8470 C   0  0  0  0  0  0  0  0  0  0  0  0
   -4.5240   24.4930  -30.7550 C   0  0  0  0  0  0  0  0  0  0  0  0
   -3.9150   25.6710  -30.3260 O   0  0  0  0  0  0  0  0  0  0  0  0
   -3.7340   23.3920  -31.0970 C   0  0  0  0  0  0  0  0  0  0  0  0
   -4.3320   22.2040  -31.5280 C   0  0  0  0  0  0  0  0  0  0  0  0
   -5.6920   19.8050  -32.5990 N   0  0  0  0  0  0  0  0  0  0  0  0
   -6.7860   16.3980  -33.6730 C   0  0  0  0  0  0  0  0  0  0  0  0
   -7.4766   13.6414  -33.3544 H   0  0  0  0  0  0  0  0  0  0  0  0
   -8.1053   14.2989  -34.9033 H   0  0  0  0  0  0  0  0  0  0  0  0
   -6.6737   13.2138  -34.9033 H   0  0  0  0  0  0  0  0  0  0  0  0
   -4.5477   14.1611  -34.9701 H   0  0  0  0  0  0  0  0  0  0  0  0
   -3.0331   16.1159  -34.6719 H   0  0  0  0  0  0  0  0  0  0  0  0
   -8.6726   18.2639  -32.8905 H   0  0  0  0  0  0  0  0  0  0  0  0
   -7.6151   23.1536  -31.3448 H   0  0  0  0  0  0  0  0  0  0  0  0
   -6.5422   25.2685  -30.5800 H   0  0  0  0  0  0  0  0  0  0  0  0
   -3.0670   25.6570  -29.7720 H   0  0  0  0  0  0  0  0  0  0  0  0
   -2.6384   23.4603  -31.0269 H   0  0  0  0  0  0  0  0  0  0  0  0
   -3.7031   21.3417  -31.7941 H   0  0  0  0  0  0  0  0  0  0  0  0
   -7.8416   16.4660  -33.3711 H   0  0  0  0  0  0  0  0  0  0  0  0
  1  2  1  0
  2  3  2  0
  3  4  1  0
  4  5  2  0
  5  6  1  0
  5  7  1  0
  7  8  1  0
  8  9  2  0
  9 10  1  0
 10 11  1  0
 11 12  1  0
 12 13  2  0
 13 14  1  0
 14 15  2  0
 15 16  1  0
 15 17  1  0
 17 18  2  0
 11 19  2  0
  7 20  2  0
 20  2  1  0
 19  8  1  0
 18 12  1  0
  1 21  1  0
  1 22  1  0
  1 23  1  0
  3 24  1  0
  4 25  1  0
  9 26  1  0
 13 27  1  0
 14 28  1  0
 16 29  1  0
 17 30  1  0
 18 31  1  0
 20 32  1  0
M  END
>  <UniqueID>  (47) 
40

>  <SMILES>  (47) 
Cc1ccc(F)c(-c2csc(-c3ccc(O)cc3)n2)c1

>  <Energy>  (47) 
68.13851388081768

>  <Genealogy>  (47) 
Cc1ccc(F)c(-c2csc(-c3ccc(O)cc3)n2)c1 (3D coordinates assigned)
Cc1ccc(F)c(-c2csc(-c3ccc(O)cc3)n2)c1 (optimized conformer: 68.13851388081768 kcal/mol)

>  <smiles>  (47) 
Cc1ccc(F)c(-c2csc(-c3ccc(O)cc3)n2)c1

>  <score_type>  (47) 
oracle

>  <origin>  (47) 
adgpu

>  <m_score__min__energy>  (47) 
-8.25

>  <m_primary>  (47) 
energy

$$$$
47:0
     RDKit          3D

 39 40  0  0  0  0  0  0  0  0999 V2000
   -6.0680   25.1740  -29.4090 C   0  0  0  0  0  0  0  0  0  0  0  0
   -5.3900   25.9940  -30.5000 C   0  0  0  0  0  0  0  0  0  0  0  0
   -4.0780   25.4960  -30.7650 O   0  0  0  0  0  0  0  0  0  0  0  0
   -3.6000   24.2230  -30.4130 C   0  0  0  0  0  0  0  0  0  0  0  0
   -4.1460   23.0380  -30.9460 C   0  0  0  0  0  0  0  0  0  0  0  0
   -3.6450   21.7850  -30.5720 C   0  0  0  0  0  0  0  0  0  0  0  0
   -4.2340   20.6110  -31.1500 N   0  0  0  0  0  0  0  0  0  0  0  0
   -4.9120   20.4900  -32.7420 S   0  0  0  0  0  0  0  0  0  0  0  0
   -6.6560   20.8530  -32.6970 C   0  0  0  0  0  0  0  0  0  0  0  0
   -4.6770   19.1140  -33.3000 O   0  0  0  0  0  0  0  0  0  0  0  0
   -4.2330   21.4950  -33.6300 O   0  0  0  0  0  0  0  0  0  0  0  0
   -2.5930   21.7160  -29.6460 C   0  0  0  0  0  0  0  0  0  0  0  0
   -2.0520   22.8820  -29.1070 C   0  0  0  0  0  0  0  0  0  0  0  0
   -2.5370   24.1400  -29.5000 C   0  0  0  0  0  0  0  0  0  0  0  0
   -1.9780   25.3500  -28.9650 N   0  0  0  0  0  0  0  0  0  0  0  0
   -0.8210   25.4440  -28.1240 C   0  0  0  0  0  0  0  0  0  0  0  0
    0.2130   24.8020  -28.4470 O   0  0  0  0  0  0  0  0  0  0  0  0
   -0.8230   26.2330  -26.8700 C   0  0  0  0  0  0  0  0  0  0  0  0
   -0.4140   27.5800  -26.8620 C   0  0  0  0  0  0  0  0  0  0  0  0
   -0.4060   28.3090  -25.6690 C   0  0  0  0  0  0  0  0  0  0  0  0
   -0.8180   27.7090  -24.4770 C   0  0  0  0  0  0  0  0  0  0  0  0
   -1.2440   26.3780  -24.4770 C   0  0  0  0  0  0  0  0  0  0  0  0
   -1.2540   25.6430  -25.6670 C   0  0  0  0  0  0  0  0  0  0  0  0
   -5.7580   25.5489  -28.4224 H   0  0  0  0  0  0  0  0  0  0  0  0
   -7.1599   25.2629  -29.5085 H   0  0  0  0  0  0  0  0  0  0  0  0
   -5.7755   24.1183  -29.5085 H   0  0  0  0  0  0  0  0  0  0  0  0
   -5.9903   25.9371  -31.4200 H   0  0  0  0  0  0  0  0  0  0  0  0
   -5.3100   27.0370  -30.1599 H   0  0  0  0  0  0  0  0  0  0  0  0
   -4.9763   23.0982  -31.6650 H   0  0  0  0  0  0  0  0  0  0  0  0
   -6.9892   20.9224  -31.6510 H   0  0  0  0  0  0  0  0  0  0  0  0
   -6.8447   21.8097  -33.2061 H   0  0  0  0  0  0  0  0  0  0  0  0
   -7.2107   20.0511  -33.2061 H   0  0  0  0  0  0  0  0  0  0  0  0
   -2.1932   20.7367  -29.3439 H   0  0  0  0  0  0  0  0  0  0  0  0
   -1.2394   22.8164  -28.3685 H   0  0  0  0  0  0  0  0  0  0  0  0
   -0.0990   28.0616  -27.7995 H   0  0  0  0  0  0  0  0  0  0  0  0
   -0.0744   29.3578  -25.6692 H   0  0  0  0  0  0  0  0  0  0  0  0
   -0.8072   28.2836  -23.5390 H   0  0  0  0  0  0  0  0  0  0  0  0
   -1.5723   25.9071  -23.5387 H   0  0  0  0  0  0  0  0  0  0  0  0
   -1.6003   24.5990  -25.6627 H   0  0  0  0  0  0  0  0  0  0  0  0
  1  2  1  0
  2  3  1  0
  3  4  1  0
  4  5  2  0
  5  6  1  0
  6  7  1  0
  7  8  1  0
  8  9  1  0
  8 10  2  0
  8 11  2  0
  6 12  2  0
 12 13  1  0
 13 14  2  0
 14 15  1  0
 15 16  1  0
 16 17  2  0
 16 18  1  0
 18 19  2  0
 19 20  1  0
 20 21  2  0
 21 22  1  0
 22 23  2  0
 14  4  1  0
 23 18  1  0
  1 24  1  0
  1 25  1  0
  1 26  1  0
  2 27  1  0
  2 28  1  0
  5 29  1  0
  9 30  1  0
  9 31  1  0
  9 32  1  0
 12 33  1  0
 13 34  1  0
 19 35  1  0
 20 36  1  0
 21 37  1  0
 22 38  1  0
 23 39  1  0
M  CHG  2   7  -1  15  -1
M  END
>  <UniqueID>  (48) 
41

>  <SMILES>  (48) 
CCOc1cc([N-]S(C)(=O)=O)ccc1[N-]C(=O)c1ccccc1

>  <Energy>  (48) 
43.34409779951191

>  <Genealogy>  (48) 
CCOc1cc([N-]S(C)(=O)=O)ccc1[N-]C(=O)c1ccccc1 (protonated)
CCOc1cc([N-]S(C)(=O)=O)ccc1[N-]C(=O)c1ccccc1 (3D coordinates assigned)
CCOc1cc([N-]S(C)(=O)=O)ccc1[N-]C(=O)c1ccccc1 (optimized conformer: 43.34409779951191 kcal/mol)

>  <smiles>  (48) 
CCOc1cc(NS(C)(=O)=O)ccc1NC(=O)c1ccccc1

>  <score_type>  (48) 
oracle

>  <origin>  (48) 
adgpu

>  <m_score__min__energy>  (48) 
-10.16

>  <m_primary>  (48) 
energy

$$$$
48:0
     RDKit          3D

 31 32  0  0  0  0  0  0  0  0999 V2000
   -3.8030   20.1440  -33.3770 C   0  0  0  0  0  0  0  0  0  0  0  0
   -4.0810   21.6150  -33.0840 C   0  0  0  0  0  0  0  0  0  0  0  0
   -4.5660   21.8470  -31.6460 C   0  0  0  0  0  0  0  0  0  0  0  0
   -5.9950   22.1800  -31.5950 N   0  0  0  0  0  0  0  0  0  0  0  0
   -6.5690   23.4030  -31.4190 C   0  0  0  0  0  0  0  0  0  0  0  0
   -5.6480   24.9300  -31.1850 S   0  0  0  0  0  0  0  0  0  0  0  0
   -5.7460   24.9170  -29.3610 C   0  0  0  0  0  0  0  0  0  0  0  0
   -4.5670   24.1560  -28.7710 C   0  0  0  0  0  0  0  0  0  0  0  0
   -7.9230   23.3860  -31.5160 N   0  0  0  0  0  0  0  0  0  0  0  0
   -8.1920   22.0900  -31.7550 C   0  0  0  0  0  0  0  0  0  0  0  0
   -9.4420   21.5110  -31.9670 C   0  0  0  0  0  0  0  0  0  0  0  0
   -9.4860   20.1350  -32.2560 C   0  0  0  0  0  0  0  0  0  0  0  0
   -8.2930   19.3830  -32.3360 C   0  0  0  0  0  0  0  0  0  0  0  0
   -7.0450   19.9980  -32.1220 C   0  0  0  0  0  0  0  0  0  0  0  0
   -7.0390   21.3620  -31.8160 C   0  0  0  0  0  0  0  0  0  0  0  0
   -3.6992   19.5947  -32.4296 H   0  0  0  0  0  0  0  0  0  0  0  0
   -4.6372   19.7215  -33.9563 H   0  0  0  0  0  0  0  0  0  0  0  0
   -2.8721   20.0551  -33.9563 H   0  0  0  0  0  0  0  0  0  0  0  0
   -3.1545   22.1870  -33.2403 H   0  0  0  0  0  0  0  0  0  0  0  0
   -4.8803   21.9457  -33.7636 H   0  0  0  0  0  0  0  0  0  0  0  0
   -4.3935   20.9316  -31.0609 H   0  0  0  0  0  0  0  0  0  0  0  0
   -4.0039   22.6964  -31.2305 H   0  0  0  0  0  0  0  0  0  0  0  0
   -5.7312   25.9524  -28.9900 H   0  0  0  0  0  0  0  0  0  0  0  0
   -6.6791   24.4198  -29.0576 H   0  0  0  0  0  0  0  0  0  0  0  0
   -4.6207   24.1907  -27.6729 H   0  0  0  0  0  0  0  0  0  0  0  0
   -4.6012   23.1091  -29.1069 H   0  0  0  0  0  0  0  0  0  0  0  0
   -3.6271   24.6183  -29.1069 H   0  0  0  0  0  0  0  0  0  0  0  0
  -10.3630   22.1098  -31.9102 H   0  0  0  0  0  0  0  0  0  0  0  0
  -10.4553   19.6417  -32.4207 H   0  0  0  0  0  0  0  0  0  0  0  0
   -8.3395   18.3086  -32.5673 H   0  0  0  0  0  0  0  0  0  0  0  0
   -6.1082   19.4259  -32.1930 H   0  0  0  0  0  0  0  0  0  0  0  0
  1  2  1  0
  2  3  1  0
  3  4  1  0
  4  5  1  0
  5  6  1  0
  6  7  1  0
  7  8  1  0
  5  9  2  0
  9 10  1  0
 10 11  2  0
 11 12  1  0
 12 13  2  0
 13 14  1  0
 14 15  2  0
 15  4  1  0
 15 10  1  0
  1 16  1  0
  1 17  1  0
  1 18  1  0
  2 19  1  0
  2 20  1  0
  3 21  1  0
  3 22  1  0
  7 23  1  0
  7 24  1  0
  8 25  1  0
  8 26  1  0
  8 27  1  0
 11 28  1  0
 12 29  1  0
 13 30  1  0
 14 31  1  0
M  END
>  <UniqueID>  (49) 
42

>  <SMILES>  (49) 
CCCn1c(SCC)nc2ccccc21

>  <Energy>  (49) 
58.074569357464

>  <Genealogy>  (49) 
CCCn1c(SCC)nc2ccccc21 (3D coordinates assigned)
CCCn1c(SCC)nc2ccccc21 (optimized conformer: 58.074569357464 kcal/mol)

>  <smiles>  (49) 
CCCn1c(SCC)nc2ccccc21

>  <score_type>  (49) 
oracle

>  <origin>  (49) 
adgpu

>  <m_score__min__energy>  (49) 
-5.9299999999999997

>  <m_primary>  (49) 
energy

$$$$
49:0
     RDKit          3D

 44 46  0  0  0  0  0  0  0  0999 V2000
   -9.4350   21.8340  -31.2490 C   0  0  0  0  0  0  0  0  0  0  0  0
   -8.0610   21.7500  -31.7440 N   0  0  0  0  0  0  0  0  0  0  0  0
   -7.5420   20.5030  -32.2550 C   0  0  0  0  0  0  0  0  0  0  0  0
   -7.8470   19.2850  -31.6190 C   0  0  0  0  0  0  0  0  0  0  0  0
   -7.3490   18.0780  -32.1170 C   0  0  0  0  0  0  0  0  0  0  0  0
   -6.5430   18.0680  -33.2600 C   0  0  0  0  0  0  0  0  0  0  0  0
   -6.0300   16.8250  -33.7720 C   0  0  0  0  0  0  0  0  0  0  0  0
   -5.6170   15.8250  -34.1860 N   0  0  0  0  0  0  0  0  0  0  0  0
   -6.2390   19.2720  -33.9060 C   0  0  0  0  0  0  0  0  0  0  0  0
   -6.7350   20.4800  -33.4090 C   0  0  0  0  0  0  0  0  0  0  0  0
   -7.0790   23.1900  -31.7390 S   0  0  0  0  0  0  0  0  0  0  0  0
   -7.7100   24.2170  -30.8390 O   0  0  0  0  0  0  0  0  0  0  0  0
   -7.0110   23.7510  -33.1320 O   0  0  0  0  0  0  0  0  0  0  0  0
   -5.4490   22.8350  -31.1730 C   0  0  0  0  0  0  0  0  0  0  0  0
   -4.5180   22.2070  -32.0100 C   0  0  0  0  0  0  0  0  0  0  0  0
   -3.2310   21.9220  -31.5450 C   0  0  0  0  0  0  0  0  0  0  0  0
   -2.8530   22.2650  -30.2330 C   0  0  0  0  0  0  0  0  0  0  0  0
   -1.4930   21.9580  -29.7340 C   0  0  0  0  0  0  0  0  0  0  0  0
   -1.1270   20.7590  -29.5950 O   0  0  0  0  0  0  0  0  0  0  0  0
   -0.6050   23.0220  -29.3630 N   0  0  0  0  0  0  0  0  0  0  0  0
   -0.6960   23.7980  -28.1600 C   0  0  0  0  0  0  0  0  0  0  0  0
   -0.3740   23.1860  -26.9410 C   0  0  0  0  0  0  0  0  0  0  0  0
   -0.4570   23.9040  -25.7450 C   0  0  0  0  0  0  0  0  0  0  0  0
   -0.8820   25.2330  -25.7550 C   0  0  0  0  0  0  0  0  0  0  0  0
   -1.2370   25.8450  -26.9600 C   0  0  0  0  0  0  0  0  0  0  0  0
   -1.1600   25.1300  -28.1620 C   0  0  0  0  0  0  0  0  0  0  0  0
   -1.5790   25.7410  -29.3380 O   0  0  0  0  0  0  0  0  0  0  0  0
   -3.7930   22.8990  -29.3990 C   0  0  0  0  0  0  0  0  0  0  0  0
   -5.0800   23.1800  -29.8680 C   0  0  0  0  0  0  0  0  0  0  0  0
   -9.4291   21.8336  -30.1490 H   0  0  0  0  0  0  0  0  0  0  0  0
   -9.8997   22.7622  -31.6129 H   0  0  0  0  0  0  0  0  0  0  0  0
  -10.0093   20.9693  -31.6129 H   0  0  0  0  0  0  0  0  0  0  0  0
   -8.4832   19.2832  -30.7217 H   0  0  0  0  0  0  0  0  0  0  0  0
   -7.5916   17.1332  -31.6086 H   0  0  0  0  0  0  0  0  0  0  0  0
   -5.6081   19.2671  -34.8071 H   0  0  0  0  0  0  0  0  0  0  0  0
   -6.4930   21.4215  -33.9237 H   0  0  0  0  0  0  0  0  0  0  0  0
   -4.8009   21.9368  -33.0381 H   0  0  0  0  0  0  0  0  0  0  0  0
   -2.5080   21.4259  -32.2093 H   0  0  0  0  0  0  0  0  0  0  0  0
   -0.0539   22.1337  -26.9256 H   0  0  0  0  0  0  0  0  0  0  0  0
   -0.1869   23.4208  -24.7944 H   0  0  0  0  0  0  0  0  0  0  0  0
   -0.9376   25.7993  -24.8136 H   0  0  0  0  0  0  0  0  0  0  0  0
   -1.5778   26.8909  -26.9646 H   0  0  0  0  0  0  0  0  0  0  0  0
   -3.5134   23.1752  -28.3716 H   0  0  0  0  0  0  0  0  0  0  0  0
   -5.8067   23.6752  -29.2072 H   0  0  0  0  0  0  0  0  0  0  0  0
  1  2  1  0
  2  3  1  0
  3  4  2  0
  4  5  1  0
  5  6  2  0
  6  7  1  0
  7  8  3  0
  6  9  1  0
  9 10  2  0
  2 11  1  0
 11 12  2  0
 11 13  2  0
 11 14  1  0
 14 15  2  0
 15 16  1  0
 16 17  2  0
 17 18  1  0
 18 19  2  0
 18 20  1  0
 20 21  1  0
 21 22  2  0
 22 23  1  0
 23 24  2  0
 24 25  1  0
 25 26  2  0
 26 27  1  0
 17 28  1  0
 28 29  2  0
 10  3  1  0
 29 14  1  0
 26 21  1  0
  1 30  1  0
  1 31  1  0
  1 32  1  0
  4 33  1  0
  5 34  1  0
  9 35  1  0
 10 36  1  0
 15 37  1  0
 16 38  1  0
 22 39  1  0
 23 40  1  0
 24 41  1  0
 25 42  1  0
 28 43  1  0
 29 44  1  0
M  CHG  2  20  -1  27  -1
M  END
>  <UniqueID>  (50) 
43

>  <SMILES>  (50) 
CN(c1ccc(C#N)cc1)S(=O)(=O)c1ccc(C(=O)[N-]c2ccccc2[O-])cc1

>  <Energy>  (50) 
56.77492571811453

>  <Genealogy>  (50) 
CN(c1ccc(C#N)cc1)S(=O)(=O)c1ccc(C(=O)[N-]c2ccccc2[O-])cc1 (protonated)
CN(c1ccc(C#N)cc1)S(=O)(=O)c1ccc(C(=O)[N-]c2ccccc2[O-])cc1 (3D coordinates assigned)
CN(c1ccc(C#N)cc1)S(=O)(=O)c1ccc(C(=O)[N-]c2ccccc2[O-])cc1 (optimized conformer: 56.77492571811453 kcal/mol)

>  <smiles>  (50) 
CN(c1ccc(C#N)cc1)S(=O)(=O)c1ccc(C(=O)Nc2ccccc2O)cc1

>  <score_type>  (50) 
oracle

>  <origin>  (50) 
adgpu

>  <m_score__min__energy>  (50) 
-14.82

>  <m_primary>  (50) 
energy

$$$$
