0:0
     RDKit          3D

 45 47  0  0  0  0  0  0  0  0999 V2000
    0.0560   26.1750  -26.0940 C   0  0  0  0  0  0  0  0  0  0  0  0
   -0.5050   25.4020  -27.5970 S   0  0  0  0  0  0  0  0  0  0  0  0
   -0.9190   26.4430  -28.6000 O   0  0  0  0  0  0  0  0  0  0  0  0
    0.6290   24.6030  -28.1740 O   0  0  0  0  0  0  0  0  0  0  0  0
   -1.8310   24.3340  -27.2640 N   0  0  0  0  0  0  0  0  0  0  0  0
   -2.8910   24.0320  -28.1920 C   0  0  0  0  0  0  0  0  0  0  0  0
   -3.9310   23.1810  -27.7830 C   0  0  0  0  0  0  0  0  0  0  0  0
   -4.9750   22.8620  -28.6560 C   0  0  0  0  0  0  0  0  0  0  0  0
   -4.9920   23.3840  -29.9550 C   0  0  0  0  0  0  0  0  0  0  0  0
   -6.2890   22.9780  -31.0750 S   0  0  0  0  0  0  0  0  0  0  0  0
   -7.6090   22.9310  -30.3580 O   0  0  0  0  0  0  0  0  0  0  0  0
   -6.3680   24.0430  -32.1340 O   0  0  0  0  0  0  0  0  0  0  0  0
   -5.9700   21.4240  -31.7950 N   0  0  0  0  0  0  0  0  0  0  0  0
   -4.6160   21.0660  -32.1120 C   0  0  0  0  0  0  0  0  0  0  0  0
   -4.1680   21.1210  -33.4420 C   0  0  0  0  0  0  0  0  0  0  0  0
   -2.8490   20.7790  -33.7550 C   0  0  0  0  0  0  0  0  0  0  0  0
   -1.9680   20.3890  -32.7420 C   0  0  0  0  0  0  0  0  0  0  0  0
   -2.4040   20.3440  -31.4150 C   0  0  0  0  0  0  0  0  0  0  0  0
   -3.7230   20.6840  -31.0990 C   0  0  0  0  0  0  0  0  0  0  0  0
   -7.0280   20.4570  -31.9700 C   0  0  0  0  0  0  0  0  0  0  0  0
   -6.7540   19.0810  -31.8550 C   0  0  0  0  0  0  0  0  0  0  0  0
   -7.7730   18.1370  -32.0160 C   0  0  0  0  0  0  0  0  0  0  0  0
   -9.0770   18.5560  -32.2900 C   0  0  0  0  0  0  0  0  0  0  0  0
   -9.3630   19.9180  -32.4020 C   0  0  0  0  0  0  0  0  0  0  0  0
   -8.3480   20.8650  -32.2440 C   0  0  0  0  0  0  0  0  0  0  0  0
   -3.9580   24.2320  -30.3700 C   0  0  0  0  0  0  0  0  0  0  0  0
   -2.9130   24.5520  -29.4990 C   0  0  0  0  0  0  0  0  0  0  0  0
   -0.3426   25.6258  -25.2283 H   0  0  0  0  0  0  0  0  0  0  0  0
    1.1555   26.1608  -26.0626 H   0  0  0  0  0  0  0  0  0  0  0  0
   -0.2983   27.2159  -26.0626 H   0  0  0  0  0  0  0  0  0  0  0  0
   -1.8760   23.9320  -26.3010 H   0  0  0  0  0  0  0  0  0  0  0  0
   -3.9238   22.7617  -26.7661 H   0  0  0  0  0  0  0  0  0  0  0  0
   -5.7860   22.1985  -28.3213 H   0  0  0  0  0  0  0  0  0  0  0  0
   -4.8572   21.4342  -34.2401 H   0  0  0  0  0  0  0  0  0  0  0  0
   -2.5042   20.8168  -34.7989 H   0  0  0  0  0  0  0  0  0  0  0  0
   -0.9312   20.1174  -32.9895 H   0  0  0  0  0  0  0  0  0  0  0  0
   -1.7088   20.0408  -30.6183 H   0  0  0  0  0  0  0  0  0  0  0  0
   -4.0618   20.6519  -30.0530 H   0  0  0  0  0  0  0  0  0  0  0  0
   -5.7294   18.7455  -31.6366 H   0  0  0  0  0  0  0  0  0  0  0  0
   -7.5476   17.0640  -31.9268 H   0  0  0  0  0  0  0  0  0  0  0  0
   -9.8783   17.8132  -32.4175 H   0  0  0  0  0  0  0  0  0  0  0  0
  -10.3909   20.2466  -32.6153 H   0  0  0  0  0  0  0  0  0  0  0  0
   -8.5813   21.9362  -32.3342 H   0  0  0  0  0  0  0  0  0  0  0  0
   -3.9683   24.6489  -31.3879 H   0  0  0  0  0  0  0  0  0  0  0  0
   -2.1027   25.2145  -29.8374 H   0  0  0  0  0  0  0  0  0  0  0  0
  1  2  1  0
  2  3  2  0
  2  4  2  0
  2  5  1  0
  5  6  1  0
  6  7  2  0
  7  8  1  0
  8  9  2  0
  9 10  1  0
 10 11  2  0
 10 12  2  0
 10 13  1  0
 13 14  1  0
 14 15  2  0
 15 16  1  0
 16 17  2  0
 17 18  1  0
 18 19  2  0
 13 20  1  0
 20 21  2  0
 21 22  1  0
 22 23  2  0
 23 24  1  0
 24 25  2  0
  9 26  1  0
 26 27  2  0
 27  6  1  0
 19 14  1  0
 25 20  1  0
  1 28  1  0
  1 29  1  0
  1 30  1  0
  5 31  1  0
  7 32  1  0
  8 33  1  0
 15 34  1  0
 16 35  1  0
 17 36  1  0
 18 37  1  0
 19 38  1  0
 21 39  1  0
 22 40  1  0
 23 41  1  0
 24 42  1  0
 25 43  1  0
 26 44  1  0
 27 45  1  0
M  END
>  <UniqueID>  (1) 
1

>  <SMILES>  (1) 
CS(=O)(=O)Nc1ccc(S(=O)(=O)N(c2ccccc2)c2ccccc2)cc1

>  <Energy>  (1) 
56.98684592819445

>  <Genealogy>  (1) 
CS(=O)(=O)Nc1ccc(S(=O)(=O)N(c2ccccc2)c2ccccc2)cc1 (3D coordinates assigned)
CS(=O)(=O)Nc1ccc(S(=O)(=O)N(c2ccccc2)c2ccccc2)cc1 (optimized conformer: 56.98684592819445 kcal/mol)

>  <smiles>  (1) 
CS(=O)(=O)Nc1ccc(S(=O)(=O)N(c2ccccc2)c2ccccc2)cc1

>  <score_type>  (1) 
oracle

>  <origin>  (1) 
adgpu

>  <m_score__min__energy>  (1) 
-9.1699999999999999

>  <m_primary>  (1) 
energy

$$$$
1:0
     RDKit          3D

 38 40  0  0  0  0  0  0  0  0999 V2000
   -1.8627   25.1110  -28.9999 H   0  0  0  0  0  0  0  0  0  0  0  0
   -2.7510   24.5530  -29.3310 C   0  0  0  0  0  0  0  0  0  0  0  0
   -3.4890   24.9310  -30.4090 N   0  0  0  0  0  0  0  0  0  0  0  0
   -4.5260   24.0940  -30.6210 C   0  0  0  0  0  0  0  0  0  0  0  0
   -5.3630   24.2630  -31.5970 N   0  0  0  0  0  0  0  0  0  0  0  0
   -6.7110   23.2200  -31.9170 S   0  0  0  0  0  0  0  0  0  0  0  0
   -7.5080   23.7540  -33.0750 O   0  0  0  0  0  0  0  0  0  0  0  0
   -7.5960   23.1370  -30.7040 O   0  0  0  0  0  0  0  0  0  0  0  0
   -6.1070   21.6150  -32.3130 C   0  0  0  0  0  0  0  0  0  0  0  0
   -4.7430   21.4170  -32.5560 C   0  0  0  0  0  0  0  0  0  0  0  0
   -4.0449   22.2643  -32.4874 H   0  0  0  0  0  0  0  0  0  0  0  0
   -4.2650   20.1440  -32.8860 C   0  0  0  0  0  0  0  0  0  0  0  0
   -3.1929   19.9981  -33.0842 H   0  0  0  0  0  0  0  0  0  0  0  0
   -5.1420   19.0530  -32.9660 C   0  0  0  0  0  0  0  0  0  0  0  0
   -4.6280   17.7610  -33.3310 N   0  0  0  0  0  0  0  0  0  0  0  0
   -3.8830   17.7270  -34.0620 H   0  0  0  0  0  0  0  0  0  0  0  0
   -5.0230   16.5310  -32.6990 C   0  0  0  0  0  0  0  0  0  0  0  0
   -5.7180   16.5510  -31.6470 O   0  0  0  0  0  0  0  0  0  0  0  0
   -4.5650   15.2320  -33.2390 C   0  0  0  0  0  0  0  0  0  0  0  0
   -4.1490   15.1630  -34.5800 C   0  0  0  0  0  0  0  0  0  0  0  0
   -4.2089   16.0586  -35.2158 H   0  0  0  0  0  0  0  0  0  0  0  0
   -3.6600   13.9670  -35.1130 C   0  0  0  0  0  0  0  0  0  0  0  0
   -3.1350   13.9010  -36.7860 Cl  0  0  0  0  0  0  0  0  0  0  0  0
   -3.5760   12.8280  -34.3110 C   0  0  0  0  0  0  0  0  0  0  0  0
   -3.1837   11.8891  -34.7287 H   0  0  0  0  0  0  0  0  0  0  0  0
   -3.9900   12.8800  -32.9780 C   0  0  0  0  0  0  0  0  0  0  0  0
   -3.9203   11.9791  -32.3507 H   0  0  0  0  0  0  0  0  0  0  0  0
   -4.4940   14.0700  -32.4310 C   0  0  0  0  0  0  0  0  0  0  0  0
   -4.9660   14.0640  -31.0760 N   0  0  0  0  0  0  0  0  0  0  0  0
   -5.3780   14.9280  -30.6560 H   0  0  0  0  0  0  0  0  0  0  0  0
   -4.8420   13.2410  -30.4490 H   0  0  0  0  0  0  0  0  0  0  0  0
   -6.5170   19.2630  -32.7530 C   0  0  0  0  0  0  0  0  0  0  0  0
   -7.2202   18.4222  -32.8449 H   0  0  0  0  0  0  0  0  0  0  0  0
   -6.9930   20.5360  -32.4250 C   0  0  0  0  0  0  0  0  0  0  0  0
   -8.0685   20.6909  -32.2541 H   0  0  0  0  0  0  0  0  0  0  0  0
   -4.5700   22.8520  -29.4800 S   0  0  0  0  0  0  0  0  0  0  0  0
   -3.2000   23.4100  -28.6770 C   0  0  0  0  0  0  0  0  0  0  0  0
   -2.7398   22.9509  -27.7896 H   0  0  0  0  0  0  0  0  0  0  0  0
  1  2  1  0
  2  3  1  0
  3  4  1  0
  4  5  2  0
  5  6  1  0
  6  7  2  0
  6  8  2  0
  6  9  1  0
  9 10  2  0
 10 11  1  0
 10 12  1  0
 12 13  1  0
 12 14  2  0
 14 15  1  0
 15 16  1  0
 15 17  1  0
 17 18  2  0
 17 19  1  0
 19 20  2  0
 20 21  1  0
 20 22  1  0
 22 23  1  0
 22 24  2  0
 24 25  1  0
 24 26  1  0
 26 27  1  0
 26 28  2  0
 28 29  1  0
 29 30  1  0
 29 31  1  0
 14 32  1  0
 32 33  1  0
 32 34  2  0
 34 35  1  0
  4 36  1  0
 36 37  1  0
 37 38  1  0
 37  2  2  0
 34  9  1  0
 28 19  1  0
M  CHG  1   3  -1
M  END
>  <UniqueID>  (2) 
2

>  <SMILES>  (2) 
Nc1ccc(Cl)cc1C(=O)Nc1ccc(S(=O)(=O)/N=c2/[n-]ccs2)cc1

>  <Energy>  (2) 
84.27077416506806

>  <Genealogy>  (2) 
Nc1ccc(Cl)cc1C(=O)Nc1ccc(S(=O)(=O)N=c2[n-]ccs2)cc1 (protonated)
Nc1ccc(Cl)cc1C(=O)Nc1ccc(S(=O)(=O)/N=c2/[n-]ccs2)cc1 (cis-trans isomerization)
Nc1ccc(Cl)cc1C(=O)Nc1ccc(S(=O)(=O)/N=c2/[n-]ccs2)cc1 (3D coordinates assigned)
Nc1ccc(Cl)cc1C(=O)Nc1ccc(S(=O)(=O)/N=c2/[n-]ccs2)cc1 (optimized conformer: 84.27077416506806 kcal/mol)

>  <smiles>  (2) 
Nc1ccc(Cl)cc1C(=O)Nc1ccc(S(=O)(=O)N=c2[nH]ccs2)cc1

>  <score_type>  (2) 
oracle

>  <origin>  (2) 
adgpu

>  <m_score__min__energy>  (2) 
-8.8499999999999996

>  <m_primary>  (2) 
energy

$$$$
2:0
     RDKit          3D

 47 49  0  0  0  0  0  0  0  0999 V2000
   -6.3820   25.9390  -29.1430 C   0  0  0  0  0  0  0  0  0  0  0  0
   -6.8970   24.8420  -30.0740 C   0  0  0  0  0  0  0  0  0  0  0  0
   -5.8120   23.9380  -30.4960 N   0  0  0  0  0  0  0  0  0  0  0  0
   -4.4430   24.3000  -30.2270 C   0  0  0  0  0  0  0  0  0  0  0  0
   -3.9210   25.2590  -30.8580 O   0  0  0  0  0  0  0  0  0  0  0  0
   -3.6260   23.5500  -29.2430 C   0  0  0  0  0  0  0  0  0  0  0  0
   -4.0280   22.2660  -28.8410 C   0  0  0  0  0  0  0  0  0  0  0  0
   -3.2670   21.5380  -27.9230 C   0  0  0  0  0  0  0  0  0  0  0  0
   -2.0800   22.0730  -27.4070 C   0  0  0  0  0  0  0  0  0  0  0  0
   -1.2840   21.3050  -26.3930 C   0  0  0  0  0  0  0  0  0  0  0  0
   -1.6770   23.3580  -27.7970 C   0  0  0  0  0  0  0  0  0  0  0  0
   -2.4380   24.0960  -28.7150 C   0  0  0  0  0  0  0  0  0  0  0  0
   -2.0230   25.3750  -29.0890 O   0  0  0  0  0  0  0  0  0  0  0  0
   -6.0740   22.8140  -31.3650 C   0  0  0  0  0  0  0  0  0  0  0  0
   -7.3730   22.3110  -31.5460 C   0  0  0  0  0  0  0  0  0  0  0  0
   -7.5910   21.2240  -32.3930 C   0  0  0  0  0  0  0  0  0  0  0  0
   -6.5130   20.6450  -33.0640 C   0  0  0  0  0  0  0  0  0  0  0  0
   -6.7390   19.5400  -33.8960 O   0  0  0  0  0  0  0  0  0  0  0  0
   -5.9590   18.3730  -33.9230 C   0  0  0  0  0  0  0  0  0  0  0  0
   -6.4920   17.1070  -33.6130 C   0  0  0  0  0  0  0  0  0  0  0  0
   -5.6740   15.9730  -33.6400 C   0  0  0  0  0  0  0  0  0  0  0  0
   -4.3180   16.0920  -33.9660 C   0  0  0  0  0  0  0  0  0  0  0  0
   -3.4770   14.9250  -33.9940 C   0  0  0  0  0  0  0  0  0  0  0  0
   -2.8000   13.9860  -34.0160 N   0  0  0  0  0  0  0  0  0  0  0  0
   -3.7800   17.3520  -34.2560 C   0  0  0  0  0  0  0  0  0  0  0  0
   -4.5970   18.4870  -34.2260 C   0  0  0  0  0  0  0  0  0  0  0  0
   -5.2580   21.1380  -32.8730 N   0  0  0  0  0  0  0  0  0  0  0  0
   -5.0170   22.1960  -32.0550 C   0  0  0  0  0  0  0  0  0  0  0  0
   -6.5269   25.6303  -28.0972 H   0  0  0  0  0  0  0  0  0  0  0  0
   -5.3112   26.1065  -29.3308 H   0  0  0  0  0  0  0  0  0  0  0  0
   -6.9372   26.8698  -29.3308 H   0  0  0  0  0  0  0  0  0  0  0  0
   -7.6648   24.2570  -29.5466 H   0  0  0  0  0  0  0  0  0  0  0  0
   -7.3166   25.3200  -30.9715 H   0  0  0  0  0  0  0  0  0  0  0  0
   -4.9501   21.8296  -29.2525 H   0  0  0  0  0  0  0  0  0  0  0  0
   -3.6017   20.5399  -27.6040 H   0  0  0  0  0  0  0  0  0  0  0  0
   -1.5938   21.6039  -25.3808 H   0  0  0  0  0  0  0  0  0  0  0  0
   -1.4609   20.2277  -26.5275 H   0  0  0  0  0  0  0  0  0  0  0  0
   -0.2137   21.5204  -26.5275 H   0  0  0  0  0  0  0  0  0  0  0  0
   -0.7561   23.7909  -27.3793 H   0  0  0  0  0  0  0  0  0  0  0  0
   -2.0150   25.6700  -30.0590 H   0  0  0  0  0  0  0  0  0  0  0  0
   -8.2198   22.7749  -31.0190 H   0  0  0  0  0  0  0  0  0  0  0  0
   -8.6070   20.8256  -32.5311 H   0  0  0  0  0  0  0  0  0  0  0  0
   -7.5553   17.0097  -33.3487 H   0  0  0  0  0  0  0  0  0  0  0  0
   -6.0972   14.9853  -33.4045 H   0  0  0  0  0  0  0  0  0  0  0  0
   -2.7136   17.4493  -34.5077 H   0  0  0  0  0  0  0  0  0  0  0  0
   -4.1664   19.4759  -34.4420 H   0  0  0  0  0  0  0  0  0  0  0  0
   -3.9900   22.5704  -31.9323 H   0  0  0  0  0  0  0  0  0  0  0  0
  1  2  1  0
  2  3  1  0
  3  4  1  0
  4  5  2  0
  4  6  1  0
  6  7  2  0
  7  8  1  0
  8  9  2  0
  9 10  1  0
  9 11  1  0
 11 12  2  0
 12 13  1  0
  3 14  1  0
 14 15  2  0
 15 16  1  0
 16 17  2  0
 17 18  1  0
 18 19  1  0
 19 20  2  0
 20 21  1  0
 21 22  2  0
 22 23  1  0
 23 24  3  0
 22 25  1  0
 25 26  2  0
 17 27  1  0
 27 28  2  0
 12  6  1  0
 28 14  1  0
 26 19  1  0
  1 29  1  0
  1 30  1  0
  1 31  1  0
  2 32  1  0
  2 33  1  0
  7 34  1  0
  8 35  1  0
 10 36  1  0
 10 37  1  0
 10 38  1  0
 11 39  1  0
 13 40  1  0
 15 41  1  0
 16 42  1  0
 20 43  1  0
 21 44  1  0
 25 45  1  0
 26 46  1  0
 28 47  1  0
M  END
>  <UniqueID>  (3) 
3

>  <SMILES>  (3) 
CCN(C(=O)c1ccc(C)cc1O)c1ccc(Oc2ccc(C#N)cc2)nc1

>  <Energy>  (3) 
62.30985712216726

>  <Genealogy>  (3) 
CCN(C(=O)c1ccc(C)cc1O)c1ccc(Oc2ccc(C#N)cc2)nc1 (3D coordinates assigned)
CCN(C(=O)c1ccc(C)cc1O)c1ccc(Oc2ccc(C#N)cc2)nc1 (optimized conformer: 62.30985712216726 kcal/mol)

>  <smiles>  (3) 
CCN(C(=O)c1ccc(C)cc1O)c1ccc(Oc2ccc(C#N)cc2)nc1

>  <score_type>  (3) 
oracle

>  <origin>  (3) 
adgpu

>  <m_score__min__energy>  (3) 
-9.8900000000000006

>  <m_primary>  (3) 
energy

$$$$
3:0
     RDKit          3D

 42 44  0  0  0  0  0  0  0  0999 V2000
   -6.6550   14.5840  -34.4560 C   0  0  0  0  0  0  0  0  0  0  0  0
   -6.3260   15.9560  -33.9470 C   0  0  0  0  0  0  0  0  0  0  0  0
   -5.0820   16.5380  -34.2360 C   0  0  0  0  0  0  0  0  0  0  0  0
   -4.7600   17.8010  -33.7320 C   0  0  0  0  0  0  0  0  0  0  0  0
   -5.6730   18.5000  -32.9220 C   0  0  0  0  0  0  0  0  0  0  0  0
   -5.3300   19.8370  -32.3760 C   0  0  0  0  0  0  0  0  0  0  0  0
   -4.1300   20.0200  -31.6750 C   0  0  0  0  0  0  0  0  0  0  0  0
   -3.8010   21.2080  -31.1840 O   0  0  0  0  0  0  0  0  0  0  0  0
   -4.5690   22.2870  -31.3160 C   0  0  0  0  0  0  0  0  0  0  0  0
   -4.1470   23.5210  -30.7680 C   0  0  0  0  0  0  0  0  0  0  0  0
   -2.8090   23.5790  -30.0580 C   0  0  0  0  0  0  0  0  0  0  0  0
   -2.8200   24.6190  -29.0080 N   0  0  0  0  0  0  0  0  0  0  0  0
   -3.6150   24.1670  -27.8560 C   0  0  0  0  0  0  0  0  0  0  0  0
   -1.4510   24.9360  -28.5660 C   0  0  0  0  0  0  0  0  0  0  0  0
   -4.9980   24.6520  -30.8850 C   0  0  0  0  0  0  0  0  0  0  0  0
   -4.6930   25.8950  -30.3240 O   0  0  0  0  0  0  0  0  0  0  0  0
   -6.2080   24.5430  -31.5760 C   0  0  0  0  0  0  0  0  0  0  0  0
   -6.6100   23.3290  -32.1320 C   0  0  0  0  0  0  0  0  0  0  0  0
   -5.8000   22.1920  -32.0020 C   0  0  0  0  0  0  0  0  0  0  0  0
   -6.1820   20.9460  -32.5330 C   0  0  0  0  0  0  0  0  0  0  0  0
   -7.2880   20.8190  -33.1260 O   0  0  0  0  0  0  0  0  0  0  0  0
   -6.9070   17.9020  -32.6130 C   0  0  0  0  0  0  0  0  0  0  0  0
   -7.2280   16.6400  -33.1190 C   0  0  0  0  0  0  0  0  0  0  0  0
   -6.8175   13.9064  -33.6049 H   0  0  0  0  0  0  0  0  0  0  0  0
   -7.5678   14.6292  -35.0682 H   0  0  0  0  0  0  0  0  0  0  0  0
   -5.8210   14.2103  -35.0682 H   0  0  0  0  0  0  0  0  0  0  0  0
   -4.3570   15.9974  -34.8622 H   0  0  0  0  0  0  0  0  0  0  0  0
   -3.7854   18.2518  -33.9705 H   0  0  0  0  0  0  0  0  0  0  0  0
   -3.4514   19.1666  -31.5299 H   0  0  0  0  0  0  0  0  0  0  0  0
   -2.6023   22.6021  -29.5966 H   0  0  0  0  0  0  0  0  0  0  0  0
   -2.0288   23.8264  -30.7929 H   0  0  0  0  0  0  0  0  0  0  0  0
   -3.1071   24.4558  -26.9240 H   0  0  0  0  0  0  0  0  0  0  0  0
   -4.6102   24.6344  -27.8912 H   0  0  0  0  0  0  0  0  0  0  0  0
   -3.7223   23.0728  -27.8912 H   0  0  0  0  0  0  0  0  0  0  0  0
   -1.4134   24.9447  -27.4667 H   0  0  0  0  0  0  0  0  0  0  0  0
   -0.7561   24.1750  -28.9506 H   0  0  0  0  0  0  0  0  0  0  0  0
   -1.1613   25.9250  -28.9506 H   0  0  0  0  0  0  0  0  0  0  0  0
   -4.4900   26.0460  -29.3470 H   0  0  0  0  0  0  0  0  0  0  0  0
   -6.8527   25.4279  -31.6828 H   0  0  0  0  0  0  0  0  0  0  0  0
   -7.5650   23.2632  -32.6739 H   0  0  0  0  0  0  0  0  0  0  0  0
   -7.6245   18.4311  -31.9686 H   0  0  0  0  0  0  0  0  0  0  0  0
   -8.1946   16.1797  -32.8663 H   0  0  0  0  0  0  0  0  0  0  0  0
  1  2  1  0
  2  3  2  0
  3  4  1  0
  4  5  2  0
  5  6  1  0
  6  7  2  0
  7  8  1  0
  8  9  1  0
  9 10  2  0
 10 11  1  0
 11 12  1  0
 12 13  1  0
 12 14  1  0
 10 15  1  0
 15 16  1  0
 15 17  2  0
 17 18  1  0
 18 19  2  0
 19 20  1  0
 20 21  2  0
  5 22  1  0
 22 23  2  0
 23  2  1  0
 20  6  1  0
 19  9  1  0
  1 24  1  0
  1 25  1  0
  1 26  1  0
  3 27  1  0
  4 28  1  0
  7 29  1  0
 11 30  1  0
 11 31  1  0
 13 32  1  0
 13 33  1  0
 13 34  1  0
 14 35  1  0
 14 36  1  0
 14 37  1  0
 16 38  1  0
 17 39  1  0
 18 40  1  0
 22 41  1  0
 23 42  1  0
M  END
>  <UniqueID>  (4) 
4

>  <SMILES>  (4) 
Cc1ccc(-c2coc3c(CN(C)C)c(O)ccc3c2=O)cc1

>  <Energy>  (4) 
58.71842740916995

>  <Genealogy>  (4) 
Cc1ccc(-c2coc3c(CN(C)C)c(O)ccc3c2=O)cc1 (3D coordinates assigned)
Cc1ccc(-c2coc3c(CN(C)C)c(O)ccc3c2=O)cc1 (optimized conformer: 58.71842740916995 kcal/mol)

>  <smiles>  (4) 
Cc1ccc(-c2coc3c(CN(C)C)c(O)ccc3c2=O)cc1

>  <score_type>  (4) 
oracle

>  <origin>  (4) 
adgpu

>  <m_score__min__energy>  (4) 
-7.9100000000000001

>  <m_primary>  (4) 
energy

$$$$
4:0
     RDKit          3D

 41 43  0  0  0  0  0  0  0  0999 V2000
   -0.2283   19.2064  -35.1851 H   0  0  0  0  0  0  0  0  0  0  0  0
   -0.9730   19.7350  -34.5720 C   0  0  0  0  0  0  0  0  0  0  0  0
   -2.2030   19.1910  -34.3820 N   0  0  0  0  0  0  0  0  0  0  0  0
   -3.1630   19.8010  -33.6290 C   0  0  0  0  0  0  0  0  0  0  0  0
   -4.4800   19.1360  -33.4530 C   0  0  0  0  0  0  0  0  0  0  0  0
   -4.6450   17.7580  -33.6970 C   0  0  0  0  0  0  0  0  0  0  0  0
   -3.7851   17.1542  -34.0225 H   0  0  0  0  0  0  0  0  0  0  0  0
   -5.8960   17.1520  -33.5280 C   0  0  0  0  0  0  0  0  0  0  0  0
   -6.0870   15.4360  -33.8360 Cl  0  0  0  0  0  0  0  0  0  0  0  0
   -6.9910   17.9110  -33.1080 C   0  0  0  0  0  0  0  0  0  0  0  0
   -7.9747   17.4348  -32.9833 H   0  0  0  0  0  0  0  0  0  0  0  0
   -6.8370   19.2760  -32.8460 C   0  0  0  0  0  0  0  0  0  0  0  0
   -8.2120   20.2260  -32.3140 Cl  0  0  0  0  0  0  0  0  0  0  0  0
   -5.5880   19.8850  -33.0130 C   0  0  0  0  0  0  0  0  0  0  0  0
   -5.4711   20.9576  -32.7987 H   0  0  0  0  0  0  0  0  0  0  0  0
   -2.8660   21.0280  -33.0100 C   0  0  0  0  0  0  0  0  0  0  0  0
   -3.6206   21.5304  -32.3870 H   0  0  0  0  0  0  0  0  0  0  0  0
   -1.6070   21.6050  -33.1910 C   0  0  0  0  0  0  0  0  0  0  0  0
   -1.3671   22.5623  -32.7052 H   0  0  0  0  0  0  0  0  0  0  0  0
   -0.6500   20.9680  -33.9890 C   0  0  0  0  0  0  0  0  0  0  0  0
    0.7240   21.5500  -34.1420 C   0  0  0  0  0  0  0  0  0  0  0  0
    1.4736   20.7490  -34.0613 H   0  0  0  0  0  0  0  0  0  0  0  0
    0.8995   22.2941  -33.3511 H   0  0  0  0  0  0  0  0  0  0  0  0
    0.8300   22.1720  -35.4120 O   0  0  0  0  0  0  0  0  0  0  0  0
    0.2470   23.3990  -35.6400 N   0  0  0  0  0  0  0  0  0  0  0  0
    0.9450   24.4620  -35.9110 C   0  0  0  0  0  0  0  0  0  0  0  0
    0.2390   25.7580  -36.0970 C   0  0  0  0  0  0  0  0  0  0  0  0
    0.2460   26.7410  -35.0870 C   0  0  0  0  0  0  0  0  0  0  0  0
    0.7809   26.5517  -34.1447 H   0  0  0  0  0  0  0  0  0  0  0  0
   -0.4220   27.9550  -35.2740 C   0  0  0  0  0  0  0  0  0  0  0  0
   -0.4084   28.7166  -34.4804 H   0  0  0  0  0  0  0  0  0  0  0  0
   -1.1060   28.2030  -36.4650 C   0  0  0  0  0  0  0  0  0  0  0  0
   -1.6286   29.1600  -36.6100 H   0  0  0  0  0  0  0  0  0  0  0  0
   -1.1270   27.2360  -37.4730 C   0  0  0  0  0  0  0  0  0  0  0  0
   -1.9840   27.5520  -38.9720 Cl  0  0  0  0  0  0  0  0  0  0  0  0
   -0.4610   26.0190  -37.2910 C   0  0  0  0  0  0  0  0  0  0  0  0
   -0.4843   25.2600  -38.0868 H   0  0  0  0  0  0  0  0  0  0  0  0
    2.4510   24.3930  -35.9610 C   0  0  0  0  0  0  0  0  0  0  0  0
    2.8514   24.3747  -34.9366 H   0  0  0  0  0  0  0  0  0  0  0  0
    2.7588   23.4798  -36.4914 H   0  0  0  0  0  0  0  0  0  0  0  0
    2.8410   25.2742  -36.4914 H   0  0  0  0  0  0  0  0  0  0  0  0
  1  2  1  0
  2  3  2  0
  3  4  1  0
  4  5  1  0
  5  6  2  0
  6  7  1  0
  6  8  1  0
  8  9  1  0
  8 10  2  0
 10 11  1  0
 10 12  1  0
 12 13  1  0
 12 14  2  0
 14 15  1  0
  4 16  2  0
 16 17  1  0
 16 18  1  0
 18 19  1  0
 18 20  2  0
 20 21  1  0
 21 22  1  0
 21 23  1  0
 21 24  1  0
 24 25  1  0
 25 26  2  0
 26 27  1  0
 27 28  2  0
 28 29  1  0
 28 30  1  0
 30 31  1  0
 30 32  2  0
 32 33  1  0
 32 34  1  0
 34 35  1  0
 34 36  2  0
 36 37  1  0
 26 38  1  0
 38 39  1  0
 38 40  1  0
 38 41  1  0
 20  2  1  0
 36 27  1  0
 14  5  1  0
M  END
>  <UniqueID>  (5) 
5

>  <SMILES>  (5) 
C/C(=N\OCc1ccc(-c2cc(Cl)cc(Cl)c2)nc1)c1cccc(Cl)c1

>  <Energy>  (5) 
46.333369826985276

>  <Genealogy>  (5) 
C/C(=N\OCc1ccc(-c2cc(Cl)cc(Cl)c2)nc1)c1cccc(Cl)c1 (cis-trans isomerization)
C/C(=N\OCc1ccc(-c2cc(Cl)cc(Cl)c2)nc1)c1cccc(Cl)c1 (3D coordinates assigned)
C/C(=N\OCc1ccc(-c2cc(Cl)cc(Cl)c2)nc1)c1cccc(Cl)c1 (optimized conformer: 46.333369826985276 kcal/mol)

>  <smiles>  (5) 
CC(=NOCc1ccc(-c2cc(Cl)cc(Cl)c2)nc1)c1cccc(Cl)c1

>  <score_type>  (5) 
oracle

>  <origin>  (5) 
adgpu

>  <m_score__min__energy>  (5) 
-9.8100000000000005

>  <m_primary>  (5) 
energy

$$$$
5:0
     RDKit          3D

 48 51  0  0  0  0  0  0  0  0999 V2000
   -0.9220   26.4780  -26.7860 C   0  0  0  0  0  0  0  0  0  0  0  0
   -1.0220   26.1030  -28.5630 S   0  0  0  0  0  0  0  0  0  0  0  0
   -1.8770   24.5430  -28.3090 C   0  0  0  0  0  0  0  0  0  0  0  0
   -1.3960   23.6500  -27.3420 C   0  0  0  0  0  0  0  0  0  0  0  0
   -2.0380   22.4290  -27.1320 C   0  0  0  0  0  0  0  0  0  0  0  0
   -3.1600   22.0910  -27.8900 C   0  0  0  0  0  0  0  0  0  0  0  0
   -3.6470   22.9750  -28.8560 C   0  0  0  0  0  0  0  0  0  0  0  0
   -3.0200   24.2160  -29.0630 C   0  0  0  0  0  0  0  0  0  0  0  0
   -3.4840   25.1380  -30.0620 N   0  0  0  0  0  0  0  0  0  0  0  0
   -4.8320   25.2830  -30.5310 C   0  0  0  0  0  0  0  0  0  0  0  0
   -5.4060   26.4040  -30.4680 O   0  0  0  0  0  0  0  0  0  0  0  0
   -5.5310   24.1280  -31.1400 C   0  0  0  0  0  0  0  0  0  0  0  0
   -6.9180   24.1770  -31.3750 C   0  0  0  0  0  0  0  0  0  0  0  0
   -7.5760   23.0910  -31.9550 C   0  0  0  0  0  0  0  0  0  0  0  0
   -6.8620   21.9470  -32.3140 C   0  0  0  0  0  0  0  0  0  0  0  0
   -5.4800   21.8800  -32.0920 C   0  0  0  0  0  0  0  0  0  0  0  0
   -4.5760   20.4330  -32.5370 S   0  0  0  0  0  0  0  0  0  0  0  0
   -3.8700   20.6660  -33.8440 O   0  0  0  0  0  0  0  0  0  0  0  0
   -3.5470   20.1270  -31.4890 O   0  0  0  0  0  0  0  0  0  0  0  0
   -5.6540   19.0860  -32.7340 N   0  0  0  0  0  0  0  0  0  0  0  0
   -6.9780   19.0130  -32.1230 C   0  0  0  0  0  0  0  0  0  0  0  0
   -7.5380   17.6160  -32.4890 C   0  0  0  0  0  0  0  0  0  0  0  0
   -6.4450   17.0070  -33.2990 C   0  0  0  0  0  0  0  0  0  0  0  0
   -6.4050   15.7300  -33.8610 C   0  0  0  0  0  0  0  0  0  0  0  0
   -5.2500   15.3430  -34.5600 C   0  0  0  0  0  0  0  0  0  0  0  0
   -4.1620   16.2290  -34.6770 C   0  0  0  0  0  0  0  0  0  0  0  0
   -4.2230   17.5070  -34.0970 C   0  0  0  0  0  0  0  0  0  0  0  0
   -5.3900   17.8710  -33.4150 C   0  0  0  0  0  0  0  0  0  0  0  0
   -4.8200   22.9670  -31.5020 C   0  0  0  0  0  0  0  0  0  0  0  0
   -1.1629   25.5746  -26.2065 H   0  0  0  0  0  0  0  0  0  0  0  0
    0.0965   26.8117  -26.5384 H   0  0  0  0  0  0  0  0  0  0  0  0
   -1.6391   27.2745  -26.5384 H   0  0  0  0  0  0  0  0  0  0  0  0
   -0.5092   23.9125  -26.7464 H   0  0  0  0  0  0  0  0  0  0  0  0
   -1.6597   21.7328  -26.3689 H   0  0  0  0  0  0  0  0  0  0  0  0
   -3.6622   21.1261  -27.7264 H   0  0  0  0  0  0  0  0  0  0  0  0
   -4.5254   22.6986  -29.4576 H   0  0  0  0  0  0  0  0  0  0  0  0
   -7.4872   25.0771  -31.0998 H   0  0  0  0  0  0  0  0  0  0  0  0
   -8.6611   23.1372  -32.1297 H   0  0  0  0  0  0  0  0  0  0  0  0
   -7.3856   21.0953  -32.7726 H   0  0  0  0  0  0  0  0  0  0  0  0
   -6.9019   19.1206  -31.0309 H   0  0  0  0  0  0  0  0  0  0  0  0
   -7.6344   19.8185  -32.4841 H   0  0  0  0  0  0  0  0  0  0  0  0
   -7.7356   17.0218  -31.5846 H   0  0  0  0  0  0  0  0  0  0  0  0
   -8.4957   17.6650  -33.0279 H   0  0  0  0  0  0  0  0  0  0  0  0
   -7.2580   15.0430  -33.7588 H   0  0  0  0  0  0  0  0  0  0  0  0
   -5.1952   14.3442  -35.0177 H   0  0  0  0  0  0  0  0  0  0  0  0
   -3.2601   15.9190  -35.2251 H   0  0  0  0  0  0  0  0  0  0  0  0
   -3.3755   18.2038  -34.1767 H   0  0  0  0  0  0  0  0  0  0  0  0
   -3.7365   22.9128  -31.3200 H   0  0  0  0  0  0  0  0  0  0  0  0
  1  2  1  0
  2  3  1  0
  3  4  2  0
  4  5  1  0
  5  6  2  0
  6  7  1  0
  7  8  2  0
  8  9  1  0
  9 10  1  0
 10 11  2  0
 10 12  1  0
 12 13  2  0
 13 14  1  0
 14 15  2  0
 15 16  1  0
 16 17  1  0
 17 18  2  0
 17 19  2  0
 17 20  1  0
 20 21  1  0
 21 22  1  0
 22 23  1  0
 23 24  2  0
 24 25  1  0
 25 26  2  0
 26 27  1  0
 27 28  2  0
 16 29  2  0
  8  3  1  0
 29 12  1  0
 28 20  1  0
 28 23  1  0
  1 30  1  0
  1 31  1  0
  1 32  1  0
  4 33  1  0
  5 34  1  0
  6 35  1  0
  7 36  1  0
 13 37  1  0
 14 38  1  0
 15 39  1  0
 21 40  1  0
 21 41  1  0
 22 42  1  0
 22 43  1  0
 24 44  1  0
 25 45  1  0
 26 46  1  0
 27 47  1  0
 29 48  1  0
M  CHG  1   9  -1
M  END
>  <UniqueID>  (6) 
6

>  <SMILES>  (6) 
CSc1ccccc1[N-]C(=O)c1cccc(S(=O)(=O)N2CCc3ccccc32)c1

>  <Energy>  (6) 
68.95292993505106

>  <Genealogy>  (6) 
CSc1ccccc1[N-]C(=O)c1cccc(S(=O)(=O)N2CCc3ccccc32)c1 (protonated)
CSc1ccccc1[N-]C(=O)c1cccc(S(=O)(=O)N2CCc3ccccc32)c1 (3D coordinates assigned)
CSc1ccccc1[N-]C(=O)c1cccc(S(=O)(=O)N2CCc3ccccc32)c1 (nonaromatic ring conformer: 68.95292993505106 kcal/mol)

>  <smiles>  (6) 
CSc1ccccc1NC(=O)c1cccc(S(=O)(=O)N2CCc3ccccc32)c1

>  <score_type>  (6) 
oracle

>  <origin>  (6) 
adgpu

>  <m_score__min__energy>  (6) 
-11.24

>  <m_primary>  (6) 
energy

$$$$
6:0
     RDKit          3D

 28 30  0  0  0  0  0  0  0  0999 V2000
   -3.5090   25.2800  -30.2420 N   0  0  0  0  0  0  0  0  0  0  0  0
   -4.9040   25.2680  -30.5380 C   0  0  0  0  0  0  0  0  0  0  0  0
   -5.5670   26.3330  -30.4170 O   0  0  0  0  0  0  0  0  0  0  0  0
   -5.5680   24.0220  -30.9840 C   0  0  0  0  0  0  0  0  0  0  0  0
   -6.9840   23.8930  -30.9110 C   0  0  0  0  0  0  0  0  0  0  0  0
   -7.6210   22.7110  -31.3320 C   0  0  0  0  0  0  0  0  0  0  0  0
   -6.8220   21.6830  -31.8200 C   0  0  0  0  0  0  0  0  0  0  0  0
   -7.2140   20.4810  -32.2640 N   0  0  0  0  0  0  0  0  0  0  0  0
   -6.0370   19.8940  -32.6160 C   0  0  0  0  0  0  0  0  0  0  0  0
   -5.9590   18.5040  -33.1160 C   0  0  0  0  0  0  0  0  0  0  0  0
   -4.8120   18.1130  -33.8310 C   0  0  0  0  0  0  0  0  0  0  0  0
   -4.7210   16.8340  -34.3890 C   0  0  0  0  0  0  0  0  0  0  0  0
   -3.2910   16.3700  -35.2920 Cl  0  0  0  0  0  0  0  0  0  0  0  0
   -5.7750   15.9310  -34.2390 C   0  0  0  0  0  0  0  0  0  0  0  0
   -6.9100   16.2970  -33.5150 C   0  0  0  0  0  0  0  0  0  0  0  0
   -7.0070   17.5670  -32.9310 C   0  0  0  0  0  0  0  0  0  0  0  0
   -8.1330   17.8400  -32.1540 O   0  0  0  0  0  0  0  0  0  0  0  0
   -4.9400   20.6680  -32.3900 N   0  0  0  0  0  0  0  0  0  0  0  0
   -5.4710   21.7940  -31.8950 C   0  0  0  0  0  0  0  0  0  0  0  0
   -4.8000   22.9440  -31.4870 C   0  0  0  0  0  0  0  0  0  0  0  0
   -3.1550   25.6610  -29.3360 H   0  0  0  0  0  0  0  0  0  0  0  0
   -7.5867   24.7265  -30.5212 H   0  0  0  0  0  0  0  0  0  0  0  0
   -8.7144   22.6039  -31.2769 H   0  0  0  0  0  0  0  0  0  0  0  0
   -3.9785   18.8205  -33.9523 H   0  0  0  0  0  0  0  0  0  0  0  0
   -5.7106   14.9306  -34.6918 H   0  0  0  0  0  0  0  0  0  0  0  0
   -7.7374   15.5811  -33.4014 H   0  0  0  0  0  0  0  0  0  0  0  0
   -8.3540   18.7590  -31.7960 H   0  0  0  0  0  0  0  0  0  0  0  0
   -3.7042   23.0130  -31.5536 H   0  0  0  0  0  0  0  0  0  0  0  0
  1  2  1  0
  2  3  2  0
  2  4  1  0
  4  5  2  0
  5  6  1  0
  6  7  2  0
  7  8  1  0
  8  9  1  0
  9 10  1  0
 10 11  2  0
 11 12  1  0
 12 13  1  0
 12 14  2  0
 14 15  1  0
 15 16  2  0
 16 17  1  0
  9 18  2  0
 18 19  1  0
 19 20  2  0
 20  4  1  0
 19  7  1  0
 16 10  1  0
  1 21  1  0
  5 22  1  0
  6 23  1  0
 11 24  1  0
 14 25  1  0
 15 26  1  0
 17 27  1  0
 20 28  1  0
M  CHG  2   1  -1   8  -1
M  END
>  <UniqueID>  (7) 
7

>  <SMILES>  (7) 
[NH-]C(=O)c1ccc2[n-]c(-c3cc(Cl)ccc3O)nc2c1

>  <Energy>  (7) 
71.22854380093497

>  <Genealogy>  (7) 
[NH-]C(=O)c1ccc2[n-]c(-c3cc(Cl)ccc3O)nc2c1 (protonated)
[NH-]C(=O)c1ccc2[n-]c(-c3cc(Cl)ccc3O)nc2c1 (3D coordinates assigned)
[NH-]C(=O)c1ccc2[n-]c(-c3cc(Cl)ccc3O)nc2c1 (optimized conformer: 71.22854380093497 kcal/mol)

>  <smiles>  (7) 
NC(=O)c1ccc2[nH]c(-c3cc(Cl)ccc3O)nc2c1

>  <score_type>  (7) 
oracle

>  <origin>  (7) 
adgpu

>  <m_score__min__energy>  (7) 
-9.75

>  <m_primary>  (7) 
energy

$$$$
7:0
     RDKit          3D

 54 57  0  0  0  0  0  0  0  0999 V2000
   -8.8600   22.3250  -31.7020 C   0  0  0  0  0  0  0  0  0  0  0  0
   -9.2070   20.9900  -32.0600 O   0  0  0  0  0  0  0  0  0  0  0  0
   -8.2770   19.9830  -32.3660 C   0  0  0  0  0  0  0  0  0  0  0  0
   -7.4070   20.1890  -33.4450 C   0  0  0  0  0  0  0  0  0  0  0  0
   -6.4830   19.2060  -33.8110 C   0  0  0  0  0  0  0  0  0  0  0  0
   -6.3960   18.0060  -33.0850 C   0  0  0  0  0  0  0  0  0  0  0  0
   -5.4830   16.9700  -33.4760 N   0  0  0  0  0  0  0  0  0  0  0  0
   -5.7240   15.6850  -33.2610 N   0  0  0  0  0  0  0  0  0  0  0  0
   -4.6720   14.9800  -33.7220 C   0  0  0  0  0  0  0  0  0  0  0  0
   -3.7250   15.8440  -34.2360 C   0  0  0  0  0  0  0  0  0  0  0  0
   -4.2670   17.1020  -34.0620 C   0  0  0  0  0  0  0  0  0  0  0  0
   -3.5600   18.3910  -34.3810 C   0  0  0  0  0  0  0  0  0  0  0  0
   -3.1060   19.0440  -33.1540 N   0  0  0  0  0  0  0  0  0  0  0  0
   -3.4160   20.4150  -32.8580 C   0  0  0  0  0  0  0  0  0  0  0  0
   -4.2720   21.0280  -33.5550 O   0  0  0  0  0  0  0  0  0  0  0  0
   -2.7560   21.1140  -31.7320 C   0  0  0  0  0  0  0  0  0  0  0  0
   -1.6510   20.5280  -31.0880 C   0  0  0  0  0  0  0  0  0  0  0  0
   -1.0260   21.1840  -30.0230 C   0  0  0  0  0  0  0  0  0  0  0  0
   -1.4970   22.4240  -29.5880 C   0  0  0  0  0  0  0  0  0  0  0  0
   -2.6070   23.0100  -30.2070 C   0  0  0  0  0  0  0  0  0  0  0  0
   -3.2500   24.5480  -29.6390 S   0  0  0  0  0  0  0  0  0  0  0  0
   -3.9220   25.3010  -30.7540 O   0  0  0  0  0  0  0  0  0  0  0  0
   -4.2720   24.2820  -28.5690 O   0  0  0  0  0  0  0  0  0  0  0  0
   -1.9700   25.5060  -28.9670 N   0  0  0  0  0  0  0  0  0  0  0  0
   -1.3830   25.3430  -27.6680 C   0  0  0  0  0  0  0  0  0  0  0  0
   -0.0890   24.8170  -27.5830 C   0  0  0  0  0  0  0  0  0  0  0  0
    0.5250   24.6420  -26.3390 C   0  0  0  0  0  0  0  0  0  0  0  0
   -0.1530   24.9970  -25.1680 C   0  0  0  0  0  0  0  0  0  0  0  0
   -1.4420   25.5270  -25.2430 C   0  0  0  0  0  0  0  0  0  0  0  0
   -2.0580   25.7010  -26.4860 C   0  0  0  0  0  0  0  0  0  0  0  0
   -3.2380   22.3550  -31.2730 C   0  0  0  0  0  0  0  0  0  0  0  0
   -7.2680   17.7950  -32.0050 C   0  0  0  0  0  0  0  0  0  0  0  0
   -8.1990   18.7760  -31.6420 C   0  0  0  0  0  0  0  0  0  0  0  0
   -8.8363   22.4163  -30.6061 H   0  0  0  0  0  0  0  0  0  0  0  0
   -7.8687   22.5686  -32.1118 H   0  0  0  0  0  0  0  0  0  0  0  0
   -9.6072   23.0205  -32.1118 H   0  0  0  0  0  0  0  0  0  0  0  0
   -7.4515   21.1324  -34.0089 H   0  0  0  0  0  0  0  0  0  0  0  0
   -5.8199   19.3728  -34.6727 H   0  0  0  0  0  0  0  0  0  0  0  0
   -4.5814   13.8841  -33.6933 H   0  0  0  0  0  0  0  0  0  0  0  0
   -2.7541   15.5869  -34.6846 H   0  0  0  0  0  0  0  0  0  0  0  0
   -2.6908   18.1783  -35.0207 H   0  0  0  0  0  0  0  0  0  0  0  0
   -4.2599   19.0608  -34.9021 H   0  0  0  0  0  0  0  0  0  0  0  0
   -2.5920   18.4660  -32.4520 H   0  0  0  0  0  0  0  0  0  0  0  0
   -1.2771   19.5495  -31.4237 H   0  0  0  0  0  0  0  0  0  0  0  0
   -0.1603   20.7214  -29.5263 H   0  0  0  0  0  0  0  0  0  0  0  0
   -0.9948   22.9414  -28.7573 H   0  0  0  0  0  0  0  0  0  0  0  0
    0.4490   24.5392  -28.5014 H   0  0  0  0  0  0  0  0  0  0  0  0
    1.5413   24.2251  -26.2811 H   0  0  0  0  0  0  0  0  0  0  0  0
    0.3293   24.8586  -24.1891 H   0  0  0  0  0  0  0  0  0  0  0  0
   -1.9743   25.8084  -24.3224 H   0  0  0  0  0  0  0  0  0  0  0  0
   -3.0739   26.1192  -26.5403 H   0  0  0  0  0  0  0  0  0  0  0  0
   -4.1149   22.8128  -31.7541 H   0  0  0  0  0  0  0  0  0  0  0  0
   -7.2195   16.8524  -31.4400 H   0  0  0  0  0  0  0  0  0  0  0  0
   -8.8718   18.6041  -30.7889 H   0  0  0  0  0  0  0  0  0  0  0  0
  1  2  1  0
  2  3  1  0
  3  4  2  0
  4  5  1  0
  5  6  2  0
  6  7  1  0
  7  8  1  0
  8  9  2  0
  9 10  1  0
 10 11  2  0
 11 12  1  0
 12 13  1  0
 13 14  1  0
 14 15  2  0
 14 16  1  0
 16 17  2  0
 17 18  1  0
 18 19  2  0
 19 20  1  0
 20 21  1  0
 21 22  2  0
 21 23  2  0
 21 24  1  0
 24 25  1  0
 25 26  2  0
 26 27  1  0
 27 28  2  0
 28 29  1  0
 29 30  2  0
 20 31  2  0
  6 32  1  0
 32 33  2  0
 33  3  1  0
 11  7  1  0
 31 16  1  0
 30 25  1  0
  1 34  1  0
  1 35  1  0
  1 36  1  0
  4 37  1  0
  5 38  1  0
  9 39  1  0
 10 40  1  0
 12 41  1  0
 12 42  1  0
 13 43  1  0
 17 44  1  0
 18 45  1  0
 19 46  1  0
 26 47  1  0
 27 48  1  0
 28 49  1  0
 29 50  1  0
 30 51  1  0
 31 52  1  0
 32 53  1  0
 33 54  1  0
M  CHG  1  24  -1
M  END
>  <UniqueID>  (8) 
8

>  <SMILES>  (8) 
COc1ccc(-n2nccc2CNC(=O)c2cccc(S(=O)(=O)[N-]c3ccccc3)c2)cc1

>  <Energy>  (8) 
91.5809288332946

>  <Genealogy>  (8) 
COc1ccc(-n2nccc2CNC(=O)c2cccc(S(=O)(=O)[N-]c3ccccc3)c2)cc1 (protonated)
COc1ccc(-n2nccc2CNC(=O)c2cccc(S(=O)(=O)[N-]c3ccccc3)c2)cc1 (3D coordinates assigned)
COc1ccc(-n2nccc2CNC(=O)c2cccc(S(=O)(=O)[N-]c3ccccc3)c2)cc1 (optimized conformer: 91.5809288332946 kcal/mol)

>  <smiles>  (8) 
COc1ccc(-n2nccc2CNC(=O)c2cccc(S(=O)(=O)Nc3ccccc3)c2)cc1

>  <score_type>  (8) 
oracle

>  <origin>  (8) 
adgpu

>  <m_score__min__energy>  (8) 
-11.470000000000001

>  <m_primary>  (8) 
energy

$$$$
8:0
     RDKit          3D

 38 39  0  0  0  0  0  0  0  0999 V2000
   -6.9270   17.4500  -32.6900 C   0  0  0  0  0  0  0  0  0  0  0  0
   -7.5050   18.8530  -32.5310 C   0  0  0  0  0  0  0  0  0  0  0  0
   -6.6570   19.8230  -33.1480 O   0  0  0  0  0  0  0  0  0  0  0  0
   -5.4310   20.2790  -32.6370 C   0  0  0  0  0  0  0  0  0  0  0  0
   -4.9900   19.9840  -31.3340 C   0  0  0  0  0  0  0  0  0  0  0  0
   -3.7570   20.4640  -30.8800 C   0  0  0  0  0  0  0  0  0  0  0  0
   -2.9390   21.2420  -31.7170 C   0  0  0  0  0  0  0  0  0  0  0  0
   -1.6320   21.7490  -31.2390 C   0  0  0  0  0  0  0  0  0  0  0  0
   -0.5870   21.5470  -31.9170 O   0  0  0  0  0  0  0  0  0  0  0  0
   -1.5470   22.4680  -30.0040 N   0  0  0  0  0  0  0  0  0  0  0  0
   -2.7050   23.0480  -29.3430 C   0  0  0  0  0  0  0  0  0  0  0  0
   -2.8130   24.4900  -29.7130 C   0  0  0  0  0  0  0  0  0  0  0  0
   -1.9330   25.3030  -29.3230 O   0  0  0  0  0  0  0  0  0  0  0  0
   -3.9280   24.9320  -30.4990 N   0  0  0  0  0  0  0  0  0  0  0  0
   -5.1500   24.2140  -30.7260 C   0  0  0  0  0  0  0  0  0  0  0  0
   -5.7210   24.0950  -32.0070 C   0  0  0  0  0  0  0  0  0  0  0  0
   -6.8990   23.3640  -32.1860 C   0  0  0  0  0  0  0  0  0  0  0  0
   -7.5090   22.7350  -31.0970 C   0  0  0  0  0  0  0  0  0  0  0  0
   -9.1170   21.7330  -31.3460 Br  0  0  0  0  0  0  0  0  0  0  0  0
   -6.9340   22.8290  -29.8260 C   0  0  0  0  0  0  0  0  0  0  0  0
   -5.7550   23.5600  -29.6440 C   0  0  0  0  0  0  0  0  0  0  0  0
   -3.3830   21.5310  -33.0210 C   0  0  0  0  0  0  0  0  0  0  0  0
   -4.6150   21.0510  -33.4730 C   0  0  0  0  0  0  0  0  0  0  0  0
   -6.7469   17.0129  -31.6968 H   0  0  0  0  0  0  0  0  0  0  0  0
   -7.6391   16.8207  -33.2439 H   0  0  0  0  0  0  0  0  0  0  0  0
   -5.9782   17.5049  -33.2439 H   0  0  0  0  0  0  0  0  0  0  0  0
   -8.4980   18.8897  -33.0027 H   0  0  0  0  0  0  0  0  0  0  0  0
   -7.5825   19.0833  -31.4582 H   0  0  0  0  0  0  0  0  0  0  0  0
   -5.6179   19.3729  -30.6689 H   0  0  0  0  0  0  0  0  0  0  0  0
   -3.4244   20.2302  -29.8579 H   0  0  0  0  0  0  0  0  0  0  0  0
   -3.6143   22.5176  -29.6622 H   0  0  0  0  0  0  0  0  0  0  0  0
   -2.5923   22.9546  -28.2528 H   0  0  0  0  0  0  0  0  0  0  0  0
   -5.2390   24.5785  -32.8695 H   0  0  0  0  0  0  0  0  0  0  0  0
   -7.3474   23.2835  -33.1872 H   0  0  0  0  0  0  0  0  0  0  0  0
   -7.4085   22.3283  -28.9692 H   0  0  0  0  0  0  0  0  0  0  0  0
   -5.2996   23.6219  -28.6446 H   0  0  0  0  0  0  0  0  0  0  0  0
   -2.7556   22.1392  -33.6892 H   0  0  0  0  0  0  0  0  0  0  0  0
   -4.9472   21.2819  -34.4959 H   0  0  0  0  0  0  0  0  0  0  0  0
  1  2  1  0
  2  3  1  0
  3  4  1  0
  4  5  2  0
  5  6  1  0
  6  7  2  0
  7  8  1  0
  8  9  2  0
  8 10  1  0
 10 11  1  0
 11 12  1  0
 12 13  2  0
 12 14  1  0
 14 15  1  0
 15 16  2  0
 16 17  1  0
 17 18  2  0
 18 19  1  0
 18 20  1  0
 20 21  2  0
  7 22  1  0
 22 23  2  0
 23  4  1  0
 21 15  1  0
  1 24  1  0
  1 25  1  0
  1 26  1  0
  2 27  1  0
  2 28  1  0
  5 29  1  0
  6 30  1  0
 11 31  1  0
 11 32  1  0
 16 33  1  0
 17 34  1  0
 20 35  1  0
 21 36  1  0
 22 37  1  0
 23 38  1  0
M  CHG  2  10  -1  14  -1
M  END
>  <UniqueID>  (9) 
9

>  <SMILES>  (9) 
CCOc1ccc(C(=O)[N-]CC(=O)[N-]c2ccc(Br)cc2)cc1

>  <Energy>  (9) 
36.75535360863694

>  <Genealogy>  (9) 
CCOc1ccc(C(=O)[N-]CC(=O)[N-]c2ccc(Br)cc2)cc1 (protonated)
CCOc1ccc(C(=O)[N-]CC(=O)[N-]c2ccc(Br)cc2)cc1 (3D coordinates assigned)
CCOc1ccc(C(=O)[N-]CC(=O)[N-]c2ccc(Br)cc2)cc1 (optimized conformer: 36.75535360863694 kcal/mol)

>  <smiles>  (9) 
CCOc1ccc(C(=O)NCC(=O)Nc2ccc(Br)cc2)cc1

>  <score_type>  (9) 
oracle

>  <origin>  (9) 
adgpu

>  <m_score__min__energy>  (9) 
-11.15

>  <m_primary>  (9) 
energy

$$$$
9:0
     RDKit          3D

 38 40  0  0  0  0  0  0  0  0999 V2000
   -6.5330   14.0720  -34.2960 C   0  0  0  0  0  0  0  0  0  0  0  0
   -5.6550   15.1550  -34.5790 O   0  0  0  0  0  0  0  0  0  0  0  0
   -5.7410   16.4220  -33.9830 C   0  0  0  0  0  0  0  0  0  0  0  0
   -6.8770   16.7220  -33.2230 C   0  0  0  0  0  0  0  0  0  0  0  0
   -7.0170   17.9690  -32.6070 C   0  0  0  0  0  0  0  0  0  0  0  0
   -6.0100   18.9400  -32.7460 C   0  0  0  0  0  0  0  0  0  0  0  0
   -6.1080   20.2090  -32.1530 C   0  0  0  0  0  0  0  0  0  0  0  0
   -7.1270   20.5190  -31.4740 O   0  0  0  0  0  0  0  0  0  0  0  0
   -5.0690   21.1410  -32.3310 C   0  0  0  0  0  0  0  0  0  0  0  0
   -5.1740   22.4950  -31.7380 C   0  0  0  0  0  0  0  0  0  0  0  0
   -6.3570   23.2340  -31.8750 C   0  0  0  0  0  0  0  0  0  0  0  0
   -6.4530   24.5140  -31.3260 C   0  0  0  0  0  0  0  0  0  0  0  0
   -5.3670   25.0710  -30.6380 C   0  0  0  0  0  0  0  0  0  0  0  0
   -5.4640   26.3490  -30.0890 O   0  0  0  0  0  0  0  0  0  0  0  0
   -4.1740   24.3460  -30.4990 C   0  0  0  0  0  0  0  0  0  0  0  0
   -3.1070   24.9380  -29.8040 O   0  0  0  0  0  0  0  0  0  0  0  0
   -2.5600   24.4350  -28.5900 C   0  0  0  0  0  0  0  0  0  0  0  0
   -4.0830   23.0550  -31.0560 C   0  0  0  0  0  0  0  0  0  0  0  0
   -3.9470   20.7570  -33.1010 C   0  0  0  0  0  0  0  0  0  0  0  0
   -2.8330   21.6350  -33.2940 N   0  0  0  0  0  0  0  0  0  0  0  0
   -3.9000   19.5480  -33.6520 O   0  0  0  0  0  0  0  0  0  0  0  0
   -4.8620   18.6450  -33.5110 C   0  0  0  0  0  0  0  0  0  0  0  0
   -4.7320   17.3950  -34.1250 C   0  0  0  0  0  0  0  0  0  0  0  0
   -6.6294   13.9531  -33.2067 H   0  0  0  0  0  0  0  0  0  0  0  0
   -7.5219   14.2783  -34.7312 H   0  0  0  0  0  0  0  0  0  0  0  0
   -6.1266   13.1471  -34.7312 H   0  0  0  0  0  0  0  0  0  0  0  0
   -7.6693   15.9675  -33.1089 H   0  0  0  0  0  0  0  0  0  0  0  0
   -7.9159   18.1907  -32.0130 H   0  0  0  0  0  0  0  0  0  0  0  0
   -7.2124   22.8041  -32.4167 H   0  0  0  0  0  0  0  0  0  0  0  0
   -7.3853   25.0877  -31.4341 H   0  0  0  0  0  0  0  0  0  0  0  0
   -5.3680   26.5060  -29.0930 H   0  0  0  0  0  0  0  0  0  0  0  0
   -3.0702   24.9042  -27.7358 H   0  0  0  0  0  0  0  0  0  0  0  0
   -2.7015   23.3449  -28.5480 H   0  0  0  0  0  0  0  0  0  0  0  0
   -1.4856   24.6672  -28.5480 H   0  0  0  0  0  0  0  0  0  0  0  0
   -3.1496   22.4817  -30.9555 H   0  0  0  0  0  0  0  0  0  0  0  0
   -2.2450   21.9750  -32.5010 H   0  0  0  0  0  0  0  0  0  0  0  0
   -2.5510   21.9050  -34.2620 H   0  0  0  0  0  0  0  0  0  0  0  0
   -3.8362   17.1702  -34.7226 H   0  0  0  0  0  0  0  0  0  0  0  0
  1  2  1  0
  2  3  1  0
  3  4  2  0
  4  5  1  0
  5  6  2  0
  6  7  1  0
  7  8  2  0
  7  9  1  0
  9 10  1  0
 10 11  2  0
 11 12  1  0
 12 13  2  0
 13 14  1  0
 13 15  1  0
 15 16  1  0
 16 17  1  0
 15 18  2  0
  9 19  2  0
 19 20  1  0
 19 21  1  0
 21 22  1  0
 22 23  2  0
 23  3  1  0
 22  6  1  0
 18 10  1  0
  1 24  1  0
  1 25  1  0
  1 26  1  0
  4 27  1  0
  5 28  1  0
 11 29  1  0
 12 30  1  0
 14 31  1  0
 17 32  1  0
 17 33  1  0
 17 34  1  0
 18 35  1  0
 20 36  1  0
 20 37  1  0
 23 38  1  0
M  END
>  <UniqueID>  (10) 
10

>  <SMILES>  (10) 
COc1ccc2c(=O)c(-c3ccc(O)c(OC)c3)c(N)oc2c1

>  <Energy>  (10) 
52.12716057290713

>  <Genealogy>  (10) 
COc1ccc2c(=O)c(-c3ccc(O)c(OC)c3)c(N)oc2c1 (3D coordinates assigned)
COc1ccc2c(=O)c(-c3ccc(O)c(OC)c3)c(N)oc2c1 (optimized conformer: 52.12716057290713 kcal/mol)

>  <smiles>  (10) 
COc1ccc2c(=O)c(-c3ccc(O)c(OC)c3)c(N)oc2c1

>  <score_type>  (10) 
oracle

>  <origin>  (10) 
adgpu

>  <m_score__min__energy>  (10) 
-7.6399999999999997

>  <m_primary>  (10) 
energy

$$$$
10:0
     RDKit          3D

 56 59  0  0  0  0  0  0  0  0999 V2000
   -3.2290   17.8110  -33.3460 C   0  0  0  0  0  0  0  0  0  0  0  0
   -2.1130   18.6910  -33.8430 C   0  0  0  0  0  0  0  0  0  0  0  0
   -1.0650   18.1250  -34.5820 C   0  0  0  0  0  0  0  0  0  0  0  0
   -0.0310   18.8950  -35.0060 N   0  0  0  0  0  0  0  0  0  0  0  0
    0.0090   20.2230  -34.7310 C   0  0  0  0  0  0  0  0  0  0  0  0
    1.3540   21.1960  -35.2900 S   0  0  0  0  0  0  0  0  0  0  0  0
    2.8450   20.6790  -34.4700 C   0  0  0  0  0  0  0  0  0  0  0  0
    1.5070   21.0330  -36.7760 O   0  0  0  0  0  0  0  0  0  0  0  0
    1.0890   22.6430  -34.9820 O   0  0  0  0  0  0  0  0  0  0  0  0
   -1.0030   20.8030  -34.0390 N   0  0  0  0  0  0  0  0  0  0  0  0
   -2.0720   20.0840  -33.6010 C   0  0  0  0  0  0  0  0  0  0  0  0
   -3.1390   20.7970  -32.8680 C   0  0  0  0  0  0  0  0  0  0  0  0
   -3.7180   21.9460  -33.4260 C   0  0  0  0  0  0  0  0  0  0  0  0
   -4.7340   22.6230  -32.7490 C   0  0  0  0  0  0  0  0  0  0  0  0
   -5.1990   22.1510  -31.5110 C   0  0  0  0  0  0  0  0  0  0  0  0
   -6.2430   22.8560  -30.8090 N   0  0  0  0  0  0  0  0  0  0  0  0
   -7.6310   22.7130  -31.2700 C   0  0  0  0  0  0  0  0  0  0  0  0
   -7.9110   21.2840  -31.6550 C   0  0  0  0  0  0  0  0  0  0  0  0
   -7.2980   20.7160  -32.7850 C   0  0  0  0  0  0  0  0  0  0  0  0
   -7.5310   19.3780  -33.1140 C   0  0  0  0  0  0  0  0  0  0  0  0
   -8.3700   18.5950  -32.3160 C   0  0  0  0  0  0  0  0  0  0  0  0
   -8.9790   19.1500  -31.1880 C   0  0  0  0  0  0  0  0  0  0  0  0
   -8.7490   20.4890  -30.8550 C   0  0  0  0  0  0  0  0  0  0  0  0
   -5.9070   23.8660  -29.8320 C   0  0  0  0  0  0  0  0  0  0  0  0
   -6.7760   24.7110  -29.4820 O   0  0  0  0  0  0  0  0  0  0  0  0
   -4.5580   23.9260  -29.2180 C   0  0  0  0  0  0  0  0  0  0  0  0
   -4.2410   23.0850  -28.1350 C   0  0  0  0  0  0  0  0  0  0  0  0
   -2.9730   23.1280  -27.5510 C   0  0  0  0  0  0  0  0  0  0  0  0
   -2.0090   24.0180  -28.0330 C   0  0  0  0  0  0  0  0  0  0  0  0
   -0.7480   24.0590  -27.4500 O   0  0  0  0  0  0  0  0  0  0  0  0
   -2.3150   24.8650  -29.1010 C   0  0  0  0  0  0  0  0  0  0  0  0
   -3.5820   24.8250  -29.6950 C   0  0  0  0  0  0  0  0  0  0  0  0
   -3.8530   25.6670  -30.7680 O   0  0  0  0  0  0  0  0  0  0  0  0
   -4.6390   20.9850  -30.9660 C   0  0  0  0  0  0  0  0  0  0  0  0
   -3.6190   20.3100  -31.6420 C   0  0  0  0  0  0  0  0  0  0  0  0
   -3.2320   17.8087  -32.2460 H   0  0  0  0  0  0  0  0  0  0  0  0
   -4.1913   18.1960  -33.7144 H   0  0  0  0  0  0  0  0  0  0  0  0
   -3.0791   16.7854  -33.7144 H   0  0  0  0  0  0  0  0  0  0  0  0
   -1.0807   17.0511  -34.8195 H   0  0  0  0  0  0  0  0  0  0  0  0
    2.7006   20.7291  -33.3807 H   0  0  0  0  0  0  0  0  0  0  0  0
    3.0841   19.6455  -34.7611 H   0  0  0  0  0  0  0  0  0  0  0  0
    3.6725   21.3427  -34.7611 H   0  0  0  0  0  0  0  0  0  0  0  0
   -3.3699   22.3156  -34.4018 H   0  0  0  0  0  0  0  0  0  0  0  0
   -5.1727   23.5313  -33.1878 H   0  0  0  0  0  0  0  0  0  0  0  0
   -8.3143   23.0111  -30.4611 H   0  0  0  0  0  0  0  0  0  0  0  0
   -7.7834   23.3562  -32.1493 H   0  0  0  0  0  0  0  0  0  0  0  0
   -6.6325   21.3268  -33.4127 H   0  0  0  0  0  0  0  0  0  0  0  0
   -7.0532   18.9401  -34.0028 H   0  0  0  0  0  0  0  0  0  0  0  0
   -8.5507   17.5416  -32.5763 H   0  0  0  0  0  0  0  0  0  0  0  0
   -9.6400   18.5336  -30.5611 H   0  0  0  0  0  0  0  0  0  0  0  0
   -9.2262   20.9214  -29.9632 H   0  0  0  0  0  0  0  0  0  0  0  0
   -4.9979   22.3883  -27.7454 H   0  0  0  0  0  0  0  0  0  0  0  0
   -2.7326   22.4604  -26.7104 H   0  0  0  0  0  0  0  0  0  0  0  0
   -1.5563   25.5671  -29.4772 H   0  0  0  0  0  0  0  0  0  0  0  0
   -5.0047   20.6008  -30.0023 H   0  0  0  0  0  0  0  0  0  0  0  0
   -3.1903   19.3930  -31.2115 H   0  0  0  0  0  0  0  0  0  0  0  0
  1  2  1  0
  2  3  2  0
  3  4  1  0
  4  5  2  0
  5  6  1  0
  6  7  1  0
  6  8  2  0
  6  9  2  0
  5 10  1  0
 10 11  2  0
 11 12  1  0
 12 13  2  0
 13 14  1  0
 14 15  2  0
 15 16  1  0
 16 17  1  0
 17 18  1  0
 18 19  2  0
 19 20  1  0
 20 21  2  0
 21 22  1  0
 22 23  2  0
 16 24  1  0
 24 25  2  0
 24 26  1  0
 26 27  2  0
 27 28  1  0
 28 29  2  0
 29 30  1  0
 29 31  1  0
 31 32  2  0
 32 33  1  0
 15 34  1  0
 34 35  2  0
 11  2  1  0
 35 12  1  0
 23 18  1  0
 32 26  1  0
  1 36  1  0
  1 37  1  0
  1 38  1  0
  3 39  1  0
  7 40  1  0
  7 41  1  0
  7 42  1  0
 13 43  1  0
 14 44  1  0
 17 45  1  0
 17 46  1  0
 19 47  1  0
 20 48  1  0
 21 49  1  0
 22 50  1  0
 23 51  1  0
 27 52  1  0
 28 53  1  0
 31 54  1  0
 34 55  1  0
 35 56  1  0
M  CHG  2  30  -1  33  -1
M  END
>  <UniqueID>  (11) 
11

>  <SMILES>  (11) 
Cc1cnc(S(C)(=O)=O)nc1-c1ccc(N(Cc2ccccc2)C(=O)c2ccc([O-])cc2[O-])cc1

>  <Energy>  (11) 
73.36042202400077

>  <Genealogy>  (11) 
Cc1cnc(S(C)(=O)=O)nc1-c1ccc(N(Cc2ccccc2)C(=O)c2ccc([O-])cc2[O-])cc1 (protonated)
Cc1cnc(S(C)(=O)=O)nc1-c1ccc(N(Cc2ccccc2)C(=O)c2ccc([O-])cc2[O-])cc1 (3D coordinates assigned)
Cc1cnc(S(C)(=O)=O)nc1-c1ccc(N(Cc2ccccc2)C(=O)c2ccc([O-])cc2[O-])cc1 (optimized conformer: 73.36042202400077 kcal/mol)

>  <smiles>  (11) 
Cc1cnc(S(C)(=O)=O)nc1-c1ccc(N(Cc2ccccc2)C(=O)c2ccc(O)cc2O)cc1

>  <score_type>  (11) 
oracle

>  <origin>  (11) 
adgpu

>  <m_score__min__energy>  (11) 
-13.49

>  <m_primary>  (11) 
energy

$$$$
11:0
     RDKit          3D

 56 58  0  0  0  0  0  0  0  0999 V2000
   -1.2430   26.8000  -26.1090 C   0  0  0  0  0  0  0  0  0  0  0  0
   -0.7750   27.2770  -27.4820 C   0  0  0  0  0  0  0  0  0  0  0  0
   -1.2620   26.4140  -28.5130 O   0  0  0  0  0  0  0  0  0  0  0  0
   -1.0540   25.0220  -28.5840 C   0  0  0  0  0  0  0  0  0  0  0  0
    0.0080   24.3800  -27.9110 C   0  0  0  0  0  0  0  0  0  0  0  0
    0.1900   22.9990  -28.0260 C   0  0  0  0  0  0  0  0  0  0  0  0
   -0.6700   22.2450  -28.8220 C   0  0  0  0  0  0  0  0  0  0  0  0
   -1.7280   22.8650  -29.4910 C   0  0  0  0  0  0  0  0  0  0  0  0
   -1.9470   24.2510  -29.3520 C   0  0  0  0  0  0  0  0  0  0  0  0
   -3.0280   24.9170  -30.0280 N   0  0  0  0  0  0  0  0  0  0  0  0
   -4.2800   24.3350  -30.4210 C   0  0  0  0  0  0  0  0  0  0  0  0
   -5.0990   24.9820  -31.1250 O   0  0  0  0  0  0  0  0  0  0  0  0
   -4.5870   22.9140  -30.0470 C   0  0  0  0  0  0  0  0  0  0  0  0
   -5.0510   22.1160  -31.2100 N   0  0  2  0  0  0  0  0  0  0  0  0
   -4.1830   22.3410  -32.3880 C   0  0  0  0  0  0  0  0  0  0  0  0
   -2.9560   21.4560  -32.3730 C   0  0  0  0  0  0  0  0  0  0  0  0
   -2.7530   20.5440  -31.3230 C   0  0  0  0  0  0  0  0  0  0  0  0
   -1.6130   19.7330  -31.3070 C   0  0  0  0  0  0  0  0  0  0  0  0
   -0.6710   19.8260  -32.3360 C   0  0  0  0  0  0  0  0  0  0  0  0
   -0.8660   20.7280  -33.3850 C   0  0  0  0  0  0  0  0  0  0  0  0
   -2.0040   21.5430  -33.4040 C   0  0  0  0  0  0  0  0  0  0  0  0
   -6.6980   22.5510  -31.6320 S   0  0  0  0  0  0  0  0  0  0  0  0
   -7.3940   23.1860  -30.4580 O   0  0  0  0  0  0  0  0  0  0  0  0
   -6.6830   23.5390  -32.7660 O   0  0  0  0  0  0  0  0  0  0  0  0
   -7.6140   21.1150  -32.1010 C   0  0  0  0  0  0  0  0  0  0  0  0
   -8.9110   20.7910  -31.7570 C   0  0  0  0  0  0  0  0  0  0  0  0
   -9.8410   21.5980  -30.9130 C   0  0  0  0  0  0  0  0  0  0  0  0
   -9.2250   19.5920  -32.2860 N   0  0  0  0  0  0  0  0  0  0  0  0
   -8.1760   19.1740  -32.9330 O   0  0  0  0  0  0  0  0  0  0  0  0
   -7.1870   20.0350  -32.8500 C   0  0  0  0  0  0  0  0  0  0  0  0
   -5.8440   19.8340  -33.4780 C   0  0  0  0  0  0  0  0  0  0  0  0
   -0.7023   27.3511  -25.3255 H   0  0  0  0  0  0  0  0  0  0  0  0
   -2.3230   26.9816  -26.0062 H   0  0  0  0  0  0  0  0  0  0  0  0
   -1.0408   25.7236  -26.0062 H   0  0  0  0  0  0  0  0  0  0  0  0
   -1.1509   28.2958  -27.6572 H   0  0  0  0  0  0  0  0  0  0  0  0
    0.3247   27.2655  -27.5031 H   0  0  0  0  0  0  0  0  0  0  0  0
    0.6979   24.9714  -27.2911 H   0  0  0  0  0  0  0  0  0  0  0  0
    1.0132   22.5067  -27.4875 H   0  0  0  0  0  0  0  0  0  0  0  0
   -0.5156   21.1606  -28.9236 H   0  0  0  0  0  0  0  0  0  0  0  0
   -2.3948   22.2680  -30.1305 H   0  0  0  0  0  0  0  0  0  0  0  0
   -3.6765   22.4502  -29.6397 H   0  0  0  0  0  0  0  0  0  0  0  0
   -5.3965   22.9280  -29.3023 H   0  0  0  0  0  0  0  0  0  0  0  0
   -5.0410   21.0970  -30.9700 H   0  0  0  0  0  0  0  0  0  0  0  0
   -4.7612   22.1290  -33.2994 H   0  0  0  0  0  0  0  0  0  0  0  0
   -3.8443   23.3872  -32.3622 H   0  0  0  0  0  0  0  0  0  0  0  0
   -3.4921   20.4677  -30.5119 H   0  0  0  0  0  0  0  0  0  0  0  0
   -1.4575   19.0208  -30.4832 H   0  0  0  0  0  0  0  0  0  0  0  0
    0.2250   19.1881  -32.3196 H   0  0  0  0  0  0  0  0  0  0  0  0
   -0.1257   20.7977  -34.1956 H   0  0  0  0  0  0  0  0  0  0  0  0
   -2.1541   22.2547  -34.2292 H   0  0  0  0  0  0  0  0  0  0  0  0
   -9.6266   21.4119  -29.8503 H   0  0  0  0  0  0  0  0  0  0  0  0
   -9.7022   22.6667  -31.1334 H   0  0  0  0  0  0  0  0  0  0  0  0
  -10.8795   21.3100  -31.1334 H   0  0  0  0  0  0  0  0  0  0  0  0
   -5.0843   19.7203  -32.6906 H   0  0  0  0  0  0  0  0  0  0  0  0
   -5.8631   18.9287  -34.1026 H   0  0  0  0  0  0  0  0  0  0  0  0
   -5.5972   20.7052  -34.1026 H   0  0  0  0  0  0  0  0  0  0  0  0
  1  2  1  0
  2  3  1  0
  3  4  1  0
  4  5  2  0
  5  6  1  0
  6  7  2  0
  7  8  1  0
  8  9  2  0
  9 10  1  0
 10 11  1  0
 11 12  2  0
 11 13  1  0
 13 14  1  0
 14 15  1  0
 15 16  1  0
 16 17  2  0
 17 18  1  0
 18 19  2  0
 19 20  1  0
 20 21  2  0
 14 22  1  0
 22 23  2  0
 22 24  2  0
 22 25  1  0
 25 26  1  0
 26 27  1  0
 26 28  2  0
 28 29  1  0
 29 30  1  0
 30 31  1  0
  9  4  1  0
 21 16  1  0
 30 25  2  0
  1 32  1  0
  1 33  1  0
  1 34  1  0
  2 35  1  0
  2 36  1  0
  5 37  1  0
  6 38  1  0
  7 39  1  0
  8 40  1  0
 13 41  1  0
 13 42  1  0
 14 43  1  1
 15 44  1  0
 15 45  1  0
 17 46  1  0
 18 47  1  0
 19 48  1  0
 20 49  1  0
 21 50  1  0
 27 51  1  0
 27 52  1  0
 27 53  1  0
 31 54  1  0
 31 55  1  0
 31 56  1  0
M  CHG  2  10  -1  14   1
M  END
>  <UniqueID>  (12) 
12

>  <SMILES>  (12) 
CCOc1ccccc1[N-]C(=O)C[N@H+](Cc1ccccc1)S(=O)(=O)c1c(C)noc1C

>  <Energy>  (12) 
86.93718770619041

>  <Genealogy>  (12) 
CCOc1ccccc1[N-]C(=O)C[NH+](Cc1ccccc1)S(=O)(=O)c1c(C)noc1C (protonated)
CCOc1ccccc1[N-]C(=O)C[N@H+](Cc1ccccc1)S(=O)(=O)c1c(C)noc1C (chirality)
CCOc1ccccc1[N-]C(=O)C[N@H+](Cc1ccccc1)S(=O)(=O)c1c(C)noc1C (3D coordinates assigned)
CCOc1ccccc1[N-]C(=O)C[N@H+](Cc1ccccc1)S(=O)(=O)c1c(C)noc1C (optimized conformer: 86.93718770619041 kcal/mol)

>  <smiles>  (12) 
CCOc1ccccc1NC(=O)CN(Cc1ccccc1)S(=O)(=O)c1c(C)noc1C

>  <score_type>  (12) 
oracle

>  <origin>  (12) 
adgpu

>  <m_score__min__energy>  (12) 
-10.19

>  <m_primary>  (12) 
energy

$$$$
12:0
     RDKit          3D

 36 38  0  0  0  0  0  0  0  0999 V2000
   -0.4680   26.0910  -24.0320 C   0  0  0  0  0  0  0  0  0  0  0  0
    0.1760   25.3120  -25.1740 C   0  0  0  0  0  0  0  0  0  0  0  0
   -0.8190   25.0580  -26.2750 C   0  0  0  0  0  0  0  0  0  0  0  0
   -2.1960   25.0950  -26.0060 C   0  0  0  0  0  0  0  0  0  0  0  0
   -3.1210   24.8900  -27.0350 C   0  0  0  0  0  0  0  0  0  0  0  0
   -2.6850   24.6540  -28.3500 C   0  0  0  0  0  0  0  0  0  0  0  0
   -3.6620   24.4380  -29.4370 C   0  0  0  0  0  0  0  0  0  0  0  0
   -4.4560   23.3500  -29.5290 N   0  0  0  0  0  0  0  0  0  0  0  0
   -5.1510   23.6050  -30.6560 C   0  0  0  0  0  0  0  0  0  0  0  0
   -6.1800   22.6980  -31.2100 C   0  0  0  0  0  0  0  0  0  0  0  0
   -7.5290   22.8410  -30.8410 C   0  0  0  0  0  0  0  0  0  0  0  0
   -8.4990   21.9780  -31.3580 C   0  0  0  0  0  0  0  0  0  0  0  0
   -8.1360   20.9680  -32.2520 C   0  0  0  0  0  0  0  0  0  0  0  0
   -6.7980   20.8230  -32.6460 C   0  0  0  0  0  0  0  0  0  0  0  0
   -6.4020   19.7150  -33.5760 C   0  0  0  0  0  0  0  0  0  0  0  0
   -5.8220   21.6790  -32.1120 C   0  0  0  0  0  0  0  0  0  0  0  0
   -4.8030   24.7770  -31.2180 N   0  0  0  0  0  0  0  0  0  0  0  0
   -3.8640   25.3020  -30.4490 N   0  0  0  0  0  0  0  0  0  0  0  0
   -1.3060   24.6310  -28.6170 C   0  0  0  0  0  0  0  0  0  0  0  0
   -0.3810   24.8360  -27.5890 C   0  0  0  0  0  0  0  0  0  0  0  0
   -0.1280   25.6797  -23.0701 H   0  0  0  0  0  0  0  0  0  0  0  0
   -0.1780   27.1498  -24.1011 H   0  0  0  0  0  0  0  0  0  0  0  0
   -1.5625   26.0053  -24.1011 H   0  0  0  0  0  0  0  0  0  0  0  0
    1.0190   25.8928  -25.5765 H   0  0  0  0  0  0  0  0  0  0  0  0
    0.5282   24.3446  -24.7866 H   0  0  0  0  0  0  0  0  0  0  0  0
   -2.5492   25.2860  -24.9819 H   0  0  0  0  0  0  0  0  0  0  0  0
   -4.1981   24.9137  -26.8132 H   0  0  0  0  0  0  0  0  0  0  0  0
   -7.8228   23.6371  -30.1410 H   0  0  0  0  0  0  0  0  0  0  0  0
   -9.5515   22.0944  -31.0600 H   0  0  0  0  0  0  0  0  0  0  0  0
   -8.9016   20.2846  -32.6480 H   0  0  0  0  0  0  0  0  0  0  0  0
   -6.0888   18.8386  -32.9897 H   0  0  0  0  0  0  0  0  0  0  0  0
   -7.2592   19.4446  -34.2102 H   0  0  0  0  0  0  0  0  0  0  0  0
   -5.5677   20.0492  -34.2102 H   0  0  0  0  0  0  0  0  0  0  0  0
   -4.7683   21.5521  -32.4011 H   0  0  0  0  0  0  0  0  0  0  0  0
   -0.9514   24.4504  -29.6425 H   0  0  0  0  0  0  0  0  0  0  0  0
    0.6961   24.8231  -27.8117 H   0  0  0  0  0  0  0  0  0  0  0  0
  1  2  1  0
  2  3  1  0
  3  4  2  0
  4  5  1  0
  5  6  2  0
  6  7  1  0
  7  8  2  0
  8  9  1  0
  9 10  1  0
 10 11  2  0
 11 12  1  0
 12 13  2  0
 13 14  1  0
 14 15  1  0
 14 16  2  0
  9 17  2  0
 17 18  1  0
  6 19  1  0
 19 20  2  0
 20  3  1  0
 18  7  1  0
 16 10  1  0
  1 21  1  0
  1 22  1  0
  1 23  1  0
  2 24  1  0
  2 25  1  0
  4 26  1  0
  5 27  1  0
 11 28  1  0
 12 29  1  0
 13 30  1  0
 15 31  1  0
 15 32  1  0
 15 33  1  0
 16 34  1  0
 19 35  1  0
 20 36  1  0
M  CHG  1  18  -1
M  END
>  <UniqueID>  (13) 
13

>  <SMILES>  (13) 
CCc1ccc(-c2nc(-c3cccc(C)c3)n[n-]2)cc1

>  <Energy>  (13) 
67.02355551041425

>  <Genealogy>  (13) 
CCc1ccc(-c2nc(-c3cccc(C)c3)n[n-]2)cc1 (protonated)
CCc1ccc(-c2nc(-c3cccc(C)c3)n[n-]2)cc1 (3D coordinates assigned)
CCc1ccc(-c2nc(-c3cccc(C)c3)n[n-]2)cc1 (optimized conformer: 67.02355551041425 kcal/mol)

>  <smiles>  (13) 
CCc1ccc(-c2nc(-c3cccc(C)c3)n[nH]2)cc1

>  <score_type>  (13) 
oracle

>  <origin>  (13) 
adgpu

>  <m_score__min__energy>  (13) 
-9.4000000000000004

>  <m_primary>  (13) 
energy

$$$$
13:0
     RDKit          3D

 50 53  0  0  0  0  0  0  0  0999 V2000
   -3.0520   25.6350  -30.4480 H   0  0  0  0  0  0  0  0  0  0  0  0
   -3.9490   25.1190  -30.5900 N   0  0  0  0  0  0  0  0  0  0  0  0
   -3.9690   23.8490  -30.8280 C   0  0  0  0  0  0  0  0  0  0  0  0
   -5.1540   23.2140  -31.0120 N   0  0  0  0  0  0  0  0  0  0  0  0
   -5.2120   21.8780  -31.2610 C   0  0  0  0  0  0  0  0  0  0  0  0
   -6.4920   21.2470  -31.4710 N   0  0  0  0  0  0  0  0  0  0  0  0
   -7.7370   22.0360  -31.4260 C   0  0  0  0  0  0  0  0  0  0  0  0
   -7.6662   22.7619  -30.6025 H   0  0  0  0  0  0  0  0  0  0  0  0
   -7.8513   22.5400  -32.3970 H   0  0  0  0  0  0  0  0  0  0  0  0
   -8.9830   21.1520  -31.2030 C   0  0  0  0  0  0  0  0  0  0  0  0
   -8.7320   20.3889  -30.4516 H   0  0  0  0  0  0  0  0  0  0  0  0
   -9.7898   21.8267  -30.8807 H   0  0  0  0  0  0  0  0  0  0  0  0
   -9.4950   20.4320  -32.4670 C   0  0  0  0  0  0  0  0  0  0  0  0
  -10.5438   20.1444  -32.3019 H   0  0  0  0  0  0  0  0  0  0  0  0
   -9.3789   21.1342  -33.3057 H   0  0  0  0  0  0  0  0  0  0  0  0
   -8.7270   19.2170  -32.8120 N   0  0  0  0  0  0  0  0  0  0  0  0
   -8.8760   18.5160  -32.0480 H   0  0  0  0  0  0  0  0  0  0  0  0
   -9.1250   18.8080  -33.6890 H   0  0  0  0  0  0  0  0  0  0  0  0
   -7.2750   19.4020  -33.0030 C   0  0  0  0  0  0  0  0  0  0  0  0
   -6.8519   18.4589  -33.3793 H   0  0  0  0  0  0  0  0  0  0  0  0
   -7.1488   20.2331  -33.7125 H   0  0  0  0  0  0  0  0  0  0  0  0
   -6.5220   19.7930  -31.7150 C   0  0  0  0  0  0  0  0  0  0  0  0
   -7.0163   19.3066  -30.8611 H   0  0  0  0  0  0  0  0  0  0  0  0
   -5.4796   19.4631  -31.8361 H   0  0  0  0  0  0  0  0  0  0  0  0
   -4.0170   21.1480  -31.3520 C   0  0  0  0  0  0  0  0  0  0  0  0
   -4.0363   20.0690  -31.5652 H   0  0  0  0  0  0  0  0  0  0  0  0
   -2.7990   21.8150  -31.1670 C   0  0  0  0  0  0  0  0  0  0  0  0
   -1.5520   21.1030  -31.2430 N   0  0  0  0  0  0  0  0  0  0  0  0
   -0.5470   21.0540  -30.3320 C   0  0  0  0  0  0  0  0  0  0  0  0
   -0.4420   21.9020  -29.1260 C   0  0  0  0  0  0  0  0  0  0  0  0
   -0.2880   21.3070  -27.8660 C   0  0  0  0  0  0  0  0  0  0  0  0
   -0.2568   20.2109  -27.7783 H   0  0  0  0  0  0  0  0  0  0  0  0
   -0.1740   22.0990  -26.7220 C   0  0  0  0  0  0  0  0  0  0  0  0
   -0.0634   21.6248  -25.7356 H   0  0  0  0  0  0  0  0  0  0  0  0
   -0.2000   23.4920  -26.8260 C   0  0  0  0  0  0  0  0  0  0  0  0
   -0.1203   24.1111  -25.9202 H   0  0  0  0  0  0  0  0  0  0  0  0
   -0.3280   24.1060  -28.0870 C   0  0  0  0  0  0  0  0  0  0  0  0
   -0.3480   25.4990  -28.2470 O   0  0  0  0  0  0  0  0  0  0  0  0
   -0.4800   26.4300  -27.1770 C   0  0  0  0  0  0  0  0  0  0  0  0
   -0.4046   25.8983  -26.2170 H   0  0  0  0  0  0  0  0  0  0  0  0
    0.3206   27.1814  -27.2439 H   0  0  0  0  0  0  0  0  0  0  0  0
   -1.4579   26.9292  -27.2439 H   0  0  0  0  0  0  0  0  0  0  0  0
   -0.4380   23.3040  -29.2290 C   0  0  0  0  0  0  0  0  0  0  0  0
   -0.5223   23.7764  -30.2188 H   0  0  0  0  0  0  0  0  0  0  0  0
    0.4090   20.1590  -30.6650 N   0  0  0  0  0  0  0  0  0  0  0  0
   -0.0110   19.6370  -31.8330 C   0  0  0  0  0  0  0  0  0  0  0  0
    0.5223   18.8690  -32.4124 H   0  0  0  0  0  0  0  0  0  0  0  0
   -1.2090   20.2110  -32.1910 C   0  0  0  0  0  0  0  0  0  0  0  0
   -1.7879   19.9803  -33.0975 H   0  0  0  0  0  0  0  0  0  0  0  0
   -2.8060   23.1480  -30.9000 N   0  0  0  0  0  0  0  0  0  0  0  0
  1  2  1  0
  2  3  2  0
  3  4  1  0
  4  5  2  0
  5  6  1  0
  6  7  1  0
  7  8  1  0
  7  9  1  0
  7 10  1  0
 10 11  1  0
 10 12  1  0
 10 13  1  0
 13 14  1  0
 13 15  1  0
 13 16  1  0
 16 17  1  0
 16 18  1  0
 16 19  1  0
 19 20  1  0
 19 21  1  0
 19 22  1  0
 22 23  1  0
 22 24  1  0
  5 25  1  0
 25 26  1  0
 25 27  2  0
 27 28  1  0
 28 29  1  0
 29 30  1  0
 30 31  2  0
 31 32  1  0
 31 33  1  0
 33 34  1  0
 33 35  2  0
 35 36  1  0
 35 37  1  0
 37 38  1  0
 38 39  1  0
 39 40  1  0
 39 41  1  0
 39 42  1  0
 37 43  2  0
 43 44  1  0
 29 45  2  0
 45 46  1  0
 46 47  1  0
 46 48  2  0
 48 49  1  0
 27 50  1  0
 50  3  1  0
 22  6  1  0
 48 28  1  0
 43 30  1  0
M  CHG  2  16   1  50  -1
M  END
>  <UniqueID>  (14) 
14

>  <SMILES>  (14) 
[H]/N=c1/nc(N2CCC[NH2+]CC2)cc(-n2ccnc2-c2cccc(OC)c2)[n-]1

>  <Energy>  (14) 
101.50299434519384

>  <Genealogy>  (14) 
COc1cccc(-c2nccn2-c2cc(N3CCC[NH2+]CC3)nc(=N)[n-]2)c1 (protonated)
[H]/N=c1/nc(N2CCC[NH2+]CC2)cc(-n2ccnc2-c2cccc(OC)c2)[n-]1 (cis-trans isomerization)
[H]/N=c1/nc(N2CCC[NH2+]CC2)cc(-n2ccnc2-c2cccc(OC)c2)[n-]1 (3D coordinates assigned)
[H]/N=c1/nc(N2CCC[NH2+]CC2)cc(-n2ccnc2-c2cccc(OC)c2)[n-]1 (nonaromatic ring conformer: 101.50299434519384 kcal/mol)

>  <smiles>  (14) 
COc1cccc(-c2nccn2-c2cc(N3CCCNCC3)nc(=N)[nH]2)c1

>  <score_type>  (14) 
oracle

>  <origin>  (14) 
adgpu

>  <m_score__min__energy>  (14) 
-7.2999999999999998

>  <m_primary>  (14) 
energy

$$$$
14:0
     RDKit          3D

 34 35  0  0  0  0  0  0  0  0999 V2000
   -9.1100   21.6060  -31.1770 C   0  0  0  0  0  0  0  0  0  0  0  0
   -8.0210   22.0790  -31.9620 O   0  0  0  0  0  0  0  0  0  0  0  0
   -6.9860   22.8910  -31.4720 C   0  0  0  0  0  0  0  0  0  0  0  0
   -5.6640   22.4950  -31.7040 C   0  0  0  0  0  0  0  0  0  0  0  0
   -4.5970   23.2660  -31.2350 C   0  0  0  0  0  0  0  0  0  0  0  0
   -4.8390   24.4450  -30.5080 C   0  0  0  0  0  0  0  0  0  0  0  0
   -3.7640   25.2720  -30.0350 N   0  0  0  0  0  0  0  0  0  0  0  0
   -2.6020   24.7710  -29.3490 C   0  0  0  0  0  0  0  0  0  0  0  0
   -2.4480   23.5340  -29.1720 O   0  0  0  0  0  0  0  0  0  0  0  0
   -1.5870   25.6640  -28.8780 N   0  0  0  0  0  0  0  0  0  0  0  0
   -1.2910   25.9520  -27.5050 C   0  0  0  0  0  0  0  0  0  0  0  0
   -1.8650   25.1550  -26.5060 C   0  0  0  0  0  0  0  0  0  0  0  0
   -1.6210   25.4270  -25.1570 C   0  0  0  0  0  0  0  0  0  0  0  0
   -0.8260   26.5220  -24.7890 C   0  0  0  0  0  0  0  0  0  0  0  0
   -0.5320   26.7930  -23.3430 C   0  0  0  0  0  0  0  0  0  0  0  0
   -0.2580   27.3280  -25.7880 C   0  0  0  0  0  0  0  0  0  0  0  0
   -0.5010   27.0540  -27.1370 C   0  0  0  0  0  0  0  0  0  0  0  0
   -6.1640   24.8550  -30.2970 C   0  0  0  0  0  0  0  0  0  0  0  0
   -7.2310   24.0830  -30.7650 C   0  0  0  0  0  0  0  0  0  0  0  0
   -8.8659   21.7120  -30.1097 H   0  0  0  0  0  0  0  0  0  0  0  0
  -10.0107   22.1940  -31.4073 H   0  0  0  0  0  0  0  0  0  0  0  0
   -9.2950   20.5464  -31.4073 H   0  0  0  0  0  0  0  0  0  0  0  0
   -5.4628   21.5680  -32.2609 H   0  0  0  0  0  0  0  0  0  0  0  0
   -3.5629   22.9491  -31.4355 H   0  0  0  0  0  0  0  0  0  0  0  0
   -3.8740   26.3050  -30.1400 H   0  0  0  0  0  0  0  0  0  0  0  0
   -2.5116   24.3100  -26.7850 H   0  0  0  0  0  0  0  0  0  0  0  0
   -2.0544   24.7794  -24.3806 H   0  0  0  0  0  0  0  0  0  0  0  0
   -1.1951   26.1818  -22.7132 H   0  0  0  0  0  0  0  0  0  0  0  0
    0.5161   26.5376  -23.1278 H   0  0  0  0  0  0  0  0  0  0  0  0
   -0.7014   27.8584  -23.1278 H   0  0  0  0  0  0  0  0  0  0  0  0
    0.3809   28.1786  -25.5082 H   0  0  0  0  0  0  0  0  0  0  0  0
   -0.0719   27.7040  -27.9138 H   0  0  0  0  0  0  0  0  0  0  0  0
   -6.3650   25.7927  -29.7582 H   0  0  0  0  0  0  0  0  0  0  0  0
   -8.2655   24.4081  -30.5802 H   0  0  0  0  0  0  0  0  0  0  0  0
  1  2  1  0
  2  3  1  0
  3  4  2  0
  4  5  1  0
  5  6  2  0
  6  7  1  0
  7  8  1  0
  8  9  2  0
  8 10  1  0
 10 11  1  0
 11 12  2  0
 12 13  1  0
 13 14  2  0
 14 15  1  0
 14 16  1  0
 16 17  2  0
  6 18  1  0
 18 19  2  0
 19  3  1  0
 17 11  1  0
  1 20  1  0
  1 21  1  0
  1 22  1  0
  4 23  1  0
  5 24  1  0
  7 25  1  0
 12 26  1  0
 13 27  1  0
 15 28  1  0
 15 29  1  0
 15 30  1  0
 16 31  1  0
 17 32  1  0
 18 33  1  0
 19 34  1  0
M  CHG  1  10  -1
M  END
>  <UniqueID>  (15) 
15

>  <SMILES>  (15) 
COc1ccc(NC(=O)[N-]c2ccc(C)cc2)cc1

>  <Energy>  (15) 
41.2434587752828

>  <Genealogy>  (15) 
COc1ccc(NC(=O)[N-]c2ccc(C)cc2)cc1 (protonated)
COc1ccc(NC(=O)[N-]c2ccc(C)cc2)cc1 (3D coordinates assigned)
COc1ccc(NC(=O)[N-]c2ccc(C)cc2)cc1 (optimized conformer: 41.2434587752828 kcal/mol)

>  <smiles>  (15) 
COc1ccc(NC(=O)Nc2ccc(C)cc2)cc1

>  <score_type>  (15) 
oracle

>  <origin>  (15) 
adgpu

>  <m_score__min__energy>  (15) 
-8.1699999999999999

>  <m_primary>  (15) 
energy

$$$$
15:0
     RDKit          3D

 40 41  0  0  0  0  0  0  0  0999 V2000
   -7.9830   23.2880  -31.5760 C   0  0  0  0  0  0  0  0  0  0  0  0
   -6.6370   22.6510  -31.7680 C   0  0  0  0  0  0  0  0  0  0  0  0
   -5.4140   23.1520  -31.3470 C   0  0  0  0  0  0  0  0  0  0  0  0
   -5.1670   24.6660  -30.4690 S   0  0  0  0  0  0  0  0  0  0  0  0
   -6.2660   25.6240  -30.8370 O   0  0  0  0  0  0  0  0  0  0  0  0
   -3.8450   25.2890  -30.8220 O   0  0  0  0  0  0  0  0  0  0  0  0
   -5.2170   24.3610  -28.7600 N   0  0  0  0  0  0  0  0  0  0  0  0
   -4.0500   23.5690  -28.3640 C   0  0  0  0  0  0  0  0  0  0  0  0
   -3.0250   24.4680  -27.7320 C   0  0  0  0  0  0  0  0  0  0  0  0
   -1.8550   24.8040  -28.4320 C   0  0  0  0  0  0  0  0  0  0  0  0
   -0.8820   25.6090  -27.8320 C   0  0  0  0  0  0  0  0  0  0  0  0
   -1.0650   26.0750  -26.5260 C   0  0  0  0  0  0  0  0  0  0  0  0
    0.1570   27.0830  -25.7740 Cl  0  0  0  0  0  0  0  0  0  0  0  0
   -2.2210   25.7300  -25.8180 C   0  0  0  0  0  0  0  0  0  0  0  0
   -3.1950   24.9250  -26.4150 C   0  0  0  0  0  0  0  0  0  0  0  0
   -4.4580   22.2030  -31.6840 C   0  0  0  0  0  0  0  0  0  0  0  0
   -2.9870   22.3040  -31.3930 C   0  0  0  0  0  0  0  0  0  0  0  0
   -5.0550   21.1350  -32.2650 N   0  0  0  0  0  0  0  0  0  0  0  0
   -4.3830   19.9200  -32.7310 C   0  0  0  0  0  0  0  0  0  0  0  0
   -6.3830   21.4000  -32.3150 C   0  0  0  0  0  0  0  0  0  0  0  0
   -7.4180   20.4490  -32.8500 C   0  0  0  0  0  0  0  0  0  0  0  0
   -8.1918   23.3868  -30.5005 H   0  0  0  0  0  0  0  0  0  0  0  0
   -7.9874   24.2837  -32.0434 H   0  0  0  0  0  0  0  0  0  0  0  0
   -8.7558   22.6601  -32.0434 H   0  0  0  0  0  0  0  0  0  0  0  0
   -5.1580   25.2900  -28.2830 H   0  0  0  0  0  0  0  0  0  0  0  0
   -4.3577   22.7989  -27.6413 H   0  0  0  0  0  0  0  0  0  0  0  0
   -3.6162   23.0862  -29.2521 H   0  0  0  0  0  0  0  0  0  0  0  0
   -1.7034   24.4325  -29.4562 H   0  0  0  0  0  0  0  0  0  0  0  0
    0.0288   25.8763  -28.3879 H   0  0  0  0  0  0  0  0  0  0  0  0
   -2.3637   26.0930  -24.7895 H   0  0  0  0  0  0  0  0  0  0  0  0
   -4.0981   24.6483  -25.8512 H   0  0  0  0  0  0  0  0  0  0  0  0
   -2.8285   22.3149  -30.3045 H   0  0  0  0  0  0  0  0  0  0  0  0
   -2.4664   21.4395  -31.8307 H   0  0  0  0  0  0  0  0  0  0  0  0
   -2.5895   23.2316  -31.8307 H   0  0  0  0  0  0  0  0  0  0  0  0
   -4.0551   19.3271  -31.8645 H   0  0  0  0  0  0  0  0  0  0  0  0
   -5.0806   19.3255  -33.3393 H   0  0  0  0  0  0  0  0  0  0  0  0
   -3.5087   20.1949  -33.3393 H   0  0  0  0  0  0  0  0  0  0  0  0
   -7.9420   19.9675  -32.0112 H   0  0  0  0  0  0  0  0  0  0  0  0
   -8.1422   21.0033  -33.4651 H   0  0  0  0  0  0  0  0  0  0  0  0
   -6.9268   19.6806  -33.4651 H   0  0  0  0  0  0  0  0  0  0  0  0
  1  2  1  0
  2  3  1  0
  3  4  1  0
  4  5  2  0
  4  6  2  0
  4  7  1  0
  7  8  1  0
  8  9  1  0
  9 10  2  0
 10 11  1  0
 11 12  2  0
 12 13  1  0
 12 14  1  0
 14 15  2  0
  3 16  2  0
 16 17  1  0
 16 18  1  0
 18 19  1  0
 18 20  1  0
 20 21  1  0
 20  2  2  0
 15  9  1  0
  1 22  1  0
  1 23  1  0
  1 24  1  0
  7 25  1  0
  8 26  1  0
  8 27  1  0
 10 28  1  0
 11 29  1  0
 14 30  1  0
 15 31  1  0
 17 32  1  0
 17 33  1  0
 17 34  1  0
 19 35  1  0
 19 36  1  0
 19 37  1  0
 21 38  1  0
 21 39  1  0
 21 40  1  0
M  END
>  <UniqueID>  (16) 
16

>  <SMILES>  (16) 
Cc1c(S(=O)(=O)NCc2ccc(Cl)cc2)c(C)n(C)c1C

>  <Energy>  (16) 
62.01659427272792

>  <Genealogy>  (16) 
Cc1c(S(=O)(=O)NCc2ccc(Cl)cc2)c(C)n(C)c1C (3D coordinates assigned)
Cc1c(S(=O)(=O)NCc2ccc(Cl)cc2)c(C)n(C)c1C (optimized conformer: 62.01659427272792 kcal/mol)

>  <smiles>  (16) 
Cc1c(S(=O)(=O)NCc2ccc(Cl)cc2)c(C)n(C)c1C

>  <score_type>  (16) 
oracle

>  <origin>  (16) 
adgpu

>  <m_score__min__energy>  (16) 
-8.5700000000000003

>  <m_primary>  (16) 
energy

$$$$
16:0
     RDKit          3D

 36 38  0  0  0  0  0  0  0  0999 V2000
    1.8220   25.1440  -28.5390 H   0  0  0  0  0  0  0  0  0  0  0  0
    1.2310   25.5750  -27.7930 N   0  0  0  0  0  0  0  0  0  0  0  0
   -0.0370   25.3290  -27.7110 C   0  0  0  0  0  0  0  0  0  0  0  0
   -0.6330   24.4960  -28.6060 N   0  0  0  0  0  0  0  0  0  0  0  0
   -1.9650   24.2200  -28.5430 C   0  0  0  0  0  0  0  0  0  0  0  0
   -2.5770   23.3080  -29.5420 C   0  0  0  0  0  0  0  0  0  0  0  0
   -2.2220   21.9470  -29.5600 C   0  0  0  0  0  0  0  0  0  0  0  0
   -1.4801   21.5694  -28.8410 H   0  0  0  0  0  0  0  0  0  0  0  0
   -2.7990   21.0710  -30.4780 C   0  0  0  0  0  0  0  0  0  0  0  0
   -2.5045   20.0112  -30.4795 H   0  0  0  0  0  0  0  0  0  0  0  0
   -3.7520   21.5290  -31.4000 C   0  0  0  0  0  0  0  0  0  0  0  0
   -4.3680   20.5910  -32.3740 C   0  0  0  0  0  0  0  0  0  0  0  0
   -5.7610   20.5810  -32.5750 C   0  0  0  0  0  0  0  0  0  0  0  0
   -6.3999   21.2736  -32.0074 H   0  0  0  0  0  0  0  0  0  0  0  0
   -6.3380   19.6970  -33.4910 C   0  0  0  0  0  0  0  0  0  0  0  0
   -7.4278   19.6964  -33.6406 H   0  0  0  0  0  0  0  0  0  0  0  0
   -5.5330   18.8120  -34.2190 C   0  0  0  0  0  0  0  0  0  0  0  0
   -6.0980   17.9280  -35.1340 O   0  0  0  0  0  0  0  0  0  0  0  0
   -6.8930   18.1920  -35.7060 H   0  0  0  0  0  0  0  0  0  0  0  0
   -4.1500   18.8150  -34.0250 C   0  0  0  0  0  0  0  0  0  0  0  0
   -3.5159   18.1203  -34.5954 H   0  0  0  0  0  0  0  0  0  0  0  0
   -3.5670   19.6970  -33.1090 C   0  0  0  0  0  0  0  0  0  0  0  0
   -2.4768   19.6918  -32.9624 H   0  0  0  0  0  0  0  0  0  0  0  0
   -4.1130   22.8870  -31.3880 C   0  0  0  0  0  0  0  0  0  0  0  0
   -4.8593   23.2556  -32.1072 H   0  0  0  0  0  0  0  0  0  0  0  0
   -3.5330   23.7840  -30.4680 C   0  0  0  0  0  0  0  0  0  0  0  0
   -3.8700   25.1480  -30.4620 O   0  0  0  0  0  0  0  0  0  0  0  0
   -5.2000   25.6570  -30.4740 C   0  0  0  0  0  0  0  0  0  0  0  0
   -5.5506   25.7912  -29.4400 H   0  0  0  0  0  0  0  0  0  0  0  0
   -5.2173   26.6253  -30.9956 H   0  0  0  0  0  0  0  0  0  0  0  0
   -5.8594   24.9477  -30.9956 H   0  0  0  0  0  0  0  0  0  0  0  0
   -2.7330   24.8110  -27.5280 C   0  0  0  0  0  0  0  0  0  0  0  0
   -3.8108   24.6057  -27.4496 H   0  0  0  0  0  0  0  0  0  0  0  0
   -2.1050   25.6630  -26.6210 C   0  0  0  0  0  0  0  0  0  0  0  0
   -2.6881   26.1384  -25.8185 H   0  0  0  0  0  0  0  0  0  0  0  0
   -0.7740   25.9060  -26.7280 N   0  0  0  0  0  0  0  0  0  0  0  0
  1  2  1  0
  2  3  2  0
  3  4  1  0
  4  5  2  0
  5  6  1  0
  6  7  2  0
  7  8  1  0
  7  9  1  0
  9 10  1  0
  9 11  2  0
 11 12  1  0
 12 13  2  0
 13 14  1  0
 13 15  1  0
 15 16  1  0
 15 17  2  0
 17 18  1  0
 18 19  1  0
 17 20  1  0
 20 21  1  0
 20 22  2  0
 22 23  1  0
 11 24  1  0
 24 25  1  0
 24 26  2  0
 26 27  1  0
 27 28  1  0
 28 29  1  0
 28 30  1  0
 28 31  1  0
  5 32  1  0
 32 33  1  0
 32 34  2  0
 34 35  1  0
 34 36  1  0
 36  3  1  0
 26  6  1  0
 22 12  1  0
M  CHG  1  36  -1
M  END
>  <UniqueID>  (17) 
17

>  <SMILES>  (17) 
[H]/N=c1\nc(-c2ccc(-c3ccc(O)cc3)cc2OC)cc[n-]1

>  <Energy>  (17) 
49.11862293567797

>  <Genealogy>  (17) 
COc1cc(-c2ccc(O)cc2)ccc1-c1cc[n-]c(=N)n1 (protonated)
[H]/N=c1\nc(-c2ccc(-c3ccc(O)cc3)cc2OC)cc[n-]1 (cis-trans isomerization)
[H]/N=c1\nc(-c2ccc(-c3ccc(O)cc3)cc2OC)cc[n-]1 (3D coordinates assigned)
[H]/N=c1\nc(-c2ccc(-c3ccc(O)cc3)cc2OC)cc[n-]1 (optimized conformer: 49.11862293567797 kcal/mol)

>  <smiles>  (17) 
COc1cc(-c2ccc(O)cc2)ccc1-c1cc[nH]c(=N)n1

>  <score_type>  (17) 
oracle

>  <origin>  (17) 
adgpu

>  <m_score__min__energy>  (17) 
-8.9700000000000006

>  <m_primary>  (17) 
energy

$$$$
17:0
     RDKit          3D

 41 43  0  0  0  0  0  0  0  0999 V2000
   -3.4120   21.1720  -27.8320 C   0  0  0  0  0  0  0  0  0  0  0  0
   -3.2300   22.5030  -28.4870 C   0  0  0  0  0  0  0  0  0  0  0  0
   -2.1440   23.3170  -28.1520 C   0  0  0  0  0  0  0  0  0  0  0  0
   -2.0030   24.5460  -28.8030 C   0  0  0  0  0  0  0  0  0  0  0  0
   -0.8680   25.4580  -28.4620 C   0  0  0  0  0  0  0  0  0  0  0  0
   -2.9180   24.9230  -29.7350 N   0  0  0  0  0  0  0  0  0  0  0  0
   -3.9670   24.1210  -30.0570 C   0  0  0  0  0  0  0  0  0  0  0  0
   -4.8160   24.5140  -30.9550 N   0  0  0  0  0  0  0  0  0  0  0  0
   -6.1950   23.5840  -31.4500 S   0  0  0  0  0  0  0  0  0  0  0  0
   -7.1670   23.5010  -30.3060 O   0  0  0  0  0  0  0  0  0  0  0  0
   -6.8540   24.2350  -32.6340 O   0  0  0  0  0  0  0  0  0  0  0  0
   -5.6740   21.9660  -31.9010 C   0  0  0  0  0  0  0  0  0  0  0  0
   -6.5180   20.8700  -31.6840 C   0  0  0  0  0  0  0  0  0  0  0  0
   -6.1040   19.5800  -32.0320 C   0  0  0  0  0  0  0  0  0  0  0  0
   -4.8390   19.3720  -32.6110 C   0  0  0  0  0  0  0  0  0  0  0  0
   -4.3790   18.0540  -32.9570 N   0  0  0  0  0  0  0  0  0  0  0  0
   -5.2010   17.0620  -33.5960 C   0  0  0  0  0  0  0  0  0  0  0  0
   -6.2670   17.4000  -34.1770 O   0  0  0  0  0  0  0  0  0  0  0  0
   -4.7960   15.6480  -33.6250 C   0  0  0  0  0  0  0  0  0  0  0  0
   -4.0320   15.0250  -34.5980 C   0  0  0  0  0  0  0  0  0  0  0  0
   -3.9100   13.7120  -34.1950 C   0  0  0  0  0  0  0  0  0  0  0  0
   -4.6020   13.6190  -33.0060 C   0  0  0  0  0  0  0  0  0  0  0  0
   -4.7930   12.0400  -31.9560 Br  0  0  0  0  0  0  0  0  0  0  0  0
   -5.1180   14.7830  -32.6910 O   0  0  0  0  0  0  0  0  0  0  0  0
   -3.9850   20.4710  -32.7980 C   0  0  0  0  0  0  0  0  0  0  0  0
   -4.4020   21.7590  -32.4500 C   0  0  0  0  0  0  0  0  0  0  0  0
   -4.1130   22.9190  -29.4330 N   0  0  0  0  0  0  0  0  0  0  0  0
   -3.3951   21.2958  -26.7391 H   0  0  0  0  0  0  0  0  0  0  0  0
   -4.3773   20.7420  -28.1374 H   0  0  0  0  0  0  0  0  0  0  0  0
   -2.5976   20.4986  -28.1374 H   0  0  0  0  0  0  0  0  0  0  0  0
   -1.4158   22.9972  -27.3922 H   0  0  0  0  0  0  0  0  0  0  0  0
   -0.7741   25.5335  -27.3686 H   0  0  0  0  0  0  0  0  0  0  0  0
    0.0650   25.0556  -28.8833 H   0  0  0  0  0  0  0  0  0  0  0  0
   -1.0601   26.4558  -28.8833 H   0  0  0  0  0  0  0  0  0  0  0  0
   -7.5115   21.0242  -31.2377 H   0  0  0  0  0  0  0  0  0  0  0  0
   -6.7709   18.7240  -31.8520 H   0  0  0  0  0  0  0  0  0  0  0  0
   -3.3640   17.8450  -32.8250 H   0  0  0  0  0  0  0  0  0  0  0  0
   -3.6099   15.4830  -35.5047 H   0  0  0  0  0  0  0  0  0  0  0  0
   -3.3719   12.9055  -34.7146 H   0  0  0  0  0  0  0  0  0  0  0  0
   -2.9813   20.3173  -33.2211 H   0  0  0  0  0  0  0  0  0  0  0  0
   -3.7282   22.6140  -32.6080 H   0  0  0  0  0  0  0  0  0  0  0  0
  1  2  1  0
  2  3  1  0
  3  4  2  0
  4  5  1  0
  4  6  1  0
  6  7  1  0
  7  8  2  3
  8  9  1  0
  9 10  2  0
  9 11  2  0
  9 12  1  0
 12 13  2  0
 13 14  1  0
 14 15  2  0
 15 16  1  0
 16 17  1  0
 17 18  2  0
 17 19  1  0
 19 20  2  0
 20 21  1  0
 21 22  2  0
 22 23  1  0
 22 24  1  0
 15 25  1  0
 25 26  2  0
  7 27  1  0
 27  2  2  0
 26 12  1  0
 24 19  1  0
  1 28  1  0
  1 29  1  0
  1 30  1  0
  3 31  1  0
  5 32  1  0
  5 33  1  0
  5 34  1  0
 13 35  1  0
 14 36  1  0
 16 37  1  0
 20 38  1  0
 21 39  1  0
 25 40  1  0
 26 41  1  0
M  CHG  1   6  -1
M  END
>  <UniqueID>  (18) 
18

>  <SMILES>  (18) 
Cc1cc(C)[n-]c(=NS(=O)(=O)c2ccc(NC(=O)c3ccc(Br)o3)cc2)n1

>  <Energy>  (18) 
74.17996387496456

>  <Genealogy>  (18) 
Cc1cc(C)[n-]c(=NS(=O)(=O)c2ccc(NC(=O)c3ccc(Br)o3)cc2)n1 (protonated)
Cc1cc(C)[n-]c(=NS(=O)(=O)c2ccc(NC(=O)c3ccc(Br)o3)cc2)n1 (3D coordinates assigned)
Cc1cc(C)[n-]c(=NS(=O)(=O)c2ccc(NC(=O)c3ccc(Br)o3)cc2)n1 (optimized conformer: 74.17996387496456 kcal/mol)

>  <smiles>  (18) 
Cc1cc(C)[nH]c(=NS(=O)(=O)c2ccc(NC(=O)c3ccc(Br)o3)cc2)n1

>  <score_type>  (18) 
oracle

>  <origin>  (18) 
adgpu

>  <m_score__min__energy>  (18) 
-9.1999999999999993

>  <m_primary>  (18) 
energy

$$$$
18:0
     RDKit          3D

 26 27  0  0  0  0  0  0  0  0999 V2000
   -5.2640   24.9240  -28.8690 N   0  0  0  0  0  0  0  0  0  0  0  0
   -5.0200   24.5870  -30.2370 C   0  0  0  0  0  0  0  0  0  0  0  0
   -4.0710   25.1540  -30.8430 O   0  0  0  0  0  0  0  0  0  0  0  0
   -5.8670   23.6060  -30.9570 C   0  0  0  0  0  0  0  0  0  0  0  0
   -7.2640   23.7660  -30.9740 C   0  0  0  0  0  0  0  0  0  0  0  0
   -8.0740   22.8500  -31.6470 C   0  0  0  0  0  0  0  0  0  0  0  0
   -7.5040   21.7680  -32.3180 C   0  0  0  0  0  0  0  0  0  0  0  0
   -6.1100   21.5920  -32.3290 C   0  0  0  0  0  0  0  0  0  0  0  0
   -5.5030   20.4480  -33.0560 C   0  0  0  0  0  0  0  0  0  0  0  0
   -4.1050   20.2930  -33.1100 C   0  0  0  0  0  0  0  0  0  0  0  0
   -3.5360   19.2160  -33.7960 C   0  0  0  0  0  0  0  0  0  0  0  0
   -4.3550   18.2810  -34.4350 C   0  0  0  0  0  0  0  0  0  0  0  0
   -5.7440   18.4240  -34.3900 C   0  0  0  0  0  0  0  0  0  0  0  0
   -6.3180   19.5010  -33.7060 C   0  0  0  0  0  0  0  0  0  0  0  0
   -5.2990   22.5190  -31.6470 C   0  0  0  0  0  0  0  0  0  0  0  0
   -6.1260   24.6130  -28.3700 H   0  0  0  0  0  0  0  0  0  0  0  0
   -4.6140   25.5710  -28.3690 H   0  0  0  0  0  0  0  0  0  0  0  0
   -7.7219   24.6197  -30.4529 H   0  0  0  0  0  0  0  0  0  0  0  0
   -9.1661   22.9818  -31.6483 H   0  0  0  0  0  0  0  0  0  0  0  0
   -8.1499   21.0480  -32.8418 H   0  0  0  0  0  0  0  0  0  0  0  0
   -3.4551   21.0251  -32.6084 H   0  0  0  0  0  0  0  0  0  0  0  0
   -2.4423   19.1043  -33.8329 H   0  0  0  0  0  0  0  0  0  0  0  0
   -3.9062   17.4330  -34.9730 H   0  0  0  0  0  0  0  0  0  0  0  0
   -6.3879   17.6880  -34.8936 H   0  0  0  0  0  0  0  0  0  0  0  0
   -7.4123   19.6088  -33.6757 H   0  0  0  0  0  0  0  0  0  0  0  0
   -4.2064   22.3918  -31.6536 H   0  0  0  0  0  0  0  0  0  0  0  0
  1  2  1  0
  2  3  2  0
  2  4  1  0
  4  5  2  0
  5  6  1  0
  6  7  2  0
  7  8  1  0
  8  9  1  0
  9 10  2  0
 10 11  1  0
 11 12  2  0
 12 13  1  0
 13 14  2  0
  8 15  2  0
 15  4  1  0
 14  9  1  0
  1 16  1  0
  1 17  1  0
  5 18  1  0
  6 19  1  0
  7 20  1  0
 10 21  1  0
 11 22  1  0
 12 23  1  0
 13 24  1  0
 14 25  1  0
 15 26  1  0
M  END
>  <UniqueID>  (19) 
19

>  <SMILES>  (19) 
NC(=O)c1cccc(-c2ccccc2)c1

>  <Energy>  (19) 
33.39551518361544

>  <Genealogy>  (19) 
NC(=O)c1cccc(-c2ccccc2)c1 (3D coordinates assigned)
NC(=O)c1cccc(-c2ccccc2)c1 (optimized conformer: 33.39551518361544 kcal/mol)

>  <smiles>  (19) 
NC(=O)c1cccc(-c2ccccc2)c1

>  <score_type>  (19) 
oracle

>  <origin>  (19) 
adgpu

>  <m_score__min__energy>  (19) 
-7.8799999999999999

>  <m_primary>  (19) 
energy

$$$$
19:0
     RDKit          3D

 54 55  0  0  0  0  0  0  0  0999 V2000
   -6.1804   26.2875  -29.8009 H   0  0  0  0  0  0  0  0  0  0  0  0
   -5.8380   25.3080  -30.1660 C   0  0  0  0  0  0  0  0  0  0  0  0
   -4.7230   24.6730  -29.4350 C   0  0  0  0  0  0  0  0  0  0  0  0
   -4.9090   24.0840  -28.3380 O   0  0  0  0  0  0  0  0  0  0  0  0
   -3.4270   24.6780  -30.0410 N   0  0  0  0  0  0  0  0  0  0  0  0
   -2.3360   23.8060  -29.7070 C   0  0  0  0  0  0  0  0  0  0  0  0
   -2.1170   22.2390  -30.2840 S   0  0  0  0  0  0  0  0  0  0  0  0
   -0.7320   21.9200  -29.3910 C   0  0  0  0  0  0  0  0  0  0  0  0
    0.0550   20.6520  -29.4930 C   0  0  0  0  0  0  0  0  0  0  0  0
    0.2852   20.2811  -28.4833 H   0  0  0  0  0  0  0  0  0  0  0  0
   -0.5338   19.8976  -30.0353 H   0  0  0  0  0  0  0  0  0  0  0  0
    0.9924   20.8449  -30.0353 H   0  0  0  0  0  0  0  0  0  0  0  0
   -0.3980   23.0540  -28.6360 C   0  0  0  0  0  0  0  0  0  0  0  0
    0.8370   23.1290  -27.7810 C   0  0  0  0  0  0  0  0  0  0  0  0
    0.5496   23.1115  -26.7194 H   0  0  0  0  0  0  0  0  0  0  0  0
    1.4868   22.2687  -27.9991 H   0  0  0  0  0  0  0  0  0  0  0  0
    1.3779   24.0616  -27.9991 H   0  0  0  0  0  0  0  0  0  0  0  0
   -1.3340   24.1120  -28.7840 C   0  0  0  0  0  0  0  0  0  0  0  0
   -1.2990   25.4000  -28.0500 C   0  0  0  0  0  0  0  0  0  0  0  0
   -1.2090   26.4770  -28.7000 O   0  0  0  0  0  0  0  0  0  0  0  0
   -1.3990   25.4710  -26.5510 C   0  0  0  0  0  0  0  0  0  0  0  0
   -0.5806   24.8899  -26.1010 H   0  0  0  0  0  0  0  0  0  0  0  0
   -1.3248   26.5198  -26.2278 H   0  0  0  0  0  0  0  0  0  0  0  0
   -2.3647   25.0552  -26.2278 H   0  0  0  0  0  0  0  0  0  0  0  0
   -6.4720   24.8010  -31.2340 C   0  0  0  0  0  0  0  0  0  0  0  0
   -7.2157   25.4412  -31.7311 H   0  0  0  0  0  0  0  0  0  0  0  0
   -6.2530   23.4550  -31.7960 C   0  0  0  0  0  0  0  0  0  0  0  0
   -7.3260   22.5580  -31.8740 C   0  0  0  0  0  0  0  0  0  0  0  0
   -8.3263   22.8710  -31.5402 H   0  0  0  0  0  0  0  0  0  0  0  0
   -7.1320   21.2670  -32.3740 C   0  0  0  0  0  0  0  0  0  0  0  0
   -7.9823   20.5726  -32.4428 H   0  0  0  0  0  0  0  0  0  0  0  0
   -5.8580   20.8540  -32.7880 C   0  0  0  0  0  0  0  0  0  0  0  0
   -5.6330   19.2150  -33.3890 S   0  0  0  0  0  0  0  0  0  0  0  0
   -4.1560   18.9200  -33.3640 O   0  0  0  0  0  0  0  0  0  0  0  0
   -6.1160   19.1130  -34.8120 O   0  0  0  0  0  0  0  0  0  0  0  0
   -6.5430   18.1230  -32.3470 N   0  0  0  0  0  0  0  0  0  0  0  0
   -7.9800   18.1430  -32.6930 C   0  0  0  0  0  0  0  0  0  0  0  0
   -8.2912   17.1283  -32.9821 H   0  0  0  0  0  0  0  0  0  0  0  0
   -8.1229   18.8507  -33.5229 H   0  0  0  0  0  0  0  0  0  0  0  0
   -8.8400   18.6090  -31.5150 C   0  0  0  0  0  0  0  0  0  0  0  0
   -8.3444   18.3405  -30.5704 H   0  0  0  0  0  0  0  0  0  0  0  0
   -8.9688   19.7003  -31.5642 H   0  0  0  0  0  0  0  0  0  0  0  0
   -9.8246   18.1210  -31.5642 H   0  0  0  0  0  0  0  0  0  0  0  0
   -5.9940   16.7490  -32.4100 C   0  0  0  0  0  0  0  0  0  0  0  0
   -4.9321   16.7735  -32.1242 H   0  0  0  0  0  0  0  0  0  0  0  0
   -6.5670   16.1130  -31.7193 H   0  0  0  0  0  0  0  0  0  0  0  0
   -6.1180   16.1680  -33.8190 C   0  0  0  0  0  0  0  0  0  0  0  0
   -6.3472   15.0941  -33.7539 H   0  0  0  0  0  0  0  0  0  0  0  0
   -6.9264   16.6834  -34.3583 H   0  0  0  0  0  0  0  0  0  0  0  0
   -5.1696   16.3085  -34.3583 H   0  0  0  0  0  0  0  0  0  0  0  0
   -4.7750   21.7370  -32.6790 C   0  0  0  0  0  0  0  0  0  0  0  0
   -3.7695   21.4140  -32.9865 H   0  0  0  0  0  0  0  0  0  0  0  0
   -4.9720   23.0300  -32.1790 C   0  0  0  0  0  0  0  0  0  0  0  0
   -4.1175   23.7164  -32.0860 H   0  0  0  0  0  0  0  0  0  0  0  0
  1  2  1  0
  2  3  1  0
  3  4  2  0
  3  5  1  0
  5  6  1  0
  6  7  1  0
  7  8  1  0
  8  9  1  0
  9 10  1  0
  9 11  1  0
  9 12  1  0
  8 13  2  0
 13 14  1  0
 14 15  1  0
 14 16  1  0
 14 17  1  0
 13 18  1  0
 18 19  1  0
 19 20  2  0
 19 21  1  0
 21 22  1  0
 21 23  1  0
 21 24  1  0
  2 25  2  0
 25 26  1  0
 25 27  1  0
 27 28  2  0
 28 29  1  0
 28 30  1  0
 30 31  1  0
 30 32  2  0
 32 33  1  0
 33 34  2  0
 33 35  2  0
 33 36  1  0
 36 37  1  0
 37 38  1  0
 37 39  1  0
 37 40  1  0
 40 41  1  0
 40 42  1  0
 40 43  1  0
 36 44  1  0
 44 45  1  0
 44 46  1  0
 44 47  1  0
 47 48  1  0
 47 49  1  0
 47 50  1  0
 32 51  1  0
 51 52  1  0
 51 53  2  0
 53 54  1  0
 18  6  2  0
 53 27  1  0
M  CHG  1   5  -1
M  END
>  <UniqueID>  (20) 
20

>  <SMILES>  (20) 
CCN(CC)S(=O)(=O)c1ccc(/C=C\C(=O)[N-]c2sc(C)c(C)c2C(C)=O)cc1

>  <Energy>  (20) 
89.73361149085683

>  <Genealogy>  (20) 
CCN(CC)S(=O)(=O)c1ccc(C=CC(=O)[N-]c2sc(C)c(C)c2C(C)=O)cc1 (protonated)
CCN(CC)S(=O)(=O)c1ccc(/C=C\C(=O)[N-]c2sc(C)c(C)c2C(C)=O)cc1 (cis-trans isomerization)
CCN(CC)S(=O)(=O)c1ccc(/C=C\C(=O)[N-]c2sc(C)c(C)c2C(C)=O)cc1 (3D coordinates assigned)
CCN(CC)S(=O)(=O)c1ccc(/C=C\C(=O)[N-]c2sc(C)c(C)c2C(C)=O)cc1 (optimized conformer: 89.73361149085683 kcal/mol)

>  <smiles>  (20) 
CCN(CC)S(=O)(=O)c1ccc(C=CC(=O)Nc2sc(C)c(C)c2C(C)=O)cc1

>  <score_type>  (20) 
oracle

>  <origin>  (20) 
adgpu

>  <m_score__min__energy>  (20) 
-11.85

>  <m_primary>  (20) 
energy

$$$$
20:0
     RDKit          3D

 36 38  0  0  0  0  0  0  0  0999 V2000
   -5.8540   25.9720  -31.2490 O   0  0  0  0  0  0  0  0  0  0  0  0
   -5.2590   24.9070  -30.3730 S   0  0  0  0  0  0  0  0  0  0  0  0
   -5.8670   25.0050  -29.0010 O   0  0  0  0  0  0  0  0  0  0  0  0
   -3.5480   25.1610  -30.2520 N   0  0  0  0  0  0  0  0  0  0  0  0
   -2.6690   24.4710  -29.3510 C   0  0  0  0  0  0  0  0  0  0  0  0
   -2.9360   23.1610  -28.9070 C   0  0  0  0  0  0  0  0  0  0  0  0
   -2.0510   22.5190  -28.0360 C   0  0  0  0  0  0  0  0  0  0  0  0
   -0.8980   23.1740  -27.5990 C   0  0  0  0  0  0  0  0  0  0  0  0
   -0.6280   24.4750  -28.0310 C   0  0  0  0  0  0  0  0  0  0  0  0
   -1.5100   25.1220  -28.9040 C   0  0  0  0  0  0  0  0  0  0  0  0
   -1.2270   26.4170  -29.3260 O   0  0  0  0  0  0  0  0  0  0  0  0
   -5.5870   23.3320  -31.0870 C   0  0  0  0  0  0  0  0  0  0  0  0
   -4.6060   22.6960  -31.8580 C   0  0  0  0  0  0  0  0  0  0  0  0
   -4.8560   21.4400  -32.4180 C   0  0  0  0  0  0  0  0  0  0  0  0
   -6.0920   20.8000  -32.2160 C   0  0  0  0  0  0  0  0  0  0  0  0
   -6.3560   19.4630  -32.8050 C   0  0  0  0  0  0  0  0  0  0  0  0
   -5.7590   19.0890  -34.0240 C   0  0  0  0  0  0  0  0  0  0  0  0
   -6.0140   17.8310  -34.5810 C   0  0  0  0  0  0  0  0  0  0  0  0
   -6.8640   16.9350  -33.9280 C   0  0  0  0  0  0  0  0  0  0  0  0
   -7.1100   15.7170  -34.4710 F   0  0  0  0  0  0  0  0  0  0  0  0
   -7.4610   17.2950  -32.7170 C   0  0  0  0  0  0  0  0  0  0  0  0
   -7.2110   18.5520  -32.1570 C   0  0  0  0  0  0  0  0  0  0  0  0
   -7.0750   21.4490  -31.4460 C   0  0  0  0  0  0  0  0  0  0  0  0
   -6.8230   22.7050  -30.8880 C   0  0  0  0  0  0  0  0  0  0  0  0
   -3.8441   22.6415  -29.2469 H   0  0  0  0  0  0  0  0  0  0  0  0
   -2.2635   21.4953  -27.6941 H   0  0  0  0  0  0  0  0  0  0  0  0
   -0.2024   22.6659  -26.9148 H   0  0  0  0  0  0  0  0  0  0  0  0
    0.2792   24.9915  -27.6844 H   0  0  0  0  0  0  0  0  0  0  0  0
   -3.6354   23.1866  -32.0234 H   0  0  0  0  0  0  0  0  0  0  0  0
   -4.0794   20.9479  -33.0219 H   0  0  0  0  0  0  0  0  0  0  0  0
   -5.0879   19.7901  -34.5417 H   0  0  0  0  0  0  0  0  0  0  0  0
   -5.5445   17.5471  -35.5344 H   0  0  0  0  0  0  0  0  0  0  0  0
   -8.1290   16.5882  -32.2030 H   0  0  0  0  0  0  0  0  0  0  0  0
   -7.6855   18.8303  -31.2044 H   0  0  0  0  0  0  0  0  0  0  0  0
   -8.0487   20.9641  -31.2822 H   0  0  0  0  0  0  0  0  0  0  0  0
   -7.5995   23.2037  -30.2894 H   0  0  0  0  0  0  0  0  0  0  0  0
  1  2  2  0
  2  3  2  0
  2  4  1  0
  4  5  1  0
  5  6  2  0
  6  7  1  0
  7  8  2  0
  8  9  1  0
  9 10  2  0
 10 11  1  0
  2 12  1  0
 12 13  2  0
 13 14  1  0
 14 15  2  0
 15 16  1  0
 16 17  2  0
 17 18  1  0
 18 19  2  0
 19 20  1  0
 19 21  1  0
 21 22  2  0
 15 23  1  0
 23 24  2  0
 10  5  1  0
 24 12  1  0
 22 16  1  0
  6 25  1  0
  7 26  1  0
  8 27  1  0
  9 28  1  0
 13 29  1  0
 14 30  1  0
 17 31  1  0
 18 32  1  0
 21 33  1  0
 22 34  1  0
 23 35  1  0
 24 36  1  0
M  CHG  2   4  -1  11  -1
M  END
>  <UniqueID>  (21) 
21

>  <SMILES>  (21) 
O=S(=O)([N-]c1ccccc1[O-])c1ccc(-c2ccc(F)cc2)cc1

>  <Energy>  (21) 
47.67872487352412

>  <Genealogy>  (21) 
O=S(=O)([N-]c1ccccc1[O-])c1ccc(-c2ccc(F)cc2)cc1 (protonated)
O=S(=O)([N-]c1ccccc1[O-])c1ccc(-c2ccc(F)cc2)cc1 (3D coordinates assigned)
O=S(=O)([N-]c1ccccc1[O-])c1ccc(-c2ccc(F)cc2)cc1 (optimized conformer: 47.67872487352412 kcal/mol)

>  <smiles>  (21) 
O=S(=O)(Nc1ccccc1O)c1ccc(-c2ccc(F)cc2)cc1

>  <score_type>  (21) 
oracle

>  <origin>  (21) 
adgpu

>  <m_score__min__energy>  (21) 
-13.75

>  <m_primary>  (21) 
energy

$$$$
21:0
     RDKit          3D

 42 44  0  0  0  0  0  0  0  0999 V2000
   -0.8960   26.7890  -24.0850 C   0  0  0  0  0  0  0  0  0  0  0  0
   -0.3620   25.9560  -25.1100 O   0  0  0  0  0  0  0  0  0  0  0  0
   -1.0730   25.5500  -26.2490 C   0  0  0  0  0  0  0  0  0  0  0  0
   -0.5490   25.6710  -27.5490 C   0  0  0  0  0  0  0  0  0  0  0  0
   -1.2970   25.2510  -28.6530 C   0  0  0  0  0  0  0  0  0  0  0  0
   -2.5780   24.6960  -28.4830 C   0  0  0  0  0  0  0  0  0  0  0  0
   -3.3400   24.3060  -29.6420 N   0  0  0  0  0  0  0  0  0  0  0  0
   -4.4220   24.9490  -30.0520 N   0  0  0  0  0  0  0  0  0  0  0  0
   -4.8160   24.4410  -31.2090 N   0  0  0  0  0  0  0  0  0  0  0  0
   -3.9920   23.4730  -31.5810 N   0  0  0  0  0  0  0  0  0  0  0  0
   -3.0790   23.3880  -30.5970 C   0  0  0  0  0  0  0  0  0  0  0  0
   -1.6750   22.2670  -30.6630 S   0  0  0  0  0  0  0  0  0  0  0  0
   -1.9840   21.7110  -32.3790 C   0  0  0  0  0  0  0  0  0  0  0  0
   -3.1890   20.8270  -32.4400 C   0  0  0  0  0  0  0  0  0  0  0  0
   -3.1440   19.6910  -31.8970 O   0  0  0  0  0  0  0  0  0  0  0  0
   -4.4130   21.3180  -33.0110 N   0  0  0  0  0  0  0  0  0  0  0  0
   -5.6720   20.6450  -32.8580 C   0  0  0  0  0  0  0  0  0  0  0  0
   -5.8310   19.3040  -33.2430 C   0  0  0  0  0  0  0  0  0  0  0  0
   -7.0590   18.6620  -33.0700 C   0  0  0  0  0  0  0  0  0  0  0  0
   -8.1500   19.3480  -32.5100 C   0  0  0  0  0  0  0  0  0  0  0  0
   -9.4670   18.6440  -32.3420 C   0  0  0  0  0  0  0  0  0  0  0  0
   -8.0010   20.7050  -32.1570 C   0  0  0  0  0  0  0  0  0  0  0  0
   -9.3360   21.6330  -31.4790 Cl  0  0  0  0  0  0  0  0  0  0  0  0
   -6.7700   21.3430  -32.3390 C   0  0  0  0  0  0  0  0  0  0  0  0
   -3.0980   24.5860  -27.1830 C   0  0  0  0  0  0  0  0  0  0  0  0
   -2.3530   25.0120  -26.0800 C   0  0  0  0  0  0  0  0  0  0  0  0
   -0.6307   26.3752  -23.1009 H   0  0  0  0  0  0  0  0  0  0  0  0
   -0.4787   27.8022  -24.1813 H   0  0  0  0  0  0  0  0  0  0  0  0
   -1.9909   26.8328  -24.1813 H   0  0  0  0  0  0  0  0  0  0  0  0
    0.4538   26.0980  -27.6975 H   0  0  0  0  0  0  0  0  0  0  0  0
   -0.8792   25.3557  -29.6652 H   0  0  0  0  0  0  0  0  0  0  0  0
   -2.1485   22.5902  -33.0192 H   0  0  0  0  0  0  0  0  0  0  0  0
   -1.1101   21.1419  -32.7289 H   0  0  0  0  0  0  0  0  0  0  0  0
   -4.4300   22.3010  -33.3650 H   0  0  0  0  0  0  0  0  0  0  0  0
   -4.9843   18.7567  -33.6829 H   0  0  0  0  0  0  0  0  0  0  0  0
   -7.1731   17.6112  -33.3745 H   0  0  0  0  0  0  0  0  0  0  0  0
   -9.6861   18.5269  -31.2704 H   0  0  0  0  0  0  0  0  0  0  0  0
  -10.2629   19.2370  -32.8163 H   0  0  0  0  0  0  0  0  0  0  0  0
   -9.4161   17.6528  -32.8163 H   0  0  0  0  0  0  0  0  0  0  0  0
   -6.6627   22.4046  -32.0717 H   0  0  0  0  0  0  0  0  0  0  0  0
   -4.1010   24.1606  -27.0316 H   0  0  0  0  0  0  0  0  0  0  0  0
   -2.7774   24.9233  -25.0690 H   0  0  0  0  0  0  0  0  0  0  0  0
  1  2  1  0
  2  3  1  0
  3  4  2  0
  4  5  1  0
  5  6  2  0
  6  7  1  0
  7  8  1  0
  8  9  2  0
  9 10  1  0
 10 11  2  0
 11 12  1  0
 12 13  1  0
 13 14  1  0
 14 15  2  0
 14 16  1  0
 16 17  1  0
 17 18  2  0
 18 19  1  0
 19 20  2  0
 20 21  1  0
 20 22  1  0
 22 23  1  0
 22 24  2  0
  6 25  1  0
 25 26  2  0
 26  3  1  0
 11  7  1  0
 24 17  1  0
  1 27  1  0
  1 28  1  0
  1 29  1  0
  4 30  1  0
  5 31  1  0
 13 32  1  0
 13 33  1  0
 16 34  1  0
 18 35  1  0
 19 36  1  0
 21 37  1  0
 21 38  1  0
 21 39  1  0
 24 40  1  0
 25 41  1  0
 26 42  1  0
M  END
>  <UniqueID>  (22) 
22

>  <SMILES>  (22) 
COc1ccc(-n2nnnc2SCC(=O)Nc2ccc(C)c(Cl)c2)cc1

>  <Energy>  (22) 
86.928263505241

>  <Genealogy>  (22) 
COc1ccc(-n2nnnc2SCC(=O)Nc2ccc(C)c(Cl)c2)cc1 (3D coordinates assigned)
COc1ccc(-n2nnnc2SCC(=O)Nc2ccc(C)c(Cl)c2)cc1 (optimized conformer: 86.928263505241 kcal/mol)

>  <smiles>  (22) 
COc1ccc(-n2nnnc2SCC(=O)Nc2ccc(C)c(Cl)c2)cc1

>  <score_type>  (22) 
oracle

>  <origin>  (22) 
adgpu

>  <m_score__min__energy>  (22) 
-9.8800000000000008

>  <m_primary>  (22) 
energy

$$$$
22:0
     RDKit          3D

 31 33  0  0  0  0  0  0  0  0999 V2000
   -4.4760   21.5350  -32.9900 C   0  0  0  0  0  0  0  0  0  0  0  0
   -5.7570   21.6350  -32.2080 C   0  0  0  0  0  0  0  0  0  0  0  0
   -6.9270   21.0280  -32.6950 C   0  0  0  0  0  0  0  0  0  0  0  0
   -8.1230   21.1230  -31.9800 C   0  0  0  0  0  0  0  0  0  0  0  0
   -8.1650   21.8280  -30.7750 C   0  0  0  0  0  0  0  0  0  0  0  0
   -7.0110   22.4400  -30.2820 C   0  0  0  0  0  0  0  0  0  0  0  0
   -5.8040   22.3490  -30.9910 C   0  0  0  0  0  0  0  0  0  0  0  0
   -4.6250   22.9960  -30.4660 N   0  0  0  0  0  0  0  0  0  0  0  0
   -4.5280   24.3670  -30.4390 C   0  0  0  0  0  0  0  0  0  0  0  0
   -5.7370   25.3350  -30.9920 S   0  0  0  0  0  0  0  0  0  0  0  0
   -3.4150   24.9610  -29.9400 N   0  0  0  0  0  0  0  0  0  0  0  0
   -2.3740   24.2370  -29.4620 C   0  0  0  0  0  0  0  0  0  0  0  0
   -1.2390   24.8870  -28.9540 C   0  0  0  0  0  0  0  0  0  0  0  0
   -1.1810   26.2800  -28.9410 O   0  0  0  0  0  0  0  0  0  0  0  0
   -0.1670   24.1290  -28.4620 C   0  0  0  0  0  0  0  0  0  0  0  0
   -0.2250   22.7340  -28.4760 C   0  0  0  0  0  0  0  0  0  0  0  0
   -1.3540   22.0820  -28.9810 C   0  0  0  0  0  0  0  0  0  0  0  0
   -2.4370   22.8310  -29.4790 C   0  0  0  0  0  0  0  0  0  0  0  0
   -3.5940   22.2240  -29.9970 C   0  0  0  0  0  0  0  0  0  0  0  0
   -3.6810   20.9630  -30.0290 O   0  0  0  0  0  0  0  0  0  0  0  0
   -3.6262   21.4687  -32.2947 H   0  0  0  0  0  0  0  0  0  0  0  0
   -4.5024   20.6362  -33.6236 H   0  0  0  0  0  0  0  0  0  0  0  0
   -4.3626   22.4270  -33.6236 H   0  0  0  0  0  0  0  0  0  0  0  0
   -6.9008   20.4746  -33.6453 H   0  0  0  0  0  0  0  0  0  0  0  0
   -9.0335   20.6417  -32.3666 H   0  0  0  0  0  0  0  0  0  0  0  0
   -9.1083   21.9011  -30.2138 H   0  0  0  0  0  0  0  0  0  0  0  0
   -7.0484   22.9959  -29.3336 H   0  0  0  0  0  0  0  0  0  0  0  0
   -1.2370   26.8210  -29.7950 H   0  0  0  0  0  0  0  0  0  0  0  0
    0.7241   24.6358  -28.0630 H   0  0  0  0  0  0  0  0  0  0  0  0
    0.6202   22.1462  -28.0885 H   0  0  0  0  0  0  0  0  0  0  0  0
   -1.3961   20.9828  -28.9892 H   0  0  0  0  0  0  0  0  0  0  0  0
  1  2  1  0
  2  3  2  0
  3  4  1  0
  4  5  2  0
  5  6  1  0
  6  7  2  0
  7  8  1  0
  8  9  1  0
  9 10  2  0
  9 11  1  0
 11 12  1  0
 12 13  2  0
 13 14  1  0
 13 15  1  0
 15 16  2  0
 16 17  1  0
 17 18  2  0
 18 19  1  0
 19 20  2  0
  7  2  1  0
 19  8  1  0
 18 12  1  0
  1 21  1  0
  1 22  1  0
  1 23  1  0
  3 24  1  0
  4 25  1  0
  5 26  1  0
  6 27  1  0
 14 28  1  0
 15 29  1  0
 16 30  1  0
 17 31  1  0
M  CHG  1  11  -1
M  END
>  <UniqueID>  (23) 
23

>  <SMILES>  (23) 
Cc1ccccc1-n1c(=S)[n-]c2c(O)cccc2c1=O

>  <Energy>  (23) 
49.28269019609213

>  <Genealogy>  (23) 
Cc1ccccc1-n1c(=S)[n-]c2c(O)cccc2c1=O (protonated)
Cc1ccccc1-n1c(=S)[n-]c2c(O)cccc2c1=O (3D coordinates assigned)
Cc1ccccc1-n1c(=S)[n-]c2c(O)cccc2c1=O (optimized conformer: 49.28269019609213 kcal/mol)

>  <smiles>  (23) 
Cc1ccccc1-n1c(=S)[nH]c2c(O)cccc2c1=O

>  <score_type>  (23) 
oracle

>  <origin>  (23) 
adgpu

>  <m_score__min__energy>  (23) 
-9.5099999999999998

>  <m_primary>  (23) 
energy

$$$$
23:0
     RDKit          3D

 45 48  0  0  0  0  0  0  0  0999 V2000
   -2.7970   21.3200  -27.4690 C   0  0  0  0  0  0  0  0  0  0  0  0
   -3.2700   22.3620  -28.4440 C   0  0  0  0  0  0  0  0  0  0  0  0
   -3.3280   22.0830  -29.8120 C   0  0  0  0  0  0  0  0  0  0  0  0
   -3.8220   23.0040  -30.6940 N   0  0  0  0  0  0  0  0  0  0  0  0
   -3.9010   22.6620  -32.1270 C   0  0  0  0  0  0  0  0  0  0  0  0
   -4.4590   21.2720  -32.3450 C   0  0  0  0  0  0  0  0  0  0  0  0
   -5.8000   21.1040  -32.2050 N   0  0  0  0  0  0  0  0  0  0  0  0
   -6.3900   19.8960  -32.3640 C   0  0  0  0  0  0  0  0  0  0  0  0
   -7.7760   19.7670  -32.2090 C   0  0  0  0  0  0  0  0  0  0  0  0
   -8.3850   18.5200  -32.3720 C   0  0  0  0  0  0  0  0  0  0  0  0
   -7.6140   17.3990  -32.6900 C   0  0  0  0  0  0  0  0  0  0  0  0
   -6.2280   17.5200  -32.8460 C   0  0  0  0  0  0  0  0  0  0  0  0
   -5.6080   18.7720  -32.6850 C   0  0  0  0  0  0  0  0  0  0  0  0
   -4.2220   18.9510  -32.8320 C   0  0  0  0  0  0  0  0  0  0  0  0
   -3.4910   17.9620  -33.1270 O   0  0  0  0  0  0  0  0  0  0  0  0
   -3.6630   20.1940  -32.6640 N   0  0  0  0  0  0  0  0  0  0  0  0
   -2.2390   20.3430  -32.8130 C   0  0  0  0  0  0  0  0  0  0  0  0
   -1.3780   19.9130  -31.7930 C   0  0  0  0  0  0  0  0  0  0  0  0
    0.0020   20.0690  -31.9280 C   0  0  0  0  0  0  0  0  0  0  0  0
    0.5330   20.6490  -33.0830 C   0  0  0  0  0  0  0  0  0  0  0  0
   -0.3150   21.0700  -34.1240 C   0  0  0  0  0  0  0  0  0  0  0  0
    0.2280   21.6680  -35.3160 N   0  0  0  0  0  0  0  0  0  0  0  0
    0.9450   22.6880  -35.2480 O   0  0  0  0  0  0  0  0  0  0  0  0
   -0.0370   21.1280  -36.5530 O   0  0  0  0  0  0  0  0  0  0  0  0
   -1.7030   20.9050  -33.9820 C   0  0  0  0  0  0  0  0  0  0  0  0
   -4.2120   24.2380  -30.2400 C   0  0  0  0  0  0  0  0  0  0  0  0
   -4.6230   25.1180  -31.0450 O   0  0  0  0  0  0  0  0  0  0  0  0
   -4.1610   24.5270  -28.9110 N   0  0  0  0  0  0  0  0  0  0  0  0
   -3.7140   23.6160  -28.0070 C   0  0  0  0  0  0  0  0  0  0  0  0
   -3.6990   23.9070  -26.7810 O   0  0  0  0  0  0  0  0  0  0  0  0
   -2.9597   21.6783  -26.4418 H   0  0  0  0  0  0  0  0  0  0  0  0
   -3.3605   20.3884  -27.6259 H   0  0  0  0  0  0  0  0  0  0  0  0
   -1.7248   21.1309  -27.6259 H   0  0  0  0  0  0  0  0  0  0  0  0
   -2.9720   21.1109  -30.1839 H   0  0  0  0  0  0  0  0  0  0  0  0
   -4.5533   23.3903  -32.6311 H   0  0  0  0  0  0  0  0  0  0  0  0
   -2.8822   22.6894  -32.5410 H   0  0  0  0  0  0  0  0  0  0  0  0
   -8.3855   20.6479  -31.9588 H   0  0  0  0  0  0  0  0  0  0  0  0
   -9.4737   18.4207  -32.2497 H   0  0  0  0  0  0  0  0  0  0  0  0
   -8.0971   16.4191  -32.8181 H   0  0  0  0  0  0  0  0  0  0  0  0
   -5.6235   16.6352  -33.0947 H   0  0  0  0  0  0  0  0  0  0  0  0
   -1.7916   19.4515  -30.8842 H   0  0  0  0  0  0  0  0  0  0  0  0
    0.6734   19.7346  -31.1234 H   0  0  0  0  0  0  0  0  0  0  0  0
    1.6212   20.7774  -33.1791 H   0  0  0  0  0  0  0  0  0  0  0  0
   -2.3754   21.2190  -34.7940 H   0  0  0  0  0  0  0  0  0  0  0  0
   -4.4760   25.4670  -28.5770 H   0  0  0  0  0  0  0  0  0  0  0  0
  1  2  1  0
  2  3  2  0
  3  4  1  0
  4  5  1  0
  5  6  1  0
  6  7  2  0
  7  8  1  0
  8  9  2  0
  9 10  1  0
 10 11  2  0
 11 12  1  0
 12 13  2  0
 13 14  1  0
 14 15  2  0
 14 16  1  0
 16 17  1  0
 17 18  2  0
 18 19  1  0
 19 20  2  0
 20 21  1  0
 21 22  1  0
 22 23  2  0
 22 24  1  0
 21 25  2  0
  4 26  1  0
 26 27  2  0
 26 28  1  0
 28 29  1  0
 29 30  2  0
 29  2  1  0
 16  6  1  0
 25 17  1  0
 13  8  1  0
  1 31  1  0
  1 32  1  0
  1 33  1  0
  3 34  1  0
  5 35  1  0
  5 36  1  0
  9 37  1  0
 10 38  1  0
 11 39  1  0
 12 40  1  0
 18 41  1  0
 19 42  1  0
 20 43  1  0
 25 44  1  0
 28 45  1  0
M  CHG  2  22   1  24  -1
M  END
>  <UniqueID>  (24) 
24

>  <SMILES>  (24) 
Cc1cn(Cc2nc3ccccc3c(=O)n2-c2cccc([N+](=O)[O-])c2)c(=O)[nH]c1=O

>  <Energy>  (24) 
65.18179435058413

>  <Genealogy>  (24) 
Cc1cn(Cc2nc3ccccc3c(=O)n2-c2cccc([N+](=O)[O-])c2)c(=O)[nH]c1=O (3D coordinates assigned)
Cc1cn(Cc2nc3ccccc3c(=O)n2-c2cccc([N+](=O)[O-])c2)c(=O)[nH]c1=O (optimized conformer: 65.18179435058413 kcal/mol)

>  <smiles>  (24) 
Cc1cn(Cc2nc3ccccc3c(=O)n2-c2cccc([N+](=O)[O-])c2)c(=O)[nH]c1=O

>  <score_type>  (24) 
oracle

>  <origin>  (24) 
adgpu

>  <m_score__min__energy>  (24) 
-9.6999999999999993

>  <m_primary>  (24) 
energy

$$$$
24:0
     RDKit          3D

 34 36  0  0  0  0  0  0  0  0999 V2000
   -0.8340   17.6870  -32.0730 H   0  0  0  0  0  0  0  0  0  0  0  0
   -0.3600   18.5690  -32.2340 O   0  0  0  0  0  0  0  0  0  0  0  0
   -0.9420   19.7860  -31.8840 C   0  0  0  0  0  0  0  0  0  0  0  0
   -0.9000   20.2280  -30.5550 C   0  0  0  0  0  0  0  0  0  0  0  0
   -0.4037   19.6134  -29.7895 H   0  0  0  0  0  0  0  0  0  0  0  0
   -1.4850   21.4450  -30.1970 C   0  0  0  0  0  0  0  0  0  0  0  0
   -1.4324   21.7924  -29.1546 H   0  0  0  0  0  0  0  0  0  0  0  0
   -2.1410   22.2280  -31.1640 C   0  0  0  0  0  0  0  0  0  0  0  0
   -2.7290   23.4990  -30.8410 N   0  0  0  0  0  0  0  0  0  0  0  0
   -3.9980   23.7880  -30.8310 C   0  0  0  0  0  0  0  0  0  0  0  0
   -4.9320   22.8840  -31.2360 N   0  0  0  0  0  0  0  0  0  0  0  0
   -6.2600   23.1830  -31.2560 C   0  0  0  0  0  0  0  0  0  0  0  0
   -7.2310   22.1490  -31.7000 C   0  0  0  0  0  0  0  0  0  0  0  0
   -6.7680   20.9840  -32.3430 C   0  0  0  0  0  0  0  0  0  0  0  0
   -5.6894   20.8436  -32.5072 H   0  0  0  0  0  0  0  0  0  0  0  0
   -7.6680   20.0050  -32.7740 C   0  0  0  0  0  0  0  0  0  0  0  0
   -7.2950   19.0970  -33.2704 H   0  0  0  0  0  0  0  0  0  0  0  0
   -9.0380   20.1770  -32.5760 C   0  0  0  0  0  0  0  0  0  0  0  0
   -9.7439   19.4036  -32.9130 H   0  0  0  0  0  0  0  0  0  0  0  0
   -9.5130   21.3310  -31.9500 C   0  0  0  0  0  0  0  0  0  0  0  0
  -10.5939   21.4673  -31.7978 H   0  0  0  0  0  0  0  0  0  0  0  0
   -8.6180   22.3140  -31.5160 C   0  0  0  0  0  0  0  0  0  0  0  0
   -8.9997   23.2226  -31.0274 H   0  0  0  0  0  0  0  0  0  0  0  0
   -6.6720   24.4590  -30.8410 C   0  0  0  0  0  0  0  0  0  0  0  0
   -7.7385   24.7280  -30.8307 H   0  0  0  0  0  0  0  0  0  0  0  0
   -5.7030   25.3790  -30.4420 C   0  0  0  0  0  0  0  0  0  0  0  0
   -6.0019   26.3879  -30.1214 H   0  0  0  0  0  0  0  0  0  0  0  0
   -4.3900   25.0300  -30.4490 N   0  0  0  0  0  0  0  0  0  0  0  0
   -2.1540   21.7990  -32.4960 C   0  0  0  0  0  0  0  0  0  0  0  0
   -2.6291   22.4268  -33.2642 H   0  0  0  0  0  0  0  0  0  0  0  0
   -1.5680   20.5770  -32.8640 C   0  0  0  0  0  0  0  0  0  0  0  0
   -1.6120   20.1510  -34.2300 N   0  0  0  0  0  0  0  0  0  0  0  0
   -1.2820   19.2020  -34.5140 H   0  0  0  0  0  0  0  0  0  0  0  0
   -1.9760   20.7860  -34.9750 H   0  0  0  0  0  0  0  0  0  0  0  0
  1  2  1  0
  2  3  1  0
  3  4  2  0
  4  5  1  0
  4  6  1  0
  6  7  1  0
  6  8  2  0
  8  9  1  0
  9 10  2  0
 10 11  1  0
 11 12  2  0
 12 13  1  0
 13 14  2  0
 14 15  1  0
 14 16  1  0
 16 17  1  0
 16 18  2  0
 18 19  1  0
 18 20  1  0
 20 21  1  0
 20 22  2  0
 22 23  1  0
 12 24  1  0
 24 25  1  0
 24 26  2  0
 26 27  1  0
 26 28  1  0
  8 29  1  0
 29 30  1  0
 29 31  2  0
 31 32  1  0
 32 33  1  0
 32 34  1  0
 31  3  1  0
 28 10  1  0
 22 13  1  0
M  CHG  1  28  -1
M  END
>  <UniqueID>  (25) 
25

>  <SMILES>  (25) 
Nc1cc(/N=c2\nc(-c3ccccc3)cc[n-]2)ccc1O

>  <Energy>  (25) 
46.785664990924055

>  <Genealogy>  (25) 
Nc1cc(N=c2nc(-c3ccccc3)cc[n-]2)ccc1O (protonated)
Nc1cc(/N=c2\nc(-c3ccccc3)cc[n-]2)ccc1O (cis-trans isomerization)
Nc1cc(/N=c2\nc(-c3ccccc3)cc[n-]2)ccc1O (3D coordinates assigned)
Nc1cc(/N=c2\nc(-c3ccccc3)cc[n-]2)ccc1O (optimized conformer: 46.785664990924055 kcal/mol)

>  <smiles>  (25) 
Nc1cc(N=c2nc(-c3ccccc3)cc[nH]2)ccc1O

>  <score_type>  (25) 
oracle

>  <origin>  (25) 
adgpu

>  <m_score__min__energy>  (25) 
-9.3000000000000007

>  <m_primary>  (25) 
energy

$$$$
25:0
     RDKit          3D

 29 30  0  0  0  0  0  0  0  0999 V2000
   -6.4880   16.7970  -33.7720 N   0  0  0  0  0  0  0  0  0  0  0  0
   -6.9470   18.0270  -33.2050 C   0  0  0  0  0  0  0  0  0  0  0  0
   -7.8550   18.0170  -32.1360 C   0  0  0  0  0  0  0  0  0  0  0  0
   -8.3030   19.2200  -31.5810 C   0  0  0  0  0  0  0  0  0  0  0  0
   -7.8510   20.4440  -32.0940 C   0  0  0  0  0  0  0  0  0  0  0  0
   -8.3950   21.9570  -31.3780 S   0  0  0  0  0  0  0  0  0  0  0  0
   -9.2800   22.6920  -32.3460 O   0  0  0  0  0  0  0  0  0  0  0  0
   -9.1930   21.6770  -30.1360 O   0  0  0  0  0  0  0  0  0  0  0  0
   -6.9910   22.9410  -30.9840 C   0  0  0  0  0  0  0  0  0  0  0  0
   -5.7380   22.6300  -31.5260 C   0  0  0  0  0  0  0  0  0  0  0  0
   -4.6280   23.4250  -31.2280 C   0  0  0  0  0  0  0  0  0  0  0  0
   -4.7630   24.5370  -30.3930 C   0  0  0  0  0  0  0  0  0  0  0  0
   -3.6740   25.2970  -30.1160 F   0  0  0  0  0  0  0  0  0  0  0  0
   -6.0180   24.8630  -29.8520 C   0  0  0  0  0  0  0  0  0  0  0  0
   -6.1690   26.0040  -29.0020 N   0  0  0  0  0  0  0  0  0  0  0  0
   -7.1300   24.0620  -30.1540 C   0  0  0  0  0  0  0  0  0  0  0  0
   -6.9370   20.4550  -33.1560 C   0  0  0  0  0  0  0  0  0  0  0  0
   -6.4890   19.2520  -33.7110 C   0  0  0  0  0  0  0  0  0  0  0  0
   -6.5950   15.8970  -33.2530 H   0  0  0  0  0  0  0  0  0  0  0  0
   -6.0390   16.7780  -34.7140 H   0  0  0  0  0  0  0  0  0  0  0  0
   -8.2161   17.0594  -31.7327 H   0  0  0  0  0  0  0  0  0  0  0  0
   -9.0118   19.2058  -30.7399 H   0  0  0  0  0  0  0  0  0  0  0  0
   -5.6271   21.7582  -32.1876 H   0  0  0  0  0  0  0  0  0  0  0  0
   -3.6446   23.1744  -31.6523 H   0  0  0  0  0  0  0  0  0  0  0  0
   -5.6510   26.0670  -28.0970 H   0  0  0  0  0  0  0  0  0  0  0  0
   -6.7990   26.7940  -29.2650 H   0  0  0  0  0  0  0  0  0  0  0  0
   -8.1160   24.3152  -29.7372 H   0  0  0  0  0  0  0  0  0  0  0  0
   -6.5707   21.4127  -33.5544 H   0  0  0  0  0  0  0  0  0  0  0  0
   -5.7748   19.2668  -34.5475 H   0  0  0  0  0  0  0  0  0  0  0  0
  1  2  1  0
  2  3  2  0
  3  4  1  0
  4  5  2  0
  5  6  1  0
  6  7  2  0
  6  8  2  0
  6  9  1  0
  9 10  2  0
 10 11  1  0
 11 12  2  0
 12 13  1  0
 12 14  1  0
 14 15  1  0
 14 16  2  0
  5 17  1  0
 17 18  2  0
 18  2  1  0
 16  9  1  0
  1 19  1  0
  1 20  1  0
  3 21  1  0
  4 22  1  0
 10 23  1  0
 11 24  1  0
 15 25  1  0
 15 26  1  0
 16 27  1  0
 17 28  1  0
 18 29  1  0
M  END
>  <UniqueID>  (26) 
26

>  <SMILES>  (26) 
Nc1ccc(S(=O)(=O)c2ccc(F)c(N)c2)cc1

>  <Energy>  (26) 
29.98885117394107

>  <Genealogy>  (26) 
Nc1ccc(S(=O)(=O)c2ccc(F)c(N)c2)cc1 (3D coordinates assigned)
Nc1ccc(S(=O)(=O)c2ccc(F)c(N)c2)cc1 (optimized conformer: 29.98885117394107 kcal/mol)

>  <smiles>  (26) 
Nc1ccc(S(=O)(=O)c2ccc(F)c(N)c2)cc1

>  <score_type>  (26) 
oracle

>  <origin>  (26) 
adgpu

>  <m_score__min__energy>  (26) 
-8

>  <m_primary>  (26) 
energy

$$$$
26:0
     RDKit          3D

 41 43  0  0  0  0  0  0  0  0999 V2000
   -0.4630   22.7140  -26.1050 C   0  0  0  0  0  0  0  0  0  0  0  0
   -1.2340   23.2890  -27.2560 C   0  0  0  0  0  0  0  0  0  0  0  0
   -0.7780   24.4420  -27.9140 C   0  0  0  0  0  0  0  0  0  0  0  0
   -1.5150   24.9900  -28.9680 C   0  0  0  0  0  0  0  0  0  0  0  0
   -2.7240   24.3950  -29.3750 C   0  0  0  0  0  0  0  0  0  0  0  0
   -3.5060   24.9160  -30.4580 N   0  0  0  0  0  0  0  0  0  0  0  0
   -5.2390   24.9350  -30.5170 S   0  0  0  0  0  0  0  0  0  0  0  0
   -5.6920   26.1940  -31.2020 O   0  0  0  0  0  0  0  0  0  0  0  0
   -5.7800   24.9170  -29.1150 O   0  0  0  0  0  0  0  0  0  0  0  0
   -5.8270   23.5130  -31.3730 C   0  0  0  0  0  0  0  0  0  0  0  0
   -7.1930   23.2080  -31.3650 C   0  0  0  0  0  0  0  0  0  0  0  0
   -7.6640   22.0700  -32.0280 C   0  0  0  0  0  0  0  0  0  0  0  0
   -6.7720   21.2330  -32.7230 C   0  0  0  0  0  0  0  0  0  0  0  0
   -7.2300   20.0420  -33.3860 N   0  0  0  0  0  0  0  0  0  0  0  0
   -6.4920   18.8090  -33.4400 C   0  0  0  0  0  0  0  0  0  0  0  0
   -5.7400   18.5040  -34.5850 C   0  0  0  0  0  0  0  0  0  0  0  0
   -5.0400   17.2960  -34.6710 C   0  0  0  0  0  0  0  0  0  0  0  0
   -5.0950   16.3790  -33.6190 C   0  0  0  0  0  0  0  0  0  0  0  0
   -5.8580   16.6620  -32.4840 C   0  0  0  0  0  0  0  0  0  0  0  0
   -6.5610   17.8690  -32.3950 C   0  0  0  0  0  0  0  0  0  0  0  0
   -5.4030   21.5350  -32.7130 C   0  0  0  0  0  0  0  0  0  0  0  0
   -4.9330   22.6730  -32.0510 C   0  0  0  0  0  0  0  0  0  0  0  0
   -3.1850   23.2580  -28.7010 C   0  0  0  0  0  0  0  0  0  0  0  0
   -2.4490   22.7090  -27.6480 C   0  0  0  0  0  0  0  0  0  0  0  0
   -0.9125   23.0492  -25.1586 H   0  0  0  0  0  0  0  0  0  0  0  0
   -0.4925   21.6156  -26.1561 H   0  0  0  0  0  0  0  0  0  0  0  0
    0.5814   23.0555  -26.1561 H   0  0  0  0  0  0  0  0  0  0  0  0
    0.1632   24.9163  -27.5990 H   0  0  0  0  0  0  0  0  0  0  0  0
   -1.1482   25.8908  -29.4819 H   0  0  0  0  0  0  0  0  0  0  0  0
   -7.8984   23.8654  -30.8356 H   0  0  0  0  0  0  0  0  0  0  0  0
   -8.7369   21.8283  -32.0059 H   0  0  0  0  0  0  0  0  0  0  0  0
   -8.1650   20.0720  -33.8530 H   0  0  0  0  0  0  0  0  0  0  0  0
   -5.7008   19.2192  -35.4198 H   0  0  0  0  0  0  0  0  0  0  0  0
   -4.4456   17.0681  -35.5681 H   0  0  0  0  0  0  0  0  0  0  0  0
   -4.5370   15.4333  -33.6844 H   0  0  0  0  0  0  0  0  0  0  0  0
   -5.9065   15.9357  -31.6593 H   0  0  0  0  0  0  0  0  0  0  0  0
   -7.1700   18.0837  -31.5045 H   0  0  0  0  0  0  0  0  0  0  0  0
   -4.6937   20.8718  -33.2297 H   0  0  0  0  0  0  0  0  0  0  0  0
   -3.8589   22.9098  -32.0622 H   0  0  0  0  0  0  0  0  0  0  0  0
   -4.1349   22.7928  -29.0030 H   0  0  0  0  0  0  0  0  0  0  0  0
   -2.8244   21.8176  -27.1240 H   0  0  0  0  0  0  0  0  0  0  0  0
  1  2  1  0
  2  3  2  0
  3  4  1  0
  4  5  2  0
  5  6  1  0
  6  7  1  0
  7  8  2  0
  7  9  2  0
  7 10  1  0
 10 11  2  0
 11 12  1  0
 12 13  2  0
 13 14  1  0
 14 15  1  0
 15 16  2  0
 16 17  1  0
 17 18  2  0
 18 19  1  0
 19 20  2  0
 13 21  1  0
 21 22  2  0
  5 23  1  0
 23 24  2  0
 24  2  1  0
 22 10  1  0
 20 15  1  0
  1 25  1  0
  1 26  1  0
  1 27  1  0
  3 28  1  0
  4 29  1  0
 11 30  1  0
 12 31  1  0
 14 32  1  0
 16 33  1  0
 17 34  1  0
 18 35  1  0
 19 36  1  0
 20 37  1  0
 21 38  1  0
 22 39  1  0
 23 40  1  0
 24 41  1  0
M  CHG  1   6  -1
M  END
>  <UniqueID>  (27) 
27

>  <SMILES>  (27) 
Cc1ccc([N-]S(=O)(=O)c2ccc(Nc3ccccc3)cc2)cc1

>  <Energy>  (27) 
51.14473088640488

>  <Genealogy>  (27) 
Cc1ccc([N-]S(=O)(=O)c2ccc(Nc3ccccc3)cc2)cc1 (protonated)
Cc1ccc([N-]S(=O)(=O)c2ccc(Nc3ccccc3)cc2)cc1 (3D coordinates assigned)
Cc1ccc([N-]S(=O)(=O)c2ccc(Nc3ccccc3)cc2)cc1 (optimized conformer: 51.14473088640488 kcal/mol)

>  <smiles>  (27) 
Cc1ccc(NS(=O)(=O)c2ccc(Nc3ccccc3)cc2)cc1

>  <score_type>  (27) 
oracle

>  <origin>  (27) 
adgpu

>  <m_score__min__energy>  (27) 
-10.630000000000001

>  <m_primary>  (27) 
energy

$$$$
27:0
     RDKit          3D

 38 40  0  0  0  0  0  0  0  0999 V2000
    0.4830   24.8680  -27.4680 C   0  0  0  0  0  0  0  0  0  0  0  0
   -1.0140   24.8790  -27.3180 C   0  0  0  0  0  0  0  0  0  0  0  0
   -1.8300   24.5360  -28.4100 C   0  0  0  0  0  0  0  0  0  0  0  0
   -3.2320   24.5370  -28.2890 C   0  0  0  0  0  0  0  0  0  0  0  0
   -4.1070   24.1750  -29.4300 C   0  0  0  0  0  0  0  0  0  0  0  0
   -3.7400   24.4800  -30.5990 O   0  0  0  0  0  0  0  0  0  0  0  0
   -5.3600   23.4960  -29.2250 N   0  0  0  0  0  0  0  0  0  0  0  0
   -6.2060   23.0390  -30.2930 C   0  0  0  0  0  0  0  0  0  0  0  0
   -7.2670   23.8470  -30.7220 C   0  0  0  0  0  0  0  0  0  0  0  0
   -8.1130   23.4180  -31.7450 C   0  0  0  0  0  0  0  0  0  0  0  0
   -7.9230   22.1680  -32.3370 C   0  0  0  0  0  0  0  0  0  0  0  0
   -6.8880   21.3210  -31.8970 C   0  0  0  0  0  0  0  0  0  0  0  0
   -6.6760   19.9810  -32.5040 C   0  0  0  0  0  0  0  0  0  0  0  0
   -7.3700   18.8440  -32.0510 C   0  0  0  0  0  0  0  0  0  0  0  0
   -7.1310   17.6060  -32.6520 C   0  0  0  0  0  0  0  0  0  0  0  0
   -6.2070   17.5030  -33.6910 C   0  0  0  0  0  0  0  0  0  0  0  0
   -5.5270   18.6460  -34.1120 C   0  0  0  0  0  0  0  0  0  0  0  0
   -5.7720   19.8430  -33.5160 N   0  0  0  0  0  0  0  0  0  0  0  0
   -6.0330   21.7680  -30.8730 C   0  0  0  0  0  0  0  0  0  0  0  0
   -3.8070   24.8610  -27.0500 C   0  0  0  0  0  0  0  0  0  0  0  0
   -3.0020   25.2020  -25.9620 C   0  0  0  0  0  0  0  0  0  0  0  0
   -1.6100   25.2150  -26.0870 C   0  0  0  0  0  0  0  0  0  0  0  0
   -0.6420   25.6490  -24.6820 Cl  0  0  0  0  0  0  0  0  0  0  0  0
    0.9512   24.8646  -26.4726 H   0  0  0  0  0  0  0  0  0  0  0  0
    0.7895   23.9676  -28.0205 H   0  0  0  0  0  0  0  0  0  0  0  0
    0.8027   25.7638  -28.0205 H   0  0  0  0  0  0  0  0  0  0  0  0
   -1.3673   24.2637  -29.3701 H   0  0  0  0  0  0  0  0  0  0  0  0
   -5.7150   23.3630  -28.2530 H   0  0  0  0  0  0  0  0  0  0  0  0
   -7.4341   24.8260  -30.2492 H   0  0  0  0  0  0  0  0  0  0  0  0
   -8.9328   24.0671  -32.0864 H   0  0  0  0  0  0  0  0  0  0  0  0
   -8.5860   21.8428  -33.1523 H   0  0  0  0  0  0  0  0  0  0  0  0
   -8.0960   18.9295  -31.2290 H   0  0  0  0  0  0  0  0  0  0  0  0
   -7.6715   16.7127  -32.3057 H   0  0  0  0  0  0  0  0  0  0  0  0
   -6.0166   16.5326  -34.1727 H   0  0  0  0  0  0  0  0  0  0  0  0
   -4.7916   18.5786  -34.9273 H   0  0  0  0  0  0  0  0  0  0  0  0
   -5.2195   21.1165  -30.5213 H   0  0  0  0  0  0  0  0  0  0  0  0
   -4.9009   24.8460  -26.9357 H   0  0  0  0  0  0  0  0  0  0  0  0
   -3.4664   25.4623  -24.9994 H   0  0  0  0  0  0  0  0  0  0  0  0
  1  2  1  0
  2  3  2  0
  3  4  1  0
  4  5  1  0
  5  6  2  0
  5  7  1  0
  7  8  1  0
  8  9  2  0
  9 10  1  0
 10 11  2  0
 11 12  1  0
 12 13  1  0
 13 14  2  0
 14 15  1  0
 15 16  2  0
 16 17  1  0
 17 18  2  0
 12 19  2  0
  4 20  2  0
 20 21  1  0
 21 22  2  0
 22 23  1  0
 22  2  1  0
 19  8  1  0
 18 13  1  0
  1 24  1  0
  1 25  1  0
  1 26  1  0
  3 27  1  0
  7 28  1  0
  9 29  1  0
 10 30  1  0
 11 31  1  0
 14 32  1  0
 15 33  1  0
 16 34  1  0
 17 35  1  0
 19 36  1  0
 20 37  1  0
 21 38  1  0
M  END
>  <UniqueID>  (28) 
28

>  <SMILES>  (28) 
Cc1cc(C(=O)Nc2cccc(-c3ccccn3)c2)ccc1Cl

>  <Energy>  (28) 
52.89393672797412

>  <Genealogy>  (28) 
Cc1cc(C(=O)Nc2cccc(-c3ccccn3)c2)ccc1Cl (3D coordinates assigned)
Cc1cc(C(=O)Nc2cccc(-c3ccccn3)c2)ccc1Cl (optimized conformer: 52.89393672797412 kcal/mol)

>  <smiles>  (28) 
Cc1cc(C(=O)Nc2cccc(-c3ccccn3)c2)ccc1Cl

>  <score_type>  (28) 
oracle

>  <origin>  (28) 
adgpu

>  <m_score__min__energy>  (28) 
-8.7200000000000006

>  <m_primary>  (28) 
energy

$$$$
28:0
     RDKit          3D

 46 50  0  0  0  0  0  0  0  0999 V2000
    1.5750   27.8050  -26.5560 C   0  0  0  0  0  0  0  0  0  0  0  0
    0.3780   26.9010  -26.5920 C   0  0  0  0  0  0  0  0  0  0  0  0
   -0.2130   26.4550  -25.3820 C   0  0  0  0  0  0  0  0  0  0  0  0
   -1.3590   25.6380  -25.4050 C   0  0  0  0  0  0  0  0  0  0  0  0
   -1.8880   25.3000  -26.6460 C   0  0  0  0  0  0  0  0  0  0  0  0
   -2.9660   24.5450  -26.9010 N   0  0  0  0  0  0  0  0  0  0  0  0
   -3.0240   24.5530  -28.2610 C   0  0  0  0  0  0  0  0  0  0  0  0
   -4.0690   23.8400  -29.0260 C   0  0  0  0  0  0  0  0  0  0  0  0
   -3.8100   22.5740  -29.5770 C   0  0  0  0  0  0  0  0  0  0  0  0
   -4.7980   21.8980  -30.3000 C   0  0  0  0  0  0  0  0  0  0  0  0
   -6.0660   22.4760  -30.4890 C   0  0  0  0  0  0  0  0  0  0  0  0
   -7.1140   21.7590  -31.2590 C   0  0  0  0  0  0  0  0  0  0  0  0
   -8.3670   22.3540  -31.4850 C   0  0  0  0  0  0  0  0  0  0  0  0
   -9.3470   21.6810  -32.2200 C   0  0  0  0  0  0  0  0  0  0  0  0
   -9.0940   20.4070  -32.7270 C   0  0  0  0  0  0  0  0  0  0  0  0
   -7.8570   19.7820  -32.4930 C   0  0  0  0  0  0  0  0  0  0  0  0
   -7.5640   18.4780  -33.0220 N   0  0  0  0  0  0  0  0  0  0  0  0
   -6.3950   18.1730  -33.8020 C   0  0  0  0  0  0  0  0  0  0  0  0
   -5.6930   19.1030  -34.2840 O   0  0  0  0  0  0  0  0  0  0  0  0
   -6.0310   16.7720  -34.0780 C   0  0  0  0  0  0  0  0  0  0  0  0
   -4.7170   16.3560  -34.3090 C   0  0  0  0  0  0  0  0  0  0  0  0
   -4.8430   14.7120  -34.5580 S   0  0  0  0  0  0  0  0  0  0  0  0
   -6.4840   14.5630  -34.3780 N   0  0  0  0  0  0  0  0  0  0  0  0
   -6.9680   15.7740  -34.1220 N   0  0  0  0  0  0  0  0  0  0  0  0
   -6.8670   20.4720  -31.7760 C   0  0  0  0  0  0  0  0  0  0  0  0
   -6.3230   23.7430  -29.9380 C   0  0  0  0  0  0  0  0  0  0  0  0
   -5.3360   24.4170  -29.2140 C   0  0  0  0  0  0  0  0  0  0  0  0
   -2.0360   25.2780  -28.8550 N   0  0  0  0  0  0  0  0  0  0  0  0
   -1.3350   25.7360  -27.8090 C   0  0  0  0  0  0  0  0  0  0  0  0
   -0.2030   26.5460  -27.8300 C   0  0  0  0  0  0  0  0  0  0  0  0
    1.8477   28.0109  -25.5104 H   0  0  0  0  0  0  0  0  0  0  0  0
    2.4187   27.3167  -27.0656 H   0  0  0  0  0  0  0  0  0  0  0  0
    1.3362   28.7501  -27.0656 H   0  0  0  0  0  0  0  0  0  0  0  0
    0.2277   26.7499  -24.4183 H   0  0  0  0  0  0  0  0  0  0  0  0
   -1.8204   25.2791  -24.4732 H   0  0  0  0  0  0  0  0  0  0  0  0
   -2.8220   22.1106  -29.4386 H   0  0  0  0  0  0  0  0  0  0  0  0
   -4.5816   20.9064  -30.7242 H   0  0  0  0  0  0  0  0  0  0  0  0
   -8.5777   23.3552  -31.0811 H   0  0  0  0  0  0  0  0  0  0  0  0
  -10.3217   22.1583  -32.3992 H   0  0  0  0  0  0  0  0  0  0  0  0
   -9.8667   19.8882  -33.3133 H   0  0  0  0  0  0  0  0  0  0  0  0
   -8.2880   17.7330  -32.9080 H   0  0  0  0  0  0  0  0  0  0  0  0
   -3.8064   16.9729  -34.3233 H   0  0  0  0  0  0  0  0  0  0  0  0
   -5.8856   20.0017  -31.6157 H   0  0  0  0  0  0  0  0  0  0  0  0
   -7.3099   24.2083  -30.0779 H   0  0  0  0  0  0  0  0  0  0  0  0
   -5.5529   25.4076  -28.7877 H   0  0  0  0  0  0  0  0  0  0  0  0
    0.2254   26.8983  -28.7799 H   0  0  0  0  0  0  0  0  0  0  0  0
  1  2  1  0
  2  3  2  0
  3  4  1  0
  4  5  2  0
  5  6  1  0
  6  7  1  0
  7  8  1  0
  8  9  2  0
  9 10  1  0
 10 11  2  0
 11 12  1  0
 12 13  2  0
 13 14  1  0
 14 15  2  0
 15 16  1  0
 16 17  1  0
 17 18  1  0
 18 19  2  0
 18 20  1  0
 20 21  2  0
 21 22  1  0
 22 23  1  0
 23 24  2  0
 16 25  2  0
 11 26  1  0
 26 27  2  0
  7 28  2  0
 28 29  1  0
 29 30  2  0
 30  2  1  0
 29  5  1  0
 27  8  1  0
 25 12  1  0
 24 20  1  0
  1 31  1  0
  1 32  1  0
  1 33  1  0
  3 34  1  0
  4 35  1  0
  9 36  1  0
 10 37  1  0
 13 38  1  0
 14 39  1  0
 15 40  1  0
 17 41  1  0
 21 42  1  0
 25 43  1  0
 26 44  1  0
 27 45  1  0
 30 46  1  0
M  CHG  1   6  -1
M  END
>  <UniqueID>  (29) 
29

>  <SMILES>  (29) 
Cc1ccc2[n-]c(-c3ccc(-c4cccc(NC(=O)c5csnn5)c4)cc3)nc2c1

>  <Energy>  (29) 
132.22077115416752

>  <Genealogy>  (29) 
Cc1ccc2[n-]c(-c3ccc(-c4cccc(NC(=O)c5csnn5)c4)cc3)nc2c1 (protonated)
Cc1ccc2[n-]c(-c3ccc(-c4cccc(NC(=O)c5csnn5)c4)cc3)nc2c1 (3D coordinates assigned)
Cc1ccc2[n-]c(-c3ccc(-c4cccc(NC(=O)c5csnn5)c4)cc3)nc2c1 (optimized conformer: 132.22077115416752 kcal/mol)

>  <smiles>  (29) 
Cc1ccc2[nH]c(-c3ccc(-c4cccc(NC(=O)c5csnn5)c4)cc3)nc2c1

>  <score_type>  (29) 
oracle

>  <origin>  (29) 
adgpu

>  <m_score__min__energy>  (29) 
-10.359999999999999

>  <m_primary>  (29) 
energy

$$$$
29:0
     RDKit          3D

 36 38  0  0  0  0  0  0  0  0999 V2000
  -10.9300   20.9370  -32.0600 H   0  0  0  0  0  0  0  0  0  0  0  0
  -10.1620   21.5430  -31.6960 N   0  0  0  0  0  0  0  0  0  0  0  0
   -8.9170   21.2810  -31.9420 C   0  0  0  0  0  0  0  0  0  0  0  0
   -8.5870   20.1950  -32.6860 N   0  0  0  0  0  0  0  0  0  0  0  0
   -7.2930   19.8990  -32.9590 C   0  0  0  0  0  0  0  0  0  0  0  0
   -7.0502   19.0118  -33.5622 H   0  0  0  0  0  0  0  0  0  0  0  0
   -6.2630   20.7170  -32.4770 C   0  0  0  0  0  0  0  0  0  0  0  0
   -4.8610   20.4140  -32.8550 C   0  0  0  0  0  0  0  0  0  0  0  0
   -4.3980   19.0870  -32.8480 C   0  0  0  0  0  0  0  0  0  0  0  0
   -5.0785   18.2705  -32.5647 H   0  0  0  0  0  0  0  0  0  0  0  0
   -3.0750   18.8010  -33.2000 C   0  0  0  0  0  0  0  0  0  0  0  0
   -2.7162   17.7612  -33.1871 H   0  0  0  0  0  0  0  0  0  0  0  0
   -2.2080   19.8330  -33.5680 C   0  0  0  0  0  0  0  0  0  0  0  0
   -1.1669   19.6060  -33.8410 H   0  0  0  0  0  0  0  0  0  0  0  0
   -2.6640   21.1530  -33.5890 C   0  0  0  0  0  0  0  0  0  0  0  0
   -1.9814   21.9648  -33.8808 H   0  0  0  0  0  0  0  0  0  0  0  0
   -3.9860   21.4450  -33.2400 C   0  0  0  0  0  0  0  0  0  0  0  0
   -4.3428   22.4852  -33.2667 H   0  0  0  0  0  0  0  0  0  0  0  0
   -6.6200   21.8320  -31.6830 C   0  0  0  0  0  0  0  0  0  0  0  0
   -5.6010   22.7140  -31.0650 C   0  0  0  0  0  0  0  0  0  0  0  0
   -4.5970   22.1800  -30.2400 C   0  0  0  0  0  0  0  0  0  0  0  0
   -4.5664   21.0976  -30.0467 H   0  0  0  0  0  0  0  0  0  0  0  0
   -3.6360   23.0170  -29.6630 C   0  0  0  0  0  0  0  0  0  0  0  0
   -2.8484   22.5889  -29.0255 H   0  0  0  0  0  0  0  0  0  0  0  0
   -3.6730   24.4050  -29.8950 C   0  0  0  0  0  0  0  0  0  0  0  0
   -2.7310   25.2850  -29.3430 O   0  0  0  0  0  0  0  0  0  0  0  0
   -1.9280   24.9930  -28.2040 C   0  0  0  0  0  0  0  0  0  0  0  0
   -2.5009   25.2013  -27.2883 H   0  0  0  0  0  0  0  0  0  0  0  0
   -1.6383   23.9320  -28.2219 H   0  0  0  0  0  0  0  0  0  0  0  0
   -1.0245   25.6201  -28.2219 H   0  0  0  0  0  0  0  0  0  0  0  0
   -4.6840   24.9350  -30.7050 C   0  0  0  0  0  0  0  0  0  0  0  0
   -4.7239   26.0188  -30.8885 H   0  0  0  0  0  0  0  0  0  0  0  0
   -5.6440   24.0980  -31.2830 C   0  0  0  0  0  0  0  0  0  0  0  0
   -6.4372   24.5282  -31.9121 H   0  0  0  0  0  0  0  0  0  0  0  0
   -7.9410   22.0900  -31.4480 N   0  0  0  0  0  0  0  0  0  0  0  0
   -8.2110   22.9110  -30.8590 H   0  0  0  0  0  0  0  0  0  0  0  0
  1  2  1  0
  2  3  2  0
  3  4  1  0
  4  5  2  0
  5  6  1  0
  5  7  1  0
  7  8  1  0
  8  9  2  0
  9 10  1  0
  9 11  1  0
 11 12  1  0
 11 13  2  0
 13 14  1  0
 13 15  1  0
 15 16  1  0
 15 17  2  0
 17 18  1  0
  7 19  2  0
 19 20  1  0
 20 21  2  0
 21 22  1  0
 21 23  1  0
 23 24  1  0
 23 25  2  0
 25 26  1  0
 26 27  1  0
 27 28  1  0
 27 29  1  0
 27 30  1  0
 25 31  1  0
 31 32  1  0
 31 33  2  0
 33 34  1  0
 19 35  1  0
 35 36  1  0
 35  3  1  0
 17  8  1  0
 33 20  1  0
M  END
>  <UniqueID>  (30) 
30

>  <SMILES>  (30) 
[H]/N=c1\ncc(-c2ccccc2)c(-c2ccc(OC)cc2)[nH]1

>  <Energy>  (30) 
50.901438825592706

>  <Genealogy>  (30) 
[H]/N=c1\ncc(-c2ccccc2)c(-c2ccc(OC)cc2)[nH]1 (cis-trans isomerization)
[H]/N=c1\ncc(-c2ccccc2)c(-c2ccc(OC)cc2)[nH]1 (3D coordinates assigned)
[H]/N=c1\ncc(-c2ccccc2)c(-c2ccc(OC)cc2)[nH]1 (optimized conformer: 50.901438825592706 kcal/mol)

>  <smiles>  (30) 
COc1ccc(-c2[nH]c(=N)ncc2-c2ccccc2)cc1

>  <score_type>  (30) 
oracle

>  <origin>  (30) 
adgpu

>  <m_score__min__energy>  (30) 
-7.2599999999999998

>  <m_primary>  (30) 
energy

$$$$
30:0
     RDKit          3D

 45 48  0  0  0  0  0  0  0  0999 V2000
   -4.6790   24.8930  -31.2180 N   0  0  0  0  0  0  0  0  0  0  0  0
   -3.8930   24.3600  -30.3440 C   0  0  0  0  0  0  0  0  0  0  0  0
   -3.1300   25.0060  -29.4480 N   0  0  0  0  0  0  0  0  0  0  0  0
   -2.4640   24.1150  -28.7250 N   0  0  0  0  0  0  0  0  0  0  0  0
   -2.7810   22.8750  -29.1360 C   0  0  0  0  0  0  0  0  0  0  0  0
   -2.2890   21.5900  -28.6320 C   0  0  0  0  0  0  0  0  0  0  0  0
   -3.0190   20.8780  -27.6750 C   0  0  0  0  0  0  0  0  0  0  0  0
   -2.5820   19.6660  -27.1820 C   0  0  0  0  0  0  0  0  0  0  0  0
   -1.3960   19.1180  -27.6260 C   0  0  0  0  0  0  0  0  0  0  0  0
   -0.9070   17.9030  -27.1670 O   0  0  0  0  0  0  0  0  0  0  0  0
   -0.6670   19.8210  -28.5760 C   0  0  0  0  0  0  0  0  0  0  0  0
   -1.1020   21.0430  -29.0770 C   0  0  0  0  0  0  0  0  0  0  0  0
   -3.6950   23.0050  -30.1730 C   0  0  0  0  0  0  0  0  0  0  0  0
   -4.2960   21.8900  -30.9010 C   0  0  0  0  0  0  0  0  0  0  0  0
   -5.6820   21.8280  -31.0920 C   0  0  0  0  0  0  0  0  0  0  0  0
   -6.2500   20.7710  -31.7820 C   0  0  0  0  0  0  0  0  0  0  0  0
   -5.4450   19.7700  -32.2860 C   0  0  0  0  0  0  0  0  0  0  0  0
   -5.9910   18.6690  -32.9990 N   0  0  0  0  0  0  0  0  0  0  0  0
   -6.4810   17.4760  -32.3500 C   0  0  0  0  0  0  0  0  0  0  0  0
   -6.5080   16.3170  -33.3240 C   0  0  0  0  0  0  0  0  0  0  0  0
   -5.4120   16.3450  -34.2460 N   0  0  0  0  0  0  0  0  0  0  0  0
   -5.3740   17.5260  -35.0700 C   0  0  0  0  0  0  0  0  0  0  0  0
   -6.0730   18.7160  -34.4460 C   0  0  0  0  0  0  0  0  0  0  0  0
   -4.1170   19.8490  -32.0910 N   0  0  0  0  0  0  0  0  0  0  0  0
   -3.5150   20.8580  -31.4260 C   0  0  0  0  0  0  0  0  0  0  0  0
   -4.7440   25.9490  -31.2480 H   0  0  0  0  0  0  0  0  0  0  0  0
   -3.0510   26.0500  -29.3130 H   0  0  0  0  0  0  0  0  0  0  0  0
   -1.7860   24.2820  -27.9450 H   0  0  0  0  0  0  0  0  0  0  0  0
   -3.9672   21.2956  -27.3054 H   0  0  0  0  0  0  0  0  0  0  0  0
   -3.1827   19.1331  -26.4303 H   0  0  0  0  0  0  0  0  0  0  0  0
   -1.2470   17.5760  -26.2580 H   0  0  0  0  0  0  0  0  0  0  0  0
    0.2807   19.3996  -28.9423 H   0  0  0  0  0  0  0  0  0  0  0  0
   -0.4998   21.5744  -29.8286 H   0  0  0  0  0  0  0  0  0  0  0  0
   -6.3243   22.6256  -30.6905 H   0  0  0  0  0  0  0  0  0  0  0  0
   -7.3395   20.7291  -31.9281 H   0  0  0  0  0  0  0  0  0  0  0  0
   -5.8207   17.2252  -31.5067 H   0  0  0  0  0  0  0  0  0  0  0  0
   -7.5032   17.6614  -31.9883 H   0  0  0  0  0  0  0  0  0  0  0  0
   -6.4647   15.3771  -32.7541 H   0  0  0  0  0  0  0  0  0  0  0  0
   -7.4365   16.3954  -33.9086 H   0  0  0  0  0  0  0  0  0  0  0  0
   -4.5040   16.0830  -33.8260 H   0  0  0  0  0  0  0  0  0  0  0  0
   -4.3220   17.7933  -35.2483 H   0  0  0  0  0  0  0  0  0  0  0  0
   -5.9059   17.2888  -36.0032 H   0  0  0  0  0  0  0  0  0  0  0  0
   -5.5962   19.6407  -34.8031 H   0  0  0  0  0  0  0  0  0  0  0  0
   -7.1335   18.6908  -34.7371 H   0  0  0  0  0  0  0  0  0  0  0  0
   -2.4224   20.8672  -31.2992 H   0  0  0  0  0  0  0  0  0  0  0  0
  1  2  2  3
  2  3  1  0
  3  4  1  0
  4  5  1  0
  5  6  1  0
  6  7  2  0
  7  8  1  0
  8  9  2  0
  9 10  1  0
  9 11  1  0
 11 12  2  0
  5 13  2  0
 13 14  1  0
 14 15  2  0
 15 16  1  0
 16 17  2  0
 17 18  1  0
 18 19  1  0
 19 20  1  0
 20 21  1  0
 21 22  1  0
 22 23  1  0
 17 24  1  0
 24 25  2  0
 13  2  1  0
 25 14  1  0
 12  6  1  0
 23 18  1  0
  1 26  1  0
  3 27  1  0
  4 28  1  0
  7 29  1  0
  8 30  1  0
 10 31  1  0
 11 32  1  0
 12 33  1  0
 15 34  1  0
 16 35  1  0
 19 36  1  0
 19 37  1  0
 20 38  1  0
 20 39  1  0
 21 40  1  0
 22 41  1  0
 22 42  1  0
 23 43  1  0
 23 44  1  0
 25 45  1  0
M  END
>  <smiles>  (31) 
N=c1[nH][nH]c(-c2ccc(O)cc2)c1-c1ccc(N2CCNCC2)nc1

>  <score_type>  (31) 
oracle

>  <origin>  (31) 
adgpu

>  <m_score__min__energy>  (31) 
-8.3599999999999994

>  <m_primary>  (31) 
energy

$$$$
31:0
     RDKit          3D

 46 49  0  0  0  0  0  0  0  0999 V2000
   -0.1180   24.9580  -28.0950 O   0  0  0  0  0  0  0  0  0  0  0  0
   -1.1550   24.4030  -28.5460 C   0  0  0  0  0  0  0  0  0  0  0  0
   -1.9980   25.1060  -29.3400 N   0  0  0  0  0  0  0  0  0  0  0  0
   -3.1260   24.5480  -29.8490 C   0  0  0  0  0  0  0  0  0  0  0  0
   -3.8760   25.2480  -30.5800 O   0  0  0  0  0  0  0  0  0  0  0  0
   -3.4370   23.2430  -29.5690 N   0  0  0  0  0  0  0  0  0  0  0  0
   -4.6390   22.6140  -30.1420 C   0  0  0  0  0  0  0  0  0  0  0  0
   -4.2720   21.7380  -31.3230 C   0  0  0  0  0  0  0  0  0  0  0  0
   -2.9110   21.4500  -31.5380 C   0  0  0  0  0  0  0  0  0  0  0  0
   -2.5050   20.7070  -32.6470 C   0  0  0  0  0  0  0  0  0  0  0  0
   -3.4480   20.2400  -33.5600 C   0  0  0  0  0  0  0  0  0  0  0  0
   -4.8040   20.5000  -33.3580 C   0  0  0  0  0  0  0  0  0  0  0  0
   -5.2340   21.2350  -32.2400 C   0  0  0  0  0  0  0  0  0  0  0  0
   -6.6880   21.4310  -32.0550 C   0  0  0  0  0  0  0  0  0  0  0  0
   -7.5380   20.3260  -31.8790 C   0  0  0  0  0  0  0  0  0  0  0  0
   -8.9150   20.5140  -31.7290 C   0  0  0  0  0  0  0  0  0  0  0  0
   -9.4540   21.8040  -31.7670 C   0  0  0  0  0  0  0  0  0  0  0  0
   -8.6170   22.9060  -31.9610 C   0  0  0  0  0  0  0  0  0  0  0  0
   -7.2390   22.7220  -32.1100 C   0  0  0  0  0  0  0  0  0  0  0  0
   -2.6050   22.5050  -28.7750 C   0  0  0  0  0  0  0  0  0  0  0  0
   -1.4470   23.0730  -28.2240 C   0  0  0  0  0  0  0  0  0  0  0  0
   -0.5450   22.2990  -27.4120 N   0  0  0  0  0  0  0  0  0  0  0  0
   -0.5210   20.8610  -27.3740 C   0  0  0  0  0  0  0  0  0  0  0  0
    0.5250   20.1310  -27.9680 C   0  0  0  0  0  0  0  0  0  0  0  0
    0.5140   18.7330  -27.9410 C   0  0  0  0  0  0  0  0  0  0  0  0
   -0.5450   18.0530  -27.3350 C   0  0  0  0  0  0  0  0  0  0  0  0
   -1.5990   18.7700  -26.7620 C   0  0  0  0  0  0  0  0  0  0  0  0
   -1.5910   20.1680  -26.7870 C   0  0  0  0  0  0  0  0  0  0  0  0
   -5.1260   21.9974  -29.3722 H   0  0  0  0  0  0  0  0  0  0  0  0
   -5.3227   23.4042  -30.4859 H   0  0  0  0  0  0  0  0  0  0  0  0
   -2.1587   21.8150  -30.8233 H   0  0  0  0  0  0  0  0  0  0  0  0
   -1.4378   20.4894  -32.8008 H   0  0  0  0  0  0  0  0  0  0  0  0
   -3.1235   19.6661  -34.4405 H   0  0  0  0  0  0  0  0  0  0  0  0
   -5.5438   20.1259  -34.0811 H   0  0  0  0  0  0  0  0  0  0  0  0
   -7.1183   19.3094  -31.8592 H   0  0  0  0  0  0  0  0  0  0  0  0
   -9.5752   19.6467  -31.5810 H   0  0  0  0  0  0  0  0  0  0  0  0
  -10.5372   21.9511  -31.6441 H   0  0  0  0  0  0  0  0  0  0  0  0
   -9.0428   23.9196  -31.9965 H   0  0  0  0  0  0  0  0  0  0  0  0
   -6.5842   23.5911  -32.2708 H   0  0  0  0  0  0  0  0  0  0  0  0
   -2.8464   21.4525  -28.5654 H   0  0  0  0  0  0  0  0  0  0  0  0
    0.1480   22.8130  -26.8230 H   0  0  0  0  0  0  0  0  0  0  0  0
    1.3553   20.6626  -28.4559 H   0  0  0  0  0  0  0  0  0  0  0  0
    1.3402   18.1681  -28.3975 H   0  0  0  0  0  0  0  0  0  0  0  0
   -0.5494   16.9533  -27.3088 H   0  0  0  0  0  0  0  0  0  0  0  0
   -2.4359   18.2338  -26.2907 H   0  0  0  0  0  0  0  0  0  0  0  0
   -2.4280   20.7278  -26.3441 H   0  0  0  0  0  0  0  0  0  0  0  0
  1  2  2  0
  2  3  1  0
  3  4  1  0
  4  5  2  0
  4  6  1  0
  6  7  1  0
  7  8  1  0
  8  9  2  0
  9 10  1  0
 10 11  2  0
 11 12  1  0
 12 13  2  0
 13 14  1  0
 14 15  2  0
 15 16  1  0
 16 17  2  0
 17 18  1  0
 18 19  2  0
  6 20  1  0
 20 21  2  0
 21 22  1  0
 22 23  1  0
 23 24  2  0
 24 25  1  0
 25 26  2  0
 26 27  1  0
 27 28  2  0
 21  2  1  0
 28 23  1  0
 13  8  1  0
 19 14  1  0
  7 29  1  0
  7 30  1  0
  9 31  1  0
 10 32  1  0
 11 33  1  0
 12 34  1  0
 15 35  1  0
 16 36  1  0
 17 37  1  0
 18 38  1  0
 19 39  1  0
 20 40  1  0
 22 41  1  0
 24 42  1  0
 25 43  1  0
 26 44  1  0
 27 45  1  0
 28 46  1  0
M  CHG  1   3  -1
M  END
>  <UniqueID>  (32) 
31

>  <SMILES>  (32) 
O=c1[n-]c(=O)n(Cc2ccccc2-c2ccccc2)cc1Nc1ccccc1

>  <Energy>  (32) 
67.45939445196717

>  <Genealogy>  (32) 
O=c1[n-]c(=O)n(Cc2ccccc2-c2ccccc2)cc1Nc1ccccc1 (protonated)
O=c1[n-]c(=O)n(Cc2ccccc2-c2ccccc2)cc1Nc1ccccc1 (3D coordinates assigned)
O=c1[n-]c(=O)n(Cc2ccccc2-c2ccccc2)cc1Nc1ccccc1 (optimized conformer: 67.45939445196717 kcal/mol)

>  <smiles>  (32) 
O=c1[nH]c(=O)n(Cc2ccccc2-c2ccccc2)cc1Nc1ccccc1

>  <score_type>  (32) 
oracle

>  <origin>  (32) 
adgpu

>  <m_score__min__energy>  (32) 
-10.869999999999999

>  <m_primary>  (32) 
energy

$$$$
32:0
     RDKit          3D

 29 30  0  0  0  0  0  0  0  0999 V2000
   -7.2540   19.9810  -33.2760 N   0  0  0  0  0  0  0  0  0  0  0  0
   -6.7690   21.1460  -32.6010 C   0  0  0  0  0  0  0  0  0  0  0  0
   -7.6510   21.9600  -31.8760 C   0  0  0  0  0  0  0  0  0  0  0  0
   -7.1760   23.0980  -31.2180 C   0  0  0  0  0  0  0  0  0  0  0  0
   -5.8190   23.4360  -31.2830 C   0  0  0  0  0  0  0  0  0  0  0  0
   -5.2280   24.8780  -30.4630 S   0  0  0  0  0  0  0  0  0  0  0  0
   -5.7260   26.0920  -31.1950 O   0  0  0  0  0  0  0  0  0  0  0  0
   -5.7240   24.9220  -29.0440 O   0  0  0  0  0  0  0  0  0  0  0  0
   -3.4940   24.8920  -30.4550 N   0  0  0  0  0  0  0  0  0  0  0  0
   -2.6680   24.3030  -29.4420 C   0  0  0  0  0  0  0  0  0  0  0  0
   -3.0350   23.0550  -28.9200 C   0  0  0  0  0  0  0  0  0  0  0  0
   -2.2620   22.4470  -27.9260 C   0  0  0  0  0  0  0  0  0  0  0  0
   -1.1130   23.0800  -27.4440 C   0  0  0  0  0  0  0  0  0  0  0  0
   -0.3520   22.4650  -26.4530 O   0  0  0  0  0  0  0  0  0  0  0  0
   -0.7380   24.3270  -27.9620 C   0  0  0  0  0  0  0  0  0  0  0  0
   -1.5090   24.9370  -28.9560 C   0  0  0  0  0  0  0  0  0  0  0  0
   -4.9360   22.6200  -32.0040 C   0  0  0  0  0  0  0  0  0  0  0  0
   -5.4090   21.4810  -32.6610 C   0  0  0  0  0  0  0  0  0  0  0  0
   -7.2650   19.0520  -32.7960 H   0  0  0  0  0  0  0  0  0  0  0  0
   -7.6040   20.0380  -34.2570 H   0  0  0  0  0  0  0  0  0  0  0  0
   -8.7192   21.7024  -31.8250 H   0  0  0  0  0  0  0  0  0  0  0  0
   -7.8713   23.7306  -30.6467 H   0  0  0  0  0  0  0  0  0  0  0  0
   -3.9376   22.5503  -29.2950 H   0  0  0  0  0  0  0  0  0  0  0  0
   -2.5591   21.4678  -27.5223 H   0  0  0  0  0  0  0  0  0  0  0  0
   -0.5700   22.5810  -25.4690 H   0  0  0  0  0  0  0  0  0  0  0  0
    0.1661   24.8276  -27.5852 H   0  0  0  0  0  0  0  0  0  0  0  0
   -1.2090   25.9154  -29.3595 H   0  0  0  0  0  0  0  0  0  0  0  0
   -3.8676   22.8771  -32.0527 H   0  0  0  0  0  0  0  0  0  0  0  0
   -4.7121   20.8453  -33.2270 H   0  0  0  0  0  0  0  0  0  0  0  0
  1  2  1  0
  2  3  2  0
  3  4  1  0
  4  5  2  0
  5  6  1  0
  6  7  2  0
  6  8  2  0
  6  9  1  0
  9 10  1  0
 10 11  2  0
 11 12  1  0
 12 13  2  0
 13 14  1  0
 13 15  1  0
 15 16  2  0
  5 17  1  0
 17 18  2  0
 18  2  1  0
 16 10  1  0
  1 19  1  0
  1 20  1  0
  3 21  1  0
  4 22  1  0
 11 23  1  0
 12 24  1  0
 14 25  1  0
 15 26  1  0
 16 27  1  0
 17 28  1  0
 18 29  1  0
M  CHG  1   9  -1
M  END
>  <UniqueID>  (33) 
32

>  <SMILES>  (33) 
Nc1ccc(S(=O)(=O)[N-]c2ccc(O)cc2)cc1

>  <Energy>  (33) 
31.309970330670755

>  <Genealogy>  (33) 
Nc1ccc(S(=O)(=O)[N-]c2ccc(O)cc2)cc1 (protonated)
Nc1ccc(S(=O)(=O)[N-]c2ccc(O)cc2)cc1 (3D coordinates assigned)
Nc1ccc(S(=O)(=O)[N-]c2ccc(O)cc2)cc1 (optimized conformer: 31.309970330670755 kcal/mol)

>  <smiles>  (33) 
Nc1ccc(S(=O)(=O)Nc2ccc(O)cc2)cc1

>  <score_type>  (33) 
oracle

>  <origin>  (33) 
adgpu

>  <m_score__min__energy>  (33) 
-7.7000000000000002

>  <m_primary>  (33) 
energy

$$$$
33:0
     RDKit          3D

 22 23  0  0  0  0  0  0  0  0999 V2000
   -3.9220   24.4610  -27.0070 C   0  0  0  0  0  0  0  0  0  0  0  0
   -2.6470   23.7270  -27.4060 C   0  0  0  0  0  0  0  0  0  0  0  0
   -1.9210   24.4510  -28.9160 S   0  0  0  0  0  0  0  0  0  0  0  0
   -3.4170   24.3070  -29.8910 C   0  0  0  0  0  0  0  0  0  0  0  0
   -4.1610   23.1870  -29.9530 N   0  0  0  0  0  0  0  0  0  0  0  0
   -5.1460   23.5620  -30.7940 C   0  0  0  0  0  0  0  0  0  0  0  0
   -6.2560   22.6880  -31.2050 C   0  0  0  0  0  0  0  0  0  0  0  0
   -6.1410   21.8300  -32.3100 C   0  0  0  0  0  0  0  0  0  0  0  0
   -7.1910   21.0390  -32.6560 N   0  0  0  0  0  0  0  0  0  0  0  0
   -8.3520   21.0620  -31.9520 C   0  0  0  0  0  0  0  0  0  0  0  0
   -8.4710   21.9140  -30.8530 C   0  0  0  0  0  0  0  0  0  0  0  0
   -7.4240   22.7050  -30.5040 N   0  0  0  0  0  0  0  0  0  0  0  0
   -5.0050   24.8320  -31.2180 N   0  0  0  0  0  0  0  0  0  0  0  0
   -3.9090   25.3030  -30.6490 N   0  0  0  0  0  0  0  0  0  0  0  0
   -3.9934   24.5021  -25.9101 H   0  0  0  0  0  0  0  0  0  0  0  0
   -3.8982   25.4837  -27.4115 H   0  0  0  0  0  0  0  0  0  0  0  0
   -4.7944   23.9269  -27.4115 H   0  0  0  0  0  0  0  0  0  0  0  0
   -1.9180   23.8002  -26.5855 H   0  0  0  0  0  0  0  0  0  0  0  0
   -2.8966   22.6747  -27.6069 H   0  0  0  0  0  0  0  0  0  0  0  0
   -5.2080   21.7979  -32.8917 H   0  0  0  0  0  0  0  0  0  0  0  0
   -9.1915   20.4146  -32.2454 H   0  0  0  0  0  0  0  0  0  0  0  0
   -9.4058   21.9445  -30.2740 H   0  0  0  0  0  0  0  0  0  0  0  0
  1  2  1  0
  2  3  1  0
  3  4  1  0
  4  5  2  0
  5  6  1  0
  6  7  1  0
  7  8  2  0
  8  9  1  0
  9 10  2  0
 10 11  1  0
 11 12  2  0
  6 13  2  0
 13 14  1  0
 14  4  1  0
 12  7  1  0
  1 15  1  0
  1 16  1  0
  1 17  1  0
  2 18  1  0
  2 19  1  0
  8 20  1  0
 10 21  1  0
 11 22  1  0
M  CHG  1  14  -1
M  END
>  <UniqueID>  (34) 
33

>  <SMILES>  (34) 
CCSc1nc(-c2cnccn2)n[n-]1

>  <Energy>  (34) 
49.85909110714508

>  <Genealogy>  (34) 
CCSc1nc(-c2cnccn2)n[n-]1 (protonated)
CCSc1nc(-c2cnccn2)n[n-]1 (3D coordinates assigned)
CCSc1nc(-c2cnccn2)n[n-]1 (optimized conformer: 49.85909110714508 kcal/mol)

>  <smiles>  (34) 
CCSc1nc(-c2cnccn2)n[nH]1

>  <score_type>  (34) 
oracle

>  <origin>  (34) 
adgpu

>  <m_score__min__energy>  (34) 
-6.7699999999999996

>  <m_primary>  (34) 
energy

$$$$
34:0
     RDKit          3D

 34 36  0  0  0  0  0  0  0  0999 V2000
   -2.5956   17.9263  -32.6634 H   0  0  0  0  0  0  0  0  0  0  0  0
   -2.9550   18.9580  -32.7920 C   0  0  0  0  0  0  0  0  0  0  0  0
   -4.1220   19.3480  -32.2120 N   0  0  0  0  0  0  0  0  0  0  0  0
   -4.6050   20.6150  -32.3470 C   0  0  0  0  0  0  0  0  0  0  0  0
   -5.8870   20.9900  -31.6970 C   0  0  0  0  0  0  0  0  0  0  0  0
   -5.9990   22.0800  -30.9860 N   0  0  0  0  0  0  0  0  0  0  0  0
   -4.9480   22.9720  -30.5810 C   0  0  0  0  0  0  0  0  0  0  0  0
   -3.7770   22.4980  -29.9610 C   0  0  0  0  0  0  0  0  0  0  0  0
   -3.6383   21.4180  -29.8049 H   0  0  0  0  0  0  0  0  0  0  0  0
   -2.7900   23.3940  -29.5430 C   0  0  0  0  0  0  0  0  0  0  0  0
   -1.8676   23.0174  -29.0768 H   0  0  0  0  0  0  0  0  0  0  0  0
   -2.9740   24.7700  -29.7170 C   0  0  0  0  0  0  0  0  0  0  0  0
   -1.9900   25.6600  -29.3020 O   0  0  0  0  0  0  0  0  0  0  0  0
   -4.1500   25.2490  -30.3010 C   0  0  0  0  0  0  0  0  0  0  0  0
   -4.2981   26.3312  -30.4313 H   0  0  0  0  0  0  0  0  0  0  0  0
   -5.1390   24.3520  -30.7200 C   0  0  0  0  0  0  0  0  0  0  0  0
   -6.0718   24.7333  -31.1611 H   0  0  0  0  0  0  0  0  0  0  0  0
   -7.1020   20.1590  -31.9120 C   0  0  0  0  0  0  0  0  0  0  0  0
   -8.3220   20.7680  -32.2620 C   0  0  0  0  0  0  0  0  0  0  0  0
   -8.3745   21.8613  -32.3712 H   0  0  0  0  0  0  0  0  0  0  0  0
   -9.4680   19.9940  -32.4720 C   0  0  0  0  0  0  0  0  0  0  0  0
  -10.4174   20.4798  -32.7414 H   0  0  0  0  0  0  0  0  0  0  0  0
   -9.4080   18.6050  -32.3400 C   0  0  0  0  0  0  0  0  0  0  0  0
  -10.3105   17.9977  -32.5032 H   0  0  0  0  0  0  0  0  0  0  0  0
   -8.2030   17.9870  -32.0010 C   0  0  0  0  0  0  0  0  0  0  0  0
   -8.1572   16.8927  -31.8988 H   0  0  0  0  0  0  0  0  0  0  0  0
   -7.0540   18.7560  -31.7910 C   0  0  0  0  0  0  0  0  0  0  0  0
   -6.1064   18.2623  -31.5296 H   0  0  0  0  0  0  0  0  0  0  0  0
   -3.8830   21.5530  -33.1010 C   0  0  0  0  0  0  0  0  0  0  0  0
   -4.2594   22.5801  -33.2165 H   0  0  0  0  0  0  0  0  0  0  0  0
   -2.6830   21.1710  -33.7030 C   0  0  0  0  0  0  0  0  0  0  0  0
   -2.1087   21.8973  -34.2968 H   0  0  0  0  0  0  0  0  0  0  0  0
   -2.2130   19.8650  -33.5500 C   0  0  0  0  0  0  0  0  0  0  0  0
   -1.2688   19.5547  -34.0215 H   0  0  0  0  0  0  0  0  0  0  0  0
  1  2  1  0
  2  3  2  0
  3  4  1  0
  4  5  1  0
  5  6  2  0
  6  7  1  0
  7  8  2  0
  8  9  1  0
  8 10  1  0
 10 11  1  0
 10 12  2  0
 12 13  1  0
 12 14  1  0
 14 15  1  0
 14 16  2  0
 16 17  1  0
  5 18  1  0
 18 19  2  0
 19 20  1  0
 19 21  1  0
 21 22  1  0
 21 23  2  0
 23 24  1  0
 23 25  1  0
 25 26  1  0
 25 27  2  0
 27 28  1  0
  4 29  2  0
 29 30  1  0
 29 31  1  0
 31 32  1  0
 31 33  2  0
 33 34  1  0
 33  2  1  0
 16  7  1  0
 27 18  1  0
M  CHG  1  13  -1
M  END
>  <UniqueID>  (35) 
34

>  <SMILES>  (35) 
[O-]c1ccc(/N=C(/c2ccccc2)c2ccccn2)cc1

>  <Energy>  (35) 
51.78861707421422

>  <Genealogy>  (35) 
[O-]c1ccc(N=C(c2ccccc2)c2ccccn2)cc1 (protonated)
[O-]c1ccc(/N=C(/c2ccccc2)c2ccccn2)cc1 (cis-trans isomerization)
[O-]c1ccc(/N=C(/c2ccccc2)c2ccccn2)cc1 (3D coordinates assigned)
[O-]c1ccc(/N=C(/c2ccccc2)c2ccccn2)cc1 (optimized conformer: 51.78861707421422 kcal/mol)

>  <smiles>  (35) 
Oc1ccc(N=C(c2ccccc2)c2ccccn2)cc1

>  <score_type>  (35) 
oracle

>  <origin>  (35) 
adgpu

>  <m_score__min__energy>  (35) 
-10.32

>  <m_primary>  (35) 
energy

$$$$
35:0
     RDKit          3D

 57 60  0  0  0  0  0  0  0  0999 V2000
   -5.3060   25.6130  -30.4700 C   0  0  0  0  0  0  0  0  0  0  0  0
   -3.9030   25.3470  -30.4670 O   0  0  0  0  0  0  0  0  0  0  0  0
   -3.3200   24.1780  -29.9560 C   0  0  0  0  0  0  0  0  0  0  0  0
   -3.7670   22.9410  -30.4430 C   0  0  0  0  0  0  0  0  0  0  0  0
   -3.2230   21.7470  -29.9610 C   0  0  0  0  0  0  0  0  0  0  0  0
   -2.2110   21.7720  -28.9820 C   0  0  0  0  0  0  0  0  0  0  0  0
   -1.6350   20.5100  -28.4590 C   0  0  0  0  0  0  0  0  0  0  0  0
   -2.2300   19.8510  -27.3670 C   0  0  0  0  0  0  0  0  0  0  0  0
   -1.6520   18.6940  -26.8400 C   0  0  0  0  0  0  0  0  0  0  0  0
   -0.4770   18.1790  -27.3950 C   0  0  0  0  0  0  0  0  0  0  0  0
    0.1250   18.8160  -28.4930 C   0  0  0  0  0  0  0  0  0  0  0  0
    1.3900   18.2670  -29.1090 C   0  0  0  0  0  0  0  0  0  0  0  0
    1.1030   17.2210  -30.1340 N   0  0  2  0  0  0  0  0  0  0  0  0
    2.2440   16.9640  -31.0460 C   0  0  0  0  0  0  0  0  0  0  0  0
    2.5950   18.1740  -31.9360 C   0  0  0  0  0  0  0  0  0  0  0  0
    1.3910   18.9790  -32.3620 C   0  0  0  0  0  0  0  0  0  0  0  0
    1.5650   20.0540  -33.2460 C   0  0  0  0  0  0  0  0  0  0  0  0
    0.4720   20.8530  -33.6330 C   0  0  0  0  0  0  0  0  0  0  0  0
    0.6150   21.9430  -34.5080 O   0  0  0  0  0  0  0  0  0  0  0  0
    0.3350   21.9010  -35.9050 C   0  0  0  0  0  0  0  0  0  0  0  0
   -0.8070   20.5670  -33.1370 C   0  0  0  0  0  0  0  0  0  0  0  0
   -1.8780   21.3850  -33.5340 O   0  0  0  0  0  0  0  0  0  0  0  0
   -3.2500   21.0650  -33.3410 C   0  0  0  0  0  0  0  0  0  0  0  0
   -0.9810   19.4850  -32.2560 C   0  0  0  0  0  0  0  0  0  0  0  0
    0.1130   18.7100  -31.8470 C   0  0  0  0  0  0  0  0  0  0  0  0
   -0.1070   17.5380  -30.9240 C   0  0  0  0  0  0  0  0  0  0  0  0
   -0.4630   19.9760  -29.0260 C   0  0  0  0  0  0  0  0  0  0  0  0
   -1.7610   23.0150  -28.4960 C   0  0  0  0  0  0  0  0  0  0  0  0
   -2.3090   24.2070  -28.9770 C   0  0  0  0  0  0  0  0  0  0  0  0
   -5.6684   25.6817  -29.4337 H   0  0  0  0  0  0  0  0  0  0  0  0
   -5.4979   26.5635  -30.9893 H   0  0  0  0  0  0  0  0  0  0  0  0
   -5.8325   24.7987  -30.9893 H   0  0  0  0  0  0  0  0  0  0  0  0
   -4.5533   22.9101  -31.2117 H   0  0  0  0  0  0  0  0  0  0  0  0
   -3.5869   20.7838  -30.3480 H   0  0  0  0  0  0  0  0  0  0  0  0
   -3.1556   20.2495  -26.9261 H   0  0  0  0  0  0  0  0  0  0  0  0
   -2.1230   18.1863  -25.9853 H   0  0  0  0  0  0  0  0  0  0  0  0
   -0.0221   17.2718  -26.9706 H   0  0  0  0  0  0  0  0  0  0  0  0
    1.9394   19.0915  -29.5869 H   0  0  0  0  0  0  0  0  0  0  0  0
    1.9855   17.8043  -28.3081 H   0  0  0  0  0  0  0  0  0  0  0  0
    0.8950   16.3170  -29.6420 H   0  0  0  0  0  0  0  0  0  0  0  0
    3.1255   16.7086  -30.4397 H   0  0  0  0  0  0  0  0  0  0  0  0
    1.9496   16.1413  -31.7141 H   0  0  0  0  0  0  0  0  0  0  0  0
    3.2737   18.8333  -31.3750 H   0  0  0  0  0  0  0  0  0  0  0  0
    3.0591   17.7780  -32.8513 H   0  0  0  0  0  0  0  0  0  0  0  0
    2.5672   20.2755  -33.6417 H   0  0  0  0  0  0  0  0  0  0  0  0
   -0.7422   21.7394  -36.0584 H   0  0  0  0  0  0  0  0  0  0  0  0
    0.6323   22.8538  -36.3674 H   0  0  0  0  0  0  0  0  0  0  0  0
    0.8988   21.0774  -36.3674 H   0  0  0  0  0  0  0  0  0  0  0  0
   -3.4667   21.0145  -32.2637 H   0  0  0  0  0  0  0  0  0  0  0  0
   -3.8763   21.8412  -33.8050 H   0  0  0  0  0  0  0  0  0  0  0  0
   -3.4683   20.0918  -33.8050 H   0  0  0  0  0  0  0  0  0  0  0  0
   -1.9875   19.2439  -31.8834 H   0  0  0  0  0  0  0  0  0  0  0  0
   -0.9290   17.7787  -30.2338 H   0  0  0  0  0  0  0  0  0  0  0  0
   -0.3501   16.6602  -31.5408 H   0  0  0  0  0  0  0  0  0  0  0  0
   -0.0030   20.4708  -29.8941 H   0  0  0  0  0  0  0  0  0  0  0  0
   -0.9712   23.0477  -27.7310 H   0  0  0  0  0  0  0  0  0  0  0  0
   -1.9491   25.1714  -28.5892 H   0  0  0  0  0  0  0  0  0  0  0  0
  1  2  1  0
  2  3  1  0
  3  4  2  0
  4  5  1  0
  5  6  2  0
  6  7  1  0
  7  8  2  0
  8  9  1  0
  9 10  2  0
 10 11  1  0
 11 12  1  0
 12 13  1  0
 13 14  1  0
 14 15  1  0
 15 16  1  0
 16 17  2  0
 17 18  1  0
 18 19  1  0
 19 20  1  0
 18 21  2  0
 21 22  1  0
 22 23  1  0
 21 24  1  0
 24 25  2  0
 25 26  1  0
 11 27  2  0
  6 28  1  0
 28 29  2  0
 29  3  1  0
 27  7  1  0
 26 13  1  0
 25 16  1  0
  1 30  1  0
  1 31  1  0
  1 32  1  0
  4 33  1  0
  5 34  1  0
  8 35  1  0
  9 36  1  0
 10 37  1  0
 12 38  1  0
 12 39  1  0
 13 40  1  1
 14 41  1  0
 14 42  1  0
 15 43  1  0
 15 44  1  0
 17 45  1  0
 20 46  1  0
 20 47  1  0
 20 48  1  0
 23 49  1  0
 23 50  1  0
 23 51  1  0
 24 52  1  0
 26 53  1  0
 26 54  1  0
 27 55  1  0
 28 56  1  0
 29 57  1  0
M  CHG  1  13   1
M  END
>  <UniqueID>  (36) 
35

>  <SMILES>  (36) 
COc1ccc(-c2cccc(C[N@@H+]3CCc4cc(OC)c(OC)cc4C3)c2)cc1

>  <Energy>  (36) 
72.92177327611934

>  <Genealogy>  (36) 
COc1ccc(-c2cccc(C[NH+]3CCc4cc(OC)c(OC)cc4C3)c2)cc1 (protonated)
COc1ccc(-c2cccc(C[N@@H+]3CCc4cc(OC)c(OC)cc4C3)c2)cc1 (chirality)
COc1ccc(-c2cccc(C[N@@H+]3CCc4cc(OC)c(OC)cc4C3)c2)cc1 (3D coordinates assigned)
COc1ccc(-c2cccc(C[N@@H+]3CCc4cc(OC)c(OC)cc4C3)c2)cc1 (nonaromatic ring conformer: 72.92177327611934 kcal/mol)

>  <smiles>  (36) 
COc1ccc(-c2cccc(CN3CCc4cc(OC)c(OC)cc4C3)c2)cc1

>  <score_type>  (36) 
oracle

>  <origin>  (36) 
adgpu

>  <m_score__min__energy>  (36) 
-8.8399999999999999

>  <m_primary>  (36) 
energy

$$$$
36:0
     RDKit          3D

 38 40  0  0  0  0  0  0  0  0999 V2000
   -0.8190   25.7650  -29.9400 H   0  0  0  0  0  0  0  0  0  0  0  0
   -1.2460   25.5070  -29.0220 N   0  0  0  0  0  0  0  0  0  0  0  0
   -2.4040   24.9340  -28.9530 C   0  0  0  0  0  0  0  0  0  0  0  0
   -3.0980   24.6520  -30.0890 N   0  0  0  0  0  0  0  0  0  0  0  0
   -4.3200   24.0580  -30.0410 C   0  0  0  0  0  0  0  0  0  0  0  0
   -4.9800   23.7740  -31.2450 O   0  0  0  0  0  0  0  0  0  0  0  0
   -4.8330   22.5970  -31.9970 C   0  0  0  0  0  0  0  0  0  0  0  0
   -3.5610   22.1110  -32.3490 C   0  0  0  0  0  0  0  0  0  0  0  0
   -2.6609   22.6655  -32.0450 H   0  0  0  0  0  0  0  0  0  0  0  0
   -3.4330   20.9290  -33.0820 C   0  0  0  0  0  0  0  0  0  0  0  0
   -2.4329   20.5540  -33.3451 H   0  0  0  0  0  0  0  0  0  0  0  0
   -4.5690   20.2200  -33.4830 C   0  0  0  0  0  0  0  0  0  0  0  0
   -4.4060   18.9780  -34.1850 N   0  0  0  0  0  0  0  0  0  0  0  0
   -4.6120   17.7780  -33.7200 C   0  0  0  0  0  0  0  0  0  0  0  0
   -4.3010   16.7160  -34.5090 N   0  0  0  0  0  0  0  0  0  0  0  0
   -4.4950   15.4360  -34.0940 C   0  0  0  0  0  0  0  0  0  0  0  0
   -4.1330   14.2880  -34.9900 C   0  0  0  0  0  0  0  0  0  0  0  0
   -3.5190   14.7660  -36.1330 F   0  0  0  0  0  0  0  0  0  0  0  0
   -5.2770   13.5950  -35.3440 F   0  0  0  0  0  0  0  0  0  0  0  0
   -3.2670   13.4220  -34.3450 F   0  0  0  0  0  0  0  0  0  0  0  0
   -5.0360   15.2010  -32.8270 C   0  0  0  0  0  0  0  0  0  0  0  0
   -5.1940   14.1744  -32.4650 H   0  0  0  0  0  0  0  0  0  0  0  0
   -5.3710   16.2960  -32.0320 C   0  0  0  0  0  0  0  0  0  0  0  0
   -5.8051   16.1365  -31.0340 H   0  0  0  0  0  0  0  0  0  0  0  0
   -5.1630   17.5600  -32.4860 N   0  0  0  0  0  0  0  0  0  0  0  0
   -5.4730   18.3470  -31.8760 H   0  0  0  0  0  0  0  0  0  0  0  0
   -5.8380   20.6690  -33.0850 C   0  0  0  0  0  0  0  0  0  0  0  0
   -6.7309   20.0831  -33.3486 H   0  0  0  0  0  0  0  0  0  0  0  0
   -5.9780   21.8600  -32.3530 C   0  0  0  0  0  0  0  0  0  0  0  0
   -7.3410   22.3360  -31.9400 C   0  0  0  0  0  0  0  0  0  0  0  0
   -7.4045   22.3582  -30.8421 H   0  0  0  0  0  0  0  0  0  0  0  0
   -7.5123   23.3472  -32.3377 H   0  0  0  0  0  0  0  0  0  0  0  0
   -8.1046   21.6513  -32.3377 H   0  0  0  0  0  0  0  0  0  0  0  0
   -4.8620   23.7060  -28.7960 C   0  0  0  0  0  0  0  0  0  0  0  0
   -5.8388   23.2045  -28.7304 H   0  0  0  0  0  0  0  0  0  0  0  0
   -4.1370   24.0050  -27.6440 C   0  0  0  0  0  0  0  0  0  0  0  0
   -4.5456   23.7494  -26.6552 H   0  0  0  0  0  0  0  0  0  0  0  0
   -2.9260   24.6120  -27.7420 N   0  0  0  0  0  0  0  0  0  0  0  0
  1  2  1  0
  2  3  2  0
  3  4  1  0
  4  5  2  0
  5  6  1  0
  6  7  1  0
  7  8  2  0
  8  9  1  0
  8 10  1  0
 10 11  1  0
 10 12  2  0
 12 13  1  0
 13 14  2  0
 14 15  1  0
 15 16  2  0
 16 17  1  0
 17 18  1  0
 17 19  1  0
 17 20  1  0
 16 21  1  0
 21 22  1  0
 21 23  2  0
 23 24  1  0
 23 25  1  0
 25 26  1  0
 12 27  1  0
 27 28  1  0
 27 29  2  0
 29 30  1  0
 30 31  1  0
 30 32  1  0
 30 33  1  0
  5 34  1  0
 34 35  1  0
 34 36  2  0
 36 37  1  0
 36 38  1  0
 38  3  1  0
 29  7  1  0
 25 14  1  0
M  CHG  1  38  -1
M  END
>  <UniqueID>  (37) 
36

>  <SMILES>  (37) 
[H]/N=c1\nc(Oc2ccc(/N=c3/nc(C(F)(F)F)cc[nH]3)cc2C)cc[n-]1

>  <Energy>  (37) 
56.34764547067267

>  <Genealogy>  (37) 
Cc1cc(N=c2nc(C(F)(F)F)cc[nH]2)ccc1Oc1cc[n-]c(=N)n1 (protonated)
[H]/N=c1\nc(Oc2ccc(/N=c3/nc(C(F)(F)F)cc[nH]3)cc2C)cc[n-]1 (cis-trans isomerization)
[H]/N=c1\nc(Oc2ccc(/N=c3/nc(C(F)(F)F)cc[nH]3)cc2C)cc[n-]1 (3D coordinates assigned)
[H]/N=c1\nc(Oc2ccc(/N=c3/nc(C(F)(F)F)cc[nH]3)cc2C)cc[n-]1 (optimized conformer: 56.34764547067267 kcal/mol)

>  <smiles>  (37) 
Cc1cc(N=c2nc(C(F)(F)F)cc[nH]2)ccc1Oc1cc[nH]c(=N)n1

>  <score_type>  (37) 
oracle

>  <origin>  (37) 
adgpu

>  <m_score__min__energy>  (37) 
-8.8200000000000003

>  <m_primary>  (37) 
energy

$$$$
37:0
     RDKit          3D

 27 27  0  0  0  0  0  0  0  0999 V2000
   -6.2200   18.9520  -33.5190 C   0  0  0  0  0  0  0  0  0  0  0  0
   -7.3290   18.2900  -32.7100 C   0  0  0  0  0  0  0  0  0  0  0  0
   -8.3710   19.2930  -32.3260 C   0  0  0  0  0  0  0  0  0  0  0  0
   -9.4260   18.9140  -31.7480 O   0  0  0  0  0  0  0  0  0  0  0  0
   -8.1830   20.6710  -32.6580 N   0  0  0  0  0  0  0  0  0  0  0  0
   -8.4050   21.7510  -31.7050 C   0  0  0  0  0  0  0  0  0  0  0  0
   -7.6970   23.0240  -32.1730 C   0  0  0  0  0  0  0  0  0  0  0  0
   -6.2930   23.1020  -31.6330 C   0  0  0  0  0  0  0  0  0  0  0  0
   -5.5150   21.9390  -31.5160 C   0  0  0  0  0  0  0  0  0  0  0  0
   -4.2000   22.0150  -31.0450 C   0  0  0  0  0  0  0  0  0  0  0  0
   -3.6510   23.2530  -30.6970 C   0  0  0  0  0  0  0  0  0  0  0  0
   -4.4150   24.4170  -30.8230 C   0  0  0  0  0  0  0  0  0  0  0  0
   -3.8660   25.6480  -30.4840 O   0  0  0  0  0  0  0  0  0  0  0  0
   -5.7310   24.3450  -31.2930 C   0  0  0  0  0  0  0  0  0  0  0  0
   -5.4805   19.3934  -32.8347 H   0  0  0  0  0  0  0  0  0  0  0  0
   -5.7292   18.1990  -34.1531 H   0  0  0  0  0  0  0  0  0  0  0  0
   -6.6499   19.7414  -34.1531 H   0  0  0  0  0  0  0  0  0  0  0  0
   -7.7948   17.4984  -33.3152 H   0  0  0  0  0  0  0  0  0  0  0  0
   -6.8937   17.8626  -31.7947 H   0  0  0  0  0  0  0  0  0  0  0  0
   -9.4844   21.9456  -31.6216 H   0  0  0  0  0  0  0  0  0  0  0  0
   -7.9996   21.4545  -30.7264 H   0  0  0  0  0  0  0  0  0  0  0  0
   -7.6584   23.0286  -33.2723 H   0  0  0  0  0  0  0  0  0  0  0  0
   -8.2607   23.8913  -31.7987 H   0  0  0  0  0  0  0  0  0  0  0  0
   -5.9412   20.9643  -31.7958 H   0  0  0  0  0  0  0  0  0  0  0  0
   -3.5972   21.0999  -30.9483 H   0  0  0  0  0  0  0  0  0  0  0  0
   -2.6178   23.3111  -30.3240 H   0  0  0  0  0  0  0  0  0  0  0  0
   -6.3274   25.2634  -31.3967 H   0  0  0  0  0  0  0  0  0  0  0  0
  1  2  1  0
  2  3  1  0
  3  4  2  0
  3  5  1  0
  5  6  1  0
  6  7  1  0
  7  8  1  0
  8  9  2  0
  9 10  1  0
 10 11  2  0
 11 12  1  0
 12 13  1  0
 12 14  2  0
 14  8  1  0
  1 15  1  0
  1 16  1  0
  1 17  1  0
  2 18  1  0
  2 19  1  0
  6 20  1  0
  6 21  1  0
  7 22  1  0
  7 23  1  0
  9 24  1  0
 10 25  1  0
 11 26  1  0
 14 27  1  0
M  CHG  2   5  -1  13  -1
M  END
>  <UniqueID>  (38) 
37

>  <SMILES>  (38) 
CCC(=O)[N-]CCc1cccc([O-])c1

>  <Energy>  (38) 
15.7927943880118

>  <Genealogy>  (38) 
CCC(=O)[N-]CCc1cccc([O-])c1 (protonated)
CCC(=O)[N-]CCc1cccc([O-])c1 (3D coordinates assigned)
CCC(=O)[N-]CCc1cccc([O-])c1 (optimized conformer: 15.7927943880118 kcal/mol)

>  <smiles>  (38) 
CCC(=O)NCCc1cccc(O)c1

>  <score_type>  (38) 
oracle

>  <origin>  (38) 
adgpu

>  <m_score__min__energy>  (38) 
-8.6699999999999999

>  <m_primary>  (38) 
energy

$$$$
38:0
     RDKit          3D

 43 46  0  0  0  0  0  0  0  0999 V2000
    0.3360   26.6660  -27.0950 C   0  0  0  0  0  0  0  0  0  0  0  0
   -0.8780   25.8220  -27.2770 C   0  0  0  0  0  0  0  0  0  0  0  0
   -1.9410   25.9440  -26.4080 C   0  0  0  0  0  0  0  0  0  0  0  0
   -3.0460   25.1690  -26.5820 C   0  0  0  0  0  0  0  0  0  0  0  0
   -4.2060   25.2870  -25.6520 C   0  0  0  0  0  0  0  0  0  0  0  0
   -3.0610   24.2800  -27.6330 C   0  0  0  0  0  0  0  0  0  0  0  0
   -1.9850   24.1530  -28.5160 C   0  0  0  0  0  0  0  0  0  0  0  0
   -2.1130   23.1850  -29.5840 C   0  0  0  0  0  0  0  0  0  0  0  0
   -3.1590   23.1970  -30.5020 C   0  0  0  0  0  0  0  0  0  0  0  0
   -4.1710   24.2240  -30.3860 C   0  0  0  0  0  0  0  0  0  0  0  0
   -5.3810   23.9940  -29.7200 C   0  0  0  0  0  0  0  0  0  0  0  0
   -6.1510   25.1510  -29.7690 C   0  0  0  0  0  0  0  0  0  0  0  0
   -5.3480   26.0480  -30.4810 C   0  0  0  0  0  0  0  0  0  0  0  0
   -4.2390   25.4460  -30.7960 O   0  0  0  0  0  0  0  0  0  0  0  0
   -3.1470   22.2120  -31.4630 C   0  0  0  0  0  0  0  0  0  0  0  0
   -1.1120   22.2100  -29.6580 C   0  0  0  0  0  0  0  0  0  0  0  0
   -5.0910   23.0290  -32.3960 N   0  0  0  0  0  0  0  0  0  0  0  0
   -4.0890   21.1890  -33.3190 N   0  0  0  0  0  0  0  0  0  0  0  0
   -3.1110   20.2690  -33.3560 C   0  0  0  0  0  0  0  0  0  0  0  0
   -3.1760   19.3830  -34.2920 N   0  0  0  0  0  0  0  0  0  0  0  0
   -2.1240   20.3020  -32.4430 N   0  0  0  0  0  0  0  0  0  0  0  0
   -2.1400   21.2650  -31.5040 C   0  0  0  0  0  0  0  0  0  0  0  0
   -1.1320   21.2610  -30.6120 N   0  0  0  0  0  0  0  0  0  0  0  0
   -4.1540   22.1720  -32.4030 C   0  0  0  0  0  0  0  0  0  0  0  0
   -0.1630   22.2080  -28.8150 O   0  0  0  0  0  0  0  0  0  0  0  0
   -0.8660   24.9390  -28.3390 C   0  0  0  0  0  0  0  0  0  0  0  0
    0.5308   26.8014  -26.0209 H   0  0  0  0  0  0  0  0  0  0  0  0
    1.1995   26.1725  -27.5649 H   0  0  0  0  0  0  0  0  0  0  0  0
    0.1741   27.6473  -27.5649 H   0  0  0  0  0  0  0  0  0  0  0  0
   -1.8963   26.6643  -25.5779 H   0  0  0  0  0  0  0  0  0  0  0  0
   -3.8478   25.2506  -24.6126 H   0  0  0  0  0  0  0  0  0  0  0  0
   -4.7220   26.2423  -25.8288 H   0  0  0  0  0  0  0  0  0  0  0  0
   -4.9038   24.4552  -25.8288 H   0  0  0  0  0  0  0  0  0  0  0  0
   -3.9492   23.6487  -27.7828 H   0  0  0  0  0  0  0  0  0  0  0  0
   -5.6749   23.0508  -29.2363 H   0  0  0  0  0  0  0  0  0  0  0  0
   -7.1530   25.3204  -29.3480 H   0  0  0  0  0  0  0  0  0  0  0  0
   -5.6100   27.0864  -30.7320 H   0  0  0  0  0  0  0  0  0  0  0  0
   -5.8330   22.9610  -33.1260 H   0  0  0  0  0  0  0  0  0  0  0  0
   -4.8580   21.1620  -34.0320 H   0  0  0  0  0  0  0  0  0  0  0  0
   -2.4040   18.6690  -34.3110 H   0  0  0  0  0  0  0  0  0  0  0  0
   -1.3560   19.5760  -32.4780 H   0  0  0  0  0  0  0  0  0  0  0  0
   -0.3720   20.5440  -30.6430 H   0  0  0  0  0  0  0  0  0  0  0  0
   -0.0010   24.8659  -29.0145 H   0  0  0  0  0  0  0  0  0  0  0  0
  1  2  1  0
  2  3  2  0
  3  4  1  0
  4  5  1  0
  4  6  2  0
  6  7  1  0
  7  8  1  0
  8  9  2  0
  9 10  1  0
 10 11  2  0
 11 12  1  0
 12 13  2  0
 13 14  1  0
  9 15  1  0
 15 16  1  0
 16 17  2  3
 16 18  1  0
 18 19  1  0
 19 20  2  3
 19 21  1  0
 21 22  1  0
 22 23  1  0
 23 24  1  0
 24 25  2  0
  7 26  2  0
 26  2  1  0
 24  8  1  0
 14 10  1  0
 22 15  2  0
  1 27  1  0
  1 28  1  0
  1 29  1  0
  3 30  1  0
  5 31  1  0
  5 32  1  0
  5 33  1  0
  6 34  1  0
 11 35  1  0
 12 36  1  0
 13 37  1  0
 17 38  1  0
 18 39  1  0
 20 40  1  0
 21 41  1  0
 23 42  1  0
 26 43  1  0
M  END
>  <smiles>  (39) 
Cc1cc(C)cc(-c2c(-c3ccco3)c3c(=N)[nH]c(=N)[nH]c3[nH]c2=O)c1

>  <score_type>  (39) 
oracle

>  <origin>  (39) 
adgpu

>  <m_score__min__energy>  (39) 
-8.3000000000000007

>  <m_primary>  (39) 
energy

$$$$
39:0
     RDKit          3D

 38 40  0  0  0  0  0  0  0  0999 V2000
    0.6910   16.7650  -32.7680 C   0  0  0  0  0  0  0  0  0  0  0  0
   -0.0970   15.7660  -31.9250 C   0  0  0  0  0  0  0  0  0  0  0  0
    0.7120   15.2730  -30.8000 N   0  0  0  0  0  0  0  0  0  0  0  0
    1.0770   13.8530  -30.7580 C   0  0  0  0  0  0  0  0  0  0  0  0
    1.0230   16.1310  -29.6790 C   0  0  0  0  0  0  0  0  0  0  0  0
    2.0870   15.8170  -28.8180 C   0  0  0  0  0  0  0  0  0  0  0  0
    2.3820   16.6380  -27.7280 C   0  0  0  0  0  0  0  0  0  0  0  0
    1.6200   17.7810  -27.4830 C   0  0  0  0  0  0  0  0  0  0  0  0
    0.5520   18.1170  -28.3310 C   0  0  0  0  0  0  0  0  0  0  0  0
   -0.2560   19.3290  -28.0740 C   0  0  0  0  0  0  0  0  0  0  0  0
   -0.6850   19.7000  -26.8510 N   0  0  0  0  0  0  0  0  0  0  0  0
   -1.3490   20.7980  -27.0470 O   0  0  0  0  0  0  0  0  0  0  0  0
   -1.3380   21.1010  -28.3230 C   0  0  0  0  0  0  0  0  0  0  0  0
   -1.9980   22.2870  -28.9020 C   0  0  0  0  0  0  0  0  0  0  0  0
   -3.1540   22.1490  -29.6910 C   0  0  0  0  0  0  0  0  0  0  0  0
   -3.7740   23.2780  -30.2370 C   0  0  0  0  0  0  0  0  0  0  0  0
   -3.2480   24.5510  -30.0010 C   0  0  0  0  0  0  0  0  0  0  0  0
   -3.8700   25.6690  -30.5470 O   0  0  0  0  0  0  0  0  0  0  0  0
   -2.0980   24.6980  -29.2160 C   0  0  0  0  0  0  0  0  0  0  0  0
   -1.5710   25.9620  -28.9790 O   0  0  0  0  0  0  0  0  0  0  0  0
   -1.4750   23.5700  -28.6690 C   0  0  0  0  0  0  0  0  0  0  0  0
   -0.6480   20.1900  -29.0370 N   0  0  0  0  0  0  0  0  0  0  0  0
    0.2600   17.2860  -29.4280 C   0  0  0  0  0  0  0  0  0  0  0  0
    1.2350   17.4547  -32.1060 H   0  0  0  0  0  0  0  0  0  0  0  0
    1.4081   16.2239  -33.4028 H   0  0  0  0  0  0  0  0  0  0  0  0
   -0.0022   17.3364  -33.4028 H   0  0  0  0  0  0  0  0  0  0  0  0
   -0.9981   16.2591  -31.5314 H   0  0  0  0  0  0  0  0  0  0  0  0
   -0.3723   14.9112  -32.5602 H   0  0  0  0  0  0  0  0  0  0  0  0
    1.1609   13.5268  -29.7108 H   0  0  0  0  0  0  0  0  0  0  0  0
    0.3021   13.2600  -31.2658 H   0  0  0  0  0  0  0  0  0  0  0  0
    2.0418   13.7072  -31.2658 H   0  0  0  0  0  0  0  0  0  0  0  0
    2.6925   14.9176  -29.0037 H   0  0  0  0  0  0  0  0  0  0  0  0
    3.2180   16.3830  -27.0601 H   0  0  0  0  0  0  0  0  0  0  0  0
    1.8570   18.4222  -26.6212 H   0  0  0  0  0  0  0  0  0  0  0  0
   -3.5724   21.1493  -29.8796 H   0  0  0  0  0  0  0  0  0  0  0  0
   -4.6777   23.1634  -30.8536 H   0  0  0  0  0  0  0  0  0  0  0  0
   -0.5711   23.6888  -28.0535 H   0  0  0  0  0  0  0  0  0  0  0  0
   -0.5745   17.5423  -30.0972 H   0  0  0  0  0  0  0  0  0  0  0  0
  1  2  1  0
  2  3  1  0
  3  4  1  0
  3  5  1  0
  5  6  2  0
  6  7  1  0
  7  8  2  0
  8  9  1  0
  9 10  1  0
 10 11  2  0
 11 12  1  0
 12 13  1  0
 13 14  1  0
 14 15  2  0
 15 16  1  0
 16 17  2  0
 17 18  1  0
 17 19  1  0
 19 20  1  0
 19 21  2  0
 13 22  2  0
  9 23  2  0
 23  5  1  0
 22 10  1  0
 21 14  1  0
  1 24  1  0
  1 25  1  0
  1 26  1  0
  2 27  1  0
  2 28  1  0
  4 29  1  0
  4 30  1  0
  4 31  1  0
  6 32  1  0
  7 33  1  0
  8 34  1  0
 15 35  1  0
 16 36  1  0
 21 37  1  0
 23 38  1  0
M  CHG  2  18  -1  20  -1
M  END
>  <UniqueID>  (40) 
38

>  <SMILES>  (40) 
CCN(C)c1cccc(-c2noc(-c3ccc([O-])c([O-])c3)n2)c1

>  <Energy>  (40) 
74.19163786334508

>  <Genealogy>  (40) 
CCN(C)c1cccc(-c2noc(-c3ccc([O-])c([O-])c3)n2)c1 (protonated)
CCN(C)c1cccc(-c2noc(-c3ccc([O-])c([O-])c3)n2)c1 (3D coordinates assigned)
CCN(C)c1cccc(-c2noc(-c3ccc([O-])c([O-])c3)n2)c1 (optimized conformer: 74.19163786334508 kcal/mol)

>  <smiles>  (40) 
CCN(C)c1cccc(-c2noc(-c3ccc(O)c(O)c3)n2)c1

>  <score_type>  (40) 
oracle

>  <origin>  (40) 
adgpu

>  <m_score__min__energy>  (40) 
-11.77

>  <m_primary>  (40) 
energy

$$$$
40:0
     RDKit          3D

 46 49  0  0  0  0  0  0  0  0999 V2000
   -1.5090   27.0950  -27.7300 H   0  0  0  0  0  0  0  0  0  0  0  0
   -0.9010   26.2810  -27.9710 N   0  0  0  0  0  0  0  0  0  0  0  0
   -1.3430   25.2940  -28.6820 C   0  0  0  0  0  0  0  0  0  0  0  0
   -2.6230   25.2930  -29.1380 N   0  0  0  0  0  0  0  0  0  0  0  0
   -3.1060   24.2690  -29.8890 C   0  0  0  0  0  0  0  0  0  0  0  0
   -4.1454   24.2890  -30.2484 H   0  0  0  0  0  0  0  0  0  0  0  0
   -2.2700   23.1840  -30.2040 C   0  0  0  0  0  0  0  0  0  0  0  0
   -2.7510   22.0420  -31.0210 C   0  0  0  0  0  0  0  0  0  0  0  0
   -3.7150   22.2370  -32.0310 C   0  0  0  0  0  0  0  0  0  0  0  0
   -4.1172   23.2444  -32.2136 H   0  0  0  0  0  0  0  0  0  0  0  0
   -4.1640   21.1620  -32.8020 C   0  0  0  0  0  0  0  0  0  0  0  0
   -4.9135   21.3277  -33.5899 H   0  0  0  0  0  0  0  0  0  0  0  0
   -3.6630   19.8740  -32.5750 C   0  0  0  0  0  0  0  0  0  0  0  0
   -4.1460   18.7420  -33.3800 C   0  0  0  0  0  0  0  0  0  0  0  0
   -3.2380   18.1170  -34.2500 C   0  0  0  0  0  0  0  0  0  0  0  0
   -2.2020   18.4817  -34.3105 H   0  0  0  0  0  0  0  0  0  0  0  0
   -3.6380   17.0380  -35.0380 C   0  0  0  0  0  0  0  0  0  0  0  0
   -2.9192   16.5580  -35.7184 H   0  0  0  0  0  0  0  0  0  0  0  0
   -4.9490   16.5670  -34.9640 C   0  0  0  0  0  0  0  0  0  0  0  0
   -5.2626   15.7148  -35.5848 H   0  0  0  0  0  0  0  0  0  0  0  0
   -5.8630   17.1760  -34.1030 C   0  0  0  0  0  0  0  0  0  0  0  0
   -6.8942   16.7971  -34.0481 H   0  0  0  0  0  0  0  0  0  0  0  0
   -5.4810   18.2670  -33.3060 C   0  0  0  0  0  0  0  0  0  0  0  0
   -6.7100   18.9480  -32.2190 S   0  0  0  0  0  0  0  0  0  0  0  0
   -7.6140   17.8880  -31.6530 O   0  0  0  0  0  0  0  0  0  0  0  0
   -5.9970   19.6130  -31.0740 O   0  0  0  0  0  0  0  0  0  0  0  0
   -7.6580   20.1440  -33.0770 N   0  0  0  0  0  0  0  0  0  0  0  0
   -9.0750   20.0400  -32.7140 C   0  0  0  0  0  0  0  0  0  0  0  0
   -9.7020   20.3429  -33.5655 H   0  0  0  0  0  0  0  0  0  0  0  0
   -9.3268   19.0029  -32.4475 H   0  0  0  0  0  0  0  0  0  0  0  0
   -9.3250   20.9650  -31.5340 C   0  0  0  0  0  0  0  0  0  0  0  0
  -10.2855   21.4881  -31.6512 H   0  0  0  0  0  0  0  0  0  0  0  0
   -9.3771   20.4131  -30.5839 H   0  0  0  0  0  0  0  0  0  0  0  0
   -8.1750   21.9550  -31.5510 C   0  0  0  0  0  0  0  0  0  0  0  0
   -8.5463   22.9713  -31.7492 H   0  0  0  0  0  0  0  0  0  0  0  0
   -7.6511   21.9866  -30.5843 H   0  0  0  0  0  0  0  0  0  0  0  0
   -7.2550   21.4960  -32.6760 C   0  0  0  0  0  0  0  0  0  0  0  0
   -7.3446   22.1804  -33.5325 H   0  0  0  0  0  0  0  0  0  0  0  0
   -6.2095   21.4944  -32.3341 H   0  0  0  0  0  0  0  0  0  0  0  0
   -2.6860   19.6740  -31.5920 C   0  0  0  0  0  0  0  0  0  0  0  0
   -2.2720   18.6680  -31.4288 H   0  0  0  0  0  0  0  0  0  0  0  0
   -2.2340   20.7460  -30.8170 C   0  0  0  0  0  0  0  0  0  0  0  0
   -1.3130   20.5070  -29.8490 F   0  0  0  0  0  0  0  0  0  0  0  0
   -0.9910   23.1920  -29.7370 N   0  0  0  0  0  0  0  0  0  0  0  0
   -0.5080   24.2170  -28.9880 C   0  0  0  0  0  0  0  0  0  0  0  0
    0.5306   24.1991  -28.6260 H   0  0  0  0  0  0  0  0  0  0  0  0
  1  2  1  0
  2  3  2  0
  3  4  1  0
  4  5  1  0
  5  6  1  0
  5  7  2  0
  7  8  1  0
  8  9  2  0
  9 10  1  0
  9 11  1  0
 11 12  1  0
 11 13  2  0
 13 14  1  0
 14 15  2  0
 15 16  1  0
 15 17  1  0
 17 18  1  0
 17 19  2  0
 19 20  1  0
 19 21  1  0
 21 22  1  0
 21 23  2  0
 23 24  1  0
 24 25  2  0
 24 26  2  0
 24 27  1  0
 27 28  1  0
 28 29  1  0
 28 30  1  0
 28 31  1  0
 31 32  1  0
 31 33  1  0
 31 34  1  0
 34 35  1  0
 34 36  1  0
 34 37  1  0
 37 38  1  0
 37 39  1  0
 13 40  1  0
 40 41  1  0
 40 42  2  0
 42 43  1  0
  7 44  1  0
 44 45  2  0
 45 46  1  0
 45  3  1  0
 42  8  1  0
 23 14  1  0
 37 27  1  0
M  CHG  1   4  -1
M  END
>  <UniqueID>  (41) 
39

>  <SMILES>  (41) 
[H]/N=c1/cnc(-c2ccc(-c3ccccc3S(=O)(=O)N3CCCC3)cc2F)c[n-]1

>  <Energy>  (41) 
66.14994904236147

>  <Genealogy>  (41) 
N=c1cnc(-c2ccc(-c3ccccc3S(=O)(=O)N3CCCC3)cc2F)c[n-]1 (protonated)
[H]/N=c1/cnc(-c2ccc(-c3ccccc3S(=O)(=O)N3CCCC3)cc2F)c[n-]1 (cis-trans isomerization)
[H]/N=c1/cnc(-c2ccc(-c3ccccc3S(=O)(=O)N3CCCC3)cc2F)c[n-]1 (3D coordinates assigned)
[H]/N=c1/cnc(-c2ccc(-c3ccccc3S(=O)(=O)N3CCCC3)cc2F)c[n-]1 (nonaromatic ring conformer: 66.14994904236147 kcal/mol)

>  <smiles>  (41) 
N=c1cnc(-c2ccc(-c3ccccc3S(=O)(=O)N3CCCC3)cc2F)c[nH]1

>  <score_type>  (41) 
oracle

>  <origin>  (41) 
adgpu

>  <m_score__min__energy>  (41) 
-9.8800000000000008

>  <m_primary>  (41) 
energy

$$$$
41:0
     RDKit          3D

 40 42  0  0  0  0  0  0  0  0999 V2000
   -3.1150   25.6880  -29.7960 H   0  0  0  0  0  0  0  0  0  0  0  0
   -3.6260   25.1490  -30.4840 O   0  0  0  0  0  0  0  0  0  0  0  0
   -3.6810   23.7560  -30.4470 C   0  0  0  0  0  0  0  0  0  0  0  0
   -3.9850   23.0610  -31.6220 C   0  0  0  0  0  0  0  0  0  0  0  0
   -4.1600   23.6178  -32.5544 H   0  0  0  0  0  0  0  0  0  0  0  0
   -4.0690   21.6590  -31.6230 C   0  0  0  0  0  0  0  0  0  0  0  0
   -4.4000   20.9020  -32.8500 C   0  0  0  0  0  0  0  0  0  0  0  0
   -3.5672   20.5043  -33.4486 H   0  0  0  0  0  0  0  0  0  0  0  0
   -5.6140   20.6750  -33.2690 N   0  0  0  0  0  0  0  0  0  0  0  0
   -6.8390   20.9870  -32.5850 C   0  0  0  0  0  0  0  0  0  0  0  0
   -7.1720   22.3340  -32.3920 C   0  0  0  0  0  0  0  0  0  0  0  0
   -6.4998   23.1220  -32.7622 H   0  0  0  0  0  0  0  0  0  0  0  0
   -8.3530   22.6820  -31.7320 C   0  0  0  0  0  0  0  0  0  0  0  0
   -8.6009   23.7417  -31.5718 H   0  0  0  0  0  0  0  0  0  0  0  0
   -9.2180   21.6880  -31.2760 C   0  0  0  0  0  0  0  0  0  0  0  0
  -10.1400   21.9645  -30.7436 H   0  0  0  0  0  0  0  0  0  0  0  0
   -8.9160   20.3420  -31.4940 C   0  0  0  0  0  0  0  0  0  0  0  0
   -9.6046   19.5625  -31.1361 H   0  0  0  0  0  0  0  0  0  0  0  0
   -7.7340   19.9760  -32.1700 C   0  0  0  0  0  0  0  0  0  0  0  0
   -7.4230   18.6350  -32.4550 O   0  0  0  0  0  0  0  0  0  0  0  0
   -6.2950   17.9180  -31.9550 C   0  0  0  0  0  0  0  0  0  0  0  0
   -5.8102   18.5125  -31.1667 H   0  0  0  0  0  0  0  0  0  0  0  0
   -6.6401   16.9550  -31.5505 H   0  0  0  0  0  0  0  0  0  0  0  0
   -5.3060   17.6530  -33.0490 C   0  0  0  0  0  0  0  0  0  0  0  0
   -3.9650   17.6880  -32.8270 N   0  0  0  0  0  0  0  0  0  0  0  0
   -3.2550   17.4370  -33.9480 C   0  0  0  0  0  0  0  0  0  0  0  0
   -2.1565   17.4092  -33.9978 H   0  0  0  0  0  0  0  0  0  0  0  0
   -4.2750   17.1730  -35.2560 S   0  0  0  0  0  0  0  0  0  0  0  0
   -5.6820   17.3860  -34.3620 C   0  0  0  0  0  0  0  0  0  0  0  0
   -6.7115   17.3255  -34.7446 H   0  0  0  0  0  0  0  0  0  0  0  0
   -3.7920   20.9570  -30.4440 C   0  0  0  0  0  0  0  0  0  0  0  0
   -3.8137   19.8572  -30.4452 H   0  0  0  0  0  0  0  0  0  0  0  0
   -3.4880   21.6440  -29.2650 C   0  0  0  0  0  0  0  0  0  0  0  0
   -3.2890   21.0821  -28.3405 H   0  0  0  0  0  0  0  0  0  0  0  0
   -3.4350   23.0510  -29.2540 C   0  0  0  0  0  0  0  0  0  0  0  0
   -3.1420   23.7740  -28.0870 O   0  0  0  0  0  0  0  0  0  0  0  0
   -4.1190   24.3320  -27.2150 C   0  0  0  0  0  0  0  0  0  0  0  0
   -3.8190   24.1607  -26.1707 H   0  0  0  0  0  0  0  0  0  0  0  0
   -4.2011   25.4132  -27.4002 H   0  0  0  0  0  0  0  0  0  0  0  0
   -5.0919   23.8534  -27.4002 H   0  0  0  0  0  0  0  0  0  0  0  0
  1  2  1  0
  2  3  1  0
  3  4  2  0
  4  5  1  0
  4  6  1  0
  6  7  1  0
  7  8  1  0
  7  9  2  0
  9 10  1  0
 10 11  2  0
 11 12  1  0
 11 13  1  0
 13 14  1  0
 13 15  2  0
 15 16  1  0
 15 17  1  0
 17 18  1  0
 17 19  2  0
 19 20  1  0
 20 21  1  0
 21 22  1  0
 21 23  1  0
 21 24  1  0
 24 25  1  0
 25 26  2  0
 26 27  1  0
 26 28  1  0
 28 29  1  0
 29 30  1  0
  6 31  2  0
 31 32  1  0
 31 33  1  0
 33 34  1  0
 33 35  2  0
 35 36  1  0
 36 37  1  0
 37 38  1  0
 37 39  1  0
 37 40  1  0
 35  3  1  0
 19 10  1  0
 29 24  2  0
M  END
>  <UniqueID>  (42) 
40

>  <SMILES>  (42) 
COc1ccc(/C=N\c2ccccc2OCc2cscn2)cc1O

>  <Energy>  (42) 
81.58736608036696

>  <Genealogy>  (42) 
COc1ccc(/C=N\c2ccccc2OCc2cscn2)cc1O (cis-trans isomerization)
COc1ccc(/C=N\c2ccccc2OCc2cscn2)cc1O (3D coordinates assigned)
COc1ccc(/C=N\c2ccccc2OCc2cscn2)cc1O (optimized conformer: 81.58736608036696 kcal/mol)

>  <smiles>  (42) 
COc1ccc(C=Nc2ccccc2OCc2cscn2)cc1O

>  <score_type>  (42) 
oracle

>  <origin>  (42) 
adgpu

>  <m_score__min__energy>  (42) 
-8.1799999999999997

>  <m_primary>  (42) 
energy

$$$$
42:0
     RDKit          3D

 32 33  0  0  0  0  0  0  0  0999 V2000
   -8.8460   19.8350  -32.8370 N   0  0  0  0  0  0  0  0  0  0  0  0
   -7.9640   20.8420  -32.3320 C   0  0  0  0  0  0  0  0  0  0  0  0
   -8.4460   21.8280  -31.4610 C   0  0  0  0  0  0  0  0  0  0  0  0
   -7.5840   22.8130  -30.9670 C   0  0  0  0  0  0  0  0  0  0  0  0
   -6.2320   22.8170  -31.3370 C   0  0  0  0  0  0  0  0  0  0  0  0
   -5.1470   24.0490  -30.7030 S   0  0  0  0  0  0  0  0  0  0  0  0
   -5.5850   24.4200  -29.3140 O   0  0  0  0  0  0  0  0  0  0  0  0
   -5.1770   25.2770  -31.5700 O   0  0  0  0  0  0  0  0  0  0  0  0
   -3.5250   23.4430  -30.6410 N   0  0  0  0  0  0  0  0  0  0  0  0
   -2.5220   23.9140  -29.7350 C   0  0  0  0  0  0  0  0  0  0  0  0
   -1.3580   23.4390  -29.8250 O   0  0  0  0  0  0  0  0  0  0  0  0
   -2.8130   24.9350  -28.7660 N   0  0  0  0  0  0  0  0  0  0  0  0
   -1.9610   25.2450  -27.6490 C   0  0  0  0  0  0  0  0  0  0  0  0
   -0.6260   25.6120  -27.8820 C   0  0  0  0  0  0  0  0  0  0  0  0
    0.2150   25.9400  -26.8150 C   0  0  0  0  0  0  0  0  0  0  0  0
   -0.2740   25.9180  -25.5050 C   0  0  0  0  0  0  0  0  0  0  0  0
    0.7810   26.3320  -24.1670 Cl  0  0  0  0  0  0  0  0  0  0  0  0
   -1.6080   25.5760  -25.2650 C   0  0  0  0  0  0  0  0  0  0  0  0
   -2.4510   25.2470  -26.3300 C   0  0  0  0  0  0  0  0  0  0  0  0
   -5.7510   21.8330  -32.2130 C   0  0  0  0  0  0  0  0  0  0  0  0
   -6.6120   20.8490  -32.7070 C   0  0  0  0  0  0  0  0  0  0  0  0
   -9.3890   19.2260  -32.1840 H   0  0  0  0  0  0  0  0  0  0  0  0
   -8.9630   19.6930  -33.8640 H   0  0  0  0  0  0  0  0  0  0  0  0
   -9.5053   21.8276  -31.1647 H   0  0  0  0  0  0  0  0  0  0  0  0
   -7.9684   23.5867  -30.2861 H   0  0  0  0  0  0  0  0  0  0  0  0
   -3.6310   25.5610  -28.9330 H   0  0  0  0  0  0  0  0  0  0  0  0
   -0.2393   25.6416  -28.9114 H   0  0  0  0  0  0  0  0  0  0  0  0
    1.2626   26.2157  -27.0058 H   0  0  0  0  0  0  0  0  0  0  0  0
   -1.9951   25.5658  -24.2354 H   0  0  0  0  0  0  0  0  0  0  0  0
   -3.5025   24.9884  -26.1362 H   0  0  0  0  0  0  0  0  0  0  0  0
   -4.6925   21.8356  -32.5123 H   0  0  0  0  0  0  0  0  0  0  0  0
   -6.2286   20.0780  -33.3916 H   0  0  0  0  0  0  0  0  0  0  0  0
  1  2  1  0
  2  3  2  0
  3  4  1  0
  4  5  2  0
  5  6  1  0
  6  7  2  0
  6  8  2  0
  6  9  1  0
  9 10  1  0
 10 11  2  0
 10 12  1  0
 12 13  1  0
 13 14  2  0
 14 15  1  0
 15 16  2  0
 16 17  1  0
 16 18  1  0
 18 19  2  0
  5 20  1  0
 20 21  2  0
 21  2  1  0
 19 13  1  0
  1 22  1  0
  1 23  1  0
  3 24  1  0
  4 25  1  0
 12 26  1  0
 14 27  1  0
 15 28  1  0
 18 29  1  0
 19 30  1  0
 20 31  1  0
 21 32  1  0
M  CHG  1   9  -1
M  END
>  <UniqueID>  (43) 
41

>  <SMILES>  (43) 
Nc1ccc(S(=O)(=O)[N-]C(=O)Nc2ccc(Cl)cc2)cc1

>  <Energy>  (43) 
37.048035506623926

>  <Genealogy>  (43) 
Nc1ccc(S(=O)(=O)[N-]C(=O)Nc2ccc(Cl)cc2)cc1 (protonated)
Nc1ccc(S(=O)(=O)[N-]C(=O)Nc2ccc(Cl)cc2)cc1 (3D coordinates assigned)
Nc1ccc(S(=O)(=O)[N-]C(=O)Nc2ccc(Cl)cc2)cc1 (optimized conformer: 37.048035506623926 kcal/mol)

>  <smiles>  (43) 
Nc1ccc(S(=O)(=O)NC(=O)Nc2ccc(Cl)cc2)cc1

>  <score_type>  (43) 
oracle

>  <origin>  (43) 
adgpu

>  <m_score__min__energy>  (43) 
-9.1600000000000001

>  <m_primary>  (43) 
energy

$$$$
43:0
     RDKit          3D

 43 45  0  0  0  0  0  0  0  0999 V2000
   -2.9460   23.6550  -27.7460 C   0  0  0  0  0  0  0  0  0  0  0  0
   -3.5710   24.1240  -29.0160 C   0  0  0  0  0  0  0  0  0  0  0  0
   -4.7220   23.6260  -29.5860 C   0  0  0  0  0  0  0  0  0  0  0  0
   -4.8640   24.4060  -30.7200 C   0  0  0  0  0  0  0  0  0  0  0  0
   -5.8120   24.3300  -31.6030 N   0  0  0  0  0  0  0  0  0  0  0  0
   -7.1300   23.2020  -31.5300 S   0  0  0  0  0  0  0  0  0  0  0  0
   -8.3130   23.7840  -32.2520 O   0  0  0  0  0  0  0  0  0  0  0  0
   -7.5000   22.9700  -30.0920 O   0  0  0  0  0  0  0  0  0  0  0  0
   -6.6550   21.6670  -32.2510 C   0  0  0  0  0  0  0  0  0  0  0  0
   -7.6090   20.6700  -32.4900 C   0  0  0  0  0  0  0  0  0  0  0  0
   -7.2280   19.4570  -33.0730 C   0  0  0  0  0  0  0  0  0  0  0  0
   -5.8880   19.2210  -33.4060 C   0  0  0  0  0  0  0  0  0  0  0  0
   -5.5370   17.9780  -34.0270 N   0  0  0  0  0  0  0  0  0  0  0  0
   -4.2330   17.6140  -34.4960 C   0  0  0  0  0  0  0  0  0  0  0  0
   -4.0930   17.2600  -35.6960 O   0  0  0  0  0  0  0  0  0  0  0  0
   -3.1090   17.5920  -33.6050 N   0  0  0  0  0  0  0  0  0  0  0  0
   -1.7450   17.4220  -34.1030 C   0  0  0  0  0  0  0  0  0  0  0  0
   -1.1030   18.7600  -34.3480 C   0  0  0  0  0  0  0  0  0  0  0  0
   -1.5450   19.8990  -33.6550 C   0  0  0  0  0  0  0  0  0  0  0  0
   -0.9730   21.1470  -33.9160 C   0  0  0  0  0  0  0  0  0  0  0  0
    0.0340   21.2710  -34.8770 C   0  0  0  0  0  0  0  0  0  0  0  0
    0.5860   22.4830  -35.1320 F   0  0  0  0  0  0  0  0  0  0  0  0
    0.4670   20.1440  -35.5840 C   0  0  0  0  0  0  0  0  0  0  0  0
   -0.1030   18.8930  -35.3250 C   0  0  0  0  0  0  0  0  0  0  0  0
   -4.9360   20.2330  -33.1870 C   0  0  0  0  0  0  0  0  0  0  0  0
   -5.3170   21.4440  -32.6030 C   0  0  0  0  0  0  0  0  0  0  0  0
   -3.8610   25.2990  -30.8020 N   0  0  0  0  0  0  0  0  0  0  0  0
   -3.1050   25.1010  -29.7610 O   0  0  0  0  0  0  0  0  0  0  0  0
   -3.4988   24.0698  -26.8902 H   0  0  0  0  0  0  0  0  0  0  0  0
   -2.9781   22.5562  -27.7054 H   0  0  0  0  0  0  0  0  0  0  0  0
   -1.9000   23.9930  -27.7054 H   0  0  0  0  0  0  0  0  0  0  0  0
   -5.3679   22.8106  -29.2284 H   0  0  0  0  0  0  0  0  0  0  0  0
   -8.6611   20.8413  -32.2184 H   0  0  0  0  0  0  0  0  0  0  0  0
   -7.9850   18.6839  -33.2711 H   0  0  0  0  0  0  0  0  0  0  0  0
   -3.2790   17.6730  -32.5770 H   0  0  0  0  0  0  0  0  0  0  0  0
   -1.1543   16.8679  -33.3586 H   0  0  0  0  0  0  0  0  0  0  0  0
   -1.7792   16.8649  -35.0509 H   0  0  0  0  0  0  0  0  0  0  0  0
   -2.3440   19.8083  -32.9044 H   0  0  0  0  0  0  0  0  0  0  0  0
   -1.3163   22.0341  -33.3636 H   0  0  0  0  0  0  0  0  0  0  0  0
    1.2562   20.2417  -36.3440 H   0  0  0  0  0  0  0  0  0  0  0  0
    0.2333   18.0103  -35.8887 H   0  0  0  0  0  0  0  0  0  0  0  0
   -3.8873   20.0705  -33.4766 H   0  0  0  0  0  0  0  0  0  0  0  0
   -4.5643   22.2247  -32.4190 H   0  0  0  0  0  0  0  0  0  0  0  0
  1  2  1  0
  2  3  2  0
  3  4  1  0
  4  5  2  3
  5  6  1  0
  6  7  2  0
  6  8  2  0
  6  9  1  0
  9 10  2  0
 10 11  1  0
 11 12  2  0
 12 13  1  0
 13 14  1  0
 14 15  2  0
 14 16  1  0
 16 17  1  0
 17 18  1  0
 18 19  2  0
 19 20  1  0
 20 21  2  0
 21 22  1  0
 21 23  1  0
 23 24  2  0
 12 25  1  0
 25 26  2  0
  4 27  1  0
 27 28  1  0
 28  2  1  0
 26  9  1  0
 24 18  1  0
  1 29  1  0
  1 30  1  0
  1 31  1  0
  3 32  1  0
 10 33  1  0
 11 34  1  0
 16 35  1  0
 17 36  1  0
 17 37  1  0
 19 38  1  0
 20 39  1  0
 23 40  1  0
 24 41  1  0
 25 42  1  0
 26 43  1  0
M  CHG  2  13  -1  27  -1
M  END
>  <UniqueID>  (44) 
42

>  <SMILES>  (44) 
Cc1cc(=NS(=O)(=O)c2ccc([N-]C(=O)NCc3ccc(F)cc3)cc2)[n-]o1

>  <Energy>  (44) 
79.74110655424666

>  <Genealogy>  (44) 
Cc1cc(=NS(=O)(=O)c2ccc([N-]C(=O)NCc3ccc(F)cc3)cc2)[n-]o1 (protonated)
Cc1cc(=NS(=O)(=O)c2ccc([N-]C(=O)NCc3ccc(F)cc3)cc2)[n-]o1 (3D coordinates assigned)
Cc1cc(=NS(=O)(=O)c2ccc([N-]C(=O)NCc3ccc(F)cc3)cc2)[n-]o1 (optimized conformer: 79.74110655424666 kcal/mol)

>  <smiles>  (44) 
Cc1cc(=NS(=O)(=O)c2ccc(NC(=O)NCc3ccc(F)cc3)cc2)[nH]o1

>  <score_type>  (44) 
oracle

>  <origin>  (44) 
adgpu

>  <m_score__min__energy>  (44) 
-10.699999999999999

>  <m_primary>  (44) 
energy

$$$$
44:0
     RDKit          3D

 33 34  0  0  0  0  0  0  0  0999 V2000
   -3.3670   21.7390  -32.2980 C   0  0  0  0  0  0  0  0  0  0  0  0
   -3.1080   22.5460  -31.0300 C   0  0  0  0  0  0  0  0  0  0  0  0
   -4.3610   23.2550  -30.5810 C   0  0  0  0  0  0  0  0  0  0  0  0
   -5.5820   22.5610  -30.5560 C   0  0  0  0  0  0  0  0  0  0  0  0
   -6.7570   23.1840  -30.1090 C   0  0  0  0  0  0  0  0  0  0  0  0
   -7.9870   22.4370  -30.1000 N   0  0  0  0  0  0  0  0  0  0  0  0
   -8.7930   21.8800  -31.5320 S   0  0  0  0  0  0  0  0  0  0  0  0
  -10.2250   21.5620  -31.1980 O   0  0  0  0  0  0  0  0  0  0  0  0
   -8.7640   22.9660  -32.5700 O   0  0  0  0  0  0  0  0  0  0  0  0
   -7.9730   20.4610  -32.1740 C   0  0  0  0  0  0  0  0  0  0  0  0
   -8.4210   19.1780  -31.8270 C   0  0  0  0  0  0  0  0  0  0  0  0
   -7.7800   18.0470  -32.3430 C   0  0  0  0  0  0  0  0  0  0  0  0
   -6.6880   18.1930  -33.2040 C   0  0  0  0  0  0  0  0  0  0  0  0
   -6.2350   19.4690  -33.5480 C   0  0  0  0  0  0  0  0  0  0  0  0
   -6.8740   20.6020  -33.0340 C   0  0  0  0  0  0  0  0  0  0  0  0
   -6.6990   24.5240  -29.6830 C   0  0  0  0  0  0  0  0  0  0  0  0
   -5.4840   25.2140  -29.6890 C   0  0  0  0  0  0  0  0  0  0  0  0
   -4.3170   24.5860  -30.1280 C   0  0  0  0  0  0  0  0  0  0  0  0
   -3.1180   25.2910  -30.1110 O   0  0  0  0  0  0  0  0  0  0  0  0
   -3.6928   20.7240  -32.0265 H   0  0  0  0  0  0  0  0  0  0  0  0
   -4.1527   22.2299  -32.8910 H   0  0  0  0  0  0  0  0  0  0  0  0
   -2.4423   21.6810  -32.8910 H   0  0  0  0  0  0  0  0  0  0  0  0
   -2.7726   21.8667  -30.2325 H   0  0  0  0  0  0  0  0  0  0  0  0
   -2.3343   23.2984  -31.2428 H   0  0  0  0  0  0  0  0  0  0  0  0
   -5.6175   21.5141  -30.8917 H   0  0  0  0  0  0  0  0  0  0  0  0
   -8.4790   22.2810  -29.1910 H   0  0  0  0  0  0  0  0  0  0  0  0
   -9.2782   19.0610  -31.1477 H   0  0  0  0  0  0  0  0  0  0  0  0
   -8.1352   17.0420  -32.0713 H   0  0  0  0  0  0  0  0  0  0  0  0
   -6.1855   17.3030  -33.6106 H   0  0  0  0  0  0  0  0  0  0  0  0
   -5.3747   19.5828  -34.2240 H   0  0  0  0  0  0  0  0  0  0  0  0
   -6.5140   21.6055  -33.3047 H   0  0  0  0  0  0  0  0  0  0  0  0
   -7.6145   25.0306  -29.3437 H   0  0  0  0  0  0  0  0  0  0  0  0
   -5.4468   26.2584  -29.3457 H   0  0  0  0  0  0  0  0  0  0  0  0
  1  2  1  0
  2  3  1  0
  3  4  2  0
  4  5  1  0
  5  6  1  0
  6  7  1  0
  7  8  2  0
  7  9  2  0
  7 10  1  0
 10 11  2  0
 11 12  1  0
 12 13  2  0
 13 14  1  0
 14 15  2  0
  5 16  2  0
 16 17  1  0
 17 18  2  0
 18 19  1  0
 18  3  1  0
 15 10  1  0
  1 20  1  0
  1 21  1  0
  1 22  1  0
  2 23  1  0
  2 24  1  0
  4 25  1  0
  6 26  1  0
 11 27  1  0
 12 28  1  0
 13 29  1  0
 14 30  1  0
 15 31  1  0
 16 32  1  0
 17 33  1  0
M  CHG  1  19  -1
M  END
>  <UniqueID>  (45) 
43

>  <SMILES>  (45) 
CCc1cc(NS(=O)(=O)c2ccccc2)ccc1[O-]

>  <Energy>  (45) 
33.42058106280659

>  <Genealogy>  (45) 
CCc1cc(NS(=O)(=O)c2ccccc2)ccc1[O-] (protonated)
CCc1cc(NS(=O)(=O)c2ccccc2)ccc1[O-] (3D coordinates assigned)
CCc1cc(NS(=O)(=O)c2ccccc2)ccc1[O-] (optimized conformer: 33.42058106280659 kcal/mol)

>  <smiles>  (45) 
CCc1cc(NS(=O)(=O)c2ccccc2)ccc1O

>  <score_type>  (45) 
oracle

>  <origin>  (45) 
adgpu

>  <m_score__min__energy>  (45) 
-11.08

>  <m_primary>  (45) 
energy

$$$$
45:0
     RDKit          3D

 48 51  0  0  0  0  0  0  0  0999 V2000
   -9.8435   20.4014  -30.9368 H   0  0  0  0  0  0  0  0  0  0  0  0
   -9.0340   19.9550  -31.5330 C   0  0  0  0  0  0  0  0  0  0  0  0
   -8.5600   18.6780  -31.2220 C   0  0  0  0  0  0  0  0  0  0  0  0
   -8.9967   18.1196  -30.3808 H   0  0  0  0  0  0  0  0  0  0  0  0
   -7.5310   18.1090  -31.9790 C   0  0  0  0  0  0  0  0  0  0  0  0
   -7.1592   17.1045  -31.7284 H   0  0  0  0  0  0  0  0  0  0  0  0
   -6.9680   18.8140  -33.0600 C   0  0  0  0  0  0  0  0  0  0  0  0
   -5.9150   18.2180  -33.8500 N   0  0  0  0  0  0  0  0  0  0  0  0
   -4.6350   18.8690  -33.9890 C   0  0  0  0  0  0  0  0  0  0  0  0
   -3.8640   18.5260  -34.9280 O   0  0  0  0  0  0  0  0  0  0  0  0
   -4.1990   19.9320  -33.0520 C   0  0  0  0  0  0  0  0  0  0  0  0
   -3.2320   19.6540  -32.0710 C   0  0  0  0  0  0  0  0  0  0  0  0
   -2.8012   18.6444  -31.9991 H   0  0  0  0  0  0  0  0  0  0  0  0
   -2.8140   20.6520  -31.1860 C   0  0  0  0  0  0  0  0  0  0  0  0
   -2.0509   20.4244  -30.4271 H   0  0  0  0  0  0  0  0  0  0  0  0
   -3.3610   21.9420  -31.2590 C   0  0  0  0  0  0  0  0  0  0  0  0
   -2.9130   22.9920  -30.3230 C   0  0  0  0  0  0  0  0  0  0  0  0
   -3.3540   24.2670  -30.3380 N   0  0  0  0  0  0  0  0  0  0  0  0
   -2.7260   24.8940  -29.3560 N   0  0  0  0  0  0  0  0  0  0  0  0
   -1.9230   23.9760  -28.7860 C   0  0  0  0  0  0  0  0  0  0  0  0
   -1.1490   24.1930  -27.7640 N   0  0  0  0  0  0  0  0  0  0  0  0
   -0.9380   25.4500  -27.1020 C   0  0  0  0  0  0  0  0  0  0  0  0
   -0.6870   26.5850  -27.8840 C   0  0  0  0  0  0  0  0  0  0  0  0
   -0.6416   26.4942  -28.9793 H   0  0  0  0  0  0  0  0  0  0  0  0
   -0.4940   27.8310  -27.2830 C   0  0  0  0  0  0  0  0  0  0  0  0
   -0.2770   28.7124  -27.9043 H   0  0  0  0  0  0  0  0  0  0  0  0
   -0.5760   27.9600  -25.8940 C   0  0  0  0  0  0  0  0  0  0  0  0
   -0.4039   28.9391  -25.4230 H   0  0  0  0  0  0  0  0  0  0  0  0
   -0.8770   26.8450  -25.0990 C   0  0  0  0  0  0  0  0  0  0  0  0
   -0.9540   26.9800  -23.6070 C   0  0  0  0  0  0  0  0  0  0  0  0
   -0.4618   26.1170  -23.1349 H   0  0  0  0  0  0  0  0  0  0  0  0
   -0.4482   27.9060  -23.2960 H   0  0  0  0  0  0  0  0  0  0  0  0
   -2.0085   27.0160  -23.2960 H   0  0  0  0  0  0  0  0  0  0  0  0
   -1.0520   25.5900  -25.7050 C   0  0  0  0  0  0  0  0  0  0  0  0
   -1.2796   24.7107  -25.0845 H   0  0  0  0  0  0  0  0  0  0  0  0
   -2.0320   22.8060  -29.3660 O   0  0  0  0  0  0  0  0  0  0  0  0
   -4.3390   22.2160  -32.2280 C   0  0  0  0  0  0  0  0  0  0  0  0
   -4.7791   23.2222  -32.2906 H   0  0  0  0  0  0  0  0  0  0  0  0
   -4.7570   21.2200  -33.1130 C   0  0  0  0  0  0  0  0  0  0  0  0
   -5.5289   21.4455  -33.8635 H   0  0  0  0  0  0  0  0  0  0  0  0
   -6.1190   16.9080  -34.4790 C   0  0  0  0  0  0  0  0  0  0  0  0
   -6.2384   16.1414  -33.6992 H   0  0  0  0  0  0  0  0  0  0  0  0
   -7.0232   16.9385  -35.1047 H   0  0  0  0  0  0  0  0  0  0  0  0
   -5.2483   16.6621  -35.1047 H   0  0  0  0  0  0  0  0  0  0  0  0
   -7.4520   20.1000  -33.3620 C   0  0  0  0  0  0  0  0  0  0  0  0
   -7.0193   20.6641  -34.2014 H   0  0  0  0  0  0  0  0  0  0  0  0
   -8.4800   20.6650  -32.6010 C   0  0  0  0  0  0  0  0  0  0  0  0
   -8.8533   21.6708  -32.8438 H   0  0  0  0  0  0  0  0  0  0  0  0
  1  2  1  0
  2  3  2  0
  3  4  1  0
  3  5  1  0
  5  6  1  0
  5  7  2  0
  7  8  1  0
  8  9  1  0
  9 10  2  0
  9 11  1  0
 11 12  2  0
 12 13  1  0
 12 14  1  0
 14 15  1  0
 14 16  2  0
 16 17  1  0
 17 18  2  0
 18 19  1  0
 19 20  1  0
 20 21  2  0
 21 22  1  0
 22 23  2  0
 23 24  1  0
 23 25  1  0
 25 26  1  0
 25 27  2  0
 27 28  1  0
 27 29  1  0
 29 30  1  0
 30 31  1  0
 30 32  1  0
 30 33  1  0
 29 34  2  0
 34 35  1  0
 20 36  1  0
 16 37  1  0
 37 38  1  0
 37 39  2  0
 39 40  1  0
  8 41  1  0
 41 42  1  0
 41 43  1  0
 41 44  1  0
  7 45  1  0
 45 46  1  0
 45 47  2  0
 47 48  1  0
 47  2  1  0
 39 11  1  0
 36 17  1  0
 34 22  1  0
M  CHG  1  19  -1
M  END
>  <UniqueID>  (46) 
44

>  <SMILES>  (46) 
Cc1cccc(/N=c2\[n-]nc(-c3ccc(C(=O)N(C)c4ccccc4)cc3)o2)c1

>  <Energy>  (46) 
101.67354629346688

>  <Genealogy>  (46) 
Cc1cccc(N=c2[n-]nc(-c3ccc(C(=O)N(C)c4ccccc4)cc3)o2)c1 (protonated)
Cc1cccc(/N=c2\[n-]nc(-c3ccc(C(=O)N(C)c4ccccc4)cc3)o2)c1 (cis-trans isomerization)
Cc1cccc(/N=c2\[n-]nc(-c3ccc(C(=O)N(C)c4ccccc4)cc3)o2)c1 (3D coordinates assigned)
Cc1cccc(/N=c2\[n-]nc(-c3ccc(C(=O)N(C)c4ccccc4)cc3)o2)c1 (optimized conformer: 101.67354629346688 kcal/mol)

>  <smiles>  (46) 
Cc1cccc(N=c2[nH]nc(-c3ccc(C(=O)N(C)c4ccccc4)cc3)o2)c1

>  <score_type>  (46) 
oracle

>  <origin>  (46) 
adgpu

>  <m_score__min__energy>  (46) 
-10.279999999999999

>  <m_primary>  (46) 
energy

$$$$
46:0
     RDKit          3D

 42 44  0  0  0  0  0  0  0  0999 V2000
   -0.7560   20.0430  -29.0950 C   0  0  0  0  0  0  0  0  0  0  0  0
   -0.3220   21.1320  -30.0750 C   0  0  0  0  0  0  0  0  0  0  0  0
   -1.2500   22.3140  -30.0680 C   0  0  0  0  0  0  0  0  0  0  0  0
   -1.0260   23.3000  -29.3140 O   0  0  0  0  0  0  0  0  0  0  0  0
   -2.3480   22.3520  -30.9840 N   0  0  0  0  0  0  0  0  0  0  0  0
   -3.4530   23.2450  -30.8150 C   0  0  0  0  0  0  0  0  0  0  0  0
   -4.6840   23.4370  -31.4260 C   0  0  0  0  0  0  0  0  0  0  0  0
   -5.3890   22.8540  -32.5320 N   0  0  0  0  0  0  0  0  0  0  0  0
   -6.2670   21.7290  -32.3700 C   0  0  0  0  0  0  0  0  0  0  0  0
   -7.5900   21.9540  -31.9530 C   0  0  0  0  0  0  0  0  0  0  0  0
   -8.4580   20.8870  -31.7260 C   0  0  0  0  0  0  0  0  0  0  0  0
   -8.0150   19.5790  -31.8990 C   0  0  0  0  0  0  0  0  0  0  0  0
   -9.1070   18.2370  -31.6080 Cl  0  0  0  0  0  0  0  0  0  0  0  0
   -6.7040   19.3360  -32.3160 C   0  0  0  0  0  0  0  0  0  0  0  0
   -5.8130   20.3990  -32.5670 C   0  0  0  0  0  0  0  0  0  0  0  0
   -4.4540   20.0810  -33.0860 C   0  0  0  0  0  0  0  0  0  0  0  0
   -3.4410   20.9740  -33.1550 N   0  0  0  0  0  0  0  0  0  0  0  0
   -2.4290   20.2760  -33.6960 C   0  0  0  0  0  0  0  0  0  0  0  0
   -1.0980   20.8330  -33.9560 C   0  0  0  0  0  0  0  0  0  0  0  0
   -0.5320   21.5450  -33.0800 O   0  0  0  0  0  0  0  0  0  0  0  0
   -0.4710   20.5780  -35.1780 O   0  0  0  0  0  0  0  0  0  0  0  0
    0.3590   21.5360  -35.8240 C   0  0  0  0  0  0  0  0  0  0  0  0
   -2.8390   18.9900  -33.9510 C   0  0  0  0  0  0  0  0  0  0  0  0
   -4.1200   18.8610  -33.5670 N   0  0  0  0  0  0  0  0  0  0  0  0
   -4.9430   24.4860  -30.5700 C   0  0  0  0  0  0  0  0  0  0  0  0
   -5.8990   25.2850  -30.4120 O   0  0  0  0  0  0  0  0  0  0  0  0
   -3.6940   24.3340  -30.0020 C   0  0  0  0  0  0  0  0  0  0  0  0
   -3.0440   24.9380  -29.1090 O   0  0  0  0  0  0  0  0  0  0  0  0
   -0.6139   20.3996  -28.0641 H   0  0  0  0  0  0  0  0  0  0  0  0
   -1.8176   19.8052  -29.2577 H   0  0  0  0  0  0  0  0  0  0  0  0
   -0.1489   19.1402  -29.2577 H   0  0  0  0  0  0  0  0  0  0  0  0
    0.6866   21.4735  -29.7992 H   0  0  0  0  0  0  0  0  0  0  0  0
   -0.3393   20.6988  -31.0860 H   0  0  0  0  0  0  0  0  0  0  0  0
   -2.3200   21.7470  -31.8360 H   0  0  0  0  0  0  0  0  0  0  0  0
   -5.1120   23.1410  -33.4970 H   0  0  0  0  0  0  0  0  0  0  0  0
   -7.9450   22.9844  -31.8039 H   0  0  0  0  0  0  0  0  0  0  0  0
   -9.4939   21.0790  -31.4099 H   0  0  0  0  0  0  0  0  0  0  0  0
   -6.3618   18.2993  -32.4505 H   0  0  0  0  0  0  0  0  0  0  0  0
    0.8813   22.1388  -35.0665 H   0  0  0  0  0  0  0  0  0  0  0  0
    1.0975   21.0168  -36.4525 H   0  0  0  0  0  0  0  0  0  0  0  0
   -0.2601   22.1931  -36.4525 H   0  0  0  0  0  0  0  0  0  0  0  0
   -2.2205   18.1967  -34.3962 H   0  0  0  0  0  0  0  0  0  0  0  0
  1  2  1  0
  2  3  1  0
  3  4  2  0
  3  5  1  0
  5  6  1  0
  6  7  2  0
  7  8  1  0
  8  9  1  0
  9 10  2  0
 10 11  1  0
 11 12  2  0
 12 13  1  0
 12 14  1  0
 14 15  2  0
 15 16  1  0
 16 17  2  0
 17 18  1  0
 18 19  1  0
 19 20  2  0
 19 21  1  0
 21 22  1  0
 18 23  2  0
 23 24  1  0
  7 25  1  0
 25 26  2  0
 25 27  1  0
 27 28  2  0
 27  6  1  0
 15  9  1  0
 24 16  1  0
  1 29  1  0
  1 30  1  0
  1 31  1  0
  2 32  1  0
  2 33  1  0
  5 34  1  0
  8 35  1  0
 10 36  1  0
 11 37  1  0
 14 38  1  0
 22 39  1  0
 22 40  1  0
 22 41  1  0
 23 42  1  0
M  CHG  1  24  -1
M  END
>  <UniqueID>  (47) 
45

>  <SMILES>  (47) 
CCC(=O)Nc1c(Nc2ccc(Cl)cc2-c2nc(C(=O)OC)c[n-]2)c(=O)c1=O

>  <Energy>  (47) 
63.379458607169184

>  <Genealogy>  (47) 
CCC(=O)Nc1c(Nc2ccc(Cl)cc2-c2nc(C(=O)OC)c[n-]2)c(=O)c1=O (protonated)
CCC(=O)Nc1c(Nc2ccc(Cl)cc2-c2nc(C(=O)OC)c[n-]2)c(=O)c1=O (3D coordinates assigned)
CCC(=O)Nc1c(Nc2ccc(Cl)cc2-c2nc(C(=O)OC)c[n-]2)c(=O)c1=O (optimized conformer: 63.379458607169184 kcal/mol)

>  <smiles>  (47) 
CCC(=O)Nc1c(Nc2ccc(Cl)cc2-c2nc(C(=O)OC)c[nH]2)c(=O)c1=O

>  <score_type>  (47) 
oracle

>  <origin>  (47) 
adgpu

>  <m_score__min__energy>  (47) 
-9.1500000000000004

>  <m_primary>  (47) 
energy

$$$$
47:0
     RDKit          3D

 46 50  0  0  0  0  0  0  0  0999 V2000
    1.9340   15.4050  -27.2140 C   0  0  0  0  0  0  0  0  0  0  0  0
    1.2280   16.6320  -27.7110 C   0  0  0  0  0  0  0  0  0  0  0  0
    1.7840   17.3930  -28.7510 C   0  0  0  0  0  0  0  0  0  0  0  0
    1.1490   18.5570  -29.1920 C   0  0  0  0  0  0  0  0  0  0  0  0
   -0.0410   18.9810  -28.5920 C   0  0  0  0  0  0  0  0  0  0  0  0
   -0.6350   20.0880  -29.0220 O   0  0  0  0  0  0  0  0  0  0  0  0
   -1.7710   20.5550  -28.5030 C   0  0  0  0  0  0  0  0  0  0  0  0
   -2.3490   21.8040  -29.0610 C   0  0  0  0  0  0  0  0  0  0  0  0
   -2.6290   21.9410  -30.4330 C   0  0  0  0  0  0  0  0  0  0  0  0
   -3.1660   23.1310  -30.9340 C   0  0  0  0  0  0  0  0  0  0  0  0
   -3.4310   24.2100  -30.0720 C   0  0  0  0  0  0  0  0  0  0  0  0
   -3.9780   25.4250  -30.5210 O   0  0  0  0  0  0  0  0  0  0  0  0
   -5.3610   25.6610  -30.7750 C   0  0  0  0  0  0  0  0  0  0  0  0
   -6.1300   24.3800  -30.7180 C   0  0  0  0  0  0  0  0  0  0  0  0
   -6.9950   24.0610  -29.7370 N   0  0  0  0  0  0  0  0  0  0  0  0
   -7.4560   22.8550  -30.0300 N   0  0  0  0  0  0  0  0  0  0  0  0
   -6.8530   22.4890  -31.1760 C   0  0  0  0  0  0  0  0  0  0  0  0
   -7.0770   21.2090  -31.8550 C   0  0  0  0  0  0  0  0  0  0  0  0
   -6.2050   20.6000  -32.7470 C   0  0  0  0  0  0  0  0  0  0  0  0
   -6.6840   19.3780  -33.2360 C   0  0  0  0  0  0  0  0  0  0  0  0
   -7.9290   19.0250  -32.7300 C   0  0  0  0  0  0  0  0  0  0  0  0
   -8.4350   20.2320  -31.6740 S   0  0  0  0  0  0  0  0  0  0  0  0
   -6.0370   23.4210  -31.6060 O   0  0  0  0  0  0  0  0  0  0  0  0
   -3.1360   24.0810  -28.7120 C   0  0  0  0  0  0  0  0  0  0  0  0
   -2.5980   22.8930  -28.2090 C   0  0  0  0  0  0  0  0  0  0  0  0
   -2.3790   19.8680  -27.4370 C   0  0  0  0  0  0  0  0  0  0  0  0
   -1.7900   18.6990  -26.9530 C   0  0  0  0  0  0  0  0  0  0  0  0
   -2.3330   18.0800  -25.9970 O   0  0  0  0  0  0  0  0  0  0  0  0
   -0.6010   18.2330  -27.5340 C   0  0  0  0  0  0  0  0  0  0  0  0
    0.0430   17.0620  -27.0930 C   0  0  0  0  0  0  0  0  0  0  0  0
    1.9352   15.4029  -26.1140 H   0  0  0  0  0  0  0  0  0  0  0  0
    1.4137   14.5083  -27.5818 H   0  0  0  0  0  0  0  0  0  0  0  0
    2.9707   15.4042  -27.5818 H   0  0  0  0  0  0  0  0  0  0  0  0
    2.7248   17.0714  -29.2215 H   0  0  0  0  0  0  0  0  0  0  0  0
    1.5868   19.1420  -30.0142 H   0  0  0  0  0  0  0  0  0  0  0  0
   -2.4237   21.1048  -31.1175 H   0  0  0  0  0  0  0  0  0  0  0  0
   -3.3824   23.2236  -32.0085 H   0  0  0  0  0  0  0  0  0  0  0  0
   -5.7552   26.3539  -30.0170 H   0  0  0  0  0  0  0  0  0  0  0  0
   -5.4690   26.0963  -31.7794 H   0  0  0  0  0  0  0  0  0  0  0  0
   -5.2370   21.0328  -33.0398 H   0  0  0  0  0  0  0  0  0  0  0  0
   -6.1272   18.7566  -33.9528 H   0  0  0  0  0  0  0  0  0  0  0  0
   -8.4887   18.1111  -32.9781 H   0  0  0  0  0  0  0  0  0  0  0  0
   -3.3291   24.9227  -28.0307 H   0  0  0  0  0  0  0  0  0  0  0  0
   -2.3675   22.8100  -27.1366 H   0  0  0  0  0  0  0  0  0  0  0  0
   -3.3091   20.2481  -26.9894 H   0  0  0  0  0  0  0  0  0  0  0  0
   -0.3834   16.4818  -26.2614 H   0  0  0  0  0  0  0  0  0  0  0  0
  1  2  1  0
  2  3  2  0
  3  4  1  0
  4  5  2  0
  5  6  1  0
  6  7  1  0
  7  8  1  0
  8  9  2  0
  9 10  1  0
 10 11  2  0
 11 12  1  0
 12 13  1  0
 13 14  1  0
 14 15  2  0
 15 16  1  0
 16 17  2  0
 17 18  1  0
 18 19  2  0
 19 20  1  0
 20 21  2  0
 21 22  1  0
 17 23  1  0
 11 24  1  0
 24 25  2  0
  7 26  2  0
 26 27  1  0
 27 28  2  0
 27 29  1  0
 29 30  2  0
 30  2  1  0
 29  5  1  0
 25  8  1  0
 23 14  1  0
 22 18  1  0
  1 31  1  0
  1 32  1  0
  1 33  1  0
  3 34  1  0
  4 35  1  0
  9 36  1  0
 10 37  1  0
 13 38  1  0
 13 39  1  0
 19 40  1  0
 20 41  1  0
 21 42  1  0
 24 43  1  0
 25 44  1  0
 26 45  1  0
 30 46  1  0
M  END
>  <UniqueID>  (48) 
46

>  <SMILES>  (48) 
Cc1ccc2oc(-c3ccc(OCc4nnc(-c5cccs5)o4)cc3)cc(=O)c2c1

>  <Energy>  (48) 
119.15898682978272

>  <Genealogy>  (48) 
Cc1ccc2oc(-c3ccc(OCc4nnc(-c5cccs5)o4)cc3)cc(=O)c2c1 (3D coordinates assigned)
Cc1ccc2oc(-c3ccc(OCc4nnc(-c5cccs5)o4)cc3)cc(=O)c2c1 (optimized conformer: 119.15898682978272 kcal/mol)

>  <smiles>  (48) 
Cc1ccc2oc(-c3ccc(OCc4nnc(-c5cccs5)o4)cc3)cc(=O)c2c1

>  <score_type>  (48) 
oracle

>  <origin>  (48) 
adgpu

>  <m_score__min__energy>  (48) 
-9.5099999999999998

>  <m_primary>  (48) 
energy

$$$$
48:0
     RDKit          3D

 42 44  0  0  0  0  0  0  0  0999 V2000
   -9.6570   21.5600  -30.2280 C   0  0  0  0  0  0  0  0  0  0  0  0
   -8.8160   20.8980  -31.2790 C   0  0  0  0  0  0  0  0  0  0  0  0
   -8.7800   19.5000  -31.3800 C   0  0  0  0  0  0  0  0  0  0  0  0
   -7.9670   18.8800  -32.3320 C   0  0  0  0  0  0  0  0  0  0  0  0
   -7.1660   19.6510  -33.1960 C   0  0  0  0  0  0  0  0  0  0  0  0
   -6.3120   19.0490  -34.1850 N   0  0  0  0  0  0  0  0  0  0  0  0
   -4.7640   18.3480  -33.8330 S   0  0  0  0  0  0  0  0  0  0  0  0
   -4.9380   17.2400  -32.8310 O   0  0  0  0  0  0  0  0  0  0  0  0
   -4.1530   17.7830  -35.0850 O   0  0  0  0  0  0  0  0  0  0  0  0
   -3.6970   19.5990  -33.1750 C   0  0  0  0  0  0  0  0  0  0  0  0
   -4.2710   20.7320  -32.5740 C   0  0  0  0  0  0  0  0  0  0  0  0
   -3.4710   21.7530  -32.0380 C   0  0  0  0  0  0  0  0  0  0  0  0
   -4.1120   22.9320  -31.4100 C   0  0  0  0  0  0  0  0  0  0  0  0
   -5.4120   23.0360  -30.9470 C   0  0  0  0  0  0  0  0  0  0  0  0
   -5.4830   24.3290  -30.4720 C   0  0  0  0  0  0  0  0  0  0  0  0
   -6.6570   24.9510  -29.7950 C   0  0  0  0  0  0  0  0  0  0  0  0
   -4.2940   24.9390  -30.6290 N   0  0  0  0  0  0  0  0  0  0  0  0
   -3.5030   24.0760  -31.1980 O   0  0  0  0  0  0  0  0  0  0  0  0
   -2.0760   21.6310  -32.1060 C   0  0  0  0  0  0  0  0  0  0  0  0
   -1.4920   20.5150  -32.7070 C   0  0  0  0  0  0  0  0  0  0  0  0
   -2.2870   19.4970  -33.2580 C   0  0  0  0  0  0  0  0  0  0  0  0
   -1.6090   18.3050  -33.8830 C   0  0  0  0  0  0  0  0  0  0  0  0
   -7.1880   21.0500  -33.0740 C   0  0  0  0  0  0  0  0  0  0  0  0
   -8.0020   21.6680  -32.1210 C   0  0  0  0  0  0  0  0  0  0  0  0
   -9.2916   21.2724  -29.2311 H   0  0  0  0  0  0  0  0  0  0  0  0
   -9.5925   22.6523  -30.3411 H   0  0  0  0  0  0  0  0  0  0  0  0
  -10.7036   21.2408  -30.3411 H   0  0  0  0  0  0  0  0  0  0  0  0
   -9.3959   18.8874  -30.7052 H   0  0  0  0  0  0  0  0  0  0  0  0
   -7.9525   17.7827  -32.4071 H   0  0  0  0  0  0  0  0  0  0  0  0
   -6.6470   18.9830  -35.1710 H   0  0  0  0  0  0  0  0  0  0  0  0
   -5.3663   20.8203  -32.5227 H   0  0  0  0  0  0  0  0  0  0  0  0
   -6.2011   22.2697  -30.9557 H   0  0  0  0  0  0  0  0  0  0  0  0
   -6.5296   24.8835  -28.7045 H   0  0  0  0  0  0  0  0  0  0  0  0
   -6.7332   26.0078  -30.0905 H   0  0  0  0  0  0  0  0  0  0  0  0
   -7.5742   24.4205  -30.0905 H   0  0  0  0  0  0  0  0  0  0  0  0
   -1.4374   22.4203  -31.6827 H   0  0  0  0  0  0  0  0  0  0  0  0
   -0.3960   20.4318  -32.7496 H   0  0  0  0  0  0  0  0  0  0  0  0
   -1.2314   17.6411  -33.0914 H   0  0  0  0  0  0  0  0  0  0  0  0
   -2.3311   17.7579  -34.5069 H   0  0  0  0  0  0  0  0  0  0  0  0
   -0.7697   18.6460  -34.5069 H   0  0  0  0  0  0  0  0  0  0  0  0
   -6.5589   21.6647  -33.7345 H   0  0  0  0  0  0  0  0  0  0  0  0
   -8.0039   22.7643  -32.0312 H   0  0  0  0  0  0  0  0  0  0  0  0
  1  2  1  0
  2  3  2  0
  3  4  1  0
  4  5  2  0
  5  6  1  0
  6  7  1  0
  7  8  2  0
  7  9  2  0
  7 10  1  0
 10 11  2  0
 11 12  1  0
 12 13  1  0
 13 14  2  0
 14 15  1  0
 15 16  1  0
 15 17  2  0
 17 18  1  0
 12 19  2  0
 19 20  1  0
 20 21  2  0
 21 22  1  0
  5 23  1  0
 23 24  2  0
 24  2  1  0
 21 10  1  0
 18 13  1  0
  1 25  1  0
  1 26  1  0
  1 27  1  0
  3 28  1  0
  4 29  1  0
  6 30  1  0
 11 31  1  0
 14 32  1  0
 16 33  1  0
 16 34  1  0
 16 35  1  0
 19 36  1  0
 20 37  1  0
 22 38  1  0
 22 39  1  0
 22 40  1  0
 23 41  1  0
 24 42  1  0
M  END
>  <UniqueID>  (49) 
47

>  <SMILES>  (49) 
Cc1ccc(NS(=O)(=O)c2cc(-c3cc(C)no3)ccc2C)cc1

>  <Energy>  (49) 
78.15544670695824

>  <Genealogy>  (49) 
Cc1ccc(NS(=O)(=O)c2cc(-c3cc(C)no3)ccc2C)cc1 (3D coordinates assigned)
Cc1ccc(NS(=O)(=O)c2cc(-c3cc(C)no3)ccc2C)cc1 (optimized conformer: 78.15544670695824 kcal/mol)

>  <smiles>  (49) 
Cc1ccc(NS(=O)(=O)c2cc(-c3cc(C)no3)ccc2C)cc1

>  <score_type>  (49) 
oracle

>  <origin>  (49) 
adgpu

>  <m_score__min__energy>  (49) 
-9.6500000000000004

>  <m_primary>  (49) 
energy

$$$$
49:0
     RDKit          3D

 45 48  0  0  0  0  0  0  0  0999 V2000
   -8.0690   22.1970  -30.0900 C   0  0  0  0  0  0  0  0  0  0  0  0
   -8.1900   22.0080  -31.6070 C   0  0  1  0  0  0  0  0  0  0  0  0
   -7.3220   23.3330  -32.5380 S   0  0  0  0  0  0  0  0  0  0  0  0
   -6.3550   24.0070  -31.1770 C   0  0  0  0  0  0  0  0  0  0  0  0
   -6.7440   25.0780  -30.4600 N   0  0  0  0  0  0  0  0  0  0  0  0
   -5.7930   25.3110  -29.5690 N   0  0  0  0  0  0  0  0  0  0  0  0
   -4.8420   24.3710  -29.7430 C   0  0  0  0  0  0  0  0  0  0  0  0
   -3.6350   24.2870  -28.8920 C   0  0  0  0  0  0  0  0  0  0  0  0
   -2.3670   24.2100  -29.4900 C   0  0  0  0  0  0  0  0  0  0  0  0
   -1.2160   24.1400  -28.6980 C   0  0  0  0  0  0  0  0  0  0  0  0
   -1.3220   24.1610  -27.3060 C   0  0  0  0  0  0  0  0  0  0  0  0
   -2.5770   24.2600  -26.7020 C   0  0  0  0  0  0  0  0  0  0  0  0
   -3.7310   24.3300  -27.4900 C   0  0  0  0  0  0  0  0  0  0  0  0
   -5.1690   23.5260  -30.7480 N   0  0  0  0  0  0  0  0  0  0  0  0
   -4.4040   22.4420  -31.3040 C   0  0  0  0  0  0  0  0  0  0  0  0
   -3.8340   21.4710  -30.4620 C   0  0  0  0  0  0  0  0  0  0  0  0
   -3.0870   20.4210  -31.0020 C   0  0  0  0  0  0  0  0  0  0  0  0
   -2.9040   20.3320  -32.3850 C   0  0  0  0  0  0  0  0  0  0  0  0
   -3.4700   21.2910  -33.2290 C   0  0  0  0  0  0  0  0  0  0  0  0
   -4.2180   22.3420  -32.6910 C   0  0  0  0  0  0  0  0  0  0  0  0
   -7.8030   20.6250  -32.1050 C   0  0  0  0  0  0  0  0  0  0  0  0
   -8.5060   19.5080  -31.6160 C   0  0  0  0  0  0  0  0  0  0  0  0
   -8.2070   18.2220  -32.0730 C   0  0  0  0  0  0  0  0  0  0  0  0
   -7.2090   18.0330  -33.0320 C   0  0  0  0  0  0  0  0  0  0  0  0
   -6.9240   16.7850  -33.4770 F   0  0  0  0  0  0  0  0  0  0  0  0
   -6.5130   19.1320  -33.5380 C   0  0  0  0  0  0  0  0  0  0  0  0
   -6.8060   20.4210  -33.0830 C   0  0  0  0  0  0  0  0  0  0  0  0
   -8.5932   21.3782  -29.5755 H   0  0  0  0  0  0  0  0  0  0  0  0
   -7.0071   22.1899  -29.8032 H   0  0  0  0  0  0  0  0  0  0  0  0
   -8.5199   23.1585  -29.8032 H   0  0  0  0  0  0  0  0  0  0  0  0
   -9.2668   22.0955  -31.8140 H   0  0  0  0  0  0  0  0  0  0  0  0
   -2.2782   24.2047  -30.5864 H   0  0  0  0  0  0  0  0  0  0  0  0
   -0.2262   24.0683  -29.1725 H   0  0  0  0  0  0  0  0  0  0  0  0
   -0.4163   24.0995  -26.6848 H   0  0  0  0  0  0  0  0  0  0  0  0
   -2.6585   24.2830  -25.6053 H   0  0  0  0  0  0  0  0  0  0  0  0
   -4.7171   24.4190  -27.0108 H   0  0  0  0  0  0  0  0  0  0  0  0
   -3.9768   21.5383  -29.3734 H   0  0  0  0  0  0  0  0  0  0  0  0
   -2.6428   19.6642  -30.3387 H   0  0  0  0  0  0  0  0  0  0  0  0
   -2.3139   19.5063  -32.8092 H   0  0  0  0  0  0  0  0  0  0  0  0
   -3.3268   21.2188  -34.3173 H   0  0  0  0  0  0  0  0  0  0  0  0
   -4.6631   23.0946  -33.3585 H   0  0  0  0  0  0  0  0  0  0  0  0
   -9.2987   19.6489  -30.8665 H   0  0  0  0  0  0  0  0  0  0  0  0
   -8.7586   17.3566  -31.6769 H   0  0  0  0  0  0  0  0  0  0  0  0
   -5.7312   18.9833  -34.2974 H   0  0  0  0  0  0  0  0  0  0  0  0
   -6.2558   21.2822  -33.4900 H   0  0  0  0  0  0  0  0  0  0  0  0
  1  2  1  0
  2  3  1  0
  3  4  1  0
  4  5  2  0
  5  6  1  0
  6  7  2  0
  7  8  1  0
  8  9  2  0
  9 10  1  0
 10 11  2  0
 11 12  1  0
 12 13  2  0
  7 14  1  0
 14 15  1  0
 15 16  2  0
 16 17  1  0
 17 18  2  0
 18 19  1  0
 19 20  2  0
  2 21  1  0
 21 22  2  0
 22 23  1  0
 23 24  2  0
 24 25  1  0
 24 26  1  0
 26 27  2  0
 14  4  1  0
 20 15  1  0
 27 21  1  0
 13  8  1  0
  1 28  1  0
  1 29  1  0
  1 30  1  0
  2 31  1  6
  9 32  1  0
 10 33  1  0
 11 34  1  0
 12 35  1  0
 13 36  1  0
 16 37  1  0
 17 38  1  0
 18 39  1  0
 19 40  1  0
 20 41  1  0
 22 42  1  0
 23 43  1  0
 26 44  1  0
 27 45  1  0
M  END
>  <UniqueID>  (50) 
48

>  <SMILES>  (50) 
C[C@@H](Sc1nnc(-c2ccccc2)n1-c1ccccc1)c1ccc(F)cc1

>  <Energy>  (50) 
90.56818982498825

>  <Genealogy>  (50) 
C[C@@H](Sc1nnc(-c2ccccc2)n1-c1ccccc1)c1ccc(F)cc1 (chirality)
C[C@@H](Sc1nnc(-c2ccccc2)n1-c1ccccc1)c1ccc(F)cc1 (3D coordinates assigned)
C[C@@H](Sc1nnc(-c2ccccc2)n1-c1ccccc1)c1ccc(F)cc1 (optimized conformer: 90.56818982498825 kcal/mol)

>  <smiles>  (50) 
CC(Sc1nnc(-c2ccccc2)n1-c1ccccc1)c1ccc(F)cc1

>  <score_type>  (50) 
oracle

>  <origin>  (50) 
adgpu

>  <m_score__min__energy>  (50) 
-9.0800000000000001

>  <m_primary>  (50) 
energy

$$$$
