0:0
     RDKit          3D

 35 36  0  0  0  0  0  0  0  0999 V2000
   -5.4650   17.2210  -33.2820 C   0  0  0  0  0  0  0  0  0  0  0  0
   -6.9030   17.6830  -33.4790 C   0  0  0  0  0  0  0  0  0  0  0  0
   -7.5480   17.8980  -32.1820 N   0  0  0  0  0  0  0  0  0  0  0  0
   -8.2080   19.5030  -32.0610 S   0  0  0  0  0  0  0  0  0  0  0  0
   -9.0370   19.8010  -33.2800 O   0  0  0  0  0  0  0  0  0  0  0  0
   -9.0980   19.5780  -30.8520 O   0  0  0  0  0  0  0  0  0  0  0  0
   -6.9180   20.6920  -31.9000 C   0  0  0  0  0  0  0  0  0  0  0  0
   -6.9710   21.6680  -30.8960 C   0  0  0  0  0  0  0  0  0  0  0  0
   -5.9560   22.6230  -30.7910 C   0  0  0  0  0  0  0  0  0  0  0  0
   -4.8880   22.6270  -31.6960 C   0  0  0  0  0  0  0  0  0  0  0  0
   -3.8580   23.6150  -31.5410 N   0  0  0  0  0  0  0  0  0  0  0  0
   -3.6980   24.5170  -30.4390 C   0  0  0  0  0  0  0  0  0  0  0  0
   -4.2380   25.6560  -30.4800 O   0  0  0  0  0  0  0  0  0  0  0  0
   -2.9530   24.1010  -29.2180 C   0  0  0  0  0  0  0  0  0  0  0  0
   -3.3490   22.9360  -28.5300 C   0  0  0  0  0  0  0  0  0  0  0  0
   -2.6700   22.5180  -27.3820 C   0  0  0  0  0  0  0  0  0  0  0  0
   -1.5880   23.2540  -26.9020 C   0  0  0  0  0  0  0  0  0  0  0  0
   -1.1830   24.4110  -27.5660 C   0  0  0  0  0  0  0  0  0  0  0  0
   -1.8550   24.8420  -28.7160 C   0  0  0  0  0  0  0  0  0  0  0  0
   -1.4210   26.0070  -29.3390 O   0  0  0  0  0  0  0  0  0  0  0  0
   -4.8260   21.6350  -32.6910 C   0  0  0  0  0  0  0  0  0  0  0  0
   -5.8420   20.6780  -32.7950 C   0  0  0  0  0  0  0  0  0  0  0  0
   -5.2465   17.1508  -32.2062 H   0  0  0  0  0  0  0  0  0  0  0  0
   -5.3297   16.2342  -33.7488 H   0  0  0  0  0  0  0  0  0  0  0  0
   -4.7803   17.9444  -33.7488 H   0  0  0  0  0  0  0  0  0  0  0  0
   -6.9073   18.6248  -34.0474 H   0  0  0  0  0  0  0  0  0  0  0  0
   -7.4561   16.9085  -34.0306 H   0  0  0  0  0  0  0  0  0  0  0  0
   -7.8134   21.6826  -30.1888 H   0  0  0  0  0  0  0  0  0  0  0  0
   -5.9966   23.3771  -29.9912 H   0  0  0  0  0  0  0  0  0  0  0  0
   -4.2022   22.3491  -28.9009 H   0  0  0  0  0  0  0  0  0  0  0  0
   -2.9902   21.6064  -26.8563 H   0  0  0  0  0  0  0  0  0  0  0  0
   -1.0538   22.9220  -25.9995 H   0  0  0  0  0  0  0  0  0  0  0  0
   -0.3292   24.9895  -27.1835 H   0  0  0  0  0  0  0  0  0  0  0  0
   -3.9766   21.6112  -33.3895 H   0  0  0  0  0  0  0  0  0  0  0  0
   -5.7947   19.9120  -33.5831 H   0  0  0  0  0  0  0  0  0  0  0  0
  1  2  1  0
  2  3  1  0
  3  4  1  0
  4  5  2  0
  4  6  2  0
  4  7  1  0
  7  8  2  0
  8  9  1  0
  9 10  2  0
 10 11  1  0
 11 12  1  0
 12 13  2  0
 12 14  1  0
 14 15  2  0
 15 16  1  0
 16 17  2  0
 17 18  1  0
 18 19  2  0
 19 20  1  0
 10 21  1  0
 21 22  2  0
 22  7  1  0
 19 14  1  0
  1 23  1  0
  1 24  1  0
  1 25  1  0
  2 26  1  0
  2 27  1  0
  8 28  1  0
  9 29  1  0
 15 30  1  0
 16 31  1  0
 17 32  1  0
 18 33  1  0
 21 34  1  0
 22 35  1  0
M  CHG  3   3  -1  11  -1  20  -1
M  END
>  <UniqueID>  (1) 
1

>  <SMILES>  (1) 
CC[N-]S(=O)(=O)c1ccc([N-]C(=O)c2ccccc2[O-])cc1

>  <Energy>  (1) 
38.73389323046244

>  <Genealogy>  (1) 
CC[N-]S(=O)(=O)c1ccc([N-]C(=O)c2ccccc2[O-])cc1 (protonated)
CC[N-]S(=O)(=O)c1ccc([N-]C(=O)c2ccccc2[O-])cc1 (3D coordinates assigned)
CC[N-]S(=O)(=O)c1ccc([N-]C(=O)c2ccccc2[O-])cc1 (optimized conformer: 38.73389323046244 kcal/mol)

>  <smiles>  (1) 
CCNS(=O)(=O)c1ccc(NC(=O)c2ccccc2O)cc1

>  <score_type>  (1) 
oracle

>  <origin>  (1) 
adgpu

>  <m_score__min__energy>  (1) 
-11.699999999999999

>  <m_primary>  (1) 
energy

$$$$
1:0
     RDKit          3D

 47 50  0  0  0  0  0  0  0  0999 V2000
   -0.1570   21.4950  -34.4150 C   0  0  0  0  0  0  0  0  0  0  0  0
   -1.1170   21.2210  -33.3020 C   0  0  0  0  0  0  0  0  0  0  0  0
   -0.6710   21.1520  -31.9780 C   0  0  0  0  0  0  0  0  0  0  0  0
   -1.5870   20.8600  -30.9660 C   0  0  0  0  0  0  0  0  0  0  0  0
   -2.9290   20.6340  -31.2800 C   0  0  0  0  0  0  0  0  0  0  0  0
   -3.3450   20.7050  -32.6190 C   0  0  0  0  0  0  0  0  0  0  0  0
   -4.7570   20.4630  -33.0050 C   0  0  0  0  0  0  0  0  0  0  0  0
   -5.1760   19.4520  -33.7930 N   0  0  0  0  0  0  0  0  0  0  0  0
   -6.4950   19.4860  -33.8990 N   0  0  0  0  0  0  0  0  0  0  0  0
   -6.9460   20.5250  -33.1710 C   0  0  0  0  0  0  0  0  0  0  0  0
   -5.8740   21.1690  -32.5830 C   0  0  0  0  0  0  0  0  0  0  0  0
   -5.9310   22.3910  -31.7500 C   0  0  0  0  0  0  0  0  0  0  0  0
   -4.7430   23.1020  -31.5140 C   0  0  0  0  0  0  0  0  0  0  0  0
   -4.7350   24.2370  -30.6990 C   0  0  0  0  0  0  0  0  0  0  0  0
   -3.4910   24.9150  -30.4740 N   0  0  0  0  0  0  0  0  0  0  0  0
   -2.5950   24.6980  -29.3770 C   0  0  0  0  0  0  0  0  0  0  0  0
   -1.8540   25.6310  -28.9660 O   0  0  0  0  0  0  0  0  0  0  0  0
   -2.5910   23.3860  -28.7020 C   0  0  0  0  0  0  0  0  0  0  0  0
   -3.7320   22.7350  -28.3920 N   0  0  0  0  0  0  0  0  0  0  0  0
   -3.3210   21.5980  -27.7960 C   0  0  0  0  0  0  0  0  0  0  0  0
   -1.9450   21.5730  -27.7530 C   0  0  0  0  0  0  0  0  0  0  0  0
   -1.4870   22.6990  -28.3240 N   0  0  0  0  0  0  0  0  0  0  0  0
   -0.0830   23.0670  -28.4850 C   0  0  0  0  0  0  0  0  0  0  0  0
   -5.9450   24.7100  -30.1670 C   0  0  0  0  0  0  0  0  0  0  0  0
   -7.1370   24.0230  -30.4100 C   0  0  0  0  0  0  0  0  0  0  0  0
   -7.1430   22.8500  -31.1810 C   0  0  0  0  0  0  0  0  0  0  0  0
   -8.4440   22.1220  -31.3940 C   0  0  0  0  0  0  0  0  0  0  0  0
   -2.4280   20.9990  -33.5830 N   0  0  0  0  0  0  0  0  0  0  0  0
    0.8208   21.7741  -33.9955 H   0  0  0  0  0  0  0  0  0  0  0  0
   -0.0463   20.5926  -35.0342 H   0  0  0  0  0  0  0  0  0  0  0  0
   -0.5393   22.3199  -35.0342 H   0  0  0  0  0  0  0  0  0  0  0  0
    0.3882   21.3257  -31.7374 H   0  0  0  0  0  0  0  0  0  0  0  0
   -1.2514   20.8078  -29.9197 H   0  0  0  0  0  0  0  0  0  0  0  0
   -3.6535   20.4025  -30.4853 H   0  0  0  0  0  0  0  0  0  0  0  0
   -4.5840   18.7220  -34.2460 H   0  0  0  0  0  0  0  0  0  0  0  0
   -8.0013   20.8154  -33.0616 H   0  0  0  0  0  0  0  0  0  0  0  0
   -3.8056   22.7605  -31.9773 H   0  0  0  0  0  0  0  0  0  0  0  0
   -3.9828   20.8114  -27.4044 H   0  0  0  0  0  0  0  0  0  0  0  0
   -1.3275   20.7696  -27.3249 H   0  0  0  0  0  0  0  0  0  0  0  0
    0.3801   23.1884  -27.4947 H   0  0  0  0  0  0  0  0  0  0  0  0
    0.4419   22.2761  -29.0408 H   0  0  0  0  0  0  0  0  0  0  0  0
   -0.0135   24.0137  -29.0408 H   0  0  0  0  0  0  0  0  0  0  0  0
   -5.9546   25.6250  -29.5565 H   0  0  0  0  0  0  0  0  0  0  0  0
   -8.0804   24.4052  -29.9929 H   0  0  0  0  0  0  0  0  0  0  0  0
   -8.8888   21.8731  -30.4192 H   0  0  0  0  0  0  0  0  0  0  0  0
   -9.1353   22.7643  -31.9592 H   0  0  0  0  0  0  0  0  0  0  0  0
   -8.2582   21.1968  -31.9592 H   0  0  0  0  0  0  0  0  0  0  0  0
  1  2  1  0
  2  3  2  0
  3  4  1  0
  4  5  2  0
  5  6  1  0
  6  7  1  0
  7  8  1  0
  8  9  1  0
  9 10  2  0
 10 11  1  0
 11 12  1  0
 12 13  2  0
 13 14  1  0
 14 15  1  0
 15 16  1  0
 16 17  2  0
 16 18  1  0
 18 19  2  0
 19 20  1  0
 20 21  2  0
 21 22  1  0
 22 23  1  0
 14 24  2  0
 24 25  1  0
 25 26  2  0
 26 27  1  0
  6 28  2  0
 28  2  1  0
 11  7  2  0
 26 12  1  0
 22 18  1  0
  1 29  1  0
  1 30  1  0
  1 31  1  0
  3 32  1  0
  4 33  1  0
  5 34  1  0
  8 35  1  0
 10 36  1  0
 13 37  1  0
 20 38  1  0
 21 39  1  0
 23 40  1  0
 23 41  1  0
 23 42  1  0
 24 43  1  0
 25 44  1  0
 27 45  1  0
 27 46  1  0
 27 47  1  0
M  CHG  1  15  -1
M  END
>  <UniqueID>  (2) 
2

>  <SMILES>  (2) 
Cc1cccc(-c2[nH]ncc2-c2cc([N-]C(=O)c3nccn3C)ccc2C)n1

>  <Energy>  (2) 
120.09505730496271

>  <Genealogy>  (2) 
Cc1cccc(-c2[nH]ncc2-c2cc([N-]C(=O)c3nccn3C)ccc2C)n1 (protonated)
Cc1cccc(-c2[nH]ncc2-c2cc([N-]C(=O)c3nccn3C)ccc2C)n1 (3D coordinates assigned)
Cc1cccc(-c2[nH]ncc2-c2cc([N-]C(=O)c3nccn3C)ccc2C)n1 (optimized conformer: 120.09505730496271 kcal/mol)

>  <smiles>  (2) 
Cc1cccc(-c2[nH]ncc2-c2cc(NC(=O)c3nccn3C)ccc2C)n1

>  <score_type>  (2) 
oracle

>  <origin>  (2) 
adgpu

>  <m_score__min__energy>  (2) 
-10.33

>  <m_primary>  (2) 
energy

$$$$
2:0
     RDKit          3D

 59 61  0  0  1  0  0  0  0  0999 V2000
   -5.4100   25.6780  -30.4610 C   0  0  0  0  0  0  0  0  0  0  0  0
   -5.0000   24.5490  -31.1580 O   0  0  0  0  0  0  0  0  0  0  0  0
   -5.7700   23.4770  -31.4950 C   0  0  0  0  0  0  0  0  0  0  0  0
   -7.1480   23.7240  -31.5890 C   0  0  0  0  0  0  0  0  0  0  0  0
   -8.0280   22.7320  -31.9170 C   0  0  0  0  0  0  0  0  0  0  0  0
   -9.4660   23.0060  -32.0110 C   0  0  0  0  0  0  0  0  0  0  0  0
   -7.5030   21.4820  -32.1510 C   0  0  0  0  0  0  0  0  0  0  0  0
   -6.1460   21.2340  -32.0610 C   0  0  0  0  0  0  0  0  0  0  0  0
   -5.7230   19.8320  -32.3500 C   0  0  0  0  0  0  0  0  0  0  0  0
   -5.2270   22.2300  -31.7270 C   0  0  0  0  0  0  0  0  0  0  0  0
   -3.8100   21.9320  -31.6650 C   0  0  0  0  0  0  0  0  0  0  0  0
   -3.1810   22.2320  -30.5030 N   0  0  0  0  0  0  0  0  0  0  0  0
   -1.8770   22.0420  -30.3040 C   0  0  0  0  0  0  0  0  0  0  0  0
   -1.3200   22.3400  -29.2080 N   0  0  0  0  0  0  0  0  0  0  0  0
   -2.0160   22.9070  -28.0710 C   0  0  0  0  0  0  0  0  0  0  0  0
   -2.1570   24.4110  -28.3510 C   0  0  1  0  0  0  0  0  0  0  0  0
   -0.7570   24.9900  -28.1860 C   0  0  0  0  0  0  0  0  0  0  0  0
   -2.6600   24.6250  -29.6840 N   0  0  0  0  0  0  0  0  0  0  0  0
   -1.1430   21.5120  -31.3440 C   0  0  0  0  0  0  0  0  0  0  0  0
   -1.7370   21.1780  -32.5740 C   0  0  0  0  0  0  0  0  0  0  0  0
   -0.8940   20.7080  -33.6070 C   0  0  0  0  0  0  0  0  0  0  0  0
    0.0860   21.5680  -34.1330 C   0  0  0  0  0  0  0  0  0  0  0  0
    0.9210   21.2490  -35.1510 C   0  0  0  0  0  0  0  0  0  0  0  0
    0.8590   20.0200  -35.7550 C   0  0  0  0  0  0  0  0  0  0  0  0
    1.7820   19.6900  -36.8670 C   0  0  0  0  0  0  0  0  0  0  0  0
   -0.0830   19.1390  -35.2800 C   0  0  0  0  0  0  0  0  0  0  0  0
   -0.9540   19.4610  -34.2250 C   0  0  0  0  0  0  0  0  0  0  0  0
   -1.9360   18.4480  -33.8540 C   0  0  0  0  0  0  0  0  0  0  0  0
   -3.0630   21.4230  -32.6320 N   0  0  0  0  0  0  0  0  0  0  0  0
   -5.3406   25.4868  -29.3800 H   0  0  0  0  0  0  0  0  0  0  0  0
   -4.7629   26.5273  -30.7255 H   0  0  0  0  0  0  0  0  0  0  0  0
   -6.4513   25.9141  -30.7255 H   0  0  0  0  0  0  0  0  0  0  0  0
   -7.5277   24.7379  -31.3945 H   0  0  0  0  0  0  0  0  0  0  0  0
   -9.8907   23.0869  -30.9995 H   0  0  0  0  0  0  0  0  0  0  0  0
   -9.6247   23.9505  -32.5520 H   0  0  0  0  0  0  0  0  0  0  0  0
   -9.9609   22.1860  -32.5520 H   0  0  0  0  0  0  0  0  0  0  0  0
   -8.1812   20.6578  -32.4168 H   0  0  0  0  0  0  0  0  0  0  0  0
   -5.5611   19.2954  -31.4035 H   0  0  0  0  0  0  0  0  0  0  0  0
   -6.5080   19.3243  -32.9297 H   0  0  0  0  0  0  0  0  0  0  0  0
   -4.7882   19.8432  -32.9297 H   0  0  0  0  0  0  0  0  0  0  0  0
   -3.0089   22.4456  -27.9646 H   0  0  0  0  0  0  0  0  0  0  0  0
   -1.4643   22.7265  -27.1366 H   0  0  0  0  0  0  0  0  0  0  0  0
   -2.8692   24.8962  -27.6674 H   0  0  0  0  0  0  0  0  0  0  0  0
   -0.5239   25.0864  -27.1153 H   0  0  0  0  0  0  0  0  0  0  0  0
   -0.0250   24.3208  -28.6618 H   0  0  0  0  0  0  0  0  0  0  0  0
   -0.7115   25.9807  -28.6618 H   0  0  0  0  0  0  0  0  0  0  0  0
   -3.6400   24.2590  -29.7140 H   0  0  0  0  0  0  0  0  0  0  0  0
   -2.0770   24.1740  -30.4170 H   0  0  0  0  0  0  0  0  0  0  0  0
   -0.0641   21.3461  -31.2079 H   0  0  0  0  0  0  0  0  0  0  0  0
    0.1813   22.5691  -33.6871 H   0  0  0  0  0  0  0  0  0  0  0  0
    1.6594   21.9868  -35.4979 H   0  0  0  0  0  0  0  0  0  0  0  0
    2.7429   19.3465  -36.4563 H   0  0  0  0  0  0  0  0  0  0  0  0
    1.3417   18.8936  -37.4850 H   0  0  0  0  0  0  0  0  0  0  0  0
    1.9464   20.5850  -37.4850 H   0  0  0  0  0  0  0  0  0  0  0  0
   -0.1581   18.1441  -35.7432 H   0  0  0  0  0  0  0  0  0  0  0  0
   -1.9992   18.3828  -32.7578 H   0  0  0  0  0  0  0  0  0  0  0  0
   -2.9195   18.7238  -34.2622 H   0  0  0  0  0  0  0  0  0  0  0  0
   -1.6297   17.4736  -34.2622 H   0  0  0  0  0  0  0  0  0  0  0  0
   -3.5300   21.1440  -33.5070 H   0  0  0  0  0  0  0  0  0  0  0  0
  1  2  1  0
  2  3  1  0
  3  4  2  0
  4  5  1  0
  5  6  1  0
  5  7  2  0
  7  8  1  0
  8  9  1  0
  8 10  2  0
 10 11  1  0
 11 12  2  0
 12 13  1  0
 13 14  2  0
 14 15  1  0
 15 16  1  0
 16 17  1  0
 16 18  1  0
 13 19  1  0
 19 20  2  0
 20 21  1  0
 21 22  2  0
 22 23  1  0
 23 24  2  0
 24 25  1  0
 24 26  1  0
 26 27  2  0
 27 28  1  0
 20 29  1  0
 10  3  1  0
 29 11  1  0
 27 21  1  0
  1 30  1  0
  1 31  1  0
  1 32  1  0
  4 33  1  0
  6 34  1  0
  6 35  1  0
  6 36  1  0
  7 37  1  0
  9 38  1  0
  9 39  1  0
  9 40  1  0
 15 41  1  0
 15 42  1  0
 16 43  1  1
 17 44  1  0
 17 45  1  0
 17 46  1  0
 18 47  1  0
 18 48  1  0
 19 49  1  0
 22 50  1  0
 23 51  1  0
 25 52  1  0
 25 53  1  0
 25 54  1  0
 26 55  1  0
 28 56  1  0
 28 57  1  0
 28 58  1  0
 29 59  1  0
M  END
>  <smiles>  (3) 
COc1cc(C)cc(C)c1-c1nc(=NCC(C)N)cc(-c2ccc(C)cc2C)[nH]1

>  <score_type>  (3) 
oracle

>  <origin>  (3) 
adgpu

>  <m_score__min__energy>  (3) 
-9.8499999999999996

>  <m_primary>  (3) 
energy

$$$$
3:0
     RDKit          3D

 45 48  0  0  0  0  0  0  0  0999 V2000
   -6.4320   22.9010  -31.3680 C   0  0  0  0  0  0  0  0  0  0  0  0
   -5.3310   23.7920  -30.9000 C   0  0  0  0  0  0  0  0  0  0  0  0
   -4.1960   23.3950  -30.2280 C   0  0  0  0  0  0  0  0  0  0  0  0
   -3.5250   24.5900  -30.0320 C   0  0  0  0  0  0  0  0  0  0  0  0
   -2.3870   24.7540  -29.4270 N   0  0  0  0  0  0  0  0  0  0  0  0
   -1.4580   23.4710  -28.7150 S   0  0  0  0  0  0  0  0  0  0  0  0
   -0.0580   23.9610  -28.4680 O   0  0  0  0  0  0  0  0  0  0  0  0
   -2.0820   23.0770  -27.4070 O   0  0  0  0  0  0  0  0  0  0  0  0
   -1.4430   22.0760  -29.7880 C   0  0  0  0  0  0  0  0  0  0  0  0
   -1.5680   22.2610  -31.1720 C   0  0  0  0  0  0  0  0  0  0  0  0
   -1.4640   21.1700  -32.0370 C   0  0  0  0  0  0  0  0  0  0  0  0
   -1.2210   19.8830  -31.5270 C   0  0  0  0  0  0  0  0  0  0  0  0
   -1.0430   18.7540  -32.3980 N   0  0  0  0  0  0  0  0  0  0  0  0
   -1.9780   18.1670  -33.0920 C   0  0  0  0  0  0  0  0  0  0  0  0
   -3.3730   18.6640  -33.1670 C   0  0  0  0  0  0  0  0  0  0  0  0
   -3.6860   19.9490  -33.6710 C   0  0  0  0  0  0  0  0  0  0  0  0
   -2.6830   20.7990  -34.2330 N   0  0  0  0  0  0  0  0  0  0  0  0
   -4.9420   20.3870  -33.6450 O   0  0  0  0  0  0  0  0  0  0  0  0
   -5.9540   19.6630  -33.1840 C   0  0  0  0  0  0  0  0  0  0  0  0
   -7.2440   20.2040  -33.1800 C   0  0  0  0  0  0  0  0  0  0  0  0
   -8.3200   19.4480  -32.7020 C   0  0  0  0  0  0  0  0  0  0  0  0
   -8.1100   18.1500  -32.2290 C   0  0  0  0  0  0  0  0  0  0  0  0
   -6.8250   17.6010  -32.2280 C   0  0  0  0  0  0  0  0  0  0  0  0
   -5.7350   18.3530  -32.7040 C   0  0  0  0  0  0  0  0  0  0  0  0
   -4.4230   17.8520  -32.7060 C   0  0  0  0  0  0  0  0  0  0  0  0
   -4.1830   16.6890  -32.2770 O   0  0  0  0  0  0  0  0  0  0  0  0
   -1.1680   19.6920  -30.1410 C   0  0  0  0  0  0  0  0  0  0  0  0
   -1.2670   20.7850  -29.2750 C   0  0  0  0  0  0  0  0  0  0  0  0
   -4.2260   25.6120  -30.5540 N   0  0  0  0  0  0  0  0  0  0  0  0
   -5.3060   25.0950  -31.0660 O   0  0  0  0  0  0  0  0  0  0  0  0
   -6.9556   22.4773  -30.4983 H   0  0  0  0  0  0  0  0  0  0  0  0
   -7.1412   23.4825  -31.9754 H   0  0  0  0  0  0  0  0  0  0  0  0
   -6.0112   22.0862  -31.9754 H   0  0  0  0  0  0  0  0  0  0  0  0
   -3.8972   22.3812  -29.9231 H   0  0  0  0  0  0  0  0  0  0  0  0
   -1.7484   23.2676  -31.5772 H   0  0  0  0  0  0  0  0  0  0  0  0
   -1.5726   21.3182  -33.1215 H   0  0  0  0  0  0  0  0  0  0  0  0
   -1.7184   17.2558  -33.6508 H   0  0  0  0  0  0  0  0  0  0  0  0
   -1.7040   20.4490  -34.3310 H   0  0  0  0  0  0  0  0  0  0  0  0
   -2.8770   21.7910  -34.4940 H   0  0  0  0  0  0  0  0  0  0  0  0
   -7.4127   21.2250  -33.5531 H   0  0  0  0  0  0  0  0  0  0  0  0
   -9.3332   19.8763  -32.6986 H   0  0  0  0  0  0  0  0  0  0  0  0
   -8.9591   17.5584  -31.8562 H   0  0  0  0  0  0  0  0  0  0  0  0
   -6.6652   16.5788  -31.8543 H   0  0  0  0  0  0  0  0  0  0  0  0
   -1.0480   18.6780  -29.7319 H   0  0  0  0  0  0  0  0  0  0  0  0
   -1.2065   20.6304  -28.1876 H   0  0  0  0  0  0  0  0  0  0  0  0
  1  2  1  0
  2  3  2  0
  3  4  1  0
  4  5  2  3
  5  6  1  0
  6  7  2  0
  6  8  2  0
  6  9  1  0
  9 10  2  0
 10 11  1  0
 11 12  2  0
 12 13  1  0
 13 14  2  3
 14 15  1  0
 15 16  2  0
 16 17  1  0
 16 18  1  0
 18 19  1  0
 19 20  2  0
 20 21  1  0
 21 22  2  0
 22 23  1  0
 23 24  2  0
 24 25  1  0
 25 26  2  0
 12 27  1  0
 27 28  2  0
  4 29  1  0
 29 30  1  0
 30  2  1  0
 28  9  1  0
 25 15  1  0
 24 19  1  0
  1 31  1  0
  1 32  1  0
  1 33  1  0
  3 34  1  0
 10 35  1  0
 11 36  1  0
 14 37  1  0
 17 38  1  0
 17 39  1  0
 20 40  1  0
 21 41  1  0
 22 42  1  0
 23 43  1  0
 27 44  1  0
 28 45  1  0
M  CHG  1  29  -1
M  END
>  <UniqueID>  (4) 
3

>  <SMILES>  (4) 
Cc1cc(=NS(=O)(=O)c2ccc(N=Cc3c(N)oc4ccccc4c3=O)cc2)[n-]o1

>  <Energy>  (4) 
98.6923848012299

>  <Genealogy>  (4) 
Cc1cc(=NS(=O)(=O)c2ccc(N=Cc3c(N)oc4ccccc4c3=O)cc2)[n-]o1 (protonated)
Cc1cc(=NS(=O)(=O)c2ccc(N=Cc3c(N)oc4ccccc4c3=O)cc2)[n-]o1 (3D coordinates assigned)
Cc1cc(=NS(=O)(=O)c2ccc(N=Cc3c(N)oc4ccccc4c3=O)cc2)[n-]o1 (optimized conformer: 98.6923848012299 kcal/mol)

>  <smiles>  (4) 
Cc1cc(=NS(=O)(=O)c2ccc(N=Cc3c(N)oc4ccccc4c3=O)cc2)[nH]o1

>  <score_type>  (4) 
oracle

>  <origin>  (4) 
adgpu

>  <m_score__min__energy>  (4) 
-10.93

>  <m_primary>  (4) 
energy

$$$$
4:0
     RDKit          3D

 42 44  0  0  0  0  0  0  0  0999 V2000
   -6.5350   25.3270  -30.0750 C   0  0  0  0  0  0  0  0  0  0  0  0
   -5.8840   24.1210  -30.6860 C   0  0  0  0  0  0  0  0  0  0  0  0
   -4.5230   23.9170  -30.8320 C   0  0  0  0  0  0  0  0  0  0  0  0
   -3.4890   24.8390  -30.4650 N   0  0  0  0  0  0  0  0  0  0  0  0
   -2.3780   24.6100  -29.1560 S   0  0  0  0  0  0  0  0  0  0  0  0
   -3.0840   24.8980  -27.8610 O   0  0  0  0  0  0  0  0  0  0  0  0
   -1.2290   25.5710  -29.2960 O   0  0  0  0  0  0  0  0  0  0  0  0
   -1.8120   22.9440  -29.1320 C   0  0  0  0  0  0  0  0  0  0  0  0
   -2.3020   22.0610  -28.1600 C   0  0  0  0  0  0  0  0  0  0  0  0
   -1.8460   20.7410  -28.1160 C   0  0  0  0  0  0  0  0  0  0  0  0
   -0.9040   20.2870  -29.0490 C   0  0  0  0  0  0  0  0  0  0  0  0
   -0.4410   18.9370  -29.0050 N   0  0  0  0  0  0  0  0  0  0  0  0
   -0.4180   21.1690  -30.0260 C   0  0  0  0  0  0  0  0  0  0  0  0
   -0.8660   22.4920  -30.0640 C   0  0  0  0  0  0  0  0  0  0  0  0
   -4.4130   22.6700  -31.4180 C   0  0  0  0  0  0  0  0  0  0  0  0
   -3.3480   22.0860  -31.7470 O   0  0  0  0  0  0  0  0  0  0  0  0
   -5.6440   22.1520  -31.5950 N   0  0  0  0  0  0  0  0  0  0  0  0
   -5.9350   20.8920  -32.2130 C   0  0  0  0  0  0  0  0  0  0  0  0
   -6.8750   20.0260  -31.6370 C   0  0  0  0  0  0  0  0  0  0  0  0
   -7.1740   18.8050  -32.2510 C   0  0  0  0  0  0  0  0  0  0  0  0
   -6.5450   18.4510  -33.4490 C   0  0  0  0  0  0  0  0  0  0  0  0
   -5.6120   19.3150  -34.0320 C   0  0  0  0  0  0  0  0  0  0  0  0
   -5.3060   20.5330  -33.4150 C   0  0  0  0  0  0  0  0  0  0  0  0
   -6.5390   23.0240  -31.1400 N   0  0  0  0  0  0  0  0  0  0  0  0
   -7.9930   22.8860  -31.2510 C   0  0  0  0  0  0  0  0  0  0  0  0
   -6.4935   25.2501  -28.9785 H   0  0  0  0  0  0  0  0  0  0  0  0
   -6.0040   26.2341  -30.3993 H   0  0  0  0  0  0  0  0  0  0  0  0
   -7.5847   25.3809  -30.3993 H   0  0  0  0  0  0  0  0  0  0  0  0
   -3.0477   22.4082  -27.4297 H   0  0  0  0  0  0  0  0  0  0  0  0
   -2.2281   20.0551  -27.3456 H   0  0  0  0  0  0  0  0  0  0  0  0
    0.2410   18.6280  -28.2770 H   0  0  0  0  0  0  0  0  0  0  0  0
   -0.7690   18.2370  -29.7060 H   0  0  0  0  0  0  0  0  0  0  0  0
    0.3180   20.8179  -30.7643 H   0  0  0  0  0  0  0  0  0  0  0  0
   -0.4756   23.1813  -30.8272 H   0  0  0  0  0  0  0  0  0  0  0  0
   -7.3785   20.3071  -30.7003 H   0  0  0  0  0  0  0  0  0  0  0  0
   -7.9043   18.1229  -31.7912 H   0  0  0  0  0  0  0  0  0  0  0  0
   -6.7841   17.4926  -33.9331 H   0  0  0  0  0  0  0  0  0  0  0  0
   -5.1190   19.0370  -34.9752 H   0  0  0  0  0  0  0  0  0  0  0  0
   -4.5707   21.2107  -33.8732 H   0  0  0  0  0  0  0  0  0  0  0  0
   -8.4352   22.8440  -30.2447 H   0  0  0  0  0  0  0  0  0  0  0  0
   -8.4027   23.7493  -31.7958 H   0  0  0  0  0  0  0  0  0  0  0  0
   -8.2330   21.9610  -31.7958 H   0  0  0  0  0  0  0  0  0  0  0  0
  1  2  1  0
  2  3  2  0
  3  4  1  0
  4  5  1  0
  5  6  2  0
  5  7  2  0
  5  8  1  0
  8  9  2  0
  9 10  1  0
 10 11  2  0
 11 12  1  0
 11 13  1  0
 13 14  2  0
  3 15  1  0
 15 16  2  0
 15 17  1  0
 17 18  1  0
 18 19  2  0
 19 20  1  0
 20 21  2  0
 21 22  1  0
 22 23  2  0
 17 24  1  0
 24 25  1  0
 24  2  1  0
 14  8  1  0
 23 18  1  0
  1 26  1  0
  1 27  1  0
  1 28  1  0
  9 29  1  0
 10 30  1  0
 12 31  1  0
 12 32  1  0
 13 33  1  0
 14 34  1  0
 19 35  1  0
 20 36  1  0
 21 37  1  0
 22 38  1  0
 23 39  1  0
 25 40  1  0
 25 41  1  0
 25 42  1  0
M  CHG  1   4  -1
M  END
>  <UniqueID>  (5) 
4

>  <SMILES>  (5) 
Cc1c([N-]S(=O)(=O)c2ccc(N)cc2)c(=O)n(-c2ccccc2)n1C

>  <Energy>  (5) 
88.5663956433504

>  <Genealogy>  (5) 
Cc1c([N-]S(=O)(=O)c2ccc(N)cc2)c(=O)n(-c2ccccc2)n1C (protonated)
Cc1c([N-]S(=O)(=O)c2ccc(N)cc2)c(=O)n(-c2ccccc2)n1C (3D coordinates assigned)
Cc1c([N-]S(=O)(=O)c2ccc(N)cc2)c(=O)n(-c2ccccc2)n1C (optimized conformer: 88.5663956433504 kcal/mol)

>  <smiles>  (5) 
Cc1c(NS(=O)(=O)c2ccc(N)cc2)c(=O)n(-c2ccccc2)n1C

>  <score_type>  (5) 
oracle

>  <origin>  (5) 
adgpu

>  <m_score__min__energy>  (5) 
-9.8300000000000001

>  <m_primary>  (5) 
energy

$$$$
5:0
     RDKit          3D

 31 32  0  0  0  0  0  0  0  0999 V2000
   -4.8150   19.6410  -33.4330 C   0  0  0  0  0  0  0  0  0  0  0  0
   -4.4990   21.0390  -32.9100 C   0  0  0  0  0  0  0  0  0  0  0  0
   -5.7230   21.6700  -32.2920 C   0  0  0  0  0  0  0  0  0  0  0  0
   -6.9610   21.0110  -32.3890 C   0  0  0  0  0  0  0  0  0  0  0  0
   -8.1140   21.5850  -31.8500 C   0  0  0  0  0  0  0  0  0  0  0  0
   -8.0450   22.8220  -31.2090 C   0  0  0  0  0  0  0  0  0  0  0  0
   -6.8260   23.4950  -31.1170 C   0  0  0  0  0  0  0  0  0  0  0  0
   -5.6600   22.9410  -31.6780 C   0  0  0  0  0  0  0  0  0  0  0  0
   -4.4020   23.6290  -31.5900 N   0  0  0  0  0  0  0  0  0  0  0  0
   -3.9430   24.4200  -30.4860 C   0  0  0  0  0  0  0  0  0  0  0  0
   -4.2480   25.6410  -30.4530 O   0  0  0  0  0  0  0  0  0  0  0  0
   -3.1850   23.8260  -29.3570 C   0  0  0  0  0  0  0  0  0  0  0  0
   -3.6000   22.6040  -28.7960 C   0  0  0  0  0  0  0  0  0  0  0  0
   -2.8980   22.0380  -27.7290 C   0  0  0  0  0  0  0  0  0  0  0  0
   -1.7790   22.6890  -27.2030 C   0  0  0  0  0  0  0  0  0  0  0  0
   -1.0830   22.1240  -26.1420 O   0  0  0  0  0  0  0  0  0  0  0  0
   -1.3620   23.9070  -27.7440 C   0  0  0  0  0  0  0  0  0  0  0  0
   -2.0580   24.4790  -28.8160 C   0  0  0  0  0  0  0  0  0  0  0  0
   -1.6100   25.6850  -29.3450 O   0  0  0  0  0  0  0  0  0  0  0  0
   -4.9693   18.9583  -32.5844 H   0  0  0  0  0  0  0  0  0  0  0  0
   -5.7278   19.6764  -34.0458 H   0  0  0  0  0  0  0  0  0  0  0  0
   -3.9757   19.2804  -34.0458 H   0  0  0  0  0  0  0  0  0  0  0  0
   -3.7068   20.9691  -32.1501 H   0  0  0  0  0  0  0  0  0  0  0  0
   -4.1677   21.6639  -33.7525 H   0  0  0  0  0  0  0  0  0  0  0  0
   -7.0218   20.0354  -32.8935 H   0  0  0  0  0  0  0  0  0  0  0  0
   -9.0779   21.0612  -31.9309 H   0  0  0  0  0  0  0  0  0  0  0  0
   -8.9525   23.2675  -30.7755 H   0  0  0  0  0  0  0  0  0  0  0  0
   -6.7760   24.4658  -30.6022 H   0  0  0  0  0  0  0  0  0  0  0  0
   -4.4844   22.0902  -29.2009 H   0  0  0  0  0  0  0  0  0  0  0  0
   -3.2265   21.0788  -27.3024 H   0  0  0  0  0  0  0  0  0  0  0  0
   -0.4829   24.4194  -27.3262 H   0  0  0  0  0  0  0  0  0  0  0  0
  1  2  1  0
  2  3  1  0
  3  4  2  0
  4  5  1  0
  5  6  2  0
  6  7  1  0
  7  8  2  0
  8  9  1  0
  9 10  1  0
 10 11  2  0
 10 12  1  0
 12 13  2  0
 13 14  1  0
 14 15  2  0
 15 16  1  0
 15 17  1  0
 17 18  2  0
 18 19  1  0
  8  3  1  0
 18 12  1  0
  1 20  1  0
  1 21  1  0
  1 22  1  0
  2 23  1  0
  2 24  1  0
  4 25  1  0
  5 26  1  0
  6 27  1  0
  7 28  1  0
 13 29  1  0
 14 30  1  0
 17 31  1  0
M  CHG  3   9  -1  16  -1  19  -1
M  END
>  <UniqueID>  (6) 
5

>  <SMILES>  (6) 
CCc1ccccc1[N-]C(=O)c1ccc([O-])cc1[O-]

>  <Energy>  (6) 
36.87576157590803

>  <Genealogy>  (6) 
CCc1ccccc1[N-]C(=O)c1ccc([O-])cc1[O-] (protonated)
CCc1ccccc1[N-]C(=O)c1ccc([O-])cc1[O-] (3D coordinates assigned)
CCc1ccccc1[N-]C(=O)c1ccc([O-])cc1[O-] (optimized conformer: 36.87576157590803 kcal/mol)

>  <smiles>  (6) 
CCc1ccccc1NC(=O)c1ccc(O)cc1O

>  <score_type>  (6) 
oracle

>  <origin>  (6) 
adgpu

>  <m_score__min__energy>  (6) 
-10.970000000000001

>  <m_primary>  (6) 
energy

$$$$
6:0
     RDKit          3D

 66 70  0  0  0  0  0  0  0  0999 V2000
   -4.5130   14.2290  -32.4010 C   0  0  0  0  0  0  0  0  0  0  0  0
   -4.9820   15.5010  -33.0440 C   0  0  0  0  0  0  0  0  0  0  0  0
   -6.0690   15.4970  -33.9310 C   0  0  0  0  0  0  0  0  0  0  0  0
   -6.5080   16.6900  -34.5080 C   0  0  0  0  0  0  0  0  0  0  0  0
   -5.8620   17.8960  -34.2170 C   0  0  0  0  0  0  0  0  0  0  0  0
   -4.7610   17.9180  -33.3390 C   0  0  0  0  0  0  0  0  0  0  0  0
   -4.0490   19.1370  -33.0520 N   0  0  0  0  0  0  0  0  0  0  0  0
   -2.9520   19.4930  -33.7070 N   0  0  0  0  0  0  0  0  0  0  0  0
   -2.5450   20.6830  -33.2190 C   0  0  0  0  0  0  0  0  0  0  0  0
   -1.3270   21.3940  -33.7010 C   0  0  0  0  0  0  0  0  0  0  0  0
   -3.3980   21.1070  -32.2170 C   0  0  0  0  0  0  0  0  0  0  0  0
   -4.3560   20.1150  -32.1630 C   0  0  0  0  0  0  0  0  0  0  0  0
   -5.4420   20.1310  -31.2730 O   0  0  0  0  0  0  0  0  0  0  0  0
   -6.7550   20.5850  -31.5080 C   0  0  0  0  0  0  0  0  0  0  0  0
   -7.6450   19.6490  -32.0510 C   0  0  0  0  0  0  0  0  0  0  0  0
   -8.9670   19.9910  -32.3350 C   0  0  0  0  0  0  0  0  0  0  0  0
   -9.4250   21.2850  -32.0810 C   0  0  0  0  0  0  0  0  0  0  0  0
   -8.5590   22.2320  -31.5300 C   0  0  0  0  0  0  0  0  0  0  0  0
   -7.2330   21.8950  -31.2170 C   0  0  0  0  0  0  0  0  0  0  0  0
   -6.3950   22.9110  -30.6640 N   0  0  0  0  0  0  0  0  0  0  0  0
   -5.4510   23.6460  -31.4550 C   0  0  0  0  0  0  0  0  0  0  0  0
   -5.4450   23.5230  -32.7080 O   0  0  0  0  0  0  0  0  0  0  0  0
   -4.5510   24.5800  -30.8410 N   0  0  0  0  0  0  0  0  0  0  0  0
   -3.7640   24.3070  -29.6730 C   0  0  0  0  0  0  0  0  0  0  0  0
   -4.2800   24.5090  -28.3810 C   0  0  0  0  0  0  0  0  0  0  0  0
   -3.4870   24.2670  -27.2590 C   0  0  0  0  0  0  0  0  0  0  0  0
   -2.1720   23.8060  -27.4040 C   0  0  0  0  0  0  0  0  0  0  0  0
   -1.3800   23.6020  -26.2230 N   0  0  0  0  0  0  0  0  0  0  0  0
   -0.8190   22.3600  -25.7730 C   0  0  0  0  0  0  0  0  0  0  0  0
   -0.5210   22.2430  -24.5530 O   0  0  0  0  0  0  0  0  0  0  0  0
   -0.6260   21.2000  -26.6760 C   0  0  0  0  0  0  0  0  0  0  0  0
   -1.4820   20.0810  -26.6310 C   0  0  0  0  0  0  0  0  0  0  0  0
   -1.2690   18.9980  -27.4880 C   0  0  0  0  0  0  0  0  0  0  0  0
   -0.1890   19.0300  -28.3820 C   0  0  0  0  0  0  0  0  0  0  0  0
    0.0750   17.8760  -29.3010 C   0  0  0  0  0  0  0  0  0  0  0  0
    0.6420   20.1100  -28.3990 N   0  0  0  0  0  0  0  0  0  0  0  0
    0.4540   21.1790  -27.5760 C   0  0  0  0  0  0  0  0  0  0  0  0
   -1.6500   23.6070  -28.6950 C   0  0  0  0  0  0  0  0  0  0  0  0
   -2.4520   23.8350  -29.8210 C   0  0  0  0  0  0  0  0  0  0  0  0
   -4.3450   16.7140  -32.7390 C   0  0  0  0  0  0  0  0  0  0  0  0
   -4.5521   14.3352  -31.3068 H   0  0  0  0  0  0  0  0  0  0  0  0
   -5.1642   13.3990  -32.7124 H   0  0  0  0  0  0  0  0  0  0  0  0
   -3.4788   14.0204  -32.7124 H   0  0  0  0  0  0  0  0  0  0  0  0
   -6.5766   14.5515  -34.1724 H   0  0  0  0  0  0  0  0  0  0  0  0
   -7.3668   16.6815  -35.1954 H   0  0  0  0  0  0  0  0  0  0  0  0
   -6.2154   18.8312  -34.6758 H   0  0  0  0  0  0  0  0  0  0  0  0
   -0.7377   21.7380  -32.8382 H   0  0  0  0  0  0  0  0  0  0  0  0
   -0.7194   20.7087  -34.3103 H   0  0  0  0  0  0  0  0  0  0  0  0
   -1.6250   22.2600  -34.3103 H   0  0  0  0  0  0  0  0  0  0  0  0
   -3.3293   22.0197  -31.6068 H   0  0  0  0  0  0  0  0  0  0  0  0
   -7.2950   18.6267  -32.2569 H   0  0  0  0  0  0  0  0  0  0  0  0
   -9.6496   19.2402  -32.7597 H   0  0  0  0  0  0  0  0  0  0  0  0
  -10.4648   21.5579  -32.3141 H   0  0  0  0  0  0  0  0  0  0  0  0
   -8.9202   23.2534  -31.3392 H   0  0  0  0  0  0  0  0  0  0  0  0
   -6.3690   22.9940  -29.6220 H   0  0  0  0  0  0  0  0  0  0  0  0
   -5.3148   24.8598  -28.2540 H   0  0  0  0  0  0  0  0  0  0  0  0
   -3.8973   24.4394  -26.2530 H   0  0  0  0  0  0  0  0  0  0  0  0
   -2.3203   20.0602  -25.9191 H   0  0  0  0  0  0  0  0  0  0  0  0
   -1.9422   18.1285  -27.4616 H   0  0  0  0  0  0  0  0  0  0  0  0
    0.2814   16.9737  -28.7066 H   0  0  0  0  0  0  0  0  0  0  0  0
   -0.8068   17.7033  -29.9355 H   0  0  0  0  0  0  0  0  0  0  0  0
    0.9442   18.1039  -29.9355 H   0  0  0  0  0  0  0  0  0  0  0  0
    1.1503   22.0297  -27.6157 H   0  0  0  0  0  0  0  0  0  0  0  0
   -0.6099   23.2717  -28.8208 H   0  0  0  0  0  0  0  0  0  0  0  0
   -2.0501   23.6426  -30.8267 H   0  0  0  0  0  0  0  0  0  0  0  0
   -3.5105   16.7242  -32.0224 H   0  0  0  0  0  0  0  0  0  0  0  0
  1  2  1  0
  2  3  2  0
  3  4  1  0
  4  5  2  0
  5  6  1  0
  6  7  1  0
  7  8  1  0
  8  9  2  0
  9 10  1  0
  9 11  1  0
 11 12  2  0
 12 13  1  0
 13 14  1  0
 14 15  2  0
 15 16  1  0
 16 17  2  0
 17 18  1  0
 18 19  2  0
 19 20  1  0
 20 21  1  0
 21 22  2  0
 21 23  1  0
 23 24  1  0
 24 25  2  0
 25 26  1  0
 26 27  2  0
 27 28  1  0
 28 29  1  0
 29 30  2  0
 29 31  1  0
 31 32  2  0
 32 33  1  0
 33 34  2  0
 34 35  1  0
 34 36  1  0
 36 37  2  0
 27 38  1  0
 38 39  2  0
  6 40  2  0
 40  2  1  0
 12  7  1  0
 19 14  1  0
 39 24  1  0
 37 31  1  0
  1 41  1  0
  1 42  1  0
  1 43  1  0
  3 44  1  0
  4 45  1  0
  5 46  1  0
 10 47  1  0
 10 48  1  0
 10 49  1  0
 11 50  1  0
 15 51  1  0
 16 52  1  0
 17 53  1  0
 18 54  1  0
 20 55  1  0
 25 56  1  0
 26 57  1  0
 32 58  1  0
 33 59  1  0
 35 60  1  0
 35 61  1  0
 35 62  1  0
 37 63  1  0
 38 64  1  0
 39 65  1  0
 40 66  1  0
M  CHG  2  23  -1  28  -1
M  END
>  <UniqueID>  (7) 
6

>  <SMILES>  (7) 
Cc1cccc(-n2nc(C)cc2Oc2ccccc2NC(=O)[N-]c2ccc([N-]C(=O)c3ccc(C)nc3)cc2)c1

>  <Energy>  (7) 
128.8987278534628

>  <Genealogy>  (7) 
Cc1cccc(-n2nc(C)cc2Oc2ccccc2NC(=O)[N-]c2ccc([N-]C(=O)c3ccc(C)nc3)cc2)c1 (protonated)
Cc1cccc(-n2nc(C)cc2Oc2ccccc2NC(=O)[N-]c2ccc([N-]C(=O)c3ccc(C)nc3)cc2)c1 (3D coordinates assigned)
Cc1cccc(-n2nc(C)cc2Oc2ccccc2NC(=O)[N-]c2ccc([N-]C(=O)c3ccc(C)nc3)cc2)c1 (optimized conformer: 128.8987278534628 kcal/mol)

>  <smiles>  (7) 
Cc1cccc(-n2nc(C)cc2Oc2ccccc2NC(=O)Nc2ccc(NC(=O)c3ccc(C)nc3)cc2)c1

>  <score_type>  (7) 
oracle

>  <origin>  (7) 
adgpu

>  <m_score__min__energy>  (7) 
-13.09

>  <m_primary>  (7) 
energy

$$$$
7:0
     RDKit          3D

 48 50  0  0  0  0  0  0  0  0999 V2000
   -5.7610   17.3470  -31.1420 C   0  0  0  0  0  0  0  0  0  0  0  0
   -5.1800   16.4910  -32.2340 C   0  0  0  0  0  0  0  0  0  0  0  0
   -5.1480   15.1010  -32.0470 C   0  0  0  0  0  0  0  0  0  0  0  0
   -4.6200   14.2650  -33.0280 C   0  0  0  0  0  0  0  0  0  0  0  0
   -4.1110   14.8040  -34.2070 C   0  0  0  0  0  0  0  0  0  0  0  0
   -4.0970   16.1920  -34.4100 C   0  0  0  0  0  0  0  0  0  0  0  0
   -3.5640   16.7130  -35.7160 C   0  0  0  0  0  0  0  0  0  0  0  0
   -4.6320   17.0500  -33.4160 C   0  0  0  0  0  0  0  0  0  0  0  0
   -4.6200   18.4760  -33.6060 N   0  0  0  0  0  0  0  0  0  0  0  0
   -5.7630   19.1490  -34.2340 C   0  0  0  0  0  0  0  0  0  0  0  0
   -6.8560   19.3850  -33.2280 C   0  0  0  0  0  0  0  0  0  0  0  0
   -7.8180   18.3890  -32.9860 C   0  0  0  0  0  0  0  0  0  0  0  0
   -8.7970   18.5800  -32.0070 C   0  0  0  0  0  0  0  0  0  0  0  0
   -8.8220   19.7620  -31.2620 C   0  0  0  0  0  0  0  0  0  0  0  0
   -7.8670   20.7560  -31.4940 C   0  0  0  0  0  0  0  0  0  0  0  0
   -6.8870   20.5700  -32.4720 C   0  0  0  0  0  0  0  0  0  0  0  0
   -3.1650   19.3640  -33.2630 S   0  0  0  0  0  0  0  0  0  0  0  0
   -2.4550   19.6820  -34.5490 O   0  0  0  0  0  0  0  0  0  0  0  0
   -2.2490   18.5350  -32.4070 O   0  0  0  0  0  0  0  0  0  0  0  0
   -3.5520   20.8570  -32.4100 C   0  0  0  0  0  0  0  0  0  0  0  0
   -3.1600   21.0300  -31.0770 C   0  0  0  0  0  0  0  0  0  0  0  0
   -3.5040   22.1950  -30.3870 C   0  0  0  0  0  0  0  0  0  0  0  0
   -4.2410   23.2100  -31.0230 C   0  0  0  0  0  0  0  0  0  0  0  0
   -4.6130   24.4430  -30.2950 C   0  0  0  0  0  0  0  0  0  0  0  0
   -5.5990   24.4510  -29.5110 O   0  0  0  0  0  0  0  0  0  0  0  0
   -3.8780   25.6100  -30.4660 O   0  0  0  0  0  0  0  0  0  0  0  0
   -4.6220   23.0350  -32.3640 C   0  0  0  0  0  0  0  0  0  0  0  0
   -4.2790   21.8670  -33.0520 C   0  0  0  0  0  0  0  0  0  0  0  0
   -5.4798   16.9327  -30.1626 H   0  0  0  0  0  0  0  0  0  0  0  0
   -5.3709   18.3715  -31.2325 H   0  0  0  0  0  0  0  0  0  0  0  0
   -6.8572   17.3627  -31.2325 H   0  0  0  0  0  0  0  0  0  0  0  0
   -5.5437   14.6672  -31.1168 H   0  0  0  0  0  0  0  0  0  0  0  0
   -4.6050   13.1763  -32.8711 H   0  0  0  0  0  0  0  0  0  0  0  0
   -3.7164   14.1353  -34.9861 H   0  0  0  0  0  0  0  0  0  0  0  0
   -2.7899   17.4697  -35.5204 H   0  0  0  0  0  0  0  0  0  0  0  0
   -3.1283   15.8830  -36.2915 H   0  0  0  0  0  0  0  0  0  0  0  0
   -4.3839   17.1675  -36.2915 H   0  0  0  0  0  0  0  0  0  0  0  0
   -5.4334   20.1154  -34.6432 H   0  0  0  0  0  0  0  0  0  0  0  0
   -6.1536   18.5086  -35.0386 H   0  0  0  0  0  0  0  0  0  0  0  0
   -7.8002   17.4564  -33.5690 H   0  0  0  0  0  0  0  0  0  0  0  0
   -9.5490   17.7987  -31.8226 H   0  0  0  0  0  0  0  0  0  0  0  0
   -9.5938   19.9103  -30.4924 H   0  0  0  0  0  0  0  0  0  0  0  0
   -7.8872   21.6854  -30.9060 H   0  0  0  0  0  0  0  0  0  0  0  0
   -6.1365   21.3539  -32.6514 H   0  0  0  0  0  0  0  0  0  0  0  0
   -2.5787   20.2452  -30.5709 H   0  0  0  0  0  0  0  0  0  0  0  0
   -3.1961   22.3194  -29.3383 H   0  0  0  0  0  0  0  0  0  0  0  0
   -5.1942   23.8225  -32.8763 H   0  0  0  0  0  0  0  0  0  0  0  0
   -4.5816   21.7410  -34.1020 H   0  0  0  0  0  0  0  0  0  0  0  0
  1  2  1  0
  2  3  2  0
  3  4  1  0
  4  5  2  0
  5  6  1  0
  6  7  1  0
  6  8  2  0
  8  9  1  0
  9 10  1  0
 10 11  1  0
 11 12  2  0
 12 13  1  0
 13 14  2  0
 14 15  1  0
 15 16  2  0
  9 17  1  0
 17 18  2  0
 17 19  2  0
 17 20  1  0
 20 21  2  0
 21 22  1  0
 22 23  2  0
 23 24  1  0
 24 25  2  0
 24 26  1  0
 23 27  1  0
 27 28  2  0
  8  2  1  0
 16 11  1  0
 28 20  1  0
  1 29  1  0
  1 30  1  0
  1 31  1  0
  3 32  1  0
  4 33  1  0
  5 34  1  0
  7 35  1  0
  7 36  1  0
  7 37  1  0
 10 38  1  0
 10 39  1  0
 12 40  1  0
 13 41  1  0
 14 42  1  0
 15 43  1  0
 16 44  1  0
 21 45  1  0
 22 46  1  0
 27 47  1  0
 28 48  1  0
M  CHG  1  26  -1
M  END
>  <UniqueID>  (8) 
7

>  <SMILES>  (8) 
Cc1cccc(C)c1N(Cc1ccccc1)S(=O)(=O)c1ccc(C(=O)[O-])cc1

>  <Energy>  (8) 
53.49859562970182

>  <Genealogy>  (8) 
Cc1cccc(C)c1N(Cc1ccccc1)S(=O)(=O)c1ccc(C(=O)[O-])cc1 (protonated)
Cc1cccc(C)c1N(Cc1ccccc1)S(=O)(=O)c1ccc(C(=O)[O-])cc1 (3D coordinates assigned)
Cc1cccc(C)c1N(Cc1ccccc1)S(=O)(=O)c1ccc(C(=O)[O-])cc1 (optimized conformer: 53.49859562970182 kcal/mol)

>  <smiles>  (8) 
Cc1cccc(C)c1N(Cc1ccccc1)S(=O)(=O)c1ccc(C(=O)O)cc1

>  <score_type>  (8) 
oracle

>  <origin>  (8) 
adgpu

>  <m_score__min__energy>  (8) 
-10.06

>  <m_primary>  (8) 
energy

$$$$
8:0
     RDKit          3D

 28 29  0  0  0  0  0  0  0  0999 V2000
   -2.3170   24.9140  -29.3590 N   0  0  0  0  0  0  0  0  0  0  0  0
   -1.7430   24.0050  -28.3700 C   0  0  0  0  0  0  0  0  0  0  0  0
   -2.8150   23.0630  -27.8030 C   0  0  0  0  0  0  0  0  0  0  0  0
   -4.1320   23.1060  -28.5920 C   0  0  0  0  0  0  0  0  0  0  0  0
   -4.7550   24.4320  -28.5200 N   0  0  0  0  0  0  0  0  0  0  0  0
   -5.3360   24.9480  -30.0750 S   0  0  0  0  0  0  0  0  0  0  0  0
   -4.2350   25.6750  -30.7960 O   0  0  0  0  0  0  0  0  0  0  0  0
   -6.4900   25.8950  -29.8960 O   0  0  0  0  0  0  0  0  0  0  0  0
   -5.8320   23.5540  -31.0380 C   0  0  0  0  0  0  0  0  0  0  0  0
   -7.1920   23.2120  -31.1410 C   0  0  0  0  0  0  0  0  0  0  0  0
   -7.5940   22.0840  -31.8760 C   0  0  0  0  0  0  0  0  0  0  0  0
   -6.6480   21.2750  -32.5160 C   0  0  0  0  0  0  0  0  0  0  0  0
   -5.2960   21.6000  -32.4170 C   0  0  0  0  0  0  0  0  0  0  0  0
   -4.3200   20.8580  -32.9980 N   0  0  0  0  0  0  0  0  0  0  0  0
   -2.9840   21.7130  -32.5260 S   0  0  0  0  0  0  0  0  0  0  0  0
   -3.5450   22.9790  -31.6230 N   0  0  0  0  0  0  0  0  0  0  0  0
   -4.8810   22.7440  -31.6770 C   0  0  0  0  0  0  0  0  0  0  0  0
   -2.6710   24.3350  -30.1550 H   0  0  0  0  0  0  0  0  0  0  0  0
   -3.1530   25.3740  -28.9330 H   0  0  0  0  0  0  0  0  0  0  0  0
   -0.9533   23.4060  -28.8471 H   0  0  0  0  0  0  0  0  0  0  0  0
   -1.3275   24.6014  -27.5444 H   0  0  0  0  0  0  0  0  0  0  0  0
   -2.4257   22.0345  -27.8272 H   0  0  0  0  0  0  0  0  0  0  0  0
   -3.0354   23.3956  -26.7779 H   0  0  0  0  0  0  0  0  0  0  0  0
   -3.9266   22.8636  -29.6451 H   0  0  0  0  0  0  0  0  0  0  0  0
   -4.8242   22.3735  -28.1512 H   0  0  0  0  0  0  0  0  0  0  0  0
   -7.9490   23.8340  -30.6410 H   0  0  0  0  0  0  0  0  0  0  0  0
   -8.6628   21.8342  -31.9492 H   0  0  0  0  0  0  0  0  0  0  0  0
   -6.9676   20.3930  -33.0904 H   0  0  0  0  0  0  0  0  0  0  0  0
  1  2  1  0
  2  3  1  0
  3  4  1  0
  4  5  1  0
  5  6  1  0
  6  7  2  0
  6  8  2  0
  6  9  1  0
  9 10  2  0
 10 11  1  0
 11 12  2  0
 12 13  1  0
 13 14  2  0
 14 15  1  0
 15 16  1  0
 16 17  2  0
 17  9  1  0
 17 13  1  0
  1 18  1  0
  1 19  1  0
  2 20  1  0
  2 21  1  0
  3 22  1  0
  3 23  1  0
  4 24  1  0
  4 25  1  0
 10 26  1  0
 11 27  1  0
 12 28  1  0
M  CHG  1   5  -1
M  END
>  <UniqueID>  (9) 
8

>  <SMILES>  (9) 
NCCC[N-]S(=O)(=O)c1cccc2nsnc12

>  <Energy>  (9) 
60.35565367914019

>  <Genealogy>  (9) 
NCCC[N-]S(=O)(=O)c1cccc2nsnc12 (protonated)
NCCC[N-]S(=O)(=O)c1cccc2nsnc12 (3D coordinates assigned)
NCCC[N-]S(=O)(=O)c1cccc2nsnc12 (optimized conformer: 60.35565367914019 kcal/mol)

>  <smiles>  (9) 
NCCCNS(=O)(=O)c1cccc2nsnc12

>  <score_type>  (9) 
oracle

>  <origin>  (9) 
adgpu

>  <m_score__min__energy>  (9) 
-7.9900000000000002

>  <m_primary>  (9) 
energy

$$$$
9:0
     RDKit          3D

 38 39  0  0  0  0  0  0  0  0999 V2000
   -6.4734   17.6941  -33.4155 H   0  0  0  0  0  0  0  0  0  0  0  0
   -6.3340   18.6810  -32.9500 C   0  0  0  0  0  0  0  0  0  0  0  0
   -5.1000   19.0730  -32.5490 N   0  0  0  0  0  0  0  0  0  0  0  0
   -4.8950   20.2840  -31.9700 C   0  0  0  0  0  0  0  0  0  0  0  0
   -3.6830   20.6030  -31.6110 N   0  0  0  0  0  0  0  0  0  0  0  0
   -3.2690   21.7740  -30.8910 C   0  0  0  0  0  0  0  0  0  0  0  0
   -2.1730   21.7390  -30.0170 C   0  0  0  0  0  0  0  0  0  0  0  0
   -1.6415   20.7916  -29.8438 H   0  0  0  0  0  0  0  0  0  0  0  0
   -1.7530   22.8990  -29.3660 C   0  0  0  0  0  0  0  0  0  0  0  0
   -0.9052   22.8575  -28.6664 H   0  0  0  0  0  0  0  0  0  0  0  0
   -2.4090   24.1230  -29.6000 C   0  0  0  0  0  0  0  0  0  0  0  0
   -2.0190   25.3100  -28.9610 O   0  0  0  0  0  0  0  0  0  0  0  0
   -1.6110   25.3980  -27.5990 C   0  0  0  0  0  0  0  0  0  0  0  0
   -2.4753   25.2116  -26.9446 H   0  0  0  0  0  0  0  0  0  0  0  0
   -0.8320   24.6472  -27.4004 H   0  0  0  0  0  0  0  0  0  0  0  0
   -1.2107   26.4031  -27.4004 H   0  0  0  0  0  0  0  0  0  0  0  0
   -3.4840   24.1720  -30.5010 C   0  0  0  0  0  0  0  0  0  0  0  0
   -4.1110   25.4080  -30.7250 O   0  0  0  0  0  0  0  0  0  0  0  0
   -5.4840   25.6760  -30.4570 C   0  0  0  0  0  0  0  0  0  0  0  0
   -5.6459   25.7076  -29.3694 H   0  0  0  0  0  0  0  0  0  0  0  0
   -5.7611   26.6452  -30.8973 H   0  0  0  0  0  0  0  0  0  0  0  0
   -6.1053   24.8822  -30.8973 H   0  0  0  0  0  0  0  0  0  0  0  0
   -3.9000   22.9940  -31.1530 C   0  0  0  0  0  0  0  0  0  0  0  0
   -4.7290   23.0346  -31.8749 H   0  0  0  0  0  0  0  0  0  0  0  0
   -5.9510   21.1430  -31.8150 N   0  0  0  0  0  0  0  0  0  0  0  0
   -5.7870   22.1060  -31.4550 H   0  0  0  0  0  0  0  0  0  0  0  0
   -7.2190   20.7890  -32.1920 C   0  0  0  0  0  0  0  0  0  0  0  0
   -8.3270   21.7040  -31.9980 N   0  0  0  0  0  0  0  0  0  0  0  0
   -8.0820   23.1420  -31.8400 C   0  0  0  0  0  0  0  0  0  0  0  0
   -8.0395   23.3913  -30.7695 H   0  0  0  0  0  0  0  0  0  0  0  0
   -7.1260   23.4056  -32.3160 H   0  0  0  0  0  0  0  0  0  0  0  0
   -8.8968   23.7073  -32.3160 H   0  0  0  0  0  0  0  0  0  0  0  0
   -9.7080   21.2070  -31.9480 C   0  0  0  0  0  0  0  0  0  0  0  0
  -10.0196   21.0949  -30.8990 H   0  0  0  0  0  0  0  0  0  0  0  0
  -10.3736   21.9220  -32.4538 H   0  0  0  0  0  0  0  0  0  0  0  0
   -9.7653   20.2318  -32.4538 H   0  0  0  0  0  0  0  0  0  0  0  0
   -7.4230   19.5260  -32.7730 C   0  0  0  0  0  0  0  0  0  0  0  0
   -8.4301   19.2107  -33.0832 H   0  0  0  0  0  0  0  0  0  0  0  0
  1  2  1  0
  2  3  2  0
  3  4  1  0
  4  5  2  0
  5  6  1  0
  6  7  2  0
  7  8  1  0
  7  9  1  0
  9 10  1  0
  9 11  2  0
 11 12  1  0
 12 13  1  0
 13 14  1  0
 13 15  1  0
 13 16  1  0
 11 17  1  0
 17 18  1  0
 18 19  1  0
 19 20  1  0
 19 21  1  0
 19 22  1  0
 17 23  2  0
 23 24  1  0
  4 25  1  0
 25 26  1  0
 25 27  1  0
 27 28  1  0
 28 29  1  0
 29 30  1  0
 29 31  1  0
 29 32  1  0
 28 33  1  0
 33 34  1  0
 33 35  1  0
 33 36  1  0
 27 37  2  0
 37 38  1  0
 37  2  1  0
 23  6  1  0
M  END
>  <UniqueID>  (10) 
9

>  <SMILES>  (10) 
COc1ccc(/N=c2/nccc(N(C)C)[nH]2)cc1OC

>  <Energy>  (10) 
47.27244058480059

>  <Genealogy>  (10) 
COc1ccc(/N=c2/nccc(N(C)C)[nH]2)cc1OC (cis-trans isomerization)
COc1ccc(/N=c2/nccc(N(C)C)[nH]2)cc1OC (3D coordinates assigned)
COc1ccc(/N=c2/nccc(N(C)C)[nH]2)cc1OC (optimized conformer: 47.27244058480059 kcal/mol)

>  <smiles>  (10) 
COc1ccc(N=c2nccc(N(C)C)[nH]2)cc1OC

>  <score_type>  (10) 
oracle

>  <origin>  (10) 
adgpu

>  <m_score__min__energy>  (10) 
-6.96

>  <m_primary>  (10) 
energy

$$$$
10:0
     RDKit          3D

 36 37  0  0  0  0  0  0  0  0999 V2000
   -2.2540   24.7580  -28.2060 C   0  0  0  0  0  0  0  0  0  0  0  0
   -2.9190   25.2990  -29.3420 O   0  0  0  0  0  0  0  0  0  0  0  0
   -4.0080   24.6910  -29.9860 C   0  0  0  0  0  0  0  0  0  0  0  0
   -5.2730   25.2590  -29.8260 C   0  0  0  0  0  0  0  0  0  0  0  0
   -6.3880   24.6940  -30.4480 C   0  0  0  0  0  0  0  0  0  0  0  0
   -6.2520   23.5490  -31.2560 C   0  0  0  0  0  0  0  0  0  0  0  0
   -7.3560   22.9620  -31.8960 O   0  0  0  0  0  0  0  0  0  0  0  0
   -8.4350   22.3220  -31.2230 C   0  0  0  0  0  0  0  0  0  0  0  0
   -4.9770   22.9770  -31.4280 C   0  0  0  0  0  0  0  0  0  0  0  0
   -4.7520   21.5630  -32.4640 S   0  0  0  0  0  0  0  0  0  0  0  0
   -3.8540   21.9370  -33.6100 O   0  0  0  0  0  0  0  0  0  0  0  0
   -4.1250   20.4360  -31.6920 O   0  0  0  0  0  0  0  0  0  0  0  0
   -6.2760   21.0230  -33.0900 N   0  0  0  0  0  0  0  0  0  0  0  0
   -6.6890   19.6530  -33.0240 C   0  0  0  0  0  0  0  0  0  0  0  0
   -7.6400   19.1490  -32.1570 C   0  0  0  0  0  0  0  0  0  0  0  0
   -7.6760   17.7870  -32.3880 C   0  0  0  0  0  0  0  0  0  0  0  0
   -6.7940   17.4630  -33.3570 N   0  0  0  0  0  0  0  0  0  0  0  0
   -6.4970   16.1210  -33.8420 C   0  0  0  0  0  0  0  0  0  0  0  0
   -6.1810   18.5940  -33.7520 C   0  0  0  0  0  0  0  0  0  0  0  0
   -3.8660   23.5410  -30.7820 C   0  0  0  0  0  0  0  0  0  0  0  0
   -2.7248   25.1410  -27.2886 H   0  0  0  0  0  0  0  0  0  0  0  0
   -2.3284   23.6607  -28.2257 H   0  0  0  0  0  0  0  0  0  0  0  0
   -1.1948   25.0541  -28.2257 H   0  0  0  0  0  0  0  0  0  0  0  0
   -5.3924   26.1590  -29.2049 H   0  0  0  0  0  0  0  0  0  0  0  0
   -7.3803   25.1469  -30.3057 H   0  0  0  0  0  0  0  0  0  0  0  0
   -8.2912   22.4073  -30.1358 H   0  0  0  0  0  0  0  0  0  0  0  0
   -9.3819   22.8046  -31.5066 H   0  0  0  0  0  0  0  0  0  0  0  0
   -8.4655   21.2596  -31.5066 H   0  0  0  0  0  0  0  0  0  0  0  0
   -6.9260   21.7320  -33.4980 H   0  0  0  0  0  0  0  0  0  0  0  0
   -8.2437   19.7152  -31.4325 H   0  0  0  0  0  0  0  0  0  0  0  0
   -8.3264   17.0734  -31.8609 H   0  0  0  0  0  0  0  0  0  0  0  0
   -6.3477   15.4465  -32.9860 H   0  0  0  0  0  0  0  0  0  0  0  0
   -7.3365   15.7578  -34.4530 H   0  0  0  0  0  0  0  0  0  0  0  0
   -5.5826   16.1459  -34.4530 H   0  0  0  0  0  0  0  0  0  0  0  0
   -5.4034   18.6640  -34.5269 H   0  0  0  0  0  0  0  0  0  0  0  0
   -2.8748   23.0788  -30.8996 H   0  0  0  0  0  0  0  0  0  0  0  0
  1  2  1  0
  2  3  1  0
  3  4  2  0
  4  5  1  0
  5  6  2  0
  6  7  1  0
  7  8  1  0
  6  9  1  0
  9 10  1  0
 10 11  2  0
 10 12  2  0
 10 13  1  0
 13 14  1  0
 14 15  1  0
 15 16  2  0
 16 17  1  0
 17 18  1  0
 17 19  1  0
  9 20  2  0
 20  3  1  0
 19 14  2  0
  1 21  1  0
  1 22  1  0
  1 23  1  0
  4 24  1  0
  5 25  1  0
  8 26  1  0
  8 27  1  0
  8 28  1  0
 13 29  1  0
 15 30  1  0
 16 31  1  0
 18 32  1  0
 18 33  1  0
 18 34  1  0
 19 35  1  0
 20 36  1  0
M  END
>  <UniqueID>  (11) 
10

>  <SMILES>  (11) 
COc1ccc(OC)c(S(=O)(=O)Nc2ccn(C)c2)c1

>  <Energy>  (11) 
61.72779106588436

>  <Genealogy>  (11) 
COc1ccc(OC)c(S(=O)(=O)Nc2ccn(C)c2)c1 (3D coordinates assigned)
COc1ccc(OC)c(S(=O)(=O)Nc2ccn(C)c2)c1 (optimized conformer: 61.72779106588436 kcal/mol)

>  <smiles>  (11) 
COc1ccc(OC)c(S(=O)(=O)Nc2ccn(C)c2)c1

>  <score_type>  (11) 
oracle

>  <origin>  (11) 
adgpu

>  <m_score__min__energy>  (11) 
-6.7800000000000002

>  <m_primary>  (11) 
energy

$$$$
11:0
     RDKit          3D

 31 33  0  0  0  0  0  0  0  0999 V2000
   -5.4820   25.9910  -31.0920 O   0  0  0  0  0  0  0  0  0  0  0  0
   -4.7720   25.0290  -30.6980 C   0  0  0  0  0  0  0  0  0  0  0  0
   -5.2820   23.6200  -30.7920 C   0  0  0  0  0  0  0  0  0  0  0  0
   -4.1570   22.6860  -30.9320 N   0  0  0  0  0  0  0  0  0  0  0  0
   -4.2090   21.4520  -32.1620 S   0  0  0  0  0  0  0  0  0  0  0  0
   -3.0930   20.4730  -31.9200 O   0  0  0  0  0  0  0  0  0  0  0  0
   -4.0380   22.0630  -33.5250 O   0  0  0  0  0  0  0  0  0  0  0  0
   -5.7690   20.6340  -32.1390 C   0  0  0  0  0  0  0  0  0  0  0  0
   -6.9400   21.3740  -32.3500 C   0  0  0  0  0  0  0  0  0  0  0  0
   -8.1870   20.7420  -32.3230 C   0  0  0  0  0  0  0  0  0  0  0  0
   -8.2680   19.3660  -32.0860 C   0  0  0  0  0  0  0  0  0  0  0  0
   -9.4770   18.7530  -32.0590 F   0  0  0  0  0  0  0  0  0  0  0  0
   -7.1020   18.6230  -31.8750 C   0  0  0  0  0  0  0  0  0  0  0  0
   -5.8540   19.2540  -31.9010 C   0  0  0  0  0  0  0  0  0  0  0  0
   -2.9850   22.8850  -30.1160 C   0  0  0  0  0  0  0  0  0  0  0  0
   -2.1740   21.8120  -29.7070 C   0  0  0  0  0  0  0  0  0  0  0  0
   -1.0300   22.0520  -28.9370 C   0  0  0  0  0  0  0  0  0  0  0  0
   -0.6920   23.3580  -28.5680 C   0  0  0  0  0  0  0  0  0  0  0  0
   -1.5050   24.4270  -28.9530 C   0  0  0  0  0  0  0  0  0  0  0  0
   -2.6560   24.1930  -29.7120 C   0  0  0  0  0  0  0  0  0  0  0  0
   -3.5050   25.2810  -30.0870 N   0  0  0  0  0  0  0  0  0  0  0  0
   -5.8469   23.3756  -29.8803 H   0  0  0  0  0  0  0  0  0  0  0  0
   -5.9363   23.5311  -31.6718 H   0  0  0  0  0  0  0  0  0  0  0  0
   -6.8781   22.4561  -32.5376 H   0  0  0  0  0  0  0  0  0  0  0  0
   -9.1039   21.3268  -32.4881 H   0  0  0  0  0  0  0  0  0  0  0  0
   -7.1665   17.5409  -31.6883 H   0  0  0  0  0  0  0  0  0  0  0  0
   -4.9383   18.6677  -31.7347 H   0  0  0  0  0  0  0  0  0  0  0  0
   -2.4386   20.7831  -29.9923 H   0  0  0  0  0  0  0  0  0  0  0  0
   -0.3950   21.2111  -28.6212 H   0  0  0  0  0  0  0  0  0  0  0  0
    0.2150   23.5437  -27.9740 H   0  0  0  0  0  0  0  0  0  0  0  0
   -1.2396   25.4532  -28.6590 H   0  0  0  0  0  0  0  0  0  0  0  0
  1  2  2  0
  2  3  1  0
  3  4  1  0
  4  5  1  0
  5  6  2  0
  5  7  2  0
  5  8  1  0
  8  9  2  0
  9 10  1  0
 10 11  2  0
 11 12  1  0
 11 13  1  0
 13 14  2  0
  4 15  1  0
 15 16  2  0
 16 17  1  0
 17 18  2  0
 18 19  1  0
 19 20  2  0
 20 21  1  0
 21  2  1  0
 14  8  1  0
 20 15  1  0
  3 22  1  0
  3 23  1  0
  9 24  1  0
 10 25  1  0
 13 26  1  0
 14 27  1  0
 16 28  1  0
 17 29  1  0
 18 30  1  0
 19 31  1  0
M  CHG  1  21  -1
M  END
>  <UniqueID>  (12) 
11

>  <SMILES>  (12) 
O=C1CN(S(=O)(=O)c2ccc(F)cc2)c2ccccc2[N-]1

>  <Energy>  (12) 
39.44895681893541

>  <Genealogy>  (12) 
O=C1CN(S(=O)(=O)c2ccc(F)cc2)c2ccccc2[N-]1 (protonated)
O=C1CN(S(=O)(=O)c2ccc(F)cc2)c2ccccc2[N-]1 (3D coordinates assigned)
O=C1CN(S(=O)(=O)c2ccc(F)cc2)c2ccccc2[N-]1 (nonaromatic ring conformer: 39.44895681893541 kcal/mol)

>  <smiles>  (12) 
O=C1CN(S(=O)(=O)c2ccc(F)cc2)c2ccccc2N1

>  <score_type>  (12) 
oracle

>  <origin>  (12) 
adgpu

>  <m_score__min__energy>  (12) 
-9.2400000000000002

>  <m_primary>  (12) 
energy

$$$$
12:0
     RDKit          3D

 32 33  0  0  0  0  0  0  0  0999 V2000
   -9.1206   22.1444  -31.6407 H   0  0  0  0  0  0  0  0  0  0  0  0
   -8.0390   22.3390  -31.5930 C   0  0  0  0  0  0  0  0  0  0  0  0
   -6.8480   21.4830  -32.4060 S   0  0  0  0  0  0  0  0  0  0  0  0
   -5.5330   22.3630  -31.8320 C   0  0  0  0  0  0  0  0  0  0  0  0
   -4.1370   22.0910  -32.2190 C   0  0  0  0  0  0  0  0  0  0  0  0
   -3.8490   21.9670  -33.4410 O   0  0  0  0  0  0  0  0  0  0  0  0
   -3.1340   21.9960  -31.2490 O   0  0  0  0  0  0  0  0  0  0  0  0
   -1.7450   21.9100  -31.5570 C   0  0  0  0  0  0  0  0  0  0  0  0
   -1.2863   22.9028  -31.4391 H   0  0  0  0  0  0  0  0  0  0  0  0
   -1.6323   21.5599  -32.5937 H   0  0  0  0  0  0  0  0  0  0  0  0
   -1.0500   20.9230  -30.6260 C   0  0  0  0  0  0  0  0  0  0  0  0
   -1.2475   21.2035  -29.5809 H   0  0  0  0  0  0  0  0  0  0  0  0
   -1.4349   19.9096  -30.8127 H   0  0  0  0  0  0  0  0  0  0  0  0
    0.0338   20.9438  -30.8127 H   0  0  0  0  0  0  0  0  0  0  0  0
   -6.0240   23.3540  -30.9700 C   0  0  0  0  0  0  0  0  0  0  0  0
   -5.0280   24.5090  -30.0820 S   0  0  0  0  0  0  0  0  0  0  0  0
   -4.3060   25.4170  -31.0370 O   0  0  0  0  0  0  0  0  0  0  0  0
   -5.9050   25.3300  -29.1790 O   0  0  0  0  0  0  0  0  0  0  0  0
   -3.8600   23.6770  -29.1080 N   0  0  0  0  0  0  0  0  0  0  0  0
   -2.6780   24.1560  -28.8770 C   0  0  0  0  0  0  0  0  0  0  0  0
   -2.2270   25.2990  -29.3400 O   0  0  0  0  0  0  0  0  0  0  0  0
   -1.0070   25.4900  -28.9330 N   0  0  0  0  0  0  0  0  0  0  0  0
   -0.4280   26.3310  -29.1560 H   0  0  0  0  0  0  0  0  0  0  0  0
   -0.6430   24.4300  -28.1830 C   0  0  0  0  0  0  0  0  0  0  0  0
    0.6700   24.2980  -27.4840 C   0  0  0  0  0  0  0  0  0  0  0  0
    0.5094   24.3141  -26.3959 H   0  0  0  0  0  0  0  0  0  0  0  0
    1.1441   23.3477  -27.7706 H   0  0  0  0  0  0  0  0  0  0  0  0
    1.3237   25.1350  -27.7706 H   0  0  0  0  0  0  0  0  0  0  0  0
   -1.7040   23.5460  -28.1160 C   0  0  0  0  0  0  0  0  0  0  0  0
   -1.8080   21.8840  -27.1790 Br  0  0  0  0  0  0  0  0  0  0  0  0
   -7.4230   23.3350  -30.8500 C   0  0  0  0  0  0  0  0  0  0  0  0
   -7.9804   24.0464  -30.2229 H   0  0  0  0  0  0  0  0  0  0  0  0
  1  2  1  0
  2  3  1  0
  3  4  1  0
  4  5  1  0
  5  6  2  0
  5  7  1  0
  7  8  1  0
  8  9  1  0
  8 10  1  0
  8 11  1  0
 11 12  1  0
 11 13  1  0
 11 14  1  0
  4 15  2  0
 15 16  1  0
 16 17  2  0
 16 18  2  0
 16 19  1  0
 19 20  2  0
 20 21  1  0
 21 22  1  0
 22 23  1  0
 22 24  1  0
 24 25  1  0
 25 26  1  0
 25 27  1  0
 25 28  1  0
 24 29  2  0
 29 30  1  0
 15 31  1  0
 31 32  1  0
 31  2  2  0
 29 20  1  0
M  END
>  <UniqueID>  (13) 
12

>  <SMILES>  (13) 
CCOC(=O)c1sccc1S(=O)(=O)/N=c1\o[nH]c(C)c1Br

>  <Energy>  (13) 
88.41214222563269

>  <Genealogy>  (13) 
CCOC(=O)c1sccc1S(=O)(=O)/N=c1\o[nH]c(C)c1Br (cis-trans isomerization)
CCOC(=O)c1sccc1S(=O)(=O)/N=c1\o[nH]c(C)c1Br (3D coordinates assigned)
CCOC(=O)c1sccc1S(=O)(=O)/N=c1\o[nH]c(C)c1Br (optimized conformer: 88.41214222563269 kcal/mol)

>  <smiles>  (13) 
CCOC(=O)c1sccc1S(=O)(=O)N=c1o[nH]c(C)c1Br

>  <score_type>  (13) 
oracle

>  <origin>  (13) 
adgpu

>  <m_score__min__energy>  (13) 
-8.1999999999999993

>  <m_primary>  (13) 
energy

$$$$
13:0
     RDKit          3D

 50 53  0  0  0  0  0  0  0  0999 V2000
    1.4794   28.4320  -26.7159 H   0  0  0  0  0  0  0  0  0  0  0  0
    0.7090   27.6480  -26.6720 C   0  0  0  0  0  0  0  0  0  0  0  0
    0.8210   26.5430  -27.4560 N   0  0  0  0  0  0  0  0  0  0  0  0
   -0.1040   25.5470  -27.4480 C   0  0  0  0  0  0  0  0  0  0  0  0
    0.0830   24.5200  -28.2310 N   0  0  0  0  0  0  0  0  0  0  0  0
   -0.7210   23.3330  -28.3180 C   0  0  0  0  0  0  0  0  0  0  0  0
   -0.2620   22.2620  -27.8370 O   0  0  0  0  0  0  0  0  0  0  0  0
   -2.0950   23.3530  -28.8790 C   0  0  0  0  0  0  0  0  0  0  0  0
   -2.8990   22.2020  -28.8210 C   0  0  0  0  0  0  0  0  0  0  0  0
   -2.5103   21.2875  -28.3492 H   0  0  0  0  0  0  0  0  0  0  0  0
   -4.1900   22.2110  -29.3590 C   0  0  0  0  0  0  0  0  0  0  0  0
   -4.8147   21.3077  -29.2978 H   0  0  0  0  0  0  0  0  0  0  0  0
   -4.6910   23.3640  -29.9750 C   0  0  0  0  0  0  0  0  0  0  0  0
   -6.2900   23.3470  -30.7220 S   0  0  0  0  0  0  0  0  0  0  0  0
   -6.8220   24.7520  -30.7940 O   0  0  0  0  0  0  0  0  0  0  0  0
   -7.2270   22.5390  -29.8680 O   0  0  0  0  0  0  0  0  0  0  0  0
   -6.2290   22.6620  -32.3340 N   0  0  2  0  0  0  0  0  0  0  0  0
   -6.1130   23.4780  -32.9790 H   0  0  0  0  0  0  0  0  0  0  0  0
   -7.5320   22.0300  -32.6800 C   0  0  0  0  0  0  0  0  0  0  0  0
   -7.7087   22.1548  -33.7585 H   0  0  0  0  0  0  0  0  0  0  0  0
   -8.3114   22.5242  -32.0814 H   0  0  0  0  0  0  0  0  0  0  0  0
   -7.5680   20.5600  -32.3520 C   0  0  0  0  0  0  0  0  0  0  0  0
   -8.7140   19.9430  -31.8290 C   0  0  0  0  0  0  0  0  0  0  0  0
   -9.6081   20.5430  -31.6040 H   0  0  0  0  0  0  0  0  0  0  0  0
   -8.7190   18.5650  -31.5940 C   0  0  0  0  0  0  0  0  0  0  0  0
   -9.6097   18.0843  -31.1632 H   0  0  0  0  0  0  0  0  0  0  0  0
   -7.5930   17.7970  -31.9060 C   0  0  0  0  0  0  0  0  0  0  0  0
   -7.6014   16.7119  -31.7257 H   0  0  0  0  0  0  0  0  0  0  0  0
   -6.4560   18.4060  -32.4470 C   0  0  0  0  0  0  0  0  0  0  0  0
   -5.5731   17.8000  -32.6985 H   0  0  0  0  0  0  0  0  0  0  0  0
   -6.4440   19.7900  -32.6680 C   0  0  0  0  0  0  0  0  0  0  0  0
   -5.2660   20.4950  -33.2640 C   0  0  0  0  0  0  0  0  0  0  0  0
   -5.4708   20.7284  -34.3193 H   0  0  0  0  0  0  0  0  0  0  0  0
   -4.3768   19.8503  -33.2033 H   0  0  0  0  0  0  0  0  0  0  0  0
   -5.0180   21.7970  -32.4870 C   0  0  0  0  0  0  0  0  0  0  0  0
   -4.2472   22.3742  -33.0187 H   0  0  0  0  0  0  0  0  0  0  0  0
   -4.7090   21.5048  -31.4725 H   0  0  0  0  0  0  0  0  0  0  0  0
   -3.9060   24.5230  -30.0080 C   0  0  0  0  0  0  0  0  0  0  0  0
   -4.3034   25.4400  -30.4676 H   0  0  0  0  0  0  0  0  0  0  0  0
   -2.6200   24.5210  -29.4600 C   0  0  0  0  0  0  0  0  0  0  0  0
   -2.0147   25.4392  -29.4834 H   0  0  0  0  0  0  0  0  0  0  0  0
   -1.2400   25.6740  -26.6210 C   0  0  0  0  0  0  0  0  0  0  0  0
   -2.0155   24.8939  -26.6198 H   0  0  0  0  0  0  0  0  0  0  0  0
   -1.3710   26.7990  -25.8040 C   0  0  0  0  0  0  0  0  0  0  0  0
   -2.2525   26.9057  -25.1547 H   0  0  0  0  0  0  0  0  0  0  0  0
   -0.3840   27.7910  -25.8090 C   0  0  0  0  0  0  0  0  0  0  0  0
   -0.5360   29.0220  -24.9670 C   0  0  0  0  0  0  0  0  0  0  0  0
   -0.5018   28.7450  -23.9030 H   0  0  0  0  0  0  0  0  0  0  0  0
    0.2825   29.7222  -25.1901 H   0  0  0  0  0  0  0  0  0  0  0  0
   -1.5002   29.5021  -25.1901 H   0  0  0  0  0  0  0  0  0  0  0  0
  1  2  1  0
  2  3  1  0
  3  4  1  0
  4  5  2  0
  5  6  1  0
  6  7  2  0
  6  8  1  0
  8  9  2  0
  9 10  1  0
  9 11  1  0
 11 12  1  0
 11 13  2  0
 13 14  1  0
 14 15  2  0
 14 16  2  0
 14 17  1  0
 17 18  1  6
 17 19  1  0
 19 20  1  0
 19 21  1  0
 19 22  1  0
 22 23  2  0
 23 24  1  0
 23 25  1  0
 25 26  1  0
 25 27  2  0
 27 28  1  0
 27 29  1  0
 29 30  1  0
 29 31  2  0
 31 32  1  0
 32 33  1  0
 32 34  1  0
 32 35  1  0
 35 36  1  0
 35 37  1  0
 13 38  1  0
 38 39  1  0
 38 40  2  0
 40 41  1  0
  4 42  1  0
 42 43  1  0
 42 44  2  0
 44 45  1  0
 44 46  1  0
 46 47  1  0
 47 48  1  0
 47 49  1  0
 47 50  1  0
 46  2  2  0
 40  8  1  0
 35 17  1  0
 31 22  1  0
M  CHG  2   3  -1  17   1
M  END
>  <UniqueID>  (14) 
13

>  <SMILES>  (14) 
Cc1cc/c(=N\C(=O)c2ccc(S(=O)(=O)[N@H+]3CCc4ccccc4C3)cc2)[n-]c1

>  <Energy>  (14) 
69.48712718987235

>  <Genealogy>  (14) 
Cc1ccc(=NC(=O)c2ccc(S(=O)(=O)[NH+]3CCc4ccccc4C3)cc2)[n-]c1 (protonated)
Cc1ccc(=NC(=O)c2ccc(S(=O)(=O)[N@H+]3CCc4ccccc4C3)cc2)[n-]c1 (chirality)
Cc1cc/c(=N\C(=O)c2ccc(S(=O)(=O)[N@H+]3CCc4ccccc4C3)cc2)[n-]c1 (cis-trans isomerization)
Cc1cc/c(=N\C(=O)c2ccc(S(=O)(=O)[N@H+]3CCc4ccccc4C3)cc2)[n-]c1 (3D coordinates assigned)
Cc1cc/c(=N\C(=O)c2ccc(S(=O)(=O)[N@H+]3CCc4ccccc4C3)cc2)[n-]c1 (nonaromatic ring conformer: 69.48712718987235 kcal/mol)

>  <smiles>  (14) 
Cc1ccc(=NC(=O)c2ccc(S(=O)(=O)N3CCc4ccccc4C3)cc2)[nH]c1

>  <score_type>  (14) 
oracle

>  <origin>  (14) 
adgpu

>  <m_score__min__energy>  (14) 
-11.85

>  <m_primary>  (14) 
energy

$$$$
14:0
     RDKit          3D

 32 33  0  0  0  0  0  0  0  0999 V2000
   -4.3770   24.1220  -28.7790 C   0  0  0  0  0  0  0  0  0  0  0  0
   -3.6650   24.2250  -30.1400 C   0  0  0  0  0  0  0  0  0  0  0  0
   -2.9540   22.9140  -30.5040 C   0  0  0  0  0  0  0  0  0  0  0  0
   -4.5580   24.7020  -31.2190 N   0  0  0  0  0  0  0  0  0  0  0  0
   -5.9890   24.7650  -30.8720 C   0  0  0  0  0  0  0  0  0  0  0  0
   -6.6950   23.5500  -31.3840 C   0  0  0  0  0  0  0  0  0  0  0  0
   -8.0330   23.4580  -31.6940 C   0  0  0  0  0  0  0  0  0  0  0  0
   -8.2490   22.2450  -32.1380 O   0  0  0  0  0  0  0  0  0  0  0  0
   -7.0970   21.6080  -32.1140 C   0  0  0  0  0  0  0  0  0  0  0  0
   -6.9280   20.2050  -32.5430 C   0  0  0  0  0  0  0  0  0  0  0  0
   -7.7120   19.1910  -31.9660 C   0  0  0  0  0  0  0  0  0  0  0  0
   -7.5540   17.8610  -32.3690 C   0  0  0  0  0  0  0  0  0  0  0  0
   -6.6130   17.5330  -33.3490 C   0  0  0  0  0  0  0  0  0  0  0  0
   -5.8290   18.5340  -33.9270 C   0  0  0  0  0  0  0  0  0  0  0  0
   -5.9830   19.8650  -33.5280 C   0  0  0  0  0  0  0  0  0  0  0  0
   -6.0860   22.3800  -31.6570 N   0  0  0  0  0  0  0  0  0  0  0  0
   -3.6391   24.2287  -27.9702 H   0  0  0  0  0  0  0  0  0  0  0  0
   -5.1289   24.9207  -28.6972 H   0  0  0  0  0  0  0  0  0  0  0  0
   -4.8717   23.1429  -28.6972 H   0  0  0  0  0  0  0  0  0  0  0  0
   -2.8880   24.9964  -30.0340 H   0  0  0  0  0  0  0  0  0  0  0  0
   -2.6670   22.3847  -29.5834 H   0  0  0  0  0  0  0  0  0  0  0  0
   -3.6323   22.2808  -31.0947 H   0  0  0  0  0  0  0  0  0  0  0  0
   -2.0533   23.1371  -31.0947 H   0  0  0  0  0  0  0  0  0  0  0  0
   -4.2400   25.6540  -31.5160 H   0  0  0  0  0  0  0  0  0  0  0  0
   -6.0965   24.8147  -29.7784 H   0  0  0  0  0  0  0  0  0  0  0  0
   -6.4324   25.6603  -31.3323 H   0  0  0  0  0  0  0  0  0  0  0  0
   -8.7826   24.2561  -31.5883 H   0  0  0  0  0  0  0  0  0  0  0  0
   -8.4533   19.4447  -31.1939 H   0  0  0  0  0  0  0  0  0  0  0  0
   -8.1711   17.0722  -31.9141 H   0  0  0  0  0  0  0  0  0  0  0  0
   -6.4899   16.4866  -33.6650 H   0  0  0  0  0  0  0  0  0  0  0  0
   -5.0886   18.2745  -34.6980 H   0  0  0  0  0  0  0  0  0  0  0  0
   -5.3628   20.6495  -33.9861 H   0  0  0  0  0  0  0  0  0  0  0  0
  1  2  1  0
  2  3  1  0
  2  4  1  0
  4  5  1  0
  5  6  1  0
  6  7  2  0
  7  8  1  0
  8  9  1  0
  9 10  1  0
 10 11  2  0
 11 12  1  0
 12 13  2  0
 13 14  1  0
 14 15  2  0
  9 16  2  0
 16  6  1  0
 15 10  1  0
  1 17  1  0
  1 18  1  0
  1 19  1  0
  2 20  1  0
  3 21  1  0
  3 22  1  0
  3 23  1  0
  4 24  1  0
  5 25  1  0
  5 26  1  0
  7 27  1  0
 11 28  1  0
 12 29  1  0
 13 30  1  0
 14 31  1  0
 15 32  1  0
M  END
>  <UniqueID>  (15) 
14

>  <SMILES>  (15) 
CC(C)NCc1coc(-c2ccccc2)n1

>  <Energy>  (15) 
60.61977474581466

>  <Genealogy>  (15) 
CC(C)NCc1coc(-c2ccccc2)n1 (3D coordinates assigned)
CC(C)NCc1coc(-c2ccccc2)n1 (optimized conformer: 60.61977474581466 kcal/mol)

>  <smiles>  (15) 
CC(C)NCc1coc(-c2ccccc2)n1

>  <score_type>  (15) 
oracle

>  <origin>  (15) 
adgpu

>  <m_score__min__energy>  (15) 
-6.7699999999999996

>  <m_primary>  (15) 
energy

$$$$
15:0
     RDKit          3D

 30 31  0  0  0  0  0  0  0  0999 V2000
   -3.7440   20.7910  -33.1150 C   0  0  0  0  0  0  0  0  0  0  0  0
   -5.1600   21.0270  -32.6630 C   0  0  0  0  0  0  0  0  0  0  0  0
   -6.1890   20.2090  -33.1610 C   0  0  0  0  0  0  0  0  0  0  0  0
   -7.5110   20.4060  -32.7560 C   0  0  0  0  0  0  0  0  0  0  0  0
   -7.8190   21.4130  -31.8400 C   0  0  0  0  0  0  0  0  0  0  0  0
   -9.4780   21.6450  -31.3190 Cl  0  0  0  0  0  0  0  0  0  0  0  0
   -6.8050   22.2270  -31.3280 C   0  0  0  0  0  0  0  0  0  0  0  0
   -5.4710   22.0510  -31.7380 C   0  0  0  0  0  0  0  0  0  0  0  0
   -4.4280   22.8700  -31.1760 N   0  0  0  0  0  0  0  0  0  0  0  0
   -4.5800   24.2670  -30.8960 C   0  0  0  0  0  0  0  0  0  0  0  0
   -5.6190   24.8820  -31.2610 O   0  0  0  0  0  0  0  0  0  0  0  0
   -3.5430   24.9510  -30.1800 N   0  0  0  0  0  0  0  0  0  0  0  0
   -2.7670   24.4280  -29.0920 C   0  0  0  0  0  0  0  0  0  0  0  0
   -3.1560   23.2720  -28.3890 C   0  0  0  0  0  0  0  0  0  0  0  0
   -2.3870   22.8040  -27.3190 C   0  0  0  0  0  0  0  0  0  0  0  0
   -1.2350   23.4920  -26.9310 C   0  0  0  0  0  0  0  0  0  0  0  0
   -0.8540   24.6540  -27.6070 C   0  0  0  0  0  0  0  0  0  0  0  0
   -1.6200   25.1250  -28.6800 C   0  0  0  0  0  0  0  0  0  0  0  0
   -1.2330   26.2880  -29.3390 O   0  0  0  0  0  0  0  0  0  0  0  0
   -3.0918   20.6823  -32.2359 H   0  0  0  0  0  0  0  0  0  0  0  0
   -3.7003   19.8732  -33.7197 H   0  0  0  0  0  0  0  0  0  0  0  0
   -3.4050   21.6450  -33.7197 H   0  0  0  0  0  0  0  0  0  0  0  0
   -5.9511   19.4072  -33.8755 H   0  0  0  0  0  0  0  0  0  0  0  0
   -8.3103   19.7669  -33.1593 H   0  0  0  0  0  0  0  0  0  0  0  0
   -7.0521   23.0120  -30.5982 H   0  0  0  0  0  0  0  0  0  0  0  0
   -3.4860   22.4470  -31.0190 H   0  0  0  0  0  0  0  0  0  0  0  0
   -4.0695   22.7342  -28.6829 H   0  0  0  0  0  0  0  0  0  0  0  0
   -2.6897   21.8929  -26.7821 H   0  0  0  0  0  0  0  0  0  0  0  0
   -0.6276   23.1190  -26.0932 H   0  0  0  0  0  0  0  0  0  0  0  0
    0.0491   25.1995  -27.2957 H   0  0  0  0  0  0  0  0  0  0  0  0
  1  2  1  0
  2  3  2  0
  3  4  1  0
  4  5  2  0
  5  6  1  0
  5  7  1  0
  7  8  2  0
  8  9  1  0
  9 10  1  0
 10 11  2  0
 10 12  1  0
 12 13  1  0
 13 14  2  0
 14 15  1  0
 15 16  2  0
 16 17  1  0
 17 18  2  0
 18 19  1  0
  8  2  1  0
 18 13  1  0
  1 20  1  0
  1 21  1  0
  1 22  1  0
  3 23  1  0
  4 24  1  0
  7 25  1  0
  9 26  1  0
 14 27  1  0
 15 28  1  0
 16 29  1  0
 17 30  1  0
M  CHG  2  12  -1  19  -1
M  END
>  <UniqueID>  (16) 
15

>  <SMILES>  (16) 
Cc1ccc(Cl)cc1NC(=O)[N-]c1ccccc1[O-]

>  <Energy>  (16) 
38.272992218642386

>  <Genealogy>  (16) 
Cc1ccc(Cl)cc1NC(=O)[N-]c1ccccc1[O-] (protonated)
Cc1ccc(Cl)cc1NC(=O)[N-]c1ccccc1[O-] (3D coordinates assigned)
Cc1ccc(Cl)cc1NC(=O)[N-]c1ccccc1[O-] (optimized conformer: 38.272992218642386 kcal/mol)

>  <smiles>  (16) 
Cc1ccc(Cl)cc1NC(=O)Nc1ccccc1O

>  <score_type>  (16) 
oracle

>  <origin>  (16) 
adgpu

>  <m_score__min__energy>  (16) 
-11.69

>  <m_primary>  (16) 
energy

$$$$
16:0
     RDKit          3D

 58 62  0  0  0  0  0  0  0  0999 V2000
   -4.2490   14.8940  -32.5660 C   0  0  0  0  0  0  0  0  0  0  0  0
   -4.0760   16.3000  -32.7170 O   0  0  0  0  0  0  0  0  0  0  0  0
   -5.1290   17.2230  -32.7950 C   0  0  0  0  0  0  0  0  0  0  0  0
   -5.1070   18.1710  -33.8240 C   0  0  0  0  0  0  0  0  0  0  0  0
   -6.1330   19.1120  -33.9470 C   0  0  0  0  0  0  0  0  0  0  0  0
   -7.2030   19.1220  -33.0320 C   0  0  0  0  0  0  0  0  0  0  0  0
   -8.2770   20.0760  -33.1310 N   0  0  0  0  0  0  0  0  0  0  0  0
   -8.6940   21.1970  -31.8750 S   0  0  0  0  0  0  0  0  0  0  0  0
   -9.0830   20.4360  -30.6380 O   0  0  0  0  0  0  0  0  0  0  0  0
   -9.8660   22.0300  -32.3160 O   0  0  0  0  0  0  0  0  0  0  0  0
   -7.3040   22.2090  -31.4990 C   0  0  0  0  0  0  0  0  0  0  0  0
   -6.8460   23.1440  -32.4600 C   0  0  0  0  0  0  0  0  0  0  0  0
   -5.7450   23.9760  -32.1790 C   0  0  0  0  0  0  0  0  0  0  0  0
   -5.1360   23.8440  -30.9340 C   0  0  0  0  0  0  0  0  0  0  0  0
   -4.0870   24.5290  -30.4590 N   0  0  0  0  0  0  0  0  0  0  0  0
   -3.9270   24.0030  -29.2130 C   0  0  0  0  0  0  0  0  0  0  0  0
   -2.8690   24.4540  -28.2810 C   0  0  0  0  0  0  0  0  0  0  0  0
   -3.2030   24.9080  -26.9960 C   0  0  0  0  0  0  0  0  0  0  0  0
   -2.2080   25.3330  -26.1150 C   0  0  0  0  0  0  0  0  0  0  0  0
   -0.8620   25.2980  -26.4920 C   0  0  0  0  0  0  0  0  0  0  0  0
    0.1000   25.7360  -25.5700 O   0  0  0  0  0  0  0  0  0  0  0  0
    0.3010   27.0720  -25.1890 C   0  0  0  0  0  0  0  0  0  0  0  0
   -0.2600   28.0860  -25.9780 C   0  0  0  0  0  0  0  0  0  0  0  0
   -0.0880   29.4290  -25.6280 C   0  0  0  0  0  0  0  0  0  0  0  0
    0.6350   29.7680  -24.4800 C   0  0  0  0  0  0  0  0  0  0  0  0
    1.1830   28.7620  -23.6780 C   0  0  0  0  0  0  0  0  0  0  0  0
    1.0140   27.4190  -24.0270 C   0  0  0  0  0  0  0  0  0  0  0  0
   -0.5080   24.8720  -27.7880 C   0  0  0  0  0  0  0  0  0  0  0  0
    0.8430   24.9110  -28.1710 O   0  0  0  0  0  0  0  0  0  0  0  0
    1.9130   24.3330  -27.4320 C   0  0  0  0  0  0  0  0  0  0  0  0
   -1.5190   24.4390  -28.6720 C   0  0  0  0  0  0  0  0  0  0  0  0
   -4.8250   23.0290  -28.9000 N   0  0  0  0  0  0  0  0  0  0  0  0
   -5.5740   22.9510  -30.0080 C   0  0  0  0  0  0  0  0  0  0  0  0
   -6.6570   22.1070  -30.2480 C   0  0  0  0  0  0  0  0  0  0  0  0
   -7.2270   18.1670  -32.0050 C   0  0  0  0  0  0  0  0  0  0  0  0
   -6.2000   17.2270  -31.8830 C   0  0  0  0  0  0  0  0  0  0  0  0
   -4.2801   14.6412  -31.4959 H   0  0  0  0  0  0  0  0  0  0  0  0
   -5.1917   14.5873  -33.0428 H   0  0  0  0  0  0  0  0  0  0  0  0
   -3.4088   14.3679  -33.0428 H   0  0  0  0  0  0  0  0  0  0  0  0
   -4.2744   18.1756  -34.5428 H   0  0  0  0  0  0  0  0  0  0  0  0
   -6.1044   19.8489  -34.7632 H   0  0  0  0  0  0  0  0  0  0  0  0
   -8.9090   20.0410  -33.9630 H   0  0  0  0  0  0  0  0  0  0  0  0
   -7.3541   23.2206  -33.4326 H   0  0  0  0  0  0  0  0  0  0  0  0
   -5.3790   24.7046  -32.9173 H   0  0  0  0  0  0  0  0  0  0  0  0
   -4.2567   24.9290  -26.6810 H   0  0  0  0  0  0  0  0  0  0  0  0
   -2.4849   25.6988  -25.1152 H   0  0  0  0  0  0  0  0  0  0  0  0
   -0.8381   27.8241  -26.8764 H   0  0  0  0  0  0  0  0  0  0  0  0
   -0.5222   30.2202  -26.2569 H   0  0  0  0  0  0  0  0  0  0  0  0
    0.7725   30.8250  -24.2081 H   0  0  0  0  0  0  0  0  0  0  0  0
    1.7474   29.0277  -22.7720 H   0  0  0  0  0  0  0  0  0  0  0  0
    1.4404   26.6300  -23.3902 H   0  0  0  0  0  0  0  0  0  0  0  0
    1.7148   24.4400  -26.3553 H   0  0  0  0  0  0  0  0  0  0  0  0
    1.9988   23.2659  -27.6847 H   0  0  0  0  0  0  0  0  0  0  0  0
    2.8525   24.8463  -27.6847 H   0  0  0  0  0  0  0  0  0  0  0  0
   -1.2477   24.0859  -29.6779 H   0  0  0  0  0  0  0  0  0  0  0  0
   -6.9960   21.3864  -29.4891 H   0  0  0  0  0  0  0  0  0  0  0  0
   -8.0619   18.1578  -31.2889 H   0  0  0  0  0  0  0  0  0  0  0  0
   -6.2293   16.4867  -31.0699 H   0  0  0  0  0  0  0  0  0  0  0  0
  1  2  1  0
  2  3  1  0
  3  4  2  0
  4  5  1  0
  5  6  2  0
  6  7  1  0
  7  8  1  0
  8  9  2  0
  8 10  2  0
  8 11  1  0
 11 12  2  0
 12 13  1  0
 13 14  2  0
 14 15  1  0
 15 16  1  0
 16 17  1  0
 17 18  2  0
 18 19  1  0
 19 20  2  0
 20 21  1  0
 21 22  1  0
 22 23  2  0
 23 24  1  0
 24 25  2  0
 25 26  1  0
 26 27  2  0
 20 28  1  0
 28 29  1  0
 29 30  1  0
 28 31  2  0
 16 32  2  0
 32 33  1  0
 33 34  2  0
  6 35  1  0
 35 36  2  0
 36  3  1  0
 34 11  1  0
 33 14  1  0
 31 17  1  0
 27 22  1  0
  1 37  1  0
  1 38  1  0
  1 39  1  0
  4 40  1  0
  5 41  1  0
  7 42  1  0
 12 43  1  0
 13 44  1  0
 18 45  1  0
 19 46  1  0
 23 47  1  0
 24 48  1  0
 25 49  1  0
 26 50  1  0
 27 51  1  0
 30 52  1  0
 30 53  1  0
 30 54  1  0
 31 55  1  0
 34 56  1  0
 35 57  1  0
 36 58  1  0
M  CHG  1  15  -1
M  END
>  <UniqueID>  (17) 
16

>  <SMILES>  (17) 
COc1ccc(NS(=O)(=O)c2ccc3[n-]c(-c4ccc(Oc5ccccc5)c(OC)c4)nc3c2)cc1

>  <Energy>  (17) 
108.93957045896224

>  <Genealogy>  (17) 
COc1ccc(NS(=O)(=O)c2ccc3[n-]c(-c4ccc(Oc5ccccc5)c(OC)c4)nc3c2)cc1 (protonated)
COc1ccc(NS(=O)(=O)c2ccc3[n-]c(-c4ccc(Oc5ccccc5)c(OC)c4)nc3c2)cc1 (3D coordinates assigned)
COc1ccc(NS(=O)(=O)c2ccc3[n-]c(-c4ccc(Oc5ccccc5)c(OC)c4)nc3c2)cc1 (optimized conformer: 108.93957045896224 kcal/mol)

>  <smiles>  (17) 
COc1ccc(NS(=O)(=O)c2ccc3[nH]c(-c4ccc(Oc5ccccc5)c(OC)c4)nc3c2)cc1

>  <score_type>  (17) 
oracle

>  <origin>  (17) 
adgpu

>  <m_score__min__energy>  (17) 
-10.75

>  <m_primary>  (17) 
energy

$$$$
17:0
     RDKit          3D

 42 44  0  0  0  0  0  0  0  0999 V2000
   -7.2063   23.8008  -31.3199 H   0  0  0  0  0  0  0  0  0  0  0  0
   -6.3490   23.2550  -30.8990 C   0  0  0  0  0  0  0  0  0  0  0  0
   -5.2420   24.0280  -30.3010 C   0  0  0  0  0  0  0  0  0  0  0  0
   -4.5970   24.8210  -31.0380 O   0  0  0  0  0  0  0  0  0  0  0  0
   -4.9350   23.9380  -28.8990 N   0  0  0  0  0  0  0  0  0  0  0  0
   -5.7090   23.6920  -28.2410 H   0  0  0  0  0  0  0  0  0  0  0  0
   -3.6690   24.3220  -28.3340 C   0  0  0  0  0  0  0  0  0  0  0  0
   -3.5770   24.5710  -26.9560 C   0  0  0  0  0  0  0  0  0  0  0  0
   -4.4735   24.4865  -26.3242 H   0  0  0  0  0  0  0  0  0  0  0  0
   -2.3520   24.9260  -26.3810 C   0  0  0  0  0  0  0  0  0  0  0  0
   -2.2930   25.1344  -25.3025 H   0  0  0  0  0  0  0  0  0  0  0  0
   -1.2020   25.0170  -27.1720 C   0  0  0  0  0  0  0  0  0  0  0  0
    0.3330   25.4870  -26.4530 S   0  0  0  0  0  0  0  0  0  0  0  0
    1.4290   25.3990  -27.4790 O   0  0  0  0  0  0  0  0  0  0  0  0
    0.6760   24.5570  -25.3220 O   0  0  0  0  0  0  0  0  0  0  0  0
    0.2050   27.1370  -25.8540 C   0  0  0  0  0  0  0  0  0  0  0  0
    0.7390   27.4760  -24.6030 C   0  0  0  0  0  0  0  0  0  0  0  0
    1.2543   26.7129  -24.0012 H   0  0  0  0  0  0  0  0  0  0  0  0
    0.6180   28.7830  -24.1180 C   0  0  0  0  0  0  0  0  0  0  0  0
    1.0415   29.0472  -23.1378 H   0  0  0  0  0  0  0  0  0  0  0  0
   -0.0410   29.7530  -24.8790 C   0  0  0  0  0  0  0  0  0  0  0  0
   -0.1325   30.7813  -24.4993 H   0  0  0  0  0  0  0  0  0  0  0  0
   -0.5840   29.4160  -26.1230 C   0  0  0  0  0  0  0  0  0  0  0  0
   -1.1063   30.1788  -26.7191 H   0  0  0  0  0  0  0  0  0  0  0  0
   -0.4640   28.1110  -26.6100 C   0  0  0  0  0  0  0  0  0  0  0  0
   -0.8948   27.8477  -27.5873 H   0  0  0  0  0  0  0  0  0  0  0  0
   -1.2850   24.7590  -28.5460 C   0  0  0  0  0  0  0  0  0  0  0  0
   -0.3846   24.8359  -29.1731 H   0  0  0  0  0  0  0  0  0  0  0  0
   -2.5080   24.4040  -29.1240 C   0  0  0  0  0  0  0  0  0  0  0  0
   -2.5623   24.1879  -30.2012 H   0  0  0  0  0  0  0  0  0  0  0  0
   -6.3520   21.9150  -30.9500 C   0  0  0  0  0  0  0  0  0  0  0  0
   -5.4986   21.3755  -30.5133 H   0  0  0  0  0  0  0  0  0  0  0  0
   -7.4450   21.1210  -31.5640 C   0  0  0  0  0  0  0  0  0  0  0  0
   -7.2380   19.8450  -32.1260 C   0  0  0  0  0  0  0  0  0  0  0  0
   -6.2342   19.3954  -32.1109 H   0  0  0  0  0  0  0  0  0  0  0  0
   -8.2760   19.1680  -32.6870 N   0  0  0  0  0  0  0  0  0  0  0  0
   -9.5300   19.6860  -32.7310 C   0  0  0  0  0  0  0  0  0  0  0  0
  -10.3480   19.1075  -33.1851 H   0  0  0  0  0  0  0  0  0  0  0  0
   -9.7820   20.9510  -32.2010 C   0  0  0  0  0  0  0  0  0  0  0  0
  -10.7951   21.3777  -32.2388 H   0  0  0  0  0  0  0  0  0  0  0  0
   -8.7350   21.6700  -31.6220 C   0  0  0  0  0  0  0  0  0  0  0  0
   -8.9222   22.6722  -31.2090 H   0  0  0  0  0  0  0  0  0  0  0  0
  1  2  1  0
  2  3  1  0
  3  4  2  0
  3  5  1  0
  5  6  1  0
  5  7  1  0
  7  8  2  0
  8  9  1  0
  8 10  1  0
 10 11  1  0
 10 12  2  0
 12 13  1  0
 13 14  2  0
 13 15  2  0
 13 16  1  0
 16 17  2  0
 17 18  1  0
 17 19  1  0
 19 20  1  0
 19 21  2  0
 21 22  1  0
 21 23  1  0
 23 24  1  0
 23 25  2  0
 25 26  1  0
 12 27  1  0
 27 28  1  0
 27 29  2  0
 29 30  1  0
  2 31  2  0
 31 32  1  0
 31 33  1  0
 33 34  2  0
 34 35  1  0
 34 36  1  0
 36 37  2  0
 37 38  1  0
 37 39  1  0
 39 40  1  0
 39 41  2  0
 41 42  1  0
 29  7  1  0
 41 33  1  0
 25 16  1  0
M  END
>  <UniqueID>  (18) 
17

>  <SMILES>  (18) 
O=C(/C=C/c1cccnc1)Nc1ccc(S(=O)(=O)c2ccccc2)cc1

>  <Energy>  (18) 
53.517186843346835

>  <Genealogy>  (18) 
O=C(/C=C/c1cccnc1)Nc1ccc(S(=O)(=O)c2ccccc2)cc1 (cis-trans isomerization)
O=C(/C=C/c1cccnc1)Nc1ccc(S(=O)(=O)c2ccccc2)cc1 (3D coordinates assigned)
O=C(/C=C/c1cccnc1)Nc1ccc(S(=O)(=O)c2ccccc2)cc1 (optimized conformer: 53.517186843346835 kcal/mol)

>  <smiles>  (18) 
O=C(C=Cc1cccnc1)Nc1ccc(S(=O)(=O)c2ccccc2)cc1

>  <score_type>  (18) 
oracle

>  <origin>  (18) 
adgpu

>  <m_score__min__energy>  (18) 
-9.0600000000000005

>  <m_primary>  (18) 
energy

$$$$
18:0
     RDKit          3D

 42 45  0  0  0  0  0  0  0  0999 V2000
   -6.2130   25.9610  -31.6880 H   0  0  0  0  0  0  0  0  0  0  0  0
   -5.4320   26.0320  -30.9970 N   0  0  0  0  0  0  0  0  0  0  0  0
   -4.7290   25.0000  -30.6640 C   0  0  0  0  0  0  0  0  0  0  0  0
   -3.7230   25.1300  -29.7630 N   0  0  0  0  0  0  0  0  0  0  0  0
   -2.9620   24.0670  -29.3910 C   0  0  0  0  0  0  0  0  0  0  0  0
   -1.8920   24.2560  -28.3830 C   0  0  0  0  0  0  0  0  0  0  0  0
   -1.7230   23.2910  -27.3740 C   0  0  0  0  0  0  0  0  0  0  0  0
   -2.3856   22.4135  -27.3417 H   0  0  0  0  0  0  0  0  0  0  0  0
   -0.7200   23.4380  -26.4120 C   0  0  0  0  0  0  0  0  0  0  0  0
   -0.5916   22.6737  -25.6314 H   0  0  0  0  0  0  0  0  0  0  0  0
    0.1190   24.5530  -26.4400 C   0  0  0  0  0  0  0  0  0  0  0  0
    0.9133   24.6628  -25.6870 H   0  0  0  0  0  0  0  0  0  0  0  0
   -0.0500   25.5290  -27.4240 C   0  0  0  0  0  0  0  0  0  0  0  0
    0.6099   26.4089  -27.4406 H   0  0  0  0  0  0  0  0  0  0  0  0
   -1.0540   25.3940  -28.3890 C   0  0  0  0  0  0  0  0  0  0  0  0
   -1.2270   26.4070  -29.3260 O   0  0  0  0  0  0  0  0  0  0  0  0
   -3.2390   22.8040  -29.9350 C   0  0  0  0  0  0  0  0  0  0  0  0
   -2.6549   21.9238  -29.6282 H   0  0  0  0  0  0  0  0  0  0  0  0
   -4.2730   22.6800  -30.8770 C   0  0  0  0  0  0  0  0  0  0  0  0
   -4.6150   21.3720  -31.4950 C   0  0  0  0  0  0  0  0  0  0  0  0
   -3.6270   20.4260  -31.8200 C   0  0  0  0  0  0  0  0  0  0  0  0
   -2.5697   20.6442  -31.6092 H   0  0  0  0  0  0  0  0  0  0  0  0
   -3.9720   19.2440  -32.3930 N   0  0  0  0  0  0  0  0  0  0  0  0
   -5.2620   18.9180  -32.6790 C   0  0  0  0  0  0  0  0  0  0  0  0
   -5.5560   17.6440  -33.2850 N   0  0  0  0  0  0  0  0  0  0  0  0
   -6.8520   17.2660  -33.8240 C   0  0  0  0  0  0  0  0  0  0  0  0
   -7.6372   17.4027  -33.0659 H   0  0  0  0  0  0  0  0  0  0  0  0
   -7.1277   17.8857  -34.6900 H   0  0  0  0  0  0  0  0  0  0  0  0
   -6.7290   15.7950  -34.2020 C   0  0  0  0  0  0  0  0  0  0  0  0
   -7.2232   15.1636  -33.4489 H   0  0  0  0  0  0  0  0  0  0  0  0
   -7.2102   15.5843  -35.1685 H   0  0  0  0  0  0  0  0  0  0  0  0
   -5.2330   15.4990  -34.2440 C   0  0  0  0  0  0  0  0  0  0  0  0
   -5.0270   14.5084  -33.8125 H   0  0  0  0  0  0  0  0  0  0  0  0
   -4.8526   15.4904  -35.2761 H   0  0  0  0  0  0  0  0  0  0  0  0
   -4.5670   16.5870  -33.4130 C   0  0  0  0  0  0  0  0  0  0  0  0
   -4.2909   16.1978  -32.4219 H   0  0  0  0  0  0  0  0  0  0  0  0
   -3.6426   16.9506  -33.8856 H   0  0  0  0  0  0  0  0  0  0  0  0
   -6.2790   19.8400  -32.3830 C   0  0  0  0  0  0  0  0  0  0  0  0
   -7.3279   19.5998  -32.6115 H   0  0  0  0  0  0  0  0  0  0  0  0
   -5.9500   21.0630  -31.7970 C   0  0  0  0  0  0  0  0  0  0  0  0
   -6.7433   21.7904  -31.5701 H   0  0  0  0  0  0  0  0  0  0  0  0
   -4.9950   23.7840  -31.2100 N   0  0  0  0  0  0  0  0  0  0  0  0
  1  2  1  0
  2  3  2  0
  3  4  1  0
  4  5  2  0
  5  6  1  0
  6  7  2  0
  7  8  1  0
  7  9  1  0
  9 10  1  0
  9 11  2  0
 11 12  1  0
 11 13  1  0
 13 14  1  0
 13 15  2  0
 15 16  1  0
  5 17  1  0
 17 18  1  0
 17 19  2  0
 19 20  1  0
 20 21  2  0
 21 22  1  0
 21 23  1  0
 23 24  2  0
 24 25  1  0
 25 26  1  0
 26 27  1  0
 26 28  1  0
 26 29  1  0
 29 30  1  0
 29 31  1  0
 29 32  1  0
 32 33  1  0
 32 34  1  0
 32 35  1  0
 35 36  1  0
 35 37  1  0
 24 38  1  0
 38 39  1  0
 38 40  2  0
 40 41  1  0
 19 42  1  0
 42  3  1  0
 15  6  1  0
 40 20  1  0
 35 25  1  0
M  CHG  2  16  -1  42  -1
M  END
>  <UniqueID>  (19) 
18

>  <SMILES>  (19) 
[H]/N=c1/nc(-c2ccccc2[O-])cc(-c2ccc(N3CCCC3)nc2)[n-]1

>  <Energy>  (19) 
56.40168802878851

>  <Genealogy>  (19) 
N=c1nc(-c2ccccc2[O-])cc(-c2ccc(N3CCCC3)nc2)[n-]1 (protonated)
[H]/N=c1/nc(-c2ccccc2[O-])cc(-c2ccc(N3CCCC3)nc2)[n-]1 (cis-trans isomerization)
[H]/N=c1/nc(-c2ccccc2[O-])cc(-c2ccc(N3CCCC3)nc2)[n-]1 (3D coordinates assigned)
[H]/N=c1/nc(-c2ccccc2[O-])cc(-c2ccc(N3CCCC3)nc2)[n-]1 (nonaromatic ring conformer: 56.40168802878851 kcal/mol)

>  <smiles>  (19) 
N=c1nc(-c2ccccc2O)cc(-c2ccc(N3CCCC3)nc2)[nH]1

>  <score_type>  (19) 
oracle

>  <origin>  (19) 
adgpu

>  <m_score__min__energy>  (19) 
-11.970000000000001

>  <m_primary>  (19) 
energy

$$$$
19:0
     RDKit          3D

 46 48  0  0  0  0  0  0  0  0999 V2000
   -3.5640   22.9836  -31.8302 H   0  0  0  0  0  0  0  0  0  0  0  0
   -4.4650   22.3840  -32.0270 C   0  0  0  0  0  0  0  0  0  0  0  0
   -4.4910   20.8220  -32.6460 S   0  0  0  0  0  0  0  0  0  0  0  0
   -6.1750   20.7120  -32.6080 C   0  0  0  0  0  0  0  0  0  0  0  0
   -6.8780   19.6920  -33.0130 N   0  0  0  0  0  0  0  0  0  0  0  0
   -6.3690   18.4270  -33.4600 C   0  0  0  0  0  0  0  0  0  0  0  0
   -5.5370   18.3270  -34.5880 C   0  0  0  0  0  0  0  0  0  0  0  0
   -5.2914   19.2279  -35.1695 H   0  0  0  0  0  0  0  0  0  0  0  0
   -5.0200   17.0860  -34.9740 C   0  0  0  0  0  0  0  0  0  0  0  0
   -4.3893   17.0112  -35.8721 H   0  0  0  0  0  0  0  0  0  0  0  0
   -5.3020   15.9360  -34.2210 C   0  0  0  0  0  0  0  0  0  0  0  0
   -4.7710   14.5960  -34.6530 C   0  0  0  0  0  0  0  0  0  0  0  0
   -5.4634   14.1519  -35.3833 H   0  0  0  0  0  0  0  0  0  0  0  0
   -4.6825   13.9492  -33.7677 H   0  0  0  0  0  0  0  0  0  0  0  0
   -3.3940   14.7410  -35.2930 C   0  0  0  0  0  0  0  0  0  0  0  0
   -2.6303   14.8214  -34.5054 H   0  0  0  0  0  0  0  0  0  0  0  0
   -3.1853   13.8599  -35.9175 H   0  0  0  0  0  0  0  0  0  0  0  0
   -3.3734   15.6463  -35.9175 H   0  0  0  0  0  0  0  0  0  0  0  0
   -6.1180   16.0410  -33.0830 C   0  0  0  0  0  0  0  0  0  0  0  0
   -6.3538   15.1430  -32.4930 H   0  0  0  0  0  0  0  0  0  0  0  0
   -6.6320   17.2830  -32.6970 C   0  0  0  0  0  0  0  0  0  0  0  0
   -7.2468   17.3616  -31.7882 H   0  0  0  0  0  0  0  0  0  0  0  0
   -6.7330   21.8640  -32.1530 N   0  0  0  0  0  0  0  0  0  0  0  0
   -8.1780   22.0670  -31.9870 C   0  0  0  0  0  0  0  0  0  0  0  0
   -8.4227   22.1014  -30.9151 H   0  0  0  0  0  0  0  0  0  0  0  0
   -8.4719   23.0152  -32.4608 H   0  0  0  0  0  0  0  0  0  0  0  0
   -8.7218   21.2364  -32.4608 H   0  0  0  0  0  0  0  0  0  0  0  0
   -5.7820   22.7910  -31.8050 C   0  0  0  0  0  0  0  0  0  0  0  0
   -6.1010   24.1610  -31.2670 C   0  0  0  0  0  0  0  0  0  0  0  0
   -6.2611   24.8519  -32.1078 H   0  0  0  0  0  0  0  0  0  0  0  0
   -7.0093   24.0984  -30.6497 H   0  0  0  0  0  0  0  0  0  0  0  0
   -4.9740   24.6670  -30.4210 C   0  0  0  0  0  0  0  0  0  0  0  0
   -4.2890   25.6460  -30.8250 O   0  0  0  0  0  0  0  0  0  0  0  0
   -4.6310   23.9890  -29.2020 N   0  0  0  0  0  0  0  0  0  0  0  0
   -5.0250   23.0330  -29.0510 H   0  0  0  0  0  0  0  0  0  0  0  0
   -3.7220   24.5050  -28.2130 C   0  0  0  0  0  0  0  0  0  0  0  0
   -2.3590   24.6220  -28.5280 C   0  0  0  0  0  0  0  0  0  0  0  0
   -2.0043   24.3456  -29.5319 H   0  0  0  0  0  0  0  0  0  0  0  0
   -1.4490   25.0880  -27.5730 C   0  0  0  0  0  0  0  0  0  0  0  0
   -0.3844   25.1872  -27.8313 H   0  0  0  0  0  0  0  0  0  0  0  0
   -1.8910   25.4280  -26.2900 C   0  0  0  0  0  0  0  0  0  0  0  0
   -0.7450   25.9960  -25.0900 Cl  0  0  0  0  0  0  0  0  0  0  0  0
   -3.2440   25.2990  -25.9610 C   0  0  0  0  0  0  0  0  0  0  0  0
   -3.5919   25.5656  -24.9521 H   0  0  0  0  0  0  0  0  0  0  0  0
   -4.1560   24.8310  -26.9140 C   0  0  0  0  0  0  0  0  0  0  0  0
   -5.2170   24.7174  -26.6467 H   0  0  0  0  0  0  0  0  0  0  0  0
  1  2  1  0
  2  3  1  0
  3  4  1  0
  4  5  2  0
  5  6  1  0
  6  7  2  0
  7  8  1  0
  7  9  1  0
  9 10  1  0
  9 11  2  0
 11 12  1  0
 12 13  1  0
 12 14  1  0
 12 15  1  0
 15 16  1  0
 15 17  1  0
 15 18  1  0
 11 19  1  0
 19 20  1  0
 19 21  2  0
 21 22  1  0
  4 23  1  0
 23 24  1  0
 24 25  1  0
 24 26  1  0
 24 27  1  0
 23 28  1  0
 28 29  1  0
 29 30  1  0
 29 31  1  0
 29 32  1  0
 32 33  2  0
 32 34  1  0
 34 35  1  0
 34 36  1  0
 36 37  2  0
 37 38  1  0
 37 39  1  0
 39 40  1  0
 39 41  2  0
 41 42  1  0
 41 43  1  0
 43 44  1  0
 43 45  2  0
 45 46  1  0
 28  2  2  0
 45 36  1  0
 21  6  1  0
M  END
>  <UniqueID>  (20) 
19

>  <SMILES>  (20) 
CCc1ccc(/N=c2\scc(CC(=O)Nc3ccc(Cl)cc3)n2C)cc1

>  <Energy>  (20) 
84.15362812836449

>  <Genealogy>  (20) 
CCc1ccc(/N=c2\scc(CC(=O)Nc3ccc(Cl)cc3)n2C)cc1 (cis-trans isomerization)
CCc1ccc(/N=c2\scc(CC(=O)Nc3ccc(Cl)cc3)n2C)cc1 (3D coordinates assigned)
CCc1ccc(/N=c2\scc(CC(=O)Nc3ccc(Cl)cc3)n2C)cc1 (optimized conformer: 84.15362812836449 kcal/mol)

>  <smiles>  (20) 
CCc1ccc(N=c2scc(CC(=O)Nc3ccc(Cl)cc3)n2C)cc1

>  <score_type>  (20) 
oracle

>  <origin>  (20) 
adgpu

>  <m_score__min__energy>  (20) 
-9.0700000000000003

>  <m_primary>  (20) 
energy

$$$$
20:0
     RDKit          3D

 43 45  0  0  0  0  0  0  0  0999 V2000
   -4.8820   17.2100  -34.0170 C   0  0  0  0  0  0  0  0  0  0  0  0
   -5.5740   18.4050  -33.5530 N   0  0  0  0  0  0  0  0  0  0  0  0
   -6.9320   18.3550  -33.0930 C   0  0  0  0  0  0  0  0  0  0  0  0
   -7.5950   17.2900  -33.2190 O   0  0  0  0  0  0  0  0  0  0  0  0
   -7.5920   19.5400  -32.5070 C   0  0  0  0  0  0  0  0  0  0  0  0
   -9.0250   19.4770  -31.6260 S   0  0  0  0  0  0  0  0  0  0  0  0
   -9.1230   21.1180  -31.2810 C   0  0  0  0  0  0  0  0  0  0  0  0
   -8.0180   21.7440  -31.8400 C   0  0  0  0  0  0  0  0  0  0  0  0
   -7.1520   20.8660  -32.5150 C   0  0  0  0  0  0  0  0  0  0  0  0
   -5.8990   21.2650  -33.0870 N   0  0  0  0  0  0  0  0  0  0  0  0
   -4.3500   20.8560  -32.4220 S   0  0  0  0  0  0  0  0  0  0  0  0
   -4.4990   19.6760  -31.5030 O   0  0  0  0  0  0  0  0  0  0  0  0
   -3.4070   20.4890  -33.5330 O   0  0  0  0  0  0  0  0  0  0  0  0
   -3.7420   22.2260  -31.5000 C   0  0  0  0  0  0  0  0  0  0  0  0
   -4.5400   23.3590  -31.2920 C   0  0  0  0  0  0  0  0  0  0  0  0
   -4.0950   24.3860  -30.4560 C   0  0  0  0  0  0  0  0  0  0  0  0
   -2.8480   24.2870  -29.8180 C   0  0  0  0  0  0  0  0  0  0  0  0
   -2.4000   25.2860  -28.8900 N   0  0  0  0  0  0  0  0  0  0  0  0
   -1.1440   25.2660  -28.1990 C   0  0  0  0  0  0  0  0  0  0  0  0
   -0.1150   24.8850  -28.8190 O   0  0  0  0  0  0  0  0  0  0  0  0
   -1.0220   25.6710  -26.7790 C   0  0  0  0  0  0  0  0  0  0  0  0
   -1.1190   27.0340  -26.4530 C   0  0  0  0  0  0  0  0  0  0  0  0
   -1.0580   27.4490  -25.1210 C   0  0  0  0  0  0  0  0  0  0  0  0
   -0.8840   26.5110  -24.1020 C   0  0  0  0  0  0  0  0  0  0  0  0
   -0.7540   25.1560  -24.4160 C   0  0  0  0  0  0  0  0  0  0  0  0
   -0.8140   24.7270  -25.7470 C   0  0  0  0  0  0  0  0  0  0  0  0
   -0.5410   23.0190  -26.0770 Cl  0  0  0  0  0  0  0  0  0  0  0  0
   -2.0240   23.1860  -30.0830 C   0  0  0  0  0  0  0  0  0  0  0  0
   -2.4750   22.1520  -30.9080 C   0  0  0  0  0  0  0  0  0  0  0  0
   -4.5423   16.6234  -33.1507 H   0  0  0  0  0  0  0  0  0  0  0  0
   -5.5678   16.6021  -34.6253 H   0  0  0  0  0  0  0  0  0  0  0  0
   -4.0134   17.5022  -34.6253 H   0  0  0  0  0  0  0  0  0  0  0  0
   -5.0800   19.3200  -33.6380 H   0  0  0  0  0  0  0  0  0  0  0  0
   -9.9242   21.6109  -30.7108 H   0  0  0  0  0  0  0  0  0  0  0  0
   -7.8366   22.8261  -31.7623 H   0  0  0  0  0  0  0  0  0  0  0  0
   -5.5186   23.4399  -31.7879 H   0  0  0  0  0  0  0  0  0  0  0  0
   -4.7233   25.2748  -30.2970 H   0  0  0  0  0  0  0  0  0  0  0  0
   -1.2438   27.7794  -27.2523 H   0  0  0  0  0  0  0  0  0  0  0  0
   -1.1473   28.5173  -24.8743 H   0  0  0  0  0  0  0  0  0  0  0  0
   -0.8493   26.8385  -23.0525 H   0  0  0  0  0  0  0  0  0  0  0  0
   -0.6034   24.4210  -23.6116 H   0  0  0  0  0  0  0  0  0  0  0  0
   -1.0183   23.1349  -29.6403 H   0  0  0  0  0  0  0  0  0  0  0  0
   -1.8332   21.2779  -31.0928 H   0  0  0  0  0  0  0  0  0  0  0  0
  1  2  1  0
  2  3  1  0
  3  4  2  0
  3  5  1  0
  5  6  1  0
  6  7  1  0
  7  8  2  0
  8  9  1  0
  9 10  1  0
 10 11  1  0
 11 12  2  0
 11 13  2  0
 11 14  1  0
 14 15  2  0
 15 16  1  0
 16 17  2  0
 17 18  1  0
 18 19  1  0
 19 20  2  0
 19 21  1  0
 21 22  2  0
 22 23  1  0
 23 24  2  0
 24 25  1  0
 25 26  2  0
 26 27  1  0
 17 28  1  0
 28 29  2  0
  9  5  2  0
 29 14  1  0
 26 21  1  0
  1 30  1  0
  1 31  1  0
  1 32  1  0
  2 33  1  0
  7 34  1  0
  8 35  1  0
 15 36  1  0
 16 37  1  0
 22 38  1  0
 23 39  1  0
 24 40  1  0
 25 41  1  0
 28 42  1  0
 29 43  1  0
M  CHG  2  10  -1  18  -1
M  END
>  <UniqueID>  (21) 
20

>  <SMILES>  (21) 
CNC(=O)c1sccc1[N-]S(=O)(=O)c1ccc([N-]C(=O)c2ccccc2Cl)cc1

>  <Energy>  (21) 
81.61452199795355

>  <Genealogy>  (21) 
CNC(=O)c1sccc1[N-]S(=O)(=O)c1ccc([N-]C(=O)c2ccccc2Cl)cc1 (protonated)
CNC(=O)c1sccc1[N-]S(=O)(=O)c1ccc([N-]C(=O)c2ccccc2Cl)cc1 (3D coordinates assigned)
CNC(=O)c1sccc1[N-]S(=O)(=O)c1ccc([N-]C(=O)c2ccccc2Cl)cc1 (optimized conformer: 81.61452199795355 kcal/mol)

>  <smiles>  (21) 
CNC(=O)c1sccc1NS(=O)(=O)c1ccc(NC(=O)c2ccccc2Cl)cc1

>  <score_type>  (21) 
oracle

>  <origin>  (21) 
adgpu

>  <m_score__min__energy>  (21) 
-10.81

>  <m_primary>  (21) 
energy

$$$$
21:0
     RDKit          3D

 43 45  0  0  0  0  0  0  0  0999 V2000
   -7.0810   17.5590  -32.9870 C   0  0  0  0  0  0  0  0  0  0  0  0
   -5.6960   17.5070  -33.5780 C   0  0  0  0  0  0  0  0  0  0  0  0
   -5.3570   16.4180  -34.4010 C   0  0  0  0  0  0  0  0  0  0  0  0
   -4.0780   16.3110  -34.9500 C   0  0  0  0  0  0  0  0  0  0  0  0
   -3.1240   17.2920  -34.6900 C   0  0  0  0  0  0  0  0  0  0  0  0
   -3.4450   18.3880  -33.8880 C   0  0  0  0  0  0  0  0  0  0  0  0
   -4.7310   18.5190  -33.3300 C   0  0  0  0  0  0  0  0  0  0  0  0
   -5.0280   19.7220  -32.5130 C   0  0  0  0  0  0  0  0  0  0  0  0
   -4.7560   19.7320  -31.2810 O   0  0  0  0  0  0  0  0  0  0  0  0
   -5.6150   20.8830  -33.1260 N   0  0  0  0  0  0  0  0  0  0  0  0
   -6.2430   21.9480  -32.3920 C   0  0  0  0  0  0  0  0  0  0  0  0
   -7.6430   22.0020  -32.3190 C   0  0  0  0  0  0  0  0  0  0  0  0
   -8.2750   23.0150  -31.5940 C   0  0  0  0  0  0  0  0  0  0  0  0
   -7.5160   23.9750  -30.9220 C   0  0  0  0  0  0  0  0  0  0  0  0
   -6.1170   23.9200  -30.9630 C   0  0  0  0  0  0  0  0  0  0  0  0
   -5.1680   25.1120  -30.0810 S   0  0  0  0  0  0  0  0  0  0  0  0
   -5.5780   26.5090  -30.4590 O   0  0  0  0  0  0  0  0  0  0  0  0
   -5.3910   24.9180  -28.6090 O   0  0  0  0  0  0  0  0  0  0  0  0
   -3.4830   24.9040  -30.4340 N   0  0  0  0  0  0  0  0  0  0  0  0
   -2.6640   23.8230  -29.9620 C   0  0  0  0  0  0  0  0  0  0  0  0
   -2.7610   22.5280  -30.5050 C   0  0  0  0  0  0  0  0  0  0  0  0
   -1.9520   21.4960  -30.0190 C   0  0  0  0  0  0  0  0  0  0  0  0
   -1.0410   21.7460  -28.9900 C   0  0  0  0  0  0  0  0  0  0  0  0
   -0.9350   23.0280  -28.4480 C   0  0  0  0  0  0  0  0  0  0  0  0
   -1.7410   24.0660  -28.9290 C   0  0  0  0  0  0  0  0  0  0  0  0
   -1.5850   25.6680  -28.2200 Cl  0  0  0  0  0  0  0  0  0  0  0  0
   -5.4830   22.9060  -31.6950 C   0  0  0  0  0  0  0  0  0  0  0  0
   -7.0115   17.5564  -31.8892 H   0  0  0  0  0  0  0  0  0  0  0  0
   -7.5876   18.4768  -33.3202 H   0  0  0  0  0  0  0  0  0  0  0  0
   -7.6550   16.6818  -33.3202 H   0  0  0  0  0  0  0  0  0  0  0  0
   -6.1075   15.6426  -34.6143 H   0  0  0  0  0  0  0  0  0  0  0  0
   -3.8235   15.4518  -35.5880 H   0  0  0  0  0  0  0  0  0  0  0  0
   -2.1147   17.2026  -35.1181 H   0  0  0  0  0  0  0  0  0  0  0  0
   -2.6849   19.1580  -33.6896 H   0  0  0  0  0  0  0  0  0  0  0  0
   -5.4940   21.0030  -34.1570 H   0  0  0  0  0  0  0  0  0  0  0  0
   -8.2469   21.2417  -32.8360 H   0  0  0  0  0  0  0  0  0  0  0  0
   -9.3734   23.0565  -31.5524 H   0  0  0  0  0  0  0  0  0  0  0  0
   -8.0176   24.7761  -30.3593 H   0  0  0  0  0  0  0  0  0  0  0  0
   -3.4767   22.3267  -31.3157 H   0  0  0  0  0  0  0  0  0  0  0  0
   -2.0331   20.4862  -30.4475 H   0  0  0  0  0  0  0  0  0  0  0  0
   -0.4072   20.9327  -28.6068 H   0  0  0  0  0  0  0  0  0  0  0  0
   -0.2150   23.2231  -27.6396 H   0  0  0  0  0  0  0  0  0  0  0  0
   -4.3844   22.8589  -31.7248 H   0  0  0  0  0  0  0  0  0  0  0  0
  1  2  1  0
  2  3  2  0
  3  4  1  0
  4  5  2  0
  5  6  1  0
  6  7  2  0
  7  8  1  0
  8  9  2  0
  8 10  1  0
 10 11  1  0
 11 12  2  0
 12 13  1  0
 13 14  2  0
 14 15  1  0
 15 16  1  0
 16 17  2  0
 16 18  2  0
 16 19  1  0
 19 20  1  0
 20 21  2  0
 21 22  1  0
 22 23  2  0
 23 24  1  0
 24 25  2  0
 25 26  1  0
 15 27  2  0
  7  2  1  0
 27 11  1  0
 25 20  1  0
  1 28  1  0
  1 29  1  0
  1 30  1  0
  3 31  1  0
  4 32  1  0
  5 33  1  0
  6 34  1  0
 10 35  1  0
 12 36  1  0
 13 37  1  0
 14 38  1  0
 21 39  1  0
 22 40  1  0
 23 41  1  0
 24 42  1  0
 27 43  1  0
M  CHG  1  19  -1
M  END
>  <UniqueID>  (22) 
21

>  <SMILES>  (22) 
Cc1ccccc1C(=O)Nc1cccc(S(=O)(=O)[N-]c2ccccc2Cl)c1

>  <Energy>  (22) 
57.41220014634803

>  <Genealogy>  (22) 
Cc1ccccc1C(=O)Nc1cccc(S(=O)(=O)[N-]c2ccccc2Cl)c1 (protonated)
Cc1ccccc1C(=O)Nc1cccc(S(=O)(=O)[N-]c2ccccc2Cl)c1 (3D coordinates assigned)
Cc1ccccc1C(=O)Nc1cccc(S(=O)(=O)[N-]c2ccccc2Cl)c1 (optimized conformer: 57.41220014634803 kcal/mol)

>  <smiles>  (22) 
Cc1ccccc1C(=O)Nc1cccc(S(=O)(=O)Nc2ccccc2Cl)c1

>  <score_type>  (22) 
oracle

>  <origin>  (22) 
adgpu

>  <m_score__min__energy>  (22) 
-10.359999999999999

>  <m_primary>  (22) 
energy

$$$$
22:0
     RDKit          3D

 39 41  0  0  0  0  0  0  0  0999 V2000
   -4.1720   18.2600  -33.5670 C   0  0  0  0  0  0  0  0  0  0  0  0
   -5.3570   18.6190  -32.7280 C   0  0  0  0  0  0  0  0  0  0  0  0
   -6.0640   17.7130  -32.0230 N   0  0  0  0  0  0  0  0  0  0  0  0
   -7.0550   18.3350  -31.4010 N   0  0  0  0  0  0  0  0  0  0  0  0
   -6.9940   19.6460  -31.7050 C   0  0  0  0  0  0  0  0  0  0  0  0
   -7.9240   20.6800  -31.1620 C   0  0  0  0  0  0  0  0  0  0  0  0
   -5.9160   19.8730  -32.5270 C   0  0  0  0  0  0  0  0  0  0  0  0
   -5.5320   21.1190  -33.0410 O   0  0  0  0  0  0  0  0  0  0  0  0
   -4.9770   22.1440  -32.2690 C   0  0  0  0  0  0  0  0  0  0  0  0
   -5.7560   23.2380  -31.8450 C   0  0  0  0  0  0  0  0  0  0  0  0
   -7.4270   23.4230  -32.3580 Cl  0  0  0  0  0  0  0  0  0  0  0  0
   -5.1960   24.2070  -31.0090 C   0  0  0  0  0  0  0  0  0  0  0  0
   -3.8560   24.1080  -30.6000 C   0  0  0  0  0  0  0  0  0  0  0  0
   -3.2820   25.0280  -29.6630 N   0  0  0  0  0  0  0  0  0  0  0  0
   -1.9350   24.6490  -28.6380 S   0  0  0  0  0  0  0  0  0  0  0  0
   -0.6590   24.8030  -29.4150 O   0  0  0  0  0  0  0  0  0  0  0  0
   -1.9240   25.5960  -27.4700 O   0  0  0  0  0  0  0  0  0  0  0  0
   -2.0710   22.9790  -28.0890 C   0  0  0  0  0  0  0  0  0  0  0  0
   -3.3330   22.3740  -28.0060 C   0  0  0  0  0  0  0  0  0  0  0  0
   -3.4600   21.0760  -27.5040 C   0  0  0  0  0  0  0  0  0  0  0  0
   -2.3260   20.3730  -27.0860 C   0  0  0  0  0  0  0  0  0  0  0  0
   -2.5030   18.6070  -26.3830 Br  0  0  0  0  0  0  0  0  0  0  0  0
   -1.0620   20.9670  -27.1810 C   0  0  0  0  0  0  0  0  0  0  0  0
   -0.9350   22.2670  -27.6810 C   0  0  0  0  0  0  0  0  0  0  0  0
   -3.0640   23.0660  -31.0920 C   0  0  0  0  0  0  0  0  0  0  0  0
   -3.6200   22.0870  -31.9230 C   0  0  0  0  0  0  0  0  0  0  0  0
   -2.6170   20.7520  -32.4710 Cl  0  0  0  0  0  0  0  0  0  0  0  0
   -3.3247   18.0033  -32.9141 H   0  0  0  0  0  0  0  0  0  0  0  0
   -4.4203   17.3968  -34.2020 H   0  0  0  0  0  0  0  0  0  0  0  0
   -3.8995   19.1159  -34.2020 H   0  0  0  0  0  0  0  0  0  0  0  0
   -7.9002   20.6535  -30.0626 H   0  0  0  0  0  0  0  0  0  0  0  0
   -7.6108   21.6748  -31.5117 H   0  0  0  0  0  0  0  0  0  0  0  0
   -8.9463   20.4736  -31.5117 H   0  0  0  0  0  0  0  0  0  0  0  0
   -5.8093   25.0542  -30.6684 H   0  0  0  0  0  0  0  0  0  0  0  0
   -4.2267   22.9232  -28.3373 H   0  0  0  0  0  0  0  0  0  0  0  0
   -4.4528   20.6071  -27.4377 H   0  0  0  0  0  0  0  0  0  0  0  0
   -0.1680   20.4110  -26.8622 H   0  0  0  0  0  0  0  0  0  0  0  0
    0.0593   22.7318  -27.7542 H   0  0  0  0  0  0  0  0  0  0  0  0
   -1.9982   23.0156  -30.8244 H   0  0  0  0  0  0  0  0  0  0  0  0
  1  2  1  0
  2  3  2  0
  3  4  1  0
  4  5  1  0
  5  6  1  0
  5  7  2  0
  7  8  1  0
  8  9  1  0
  9 10  2  0
 10 11  1  0
 10 12  1  0
 12 13  2  0
 13 14  1  0
 14 15  1  0
 15 16  2  0
 15 17  2  0
 15 18  1  0
 18 19  2  0
 19 20  1  0
 20 21  2  0
 21 22  1  0
 21 23  1  0
 23 24  2  0
 13 25  1  0
 25 26  2  0
 26 27  1  0
  7  2  1  0
 26  9  1  0
 24 18  1  0
  1 28  1  0
  1 29  1  0
  1 30  1  0
  6 31  1  0
  6 32  1  0
  6 33  1  0
 12 34  1  0
 19 35  1  0
 20 36  1  0
 23 37  1  0
 24 38  1  0
 25 39  1  0
M  CHG  2   4  -1  14  -1
M  END
>  <UniqueID>  (23) 
22

>  <SMILES>  (23) 
Cc1n[n-]c(C)c1Oc1c(Cl)cc([N-]S(=O)(=O)c2ccc(Br)cc2)cc1Cl

>  <Energy>  (23) 
80.3068719841699

>  <Genealogy>  (23) 
Cc1n[n-]c(C)c1Oc1c(Cl)cc([N-]S(=O)(=O)c2ccc(Br)cc2)cc1Cl (protonated)
Cc1n[n-]c(C)c1Oc1c(Cl)cc([N-]S(=O)(=O)c2ccc(Br)cc2)cc1Cl (3D coordinates assigned)
Cc1n[n-]c(C)c1Oc1c(Cl)cc([N-]S(=O)(=O)c2ccc(Br)cc2)cc1Cl (optimized conformer: 80.3068719841699 kcal/mol)

>  <smiles>  (23) 
Cc1n[nH]c(C)c1Oc1c(Cl)cc(NS(=O)(=O)c2ccc(Br)cc2)cc1Cl

>  <score_type>  (23) 
oracle

>  <origin>  (23) 
adgpu

>  <m_score__min__energy>  (23) 
-10.470000000000001

>  <m_primary>  (23) 
energy

$$$$
23:0
     RDKit          3D

 37 38  0  0  0  0  0  0  0  0999 V2000
   -8.2350   18.6760  -32.2920 C   0  0  0  0  0  0  0  0  0  0  0  0
   -7.7230   19.8150  -32.9760 O   0  0  0  0  0  0  0  0  0  0  0  0
   -7.2460   20.9750  -32.3440 C   0  0  0  0  0  0  0  0  0  0  0  0
   -8.1090   21.8910  -31.7110 C   0  0  0  0  0  0  0  0  0  0  0  0
   -7.5940   23.0310  -31.0880 C   0  0  0  0  0  0  0  0  0  0  0  0
   -6.2160   23.2720  -31.0870 C   0  0  0  0  0  0  0  0  0  0  0  0
   -5.5550   24.6880  -30.2730 S   0  0  0  0  0  0  0  0  0  0  0  0
   -4.4470   25.2540  -31.1150 O   0  0  0  0  0  0  0  0  0  0  0  0
   -6.6150   25.7380  -30.0850 O   0  0  0  0  0  0  0  0  0  0  0  0
   -4.9230   24.2380  -28.7200 N   0  0  0  0  0  0  0  0  0  0  0  0
   -3.7210   23.4630  -28.5440 C   0  0  0  0  0  0  0  0  0  0  0  0
   -3.7650   22.1600  -28.0160 C   0  0  0  0  0  0  0  0  0  0  0  0
   -2.5930   21.3980  -27.8700 C   0  0  0  0  0  0  0  0  0  0  0  0
   -2.6860   20.0030  -27.3090 C   0  0  0  0  0  0  0  0  0  0  0  0
   -1.3470   21.9650  -28.2260 C   0  0  0  0  0  0  0  0  0  0  0  0
   -0.0650   21.1880  -28.0810 C   0  0  0  0  0  0  0  0  0  0  0  0
   -1.3070   23.2690  -28.7410 C   0  0  0  0  0  0  0  0  0  0  0  0
   -2.4790   24.0120  -28.8990 C   0  0  0  0  0  0  0  0  0  0  0  0
   -2.3980   25.2990  -29.4210 O   0  0  0  0  0  0  0  0  0  0  0  0
   -5.3550   22.3690  -31.7200 C   0  0  0  0  0  0  0  0  0  0  0  0
   -5.8640   21.2240  -32.3440 C   0  0  0  0  0  0  0  0  0  0  0  0
   -4.7550   20.1040  -33.1190 Cl  0  0  0  0  0  0  0  0  0  0  0  0
   -8.1626   18.8371  -31.2063 H   0  0  0  0  0  0  0  0  0  0  0  0
   -9.2882   18.5237  -32.5706 H   0  0  0  0  0  0  0  0  0  0  0  0
   -7.6498   17.7872  -32.5706 H   0  0  0  0  0  0  0  0  0  0  0  0
   -9.1937   21.7080  -31.7071 H   0  0  0  0  0  0  0  0  0  0  0  0
   -8.2748   23.7416  -30.5965 H   0  0  0  0  0  0  0  0  0  0  0  0
   -5.3910   24.6570  -27.8850 H   0  0  0  0  0  0  0  0  0  0  0  0
   -4.7314   21.7308  -27.7127 H   0  0  0  0  0  0  0  0  0  0  0  0
   -2.6829   20.0488  -26.2100 H   0  0  0  0  0  0  0  0  0  0  0  0
   -3.6176   19.5305  -27.6537 H   0  0  0  0  0  0  0  0  0  0  0  0
   -1.8253   19.4110  -27.6537 H   0  0  0  0  0  0  0  0  0  0  0  0
    0.1617   21.0506  -27.0134 H   0  0  0  0  0  0  0  0  0  0  0  0
   -0.1757   20.2049  -28.5618 H   0  0  0  0  0  0  0  0  0  0  0  0
    0.7553   21.7410  -28.5618 H   0  0  0  0  0  0  0  0  0  0  0  0
   -0.3407   23.7119  -29.0239 H   0  0  0  0  0  0  0  0  0  0  0  0
   -4.2717   22.5599  -31.7274 H   0  0  0  0  0  0  0  0  0  0  0  0
  1  2  1  0
  2  3  1  0
  3  4  2  0
  4  5  1  0
  5  6  2  0
  6  7  1  0
  7  8  2  0
  7  9  2  0
  7 10  1  0
 10 11  1  0
 11 12  2  0
 12 13  1  0
 13 14  1  0
 13 15  2  0
 15 16  1  0
 15 17  1  0
 17 18  2  0
 18 19  1  0
  6 20  1  0
 20 21  2  0
 21 22  1  0
 21  3  1  0
 18 11  1  0
  1 23  1  0
  1 24  1  0
  1 25  1  0
  4 26  1  0
  5 27  1  0
 10 28  1  0
 12 29  1  0
 14 30  1  0
 14 31  1  0
 14 32  1  0
 16 33  1  0
 16 34  1  0
 16 35  1  0
 17 36  1  0
 20 37  1  0
M  CHG  1  19  -1
M  END
>  <UniqueID>  (24) 
23

>  <SMILES>  (24) 
COc1ccc(S(=O)(=O)Nc2cc(C)c(C)cc2[O-])cc1Cl

>  <Energy>  (24) 
40.13198722727544

>  <Genealogy>  (24) 
COc1ccc(S(=O)(=O)Nc2cc(C)c(C)cc2[O-])cc1Cl (protonated)
COc1ccc(S(=O)(=O)Nc2cc(C)c(C)cc2[O-])cc1Cl (3D coordinates assigned)
COc1ccc(S(=O)(=O)Nc2cc(C)c(C)cc2[O-])cc1Cl (optimized conformer: 40.13198722727544 kcal/mol)

>  <smiles>  (24) 
COc1ccc(S(=O)(=O)Nc2cc(C)c(C)cc2O)cc1Cl

>  <score_type>  (24) 
oracle

>  <origin>  (24) 
adgpu

>  <m_score__min__energy>  (24) 
-12.1

>  <m_primary>  (24) 
energy

$$$$
24:0
     RDKit          3D

 32 34  0  0  0  0  0  0  0  0999 V2000
   -3.8680   25.3020  -30.8390 O   0  0  0  0  0  0  0  0  0  0  0  0
   -5.1220   24.8320  -30.1570 S   0  0  0  0  0  0  0  0  0  0  0  0
   -6.0880   25.9790  -30.0650 O   0  0  0  0  0  0  0  0  0  0  0  0
   -4.7280   24.2850  -28.5580 N   0  0  0  0  0  0  0  0  0  0  0  0
   -3.4640   23.7010  -28.1960 C   0  0  0  0  0  0  0  0  0  0  0  0
   -2.2740   24.4480  -28.1950 C   0  0  0  0  0  0  0  0  0  0  0  0
   -1.0640   23.8470  -27.8450 C   0  0  0  0  0  0  0  0  0  0  0  0
   -1.0250   22.5000  -27.4860 C   0  0  0  0  0  0  0  0  0  0  0  0
   -2.2010   21.7310  -27.4710 C   0  0  0  0  0  0  0  0  0  0  0  0
   -2.1470   20.3390  -27.0960 N   0  0  0  0  0  0  0  0  0  0  0  0
   -1.1370   19.4590  -27.2410 C   0  0  0  0  0  0  0  0  0  0  0  0
   -1.5060   18.2590  -26.7550 N   0  0  0  0  0  0  0  0  0  0  0  0
   -2.7450   18.4250  -26.3150 N   0  0  0  0  0  0  0  0  0  0  0  0
   -3.1330   19.6740  -26.5190 N   0  0  0  0  0  0  0  0  0  0  0  0
   -3.4180   22.3460  -27.8270 C   0  0  0  0  0  0  0  0  0  0  0  0
   -5.8780   23.5290  -31.0700 C   0  0  0  0  0  0  0  0  0  0  0  0
   -5.0930   22.5360  -31.6740 C   0  0  0  0  0  0  0  0  0  0  0  0
   -5.7000   21.4990  -32.3890 C   0  0  0  0  0  0  0  0  0  0  0  0
   -7.0930   21.4510  -32.5060 C   0  0  0  0  0  0  0  0  0  0  0  0
   -7.8790   22.4420  -31.9100 C   0  0  0  0  0  0  0  0  0  0  0  0
   -9.2290   22.3960  -32.0240 F   0  0  0  0  0  0  0  0  0  0  0  0
   -7.2730   23.4800  -31.1960 C   0  0  0  0  0  0  0  0  0  0  0  0
   -5.4920   24.3240  -27.8450 H   0  0  0  0  0  0  0  0  0  0  0  0
   -2.2962   25.5124  -28.4716 H   0  0  0  0  0  0  0  0  0  0  0  0
   -0.1367   24.4386  -27.8523 H   0  0  0  0  0  0  0  0  0  0  0  0
   -0.0660   22.0358  -27.2124 H   0  0  0  0  0  0  0  0  0  0  0  0
   -0.1585   19.6868  -27.6889 H   0  0  0  0  0  0  0  0  0  0  0  0
   -4.3464   21.7561  -27.8158 H   0  0  0  0  0  0  0  0  0  0  0  0
   -3.9972   22.5731  -31.5850 H   0  0  0  0  0  0  0  0  0  0  0  0
   -5.0817   20.7205  -32.8598 H   0  0  0  0  0  0  0  0  0  0  0  0
   -7.5701   20.6338  -33.0668 H   0  0  0  0  0  0  0  0  0  0  0  0
   -7.8931   24.2609  -30.7316 H   0  0  0  0  0  0  0  0  0  0  0  0
  1  2  2  0
  2  3  2  0
  2  4  1  0
  4  5  1  0
  5  6  2  0
  6  7  1  0
  7  8  2  0
  8  9  1  0
  9 10  1  0
 10 11  1  0
 11 12  2  0
 12 13  1  0
 13 14  2  0
  9 15  2  0
  2 16  1  0
 16 17  2  0
 17 18  1  0
 18 19  2  0
 19 20  1  0
 20 21  1  0
 20 22  2  0
 15  5  1  0
 22 16  1  0
 14 10  1  0
  4 23  1  0
  6 24  1  0
  7 25  1  0
  8 26  1  0
 11 27  1  0
 15 28  1  0
 17 29  1  0
 18 30  1  0
 19 31  1  0
 22 32  1  0
M  END
>  <UniqueID>  (25) 
24

>  <SMILES>  (25) 
O=S(=O)(Nc1cccc(-n2cnnn2)c1)c1cccc(F)c1

>  <Energy>  (25) 
79.27967179840631

>  <Genealogy>  (25) 
O=S(=O)(Nc1cccc(-n2cnnn2)c1)c1cccc(F)c1 (3D coordinates assigned)
O=S(=O)(Nc1cccc(-n2cnnn2)c1)c1cccc(F)c1 (optimized conformer: 79.27967179840631 kcal/mol)

>  <smiles>  (25) 
O=S(=O)(Nc1cccc(-n2cnnn2)c1)c1cccc(F)c1

>  <score_type>  (25) 
oracle

>  <origin>  (25) 
adgpu

>  <m_score__min__energy>  (25) 
-9.1099999999999994

>  <m_primary>  (25) 
energy

$$$$
25:0
     RDKit          3D

 35 37  0  0  0  0  0  0  0  0999 V2000
   -4.6487   25.2695  -30.2117 H   0  0  0  0  0  0  0  0  0  0  0  0
   -3.9440   24.4270  -30.2720 C   0  0  0  0  0  0  0  0  0  0  0  0
   -4.3010   23.2670  -30.9670 C   0  0  0  0  0  0  0  0  0  0  0  0
   -5.2862   23.2017  -31.4518 H   0  0  0  0  0  0  0  0  0  0  0  0
   -3.4070   22.1820  -31.0500 C   0  0  0  0  0  0  0  0  0  0  0  0
   -3.7730   20.9490  -31.7830 C   0  0  0  0  0  0  0  0  0  0  0  0
   -4.7360   20.0900  -31.3690 N   0  0  0  0  0  0  0  0  0  0  0  0
   -4.9030   19.0480  -32.1800 N   0  0  0  0  0  0  0  0  0  0  0  0
   -5.6410   18.3330  -32.0010 H   0  0  0  0  0  0  0  0  0  0  0  0
   -4.0720   19.0600  -33.2500 C   0  0  0  0  0  0  0  0  0  0  0  0
   -4.0650   18.1770  -34.2060 N   0  0  0  0  0  0  0  0  0  0  0  0
   -4.8260   16.9610  -34.2450 C   0  0  0  0  0  0  0  0  0  0  0  0
   -6.1930   16.9660  -34.5630 C   0  0  0  0  0  0  0  0  0  0  0  0
   -6.6924   17.9116  -34.8210 H   0  0  0  0  0  0  0  0  0  0  0  0
   -6.9210   15.7750  -34.5530 C   0  0  0  0  0  0  0  0  0  0  0  0
   -7.9867   15.7836  -34.8253 H   0  0  0  0  0  0  0  0  0  0  0  0
   -6.3040   14.5710  -34.1990 C   0  0  0  0  0  0  0  0  0  0  0  0
   -7.2730   13.1000  -34.2250 Cl  0  0  0  0  0  0  0  0  0  0  0  0
   -4.9420   14.5600  -33.8260 C   0  0  0  0  0  0  0  0  0  0  0  0
   -4.2320   13.2830  -33.4490 C   0  0  0  0  0  0  0  0  0  0  0  0
   -3.2344   13.2746  -33.9124 H   0  0  0  0  0  0  0  0  0  0  0  0
   -4.8272   12.4298  -33.8064 H   0  0  0  0  0  0  0  0  0  0  0  0
   -4.0810   13.1740  -31.9340 C   0  0  0  0  0  0  0  0  0  0  0  0
   -4.8793   13.7503  -31.4435 H   0  0  0  0  0  0  0  0  0  0  0  0
   -4.1531   12.1183  -31.6333 H   0  0  0  0  0  0  0  0  0  0  0  0
   -3.1017   13.5748  -31.6333 H   0  0  0  0  0  0  0  0  0  0  0  0
   -4.2160   15.7640  -33.8540 C   0  0  0  0  0  0  0  0  0  0  0  0
   -3.1547   15.7648  -33.5647 H   0  0  0  0  0  0  0  0  0  0  0  0
   -3.0850   20.4180  -33.2360 S   0  0  0  0  0  0  0  0  0  0  0  0
   -2.1510   22.2860  -30.4240 C   0  0  0  0  0  0  0  0  0  0  0  0
   -1.4412   21.4476  -30.4809 H   0  0  0  0  0  0  0  0  0  0  0  0
   -1.7990   23.4480  -29.7300 C   0  0  0  0  0  0  0  0  0  0  0  0
   -0.8153   23.5196  -29.2429 H   0  0  0  0  0  0  0  0  0  0  0  0
   -2.6940   24.5180  -29.6540 C   0  0  0  0  0  0  0  0  0  0  0  0
   -2.3420   25.6720  -28.9640 O   0  0  0  0  0  0  0  0  0  0  0  0
  1  2  1  0
  2  3  2  0
  3  4  1  0
  3  5  1  0
  5  6  1  0
  6  7  2  0
  7  8  1  0
  8  9  1  0
  8 10  1  0
 10 11  2  0
 11 12  1  0
 12 13  2  0
 13 14  1  0
 13 15  1  0
 15 16  1  0
 15 17  2  0
 17 18  1  0
 17 19  1  0
 19 20  1  0
 20 21  1  0
 20 22  1  0
 20 23  1  0
 23 24  1  0
 23 25  1  0
 23 26  1  0
 19 27  2  0
 27 28  1  0
 10 29  1  0
  5 30  2  0
 30 31  1  0
 30 32  1  0
 32 33  1  0
 32 34  2  0
 34 35  1  0
 34  2  1  0
 29  6  1  0
 27 12  1  0
M  CHG  1  35  -1
M  END
>  <UniqueID>  (26) 
25

>  <SMILES>  (26) 
CCc1cc(/N=c2\[nH]nc(-c3ccc([O-])cc3)s2)ccc1Cl

>  <Energy>  (26) 
78.04623702151423

>  <Genealogy>  (26) 
CCc1cc(N=c2[nH]nc(-c3ccc([O-])cc3)s2)ccc1Cl (protonated)
CCc1cc(/N=c2\[nH]nc(-c3ccc([O-])cc3)s2)ccc1Cl (cis-trans isomerization)
CCc1cc(/N=c2\[nH]nc(-c3ccc([O-])cc3)s2)ccc1Cl (3D coordinates assigned)
CCc1cc(/N=c2\[nH]nc(-c3ccc([O-])cc3)s2)ccc1Cl (optimized conformer: 78.04623702151423 kcal/mol)

>  <smiles>  (26) 
CCc1cc(N=c2[nH]nc(-c3ccc(O)cc3)s2)ccc1Cl

>  <score_type>  (26) 
oracle

>  <origin>  (26) 
adgpu

>  <m_score__min__energy>  (26) 
-9.3599999999999994

>  <m_primary>  (26) 
energy

$$$$
26:0
     RDKit          3D

 36 38  0  0  0  0  0  0  0  0999 V2000
   -6.1140   25.7500  -29.6720 C   0  0  0  0  0  0  0  0  0  0  0  0
   -5.8980   24.4790  -30.4290 C   0  0  0  0  0  0  0  0  0  0  0  0
   -6.9750   23.6330  -30.7160 C   0  0  0  0  0  0  0  0  0  0  0  0
   -6.7340   22.4550  -31.4340 C   0  0  0  0  0  0  0  0  0  0  0  0
   -7.8060   21.5620  -31.7720 N   0  0  0  0  0  0  0  0  0  0  0  0
   -9.0850   21.9410  -31.9640 C   0  0  0  0  0  0  0  0  0  0  0  0
   -9.8650   20.8430  -32.2640 C   0  0  0  0  0  0  0  0  0  0  0  0
   -9.0230   19.7490  -32.2700 C   0  0  0  0  0  0  0  0  0  0  0  0
   -7.7560   20.2260  -31.9810 C   0  0  0  0  0  0  0  0  0  0  0  0
   -6.5100   19.3780  -31.9640 C   0  0  0  0  0  0  0  0  0  0  0  0
   -5.6410   19.7110  -33.0930 N   0  0  0  0  0  0  0  0  0  0  0  0
   -4.7440   18.7730  -33.7290 C   0  0  0  0  0  0  0  0  0  0  0  0
   -5.2290   17.5840  -34.3140 C   0  0  0  0  0  0  0  0  0  0  0  0
   -4.3550   16.6820  -34.9250 C   0  0  0  0  0  0  0  0  0  0  0  0
   -2.9870   16.9490  -34.9650 C   0  0  0  0  0  0  0  0  0  0  0  0
   -2.4880   18.1200  -34.3920 C   0  0  0  0  0  0  0  0  0  0  0  0
   -3.3540   19.0330  -33.7760 C   0  0  0  0  0  0  0  0  0  0  0  0
   -2.6510   20.4780  -33.0590 Cl  0  0  0  0  0  0  0  0  0  0  0  0
   -5.4730   22.1880  -31.8700 N   0  0  0  0  0  0  0  0  0  0  0  0
   -4.4400   23.0230  -31.5920 C   0  0  0  0  0  0  0  0  0  0  0  0
   -4.6550   24.1580  -30.8770 N   0  0  0  0  0  0  0  0  0  0  0  0
   -6.0790   25.5440  -28.5920 H   0  0  0  0  0  0  0  0  0  0  0  0
   -5.3255   26.4710  -29.9335 H   0  0  0  0  0  0  0  0  0  0  0  0
   -7.0964   26.1701  -29.9335 H   0  0  0  0  0  0  0  0  0  0  0  0
   -7.9921   23.8885  -30.3838 H   0  0  0  0  0  0  0  0  0  0  0  0
   -9.4534   22.9750  -31.8920 H   0  0  0  0  0  0  0  0  0  0  0  0
  -10.9474   20.8400  -32.4602 H   0  0  0  0  0  0  0  0  0  0  0  0
   -9.3037   18.7036  -32.4659 H   0  0  0  0  0  0  0  0  0  0  0  0
   -5.9655   19.5555  -31.0249 H   0  0  0  0  0  0  0  0  0  0  0  0
   -6.8016   18.3203  -32.0428 H   0  0  0  0  0  0  0  0  0  0  0  0
   -5.6800   20.6980  -33.4310 H   0  0  0  0  0  0  0  0  0  0  0  0
   -6.3067   17.3652  -34.2886 H   0  0  0  0  0  0  0  0  0  0  0  0
   -4.7470   15.7584  -35.3759 H   0  0  0  0  0  0  0  0  0  0  0  0
   -2.3013   16.2372  -35.4479 H   0  0  0  0  0  0  0  0  0  0  0  0
   -1.4082   18.3272  -34.4243 H   0  0  0  0  0  0  0  0  0  0  0  0
   -3.4272   22.7805  -31.9461 H   0  0  0  0  0  0  0  0  0  0  0  0
  1  2  1  0
  2  3  2  0
  3  4  1  0
  4  5  1  0
  5  6  1  0
  6  7  2  0
  7  8  1  0
  8  9  2  0
  9 10  1  0
 10 11  1  0
 11 12  1  0
 12 13  2  0
 13 14  1  0
 14 15  2  0
 15 16  1  0
 16 17  2  0
 17 18  1  0
  4 19  2  0
 19 20  1  0
 20 21  2  0
 21  2  1  0
  9  5  1  0
 17 12  1  0
  1 22  1  0
  1 23  1  0
  1 24  1  0
  3 25  1  0
  6 26  1  0
  7 27  1  0
  8 28  1  0
 10 29  1  0
 10 30  1  0
 11 31  1  0
 13 32  1  0
 14 33  1  0
 15 34  1  0
 16 35  1  0
 20 36  1  0
M  END
>  <UniqueID>  (27) 
26

>  <SMILES>  (27) 
Cc1cc(-n2cccc2CNc2ccccc2Cl)ncn1

>  <Energy>  (27) 
69.52432747180576

>  <Genealogy>  (27) 
Cc1cc(-n2cccc2CNc2ccccc2Cl)ncn1 (3D coordinates assigned)
Cc1cc(-n2cccc2CNc2ccccc2Cl)ncn1 (optimized conformer: 69.52432747180576 kcal/mol)

>  <smiles>  (27) 
Cc1cc(-n2cccc2CNc2ccccc2Cl)ncn1

>  <score_type>  (27) 
oracle

>  <origin>  (27) 
adgpu

>  <m_score__min__energy>  (27) 
-7.9800000000000004

>  <m_primary>  (27) 
energy

$$$$
27:0
     RDKit          3D

 51 55  0  0  0  0  0  0  0  0999 V2000
   -0.6020   18.9100  -33.9400 C   0  0  0  0  0  0  0  0  0  0  0  0
   -1.5960   17.8970  -34.4260 C   0  0  0  0  0  0  0  0  0  0  0  0
   -1.1870   16.7620  -35.1610 C   0  0  0  0  0  0  0  0  0  0  0  0
   -2.1410   15.8350  -35.6410 C   0  0  0  0  0  0  0  0  0  0  0  0
   -3.5130   16.0380  -35.4060 C   0  0  0  0  0  0  0  0  0  0  0  0
   -3.8830   17.1750  -34.6950 C   0  0  0  0  0  0  0  0  0  0  0  0
   -5.1150   17.5800  -34.3600 N   0  0  0  0  0  0  0  0  0  0  0  0
   -4.9080   18.7380  -33.6790 C   0  0  0  0  0  0  0  0  0  0  0  0
   -5.9900   19.5630  -33.0870 C   0  0  0  0  0  0  0  0  0  0  0  0
   -7.3140   19.0940  -33.1010 C   0  0  0  0  0  0  0  0  0  0  0  0
   -8.3430   19.8570  -32.5470 C   0  0  0  0  0  0  0  0  0  0  0  0
   -8.0660   21.0960  -31.9690 C   0  0  0  0  0  0  0  0  0  0  0  0
   -6.7500   21.5870  -31.9360 C   0  0  0  0  0  0  0  0  0  0  0  0
   -6.4510   22.9020  -31.3130 C   0  0  0  0  0  0  0  0  0  0  0  0
   -7.4910   23.7060  -30.8150 C   0  0  0  0  0  0  0  0  0  0  0  0
   -7.2080   24.9330  -30.2110 C   0  0  0  0  0  0  0  0  0  0  0  0
   -5.8890   25.3760  -30.1090 C   0  0  0  0  0  0  0  0  0  0  0  0
   -4.8400   24.6060  -30.6230 C   0  0  0  0  0  0  0  0  0  0  0  0
   -3.4970   25.0940  -30.4850 N   0  0  0  0  0  0  0  0  0  0  0  0
   -2.4680   24.5450  -29.6500 C   0  0  0  0  0  0  0  0  0  0  0  0
   -1.8100   25.2980  -28.8800 O   0  0  0  0  0  0  0  0  0  0  0  0
   -2.2110   23.0860  -29.6520 C   0  0  0  0  0  0  0  0  0  0  0  0
   -1.8170   22.4280  -30.8320 C   0  0  0  0  0  0  0  0  0  0  0  0
   -1.5720   21.0520  -30.8290 C   0  0  0  0  0  0  0  0  0  0  0  0
   -1.7210   20.3150  -29.6520 C   0  0  0  0  0  0  0  0  0  0  0  0
   -2.1100   20.9550  -28.4710 C   0  0  0  0  0  0  0  0  0  0  0  0
   -2.2850   20.0290  -26.9910 Cl  0  0  0  0  0  0  0  0  0  0  0  0
   -2.3530   22.3330  -28.4690 C   0  0  0  0  0  0  0  0  0  0  0  0
   -5.1230   23.3570  -31.2050 C   0  0  0  0  0  0  0  0  0  0  0  0
   -5.7170   20.8130  -32.4970 C   0  0  0  0  0  0  0  0  0  0  0  0
   -3.5930   19.0700  -33.5750 N   0  0  0  0  0  0  0  0  0  0  0  0
   -2.9700   18.0700  -34.2260 C   0  0  0  0  0  0  0  0  0  0  0  0
   -0.5944   18.9178  -32.8401 H   0  0  0  0  0  0  0  0  0  0  0  0
    0.3997   18.6485  -34.3118 H   0  0  0  0  0  0  0  0  0  0  0  0
   -0.8825   19.9066  -34.3118 H   0  0  0  0  0  0  0  0  0  0  0  0
   -0.1179   16.5980  -35.3615 H   0  0  0  0  0  0  0  0  0  0  0  0
   -1.8080   14.9493  -36.2019 H   0  0  0  0  0  0  0  0  0  0  0  0
   -4.2657   15.3238  -35.7711 H   0  0  0  0  0  0  0  0  0  0  0  0
   -6.0120   17.0870  -34.5670 H   0  0  0  0  0  0  0  0  0  0  0  0
   -7.5417   18.1171  -33.5524 H   0  0  0  0  0  0  0  0  0  0  0  0
   -9.3762   19.4800  -32.5662 H   0  0  0  0  0  0  0  0  0  0  0  0
   -8.8829   21.6923  -31.5364 H   0  0  0  0  0  0  0  0  0  0  0  0
   -8.5338   23.3667  -30.9015 H   0  0  0  0  0  0  0  0  0  0  0  0
   -8.0268   25.5515  -29.8148 H   0  0  0  0  0  0  0  0  0  0  0  0
   -5.6722   26.3377  -29.6209 H   0  0  0  0  0  0  0  0  0  0  0  0
   -1.7010   23.0010  -31.7638 H   0  0  0  0  0  0  0  0  0  0  0  0
   -1.2610   20.5482  -31.7561 H   0  0  0  0  0  0  0  0  0  0  0  0
   -1.5324   19.2313  -29.6540 H   0  0  0  0  0  0  0  0  0  0  0  0
   -2.6571   22.8323  -27.5372 H   0  0  0  0  0  0  0  0  0  0  0  0
   -4.2998   22.7305  -31.5789 H   0  0  0  0  0  0  0  0  0  0  0  0
   -4.6834   21.1887  -32.4745 H   0  0  0  0  0  0  0  0  0  0  0  0
  1  2  1  0
  2  3  2  0
  3  4  1  0
  4  5  2  0
  5  6  1  0
  6  7  1  0
  7  8  1  0
  8  9  1  0
  9 10  2  0
 10 11  1  0
 11 12  2  0
 12 13  1  0
 13 14  1  0
 14 15  2  0
 15 16  1  0
 16 17  2  0
 17 18  1  0
 18 19  1  0
 19 20  1  0
 20 21  2  0
 20 22  1  0
 22 23  2  0
 23 24  1  0
 24 25  2  0
 25 26  1  0
 26 27  1  0
 26 28  2  0
 18 29  2  0
 13 30  2  0
  8 31  2  0
 31 32  1  0
 32  2  1  0
 32  6  2  0
 30  9  1  0
 29 14  1  0
 28 22  1  0
  1 33  1  0
  1 34  1  0
  1 35  1  0
  3 36  1  0
  4 37  1  0
  5 38  1  0
  7 39  1  0
 10 40  1  0
 11 41  1  0
 12 42  1  0
 15 43  1  0
 16 44  1  0
 17 45  1  0
 23 46  1  0
 24 47  1  0
 25 48  1  0
 28 49  1  0
 29 50  1  0
 30 51  1  0
M  CHG  1  19  -1
M  END
>  <UniqueID>  (28) 
27

>  <SMILES>  (28) 
Cc1cccc2[nH]c(-c3cccc(-c4cccc([N-]C(=O)c5cccc(Cl)c5)c4)c3)nc12

>  <Energy>  (28) 
104.70044103614653

>  <Genealogy>  (28) 
Cc1cccc2[nH]c(-c3cccc(-c4cccc([N-]C(=O)c5cccc(Cl)c5)c4)c3)nc12 (protonated)
Cc1cccc2[nH]c(-c3cccc(-c4cccc([N-]C(=O)c5cccc(Cl)c5)c4)c3)nc12 (3D coordinates assigned)
Cc1cccc2[nH]c(-c3cccc(-c4cccc([N-]C(=O)c5cccc(Cl)c5)c4)c3)nc12 (optimized conformer: 104.70044103614653 kcal/mol)

>  <smiles>  (28) 
Cc1cccc2[nH]c(-c3cccc(-c4cccc(NC(=O)c5cccc(Cl)c5)c4)c3)nc12

>  <score_type>  (28) 
oracle

>  <origin>  (28) 
adgpu

>  <m_score__min__energy>  (28) 
-12.08

>  <m_primary>  (28) 
energy

$$$$
28:0
     RDKit          3D

 61 65  0  0  0  0  0  0  0  0999 V2000
   -3.8530   24.8770  -30.4910 O   0  0  0  0  0  0  0  0  0  0  0  0
   -4.0220   23.7320  -29.9920 C   0  0  0  0  0  0  0  0  0  0  0  0
   -3.6810   23.4840  -28.6210 N   0  0  0  0  0  0  0  0  0  0  0  0
   -3.3560   24.5590  -27.6790 C   0  0  0  0  0  0  0  0  0  0  0  0
   -1.8370   24.8220  -27.5930 C   0  0  0  0  0  0  0  0  0  0  0  0
   -1.0050   23.6260  -28.0990 C   0  0  0  0  0  0  0  0  0  0  0  0
    0.4970   23.9710  -28.1820 C   0  0  0  0  0  0  0  0  0  0  0  0
    0.9480   25.0170  -27.1420 C   0  0  0  0  0  0  0  0  0  0  0  0
    0.0920   24.9590  -25.8730 C   0  0  0  0  0  0  0  0  0  0  0  0
   -1.3940   25.2560  -26.1700 C   0  0  0  0  0  0  0  0  0  0  0  0
   -4.5070   22.6450  -30.8570 C   0  0  0  0  0  0  0  0  0  0  0  0
   -5.7830   22.2130  -30.8260 N   0  0  0  0  0  0  0  0  0  0  0  0
   -5.8840   21.1870  -31.6550 N   0  0  0  0  0  0  0  0  0  0  0  0
   -7.1010   20.4490  -31.8380 C   0  0  0  0  0  0  0  0  0  0  0  0
   -7.0680   19.0480  -31.7960 C   0  0  0  0  0  0  0  0  0  0  0  0
   -8.2360   18.3080  -31.9990 C   0  0  0  0  0  0  0  0  0  0  0  0
   -9.4470   18.9630  -32.2330 C   0  0  0  0  0  0  0  0  0  0  0  0
   -9.4960   20.3590  -32.2540 C   0  0  0  0  0  0  0  0  0  0  0  0
   -8.3300   21.1090  -32.0530 C   0  0  0  0  0  0  0  0  0  0  0  0
   -8.4530   22.8630  -32.0070 Cl  0  0  0  0  0  0  0  0  0  0  0  0
   -4.6770   20.9200  -32.2020 C   0  0  0  0  0  0  0  0  0  0  0  0
   -4.3610   19.7210  -33.0070 C   0  0  0  0  0  0  0  0  0  0  0  0
   -3.2320   18.9430  -32.7040 C   0  0  0  0  0  0  0  0  0  0  0  0
   -2.9390   17.8030  -33.4590 C   0  0  0  0  0  0  0  0  0  0  0  0
   -3.7710   17.4310  -34.5200 C   0  0  0  0  0  0  0  0  0  0  0  0
   -3.3720   15.8710  -35.5470 Br  0  0  0  0  0  0  0  0  0  0  0  0
   -4.8960   18.2030  -34.8270 C   0  0  0  0  0  0  0  0  0  0  0  0
   -5.1920   19.3440  -34.0750 C   0  0  0  0  0  0  0  0  0  0  0  0
   -3.7620   21.8510  -31.7250 C   0  0  0  0  0  0  0  0  0  0  0  0
   -2.2620   21.7350  -31.7990 C   0  0  0  0  0  0  0  0  0  0  0  0
   -1.7650   21.0220  -30.6290 N   0  0  0  0  0  0  0  0  0  0  0  0
   -0.6730   20.2410  -30.5640 C   0  0  0  0  0  0  0  0  0  0  0  0
   -0.4610   19.8060  -29.3060 N   0  0  0  0  0  0  0  0  0  0  0  0
   -1.4810   20.3770  -28.6250 C   0  0  0  0  0  0  0  0  0  0  0  0
   -2.2770   21.1240  -29.4160 N   0  0  0  0  0  0  0  0  0  0  0  0
   -3.5780   22.4950  -28.3020 H   0  0  0  0  0  0  0  0  0  0  0  0
   -3.8568   25.4814  -28.0081 H   0  0  0  0  0  0  0  0  0  0  0  0
   -3.7013   24.2489  -26.6817 H   0  0  0  0  0  0  0  0  0  0  0  0
   -1.6355   25.6664  -28.2685 H   0  0  0  0  0  0  0  0  0  0  0  0
   -1.1391   22.7805  -27.4082 H   0  0  0  0  0  0  0  0  0  0  0  0
   -1.3543   23.3679  -29.1096 H   0  0  0  0  0  0  0  0  0  0  0  0
    1.0751   23.0490  -28.0214 H   0  0  0  0  0  0  0  0  0  0  0  0
    0.6736   24.4073  -29.1762 H   0  0  0  0  0  0  0  0  0  0  0  0
    1.9971   24.8236  -26.8736 H   0  0  0  0  0  0  0  0  0  0  0  0
    0.8332   26.0159  -27.5880 H   0  0  0  0  0  0  0  0  0  0  0  0
    0.1734   23.9536  -25.4342 H   0  0  0  0  0  0  0  0  0  0  0  0
    0.4614   25.7256  -25.1759 H   0  0  0  0  0  0  0  0  0  0  0  0
   -2.0107   24.7194  -25.4340 H   0  0  0  0  0  0  0  0  0  0  0  0
   -1.5261   26.3462  -26.1072 H   0  0  0  0  0  0  0  0  0  0  0  0
   -6.1179   18.5286  -31.6023 H   0  0  0  0  0  0  0  0  0  0  0  0
   -8.2015   17.2088  -31.9745 H   0  0  0  0  0  0  0  0  0  0  0  0
  -10.3638   18.3788  -32.4011 H   0  0  0  0  0  0  0  0  0  0  0  0
  -10.4536   20.8711  -32.4290 H   0  0  0  0  0  0  0  0  0  0  0  0
   -2.5757   19.2313  -31.8697 H   0  0  0  0  0  0  0  0  0  0  0  0
   -2.0526   17.1978  -33.2181 H   0  0  0  0  0  0  0  0  0  0  0  0
   -5.5498   17.9118  -35.6623 H   0  0  0  0  0  0  0  0  0  0  0  0
   -6.0780   19.9480  -34.3204 H   0  0  0  0  0  0  0  0  0  0  0  0
   -1.9826   21.1837  -32.7089 H   0  0  0  0  0  0  0  0  0  0  0  0
   -1.8202   22.7420  -31.8262 H   0  0  0  0  0  0  0  0  0  0  0  0
   -0.0358   19.9898  -31.4247 H   0  0  0  0  0  0  0  0  0  0  0  0
   -1.6430   20.2462  -27.5449 H   0  0  0  0  0  0  0  0  0  0  0  0
  1  2  2  0
  2  3  1  0
  3  4  1  0
  4  5  1  0
  5  6  1  0
  6  7  1  0
  7  8  1  0
  8  9  1  0
  9 10  1  0
  2 11  1  0
 11 12  2  0
 12 13  1  0
 13 14  1  0
 14 15  2  0
 15 16  1  0
 16 17  2  0
 17 18  1  0
 18 19  2  0
 19 20  1  0
 13 21  1  0
 21 22  1  0
 22 23  2  0
 23 24  1  0
 24 25  2  0
 25 26  1  0
 25 27  1  0
 27 28  2  0
 21 29  2  0
 29 30  1  0
 30 31  1  0
 31 32  1  0
 32 33  2  0
 33 34  1  0
 34 35  2  0
 10  5  1  0
 29 11  1  0
 35 31  1  0
 19 14  1  0
 28 22  1  0
  3 36  1  0
  4 37  1  0
  4 38  1  0
  5 39  1  0
  6 40  1  0
  6 41  1  0
  7 42  1  0
  7 43  1  0
  8 44  1  0
  8 45  1  0
  9 46  1  0
  9 47  1  0
 10 48  1  0
 10 49  1  0
 15 50  1  0
 16 51  1  0
 17 52  1  0
 18 53  1  0
 23 54  1  0
 24 55  1  0
 27 56  1  0
 28 57  1  0
 30 58  1  0
 30 59  1  0
 32 60  1  0
 34 61  1  0
M  END
>  <UniqueID>  (29) 
28

>  <SMILES>  (29) 
O=C(NCC1CCCCC1)c1nn(-c2ccccc2Cl)c(-c2ccc(Br)cc2)c1Cn1cncn1

>  <Energy>  (29) 
140.56775428608734

>  <Genealogy>  (29) 
O=C(NCC1CCCCC1)c1nn(-c2ccccc2Cl)c(-c2ccc(Br)cc2)c1Cn1cncn1 (3D coordinates assigned)
O=C(NCC1CCCCC1)c1nn(-c2ccccc2Cl)c(-c2ccc(Br)cc2)c1Cn1cncn1 (nonaromatic ring conformer: 140.56775428608734 kcal/mol)

>  <smiles>  (29) 
O=C(NCC1CCCCC1)c1nn(-c2ccccc2Cl)c(-c2ccc(Br)cc2)c1Cn1cncn1

>  <score_type>  (29) 
oracle

>  <origin>  (29) 
adgpu

>  <m_score__min__energy>  (29) 
-10.48

>  <m_primary>  (29) 
energy

$$$$
29:0
     RDKit          3D

 60 63  0  0  1  0  0  0  0  0999 V2000
   -1.2680   30.3860  -25.1950 C   0  0  0  0  0  0  0  0  0  0  0  0
   -1.2120   29.0640  -25.2160 C   0  0  0  0  0  0  0  0  0  0  0  0
   -0.0080   28.3130  -25.5480 C   0  0  0  0  0  0  0  0  0  0  0  0
    1.0500   28.9600  -25.7590 O   0  0  0  0  0  0  0  0  0  0  0  0
    0.0040   26.9040  -25.6390 N   0  0  0  0  0  0  0  0  0  0  0  0
    1.1200   26.1050  -25.9510 C   0  0  0  0  0  0  0  0  0  0  0  0
    2.1440   26.0410  -25.0280 C   0  0  0  0  0  0  0  0  0  0  0  0
    3.2860   25.3010  -25.2580 C   0  0  0  0  0  0  0  0  0  0  0  0
    3.3870   24.6140  -26.4520 C   0  0  0  0  0  0  0  0  0  0  0  0
    2.3700   24.6690  -27.3880 C   0  0  0  0  0  0  0  0  0  0  0  0
    1.2170   25.4030  -27.1790 C   0  0  0  0  0  0  0  0  0  0  0  0
    0.1760   25.5870  -28.0730 N   0  0  0  0  0  0  0  0  0  0  0  0
   -0.7640   24.7870  -28.2850 C   0  0  0  0  0  0  0  0  0  0  0  0
   -1.6910   25.1740  -29.2190 N   0  0  0  0  0  0  0  0  0  0  0  0
   -2.7430   24.4160  -29.5450 C   0  0  0  0  0  0  0  0  0  0  0  0
   -3.6200   24.7700  -30.4210 N   0  0  0  0  0  0  0  0  0  0  0  0
   -4.7390   23.9700  -30.7730 C   0  0  0  0  0  0  0  0  0  0  0  0
   -6.0460   24.4610  -30.6860 C   0  0  0  0  0  0  0  0  0  0  0  0
   -7.1190   23.6520  -31.0380 C   0  0  0  0  0  0  0  0  0  0  0  0
   -6.9180   22.3770  -31.4710 C   0  0  0  0  0  0  0  0  0  0  0  0
   -7.9600   21.4850  -31.8510 N   0  0  0  0  0  0  0  0  0  0  0  0
   -9.3200   21.6380  -31.3180 C   0  0  0  0  0  0  0  0  0  0  0  0
  -10.1640   20.8950  -32.3450 C   0  0  0  0  0  0  0  0  0  0  0  0
   -9.2550   19.7140  -32.6690 C   0  0  0  0  0  0  0  0  0  0  0  0
   -7.9210   20.3700  -32.7320 C   0  0  0  0  0  0  0  0  0  0  0  0
   -6.9110   20.0540  -33.4110 O   0  0  0  0  0  0  0  0  0  0  0  0
   -5.6280   21.8970  -31.5550 C   0  0  0  0  0  0  0  0  0  0  0  0
   -4.5210   22.6630  -31.2160 C   0  0  0  0  0  0  0  0  0  0  0  0
   -3.2440   22.1520  -31.3120 O   0  0  0  0  0  0  0  0  0  0  0  0
   -2.8770   21.3940  -32.4540 C   0  0  0  0  0  0  0  0  0  0  0  0
   -2.8780   23.2390  -28.9270 N   0  0  0  0  0  0  0  0  0  0  0  0
   -1.9960   22.8190  -28.0070 C   0  0  0  0  0  0  0  0  0  0  0  0
   -0.8760   23.5810  -27.6320 C   0  0  0  0  0  0  0  0  0  0  0  0
    0.0470   23.0660  -26.6290 C   0  0  0  0  0  0  0  0  0  0  0  0
   -2.2094   30.8926  -24.9358 H   0  0  0  0  0  0  0  0  0  0  0  0
   -0.3732   30.9783  -25.4368 H   0  0  0  0  0  0  0  0  0  0  0  0
   -2.1243   28.5011  -24.9693 H   0  0  0  0  0  0  0  0  0  0  0  0
   -0.9040   26.3770  -25.4580 H   0  0  0  0  0  0  0  0  0  0  0  0
    2.0473   26.5952  -24.0827 H   0  0  0  0  0  0  0  0  0  0  0  0
    4.0929   25.2595  -24.5116 H   0  0  0  0  0  0  0  0  0  0  0  0
    4.2865   24.0163  -26.6610 H   0  0  0  0  0  0  0  0  0  0  0  0
    2.4822   24.1107  -28.3291 H   0  0  0  0  0  0  0  0  0  0  0  0
   -1.6060   26.0940  -29.7180 H   0  0  0  0  0  0  0  0  0  0  0  0
   -6.2243   25.4893  -30.3383 H   0  0  0  0  0  0  0  0  0  0  0  0
   -8.1434   24.0463  -30.9660 H   0  0  0  0  0  0  0  0  0  0  0  0
   -9.4105   21.1789  -30.3225 H   0  0  0  0  0  0  0  0  0  0  0  0
   -9.6209   22.6871  -31.1805 H   0  0  0  0  0  0  0  0  0  0  0  0
  -11.1212   20.5625  -31.9169 H   0  0  0  0  0  0  0  0  0  0  0  0
  -10.4514   21.4990  -33.2183 H   0  0  0  0  0  0  0  0  0  0  0  0
   -9.2901   18.9516  -31.8769 H   0  0  0  0  0  0  0  0  0  0  0  0
   -9.5321   19.1754  -33.5872 H   0  0  0  0  0  0  0  0  0  0  0  0
   -5.4698   20.8661  -31.9045 H   0  0  0  0  0  0  0  0  0  0  0  0
   -2.4184   20.4469  -32.1336 H   0  0  0  0  0  0  0  0  0  0  0  0
   -3.7724   21.1824  -33.0569 H   0  0  0  0  0  0  0  0  0  0  0  0
   -2.1557   21.9651  -33.0569 H   0  0  0  0  0  0  0  0  0  0  0  0
   -3.7020   22.6280  -29.1730 H   0  0  0  0  0  0  0  0  0  0  0  0
   -2.1555   21.8416  -27.5283 H   0  0  0  0  0  0  0  0  0  0  0  0
   -0.3441   23.2842  -25.6243 H   0  0  0  0  0  0  0  0  0  0  0  0
    0.1533   21.9782  -26.7527 H   0  0  0  0  0  0  0  0  0  0  0  0
    1.0286   23.5468  -26.7527 H   0  0  0  0  0  0  0  0  0  0  0  0
  1  2  2  0
  2  3  1  0
  3  4  2  0
  3  5  1  0
  5  6  1  0
  6  7  2  0
  7  8  1  0
  8  9  2  0
  9 10  1  0
 10 11  2  0
 11 12  1  0
 12 13  2  0
 13 14  1  0
 14 15  1  0
 15 16  2  0
 16 17  1  0
 17 18  2  0
 18 19  1  0
 19 20  2  0
 20 21  1  0
 21 22  1  0
 22 23  1  0
 23 24  1  0
 24 25  1  0
 25 26  2  0
 20 27  1  0
 27 28  2  0
 28 29  1  0
 29 30  1  0
 15 31  1  0
 31 32  1  0
 32 33  2  0
 33 34  1  0
 11  6  1  0
 33 13  1  0
 28 17  1  0
 25 21  1  0
  1 35  1  0
  1 36  1  0
  2 37  1  0
  5 38  1  0
  7 39  1  0
  8 40  1  0
  9 41  1  0
 10 42  1  0
 14 43  1  0
 18 44  1  0
 19 45  1  0
 22 46  1  0
 22 47  1  0
 23 48  1  0
 23 49  1  0
 24 50  1  0
 24 51  1  0
 27 52  1  0
 30 53  1  0
 30 54  1  0
 30 55  1  0
 31 56  1  0
 32 57  1  0
 34 58  1  0
 34 59  1  0
 34 60  1  0
M  END
>  <smiles>  (30) 
C=CC(=O)Nc1ccccc1N=c1[nH]c(=Nc2ccc(N3CCCC3=O)cc2OC)[nH]cc1C

>  <score_type>  (30) 
oracle

>  <origin>  (30) 
adgpu

>  <m_score__min__energy>  (30) 
-10.369999999999999

>  <m_primary>  (30) 
energy

$$$$
30:0
     RDKit          3D

 30 31  0  0  0  0  0  0  0  0999 V2000
   -9.1010   19.6700  -31.9600 C   0  0  0  0  0  0  0  0  0  0  0  0
   -8.0900   18.7000  -31.7030 O   0  0  0  0  0  0  0  0  0  0  0  0
   -7.1230   18.2930  -32.6370 C   0  0  0  0  0  0  0  0  0  0  0  0
   -7.1860   17.0390  -33.2780 C   0  0  0  0  0  0  0  0  0  0  0  0
   -6.2060   16.6680  -34.2000 C   0  0  0  0  0  0  0  0  0  0  0  0
   -5.1600   17.5400  -34.5000 C   0  0  0  0  0  0  0  0  0  0  0  0
   -5.0860   18.7850  -33.8730 C   0  0  0  0  0  0  0  0  0  0  0  0
   -6.0550   19.1650  -32.9270 C   0  0  0  0  0  0  0  0  0  0  0  0
   -6.0030   20.4560  -32.2970 N   0  0  0  0  0  0  0  0  0  0  0  0
   -4.9980   21.4440  -32.5830 C   0  0  0  0  0  0  0  0  0  0  0  0
   -4.1070   21.2150  -33.4440 O   0  0  0  0  0  0  0  0  0  0  0  0
   -4.9870   22.7350  -31.8640 C   0  0  0  0  0  0  0  0  0  0  0  0
   -6.0540   23.6000  -31.6920 C   0  0  0  0  0  0  0  0  0  0  0  0
   -7.7270   23.3950  -32.1850 Cl  0  0  0  0  0  0  0  0  0  0  0  0
   -5.5620   24.6270  -30.9130 C   0  0  0  0  0  0  0  0  0  0  0  0
   -4.2660   24.3940  -30.6320 N   0  0  0  0  0  0  0  0  0  0  0  0
   -3.9230   23.2530  -31.2100 N   0  0  0  0  0  0  0  0  0  0  0  0
   -2.5900   22.6720  -31.1030 C   0  0  0  0  0  0  0  0  0  0  0  0
   -9.4963   20.0492  -31.0061 H   0  0  0  0  0  0  0  0  0  0  0  0
   -8.6719   20.5030  -32.5362 H   0  0  0  0  0  0  0  0  0  0  0  0
   -9.9155   19.2068  -32.5362 H   0  0  0  0  0  0  0  0  0  0  0  0
   -8.0120   16.3492  -33.0503 H   0  0  0  0  0  0  0  0  0  0  0  0
   -6.2589   15.6852  -34.6912 H   0  0  0  0  0  0  0  0  0  0  0  0
   -4.3925   17.2466  -35.2314 H   0  0  0  0  0  0  0  0  0  0  0  0
   -4.2645   19.4734  -34.1204 H   0  0  0  0  0  0  0  0  0  0  0  0
   -6.7110   20.6620  -31.5580 H   0  0  0  0  0  0  0  0  0  0  0  0
   -6.1388   25.5002  -30.5742 H   0  0  0  0  0  0  0  0  0  0  0  0
   -2.3246   22.5563  -30.0418 H   0  0  0  0  0  0  0  0  0  0  0  0
   -2.5788   21.6873  -31.5932 H   0  0  0  0  0  0  0  0  0  0  0  0
   -1.8610   23.3340  -31.5932 H   0  0  0  0  0  0  0  0  0  0  0  0
  1  2  1  0
  2  3  1  0
  3  4  2  0
  4  5  1  0
  5  6  2  0
  6  7  1  0
  7  8  2  0
  8  9  1  0
  9 10  1  0
 10 11  2  0
 10 12  1  0
 12 13  2  0
 13 14  1  0
 13 15  1  0
 15 16  2  0
 16 17  1  0
 17 18  1  0
  8  3  1  0
 17 12  1  0
  1 19  1  0
  1 20  1  0
  1 21  1  0
  4 22  1  0
  5 23  1  0
  6 24  1  0
  7 25  1  0
  9 26  1  0
 15 27  1  0
 18 28  1  0
 18 29  1  0
 18 30  1  0
M  END
>  <UniqueID>  (31) 
29

>  <SMILES>  (31) 
COc1ccccc1NC(=O)c1c(Cl)cnn1C

>  <Energy>  (31) 
67.40430776413731

>  <Genealogy>  (31) 
COc1ccccc1NC(=O)c1c(Cl)cnn1C (3D coordinates assigned)
COc1ccccc1NC(=O)c1c(Cl)cnn1C (optimized conformer: 67.40430776413731 kcal/mol)

>  <smiles>  (31) 
COc1ccccc1NC(=O)c1c(Cl)cnn1C

>  <score_type>  (31) 
oracle

>  <origin>  (31) 
adgpu

>  <m_score__min__energy>  (31) 
-6.4699999999999998

>  <m_primary>  (31) 
energy

$$$$
31:0
     RDKit          3D

 46 49  0  0  0  0  0  0  0  0999 V2000
    1.3980   18.8050  -31.8840 O   0  0  0  0  0  0  0  0  0  0  0  0
    1.0080   19.3080  -33.2470 S   0  0  0  0  0  0  0  0  0  0  0  0
    0.8840   18.1400  -34.1880 O   0  0  0  0  0  0  0  0  0  0  0  0
    2.2120   20.4110  -33.8330 N   0  0  0  0  0  0  0  0  0  0  0  0
    1.9450   21.4360  -34.5840 C   0  0  0  0  0  0  0  0  0  0  0  0
    2.9880   22.2680  -35.0100 C   0  0  0  0  0  0  0  0  0  0  0  0
    2.6960   23.3750  -35.8120 C   0  0  0  0  0  0  0  0  0  0  0  0
    1.3740   23.6440  -36.1740 C   0  0  0  0  0  0  0  0  0  0  0  0
    0.3590   22.7890  -35.7380 C   0  0  0  0  0  0  0  0  0  0  0  0
    0.6640   21.7150  -34.9610 N   0  0  0  0  0  0  0  0  0  0  0  0
   -0.5380   20.1440  -33.1430 C   0  0  0  0  0  0  0  0  0  0  0  0
   -0.6920   21.2460  -32.2920 C   0  0  0  0  0  0  0  0  0  0  0  0
   -1.9150   21.9240  -32.2310 C   0  0  0  0  0  0  0  0  0  0  0  0
   -2.9970   21.5110  -33.0230 C   0  0  0  0  0  0  0  0  0  0  0  0
   -4.2310   22.2460  -32.9690 N   0  0  0  0  0  0  0  0  0  0  0  0
   -5.0570   22.5930  -31.4830 S   0  0  0  0  0  0  0  0  0  0  0  0
   -4.9710   24.0700  -31.2110 O   0  0  0  0  0  0  0  0  0  0  0  0
   -4.4260   21.8450  -30.3420 O   0  0  0  0  0  0  0  0  0  0  0  0
   -6.7490   22.0810  -31.6270 C   0  0  0  0  0  0  0  0  0  0  0  0
   -7.7520   23.0560  -31.5250 C   0  0  0  0  0  0  0  0  0  0  0  0
   -9.0980   22.7130  -31.6470 C   0  0  0  0  0  0  0  0  0  0  0  0
   -9.4680   21.3900  -31.8810 C   0  0  0  0  0  0  0  0  0  0  0  0
   -8.4910   20.3910  -31.9800 C   0  0  0  0  0  0  0  0  0  0  0  0
   -8.8720   19.0600  -32.2100 C   0  0  0  0  0  0  0  0  0  0  0  0
   -7.9080   18.0570  -32.3020 C   0  0  0  0  0  0  0  0  0  0  0  0
   -6.5570   18.3700  -32.1530 C   0  0  0  0  0  0  0  0  0  0  0  0
   -6.1590   19.6880  -31.9210 C   0  0  0  0  0  0  0  0  0  0  0  0
   -7.1150   20.7240  -31.8420 C   0  0  0  0  0  0  0  0  0  0  0  0
   -2.8500   20.3790  -33.8460 C   0  0  0  0  0  0  0  0  0  0  0  0
   -1.6270   19.7030  -33.9070 C   0  0  0  0  0  0  0  0  0  0  0  0
    4.0260   22.0526  -34.7165 H   0  0  0  0  0  0  0  0  0  0  0  0
    3.5064   24.0336  -36.1577 H   0  0  0  0  0  0  0  0  0  0  0  0
    1.1348   24.5195  -36.7956 H   0  0  0  0  0  0  0  0  0  0  0  0
   -0.6855   22.9840  -36.0226 H   0  0  0  0  0  0  0  0  0  0  0  0
    0.1512   21.5797  -31.6695 H   0  0  0  0  0  0  0  0  0  0  0  0
   -2.0286   22.7864  -31.5576 H   0  0  0  0  0  0  0  0  0  0  0  0
   -4.7660   22.4010  -33.8530 H   0  0  0  0  0  0  0  0  0  0  0  0
   -7.4732   24.1050  -31.3464 H   0  0  0  0  0  0  0  0  0  0  0  0
   -9.8713   23.4902  -31.5581 H   0  0  0  0  0  0  0  0  0  0  0  0
  -10.5312   21.1292  -31.9884 H   0  0  0  0  0  0  0  0  0  0  0  0
   -9.9370   18.8068  -32.3183 H   0  0  0  0  0  0  0  0  0  0  0  0
   -8.2133   17.0175  -32.4923 H   0  0  0  0  0  0  0  0  0  0  0  0
   -5.8008   17.5739  -32.2186 H   0  0  0  0  0  0  0  0  0  0  0  0
   -5.0910   19.9214  -31.7987 H   0  0  0  0  0  0  0  0  0  0  0  0
   -3.7017   20.0238  -34.4447 H   0  0  0  0  0  0  0  0  0  0  0  0
   -1.5196   18.8221  -34.5570 H   0  0  0  0  0  0  0  0  0  0  0  0
  1  2  2  0
  2  3  2  0
  2  4  1  0
  4  5  2  3
  5  6  1  0
  6  7  2  0
  7  8  1  0
  8  9  2  0
  9 10  1  0
  2 11  1  0
 11 12  2  0
 12 13  1  0
 13 14  2  0
 14 15  1  0
 15 16  1  0
 16 17  2  0
 16 18  2  0
 16 19  1  0
 19 20  2  0
 20 21  1  0
 21 22  2  0
 22 23  1  0
 23 24  2  0
 24 25  1  0
 25 26  2  0
 26 27  1  0
 27 28  2  0
 14 29  1  0
 29 30  2  0
 10  5  1  0
 30 11  1  0
 28 19  1  0
 28 23  1  0
  6 31  1  0
  7 32  1  0
  8 33  1  0
  9 34  1  0
 12 35  1  0
 13 36  1  0
 15 37  1  0
 20 38  1  0
 21 39  1  0
 22 40  1  0
 24 41  1  0
 25 42  1  0
 26 43  1  0
 27 44  1  0
 29 45  1  0
 30 46  1  0
M  CHG  1  10  -1
M  END
>  <UniqueID>  (32) 
30

>  <SMILES>  (32) 
O=S(=O)(N=c1cccc[n-]1)c1ccc(NS(=O)(=O)c2cccc3ccccc23)cc1

>  <Energy>  (32) 
65.51074427535082

>  <Genealogy>  (32) 
O=S(=O)(N=c1cccc[n-]1)c1ccc(NS(=O)(=O)c2cccc3ccccc23)cc1 (protonated)
O=S(=O)(N=c1cccc[n-]1)c1ccc(NS(=O)(=O)c2cccc3ccccc23)cc1 (3D coordinates assigned)
O=S(=O)(N=c1cccc[n-]1)c1ccc(NS(=O)(=O)c2cccc3ccccc23)cc1 (optimized conformer: 65.51074427535082 kcal/mol)

>  <smiles>  (32) 
O=S(=O)(N=c1cccc[nH]1)c1ccc(NS(=O)(=O)c2cccc3ccccc23)cc1

>  <score_type>  (32) 
oracle

>  <origin>  (32) 
adgpu

>  <m_score__min__energy>  (32) 
-11.869999999999999

>  <m_primary>  (32) 
energy

$$$$
32:0
     RDKit          3D

 42 44  0  0  0  0  0  0  0  0999 V2000
   -1.1700   26.8330  -24.9910 C   0  0  0  0  0  0  0  0  0  0  0  0
   -1.6990   26.0120  -26.1300 C   0  0  0  0  0  0  0  0  0  0  0  0
   -2.9010   25.3020  -25.9920 C   0  0  0  0  0  0  0  0  0  0  0  0
   -3.3750   24.5090  -27.0410 C   0  0  0  0  0  0  0  0  0  0  0  0
   -2.6460   24.4020  -28.2350 C   0  0  0  0  0  0  0  0  0  0  0  0
   -3.1470   23.6100  -29.3230 N   0  0  0  0  0  0  0  0  0  0  0  0
   -2.4730   22.3660  -29.7020 C   0  0  0  0  0  0  0  0  0  0  0  0
   -2.2610   21.5120  -28.4900 C   0  0  0  0  0  0  0  0  0  0  0  0
   -1.1180   21.5830  -27.6960 C   0  0  0  0  0  0  0  0  0  0  0  0
   -1.2510   20.4120  -26.4970 S   0  0  0  0  0  0  0  0  0  0  0  0
   -2.7380   19.8570  -27.0510 C   0  0  0  0  0  0  0  0  0  0  0  0
   -3.5450   18.7880  -26.3980 C   0  0  0  0  0  0  0  0  0  0  0  0
   -3.1580   20.5560  -28.1260 N   0  0  0  0  0  0  0  0  0  0  0  0
   -4.5780   24.1000  -30.1780 S   0  0  0  0  0  0  0  0  0  0  0  0
   -5.6930   24.3940  -29.2120 O   0  0  0  0  0  0  0  0  0  0  0  0
   -4.2850   25.3530  -30.9560 O   0  0  0  0  0  0  0  0  0  0  0  0
   -5.0850   22.8110  -31.2640 C   0  0  0  0  0  0  0  0  0  0  0  0
   -6.3560   22.2360  -31.1240 C   0  0  0  0  0  0  0  0  0  0  0  0
   -6.7470   21.1830  -31.9560 C   0  0  0  0  0  0  0  0  0  0  0  0
   -5.8710   20.7000  -32.9320 C   0  0  0  0  0  0  0  0  0  0  0  0
   -4.6030   21.2670  -33.0760 C   0  0  0  0  0  0  0  0  0  0  0  0
   -4.2070   22.3200  -32.2430 C   0  0  0  0  0  0  0  0  0  0  0  0
   -1.4360   25.1000  -28.3660 C   0  0  0  0  0  0  0  0  0  0  0  0
   -0.9610   25.8940  -27.3180 C   0  0  0  0  0  0  0  0  0  0  0  0
   -1.4671   26.3718  -24.0376 H   0  0  0  0  0  0  0  0  0  0  0  0
   -0.0725   26.8781  -25.0502 H   0  0  0  0  0  0  0  0  0  0  0  0
   -1.5825   27.8510  -25.0502 H   0  0  0  0  0  0  0  0  0  0  0  0
   -3.4727   25.3696  -25.0547 H   0  0  0  0  0  0  0  0  0  0  0  0
   -4.3250   23.9657  -26.9297 H   0  0  0  0  0  0  0  0  0  0  0  0
   -3.0942   21.8211  -30.4281 H   0  0  0  0  0  0  0  0  0  0  0  0
   -1.4981   22.6047  -30.1522 H   0  0  0  0  0  0  0  0  0  0  0  0
   -0.2783   22.2809  -27.8299 H   0  0  0  0  0  0  0  0  0  0  0  0
   -3.4697   18.8877  -25.3051 H   0  0  0  0  0  0  0  0  0  0  0  0
   -4.5973   18.8847  -26.7034 H   0  0  0  0  0  0  0  0  0  0  0  0
   -3.1637   17.8025  -26.7034 H   0  0  0  0  0  0  0  0  0  0  0  0
   -7.0477   22.6147  -30.3571 H   0  0  0  0  0  0  0  0  0  0  0  0
   -7.7448   20.7342  -31.8425 H   0  0  0  0  0  0  0  0  0  0  0  0
   -6.1806   19.8725  -33.5873 H   0  0  0  0  0  0  0  0  0  0  0  0
   -3.9147   20.8858  -33.8447 H   0  0  0  0  0  0  0  0  0  0  0  0
   -3.2066   22.7632  -32.3557 H   0  0  0  0  0  0  0  0  0  0  0  0
   -0.8578   25.0221  -29.2986 H   0  0  0  0  0  0  0  0  0  0  0  0
   -0.0054   26.4282  -27.4249 H   0  0  0  0  0  0  0  0  0  0  0  0
  1  2  1  0
  2  3  2  0
  3  4  1  0
  4  5  2  0
  5  6  1  0
  6  7  1  0
  7  8  1  0
  8  9  2  0
  9 10  1  0
 10 11  1  0
 11 12  1  0
 11 13  2  0
  6 14  1  0
 14 15  2  0
 14 16  2  0
 14 17  1  0
 17 18  2  0
 18 19  1  0
 19 20  2  0
 20 21  1  0
 21 22  2  0
  5 23  1  0
 23 24  2  0
 24  2  1  0
 13  8  1  0
 22 17  1  0
  1 25  1  0
  1 26  1  0
  1 27  1  0
  3 28  1  0
  4 29  1  0
  7 30  1  0
  7 31  1  0
  9 32  1  0
 12 33  1  0
 12 34  1  0
 12 35  1  0
 18 36  1  0
 19 37  1  0
 20 38  1  0
 21 39  1  0
 22 40  1  0
 23 41  1  0
 24 42  1  0
M  END
>  <UniqueID>  (33) 
31

>  <SMILES>  (33) 
Cc1ccc(N(Cc2csc(C)n2)S(=O)(=O)c2ccccc2)cc1

>  <Energy>  (33) 
73.04862531792156

>  <Genealogy>  (33) 
Cc1ccc(N(Cc2csc(C)n2)S(=O)(=O)c2ccccc2)cc1 (3D coordinates assigned)
Cc1ccc(N(Cc2csc(C)n2)S(=O)(=O)c2ccccc2)cc1 (optimized conformer: 73.04862531792156 kcal/mol)

>  <smiles>  (33) 
Cc1ccc(N(Cc2csc(C)n2)S(=O)(=O)c2ccccc2)cc1

>  <score_type>  (33) 
oracle

>  <origin>  (33) 
adgpu

>  <m_score__min__energy>  (33) 
-8.5600000000000005

>  <m_primary>  (33) 
energy

$$$$
33:0
     RDKit          3D

 36 39  0  0  0  0  0  0  0  0999 V2000
   -7.3440   25.5770  -28.6740 H   0  0  0  0  0  0  0  0  0  0  0  0
   -7.2190   24.8320  -29.3950 N   0  0  0  0  0  0  0  0  0  0  0  0
   -6.1400   24.7610  -30.1050 C   0  0  0  0  0  0  0  0  0  0  0  0
   -5.8450   23.8390  -31.0820 C   0  0  0  0  0  0  0  0  0  0  0  0
   -6.6580   22.7150  -31.5690 C   0  0  0  0  0  0  0  0  0  0  0  0
   -6.1240   21.5490  -31.9910 N   0  0  0  0  0  0  0  0  0  0  0  0
   -7.0700   20.6540  -32.3960 C   0  0  0  0  0  0  0  0  0  0  0  0
   -6.6930   19.3040  -32.8930 C   0  0  0  0  0  0  0  0  0  0  0  0
   -7.3540   18.1420  -32.4480 C   0  0  0  0  0  0  0  0  0  0  0  0
   -8.1676   18.2253  -31.7124 H   0  0  0  0  0  0  0  0  0  0  0  0
   -6.9850   16.8850  -32.9330 C   0  0  0  0  0  0  0  0  0  0  0  0
   -7.5021   15.9851  -32.5685 H   0  0  0  0  0  0  0  0  0  0  0  0
   -5.9580   16.7630  -33.8830 C   0  0  0  0  0  0  0  0  0  0  0  0
   -5.5490   15.5160  -34.3800 O   0  0  0  0  0  0  0  0  0  0  0  0
   -5.2810   14.3800  -33.6040 C   0  0  0  0  0  0  0  0  0  0  0  0
   -5.6490   13.0870  -34.0220 C   0  0  0  0  0  0  0  0  0  0  0  0
   -6.1754   12.9492  -34.9780 H   0  0  0  0  0  0  0  0  0  0  0  0
   -5.3480   11.9780  -33.2270 C   0  0  0  0  0  0  0  0  0  0  0  0
   -5.6442   10.9708  -33.5552 H   0  0  0  0  0  0  0  0  0  0  0  0
   -4.6710   12.1460  -32.0150 C   0  0  0  0  0  0  0  0  0  0  0  0
   -4.4426   11.2730  -31.3860 H   0  0  0  0  0  0  0  0  0  0  0  0
   -4.2850   13.4250  -31.6040 C   0  0  0  0  0  0  0  0  0  0  0  0
   -3.7453   13.5572  -30.6547 H   0  0  0  0  0  0  0  0  0  0  0  0
   -4.5840   14.5370  -32.3980 C   0  0  0  0  0  0  0  0  0  0  0  0
   -4.2704   15.5404  -32.0742 H   0  0  0  0  0  0  0  0  0  0  0  0
   -5.2890   17.9110  -34.3160 C   0  0  0  0  0  0  0  0  0  0  0  0
   -4.4672   17.8227  -35.0418 H   0  0  0  0  0  0  0  0  0  0  0  0
   -5.6560   19.1700  -33.8340 C   0  0  0  0  0  0  0  0  0  0  0  0
   -5.1286   20.0657  -34.1941 H   0  0  0  0  0  0  0  0  0  0  0  0
   -8.3850   21.1190  -32.2880 C   0  0  0  0  0  0  0  0  0  0  0  0
   -9.2927   20.5591  -32.5575 H   0  0  0  0  0  0  0  0  0  0  0  0
   -8.3350   22.6840  -31.6740 S   0  0  0  0  0  0  0  0  0  0  0  0
   -4.6180   24.1480  -31.5530 N   0  0  0  0  0  0  0  0  0  0  0  0
   -4.2260   25.1960  -30.8790 O   0  0  0  0  0  0  0  0  0  0  0  0
   -5.1010   25.6010  -30.0030 N   0  0  0  0  0  0  0  0  0  0  0  0
   -4.9900   26.4170  -29.3620 H   0  0  0  0  0  0  0  0  0  0  0  0
  1  2  1  0
  2  3  2  0
  3  4  1  0
  4  5  1  0
  5  6  2  0
  6  7  1  0
  7  8  1  0
  8  9  2  0
  9 10  1  0
  9 11  1  0
 11 12  1  0
 11 13  2  0
 13 14  1  0
 14 15  1  0
 15 16  2  0
 16 17  1  0
 16 18  1  0
 18 19  1  0
 18 20  2  0
 20 21  1  0
 20 22  1  0
 22 23  1  0
 22 24  2  0
 24 25  1  0
 13 26  1  0
 26 27  1  0
 26 28  2  0
 28 29  1  0
  7 30  2  0
 30 31  1  0
 30 32  1  0
  4 33  2  0
 33 34  1  0
 34 35  1  0
 35 36  1  0
 35  3  1  0
 32  5  1  0
 28  8  1  0
 24 15  1  0
M  END
>  <UniqueID>  (34) 
32

>  <SMILES>  (34) 
[H]/N=c1\[nH]onc1-c1nc(-c2ccc(Oc3ccccc3)cc2)cs1

>  <Energy>  (34) 
116.72689228062913

>  <Genealogy>  (34) 
[H]/N=c1\[nH]onc1-c1nc(-c2ccc(Oc3ccccc3)cc2)cs1 (cis-trans isomerization)
[H]/N=c1\[nH]onc1-c1nc(-c2ccc(Oc3ccccc3)cc2)cs1 (3D coordinates assigned)
[H]/N=c1\[nH]onc1-c1nc(-c2ccc(Oc3ccccc3)cc2)cs1 (optimized conformer: 116.72689228062913 kcal/mol)

>  <smiles>  (34) 
N=c1[nH]onc1-c1nc(-c2ccc(Oc3ccccc3)cc2)cs1

>  <score_type>  (34) 
oracle

>  <origin>  (34) 
adgpu

>  <m_score__min__energy>  (34) 
-9.5600000000000005

>  <m_primary>  (34) 
energy

$$$$
34:0
     RDKit          3D

 46 48  0  0  0  0  0  0  0  0999 V2000
   -6.0690   23.9280  -29.6720 O   0  0  0  0  0  0  0  0  0  0  0  0
   -4.6410   24.0150  -30.1340 S   0  0  0  0  0  0  0  0  0  0  0  0
   -4.5760   25.0990  -31.1730 O   0  0  0  0  0  0  0  0  0  0  0  0
   -3.6370   24.4690  -28.7540 C   0  0  0  0  0  0  0  0  0  0  0  0
   -2.2780   24.7690  -28.9380 C   0  0  0  0  0  0  0  0  0  0  0  0
   -1.4870   25.1440  -27.8490 C   0  0  0  0  0  0  0  0  0  0  0  0
   -2.0460   25.2190  -26.5700 C   0  0  0  0  0  0  0  0  0  0  0  0
   -3.3970   24.9150  -26.3780 C   0  0  0  0  0  0  0  0  0  0  0  0
   -4.1900   24.5380  -27.4660 C   0  0  0  0  0  0  0  0  0  0  0  0
   -4.1340   22.4870  -30.8460 N   0  0  0  0  0  0  0  0  0  0  0  0
   -4.5610   22.3840  -32.2590 C   0  0  0  0  0  0  0  0  0  0  0  0
   -5.1990   21.0210  -32.5610 C   0  0  0  0  0  0  0  0  0  0  0  0
   -6.6830   21.0680  -32.3110 C   0  0  0  0  0  0  0  0  0  0  0  0
   -7.4780   19.9310  -32.5370 C   0  0  0  0  0  0  0  0  0  0  0  0
   -8.8610   19.9880  -32.3370 C   0  0  0  0  0  0  0  0  0  0  0  0
   -9.4590   21.1810  -31.9210 C   0  0  0  0  0  0  0  0  0  0  0  0
   -8.6770   22.3190  -31.7090 C   0  0  0  0  0  0  0  0  0  0  0  0
   -7.2940   22.2650  -31.9070 C   0  0  0  0  0  0  0  0  0  0  0  0
   -2.6660   22.3360  -30.7440 C   0  0  0  0  0  0  0  0  0  0  0  0
   -2.2960   21.3820  -29.6380 C   0  0  0  0  0  0  0  0  0  0  0  0
   -1.1210   20.6180  -29.7270 C   0  0  0  0  0  0  0  0  0  0  0  0
   -0.7670   19.7440  -28.6950 C   0  0  0  0  0  0  0  0  0  0  0  0
   -1.5780   19.6340  -27.5620 C   0  0  0  0  0  0  0  0  0  0  0  0
   -1.2340   18.7860  -26.5610 F   0  0  0  0  0  0  0  0  0  0  0  0
   -2.7420   20.4020  -27.4580 C   0  0  0  0  0  0  0  0  0  0  0  0
   -3.0980   21.2770  -28.4890 C   0  0  0  0  0  0  0  0  0  0  0  0
   -1.8344   24.7086  -29.9428 H   0  0  0  0  0  0  0  0  0  0  0  0
   -0.4231   25.3805  -27.9983 H   0  0  0  0  0  0  0  0  0  0  0  0
   -1.4226   25.5173  -25.7142 H   0  0  0  0  0  0  0  0  0  0  0  0
   -3.8360   24.9724  -25.3710 H   0  0  0  0  0  0  0  0  0  0  0  0
   -5.2516   24.2945  -27.3118 H   0  0  0  0  0  0  0  0  0  0  0  0
   -5.2955   23.1757  -32.4681 H   0  0  0  0  0  0  0  0  0  0  0  0
   -3.6706   22.4945  -32.8954 H   0  0  0  0  0  0  0  0  0  0  0  0
   -5.0171   20.7613  -33.6143 H   0  0  0  0  0  0  0  0  0  0  0  0
   -4.7503   20.2635  -31.9015 H   0  0  0  0  0  0  0  0  0  0  0  0
   -7.0108   18.9933  -32.8723 H   0  0  0  0  0  0  0  0  0  0  0  0
   -9.4784   19.0937  -32.5071 H   0  0  0  0  0  0  0  0  0  0  0  0
  -10.5464   21.2238  -31.7604 H   0  0  0  0  0  0  0  0  0  0  0  0
   -9.1497   23.2583  -31.3860 H   0  0  0  0  0  0  0  0  0  0  0  0
   -6.6822   23.1647  -31.7454 H   0  0  0  0  0  0  0  0  0  0  0  0
   -2.2772   21.9492  -31.6975 H   0  0  0  0  0  0  0  0  0  0  0  0
   -2.2277   23.3195  -30.5192 H   0  0  0  0  0  0  0  0  0  0  0  0
   -0.4758   20.7078  -30.6134 H   0  0  0  0  0  0  0  0  0  0  0  0
    0.1505   19.1424  -28.7747 H   0  0  0  0  0  0  0  0  0  0  0  0
   -3.3780   20.3177  -26.5645 H   0  0  0  0  0  0  0  0  0  0  0  0
   -4.0099   21.8858  -28.4002 H   0  0  0  0  0  0  0  0  0  0  0  0
  1  2  2  0
  2  3  2  0
  2  4  1  0
  4  5  2  0
  5  6  1  0
  6  7  2  0
  7  8  1  0
  8  9  2  0
  2 10  1  0
 10 11  1  0
 11 12  1  0
 12 13  1  0
 13 14  2  0
 14 15  1  0
 15 16  2  0
 16 17  1  0
 17 18  2  0
 10 19  1  0
 19 20  1  0
 20 21  2  0
 21 22  1  0
 22 23  2  0
 23 24  1  0
 23 25  1  0
 25 26  2  0
  9  4  1  0
 18 13  1  0
 26 20  1  0
  5 27  1  0
  6 28  1  0
  7 29  1  0
  8 30  1  0
  9 31  1  0
 11 32  1  0
 11 33  1  0
 12 34  1  0
 12 35  1  0
 14 36  1  0
 15 37  1  0
 16 38  1  0
 17 39  1  0
 18 40  1  0
 19 41  1  0
 19 42  1  0
 21 43  1  0
 22 44  1  0
 25 45  1  0
 26 46  1  0
M  END
>  <UniqueID>  (35) 
33

>  <SMILES>  (35) 
O=S(=O)(c1ccccc1)N(CCc1ccccc1)Cc1ccc(F)cc1

>  <Energy>  (35) 
47.20750491277046

>  <Genealogy>  (35) 
O=S(=O)(c1ccccc1)N(CCc1ccccc1)Cc1ccc(F)cc1 (3D coordinates assigned)
O=S(=O)(c1ccccc1)N(CCc1ccccc1)Cc1ccc(F)cc1 (optimized conformer: 47.20750491277046 kcal/mol)

>  <smiles>  (35) 
O=S(=O)(c1ccccc1)N(CCc1ccccc1)Cc1ccc(F)cc1

>  <score_type>  (35) 
oracle

>  <origin>  (35) 
adgpu

>  <m_score__min__energy>  (35) 
-9.0299999999999994

>  <m_primary>  (35) 
energy

$$$$
35:0
     RDKit          3D

 40 43  0  0  0  0  0  0  0  0999 V2000
   -9.3715   18.9912  -32.7331 H   0  0  0  0  0  0  0  0  0  0  0  0
   -9.0890   20.0050  -32.4130 C   0  0  0  0  0  0  0  0  0  0  0  0
   -9.9390   21.0430  -32.2790 N   0  0  0  0  0  0  0  0  0  0  0  0
   -9.1560   22.0660  -31.8760 C   0  0  0  0  0  0  0  0  0  0  0  0
   -9.5334   23.0790  -31.6723 H   0  0  0  0  0  0  0  0  0  0  0  0
   -7.8590   21.7110  -31.7500 N   0  0  0  0  0  0  0  0  0  0  0  0
   -6.7570   22.5460  -31.3420 C   0  0  0  0  0  0  0  0  0  0  0  0
   -5.4470   22.2650  -31.7730 C   0  0  0  0  0  0  0  0  0  0  0  0
   -5.2616   21.3997  -32.4263 H   0  0  0  0  0  0  0  0  0  0  0  0
   -4.3800   23.0760  -31.3780 C   0  0  0  0  0  0  0  0  0  0  0  0
   -3.3580   22.8323  -31.7036 H   0  0  0  0  0  0  0  0  0  0  0  0
   -4.6050   24.2000  -30.5680 C   0  0  0  0  0  0  0  0  0  0  0  0
   -3.5170   25.0170  -30.1080 N   0  0  0  0  0  0  0  0  0  0  0  0
   -2.5110   24.6550  -29.3610 C   0  0  0  0  0  0  0  0  0  0  0  0
   -1.6350   25.6120  -28.9530 N   0  0  0  0  0  0  0  0  0  0  0  0
   -0.5550   25.3260  -28.1810 C   0  0  0  0  0  0  0  0  0  0  0  0
    0.1251   26.1322  -27.8688 H   0  0  0  0  0  0  0  0  0  0  0  0
   -0.3060   24.0130  -27.7830 C   0  0  0  0  0  0  0  0  0  0  0  0
    0.5638   23.7831  -27.1501 H   0  0  0  0  0  0  0  0  0  0  0  0
   -1.1710   22.9850  -28.1940 C   0  0  0  0  0  0  0  0  0  0  0  0
   -0.9310   21.5730  -27.8050 C   0  0  0  0  0  0  0  0  0  0  0  0
   -1.8770   20.7770  -27.2620 N   0  0  0  0  0  0  0  0  0  0  0  0
   -1.2430   19.6050  -27.0620 C   0  0  0  0  0  0  0  0  0  0  0  0
   -2.0370   18.1680  -26.3470 S   0  0  0  0  0  0  0  0  0  0  0  0
   -3.6890   18.9300  -26.3720 C   0  0  0  0  0  0  0  0  0  0  0  0
   -4.0349   19.0895  -25.3400 H   0  0  0  0  0  0  0  0  0  0  0  0
   -3.6393   19.8961  -26.8955 H   0  0  0  0  0  0  0  0  0  0  0  0
   -4.3916   18.2650  -26.8955 H   0  0  0  0  0  0  0  0  0  0  0  0
    0.0440   19.6230  -27.4500 N   0  0  0  0  0  0  0  0  0  0  0  0
    0.7360   18.8440  -27.3950 H   0  0  0  0  0  0  0  0  0  0  0  0
    0.2520   20.8630  -27.9210 C   0  0  0  0  0  0  0  0  0  0  0  0
    1.1984   21.2481  -28.3285 H   0  0  0  0  0  0  0  0  0  0  0  0
   -2.2770   23.3130  -28.9970 C   0  0  0  0  0  0  0  0  0  0  0  0
   -2.9601   22.5226  -29.3415 H   0  0  0  0  0  0  0  0  0  0  0  0
   -5.8980   24.4630  -30.1070 C   0  0  0  0  0  0  0  0  0  0  0  0
   -6.0745   25.3132  -29.4318 H   0  0  0  0  0  0  0  0  0  0  0  0
   -6.9690   23.6530  -30.4980 C   0  0  0  0  0  0  0  0  0  0  0  0
   -7.9847   23.8825  -30.1435 H   0  0  0  0  0  0  0  0  0  0  0  0
   -7.8140   20.4080  -32.0880 C   0  0  0  0  0  0  0  0  0  0  0  0
   -6.9141   19.7756  -32.1019 H   0  0  0  0  0  0  0  0  0  0  0  0
  1  2  1  0
  2  3  1  0
  3  4  2  0
  4  5  1  0
  4  6  1  0
  6  7  1  0
  7  8  2  0
  8  9  1  0
  8 10  1  0
 10 11  1  0
 10 12  2  0
 12 13  1  0
 13 14  2  0
 14 15  1  0
 15 16  1  0
 16 17  1  0
 16 18  2  0
 18 19  1  0
 18 20  1  0
 20 21  1  0
 21 22  1  0
 22 23  2  0
 23 24  1  0
 24 25  1  0
 25 26  1  0
 25 27  1  0
 25 28  1  0
 23 29  1  0
 29 30  1  0
 29 31  1  0
 31 32  1  0
 20 33  2  0
 33 34  1  0
 12 35  1  0
 35 36  1  0
 35 37  2  0
 37 38  1  0
  6 39  1  0
 39 40  1  0
 39  2  2  0
 37  7  1  0
 33 14  1  0
 31 21  2  0
M  CHG  1  15  -1
M  END
>  <UniqueID>  (36) 
34

>  <SMILES>  (36) 
CSc1nc(-c2cc[n-]/c(=N/c3ccc(-n4ccnc4)cc3)c2)c[nH]1

>  <Energy>  (36) 
113.18465714279553

>  <Genealogy>  (36) 
CSc1nc(-c2cc[n-]c(=Nc3ccc(-n4ccnc4)cc3)c2)c[nH]1 (protonated)
CSc1nc(-c2cc[n-]/c(=N/c3ccc(-n4ccnc4)cc3)c2)c[nH]1 (cis-trans isomerization)
CSc1nc(-c2cc[n-]/c(=N/c3ccc(-n4ccnc4)cc3)c2)c[nH]1 (3D coordinates assigned)
CSc1nc(-c2cc[n-]/c(=N/c3ccc(-n4ccnc4)cc3)c2)c[nH]1 (optimized conformer: 113.18465714279553 kcal/mol)

>  <smiles>  (36) 
CSc1nc(-c2cc[nH]c(=Nc3ccc(-n4ccnc4)cc3)c2)c[nH]1

>  <score_type>  (36) 
oracle

>  <origin>  (36) 
adgpu

>  <m_score__min__energy>  (36) 
-10.26

>  <m_primary>  (36) 
energy

$$$$
36:0
     RDKit          3D

 34 36  0  0  0  0  0  0  0  0999 V2000
   -9.1261   23.2280  -31.1318 H   0  0  0  0  0  0  0  0  0  0  0  0
   -8.5470   22.3940  -31.5550 C   0  0  0  0  0  0  0  0  0  0  0  0
   -9.1240   21.1690  -31.6870 N   0  0  0  0  0  0  0  0  0  0  0  0
   -8.4450   20.1060  -32.1970 C   0  0  0  0  0  0  0  0  0  0  0  0
   -9.1170   18.7750  -32.3020 C   0  0  0  0  0  0  0  0  0  0  0  0
   -9.3147   18.3835  -31.2932 H   0  0  0  0  0  0  0  0  0  0  0  0
  -10.0672   18.8858  -32.8450 H   0  0  0  0  0  0  0  0  0  0  0  0
   -8.4637   18.0762  -32.8450 H   0  0  0  0  0  0  0  0  0  0  0  0
   -7.1060   20.2560  -32.5760 C   0  0  0  0  0  0  0  0  0  0  0  0
   -6.5419   19.3984  -32.9713 H   0  0  0  0  0  0  0  0  0  0  0  0
   -6.4930   21.5030  -32.4480 C   0  0  0  0  0  0  0  0  0  0  0  0
   -5.4382   21.6284  -32.7338 H   0  0  0  0  0  0  0  0  0  0  0  0
   -7.2220   22.6000  -31.9540 C   0  0  0  0  0  0  0  0  0  0  0  0
   -6.6430   23.9050  -31.7850 N   0  0  0  0  0  0  0  0  0  0  0  0
   -5.5040   24.1720  -31.2190 C   0  0  0  0  0  0  0  0  0  0  0  0
   -5.0350   25.4210  -31.0610 N   0  0  0  0  0  0  0  0  0  0  0  0
   -3.8560   25.2920  -30.4720 N   0  0  0  0  0  0  0  0  0  0  0  0
   -3.6530   23.9690  -30.2970 C   0  0  0  0  0  0  0  0  0  0  0  0
   -2.4480   23.3810  -29.6670 C   0  0  0  0  0  0  0  0  0  0  0  0
   -2.2480   21.9900  -29.7210 C   0  0  0  0  0  0  0  0  0  0  0  0
   -2.9862   21.3525  -30.2296 H   0  0  0  0  0  0  0  0  0  0  0  0
   -1.1210   21.4110  -29.1350 C   0  0  0  0  0  0  0  0  0  0  0  0
   -0.9750   20.3218  -29.1834 H   0  0  0  0  0  0  0  0  0  0  0  0
   -0.1810   22.2110  -28.4890 C   0  0  0  0  0  0  0  0  0  0  0  0
    0.7058   21.7521  -28.0276 H   0  0  0  0  0  0  0  0  0  0  0  0
   -0.3620   23.5930  -28.4260 C   0  0  0  0  0  0  0  0  0  0  0  0
    0.3845   24.2181  -27.9142 H   0  0  0  0  0  0  0  0  0  0  0  0
   -1.4940   24.1950  -29.0130 C   0  0  0  0  0  0  0  0  0  0  0  0
   -1.6910   25.5850  -28.9650 O   0  0  0  0  0  0  0  0  0  0  0  0
   -1.1920   26.4440  -27.9460 C   0  0  0  0  0  0  0  0  0  0  0  0
   -1.4364   26.0232  -26.9595 H   0  0  0  0  0  0  0  0  0  0  0  0
   -0.1003   26.5352  -28.0454 H   0  0  0  0  0  0  0  0  0  0  0  0
   -1.6535   27.4375  -28.0454 H   0  0  0  0  0  0  0  0  0  0  0  0
   -4.6660   23.2760  -30.7610 O   0  0  0  0  0  0  0  0  0  0  0  0
  1  2  1  0
  2  3  2  0
  3  4  1  0
  4  5  1  0
  5  6  1  0
  5  7  1  0
  5  8  1  0
  4  9  2  0
  9 10  1  0
  9 11  1  0
 11 12  1  0
 11 13  2  0
 13 14  1  0
 14 15  2  0
 15 16  1  0
 16 17  1  0
 17 18  2  0
 18 19  1  0
 19 20  2  0
 20 21  1  0
 20 22  1  0
 22 23  1  0
 22 24  2  0
 24 25  1  0
 24 26  1  0
 26 27  1  0
 26 28  2  0
 28 29  1  0
 29 30  1  0
 30 31  1  0
 30 32  1  0
 30 33  1  0
 18 34  1  0
 13  2  1  0
 34 15  1  0
 28 19  1  0
M  CHG  1  16  -1
M  END
>  <UniqueID>  (37) 
35

>  <SMILES>  (37) 
COc1ccccc1-c1n[n-]/c(=N/c2ccc(C)nc2)o1

>  <Energy>  (37) 
75.97698552805903

>  <Genealogy>  (37) 
COc1ccccc1-c1n[n-]c(=Nc2ccc(C)nc2)o1 (protonated)
COc1ccccc1-c1n[n-]/c(=N/c2ccc(C)nc2)o1 (cis-trans isomerization)
COc1ccccc1-c1n[n-]/c(=N/c2ccc(C)nc2)o1 (3D coordinates assigned)
COc1ccccc1-c1n[n-]/c(=N/c2ccc(C)nc2)o1 (optimized conformer: 75.97698552805903 kcal/mol)

>  <smiles>  (37) 
COc1ccccc1-c1n[nH]c(=Nc2ccc(C)nc2)o1

>  <score_type>  (37) 
oracle

>  <origin>  (37) 
adgpu

>  <m_score__min__energy>  (37) 
-9.1500000000000004

>  <m_primary>  (37) 
energy

$$$$
37:0
     RDKit          3D

 37 39  0  0  0  0  0  0  0  0999 V2000
   -3.4820   21.0080  -29.3300 O   0  0  0  0  0  0  0  0  0  0  0  0
   -3.4990   22.2660  -29.4250 C   0  0  0  0  0  0  0  0  0  0  0  0
   -2.7250   23.0200  -28.5440 C   0  0  0  0  0  0  0  0  0  0  0  0
   -2.7310   24.4110  -28.6590 C   0  0  0  0  0  0  0  0  0  0  0  0
   -1.9480   25.2150  -27.7580 N   0  0  0  0  0  0  0  0  0  0  0  0
   -2.4360   25.4840  -26.4000 C   0  0  0  0  0  0  0  0  0  0  0  0
   -1.2680   25.4960  -25.4090 C   0  0  0  0  0  0  0  0  0  0  0  0
   -0.1530   26.4330  -25.8850 C   0  0  0  0  0  0  0  0  0  0  0  0
    0.3200   26.0470  -27.2900 C   0  0  0  0  0  0  0  0  0  0  0  0
   -0.8520   26.0440  -28.2750 C   0  0  0  0  0  0  0  0  0  0  0  0
   -3.4960   24.9980  -29.6210 N   0  0  0  0  0  0  0  0  0  0  0  0
   -4.2520   24.2540  -30.4750 C   0  0  0  0  0  0  0  0  0  0  0  0
   -4.9550   24.8410  -31.3440 O   0  0  0  0  0  0  0  0  0  0  0  0
   -4.2570   22.8860  -30.3830 N   0  0  0  0  0  0  0  0  0  0  0  0
   -5.0590   22.1020  -31.2920 C   0  0  0  0  0  0  0  0  0  0  0  0
   -4.4450   21.3380  -32.2980 C   0  0  0  0  0  0  0  0  0  0  0  0
   -5.2230   20.5770  -33.1770 C   0  0  0  0  0  0  0  0  0  0  0  0
   -6.6160   20.5760  -33.0580 C   0  0  0  0  0  0  0  0  0  0  0  0
   -7.2340   21.3350  -32.0590 C   0  0  0  0  0  0  0  0  0  0  0  0
   -8.9830   21.3330  -31.9120 Cl  0  0  0  0  0  0  0  0  0  0  0  0
   -6.4590   22.0960  -31.1780 C   0  0  0  0  0  0  0  0  0  0  0  0
   -2.1189   22.5262  -27.7702 H   0  0  0  0  0  0  0  0  0  0  0  0
   -2.9377   26.4628  -26.3817 H   0  0  0  0  0  0  0  0  0  0  0  0
   -3.1434   24.6930  -26.1103 H   0  0  0  0  0  0  0  0  0  0  0  0
   -1.6315   25.8384  -24.4289 H   0  0  0  0  0  0  0  0  0  0  0  0
   -0.8611   24.4767  -25.3348 H   0  0  0  0  0  0  0  0  0  0  0  0
   -0.5328   27.4652  -25.9034 H   0  0  0  0  0  0  0  0  0  0  0  0
    0.6970   26.3497  -25.1918 H   0  0  0  0  0  0  0  0  0  0  0  0
    1.0743   26.7724  -27.6288 H   0  0  0  0  0  0  0  0  0  0  0  0
    0.7519   25.0361  -27.2519 H   0  0  0  0  0  0  0  0  0  0  0  0
   -1.2110   27.0742  -28.4154 H   0  0  0  0  0  0  0  0  0  0  0  0
   -0.5118   25.6301  -29.2357 H   0  0  0  0  0  0  0  0  0  0  0  0
   -3.4980   26.0380  -29.7190 H   0  0  0  0  0  0  0  0  0  0  0  0
   -3.3493   21.3380  -32.3950 H   0  0  0  0  0  0  0  0  0  0  0  0
   -4.7382   19.9788  -33.9626 H   0  0  0  0  0  0  0  0  0  0  0  0
   -7.2264   19.9778  -33.7506 H   0  0  0  0  0  0  0  0  0  0  0  0
   -6.9475   22.6920  -30.3930 H   0  0  0  0  0  0  0  0  0  0  0  0
  1  2  2  0
  2  3  1  0
  3  4  2  0
  4  5  1  0
  5  6  1  0
  6  7  1  0
  7  8  1  0
  8  9  1  0
  9 10  1  0
  4 11  1  0
 11 12  1  0
 12 13  2  0
 12 14  1  0
 14 15  1  0
 15 16  2  0
 16 17  1  0
 17 18  2  0
 18 19  1  0
 19 20  1  0
 19 21  2  0
 14  2  1  0
 21 15  1  0
 10  5  1  0
  3 22  1  0
  6 23  1  0
  6 24  1  0
  7 25  1  0
  7 26  1  0
  8 27  1  0
  8 28  1  0
  9 29  1  0
  9 30  1  0
 10 31  1  0
 10 32  1  0
 11 33  1  0
 16 34  1  0
 17 35  1  0
 18 36  1  0
 21 37  1  0
M  END
>  <UniqueID>  (38) 
36

>  <SMILES>  (38) 
O=c1cc(N2CCCCC2)[nH]c(=O)n1-c1cccc(Cl)c1

>  <Energy>  (38) 
47.88327251041337

>  <Genealogy>  (38) 
O=c1cc(N2CCCCC2)[nH]c(=O)n1-c1cccc(Cl)c1 (3D coordinates assigned)
O=c1cc(N2CCCCC2)[nH]c(=O)n1-c1cccc(Cl)c1 (nonaromatic ring conformer: 47.88327251041337 kcal/mol)

>  <smiles>  (38) 
O=c1cc(N2CCCCC2)[nH]c(=O)n1-c1cccc(Cl)c1

>  <score_type>  (38) 
oracle

>  <origin>  (38) 
adgpu

>  <m_score__min__energy>  (38) 
-7.6399999999999997

>  <m_primary>  (38) 
energy

$$$$
38:0
     RDKit          3D

 41 45  0  0  0  0  0  0  0  0999 V2000
   -9.1130   19.7220  -31.3310 C   0  0  0  0  0  0  0  0  0  0  0  0
   -8.9820   18.3750  -31.6610 C   0  0  0  0  0  0  0  0  0  0  0  0
   -7.9270   17.9520  -32.4710 C   0  0  0  0  0  0  0  0  0  0  0  0
   -6.9890   18.8760  -32.9710 C   0  0  0  0  0  0  0  0  0  0  0  0
   -5.8810   18.3890  -33.8300 C   0  0  0  0  0  0  0  0  0  0  0  0
   -6.0350   17.6400  -34.9420 N   0  0  0  0  0  0  0  0  0  0  0  0
   -4.8080   17.4300  -35.3890 N   0  0  0  0  0  0  0  0  0  0  0  0
   -3.9470   18.0250  -34.5830 N   0  0  0  0  0  0  0  0  0  0  0  0
   -4.5760   18.6360  -33.5950 N   0  0  0  0  0  0  0  0  0  0  0  0
   -7.1360   20.2460  -32.6500 C   0  0  0  0  0  0  0  0  0  0  0  0
   -6.2000   21.1800  -33.1220 O   0  0  0  0  0  0  0  0  0  0  0  0
   -5.5320   22.1320  -32.3380 C   0  0  0  0  0  0  0  0  0  0  0  0
   -4.1740   21.9410  -32.0610 C   0  0  0  0  0  0  0  0  0  0  0  0
   -3.4680   22.8710  -31.2930 C   0  0  0  0  0  0  0  0  0  0  0  0
   -4.1200   24.0100  -30.7830 C   0  0  0  0  0  0  0  0  0  0  0  0
   -3.4260   25.0100  -30.0180 N   0  0  0  0  0  0  0  0  0  0  0  0
   -2.3410   24.8390  -29.3190 C   0  0  0  0  0  0  0  0  0  0  0  0
   -1.7470   25.8700  -28.6650 N   0  0  0  0  0  0  0  0  0  0  0  0
   -0.7150   25.2660  -28.0580 C   0  0  0  0  0  0  0  0  0  0  0  0
    0.2510   25.8480  -27.2390 C   0  0  0  0  0  0  0  0  0  0  0  0
    1.2470   25.0070  -26.7050 C   0  0  0  0  0  0  0  0  0  0  0  0
    1.2480   23.6250  -27.0000 C   0  0  0  0  0  0  0  0  0  0  0  0
    0.2540   23.0720  -27.8300 C   0  0  0  0  0  0  0  0  0  0  0  0
   -0.7120   23.9350  -28.3410 C   0  0  0  0  0  0  0  0  0  0  0  0
   -1.7440   23.6290  -29.1410 N   0  0  0  0  0  0  0  0  0  0  0  0
   -5.4660   24.2250  -31.1040 C   0  0  0  0  0  0  0  0  0  0  0  0
   -6.1710   23.2940  -31.8710 C   0  0  0  0  0  0  0  0  0  0  0  0
   -8.1940   20.6530  -31.8170 C   0  0  0  0  0  0  0  0  0  0  0  0
   -9.9414   20.0520  -30.6869 H   0  0  0  0  0  0  0  0  0  0  0  0
   -9.7112   17.6435  -31.2826 H   0  0  0  0  0  0  0  0  0  0  0  0
   -7.8271   16.8856  -32.7215 H   0  0  0  0  0  0  0  0  0  0  0  0
   -2.9110   18.0150  -34.7090 H   0  0  0  0  0  0  0  0  0  0  0  0
   -3.6577   21.0514  -32.4509 H   0  0  0  0  0  0  0  0  0  0  0  0
   -2.3993   22.7126  -31.0862 H   0  0  0  0  0  0  0  0  0  0  0  0
    0.2362   26.9254  -27.0176 H   0  0  0  0  0  0  0  0  0  0  0  0
    2.0280   25.4283  -26.0550 H   0  0  0  0  0  0  0  0  0  0  0  0
    2.0305   22.9769  -26.5784 H   0  0  0  0  0  0  0  0  0  0  0  0
    0.2411   21.9977  -28.0661 H   0  0  0  0  0  0  0  0  0  0  0  0
   -5.9726   25.1347  -30.7492 H   0  0  0  0  0  0  0  0  0  0  0  0
   -7.2300   23.4708  -32.1104 H   0  0  0  0  0  0  0  0  0  0  0  0
   -8.2978   21.7141  -31.5464 H   0  0  0  0  0  0  0  0  0  0  0  0
  1  2  2  0
  2  3  1  0
  3  4  2  0
  4  5  1  0
  5  6  1  0
  6  7  2  0
  7  8  1  0
  8  9  1  0
  4 10  1  0
 10 11  1  0
 11 12  1  0
 12 13  2  0
 13 14  1  0
 14 15  2  0
 15 16  1  0
 16 17  2  3
 17 18  1  0
 18 19  1  0
 19 20  2  0
 20 21  1  0
 21 22  2  0
 22 23  1  0
 23 24  2  0
 24 25  1  0
 15 26  1  0
 26 27  2  0
 10 28  2  0
 28  1  1  0
  9  5  2  0
 27 12  1  0
 25 17  1  0
 24 19  1  0
  1 29  1  0
  2 30  1  0
  3 31  1  0
  8 32  1  0
 13 33  1  0
 14 34  1  0
 20 35  1  0
 21 36  1  0
 22 37  1  0
 23 38  1  0
 26 39  1  0
 27 40  1  0
 28 41  1  0
M  CHG  2  18  -1  25  -1
M  END
>  <UniqueID>  (39) 
37

>  <SMILES>  (39) 
c1ccc(-c2nn[nH]n2)c(Oc2ccc(N=c3[n-]c4ccccc4[n-]3)cc2)c1

>  <Energy>  (39) 
135.48789980851663

>  <Genealogy>  (39) 
c1ccc(-c2nn[nH]n2)c(Oc2ccc(N=c3[n-]c4ccccc4[n-]3)cc2)c1 (protonated)
c1ccc(-c2nn[nH]n2)c(Oc2ccc(N=c3[n-]c4ccccc4[n-]3)cc2)c1 (3D coordinates assigned)
c1ccc(-c2nn[nH]n2)c(Oc2ccc(N=c3[n-]c4ccccc4[n-]3)cc2)c1 (optimized conformer: 135.48789980851663 kcal/mol)

>  <smiles>  (39) 
c1ccc(-c2nn[nH]n2)c(Oc2ccc(N=c3[nH]c4ccccc4[nH]3)cc2)c1

>  <score_type>  (39) 
oracle

>  <origin>  (39) 
adgpu

>  <m_score__min__energy>  (39) 
-12.039999999999999

>  <m_primary>  (39) 
energy

$$$$
39:0
     RDKit          3D

 57 59  0  0  0  0  0  0  0  0999 V2000
   -6.4600   25.3500  -29.6100 C   0  0  0  0  0  0  0  0  0  0  0  0
   -5.1840   25.3610  -30.4350 C   0  0  0  0  0  0  0  0  0  0  0  0
   -5.3600   24.5380  -31.5850 O   0  0  0  0  0  0  0  0  0  0  0  0
   -6.1520   23.3790  -31.6270 C   0  0  0  0  0  0  0  0  0  0  0  0
   -7.5260   23.4270  -31.9050 C   0  0  0  0  0  0  0  0  0  0  0  0
   -8.2650   22.2430  -31.9800 C   0  0  0  0  0  0  0  0  0  0  0  0
   -9.4940   22.3050  -32.2530 O   0  0  0  0  0  0  0  0  0  0  0  0
   -7.6590   21.0330  -31.7640 N   0  0  0  0  0  0  0  0  0  0  0  0
   -8.4310   19.7900  -31.8830 C   0  0  0  0  0  0  0  0  0  0  0  0
   -6.3210   20.9680  -31.4920 C   0  0  0  0  0  0  0  0  0  0  0  0
   -5.5420   22.1320  -31.4190 C   0  0  0  0  0  0  0  0  0  0  0  0
   -4.0850   22.0340  -31.1670 C   0  0  0  0  0  0  0  0  0  0  0  0
   -3.5720   22.4990  -29.9450 C   0  0  0  0  0  0  0  0  0  0  0  0
   -2.2100   22.3670  -29.6480 C   0  0  0  0  0  0  0  0  0  0  0  0
   -1.6950   22.8510  -28.4020 N   0  0  0  0  0  0  0  0  0  0  0  0
   -0.9730   21.9320  -27.5260 C   0  0  0  0  0  0  0  0  0  0  0  0
   -1.4460   24.5580  -28.2020 S   0  0  0  0  0  0  0  0  0  0  0  0
   -2.1220   25.2890  -29.3290 O   0  0  0  0  0  0  0  0  0  0  0  0
    0.0290   24.8530  -28.2300 O   0  0  0  0  0  0  0  0  0  0  0  0
   -2.1130   25.1170  -26.6410 C   0  0  0  0  0  0  0  0  0  0  0  0
   -3.6230   24.9240  -26.5940 C   0  0  0  0  0  0  0  0  0  0  0  0
   -1.3550   21.7540  -30.5700 C   0  0  0  0  0  0  0  0  0  0  0  0
   -1.8530   21.2880  -31.7880 C   0  0  0  0  0  0  0  0  0  0  0  0
   -3.2050   21.4460  -32.1100 C   0  0  0  0  0  0  0  0  0  0  0  0
   -3.6450   21.0010  -33.3660 O   0  0  0  0  0  0  0  0  0  0  0  0
   -3.8440   19.6550  -33.7080 C   0  0  0  0  0  0  0  0  0  0  0  0
   -2.7590   18.9100  -34.1830 C   0  0  0  0  0  0  0  0  0  0  0  0
   -2.9150   17.5580  -34.4990 C   0  0  0  0  0  0  0  0  0  0  0  0
   -4.1630   16.9440  -34.3540 C   0  0  0  0  0  0  0  0  0  0  0  0
   -5.2600   17.6850  -33.9040 C   0  0  0  0  0  0  0  0  0  0  0  0
   -6.8260   16.9180  -33.7230 Cl  0  0  0  0  0  0  0  0  0  0  0  0
   -5.1050   19.0400  -33.5920 C   0  0  0  0  0  0  0  0  0  0  0  0
   -6.2048   25.3522  -28.5400 H   0  0  0  0  0  0  0  0  0  0  0  0
   -7.0572   26.2430  -29.8464 H   0  0  0  0  0  0  0  0  0  0  0  0
   -7.0417   24.4468  -29.8464 H   0  0  0  0  0  0  0  0  0  0  0  0
   -4.9594   26.3905  -30.7507 H   0  0  0  0  0  0  0  0  0  0  0  0
   -4.3504   24.9753  -29.8298 H   0  0  0  0  0  0  0  0  0  0  0  0
   -8.0217   24.3960  -32.0639 H   0  0  0  0  0  0  0  0  0  0  0  0
   -8.6682   19.4081  -30.8790 H   0  0  0  0  0  0  0  0  0  0  0  0
   -9.3646   19.9891  -32.4296 H   0  0  0  0  0  0  0  0  0  0  0  0
   -7.8387   19.0414  -32.4296 H   0  0  0  0  0  0  0  0  0  0  0  0
   -5.8483   19.9884  -31.3280 H   0  0  0  0  0  0  0  0  0  0  0  0
   -4.2460   22.9710  -29.2150 H   0  0  0  0  0  0  0  0  0  0  0  0
   -1.1760   22.1904  -26.4762 H   0  0  0  0  0  0  0  0  0  0  0  0
   -1.3059   20.9019  -27.7210 H   0  0  0  0  0  0  0  0  0  0  0  0
    0.1066   22.0116  -27.7210 H   0  0  0  0  0  0  0  0  0  0  0  0
   -1.6509   24.5415  -25.8253 H   0  0  0  0  0  0  0  0  0  0  0  0
   -1.8923   26.1888  -26.5285 H   0  0  0  0  0  0  0  0  0  0  0  0
   -3.9548   24.8816  -25.5461 H   0  0  0  0  0  0  0  0  0  0  0  0
   -4.1163   25.7664  -27.1010 H   0  0  0  0  0  0  0  0  0  0  0  0
   -3.8885   23.9846  -27.1010 H   0  0  0  0  0  0  0  0  0  0  0  0
   -0.2867   21.6388  -30.3344 H   0  0  0  0  0  0  0  0  0  0  0  0
   -1.1768   20.7926  -32.5002 H   0  0  0  0  0  0  0  0  0  0  0  0
   -1.7779   19.3914  -34.3083 H   0  0  0  0  0  0  0  0  0  0  0  0
   -2.0552   16.9759  -34.8622 H   0  0  0  0  0  0  0  0  0  0  0  0
   -4.2818   15.8771  -34.5942 H   0  0  0  0  0  0  0  0  0  0  0  0
   -5.9719   19.6271  -33.2547 H   0  0  0  0  0  0  0  0  0  0  0  0
  1  2  1  0
  2  3  1  0
  3  4  1  0
  4  5  2  0
  5  6  1  0
  6  7  2  0
  6  8  1  0
  8  9  1  0
  8 10  1  0
 10 11  2  0
 11 12  1  0
 12 13  2  0
 13 14  1  0
 14 15  1  0
 15 16  1  0
 15 17  1  0
 17 18  2  0
 17 19  2  0
 17 20  1  0
 20 21  1  0
 14 22  2  0
 22 23  1  0
 23 24  2  0
 24 25  1  0
 25 26  1  0
 26 27  2  0
 27 28  1  0
 28 29  2  0
 29 30  1  0
 30 31  1  0
 30 32  2  0
 11  4  1  0
 24 12  1  0
 32 26  1  0
  1 33  1  0
  1 34  1  0
  1 35  1  0
  2 36  1  0
  2 37  1  0
  5 38  1  0
  9 39  1  0
  9 40  1  0
  9 41  1  0
 10 42  1  0
 13 43  1  0
 16 44  1  0
 16 45  1  0
 16 46  1  0
 20 47  1  0
 20 48  1  0
 21 49  1  0
 21 50  1  0
 21 51  1  0
 22 52  1  0
 23 53  1  0
 27 54  1  0
 28 55  1  0
 29 56  1  0
 32 57  1  0
M  END
>  <UniqueID>  (40) 
38

>  <SMILES>  (40) 
CCOc1cc(=O)n(C)cc1-c1cc(N(C)S(=O)(=O)CC)ccc1Oc1cccc(Cl)c1

>  <Energy>  (40) 
66.91188277554896

>  <Genealogy>  (40) 
CCOc1cc(=O)n(C)cc1-c1cc(N(C)S(=O)(=O)CC)ccc1Oc1cccc(Cl)c1 (3D coordinates assigned)
CCOc1cc(=O)n(C)cc1-c1cc(N(C)S(=O)(=O)CC)ccc1Oc1cccc(Cl)c1 (optimized conformer: 66.91188277554896 kcal/mol)

>  <smiles>  (40) 
CCOc1cc(=O)n(C)cc1-c1cc(N(C)S(=O)(=O)CC)ccc1Oc1cccc(Cl)c1

>  <score_type>  (40) 
oracle

>  <origin>  (40) 
adgpu

>  <m_score__min__energy>  (40) 
-10.109999999999999

>  <m_primary>  (40) 
energy

$$$$
40:0
     RDKit          3D

 33 34  0  0  0  0  0  0  0  0999 V2000
   -2.1170   20.4610  -28.6530 C   0  0  0  0  0  0  0  0  0  0  0  0
   -3.1180   21.3610  -27.9350 C   0  0  0  0  0  0  0  0  0  0  0  0
   -3.6860   22.3980  -28.8800 C   0  0  0  0  0  0  0  0  0  0  0  0
   -4.0460   22.0000  -30.1750 C   0  0  0  0  0  0  0  0  0  0  0  0
   -4.5820   22.9170  -31.0820 C   0  0  0  0  0  0  0  0  0  0  0  0
   -4.9410   22.4730  -32.4010 N   0  0  0  0  0  0  0  0  0  0  0  0
   -5.3140   21.0920  -32.7020 C   0  0  0  0  0  0  0  0  0  0  0  0
   -6.7650   20.8840  -32.4120 C   0  0  0  0  0  0  0  0  0  0  0  0
   -7.6490   21.8560  -31.9610 C   0  0  0  0  0  0  0  0  0  0  0  0
   -8.9660   21.3910  -31.8460 C   0  0  0  0  0  0  0  0  0  0  0  0
   -9.1210   20.0610  -32.2180 C   0  0  0  0  0  0  0  0  0  0  0  0
   -7.6210   19.4650  -32.6940 S   0  0  0  0  0  0  0  0  0  0  0  0
   -4.8040   24.2380  -30.6550 C   0  0  0  0  0  0  0  0  0  0  0  0
   -5.3480   25.0750  -31.4240 O   0  0  0  0  0  0  0  0  0  0  0  0
   -4.4570   24.6150  -29.3940 N   0  0  0  0  0  0  0  0  0  0  0  0
   -3.9150   23.7400  -28.4950 C   0  0  0  0  0  0  0  0  0  0  0  0
   -3.5510   24.2350  -27.1190 C   0  0  0  0  0  0  0  0  0  0  0  0
   -1.5135   19.9184  -27.9105 H   0  0  0  0  0  0  0  0  0  0  0  0
   -2.6584   19.7400  -29.2831 H   0  0  0  0  0  0  0  0  0  0  0  0
   -1.4574   21.0757  -29.2831 H   0  0  0  0  0  0  0  0  0  0  0  0
   -3.9393   20.7441  -27.5413 H   0  0  0  0  0  0  0  0  0  0  0  0
   -2.5997   21.8792  -27.1147 H   0  0  0  0  0  0  0  0  0  0  0  0
   -3.9046   20.9528  -30.4806 H   0  0  0  0  0  0  0  0  0  0  0  0
   -5.1990   23.1980  -33.1100 H   0  0  0  0  0  0  0  0  0  0  0  0
   -5.1209   20.8852  -33.7650 H   0  0  0  0  0  0  0  0  0  0  0  0
   -4.7178   20.4107  -32.0771 H   0  0  0  0  0  0  0  0  0  0  0  0
   -7.3462   22.8854  -31.7189 H   0  0  0  0  0  0  0  0  0  0  0  0
   -9.7980   22.0190  -31.4947 H   0  0  0  0  0  0  0  0  0  0  0  0
  -10.0637   19.4943  -32.2037 H   0  0  0  0  0  0  0  0  0  0  0  0
   -4.6270   25.6060  -29.1090 H   0  0  0  0  0  0  0  0  0  0  0  0
   -4.0234   23.5925  -26.3613 H   0  0  0  0  0  0  0  0  0  0  0  0
   -2.4584   24.2048  -26.9956 H   0  0  0  0  0  0  0  0  0  0  0  0
   -3.9055   25.2690  -26.9956 H   0  0  0  0  0  0  0  0  0  0  0  0
  1  2  1  0
  2  3  1  0
  3  4  1  0
  4  5  2  0
  5  6  1  0
  6  7  1  0
  7  8  1  0
  8  9  2  0
  9 10  1  0
 10 11  2  0
 11 12  1  0
  5 13  1  0
 13 14  2  0
 13 15  1  0
 15 16  1  0
 16 17  1  0
 16  3  2  0
 12  8  1  0
  1 18  1  0
  1 19  1  0
  1 20  1  0
  2 21  1  0
  2 22  1  0
  4 23  1  0
  6 24  1  0
  7 25  1  0
  7 26  1  0
  9 27  1  0
 10 28  1  0
 11 29  1  0
 15 30  1  0
 17 31  1  0
 17 32  1  0
 17 33  1  0
M  END
>  <UniqueID>  (41) 
39

>  <SMILES>  (41) 
CCc1cc(NCc2cccs2)c(=O)[nH]c1C

>  <Energy>  (41) 
59.76454267793644

>  <Genealogy>  (41) 
CCc1cc(NCc2cccs2)c(=O)[nH]c1C (3D coordinates assigned)
CCc1cc(NCc2cccs2)c(=O)[nH]c1C (optimized conformer: 59.76454267793644 kcal/mol)

>  <smiles>  (41) 
CCc1cc(NCc2cccs2)c(=O)[nH]c1C

>  <score_type>  (41) 
oracle

>  <origin>  (41) 
adgpu

>  <m_score__min__energy>  (41) 
-7.0800000000000001

>  <m_primary>  (41) 
energy

$$$$
41:0
     RDKit          3D

 33 35  0  0  0  0  0  0  0  0999 V2000
   -1.4310   25.1900  -27.9770 C   0  0  0  0  0  0  0  0  0  0  0  0
   -1.9160   25.1880  -29.3010 O   0  0  0  0  0  0  0  0  0  0  0  0
   -2.7170   24.1480  -29.7610 C   0  0  0  0  0  0  0  0  0  0  0  0
   -2.3360   22.8110  -29.6300 C   0  0  0  0  0  0  0  0  0  0  0  0
   -3.1470   21.7910  -30.0950 C   0  0  0  0  0  0  0  0  0  0  0  0
   -4.3320   22.1190  -30.6860 C   0  0  0  0  0  0  0  0  0  0  0  0
   -5.2750   21.1420  -31.2160 C   0  0  0  0  0  0  0  0  0  0  0  0
   -4.8870   19.8810  -31.6300 C   0  0  0  0  0  0  0  0  0  0  0  0
   -5.8640   19.0350  -32.1170 C   0  0  0  0  0  0  0  0  0  0  0  0
   -7.1840   19.4250  -32.1910 C   0  0  0  0  0  0  0  0  0  0  0  0
   -8.1570   18.5960  -32.6690 N   0  0  0  0  0  0  0  0  0  0  0  0
   -9.4330   19.0350  -32.7170 C   0  0  0  0  0  0  0  0  0  0  0  0
   -9.8000   20.2590  -32.3130 N   0  0  0  0  0  0  0  0  0  0  0  0
   -8.8760   21.1100  -31.8340 C   0  0  0  0  0  0  0  0  0  0  0  0
   -9.1540   22.3030  -31.4270 N   0  0  0  0  0  0  0  0  0  0  0  0
   -7.5630   20.6880  -31.7740 C   0  0  0  0  0  0  0  0  0  0  0  0
   -6.6080   21.5570  -31.2820 C   0  0  0  0  0  0  0  0  0  0  0  0
   -4.7100   23.4590  -30.8150 C   0  0  0  0  0  0  0  0  0  0  0  0
   -3.9090   24.4870  -30.3550 C   0  0  0  0  0  0  0  0  0  0  0  0
   -4.3400   25.7960  -30.5140 O   0  0  0  0  0  0  0  0  0  0  0  0
   -2.2787   25.1865  -27.2760 H   0  0  0  0  0  0  0  0  0  0  0  0
   -0.8143   24.2944  -27.8111 H   0  0  0  0  0  0  0  0  0  0  0  0
   -0.8217   26.0907  -27.8111 H   0  0  0  0  0  0  0  0  0  0  0  0
   -1.3772   22.5651  -29.1502 H   0  0  0  0  0  0  0  0  0  0  0  0
   -2.8430   20.7390  -29.9905 H   0  0  0  0  0  0  0  0  0  0  0  0
   -3.8357   19.5624  -31.5734 H   0  0  0  0  0  0  0  0  0  0  0  0
   -5.5822   18.0264  -32.4537 H   0  0  0  0  0  0  0  0  0  0  0  0
  -10.2069   18.3567  -33.1056 H   0  0  0  0  0  0  0  0  0  0  0  0
  -10.8010   20.5530  -32.3690 H   0  0  0  0  0  0  0  0  0  0  0  0
  -10.1260   22.6840  -31.4440 H   0  0  0  0  0  0  0  0  0  0  0  0
   -6.8938   22.5646  -30.9459 H   0  0  0  0  0  0  0  0  0  0  0  0
   -5.6697   23.7012  -31.2950 H   0  0  0  0  0  0  0  0  0  0  0  0
   -3.8690   26.6040  -30.0900 H   0  0  0  0  0  0  0  0  0  0  0  0
  1  2  1  0
  2  3  1  0
  3  4  2  0
  4  5  1  0
  5  6  2  0
  6  7  1  0
  7  8  2  0
  8  9  1  0
  9 10  2  0
 10 11  1  0
 11 12  2  0
 12 13  1  0
 13 14  1  0
 14 15  2  3
 14 16  1  0
 16 17  2  0
  6 18  1  0
 18 19  2  0
 19 20  1  0
 19  3  1  0
 17  7  1  0
 16 10  1  0
  1 21  1  0
  1 22  1  0
  1 23  1  0
  4 24  1  0
  5 25  1  0
  8 26  1  0
  9 27  1  0
 12 28  1  0
 13 29  1  0
 15 30  1  0
 17 31  1  0
 18 32  1  0
 20 33  1  0
M  END
>  <smiles>  (42) 
COc1ccc(-c2ccc3nc[nH]c(=N)c3c2)cc1O

>  <score_type>  (42) 
oracle

>  <origin>  (42) 
adgpu

>  <m_score__min__energy>  (42) 
-7.8300000000000001

>  <m_primary>  (42) 
energy

$$$$
42:0
     RDKit          3D

 47 49  0  0  0  0  0  0  0  0999 V2000
    0.7090   17.0390  -28.2510 C   0  0  0  0  0  0  0  0  0  0  0  0
    0.3750   18.4930  -28.3040 C   0  0  0  0  0  0  0  0  0  0  0  0
    0.9650   19.2900  -27.5240 O   0  0  0  0  0  0  0  0  0  0  0  0
   -0.5350   18.9840  -29.3000 N   0  0  0  0  0  0  0  0  0  0  0  0
   -1.0830   20.3130  -29.3130 C   0  0  0  0  0  0  0  0  0  0  0  0
   -0.5010   21.3420  -30.0750 C   0  0  0  0  0  0  0  0  0  0  0  0
   -1.0240   22.6370  -30.0290 C   0  0  0  0  0  0  0  0  0  0  0  0
   -2.1230   22.9280  -29.2110 C   0  0  0  0  0  0  0  0  0  0  0  0
   -2.6900   24.5890  -29.0500 S   0  0  0  0  0  0  0  0  0  0  0  0
   -3.5550   24.7220  -27.8280 O   0  0  0  0  0  0  0  0  0  0  0  0
   -1.5090   25.5100  -28.9150 O   0  0  0  0  0  0  0  0  0  0  0  0
   -3.5960   25.0190  -30.4600 N   0  0  0  0  0  0  0  0  0  0  0  0
   -4.6930   24.2080  -30.8800 C   0  0  0  0  0  0  0  0  0  0  0  0
   -5.9770   24.2350  -30.3610 C   0  0  0  0  0  0  0  0  0  0  0  0
   -6.5250   25.2820  -29.4390 C   0  0  0  0  0  0  0  0  0  0  0  0
   -6.6000   23.0750  -30.6910 N   0  0  0  0  0  0  0  0  0  0  0  0
   -7.9490   22.6780  -30.2780 C   0  0  0  0  0  0  0  0  0  0  0  0
   -5.7620   22.3260  -31.4050 N   0  0  0  0  0  0  0  0  0  0  0  0
   -6.0200   20.9920  -31.8790 C   0  0  0  0  0  0  0  0  0  0  0  0
   -7.1980   20.7060  -32.5870 C   0  0  0  0  0  0  0  0  0  0  0  0
   -7.4480   19.4070  -33.0400 C   0  0  0  0  0  0  0  0  0  0  0  0
   -6.5240   18.3880  -32.7930 C   0  0  0  0  0  0  0  0  0  0  0  0
   -5.3460   18.6670  -32.0950 C   0  0  0  0  0  0  0  0  0  0  0  0
   -5.0910   19.9660  -31.6430 C   0  0  0  0  0  0  0  0  0  0  0  0
   -4.5910   22.9870  -31.5040 C   0  0  0  0  0  0  0  0  0  0  0  0
   -3.5510   22.5260  -32.0490 O   0  0  0  0  0  0  0  0  0  0  0  0
   -2.6930   21.9110  -28.4340 C   0  0  0  0  0  0  0  0  0  0  0  0
   -2.1750   20.6130  -28.4840 C   0  0  0  0  0  0  0  0  0  0  0  0
    0.7828   16.7178  -27.2015 H   0  0  0  0  0  0  0  0  0  0  0  0
   -0.0802   16.4628  -28.7562 H   0  0  0  0  0  0  0  0  0  0  0  0
    1.6705   16.8650  -28.7562 H   0  0  0  0  0  0  0  0  0  0  0  0
   -0.7550   18.3550  -30.1060 H   0  0  0  0  0  0  0  0  0  0  0  0
    0.3705   21.1262  -30.7105 H   0  0  0  0  0  0  0  0  0  0  0  0
   -0.5701   23.4322  -30.6386 H   0  0  0  0  0  0  0  0  0  0  0  0
   -6.3632   24.9729  -28.3958 H   0  0  0  0  0  0  0  0  0  0  0  0
   -6.0112   26.2372  -29.6223 H   0  0  0  0  0  0  0  0  0  0  0  0
   -7.6027   25.4042  -29.6223 H   0  0  0  0  0  0  0  0  0  0  0  0
   -8.0061   22.6612  -29.1796 H   0  0  0  0  0  0  0  0  0  0  0  0
   -8.6802   23.3990  -30.6722 H   0  0  0  0  0  0  0  0  0  0  0  0
   -8.1731   21.6758  -30.6722 H   0  0  0  0  0  0  0  0  0  0  0  0
   -7.9263   21.5060  -32.7859 H   0  0  0  0  0  0  0  0  0  0  0  0
   -8.3737   19.1867  -33.5918 H   0  0  0  0  0  0  0  0  0  0  0  0
   -6.7240   17.3663  -33.1481 H   0  0  0  0  0  0  0  0  0  0  0  0
   -4.6189   17.8647  -31.9009 H   0  0  0  0  0  0  0  0  0  0  0  0
   -4.1593   20.1845  -31.1007 H   0  0  0  0  0  0  0  0  0  0  0  0
   -3.5508   22.1342  -27.7825 H   0  0  0  0  0  0  0  0  0  0  0  0
   -2.6269   19.8210  -27.8688 H   0  0  0  0  0  0  0  0  0  0  0  0
  1  2  1  0
  2  3  2  0
  2  4  1  0
  4  5  1  0
  5  6  2  0
  6  7  1  0
  7  8  2  0
  8  9  1  0
  9 10  2  0
  9 11  2  0
  9 12  1  0
 12 13  1  0
 13 14  2  0
 14 15  1  0
 14 16  1  0
 16 17  1  0
 16 18  1  0
 18 19  1  0
 19 20  2  0
 20 21  1  0
 21 22  2  0
 22 23  1  0
 23 24  2  0
 18 25  1  0
 25 26  2  0
  8 27  1  0
 27 28  2  0
 28  5  1  0
 25 13  1  0
 24 19  1  0
  1 29  1  0
  1 30  1  0
  1 31  1  0
  4 32  1  0
  6 33  1  0
  7 34  1  0
 15 35  1  0
 15 36  1  0
 15 37  1  0
 17 38  1  0
 17 39  1  0
 17 40  1  0
 20 41  1  0
 21 42  1  0
 22 43  1  0
 23 44  1  0
 24 45  1  0
 27 46  1  0
 28 47  1  0
M  CHG  1  12  -1
M  END
>  <UniqueID>  (43) 
40

>  <SMILES>  (43) 
CC(=O)Nc1ccc(S(=O)(=O)[N-]c2c(C)n(C)n(-c3ccccc3)c2=O)cc1

>  <Energy>  (43) 
98.50123164180394

>  <Genealogy>  (43) 
CC(=O)Nc1ccc(S(=O)(=O)[N-]c2c(C)n(C)n(-c3ccccc3)c2=O)cc1 (protonated)
CC(=O)Nc1ccc(S(=O)(=O)[N-]c2c(C)n(C)n(-c3ccccc3)c2=O)cc1 (3D coordinates assigned)
CC(=O)Nc1ccc(S(=O)(=O)[N-]c2c(C)n(C)n(-c3ccccc3)c2=O)cc1 (optimized conformer: 98.50123164180394 kcal/mol)

>  <smiles>  (43) 
CC(=O)Nc1ccc(S(=O)(=O)Nc2c(C)n(C)n(-c3ccccc3)c2=O)cc1

>  <score_type>  (43) 
oracle

>  <origin>  (43) 
adgpu

>  <m_score__min__energy>  (43) 
-10.289999999999999

>  <m_primary>  (43) 
energy

$$$$
43:0
     RDKit          3D

 47 49  0  0  0  0  0  0  0  0999 V2000
   -3.8240   16.4330  -35.4780 F   0  0  0  0  0  0  0  0  0  0  0  0
   -4.6550   16.9900  -34.5630 C   0  0  0  0  0  0  0  0  0  0  0  0
   -5.3020   18.1960  -34.8510 C   0  0  0  0  0  0  0  0  0  0  0  0
   -6.1580   18.7740  -33.9080 C   0  0  0  0  0  0  0  0  0  0  0  0
   -6.3810   18.1410  -32.6740 C   0  0  0  0  0  0  0  0  0  0  0  0
   -7.2680   18.7760  -31.6410 C   0  0  0  0  0  0  0  0  0  0  0  0
   -8.6440   18.2970  -31.8200 N   0  0  0  0  0  0  0  0  0  0  0  0
   -9.4980   19.3090  -32.4600 C   0  0  0  0  0  0  0  0  0  0  0  0
   -8.7060   20.6020  -32.6840 C   0  0  0  0  0  0  0  0  0  0  0  0
   -9.1880   21.6830  -31.7890 N   0  0  0  0  0  0  0  0  0  0  0  0
   -8.9670   23.0390  -32.3380 C   0  0  0  0  0  0  0  0  0  0  0  0
   -7.4710   23.4020  -32.4130 C   0  0  0  0  0  0  0  0  0  0  0  0
   -6.7120   22.6770  -31.3890 N   0  0  0  0  0  0  0  0  0  0  0  0
   -5.3140   22.3920  -31.5840 C   0  0  0  0  0  0  0  0  0  0  0  0
   -4.3560   22.8720  -30.6730 C   0  0  0  0  0  0  0  0  0  0  0  0
   -3.0010   22.5830  -30.8540 C   0  0  0  0  0  0  0  0  0  0  0  0
   -2.5880   21.8090  -31.9410 C   0  0  0  0  0  0  0  0  0  0  0  0
   -1.2730   21.5280  -32.1150 F   0  0  0  0  0  0  0  0  0  0  0  0
   -3.5320   21.3180  -32.8480 C   0  0  0  0  0  0  0  0  0  0  0  0
   -4.8900   21.6050  -32.6690 C   0  0  0  0  0  0  0  0  0  0  0  0
   -7.3840   22.3420  -30.1320 C   0  0  0  0  0  0  0  0  0  0  0  0
   -8.6890   21.5620  -30.3960 C   0  0  0  0  0  0  0  0  0  0  0  0
   -5.7150   16.9390  -32.3860 C   0  0  0  0  0  0  0  0  0  0  0  0
   -4.8590   16.3640  -33.3310 C   0  0  0  0  0  0  0  0  0  0  0  0
   -5.1375   18.6903  -35.8198 H   0  0  0  0  0  0  0  0  0  0  0  0
   -6.6582   19.7274  -34.1334 H   0  0  0  0  0  0  0  0  0  0  0  0
   -6.9129   18.5053  -30.6357 H   0  0  0  0  0  0  0  0  0  0  0  0
   -7.2415   19.8697  -31.7557 H   0  0  0  0  0  0  0  0  0  0  0  0
   -9.0330   18.0890  -30.8690 H   0  0  0  0  0  0  0  0  0  0  0  0
   -9.8515   18.9265  -33.4289 H   0  0  0  0  0  0  0  0  0  0  0  0
  -10.3562   19.5216  -31.8055 H   0  0  0  0  0  0  0  0  0  0  0  0
   -7.6422   20.4124  -32.4783 H   0  0  0  0  0  0  0  0  0  0  0  0
   -8.8459   20.9223  -33.7270 H   0  0  0  0  0  0  0  0  0  0  0  0
   -9.3934   23.0845  -33.3510 H   0  0  0  0  0  0  0  0  0  0  0  0
   -9.4550   23.7588  -31.6644 H   0  0  0  0  0  0  0  0  0  0  0  0
   -7.0835   23.1346  -33.4072 H   0  0  0  0  0  0  0  0  0  0  0  0
   -7.3591   24.4823  -32.2389 H   0  0  0  0  0  0  0  0  0  0  0  0
   -4.6754   23.4786  -29.8128 H   0  0  0  0  0  0  0  0  0  0  0  0
   -2.2579   22.9658  -30.1390 H   0  0  0  0  0  0  0  0  0  0  0  0
   -3.2072   20.7060  -33.7024 H   0  0  0  0  0  0  0  0  0  0  0  0
   -5.6302   21.2124  -33.3817 H   0  0  0  0  0  0  0  0  0  0  0  0
   -6.7126   21.7234  -29.5184 H   0  0  0  0  0  0  0  0  0  0  0  0
   -7.6329   23.2759  -29.6069 H   0  0  0  0  0  0  0  0  0  0  0  0
   -8.5061   20.4982  -30.1843 H   0  0  0  0  0  0  0  0  0  0  0  0
   -9.4593   21.9952  -29.7410 H   0  0  0  0  0  0  0  0  0  0  0  0
   -5.8670   16.4477  -31.4136 H   0  0  0  0  0  0  0  0  0  0  0  0
   -4.3459   15.4179  -33.1038 H   0  0  0  0  0  0  0  0  0  0  0  0
  1  2  1  0
  2  3  2  0
  3  4  1  0
  4  5  2  0
  5  6  1  0
  6  7  1  0
  7  8  1  0
  8  9  1  0
  9 10  1  0
 10 11  1  0
 11 12  1  0
 12 13  1  0
 13 14  1  0
 14 15  2  0
 15 16  1  0
 16 17  2  0
 17 18  1  0
 17 19  1  0
 19 20  2  0
 13 21  1  0
 21 22  1  0
  5 23  1  0
 23 24  2  0
 24  2  1  0
 22 10  1  0
 20 14  1  0
  3 25  1  0
  4 26  1  0
  6 27  1  0
  6 28  1  0
  7 29  1  0
  8 30  1  0
  8 31  1  0
  9 32  1  0
  9 33  1  0
 11 34  1  0
 11 35  1  0
 12 36  1  0
 12 37  1  0
 15 38  1  0
 16 39  1  0
 19 40  1  0
 20 41  1  0
 21 42  1  0
 21 43  1  0
 22 44  1  0
 22 45  1  0
 23 46  1  0
 24 47  1  0
M  END
>  <UniqueID>  (44) 
41

>  <SMILES>  (44) 
Fc1ccc(CNCCN2CCN(c3ccc(F)cc3)CC2)cc1

>  <Energy>  (44) 
59.934559923392335

>  <Genealogy>  (44) 
Fc1ccc(CNCCN2CCN(c3ccc(F)cc3)CC2)cc1 (3D coordinates assigned)
Fc1ccc(CNCCN2CCN(c3ccc(F)cc3)CC2)cc1 (nonaromatic ring conformer: 59.934559923392335 kcal/mol)

>  <smiles>  (44) 
Fc1ccc(CNCCN2CCN(c3ccc(F)cc3)CC2)cc1

>  <score_type>  (44) 
oracle

>  <origin>  (44) 
adgpu

>  <m_score__min__energy>  (44) 
-7.4100000000000001

>  <m_primary>  (44) 
energy

$$$$
44:0
     RDKit          3D

 58 61  0  0  0  0  0  0  0  0999 V2000
   -6.5430   23.4800  -31.6860 C   0  0  0  0  0  0  0  0  0  0  0  0
   -5.2790   22.6780  -31.8670 C   0  0  0  0  0  0  0  0  0  0  0  0
   -5.2960   21.5470  -32.7010 C   0  0  0  0  0  0  0  0  0  0  0  0
   -4.1460   20.7760  -32.8820 C   0  0  0  0  0  0  0  0  0  0  0  0
   -2.9590   21.1100  -32.2270 C   0  0  0  0  0  0  0  0  0  0  0  0
   -1.8110   20.2690  -32.4110 N   0  0  0  0  0  0  0  0  0  0  0  0
   -0.2810   20.4790  -31.6270 S   0  0  0  0  0  0  0  0  0  0  0  0
   -0.0680   21.9440  -31.3600 O   0  0  0  0  0  0  0  0  0  0  0  0
    0.8180   19.9820  -32.5230 O   0  0  0  0  0  0  0  0  0  0  0  0
   -0.2900   19.6120  -30.0980 C   0  0  0  0  0  0  0  0  0  0  0  0
    0.5560   18.5150  -29.8850 C   0  0  0  0  0  0  0  0  0  0  0  0
    0.5050   17.8240  -28.6740 C   0  0  0  0  0  0  0  0  0  0  0  0
   -0.3950   18.2150  -27.6760 C   0  0  0  0  0  0  0  0  0  0  0  0
   -1.2410   19.3060  -27.8820 C   0  0  0  0  0  0  0  0  0  0  0  0
   -2.3980   19.8020  -26.6490 S   0  0  0  0  0  0  0  0  0  0  0  0
   -3.0070   18.5680  -26.0390 O   0  0  0  0  0  0  0  0  0  0  0  0
   -3.4920   20.6470  -27.2410 O   0  0  0  0  0  0  0  0  0  0  0  0
   -1.5830   20.7020  -25.4100 N   0  0  0  0  0  0  0  0  0  0  0  0
   -0.7250   21.8230  -25.6680 C   0  0  0  0  0  0  0  0  0  0  0  0
   -0.2580   22.1200  -26.9660 C   0  0  0  0  0  0  0  0  0  0  0  0
    0.5640   23.2330  -27.1850 C   0  0  0  0  0  0  0  0  0  0  0  0
    0.9150   24.0620  -26.1170 C   0  0  0  0  0  0  0  0  0  0  0  0
    0.4640   23.7710  -24.8250 C   0  0  0  0  0  0  0  0  0  0  0  0
   -0.3490   22.6570  -24.6040 C   0  0  0  0  0  0  0  0  0  0  0  0
   -1.1780   20.0080  -29.0910 C   0  0  0  0  0  0  0  0  0  0  0  0
   -2.9310   22.2400  -31.3840 C   0  0  0  0  0  0  0  0  0  0  0  0
   -4.0820   23.0220  -31.1920 C   0  0  0  0  0  0  0  0  0  0  0  0
   -3.9980   24.4170  -30.1050 S   0  0  0  0  0  0  0  0  0  0  0  0
   -4.4820   25.6330  -30.8440 O   0  0  0  0  0  0  0  0  0  0  0  0
   -4.8830   24.1950  -28.9070 O   0  0  0  0  0  0  0  0  0  0  0  0
   -2.3550   24.6170  -29.5620 N   0  0  0  0  0  0  0  0  0  0  0  0
   -1.9940   25.2420  -28.3240 C   0  0  0  0  0  0  0  0  0  0  0  0
   -2.6630   24.8650  -27.1490 C   0  0  0  0  0  0  0  0  0  0  0  0
   -2.3590   25.4900  -25.9280 C   0  0  0  0  0  0  0  0  0  0  0  0
   -1.3570   26.4660  -25.8740 C   0  0  0  0  0  0  0  0  0  0  0  0
   -0.6600   26.8190  -27.0340 C   0  0  0  0  0  0  0  0  0  0  0  0
   -0.9700   26.2090  -28.2550 C   0  0  0  0  0  0  0  0  0  0  0  0
   -6.7452   23.6083  -30.6124 H   0  0  0  0  0  0  0  0  0  0  0  0
   -6.4217   24.4667  -32.1568 H   0  0  0  0  0  0  0  0  0  0  0  0
   -7.3841   22.9500  -32.1568 H   0  0  0  0  0  0  0  0  0  0  0  0
   -6.2259   21.2659  -33.2171 H   0  0  0  0  0  0  0  0  0  0  0  0
   -4.1754   19.8991  -33.5454 H   0  0  0  0  0  0  0  0  0  0  0  0
    1.2584   18.1996  -30.6706 H   0  0  0  0  0  0  0  0  0  0  0  0
    1.1749   16.9684  -28.5029 H   0  0  0  0  0  0  0  0  0  0  0  0
   -0.4358   17.6610  -26.7266 H   0  0  0  0  0  0  0  0  0  0  0  0
   -1.6630   20.3440  -24.4300 H   0  0  0  0  0  0  0  0  0  0  0  0
   -0.5409   21.4742  -27.8103 H   0  0  0  0  0  0  0  0  0  0  0  0
    0.9328   23.4540  -28.1975 H   0  0  0  0  0  0  0  0  0  0  0  0
    1.5471   24.9451  -26.2921 H   0  0  0  0  0  0  0  0  0  0  0  0
    0.7496   24.4193  -23.9835 H   0  0  0  0  0  0  0  0  0  0  0  0
   -0.6981   22.4312  -23.5856 H   0  0  0  0  0  0  0  0  0  0  0  0
   -1.8316   20.8781  -29.2513 H   0  0  0  0  0  0  0  0  0  0  0  0
   -1.9970   22.5123  -30.8708 H   0  0  0  0  0  0  0  0  0  0  0  0
   -3.4290   24.0764  -27.1844 H   0  0  0  0  0  0  0  0  0  0  0  0
   -2.9076   25.2128  -25.0158 H   0  0  0  0  0  0  0  0  0  0  0  0
   -1.1176   26.9557  -24.9185 H   0  0  0  0  0  0  0  0  0  0  0  0
    0.1343   27.5785  -26.9866 H   0  0  0  0  0  0  0  0  0  0  0  0
   -0.4135   26.4846  -29.1629 H   0  0  0  0  0  0  0  0  0  0  0  0
  1  2  1  0
  2  3  2  0
  3  4  1  0
  4  5  2  0
  5  6  1  0
  6  7  1  0
  7  8  2  0
  7  9  2  0
  7 10  1  0
 10 11  2  0
 11 12  1  0
 12 13  2  0
 13 14  1  0
 14 15  1  0
 15 16  2  0
 15 17  2  0
 15 18  1  0
 18 19  1  0
 19 20  2  0
 20 21  1  0
 21 22  2  0
 22 23  1  0
 23 24  2  0
 14 25  2  0
  5 26  1  0
 26 27  2  0
 27 28  1  0
 28 29  2  0
 28 30  2  0
 28 31  1  0
 31 32  1  0
 32 33  2  0
 33 34  1  0
 34 35  2  0
 35 36  1  0
 36 37  2  0
 27  2  1  0
 37 32  1  0
 25 10  1  0
 24 19  1  0
  1 38  1  0
  1 39  1  0
  1 40  1  0
  3 41  1  0
  4 42  1  0
 11 43  1  0
 12 44  1  0
 13 45  1  0
 18 46  1  0
 20 47  1  0
 21 48  1  0
 22 49  1  0
 23 50  1  0
 24 51  1  0
 25 52  1  0
 26 53  1  0
 33 54  1  0
 34 55  1  0
 35 56  1  0
 36 57  1  0
 37 58  1  0
M  CHG  2   6  -1  31  -1
M  END
>  <UniqueID>  (45) 
42

>  <SMILES>  (45) 
Cc1ccc([N-]S(=O)(=O)c2cccc(S(=O)(=O)Nc3ccccc3)c2)cc1S(=O)(=O)[N-]c1ccccc1

>  <Energy>  (45) 
72.13636343139031

>  <Genealogy>  (45) 
Cc1ccc([N-]S(=O)(=O)c2cccc(S(=O)(=O)Nc3ccccc3)c2)cc1S(=O)(=O)[N-]c1ccccc1 (protonated)
Cc1ccc([N-]S(=O)(=O)c2cccc(S(=O)(=O)Nc3ccccc3)c2)cc1S(=O)(=O)[N-]c1ccccc1 (3D coordinates assigned)
Cc1ccc([N-]S(=O)(=O)c2cccc(S(=O)(=O)Nc3ccccc3)c2)cc1S(=O)(=O)[N-]c1ccccc1 (optimized conformer: 72.13636343139031 kcal/mol)

>  <smiles>  (45) 
Cc1ccc(NS(=O)(=O)c2cccc(S(=O)(=O)Nc3ccccc3)c2)cc1S(=O)(=O)Nc1ccccc1

>  <score_type>  (45) 
oracle

>  <origin>  (45) 
adgpu

>  <m_score__min__energy>  (45) 
-13.01

>  <m_primary>  (45) 
energy

$$$$
45:0
     RDKit          3D

 39 41  0  0  0  0  0  0  0  0999 V2000
   -6.6100   25.0280  -29.7460 C   0  0  0  0  0  0  0  0  0  0  0  0
   -6.5660   23.8540  -30.6850 C   0  0  0  0  0  0  0  0  0  0  0  0
   -7.7110   23.0600  -30.8720 C   0  0  0  0  0  0  0  0  0  0  0  0
   -7.6820   21.9700  -31.7470 C   0  0  0  0  0  0  0  0  0  0  0  0
   -9.1150   20.9850  -31.9690 Cl  0  0  0  0  0  0  0  0  0  0  0  0
   -6.5100   21.6620  -32.4400 C   0  0  0  0  0  0  0  0  0  0  0  0
   -5.3670   22.4460  -32.2650 C   0  0  0  0  0  0  0  0  0  0  0  0
   -5.3900   23.5590  -31.4040 C   0  0  0  0  0  0  0  0  0  0  0  0
   -4.2140   24.3600  -31.2060 N   0  0  0  0  0  0  0  0  0  0  0  0
   -3.2150   24.1480  -30.2040 C   0  0  0  0  0  0  0  0  0  0  0  0
   -3.0840   25.0030  -29.2890 O   0  0  0  0  0  0  0  0  0  0  0  0
   -2.2890   22.9980  -30.2710 C   0  0  0  0  0  0  0  0  0  0  0  0
   -2.3020   21.8350  -31.4880 S   0  0  0  0  0  0  0  0  0  0  0  0
   -0.9940   20.9450  -30.9270 C   0  0  0  0  0  0  0  0  0  0  0  0
   -0.5210   21.5500  -29.7710 C   0  0  0  0  0  0  0  0  0  0  0  0
   -1.2370   22.6980  -29.4010 C   0  0  0  0  0  0  0  0  0  0  0  0
   -0.8700   23.6030  -27.9350 S   0  0  0  0  0  0  0  0  0  0  0  0
    0.4120   23.0810  -27.3500 O   0  0  0  0  0  0  0  0  0  0  0  0
   -1.9950   23.4280  -26.9520 O   0  0  0  0  0  0  0  0  0  0  0  0
   -0.7160   25.2810  -28.3470 N   0  0  0  0  0  0  0  0  0  0  0  0
   -0.6140   26.2940  -27.5380 C   0  0  0  0  0  0  0  0  0  0  0  0
   -0.4950   27.5260  -27.9770 O   0  0  0  0  0  0  0  0  0  0  0  0
   -0.4100   28.3590  -26.9830 N   0  0  0  0  0  0  0  0  0  0  0  0
   -0.4700   27.6540  -25.8390 C   0  0  0  0  0  0  0  0  0  0  0  0
   -0.4580   28.2610  -24.4740 C   0  0  0  0  0  0  0  0  0  0  0  0
   -0.6090   26.3120  -26.1420 C   0  0  0  0  0  0  0  0  0  0  0  0
   -0.7750   25.0170  -24.9640 Cl  0  0  0  0  0  0  0  0  0  0  0  0
   -6.5965   24.6672  -28.7070 H   0  0  0  0  0  0  0  0  0  0  0  0
   -5.7353   25.6714  -29.9221 H   0  0  0  0  0  0  0  0  0  0  0  0
   -7.5304   25.6041  -29.9221 H   0  0  0  0  0  0  0  0  0  0  0  0
   -8.6359   23.2980  -30.3262 H   0  0  0  0  0  0  0  0  0  0  0  0
   -6.4864   20.8012  -33.1245 H   0  0  0  0  0  0  0  0  0  0  0  0
   -4.4425   22.1916  -32.8040 H   0  0  0  0  0  0  0  0  0  0  0  0
   -0.5826   20.0385  -31.3950 H   0  0  0  0  0  0  0  0  0  0  0  0
    0.3356   21.1651  -29.1983 H   0  0  0  0  0  0  0  0  0  0  0  0
   -0.3200   29.3950  -27.0790 H   0  0  0  0  0  0  0  0  0  0  0  0
   -0.4738   27.4626  -23.7175 H   0  0  0  0  0  0  0  0  0  0  0  0
    0.4523   28.8659  -24.3497 H   0  0  0  0  0  0  0  0  0  0  0  0
   -1.3437   28.9014  -24.3497 H   0  0  0  0  0  0  0  0  0  0  0  0
  1  2  1  0
  2  3  2  0
  3  4  1  0
  4  5  1  0
  4  6  2  0
  6  7  1  0
  7  8  2  0
  8  9  1  0
  9 10  1  0
 10 11  2  0
 10 12  1  0
 12 13  1  0
 13 14  1  0
 14 15  2  0
 15 16  1  0
 16 17  1  0
 17 18  2  0
 17 19  2  0
 17 20  1  0
 20 21  2  3
 21 22  1  0
 22 23  1  0
 23 24  1  0
 24 25  1  0
 24 26  2  0
 26 27  1  0
  8  2  1  0
 16 12  2  0
 26 21  1  0
  1 28  1  0
  1 29  1  0
  1 30  1  0
  3 31  1  0
  6 32  1  0
  7 33  1  0
 14 34  1  0
 15 35  1  0
 23 36  1  0
 25 37  1  0
 25 38  1  0
 25 39  1  0
M  CHG  1   9  -1
M  END
>  <UniqueID>  (46) 
43

>  <SMILES>  (46) 
Cc1cc(Cl)ccc1[N-]C(=O)c1sccc1S(=O)(=O)N=c1o[nH]c(C)c1Cl

>  <Energy>  (46) 
113.3669784799868

>  <Genealogy>  (46) 
Cc1cc(Cl)ccc1[N-]C(=O)c1sccc1S(=O)(=O)N=c1o[nH]c(C)c1Cl (protonated)
Cc1cc(Cl)ccc1[N-]C(=O)c1sccc1S(=O)(=O)N=c1o[nH]c(C)c1Cl (3D coordinates assigned)
Cc1cc(Cl)ccc1[N-]C(=O)c1sccc1S(=O)(=O)N=c1o[nH]c(C)c1Cl (optimized conformer: 113.3669784799868 kcal/mol)

>  <smiles>  (46) 
Cc1cc(Cl)ccc1NC(=O)c1sccc1S(=O)(=O)N=c1o[nH]c(C)c1Cl

>  <score_type>  (46) 
oracle

>  <origin>  (46) 
adgpu

>  <m_score__min__energy>  (46) 
-11.109999999999999

>  <m_primary>  (46) 
energy

$$$$
46:0
     RDKit          3D

 41 43  0  0  0  0  0  0  0  0999 V2000
   -4.1090   23.9860  -27.5390 C   0  0  0  0  0  0  0  0  0  0  0  0
   -3.7990   22.7320  -28.2880 C   0  0  0  0  0  0  0  0  0  0  0  0
   -3.2440   21.6400  -27.7280 N   0  0  0  0  0  0  0  0  0  0  0  0
   -3.0740   20.7670  -28.6800 O   0  0  0  0  0  0  0  0  0  0  0  0
   -3.4840   21.2360  -29.8370 C   0  0  0  0  0  0  0  0  0  0  0  0
   -3.4200   20.4730  -31.1190 C   0  0  0  0  0  0  0  0  0  0  0  0
   -3.9610   22.5180  -29.6410 C   0  0  0  0  0  0  0  0  0  0  0  0
   -4.6110   23.6490  -30.8280 S   0  0  0  0  0  0  0  0  0  0  0  0
   -4.4170   23.0560  -32.1950 O   0  0  0  0  0  0  0  0  0  0  0  0
   -3.8670   24.9540  -30.7640 O   0  0  0  0  0  0  0  0  0  0  0  0
   -6.3220   23.9200  -30.5560 N   0  0  0  0  0  0  0  0  0  0  0  0
   -7.0560   24.1720  -31.8130 C   0  0  0  0  0  0  0  0  0  0  0  0
   -7.1510   22.9150  -32.6920 C   0  0  0  0  0  0  0  0  0  0  0  0
   -7.3440   21.7160  -31.8690 N   0  0  0  0  0  0  0  0  0  0  0  0
   -7.0400   20.4120  -32.4040 C   0  0  0  0  0  0  0  0  0  0  0  0
   -7.7440   19.2780  -31.9610 C   0  0  0  0  0  0  0  0  0  0  0  0
   -7.4620   18.0170  -32.4940 C   0  0  0  0  0  0  0  0  0  0  0  0
   -6.4820   17.8760  -33.4800 C   0  0  0  0  0  0  0  0  0  0  0  0
   -6.2120   16.6520  -33.9990 F   0  0  0  0  0  0  0  0  0  0  0  0
   -5.7850   18.9970  -33.9350 C   0  0  0  0  0  0  0  0  0  0  0  0
   -6.0620   20.2610  -33.4040 C   0  0  0  0  0  0  0  0  0  0  0  0
   -7.8340   21.8840  -30.4990 C   0  0  0  0  0  0  0  0  0  0  0  0
   -6.9170   22.8450  -29.7200 C   0  0  0  0  0  0  0  0  0  0  0  0
   -4.0603   23.7889  -26.4579 H   0  0  0  0  0  0  0  0  0  0  0  0
   -3.3756   24.7620  -27.8037 H   0  0  0  0  0  0  0  0  0  0  0  0
   -5.1194   24.3309  -27.8037 H   0  0  0  0  0  0  0  0  0  0  0  0
   -3.3299   19.3984  -30.9020 H   0  0  0  0  0  0  0  0  0  0  0  0
   -4.3365   20.6542  -31.6997 H   0  0  0  0  0  0  0  0  0  0  0  0
   -2.5465   20.8043  -31.6997 H   0  0  0  0  0  0  0  0  0  0  0  0
   -8.0735   24.5102  -31.5673 H   0  0  0  0  0  0  0  0  0  0  0  0
   -6.5049   24.9382  -32.3780 H   0  0  0  0  0  0  0  0  0  0  0  0
   -8.0022   23.0203  -33.3807 H   0  0  0  0  0  0  0  0  0  0  0  0
   -6.2126   22.8078  -33.2558 H   0  0  0  0  0  0  0  0  0  0  0  0
   -8.5215   19.3841  -31.1901 H   0  0  0  0  0  0  0  0  0  0  0  0
   -8.0124   17.1342  -32.1367 H   0  0  0  0  0  0  0  0  0  0  0  0
   -5.0157   18.8858  -34.7134 H   0  0  0  0  0  0  0  0  0  0  0  0
   -5.5127   21.1410  -33.7699 H   0  0  0  0  0  0  0  0  0  0  0  0
   -8.8534   22.2963  -30.5258 H   0  0  0  0  0  0  0  0  0  0  0  0
   -7.8376   20.9054  -29.9967 H   0  0  0  0  0  0  0  0  0  0  0  0
   -7.5078   23.3153  -28.9201 H   0  0  0  0  0  0  0  0  0  0  0  0
   -6.0819   22.2441  -29.3308 H   0  0  0  0  0  0  0  0  0  0  0  0
  1  2  1  0
  2  3  2  0
  3  4  1  0
  4  5  1  0
  5  6  1  0
  5  7  2  0
  7  8  1  0
  8  9  2  0
  8 10  2  0
  8 11  1  0
 11 12  1  0
 12 13  1  0
 13 14  1  0
 14 15  1  0
 15 16  2  0
 16 17  1  0
 17 18  2  0
 18 19  1  0
 18 20  1  0
 20 21  2  0
 14 22  1  0
 22 23  1  0
  7  2  1  0
 23 11  1  0
 21 15  1  0
  1 24  1  0
  1 25  1  0
  1 26  1  0
  6 27  1  0
  6 28  1  0
  6 29  1  0
 12 30  1  0
 12 31  1  0
 13 32  1  0
 13 33  1  0
 16 34  1  0
 17 35  1  0
 20 36  1  0
 21 37  1  0
 22 38  1  0
 22 39  1  0
 23 40  1  0
 23 41  1  0
M  END
>  <UniqueID>  (47) 
44

>  <SMILES>  (47) 
Cc1noc(C)c1S(=O)(=O)N1CCN(c2ccc(F)cc2)CC1

>  <Energy>  (47) 
80.95386923586923

>  <Genealogy>  (47) 
Cc1noc(C)c1S(=O)(=O)N1CCN(c2ccc(F)cc2)CC1 (3D coordinates assigned)
Cc1noc(C)c1S(=O)(=O)N1CCN(c2ccc(F)cc2)CC1 (nonaromatic ring conformer: 80.95386923586923 kcal/mol)

>  <smiles>  (47) 
Cc1noc(C)c1S(=O)(=O)N1CCN(c2ccc(F)cc2)CC1

>  <score_type>  (47) 
oracle

>  <origin>  (47) 
adgpu

>  <m_score__min__energy>  (47) 
-7.8200000000000003

>  <m_primary>  (47) 
energy

$$$$
