0:0
     RDKit          3D

 60 64  0  0  0  0  0  0  0  0999 V2000
    0.2960   17.7580  -27.6460 C   0  0  0  0  0  0  0  0  0  0  0  0
   -0.7440   18.8370  -27.5830 C   0  0  0  0  0  0  0  0  0  0  0  0
   -1.8560   18.6970  -26.7380 C   0  0  0  0  0  0  0  0  0  0  0  0
   -2.8460   19.6820  -26.7090 C   0  0  0  0  0  0  0  0  0  0  0  0
   -2.7420   20.8060  -27.5320 C   0  0  0  0  0  0  0  0  0  0  0  0
   -1.6490   20.9470  -28.3980 C   0  0  0  0  0  0  0  0  0  0  0  0
   -1.5550   22.3500  -29.4580 S   0  0  0  0  0  0  0  0  0  0  0  0
   -0.1890   22.4520  -30.0750 O   0  0  0  0  0  0  0  0  0  0  0  0
   -1.7990   23.5590  -28.5980 O   0  0  0  0  0  0  0  0  0  0  0  0
   -2.7600   22.2620  -30.7530 C   0  0  0  0  0  0  0  0  0  0  0  0
   -2.7100   21.4860  -31.9210 C   0  0  0  0  0  0  0  0  0  0  0  0
   -1.7210   20.4480  -32.2690 C   0  0  0  0  0  0  0  0  0  0  0  0
   -0.7020   20.2710  -31.5510 O   0  0  0  0  0  0  0  0  0  0  0  0
   -1.9350   19.6440  -33.4370 N   0  0  0  0  0  0  0  0  0  0  0  0
   -2.9690   18.6690  -33.6320 C   0  0  0  0  0  0  0  0  0  0  0  0
   -2.7510   17.6400  -34.5560 C   0  0  0  0  0  0  0  0  0  0  0  0
   -3.7390   16.6820  -34.7940 C   0  0  0  0  0  0  0  0  0  0  0  0
   -4.9610   16.7540  -34.1230 C   0  0  0  0  0  0  0  0  0  0  0  0
   -5.2080   17.7950  -33.2180 C   0  0  0  0  0  0  0  0  0  0  0  0
   -6.7590   17.8930  -32.3790 S   0  0  0  0  0  0  0  0  0  0  0  0
   -6.5350   17.6600  -30.9100 O   0  0  0  0  0  0  0  0  0  0  0  0
   -7.6610   16.8040  -32.8880 O   0  0  0  0  0  0  0  0  0  0  0  0
   -7.5570   19.4330  -32.5960 N   0  0  0  0  0  0  0  0  0  0  0  0
   -9.0100   19.3190  -32.4890 C   0  0  0  0  0  0  0  0  0  0  0  0
   -9.5170   20.6910  -32.0700 C   0  0  0  0  0  0  0  0  0  0  0  0
   -8.3080   21.4050  -31.4820 C   0  0  0  0  0  0  0  0  0  0  0  0
   -7.1660   20.4050  -31.5780 C   0  0  0  0  0  0  0  0  0  0  0  0
   -4.2110   18.7520  -32.9750 C   0  0  0  0  0  0  0  0  0  0  0  0
   -3.7740   21.7600  -32.7110 N   0  0  0  0  0  0  0  0  0  0  0  0
   -4.5100   22.6700  -32.0530 C   0  0  0  0  0  0  0  0  0  0  0  0
   -5.7170   23.2270  -32.4670 C   0  0  0  0  0  0  0  0  0  0  0  0
   -6.3460   24.1470  -31.6120 C   0  0  0  0  0  0  0  0  0  0  0  0
   -5.7680   24.4760  -30.3670 C   0  0  0  0  0  0  0  0  0  0  0  0
   -6.5720   25.6160  -29.3030 Cl  0  0  0  0  0  0  0  0  0  0  0  0
   -4.5520   23.8900  -29.9720 C   0  0  0  0  0  0  0  0  0  0  0  0
   -3.9340   22.9950  -30.8500 C   0  0  0  0  0  0  0  0  0  0  0  0
   -0.6530   19.9590  -28.4230 C   0  0  0  0  0  0  0  0  0  0  0  0
    0.5805   17.4629  -26.6252 H   0  0  0  0  0  0  0  0  0  0  0  0
   -0.1115   16.8866  -28.1795 H   0  0  0  0  0  0  0  0  0  0  0  0
    1.1818   18.1332  -28.1795 H   0  0  0  0  0  0  0  0  0  0  0  0
   -1.9482   17.8084  -26.0963 H   0  0  0  0  0  0  0  0  0  0  0  0
   -3.7096   19.5724  -26.0365 H   0  0  0  0  0  0  0  0  0  0  0  0
   -3.5203   21.5827  -27.5003 H   0  0  0  0  0  0  0  0  0  0  0  0
   -1.7954   17.5857  -35.0980 H   0  0  0  0  0  0  0  0  0  0  0  0
   -3.5539   15.8691  -35.5116 H   0  0  0  0  0  0  0  0  0  0  0  0
   -5.7324   15.9913  -34.3052 H   0  0  0  0  0  0  0  0  0  0  0  0
   -9.4420   19.0335  -33.4595 H   0  0  0  0  0  0  0  0  0  0  0  0
   -9.2976   18.5471  -31.7600 H   0  0  0  0  0  0  0  0  0  0  0  0
   -9.9033   21.2412  -32.9407 H   0  0  0  0  0  0  0  0  0  0  0  0
  -10.3423   20.6193  -31.3463 H   0  0  0  0  0  0  0  0  0  0  0  0
   -8.0764   22.3112  -32.0609 H   0  0  0  0  0  0  0  0  0  0  0  0
   -8.4856   21.7267  -30.4452 H   0  0  0  0  0  0  0  0  0  0  0  0
   -6.2374   20.9146  -31.8746 H   0  0  0  0  0  0  0  0  0  0  0  0
   -6.9792   19.9171  -30.6100 H   0  0  0  0  0  0  0  0  0  0  0  0
   -4.4012   19.5720  -32.2668 H   0  0  0  0  0  0  0  0  0  0  0  0
   -4.0060   21.3230  -33.6320 H   0  0  0  0  0  0  0  0  0  0  0  0
   -6.1645   22.9549  -33.4343 H   0  0  0  0  0  0  0  0  0  0  0  0
   -7.2949   24.6140  -31.9146 H   0  0  0  0  0  0  0  0  0  0  0  0
   -4.0995   24.1295  -28.9984 H   0  0  0  0  0  0  0  0  0  0  0  0
    0.2041   20.0638  -29.1045 H   0  0  0  0  0  0  0  0  0  0  0  0
  1  2  1  0
  2  3  2  0
  3  4  1  0
  4  5  2  0
  5  6  1  0
  6  7  1  0
  7  8  2  0
  7  9  2  0
  7 10  1  0
 10 11  2  0
 11 12  1  0
 12 13  2  0
 12 14  1  0
 14 15  1  0
 15 16  2  0
 16 17  1  0
 17 18  2  0
 18 19  1  0
 19 20  1  0
 20 21  2  0
 20 22  2  0
 20 23  1  0
 23 24  1  0
 24 25  1  0
 25 26  1  0
 26 27  1  0
 19 28  2  0
 11 29  1  0
 29 30  1  0
 30 31  2  0
 31 32  1  0
 32 33  2  0
 33 34  1  0
 33 35  1  0
 35 36  2  0
  6 37  2  0
 37  2  1  0
 36 10  1  0
 28 15  1  0
 36 30  1  0
 27 23  1  0
  1 38  1  0
  1 39  1  0
  1 40  1  0
  3 41  1  0
  4 42  1  0
  5 43  1  0
 16 44  1  0
 17 45  1  0
 18 46  1  0
 24 47  1  0
 24 48  1  0
 25 49  1  0
 25 50  1  0
 26 51  1  0
 26 52  1  0
 27 53  1  0
 27 54  1  0
 28 55  1  0
 29 56  1  0
 31 57  1  0
 32 58  1  0
 35 59  1  0
 37 60  1  0
M  CHG  1  14  -1
M  END
>  <UniqueID>  (1) 
1

>  <SMILES>  (1) 
Cc1cccc(S(=O)(=O)c2c(C(=O)[N-]c3cccc(S(=O)(=O)N4CCCC4)c3)[nH]c3ccc(Cl)cc23)c1

>  <Energy>  (1) 
106.43662542502682

>  <Genealogy>  (1) 
Cc1cccc(S(=O)(=O)c2c(C(=O)[N-]c3cccc(S(=O)(=O)N4CCCC4)c3)[nH]c3ccc(Cl)cc23)c1 (protonated)
Cc1cccc(S(=O)(=O)c2c(C(=O)[N-]c3cccc(S(=O)(=O)N4CCCC4)c3)[nH]c3ccc(Cl)cc23)c1 (3D coordinates assigned)
Cc1cccc(S(=O)(=O)c2c(C(=O)[N-]c3cccc(S(=O)(=O)N4CCCC4)c3)[nH]c3ccc(Cl)cc23)c1 (nonaromatic ring conformer: 106.43662542502682 kcal/mol)

>  <smiles>  (1) 
Cc1cccc(S(=O)(=O)c2c(C(=O)Nc3cccc(S(=O)(=O)N4CCCC4)c3)[nH]c3ccc(Cl)cc23)c1

>  <score_type>  (1) 
oracle

>  <origin>  (1) 
adgpu

>  <m_score__min__energy>  (1) 
-12.83

>  <m_primary>  (1) 
energy

$$$$
1:0
     RDKit          3D

 45 47  0  0  0  0  0  0  0  0999 V2000
   -2.0070   25.5550  -28.8680 O   0  0  0  0  0  0  0  0  0  0  0  0
   -2.6380   24.6020  -29.3960 C   0  0  0  0  0  0  0  0  0  0  0  0
   -3.5500   24.8860  -30.4650 N   0  0  0  0  0  0  0  0  0  0  0  0
   -5.2790   24.9430  -30.3100 S   0  0  0  0  0  0  0  0  0  0  0  0
   -5.8180   26.0200  -31.2070 O   0  0  0  0  0  0  0  0  0  0  0  0
   -5.6440   25.2680  -28.8890 O   0  0  0  0  0  0  0  0  0  0  0  0
   -5.9850   23.4050  -30.8000 C   0  0  0  0  0  0  0  0  0  0  0  0
   -5.2050   22.2410  -30.8520 C   0  0  0  0  0  0  0  0  0  0  0  0
   -5.7560   21.0460  -31.3210 C   0  0  0  0  0  0  0  0  0  0  0  0
   -7.0980   20.9970  -31.7200 C   0  0  0  0  0  0  0  0  0  0  0  0
   -7.7790   19.4940  -32.3400 S   0  0  0  0  0  0  0  0  0  0  0  0
   -7.6490   18.4410  -31.2730 O   0  0  0  0  0  0  0  0  0  0  0  0
   -9.2410   19.6880  -32.6300 O   0  0  0  0  0  0  0  0  0  0  0  0
   -6.9130   18.9820  -33.7760 N   0  0  0  0  0  0  0  0  0  0  0  0
   -5.5860   19.6370  -33.8810 C   0  0  0  0  0  0  0  0  0  0  0  0
   -4.4380   18.7420  -33.3770 C   0  0  0  0  0  0  0  0  0  0  0  0
   -4.8900   17.9000  -32.3410 O   0  0  0  0  0  0  0  0  0  0  0  0
   -5.7870   16.9310  -32.8560 C   0  0  0  0  0  0  0  0  0  0  0  0
   -6.8130   17.5110  -33.8600 C   0  0  0  0  0  0  0  0  0  0  0  0
   -7.8830   22.1560  -31.6500 C   0  0  0  0  0  0  0  0  0  0  0  0
   -7.3280   23.3550  -31.1970 C   0  0  0  0  0  0  0  0  0  0  0  0
   -2.4050   23.2320  -28.9050 C   0  0  0  0  0  0  0  0  0  0  0  0
   -1.3220   22.4750  -29.3820 C   0  0  0  0  0  0  0  0  0  0  0  0
   -1.0890   21.1890  -28.8850 C   0  0  0  0  0  0  0  0  0  0  0  0
   -1.9440   20.6440  -27.9220 C   0  0  0  0  0  0  0  0  0  0  0  0
   -1.6390   19.0410  -27.2800 Cl  0  0  0  0  0  0  0  0  0  0  0  0
   -3.0450   21.3780  -27.4700 C   0  0  0  0  0  0  0  0  0  0  0  0
   -3.2770   22.6660  -27.9620 C   0  0  0  0  0  0  0  0  0  0  0  0
   -4.1559   22.2689  -30.5225 H   0  0  0  0  0  0  0  0  0  0  0  0
   -5.1340   20.1405  -31.3772 H   0  0  0  0  0  0  0  0  0  0  0  0
   -7.4940   19.3010  -34.5870 H   0  0  0  0  0  0  0  0  0  0  0  0
   -5.3998   19.8870  -34.9359 H   0  0  0  0  0  0  0  0  0  0  0  0
   -5.6087   20.5356  -33.2470 H   0  0  0  0  0  0  0  0  0  0  0  0
   -4.0668   18.1257  -34.2091 H   0  0  0  0  0  0  0  0  0  0  0  0
   -3.6305   19.3812  -32.9906 H   0  0  0  0  0  0  0  0  0  0  0  0
   -5.2022   16.1519  -33.3668 H   0  0  0  0  0  0  0  0  0  0  0  0
   -6.3576   16.5331  -32.0039 H   0  0  0  0  0  0  0  0  0  0  0  0
   -6.5044   17.2355  -34.8793 H   0  0  0  0  0  0  0  0  0  0  0  0
   -7.7995   17.0929  -33.6107 H   0  0  0  0  0  0  0  0  0  0  0  0
   -8.9399   22.1212  -31.9529 H   0  0  0  0  0  0  0  0  0  0  0  0
   -7.9472   24.2631  -31.1517 H   0  0  0  0  0  0  0  0  0  0  0  0
   -0.6550   22.8954  -30.1491 H   0  0  0  0  0  0  0  0  0  0  0  0
   -0.2320   20.6052  -29.2520 H   0  0  0  0  0  0  0  0  0  0  0  0
   -3.7289   20.9419  -26.7270 H   0  0  0  0  0  0  0  0  0  0  0  0
   -4.1471   23.2385  -27.6083 H   0  0  0  0  0  0  0  0  0  0  0  0
  1  2  2  0
  2  3  1  0
  3  4  1  0
  4  5  2  0
  4  6  2  0
  4  7  1  0
  7  8  2  0
  8  9  1  0
  9 10  2  0
 10 11  1  0
 11 12  2  0
 11 13  2  0
 11 14  1  0
 14 15  1  0
 15 16  1  0
 16 17  1  0
 17 18  1  0
 18 19  1  0
 10 20  1  0
 20 21  2  0
  2 22  1  0
 22 23  2  0
 23 24  1  0
 24 25  2  0
 25 26  1  0
 25 27  1  0
 27 28  2  0
 21  7  1  0
 28 22  1  0
 19 14  1  0
  8 29  1  0
  9 30  1  0
 14 31  1  0
 15 32  1  0
 15 33  1  0
 16 34  1  0
 16 35  1  0
 18 36  1  0
 18 37  1  0
 19 38  1  0
 19 39  1  0
 20 40  1  0
 21 41  1  0
 23 42  1  0
 24 43  1  0
 27 44  1  0
 28 45  1  0
M  CHG  2   3  -1  14   1
M  END
>  <UniqueID>  (2) 
2

>  <SMILES>  (2) 
O=C([N-]S(=O)(=O)c1ccc(S(=O)(=O)[NH+]2CCOCC2)cc1)c1ccc(Cl)cc1

>  <Energy>  (2) 
60.12543163535678

>  <Genealogy>  (2) 
O=C([N-]S(=O)(=O)c1ccc(S(=O)(=O)[NH+]2CCOCC2)cc1)c1ccc(Cl)cc1 (protonated)
O=C([N-]S(=O)(=O)c1ccc(S(=O)(=O)[NH+]2CCOCC2)cc1)c1ccc(Cl)cc1 (3D coordinates assigned)
O=C([N-]S(=O)(=O)c1ccc(S(=O)(=O)[NH+]2CCOCC2)cc1)c1ccc(Cl)cc1 (nonaromatic ring conformer: 60.12543163535678 kcal/mol)

>  <smiles>  (2) 
O=C(NS(=O)(=O)c1ccc(S(=O)(=O)N2CCOCC2)cc1)c1ccc(Cl)cc1

>  <score_type>  (2) 
oracle

>  <origin>  (2) 
adgpu

>  <m_score__min__energy>  (2) 
-11.529999999999999

>  <m_primary>  (2) 
energy

$$$$
2:0
     RDKit          3D

 46 48  0  0  0  0  0  0  0  0999 V2000
   -0.3910   23.7030  -24.8880 C   0  0  0  0  0  0  0  0  0  0  0  0
   -1.1910   24.7870  -25.4730 N   0  0  0  0  0  0  0  0  0  0  0  0
   -1.2550   26.0770  -24.7770 C   0  0  0  0  0  0  0  0  0  0  0  0
   -1.9020   24.5870  -26.7230 C   0  0  0  0  0  0  0  0  0  0  0  0
   -1.2010   24.4090  -27.9340 C   0  0  0  0  0  0  0  0  0  0  0  0
   -1.8860   24.2140  -29.1360 C   0  0  0  0  0  0  0  0  0  0  0  0
   -3.2880   24.1810  -29.1610 C   0  0  0  0  0  0  0  0  0  0  0  0
   -4.0030   23.9910  -30.4470 C   0  0  0  0  0  0  0  0  0  0  0  0
   -4.6040   24.9740  -30.9610 O   0  0  0  0  0  0  0  0  0  0  0  0
   -4.0360   22.6850  -31.1510 C   0  0  0  0  0  0  0  0  0  0  0  0
   -3.6690   21.4980  -30.4940 C   0  0  0  0  0  0  0  0  0  0  0  0
   -3.6880   20.2760  -31.1720 C   0  0  0  0  0  0  0  0  0  0  0  0
   -4.0650   20.2200  -32.5270 C   0  0  0  0  0  0  0  0  0  0  0  0
   -4.1050   19.0230  -33.2540 O   0  0  0  0  0  0  0  0  0  0  0  0
   -5.5350   18.2700  -33.8190 S   0  0  0  0  0  0  0  0  0  0  0  0
   -5.7190   18.5540  -35.2830 O   0  0  0  0  0  0  0  0  0  0  0  0
   -5.4300   16.7870  -33.5970 O   0  0  0  0  0  0  0  0  0  0  0  0
   -6.9150   18.9030  -32.9300 C   0  0  0  0  0  0  0  0  0  0  0  0
   -7.6380   18.0700  -32.0630 C   0  0  0  0  0  0  0  0  0  0  0  0
   -8.7400   18.5710  -31.3630 C   0  0  0  0  0  0  0  0  0  0  0  0
   -9.1280   19.9040  -31.5300 C   0  0  0  0  0  0  0  0  0  0  0  0
   -8.4130   20.7370  -32.3970 C   0  0  0  0  0  0  0  0  0  0  0  0
   -7.3110   20.2370  -33.0980 C   0  0  0  0  0  0  0  0  0  0  0  0
   -4.4150   21.4050  -33.1840 C   0  0  0  0  0  0  0  0  0  0  0  0
   -4.3960   22.6280  -32.5080 C   0  0  0  0  0  0  0  0  0  0  0  0
   -3.9930   24.3750  -27.9640 C   0  0  0  0  0  0  0  0  0  0  0  0
   -3.3110   24.5690  -26.7600 C   0  0  0  0  0  0  0  0  0  0  0  0
   -0.4366   23.7647  -23.7907 H   0  0  0  0  0  0  0  0  0  0  0  0
   -0.7913   22.7329  -25.2176 H   0  0  0  0  0  0  0  0  0  0  0  0
    0.6540   23.7995  -25.2176 H   0  0  0  0  0  0  0  0  0  0  0  0
   -1.2466   25.9080  -23.6901 H   0  0  0  0  0  0  0  0  0  0  0  0
   -0.3861   26.6896  -25.0595 H   0  0  0  0  0  0  0  0  0  0  0  0
   -2.1802   26.6006  -25.0595 H   0  0  0  0  0  0  0  0  0  0  0  0
   -0.1011   24.4239  -27.9320 H   0  0  0  0  0  0  0  0  0  0  0  0
   -1.3209   24.0852  -30.0709 H   0  0  0  0  0  0  0  0  0  0  0  0
   -3.3643   21.5310  -29.4376 H   0  0  0  0  0  0  0  0  0  0  0  0
   -3.4068   19.3530  -30.6438 H   0  0  0  0  0  0  0  0  0  0  0  0
   -7.3372   17.0199  -31.9335 H   0  0  0  0  0  0  0  0  0  0  0  0
   -9.3019   17.9162  -30.6807 H   0  0  0  0  0  0  0  0  0  0  0  0
   -9.9953   20.2975  -30.9797 H   0  0  0  0  0  0  0  0  0  0  0  0
   -8.7177   21.7859  -32.5275 H   0  0  0  0  0  0  0  0  0  0  0  0
   -6.7534   20.8925  -33.7832 H   0  0  0  0  0  0  0  0  0  0  0  0
   -4.7082   21.3735  -34.2437 H   0  0  0  0  0  0  0  0  0  0  0  0
   -4.6645   23.5517  -33.0415 H   0  0  0  0  0  0  0  0  0  0  0  0
   -5.0930   24.3744  -27.9732 H   0  0  0  0  0  0  0  0  0  0  0  0
   -3.8807   24.7094  -25.8295 H   0  0  0  0  0  0  0  0  0  0  0  0
  1  2  1  0
  2  3  1  0
  2  4  1  0
  4  5  2  0
  5  6  1  0
  6  7  2  0
  7  8  1  0
  8  9  2  0
  8 10  1  0
 10 11  2  0
 11 12  1  0
 12 13  2  0
 13 14  1  0
 14 15  1  0
 15 16  2  0
 15 17  2  0
 15 18  1  0
 18 19  2  0
 19 20  1  0
 20 21  2  0
 21 22  1  0
 22 23  2  0
 13 24  1  0
 24 25  2  0
  7 26  1  0
 26 27  2  0
 27  4  1  0
 25 10  1  0
 23 18  1  0
  1 28  1  0
  1 29  1  0
  1 30  1  0
  3 31  1  0
  3 32  1  0
  3 33  1  0
  5 34  1  0
  6 35  1  0
 11 36  1  0
 12 37  1  0
 19 38  1  0
 20 39  1  0
 21 40  1  0
 22 41  1  0
 23 42  1  0
 24 43  1  0
 25 44  1  0
 26 45  1  0
 27 46  1  0
M  END
>  <UniqueID>  (3) 
3

>  <SMILES>  (3) 
CN(C)c1ccc(C(=O)c2ccc(OS(=O)(=O)c3ccccc3)cc2)cc1

>  <Energy>  (3) 
56.92072561028158

>  <Genealogy>  (3) 
CN(C)c1ccc(C(=O)c2ccc(OS(=O)(=O)c3ccccc3)cc2)cc1 (3D coordinates assigned)
CN(C)c1ccc(C(=O)c2ccc(OS(=O)(=O)c3ccccc3)cc2)cc1 (optimized conformer: 56.92072561028158 kcal/mol)

>  <smiles>  (3) 
CN(C)c1ccc(C(=O)c2ccc(OS(=O)(=O)c3ccccc3)cc2)cc1

>  <score_type>  (3) 
oracle

>  <origin>  (3) 
adgpu

>  <m_score__min__energy>  (3) 
-9.5899999999999999

>  <m_primary>  (3) 
energy

$$$$
3:0
     RDKit          3D

 56 59  0  0  0  0  0  0  0  0999 V2000
   -5.3660   25.7140  -30.3220 C   0  0  0  0  0  0  0  0  0  0  0  0
   -5.1230   24.7450  -31.3370 O   0  0  0  0  0  0  0  0  0  0  0  0
   -5.9670   23.6570  -31.6220 C   0  0  0  0  0  0  0  0  0  0  0  0
   -7.3520   23.7890  -31.6600 C   0  0  0  0  0  0  0  0  0  0  0  0
   -8.1570   22.6800  -31.9030 C   0  0  0  0  0  0  0  0  0  0  0  0
   -9.4070   22.8590  -31.9350 O   0  0  0  0  0  0  0  0  0  0  0  0
   -7.6130   21.4290  -32.1060 N   0  0  0  0  0  0  0  0  0  0  0  0
   -6.2290   21.2890  -32.1770 C   0  0  0  0  0  0  0  0  0  0  0  0
   -5.3990   22.4030  -31.8710 C   0  0  0  0  0  0  0  0  0  0  0  0
   -3.9250   22.2840  -31.7920 C   0  0  0  0  0  0  0  0  0  0  0  0
   -3.2640   22.2360  -32.8630 O   0  0  0  0  0  0  0  0  0  0  0  0
   -3.2510   22.2220  -30.5180 N   0  0  0  0  0  0  0  0  0  0  0  0
   -3.9910   22.4970  -29.2820 C   0  0  0  0  0  0  0  0  0  0  0  0
   -1.7970   22.0350  -30.4670 C   0  0  0  0  0  0  0  0  0  0  0  0
   -1.1710   23.1290  -29.6650 C   0  0  0  0  0  0  0  0  0  0  0  0
    0.0920   23.0970  -29.1960 N   0  0  0  0  0  0  0  0  0  0  0  0
    0.2820   24.2470  -28.5680 N   0  0  0  0  0  0  0  0  0  0  0  0
   -0.8720   24.9320  -28.6780 C   0  0  0  0  0  0  0  0  0  0  0  0
   -1.0890   26.3020  -28.1340 C   0  0  0  0  0  0  0  0  0  0  0  0
   -1.7680   24.2550  -29.3570 O   0  0  0  0  0  0  0  0  0  0  0  0
   -5.5380   19.9630  -32.5180 C   0  0  0  0  0  0  0  0  0  0  0  0
   -6.3130   19.1590  -33.4880 N   0  0  0  0  0  0  0  0  0  0  0  0
   -5.4340   18.4100  -34.4100 C   0  0  0  0  0  0  0  0  0  0  0  0
   -4.0000   18.6140  -34.0310 C   0  0  0  0  0  0  0  0  0  0  0  0
   -3.1910   17.6940  -33.3940 C   0  0  0  0  0  0  0  0  0  0  0  0
   -1.9750   18.3220  -33.2310 C   0  0  0  0  0  0  0  0  0  0  0  0
   -2.1170   19.5820  -33.7770 C   0  0  0  0  0  0  0  0  0  0  0  0
   -3.3350   19.7260  -34.2460 O   0  0  0  0  0  0  0  0  0  0  0  0
   -7.2100   18.2250  -32.7800 C   0  0  0  0  0  0  0  0  0  0  0  0
   -8.0860   18.9650  -31.7660 C   0  0  0  0  0  0  0  0  0  0  0  0
   -8.5670   20.3090  -32.3320 C   0  0  0  0  0  0  0  0  0  0  0  0
   -5.2488   25.2465  -29.3332 H   0  0  0  0  0  0  0  0  0  0  0  0
   -4.6473   26.5404  -30.4244 H   0  0  0  0  0  0  0  0  0  0  0  0
   -6.3896   26.1035  -30.4244 H   0  0  0  0  0  0  0  0  0  0  0  0
   -7.8126   24.7746  -31.4972 H   0  0  0  0  0  0  0  0  0  0  0  0
   -3.3567   22.2613  -28.4147 H   0  0  0  0  0  0  0  0  0  0  0  0
   -4.2728   23.5599  -29.2521 H   0  0  0  0  0  0  0  0  0  0  0  0
   -4.8985   21.8761  -29.2521 H   0  0  0  0  0  0  0  0  0  0  0  0
   -1.5702   21.0651  -30.0002 H   0  0  0  0  0  0  0  0  0  0  0  0
   -1.3929   22.0592  -31.4898 H   0  0  0  0  0  0  0  0  0  0  0  0
   -1.0832   26.2652  -27.0346 H   0  0  0  0  0  0  0  0  0  0  0  0
   -0.2849   26.9667  -28.4829 H   0  0  0  0  0  0  0  0  0  0  0  0
   -2.0591   26.6856  -28.4829 H   0  0  0  0  0  0  0  0  0  0  0  0
   -4.5492   20.1799  -32.9484 H   0  0  0  0  0  0  0  0  0  0  0  0
   -5.4529   19.3795  -31.5894 H   0  0  0  0  0  0  0  0  0  0  0  0
   -5.6764   17.3385  -34.3542 H   0  0  0  0  0  0  0  0  0  0  0  0
   -5.5916   18.7758  -35.4354 H   0  0  0  0  0  0  0  0  0  0  0  0
   -3.4604   16.6741  -33.0821 H   0  0  0  0  0  0  0  0  0  0  0  0
   -1.0730   17.9035  -32.7606 H   0  0  0  0  0  0  0  0  0  0  0  0
   -1.3293   20.3490  -33.8136 H   0  0  0  0  0  0  0  0  0  0  0  0
   -7.8567   17.7218  -33.5139 H   0  0  0  0  0  0  0  0  0  0  0  0
   -6.5943   17.4906  -32.2400 H   0  0  0  0  0  0  0  0  0  0  0  0
   -8.9603   18.3429  -31.5242 H   0  0  0  0  0  0  0  0  0  0  0  0
   -7.4892   19.1586  -30.8625 H   0  0  0  0  0  0  0  0  0  0  0  0
   -8.7187   20.1952  -33.4155 H   0  0  0  0  0  0  0  0  0  0  0  0
   -9.4964   20.5666  -31.8030 H   0  0  0  0  0  0  0  0  0  0  0  0
  1  2  1  0
  2  3  1  0
  3  4  2  0
  4  5  1  0
  5  6  2  0
  5  7  1  0
  7  8  1  0
  8  9  2  0
  9 10  1  0
 10 11  2  0
 10 12  1  0
 12 13  1  0
 12 14  1  0
 14 15  1  0
 15 16  2  0
 16 17  1  0
 17 18  2  0
 18 19  1  0
 18 20  1  0
  8 21  1  0
 21 22  1  0
 22 23  1  0
 23 24  1  0
 24 25  2  0
 25 26  1  0
 26 27  2  0
 27 28  1  0
 22 29  1  0
 29 30  1  0
 30 31  1  0
  9  3  1  0
 20 15  1  0
 28 24  1  0
 31  7  1  0
  1 32  1  0
  1 33  1  0
  1 34  1  0
  4 35  1  0
 13 36  1  0
 13 37  1  0
 13 38  1  0
 14 39  1  0
 14 40  1  0
 19 41  1  0
 19 42  1  0
 19 43  1  0
 21 44  1  0
 21 45  1  0
 23 46  1  0
 23 47  1  0
 25 48  1  0
 26 49  1  0
 27 50  1  0
 29 51  1  0
 29 52  1  0
 30 53  1  0
 30 54  1  0
 31 55  1  0
 31 56  1  0
M  END
>  <UniqueID>  (4) 
4

>  <SMILES>  (4) 
COc1cc(=O)n2c(c1C(=O)N(C)Cc1nnc(C)o1)CN(Cc1ccco1)CCC2

>  <Energy>  (4) 
138.41572502912908

>  <Genealogy>  (4) 
COc1cc(=O)n2c(c1C(=O)N(C)Cc1nnc(C)o1)CN(Cc1ccco1)CCC2 (3D coordinates assigned)
COc1cc(=O)n2c(c1C(=O)N(C)Cc1nnc(C)o1)CN(Cc1ccco1)CCC2 (nonaromatic ring conformer: 138.41572502912908 kcal/mol)

>  <smiles>  (4) 
COc1cc(=O)n2c(c1C(=O)N(C)Cc1nnc(C)o1)CN(Cc1ccco1)CCC2

>  <score_type>  (4) 
oracle

>  <origin>  (4) 
adgpu

>  <m_score__min__energy>  (4) 
-7.0099999999999998

>  <m_primary>  (4) 
energy

$$$$
4:0
     RDKit          3D

 51 54  0  0  0  0  0  0  0  0999 V2000
   -1.0160   18.8590  -27.4690 C   0  0  0  0  0  0  0  0  0  0  0  0
   -0.9500   20.6160  -27.7330 S   0  0  0  0  0  0  0  0  0  0  0  0
    0.4810   21.0530  -27.8780 O   0  0  0  0  0  0  0  0  0  0  0  0
   -1.5520   21.3160  -26.5480 O   0  0  0  0  0  0  0  0  0  0  0  0
   -1.8400   21.0220  -29.1970 C   0  0  0  0  0  0  0  0  0  0  0  0
   -3.1140   20.4840  -29.4080 C   0  0  0  0  0  0  0  0  0  0  0  0
   -3.8350   20.8100  -30.5600 C   0  0  0  0  0  0  0  0  0  0  0  0
   -3.2860   21.6700  -31.5260 C   0  0  0  0  0  0  0  0  0  0  0  0
   -4.0410   22.0290  -32.7520 C   0  0  0  0  0  0  0  0  0  0  0  0
   -3.4350   22.0650  -33.8560 O   0  0  0  0  0  0  0  0  0  0  0  0
   -5.4280   22.3960  -32.7270 N   0  0  0  0  0  0  0  0  0  0  0  0
   -6.5240   21.6350  -32.1950 C   0  0  0  0  0  0  0  0  0  0  0  0
   -6.9060   20.4080  -32.7690 C   0  0  0  0  0  0  0  0  0  0  0  0
   -8.0240   19.7200  -32.2900 C   0  0  0  0  0  0  0  0  0  0  0  0
   -8.7890   20.2610  -31.2560 C   0  0  0  0  0  0  0  0  0  0  0  0
   -8.4410   21.4940  -30.7000 C   0  0  0  0  0  0  0  0  0  0  0  0
   -7.3090   22.1830  -31.1530 C   0  0  0  0  0  0  0  0  0  0  0  0
   -7.0170   23.4320  -30.5860 O   0  0  0  0  0  0  0  0  0  0  0  0
   -5.7390   23.8450  -30.1850 C   0  0  0  0  0  0  0  0  0  0  0  0
   -5.0720   23.2500  -29.1070 C   0  0  0  0  0  0  0  0  0  0  0  0
   -3.7930   23.6800  -28.7480 C   0  0  0  0  0  0  0  0  0  0  0  0
   -3.1920   24.7390  -29.4610 C   0  0  0  0  0  0  0  0  0  0  0  0
   -1.9950   25.1860  -29.1990 N   0  0  0  0  0  0  0  0  0  0  0  0
   -1.1160   24.8340  -28.1170 C   0  0  0  0  0  0  0  0  0  0  0  0
    0.1180   24.6660  -28.3170 O   0  0  0  0  0  0  0  0  0  0  0  0
   -1.7180   24.5840  -26.7620 C   0  0  0  0  0  0  0  0  0  0  0  0
   -2.6390   25.6950  -26.2760 C   0  0  0  0  0  0  0  0  0  0  0  0
   -1.2790   25.4970  -25.6240 C   0  0  0  0  0  0  0  0  0  0  0  0
   -3.8720   25.3020  -30.4960 N   0  0  0  0  0  0  0  0  0  0  0  0
   -5.1170   24.8940  -30.8620 C   0  0  0  0  0  0  0  0  0  0  0  0
   -2.0140   22.2240  -31.2980 C   0  0  0  0  0  0  0  0  0  0  0  0
   -1.2960   21.9010  -30.1420 C   0  0  0  0  0  0  0  0  0  0  0  0
   -1.0238   18.6505  -26.3890 H   0  0  0  0  0  0  0  0  0  0  0  0
   -1.9300   18.4534  -27.9274 H   0  0  0  0  0  0  0  0  0  0  0  0
   -0.1350   18.3860  -27.9274 H   0  0  0  0  0  0  0  0  0  0  0  0
   -3.5502   19.8013  -28.6639 H   0  0  0  0  0  0  0  0  0  0  0  0
   -4.8403   20.3900  -30.7116 H   0  0  0  0  0  0  0  0  0  0  0  0
   -6.3206   19.9878  -33.6002 H   0  0  0  0  0  0  0  0  0  0  0  0
   -8.3015   18.7502  -32.7288 H   0  0  0  0  0  0  0  0  0  0  0  0
   -9.6668   19.7160  -30.8785 H   0  0  0  0  0  0  0  0  0  0  0  0
   -9.0604   21.9270  -29.9007 H   0  0  0  0  0  0  0  0  0  0  0  0
   -5.5573   22.4411  -28.5411 H   0  0  0  0  0  0  0  0  0  0  0  0
   -3.2585   23.1974  -27.9165 H   0  0  0  0  0  0  0  0  0  0  0  0
   -1.7791   23.4923  -26.8824 H   0  0  0  0  0  0  0  0  0  0  0  0
   -2.8216   26.5747  -26.9106 H   0  0  0  0  0  0  0  0  0  0  0  0
   -3.6761   25.7417  -25.9123 H   0  0  0  0  0  0  0  0  0  0  0  0
   -0.4784   26.2334  -25.7874 H   0  0  0  0  0  0  0  0  0  0  0  0
   -0.9256   25.3411  -24.5940 H   0  0  0  0  0  0  0  0  0  0  0  0
   -5.6348   25.3929  -31.6944 H   0  0  0  0  0  0  0  0  0  0  0  0
   -1.5803   22.9166  -32.0343 H   0  0  0  0  0  0  0  0  0  0  0  0
   -0.3008   22.3387  -29.9745 H   0  0  0  0  0  0  0  0  0  0  0  0
  1  2  1  0
  2  3  2  0
  2  4  2  0
  2  5  1  0
  5  6  2  0
  6  7  1  0
  7  8  2  0
  8  9  1  0
  9 10  2  0
  9 11  1  0
 11 12  1  0
 12 13  2  0
 13 14  1  0
 14 15  2  0
 15 16  1  0
 16 17  2  0
 17 18  1  0
 18 19  1  0
 19 20  1  0
 20 21  2  0
 21 22  1  0
 22 23  2  3
 23 24  1  0
 24 25  2  0
 24 26  1  0
 26 27  1  0
 27 28  1  0
 22 29  1  0
 29 30  1  0
  8 31  1  0
 31 32  2  0
 32  5  1  0
 17 12  1  0
 30 19  2  0
 28 26  1  0
  1 33  1  0
  1 34  1  0
  1 35  1  0
  6 36  1  0
  7 37  1  0
 13 38  1  0
 14 39  1  0
 15 40  1  0
 16 41  1  0
 20 42  1  0
 21 43  1  0
 26 44  1  0
 27 45  1  0
 27 46  1  0
 28 47  1  0
 28 48  1  0
 30 49  1  0
 31 50  1  0
 32 51  1  0
M  CHG  2  11  -1  29  -1
M  END
>  <UniqueID>  (5) 
5

>  <SMILES>  (5) 
CS(=O)(=O)c1ccc(C(=O)[N-]c2ccccc2Oc2ccc(=NC(=O)C3CC3)[n-]c2)cc1

>  <Energy>  (5) 
338.7895992584116

>  <Genealogy>  (5) 
CS(=O)(=O)c1ccc(C(=O)[N-]c2ccccc2Oc2ccc(=NC(=O)C3CC3)[n-]c2)cc1 (protonated)
CS(=O)(=O)c1ccc(C(=O)[N-]c2ccccc2Oc2ccc(=NC(=O)C3CC3)[n-]c2)cc1 (3D coordinates assigned)
CS(=O)(=O)c1ccc(C(=O)[N-]c2ccccc2Oc2ccc(=NC(=O)C3CC3)[n-]c2)cc1 (nonaromatic ring conformer: 338.7895992584116 kcal/mol)

>  <smiles>  (5) 
CS(=O)(=O)c1ccc(C(=O)Nc2ccccc2Oc2ccc(=NC(=O)C3CC3)[nH]c2)cc1

>  <score_type>  (5) 
oracle

>  <origin>  (5) 
adgpu

>  <m_score__min__energy>  (5) 
-11.75

>  <m_primary>  (5) 
energy

$$$$
5:0
     RDKit          3D

 40 42  0  0  0  0  0  0  0  0999 V2000
   -1.5400   20.7540  -26.7820 O   0  0  0  0  0  0  0  0  0  0  0  0
   -1.1430   21.1820  -27.9010 C   0  0  0  0  0  0  0  0  0  0  0  0
   -0.6310   20.2670  -28.8790 N   0  0  0  0  0  0  0  0  0  0  0  0
   -1.0150   20.1880  -30.2600 C   0  0  0  0  0  0  0  0  0  0  0  0
   -0.1120   19.6390  -31.1780 C   0  0  0  0  0  0  0  0  0  0  0  0
   -0.4400   19.5630  -32.5340 C   0  0  0  0  0  0  0  0  0  0  0  0
   -1.6670   20.0540  -32.9870 C   0  0  0  0  0  0  0  0  0  0  0  0
   -2.5680   20.6340  -32.0860 C   0  0  0  0  0  0  0  0  0  0  0  0
   -4.1030   21.2660  -32.6710 S   0  0  0  0  0  0  0  0  0  0  0  0
   -3.8610   22.2210  -33.8090 O   0  0  0  0  0  0  0  0  0  0  0  0
   -4.7990   21.9770  -31.5470 O   0  0  0  0  0  0  0  0  0  0  0  0
   -5.0770   19.9470  -33.2350 N   0  0  0  0  0  0  0  0  0  0  0  0
   -6.4150   19.6600  -32.8020 C   0  0  0  0  0  0  0  0  0  0  0  0
   -6.8290   18.3530  -32.4820 C   0  0  0  0  0  0  0  0  0  0  0  0
   -8.1420   18.1120  -32.0670 C   0  0  0  0  0  0  0  0  0  0  0  0
   -9.0510   19.1680  -31.9660 C   0  0  0  0  0  0  0  0  0  0  0  0
   -8.6480   20.4680  -32.2780 C   0  0  0  0  0  0  0  0  0  0  0  0
   -7.3330   20.7180  -32.6960 C   0  0  0  0  0  0  0  0  0  0  0  0
   -6.9310   22.0160  -33.0080 O   0  0  0  0  0  0  0  0  0  0  0  0
   -2.2410   20.7030  -30.7230 C   0  0  0  0  0  0  0  0  0  0  0  0
   -1.1600   22.6370  -28.1820 C   0  0  0  0  0  0  0  0  0  0  0  0
   -0.1870   23.4840  -27.6210 C   0  0  0  0  0  0  0  0  0  0  0  0
   -0.2060   24.8570  -27.8820 C   0  0  0  0  0  0  0  0  0  0  0  0
   -1.1950   25.4020  -28.7050 C   0  0  0  0  0  0  0  0  0  0  0  0
   -1.2080   26.7680  -28.9610 O   0  0  0  0  0  0  0  0  0  0  0  0
   -2.1680   24.5710  -29.2700 C   0  0  0  0  0  0  0  0  0  0  0  0
   -3.1560   25.1070  -30.0890 O   0  0  0  0  0  0  0  0  0  0  0  0
   -2.1530   23.1960  -29.0100 C   0  0  0  0  0  0  0  0  0  0  0  0
    0.8620   19.2650  -30.8296 H   0  0  0  0  0  0  0  0  0  0  0  0
    0.2691   19.1158  -33.2462 H   0  0  0  0  0  0  0  0  0  0  0  0
   -1.9257   19.9847  -34.0539 H   0  0  0  0  0  0  0  0  0  0  0  0
   -6.1167   17.5183  -32.5588 H   0  0  0  0  0  0  0  0  0  0  0  0
   -8.4601   17.0885  -31.8194 H   0  0  0  0  0  0  0  0  0  0  0  0
  -10.0840   18.9754  -31.6407 H   0  0  0  0  0  0  0  0  0  0  0  0
   -9.3644   21.2987  -32.1956 H   0  0  0  0  0  0  0  0  0  0  0  0
   -5.9880   22.2180  -33.3200 H   0  0  0  0  0  0  0  0  0  0  0  0
   -2.9455   21.1614  -30.0133 H   0  0  0  0  0  0  0  0  0  0  0  0
    0.5948   23.0626  -26.9720 H   0  0  0  0  0  0  0  0  0  0  0  0
    0.5597   25.5103  -27.4383 H   0  0  0  0  0  0  0  0  0  0  0  0
   -2.9218   22.5474  -29.4552 H   0  0  0  0  0  0  0  0  0  0  0  0
  1  2  2  0
  2  3  1  0
  3  4  1  0
  4  5  2  0
  5  6  1  0
  6  7  2  0
  7  8  1  0
  8  9  1  0
  9 10  2  0
  9 11  2  0
  9 12  1  0
 12 13  1  0
 13 14  2  0
 14 15  1  0
 15 16  2  0
 16 17  1  0
 17 18  2  0
 18 19  1  0
  8 20  2  0
  2 21  1  0
 21 22  2  0
 22 23  1  0
 23 24  2  0
 24 25  1  0
 24 26  1  0
 26 27  1  0
 26 28  2  0
 20  4  1  0
 28 21  1  0
 18 13  1  0
  5 29  1  0
  6 30  1  0
  7 31  1  0
 14 32  1  0
 15 33  1  0
 16 34  1  0
 17 35  1  0
 19 36  1  0
 20 37  1  0
 22 38  1  0
 23 39  1  0
 28 40  1  0
M  CHG  4   3  -1  12  -1  25  -1  27  -1
M  END
>  <UniqueID>  (6) 
6

>  <SMILES>  (6) 
O=C([N-]c1cccc(S(=O)(=O)[N-]c2ccccc2O)c1)c1ccc([O-])c([O-])c1

>  <Energy>  (6) 
51.81623921701228

>  <Genealogy>  (6) 
O=C([N-]c1cccc(S(=O)(=O)[N-]c2ccccc2O)c1)c1ccc([O-])c([O-])c1 (protonated)
O=C([N-]c1cccc(S(=O)(=O)[N-]c2ccccc2O)c1)c1ccc([O-])c([O-])c1 (3D coordinates assigned)
O=C([N-]c1cccc(S(=O)(=O)[N-]c2ccccc2O)c1)c1ccc([O-])c([O-])c1 (optimized conformer: 51.81623921701228 kcal/mol)

>  <smiles>  (6) 
O=C(Nc1cccc(S(=O)(=O)Nc2ccccc2O)c1)c1ccc(O)c(O)c1

>  <score_type>  (6) 
oracle

>  <origin>  (6) 
adgpu

>  <m_score__min__energy>  (6) 
-13.17

>  <m_primary>  (6) 
energy

$$$$
6:0
     RDKit          3D

 55 58  0  0  0  0  0  0  0  0999 V2000
   -4.5150   15.7940  -33.3600 C   0  0  0  0  0  0  0  0  0  0  0  0
   -5.7530   16.2420  -34.1450 C   0  0  0  0  0  0  0  0  0  0  0  0
   -6.7990   15.1260  -34.2090 C   0  0  0  0  0  0  0  0  0  0  0  0
   -6.3500   17.5000  -33.5670 C   0  0  0  0  0  0  0  0  0  0  0  0
   -7.6140   17.5740  -33.1040 N   0  0  0  0  0  0  0  0  0  0  0  0
   -7.7000   18.8190  -32.5920 C   0  0  0  0  0  0  0  0  0  0  0  0
   -8.7480   19.2590  -32.0510 O   0  0  0  0  0  0  0  0  0  0  0  0
   -6.5620   19.5360  -32.7060 N   0  0  0  0  0  0  0  0  0  0  0  0
   -6.2980   20.8430  -32.1670 C   0  0  0  0  0  0  0  0  0  0  0  0
   -7.1680   21.3990  -31.2140 C   0  0  0  0  0  0  0  0  0  0  0  0
   -6.9150   22.6650  -30.6810 C   0  0  0  0  0  0  0  0  0  0  0  0
   -5.7910   23.3940  -31.0950 C   0  0  0  0  0  0  0  0  0  0  0  0
   -5.4510   24.9740  -30.3890 S   0  0  0  0  0  0  0  0  0  0  0  0
   -6.1240   25.0520  -29.0480 O   0  0  0  0  0  0  0  0  0  0  0  0
   -6.0290   26.0450  -31.2700 O   0  0  0  0  0  0  0  0  0  0  0  0
   -3.7550   25.2720  -30.1720 N   0  0  0  0  0  0  0  0  0  0  0  0
   -2.7960   24.3240  -29.6940 C   0  0  0  0  0  0  0  0  0  0  0  0
   -3.1080   22.9630  -29.5940 C   0  0  0  0  0  0  0  0  0  0  0  0
   -2.1460   22.0430  -29.1580 C   0  0  0  0  0  0  0  0  0  0  0  0
   -0.8890   22.5020  -28.7150 C   0  0  0  0  0  0  0  0  0  0  0  0
   -0.5970   23.8710  -28.7740 C   0  0  0  0  0  0  0  0  0  0  0  0
   -1.5440   24.7770  -29.2580 C   0  0  0  0  0  0  0  0  0  0  0  0
   -1.2290   26.1280  -29.3180 O   0  0  0  0  0  0  0  0  0  0  0  0
    0.1880   21.5280  -28.2770 C   0  0  0  0  0  0  0  0  0  0  0  0
   -0.3620   20.1840  -27.9860 N   0  0  0  0  0  0  0  0  0  0  0  0
    0.7320   19.2260  -27.7630 C   0  0  0  0  0  0  0  0  0  0  0  0
   -1.2250   19.7250  -29.0890 C   0  0  0  0  0  0  0  0  0  0  0  0
   -2.4920   20.5800  -29.1050 C   0  0  0  0  0  0  0  0  0  0  0  0
   -4.9270   22.8470  -32.0520 C   0  0  0  0  0  0  0  0  0  0  0  0
   -5.1810   21.5790  -32.5870 C   0  0  0  0  0  0  0  0  0  0  0  0
   -5.7060   18.6960  -33.3150 C   0  0  0  0  0  0  0  0  0  0  0  0
   -4.3720   18.9710  -33.6030 O   0  0  0  0  0  0  0  0  0  0  0  0
   -4.7183   15.8676  -32.2815 H   0  0  0  0  0  0  0  0  0  0  0  0
   -4.2748   14.7519  -33.6176 H   0  0  0  0  0  0  0  0  0  0  0  0
   -3.6635   16.4410  -33.6176 H   0  0  0  0  0  0  0  0  0  0  0  0
   -5.4266   16.4666  -35.1712 H   0  0  0  0  0  0  0  0  0  0  0  0
   -7.0792   14.8271  -33.1881 H   0  0  0  0  0  0  0  0  0  0  0  0
   -7.6900   15.4887  -34.7424 H   0  0  0  0  0  0  0  0  0  0  0  0
   -6.3794   14.2603  -34.7424 H   0  0  0  0  0  0  0  0  0  0  0  0
   -8.0531   20.8342  -30.8859 H   0  0  0  0  0  0  0  0  0  0  0  0
   -7.6001   23.0918  -29.9336 H   0  0  0  0  0  0  0  0  0  0  0  0
   -4.1165   22.6133  -29.8599 H   0  0  0  0  0  0  0  0  0  0  0  0
    0.3847   24.2351  -28.4369 H   0  0  0  0  0  0  0  0  0  0  0  0
    0.9344   21.4396  -29.0802 H   0  0  0  0  0  0  0  0  0  0  0  0
    0.6408   21.9164  -27.3528 H   0  0  0  0  0  0  0  0  0  0  0  0
    0.8864   19.0908  -26.6823 H   0  0  0  0  0  0  0  0  0  0  0  0
    0.4721   18.2598  -28.2200 H   0  0  0  0  0  0  0  0  0  0  0  0
    1.6555   19.6111  -28.2200 H   0  0  0  0  0  0  0  0  0  0  0  0
   -0.6928   19.8332  -30.0456 H   0  0  0  0  0  0  0  0  0  0  0  0
   -1.4877   18.6665  -28.9452 H   0  0  0  0  0  0  0  0  0  0  0  0
   -3.0926   20.3188  -29.9887 H   0  0  0  0  0  0  0  0  0  0  0  0
   -3.0619   20.3847  -28.1847 H   0  0  0  0  0  0  0  0  0  0  0  0
   -4.0460   23.4158  -32.3842 H   0  0  0  0  0  0  0  0  0  0  0  0
   -4.5004   21.1574  -33.3413 H   0  0  0  0  0  0  0  0  0  0  0  0
   -4.1070   19.5730  -34.3670 H   0  0  0  0  0  0  0  0  0  0  0  0
  1  2  1  0
  2  3  1  0
  2  4  1  0
  4  5  1  0
  5  6  1  0
  6  7  2  0
  6  8  1  0
  8  9  1  0
  9 10  2  0
 10 11  1  0
 11 12  2  0
 12 13  1  0
 13 14  2  0
 13 15  2  0
 13 16  1  0
 16 17  1  0
 17 18  2  0
 18 19  1  0
 19 20  2  0
 20 21  1  0
 21 22  2  0
 22 23  1  0
 20 24  1  0
 24 25  1  0
 25 26  1  0
 25 27  1  0
 27 28  1  0
 12 29  1  0
 29 30  2  0
  8 31  1  0
 31 32  1  0
 31  4  2  0
 30  9  1  0
 22 17  1  0
 28 19  1  0
  1 33  1  0
  1 34  1  0
  1 35  1  0
  2 36  1  0
  3 37  1  0
  3 38  1  0
  3 39  1  0
 10 40  1  0
 11 41  1  0
 18 42  1  0
 21 43  1  0
 24 44  1  0
 24 45  1  0
 26 46  1  0
 26 47  1  0
 26 48  1  0
 27 49  1  0
 27 50  1  0
 28 51  1  0
 28 52  1  0
 29 53  1  0
 30 54  1  0
 32 55  1  0
M  CHG  3   5  -1  16  -1  23  -1
M  END
>  <UniqueID>  (7) 
7

>  <SMILES>  (7) 
CC(C)c1[n-]c(=O)n(-c2ccc(S(=O)(=O)[N-]c3cc4c(cc3[O-])CN(C)CC4)cc2)c1O

>  <Energy>  (7) 
102.09599604740403

>  <Genealogy>  (7) 
CC(C)c1[n-]c(=O)n(-c2ccc(S(=O)(=O)[N-]c3cc4c(cc3[O-])CN(C)CC4)cc2)c1O (protonated)
CC(C)c1[n-]c(=O)n(-c2ccc(S(=O)(=O)[N-]c3cc4c(cc3[O-])CN(C)CC4)cc2)c1O (3D coordinates assigned)
CC(C)c1[n-]c(=O)n(-c2ccc(S(=O)(=O)[N-]c3cc4c(cc3[O-])CN(C)CC4)cc2)c1O (nonaromatic ring conformer: 102.09599604740403 kcal/mol)

>  <smiles>  (7) 
CC(C)c1[nH]c(=O)n(-c2ccc(S(=O)(=O)Nc3cc4c(cc3O)CN(C)CC4)cc2)c1O

>  <score_type>  (7) 
oracle

>  <origin>  (7) 
adgpu

>  <m_score__min__energy>  (7) 
-13.77

>  <m_primary>  (7) 
energy

$$$$
7:0
     RDKit          3D

 46 49  0  0  0  0  0  0  0  0999 V2000
   -9.1100   21.5690  -30.9570 C   0  0  0  0  0  0  0  0  0  0  0  0
   -7.9070   21.6320  -31.7090 O   0  0  0  0  0  0  0  0  0  0  0  0
   -6.8370   22.5010  -31.4340 C   0  0  0  0  0  0  0  0  0  0  0  0
   -7.0280   23.7070  -30.7320 C   0  0  0  0  0  0  0  0  0  0  0  0
   -5.9430   24.5290  -30.4210 C   0  0  0  0  0  0  0  0  0  0  0  0
   -4.6450   24.1610  -30.8040 C   0  0  0  0  0  0  0  0  0  0  0  0
   -3.4960   24.9410  -30.4400 N   0  0  0  0  0  0  0  0  0  0  0  0
   -2.5140   24.6400  -29.0400 S   0  0  0  0  0  0  0  0  0  0  0  0
   -3.3410   24.8360  -27.7970 O   0  0  0  0  0  0  0  0  0  0  0  0
   -1.3640   25.6070  -29.0200 O   0  0  0  0  0  0  0  0  0  0  0  0
   -1.8680   23.0050  -29.1140 C   0  0  0  0  0  0  0  0  0  0  0  0
   -1.4040   22.4960  -30.3530 C   0  0  0  0  0  0  0  0  0  0  0  0
   -0.9070   21.1800  -30.4500 C   0  0  0  0  0  0  0  0  0  0  0  0
   -0.8910   20.4100  -29.2910 C   0  0  0  0  0  0  0  0  0  0  0  0
   -0.4910   19.1410  -29.1380 N   0  0  0  0  0  0  0  0  0  0  0  0
   -0.7170   18.8960  -27.8270 C   0  0  0  0  0  0  0  0  0  0  0  0
   -0.4720   17.7850  -27.2850 O   0  0  0  0  0  0  0  0  0  0  0  0
   -1.2430   19.9470  -27.1400 N   0  0  0  0  0  0  0  0  0  0  0  0
   -1.3390   20.8910  -28.0940 C   0  0  0  0  0  0  0  0  0  0  0  0
   -1.8370   22.1900  -27.9600 C   0  0  0  0  0  0  0  0  0  0  0  0
   -4.4560   22.9880  -31.5410 C   0  0  0  0  0  0  0  0  0  0  0  0
   -5.5370   22.1470  -31.8520 C   0  0  0  0  0  0  0  0  0  0  0  0
   -5.2920   20.9170  -32.5610 N   0  0  0  0  0  0  0  0  0  0  0  0
   -6.3320   20.4230  -33.4720 C   0  0  0  0  0  0  0  0  0  0  0  0
   -6.1160   18.9540  -33.8400 C   0  0  0  0  0  0  0  0  0  0  0  0
   -4.7590   18.7020  -34.1390 O   0  0  0  0  0  0  0  0  0  0  0  0
   -4.0070   18.8220  -32.9500 C   0  0  0  0  0  0  0  0  0  0  0  0
   -3.9710   20.2810  -32.4770 C   0  0  0  0  0  0  0  0  0  0  0  0
   -8.8722   21.5815  -29.8831 H   0  0  0  0  0  0  0  0  0  0  0  0
   -9.7418   22.4353  -31.2027 H   0  0  0  0  0  0  0  0  0  0  0  0
   -9.6479   20.6415  -31.2027 H   0  0  0  0  0  0  0  0  0  0  0  0
   -8.0418   24.0042  -30.4258 H   0  0  0  0  0  0  0  0  0  0  0  0
   -6.1069   25.4689  -29.8735 H   0  0  0  0  0  0  0  0  0  0  0  0
   -1.4320   23.1345  -31.2483 H   0  0  0  0  0  0  0  0  0  0  0  0
   -0.5450   20.7766  -31.4072 H   0  0  0  0  0  0  0  0  0  0  0  0
   -0.1040   18.4920  -29.8620 H   0  0  0  0  0  0  0  0  0  0  0  0
   -2.1928   22.5653  -26.9891 H   0  0  0  0  0  0  0  0  0  0  0  0
   -3.4453   22.7197  -31.8824 H   0  0  0  0  0  0  0  0  0  0  0  0
   -7.3119   20.5269  -32.9831 H   0  0  0  0  0  0  0  0  0  0  0  0
   -6.2857   21.0168  -34.3968 H   0  0  0  0  0  0  0  0  0  0  0  0
   -6.4211   18.3222  -32.9928 H   0  0  0  0  0  0  0  0  0  0  0  0
   -6.7200   18.7229  -34.7298 H   0  0  0  0  0  0  0  0  0  0  0  0
   -4.4663   18.1999  -32.1677 H   0  0  0  0  0  0  0  0  0  0  0  0
   -2.9775   18.4883  -33.1470 H   0  0  0  0  0  0  0  0  0  0  0  0
   -3.6294   20.3076  -31.4317 H   0  0  0  0  0  0  0  0  0  0  0  0
   -3.2837   20.8351  -33.1332 H   0  0  0  0  0  0  0  0  0  0  0  0
  1  2  1  0
  2  3  1  0
  3  4  2  0
  4  5  1  0
  5  6  2  0
  6  7  1  0
  7  8  1  0
  8  9  2  0
  8 10  2  0
  8 11  1  0
 11 12  2  0
 12 13  1  0
 13 14  2  0
 14 15  1  0
 15 16  1  0
 16 17  2  0
 16 18  1  0
 18 19  1  0
 19 20  2  0
  6 21  1  0
 21 22  2  0
 22 23  1  0
 23 24  1  0
 24 25  1  0
 25 26  1  0
 26 27  1  0
 27 28  1  0
 22  3  1  0
 28 23  1  0
 20 11  1  0
 19 14  1  0
  1 29  1  0
  1 30  1  0
  1 31  1  0
  4 32  1  0
  5 33  1  0
 12 34  1  0
 13 35  1  0
 15 36  1  0
 20 37  1  0
 21 38  1  0
 24 39  1  0
 24 40  1  0
 25 41  1  0
 25 42  1  0
 27 43  1  0
 27 44  1  0
 28 45  1  0
 28 46  1  0
M  CHG  2   7  -1  18  -1
M  END
>  <UniqueID>  (8) 
8

>  <SMILES>  (8) 
COc1ccc([N-]S(=O)(=O)c2ccc3[nH]c(=O)[n-]c3c2)cc1N1CCOCC1

>  <Energy>  (8) 
97.51911072646952

>  <Genealogy>  (8) 
COc1ccc([N-]S(=O)(=O)c2ccc3[nH]c(=O)[n-]c3c2)cc1N1CCOCC1 (protonated)
COc1ccc([N-]S(=O)(=O)c2ccc3[nH]c(=O)[n-]c3c2)cc1N1CCOCC1 (3D coordinates assigned)
COc1ccc([N-]S(=O)(=O)c2ccc3[nH]c(=O)[n-]c3c2)cc1N1CCOCC1 (nonaromatic ring conformer: 97.51911072646952 kcal/mol)

>  <smiles>  (8) 
COc1ccc(NS(=O)(=O)c2ccc3[nH]c(=O)[nH]c3c2)cc1N1CCOCC1

>  <score_type>  (8) 
oracle

>  <origin>  (8) 
adgpu

>  <m_score__min__energy>  (8) 
-10.140000000000001

>  <m_primary>  (8) 
energy

$$$$
8:0
     RDKit          3D

 59 62  0  0  0  0  0  0  0  0999 V2000
   -0.4920   24.5340  -24.5460 C   0  0  0  0  0  0  0  0  0  0  0  0
   -0.5890   23.6850  -25.6650 O   0  0  0  0  0  0  0  0  0  0  0  0
    0.6990   23.3110  -26.1180 C   0  0  0  0  0  0  0  0  0  0  0  0
    0.8290   23.5320  -27.6310 C   0  0  1  0  0  0  0  0  0  0  0  0
    0.1660   22.3810  -28.4430 C   0  0  0  0  0  0  0  0  0  0  0  0
   -0.9620   22.9930  -29.1340 N   0  0  0  0  0  0  0  0  0  0  0  0
   -1.9990   22.2770  -29.8330 C   0  0  0  0  0  0  0  0  0  0  0  0
   -2.5900   21.1340  -29.2720 C   0  0  0  0  0  0  0  0  0  0  0  0
   -3.5790   20.4350  -29.9670 C   0  0  0  0  0  0  0  0  0  0  0  0
   -3.9970   20.8660  -31.2340 C   0  0  0  0  0  0  0  0  0  0  0  0
   -5.0300   20.1560  -31.9380 N   0  0  0  0  0  0  0  0  0  0  0  0
   -5.9100   20.9400  -32.8110 C   0  0  0  0  0  0  0  0  0  0  0  0
   -6.6810   20.0330  -33.7780 C   0  0  0  0  0  0  0  0  0  0  0  0
   -7.3460   18.9130  -33.0710 N   0  0  0  0  0  0  0  0  0  0  0  0
   -8.3740   19.3500  -32.1290 C   0  0  0  0  0  0  0  0  0  0  0  0
   -8.3840   18.9180  -30.9470 O   0  0  0  0  0  0  0  0  0  0  0  0
   -9.5020   20.2040  -32.5600 C   0  0  0  0  0  0  0  0  0  0  0  0
   -9.5790   21.5050  -32.2660 C   0  0  0  0  0  0  0  0  0  0  0  0
   -8.4750   22.2450  -31.6330 C   0  0  0  0  0  0  0  0  0  0  0  0
   -7.8210   23.2650  -32.3430 C   0  0  0  0  0  0  0  0  0  0  0  0
   -6.7600   23.9570  -31.7570 C   0  0  0  0  0  0  0  0  0  0  0  0
   -6.3550   23.6400  -30.4560 C   0  0  0  0  0  0  0  0  0  0  0  0
   -7.0280   22.6510  -29.7300 C   0  0  0  0  0  0  0  0  0  0  0  0
   -8.0850   21.9550  -30.3190 C   0  0  0  0  0  0  0  0  0  0  0  0
   -6.3110   18.0720  -32.4350 C   0  0  0  0  0  0  0  0  0  0  0  0
   -5.4670   18.8500  -31.4160 C   0  0  0  0  0  0  0  0  0  0  0  0
   -3.4010   21.9990  -31.8060 C   0  0  0  0  0  0  0  0  0  0  0  0
   -3.7690   22.4100  -33.0450 F   0  0  0  0  0  0  0  0  0  0  0  0
   -2.4040   22.6940  -31.1150 C   0  0  0  0  0  0  0  0  0  0  0  0
   -0.9050   24.3820  -28.8610 C   0  0  0  0  0  0  0  0  0  0  0  0
   -1.6980   25.2300  -29.3400 O   0  0  0  0  0  0  0  0  0  0  0  0
    0.1240   24.7090  -28.0100 O   0  0  0  0  0  0  0  0  0  0  0  0
   -0.5603   23.9362  -23.6252 H   0  0  0  0  0  0  0  0  0  0  0  0
    0.4724   25.0626  -24.5693 H   0  0  0  0  0  0  0  0  0  0  0  0
   -1.3123   25.2665  -24.5693 H   0  0  0  0  0  0  0  0  0  0  0  0
    1.4547   23.9184  -25.5984 H   0  0  0  0  0  0  0  0  0  0  0  0
    0.8526   22.2433  -25.9028 H   0  0  0  0  0  0  0  0  0  0  0  0
    1.9066   23.5925  -27.8432 H   0  0  0  0  0  0  0  0  0  0  0  0
    0.8792   21.9612  -29.1677 H   0  0  0  0  0  0  0  0  0  0  0  0
   -0.1536   21.5535  -27.7925 H   0  0  0  0  0  0  0  0  0  0  0  0
   -2.2718   20.7866  -28.2780 H   0  0  0  0  0  0  0  0  0  0  0  0
   -4.0334   19.5399  -29.5173 H   0  0  0  0  0  0  0  0  0  0  0  0
   -6.6282   21.4963  -32.1907 H   0  0  0  0  0  0  0  0  0  0  0  0
   -5.2903   21.6317  -33.4005 H   0  0  0  0  0  0  0  0  0  0  0  0
   -7.4455   20.6318  -34.2947 H   0  0  0  0  0  0  0  0  0  0  0  0
   -5.9622   19.6068  -34.4933 H   0  0  0  0  0  0  0  0  0  0  0  0
   -7.8260   18.3240  -33.7890 H   0  0  0  0  0  0  0  0  0  0  0  0
  -10.3124   19.7484  -33.1479 H   0  0  0  0  0  0  0  0  0  0  0  0
  -10.5061   22.0458  -32.5070 H   0  0  0  0  0  0  0  0  0  0  0  0
   -8.1456   23.5190  -33.3629 H   0  0  0  0  0  0  0  0  0  0  0  0
   -6.2432   24.7502  -32.3171 H   0  0  0  0  0  0  0  0  0  0  0  0
   -5.5046   24.1700  -30.0022 H   0  0  0  0  0  0  0  0  0  0  0  0
   -6.7248   22.4225  -28.6976 H   0  0  0  0  0  0  0  0  0  0  0  0
   -8.6135   21.1763  -29.7496 H   0  0  0  0  0  0  0  0  0  0  0  0
   -6.8043   17.2351  -31.9190 H   0  0  0  0  0  0  0  0  0  0  0  0
   -5.6355   17.7166  -33.2271 H   0  0  0  0  0  0  0  0  0  0  0  0
   -6.0681   19.0139  -30.5095 H   0  0  0  0  0  0  0  0  0  0  0  0
   -4.5678   18.2553  -31.1976 H   0  0  0  0  0  0  0  0  0  0  0  0
   -1.9322   23.5738  -31.5769 H   0  0  0  0  0  0  0  0  0  0  0  0
  1  2  1  0
  2  3  1  0
  3  4  1  0
  4  5  1  0
  5  6  1  0
  6  7  1  0
  7  8  2  0
  8  9  1  0
  9 10  2  0
 10 11  1  0
 11 12  1  0
 12 13  1  0
 13 14  1  0
 14 15  1  0
 15 16  2  0
 15 17  1  0
 17 18  2  3
 18 19  1  0
 19 20  2  0
 20 21  1  0
 21 22  2  0
 22 23  1  0
 23 24  2  0
 14 25  1  0
 25 26  1  0
 10 27  1  0
 27 28  1  0
 27 29  2  0
  6 30  1  0
 30 31  2  0
 30 32  1  0
 32  4  1  0
 29  7  1  0
 26 11  1  0
 24 19  1  0
  1 33  1  0
  1 34  1  0
  1 35  1  0
  3 36  1  0
  3 37  1  0
  4 38  1  1
  5 39  1  0
  5 40  1  0
  8 41  1  0
  9 42  1  0
 12 43  1  0
 12 44  1  0
 13 45  1  0
 13 46  1  0
 14 47  1  0
 17 48  1  0
 18 49  1  0
 20 50  1  0
 21 51  1  0
 22 52  1  0
 23 53  1  0
 24 54  1  0
 25 55  1  0
 25 56  1  0
 26 57  1  0
 26 58  1  0
 29 59  1  0
M  CHG  1  14   1
M  END
>  <UniqueID>  (9) 
9

>  <SMILES>  (9) 
COC[C@H]1CN(c2ccc(N3CC[NH+](C(=O)C=Cc4ccccc4)CC3)c(F)c2)C(=O)O1

>  <Energy>  (9) 
107.57399814070236

>  <Genealogy>  (9) 
COCC1CN(c2ccc(N3CC[NH+](C(=O)C=Cc4ccccc4)CC3)c(F)c2)C(=O)O1 (protonated)
COC[C@H]1CN(c2ccc(N3CC[NH+](C(=O)C=Cc4ccccc4)CC3)c(F)c2)C(=O)O1 (chirality)
COC[C@H]1CN(c2ccc(N3CC[NH+](C(=O)C=Cc4ccccc4)CC3)c(F)c2)C(=O)O1 (3D coordinates assigned)
COC[C@H]1CN(c2ccc(N3CC[NH+](C(=O)C=Cc4ccccc4)CC3)c(F)c2)C(=O)O1 (nonaromatic ring conformer: 107.57399814070236 kcal/mol)

>  <smiles>  (9) 
COCC1CN(c2ccc(N3CCN(C(=O)C=Cc4ccccc4)CC3)c(F)c2)C(=O)O1

>  <score_type>  (9) 
oracle

>  <origin>  (9) 
adgpu

>  <m_score__min__energy>  (9) 
-8.7599999999999998

>  <m_primary>  (9) 
energy

$$$$
9:0
     RDKit          3D

 52 55  0  0  0  0  0  0  0  0999 V2000
   -6.2890   18.1170  -31.5740 C   0  0  0  0  0  0  0  0  0  0  0  0
   -7.2220   18.5960  -32.6770 C   0  0  2  0  0  0  0  0  0  0  0  0
   -6.3570   19.6230  -33.9020 S   0  0  0  0  0  0  0  0  0  0  0  0
   -6.0350   20.9900  -32.7740 C   0  0  0  0  0  0  0  0  0  0  0  0
   -4.7810   21.5910  -32.7790 C   0  0  0  0  0  0  0  0  0  0  0  0
   -4.5350   22.6930  -31.9570 C   0  0  0  0  0  0  0  0  0  0  0  0
   -5.5410   23.2020  -31.1250 C   0  0  0  0  0  0  0  0  0  0  0  0
   -5.1710   24.5770  -30.0950 S   0  0  0  0  0  0  0  0  0  0  0  0
   -6.0290   25.7390  -30.5210 O   0  0  0  0  0  0  0  0  0  0  0  0
   -5.4590   24.2810  -28.6500 O   0  0  0  0  0  0  0  0  0  0  0  0
   -3.5040   25.0000  -30.2950 N   0  0  0  0  0  0  0  0  0  0  0  0
   -2.3810   24.3080  -29.7260 C   0  0  0  0  0  0  0  0  0  0  0  0
   -2.2610   22.9090  -29.7720 C   0  0  0  0  0  0  0  0  0  0  0  0
   -1.1840   22.2550  -29.1650 C   0  0  0  0  0  0  0  0  0  0  0  0
   -1.0790   20.4950  -29.2160 S   0  0  0  0  0  0  0  0  0  0  0  0
   -2.4810   19.9420  -29.2340 O   0  0  0  0  0  0  0  0  0  0  0  0
   -0.3560   19.9770  -28.0030 O   0  0  0  0  0  0  0  0  0  0  0  0
   -0.2270   20.0060  -30.6630 N   0  0  0  0  0  0  0  0  0  0  0  0
   -0.9470   18.9440  -31.3960 C   0  0  0  0  0  0  0  0  0  0  0  0
   -2.1120   19.4680  -32.2530 C   0  0  0  0  0  0  0  0  0  0  0  0
   -1.8290   20.8390  -32.8990 C   0  0  0  0  0  0  0  0  0  0  0  0
   -0.3370   21.1500  -32.9180 C   0  0  0  0  0  0  0  0  0  0  0  0
    0.2080   21.1670  -31.4830 C   0  0  0  0  0  0  0  0  0  0  0  0
   -0.2190   23.0050  -28.5010 C   0  0  0  0  0  0  0  0  0  0  0  0
   -0.3180   24.4060  -28.4390 C   0  0  0  0  0  0  0  0  0  0  0  0
   -1.4000   25.0530  -29.0430 C   0  0  0  0  0  0  0  0  0  0  0  0
   -1.5030   26.4360  -28.9680 O   0  0  0  0  0  0  0  0  0  0  0  0
   -6.7950   22.5850  -31.1000 C   0  0  0  0  0  0  0  0  0  0  0  0
   -7.0400   21.4670  -31.9110 C   0  0  0  0  0  0  0  0  0  0  0  0
   -8.2650   20.7500  -31.7570 N   0  0  0  0  0  0  0  0  0  0  0  0
   -8.3880   19.3620  -32.1060 C   0  0  0  0  0  0  0  0  0  0  0  0
   -9.4710   18.7640  -31.8750 O   0  0  0  0  0  0  0  0  0  0  0  0
   -6.7328   18.3449  -30.5937 H   0  0  0  0  0  0  0  0  0  0  0  0
   -6.1401   17.0310  -31.6656 H   0  0  0  0  0  0  0  0  0  0  0  0
   -5.3197   18.6290  -31.6656 H   0  0  0  0  0  0  0  0  0  0  0  0
   -7.5963   17.6959  -33.1867 H   0  0  0  0  0  0  0  0  0  0  0  0
   -3.9846   21.1994  -33.4289 H   0  0  0  0  0  0  0  0  0  0  0  0
   -3.5419   23.1659  -31.9628 H   0  0  0  0  0  0  0  0  0  0  0  0
   -3.0274   22.3177  -30.2945 H   0  0  0  0  0  0  0  0  0  0  0  0
   -0.2322   18.4317  -32.0568 H   0  0  0  0  0  0  0  0  0  0  0  0
   -1.3790   18.2685  -30.6430 H   0  0  0  0  0  0  0  0  0  0  0  0
   -2.3111   18.7400  -33.0532 H   0  0  0  0  0  0  0  0  0  0  0  0
   -2.9753   19.5966  -31.5835 H   0  0  0  0  0  0  0  0  0  0  0  0
   -2.2059   20.8319  -33.9324 H   0  0  0  0  0  0  0  0  0  0  0  0
   -2.3353   21.6126  -32.3030 H   0  0  0  0  0  0  0  0  0  0  0  0
    0.1895   20.3790  -33.4997 H   0  0  0  0  0  0  0  0  0  0  0  0
   -0.1769   22.1356  -33.3794 H   0  0  0  0  0  0  0  0  0  0  0  0
    1.3070   21.1668  -31.5293 H   0  0  0  0  0  0  0  0  0  0  0  0
   -0.1924   22.0698  -30.9986 H   0  0  0  0  0  0  0  0  0  0  0  0
    0.6298   22.4971  -28.0198 H   0  0  0  0  0  0  0  0  0  0  0  0
    0.4534   24.9911  -27.9169 H   0  0  0  0  0  0  0  0  0  0  0  0
   -7.5883   22.9754  -30.4456 H   0  0  0  0  0  0  0  0  0  0  0  0
  1  2  1  0
  2  3  1  0
  3  4  1  0
  4  5  2  0
  5  6  1  0
  6  7  2  0
  7  8  1  0
  8  9  2  0
  8 10  2  0
  8 11  1  0
 11 12  1  0
 12 13  2  0
 13 14  1  0
 14 15  1  0
 15 16  2  0
 15 17  2  0
 15 18  1  0
 18 19  1  0
 19 20  1  0
 20 21  1  0
 21 22  1  0
 22 23  1  0
 14 24  2  0
 24 25  1  0
 25 26  2  0
 26 27  1  0
  7 28  1  0
 28 29  2  0
 29 30  1  0
 30 31  1  0
 31 32  2  0
 31  2  1  0
 29  4  1  0
 26 12  1  0
 23 18  1  0
  1 33  1  0
  1 34  1  0
  1 35  1  0
  2 36  1  6
  5 37  1  0
  6 38  1  0
 13 39  1  0
 19 40  1  0
 19 41  1  0
 20 42  1  0
 20 43  1  0
 21 44  1  0
 21 45  1  0
 22 46  1  0
 22 47  1  0
 23 48  1  0
 23 49  1  0
 24 50  1  0
 25 51  1  0
 28 52  1  0
M  CHG  3  11  -1  27  -1  30  -1
M  END
>  <UniqueID>  (10) 
10

>  <SMILES>  (10) 
C[C@@H]1Sc2ccc(S(=O)(=O)[N-]c3cc(S(=O)(=O)N4CCCCC4)ccc3[O-])cc2[N-]C1=O

>  <Energy>  (10) 
65.89461453948547

>  <Genealogy>  (10) 
CC1Sc2ccc(S(=O)(=O)[N-]c3cc(S(=O)(=O)N4CCCCC4)ccc3[O-])cc2[N-]C1=O (protonated)
C[C@@H]1Sc2ccc(S(=O)(=O)[N-]c3cc(S(=O)(=O)N4CCCCC4)ccc3[O-])cc2[N-]C1=O (chirality)
C[C@@H]1Sc2ccc(S(=O)(=O)[N-]c3cc(S(=O)(=O)N4CCCCC4)ccc3[O-])cc2[N-]C1=O (3D coordinates assigned)
C[C@@H]1Sc2ccc(S(=O)(=O)[N-]c3cc(S(=O)(=O)N4CCCCC4)ccc3[O-])cc2[N-]C1=O (nonaromatic ring conformer: 65.89461453948547 kcal/mol)

>  <smiles>  (10) 
CC1Sc2ccc(S(=O)(=O)Nc3cc(S(=O)(=O)N4CCCCC4)ccc3O)cc2NC1=O

>  <score_type>  (10) 
oracle

>  <origin>  (10) 
adgpu

>  <m_score__min__energy>  (10) 
-15.42

>  <m_primary>  (10) 
energy

$$$$
10:0
     RDKit          3D

 46 48  0  0  0  0  0  0  0  0999 V2000
   -1.4670   21.4960  -26.5390 C   0  0  0  0  0  0  0  0  0  0  0  0
   -1.9560   22.4610  -27.5850 C   0  0  0  0  0  0  0  0  0  0  0  0
   -3.1970   22.1950  -28.1860 C   0  0  0  0  0  0  0  0  0  0  0  0
   -3.7320   23.0560  -29.1370 C   0  0  0  0  0  0  0  0  0  0  0  0
   -3.0370   24.2080  -29.5220 C   0  0  0  0  0  0  0  0  0  0  0  0
   -3.5860   25.1200  -30.4860 N   0  0  0  0  0  0  0  0  0  0  0  0
   -4.9720   25.3050  -30.8020 C   0  0  0  0  0  0  0  0  0  0  0  0
   -5.6970   26.0420  -30.0840 O   0  0  0  0  0  0  0  0  0  0  0  0
   -5.5770   24.5660  -31.8680 N   0  0  0  0  0  0  0  0  0  0  0  0
   -5.7640   23.1440  -31.9110 C   0  0  0  0  0  0  0  0  0  0  0  0
   -4.6900   22.3340  -32.3050 C   0  0  0  0  0  0  0  0  0  0  0  0
   -4.8280   20.9440  -32.3410 C   0  0  0  0  0  0  0  0  0  0  0  0
   -6.0370   20.3500  -31.9670 C   0  0  0  0  0  0  0  0  0  0  0  0
   -7.1050   21.1470  -31.5460 C   0  0  0  0  0  0  0  0  0  0  0  0
   -6.9700   22.5400  -31.5100 C   0  0  0  0  0  0  0  0  0  0  0  0
   -1.8080   24.5130  -28.9070 C   0  0  0  0  0  0  0  0  0  0  0  0
   -1.1260   25.6810  -29.2620 O   0  0  0  0  0  0  0  0  0  0  0  0
   -1.2460   23.6400  -27.9420 C   0  0  0  0  0  0  0  0  0  0  0  0
    0.3300   24.0800  -27.2040 S   0  0  0  0  0  0  0  0  0  0  0  0
    1.0740   22.8150  -26.8830 O   0  0  0  0  0  0  0  0  0  0  0  0
    1.1810   24.8360  -28.1850 O   0  0  0  0  0  0  0  0  0  0  0  0
    0.1710   25.0020  -25.7180 N   0  0  0  0  0  0  0  0  0  0  0  0
    1.0460   26.1920  -25.6680 C   0  0  0  0  0  0  0  0  0  0  0  0
    0.2490   27.4920  -25.8740 C   0  0  0  0  0  0  0  0  0  0  0  0
   -0.7730   27.6850  -24.9030 O   0  0  0  0  0  0  0  0  0  0  0  0
   -1.3410   26.4730  -24.4180 C   0  0  0  0  0  0  0  0  0  0  0  0
   -1.2420   25.3050  -25.4130 C   0  0  0  0  0  0  0  0  0  0  0  0
   -1.6737   21.9039  -25.5386 H   0  0  0  0  0  0  0  0  0  0  0  0
   -1.9861   20.5334  -26.6569 H   0  0  0  0  0  0  0  0  0  0  0  0
   -0.3838   21.3453  -26.6569 H   0  0  0  0  0  0  0  0  0  0  0  0
   -3.7545   21.2910  -27.8996 H   0  0  0  0  0  0  0  0  0  0  0  0
   -4.7086   22.8303  -29.5902 H   0  0  0  0  0  0  0  0  0  0  0  0
   -3.7324   22.7956  -32.5877 H   0  0  0  0  0  0  0  0  0  0  0  0
   -3.9843   20.3164  -32.6640 H   0  0  0  0  0  0  0  0  0  0  0  0
   -6.1476   19.2562  -32.0041 H   0  0  0  0  0  0  0  0  0  0  0  0
   -8.0531   20.6791  -31.2425 H   0  0  0  0  0  0  0  0  0  0  0  0
   -7.8087   23.1639  -31.1674 H   0  0  0  0  0  0  0  0  0  0  0  0
   -0.1170   25.7590  -29.2400 H   0  0  0  0  0  0  0  0  0  0  0  0
    1.5418   26.2292  -24.6868 H   0  0  0  0  0  0  0  0  0  0  0  0
    1.7844   26.1097  -26.4792 H   0  0  0  0  0  0  0  0  0  0  0  0
    0.9462   28.3412  -25.8208 H   0  0  0  0  0  0  0  0  0  0  0  0
   -0.2429   27.4208  -26.8553 H   0  0  0  0  0  0  0  0  0  0  0  0
   -0.8161   26.1882  -23.4942 H   0  0  0  0  0  0  0  0  0  0  0  0
   -2.4113   26.6632  -24.2496 H   0  0  0  0  0  0  0  0  0  0  0  0
   -1.7163   24.4148  -24.9742 H   0  0  0  0  0  0  0  0  0  0  0  0
   -1.7538   25.5878  -26.3447 H   0  0  0  0  0  0  0  0  0  0  0  0
  1  2  1  0
  2  3  2  0
  3  4  1  0
  4  5  2  0
  5  6  1  0
  6  7  1  0
  7  8  2  0
  7  9  1  0
  9 10  1  0
 10 11  2  0
 11 12  1  0
 12 13  2  0
 13 14  1  0
 14 15  2  0
  5 16  1  0
 16 17  1  0
 16 18  2  0
 18 19  1  0
 19 20  2  0
 19 21  2  0
 19 22  1  0
 22 23  1  0
 23 24  1  0
 24 25  1  0
 25 26  1  0
 26 27  1  0
 18  2  1  0
 27 22  1  0
 15 10  1  0
  1 28  1  0
  1 29  1  0
  1 30  1  0
  3 31  1  0
  4 32  1  0
 11 33  1  0
 12 34  1  0
 13 35  1  0
 14 36  1  0
 15 37  1  0
 17 38  1  0
 23 39  1  0
 23 40  1  0
 24 41  1  0
 24 42  1  0
 26 43  1  0
 26 44  1  0
 27 45  1  0
 27 46  1  0
M  CHG  2   6  -1   9  -1
M  END
>  <UniqueID>  (11) 
11

>  <SMILES>  (11) 
Cc1ccc([N-]C(=O)[N-]c2ccccc2)c(O)c1S(=O)(=O)N1CCOCC1

>  <Energy>  (11) 
73.68255786864059

>  <Genealogy>  (11) 
Cc1ccc([N-]C(=O)[N-]c2ccccc2)c(O)c1S(=O)(=O)N1CCOCC1 (protonated)
Cc1ccc([N-]C(=O)[N-]c2ccccc2)c(O)c1S(=O)(=O)N1CCOCC1 (3D coordinates assigned)
Cc1ccc([N-]C(=O)[N-]c2ccccc2)c(O)c1S(=O)(=O)N1CCOCC1 (nonaromatic ring conformer: 73.68255786864059 kcal/mol)

>  <smiles>  (11) 
Cc1ccc(NC(=O)Nc2ccccc2)c(O)c1S(=O)(=O)N1CCOCC1

>  <score_type>  (11) 
oracle

>  <origin>  (11) 
adgpu

>  <m_score__min__energy>  (11) 
-11.869999999999999

>  <m_primary>  (11) 
energy

$$$$
11:0
     RDKit          3D

 69 73  0  0  0  0  0  0  0  0999 V2000
   -1.4220   20.7830  -34.2420 C   0  0  0  0  0  0  0  0  0  0  0  0
   -2.1550   21.1500  -32.9780 C   0  0  0  0  0  0  0  0  0  0  0  0
   -3.4210   21.7480  -33.0690 C   0  0  0  0  0  0  0  0  0  0  0  0
   -4.1480   22.0740  -31.9130 C   0  0  0  0  0  0  0  0  0  0  0  0
   -5.4630   22.6480  -32.0010 N   0  0  0  0  0  0  0  0  0  0  0  0
   -6.6790   21.9290  -32.2660 C   0  0  0  0  0  0  0  0  0  0  0  0
   -7.7710   22.5570  -32.2110 O   0  0  0  0  0  0  0  0  0  0  0  0
   -6.6840   20.4710  -32.5480 C   0  0  0  0  0  0  0  0  0  0  0  0
   -5.6750   19.8990  -33.3390 C   0  0  0  0  0  0  0  0  0  0  0  0
   -5.7180   18.5380  -33.6420 C   0  0  0  0  0  0  0  0  0  0  0  0
   -4.7520   17.9430  -34.4660 C   0  0  0  0  0  0  0  0  0  0  0  0
   -4.8330   16.5780  -34.7550 C   0  0  0  0  0  0  0  0  0  0  0  0
   -5.8710   15.8050  -34.2250 C   0  0  0  0  0  0  0  0  0  0  0  0
   -6.8370   16.3940  -33.4010 C   0  0  0  0  0  0  0  0  0  0  0  0
   -6.7680   17.7620  -33.1100 C   0  0  0  0  0  0  0  0  0  0  0  0
   -7.6920   18.3260  -32.3370 O   0  0  0  0  0  0  0  0  0  0  0  0
   -7.6920   19.6230  -32.0410 C   0  0  0  0  0  0  0  0  0  0  0  0
   -8.6150   20.0850  -31.3190 O   0  0  0  0  0  0  0  0  0  0  0  0
   -3.5930   21.8400  -30.6470 C   0  0  0  0  0  0  0  0  0  0  0  0
   -4.3630   22.1570  -29.5150 O   0  0  0  0  0  0  0  0  0  0  0  0
   -4.6300   23.4740  -29.0370 C   0  0  0  0  0  0  0  0  0  0  0  0
   -4.1810   24.5040  -30.0260 C   0  0  0  0  0  0  0  0  0  0  0  0
   -5.0070   24.9800  -30.8520 O   0  0  0  0  0  0  0  0  0  0  0  0
   -2.8110   24.9130  -30.0570 N   0  0  0  0  0  0  0  0  0  0  0  0
   -1.8730   24.6950  -28.9990 C   0  0  0  0  0  0  0  0  0  0  0  0
   -1.6650   23.3900  -28.5350 C   0  0  0  0  0  0  0  0  0  0  0  0
   -0.7260   23.1300  -27.5280 C   0  0  0  0  0  0  0  0  0  0  0  0
   -0.5040   21.4800  -26.9350 S   0  0  0  0  0  0  0  0  0  0  0  0
   -0.8550   21.4550  -25.4740 O   0  0  0  0  0  0  0  0  0  0  0  0
    0.9350   21.0710  -27.1000 O   0  0  0  0  0  0  0  0  0  0  0  0
   -1.5510   20.3830  -27.8120 N   0  0  0  0  0  0  0  0  0  0  0  0
   -0.8670   19.1320  -28.1920 C   0  0  0  0  0  0  0  0  0  0  0  0
   -0.8830   18.0870  -27.0630 C   0  0  0  0  0  0  0  0  0  0  0  0
   -2.2010   17.8590  -26.6090 O   0  0  0  0  0  0  0  0  0  0  0  0
   -2.7110   19.0500  -26.0460 C   0  0  0  0  0  0  0  0  0  0  0  0
   -2.8290   20.1450  -27.1140 C   0  0  0  0  0  0  0  0  0  0  0  0
    0.0500   24.1850  -27.0180 C   0  0  0  0  0  0  0  0  0  0  0  0
    1.0300   23.9450  -26.0610 O   0  0  0  0  0  0  0  0  0  0  0  0
   -0.1430   25.4870  -27.4890 C   0  0  0  0  0  0  0  0  0  0  0  0
   -1.0950   25.7470  -28.4790 C   0  0  0  0  0  0  0  0  0  0  0  0
   -1.2350   27.0440  -28.9600 O   0  0  0  0  0  0  0  0  0  0  0  0
   -2.3080   21.2750  -30.5510 C   0  0  0  0  0  0  0  0  0  0  0  0
   -1.5840   20.9270  -31.7030 C   0  0  0  0  0  0  0  0  0  0  0  0
   -0.2150   20.3140  -31.5580 C   0  0  0  0  0  0  0  0  0  0  0  0
   -0.4655   20.3041  -33.9853 H   0  0  0  0  0  0  0  0  0  0  0  0
   -2.0347   20.0854  -34.8318 H   0  0  0  0  0  0  0  0  0  0  0  0
   -1.2305   21.6916  -34.8318 H   0  0  0  0  0  0  0  0  0  0  0  0
   -3.8494   21.9642  -34.0588 H   0  0  0  0  0  0  0  0  0  0  0  0
   -4.8524   20.5226  -33.7190 H   0  0  0  0  0  0  0  0  0  0  0  0
   -3.9337   18.5482  -34.8833 H   0  0  0  0  0  0  0  0  0  0  0  0
   -4.0769   16.1096  -35.4022 H   0  0  0  0  0  0  0  0  0  0  0  0
   -5.9284   14.7311  -34.4564 H   0  0  0  0  0  0  0  0  0  0  0  0
   -7.6499   15.7826  -32.9822 H   0  0  0  0  0  0  0  0  0  0  0  0
   -5.7116   23.5836  -28.8692 H   0  0  0  0  0  0  0  0  0  0  0  0
   -4.0775   23.6251  -28.0979 H   0  0  0  0  0  0  0  0  0  0  0  0
   -2.2449   22.5604  -28.9657 H   0  0  0  0  0  0  0  0  0  0  0  0
   -1.3709   18.7077  -29.0729 H   0  0  0  0  0  0  0  0  0  0  0  0
    0.1837   19.3768  -28.4068 H   0  0  0  0  0  0  0  0  0  0  0  0
   -0.4629   17.1427  -27.4397 H   0  0  0  0  0  0  0  0  0  0  0  0
   -0.2816   18.4658  -26.2235 H   0  0  0  0  0  0  0  0  0  0  0  0
   -3.7057   18.8516  -25.6203 H   0  0  0  0  0  0  0  0  0  0  0  0
   -2.0224   19.3939  -25.2602 H   0  0  0  0  0  0  0  0  0  0  0  0
   -3.5845   19.8393  -27.8528 H   0  0  0  0  0  0  0  0  0  0  0  0
   -3.1172   21.0790  -26.6095 H   0  0  0  0  0  0  0  0  0  0  0  0
    0.4578   26.3117  -27.0781 H   0  0  0  0  0  0  0  0  0  0  0  0
   -1.8640   21.1034  -29.5593 H   0  0  0  0  0  0  0  0  0  0  0  0
    0.0270   20.2056  -30.4904 H   0  0  0  0  0  0  0  0  0  0  0  0
   -0.2034   19.3247  -32.0389 H   0  0  0  0  0  0  0  0  0  0  0  0
    0.5307   20.9642  -32.0389 H   0  0  0  0  0  0  0  0  0  0  0  0
  1  2  1  0
  2  3  2  0
  3  4  1  0
  4  5  1  0
  5  6  1  0
  6  7  2  0
  6  8  1  0
  8  9  2  0
  9 10  1  0
 10 11  2  0
 11 12  1  0
 12 13  2  0
 13 14  1  0
 14 15  2  0
 15 16  1  0
 16 17  1  0
 17 18  2  0
  4 19  2  0
 19 20  1  0
 20 21  1  0
 21 22  1  0
 22 23  2  0
 22 24  1  0
 24 25  1  0
 25 26  2  0
 26 27  1  0
 27 28  1  0
 28 29  2  0
 28 30  2  0
 28 31  1  0
 31 32  1  0
 32 33  1  0
 33 34  1  0
 34 35  1  0
 35 36  1  0
 27 37  2  0
 37 38  1  0
 37 39  1  0
 39 40  2  0
 40 41  1  0
 19 42  1  0
 42 43  2  0
 43 44  1  0
 43  2  1  0
 17  8  1  0
 40 25  1  0
 15 10  1  0
 36 31  1  0
  1 45  1  0
  1 46  1  0
  1 47  1  0
  3 48  1  0
  9 49  1  0
 11 50  1  0
 12 51  1  0
 13 52  1  0
 14 53  1  0
 21 54  1  0
 21 55  1  0
 26 56  1  0
 32 57  1  0
 32 58  1  0
 33 59  1  0
 33 60  1  0
 35 61  1  0
 35 62  1  0
 36 63  1  0
 36 64  1  0
 39 65  1  0
 42 66  1  0
 44 67  1  0
 44 68  1  0
 44 69  1  0
M  CHG  4   5  -1  24  -1  38  -1  41  -1
M  END
>  <UniqueID>  (12) 
12

>  <SMILES>  (12) 
Cc1cc([N-]C(=O)c2cc3ccccc3oc2=O)c(OCC(=O)[N-]c2cc(S(=O)(=O)N3CCOCC3)c([O-])cc2[O-])cc1C

>  <Energy>  (12) 
97.61345800591461

>  <Genealogy>  (12) 
Cc1cc([N-]C(=O)c2cc3ccccc3oc2=O)c(OCC(=O)[N-]c2cc(S(=O)(=O)N3CCOCC3)c([O-])cc2[O-])cc1C (protonated)
Cc1cc([N-]C(=O)c2cc3ccccc3oc2=O)c(OCC(=O)[N-]c2cc(S(=O)(=O)N3CCOCC3)c([O-])cc2[O-])cc1C (3D coordinates assigned)
Cc1cc([N-]C(=O)c2cc3ccccc3oc2=O)c(OCC(=O)[N-]c2cc(S(=O)(=O)N3CCOCC3)c([O-])cc2[O-])cc1C (nonaromatic ring conformer: 97.61345800591461 kcal/mol)

>  <smiles>  (12) 
Cc1cc(NC(=O)c2cc3ccccc3oc2=O)c(OCC(=O)Nc2cc(S(=O)(=O)N3CCOCC3)c(O)cc2O)cc1C

>  <score_type>  (12) 
oracle

>  <origin>  (12) 
adgpu

>  <m_score__min__energy>  (12) 
-15.25

>  <m_primary>  (12) 
energy

$$$$
12:0
     RDKit          3D

 52 54  0  0  0  0  0  0  0  0999 V2000
   -6.2500   17.5890  -31.6130 C   0  0  0  0  0  0  0  0  0  0  0  0
   -7.0660   18.3810  -32.4730 O   0  0  0  0  0  0  0  0  0  0  0  0
   -7.5260   19.6720  -32.1710 C   0  0  0  0  0  0  0  0  0  0  0  0
   -8.6860   19.8810  -31.3990 C   0  0  0  0  0  0  0  0  0  0  0  0
   -9.1170   21.1760  -31.1050 C   0  0  0  0  0  0  0  0  0  0  0  0
   -8.3990   22.2760  -31.5760 C   0  0  0  0  0  0  0  0  0  0  0  0
   -7.2500   22.0840  -32.3430 C   0  0  0  0  0  0  0  0  0  0  0  0
   -6.8080   20.7860  -32.6560 C   0  0  0  0  0  0  0  0  0  0  0  0
   -5.5240   20.6050  -33.4280 C   0  0  0  0  0  0  0  0  0  0  0  0
   -4.4000   21.1540  -32.6600 N   0  0  0  0  0  0  0  0  0  0  0  0
   -4.3050   22.6000  -32.4280 C   0  0  0  0  0  0  0  0  0  0  0  0
   -4.2230   22.8840  -30.9210 C   0  0  2  0  0  0  0  0  0  0  0  0
   -4.1310   24.3690  -30.6510 C   0  0  0  0  0  0  0  0  0  0  0  0
   -4.9410   25.1530  -31.2150 O   0  0  0  0  0  0  0  0  0  0  0  0
   -3.1140   24.9270  -29.8090 N   0  0  0  0  0  0  0  0  0  0  0  0
   -2.8880   24.5600  -28.4160 C   0  0  0  0  0  0  0  0  0  0  0  0
   -1.4520   24.8180  -28.0600 C   0  0  0  0  0  0  0  0  0  0  0  0
   -0.4790   23.8370  -28.3000 C   0  0  0  0  0  0  0  0  0  0  0  0
    0.8560   24.1010  -27.9850 C   0  0  0  0  0  0  0  0  0  0  0  0
    1.2080   25.3080  -27.4670 N   0  0  0  0  0  0  0  0  0  0  0  0
    0.2920   26.2910  -27.2450 C   0  0  0  0  0  0  0  0  0  0  0  0
    0.7310   27.5900  -26.6390 C   0  0  0  0  0  0  0  0  0  0  0  0
    2.1250   27.7140  -26.7240 O   0  0  0  0  0  0  0  0  0  0  0  0
   -1.0610   26.0580  -27.5360 C   0  0  0  0  0  0  0  0  0  0  0  0
   -3.0060   22.1540  -30.3260 C   0  0  0  0  0  0  0  0  0  0  0  0
   -3.1140   20.6350  -30.5230 C   0  0  0  0  0  0  0  0  0  0  0  0
   -3.5260   20.2800  -31.9240 C   0  0  0  0  0  0  0  0  0  0  0  0
   -3.1810   19.1690  -32.4110 O   0  0  0  0  0  0  0  0  0  0  0  0
   -6.4890   17.8210  -30.5647 H   0  0  0  0  0  0  0  0  0  0  0  0
   -6.4412   16.5230  -31.8054 H   0  0  0  0  0  0  0  0  0  0  0  0
   -5.1902   17.8120  -31.8054 H   0  0  0  0  0  0  0  0  0  0  0  0
   -9.2561   19.0177  -31.0253 H   0  0  0  0  0  0  0  0  0  0  0  0
  -10.0237   21.3294  -30.5013 H   0  0  0  0  0  0  0  0  0  0  0  0
   -8.7395   23.2955  -31.3421 H   0  0  0  0  0  0  0  0  0  0  0  0
   -6.6848   22.9550  -32.7061 H   0  0  0  0  0  0  0  0  0  0  0  0
   -5.3542   19.5332  -33.6081 H   0  0  0  0  0  0  0  0  0  0  0  0
   -5.6004   21.1350  -34.3889 H   0  0  0  0  0  0  0  0  0  0  0  0
   -3.4030   22.9901  -32.9222 H   0  0  0  0  0  0  0  0  0  0  0  0
   -5.1979   23.0922  -32.8409 H   0  0  0  0  0  0  0  0  0  0  0  0
   -5.1412   22.5128  -30.4424 H   0  0  0  0  0  0  0  0  0  0  0  0
   -3.5411   25.1620  -27.7671 H   0  0  0  0  0  0  0  0  0  0  0  0
   -3.1160   23.4932  -28.2750 H   0  0  0  0  0  0  0  0  0  0  0  0
   -0.7649   22.8671  -28.7330 H   0  0  0  0  0  0  0  0  0  0  0  0
    1.6234   23.3317  -28.1562 H   0  0  0  0  0  0  0  0  0  0  0  0
    0.2579   28.4225  -27.1805 H   0  0  0  0  0  0  0  0  0  0  0  0
    0.4311   27.6135  -25.5809 H   0  0  0  0  0  0  0  0  0  0  0  0
    2.4890   26.7910  -26.7520 H   0  0  0  0  0  0  0  0  0  0  0  0
   -1.8096   26.8431  -27.3541 H   0  0  0  0  0  0  0  0  0  0  0  0
   -2.0935   22.5155  -30.8226 H   0  0  0  0  0  0  0  0  0  0  0  0
   -2.9706   22.3620  -29.2464 H   0  0  0  0  0  0  0  0  0  0  0  0
   -2.1353   20.1787  -30.3136 H   0  0  0  0  0  0  0  0  0  0  0  0
   -3.8836   20.2556  -29.8346 H   0  0  0  0  0  0  0  0  0  0  0  0
  1  2  1  0
  2  3  1  0
  3  4  2  0
  4  5  1  0
  5  6  2  0
  6  7  1  0
  7  8  2  0
  8  9  1  0
  9 10  1  0
 10 11  1  0
 11 12  1  0
 12 13  1  0
 13 14  2  0
 13 15  1  0
 15 16  1  0
 16 17  1  0
 17 18  2  0
 18 19  1  0
 19 20  2  0
 20 21  1  0
 21 22  1  0
 22 23  1  0
 21 24  2  0
 12 25  1  0
 25 26  1  0
 26 27  1  0
 27 28  2  0
  8  3  1  0
 27 10  1  0
 24 17  1  0
  1 29  1  0
  1 30  1  0
  1 31  1  0
  4 32  1  0
  5 33  1  0
  6 34  1  0
  7 35  1  0
  9 36  1  0
  9 37  1  0
 11 38  1  0
 11 39  1  0
 12 40  1  1
 16 41  1  0
 16 42  1  0
 18 43  1  0
 19 44  1  0
 22 45  1  0
 22 46  1  0
 23 47  1  0
 24 48  1  0
 25 49  1  0
 25 50  1  0
 26 51  1  0
 26 52  1  0
M  CHG  1  15  -1
M  END
>  <UniqueID>  (13) 
13

>  <SMILES>  (13) 
COc1ccccc1CN1C[C@H](C(=O)[N-]Cc2ccnc(CO)c2)CCC1=O

>  <Energy>  (13) 
46.35254826864526

>  <Genealogy>  (13) 
COc1ccccc1CN1CC(C(=O)[N-]Cc2ccnc(CO)c2)CCC1=O (protonated)
COc1ccccc1CN1C[C@H](C(=O)[N-]Cc2ccnc(CO)c2)CCC1=O (chirality)
COc1ccccc1CN1C[C@H](C(=O)[N-]Cc2ccnc(CO)c2)CCC1=O (3D coordinates assigned)
COc1ccccc1CN1C[C@H](C(=O)[N-]Cc2ccnc(CO)c2)CCC1=O (nonaromatic ring conformer: 46.35254826864526 kcal/mol)

>  <smiles>  (13) 
COc1ccccc1CN1CC(C(=O)NCc2ccnc(CO)c2)CCC1=O

>  <score_type>  (13) 
oracle

>  <origin>  (13) 
adgpu

>  <m_score__min__energy>  (13) 
-9.7799999999999994

>  <m_primary>  (13) 
energy

$$$$
13:0
     RDKit          3D

 47 50  0  0  0  0  0  0  0  0999 V2000
    0.7726   22.0704  -27.1221 H   0  0  0  0  0  0  0  0  0  0  0  0
   -0.0210   22.1230  -27.8820 C   0  0  0  0  0  0  0  0  0  0  0  0
   -0.9190   23.0600  -27.7590 N   0  0  0  0  0  0  0  0  0  0  0  0
   -1.9620   23.4010  -28.6880 C   0  0  0  0  0  0  0  0  0  0  0  0
   -2.9900   22.5530  -29.0500 C   0  0  0  0  0  0  0  0  0  0  0  0
   -3.1090   21.1670  -28.6770 C   0  0  0  0  0  0  0  0  0  0  0  0
   -3.2030   20.0540  -28.3770 N   0  0  0  0  0  0  0  0  0  0  0  0
   -3.8320   23.2750  -29.8910 C   0  0  0  0  0  0  0  0  0  0  0  0
   -5.0820   22.8150  -30.5400 C   0  0  0  0  0  0  0  0  0  0  0  0
   -6.3170   23.3710  -30.1660 C   0  0  0  0  0  0  0  0  0  0  0  0
   -6.3539   24.1493  -29.3895 H   0  0  0  0  0  0  0  0  0  0  0  0
   -7.5000   22.9400  -30.7760 C   0  0  0  0  0  0  0  0  0  0  0  0
   -8.4628   23.3823  -30.4803 H   0  0  0  0  0  0  0  0  0  0  0  0
   -7.4610   21.9490  -31.7600 C   0  0  0  0  0  0  0  0  0  0  0  0
   -8.6410   21.5260  -32.3620 O   0  0  0  0  0  0  0  0  0  0  0  0
   -6.2370   21.3840  -32.1350 C   0  0  0  0  0  0  0  0  0  0  0  0
   -6.1940   20.3920  -33.1080 O   0  0  0  0  0  0  0  0  0  0  0  0
   -5.0530   21.8150  -31.5280 C   0  0  0  0  0  0  0  0  0  0  0  0
   -4.0927   21.3687  -31.8255 H   0  0  0  0  0  0  0  0  0  0  0  0
   -3.2820   24.5460  -29.9680 C   0  0  0  0  0  0  0  0  0  0  0  0
   -3.8680   25.6320  -30.6080 O   0  0  0  0  0  0  0  0  0  0  0  0
   -2.1390   24.6130  -29.2530 N   0  0  0  0  0  0  0  0  0  0  0  0
   -1.4160   25.7760  -28.9350 N   0  0  0  0  0  0  0  0  0  0  0  0
   -0.3660   25.8180  -27.9620 C   0  0  0  0  0  0  0  0  0  0  0  0
    0.6490   25.0820  -28.1030 O   0  0  0  0  0  0  0  0  0  0  0  0
   -0.5060   26.6600  -26.7540 C   0  0  0  0  0  0  0  0  0  0  0  0
   -0.8330   26.0810  -25.5120 C   0  0  0  0  0  0  0  0  0  0  0  0
   -0.9649   24.9917  -25.4347 H   0  0  0  0  0  0  0  0  0  0  0  0
   -0.9910   26.8820  -24.3770 C   0  0  0  0  0  0  0  0  0  0  0  0
   -1.2465   26.4214  -23.4113 H   0  0  0  0  0  0  0  0  0  0  0  0
   -0.8250   28.2660  -24.4670 C   0  0  0  0  0  0  0  0  0  0  0  0
   -0.9479   28.8942  -23.5724 H   0  0  0  0  0  0  0  0  0  0  0  0
   -0.5030   28.8520  -25.6930 C   0  0  0  0  0  0  0  0  0  0  0  0
   -0.3750   29.9423  -25.7634 H   0  0  0  0  0  0  0  0  0  0  0  0
   -0.3430   28.0560  -26.8310 C   0  0  0  0  0  0  0  0  0  0  0  0
   -0.0879   28.5238  -27.7933 H   0  0  0  0  0  0  0  0  0  0  0  0
    0.0030   21.1260  -28.9740 C   0  0  0  0  0  0  0  0  0  0  0  0
   -0.1900   21.5690  -30.2920 C   0  0  0  0  0  0  0  0  0  0  0  0
   -0.3381   22.6403  -30.4928 H   0  0  0  0  0  0  0  0  0  0  0  0
   -0.1950   20.6560  -31.3510 C   0  0  0  0  0  0  0  0  0  0  0  0
   -0.3645   21.0083  -32.3792 H   0  0  0  0  0  0  0  0  0  0  0  0
    0.0150   19.2970  -31.1050 C   0  0  0  0  0  0  0  0  0  0  0  0
   -0.0062   18.5775  -31.9368 H   0  0  0  0  0  0  0  0  0  0  0  0
    0.2520   18.8520  -29.8020 C   0  0  0  0  0  0  0  0  0  0  0  0
    0.4315   17.7834  -29.6124 H   0  0  0  0  0  0  0  0  0  0  0  0
    0.2620   19.7600  -28.7370 C   0  0  0  0  0  0  0  0  0  0  0  0
    0.5560   19.2990  -27.4580 O   0  0  0  0  0  0  0  0  0  0  0  0
  1  2  1  0
  2  3  2  0
  3  4  1  0
  4  5  2  0
  5  6  1  0
  6  7  3  0
  5  8  1  0
  8  9  1  0
  9 10  2  0
 10 11  1  0
 10 12  1  0
 12 13  1  0
 12 14  2  0
 14 15  1  0
 14 16  1  0
 16 17  1  0
 16 18  2  0
 18 19  1  0
  8 20  2  0
 20 21  1  0
 20 22  1  0
 22 23  1  0
 23 24  1  0
 24 25  2  0
 24 26  1  0
 26 27  2  0
 27 28  1  0
 27 29  1  0
 29 30  1  0
 29 31  2  0
 31 32  1  0
 31 33  1  0
 33 34  1  0
 33 35  2  0
 35 36  1  0
  2 37  1  0
 37 38  2  0
 38 39  1  0
 38 40  1  0
 40 41  1  0
 40 42  2  0
 42 43  1  0
 42 44  1  0
 44 45  1  0
 44 46  2  0
 46 47  1  0
 22  4  1  0
 35 26  1  0
 46 37  1  0
 18  9  1  0
M  CHG  5  15  -1  17  -1  21  -1  23  -1  47  -1
M  END
>  <UniqueID>  (14) 
14

>  <SMILES>  (14) 
N#Cc1c(-c2ccc([O-])c([O-])c2)c([O-])n([N-]C(=O)c2ccccc2)c1/N=C\c1ccccc1[O-]

>  <Energy>  (14) 
100.66436184279274

>  <Genealogy>  (14) 
N#Cc1c(-c2ccc([O-])c([O-])c2)c([O-])n([N-]C(=O)c2ccccc2)c1N=Cc1ccccc1[O-] (protonated)
N#Cc1c(-c2ccc([O-])c([O-])c2)c([O-])n([N-]C(=O)c2ccccc2)c1/N=C\c1ccccc1[O-] (cis-trans isomerization)
N#Cc1c(-c2ccc([O-])c([O-])c2)c([O-])n([N-]C(=O)c2ccccc2)c1/N=C\c1ccccc1[O-] (3D coordinates assigned)
N#Cc1c(-c2ccc([O-])c([O-])c2)c([O-])n([N-]C(=O)c2ccccc2)c1/N=C\c1ccccc1[O-] (optimized conformer: 100.66436184279274 kcal/mol)

>  <smiles>  (14) 
N#Cc1c(-c2ccc(O)c(O)c2)c(O)n(NC(=O)c2ccccc2)c1N=Cc1ccccc1O

>  <score_type>  (14) 
oracle

>  <origin>  (14) 
adgpu

>  <m_score__min__energy>  (14) 
-14.9

>  <m_primary>  (14) 
energy

$$$$
14:0
     RDKit          3D

 49 51  0  0  0  0  0  0  0  0999 V2000
   -1.6050   16.1190  -32.8090 C   0  0  0  0  0  0  0  0  0  0  0  0
   -1.2270   17.8580  -32.8650 S   0  0  0  0  0  0  0  0  0  0  0  0
   -1.3540   18.3390  -34.2840 O   0  0  0  0  0  0  0  0  0  0  0  0
   -2.2230   18.5870  -32.0070 O   0  0  0  0  0  0  0  0  0  0  0  0
    0.3940   18.1300  -32.2640 N   0  0  0  0  0  0  0  0  0  0  0  0
    0.7370   19.5750  -32.2280 C   0  0  0  0  0  0  0  0  0  0  0  0
    0.9800   20.1320  -30.8150 C   0  0  0  0  0  0  0  0  0  0  0  0
    0.0380   19.5350  -29.8650 N   0  0  0  0  0  0  0  0  0  0  0  0
   -0.5750   20.3330  -28.8370 C   0  0  0  0  0  0  0  0  0  0  0  0
   -0.5790   19.9120  -27.6480 O   0  0  0  0  0  0  0  0  0  0  0  0
   -1.2250   21.6270  -29.1480 C   0  0  0  0  0  0  0  0  0  0  0  0
   -0.8950   22.7810  -28.4170 C   0  0  0  0  0  0  0  0  0  0  0  0
   -1.5220   23.9990  -28.6980 C   0  0  0  0  0  0  0  0  0  0  0  0
   -2.4890   24.0770  -29.7050 C   0  0  0  0  0  0  0  0  0  0  0  0
   -3.1130   25.2910  -29.9660 O   0  0  0  0  0  0  0  0  0  0  0  0
   -2.8270   22.9310  -30.4380 C   0  0  0  0  0  0  0  0  0  0  0  0
   -3.8190   22.9890  -31.4600 N   0  0  0  0  0  0  0  0  0  0  0  0
   -3.8330   21.8710  -32.7810 S   0  0  0  0  0  0  0  0  0  0  0  0
   -3.8740   22.6560  -34.0620 O   0  0  0  0  0  0  0  0  0  0  0  0
   -2.5720   21.0520  -32.7890 O   0  0  0  0  0  0  0  0  0  0  0  0
   -5.2660   20.8340  -32.6840 C   0  0  0  0  0  0  0  0  0  0  0  0
   -6.4300   21.3590  -32.0950 C   0  0  0  0  0  0  0  0  0  0  0  0
   -7.5980   20.5990  -32.0200 C   0  0  0  0  0  0  0  0  0  0  0  0
   -9.0400   21.2740  -31.2830 Cl  0  0  0  0  0  0  0  0  0  0  0  0
   -7.6190   19.3010  -32.5290 C   0  0  0  0  0  0  0  0  0  0  0  0
   -6.4680   18.7520  -33.0970 C   0  0  0  0  0  0  0  0  0  0  0  0
   -6.5160   17.0990  -33.6930 Cl  0  0  0  0  0  0  0  0  0  0  0  0
   -5.2840   19.5030  -33.1740 C   0  0  0  0  0  0  0  0  0  0  0  0
   -4.1560   18.8940  -33.7300 O   0  0  0  0  0  0  0  0  0  0  0  0
   -2.2050   21.7120  -30.1510 C   0  0  0  0  0  0  0  0  0  0  0  0
   -0.0810   18.0750  -29.8080 C   0  0  0  0  0  0  0  0  0  0  0  0
    0.6360   17.4140  -30.9960 C   0  0  0  0  0  0  0  0  0  0  0  0
   -1.6759   15.7928  -31.7609 H   0  0  0  0  0  0  0  0  0  0  0  0
   -2.5640   15.9357  -33.3158 H   0  0  0  0  0  0  0  0  0  0  0  0
   -0.8087   15.5542  -33.3158 H   0  0  0  0  0  0  0  0  0  0  0  0
    1.6513   19.7271  -32.8204 H   0  0  0  0  0  0  0  0  0  0  0  0
   -0.1304   20.1153  -32.6351 H   0  0  0  0  0  0  0  0  0  0  0  0
    2.0082   19.8959  -30.5036 H   0  0  0  0  0  0  0  0  0  0  0  0
    0.8319   21.2219  -30.8293 H   0  0  0  0  0  0  0  0  0  0  0  0
   -0.1394   22.7259  -27.6195 H   0  0  0  0  0  0  0  0  0  0  0  0
   -1.2536   24.8987  -28.1249 H   0  0  0  0  0  0  0  0  0  0  0  0
   -6.4197   22.3811  -31.6885 H   0  0  0  0  0  0  0  0  0  0  0  0
   -8.5445   18.7083  -32.4829 H   0  0  0  0  0  0  0  0  0  0  0  0
   -3.2100   19.1880  -33.5470 H   0  0  0  0  0  0  0  0  0  0  0  0
   -2.4857   20.8109  -30.7160 H   0  0  0  0  0  0  0  0  0  0  0  0
    0.3688   17.7143  -28.8712 H   0  0  0  0  0  0  0  0  0  0  0  0
   -1.1476   17.8097  -29.8524 H   0  0  0  0  0  0  0  0  0  0  0  0
    1.7176   17.4044  -30.7958 H   0  0  0  0  0  0  0  0  0  0  0  0
    0.2389   16.3939  -31.1040 H   0  0  0  0  0  0  0  0  0  0  0  0
  1  2  1  0
  2  3  2  0
  2  4  2  0
  2  5  1  0
  5  6  1  0
  6  7  1  0
  7  8  1  0
  8  9  1  0
  9 10  2  0
  9 11  1  0
 11 12  2  0
 12 13  1  0
 13 14  2  0
 14 15  1  0
 14 16  1  0
 16 17  1  0
 17 18  1  0
 18 19  2  0
 18 20  2  0
 18 21  1  0
 21 22  2  0
 22 23  1  0
 23 24  1  0
 23 25  2  0
 25 26  1  0
 26 27  1  0
 26 28  2  0
 28 29  1  0
 16 30  2  0
  8 31  1  0
 31 32  1  0
 32  5  1  0
 30 11  1  0
 28 21  1  0
  1 33  1  0
  1 34  1  0
  1 35  1  0
  6 36  1  0
  6 37  1  0
  7 38  1  0
  7 39  1  0
 12 40  1  0
 13 41  1  0
 22 42  1  0
 25 43  1  0
 29 44  1  0
 30 45  1  0
 31 46  1  0
 31 47  1  0
 32 48  1  0
 32 49  1  0
M  CHG  2  15  -1  17  -1
M  END
>  <UniqueID>  (15) 
15

>  <SMILES>  (15) 
CS(=O)(=O)N1CCN(C(=O)c2ccc([O-])c([N-]S(=O)(=O)c3cc(Cl)cc(Cl)c3O)c2)CC1

>  <Energy>  (15) 
63.97296458525696

>  <Genealogy>  (15) 
CS(=O)(=O)N1CCN(C(=O)c2ccc([O-])c([N-]S(=O)(=O)c3cc(Cl)cc(Cl)c3O)c2)CC1 (protonated)
CS(=O)(=O)N1CCN(C(=O)c2ccc([O-])c([N-]S(=O)(=O)c3cc(Cl)cc(Cl)c3O)c2)CC1 (3D coordinates assigned)
CS(=O)(=O)N1CCN(C(=O)c2ccc([O-])c([N-]S(=O)(=O)c3cc(Cl)cc(Cl)c3O)c2)CC1 (nonaromatic ring conformer: 63.97296458525696 kcal/mol)

>  <smiles>  (15) 
CS(=O)(=O)N1CCN(C(=O)c2ccc(O)c(NS(=O)(=O)c3cc(Cl)cc(Cl)c3O)c2)CC1

>  <score_type>  (15) 
oracle

>  <origin>  (15) 
adgpu

>  <m_score__min__energy>  (15) 
-12.970000000000001

>  <m_primary>  (15) 
energy

$$$$
15:0
     RDKit          3D

 67 70  0  0  0  0  0  0  0  0999 V2000
   -6.1360   17.4480  -31.1720 C   0  0  0  0  0  0  0  0  0  0  0  0
   -6.9720   17.5790  -32.3790 N   0  0  0  0  0  0  0  0  0  0  0  0
   -6.1450   17.8040  -33.5950 C   0  0  0  0  0  0  0  0  0  0  0  0
   -6.2490   19.2290  -34.1700 C   0  0  0  0  0  0  0  0  0  0  0  0
   -6.3860   20.2040  -33.0810 N   0  0  0  0  0  0  0  0  0  0  0  0
   -5.3930   21.2300  -32.8580 C   0  0  0  0  0  0  0  0  0  0  0  0
   -4.2490   21.1300  -33.3930 O   0  0  0  0  0  0  0  0  0  0  0  0
   -5.6810   22.3990  -32.0030 C   0  0  0  0  0  0  0  0  0  0  0  0
   -6.9990   22.7040  -31.6340 C   0  0  0  0  0  0  0  0  0  0  0  0
   -7.2710   23.8690  -30.9010 C   0  0  0  0  0  0  0  0  0  0  0  0
   -6.2230   24.7210  -30.5200 C   0  0  0  0  0  0  0  0  0  0  0  0
   -4.9010   24.3950  -30.8490 C   0  0  0  0  0  0  0  0  0  0  0  0
   -3.8280   25.2470  -30.4300 N   0  0  0  0  0  0  0  0  0  0  0  0
   -2.9510   24.9040  -29.3550 C   0  0  0  0  0  0  0  0  0  0  0  0
   -3.3650   24.1930  -28.4020 O   0  0  0  0  0  0  0  0  0  0  0  0
   -1.6150   25.4120  -29.3120 N   0  0  0  0  0  0  0  0  0  0  0  0
   -0.7560   25.3860  -28.1650 C   0  0  0  0  0  0  0  0  0  0  0  0
   -0.5980   26.5240  -27.3550 C   0  0  0  0  0  0  0  0  0  0  0  0
    0.3740   26.5440  -26.3580 C   0  0  0  0  0  0  0  0  0  0  0  0
    1.2310   25.4560  -26.2190 C   0  0  0  0  0  0  0  0  0  0  0  0
    1.0520   24.3500  -26.9870 N   0  0  0  0  0  0  0  0  0  0  0  0
    0.0650   24.2550  -27.9180 C   0  0  0  0  0  0  0  0  0  0  0  0
   -0.0960   23.0190  -28.5770 O   0  0  0  0  0  0  0  0  0  0  0  0
   -0.7470   21.8920  -28.0500 C   0  0  0  0  0  0  0  0  0  0  0  0
   -0.9190   21.8060  -26.6570 C   0  0  0  0  0  0  0  0  0  0  0  0
   -1.5070   20.6890  -26.0710 C   0  0  0  0  0  0  0  0  0  0  0  0
   -1.9880   19.6610  -26.8810 C   0  0  0  0  0  0  0  0  0  0  0  0
   -1.9190   19.7670  -28.2740 C   0  0  0  0  0  0  0  0  0  0  0  0
   -1.3250   20.8940  -28.9000 C   0  0  0  0  0  0  0  0  0  0  0  0
   -1.3160   21.0440  -30.4470 C   0  0  0  0  0  0  0  0  0  0  0  0
   -1.6200   22.5150  -30.8210 C   0  0  0  0  0  0  0  0  0  0  0  0
   -2.3720   20.0930  -31.1000 C   0  0  0  0  0  0  0  0  0  0  0  0
    0.0630   20.7020  -31.0830 C   0  0  0  0  0  0  0  0  0  0  0  0
   -4.6380   23.2330  -31.5920 C   0  0  0  0  0  0  0  0  0  0  0  0
   -7.4730   20.0100  -32.1120 C   0  0  0  0  0  0  0  0  0  0  0  0
   -8.0400   18.5830  -32.1980 C   0  0  0  0  0  0  0  0  0  0  0  0
   -6.7670   17.5469  -30.2764 H   0  0  0  0  0  0  0  0  0  0  0  0
   -5.6476   16.4624  -31.1694 H   0  0  0  0  0  0  0  0  0  0  0  0
   -5.3695   18.2370  -31.1694 H   0  0  0  0  0  0  0  0  0  0  0  0
   -5.0930   17.6108  -33.3382 H   0  0  0  0  0  0  0  0  0  0  0  0
   -6.5252   17.1207  -34.3687 H   0  0  0  0  0  0  0  0  0  0  0  0
   -5.3411   19.4550  -34.7485 H   0  0  0  0  0  0  0  0  0  0  0  0
   -7.1332   19.2906  -34.8215 H   0  0  0  0  0  0  0  0  0  0  0  0
   -7.8199   22.0297  -31.9193 H   0  0  0  0  0  0  0  0  0  0  0  0
   -8.3069   24.1148  -30.6246 H   0  0  0  0  0  0  0  0  0  0  0  0
   -6.4396   25.6446  -29.9632 H   0  0  0  0  0  0  0  0  0  0  0  0
   -1.2439   27.4010  -27.5091 H   0  0  0  0  0  0  0  0  0  0  0  0
    0.4637   27.4110  -25.6870 H   0  0  0  0  0  0  0  0  0  0  0  0
    2.0523   25.4918  -25.4881 H   0  0  0  0  0  0  0  0  0  0  0  0
   -0.5827   22.6366  -26.0190 H   0  0  0  0  0  0  0  0  0  0  0  0
   -1.5917   20.6176  -24.9766 H   0  0  0  0  0  0  0  0  0  0  0  0
   -2.4242   18.7616  -26.4219 H   0  0  0  0  0  0  0  0  0  0  0  0
   -2.3334   18.9607  -28.8970 H   0  0  0  0  0  0  0  0  0  0  0  0
   -1.7427   23.1088  -29.9032 H   0  0  0  0  0  0  0  0  0  0  0  0
   -0.7871   22.9225  -31.4128 H   0  0  0  0  0  0  0  0  0  0  0  0
   -2.5462   22.5590  -31.4128 H   0  0  0  0  0  0  0  0  0  0  0  0
   -2.9413   19.5803  -30.3107 H   0  0  0  0  0  0  0  0  0  0  0  0
   -3.0597   20.6823  -31.7243 H   0  0  0  0  0  0  0  0  0  0  0  0
   -1.8577   19.3475  -31.7243 H   0  0  0  0  0  0  0  0  0  0  0  0
    0.7991   20.5194  -30.2862 H   0  0  0  0  0  0  0  0  0  0  0  0
   -0.0340   19.8007  -31.7061 H   0  0  0  0  0  0  0  0  0  0  0  0
    0.3984   21.5442  -31.7061 H   0  0  0  0  0  0  0  0  0  0  0  0
   -3.6006   22.9767  -31.8531 H   0  0  0  0  0  0  0  0  0  0  0  0
   -7.0852   20.1824  -31.0972 H   0  0  0  0  0  0  0  0  0  0  0  0
   -8.2792   20.7219  -32.3427 H   0  0  0  0  0  0  0  0  0  0  0  0
   -8.5850   18.3597  -31.2690 H   0  0  0  0  0  0  0  0  0  0  0  0
   -8.7085   18.5324  -33.0701 H   0  0  0  0  0  0  0  0  0  0  0  0
  1  2  1  0
  2  3  1  0
  3  4  1  0
  4  5  1  0
  5  6  1  0
  6  7  2  0
  6  8  1  0
  8  9  2  0
  9 10  1  0
 10 11  2  0
 11 12  1  0
 12 13  1  0
 13 14  1  0
 14 15  2  0
 14 16  1  0
 16 17  1  0
 17 18  2  0
 18 19  1  0
 19 20  2  0
 20 21  1  0
 21 22  2  0
 22 23  1  0
 23 24  1  0
 24 25  2  0
 25 26  1  0
 26 27  2  0
 27 28  1  0
 28 29  2  0
 29 30  1  0
 30 31  1  0
 30 32  1  0
 30 33  1  0
 12 34  2  0
  5 35  1  0
 35 36  1  0
 36  2  1  0
 34  8  1  0
 22 17  1  0
 29 24  1  0
  1 37  1  0
  1 38  1  0
  1 39  1  0
  3 40  1  0
  3 41  1  0
  4 42  1  0
  4 43  1  0
  9 44  1  0
 10 45  1  0
 11 46  1  0
 18 47  1  0
 19 48  1  0
 20 49  1  0
 25 50  1  0
 26 51  1  0
 27 52  1  0
 28 53  1  0
 31 54  1  0
 31 55  1  0
 31 56  1  0
 32 57  1  0
 32 58  1  0
 32 59  1  0
 33 60  1  0
 33 61  1  0
 33 62  1  0
 34 63  1  0
 35 64  1  0
 35 65  1  0
 36 66  1  0
 36 67  1  0
M  CHG  2  13  -1  16  -1
M  END
>  <UniqueID>  (16) 
16

>  <SMILES>  (16) 
CN1CCN(C(=O)c2cccc([N-]C(=O)[N-]c3cccnc3Oc3ccccc3C(C)(C)C)c2)CC1

>  <Energy>  (16) 
121.15887274472833

>  <Genealogy>  (16) 
CN1CCN(C(=O)c2cccc([N-]C(=O)[N-]c3cccnc3Oc3ccccc3C(C)(C)C)c2)CC1 (protonated)
CN1CCN(C(=O)c2cccc([N-]C(=O)[N-]c3cccnc3Oc3ccccc3C(C)(C)C)c2)CC1 (3D coordinates assigned)
CN1CCN(C(=O)c2cccc([N-]C(=O)[N-]c3cccnc3Oc3ccccc3C(C)(C)C)c2)CC1 (nonaromatic ring conformer: 121.15887274472833 kcal/mol)

>  <smiles>  (16) 
CN1CCN(C(=O)c2cccc(NC(=O)Nc3cccnc3Oc3ccccc3C(C)(C)C)c2)CC1

>  <score_type>  (16) 
oracle

>  <origin>  (16) 
adgpu

>  <m_score__min__energy>  (16) 
-13.710000000000001

>  <m_primary>  (16) 
energy

$$$$
16:0
     RDKit          3D

 65 68  0  0  1  0  0  0  0  0999 V2000
    2.4680   29.2530  -21.6160 C   0  0  0  0  0  0  0  0  0  0  0  0
    1.4270   28.4090  -22.2300 N   0  0  0  0  0  0  0  0  0  0  0  0
    1.3650   28.6540  -23.9180 S   0  0  0  0  0  0  0  0  0  0  0  0
    0.7460   30.0070  -24.2190 O   0  0  0  0  0  0  0  0  0  0  0  0
    2.7620   28.6870  -24.5140 O   0  0  0  0  0  0  0  0  0  0  0  0
    0.4850   27.4070  -24.7780 C   0  0  0  0  0  0  0  0  0  0  0  0
   -0.8260   27.1950  -24.3910 C   0  0  0  0  0  0  0  0  0  0  0  0
   -1.5430   26.2460  -25.0710 C   0  0  0  0  0  0  0  0  0  0  0  0
   -1.0300   25.4930  -26.1190 C   0  0  0  0  0  0  0  0  0  0  0  0
   -1.8770   24.5370  -26.7710 N   0  0  0  0  0  0  0  0  0  0  0  0
   -2.2930   24.8840  -28.0830 C   0  0  0  0  0  0  0  0  0  0  0  0
   -1.8480   26.0050  -28.5050 O   0  0  0  0  0  0  0  0  0  0  0  0
   -3.1380   24.1150  -28.9480 C   0  0  0  0  0  0  0  0  0  0  0  0
   -3.7770   24.7980  -29.9910 C   0  0  0  0  0  0  0  0  0  0  0  0
   -4.6030   24.1740  -30.8490 N   0  0  0  0  0  0  0  0  0  0  0  0
   -4.8530   22.8670  -30.7440 C   0  0  0  0  0  0  0  0  0  0  0  0
   -5.7080   22.1990  -31.6390 N   0  0  0  0  0  0  0  0  0  0  0  0
   -5.3010   20.9940  -32.3620 C   0  0  0  0  0  0  0  0  0  0  0  0
   -6.4780   20.2490  -32.9100 C   0  0  0  0  0  0  0  0  0  0  0  0
   -7.6680   20.2990  -32.1350 N   0  0  0  0  0  0  0  0  0  0  0  0
   -8.7830   19.9590  -33.0150 C   0  0  0  0  0  0  0  0  0  0  0  0
   -7.9700   21.5390  -31.4990 C   0  0  0  0  0  0  0  0  0  0  0  0
   -7.0660   22.6660  -31.9310 C   0  0  0  0  0  0  0  0  0  0  0  0
   -4.2490   22.1960  -29.7520 N   0  0  0  0  0  0  0  0  0  0  0  0
   -3.4060   22.7780  -28.8600 C   0  0  0  0  0  0  0  0  0  0  0  0
   -2.8480   22.0920  -27.9300 N   0  0  0  0  0  0  0  0  0  0  0  0
   -3.1290   20.6770  -27.8360 C   0  0  0  0  0  0  0  0  0  0  0  0
   -1.8080   19.9650  -27.8340 C   0  0  0  0  0  0  0  0  0  0  0  0
   -1.6170   18.7690  -27.1690 C   0  0  0  0  0  0  0  0  0  0  0  0
   -0.3990   18.1200  -27.1810 C   0  0  0  0  0  0  0  0  0  0  0  0
    0.6790   18.6470  -27.8650 C   0  0  0  0  0  0  0  0  0  0  0  0
    1.9290   18.0250  -27.9030 O   0  0  0  0  0  0  0  0  0  0  0  0
    0.5140   19.8370  -28.5360 C   0  0  0  0  0  0  0  0  0  0  0  0
   -0.7060   20.4760  -28.5150 C   0  0  0  0  0  0  0  0  0  0  0  0
    0.2760   25.7210  -26.4840 C   0  0  0  0  0  0  0  0  0  0  0  0
    1.0330   26.6790  -25.8110 C   0  0  0  0  0  0  0  0  0  0  0  0
    2.3914   29.1909  -20.5204 H   0  0  0  0  0  0  0  0  0  0  0  0
    3.4603   28.9013  -21.9347 H   0  0  0  0  0  0  0  0  0  0  0  0
    2.3291   30.2966  -21.9347 H   0  0  0  0  0  0  0  0  0  0  0  0
    1.6770   27.3880  -22.0910 H   0  0  0  0  0  0  0  0  0  0  0  0
   -1.2766   27.7677  -23.5670 H   0  0  0  0  0  0  0  0  0  0  0  0
   -2.5861   26.0702  -24.7692 H   0  0  0  0  0  0  0  0  0  0  0  0
   -2.1800   23.6470  -26.3420 H   0  0  0  0  0  0  0  0  0  0  0  0
   -3.5977   25.8766  -30.1116 H   0  0  0  0  0  0  0  0  0  0  0  0
   -4.6439   21.2838  -33.1952 H   0  0  0  0  0  0  0  0  0  0  0  0
   -4.7770   20.3329  -31.6561 H   0  0  0  0  0  0  0  0  0  0  0  0
   -6.7061   20.6649  -33.9025 H   0  0  0  0  0  0  0  0  0  0  0  0
   -6.1778   19.1908  -32.9207 H   0  0  0  0  0  0  0  0  0  0  0  0
   -9.6606   19.6914  -32.4082 H   0  0  0  0  0  0  0  0  0  0  0  0
   -9.0260   20.8239  -33.6498 H   0  0  0  0  0  0  0  0  0  0  0  0
   -8.5021   19.1057  -33.6498 H   0  0  0  0  0  0  0  0  0  0  0  0
   -9.0079   21.8117  -31.7405 H   0  0  0  0  0  0  0  0  0  0  0  0
   -7.8199   21.3964  -30.4187 H   0  0  0  0  0  0  0  0  0  0  0  0
   -7.1832   22.8646  -33.0066 H   0  0  0  0  0  0  0  0  0  0  0  0
   -7.3001   23.6055  -31.4090 H   0  0  0  0  0  0  0  0  0  0  0  0
   -4.4640   21.1740  -29.6920 H   0  0  0  0  0  0  0  0  0  0  0  0
   -3.6753   20.4616  -26.9059 H   0  0  0  0  0  0  0  0  0  0  0  0
   -3.7523   20.3443  -28.6791 H   0  0  0  0  0  0  0  0  0  0  0  0
   -2.4568   18.3229  -26.6161 H   0  0  0  0  0  0  0  0  0  0  0  0
   -0.2852   17.1700  -26.6383 H   0  0  0  0  0  0  0  0  0  0  0  0
    1.9190   17.0170  -27.7290 H   0  0  0  0  0  0  0  0  0  0  0  0
    1.3564   20.2779  -29.0891 H   0  0  0  0  0  0  0  0  0  0  0  0
   -0.8141   21.4269  -29.0572 H   0  0  0  0  0  0  0  0  0  0  0  0
    0.7241   25.1467  -27.3082 H   0  0  0  0  0  0  0  0  0  0  0  0
    2.0775   26.8551  -26.1077 H   0  0  0  0  0  0  0  0  0  0  0  0
  1  2  1  0
  2  3  1  0
  3  4  2  0
  3  5  2  0
  3  6  1  0
  6  7  2  0
  7  8  1  0
  8  9  2  0
  9 10  1  0
 10 11  1  0
 11 12  2  0
 11 13  1  0
 13 14  2  0
 14 15  1  0
 15 16  2  0
 16 17  1  0
 17 18  1  0
 18 19  1  0
 19 20  1  0
 20 21  1  0
 20 22  1  0
 22 23  1  0
 16 24  1  0
 24 25  1  0
 25 26  2  0
 26 27  1  0
 27 28  1  0
 28 29  2  0
 29 30  1  0
 30 31  2  0
 31 32  1  0
 31 33  1  0
 33 34  2  0
  9 35  1  0
 35 36  2  0
 36  6  1  0
 25 13  1  0
 34 28  1  0
 23 17  1  0
  1 37  1  0
  1 38  1  0
  1 39  1  0
  2 40  1  0
  7 41  1  0
  8 42  1  0
 10 43  1  0
 14 44  1  0
 18 45  1  0
 18 46  1  0
 19 47  1  0
 19 48  1  0
 21 49  1  0
 21 50  1  0
 21 51  1  0
 22 52  1  0
 22 53  1  0
 23 54  1  0
 23 55  1  0
 24 56  1  0
 27 57  1  0
 27 58  1  0
 29 59  1  0
 30 60  1  0
 32 61  1  0
 33 62  1  0
 34 63  1  0
 35 64  1  0
 36 65  1  0
M  END
>  <smiles>  (17) 
CNS(=O)(=O)c1ccc(NC(=O)c2cnc(N3CCN(C)CC3)[nH]c2=NCc2ccc(O)cc2)cc1

>  <score_type>  (17) 
oracle

>  <origin>  (17) 
adgpu

>  <m_score__min__energy>  (17) 
-9.0800000000000001

>  <m_primary>  (17) 
energy

$$$$
17:0
     RDKit          3D

 45 47  0  0  0  0  0  0  0  0999 V2000
   -6.8050   17.8130  -31.2540 C   0  0  0  0  0  0  0  0  0  0  0  0
   -8.0480   18.4450  -31.8040 C   0  0  0  0  0  0  0  0  0  0  0  0
   -9.1440   18.2570  -31.2130 O   0  0  0  0  0  0  0  0  0  0  0  0
   -8.0260   19.2610  -32.9830 N   0  0  0  0  0  0  0  0  0  0  0  0
   -6.8480   19.9320  -33.5310 C   0  0  0  0  0  0  0  0  0  0  0  0
   -6.4860   21.1270  -32.6910 C   0  0  0  0  0  0  0  0  0  0  0  0
   -5.1420   21.4880  -32.4980 C   0  0  0  0  0  0  0  0  0  0  0  0
   -4.8180   22.6060  -31.7230 C   0  0  0  0  0  0  0  0  0  0  0  0
   -5.8310   23.3650  -31.1210 C   0  0  0  0  0  0  0  0  0  0  0  0
   -5.4410   24.7670  -30.1310 S   0  0  0  0  0  0  0  0  0  0  0  0
   -4.4560   25.6620  -30.8280 O   0  0  0  0  0  0  0  0  0  0  0  0
   -6.7010   25.5500  -29.8780 O   0  0  0  0  0  0  0  0  0  0  0  0
   -4.7890   24.2400  -28.6130 N   0  0  0  0  0  0  0  0  0  0  0  0
   -3.6260   23.4150  -28.4450 C   0  0  0  0  0  0  0  0  0  0  0  0
   -3.7050   22.1240  -27.8910 C   0  0  0  0  0  0  0  0  0  0  0  0
   -2.5520   21.3370  -27.7470 C   0  0  0  0  0  0  0  0  0  0  0  0
   -1.2980   21.8580  -28.1260 C   0  0  0  0  0  0  0  0  0  0  0  0
   -1.2190   23.1480  -28.6670 C   0  0  0  0  0  0  0  0  0  0  0  0
   -2.3750   23.9250  -28.8230 C   0  0  0  0  0  0  0  0  0  0  0  0
   -2.2850   25.2130  -29.3520 O   0  0  0  0  0  0  0  0  0  0  0  0
   -0.0520   21.0040  -28.0500 C   0  0  0  0  0  0  0  0  0  0  0  0
   -0.1940   19.8870  -27.1050 N   0  0  0  0  0  0  0  0  0  0  0  0
   -1.4180   19.1240  -27.3840 C   0  0  0  0  0  0  0  0  0  0  0  0
   -2.6620   19.9760  -27.1140 C   0  0  0  0  0  0  0  0  0  0  0  0
   -7.1720   23.0020  -31.3050 C   0  0  0  0  0  0  0  0  0  0  0  0
   -7.4990   21.8940  -32.0900 C   0  0  0  0  0  0  0  0  0  0  0  0
   -6.8402   17.8309  -30.1547 H   0  0  0  0  0  0  0  0  0  0  0  0
   -6.7384   16.7716  -31.6018 H   0  0  0  0  0  0  0  0  0  0  0  0
   -5.9243   18.3728  -31.6018 H   0  0  0  0  0  0  0  0  0  0  0  0
   -6.0028   19.2281  -33.5429 H   0  0  0  0  0  0  0  0  0  0  0  0
   -7.0734   20.2698  -34.5533 H   0  0  0  0  0  0  0  0  0  0  0  0
   -4.3420   20.8893  -32.9580 H   0  0  0  0  0  0  0  0  0  0  0  0
   -3.7645   22.8908  -31.5853 H   0  0  0  0  0  0  0  0  0  0  0  0
   -4.6791   21.7281  -27.5679 H   0  0  0  0  0  0  0  0  0  0  0  0
   -0.2430   23.5538  -28.9714 H   0  0  0  0  0  0  0  0  0  0  0  0
   -3.0980   25.6940  -29.7220 H   0  0  0  0  0  0  0  0  0  0  0  0
    0.1581   20.5962  -29.0498 H   0  0  0  0  0  0  0  0  0  0  0  0
    0.7702   21.6419  -27.6935 H   0  0  0  0  0  0  0  0  0  0  0  0
   -0.2400   20.2700  -26.1320 H   0  0  0  0  0  0  0  0  0  0  0  0
   -1.4162   18.8121  -28.4389 H   0  0  0  0  0  0  0  0  0  0  0  0
   -1.4432   18.2436  -26.7251 H   0  0  0  0  0  0  0  0  0  0  0  0
   -3.5428   19.4614  -27.5256 H   0  0  0  0  0  0  0  0  0  0  0  0
   -2.7566   20.1101  -26.0263 H   0  0  0  0  0  0  0  0  0  0  0  0
   -7.9697   23.5916  -30.8296 H   0  0  0  0  0  0  0  0  0  0  0  0
   -8.5540   21.6204  -32.2386 H   0  0  0  0  0  0  0  0  0  0  0  0
  1  2  1  0
  2  3  2  0
  2  4  1  0
  4  5  1  0
  5  6  1  0
  6  7  2  0
  7  8  1  0
  8  9  2  0
  9 10  1  0
 10 11  2  0
 10 12  2  0
 10 13  1  0
 13 14  1  0
 14 15  2  0
 15 16  1  0
 16 17  2  0
 17 18  1  0
 18 19  2  0
 19 20  1  0
 17 21  1  0
 21 22  1  0
 22 23  1  0
 23 24  1  0
  9 25  1  0
 25 26  2  0
 26  6  1  0
 19 14  1  0
 24 16  1  0
  1 27  1  0
  1 28  1  0
  1 29  1  0
  5 30  1  0
  5 31  1  0
  7 32  1  0
  8 33  1  0
 15 34  1  0
 18 35  1  0
 20 36  1  0
 21 37  1  0
 21 38  1  0
 22 39  1  0
 23 40  1  0
 23 41  1  0
 24 42  1  0
 24 43  1  0
 25 44  1  0
 26 45  1  0
M  CHG  2   4  -1  13  -1
M  END
>  <UniqueID>  (18) 
17

>  <SMILES>  (18) 
CC(=O)[N-]Cc1ccc(S(=O)(=O)[N-]c2cc3c(cc2O)CNCC3)cc1

>  <Energy>  (18) 
47.974112260859926

>  <Genealogy>  (18) 
CC(=O)[N-]Cc1ccc(S(=O)(=O)[N-]c2cc3c(cc2O)CNCC3)cc1 (protonated)
CC(=O)[N-]Cc1ccc(S(=O)(=O)[N-]c2cc3c(cc2O)CNCC3)cc1 (3D coordinates assigned)
CC(=O)[N-]Cc1ccc(S(=O)(=O)[N-]c2cc3c(cc2O)CNCC3)cc1 (nonaromatic ring conformer: 47.974112260859926 kcal/mol)

>  <smiles>  (18) 
CC(=O)NCc1ccc(S(=O)(=O)Nc2cc3c(cc2O)CNCC3)cc1

>  <score_type>  (18) 
oracle

>  <origin>  (18) 
adgpu

>  <m_score__min__energy>  (18) 
-11.25

>  <m_primary>  (18) 
energy

$$$$
18:0
     RDKit          3D

 38 40  0  0  0  0  0  0  0  0999 V2000
   -7.2100   17.0150  -33.1150 C   0  0  0  0  0  0  0  0  0  0  0  0
   -7.6450   18.3360  -32.5760 C   0  0  0  0  0  0  0  0  0  0  0  0
   -8.9370   18.6740  -32.2100 C   0  0  0  0  0  0  0  0  0  0  0  0
   -8.8510   20.0010  -31.8440 C   0  0  0  0  0  0  0  0  0  0  0  0
   -7.5780   20.4020  -32.0080 N   0  0  0  0  0  0  0  0  0  0  0  0
   -6.9710   21.9850  -31.6700 S   0  0  0  0  0  0  0  0  0  0  0  0
   -7.3830   22.4000  -30.2850 O   0  0  0  0  0  0  0  0  0  0  0  0
   -7.5520   22.9640  -32.6520 O   0  0  0  0  0  0  0  0  0  0  0  0
   -5.2170   21.9740  -31.7990 C   0  0  0  0  0  0  0  0  0  0  0  0
   -4.5900   21.3900  -32.9080 C   0  0  0  0  0  0  0  0  0  0  0  0
   -3.1960   21.3540  -32.9870 C   0  0  0  0  0  0  0  0  0  0  0  0
   -2.4200   21.9000  -31.9620 C   0  0  0  0  0  0  0  0  0  0  0  0
   -3.0330   22.5000  -30.8490 C   0  0  0  0  0  0  0  0  0  0  0  0
   -2.1900   23.0450  -29.7590 C   0  0  0  0  0  0  0  0  0  0  0  0
   -1.3250   22.2260  -29.1610 O   0  0  0  0  0  0  0  0  0  0  0  0
   -0.5250   22.6090  -28.1690 C   0  0  0  0  0  0  0  0  0  0  0  0
    0.4020   21.6110  -27.5450 C   0  0  0  0  0  0  0  0  0  0  0  0
    0.3950   20.4190  -28.2800 O   0  0  0  0  0  0  0  0  0  0  0  0
   -0.5720   23.9270  -27.7000 C   0  0  0  0  0  0  0  0  0  0  0  0
   -1.4490   24.8260  -28.3060 C   0  0  0  0  0  0  0  0  0  0  0  0
   -1.4970   26.0220  -27.9110 O   0  0  0  0  0  0  0  0  0  0  0  0
   -2.2650   24.3930  -29.3530 C   0  0  0  0  0  0  0  0  0  0  0  0
   -3.1080   25.2970  -29.9930 O   0  0  0  0  0  0  0  0  0  0  0  0
   -4.4370   22.5150  -30.7670 C   0  0  0  0  0  0  0  0  0  0  0  0
   -6.8340   19.4050  -32.4570 N   0  0  0  0  0  0  0  0  0  0  0  0
   -6.9858   16.3343  -32.2805 H   0  0  0  0  0  0  0  0  0  0  0  0
   -8.0148   16.5873  -33.7310 H   0  0  0  0  0  0  0  0  0  0  0  0
   -6.3086   17.1492  -33.7310 H   0  0  0  0  0  0  0  0  0  0  0  0
   -9.8291   18.0305  -32.2109 H   0  0  0  0  0  0  0  0  0  0  0  0
   -9.6812   20.6243  -31.4804 H   0  0  0  0  0  0  0  0  0  0  0  0
   -5.1970   20.9591  -33.7179 H   0  0  0  0  0  0  0  0  0  0  0  0
   -2.7078   20.8943  -33.8590 H   0  0  0  0  0  0  0  0  0  0  0  0
   -1.3226   21.8601  -32.0264 H   0  0  0  0  0  0  0  0  0  0  0  0
    1.4220   22.0225  -27.5297 H   0  0  0  0  0  0  0  0  0  0  0  0
    0.0661   21.4018  -26.5186 H   0  0  0  0  0  0  0  0  0  0  0  0
   -0.3000   20.5240  -28.9820 H   0  0  0  0  0  0  0  0  0  0  0  0
    0.0717   24.2480  -26.8678 H   0  0  0  0  0  0  0  0  0  0  0  0
   -4.9272   22.9548  -29.8859 H   0  0  0  0  0  0  0  0  0  0  0  0
  1  2  1  0
  2  3  1  0
  3  4  2  0
  4  5  1  0
  5  6  1  0
  6  7  2  0
  6  8  2  0
  6  9  1  0
  9 10  2  0
 10 11  1  0
 11 12  2  0
 12 13  1  0
 13 14  1  0
 14 15  1  0
 15 16  1  0
 16 17  1  0
 17 18  1  0
 16 19  2  0
 19 20  1  0
 20 21  2  0
 20 22  1  0
 22 23  1  0
 13 24  2  0
  5 25  1  0
 25  2  2  0
 24  9  1  0
 22 14  2  0
  1 26  1  0
  1 27  1  0
  1 28  1  0
  3 29  1  0
  4 30  1  0
 10 31  1  0
 11 32  1  0
 12 33  1  0
 17 34  1  0
 17 35  1  0
 18 36  1  0
 19 37  1  0
 24 38  1  0
M  CHG  1  23  -1
M  END
>  <UniqueID>  (19) 
18

>  <SMILES>  (19) 
Cc1ccn(S(=O)(=O)c2cccc(-c3oc(CO)cc(=O)c3[O-])c2)n1

>  <Energy>  (19) 
76.63537931896202

>  <Genealogy>  (19) 
Cc1ccn(S(=O)(=O)c2cccc(-c3oc(CO)cc(=O)c3[O-])c2)n1 (protonated)
Cc1ccn(S(=O)(=O)c2cccc(-c3oc(CO)cc(=O)c3[O-])c2)n1 (3D coordinates assigned)
Cc1ccn(S(=O)(=O)c2cccc(-c3oc(CO)cc(=O)c3[O-])c2)n1 (optimized conformer: 76.63537931896202 kcal/mol)

>  <smiles>  (19) 
Cc1ccn(S(=O)(=O)c2cccc(-c3oc(CO)cc(=O)c3O)c2)n1

>  <score_type>  (19) 
oracle

>  <origin>  (19) 
adgpu

>  <m_score__min__energy>  (19) 
-10.960000000000001

>  <m_primary>  (19) 
energy

$$$$
19:0
     RDKit          3D

 61 64  0  0  0  0  0  0  0  0999 V2000
   -0.8480   17.0880  -33.0090 C   0  0  0  0  0  0  0  0  0  0  0  0
   -0.6860   18.5130  -33.3230 N   0  0  0  0  0  0  0  0  0  0  0  0
   -0.3420   18.9300  -34.6630 C   0  0  0  0  0  0  0  0  0  0  0  0
   -0.1820   18.0820  -35.5840 O   0  0  0  0  0  0  0  0  0  0  0  0
   -0.1060   20.3810  -34.9600 C   0  0  0  0  0  0  0  0  0  0  0  0
   -1.0400   21.2590  -34.1220 C   0  0  0  0  0  0  0  0  0  0  0  0
   -0.9880   20.8790  -32.6640 C   0  0  0  0  0  0  0  0  0  0  0  0
   -1.1650   21.8630  -31.6770 C   0  0  0  0  0  0  0  0  0  0  0  0
   -1.1310   21.5170  -30.3210 C   0  0  0  0  0  0  0  0  0  0  0  0
   -1.2530   22.7620  -29.0800 S   0  0  0  0  0  0  0  0  0  0  0  0
   -0.3860   23.9380  -29.4350 O   0  0  0  0  0  0  0  0  0  0  0  0
   -0.7840   22.1900  -27.7730 O   0  0  0  0  0  0  0  0  0  0  0  0
   -2.8890   23.3110  -28.9010 N   0  0  0  0  0  0  0  0  0  0  0  0
   -3.8530   23.2480  -29.9670 C   0  0  0  0  0  0  0  0  0  0  0  0
   -4.3470   22.0150  -30.4250 C   0  0  0  0  0  0  0  0  0  0  0  0
   -5.3160   21.9590  -31.4410 C   0  0  0  0  0  0  0  0  0  0  0  0
   -5.8970   20.6570  -31.8400 C   0  0  0  0  0  0  0  0  0  0  0  0
   -6.7340   20.0970  -31.0760 O   0  0  0  0  0  0  0  0  0  0  0  0
   -5.5070   20.0090  -33.0650 N   0  0  0  0  0  0  0  0  0  0  0  0
   -4.0880   19.9310  -33.4380 C   0  0  0  0  0  0  0  0  0  0  0  0
   -3.7720   18.5710  -34.0800 C   0  0  0  0  0  0  0  0  0  0  0  0
   -4.6550   17.5350  -33.5030 N   0  0  0  0  0  0  0  0  0  0  0  0
   -4.2040   16.1760  -33.8670 C   0  0  0  0  0  0  0  0  0  0  0  0
   -4.3680   15.2050  -32.6910 C   0  0  0  0  0  0  0  0  0  0  0  0
   -5.0710   15.8180  -31.6430 O   0  0  0  0  0  0  0  0  0  0  0  0
   -6.0540   17.7530  -33.9350 C   0  0  0  0  0  0  0  0  0  0  0  0
   -6.4830   19.2320  -33.8380 C   0  0  0  0  0  0  0  0  0  0  0  0
   -5.7730   23.1530  -32.0190 C   0  0  0  0  0  0  0  0  0  0  0  0
   -5.2840   24.3830  -31.5740 C   0  0  0  0  0  0  0  0  0  0  0  0
   -4.3370   24.4350  -30.5460 C   0  0  0  0  0  0  0  0  0  0  0  0
   -3.8670   25.6730  -30.1170 O   0  0  0  0  0  0  0  0  0  0  0  0
   -0.9560   20.1790  -29.9510 C   0  0  0  0  0  0  0  0  0  0  0  0
   -0.8130   19.1900  -30.9270 C   0  0  0  0  0  0  0  0  0  0  0  0
   -0.8340   19.5220  -32.2950 C   0  0  0  0  0  0  0  0  0  0  0  0
   -0.8634   16.9525  -31.9175 H   0  0  0  0  0  0  0  0  0  0  0  0
   -1.7934   16.7234  -33.4371 H   0  0  0  0  0  0  0  0  0  0  0  0
   -0.0086   16.5205  -33.4371 H   0  0  0  0  0  0  0  0  0  0  0  0
    0.9380   20.6339  -34.7229 H   0  0  0  0  0  0  0  0  0  0  0  0
   -0.3077   20.5633  -36.0259 H   0  0  0  0  0  0  0  0  0  0  0  0
   -0.7352   22.3105  -34.2293 H   0  0  0  0  0  0  0  0  0  0  0  0
   -2.0691   21.1132  -34.4821 H   0  0  0  0  0  0  0  0  0  0  0  0
   -1.3310   22.9099  -31.9710 H   0  0  0  0  0  0  0  0  0  0  0  0
   -3.1060   23.8680  -28.0460 H   0  0  0  0  0  0  0  0  0  0  0  0
   -3.9702   21.0812  -29.9823 H   0  0  0  0  0  0  0  0  0  0  0  0
   -3.8583   20.7320  -34.1561 H   0  0  0  0  0  0  0  0  0  0  0  0
   -3.4759   20.0462  -32.5313 H   0  0  0  0  0  0  0  0  0  0  0  0
   -3.9382   18.6309  -35.1657 H   0  0  0  0  0  0  0  0  0  0  0  0
   -2.7221   18.3083  -33.8830 H   0  0  0  0  0  0  0  0  0  0  0  0
   -4.8018   15.8149  -34.7168 H   0  0  0  0  0  0  0  0  0  0  0  0
   -3.1382   16.2223  -34.1352 H   0  0  0  0  0  0  0  0  0  0  0  0
   -4.9230   14.3174  -33.0289 H   0  0  0  0  0  0  0  0  0  0  0  0
   -3.3713   14.9132  -32.3285 H   0  0  0  0  0  0  0  0  0  0  0  0
   -4.9930   16.8000  -31.7800 H   0  0  0  0  0  0  0  0  0  0  0  0
   -6.1549   17.4250  -34.9801 H   0  0  0  0  0  0  0  0  0  0  0  0
   -6.7037   17.1736  -33.2626 H   0  0  0  0  0  0  0  0  0  0  0  0
   -6.5574   19.6530  -34.8515 H   0  0  0  0  0  0  0  0  0  0  0  0
   -7.4568   19.2836  -33.3290 H   0  0  0  0  0  0  0  0  0  0  0  0
   -6.5196   23.1201  -32.8261 H   0  0  0  0  0  0  0  0  0  0  0  0
   -5.6450   25.3148  -32.0338 H   0  0  0  0  0  0  0  0  0  0  0  0
   -0.9309   19.9045  -28.8861 H   0  0  0  0  0  0  0  0  0  0  0  0
   -0.6826   18.1408  -30.6236 H   0  0  0  0  0  0  0  0  0  0  0  0
  1  2  1  0
  2  3  1  0
  3  4  2  0
  3  5  1  0
  5  6  1  0
  6  7  1  0
  7  8  2  0
  8  9  1  0
  9 10  1  0
 10 11  2  0
 10 12  2  0
 10 13  1  0
 13 14  1  0
 14 15  2  0
 15 16  1  0
 16 17  1  0
 17 18  2  0
 17 19  1  0
 19 20  1  0
 20 21  1  0
 21 22  1  0
 22 23  1  0
 23 24  1  0
 24 25  1  0
 22 26  1  0
 26 27  1  0
 16 28  2  0
 28 29  1  0
 29 30  2  0
 30 31  1  0
  9 32  2  0
 32 33  1  0
 33 34  2  0
 34  2  1  0
 34  7  1  0
 30 14  1  0
 27 19  1  0
  1 35  1  0
  1 36  1  0
  1 37  1  0
  5 38  1  0
  5 39  1  0
  6 40  1  0
  6 41  1  0
  8 42  1  0
 13 43  1  0
 15 44  1  0
 20 45  1  0
 20 46  1  0
 21 47  1  0
 21 48  1  0
 23 49  1  0
 23 50  1  0
 24 51  1  0
 24 52  1  0
 25 53  1  0
 26 54  1  0
 26 55  1  0
 27 56  1  0
 27 57  1  0
 28 58  1  0
 29 59  1  0
 32 60  1  0
 33 61  1  0
M  CHG  1  31  -1
M  END
>  <UniqueID>  (20) 
19

>  <SMILES>  (20) 
CN1C(=O)CCc2cc(S(=O)(=O)Nc3cc(C(=O)N4CCN(CCO)CC4)ccc3[O-])ccc21

>  <Energy>  (20) 
80.7699730374046

>  <Genealogy>  (20) 
CN1C(=O)CCc2cc(S(=O)(=O)Nc3cc(C(=O)N4CCN(CCO)CC4)ccc3[O-])ccc21 (protonated)
CN1C(=O)CCc2cc(S(=O)(=O)Nc3cc(C(=O)N4CCN(CCO)CC4)ccc3[O-])ccc21 (3D coordinates assigned)
CN1C(=O)CCc2cc(S(=O)(=O)Nc3cc(C(=O)N4CCN(CCO)CC4)ccc3[O-])ccc21 (nonaromatic ring conformer: 80.7699730374046 kcal/mol)

>  <smiles>  (20) 
CN1C(=O)CCc2cc(S(=O)(=O)Nc3cc(C(=O)N4CCN(CCO)CC4)ccc3O)ccc21

>  <score_type>  (20) 
oracle

>  <origin>  (20) 
adgpu

>  <m_score__min__energy>  (20) 
-13.550000000000001

>  <m_primary>  (20) 
energy

$$$$
20:0
     RDKit          3D

 54 57  0  0  0  0  0  0  0  0999 V2000
    0.0880   19.8790  -27.9210 C   0  0  0  0  0  0  0  0  0  0  0  0
   -0.5830   20.5100  -26.7710 N   0  0  0  0  0  0  0  0  0  0  0  0
   -2.0220   20.1850  -26.7050 C   0  0  0  0  0  0  0  0  0  0  0  0
   -2.8090   20.7620  -27.8900 C   0  0  0  0  0  0  0  0  0  0  0  0
   -2.4110   22.1770  -28.2100 C   0  0  0  0  0  0  0  0  0  0  0  0
   -3.2040   22.9230  -29.0930 C   0  0  0  0  0  0  0  0  0  0  0  0
   -2.8400   24.2290  -29.4550 C   0  0  0  0  0  0  0  0  0  0  0  0
   -3.6410   24.9950  -30.3590 N   0  0  0  0  0  0  0  0  0  0  0  0
   -5.3750   24.9840  -30.3480 S   0  0  0  0  0  0  0  0  0  0  0  0
   -5.8750   26.0870  -31.2390 O   0  0  0  0  0  0  0  0  0  0  0  0
   -5.8570   25.2490  -28.9500 O   0  0  0  0  0  0  0  0  0  0  0  0
   -6.0200   23.4530  -30.9310 C   0  0  0  0  0  0  0  0  0  0  0  0
   -5.1800   22.5480  -31.5930 C   0  0  0  0  0  0  0  0  0  0  0  0
   -5.6660   21.2990  -31.9890 C   0  0  0  0  0  0  0  0  0  0  0  0
   -6.9980   20.9470  -31.7340 C   0  0  0  0  0  0  0  0  0  0  0  0
   -7.6040   19.3590  -32.2080 S   0  0  0  0  0  0  0  0  0  0  0  0
   -8.1620   18.6630  -30.9960 O   0  0  0  0  0  0  0  0  0  0  0  0
   -8.7230   19.5330  -33.1980 O   0  0  0  0  0  0  0  0  0  0  0  0
   -6.3560   18.3710  -32.9290 N   0  0  0  0  0  0  0  0  0  0  0  0
   -6.7110   16.9460  -32.8430 C   0  0  0  0  0  0  0  0  0  0  0  0
   -5.6390   16.0860  -33.5450 C   0  0  0  0  0  0  0  0  0  0  0  0
   -4.5840   16.8790  -34.0590 O   0  0  0  0  0  0  0  0  0  0  0  0
   -5.0990   17.8170  -34.9850 C   0  0  0  0  0  0  0  0  0  0  0  0
   -6.1390   18.7520  -34.3320 C   0  0  0  0  0  0  0  0  0  0  0  0
   -7.8430   21.8590  -31.0870 C   0  0  0  0  0  0  0  0  0  0  0  0
   -7.3540   23.1040  -30.6820 C   0  0  0  0  0  0  0  0  0  0  0  0
   -1.6410   24.7670  -28.9720 C   0  0  0  0  0  0  0  0  0  0  0  0
   -1.2490   26.0470  -29.3440 O   0  0  0  0  0  0  0  0  0  0  0  0
   -0.8370   24.0250  -28.1020 C   0  0  0  0  0  0  0  0  0  0  0  0
   -1.2070   22.7260  -27.7230 C   0  0  0  0  0  0  0  0  0  0  0  0
   -0.3570   21.9680  -26.7300 C   0  0  0  0  0  0  0  0  0  0  0  0
    0.8447   19.1674  -27.5589 H   0  0  0  0  0  0  0  0  0  0  0  0
   -0.6551   19.3449  -28.5314 H   0  0  0  0  0  0  0  0  0  0  0  0
    0.5754   20.6535  -28.5314 H   0  0  0  0  0  0  0  0  0  0  0  0
   -2.1371   19.0910  -26.7041 H   0  0  0  0  0  0  0  0  0  0  0  0
   -2.4247   20.6344  -25.7853 H   0  0  0  0  0  0  0  0  0  0  0  0
   -2.6251   20.1349  -28.7748 H   0  0  0  0  0  0  0  0  0  0  0  0
   -3.8737   20.7680  -27.6136 H   0  0  0  0  0  0  0  0  0  0  0  0
   -4.1218   22.4797  -29.5067 H   0  0  0  0  0  0  0  0  0  0  0  0
   -4.1351   22.8213  -31.8016 H   0  0  0  0  0  0  0  0  0  0  0  0
   -5.0004   20.5897  -32.5027 H   0  0  0  0  0  0  0  0  0  0  0  0
   -6.7777   16.6514  -31.7853 H   0  0  0  0  0  0  0  0  0  0  0  0
   -7.6798   16.7871  -33.3391 H   0  0  0  0  0  0  0  0  0  0  0  0
   -5.2256   15.3698  -32.8196 H   0  0  0  0  0  0  0  0  0  0  0  0
   -6.1165   15.5637  -34.3871 H   0  0  0  0  0  0  0  0  0  0  0  0
   -4.2694   18.4244  -35.3759 H   0  0  0  0  0  0  0  0  0  0  0  0
   -5.5968   17.2623  -35.7940 H   0  0  0  0  0  0  0  0  0  0  0  0
   -5.7727   19.7884  -34.3743 H   0  0  0  0  0  0  0  0  0  0  0  0
   -7.0902   18.6666  -34.8777 H   0  0  0  0  0  0  0  0  0  0  0  0
   -8.8937   21.5942  -30.8975 H   0  0  0  0  0  0  0  0  0  0  0  0
   -8.0187   23.8124  -30.1659 H   0  0  0  0  0  0  0  0  0  0  0  0
    0.0933   24.4632  -27.7114 H   0  0  0  0  0  0  0  0  0  0  0  0
    0.7020   22.1648  -26.9530 H   0  0  0  0  0  0  0  0  0  0  0  0
   -0.6368   22.3159  -25.7247 H   0  0  0  0  0  0  0  0  0  0  0  0
  1  2  1  0
  2  3  1  0
  3  4  1  0
  4  5  1  0
  5  6  2  0
  6  7  1  0
  7  8  1  0
  8  9  1  0
  9 10  2  0
  9 11  2  0
  9 12  1  0
 12 13  2  0
 13 14  1  0
 14 15  2  0
 15 16  1  0
 16 17  2  0
 16 18  2  0
 16 19  1  0
 19 20  1  0
 20 21  1  0
 21 22  1  0
 22 23  1  0
 23 24  1  0
 15 25  1  0
 25 26  2  0
  7 27  2  0
 27 28  1  0
 27 29  1  0
 29 30  2  0
 30 31  1  0
 31  2  1  0
 30  5  1  0
 26 12  1  0
 24 19  1  0
  1 32  1  0
  1 33  1  0
  1 34  1  0
  3 35  1  0
  3 36  1  0
  4 37  1  0
  4 38  1  0
  6 39  1  0
 13 40  1  0
 14 41  1  0
 20 42  1  0
 20 43  1  0
 21 44  1  0
 21 45  1  0
 23 46  1  0
 23 47  1  0
 24 48  1  0
 24 49  1  0
 25 50  1  0
 26 51  1  0
 29 52  1  0
 31 53  1  0
 31 54  1  0
M  CHG  2   8  -1  28  -1
M  END
>  <UniqueID>  (21) 
20

>  <SMILES>  (21) 
CN1CCc2cc([N-]S(=O)(=O)c3ccc(S(=O)(=O)N4CCOCC4)cc3)c([O-])cc2C1

>  <Energy>  (21) 
73.90093973965739

>  <Genealogy>  (21) 
CN1CCc2cc([N-]S(=O)(=O)c3ccc(S(=O)(=O)N4CCOCC4)cc3)c([O-])cc2C1 (protonated)
CN1CCc2cc([N-]S(=O)(=O)c3ccc(S(=O)(=O)N4CCOCC4)cc3)c([O-])cc2C1 (3D coordinates assigned)
CN1CCc2cc([N-]S(=O)(=O)c3ccc(S(=O)(=O)N4CCOCC4)cc3)c([O-])cc2C1 (nonaromatic ring conformer: 73.90093973965739 kcal/mol)

>  <smiles>  (21) 
CN1CCc2cc(NS(=O)(=O)c3ccc(S(=O)(=O)N4CCOCC4)cc3)c(O)cc2C1

>  <score_type>  (21) 
oracle

>  <origin>  (21) 
adgpu

>  <m_score__min__energy>  (21) 
-15.92

>  <m_primary>  (21) 
energy

$$$$
21:0
     RDKit          3D

 41 44  0  0  0  0  0  0  0  0999 V2000
   -2.0226   20.9788  -34.4637 H   0  0  0  0  0  0  0  0  0  0  0  0
   -2.3960   21.2180  -33.4570 C   0  0  0  0  0  0  0  0  0  0  0  0
   -3.7160   21.4710  -33.2680 N   0  0  0  0  0  0  0  0  0  0  0  0
   -4.2340   21.7770  -32.0470 C   0  0  0  0  0  0  0  0  0  0  0  0
   -5.6930   21.9990  -31.9500 C   0  0  0  0  0  0  0  0  0  0  0  0
   -6.5760   20.9230  -32.1470 C   0  0  0  0  0  0  0  0  0  0  0  0
   -6.1768   19.9182  -32.3496 H   0  0  0  0  0  0  0  0  0  0  0  0
   -7.9570   21.1220  -32.0870 C   0  0  0  0  0  0  0  0  0  0  0  0
   -9.0490   19.7700  -32.3230 Cl  0  0  0  0  0  0  0  0  0  0  0  0
   -8.4680   22.3990  -31.8440 C   0  0  0  0  0  0  0  0  0  0  0  0
   -9.5558   22.5544  -31.7943 H   0  0  0  0  0  0  0  0  0  0  0  0
   -7.6010   23.4790  -31.6640 C   0  0  0  0  0  0  0  0  0  0  0  0
   -8.0103   24.4832  -31.4796 H   0  0  0  0  0  0  0  0  0  0  0  0
   -6.2050   23.2910  -31.7170 C   0  0  0  0  0  0  0  0  0  0  0  0
   -5.3050   24.3540  -31.5370 O   0  0  0  0  0  0  0  0  0  0  0  0
   -5.3640   25.2890  -30.4650 C   0  0  0  0  0  0  0  0  0  0  0  0
   -5.3300   24.7505  -29.5065 H   0  0  0  0  0  0  0  0  0  0  0  0
   -4.5074   25.9760  -30.5301 H   0  0  0  0  0  0  0  0  0  0  0  0
   -6.3001   25.8629  -30.5301 H   0  0  0  0  0  0  0  0  0  0  0  0
   -3.3710   21.8600  -30.9250 C   0  0  0  0  0  0  0  0  0  0  0  0
   -3.8270   22.2340  -29.6440 C   0  0  0  0  0  0  0  0  0  0  0  0
   -4.8886   22.4785  -29.4918 H   0  0  0  0  0  0  0  0  0  0  0  0
   -2.9400   22.2960  -28.5680 C   0  0  0  0  0  0  0  0  0  0  0  0
   -3.3090   22.5847  -27.5728 H   0  0  0  0  0  0  0  0  0  0  0  0
   -1.5860   21.9940  -28.7450 C   0  0  0  0  0  0  0  0  0  0  0  0
   -0.4840   22.0690  -27.3740 S   0  0  0  0  0  0  0  0  0  0  0  0
    0.9090   21.7700  -27.8480 O   0  0  0  0  0  0  0  0  0  0  0  0
   -0.8730   21.0610  -26.3270 O   0  0  0  0  0  0  0  0  0  0  0  0
   -0.5200   23.6530  -26.6700 N   0  0  0  0  0  0  0  0  0  0  0  0
   -0.6700   24.7350  -27.3700 C   0  0  0  0  0  0  0  0  0  0  0  0
   -0.8150   24.7650  -28.7070 N   0  0  0  0  0  0  0  0  0  0  0  0
   -0.9290   26.0210  -29.0280 O   0  0  0  0  0  0  0  0  0  0  0  0
   -0.8650   26.7970  -27.9670 C   0  0  0  0  0  0  0  0  0  0  0  0
   -0.9348   27.8948  -27.9705 H   0  0  0  0  0  0  0  0  0  0  0  0
   -0.6960   26.0060  -26.8500 C   0  0  0  0  0  0  0  0  0  0  0  0
   -0.6044   26.3171  -25.7989 H   0  0  0  0  0  0  0  0  0  0  0  0
   -1.1130   21.6490  -30.0170 C   0  0  0  0  0  0  0  0  0  0  0  0
   -0.0454   21.4269  -30.1618 H   0  0  0  0  0  0  0  0  0  0  0  0
   -1.9930   21.5850  -31.1080 C   0  0  0  0  0  0  0  0  0  0  0  0
   -1.5130   21.2600  -32.3820 C   0  0  0  0  0  0  0  0  0  0  0  0
   -0.4459   21.0394  -32.5325 H   0  0  0  0  0  0  0  0  0  0  0  0
  1  2  1  0
  2  3  2  0
  3  4  1  0
  4  5  1  0
  5  6  2  0
  6  7  1  0
  6  8  1  0
  8  9  1  0
  8 10  2  0
 10 11  1  0
 10 12  1  0
 12 13  1  0
 12 14  2  0
 14 15  1  0
 15 16  1  0
 16 17  1  0
 16 18  1  0
 16 19  1  0
  4 20  2  0
 20 21  1  0
 21 22  1  0
 21 23  2  0
 23 24  1  0
 23 25  1  0
 25 26  1  0
 26 27  2  0
 26 28  2  0
 26 29  1  0
 29 30  2  0
 30 31  1  0
 31 32  1  0
 32 33  1  0
 33 34  1  0
 33 35  2  0
 35 36  1  0
 25 37  2  0
 37 38  1  0
 37 39  1  0
 39 40  2  0
 40 41  1  0
 40  2  1  0
 14  5  1  0
 39 20  1  0
 35 30  1  0
M  CHG  1  31  -1
M  END
>  <UniqueID>  (22) 
21

>  <SMILES>  (22) 
COc1ccc(Cl)cc1-c1nccc2cc(S(=O)(=O)/N=c3/cco[n-]3)ccc12

>  <Energy>  (22) 
90.9778444143891

>  <Genealogy>  (22) 
COc1ccc(Cl)cc1-c1nccc2cc(S(=O)(=O)N=c3cco[n-]3)ccc12 (protonated)
COc1ccc(Cl)cc1-c1nccc2cc(S(=O)(=O)/N=c3/cco[n-]3)ccc12 (cis-trans isomerization)
COc1ccc(Cl)cc1-c1nccc2cc(S(=O)(=O)/N=c3/cco[n-]3)ccc12 (3D coordinates assigned)
COc1ccc(Cl)cc1-c1nccc2cc(S(=O)(=O)/N=c3/cco[n-]3)ccc12 (optimized conformer: 90.9778444143891 kcal/mol)

>  <smiles>  (22) 
COc1ccc(Cl)cc1-c1nccc2cc(S(=O)(=O)N=c3cco[nH]3)ccc12

>  <score_type>  (22) 
oracle

>  <origin>  (22) 
adgpu

>  <m_score__min__energy>  (22) 
-11.23

>  <m_primary>  (22) 
energy

$$$$
22:0
     RDKit          3D

 48 50  0  0  0  0  0  0  0  0999 V2000
   -5.9900   17.0820  -34.1300 C   0  0  0  0  0  0  0  0  0  0  0  0
   -6.5850   18.4320  -33.7160 C   0  0  1  0  0  0  0  0  0  0  0  0
   -7.4750   18.2830  -32.4610 C   0  0  0  0  0  0  0  0  0  0  0  0
   -7.6270   19.6060  -31.6800 C   0  0  0  0  0  0  0  0  0  0  0  0
   -7.4440   20.7740  -32.5650 N   0  0  1  0  0  0  0  0  0  0  0  0
   -7.8530   22.2460  -31.7170 S   0  0  0  0  0  0  0  0  0  0  0  0
   -8.2040   23.3160  -32.7130 O   0  0  0  0  0  0  0  0  0  0  0  0
   -9.0580   22.0040  -30.8500 O   0  0  0  0  0  0  0  0  0  0  0  0
   -6.5190   22.8060  -30.7030 C   0  0  0  0  0  0  0  0  0  0  0  0
   -5.4230   21.9690  -30.4590 C   0  0  0  0  0  0  0  0  0  0  0  0
   -4.3630   22.4120  -29.6630 C   0  0  0  0  0  0  0  0  0  0  0  0
   -4.3880   23.6970  -29.1060 C   0  0  0  0  0  0  0  0  0  0  0  0
   -3.0570   24.2370  -28.0870 S   0  0  0  0  0  0  0  0  0  0  0  0
   -3.6160   24.9240  -26.8740 O   0  0  0  0  0  0  0  0  0  0  0  0
   -2.2390   23.0590  -27.6320 O   0  0  0  0  0  0  0  0  0  0  0  0
   -2.0480   25.3510  -28.9580 N   0  0  0  0  0  0  0  0  0  0  0  0
   -0.7250   25.4040  -28.3450 C   0  0  0  0  0  0  0  0  0  0  0  0
   -0.7300   26.4280  -27.2590 C   0  0  0  0  0  0  0  0  0  0  0  0
   -1.0320   26.1970  -25.9330 C   0  0  0  0  0  0  0  0  0  0  0  0
   -0.9370   27.4250  -25.3130 C   0  0  0  0  0  0  0  0  0  0  0  0
   -0.5910   28.3260  -26.2990 C   0  0  0  0  0  0  0  0  0  0  0  0
   -0.4760   27.7020  -27.4490 O   0  0  0  0  0  0  0  0  0  0  0  0
   -5.4890   24.5320  -29.3430 C   0  0  0  0  0  0  0  0  0  0  0  0
   -6.5500   24.0890  -30.1390 C   0  0  0  0  0  0  0  0  0  0  0  0
   -6.0590   20.8500  -33.0870 C   0  0  0  0  0  0  0  0  0  0  0  0
   -5.4780   19.4700  -33.4760 C   0  0  0  0  0  0  0  0  0  0  0  0
   -5.7346   16.5026  -33.2305 H   0  0  0  0  0  0  0  0  0  0  0  0
   -6.7260   16.5249  -34.7283 H   0  0  0  0  0  0  0  0  0  0  0  0
   -5.0823   17.2494  -34.7283 H   0  0  0  0  0  0  0  0  0  0  0  0
   -7.2164   18.7895  -34.5427 H   0  0  0  0  0  0  0  0  0  0  0  0
   -7.0238   17.5315  -31.7964 H   0  0  0  0  0  0  0  0  0  0  0  0
   -8.4769   17.9780  -32.7976 H   0  0  0  0  0  0  0  0  0  0  0  0
   -6.8716   19.6396  -30.8811 H   0  0  0  0  0  0  0  0  0  0  0  0
   -8.6417   19.6456  -31.2571 H   0  0  0  0  0  0  0  0  0  0  0  0
   -8.1110   20.6980  -33.3680 H   0  0  0  0  0  0  0  0  0  0  0  0
   -5.3963   20.9596  -30.8953 H   0  0  0  0  0  0  0  0  0  0  0  0
   -3.5059   21.7491  -29.4732 H   0  0  0  0  0  0  0  0  0  0  0  0
   -0.4755   24.4197  -27.9219 H   0  0  0  0  0  0  0  0  0  0  0  0
    0.0244   25.6728  -29.1041 H   0  0  0  0  0  0  0  0  0  0  0  0
   -1.2937   25.2351  -25.4679 H   0  0  0  0  0  0  0  0  0  0  0  0
   -1.1034   27.6424  -24.2476 H   0  0  0  0  0  0  0  0  0  0  0  0
   -0.4350   29.4040  -26.1452 H   0  0  0  0  0  0  0  0  0  0  0  0
   -5.5184   25.5390  -28.9013 H   0  0  0  0  0  0  0  0  0  0  0  0
   -7.4108   24.7487  -30.3230 H   0  0  0  0  0  0  0  0  0  0  0  0
   -5.4170   21.2937  -32.3118 H   0  0  0  0  0  0  0  0  0  0  0  0
   -6.0870   21.4623  -34.0004 H   0  0  0  0  0  0  0  0  0  0  0  0
   -4.8277   19.1154  -32.6628 H   0  0  0  0  0  0  0  0  0  0  0  0
   -4.9120   19.5888  -34.4117 H   0  0  0  0  0  0  0  0  0  0  0  0
  1  2  1  0
  2  3  1  0
  3  4  1  0
  4  5  1  0
  5  6  1  0
  6  7  2  0
  6  8  2  0
  6  9  1  0
  9 10  2  0
 10 11  1  0
 11 12  2  0
 12 13  1  0
 13 14  2  0
 13 15  2  0
 13 16  1  0
 16 17  1  0
 17 18  1  0
 18 19  2  0
 19 20  1  0
 20 21  2  0
 21 22  1  0
 12 23  1  0
 23 24  2  0
  5 25  1  0
 25 26  1  0
 26  2  1  0
 24  9  1  0
 22 18  1  0
  1 27  1  0
  1 28  1  0
  1 29  1  0
  2 30  1  6
  3 31  1  0
  3 32  1  0
  4 33  1  0
  4 34  1  0
  5 35  1  6
 10 36  1  0
 11 37  1  0
 17 38  1  0
 17 39  1  0
 19 40  1  0
 20 41  1  0
 21 42  1  0
 23 43  1  0
 24 44  1  0
 25 45  1  0
 25 46  1  0
 26 47  1  0
 26 48  1  0
M  CHG  2   5   1  16  -1
M  END
>  <UniqueID>  (23) 
22

>  <SMILES>  (23) 
CC1CC[NH+](S(=O)(=O)c2ccc(S(=O)(=O)[N-]Cc3ccco3)cc2)CC1

>  <Energy>  (23) 
73.12065231767042

>  <Genealogy>  (23) 
CC1CC[NH+](S(=O)(=O)c2ccc(S(=O)(=O)[N-]Cc3ccco3)cc2)CC1 (protonated)
CC1CC[NH+](S(=O)(=O)c2ccc(S(=O)(=O)[N-]Cc3ccco3)cc2)CC1 (3D coordinates assigned)
CC1CC[NH+](S(=O)(=O)c2ccc(S(=O)(=O)[N-]Cc3ccco3)cc2)CC1 (nonaromatic ring conformer: 73.12065231767042 kcal/mol)

>  <smiles>  (23) 
CC1CCN(S(=O)(=O)c2ccc(S(=O)(=O)NCc3ccco3)cc2)CC1

>  <score_type>  (23) 
oracle

>  <origin>  (23) 
adgpu

>  <m_score__min__energy>  (23) 
-11.84

>  <m_primary>  (23) 
energy

$$$$
23:0
     RDKit          3D

 57 60  0  0  0  0  0  0  0  0999 V2000
   -4.0340   13.1490  -34.2550 C   0  0  0  0  0  0  0  0  0  0  0  0
   -3.5500   14.5690  -34.2210 C   0  0  0  0  0  0  0  0  0  0  0  0
   -3.7420   15.4090  -35.3280 C   0  0  0  0  0  0  0  0  0  0  0  0
   -3.3200   16.7400  -35.2840 C   0  0  0  0  0  0  0  0  0  0  0  0
   -2.7140   17.2530  -34.1270 C   0  0  0  0  0  0  0  0  0  0  0  0
   -2.2460   18.6550  -34.0870 C   0  0  0  0  0  0  0  0  0  0  0  0
   -0.9890   19.1100  -34.4620 C   0  0  0  0  0  0  0  0  0  0  0  0
    0.1730   18.3010  -34.9560 C   0  0  0  0  0  0  0  0  0  0  0  0
   -1.0640   20.4920  -34.3300 C   0  0  0  0  0  0  0  0  0  0  0  0
    0.0050   21.4790  -34.5840 C   0  0  0  0  0  0  0  0  0  0  0  0
    0.9940   21.5470  -33.8070 O   0  0  0  0  0  0  0  0  0  0  0  0
   -0.0710   22.3360  -35.7360 N   0  0  0  0  0  0  0  0  0  0  0  0
    0.7680   23.4880  -35.9380 C   0  0  0  0  0  0  0  0  0  0  0  0
    0.1790   24.7170  -36.2740 C   0  0  0  0  0  0  0  0  0  0  0  0
    0.9690   25.8560  -36.4530 C   0  0  0  0  0  0  0  0  0  0  0  0
    2.3580   25.7830  -36.2900 C   0  0  0  0  0  0  0  0  0  0  0  0
    3.3560   27.2190  -36.5010 S   0  0  0  0  0  0  0  0  0  0  0  0
    4.0840   27.2020  -38.0680 N   0  0  0  0  0  0  0  0  0  0  0  0
    2.5090   28.4540  -36.3760 O   0  0  0  0  0  0  0  0  0  0  0  0
    4.4280   27.2400  -35.4500 O   0  0  0  0  0  0  0  0  0  0  0  0
    2.9490   24.5670  -35.9260 C   0  0  0  0  0  0  0  0  0  0  0  0
    2.1600   23.4260  -35.7460 C   0  0  0  0  0  0  0  0  0  0  0  0
   -2.2990   20.8350  -33.9130 N   0  0  0  0  0  0  0  0  0  0  0  0
   -3.0080   19.7260  -33.7650 N   0  0  0  0  0  0  0  0  0  0  0  0
   -4.3680   19.7340  -33.2970 C   0  0  0  0  0  0  0  0  0  0  0  0
   -5.3560   18.9600  -33.9290 C   0  0  0  0  0  0  0  0  0  0  0  0
   -6.6730   18.9740  -33.4620 C   0  0  0  0  0  0  0  0  0  0  0  0
   -7.0160   19.7460  -32.3420 C   0  0  0  0  0  0  0  0  0  0  0  0
   -8.6740   19.7810  -31.7540 S   0  0  0  0  0  0  0  0  0  0  0  0
   -9.7640   19.6900  -33.0930 N   0  0  0  0  0  0  0  0  0  0  0  0
   -8.9030   18.6150  -30.8340 O   0  0  0  0  0  0  0  0  0  0  0  0
   -8.9300   21.0620  -31.0080 O   0  0  0  0  0  0  0  0  0  0  0  0
   -6.0300   20.5040  -31.6980 C   0  0  0  0  0  0  0  0  0  0  0  0
   -4.7130   20.4910  -32.1670 C   0  0  0  0  0  0  0  0  0  0  0  0
   -2.5400   16.4170  -33.0140 C   0  0  0  0  0  0  0  0  0  0  0  0
   -2.9610   15.0850  -33.0580 C   0  0  0  0  0  0  0  0  0  0  0  0
   -4.1598   12.7798  -33.2265 H   0  0  0  0  0  0  0  0  0  0  0  0
   -4.9986   13.1029  -34.7817 H   0  0  0  0  0  0  0  0  0  0  0  0
   -3.2984   12.5234  -34.7817 H   0  0  0  0  0  0  0  0  0  0  0  0
   -4.2269   15.0179  -36.2346 H   0  0  0  0  0  0  0  0  0  0  0  0
   -3.4634   17.3890  -36.1605 H   0  0  0  0  0  0  0  0  0  0  0  0
    0.7375   17.9080  -34.0976 H   0  0  0  0  0  0  0  0  0  0  0  0
   -0.1962   17.4637  -35.5664 H   0  0  0  0  0  0  0  0  0  0  0  0
    0.8301   18.9379  -35.5664 H   0  0  0  0  0  0  0  0  0  0  0  0
   -0.7120   22.0600  -36.5130 H   0  0  0  0  0  0  0  0  0  0  0  0
   -0.9120   24.7842  -36.3973 H   0  0  0  0  0  0  0  0  0  0  0  0
    0.4982   26.8129  -36.7228 H   0  0  0  0  0  0  0  0  0  0  0  0
    5.0670   27.5350  -37.9520 H   0  0  0  0  0  0  0  0  0  0  0  0
    4.0378   24.5087  -35.7810 H   0  0  0  0  0  0  0  0  0  0  0  0
    2.6304   22.4758  -35.4529 H   0  0  0  0  0  0  0  0  0  0  0  0
   -5.0909   18.3388  -34.7973 H   0  0  0  0  0  0  0  0  0  0  0  0
   -7.4429   18.3781  -33.9740 H   0  0  0  0  0  0  0  0  0  0  0  0
   -9.1820   19.6910  -33.9600 H   0  0  0  0  0  0  0  0  0  0  0  0
   -6.2928   21.1120  -30.8198 H   0  0  0  0  0  0  0  0  0  0  0  0
   -3.9420   21.0782  -31.6466 H   0  0  0  0  0  0  0  0  0  0  0  0
   -2.0696   16.8120  -32.1015 H   0  0  0  0  0  0  0  0  0  0  0  0
   -2.8298   14.4393  -32.1772 H   0  0  0  0  0  0  0  0  0  0  0  0
  1  2  1  0
  2  3  2  0
  3  4  1  0
  4  5  2  0
  5  6  1  0
  6  7  2  0
  7  8  1  0
  7  9  1  0
  9 10  1  0
 10 11  2  0
 10 12  1  0
 12 13  1  0
 13 14  2  0
 14 15  1  0
 15 16  2  0
 16 17  1  0
 17 18  1  0
 17 19  2  0
 17 20  2  0
 16 21  1  0
 21 22  2  0
  9 23  2  0
 23 24  1  0
 24 25  1  0
 25 26  2  0
 26 27  1  0
 27 28  2  0
 28 29  1  0
 29 30  1  0
 29 31  2  0
 29 32  2  0
 28 33  1  0
 33 34  2  0
  5 35  1  0
 35 36  2  0
 36  2  1  0
 24  6  1  0
 34 25  1  0
 22 13  1  0
  1 37  1  0
  1 38  1  0
  1 39  1  0
  3 40  1  0
  4 41  1  0
  8 42  1  0
  8 43  1  0
  8 44  1  0
 12 45  1  0
 14 46  1  0
 15 47  1  0
 18 48  1  0
 21 49  1  0
 22 50  1  0
 26 51  1  0
 27 52  1  0
 30 53  1  0
 33 54  1  0
 34 55  1  0
 35 56  1  0
 36 57  1  0
M  CHG  2  18  -1  30  -1
M  END
>  <UniqueID>  (24) 
23

>  <SMILES>  (24) 
Cc1ccc(-c2c(C)c(C(=O)Nc3ccc(S([NH-])(=O)=O)cc3)nn2-c2ccc(S([NH-])(=O)=O)cc2)cc1

>  <Energy>  (24) 
103.37844935054555

>  <Genealogy>  (24) 
Cc1ccc(-c2c(C)c(C(=O)Nc3ccc(S([NH-])(=O)=O)cc3)nn2-c2ccc(S([NH-])(=O)=O)cc2)cc1 (protonated)
Cc1ccc(-c2c(C)c(C(=O)Nc3ccc(S([NH-])(=O)=O)cc3)nn2-c2ccc(S([NH-])(=O)=O)cc2)cc1 (3D coordinates assigned)
Cc1ccc(-c2c(C)c(C(=O)Nc3ccc(S([NH-])(=O)=O)cc3)nn2-c2ccc(S([NH-])(=O)=O)cc2)cc1 (optimized conformer: 103.37844935054555 kcal/mol)

>  <smiles>  (24) 
Cc1ccc(-c2c(C)c(C(=O)Nc3ccc(S(N)(=O)=O)cc3)nn2-c2ccc(S(N)(=O)=O)cc2)cc1

>  <score_type>  (24) 
oracle

>  <origin>  (24) 
adgpu

>  <m_score__min__energy>  (24) 
-10.029999999999999

>  <m_primary>  (24) 
energy

$$$$
24:0
     RDKit          3D

 77 81  0  0  0  0  0  0  0  0999 V2000
   -0.4340   24.2550  -27.8840 C   0  0  0  0  0  0  0  0  0  0  0  0
   -1.7280   23.5430  -28.1450 C   0  0  0  0  0  0  0  0  0  0  0  0
   -2.5990   24.1020  -29.0300 N   0  0  0  0  0  0  0  0  0  0  0  0
   -3.8040   23.5450  -29.3200 C   0  0  0  0  0  0  0  0  0  0  0  0
   -4.8640   24.3110  -30.4980 S   0  0  0  0  0  0  0  0  0  0  0  0
   -6.5030   24.4840  -29.8160 C   0  0  0  0  0  0  0  0  0  0  0  0
   -4.9170   23.4710  -31.7460 O   0  0  0  0  0  0  0  0  0  0  0  0
   -4.3290   25.6710  -30.8500 O   0  0  0  0  0  0  0  0  0  0  0  0
   -4.1940   22.3670  -28.6790 C   0  0  0  0  0  0  0  0  0  0  0  0
   -3.3230   21.7580  -27.7740 C   0  0  0  0  0  0  0  0  0  0  0  0
   -2.0630   22.3160  -27.5170 C   0  0  0  0  0  0  0  0  0  0  0  0
   -1.1050   21.5830  -26.6460 C   0  0  0  0  0  0  0  0  0  0  0  0
   -0.5180   22.1870  -25.7050 O   0  0  0  0  0  0  0  0  0  0  0  0
   -0.7480   20.2190  -26.9110 N   0  0  0  0  0  0  0  0  0  0  0  0
   -0.4670   19.6540  -28.1980 C   0  0  0  0  0  0  0  0  0  0  0  0
   -0.1370   18.2980  -28.3550 C   0  0  0  0  0  0  0  0  0  0  0  0
    0.2960   17.8170  -29.5940 C   0  0  0  0  0  0  0  0  0  0  0  0
    0.4120   18.6800  -30.6890 C   0  0  0  0  0  0  0  0  0  0  0  0
    0.9670   18.1690  -31.8710 O   0  0  0  0  0  0  0  0  0  0  0  0
    0.4900   17.0530  -32.5660 C   0  0  0  0  0  0  0  0  0  0  0  0
    1.2460   15.8720  -32.6240 C   0  0  0  0  0  0  0  0  0  0  0  0
    0.7600   14.7750  -33.3380 C   0  0  0  0  0  0  0  0  0  0  0  0
   -0.4420   14.8460  -33.9690 N   0  0  0  0  0  0  0  0  0  0  0  0
   -1.2050   15.9750  -33.9320 C   0  0  0  0  0  0  0  0  0  0  0  0
   -2.4490   15.9980  -34.5750 C   0  0  0  0  0  0  0  0  0  0  0  0
   -3.2470   17.1570  -34.5350 C   0  0  0  0  0  0  0  0  0  0  0  0
   -4.5100   17.2360  -35.1430 O   0  0  0  0  0  0  0  0  0  0  0  0
   -5.7640   16.9640  -34.5150 C   0  0  0  0  0  0  0  0  0  0  0  0
   -5.8000   17.5630  -33.1060 C   0  0  0  0  0  0  0  0  0  0  0  0
   -7.2280   17.8360  -32.5680 C   0  0  0  0  0  0  0  0  0  0  0  0
   -7.7350   19.2390  -32.6400 N   0  0  0  0  0  0  0  0  0  0  0  0
   -6.6750   20.2470  -32.3950 C   0  0  0  0  0  0  0  0  0  0  0  0
   -7.2200   21.6730  -32.5940 C   0  0  0  0  0  0  0  0  0  0  0  0
   -8.3970   21.9000  -31.7320 N   0  0  0  0  0  0  0  0  0  0  0  0
   -8.9070   23.2670  -31.9170 C   0  0  0  0  0  0  0  0  0  0  0  0
   -9.4530   20.9200  -32.0490 C   0  0  0  0  0  0  0  0  0  0  0  0
   -8.9290   19.5000  -31.8020 C   0  0  0  0  0  0  0  0  0  0  0  0
   -2.7730   18.2900  -33.8670 C   0  0  0  0  0  0  0  0  0  0  0  0
   -1.5350   18.2740  -33.2190 C   0  0  0  0  0  0  0  0  0  0  0  0
   -0.7420   17.1170  -33.2400 C   0  0  0  0  0  0  0  0  0  0  0  0
    0.0280   20.0280  -30.5470 C   0  0  0  0  0  0  0  0  0  0  0  0
    0.2180   20.9190  -31.5540 F   0  0  0  0  0  0  0  0  0  0  0  0
   -0.4110   20.5020  -29.3080 C   0  0  0  0  0  0  0  0  0  0  0  0
   -0.2758   24.3421  -26.7989 H   0  0  0  0  0  0  0  0  0  0  0  0
    0.3944   23.6857  -28.3308 H   0  0  0  0  0  0  0  0  0  0  0  0
   -0.4716   25.2595  -28.3308 H   0  0  0  0  0  0  0  0  0  0  0  0
   -6.4456   24.4779  -28.7175 H   0  0  0  0  0  0  0  0  0  0  0  0
   -6.9428   25.4336  -30.1549 H   0  0  0  0  0  0  0  0  0  0  0  0
   -7.1314   23.6472  -30.1549 H   0  0  0  0  0  0  0  0  0  0  0  0
   -5.1790   21.9230  -28.8855 H   0  0  0  0  0  0  0  0  0  0  0  0
   -3.6272   20.8346  -27.2594 H   0  0  0  0  0  0  0  0  0  0  0  0
   -0.2196   17.6116  -27.4994 H   0  0  0  0  0  0  0  0  0  0  0  0
    0.5473   16.7523  -29.7089 H   0  0  0  0  0  0  0  0  0  0  0  0
    2.2164   15.8109  -32.1096 H   0  0  0  0  0  0  0  0  0  0  0  0
    1.3522   13.8495  -33.3902 H   0  0  0  0  0  0  0  0  0  0  0  0
   -2.8039   15.1069  -35.1134 H   0  0  0  0  0  0  0  0  0  0  0  0
   -6.5729   17.4045  -35.1163 H   0  0  0  0  0  0  0  0  0  0  0  0
   -5.8959   15.8744  -34.4416 H   0  0  0  0  0  0  0  0  0  0  0  0
   -5.3011   16.8622  -32.4204 H   0  0  0  0  0  0  0  0  0  0  0  0
   -5.2922   18.5371  -33.1635 H   0  0  0  0  0  0  0  0  0  0  0  0
   -7.9226   17.2047  -33.1416 H   0  0  0  0  0  0  0  0  0  0  0  0
   -7.1696   17.6138  -31.4923 H   0  0  0  0  0  0  0  0  0  0  0  0
   -8.0370   19.3710  -33.6380 H   0  0  0  0  0  0  0  0  0  0  0  0
   -6.3088   20.1417  -31.3631 H   0  0  0  0  0  0  0  0  0  0  0  0
   -5.8568   20.0792  -33.1108 H   0  0  0  0  0  0  0  0  0  0  0  0
   -6.4359   22.3999  -32.3354 H   0  0  0  0  0  0  0  0  0  0  0  0
   -7.5189   21.7969  -33.6453 H   0  0  0  0  0  0  0  0  0  0  0  0
   -9.0797   23.7300  -30.9343 H   0  0  0  0  0  0  0  0  0  0  0  0
   -8.1699   23.8606  -32.4775 H   0  0  0  0  0  0  0  0  0  0  0  0
   -9.8528   23.2328  -32.4775 H   0  0  0  0  0  0  0  0  0  0  0  0
  -10.3275   21.1041  -31.4077 H   0  0  0  0  0  0  0  0  0  0  0  0
   -9.7421   21.0238  -33.1052 H   0  0  0  0  0  0  0  0  0  0  0  0
   -8.6583   19.3926  -30.7413 H   0  0  0  0  0  0  0  0  0  0  0  0
   -9.7156   18.7776  -32.0654 H   0  0  0  0  0  0  0  0  0  0  0  0
   -3.3823   19.2057  -33.8513 H   0  0  0  0  0  0  0  0  0  0  0  0
   -1.1811   19.1716  -32.6907 H   0  0  0  0  0  0  0  0  0  0  0  0
   -0.7159   21.5539  -29.2049 H   0  0  0  0  0  0  0  0  0  0  0  0
  1  2  1  0
  2  3  2  0
  3  4  1  0
  4  5  1  0
  5  6  1  0
  5  7  2  0
  5  8  2  0
  4  9  2  0
  9 10  1  0
 10 11  2  0
 11 12  1  0
 12 13  2  0
 12 14  1  0
 14 15  1  0
 15 16  2  0
 16 17  1  0
 17 18  2  0
 18 19  1  0
 19 20  1  0
 20 21  2  0
 21 22  1  0
 22 23  2  0
 23 24  1  0
 24 25  2  0
 25 26  1  0
 26 27  1  0
 27 28  1  0
 28 29  1  0
 29 30  1  0
 30 31  1  0
 31 32  1  0
 32 33  1  0
 33 34  1  0
 34 35  1  0
 34 36  1  0
 36 37  1  0
 26 38  2  0
 38 39  1  0
 39 40  2  0
 18 41  1  0
 41 42  1  0
 41 43  2  0
 11  2  1  0
 43 15  1  0
 40 20  1  0
 40 24  1  0
 37 31  1  0
  1 44  1  0
  1 45  1  0
  1 46  1  0
  6 47  1  0
  6 48  1  0
  6 49  1  0
  9 50  1  0
 10 51  1  0
 16 52  1  0
 17 53  1  0
 21 54  1  0
 22 55  1  0
 25 56  1  0
 28 57  1  0
 28 58  1  0
 29 59  1  0
 29 60  1  0
 30 61  1  0
 30 62  1  0
 31 63  1  0
 32 64  1  0
 32 65  1  0
 33 66  1  0
 33 67  1  0
 35 68  1  0
 35 69  1  0
 35 70  1  0
 36 71  1  0
 36 72  1  0
 37 73  1  0
 37 74  1  0
 38 75  1  0
 39 76  1  0
 43 77  1  0
M  CHG  2  14  -1  31   1
M  END
>  <UniqueID>  (25) 
24

>  <SMILES>  (25) 
Cc1nc(S(C)(=O)=O)ccc1C(=O)[N-]c1ccc(Oc2ccnc3cc(OCCC[NH+]4CCN(C)CC4)ccc23)c(F)c1

>  <Energy>  (25) 
108.57923482824016

>  <Genealogy>  (25) 
Cc1nc(S(C)(=O)=O)ccc1C(=O)[N-]c1ccc(Oc2ccnc3cc(OCCC[NH+]4CCN(C)CC4)ccc23)c(F)c1 (protonated)
Cc1nc(S(C)(=O)=O)ccc1C(=O)[N-]c1ccc(Oc2ccnc3cc(OCCC[NH+]4CCN(C)CC4)ccc23)c(F)c1 (3D coordinates assigned)
Cc1nc(S(C)(=O)=O)ccc1C(=O)[N-]c1ccc(Oc2ccnc3cc(OCCC[NH+]4CCN(C)CC4)ccc23)c(F)c1 (nonaromatic ring conformer: 108.57923482824016 kcal/mol)

>  <smiles>  (25) 
Cc1nc(S(C)(=O)=O)ccc1C(=O)Nc1ccc(Oc2ccnc3cc(OCCCN4CCN(C)CC4)ccc23)c(F)c1

>  <score_type>  (25) 
oracle

>  <origin>  (25) 
adgpu

>  <m_score__min__energy>  (25) 
-10.93

>  <m_primary>  (25) 
energy

$$$$
25:0
     RDKit          3D

 62 65  0  0  0  0  0  0  0  0999 V2000
   -0.5200   22.4780  -29.9080 O   0  0  0  0  0  0  0  0  0  0  0  0
   -1.6600   22.1950  -30.3650 C   0  0  0  0  0  0  0  0  0  0  0  0
   -2.8380   22.4950  -29.6020 N   0  0  0  0  0  0  0  0  0  0  0  0
   -3.9860   23.2370  -30.0410 C   0  0  0  0  0  0  0  0  0  0  0  0
   -5.1800   22.6010  -30.4320 C   0  0  0  0  0  0  0  0  0  0  0  0
   -6.2800   23.3560  -30.8550 C   0  0  0  0  0  0  0  0  0  0  0  0
   -7.7620   22.5360  -31.3460 S   0  0  0  0  0  0  0  0  0  0  0  0
   -8.5570   23.4720  -32.2120 O   0  0  0  0  0  0  0  0  0  0  0  0
   -8.5900   22.2000  -30.1340 O   0  0  0  0  0  0  0  0  0  0  0  0
   -7.3930   21.0860  -32.2500 N   0  0  0  0  0  0  0  0  0  0  0  0
   -6.3070   20.2930  -31.6330 C   0  0  0  0  0  0  0  0  0  0  0  0
   -5.9160   19.0080  -32.3850 C   0  0  0  0  0  0  0  0  0  0  0  0
   -6.6970   17.7420  -31.9970 C   0  0  0  0  0  0  0  0  0  0  0  0
   -8.2070   17.8170  -32.2830 C   0  0  0  0  0  0  0  0  0  0  0  0
   -8.9230   19.1050  -31.7990 C   0  0  0  0  0  0  0  0  0  0  0  0
   -8.6370   20.3720  -32.6250 C   0  0  0  0  0  0  0  0  0  0  0  0
   -6.2010   24.7550  -30.8570 C   0  0  0  0  0  0  0  0  0  0  0  0
   -5.0300   25.3920  -30.4400 C   0  0  0  0  0  0  0  0  0  0  0  0
   -3.9270   24.6370  -30.0290 C   0  0  0  0  0  0  0  0  0  0  0  0
   -2.7670   25.2880  -29.6180 O   0  0  0  0  0  0  0  0  0  0  0  0
   -1.7820   21.5000  -31.6690 C   0  0  0  0  0  0  0  0  0  0  0  0
   -2.9120   20.7090  -31.9570 C   0  0  0  0  0  0  0  0  0  0  0  0
   -3.0130   20.0370  -33.1780 C   0  0  0  0  0  0  0  0  0  0  0  0
   -1.9930   20.1450  -34.1250 C   0  0  0  0  0  0  0  0  0  0  0  0
   -0.8660   20.9330  -33.8600 C   0  0  0  0  0  0  0  0  0  0  0  0
    0.4270   21.0640  -35.0560 S   0  0  0  0  0  0  0  0  0  0  0  0
    1.5180   20.0870  -34.7130 O   0  0  0  0  0  0  0  0  0  0  0  0
   -0.1150   20.6990  -36.4100 O   0  0  0  0  0  0  0  0  0  0  0  0
    1.0950   22.6760  -35.1130 N   0  0  0  0  0  0  0  0  0  0  0  0
    0.2780   23.5420  -35.9800 C   0  0  0  0  0  0  0  0  0  0  0  0
    1.0040   24.8710  -36.2710 C   0  0  0  0  0  0  0  0  0  0  0  0
    2.0880   25.0590  -35.3820 O   0  0  0  0  0  0  0  0  0  0  0  0
    3.0730   24.0660  -35.6080 C   0  0  0  0  0  0  0  0  0  0  0  0
    2.4850   22.6390  -35.5900 C   0  0  0  0  0  0  0  0  0  0  0  0
   -0.7620   21.6110  -32.6340 C   0  0  0  0  0  0  0  0  0  0  0  0
   -5.2486   21.5035  -30.4048 H   0  0  0  0  0  0  0  0  0  0  0  0
   -5.4146   20.9329  -31.5685 H   0  0  0  0  0  0  0  0  0  0  0  0
   -6.6896   19.9662  -30.6548 H   0  0  0  0  0  0  0  0  0  0  0  0
   -6.0722   19.1849  -33.4594 H   0  0  0  0  0  0  0  0  0  0  0  0
   -4.8692   18.8088  -32.1119 H   0  0  0  0  0  0  0  0  0  0  0  0
   -6.2812   16.8942  -32.5613 H   0  0  0  0  0  0  0  0  0  0  0  0
   -6.5879   17.6258  -30.9086 H   0  0  0  0  0  0  0  0  0  0  0  0
   -8.3485   17.7409  -33.3712 H   0  0  0  0  0  0  0  0  0  0  0  0
   -8.6600   16.9918  -31.7139 H   0  0  0  0  0  0  0  0  0  0  0  0
  -10.0071   18.9205  -31.8256 H   0  0  0  0  0  0  0  0  0  0  0  0
   -8.5324   19.3071  -30.7907 H   0  0  0  0  0  0  0  0  0  0  0  0
   -8.5601   20.0815  -33.6832 H   0  0  0  0  0  0  0  0  0  0  0  0
   -9.4666   21.0667  -32.4272 H   0  0  0  0  0  0  0  0  0  0  0  0
   -7.0631   25.3529  -31.1877 H   0  0  0  0  0  0  0  0  0  0  0  0
   -4.9753   26.4906  -30.4349 H   0  0  0  0  0  0  0  0  0  0  0  0
   -3.7199   20.6199  -31.2158 H   0  0  0  0  0  0  0  0  0  0  0  0
   -3.8986   19.4212  -33.3936 H   0  0  0  0  0  0  0  0  0  0  0  0
   -2.0748   19.6095  -35.0824 H   0  0  0  0  0  0  0  0  0  0  0  0
    0.0849   23.0216  -36.9297 H   0  0  0  0  0  0  0  0  0  0  0  0
   -0.6680   23.7638  -35.4643 H   0  0  0  0  0  0  0  0  0  0  0  0
    1.3834   24.8556  -37.3034 H   0  0  0  0  0  0  0  0  0  0  0  0
    0.2912   25.6978  -36.1360 H   0  0  0  0  0  0  0  0  0  0  0  0
    3.5362   24.2448  -36.5896 H   0  0  0  0  0  0  0  0  0  0  0  0
    3.8112   24.1348  -34.7954 H   0  0  0  0  0  0  0  0  0  0  0  0
    2.5104   22.2213  -36.6073 H   0  0  0  0  0  0  0  0  0  0  0  0
    3.0829   22.0097  -34.9143 H   0  0  0  0  0  0  0  0  0  0  0  0
    0.1216   22.2325  -32.4264 H   0  0  0  0  0  0  0  0  0  0  0  0
  1  2  2  0
  2  3  1  0
  3  4  1  0
  4  5  2  0
  5  6  1  0
  6  7  1  0
  7  8  2  0
  7  9  2  0
  7 10  1  0
 10 11  1  0
 11 12  1  0
 12 13  1  0
 13 14  1  0
 14 15  1  0
 15 16  1  0
  6 17  2  0
 17 18  1  0
 18 19  2  0
 19 20  1  0
  2 21  1  0
 21 22  2  0
 22 23  1  0
 23 24  2  0
 24 25  1  0
 25 26  1  0
 26 27  2  0
 26 28  2  0
 26 29  1  0
 29 30  1  0
 30 31  1  0
 31 32  1  0
 32 33  1  0
 33 34  1  0
 25 35  2  0
 19  4  1  0
 35 21  1  0
 16 10  1  0
 34 29  1  0
  5 36  1  0
 11 37  1  0
 11 38  1  0
 12 39  1  0
 12 40  1  0
 13 41  1  0
 13 42  1  0
 14 43  1  0
 14 44  1  0
 15 45  1  0
 15 46  1  0
 16 47  1  0
 16 48  1  0
 17 49  1  0
 18 50  1  0
 22 51  1  0
 23 52  1  0
 24 53  1  0
 30 54  1  0
 30 55  1  0
 31 56  1  0
 31 57  1  0
 33 58  1  0
 33 59  1  0
 34 60  1  0
 34 61  1  0
 35 62  1  0
M  CHG  2   3  -1  20  -1
M  END
>  <UniqueID>  (26) 
25

>  <SMILES>  (26) 
O=C([N-]c1cc(S(=O)(=O)N2CCCCCC2)ccc1[O-])c1cccc(S(=O)(=O)N2CCOCC2)c1

>  <Energy>  (26) 
89.02438446874297

>  <Genealogy>  (26) 
O=C([N-]c1cc(S(=O)(=O)N2CCCCCC2)ccc1[O-])c1cccc(S(=O)(=O)N2CCOCC2)c1 (protonated)
O=C([N-]c1cc(S(=O)(=O)N2CCCCCC2)ccc1[O-])c1cccc(S(=O)(=O)N2CCOCC2)c1 (3D coordinates assigned)
O=C([N-]c1cc(S(=O)(=O)N2CCCCCC2)ccc1[O-])c1cccc(S(=O)(=O)N2CCOCC2)c1 (nonaromatic ring conformer: 89.02438446874297 kcal/mol)

>  <smiles>  (26) 
O=C(Nc1cc(S(=O)(=O)N2CCCCCC2)ccc1O)c1cccc(S(=O)(=O)N2CCOCC2)c1

>  <score_type>  (26) 
oracle

>  <origin>  (26) 
adgpu

>  <m_score__min__energy>  (26) 
-12.640000000000001

>  <m_primary>  (26) 
energy

$$$$
26:0
     RDKit          3D

 55 58  0  0  0  0  0  0  0  0999 V2000
   -1.9780   17.4360  -34.4380 C   0  0  0  0  0  0  0  0  0  0  0  0
   -3.0570   18.3720  -33.9790 C   0  0  0  0  0  0  0  0  0  0  0  0
   -2.9570   19.7490  -33.8200 C   0  0  0  0  0  0  0  0  0  0  0  0
   -1.8010   20.5890  -33.9370 N   0  0  0  0  0  0  0  0  0  0  0  0
   -0.9340   20.9620  -32.8580 C   0  0  0  0  0  0  0  0  0  0  0  0
    0.3110   20.9230  -33.0450 O   0  0  0  0  0  0  0  0  0  0  0  0
   -1.4570   21.4320  -31.5510 C   0  0  0  0  0  0  0  0  0  0  0  0
   -0.8420   21.0220  -30.3560 C   0  0  0  0  0  0  0  0  0  0  0  0
   -1.3560   21.4280  -29.1210 C   0  0  0  0  0  0  0  0  0  0  0  0
   -2.4860   22.2450  -29.0660 C   0  0  0  0  0  0  0  0  0  0  0  0
   -3.1000   22.6790  -30.2480 C   0  0  0  0  0  0  0  0  0  0  0  0
   -4.5460   23.6840  -30.2000 S   0  0  0  0  0  0  0  0  0  0  0  0
   -4.2650   25.0160  -30.8420 O   0  0  0  0  0  0  0  0  0  0  0  0
   -4.9340   23.9060  -28.7650 O   0  0  0  0  0  0  0  0  0  0  0  0
   -5.8510   22.8850  -31.0400 N   0  0  0  0  0  0  0  0  0  0  0  0
   -6.5640   23.7990  -31.9360 C   0  0  0  0  0  0  0  0  0  0  0  0
   -7.9870   23.2720  -32.0570 C   0  0  0  0  0  0  0  0  0  0  0  0
   -8.1740   22.3240  -30.8810 C   0  0  0  0  0  0  0  0  0  0  0  0
   -6.8600   22.3660  -30.1140 C   0  0  0  0  0  0  0  0  0  0  0  0
   -2.5710   22.2890  -31.4840 C   0  0  0  0  0  0  0  0  0  0  0  0
   -4.2080   20.1560  -33.4240 C   0  0  0  0  0  0  0  0  0  0  0  0
   -4.5520   21.3420  -33.1730 O   0  0  0  0  0  0  0  0  0  0  0  0
   -5.0200   19.0840  -33.3260 N   0  0  0  0  0  0  0  0  0  0  0  0
   -6.3960   19.1070  -32.9090 C   0  0  0  0  0  0  0  0  0  0  0  0
   -7.2910   20.0270  -33.4800 C   0  0  0  0  0  0  0  0  0  0  0  0
   -8.6310   20.0460  -33.0800 C   0  0  0  0  0  0  0  0  0  0  0  0
   -9.0860   19.1450  -32.1140 C   0  0  0  0  0  0  0  0  0  0  0  0
   -8.2020   18.2220  -31.5460 C   0  0  0  0  0  0  0  0  0  0  0  0
   -6.8610   18.2010  -31.9430 C   0  0  0  0  0  0  0  0  0  0  0  0
   -4.3180   17.9980  -33.6440 N   0  0  0  0  0  0  0  0  0  0  0  0
   -4.8320   16.6260  -33.6290 C   0  0  0  0  0  0  0  0  0  0  0  0
   -1.4746   16.9994  -33.5628 H   0  0  0  0  0  0  0  0  0  0  0  0
   -2.4227   16.6328  -35.0439 H   0  0  0  0  0  0  0  0  0  0  0  0
   -1.2456   17.9897  -35.0439 H   0  0  0  0  0  0  0  0  0  0  0  0
    0.0490   20.3779  -30.3925 H   0  0  0  0  0  0  0  0  0  0  0  0
   -0.8685   21.1026  -28.1902 H   0  0  0  0  0  0  0  0  0  0  0  0
   -2.8958   22.5491  -28.0916 H   0  0  0  0  0  0  0  0  0  0  0  0
   -5.4590   22.0880  -31.5980 H   0  0  0  0  0  0  0  0  0  0  0  0
   -6.5706   24.8149  -31.5142 H   0  0  0  0  0  0  0  0  0  0  0  0
   -6.0757   23.8490  -32.9204 H   0  0  0  0  0  0  0  0  0  0  0  0
   -8.7091   24.0999  -32.0013 H   0  0  0  0  0  0  0  0  0  0  0  0
   -8.1527   22.7648  -33.0189 H   0  0  0  0  0  0  0  0  0  0  0  0
   -9.0033   22.6622  -30.2423 H   0  0  0  0  0  0  0  0  0  0  0  0
   -8.4212   21.3048  -31.2129 H   0  0  0  0  0  0  0  0  0  0  0  0
   -6.9511   23.0293  -29.2413 H   0  0  0  0  0  0  0  0  0  0  0  0
   -6.5837   21.3670  -29.7457 H   0  0  0  0  0  0  0  0  0  0  0  0
   -3.0312   22.6565  -32.4130 H   0  0  0  0  0  0  0  0  0  0  0  0
   -6.9368   20.7346  -34.2441 H   0  0  0  0  0  0  0  0  0  0  0  0
   -9.3274   20.7711  -33.5264 H   0  0  0  0  0  0  0  0  0  0  0  0
  -10.1401   19.1616  -31.8000 H   0  0  0  0  0  0  0  0  0  0  0  0
   -8.5616   17.5121  -30.7866 H   0  0  0  0  0  0  0  0  0  0  0  0
   -6.1685   17.4721  -31.4967 H   0  0  0  0  0  0  0  0  0  0  0  0
   -4.9569   16.2926  -32.5882 H   0  0  0  0  0  0  0  0  0  0  0  0
   -5.8036   16.5928  -34.1438 H   0  0  0  0  0  0  0  0  0  0  0  0
   -4.1214   15.9626  -34.1438 H   0  0  0  0  0  0  0  0  0  0  0  0
  1  2  1  0
  2  3  2  0
  3  4  1  0
  4  5  1  0
  5  6  2  0
  5  7  1  0
  7  8  2  0
  8  9  1  0
  9 10  2  0
 10 11  1  0
 11 12  1  0
 12 13  2  0
 12 14  2  0
 12 15  1  0
 15 16  1  0
 16 17  1  0
 17 18  1  0
 18 19  1  0
 11 20  2  0
  3 21  1  0
 21 22  2  0
 21 23  1  0
 23 24  1  0
 24 25  2  0
 25 26  1  0
 26 27  2  0
 27 28  1  0
 28 29  2  0
 23 30  1  0
 30 31  1  0
 30  2  1  0
 20  7  1  0
 29 24  1  0
 19 15  1  0
  1 32  1  0
  1 33  1  0
  1 34  1  0
  8 35  1  0
  9 36  1  0
 10 37  1  0
 15 38  1  0
 16 39  1  0
 16 40  1  0
 17 41  1  0
 17 42  1  0
 18 43  1  0
 18 44  1  0
 19 45  1  0
 19 46  1  0
 20 47  1  0
 25 48  1  0
 26 49  1  0
 27 50  1  0
 28 51  1  0
 29 52  1  0
 31 53  1  0
 31 54  1  0
 31 55  1  0
M  CHG  2   4  -1  15   1
M  END
>  <UniqueID>  (27) 
26

>  <SMILES>  (27) 
Cc1c([N-]C(=O)c2cccc(S(=O)(=O)[NH+]3CCCC3)c2)c(=O)n(-c2ccccc2)n1C

>  <Energy>  (27) 
105.3946154657574

>  <Genealogy>  (27) 
Cc1c([N-]C(=O)c2cccc(S(=O)(=O)[NH+]3CCCC3)c2)c(=O)n(-c2ccccc2)n1C (protonated)
Cc1c([N-]C(=O)c2cccc(S(=O)(=O)[NH+]3CCCC3)c2)c(=O)n(-c2ccccc2)n1C (3D coordinates assigned)
Cc1c([N-]C(=O)c2cccc(S(=O)(=O)[NH+]3CCCC3)c2)c(=O)n(-c2ccccc2)n1C (nonaromatic ring conformer: 105.3946154657574 kcal/mol)

>  <smiles>  (27) 
Cc1c(NC(=O)c2cccc(S(=O)(=O)N3CCCC3)c2)c(=O)n(-c2ccccc2)n1C

>  <score_type>  (27) 
oracle

>  <origin>  (27) 
adgpu

>  <m_score__min__energy>  (27) 
-11.16

>  <m_primary>  (27) 
energy

$$$$
27:0
     RDKit          3D

 45 48  0  0  0  0  0  0  0  0999 V2000
   -4.1150   13.6110  -34.4500 C   0  0  0  0  0  0  0  0  0  0  0  0
   -5.1480   14.4780  -34.9040 O   0  0  0  0  0  0  0  0  0  0  0  0
   -5.4290   15.7350  -34.3500 C   0  0  0  0  0  0  0  0  0  0  0  0
   -4.5780   16.8030  -34.6520 C   0  0  0  0  0  0  0  0  0  0  0  0
   -4.8150   18.0730  -34.1190 C   0  0  0  0  0  0  0  0  0  0  0  0
   -5.9200   18.2980  -33.2860 C   0  0  0  0  0  0  0  0  0  0  0  0
   -6.1320   19.6400  -32.7000 C   0  0  0  0  0  0  0  0  0  0  0  0
   -5.0880   20.4340  -32.3410 N   0  0  0  0  0  0  0  0  0  0  0  0
   -5.6890   21.5230  -31.8320 C   0  0  0  0  0  0  0  0  0  0  0  0
   -5.0800   22.6580  -31.3040 C   0  0  0  0  0  0  0  0  0  0  0  0
   -5.9110   23.6880  -30.8170 C   0  0  0  0  0  0  0  0  0  0  0  0
   -5.2100   25.1560  -30.1460 S   0  0  0  0  0  0  0  0  0  0  0  0
   -5.5870   25.2570  -28.6960 O   0  0  0  0  0  0  0  0  0  0  0  0
   -5.7230   26.3720  -30.8670 O   0  0  0  0  0  0  0  0  0  0  0  0
   -3.4820   25.1000  -30.2820 N   0  0  0  0  0  0  0  0  0  0  0  0
   -2.5960   24.5300  -29.3110 C   0  0  0  0  0  0  0  0  0  0  0  0
   -2.8510   23.2930  -28.6920 C   0  0  0  0  0  0  0  0  0  0  0  0
   -1.9470   22.7820  -27.7600 C   0  0  0  0  0  0  0  0  0  0  0  0
   -0.8010   23.5130  -27.4470 C   0  0  0  0  0  0  0  0  0  0  0  0
   -0.5740   24.7130  -28.0440 N   0  0  0  0  0  0  0  0  0  0  0  0
   -1.4390   25.2290  -28.9570 C   0  0  0  0  0  0  0  0  0  0  0  0
   -7.3170   23.5450  -30.8710 C   0  0  0  0  0  0  0  0  0  0  0  0
   -7.9000   22.3840  -31.4120 C   0  0  0  0  0  0  0  0  0  0  0  0
   -7.0440   21.3910  -31.8890 C   0  0  0  0  0  0  0  0  0  0  0  0
   -7.3470   20.2080  -32.4520 N   0  0  0  0  0  0  0  0  0  0  0  0
   -8.6820   19.6830  -32.7390 C   0  0  0  0  0  0  0  0  0  0  0  0
   -6.7660   17.2250  -32.9670 C   0  0  0  0  0  0  0  0  0  0  0  0
   -6.5290   15.9550  -33.5000 C   0  0  0  0  0  0  0  0  0  0  0  0
   -4.1023   13.6003  -33.3501 H   0  0  0  0  0  0  0  0  0  0  0  0
   -4.2995   12.5933  -34.8245 H   0  0  0  0  0  0  0  0  0  0  0  0
   -3.1447   13.9692  -34.8245 H   0  0  0  0  0  0  0  0  0  0  0  0
   -3.7149   16.6420  -35.3146 H   0  0  0  0  0  0  0  0  0  0  0  0
   -4.1304   18.9011  -34.3545 H   0  0  0  0  0  0  0  0  0  0  0  0
   -3.9843   22.7486  -31.2678 H   0  0  0  0  0  0  0  0  0  0  0  0
   -3.7618   22.7292  -28.9423 H   0  0  0  0  0  0  0  0  0  0  0  0
   -2.1362   21.8121  -27.2768 H   0  0  0  0  0  0  0  0  0  0  0  0
   -0.0800   23.1179  -26.7162 H   0  0  0  0  0  0  0  0  0  0  0  0
   -1.2266   26.2038  -29.4204 H   0  0  0  0  0  0  0  0  0  0  0  0
   -7.9613   24.3493  -30.4863 H   0  0  0  0  0  0  0  0  0  0  0  0
   -8.9925   22.2637  -31.4572 H   0  0  0  0  0  0  0  0  0  0  0  0
   -9.2059   19.4770  -31.7940 H   0  0  0  0  0  0  0  0  0  0  0  0
   -9.2506   20.4245  -33.3194 H   0  0  0  0  0  0  0  0  0  0  0  0
   -8.5932   18.7528  -33.3194 H   0  0  0  0  0  0  0  0  0  0  0  0
   -7.6209   17.3844  -32.2934 H   0  0  0  0  0  0  0  0  0  0  0  0
   -7.2055   15.1232  -33.2540 H   0  0  0  0  0  0  0  0  0  0  0  0
  1  2  1  0
  2  3  1  0
  3  4  2  0
  4  5  1  0
  5  6  2  0
  6  7  1  0
  7  8  2  0
  8  9  1  0
  9 10  2  0
 10 11  1  0
 11 12  1  0
 12 13  2  0
 12 14  2  0
 12 15  1  0
 15 16  1  0
 16 17  2  0
 17 18  1  0
 18 19  2  0
 19 20  1  0
 20 21  2  0
 11 22  2  0
 22 23  1  0
 23 24  2  0
 24 25  1  0
 25 26  1  0
  6 27  1  0
 27 28  2  0
 28  3  1  0
 25  7  1  0
 24  9  1  0
 21 16  1  0
  1 29  1  0
  1 30  1  0
  1 31  1  0
  4 32  1  0
  5 33  1  0
 10 34  1  0
 17 35  1  0
 18 36  1  0
 19 37  1  0
 21 38  1  0
 22 39  1  0
 23 40  1  0
 26 41  1  0
 26 42  1  0
 26 43  1  0
 27 44  1  0
 28 45  1  0
M  CHG  1  15  -1
M  END
>  <UniqueID>  (28) 
27

>  <SMILES>  (28) 
COc1ccc(-c2nc3cc(S(=O)(=O)[N-]c4cccnc4)ccc3n2C)cc1

>  <Energy>  (28) 
94.96984993175266

>  <Genealogy>  (28) 
COc1ccc(-c2nc3cc(S(=O)(=O)[N-]c4cccnc4)ccc3n2C)cc1 (protonated)
COc1ccc(-c2nc3cc(S(=O)(=O)[N-]c4cccnc4)ccc3n2C)cc1 (3D coordinates assigned)
COc1ccc(-c2nc3cc(S(=O)(=O)[N-]c4cccnc4)ccc3n2C)cc1 (optimized conformer: 94.96984993175266 kcal/mol)

>  <smiles>  (28) 
COc1ccc(-c2nc3cc(S(=O)(=O)Nc4cccnc4)ccc3n2C)cc1

>  <score_type>  (28) 
oracle

>  <origin>  (28) 
adgpu

>  <m_score__min__energy>  (28) 
-10.039999999999999

>  <m_primary>  (28) 
energy

$$$$
28:0
     RDKit          3D

 40 41  0  0  0  0  0  0  0  0999 V2000
   -1.6920   19.5110  -27.1010 C   0  0  0  0  0  0  0  0  0  0  0  0
   -3.0610   20.1780  -27.1810 C   0  0  0  0  0  0  0  0  0  0  0  0
   -3.0760   21.2230  -28.2510 C   0  0  0  0  0  0  0  0  0  0  0  0
   -2.9240   22.5830  -28.0570 C   0  0  0  0  0  0  0  0  0  0  0  0
   -2.9560   23.1150  -29.3320 C   0  0  0  0  0  0  0  0  0  0  0  0
   -2.8900   24.5490  -29.6860 C   0  0  0  0  0  0  0  0  0  0  0  0
   -1.9410   25.2450  -29.2420 O   0  0  0  0  0  0  0  0  0  0  0  0
   -3.8860   25.1880  -30.4960 N   0  0  0  0  0  0  0  0  0  0  0  0
   -5.2790   25.3900  -30.1180 C   0  0  0  0  0  0  0  0  0  0  0  0
   -6.1010   24.2400  -30.6250 C   0  0  0  0  0  0  0  0  0  0  0  0
   -6.0960   23.9160  -31.9900 C   0  0  0  0  0  0  0  0  0  0  0  0
   -6.8310   22.8230  -32.4600 C   0  0  0  0  0  0  0  0  0  0  0  0
   -7.5620   22.0230  -31.5640 C   0  0  0  0  0  0  0  0  0  0  0  0
   -8.3440   20.9040  -32.0050 N   0  0  0  0  0  0  0  0  0  0  0  0
   -7.8470   19.6800  -32.5570 C   0  0  0  0  0  0  0  0  0  0  0  0
   -8.2760   18.3820  -31.9600 C   0  0  0  0  0  0  0  0  0  0  0  0
   -6.9890   19.6880  -33.4790 O   0  0  0  0  0  0  0  0  0  0  0  0
   -7.5720   22.3540  -30.2030 C   0  0  0  0  0  0  0  0  0  0  0  0
   -6.8370   23.4470  -29.7320 C   0  0  0  0  0  0  0  0  0  0  0  0
   -3.1170   22.1030  -30.2140 N   0  0  0  0  0  0  0  0  0  0  0  0
   -3.2250   22.2100  -31.6660 C   0  0  0  0  0  0  0  0  0  0  0  0
   -3.1850   20.9510  -29.5670 N   0  0  0  0  0  0  0  0  0  0  0  0
   -1.4117   19.3745  -26.0461 H   0  0  0  0  0  0  0  0  0  0  0  0
   -1.7318   18.5313  -27.5996 H   0  0  0  0  0  0  0  0  0  0  0  0
   -0.9450   20.1461  -27.5996 H   0  0  0  0  0  0  0  0  0  0  0  0
   -3.8214   19.4165  -27.4088 H   0  0  0  0  0  0  0  0  0  0  0  0
   -3.2792   20.6566  -26.2149 H   0  0  0  0  0  0  0  0  0  0  0  0
   -2.8047   23.1198  -27.1043 H   0  0  0  0  0  0  0  0  0  0  0  0
   -5.3586   25.4440  -29.0222 H   0  0  0  0  0  0  0  0  0  0  0  0
   -5.6480   26.3290  -30.5563 H   0  0  0  0  0  0  0  0  0  0  0  0
   -5.5107   24.5251  -32.6945 H   0  0  0  0  0  0  0  0  0  0  0  0
   -6.8373   22.5882  -33.5346 H   0  0  0  0  0  0  0  0  0  0  0  0
   -8.2512   18.4570  -30.8628 H   0  0  0  0  0  0  0  0  0  0  0  0
   -9.2993   18.1478  -32.2885 H   0  0  0  0  0  0  0  0  0  0  0  0
   -7.5938   17.5841  -32.2885 H   0  0  0  0  0  0  0  0  0  0  0  0
   -8.1626   21.7495  -29.4989 H   0  0  0  0  0  0  0  0  0  0  0  0
   -6.8361   23.6854  -28.6582 H   0  0  0  0  0  0  0  0  0  0  0  0
   -3.9849   22.9628  -31.9227 H   0  0  0  0  0  0  0  0  0  0  0  0
   -2.2536   22.5119  -32.0847 H   0  0  0  0  0  0  0  0  0  0  0  0
   -3.5179   21.2359  -32.0847 H   0  0  0  0  0  0  0  0  0  0  0  0
  1  2  1  0
  2  3  1  0
  3  4  1  0
  4  5  2  0
  5  6  1  0
  6  7  2  0
  6  8  1  0
  8  9  1  0
  9 10  1  0
 10 11  2  0
 11 12  1  0
 12 13  2  0
 13 14  1  0
 14 15  1  0
 15 16  1  0
 15 17  2  0
 13 18  1  0
 18 19  2  0
  5 20  1  0
 20 21  1  0
 20 22  1  0
 22  3  2  0
 19 10  1  0
  1 23  1  0
  1 24  1  0
  1 25  1  0
  2 26  1  0
  2 27  1  0
  4 28  1  0
  9 29  1  0
  9 30  1  0
 11 31  1  0
 12 32  1  0
 16 33  1  0
 16 34  1  0
 16 35  1  0
 18 36  1  0
 19 37  1  0
 21 38  1  0
 21 39  1  0
 21 40  1  0
M  CHG  2   8  -1  14  -1
M  END
>  <UniqueID>  (29) 
28

>  <SMILES>  (29) 
CCc1cc(C(=O)[N-]Cc2ccc([N-]C(C)=O)cc2)n(C)n1

>  <Energy>  (29) 
68.77188575986565

>  <Genealogy>  (29) 
CCc1cc(C(=O)[N-]Cc2ccc([N-]C(C)=O)cc2)n(C)n1 (protonated)
CCc1cc(C(=O)[N-]Cc2ccc([N-]C(C)=O)cc2)n(C)n1 (3D coordinates assigned)
CCc1cc(C(=O)[N-]Cc2ccc([N-]C(C)=O)cc2)n(C)n1 (optimized conformer: 68.77188575986565 kcal/mol)

>  <smiles>  (29) 
CCc1cc(C(=O)NCc2ccc(NC(C)=O)cc2)n(C)n1

>  <score_type>  (29) 
oracle

>  <origin>  (29) 
adgpu

>  <m_score__min__energy>  (29) 
-9.1999999999999993

>  <m_primary>  (29) 
energy

$$$$
29:0
     RDKit          3D

 53 56  0  0  0  0  0  0  0  0999 V2000
   -0.8920   19.4570  -28.0500 C   0  0  0  0  0  0  0  0  0  0  0  0
   -1.8740   20.0190  -27.1020 N   0  0  0  0  0  0  0  0  0  0  0  0
   -1.2400   20.8050  -26.0270 C   0  0  0  0  0  0  0  0  0  0  0  0
   -0.5340   22.0640  -26.5560 C   0  0  0  0  0  0  0  0  0  0  0  0
   -1.3510   22.7880  -27.5920 C   0  0  0  0  0  0  0  0  0  0  0  0
   -0.9590   24.0730  -27.9980 C   0  0  0  0  0  0  0  0  0  0  0  0
   -1.6880   24.7650  -28.9680 C   0  0  0  0  0  0  0  0  0  0  0  0
   -1.2970   26.0470  -29.3370 O   0  0  0  0  0  0  0  0  0  0  0  0
   -2.8210   24.1830  -29.5440 C   0  0  0  0  0  0  0  0  0  0  0  0
   -3.6140   24.9480  -30.4580 N   0  0  0  0  0  0  0  0  0  0  0  0
   -5.3240   25.1870  -30.2810 S   0  0  0  0  0  0  0  0  0  0  0  0
   -5.7390   26.4170  -31.0320 O   0  0  0  0  0  0  0  0  0  0  0  0
   -5.6450   25.3620  -28.8270 O   0  0  0  0  0  0  0  0  0  0  0  0
   -6.1790   23.7650  -30.8760 C   0  0  0  0  0  0  0  0  0  0  0  0
   -7.1770   23.1900  -30.0880 C   0  0  0  0  0  0  0  0  0  0  0  0
   -7.7610   21.9790  -30.4660 C   0  0  0  0  0  0  0  0  0  0  0  0
   -7.3560   21.3360  -31.6380 C   0  0  0  0  0  0  0  0  0  0  0  0
   -8.0370   19.7750  -32.0830 S   0  0  0  0  0  0  0  0  0  0  0  0
   -8.6360   19.8490  -33.4570 O   0  0  0  0  0  0  0  0  0  0  0  0
   -9.1290   19.4500  -31.1050 O   0  0  0  0  0  0  0  0  0  0  0  0
   -6.8120   18.5290  -32.0270 N   0  0  0  0  0  0  0  0  0  0  0  0
   -5.4740   19.1030  -32.1960 C   0  0  0  0  0  0  0  0  0  0  0  0
   -5.1070   19.0350  -33.6730 C   0  0  0  0  0  0  0  0  0  0  0  0
   -6.0980   18.0710  -34.2980 C   0  0  0  0  0  0  0  0  0  0  0  0
   -6.9800   17.6000  -33.1510 C   0  0  0  0  0  0  0  0  0  0  0  0
   -6.3870   21.9320  -32.4490 C   0  0  0  0  0  0  0  0  0  0  0  0
   -5.7970   23.1410  -32.0690 C   0  0  0  0  0  0  0  0  0  0  0  0
   -3.1780   22.8720  -29.1890 C   0  0  0  0  0  0  0  0  0  0  0  0
   -2.4480   22.1680  -28.2210 C   0  0  0  0  0  0  0  0  0  0  0  0
   -2.9200   20.8000  -27.7870 C   0  0  0  0  0  0  0  0  0  0  0  0
   -0.0700   18.9866  -27.4905 H   0  0  0  0  0  0  0  0  0  0  0  0
   -1.3832   18.7033  -28.6830 H   0  0  0  0  0  0  0  0  0  0  0  0
   -0.4910   20.2623  -28.6830 H   0  0  0  0  0  0  0  0  0  0  0  0
   -2.0155   21.1107  -25.3092 H   0  0  0  0  0  0  0  0  0  0  0  0
   -0.4781   20.1689  -25.5528 H   0  0  0  0  0  0  0  0  0  0  0  0
   -0.3487   22.7456  -25.7128 H   0  0  0  0  0  0  0  0  0  0  0  0
    0.4055   21.7464  -27.0319 H   0  0  0  0  0  0  0  0  0  0  0  0
   -0.0699   24.5393  -27.5484 H   0  0  0  0  0  0  0  0  0  0  0  0
   -7.5048   23.6924  -29.1659 H   0  0  0  0  0  0  0  0  0  0  0  0
   -8.5439   21.5293  -29.8376 H   0  0  0  0  0  0  0  0  0  0  0  0
   -5.4737   20.1506  -31.8606 H   0  0  0  0  0  0  0  0  0  0  0  0
   -4.7422   18.5407  -31.5975 H   0  0  0  0  0  0  0  0  0  0  0  0
   -5.1945   20.0289  -34.1361 H   0  0  0  0  0  0  0  0  0  0  0  0
   -4.0689   18.7015  -33.8186 H   0  0  0  0  0  0  0  0  0  0  0  0
   -6.7013   18.5813  -35.0632 H   0  0  0  0  0  0  0  0  0  0  0  0
   -5.5930   17.2313  -34.7978 H   0  0  0  0  0  0  0  0  0  0  0  0
   -8.0323   17.5903  -33.4711 H   0  0  0  0  0  0  0  0  0  0  0  0
   -6.6938   16.5824  -32.8468 H   0  0  0  0  0  0  0  0  0  0  0  0
   -6.0872   21.4480  -33.3902 H   0  0  0  0  0  0  0  0  0  0  0  0
   -5.0308   23.6029  -32.7091 H   0  0  0  0  0  0  0  0  0  0  0  0
   -4.0399   22.3922  -29.6758 H   0  0  0  0  0  0  0  0  0  0  0  0
   -3.7704   20.9243  -27.1005 H   0  0  0  0  0  0  0  0  0  0  0  0
   -3.2018   20.2464  -28.6948 H   0  0  0  0  0  0  0  0  0  0  0  0
  1  2  1  0
  2  3  1  0
  3  4  1  0
  4  5  1  0
  5  6  2  0
  6  7  1  0
  7  8  1  0
  7  9  2  0
  9 10  1  0
 10 11  1  0
 11 12  2  0
 11 13  2  0
 11 14  1  0
 14 15  2  0
 15 16  1  0
 16 17  2  0
 17 18  1  0
 18 19  2  0
 18 20  2  0
 18 21  1  0
 21 22  1  0
 22 23  1  0
 23 24  1  0
 24 25  1  0
 17 26  1  0
 26 27  2  0
  9 28  1  0
 28 29  2  0
 29 30  1  0
 30  2  1  0
 29  5  1  0
 27 14  1  0
 25 21  1  0
  1 31  1  0
  1 32  1  0
  1 33  1  0
  3 34  1  0
  3 35  1  0
  4 36  1  0
  4 37  1  0
  6 38  1  0
 15 39  1  0
 16 40  1  0
 22 41  1  0
 22 42  1  0
 23 43  1  0
 23 44  1  0
 24 45  1  0
 24 46  1  0
 25 47  1  0
 25 48  1  0
 26 49  1  0
 27 50  1  0
 28 51  1  0
 30 52  1  0
 30 53  1  0
M  CHG  2   8  -1  10  -1
M  END
>  <UniqueID>  (30) 
29

>  <SMILES>  (30) 
CN1CCc2cc([O-])c([N-]S(=O)(=O)c3ccc(S(=O)(=O)N4CCCC4)cc3)cc2C1

>  <Energy>  (30) 
66.15819714420302

>  <Genealogy>  (30) 
CN1CCc2cc([O-])c([N-]S(=O)(=O)c3ccc(S(=O)(=O)N4CCCC4)cc3)cc2C1 (protonated)
CN1CCc2cc([O-])c([N-]S(=O)(=O)c3ccc(S(=O)(=O)N4CCCC4)cc3)cc2C1 (3D coordinates assigned)
CN1CCc2cc([O-])c([N-]S(=O)(=O)c3ccc(S(=O)(=O)N4CCCC4)cc3)cc2C1 (nonaromatic ring conformer: 66.15819714420302 kcal/mol)

>  <smiles>  (30) 
CN1CCc2cc(O)c(NS(=O)(=O)c3ccc(S(=O)(=O)N4CCCC4)cc3)cc2C1

>  <score_type>  (30) 
oracle

>  <origin>  (30) 
adgpu

>  <m_score__min__energy>  (30) 
-15.67

>  <m_primary>  (30) 
energy

$$$$
30:0
     RDKit          3D

 51 54  0  0  0  0  0  0  0  0999 V2000
   -1.4020   21.6360  -26.7110 C   0  0  0  0  0  0  0  0  0  0  0  0
   -1.9980   22.6140  -27.6910 C   0  0  0  0  0  0  0  0  0  0  0  0
   -3.1250   22.2160  -28.4260 C   0  0  0  0  0  0  0  0  0  0  0  0
   -3.7270   23.0840  -29.3340 C   0  0  0  0  0  0  0  0  0  0  0  0
   -3.2060   24.3680  -29.5390 C   0  0  0  0  0  0  0  0  0  0  0  0
   -3.8300   25.2990  -30.4370 N   0  0  0  0  0  0  0  0  0  0  0  0
   -5.2080   25.3220  -30.8240 C   0  0  0  0  0  0  0  0  0  0  0  0
   -6.0400   26.0270  -30.1910 O   0  0  0  0  0  0  0  0  0  0  0  0
   -5.6250   24.5290  -31.9410 N   0  0  0  0  0  0  0  0  0  0  0  0
   -6.3980   23.3210  -31.8900 C   0  0  0  0  0  0  0  0  0  0  0  0
   -7.6670   23.3610  -31.3030 C   0  0  0  0  0  0  0  0  0  0  0  0
   -8.4600   22.2130  -31.2500 C   0  0  0  0  0  0  0  0  0  0  0  0
   -8.0040   21.0080  -31.8040 C   0  0  0  0  0  0  0  0  0  0  0  0
   -6.7260   20.9570  -32.3990 C   0  0  0  0  0  0  0  0  0  0  0  0
   -5.9430   22.1190  -32.4620 C   0  0  0  0  0  0  0  0  0  0  0  0
   -6.2330   19.6940  -33.0670 C   0  0  0  0  0  0  0  0  0  0  0  0
   -6.9040   18.4770  -32.5670 N   0  0  0  0  0  0  0  0  0  0  0  0
   -6.3870   18.0620  -31.2520 C   0  0  0  0  0  0  0  0  0  0  0  0
   -8.3720   18.6290  -32.5780 C   0  0  0  0  0  0  0  0  0  0  0  0
   -8.8530   19.7710  -31.6720 C   0  0  0  0  0  0  0  0  0  0  0  0
   -2.0870   24.7840  -28.8040 C   0  0  0  0  0  0  0  0  0  0  0  0
   -1.6180   26.0820  -28.9820 O   0  0  0  0  0  0  0  0  0  0  0  0
   -1.4490   23.9060  -27.8980 C   0  0  0  0  0  0  0  0  0  0  0  0
   -0.0110   24.4530  -26.9970 S   0  0  0  0  0  0  0  0  0  0  0  0
    0.8760   23.2730  -26.7140 O   0  0  0  0  0  0  0  0  0  0  0  0
    0.7890   25.4220  -27.8230 O   0  0  0  0  0  0  0  0  0  0  0  0
   -0.4270   25.2400  -25.4380 C   0  0  0  0  0  0  0  0  0  0  0  0
   -1.8030   25.8830  -25.3320 C   0  0  0  0  0  0  0  0  0  0  0  0
   -0.5730   26.7500  -25.5380 C   0  0  0  0  0  0  0  0  0  0  0  0
   -1.6079   21.9739  -25.6846 H   0  0  0  0  0  0  0  0  0  0  0  0
   -1.8485   20.6428  -26.8666 H   0  0  0  0  0  0  0  0  0  0  0  0
   -0.3146   21.5776  -26.8666 H   0  0  0  0  0  0  0  0  0  0  0  0
   -3.5380   21.2065  -28.2835 H   0  0  0  0  0  0  0  0  0  0  0  0
   -4.6168   22.7592  -29.8933 H   0  0  0  0  0  0  0  0  0  0  0  0
   -8.0431   24.3041  -30.8799 H   0  0  0  0  0  0  0  0  0  0  0  0
   -9.4491   22.2540  -30.7705 H   0  0  0  0  0  0  0  0  0  0  0  0
   -4.9643   22.0902  -32.9632 H   0  0  0  0  0  0  0  0  0  0  0  0
   -6.4153   19.7755  -34.1487 H   0  0  0  0  0  0  0  0  0  0  0  0
   -5.1616   19.5970  -32.8373 H   0  0  0  0  0  0  0  0  0  0  0  0
   -6.9805   18.5384  -30.4577 H   0  0  0  0  0  0  0  0  0  0  0  0
   -6.4594   16.9684  -31.1580 H   0  0  0  0  0  0  0  0  0  0  0  0
   -5.3350   18.3692  -31.1580 H   0  0  0  0  0  0  0  0  0  0  0  0
   -8.6973   18.8356  -33.6083 H   0  0  0  0  0  0  0  0  0  0  0  0
   -8.8071   17.6939  -32.1955 H   0  0  0  0  0  0  0  0  0  0  0  0
   -9.8889   20.0235  -31.9424 H   0  0  0  0  0  0  0  0  0  0  0  0
   -8.7801   19.4249  -30.6304 H   0  0  0  0  0  0  0  0  0  0  0  0
    0.1310   24.5301  -24.8099 H   0  0  0  0  0  0  0  0  0  0  0  0
   -2.5319   25.7599  -26.1466 H   0  0  0  0  0  0  0  0  0  0  0  0
   -2.6204   25.8546  -24.5964 H   0  0  0  0  0  0  0  0  0  0  0  0
   -0.4117   27.2552  -26.5017 H   0  0  0  0  0  0  0  0  0  0  0  0
   -0.1316   27.6099  -25.0129 H   0  0  0  0  0  0  0  0  0  0  0  0
  1  2  1  0
  2  3  2  0
  3  4  1  0
  4  5  2  0
  5  6  1  0
  6  7  1  0
  7  8  2  0
  7  9  1  0
  9 10  1  0
 10 11  2  0
 11 12  1  0
 12 13  2  0
 13 14  1  0
 14 15  2  0
 14 16  1  0
 16 17  1  0
 17 18  1  0
 17 19  1  0
 19 20  1  0
  5 21  1  0
 21 22  1  0
 21 23  2  0
 23 24  1  0
 24 25  2  0
 24 26  2  0
 24 27  1  0
 27 28  1  0
 28 29  1  0
 23  2  1  0
 29 27  1  0
 15 10  1  0
 20 13  1  0
  1 30  1  0
  1 31  1  0
  1 32  1  0
  3 33  1  0
  4 34  1  0
 11 35  1  0
 12 36  1  0
 15 37  1  0
 16 38  1  0
 16 39  1  0
 18 40  1  0
 18 41  1  0
 18 42  1  0
 19 43  1  0
 19 44  1  0
 20 45  1  0
 20 46  1  0
 27 47  1  0
 28 48  1  0
 28 49  1  0
 29 50  1  0
 29 51  1  0
M  CHG  3   6  -1   9  -1  22  -1
M  END
>  <UniqueID>  (31) 
30

>  <SMILES>  (31) 
Cc1ccc([N-]C(=O)[N-]c2ccc3c(c2)CN(C)CC3)c([O-])c1S(=O)(=O)C1CC1

>  <Energy>  (31) 
332.38129540796393

>  <Genealogy>  (31) 
Cc1ccc([N-]C(=O)[N-]c2ccc3c(c2)CN(C)CC3)c([O-])c1S(=O)(=O)C1CC1 (protonated)
Cc1ccc([N-]C(=O)[N-]c2ccc3c(c2)CN(C)CC3)c([O-])c1S(=O)(=O)C1CC1 (3D coordinates assigned)
Cc1ccc([N-]C(=O)[N-]c2ccc3c(c2)CN(C)CC3)c([O-])c1S(=O)(=O)C1CC1 (nonaromatic ring conformer: 332.38129540796393 kcal/mol)

>  <smiles>  (31) 
Cc1ccc(NC(=O)Nc2ccc3c(c2)CN(C)CC3)c(O)c1S(=O)(=O)C1CC1

>  <score_type>  (31) 
oracle

>  <origin>  (31) 
adgpu

>  <m_score__min__energy>  (31) 
-16.390000000000001

>  <m_primary>  (31) 
energy

$$$$
31:0
     RDKit          3D

 58 61  0  0  0  0  0  0  0  0999 V2000
   -2.1320   25.1870  -29.2560 N   0  0  0  0  0  0  0  0  0  0  0  0
   -3.5450   24.4770  -29.9600 S   0  0  0  0  0  0  0  0  0  0  0  0
   -4.2580   25.5000  -30.8000 O   0  0  0  0  0  0  0  0  0  0  0  0
   -4.4530   24.0190  -28.8550 O   0  0  0  0  0  0  0  0  0  0  0  0
   -3.1090   23.0990  -30.9650 C   0  0  0  0  0  0  0  0  0  0  0  0
   -1.8550   22.4870  -30.8240 C   0  0  0  0  0  0  0  0  0  0  0  0
   -1.5100   21.3990  -31.6280 C   0  0  0  0  0  0  0  0  0  0  0  0
   -2.4080   20.9160  -32.5930 C   0  0  0  0  0  0  0  0  0  0  0  0
   -2.0370   19.8000  -33.4180 N   0  0  0  0  0  0  0  0  0  0  0  0
   -2.7830   18.7110  -33.5210 N   0  0  0  0  0  0  0  0  0  0  0  0
   -2.1560   17.8380  -34.3370 C   0  0  0  0  0  0  0  0  0  0  0  0
   -2.6680   16.4790  -34.6210 C   0  0  0  0  0  0  0  0  0  0  0  0
   -1.9180   15.6320  -35.1740 O   0  0  0  0  0  0  0  0  0  0  0  0
   -4.0290   16.1150  -34.3490 N   0  0  0  0  0  0  0  0  0  0  0  0
   -5.0170   16.9640  -33.7490 C   0  0  0  0  0  0  0  0  0  0  0  0
   -5.5120   18.0960  -34.4170 C   0  0  0  0  0  0  0  0  0  0  0  0
   -6.5580   18.8380  -33.8610 C   0  0  0  0  0  0  0  0  0  0  0  0
   -7.1000   18.4720  -32.6220 C   0  0  0  0  0  0  0  0  0  0  0  0
   -8.5130   19.3130  -31.9870 S   0  0  0  0  0  0  0  0  0  0  0  0
   -9.0820   18.5190  -30.8430 O   0  0  0  0  0  0  0  0  0  0  0  0
   -9.5590   19.4170  -33.0630 O   0  0  0  0  0  0  0  0  0  0  0  0
   -8.0700   20.9100  -31.4220 N   0  0  0  0  0  0  0  0  0  0  0  0
   -7.1540   21.5410  -32.3900 C   0  0  0  0  0  0  0  0  0  0  0  0
   -6.9720   23.0460  -32.0940 C   0  0  0  0  0  0  0  0  0  0  0  0
   -8.1620   23.7790  -31.8070 O   0  0  0  0  0  0  0  0  0  0  0  0
   -9.3350   23.0060  -31.9850 C   0  0  0  0  0  0  0  0  0  0  0  0
   -9.2780   21.7220  -31.1410 C   0  0  0  0  0  0  0  0  0  0  0  0
   -6.5470   17.3930  -31.9180 C   0  0  0  0  0  0  0  0  0  0  0  0
   -5.5060   16.6460  -32.4770 C   0  0  0  0  0  0  0  0  0  0  0  0
   -0.9750   18.4150  -34.7800 C   0  0  0  0  0  0  0  0  0  0  0  0
    0.0590   17.7940  -35.5510 N   0  0  0  0  0  0  0  0  0  0  0  0
   -0.9180   19.6550  -34.1690 C   0  0  0  0  0  0  0  0  0  0  0  0
    0.2230   20.5910  -34.2070 C   0  0  0  0  0  0  0  0  0  0  0  0
    0.0590   21.9210  -34.7030 N   0  0  0  0  0  0  0  0  0  0  0  0
    1.3480   20.2210  -33.7830 O   0  0  0  0  0  0  0  0  0  0  0  0
   -3.6630   21.5290  -32.7320 C   0  0  0  0  0  0  0  0  0  0  0  0
   -4.0060   22.6210  -31.9280 C   0  0  0  0  0  0  0  0  0  0  0  0
   -1.6110   25.6670  -30.0240 H   0  0  0  0  0  0  0  0  0  0  0  0
   -1.1410   22.8654  -30.0776 H   0  0  0  0  0  0  0  0  0  0  0  0
   -0.5288   20.9174  -31.5046 H   0  0  0  0  0  0  0  0  0  0  0  0
   -5.0755   18.3994  -35.3800 H   0  0  0  0  0  0  0  0  0  0  0  0
   -6.9566   19.7116  -34.3976 H   0  0  0  0  0  0  0  0  0  0  0  0
   -6.1745   21.0438  -32.3326 H   0  0  0  0  0  0  0  0  0  0  0  0
   -7.5865   21.4355  -33.3959 H   0  0  0  0  0  0  0  0  0  0  0  0
   -6.3027   23.1390  -31.2260 H   0  0  0  0  0  0  0  0  0  0  0  0
   -6.5731   23.4828  -33.0214 H   0  0  0  0  0  0  0  0  0  0  0  0
  -10.2083   23.6004  -31.6782 H   0  0  0  0  0  0  0  0  0  0  0  0
   -9.4146   22.7265  -33.0459 H   0  0  0  0  0  0  0  0  0  0  0  0
   -9.2765   21.9995  -30.0766 H   0  0  0  0  0  0  0  0  0  0  0  0
  -10.1570   21.1133  -31.3996 H   0  0  0  0  0  0  0  0  0  0  0  0
   -6.9339   17.1332  -30.9216 H   0  0  0  0  0  0  0  0  0  0  0  0
   -5.0702   15.8063  -31.9157 H   0  0  0  0  0  0  0  0  0  0  0  0
    0.9590   18.2870  -35.7320 H   0  0  0  0  0  0  0  0  0  0  0  0
   -0.0550   16.8360  -35.9450 H   0  0  0  0  0  0  0  0  0  0  0  0
   -0.8830   22.2830  -34.9650 H   0  0  0  0  0  0  0  0  0  0  0  0
    0.8790   22.5650  -34.7580 H   0  0  0  0  0  0  0  0  0  0  0  0
   -4.3792   21.1494  -33.4757 H   0  0  0  0  0  0  0  0  0  0  0  0
   -4.9851   23.1065  -32.0529 H   0  0  0  0  0  0  0  0  0  0  0  0
  1  2  1  0
  2  3  2  0
  2  4  2  0
  2  5  1  0
  5  6  2  0
  6  7  1  0
  7  8  2  0
  8  9  1  0
  9 10  1  0
 10 11  2  0
 11 12  1  0
 12 13  2  0
 12 14  1  0
 14 15  1  0
 15 16  2  0
 16 17  1  0
 17 18  2  0
 18 19  1  0
 19 20  2  0
 19 21  2  0
 19 22  1  0
 22 23  1  0
 23 24  1  0
 24 25  1  0
 25 26  1  0
 26 27  1  0
 18 28  1  0
 28 29  2  0
 11 30  1  0
 30 31  1  0
 30 32  2  0
 32 33  1  0
 33 34  1  0
 33 35  2  0
  8 36  1  0
 36 37  2  0
 37  5  1  0
 32  9  1  0
 29 15  1  0
 27 22  1  0
  1 38  1  0
  6 39  1  0
  7 40  1  0
 16 41  1  0
 17 42  1  0
 23 43  1  0
 23 44  1  0
 24 45  1  0
 24 46  1  0
 26 47  1  0
 26 48  1  0
 27 49  1  0
 27 50  1  0
 28 51  1  0
 29 52  1  0
 31 53  1  0
 31 54  1  0
 34 55  1  0
 34 56  1  0
 36 57  1  0
 37 58  1  0
M  CHG  2   1  -1  14  -1
M  END
>  <UniqueID>  (32) 
31

>  <SMILES>  (32) 
[NH-]S(=O)(=O)c1ccc(-n2nc(C(=O)[N-]c3ccc(S(=O)(=O)N4CCOCC4)cc3)c(N)c2C(N)=O)cc1

>  <Energy>  (32) 
114.54902219096732

>  <Genealogy>  (32) 
[NH-]S(=O)(=O)c1ccc(-n2nc(C(=O)[N-]c3ccc(S(=O)(=O)N4CCOCC4)cc3)c(N)c2C(N)=O)cc1 (protonated)
[NH-]S(=O)(=O)c1ccc(-n2nc(C(=O)[N-]c3ccc(S(=O)(=O)N4CCOCC4)cc3)c(N)c2C(N)=O)cc1 (3D coordinates assigned)
[NH-]S(=O)(=O)c1ccc(-n2nc(C(=O)[N-]c3ccc(S(=O)(=O)N4CCOCC4)cc3)c(N)c2C(N)=O)cc1 (nonaromatic ring conformer: 114.54902219096732 kcal/mol)

>  <smiles>  (32) 
NC(=O)c1c(N)c(C(=O)Nc2ccc(S(=O)(=O)N3CCOCC3)cc2)nn1-c1ccc(S(N)(=O)=O)cc1

>  <score_type>  (32) 
oracle

>  <origin>  (32) 
adgpu

>  <m_score__min__energy>  (32) 
-13.140000000000001

>  <m_primary>  (32) 
energy

$$$$
32:0
     RDKit          3D

 55 58  0  0  0  0  0  0  0  0999 V2000
   -7.1480   23.9060  -31.2000 C   0  0  0  0  0  0  0  0  0  0  0  0
   -5.7620   24.2260  -30.7500 C   0  0  0  0  0  0  0  0  0  0  0  0
   -5.0510   23.5540  -29.7790 C   0  0  0  0  0  0  0  0  0  0  0  0
   -3.8750   24.2720  -29.6910 C   0  0  0  0  0  0  0  0  0  0  0  0
   -2.7410   23.9900  -28.8050 C   0  0  0  0  0  0  0  0  0  0  0  0
   -1.4000   24.1660  -29.1310 C   0  0  0  0  0  0  0  0  0  0  0  0
   -0.5290   23.8170  -28.0940 C   0  0  0  0  0  0  0  0  0  0  0  0
   -1.1890   23.3670  -26.9600 C   0  0  0  0  0  0  0  0  0  0  0  0
   -0.4180   22.8310  -25.4780 S   0  0  0  0  0  0  0  0  0  0  0  0
    1.0720   22.8410  -25.6700 O   0  0  0  0  0  0  0  0  0  0  0  0
   -0.7790   23.7620  -24.3540 O   0  0  0  0  0  0  0  0  0  0  0  0
   -0.9380   21.2180  -25.0900 N   0  0  0  0  0  0  0  0  0  0  0  0
   -1.6850   20.6520  -26.2150 C   0  0  0  0  0  0  0  0  0  0  0  0
   -0.7180   20.2500  -27.3290 C   0  0  0  0  0  0  0  0  0  0  0  0
   -1.3350   20.4950  -28.6800 C   0  0  0  0  0  0  0  0  0  0  0  0
   -2.7320   20.5290  -28.8260 C   0  0  0  0  0  0  0  0  0  0  0  0
   -3.3040   20.7930  -30.0730 C   0  0  0  0  0  0  0  0  0  0  0  0
   -2.4890   21.0320  -31.1890 C   0  0  0  0  0  0  0  0  0  0  0  0
   -3.2140   21.3540  -32.7680 S   0  0  0  0  0  0  0  0  0  0  0  0
   -4.0110   22.6250  -32.6960 O   0  0  0  0  0  0  0  0  0  0  0  0
   -2.1210   21.5460  -33.7830 O   0  0  0  0  0  0  0  0  0  0  0  0
   -4.2590   20.0460  -33.2770 N   0  0  0  0  0  0  0  0  0  0  0  0
   -5.6790   20.3330  -32.9790 C   0  0  0  0  0  0  0  0  0  0  0  0
   -6.1910   19.5220  -31.7730 C   0  0  0  0  0  0  0  0  0  0  0  0
   -6.0690   18.1170  -31.9500 O   0  0  0  0  0  0  0  0  0  0  0  0
   -4.9320   17.7300  -32.7120 C   0  0  0  0  0  0  0  0  0  0  0  0
   -3.7940   18.7650  -32.7110 C   0  0  0  0  0  0  0  0  0  0  0  0
   -1.0950   21.0200  -31.0400 C   0  0  0  0  0  0  0  0  0  0  0  0
   -0.5220   20.7550  -29.7940 C   0  0  0  0  0  0  0  0  0  0  0  0
   -2.8480   23.3990  -27.2300 S   0  0  0  0  0  0  0  0  0  0  0  0
   -3.9250   25.2760  -30.5360 O   0  0  0  0  0  0  0  0  0  0  0  0
   -5.0530   25.2840  -31.1890 N   0  0  0  0  0  0  0  0  0  0  0  0
   -7.7934   23.7570  -30.3218 H   0  0  0  0  0  0  0  0  0  0  0  0
   -7.5383   24.7377  -31.8050 H   0  0  0  0  0  0  0  0  0  0  0  0
   -7.1342   22.9874  -31.8050 H   0  0  0  0  0  0  0  0  0  0  0  0
   -5.3489   22.6605  -29.2108 H   0  0  0  0  0  0  0  0  0  0  0  0
   -1.0589   24.5421  -30.1068 H   0  0  0  0  0  0  0  0  0  0  0  0
    0.5658   23.8916  -28.1698 H   0  0  0  0  0  0  0  0  0  0  0  0
   -1.5880   21.2980  -24.2740 H   0  0  0  0  0  0  0  0  0  0  0  0
   -2.2400   19.7650  -25.8755 H   0  0  0  0  0  0  0  0  0  0  0  0
   -2.3888   21.4050  -26.5992 H   0  0  0  0  0  0  0  0  0  0  0  0
    0.2036   20.8437  -27.2394 H   0  0  0  0  0  0  0  0  0  0  0  0
   -0.4910   19.1781  -27.2319 H   0  0  0  0  0  0  0  0  0  0  0  0
   -3.3782   20.3470  -27.9546 H   0  0  0  0  0  0  0  0  0  0  0  0
   -4.3986   20.8135  -30.1800 H   0  0  0  0  0  0  0  0  0  0  0  0
   -5.7857   21.4051  -32.7571 H   0  0  0  0  0  0  0  0  0  0  0  0
   -6.2751   20.0475  -33.8582 H   0  0  0  0  0  0  0  0  0  0  0  0
   -5.6121   19.8139  -30.8844 H   0  0  0  0  0  0  0  0  0  0  0  0
   -7.2622   19.7452  -31.6603 H   0  0  0  0  0  0  0  0  0  0  0  0
   -4.5428   16.7881  -32.2980 H   0  0  0  0  0  0  0  0  0  0  0  0
   -5.2680   17.6287  -33.7545 H   0  0  0  0  0  0  0  0  0  0  0  0
   -3.4541   18.9281  -31.6776 H   0  0  0  0  0  0  0  0  0  0  0  0
   -2.9663   18.3838  -33.3271 H   0  0  0  0  0  0  0  0  0  0  0  0
   -0.4497   21.2201  -31.9081 H   0  0  0  0  0  0  0  0  0  0  0  0
    0.5726   20.7501  -29.6853 H   0  0  0  0  0  0  0  0  0  0  0  0
  1  2  1  0
  2  3  1  0
  3  4  2  0
  4  5  1  0
  5  6  2  0
  6  7  1  0
  7  8  2  0
  8  9  1  0
  9 10  2  0
  9 11  2  0
  9 12  1  0
 12 13  1  0
 13 14  1  0
 14 15  1  0
 15 16  2  0
 16 17  1  0
 17 18  2  0
 18 19  1  0
 19 20  2  0
 19 21  2  0
 19 22  1  0
 22 23  1  0
 23 24  1  0
 24 25  1  0
 25 26  1  0
 26 27  1  0
 18 28  1  0
 28 29  2  0
  8 30  1  0
  4 31  1  0
 31 32  1  0
 32  2  2  0
 30  5  1  0
 29 15  1  0
 27 22  1  0
  1 33  1  0
  1 34  1  0
  1 35  1  0
  3 36  1  0
  6 37  1  0
  7 38  1  0
 12 39  1  0
 13 40  1  0
 13 41  1  0
 14 42  1  0
 14 43  1  0
 16 44  1  0
 17 45  1  0
 23 46  1  0
 23 47  1  0
 24 48  1  0
 24 49  1  0
 26 50  1  0
 26 51  1  0
 27 52  1  0
 27 53  1  0
 28 54  1  0
 29 55  1  0
M  END
>  <UniqueID>  (33) 
32

>  <SMILES>  (33) 
Cc1cc(-c2ccc(S(=O)(=O)NCCc3ccc(S(=O)(=O)N4CCOCC4)cc3)s2)on1

>  <Energy>  (33) 
118.5008958978036

>  <Genealogy>  (33) 
Cc1cc(-c2ccc(S(=O)(=O)NCCc3ccc(S(=O)(=O)N4CCOCC4)cc3)s2)on1 (3D coordinates assigned)
Cc1cc(-c2ccc(S(=O)(=O)NCCc3ccc(S(=O)(=O)N4CCOCC4)cc3)s2)on1 (nonaromatic ring conformer: 118.5008958978036 kcal/mol)

>  <smiles>  (33) 
Cc1cc(-c2ccc(S(=O)(=O)NCCc3ccc(S(=O)(=O)N4CCOCC4)cc3)s2)on1

>  <score_type>  (33) 
oracle

>  <origin>  (33) 
adgpu

>  <m_score__min__energy>  (33) 
-10.9

>  <m_primary>  (33) 
energy

$$$$
33:0
     RDKit          3D

 46 48  0  0  0  0  0  0  0  0999 V2000
   -8.5940   21.1000  -30.4630 O   0  0  0  0  0  0  0  0  0  0  0  0
   -8.0480   21.6890  -31.7350 S   0  0  0  0  0  0  0  0  0  0  0  0
   -9.1340   22.4900  -32.3970 O   0  0  0  0  0  0  0  0  0  0  0  0
   -7.5120   20.4320  -32.8220 N   0  0  0  0  0  0  0  0  0  0  0  0
   -7.0090   19.2420  -32.1060 C   0  0  0  0  0  0  0  0  0  0  0  0
   -7.5650   17.9450  -32.7600 C   0  0  0  0  0  0  0  0  0  0  0  0
   -6.6730   17.3690  -33.8820 C   0  0  0  0  0  0  0  0  0  0  0  0
   -5.8060   18.4440  -34.5420 C   0  0  0  0  0  0  0  0  0  0  0  0
   -4.8690   19.1190  -33.5230 C   0  0  0  0  0  0  0  0  0  0  0  0
   -5.4650   19.1940  -32.1010 C   0  0  0  0  0  0  0  0  0  0  0  0
   -6.6980   22.7620  -31.3870 C   0  0  0  0  0  0  0  0  0  0  0  0
   -6.8320   24.1510  -31.5090 C   0  0  0  0  0  0  0  0  0  0  0  0
   -5.7560   24.9880  -31.2080 C   0  0  0  0  0  0  0  0  0  0  0  0
   -4.5400   24.4460  -30.7810 C   0  0  0  0  0  0  0  0  0  0  0  0
   -3.4800   25.2970  -30.4910 O   0  0  0  0  0  0  0  0  0  0  0  0
   -4.3980   23.0530  -30.6500 C   0  0  0  0  0  0  0  0  0  0  0  0
   -2.8690   22.3520  -30.1230 S   0  0  0  0  0  0  0  0  0  0  0  0
   -3.1100   21.2770  -29.0990 O   0  0  0  0  0  0  0  0  0  0  0  0
   -2.0160   23.4150  -29.4900 O   0  0  0  0  0  0  0  0  0  0  0  0
   -2.0490   21.6530  -31.5140 C   0  0  0  0  0  0  0  0  0  0  0  0
   -0.7330   21.1860  -31.3880 C   0  0  0  0  0  0  0  0  0  0  0  0
   -0.0840   20.6090  -32.4840 C   0  0  0  0  0  0  0  0  0  0  0  0
   -0.7470   20.4920  -33.7090 C   0  0  0  0  0  0  0  0  0  0  0  0
   -0.1170   19.9310  -34.7710 F   0  0  0  0  0  0  0  0  0  0  0  0
   -2.0620   20.9500  -33.8390 C   0  0  0  0  0  0  0  0  0  0  0  0
   -2.7130   21.5290  -32.7450 C   0  0  0  0  0  0  0  0  0  0  0  0
   -5.4790   22.2180  -30.9670 C   0  0  0  0  0  0  0  0  0  0  0  0
   -8.3600   20.1550  -33.3670 H   0  0  0  0  0  0  0  0  0  0  0  0
   -7.3570   19.3105  -31.0648 H   0  0  0  0  0  0  0  0  0  0  0  0
   -7.6695   17.1807  -31.9758 H   0  0  0  0  0  0  0  0  0  0  0  0
   -8.5252   18.2123  -33.2254 H   0  0  0  0  0  0  0  0  0  0  0  0
   -6.0158   16.5990  -33.4517 H   0  0  0  0  0  0  0  0  0  0  0  0
   -7.3329   16.9469  -34.6542 H   0  0  0  0  0  0  0  0  0  0  0  0
   -5.1985   17.9779  -35.3318 H   0  0  0  0  0  0  0  0  0  0  0  0
   -6.4708   19.2135  -34.9614 H   0  0  0  0  0  0  0  0  0  0  0  0
   -3.9310   18.5462  -33.4785 H   0  0  0  0  0  0  0  0  0  0  0  0
   -4.7081   20.1525  -33.8635 H   0  0  0  0  0  0  0  0  0  0  0  0
   -5.1419   18.3070  -31.5363 H   0  0  0  0  0  0  0  0  0  0  0  0
   -5.1042   20.1238  -31.6371 H   0  0  0  0  0  0  0  0  0  0  0  0
   -7.7870   24.5831  -31.8426 H   0  0  0  0  0  0  0  0  0  0  0  0
   -5.8653   26.0781  -31.3072 H   0  0  0  0  0  0  0  0  0  0  0  0
   -0.2097   21.2737  -30.4244 H   0  0  0  0  0  0  0  0  0  0  0  0
    0.9496   20.2467  -32.3820 H   0  0  0  0  0  0  0  0  0  0  0  0
   -2.5846   20.8548  -34.8023 H   0  0  0  0  0  0  0  0  0  0  0  0
   -3.7475   21.8881  -32.8491 H   0  0  0  0  0  0  0  0  0  0  0  0
   -5.3679   21.1267  -30.8849 H   0  0  0  0  0  0  0  0  0  0  0  0
  1  2  2  0
  2  3  2  0
  2  4  1  0
  4  5  1  0
  5  6  1  0
  6  7  1  0
  7  8  1  0
  8  9  1  0
  9 10  1  0
  2 11  1  0
 11 12  2  0
 12 13  1  0
 13 14  2  0
 14 15  1  0
 14 16  1  0
 16 17  1  0
 17 18  2  0
 17 19  2  0
 17 20  1  0
 20 21  2  0
 21 22  1  0
 22 23  2  0
 23 24  1  0
 23 25  1  0
 25 26  2  0
 16 27  2  0
 10  5  1  0
 27 11  1  0
 26 20  1  0
  4 28  1  0
  5 29  1  0
  6 30  1  0
  6 31  1  0
  7 32  1  0
  7 33  1  0
  8 34  1  0
  8 35  1  0
  9 36  1  0
  9 37  1  0
 10 38  1  0
 10 39  1  0
 12 40  1  0
 13 41  1  0
 21 42  1  0
 22 43  1  0
 25 44  1  0
 26 45  1  0
 27 46  1  0
M  CHG  1  15  -1
M  END
>  <UniqueID>  (34) 
33

>  <SMILES>  (34) 
O=S(=O)(NC1CCCCC1)c1ccc([O-])c(S(=O)(=O)c2ccc(F)cc2)c1

>  <Energy>  (34) 
51.79607029465222

>  <Genealogy>  (34) 
O=S(=O)(NC1CCCCC1)c1ccc([O-])c(S(=O)(=O)c2ccc(F)cc2)c1 (protonated)
O=S(=O)(NC1CCCCC1)c1ccc([O-])c(S(=O)(=O)c2ccc(F)cc2)c1 (3D coordinates assigned)
O=S(=O)(NC1CCCCC1)c1ccc([O-])c(S(=O)(=O)c2ccc(F)cc2)c1 (nonaromatic ring conformer: 51.79607029465222 kcal/mol)

>  <smiles>  (34) 
O=S(=O)(NC1CCCCC1)c1ccc(O)c(S(=O)(=O)c2ccc(F)cc2)c1

>  <score_type>  (34) 
oracle

>  <origin>  (34) 
adgpu

>  <m_score__min__energy>  (34) 
-12.58

>  <m_primary>  (34) 
energy

$$$$
34:0
     RDKit          3D

 52 55  0  0  0  0  0  0  0  0999 V2000
   -4.2390   25.6770  -30.7860 N   0  0  0  0  0  0  0  0  0  0  0  0
   -5.4310   24.8980  -30.8140 C   0  0  0  0  0  0  0  0  0  0  0  0
   -6.5080   25.4060  -30.3890 O   0  0  0  0  0  0  0  0  0  0  0  0
   -5.4060   23.5120  -31.3510 C   0  0  0  0  0  0  0  0  0  0  0  0
   -4.1790   22.8380  -31.5820 C   0  0  0  0  0  0  0  0  0  0  0  0
   -2.9400   23.4290  -31.1660 N   0  0  0  0  0  0  0  0  0  0  0  0
   -2.4380   23.5530  -29.4990 S   0  0  0  0  0  0  0  0  0  0  0  0
   -3.6480   23.8000  -28.6360 O   0  0  0  0  0  0  0  0  0  0  0  0
   -1.4870   24.7130  -29.3570 O   0  0  0  0  0  0  0  0  0  0  0  0
   -1.6650   22.0680  -28.9470 C   0  0  0  0  0  0  0  0  0  0  0  0
   -0.3000   21.8480  -29.1640 C   0  0  0  0  0  0  0  0  0  0  0  0
    0.2840   20.6280  -28.8090 C   0  0  0  0  0  0  0  0  0  0  0  0
   -0.4930   19.6150  -28.2390 C   0  0  0  0  0  0  0  0  0  0  0  0
    0.2320   18.0530  -27.8580 S   0  0  0  0  0  0  0  0  0  0  0  0
    1.6500   18.2660  -27.4110 O   0  0  0  0  0  0  0  0  0  0  0  0
   -0.5240   17.4200  -26.7230 O   0  0  0  0  0  0  0  0  0  0  0  0
    0.2170   16.9750  -29.2280 N   0  0  0  0  0  0  0  0  0  0  0  0
    0.2820   17.7350  -30.4810 C   0  0  0  0  0  0  0  0  0  0  0  0
    0.2340   16.7670  -31.6790 C   0  0  0  0  0  0  0  0  0  0  0  0
    0.3480   15.4100  -31.2840 O   0  0  0  0  0  0  0  0  0  0  0  0
    1.4860   15.2410  -30.4640 C   0  0  0  0  0  0  0  0  0  0  0  0
    1.3430   16.0280  -29.1470 C   0  0  0  0  0  0  0  0  0  0  0  0
   -1.8530   19.8430  -27.9990 C   0  0  0  0  0  0  0  0  0  0  0  0
   -2.4350   21.0660  -28.3450 C   0  0  0  0  0  0  0  0  0  0  0  0
   -4.1820   21.5570  -32.1710 C   0  0  0  0  0  0  0  0  0  0  0  0
   -5.3820   20.8980  -32.4400 C   0  0  0  0  0  0  0  0  0  0  0  0
   -6.5780   21.5390  -32.1420 C   0  0  0  0  0  0  0  0  0  0  0  0
   -6.5990   22.8130  -31.6260 C   0  0  0  0  0  0  0  0  0  0  0  0
   -7.9860   23.2880  -31.4440 C   0  0  0  0  0  0  0  0  0  0  0  0
   -8.8570   22.1220  -31.9450 C   0  0  0  0  0  0  0  0  0  0  0  0
   -7.9220   20.9740  -32.3390 C   0  0  0  0  0  0  0  0  0  0  0  0
   -3.3930   25.3400  -30.2780 H   0  0  0  0  0  0  0  0  0  0  0  0
    0.3166   22.6388  -29.6161 H   0  0  0  0  0  0  0  0  0  0  0  0
    1.3585   20.4647  -28.9788 H   0  0  0  0  0  0  0  0  0  0  0  0
   -0.5726   18.4256  -30.5345 H   0  0  0  0  0  0  0  0  0  0  0  0
    1.2214   18.3065  -30.5120 H   0  0  0  0  0  0  0  0  0  0  0  0
   -0.7229   16.9026  -32.2042 H   0  0  0  0  0  0  0  0  0  0  0  0
    1.0889   16.9988  -32.3312 H   0  0  0  0  0  0  0  0  0  0  0  0
    1.6065   14.1724  -30.2326 H   0  0  0  0  0  0  0  0  0  0  0  0
    2.3654   15.6213  -31.0044 H   0  0  0  0  0  0  0  0  0  0  0  0
    1.1635   15.3227  -28.3221 H   0  0  0  0  0  0  0  0  0  0  0  0
    2.2697   16.5935  -28.9695 H   0  0  0  0  0  0  0  0  0  0  0  0
   -2.4667   19.0562  -27.5360 H   0  0  0  0  0  0  0  0  0  0  0  0
   -3.5020   21.2416  -28.1434 H   0  0  0  0  0  0  0  0  0  0  0  0
   -3.2272   21.0715  -32.4213 H   0  0  0  0  0  0  0  0  0  0  0  0
   -5.3811   19.8898  -32.8798 H   0  0  0  0  0  0  0  0  0  0  0  0
   -8.1896   23.4987  -30.3837 H   0  0  0  0  0  0  0  0  0  0  0  0
   -8.1841   24.2238  -31.9872 H   0  0  0  0  0  0  0  0  0  0  0  0
   -9.5373   21.7929  -31.1457 H   0  0  0  0  0  0  0  0  0  0  0  0
   -9.4621   22.4377  -32.8076 H   0  0  0  0  0  0  0  0  0  0  0  0
   -8.0792   20.0994  -31.6907 H   0  0  0  0  0  0  0  0  0  0  0  0
   -8.0901   20.6195  -33.3667 H   0  0  0  0  0  0  0  0  0  0  0  0
  1  2  1  0
  2  3  2  0
  2  4  1  0
  4  5  2  0
  5  6  1  0
  6  7  1  0
  7  8  2  0
  7  9  2  0
  7 10  1  0
 10 11  2  0
 11 12  1  0
 12 13  2  0
 13 14  1  0
 14 15  2  0
 14 16  2  0
 14 17  1  0
 17 18  1  0
 18 19  1  0
 19 20  1  0
 20 21  1  0
 21 22  1  0
 13 23  1  0
 23 24  2  0
  5 25  1  0
 25 26  2  0
 26 27  1  0
 27 28  2  0
 28 29  1  0
 29 30  1  0
 30 31  1  0
 28  4  1  0
 24 10  1  0
 31 27  1  0
 22 17  1  0
  1 32  1  0
 11 33  1  0
 12 34  1  0
 18 35  1  0
 18 36  1  0
 19 37  1  0
 19 38  1  0
 21 39  1  0
 21 40  1  0
 22 41  1  0
 22 42  1  0
 23 43  1  0
 24 44  1  0
 25 45  1  0
 26 46  1  0
 29 47  1  0
 29 48  1  0
 30 49  1  0
 30 50  1  0
 31 51  1  0
 31 52  1  0
M  CHG  2   1  -1   6  -1
M  END
>  <UniqueID>  (35) 
34

>  <SMILES>  (35) 
[NH-]C(=O)c1c([N-]S(=O)(=O)c2ccc(S(=O)(=O)N3CCOCC3)cc2)ccc2c1CCC2

>  <Energy>  (35) 
80.65262359457823

>  <Genealogy>  (35) 
[NH-]C(=O)c1c([N-]S(=O)(=O)c2ccc(S(=O)(=O)N3CCOCC3)cc2)ccc2c1CCC2 (protonated)
[NH-]C(=O)c1c([N-]S(=O)(=O)c2ccc(S(=O)(=O)N3CCOCC3)cc2)ccc2c1CCC2 (3D coordinates assigned)
[NH-]C(=O)c1c([N-]S(=O)(=O)c2ccc(S(=O)(=O)N3CCOCC3)cc2)ccc2c1CCC2 (nonaromatic ring conformer: 80.65262359457823 kcal/mol)

>  <smiles>  (35) 
NC(=O)c1c(NS(=O)(=O)c2ccc(S(=O)(=O)N3CCOCC3)cc2)ccc2c1CCC2

>  <score_type>  (35) 
oracle

>  <origin>  (35) 
adgpu

>  <m_score__min__energy>  (35) 
-14.699999999999999

>  <m_primary>  (35) 
energy

$$$$
35:0
     RDKit          3D

 42 44  0  0  0  0  0  0  0  0999 V2000
   -6.6820   25.7210  -30.0960 O   0  0  0  0  0  0  0  0  0  0  0  0
   -5.6120   24.6790  -30.2660 S   0  0  0  0  0  0  0  0  0  0  0  0
   -4.5350   25.2200  -31.1640 O   0  0  0  0  0  0  0  0  0  0  0  0
   -4.9220   24.3000  -28.7190 N   0  0  0  0  0  0  0  0  0  0  0  0
   -3.7380   23.4950  -28.5660 C   0  0  0  0  0  0  0  0  0  0  0  0
   -3.8110   22.1880  -28.0480 C   0  0  0  0  0  0  0  0  0  0  0  0
   -2.6490   21.4340  -27.8560 C   0  0  0  0  0  0  0  0  0  0  0  0
   -2.7510   19.8210  -27.1730 Cl  0  0  0  0  0  0  0  0  0  0  0  0
   -1.4060   21.9670  -28.2060 C   0  0  0  0  0  0  0  0  0  0  0  0
   -1.3240   23.2510  -28.7480 C   0  0  0  0  0  0  0  0  0  0  0  0
   -2.4820   24.0160  -28.9280 C   0  0  0  0  0  0  0  0  0  0  0  0
   -2.3730   25.2980  -29.4550 O   0  0  0  0  0  0  0  0  0  0  0  0
   -6.3370   23.2310  -30.9580 C   0  0  0  0  0  0  0  0  0  0  0  0
   -5.5760   22.0690  -31.1440 C   0  0  0  0  0  0  0  0  0  0  0  0
   -6.1890   20.8910  -31.5780 C   0  0  0  0  0  0  0  0  0  0  0  0
   -7.5650   20.8660  -31.8370 C   0  0  0  0  0  0  0  0  0  0  0  0
   -8.3490   19.3470  -32.2540 S   0  0  0  0  0  0  0  0  0  0  0  0
   -9.5510   19.6270  -33.1110 O   0  0  0  0  0  0  0  0  0  0  0  0
   -8.8020   18.6450  -31.0020 O   0  0  0  0  0  0  0  0  0  0  0  0
   -7.2170   18.3560  -33.1380 N   0  0  0  0  0  0  0  0  0  0  0  0
   -6.4010   19.1640  -34.0440 C   0  0  0  0  0  0  0  0  0  0  0  0
   -5.1010   18.4030  -34.2450 C   0  0  0  0  0  0  0  0  0  0  0  0
   -4.9990   17.4650  -33.0520 C   0  0  0  0  0  0  0  0  0  0  0  0
   -6.2680   17.6940  -32.2440 C   0  0  0  0  0  0  0  0  0  0  0  0
   -8.3220   22.0350  -31.6740 C   0  0  0  0  0  0  0  0  0  0  0  0
   -7.7090   23.2130  -31.2400 C   0  0  0  0  0  0  0  0  0  0  0  0
   -5.4930   24.5390  -27.8760 H   0  0  0  0  0  0  0  0  0  0  0  0
   -4.7899   21.7564  -27.7922 H   0  0  0  0  0  0  0  0  0  0  0  0
   -0.4915   21.3748  -28.0545 H   0  0  0  0  0  0  0  0  0  0  0  0
   -0.3452   23.6631  -29.0347 H   0  0  0  0  0  0  0  0  0  0  0  0
   -4.4937   22.0845  -30.9479 H   0  0  0  0  0  0  0  0  0  0  0  0
   -5.5886   19.9798  -31.7168 H   0  0  0  0  0  0  0  0  0  0  0  0
   -6.9176   19.2953  -35.0062 H   0  0  0  0  0  0  0  0  0  0  0  0
   -6.2165   20.1655  -33.6282 H   0  0  0  0  0  0  0  0  0  0  0  0
   -5.1303   17.8309  -35.1840 H   0  0  0  0  0  0  0  0  0  0  0  0
   -4.2354   19.0785  -34.3118 H   0  0  0  0  0  0  0  0  0  0  0  0
   -4.9414   16.4195  -33.3890 H   0  0  0  0  0  0  0  0  0  0  0  0
   -4.0953   17.6602  -32.4560 H   0  0  0  0  0  0  0  0  0  0  0  0
   -6.6776   16.7329  -31.8996 H   0  0  0  0  0  0  0  0  0  0  0  0
   -6.0667   18.3076  -31.3535 H   0  0  0  0  0  0  0  0  0  0  0  0
   -9.4009   22.0245  -31.8883 H   0  0  0  0  0  0  0  0  0  0  0  0
   -8.3056   24.1292  -31.1194 H   0  0  0  0  0  0  0  0  0  0  0  0
  1  2  2  0
  2  3  2  0
  2  4  1  0
  4  5  1  0
  5  6  2  0
  6  7  1  0
  7  8  1  0
  7  9  2  0
  9 10  1  0
 10 11  2  0
 11 12  1  0
  2 13  1  0
 13 14  2  0
 14 15  1  0
 15 16  2  0
 16 17  1  0
 17 18  2  0
 17 19  2  0
 17 20  1  0
 20 21  1  0
 21 22  1  0
 22 23  1  0
 23 24  1  0
 16 25  1  0
 25 26  2  0
 11  5  1  0
 26 13  1  0
 24 20  1  0
  4 27  1  0
  6 28  1  0
  9 29  1  0
 10 30  1  0
 14 31  1  0
 15 32  1  0
 21 33  1  0
 21 34  1  0
 22 35  1  0
 22 36  1  0
 23 37  1  0
 23 38  1  0
 24 39  1  0
 24 40  1  0
 25 41  1  0
 26 42  1  0
M  CHG  1  12  -1
M  END
>  <UniqueID>  (36) 
35

>  <SMILES>  (36) 
O=S(=O)(Nc1cc(Cl)ccc1[O-])c1ccc(S(=O)(=O)N2CCCC2)cc1

>  <Energy>  (36) 
46.22746177726335

>  <Genealogy>  (36) 
O=S(=O)(Nc1cc(Cl)ccc1[O-])c1ccc(S(=O)(=O)N2CCCC2)cc1 (protonated)
O=S(=O)(Nc1cc(Cl)ccc1[O-])c1ccc(S(=O)(=O)N2CCCC2)cc1 (3D coordinates assigned)
O=S(=O)(Nc1cc(Cl)ccc1[O-])c1ccc(S(=O)(=O)N2CCCC2)cc1 (nonaromatic ring conformer: 46.22746177726335 kcal/mol)

>  <smiles>  (36) 
O=S(=O)(Nc1cc(Cl)ccc1O)c1ccc(S(=O)(=O)N2CCCC2)cc1

>  <score_type>  (36) 
oracle

>  <origin>  (36) 
adgpu

>  <m_score__min__energy>  (36) 
-14.27

>  <m_primary>  (36) 
energy

$$$$
36:0
     RDKit          3D

 68 71  0  0  0  0  0  0  0  0999 V2000
   -4.9560   15.0280  -32.1530 C   0  0  0  0  0  0  0  0  0  0  0  0
   -5.7320   15.8500  -33.1400 C   0  0  0  0  0  0  0  0  0  0  0  0
   -6.2970   15.2600  -34.1030 O   0  0  0  0  0  0  0  0  0  0  0  0
   -5.8550   17.2830  -32.9940 N   0  0  0  0  0  0  0  0  0  0  0  0
   -5.4400   17.9310  -31.7380 C   0  0  0  0  0  0  0  0  0  0  0  0
   -5.8800   19.3970  -31.6810 C   0  0  0  0  0  0  0  0  0  0  0  0
   -5.5210   20.0840  -32.9310 N   0  0  0  0  0  0  0  0  0  0  0  0
   -4.8470   21.3590  -32.9140 C   0  0  0  0  0  0  0  0  0  0  0  0
   -4.0330   21.6400  -33.8340 O   0  0  0  0  0  0  0  0  0  0  0  0
   -5.0460   22.3320  -31.8150 C   0  0  0  0  0  0  0  0  0  0  0  0
   -6.3000   22.4410  -31.1920 C   0  0  0  0  0  0  0  0  0  0  0  0
   -6.5160   23.4070  -30.2060 C   0  0  0  0  0  0  0  0  0  0  0  0
   -5.4830   24.2650  -29.8160 C   0  0  0  0  0  0  0  0  0  0  0  0
   -5.7640   25.2760  -28.8970 O   0  0  0  0  0  0  0  0  0  0  0  0
   -4.2000   24.1090  -30.3760 C   0  0  0  0  0  0  0  0  0  0  0  0
   -3.1030   24.9200  -29.9550 N   0  0  0  0  0  0  0  0  0  0  0  0
   -2.3040   24.6550  -28.4400 S   0  0  0  0  0  0  0  0  0  0  0  0
   -1.1040   25.5530  -28.3470 O   0  0  0  0  0  0  0  0  0  0  0  0
   -3.2380   24.9810  -27.3100 O   0  0  0  0  0  0  0  0  0  0  0  0
   -1.7870   22.9770  -28.3290 C   0  0  0  0  0  0  0  0  0  0  0  0
   -2.0130   22.2480  -27.1590 C   0  0  0  0  0  0  0  0  0  0  0  0
   -1.6200   20.9100  -27.0750 C   0  0  0  0  0  0  0  0  0  0  0  0
   -1.0030   20.2750  -28.1670 C   0  0  0  0  0  0  0  0  0  0  0  0
   -0.6220   18.8210  -28.0490 C   0  0  0  0  0  0  0  0  0  0  0  0
   -0.7680   21.0120  -29.3550 C   0  0  0  0  0  0  0  0  0  0  0  0
   -0.1030   20.4140  -30.5380 C   0  0  0  0  0  0  0  0  0  0  0  0
    1.1060   20.0700  -30.4600 O   0  0  0  0  0  0  0  0  0  0  0  0
   -0.8050   20.2490  -31.7850 N   0  0  0  0  0  0  0  0  0  0  0  0
   -0.1460   20.6060  -33.0480 C   0  0  0  0  0  0  0  0  0  0  0  0
   -0.4850   19.5800  -34.1350 C   0  0  0  0  0  0  0  0  0  0  0  0
   -1.9990   19.3740  -34.2360 C   0  0  0  0  0  0  0  0  0  0  0  0
   -2.5770   18.9440  -32.8850 C   0  0  0  0  0  0  0  0  0  0  0  0
   -2.2500   19.9760  -31.8030 C   0  0  0  0  0  0  0  0  0  0  0  0
   -1.1650   22.3590  -29.4190 C   0  0  0  0  0  0  0  0  0  0  0  0
   -3.9930   23.1560  -31.3820 C   0  0  0  0  0  0  0  0  0  0  0  0
   -5.7640   19.4230  -34.2220 C   0  0  0  0  0  0  0  0  0  0  0  0
   -6.4920   18.0830  -34.0520 C   0  0  0  0  0  0  0  0  0  0  0  0
   -5.2346   15.3232  -31.1306 H   0  0  0  0  0  0  0  0  0  0  0  0
   -5.1854   13.9626  -32.3024 H   0  0  0  0  0  0  0  0  0  0  0  0
   -3.8792   15.1957  -32.3024 H   0  0  0  0  0  0  0  0  0  0  0  0
   -5.8914   17.3908  -30.8928 H   0  0  0  0  0  0  0  0  0  0  0  0
   -4.3417   17.9017  -31.6852 H   0  0  0  0  0  0  0  0  0  0  0  0
   -6.9700   19.4440  -31.5406 H   0  0  0  0  0  0  0  0  0  0  0  0
   -5.3714   19.8920  -30.8405 H   0  0  0  0  0  0  0  0  0  0  0  0
   -7.1160   21.7626  -31.4817 H   0  0  0  0  0  0  0  0  0  0  0  0
   -7.5055   23.4932  -29.7332 H   0  0  0  0  0  0  0  0  0  0  0  0
   -5.0550   25.6790  -28.2990 H   0  0  0  0  0  0  0  0  0  0  0  0
   -2.5027   22.7297  -26.2998 H   0  0  0  0  0  0  0  0  0  0  0  0
   -1.7950   20.3481  -26.1457 H   0  0  0  0  0  0  0  0  0  0  0  0
   -0.5499   18.5459  -26.9864 H   0  0  0  0  0  0  0  0  0  0  0  0
   -1.3879   18.2005  -28.5373 H   0  0  0  0  0  0  0  0  0  0  0  0
    0.3498   18.6558  -28.5373 H   0  0  0  0  0  0  0  0  0  0  0  0
   -0.4901   21.6005  -33.3681 H   0  0  0  0  0  0  0  0  0  0  0  0
    0.9429   20.6153  -32.8926 H   0  0  0  0  0  0  0  0  0  0  0  0
   -0.1049   19.9406  -35.1022 H   0  0  0  0  0  0  0  0  0  0  0  0
   -0.0156   18.6204  -33.8724 H   0  0  0  0  0  0  0  0  0  0  0  0
   -2.4719   20.3170  -34.5476 H   0  0  0  0  0  0  0  0  0  0  0  0
   -2.2004   18.5843  -34.9748 H   0  0  0  0  0  0  0  0  0  0  0  0
   -3.6692   18.8477  -32.9738 H   0  0  0  0  0  0  0  0  0  0  0  0
   -2.1305   17.9798  -32.6003 H   0  0  0  0  0  0  0  0  0  0  0  0
   -2.7938   20.9087  -32.0136 H   0  0  0  0  0  0  0  0  0  0  0  0
   -2.5535   19.5787  -30.8232 H   0  0  0  0  0  0  0  0  0  0  0  0
   -0.9841   22.9349  -30.3386 H   0  0  0  0  0  0  0  0  0  0  0  0
   -2.9970   23.0518  -31.8372 H   0  0  0  0  0  0  0  0  0  0  0  0
   -6.3791   20.0845  -34.8498 H   0  0  0  0  0  0  0  0  0  0  0  0
   -4.7892   19.2237  -34.6912 H   0  0  0  0  0  0  0  0  0  0  0  0
   -7.5411   18.2725  -33.7810 H   0  0  0  0  0  0  0  0  0  0  0  0
   -6.4406   17.5266  -34.9995 H   0  0  0  0  0  0  0  0  0  0  0  0
  1  2  1  0
  2  3  2  0
  2  4  1  0
  4  5  1  0
  5  6  1  0
  6  7  1  0
  7  8  1  0
  8  9  2  0
  8 10  1  0
 10 11  2  0
 11 12  1  0
 12 13  2  0
 13 14  1  0
 13 15  1  0
 15 16  1  0
 16 17  1  0
 17 18  2  0
 17 19  2  0
 17 20  1  0
 20 21  2  0
 21 22  1  0
 22 23  2  0
 23 24  1  0
 23 25  1  0
 25 26  1  0
 26 27  2  0
 26 28  1  0
 28 29  1  0
 29 30  1  0
 30 31  1  0
 31 32  1  0
 32 33  1  0
 25 34  2  0
 15 35  2  0
  7 36  1  0
 36 37  1  0
 37  4  1  0
 35 10  1  0
 34 20  1  0
 33 28  1  0
  1 38  1  0
  1 39  1  0
  1 40  1  0
  5 41  1  0
  5 42  1  0
  6 43  1  0
  6 44  1  0
 11 45  1  0
 12 46  1  0
 14 47  1  0
 21 48  1  0
 22 49  1  0
 24 50  1  0
 24 51  1  0
 24 52  1  0
 29 53  1  0
 29 54  1  0
 30 55  1  0
 30 56  1  0
 31 57  1  0
 31 58  1  0
 32 59  1  0
 32 60  1  0
 33 61  1  0
 33 62  1  0
 34 63  1  0
 35 64  1  0
 36 65  1  0
 36 66  1  0
 37 67  1  0
 37 68  1  0
M  CHG  1  16  -1
M  END
>  <UniqueID>  (37) 
36

>  <SMILES>  (37) 
CC(=O)N1CCN(C(=O)c2ccc(O)c([N-]S(=O)(=O)c3ccc(C)c(C(=O)N4CCCCC4)c3)c2)CC1

>  <Energy>  (37) 
86.2829361590857

>  <Genealogy>  (37) 
CC(=O)N1CCN(C(=O)c2ccc(O)c([N-]S(=O)(=O)c3ccc(C)c(C(=O)N4CCCCC4)c3)c2)CC1 (protonated)
CC(=O)N1CCN(C(=O)c2ccc(O)c([N-]S(=O)(=O)c3ccc(C)c(C(=O)N4CCCCC4)c3)c2)CC1 (3D coordinates assigned)
CC(=O)N1CCN(C(=O)c2ccc(O)c([N-]S(=O)(=O)c3ccc(C)c(C(=O)N4CCCCC4)c3)c2)CC1 (nonaromatic ring conformer: 86.2829361590857 kcal/mol)

>  <smiles>  (37) 
CC(=O)N1CCN(C(=O)c2ccc(O)c(NS(=O)(=O)c3ccc(C)c(C(=O)N4CCCCC4)c3)c2)CC1

>  <score_type>  (37) 
oracle

>  <origin>  (37) 
adgpu

>  <m_score__min__energy>  (37) 
-13.210000000000001

>  <m_primary>  (37) 
energy

$$$$
37:0
     RDKit          3D

 58 61  0  0  0  0  0  0  0  0999 V2000
   -4.4500   25.6710  -30.9240 O   0  0  0  0  0  0  0  0  0  0  0  0
   -5.1540   24.7610  -29.9560 S   0  0  0  0  0  0  0  0  0  0  0  0
   -6.0730   25.5990  -29.1120 O   0  0  0  0  0  0  0  0  0  0  0  0
   -6.0800   23.5540  -30.8400 C   0  0  0  0  0  0  0  0  0  0  0  0
   -7.4790   23.6370  -30.8990 C   0  0  0  0  0  0  0  0  0  0  0  0
   -8.2110   22.6680  -31.5940 C   0  0  0  0  0  0  0  0  0  0  0  0
   -7.5500   21.6090  -32.2240 C   0  0  0  0  0  0  0  0  0  0  0  0
   -6.1500   21.5110  -32.1570 C   0  0  0  0  0  0  0  0  0  0  0  0
   -5.2970   20.1720  -32.9230 S   0  0  0  0  0  0  0  0  0  0  0  0
   -4.7300   19.2960  -31.8400 O   0  0  0  0  0  0  0  0  0  0  0  0
   -4.1650   20.7010  -33.7630 O   0  0  0  0  0  0  0  0  0  0  0  0
   -6.4140   19.2450  -33.9040 N   0  0  0  0  0  0  0  0  0  0  0  0
   -5.7320   18.4630  -34.9550 C   0  0  0  0  0  0  0  0  0  0  0  0
   -5.1790   17.1300  -34.4250 C   0  0  0  0  0  0  0  0  0  0  0  0
   -6.1970   16.3780  -33.8020 O   0  0  0  0  0  0  0  0  0  0  0  0
   -6.6740   17.0820  -32.6700 C   0  0  0  0  0  0  0  0  0  0  0  0
   -7.3190   18.4150  -33.0870 C   0  0  0  0  0  0  0  0  0  0  0  0
   -5.4190   22.4870  -31.4630 C   0  0  0  0  0  0  0  0  0  0  0  0
   -3.9740   23.9480  -28.9330 C   0  0  0  0  0  0  0  0  0  0  0  0
   -4.2900   22.7240  -28.3370 C   0  0  0  0  0  0  0  0  0  0  0  0
   -3.3510   22.0690  -27.5410 C   0  0  0  0  0  0  0  0  0  0  0  0
   -2.0850   22.6260  -27.3230 C   0  0  0  0  0  0  0  0  0  0  0  0
   -1.1740   21.8780  -26.5750 O   0  0  0  0  0  0  0  0  0  0  0  0
   -1.7740   23.8950  -27.8790 C   0  0  0  0  0  0  0  0  0  0  0  0
   -0.2390   24.7380  -27.5860 S   0  0  0  0  0  0  0  0  0  0  0  0
   -0.3780   26.2120  -27.8440 O   0  0  0  0  0  0  0  0  0  0  0  0
    0.7670   24.2080  -28.5710 O   0  0  0  0  0  0  0  0  0  0  0  0
    0.3570   24.4220  -25.9670 N   0  0  0  0  0  0  0  0  0  0  0  0
   -0.6920   24.4830  -24.9300 C   0  0  0  0  0  0  0  0  0  0  0  0
   -0.8550   25.8900  -24.3200 C   0  0  0  0  0  0  0  0  0  0  0  0
   -0.2830   26.8760  -25.1520 O   0  0  0  0  0  0  0  0  0  0  0  0
    1.1210   26.6970  -25.2040 C   0  0  0  0  0  0  0  0  0  0  0  0
    1.5210   25.2670  -25.6400 C   0  0  0  0  0  0  0  0  0  0  0  0
   -2.7260   24.5340  -28.6920 C   0  0  0  0  0  0  0  0  0  0  0  0
   -8.0015   24.4653  -30.3980 H   0  0  0  0  0  0  0  0  0  0  0  0
   -9.3075   22.7394  -31.6448 H   0  0  0  0  0  0  0  0  0  0  0  0
   -8.1275   20.8509  -32.7733 H   0  0  0  0  0  0  0  0  0  0  0  0
   -6.4501   18.2524  -35.7612 H   0  0  0  0  0  0  0  0  0  0  0  0
   -4.8820   19.0587  -35.3192 H   0  0  0  0  0  0  0  0  0  0  0  0
   -4.7657   16.5517  -35.2645 H   0  0  0  0  0  0  0  0  0  0  0  0
   -4.3944   17.3433  -33.6841 H   0  0  0  0  0  0  0  0  0  0  0  0
   -7.4231   16.4657  -32.1514 H   0  0  0  0  0  0  0  0  0  0  0  0
   -5.8250   17.2945  -32.0037 H   0  0  0  0  0  0  0  0  0  0  0  0
   -8.2263   18.2012  -33.6711 H   0  0  0  0  0  0  0  0  0  0  0  0
   -7.5533   18.9760  -32.1703 H   0  0  0  0  0  0  0  0  0  0  0  0
   -4.3228   22.4143  -31.4077 H   0  0  0  0  0  0  0  0  0  0  0  0
   -5.2820   22.2762  -28.4963 H   0  0  0  0  0  0  0  0  0  0  0  0
   -3.6076   21.1041  -27.0793 H   0  0  0  0  0  0  0  0  0  0  0  0
   -0.3520   22.2690  -26.1380 H   0  0  0  0  0  0  0  0  0  0  0  0
   -1.6493   24.1837  -25.3817 H   0  0  0  0  0  0  0  0  0  0  0  0
   -0.3915   23.8049  -24.1177 H   0  0  0  0  0  0  0  0  0  0  0  0
   -1.9265   26.1045  -24.1937 H   0  0  0  0  0  0  0  0  0  0  0  0
   -0.3384   25.9108  -23.3491 H   0  0  0  0  0  0  0  0  0  0  0  0
    1.5417   27.4155  -25.9229 H   0  0  0  0  0  0  0  0  0  0  0  0
    1.5162   26.8600  -24.1905 H   0  0  0  0  0  0  0  0  0  0  0  0
    2.1646   25.3379  -26.5292 H   0  0  0  0  0  0  0  0  0  0  0  0
    2.0439   24.7971  -24.7939 H   0  0  0  0  0  0  0  0  0  0  0  0
   -2.4870   25.5076  -29.1449 H   0  0  0  0  0  0  0  0  0  0  0  0
  1  2  2  0
  2  3  2  0
  2  4  1  0
  4  5  2  0
  5  6  1  0
  6  7  2  0
  7  8  1  0
  8  9  1  0
  9 10  2  0
  9 11  2  0
  9 12  1  0
 12 13  1  0
 13 14  1  0
 14 15  1  0
 15 16  1  0
 16 17  1  0
  8 18  2  0
  2 19  1  0
 19 20  2  0
 20 21  1  0
 21 22  2  0
 22 23  1  0
 22 24  1  0
 24 25  1  0
 25 26  2  0
 25 27  2  0
 25 28  1  0
 28 29  1  0
 29 30  1  0
 30 31  1  0
 31 32  1  0
 32 33  1  0
 24 34  2  0
 18  4  1  0
 34 19  1  0
 17 12  1  0
 33 28  1  0
  5 35  1  0
  6 36  1  0
  7 37  1  0
 13 38  1  0
 13 39  1  0
 14 40  1  0
 14 41  1  0
 16 42  1  0
 16 43  1  0
 17 44  1  0
 17 45  1  0
 18 46  1  0
 20 47  1  0
 21 48  1  0
 23 49  1  0
 29 50  1  0
 29 51  1  0
 30 52  1  0
 30 53  1  0
 32 54  1  0
 32 55  1  0
 33 56  1  0
 33 57  1  0
 34 58  1  0
M  END
>  <UniqueID>  (38) 
37

>  <SMILES>  (38) 
O=S(=O)(c1cccc(S(=O)(=O)N2CCOCC2)c1)c1ccc(O)c(S(=O)(=O)N2CCOCC2)c1

>  <Energy>  (38) 
81.71762054825801

>  <Genealogy>  (38) 
O=S(=O)(c1cccc(S(=O)(=O)N2CCOCC2)c1)c1ccc(O)c(S(=O)(=O)N2CCOCC2)c1 (3D coordinates assigned)
O=S(=O)(c1cccc(S(=O)(=O)N2CCOCC2)c1)c1ccc(O)c(S(=O)(=O)N2CCOCC2)c1 (nonaromatic ring conformer: 81.71762054825801 kcal/mol)

>  <smiles>  (38) 
O=S(=O)(c1cccc(S(=O)(=O)N2CCOCC2)c1)c1ccc(O)c(S(=O)(=O)N2CCOCC2)c1

>  <score_type>  (38) 
oracle

>  <origin>  (38) 
adgpu

>  <m_score__min__energy>  (38) 
-12.01

>  <m_primary>  (38) 
energy

$$$$
38:0
     RDKit          3D

 41 44  0  0  0  0  0  0  0  0999 V2000
   -0.5000   19.0940  -29.0440 C   0  0  0  0  0  0  0  0  0  0  0  0
   -0.2860   19.7690  -27.7520 N   0  0  0  0  0  0  0  0  0  0  0  0
   -1.3570   19.4840  -26.7760 C   0  0  0  0  0  0  0  0  0  0  0  0
   -2.7160   20.0480  -27.2150 C   0  0  0  0  0  0  0  0  0  0  0  0
   -2.6060   21.4470  -27.7630 C   0  0  0  0  0  0  0  0  0  0  0  0
   -3.7750   22.1960  -27.9600 C   0  0  0  0  0  0  0  0  0  0  0  0
   -3.7200   23.4930  -28.5020 C   0  0  0  0  0  0  0  0  0  0  0  0
   -4.9130   24.2800  -28.6760 N   0  0  0  0  0  0  0  0  0  0  0  0
   -5.5820   24.6730  -30.2280 S   0  0  0  0  0  0  0  0  0  0  0  0
   -6.7930   25.5440  -30.0430 O   0  0  0  0  0  0  0  0  0  0  0  0
   -4.5550   25.4250  -31.0290 O   0  0  0  0  0  0  0  0  0  0  0  0
   -6.0670   23.2010  -31.0640 C   0  0  0  0  0  0  0  0  0  0  0  0
   -5.1160   22.4380  -31.7860 C   0  0  0  0  0  0  0  0  0  0  0  0
   -5.4950   21.2450  -32.4260 C   0  0  0  0  0  0  0  0  0  0  0  0
   -6.8260   20.8500  -32.3240 C   0  0  0  0  0  0  0  0  0  0  0  0
   -7.3990   19.7550  -32.8460 N   0  0  0  0  0  0  0  0  0  0  0  0
   -8.6850   19.8840  -32.4300 C   0  0  0  0  0  0  0  0  0  0  0  0
   -9.5740   19.0400  -32.7160 O   0  0  0  0  0  0  0  0  0  0  0  0
   -8.9460   20.9890  -31.6840 N   0  0  0  0  0  0  0  0  0  0  0  0
   -7.7450   21.5830  -31.6350 C   0  0  0  0  0  0  0  0  0  0  0  0
   -7.4080   22.7700  -30.9900 C   0  0  0  0  0  0  0  0  0  0  0  0
   -2.4720   24.0190  -28.8800 C   0  0  0  0  0  0  0  0  0  0  0  0
   -2.3790   25.2980  -29.4210 O   0  0  0  0  0  0  0  0  0  0  0  0
   -1.3070   23.2680  -28.7060 C   0  0  0  0  0  0  0  0  0  0  0  0
   -1.3640   21.9780  -28.1610 C   0  0  0  0  0  0  0  0  0  0  0  0
   -0.0780   21.2210  -27.9140 C   0  0  0  0  0  0  0  0  0  0  0  0
   -0.8281   18.0591  -28.8671 H   0  0  0  0  0  0  0  0  0  0  0  0
   -1.2720   19.6309  -29.6148 H   0  0  0  0  0  0  0  0  0  0  0  0
    0.4403   19.0880  -29.6148 H   0  0  0  0  0  0  0  0  0  0  0  0
   -1.4480   18.3939  -26.6600 H   0  0  0  0  0  0  0  0  0  0  0  0
   -1.0836   19.9695  -25.8276 H   0  0  0  0  0  0  0  0  0  0  0  0
   -3.1345   19.3948  -27.9948 H   0  0  0  0  0  0  0  0  0  0  0  0
   -3.3666   20.0846  -26.3288 H   0  0  0  0  0  0  0  0  0  0  0  0
   -4.7487   21.7633  -27.6869 H   0  0  0  0  0  0  0  0  0  0  0  0
   -5.4850   24.5400  -27.8410 H   0  0  0  0  0  0  0  0  0  0  0  0
   -4.0729   22.7819  -31.8462 H   0  0  0  0  0  0  0  0  0  0  0  0
   -4.7648   20.6442  -32.9881 H   0  0  0  0  0  0  0  0  0  0  0  0
   -8.1625   23.3524  -30.4409 H   0  0  0  0  0  0  0  0  0  0  0  0
   -0.3358   23.6931  -28.9995 H   0  0  0  0  0  0  0  0  0  0  0  0
    0.5953   21.3856  -28.7682 H   0  0  0  0  0  0  0  0  0  0  0  0
    0.3512   21.5989  -26.9743 H   0  0  0  0  0  0  0  0  0  0  0  0
  1  2  1  0
  2  3  1  0
  3  4  1  0
  4  5  1  0
  5  6  2  0
  6  7  1  0
  7  8  1  0
  8  9  1  0
  9 10  2  0
  9 11  2  0
  9 12  1  0
 12 13  2  0
 13 14  1  0
 14 15  2  0
 15 16  1  0
 16 17  1  0
 17 18  2  0
 17 19  1  0
 19 20  1  0
 20 21  2  0
  7 22  2  0
 22 23  1  0
 22 24  1  0
 24 25  2  0
 25 26  1  0
 26  2  1  0
 25  5  1  0
 21 12  1  0
 20 15  1  0
  1 27  1  0
  1 28  1  0
  1 29  1  0
  3 30  1  0
  3 31  1  0
  4 32  1  0
  4 33  1  0
  6 34  1  0
  8 35  1  0
 13 36  1  0
 14 37  1  0
 21 38  1  0
 24 39  1  0
 26 40  1  0
 26 41  1  0
M  CHG  3  16  -1  19  -1  23  -1
M  END
>  <UniqueID>  (39) 
38

>  <SMILES>  (39) 
CN1CCc2cc(NS(=O)(=O)c3ccc4[n-]c(=O)[n-]c4c3)c([O-])cc2C1

>  <Energy>  (39) 
88.07324486266005

>  <Genealogy>  (39) 
CN1CCc2cc(NS(=O)(=O)c3ccc4[n-]c(=O)[n-]c4c3)c([O-])cc2C1 (protonated)
CN1CCc2cc(NS(=O)(=O)c3ccc4[n-]c(=O)[n-]c4c3)c([O-])cc2C1 (3D coordinates assigned)
CN1CCc2cc(NS(=O)(=O)c3ccc4[n-]c(=O)[n-]c4c3)c([O-])cc2C1 (nonaromatic ring conformer: 88.07324486266005 kcal/mol)

>  <smiles>  (39) 
CN1CCc2cc(NS(=O)(=O)c3ccc4[nH]c(=O)[nH]c4c3)c(O)cc2C1

>  <score_type>  (39) 
oracle

>  <origin>  (39) 
adgpu

>  <m_score__min__energy>  (39) 
-12.630000000000001

>  <m_primary>  (39) 
energy

$$$$
39:0
     RDKit          3D

 39 41  0  0  0  0  0  0  0  0999 V2000
   -1.1140   22.0330  -28.3700 O   0  0  0  0  0  0  0  0  0  0  0  0
   -1.3610   23.2500  -28.5750 C   0  0  0  0  0  0  0  0  0  0  0  0
   -1.9610   23.6310  -29.8210 N   0  0  0  0  0  0  0  0  0  0  0  0
   -3.2980   23.3200  -30.2360 C   0  0  0  0  0  0  0  0  0  0  0  0
   -3.6730   21.9750  -30.3450 C   0  0  0  0  0  0  0  0  0  0  0  0
   -4.9680   21.6300  -30.7370 C   0  0  0  0  0  0  0  0  0  0  0  0
   -5.9030   22.6300  -31.0360 C   0  0  0  0  0  0  0  0  0  0  0  0
   -7.5290   22.1950  -31.5480 S   0  0  0  0  0  0  0  0  0  0  0  0
   -7.9840   23.1200  -32.6430 O   0  0  0  0  0  0  0  0  0  0  0  0
   -8.4850   22.3310  -30.3950 O   0  0  0  0  0  0  0  0  0  0  0  0
   -7.5230   20.5360  -32.1300 C   0  0  0  0  0  0  0  0  0  0  0  0
   -8.4450   19.6080  -31.6230 C   0  0  0  0  0  0  0  0  0  0  0  0
   -8.4260   18.2830  -32.0710 C   0  0  0  0  0  0  0  0  0  0  0  0
   -7.4840   17.8790  -33.0210 C   0  0  0  0  0  0  0  0  0  0  0  0
   -6.5570   18.7980  -33.5220 C   0  0  0  0  0  0  0  0  0  0  0  0
   -6.5740   20.1230  -33.0760 C   0  0  0  0  0  0  0  0  0  0  0  0
   -5.5210   23.9760  -30.9720 C   0  0  0  0  0  0  0  0  0  0  0  0
   -4.2220   24.3240  -30.5870 C   0  0  0  0  0  0  0  0  0  0  0  0
   -3.8540   25.6650  -30.5870 O   0  0  0  0  0  0  0  0  0  0  0  0
   -1.1250   24.2360  -27.4930 C   0  0  0  0  0  0  0  0  0  0  0  0
   -0.8500   23.7670  -26.1960 C   0  0  0  0  0  0  0  0  0  0  0  0
   -0.5790   24.6630  -25.1590 C   0  0  0  0  0  0  0  0  0  0  0  0
   -0.5710   26.0360  -25.4060 C   0  0  0  0  0  0  0  0  0  0  0  0
   -0.8440   26.5170  -26.6890 C   0  0  0  0  0  0  0  0  0  0  0  0
   -1.1340   25.6310  -27.7350 C   0  0  0  0  0  0  0  0  0  0  0  0
   -1.4550   26.1720  -28.9820 O   0  0  0  0  0  0  0  0  0  0  0  0
   -2.9419   21.1845  -30.1201 H   0  0  0  0  0  0  0  0  0  0  0  0
   -5.2549   20.5707  -30.8113 H   0  0  0  0  0  0  0  0  0  0  0  0
   -9.1842   19.9229  -30.8718 H   0  0  0  0  0  0  0  0  0  0  0  0
   -9.1530   17.5585  -31.6753 H   0  0  0  0  0  0  0  0  0  0  0  0
   -7.4719   16.8375  -33.3748 H   0  0  0  0  0  0  0  0  0  0  0  0
   -5.8139   18.4784  -34.2674 H   0  0  0  0  0  0  0  0  0  0  0  0
   -5.8410   20.8433  -33.4683 H   0  0  0  0  0  0  0  0  0  0  0  0
   -6.2461   24.7633  -31.2257 H   0  0  0  0  0  0  0  0  0  0  0  0
   -0.8483   22.6853  -25.9963 H   0  0  0  0  0  0  0  0  0  0  0  0
   -0.3717   24.2856  -24.1468 H   0  0  0  0  0  0  0  0  0  0  0  0
   -0.3497   26.7401  -24.5904 H   0  0  0  0  0  0  0  0  0  0  0  0
   -0.8312   27.6003  -26.8795 H   0  0  0  0  0  0  0  0  0  0  0  0
   -1.9950   25.6750  -29.6770 H   0  0  0  0  0  0  0  0  0  0  0  0
  1  2  2  0
  2  3  1  0
  3  4  1  0
  4  5  2  0
  5  6  1  0
  6  7  2  0
  7  8  1  0
  8  9  2  0
  8 10  2  0
  8 11  1  0
 11 12  2  0
 12 13  1  0
 13 14  2  0
 14 15  1  0
 15 16  2  0
  7 17  1  0
 17 18  2  0
 18 19  1  0
  2 20  1  0
 20 21  2  0
 21 22  1  0
 22 23  2  0
 23 24  1  0
 24 25  2  0
 25 26  1  0
 18  4  1  0
 25 20  1  0
 16 11  1  0
  5 27  1  0
  6 28  1  0
 12 29  1  0
 13 30  1  0
 14 31  1  0
 15 32  1  0
 16 33  1  0
 17 34  1  0
 21 35  1  0
 22 36  1  0
 23 37  1  0
 24 38  1  0
 26 39  1  0
M  CHG  2   3  -1  19  -1
M  END
>  <UniqueID>  (40) 
39

>  <SMILES>  (40) 
O=C([N-]c1ccc(S(=O)(=O)c2ccccc2)cc1[O-])c1ccccc1O

>  <Energy>  (40) 
55.24264383878555

>  <Genealogy>  (40) 
O=C([N-]c1ccc(S(=O)(=O)c2ccccc2)cc1[O-])c1ccccc1O (protonated)
O=C([N-]c1ccc(S(=O)(=O)c2ccccc2)cc1[O-])c1ccccc1O (3D coordinates assigned)
O=C([N-]c1ccc(S(=O)(=O)c2ccccc2)cc1[O-])c1ccccc1O (optimized conformer: 55.24264383878555 kcal/mol)

>  <smiles>  (40) 
O=C(Nc1ccc(S(=O)(=O)c2ccccc2)cc1O)c1ccccc1O

>  <score_type>  (40) 
oracle

>  <origin>  (40) 
adgpu

>  <m_score__min__energy>  (40) 
-13.619999999999999

>  <m_primary>  (40) 
energy

$$$$
40:0
     RDKit          3D

 49 52  0  0  0  0  0  0  0  0999 V2000
   -5.3760   17.4220  -33.9040 C   0  0  0  0  0  0  0  0  0  0  0  0
   -5.1870   18.6770  -33.2630 O   0  0  0  0  0  0  0  0  0  0  0  0
   -6.2350   19.3970  -32.6770 C   0  0  0  0  0  0  0  0  0  0  0  0
   -7.4890   18.8650  -32.6250 N   0  0  0  0  0  0  0  0  0  0  0  0
   -8.5340   19.5250  -32.0630 C   0  0  0  0  0  0  0  0  0  0  0  0
   -8.3490   20.7950  -31.5160 C   0  0  0  0  0  0  0  0  0  0  0  0
   -7.0760   21.3780  -31.5460 C   0  0  0  0  0  0  0  0  0  0  0  0
   -6.8600   22.6500  -30.9940 C   0  0  0  0  0  0  0  0  0  0  0  0
   -5.5810   23.2180  -31.0060 C   0  0  0  0  0  0  0  0  0  0  0  0
   -5.3090   24.7860  -30.2480 S   0  0  0  0  0  0  0  0  0  0  0  0
   -4.5030   25.6780  -31.1510 O   0  0  0  0  0  0  0  0  0  0  0  0
   -6.6400   25.4290  -29.9810 O   0  0  0  0  0  0  0  0  0  0  0  0
   -4.4560   24.5850  -28.7490 N   0  0  0  0  0  0  0  0  0  0  0  0
   -3.2080   23.8760  -28.6300 C   0  0  0  0  0  0  0  0  0  0  0  0
   -3.1740   22.4860  -28.4020 C   0  0  0  0  0  0  0  0  0  0  0  0
   -1.9510   21.8090  -28.2510 C   0  0  0  0  0  0  0  0  0  0  0  0
   -1.9250   20.3890  -27.9950 N   0  0  0  0  0  0  0  0  0  0  0  0
   -3.1150   19.7010  -27.4730 C   0  0  0  0  0  0  0  0  0  0  0  0
   -2.7170   18.6080  -26.4520 C   0  0  0  0  0  0  0  0  0  0  0  0
   -1.3260   18.3210  -26.4270 O   0  0  0  0  0  0  0  0  0  0  0  0
   -0.8260   18.2040  -27.7430 C   0  0  0  0  0  0  0  0  0  0  0  0
   -0.7590   19.5890  -28.3880 C   0  0  0  0  0  0  0  0  0  0  0  0
   -0.7530   22.5290  -28.3670 C   0  0  0  0  0  0  0  0  0  0  0  0
   -0.7760   23.9040  -28.6100 C   0  0  0  0  0  0  0  0  0  0  0  0
   -1.9930   24.5770  -28.7400 C   0  0  0  0  0  0  0  0  0  0  0  0
   -1.9870   25.9500  -28.9680 O   0  0  0  0  0  0  0  0  0  0  0  0
   -4.5160   22.5230  -31.5940 C   0  0  0  0  0  0  0  0  0  0  0  0
   -4.7220   21.2610  -32.1560 C   0  0  0  0  0  0  0  0  0  0  0  0
   -5.9990   20.6740  -32.1330 C   0  0  0  0  0  0  0  0  0  0  0  0
   -5.4944   16.6360  -33.1436 H   0  0  0  0  0  0  0  0  0  0  0  0
   -6.2781   17.4633  -34.5322 H   0  0  0  0  0  0  0  0  0  0  0  0
   -4.5018   17.1958  -34.5322 H   0  0  0  0  0  0  0  0  0  0  0  0
   -9.5292   19.0571  -32.0389 H   0  0  0  0  0  0  0  0  0  0  0  0
   -9.1955   21.3337  -31.0651 H   0  0  0  0  0  0  0  0  0  0  0  0
   -7.7003   23.2035  -30.5496 H   0  0  0  0  0  0  0  0  0  0  0  0
   -4.9420   24.9190  -27.8880 H   0  0  0  0  0  0  0  0  0  0  0  0
   -4.1170   21.9229  -28.3413 H   0  0  0  0  0  0  0  0  0  0  0  0
   -3.7678   20.4354  -26.9784 H   0  0  0  0  0  0  0  0  0  0  0  0
   -3.6415   19.2232  -28.3124 H   0  0  0  0  0  0  0  0  0  0  0  0
   -3.0190   18.9446  -25.4493 H   0  0  0  0  0  0  0  0  0  0  0  0
   -3.2277   17.6835  -26.7595 H   0  0  0  0  0  0  0  0  0  0  0  0
    0.1816   17.7636  -27.7146 H   0  0  0  0  0  0  0  0  0  0  0  0
   -1.4925   17.5570  -28.3322 H   0  0  0  0  0  0  0  0  0  0  0  0
    0.1587   20.0987  -28.0593 H   0  0  0  0  0  0  0  0  0  0  0  0
   -0.7545   19.4752  -29.4821 H   0  0  0  0  0  0  0  0  0  0  0  0
    0.2103   22.0076  -28.2660 H   0  0  0  0  0  0  0  0  0  0  0  0
    0.1690   24.4598  -28.6995 H   0  0  0  0  0  0  0  0  0  0  0  0
   -3.5126   22.9735  -31.6131 H   0  0  0  0  0  0  0  0  0  0  0  0
   -3.8809   20.7239  -32.6188 H   0  0  0  0  0  0  0  0  0  0  0  0
  1  2  1  0
  2  3  1  0
  3  4  2  0
  4  5  1  0
  5  6  2  0
  6  7  1  0
  7  8  2  0
  8  9  1  0
  9 10  1  0
 10 11  2  0
 10 12  2  0
 10 13  1  0
 13 14  1  0
 14 15  2  0
 15 16  1  0
 16 17  1  0
 17 18  1  0
 18 19  1  0
 19 20  1  0
 20 21  1  0
 21 22  1  0
 16 23  2  0
 23 24  1  0
 24 25  2  0
 25 26  1  0
  9 27  2  0
 27 28  1  0
 28 29  2  0
 29  3  1  0
 29  7  1  0
 25 14  1  0
 22 17  1  0
  1 30  1  0
  1 31  1  0
  1 32  1  0
  5 33  1  0
  6 34  1  0
  8 35  1  0
 13 36  1  0
 15 37  1  0
 18 38  1  0
 18 39  1  0
 19 40  1  0
 19 41  1  0
 21 42  1  0
 21 43  1  0
 22 44  1  0
 22 45  1  0
 23 46  1  0
 24 47  1  0
 27 48  1  0
 28 49  1  0
M  CHG  1  26  -1
M  END
>  <UniqueID>  (41) 
40

>  <SMILES>  (41) 
COc1nccc2cc(S(=O)(=O)Nc3cc(N4CCOCC4)ccc3[O-])ccc12

>  <Energy>  (41) 
67.97857533844508

>  <Genealogy>  (41) 
COc1nccc2cc(S(=O)(=O)Nc3cc(N4CCOCC4)ccc3[O-])ccc12 (protonated)
COc1nccc2cc(S(=O)(=O)Nc3cc(N4CCOCC4)ccc3[O-])ccc12 (3D coordinates assigned)
COc1nccc2cc(S(=O)(=O)Nc3cc(N4CCOCC4)ccc3[O-])ccc12 (nonaromatic ring conformer: 67.97857533844508 kcal/mol)

>  <smiles>  (41) 
COc1nccc2cc(S(=O)(=O)Nc3cc(N4CCOCC4)ccc3O)ccc12

>  <score_type>  (41) 
oracle

>  <origin>  (41) 
adgpu

>  <m_score__min__energy>  (41) 
-13.44

>  <m_primary>  (41) 
energy

$$$$
41:0
     RDKit          3D

 52 55  0  0  0  0  0  0  0  0999 V2000
   -4.2230   25.6700  -30.7400 O   0  0  0  0  0  0  0  0  0  0  0  0
   -4.0650   24.5000  -30.2970 C   0  0  0  0  0  0  0  0  0  0  0  0
   -5.2570   23.7110  -29.8500 C   0  0  0  0  0  0  0  0  0  0  0  0
   -6.8000   24.5050  -30.4210 S   0  0  0  0  0  0  0  0  0  0  0  0
   -7.4260   23.0420  -31.2440 C   0  0  0  0  0  0  0  0  0  0  0  0
   -8.7240   22.8440  -31.5340 N   0  0  0  0  0  0  0  0  0  0  0  0
   -8.7930   21.6560  -32.1150 N   0  0  0  0  0  0  0  0  0  0  0  0
   -7.5320   21.1780  -32.1520 C   0  0  0  0  0  0  0  0  0  0  0  0
   -7.1500   19.8710  -32.7160 C   0  0  0  0  0  0  0  0  0  0  0  0
   -6.2860   19.7860  -33.8150 C   0  0  0  0  0  0  0  0  0  0  0  0
   -5.9260   18.5380  -34.3180 C   0  0  0  0  0  0  0  0  0  0  0  0
   -6.4170   17.4050  -33.7460 N   0  0  0  0  0  0  0  0  0  0  0  0
   -7.2660   17.4580  -32.6900 C   0  0  0  0  0  0  0  0  0  0  0  0
   -7.6440   18.6830  -32.1490 C   0  0  0  0  0  0  0  0  0  0  0  0
   -6.6920   22.0290  -31.6190 O   0  0  0  0  0  0  0  0  0  0  0  0
   -2.7550   23.9410  -30.1540 N   0  0  0  0  0  0  0  0  0  0  0  0
   -1.8470   24.1310  -29.0610 C   0  0  0  0  0  0  0  0  0  0  0  0
   -0.5100   23.7500  -29.2320 C   0  0  0  0  0  0  0  0  0  0  0  0
    0.4140   23.9340  -28.2020 C   0  0  0  0  0  0  0  0  0  0  0  0
    0.0130   24.5090  -26.9940 C   0  0  0  0  0  0  0  0  0  0  0  0
   -1.3130   24.9290  -26.8220 C   0  0  0  0  0  0  0  0  0  0  0  0
   -1.8330   25.6710  -25.3090 S   0  0  0  0  0  0  0  0  0  0  0  0
   -3.3350   25.6520  -25.2070 O   0  0  0  0  0  0  0  0  0  0  0  0
   -1.2660   24.8710  -24.1700 O   0  0  0  0  0  0  0  0  0  0  0  0
   -1.2470   27.3160  -25.2320 N   0  0  0  0  0  0  0  0  0  0  0  0
   -0.8420   27.7630  -26.5850 C   0  0  0  0  0  0  0  0  0  0  0  0
    0.0890   28.9800  -26.5220 C   0  0  0  0  0  0  0  0  0  0  0  0
    1.3970   28.6440  -25.7820 C   0  0  0  0  0  0  0  0  0  0  0  0
    1.2350   27.4790  -24.7910 C   0  0  0  0  0  0  0  0  0  0  0  0
   -0.1830   27.4580  -24.1950 C   0  0  0  0  0  0  0  0  0  0  0  0
   -2.2380   24.7450  -27.8560 C   0  0  0  0  0  0  0  0  0  0  0  0
   -5.1963   22.6953  -30.2679 H   0  0  0  0  0  0  0  0  0  0  0  0
   -5.2641   23.6688  -28.7508 H   0  0  0  0  0  0  0  0  0  0  0  0
   -5.8928   20.7023  -34.2796 H   0  0  0  0  0  0  0  0  0  0  0  0
   -5.2442   18.4682  -35.1784 H   0  0  0  0  0  0  0  0  0  0  0  0
   -7.6588   16.5258  -32.2579 H   0  0  0  0  0  0  0  0  0  0  0  0
   -8.3236   18.7216  -31.2849 H   0  0  0  0  0  0  0  0  0  0  0  0
   -0.1862   23.3032  -30.1836 H   0  0  0  0  0  0  0  0  0  0  0  0
    1.4605   23.6254  -28.3421 H   0  0  0  0  0  0  0  0  0  0  0  0
    0.7387   24.6324  -26.1766 H   0  0  0  0  0  0  0  0  0  0  0  0
   -2.0650   27.9020  -24.9340 H   0  0  0  0  0  0  0  0  0  0  0  0
   -0.3184   26.9388  -27.0915 H   0  0  0  0  0  0  0  0  0  0  0  0
   -1.7482   28.0512  -27.1379 H   0  0  0  0  0  0  0  0  0  0  0  0
    0.3288   29.3015  -27.5463 H   0  0  0  0  0  0  0  0  0  0  0  0
   -0.4248   29.7830  -25.9732 H   0  0  0  0  0  0  0  0  0  0  0  0
    2.1614   28.3709  -26.5244 H   0  0  0  0  0  0  0  0  0  0  0  0
    1.6904   29.5332  -25.2048 H   0  0  0  0  0  0  0  0  0  0  0  0
    1.4185   26.5306  -25.3171 H   0  0  0  0  0  0  0  0  0  0  0  0
    1.9581   27.6108  -23.9726 H   0  0  0  0  0  0  0  0  0  0  0  0
   -0.2579   26.6110  -23.4971 H   0  0  0  0  0  0  0  0  0  0  0  0
   -0.3424   28.4213  -23.6884 H   0  0  0  0  0  0  0  0  0  0  0  0
   -3.2770   25.0822  -27.7264 H   0  0  0  0  0  0  0  0  0  0  0  0
  1  2  2  0
  2  3  1  0
  3  4  1  0
  4  5  1  0
  5  6  2  0
  6  7  1  0
  7  8  2  0
  8  9  1  0
  9 10  2  0
 10 11  1  0
 11 12  2  0
 12 13  1  0
 13 14  2  0
  8 15  1  0
  2 16  1  0
 16 17  1  0
 17 18  2  0
 18 19  1  0
 19 20  2  0
 20 21  1  0
 21 22  1  0
 22 23  2  0
 22 24  2  0
 22 25  1  0
 25 26  1  0
 26 27  1  0
 27 28  1  0
 28 29  1  0
 29 30  1  0
 21 31  2  0
 15  5  1  0
 31 17  1  0
 14  9  1  0
 30 25  1  0
  3 32  1  0
  3 33  1  0
 10 34  1  0
 11 35  1  0
 13 36  1  0
 14 37  1  0
 18 38  1  0
 19 39  1  0
 20 40  1  0
 25 41  1  0
 26 42  1  0
 26 43  1  0
 27 44  1  0
 27 45  1  0
 28 46  1  0
 28 47  1  0
 29 48  1  0
 29 49  1  0
 30 50  1  0
 30 51  1  0
 31 52  1  0
M  CHG  2  16  -1  25   1
M  END
>  <UniqueID>  (42) 
41

>  <SMILES>  (42) 
O=C(CSc1nnc(-c2ccncc2)o1)[N-]c1cccc(S(=O)(=O)[NH+]2CCCCC2)c1

>  <Energy>  (42) 
93.34268316949948

>  <Genealogy>  (42) 
O=C(CSc1nnc(-c2ccncc2)o1)[N-]c1cccc(S(=O)(=O)[NH+]2CCCCC2)c1 (protonated)
O=C(CSc1nnc(-c2ccncc2)o1)[N-]c1cccc(S(=O)(=O)[NH+]2CCCCC2)c1 (3D coordinates assigned)
O=C(CSc1nnc(-c2ccncc2)o1)[N-]c1cccc(S(=O)(=O)[NH+]2CCCCC2)c1 (nonaromatic ring conformer: 93.34268316949948 kcal/mol)

>  <smiles>  (42) 
O=C(CSc1nnc(-c2ccncc2)o1)Nc1cccc(S(=O)(=O)N2CCCCC2)c1

>  <score_type>  (42) 
oracle

>  <origin>  (42) 
adgpu

>  <m_score__min__energy>  (42) 
-11.25

>  <m_primary>  (42) 
energy

$$$$
42:0
     RDKit          3D

 58 61  0  0  0  0  0  0  0  0999 V2000
   -6.7030   24.8890  -30.4660 C   0  0  0  0  0  0  0  0  0  0  0  0
   -6.8590   23.4690  -30.9460 C   0  0  0  0  0  0  0  0  0  0  0  0
   -8.1220   23.0320  -31.3820 C   0  0  0  0  0  0  0  0  0  0  0  0
   -8.3090   21.7200  -31.8200 C   0  0  0  0  0  0  0  0  0  0  0  0
   -7.2340   20.8270  -31.8410 C   0  0  0  0  0  0  0  0  0  0  0  0
   -7.4620   19.1560  -32.3480 S   0  0  0  0  0  0  0  0  0  0  0  0
   -7.0600   18.2220  -31.2400 O   0  0  0  0  0  0  0  0  0  0  0  0
   -8.9150   18.9330  -32.6610 O   0  0  0  0  0  0  0  0  0  0  0  0
   -6.5010   18.8530  -33.7730 N   0  0  0  0  0  0  0  0  0  0  0  0
   -5.1230   19.3250  -33.6110 C   0  0  0  0  0  0  0  0  0  0  0  0
   -4.2510   18.4470  -34.5000 C   0  0  0  0  0  0  0  0  0  0  0  0
   -5.0900   17.2150  -34.8070 C   0  0  0  0  0  0  0  0  0  0  0  0
   -6.4030   17.4200  -34.0650 C   0  0  0  0  0  0  0  0  0  0  0  0
   -5.9710   21.2520  -31.4180 C   0  0  0  0  0  0  0  0  0  0  0  0
   -5.7670   22.5690  -30.9770 C   0  0  0  0  0  0  0  0  0  0  0  0
   -4.1520   23.0370  -30.4130 S   0  0  0  0  0  0  0  0  0  0  0  0
   -3.1130   22.1580  -31.0540 O   0  0  0  0  0  0  0  0  0  0  0  0
   -3.8820   24.4560  -30.8330 O   0  0  0  0  0  0  0  0  0  0  0  0
   -4.0420   22.9160  -28.6680 N   0  0  0  0  0  0  0  0  0  0  0  0
   -3.4790   21.6230  -28.2330 C   0  0  0  0  0  0  0  0  0  0  0  0
   -1.9690   21.5130  -28.5030 C   0  0  0  0  0  0  0  0  0  0  0  0
   -1.2060   22.8160  -28.2020 C   0  0  0  0  0  0  0  0  0  0  0  0
   -2.0390   23.7970  -27.3600 C   0  0  1  0  0  0  0  0  0  0  0  0
   -1.2690   25.1020  -27.0820 C   0  0  0  0  0  0  0  0  0  0  0  0
    0.1660   24.8510  -26.9770 N   0  0  0  0  0  0  0  0  0  0  0  0
    0.8620   24.5930  -25.8580 C   0  0  0  0  0  0  0  0  0  0  0  0
    2.1760   24.4650  -26.1230 N   0  0  0  0  0  0  0  0  0  0  0  0
    2.2250   24.6580  -27.4600 C   0  0  0  0  0  0  0  0  0  0  0  0
    1.0100   24.8990  -27.9910 N   0  0  0  0  0  0  0  0  0  0  0  0
   -3.3810   24.1040  -28.0710 C   0  0  0  0  0  0  0  0  0  0  0  0
   -6.7011   24.9061  -29.3661 H   0  0  0  0  0  0  0  0  0  0  0  0
   -5.7542   25.3006  -30.8408 H   0  0  0  0  0  0  0  0  0  0  0  0
   -7.5398   25.4967  -30.8408 H   0  0  0  0  0  0  0  0  0  0  0  0
   -8.9713   23.7310  -31.3779 H   0  0  0  0  0  0  0  0  0  0  0  0
   -9.3047   21.3881  -32.1494 H   0  0  0  0  0  0  0  0  0  0  0  0
   -6.9410   19.3430  -34.5880 H   0  0  0  0  0  0  0  0  0  0  0  0
   -5.0437   20.3769  -33.9227 H   0  0  0  0  0  0  0  0  0  0  0  0
   -4.8048   19.2626  -32.5599 H   0  0  0  0  0  0  0  0  0  0  0  0
   -3.9930   18.9771  -35.4287 H   0  0  0  0  0  0  0  0  0  0  0  0
   -3.3039   18.1822  -34.0073 H   0  0  0  0  0  0  0  0  0  0  0  0
   -5.2692   17.1321  -35.8891 H   0  0  0  0  0  0  0  0  0  0  0  0
   -4.5849   16.2895  -34.4933 H   0  0  0  0  0  0  0  0  0  0  0  0
   -7.2477   17.1024  -34.6939 H   0  0  0  0  0  0  0  0  0  0  0  0
   -6.4330   16.8244  -33.1407 H   0  0  0  0  0  0  0  0  0  0  0  0
   -5.1274   20.5462  -31.4309 H   0  0  0  0  0  0  0  0  0  0  0  0
   -3.6527   21.5090  -27.1528 H   0  0  0  0  0  0  0  0  0  0  0  0
   -3.9787   20.8315  -28.8108 H   0  0  0  0  0  0  0  0  0  0  0  0
   -1.5576   20.7122  -27.8709 H   0  0  0  0  0  0  0  0  0  0  0  0
   -1.8418   21.2980  -29.5742 H   0  0  0  0  0  0  0  0  0  0  0  0
   -0.2866   22.5687  -27.6510 H   0  0  0  0  0  0  0  0  0  0  0  0
   -0.9794   23.3035  -29.1617 H   0  0  0  0  0  0  0  0  0  0  0  0
   -2.2447   23.3190  -26.3909 H   0  0  0  0  0  0  0  0  0  0  0  0
   -1.4512   25.8093  -27.9045 H   0  0  0  0  0  0  0  0  0  0  0  0
   -1.6222   25.5208  -26.1281 H   0  0  0  0  0  0  0  0  0  0  0  0
    0.4172   24.4986  -24.8564 H   0  0  0  0  0  0  0  0  0  0  0  0
    3.1533   24.6223  -28.0491 H   0  0  0  0  0  0  0  0  0  0  0  0
   -4.0678   24.5465  -27.3344 H   0  0  0  0  0  0  0  0  0  0  0  0
   -3.1483   24.7859  -28.9022 H   0  0  0  0  0  0  0  0  0  0  0  0
  1  2  1  0
  2  3  2  0
  3  4  1  0
  4  5  2  0
  5  6  1  0
  6  7  2  0
  6  8  2  0
  6  9  1  0
  9 10  1  0
 10 11  1  0
 11 12  1  0
 12 13  1  0
  5 14  1  0
 14 15  2  0
 15 16  1  0
 16 17  2  0
 16 18  2  0
 16 19  1  0
 19 20  1  0
 20 21  1  0
 21 22  1  0
 22 23  1  0
 23 24  1  0
 24 25  1  0
 25 26  1  0
 26 27  2  0
 27 28  1  0
 28 29  2  0
 23 30  1  0
 15  2  1  0
 30 19  1  0
 13  9  1  0
 29 25  1  0
  1 31  1  0
  1 32  1  0
  1 33  1  0
  3 34  1  0
  4 35  1  0
  9 36  1  0
 10 37  1  0
 10 38  1  0
 11 39  1  0
 11 40  1  0
 12 41  1  0
 12 42  1  0
 13 43  1  0
 13 44  1  0
 14 45  1  0
 20 46  1  0
 20 47  1  0
 21 48  1  0
 21 49  1  0
 22 50  1  0
 22 51  1  0
 23 52  1  1
 24 53  1  0
 24 54  1  0
 26 55  1  0
 28 56  1  0
 30 57  1  0
 30 58  1  0
M  CHG  1   9   1
M  END
>  <UniqueID>  (43) 
42

>  <SMILES>  (43) 
Cc1ccc(S(=O)(=O)[NH+]2CCCC2)cc1S(=O)(=O)N1CCC[C@@H](Cn2cncn2)C1

>  <Energy>  (43) 
98.47523858621337

>  <Genealogy>  (43) 
Cc1ccc(S(=O)(=O)[NH+]2CCCC2)cc1S(=O)(=O)N1CCCC(Cn2cncn2)C1 (protonated)
Cc1ccc(S(=O)(=O)[NH+]2CCCC2)cc1S(=O)(=O)N1CCC[C@@H](Cn2cncn2)C1 (chirality)
Cc1ccc(S(=O)(=O)[NH+]2CCCC2)cc1S(=O)(=O)N1CCC[C@@H](Cn2cncn2)C1 (3D coordinates assigned)
Cc1ccc(S(=O)(=O)[NH+]2CCCC2)cc1S(=O)(=O)N1CCC[C@@H](Cn2cncn2)C1 (nonaromatic ring conformer: 98.47523858621337 kcal/mol)

>  <smiles>  (43) 
Cc1ccc(S(=O)(=O)N2CCCC2)cc1S(=O)(=O)N1CCCC(Cn2cncn2)C1

>  <score_type>  (43) 
oracle

>  <origin>  (43) 
adgpu

>  <m_score__min__energy>  (43) 
-10.390000000000001

>  <m_primary>  (43) 
energy

$$$$
43:0
     RDKit          3D

 50 53  0  0  0  0  0  0  0  0999 V2000
   -5.7460   26.3320  -31.2270 O   0  0  0  0  0  0  0  0  0  0  0  0
   -5.3050   25.1580  -30.3950 S   0  0  0  0  0  0  0  0  0  0  0  0
   -5.9270   25.2900  -29.0290 O   0  0  0  0  0  0  0  0  0  0  0  0
   -3.5770   25.2090  -30.2370 N   0  0  0  0  0  0  0  0  0  0  0  0
   -2.8130   24.4740  -29.2710 C   0  0  0  0  0  0  0  0  0  0  0  0
   -3.2150   23.2020  -28.8260 C   0  0  0  0  0  0  0  0  0  0  0  0
   -2.4270   22.4910  -27.9150 C   0  0  0  0  0  0  0  0  0  0  0  0
   -1.2550   23.0740  -27.3850 C   0  0  0  0  0  0  0  0  0  0  0  0
   -0.8450   24.3350  -27.8400 C   0  0  0  0  0  0  0  0  0  0  0  0
   -1.6140   25.0260  -28.7860 C   0  0  0  0  0  0  0  0  0  0  0  0
   -1.1900   26.2730  -29.2310 O   0  0  0  0  0  0  0  0  0  0  0  0
   -0.4090   22.3160  -26.3840 C   0  0  0  0  0  0  0  0  0  0  0  0
   -1.1910   21.1690  -25.7200 C   0  0  0  0  0  0  0  0  0  0  0  0
   -1.9390   20.3520  -26.7840 C   0  0  0  0  0  0  0  0  0  0  0  0
   -2.8140   21.2010  -27.5270 O   0  0  0  0  0  0  0  0  0  0  0  0
   -5.8480   23.6770  -31.1830 C   0  0  0  0  0  0  0  0  0  0  0  0
   -7.1980   23.3010  -31.1130 C   0  0  0  0  0  0  0  0  0  0  0  0
   -7.6270   22.1070  -31.7080 C   0  0  0  0  0  0  0  0  0  0  0  0
   -6.7110   21.2820  -32.3780 C   0  0  0  0  0  0  0  0  0  0  0  0
   -7.2370   19.7590  -33.1020 S   0  0  0  0  0  0  0  0  0  0  0  0
   -6.8180   19.7440  -34.5470 O   0  0  0  0  0  0  0  0  0  0  0  0
   -8.7390   19.6860  -33.0600 O   0  0  0  0  0  0  0  0  0  0  0  0
   -6.5680   18.3540  -32.2940 N   0  0  0  0  0  0  0  0  0  0  0  0
   -5.0960   18.3140  -32.3590 C   0  0  0  0  0  0  0  0  0  0  0  0
   -4.5670   17.7470  -33.6970 C   0  0  0  0  0  0  0  0  0  0  0  0
   -5.5690   17.1330  -34.4860 O   0  0  0  0  0  0  0  0  0  0  0  0
   -6.3460   16.2750  -33.6850 C   0  0  0  0  0  0  0  0  0  0  0  0
   -7.2110   17.0900  -32.7100 C   0  0  0  0  0  0  0  0  0  0  0  0
   -5.3670   21.6710  -32.4670 C   0  0  0  0  0  0  0  0  0  0  0  0
   -4.9360   22.8560  -31.8620 C   0  0  0  0  0  0  0  0  0  0  0  0
   -4.1537   22.7641  -29.1962 H   0  0  0  0  0  0  0  0  0  0  0  0
    0.0824   24.7830  -27.4536 H   0  0  0  0  0  0  0  0  0  0  0  0
    0.4649   21.8960  -26.9035 H   0  0  0  0  0  0  0  0  0  0  0  0
   -0.1030   23.0196  -25.5958 H   0  0  0  0  0  0  0  0  0  0  0  0
   -0.4890   20.5126  -25.1849 H   0  0  0  0  0  0  0  0  0  0  0  0
   -1.9205   21.5931  -25.0144 H   0  0  0  0  0  0  0  0  0  0  0  0
   -1.2108   19.8916  -27.4680 H   0  0  0  0  0  0  0  0  0  0  0  0
   -2.5315   19.5695  -26.2873 H   0  0  0  0  0  0  0  0  0  0  0  0
   -7.9208   23.9446  -30.5902 H   0  0  0  0  0  0  0  0  0  0  0  0
   -8.6860   21.8154  -31.6496 H   0  0  0  0  0  0  0  0  0  0  0  0
   -4.7114   19.3371  -32.2350 H   0  0  0  0  0  0  0  0  0  0  0  0
   -4.7486   17.6457  -31.5574 H   0  0  0  0  0  0  0  0  0  0  0  0
   -4.1261   18.5726  -34.2749 H   0  0  0  0  0  0  0  0  0  0  0  0
   -3.8288   16.9699  -33.4496 H   0  0  0  0  0  0  0  0  0  0  0  0
   -6.9995   15.6696  -34.3303 H   0  0  0  0  0  0  0  0  0  0  0  0
   -5.6757   15.6218  -33.1071 H   0  0  0  0  0  0  0  0  0  0  0  0
   -8.1664   17.3266  -33.2011 H   0  0  0  0  0  0  0  0  0  0  0  0
   -7.3570   16.4795  -31.8067 H   0  0  0  0  0  0  0  0  0  0  0  0
   -4.6493   21.0423  -33.0143 H   0  0  0  0  0  0  0  0  0  0  0  0
   -3.8763   23.1455  -31.9190 H   0  0  0  0  0  0  0  0  0  0  0  0
  1  2  2  0
  2  3  2  0
  2  4  1  0
  4  5  1  0
  5  6  2  0
  6  7  1  0
  7  8  2  0
  8  9  1  0
  9 10  2  0
 10 11  1  0
  8 12  1  0
 12 13  1  0
 13 14  1  0
 14 15  1  0
  2 16  1  0
 16 17  2  0
 17 18  1  0
 18 19  2  0
 19 20  1  0
 20 21  2  0
 20 22  2  0
 20 23  1  0
 23 24  1  0
 24 25  1  0
 25 26  1  0
 26 27  1  0
 27 28  1  0
 19 29  1  0
 29 30  2  0
 10  5  1  0
 30 16  1  0
 15  7  1  0
 28 23  1  0
  6 31  1  0
  9 32  1  0
 12 33  1  0
 12 34  1  0
 13 35  1  0
 13 36  1  0
 14 37  1  0
 14 38  1  0
 17 39  1  0
 18 40  1  0
 24 41  1  0
 24 42  1  0
 25 43  1  0
 25 44  1  0
 27 45  1  0
 27 46  1  0
 28 47  1  0
 28 48  1  0
 29 49  1  0
 30 50  1  0
M  CHG  2   4  -1  11  -1
M  END
>  <UniqueID>  (44) 
43

>  <SMILES>  (44) 
O=S(=O)([N-]c1cc2c(cc1[O-])CCCO2)c1ccc(S(=O)(=O)N2CCOCC2)cc1

>  <Energy>  (44) 
68.49180323441216

>  <Genealogy>  (44) 
O=S(=O)([N-]c1cc2c(cc1[O-])CCCO2)c1ccc(S(=O)(=O)N2CCOCC2)cc1 (protonated)
O=S(=O)([N-]c1cc2c(cc1[O-])CCCO2)c1ccc(S(=O)(=O)N2CCOCC2)cc1 (3D coordinates assigned)
O=S(=O)([N-]c1cc2c(cc1[O-])CCCO2)c1ccc(S(=O)(=O)N2CCOCC2)cc1 (nonaromatic ring conformer: 68.49180323441216 kcal/mol)

>  <smiles>  (44) 
O=S(=O)(Nc1cc2c(cc1O)CCCO2)c1ccc(S(=O)(=O)N2CCOCC2)cc1

>  <score_type>  (44) 
oracle

>  <origin>  (44) 
adgpu

>  <m_score__min__energy>  (44) 
-14.77

>  <m_primary>  (44) 
energy

$$$$
44:0
     RDKit          3D

 67 70  0  0  0  0  0  0  0  0999 V2000
   -6.5520   25.7200  -29.6870 C   0  0  0  0  0  0  0  0  0  0  0  0
   -5.5170   24.6440  -29.7170 C   0  0  0  0  0  0  0  0  0  0  0  0
   -4.5930   24.4680  -28.7510 N   0  0  0  0  0  0  0  0  0  0  0  0
   -3.8920   23.3830  -29.0560 N   0  0  0  0  0  0  0  0  0  0  0  0
   -2.8620   22.8250  -28.1890 C   0  0  0  0  0  0  0  0  0  0  0  0
   -4.3570   22.8420  -30.2040 C   0  0  0  0  0  0  0  0  0  0  0  0
   -3.9460   21.5110  -30.7570 C   0  0  0  0  0  0  0  0  0  0  0  0
   -5.4000   23.6280  -30.6460 C   0  0  0  0  0  0  0  0  0  0  0  0
   -6.2930   23.3330  -31.7200 N   0  0  0  0  0  0  0  0  0  0  0  0
   -7.7180   22.4050  -31.4050 S   0  0  0  0  0  0  0  0  0  0  0  0
   -8.8870   23.0370  -32.1080 O   0  0  0  0  0  0  0  0  0  0  0  0
   -8.0050   22.3790  -29.9310 O   0  0  0  0  0  0  0  0  0  0  0  0
   -7.4710   20.7690  -32.0060 C   0  0  0  0  0  0  0  0  0  0  0  0
   -8.4410   19.7820  -31.7920 C   0  0  0  0  0  0  0  0  0  0  0  0
   -8.2740   18.5070  -32.3370 C   0  0  0  0  0  0  0  0  0  0  0  0
   -7.1440   18.2120  -33.1030 C   0  0  0  0  0  0  0  0  0  0  0  0
   -6.1590   19.1950  -33.3230 C   0  0  0  0  0  0  0  0  0  0  0  0
   -4.9930   18.9270  -34.1220 N   0  0  0  0  0  0  0  0  0  0  0  0
   -3.6490   19.0060  -33.6250 C   0  0  0  0  0  0  0  0  0  0  0  0
   -2.9680   17.8190  -33.3260 C   0  0  0  0  0  0  0  0  0  0  0  0
   -1.6670   17.8540  -32.8210 C   0  0  0  0  0  0  0  0  0  0  0  0
   -1.0230   19.0810  -32.6140 C   0  0  0  0  0  0  0  0  0  0  0  0
    0.6340   19.1250  -32.0080 S   0  0  0  0  0  0  0  0  0  0  0  0
    1.3300   17.8430  -32.3740 O   0  0  0  0  0  0  0  0  0  0  0  0
    1.3710   20.2590  -32.6660 O   0  0  0  0  0  0  0  0  0  0  0  0
    0.6820   19.3440  -30.2720 N   0  0  0  0  0  0  0  0  0  0  0  0
   -0.1430   20.4980  -29.8410 C   0  0  0  0  0  0  0  0  0  0  0  0
   -1.5060   20.0680  -29.2700 C   0  0  0  0  0  0  0  0  0  0  0  0
   -1.3720   19.1290  -28.1290 N   0  0  0  0  0  0  0  0  0  0  0  0
   -1.5250   19.8230  -26.8400 C   0  0  0  0  0  0  0  0  0  0  0  0
   -0.1170   18.3430  -28.1460 C   0  0  0  0  0  0  0  0  0  0  0  0
    0.3540   18.0800  -29.5800 C   0  0  0  0  0  0  0  0  0  0  0  0
   -1.6940   20.2710  -32.9210 C   0  0  0  0  0  0  0  0  0  0  0  0
   -2.9930   20.2460  -33.4500 C   0  0  0  0  0  0  0  0  0  0  0  0
   -3.6070   21.4780  -33.8470 N   0  0  0  0  0  0  0  0  0  0  0  0
   -6.3380   20.4750  -32.7770 C   0  0  0  0  0  0  0  0  0  0  0  0
   -6.7917   25.9692  -28.6428 H   0  0  0  0  0  0  0  0  0  0  0  0
   -6.1661   26.6143  -30.1981 H   0  0  0  0  0  0  0  0  0  0  0  0
   -7.4607   25.3691  -30.1981 H   0  0  0  0  0  0  0  0  0  0  0  0
   -3.1453   22.9785  -27.1373 H   0  0  0  0  0  0  0  0  0  0  0  0
   -2.7594   21.7480  -28.3877 H   0  0  0  0  0  0  0  0  0  0  0  0
   -1.9038   23.3274  -28.3877 H   0  0  0  0  0  0  0  0  0  0  0  0
   -3.7326   20.8198  -29.9284 H   0  0  0  0  0  0  0  0  0  0  0  0
   -4.7601   21.1032  -31.3742 H   0  0  0  0  0  0  0  0  0  0  0  0
   -3.0437   21.6332  -31.3742 H   0  0  0  0  0  0  0  0  0  0  0  0
   -5.9030   23.2930  -32.6870 H   0  0  0  0  0  0  0  0  0  0  0  0
   -9.3354   20.0111  -31.1940 H   0  0  0  0  0  0  0  0  0  0  0  0
   -9.0352   17.7323  -32.1623 H   0  0  0  0  0  0  0  0  0  0  0  0
   -7.0226   17.2082  -33.5362 H   0  0  0  0  0  0  0  0  0  0  0  0
   -5.1310   18.5320  -35.0810 H   0  0  0  0  0  0  0  0  0  0  0  0
   -3.4629   16.8505  -33.4906 H   0  0  0  0  0  0  0  0  0  0  0  0
   -1.1455   16.9147  -32.5847 H   0  0  0  0  0  0  0  0  0  0  0  0
    0.4050   21.0532  -29.0655 H   0  0  0  0  0  0  0  0  0  0  0  0
   -0.3336   21.1217  -30.7268 H   0  0  0  0  0  0  0  0  0  0  0  0
   -2.0442   20.9644  -28.9281 H   0  0  0  0  0  0  0  0  0  0  0  0
   -2.0546   19.5478  -30.0690 H   0  0  0  0  0  0  0  0  0  0  0  0
   -1.3676   19.1090  -26.0182 H   0  0  0  0  0  0  0  0  0  0  0  0
   -0.7838   20.6327  -26.7693 H   0  0  0  0  0  0  0  0  0  0  0  0
   -2.5380   20.2460  -26.7693 H   0  0  0  0  0  0  0  0  0  0  0  0
    0.6635   18.9020  -27.6090 H   0  0  0  0  0  0  0  0  0  0  0  0
   -0.3062   17.3750  -27.6590 H   0  0  0  0  0  0  0  0  0  0  0  0
    1.2499   17.4423  -29.5527 H   0  0  0  0  0  0  0  0  0  0  0  0
   -0.4585   17.5815  -30.1290 H   0  0  0  0  0  0  0  0  0  0  0  0
   -1.1969   21.2364  -32.7454 H   0  0  0  0  0  0  0  0  0  0  0  0
   -3.0260   22.2710  -34.1990 H   0  0  0  0  0  0  0  0  0  0  0  0
   -4.6450   21.5900  -33.8810 H   0  0  0  0  0  0  0  0  0  0  0  0
   -5.5827   21.2545  -32.9555 H   0  0  0  0  0  0  0  0  0  0  0  0
  1  2  1  0
  2  3  2  0
  3  4  1  0
  4  5  1  0
  4  6  1  0
  6  7  1  0
  6  8  2  0
  8  9  1  0
  9 10  1  0
 10 11  2  0
 10 12  2  0
 10 13  1  0
 13 14  2  0
 14 15  1  0
 15 16  2  0
 16 17  1  0
 17 18  1  0
 18 19  1  0
 19 20  2  0
 20 21  1  0
 21 22  2  0
 22 23  1  0
 23 24  2  0
 23 25  2  0
 23 26  1  0
 26 27  1  0
 27 28  1  0
 28 29  1  0
 29 30  1  0
 29 31  1  0
 31 32  1  0
 22 33  1  0
 33 34  2  0
 34 35  1  0
 17 36  2  0
  8  2  1  0
 36 13  1  0
 34 19  1  0
 32 26  1  0
  1 37  1  0
  1 38  1  0
  1 39  1  0
  5 40  1  0
  5 41  1  0
  5 42  1  0
  7 43  1  0
  7 44  1  0
  7 45  1  0
  9 46  1  0
 14 47  1  0
 15 48  1  0
 16 49  1  0
 18 50  1  0
 20 51  1  0
 21 52  1  0
 27 53  1  0
 27 54  1  0
 28 55  1  0
 28 56  1  0
 30 57  1  0
 30 58  1  0
 30 59  1  0
 31 60  1  0
 31 61  1  0
 32 62  1  0
 32 63  1  0
 33 64  1  0
 35 65  1  0
 35 66  1  0
 36 67  1  0
M  END
>  <UniqueID>  (45) 
44

>  <SMILES>  (45) 
Cc1nn(C)c(C)c1NS(=O)(=O)c1cccc(Nc2ccc(S(=O)(=O)N3CCN(C)CC3)cc2N)c1

>  <Energy>  (45) 
119.83749801842103

>  <Genealogy>  (45) 
Cc1nn(C)c(C)c1NS(=O)(=O)c1cccc(Nc2ccc(S(=O)(=O)N3CCN(C)CC3)cc2N)c1 (3D coordinates assigned)
Cc1nn(C)c(C)c1NS(=O)(=O)c1cccc(Nc2ccc(S(=O)(=O)N3CCN(C)CC3)cc2N)c1 (nonaromatic ring conformer: 119.83749801842103 kcal/mol)

>  <smiles>  (45) 
Cc1nn(C)c(C)c1NS(=O)(=O)c1cccc(Nc2ccc(S(=O)(=O)N3CCN(C)CC3)cc2N)c1

>  <score_type>  (45) 
oracle

>  <origin>  (45) 
adgpu

>  <m_score__min__energy>  (45) 
-11.52

>  <m_primary>  (45) 
energy

$$$$
45:0
     RDKit          3D

 52 54  0  0  0  0  0  0  0  0999 V2000
   -9.6970   21.8290  -30.9560 C   0  0  0  0  0  0  0  0  0  0  0  0
   -8.5320   21.1070  -31.5820 C   0  0  0  0  0  0  0  0  0  0  0  0
   -8.4910   19.7020  -31.5200 C   0  0  0  0  0  0  0  0  0  0  0  0
   -7.4170   18.9980  -32.0660 C   0  0  0  0  0  0  0  0  0  0  0  0
   -6.3670   19.6840  -32.6730 C   0  0  0  0  0  0  0  0  0  0  0  0
   -6.3840   21.0770  -32.7340 C   0  0  0  0  0  0  0  0  0  0  0  0
   -7.4580   21.8070  -32.1900 C   0  0  0  0  0  0  0  0  0  0  0  0
   -7.4210   23.3180  -32.2620 C   0  0  0  0  0  0  0  0  0  0  0  0
   -6.5010   23.8630  -31.2640 N   0  0  0  0  0  0  0  0  0  0  0  0
   -5.0760   23.8510  -31.4400 C   0  0  0  0  0  0  0  0  0  0  0  0
   -4.5650   23.2540  -32.4250 O   0  0  0  0  0  0  0  0  0  0  0  0
   -4.2090   24.4570  -30.4740 N   0  0  0  0  0  0  0  0  0  0  0  0
   -3.4640   23.7650  -29.4630 C   0  0  0  0  0  0  0  0  0  0  0  0
   -3.8600   22.5020  -29.0080 C   0  0  0  0  0  0  0  0  0  0  0  0
   -3.1310   21.8510  -28.0170 C   0  0  0  0  0  0  0  0  0  0  0  0
   -1.9980   22.4530  -27.4420 C   0  0  0  0  0  0  0  0  0  0  0  0
   -1.2420   21.6810  -26.3940 C   0  0  0  0  0  0  0  0  0  0  0  0
   -1.6240   23.7620  -27.8520 C   0  0  0  0  0  0  0  0  0  0  0  0
   -0.2250   24.6320  -27.1730 S   0  0  0  0  0  0  0  0  0  0  0  0
    0.3970   23.7710  -26.1080 O   0  0  0  0  0  0  0  0  0  0  0  0
    0.8300   24.9140  -28.2060 O   0  0  0  0  0  0  0  0  0  0  0  0
   -0.7750   26.1270  -26.4580 N   0  0  0  0  0  0  0  0  0  0  0  0
   -0.0050   27.2580  -26.9960 C   0  0  0  0  0  0  0  0  0  0  0  0
   -0.4790   28.5780  -26.3510 C   0  0  0  0  0  0  0  0  0  0  0  0
   -1.4050   28.3590  -25.3010 O   0  0  0  0  0  0  0  0  0  0  0  0
   -0.8580   27.4550  -24.3610 C   0  0  0  0  0  0  0  0  0  0  0  0
   -0.6340   26.0660  -24.9930 C   0  0  0  0  0  0  0  0  0  0  0  0
   -2.3620   24.3960  -28.8740 C   0  0  0  0  0  0  0  0  0  0  0  0
   -1.9920   25.6620  -29.3230 O   0  0  0  0  0  0  0  0  0  0  0  0
   -9.6143   21.7777  -29.8603 H   0  0  0  0  0  0  0  0  0  0  0  0
   -9.6905   22.8816  -31.2753 H   0  0  0  0  0  0  0  0  0  0  0  0
  -10.6367   21.3548  -31.2753 H   0  0  0  0  0  0  0  0  0  0  0  0
   -9.3130   19.1535  -31.0368 H   0  0  0  0  0  0  0  0  0  0  0  0
   -7.3993   17.8992  -32.0171 H   0  0  0  0  0  0  0  0  0  0  0  0
   -5.5233   19.1257  -33.1048 H   0  0  0  0  0  0  0  0  0  0  0  0
   -5.5496   21.6111  -33.2121 H   0  0  0  0  0  0  0  0  0  0  0  0
   -7.0874   23.6232  -33.2648 H   0  0  0  0  0  0  0  0  0  0  0  0
   -8.4305   23.7055  -32.0599 H   0  0  0  0  0  0  0  0  0  0  0  0
   -6.9070   24.2620  -30.3900 H   0  0  0  0  0  0  0  0  0  0  0  0
   -4.7521   22.0213  -29.4359 H   0  0  0  0  0  0  0  0  0  0  0  0
   -3.4454   20.8525  -27.6793 H   0  0  0  0  0  0  0  0  0  0  0  0
   -1.5630   22.0088  -25.3943 H   0  0  0  0  0  0  0  0  0  0  0  0
   -1.4469   20.6066  -26.5109 H   0  0  0  0  0  0  0  0  0  0  0  0
   -0.1636   21.8634  -26.5109 H   0  0  0  0  0  0  0  0  0  0  0  0
    1.0624   27.1086  -26.7763 H   0  0  0  0  0  0  0  0  0  0  0  0
   -0.1594   27.3133  -28.0837 H   0  0  0  0  0  0  0  0  0  0  0  0
    0.3956   29.1088  -25.9469 H   0  0  0  0  0  0  0  0  0  0  0  0
   -0.9838   29.1710  -27.1279 H   0  0  0  0  0  0  0  0  0  0  0  0
    0.1058   27.8471  -24.0040 H   0  0  0  0  0  0  0  0  0  0  0  0
   -1.5653   27.3490  -23.5252 H   0  0  0  0  0  0  0  0  0  0  0  0
    0.3781   25.7153  -24.7428 H   0  0  0  0  0  0  0  0  0  0  0  0
   -1.3897   25.3726  -24.5954 H   0  0  0  0  0  0  0  0  0  0  0  0
  1  2  1  0
  2  3  2  0
  3  4  1  0
  4  5  2  0
  5  6  1  0
  6  7  2  0
  7  8  1  0
  8  9  1  0
  9 10  1  0
 10 11  2  0
 10 12  1  0
 12 13  1  0
 13 14  2  0
 14 15  1  0
 15 16  2  0
 16 17  1  0
 16 18  1  0
 18 19  1  0
 19 20  2  0
 19 21  2  0
 19 22  1  0
 22 23  1  0
 23 24  1  0
 24 25  1  0
 25 26  1  0
 26 27  1  0
 18 28  2  0
 28 29  1  0
  7  2  1  0
 28 13  1  0
 27 22  1  0
  1 30  1  0
  1 31  1  0
  1 32  1  0
  3 33  1  0
  4 34  1  0
  5 35  1  0
  6 36  1  0
  8 37  1  0
  8 38  1  0
  9 39  1  0
 14 40  1  0
 15 41  1  0
 17 42  1  0
 17 43  1  0
 17 44  1  0
 23 45  1  0
 23 46  1  0
 24 47  1  0
 24 48  1  0
 26 49  1  0
 26 50  1  0
 27 51  1  0
 27 52  1  0
M  CHG  2  12  -1  29  -1
M  END
>  <UniqueID>  (46) 
45

>  <SMILES>  (46) 
Cc1ccccc1CNC(=O)[N-]c1ccc(C)c(S(=O)(=O)N2CCOCC2)c1[O-]

>  <Energy>  (46) 
67.26759342789266

>  <Genealogy>  (46) 
Cc1ccccc1CNC(=O)[N-]c1ccc(C)c(S(=O)(=O)N2CCOCC2)c1[O-] (protonated)
Cc1ccccc1CNC(=O)[N-]c1ccc(C)c(S(=O)(=O)N2CCOCC2)c1[O-] (3D coordinates assigned)
Cc1ccccc1CNC(=O)[N-]c1ccc(C)c(S(=O)(=O)N2CCOCC2)c1[O-] (nonaromatic ring conformer: 67.26759342789266 kcal/mol)

>  <smiles>  (46) 
Cc1ccccc1CNC(=O)Nc1ccc(C)c(S(=O)(=O)N2CCOCC2)c1O

>  <score_type>  (46) 
oracle

>  <origin>  (46) 
adgpu

>  <m_score__min__energy>  (46) 
-14.43

>  <m_primary>  (46) 
energy

$$$$
46:0
     RDKit          3D

 55 59  0  0  0  0  0  0  0  0999 V2000
   -0.0290   14.6040  -36.2340 C   0  0  0  0  0  0  0  0  0  0  0  0
   -1.2980   15.2350  -35.7630 C   0  0  0  0  0  0  0  0  0  0  0  0
   -2.5490   14.5960  -35.9740 C   0  0  0  0  0  0  0  0  0  0  0  0
   -3.7050   15.1970  -35.5610 N   0  0  0  0  0  0  0  0  0  0  0  0
   -3.6220   16.4130  -34.9700 C   0  0  0  0  0  0  0  0  0  0  0  0
   -4.6380   17.1420  -34.4870 N   0  0  0  0  0  0  0  0  0  0  0  0
   -4.0700   18.2740  -33.9960 C   0  0  0  0  0  0  0  0  0  0  0  0
   -4.8640   19.3830  -33.4250 C   0  0  0  0  0  0  0  0  0  0  0  0
   -6.2250   19.1980  -33.1390 C   0  0  0  0  0  0  0  0  0  0  0  0
   -6.9800   20.2400  -32.5940 C   0  0  0  0  0  0  0  0  0  0  0  0
   -6.3910   21.4870  -32.3480 C   0  0  0  0  0  0  0  0  0  0  0  0
   -7.3460   22.8100  -31.6760 S   0  0  0  0  0  0  0  0  0  0  0  0
   -8.7600   22.3340  -31.4950 O   0  0  0  0  0  0  0  0  0  0  0  0
   -7.3670   23.9510  -32.6550 O   0  0  0  0  0  0  0  0  0  0  0  0
   -6.7350   23.3760  -30.1330 N   0  0  0  0  0  0  0  0  0  0  0  0
   -6.6620   24.8460  -30.0440 C   0  0  0  0  0  0  0  0  0  0  0  0
   -5.4200   25.4440  -30.7420 C   0  0  0  0  0  0  0  0  0  0  0  0
   -4.4000   24.4320  -31.0460 N   0  0  0  0  0  0  0  0  0  0  0  0
   -4.2260   23.5230  -29.9150 C   0  0  0  0  0  0  0  0  0  0  0  0
   -5.4990   22.6830  -29.7080 C   0  0  0  0  0  0  0  0  0  0  0  0
   -5.0340   21.6770  -32.6380 C   0  0  0  0  0  0  0  0  0  0  0  0
   -4.2770   20.6360  -33.1810 C   0  0  0  0  0  0  0  0  0  0  0  0
   -2.6710   18.2430  -34.1660 C   0  0  0  0  0  0  0  0  0  0  0  0
   -1.6590   19.2200  -33.7090 C   0  0  0  0  0  0  0  0  0  0  0  0
   -1.0950   19.1170  -32.4270 C   0  0  0  0  0  0  0  0  0  0  0  0
   -0.1450   20.0470  -31.9970 C   0  0  0  0  0  0  0  0  0  0  0  0
    0.2580   21.0810  -32.8460 C   0  0  0  0  0  0  0  0  0  0  0  0
   -0.2880   21.1860  -34.1320 C   0  0  0  0  0  0  0  0  0  0  0  0
    0.1060   22.2110  -34.9890 O   0  0  0  0  0  0  0  0  0  0  0  0
   -1.2400   20.2550  -34.5630 C   0  0  0  0  0  0  0  0  0  0  0  0
   -2.4300   17.0410  -34.7950 C   0  0  0  0  0  0  0  0  0  0  0  0
   -1.2600   16.4710  -35.1760 N   0  0  0  0  0  0  0  0  0  0  0  0
    0.5754   14.3035  -35.3655 H   0  0  0  0  0  0  0  0  0  0  0  0
   -0.2638   13.7177  -36.8417 H   0  0  0  0  0  0  0  0  0  0  0  0
    0.5360   15.3261  -36.8417 H   0  0  0  0  0  0  0  0  0  0  0  0
   -2.5875   13.6154  -36.4709 H   0  0  0  0  0  0  0  0  0  0  0  0
   -5.6540   16.8980  -34.5130 H   0  0  0  0  0  0  0  0  0  0  0  0
   -6.7003   18.2276  -33.3449 H   0  0  0  0  0  0  0  0  0  0  0  0
   -8.0422   20.0802  -32.3570 H   0  0  0  0  0  0  0  0  0  0  0  0
   -7.5626   25.2685  -30.5134 H   0  0  0  0  0  0  0  0  0  0  0  0
   -6.5888   25.1026  -28.9769 H   0  0  0  0  0  0  0  0  0  0  0  0
   -5.7383   25.9168  -31.6828 H   0  0  0  0  0  0  0  0  0  0  0  0
   -4.9699   26.1736  -30.0527 H   0  0  0  0  0  0  0  0  0  0  0  0
   -3.4910   24.9240  -31.2150 H   0  0  0  0  0  0  0  0  0  0  0  0
   -3.3769   22.8529  -30.1146 H   0  0  0  0  0  0  0  0  0  0  0  0
   -4.0333   24.1127  -29.0067 H   0  0  0  0  0  0  0  0  0  0  0  0
   -5.4024   21.7542  -30.2894 H   0  0  0  0  0  0  0  0  0  0  0  0
   -5.5892   22.4901  -28.6288 H   0  0  0  0  0  0  0  0  0  0  0  0
   -4.5622   22.6502  -32.4373 H   0  0  0  0  0  0  0  0  0  0  0  0
   -3.2153   20.7982  -33.4189 H   0  0  0  0  0  0  0  0  0  0  0  0
   -1.4027   18.2999  -31.7579 H   0  0  0  0  0  0  0  0  0  0  0  0
    0.2864   19.9650  -30.9884 H   0  0  0  0  0  0  0  0  0  0  0  0
    1.0045   21.8131  -32.5044 H   0  0  0  0  0  0  0  0  0  0  0  0
   -0.5330   22.6070  -35.6680 H   0  0  0  0  0  0  0  0  0  0  0  0
   -1.6627   20.3336  -35.5755 H   0  0  0  0  0  0  0  0  0  0  0  0
  1  2  1  0
  2  3  2  0
  3  4  1  0
  4  5  2  0
  5  6  1  0
  6  7  1  0
  7  8  1  0
  8  9  2  0
  9 10  1  0
 10 11  2  0
 11 12  1  0
 12 13  2  0
 12 14  2  0
 12 15  1  0
 15 16  1  0
 16 17  1  0
 17 18  1  0
 18 19  1  0
 19 20  1  0
 11 21  1  0
 21 22  2  0
  7 23  2  0
 23 24  1  0
 24 25  2  0
 25 26  1  0
 26 27  2  0
 27 28  1  0
 28 29  1  0
 28 30  2  0
 23 31  1  0
 31 32  2  0
 32  2  1  0
 31  5  1  0
 22  8  1  0
 30 24  1  0
 20 15  1  0
  1 33  1  0
  1 34  1  0
  1 35  1  0
  3 36  1  0
  6 37  1  0
  9 38  1  0
 10 39  1  0
 16 40  1  0
 16 41  1  0
 17 42  1  0
 17 43  1  0
 18 44  1  0
 19 45  1  0
 19 46  1  0
 20 47  1  0
 20 48  1  0
 21 49  1  0
 22 50  1  0
 25 51  1  0
 26 52  1  0
 27 53  1  0
 29 54  1  0
 30 55  1  0
M  END
>  <UniqueID>  (47) 
46

>  <SMILES>  (47) 
Cc1cnc2[nH]c(-c3ccc(S(=O)(=O)N4CCNCC4)cc3)c(-c3cccc(O)c3)c2n1

>  <Energy>  (47) 
113.28135269186518

>  <Genealogy>  (47) 
Cc1cnc2[nH]c(-c3ccc(S(=O)(=O)N4CCNCC4)cc3)c(-c3cccc(O)c3)c2n1 (3D coordinates assigned)
Cc1cnc2[nH]c(-c3ccc(S(=O)(=O)N4CCNCC4)cc3)c(-c3cccc(O)c3)c2n1 (nonaromatic ring conformer: 113.28135269186518 kcal/mol)

>  <smiles>  (47) 
Cc1cnc2[nH]c(-c3ccc(S(=O)(=O)N4CCNCC4)cc3)c(-c3cccc(O)c3)c2n1

>  <score_type>  (47) 
oracle

>  <origin>  (47) 
adgpu

>  <m_score__min__energy>  (47) 
-10.17

>  <m_primary>  (47) 
energy

$$$$
47:0
     RDKit          3D

 59 62  0  0  0  0  0  0  0  0999 V2000
   -3.5570   20.1270  -31.1810 O   0  0  0  0  0  0  0  0  0  0  0  0
   -2.4860   21.1810  -31.1310 S   0  0  0  0  0  0  0  0  0  0  0  0
   -1.3750   20.8060  -32.0730 O   0  0  0  0  0  0  0  0  0  0  0  0
   -3.1440   22.7200  -31.5880 N   0  0  0  0  0  0  0  0  0  0  0  0
   -4.4470   23.1880  -31.1850 C   0  0  0  0  0  0  0  0  0  0  0  0
   -5.5960   22.3890  -31.3490 C   0  0  0  0  0  0  0  0  0  0  0  0
   -6.8580   22.8630  -30.9650 C   0  0  0  0  0  0  0  0  0  0  0  0
   -8.2920   21.8600  -31.1970 S   0  0  0  0  0  0  0  0  0  0  0  0
   -9.1250   21.8910  -29.9460 O   0  0  0  0  0  0  0  0  0  0  0  0
   -9.1160   22.4300  -32.3190 O   0  0  0  0  0  0  0  0  0  0  0  0
   -7.8750   20.2060  -31.5730 N   0  0  0  0  0  0  0  0  0  0  0  0
   -9.0880   19.3870  -31.7100 C   0  0  0  0  0  0  0  0  0  0  0  0
   -8.7030   17.9260  -32.0340 C   0  0  0  0  0  0  0  0  0  0  0  0
   -7.3120   17.7760  -32.2600 O   0  0  0  0  0  0  0  0  0  0  0  0
   -6.8880   18.6800  -33.2610 C   0  0  0  0  0  0  0  0  0  0  0  0
   -7.0780   20.1440  -32.8100 C   0  0  0  0  0  0  0  0  0  0  0  0
   -6.9780   24.1420  -30.4070 C   0  0  0  0  0  0  0  0  0  0  0  0
   -5.8470   24.9430  -30.2430 C   0  0  0  0  0  0  0  0  0  0  0  0
   -4.5870   24.4750  -30.6310 C   0  0  0  0  0  0  0  0  0  0  0  0
   -3.4770   25.2950  -30.4590 O   0  0  0  0  0  0  0  0  0  0  0  0
   -1.8680   21.2870  -29.4860 C   0  0  0  0  0  0  0  0  0  0  0  0
   -2.1980   20.2940  -28.5550 C   0  0  0  0  0  0  0  0  0  0  0  0
   -1.7180   20.3720  -27.2450 C   0  0  0  0  0  0  0  0  0  0  0  0
   -0.9100   21.4430  -26.8580 C   0  0  0  0  0  0  0  0  0  0  0  0
   -0.5770   22.4460  -27.7800 C   0  0  0  0  0  0  0  0  0  0  0  0
    0.4530   23.7940  -27.2910 S   0  0  0  0  0  0  0  0  0  0  0  0
    1.0510   24.4280  -28.5160 O   0  0  0  0  0  0  0  0  0  0  0  0
    1.5780   23.2740  -26.4400 O   0  0  0  0  0  0  0  0  0  0  0  0
   -0.4400   25.0010  -26.3970 N   0  0  0  0  0  0  0  0  0  0  0  0
    0.0640   25.1000  -25.0170 C   0  0  0  0  0  0  0  0  0  0  0  0
   -0.8580   25.9950  -24.1640 C   0  0  0  0  0  0  0  0  0  0  0  0
   -1.7870   26.6890  -24.9730 O   0  0  0  0  0  0  0  0  0  0  0  0
   -2.6510   25.7660  -25.6130 C   0  0  0  0  0  0  0  0  0  0  0  0
   -1.8740   24.6830  -26.3920 C   0  0  0  0  0  0  0  0  0  0  0  0
   -1.0640   22.3670  -29.0930 C   0  0  0  0  0  0  0  0  0  0  0  0
   -2.5210   23.3490  -32.1420 H   0  0  0  0  0  0  0  0  0  0  0  0
   -5.5016   21.3826  -31.7830 H   0  0  0  0  0  0  0  0  0  0  0  0
   -9.6548   19.4143  -30.7676 H   0  0  0  0  0  0  0  0  0  0  0  0
   -9.7053   19.7883  -32.5272 H   0  0  0  0  0  0  0  0  0  0  0  0
   -8.9953   17.2868  -31.1879 H   0  0  0  0  0  0  0  0  0  0  0  0
   -9.2280   17.6352  -32.9559 H   0  0  0  0  0  0  0  0  0  0  0  0
   -5.8229   18.5057  -33.4736 H   0  0  0  0  0  0  0  0  0  0  0  0
   -7.4967   18.5119  -34.1617 H   0  0  0  0  0  0  0  0  0  0  0  0
   -6.0923   20.5971  -32.6281 H   0  0  0  0  0  0  0  0  0  0  0  0
   -7.6088   20.6930  -33.6018 H   0  0  0  0  0  0  0  0  0  0  0  0
   -7.9652   24.5157  -30.0975 H   0  0  0  0  0  0  0  0  0  0  0  0
   -5.9468   25.9477  -29.8063 H   0  0  0  0  0  0  0  0  0  0  0  0
   -2.8367   19.4505  -28.8559 H   0  0  0  0  0  0  0  0  0  0  0  0
   -1.9770   19.5886  -26.5176 H   0  0  0  0  0  0  0  0  0  0  0  0
   -0.5332   21.5003  -25.8261 H   0  0  0  0  0  0  0  0  0  0  0  0
    0.1024   24.0942  -24.5734 H   0  0  0  0  0  0  0  0  0  0  0  0
    1.0694   25.5458  -25.0383 H   0  0  0  0  0  0  0  0  0  0  0  0
   -1.4060   25.3658  -23.4472 H   0  0  0  0  0  0  0  0  0  0  0  0
   -0.2362   26.7328  -23.6358 H   0  0  0  0  0  0  0  0  0  0  0  0
   -3.2732   25.2756  -24.8499 H   0  0  0  0  0  0  0  0  0  0  0  0
   -3.2667   26.3239  -26.3338 H   0  0  0  0  0  0  0  0  0  0  0  0
   -2.0290   23.7061  -25.9108 H   0  0  0  0  0  0  0  0  0  0  0  0
   -2.2407   24.6500  -27.4286 H   0  0  0  0  0  0  0  0  0  0  0  0
   -0.8142   23.1558  -29.8179 H   0  0  0  0  0  0  0  0  0  0  0  0
  1  2  2  0
  2  3  2  0
  2  4  1  0
  4  5  1  0
  5  6  2  0
  6  7  1  0
  7  8  1  0
  8  9  2  0
  8 10  2  0
  8 11  1  0
 11 12  1  0
 12 13  1  0
 13 14  1  0
 14 15  1  0
 15 16  1  0
  7 17  2  0
 17 18  1  0
 18 19  2  0
 19 20  1  0
  2 21  1  0
 21 22  2  0
 22 23  1  0
 23 24  2  0
 24 25  1  0
 25 26  1  0
 26 27  2  0
 26 28  2  0
 26 29  1  0
 29 30  1  0
 30 31  1  0
 31 32  1  0
 32 33  1  0
 33 34  1  0
 25 35  2  0
 19  5  1  0
 35 21  1  0
 16 11  1  0
 34 29  1  0
  4 36  1  0
  6 37  1  0
 12 38  1  0
 12 39  1  0
 13 40  1  0
 13 41  1  0
 15 42  1  0
 15 43  1  0
 16 44  1  0
 16 45  1  0
 17 46  1  0
 18 47  1  0
 22 48  1  0
 23 49  1  0
 24 50  1  0
 30 51  1  0
 30 52  1  0
 31 53  1  0
 31 54  1  0
 33 55  1  0
 33 56  1  0
 34 57  1  0
 34 58  1  0
 35 59  1  0
M  CHG  1  20  -1
M  END
>  <UniqueID>  (48) 
47

>  <SMILES>  (48) 
O=S(=O)(Nc1cc(S(=O)(=O)N2CCOCC2)ccc1[O-])c1cccc(S(=O)(=O)N2CCOCC2)c1

>  <Energy>  (48) 
79.4409852959462

>  <Genealogy>  (48) 
O=S(=O)(Nc1cc(S(=O)(=O)N2CCOCC2)ccc1[O-])c1cccc(S(=O)(=O)N2CCOCC2)c1 (protonated)
O=S(=O)(Nc1cc(S(=O)(=O)N2CCOCC2)ccc1[O-])c1cccc(S(=O)(=O)N2CCOCC2)c1 (3D coordinates assigned)
O=S(=O)(Nc1cc(S(=O)(=O)N2CCOCC2)ccc1[O-])c1cccc(S(=O)(=O)N2CCOCC2)c1 (nonaromatic ring conformer: 79.4409852959462 kcal/mol)

>  <smiles>  (48) 
O=S(=O)(Nc1cc(S(=O)(=O)N2CCOCC2)ccc1O)c1cccc(S(=O)(=O)N2CCOCC2)c1

>  <score_type>  (48) 
oracle

>  <origin>  (48) 
adgpu

>  <m_score__min__energy>  (48) 
-14.24

>  <m_primary>  (48) 
energy

$$$$
48:0
     RDKit          3D

 45 47  0  0  0  0  0  0  0  0999 V2000
   -5.9760   24.7680  -29.9940 O   0  0  0  0  0  0  0  0  0  0  0  0
   -4.9820   24.5730  -30.7410 C   0  0  0  0  0  0  0  0  0  0  0  0
   -3.6960   25.1040  -30.3950 N   0  0  0  0  0  0  0  0  0  0  0  0
   -2.6470   24.3850  -29.7330 C   0  0  0  0  0  0  0  0  0  0  0  0
   -2.7040   22.9850  -29.7180 C   0  0  0  0  0  0  0  0  0  0  0  0
   -1.7000   22.2370  -29.0890 C   0  0  0  0  0  0  0  0  0  0  0  0
   -1.7750   20.4780  -29.1070 S   0  0  0  0  0  0  0  0  0  0  0  0
   -3.1230   20.0490  -28.5990 O   0  0  0  0  0  0  0  0  0  0  0  0
   -0.7050   19.9120  -28.2120 O   0  0  0  0  0  0  0  0  0  0  0  0
   -1.5410   19.8960  -30.7370 N   0  0  0  0  0  0  0  0  0  0  0  0
   -2.7240   20.2020  -31.5570 C   0  0  0  0  0  0  0  0  0  0  0  0
   -2.6280   19.4890  -32.9200 C   0  0  0  0  0  0  0  0  0  0  0  0
   -1.1750   19.1870  -33.3230 C   0  0  0  0  0  0  0  0  0  0  0  0
   -0.2290   20.2930  -32.8450 C   0  0  0  0  0  0  0  0  0  0  0  0
   -0.3250   20.5050  -31.3170 C   0  0  0  0  0  0  0  0  0  0  0  0
   -0.6490   22.8970  -28.4410 C   0  0  0  0  0  0  0  0  0  0  0  0
   -0.6030   24.2930  -28.4180 C   0  0  0  0  0  0  0  0  0  0  0  0
   -1.6040   25.0400  -29.0490 C   0  0  0  0  0  0  0  0  0  0  0  0
   -1.5700   26.4270  -28.9570 O   0  0  0  0  0  0  0  0  0  0  0  0
   -5.1540   23.8390  -31.9560 N   0  0  0  0  0  0  0  0  0  0  0  0
   -5.9730   22.6690  -32.0750 C   0  0  0  0  0  0  0  0  0  0  0  0
   -5.3780   21.4780  -32.5110 C   0  0  0  0  0  0  0  0  0  0  0  0
   -6.1470   20.3240  -32.6810 C   0  0  0  0  0  0  0  0  0  0  0  0
   -7.5160   20.3480  -32.4070 C   0  0  0  0  0  0  0  0  0  0  0  0
   -8.1130   21.5220  -31.9410 C   0  0  0  0  0  0  0  0  0  0  0  0
   -7.3500   22.6790  -31.7490 C   0  0  0  0  0  0  0  0  0  0  0  0
   -7.9750   23.8030  -31.2060 O   0  0  0  0  0  0  0  0  0  0  0  0
   -3.5446   22.4685  -30.2045 H   0  0  0  0  0  0  0  0  0  0  0  0
   -3.6281   19.8606  -31.0316 H   0  0  0  0  0  0  0  0  0  0  0  0
   -2.7730   21.2882  -31.7237 H   0  0  0  0  0  0  0  0  0  0  0  0
   -3.1829   18.5410  -32.8625 H   0  0  0  0  0  0  0  0  0  0  0  0
   -3.0541   20.1602  -33.6802 H   0  0  0  0  0  0  0  0  0  0  0  0
   -0.8681   18.2319  -32.8718 H   0  0  0  0  0  0  0  0  0  0  0  0
   -1.1211   19.1312  -34.4203 H   0  0  0  0  0  0  0  0  0  0  0  0
    0.8037   20.0149  -33.1023 H   0  0  0  0  0  0  0  0  0  0  0  0
   -0.5192   21.2311  -33.3407 H   0  0  0  0  0  0  0  0  0  0  0  0
    0.5576   20.0521  -30.8417 H   0  0  0  0  0  0  0  0  0  0  0  0
   -0.3724   21.5883  -31.1318 H   0  0  0  0  0  0  0  0  0  0  0  0
    0.1433   22.3143  -27.9483 H   0  0  0  0  0  0  0  0  0  0  0  0
    0.2221   24.8063  -27.9026 H   0  0  0  0  0  0  0  0  0  0  0  0
   -4.2985   21.4512  -32.7208 H   0  0  0  0  0  0  0  0  0  0  0  0
   -5.6733   19.3951  -33.0312 H   0  0  0  0  0  0  0  0  0  0  0  0
   -8.1237   19.4436  -32.5579 H   0  0  0  0  0  0  0  0  0  0  0  0
   -9.1912   21.5369  -31.7234 H   0  0  0  0  0  0  0  0  0  0  0  0
   -7.4600   24.5770  -30.8050 H   0  0  0  0  0  0  0  0  0  0  0  0
  1  2  2  0
  2  3  1  0
  3  4  1  0
  4  5  2  0
  5  6  1  0
  6  7  1  0
  7  8  2  0
  7  9  2  0
  7 10  1  0
 10 11  1  0
 11 12  1  0
 12 13  1  0
 13 14  1  0
 14 15  1  0
  6 16  2  0
 16 17  1  0
 17 18  2  0
 18 19  1  0
  2 20  1  0
 20 21  1  0
 21 22  2  0
 22 23  1  0
 23 24  2  0
 24 25  1  0
 25 26  2  0
 26 27  1  0
 18  4  1  0
 26 21  1  0
 15 10  1  0
  5 28  1  0
 11 29  1  0
 11 30  1  0
 12 31  1  0
 12 32  1  0
 13 33  1  0
 13 34  1  0
 14 35  1  0
 14 36  1  0
 15 37  1  0
 15 38  1  0
 16 39  1  0
 17 40  1  0
 22 41  1  0
 23 42  1  0
 24 43  1  0
 25 44  1  0
 27 45  1  0
M  CHG  3   3  -1  19  -1  20  -1
M  END
>  <UniqueID>  (49) 
48

>  <SMILES>  (49) 
O=C([N-]c1cc(S(=O)(=O)N2CCCCC2)ccc1[O-])[N-]c1ccccc1O

>  <Energy>  (49) 
60.77492752264949

>  <Genealogy>  (49) 
O=C([N-]c1cc(S(=O)(=O)N2CCCCC2)ccc1[O-])[N-]c1ccccc1O (protonated)
O=C([N-]c1cc(S(=O)(=O)N2CCCCC2)ccc1[O-])[N-]c1ccccc1O (3D coordinates assigned)
O=C([N-]c1cc(S(=O)(=O)N2CCCCC2)ccc1[O-])[N-]c1ccccc1O (nonaromatic ring conformer: 60.77492752264949 kcal/mol)

>  <smiles>  (49) 
O=C(Nc1ccccc1O)Nc1cc(S(=O)(=O)N2CCCCC2)ccc1O

>  <score_type>  (49) 
oracle

>  <origin>  (49) 
adgpu

>  <m_score__min__energy>  (49) 
-13.67

>  <m_primary>  (49) 
energy

$$$$
49:0
     RDKit          3D

 60 63  0  0  0  0  0  0  0  0999 V2000
   -2.3380   23.3530  -30.8340 O   0  0  0  0  0  0  0  0  0  0  0  0
   -2.8770   23.0820  -29.7260 C   0  0  0  0  0  0  0  0  0  0  0  0
   -4.1590   22.4380  -29.6890 N   0  0  0  0  0  0  0  0  0  0  0  0
   -5.2890   22.7410  -30.5210 C   0  0  0  0  0  0  0  0  0  0  0  0
   -6.2680   21.7700  -30.8030 C   0  0  0  0  0  0  0  0  0  0  0  0
   -7.3690   22.0830  -31.6110 C   0  0  0  0  0  0  0  0  0  0  0  0
   -8.6220   20.8750  -31.9110 S   0  0  0  0  0  0  0  0  0  0  0  0
   -9.8340   21.5500  -32.4900 O   0  0  0  0  0  0  0  0  0  0  0  0
   -9.0210   20.2400  -30.6070 O   0  0  0  0  0  0  0  0  0  0  0  0
   -8.0640   19.6380  -33.0140 N   0  0  0  0  0  0  0  0  0  0  0  0
   -7.9680   18.3350  -32.3190 C   0  0  0  0  0  0  0  0  0  0  0  0
   -7.1050   17.3430  -33.1050 C   0  0  0  0  0  0  0  0  0  0  0  0
   -5.6610   17.8550  -33.2450 C   0  0  0  0  0  0  0  0  0  0  0  0
   -5.5620   19.3890  -33.1710 C   0  0  0  0  0  0  0  0  0  0  0  0
   -6.8300   20.0540  -33.7260 C   0  0  0  0  0  0  0  0  0  0  0  0
   -7.4740   23.3620  -32.1710 C   0  0  0  0  0  0  0  0  0  0  0  0
   -6.4880   24.3190  -31.9270 C   0  0  0  0  0  0  0  0  0  0  0  0
   -5.3950   24.0170  -31.1070 C   0  0  0  0  0  0  0  0  0  0  0  0
   -4.4320   25.0020  -30.8830 O   0  0  0  0  0  0  0  0  0  0  0  0
   -2.1610   23.3820  -28.4640 C   0  0  0  0  0  0  0  0  0  0  0  0
   -1.1720   22.5080  -27.9760 C   0  0  0  0  0  0  0  0  0  0  0  0
   -0.4950   22.7960  -26.7870 C   0  0  0  0  0  0  0  0  0  0  0  0
   -0.7960   23.9580  -26.0670 C   0  0  0  0  0  0  0  0  0  0  0  0
    0.0510   24.2900  -24.5570 S   0  0  0  0  0  0  0  0  0  0  0  0
   -0.7760   25.2570  -23.7570 O   0  0  0  0  0  0  0  0  0  0  0  0
    0.1990   23.0210  -23.7620 O   0  0  0  0  0  0  0  0  0  0  0  0
    1.6210   24.9990  -24.8770 N   0  0  0  0  0  0  0  0  0  0  0  0
    1.5250   26.4420  -25.1620 C   0  0  0  0  0  0  0  0  0  0  0  0
    0.9450   26.7270  -26.5680 C   0  0  0  0  0  0  0  0  0  0  0  0
    1.0100   25.6150  -27.4460 O   0  0  0  0  0  0  0  0  0  0  0  0
    2.2500   24.9590  -27.3120 C   0  0  0  0  0  0  0  0  0  0  0  0
    2.3460   24.2670  -25.9400 C   0  0  0  0  0  0  0  0  0  0  0  0
   -1.7830   24.8300  -26.5420 C   0  0  0  0  0  0  0  0  0  0  0  0
   -2.4590   24.5470  -27.7330 C   0  0  0  0  0  0  0  0  0  0  0  0
   -6.1680   20.7572  -30.3857 H   0  0  0  0  0  0  0  0  0  0  0  0
   -7.5197   18.4911  -31.3267 H   0  0  0  0  0  0  0  0  0  0  0  0
   -8.9810   17.9159  -32.2288 H   0  0  0  0  0  0  0  0  0  0  0  0
   -7.0945   16.3784  -32.5763 H   0  0  0  0  0  0  0  0  0  0  0  0
   -7.5339   17.2276  -34.1113 H   0  0  0  0  0  0  0  0  0  0  0  0
   -5.0553   17.4243  -32.4341 H   0  0  0  0  0  0  0  0  0  0  0  0
   -5.2952   17.5471  -34.2356 H   0  0  0  0  0  0  0  0  0  0  0  0
   -5.4290   19.6899  -32.1213 H   0  0  0  0  0  0  0  0  0  0  0  0
   -4.7041   19.7127  -33.7786 H   0  0  0  0  0  0  0  0  0  0  0  0
   -6.7228   21.1448  -33.6329 H   0  0  0  0  0  0  0  0  0  0  0  0
   -6.9339   19.7387  -34.7747 H   0  0  0  0  0  0  0  0  0  0  0  0
   -8.3367   23.6134  -32.8055 H   0  0  0  0  0  0  0  0  0  0  0  0
   -6.5705   25.3170  -32.3821 H   0  0  0  0  0  0  0  0  0  0  0  0
   -3.4850   24.9230  -31.2310 H   0  0  0  0  0  0  0  0  0  0  0  0
   -0.9297   21.5915  -28.5340 H   0  0  0  0  0  0  0  0  0  0  0  0
    0.2775   22.1064  -26.4158 H   0  0  0  0  0  0  0  0  0  0  0  0
    0.8724   26.9083  -24.4092 H   0  0  0  0  0  0  0  0  0  0  0  0
    2.5420   26.8597  -25.1272 H   0  0  0  0  0  0  0  0  0  0  0  0
   -0.1092   27.0204  -26.4562 H   0  0  0  0  0  0  0  0  0  0  0  0
    1.5570   27.5253  -27.0132 H   0  0  0  0  0  0  0  0  0  0  0  0
    2.3484   24.2043  -28.1062 H   0  0  0  0  0  0  0  0  0  0  0  0
    3.0572   25.7018  -27.3941 H   0  0  0  0  0  0  0  0  0  0  0  0
    1.9191   23.2568  -26.0251 H   0  0  0  0  0  0  0  0  0  0  0  0
    3.4086   24.2381  -25.6570 H   0  0  0  0  0  0  0  0  0  0  0  0
   -2.0276   25.7411  -25.9763 H   0  0  0  0  0  0  0  0  0  0  0  0
   -3.2295   25.2403  -28.1013 H   0  0  0  0  0  0  0  0  0  0  0  0
  1  2  2  0
  2  3  1  0
  3  4  1  0
  4  5  2  0
  5  6  1  0
  6  7  1  0
  7  8  2  0
  7  9  2  0
  7 10  1  0
 10 11  1  0
 11 12  1  0
 12 13  1  0
 13 14  1  0
 14 15  1  0
  6 16  2  0
 16 17  1  0
 17 18  2  0
 18 19  1  0
  2 20  1  0
 20 21  2  0
 21 22  1  0
 22 23  2  0
 23 24  1  0
 24 25  2  0
 24 26  2  0
 24 27  1  0
 27 28  1  0
 28 29  1  0
 29 30  1  0
 30 31  1  0
 31 32  1  0
 23 33  1  0
 33 34  2  0
 18  4  1  0
 34 20  1  0
 15 10  1  0
 32 27  1  0
  5 35  1  0
 11 36  1  0
 11 37  1  0
 12 38  1  0
 12 39  1  0
 13 40  1  0
 13 41  1  0
 14 42  1  0
 14 43  1  0
 15 44  1  0
 15 45  1  0
 16 46  1  0
 17 47  1  0
 19 48  1  0
 21 49  1  0
 22 50  1  0
 28 51  1  0
 28 52  1  0
 29 53  1  0
 29 54  1  0
 31 55  1  0
 31 56  1  0
 32 57  1  0
 32 58  1  0
 33 59  1  0
 34 60  1  0
M  CHG  1   3  -1
M  END
>  <UniqueID>  (50) 
49

>  <SMILES>  (50) 
O=C([N-]c1cc(S(=O)(=O)N2CCCCC2)ccc1O)c1ccc(S(=O)(=O)N2CCOCC2)cc1

>  <Energy>  (50) 
81.70670623397096

>  <Genealogy>  (50) 
O=C([N-]c1cc(S(=O)(=O)N2CCCCC2)ccc1O)c1ccc(S(=O)(=O)N2CCOCC2)cc1 (protonated)
O=C([N-]c1cc(S(=O)(=O)N2CCCCC2)ccc1O)c1ccc(S(=O)(=O)N2CCOCC2)cc1 (3D coordinates assigned)
O=C([N-]c1cc(S(=O)(=O)N2CCCCC2)ccc1O)c1ccc(S(=O)(=O)N2CCOCC2)cc1 (nonaromatic ring conformer: 81.70670623397096 kcal/mol)

>  <smiles>  (50) 
O=C(Nc1cc(S(=O)(=O)N2CCCCC2)ccc1O)c1ccc(S(=O)(=O)N2CCOCC2)cc1

>  <score_type>  (50) 
oracle

>  <origin>  (50) 
adgpu

>  <m_score__min__energy>  (50) 
-12.6

>  <m_primary>  (50) 
energy

$$$$
