0:0
     RDKit          3D

 31 32  0  0  0  0  0  0  0  0999 V2000
   -7.2594   19.5407  -32.9384 H   0  0  0  0  0  0  0  0  0  0  0  0
   -6.1640   19.5930  -33.0240 C   0  0  0  0  0  0  0  0  0  0  0  0
   -5.5380   20.6610  -32.6250 N   0  0  0  0  0  0  0  0  0  0  0  0
   -6.1320   21.8370  -32.0480 C   0  0  0  0  0  0  0  0  0  0  0  0
   -7.5200   21.9640  -31.8350 C   0  0  0  0  0  0  0  0  0  0  0  0
   -8.1984   21.1521  -32.1360 H   0  0  0  0  0  0  0  0  0  0  0  0
   -8.0350   23.1200  -31.2420 C   0  0  0  0  0  0  0  0  0  0  0  0
   -9.1183   23.2144  -31.0762 H   0  0  0  0  0  0  0  0  0  0  0  0
   -7.1800   24.1560  -30.8590 C   0  0  0  0  0  0  0  0  0  0  0  0
   -7.5922   25.0603  -30.3875 H   0  0  0  0  0  0  0  0  0  0  0  0
   -5.7990   24.0480  -31.0730 C   0  0  0  0  0  0  0  0  0  0  0  0
   -4.9030   25.1400  -30.6430 C   0  0  0  0  0  0  0  0  0  0  0  0
   -5.3850   26.2870  -30.4530 O   0  0  0  0  0  0  0  0  0  0  0  0
   -3.4920   24.9480  -30.4720 N   0  0  0  0  0  0  0  0  0  0  0  0
   -2.8560   24.5110  -29.2360 C   0  0  0  0  0  0  0  0  0  0  0  0
   -3.4210   24.8992  -28.3757 H   0  0  0  0  0  0  0  0  0  0  0  0
   -2.8421   23.4117  -29.1996 H   0  0  0  0  0  0  0  0  0  0  0  0
   -1.8248   24.8922  -29.1996 H   0  0  0  0  0  0  0  0  0  0  0  0
   -5.2820   22.8750  -31.6460 C   0  0  0  0  0  0  0  0  0  0  0  0
   -4.1954   22.7700  -31.7809 H   0  0  0  0  0  0  0  0  0  0  0  0
   -5.4200   18.4490  -33.5910 C   0  0  0  0  0  0  0  0  0  0  0  0
   -4.1020   18.6370  -34.0410 C   0  0  0  0  0  0  0  0  0  0  0  0
   -3.6358   19.6306  -33.9678 H   0  0  0  0  0  0  0  0  0  0  0  0
   -3.3800   17.5690  -34.5810 C   0  0  0  0  0  0  0  0  0  0  0  0
   -2.3488   17.7245  -34.9310 H   0  0  0  0  0  0  0  0  0  0  0  0
   -3.9660   16.3040  -34.6770 C   0  0  0  0  0  0  0  0  0  0  0  0
   -3.3966   15.4646  -35.1028 H   0  0  0  0  0  0  0  0  0  0  0  0
   -5.2750   16.1060  -34.2320 C   0  0  0  0  0  0  0  0  0  0  0  0
   -5.7354   15.1098  -34.3070 H   0  0  0  0  0  0  0  0  0  0  0  0
   -6.0020   17.1720  -33.6910 C   0  0  0  0  0  0  0  0  0  0  0  0
   -7.0328   17.0110  -33.3424 H   0  0  0  0  0  0  0  0  0  0  0  0
  1  2  1  0
  2  3  2  0
  3  4  1  0
  4  5  2  0
  5  6  1  0
  5  7  1  0
  7  8  1  0
  7  9  2  0
  9 10  1  0
  9 11  1  0
 11 12  1  0
 12 13  2  0
 12 14  1  0
 14 15  1  0
 15 16  1  0
 15 17  1  0
 15 18  1  0
 11 19  2  0
 19 20  1  0
  2 21  1  0
 21 22  2  0
 22 23  1  0
 22 24  1  0
 24 25  1  0
 24 26  2  0
 26 27  1  0
 26 28  1  0
 28 29  1  0
 28 30  2  0
 30 31  1  0
 19  4  1  0
 30 21  1  0
M  CHG  1  14  -1
M  END
>  <UniqueID>  (1) 
1

>  <SMILES>  (1) 
C[N-]C(=O)c1cccc(/N=C/c2ccccc2)c1

>  <Energy>  (1) 
37.857107927693455

>  <Genealogy>  (1) 
C[N-]C(=O)c1cccc(N=Cc2ccccc2)c1 (protonated)
C[N-]C(=O)c1cccc(/N=C/c2ccccc2)c1 (cis-trans isomerization)
C[N-]C(=O)c1cccc(/N=C/c2ccccc2)c1 (3D coordinates assigned)
C[N-]C(=O)c1cccc(/N=C/c2ccccc2)c1 (optimized conformer: 37.857107927693455 kcal/mol)

>  <smiles>  (1) 
CNC(=O)c1cccc(N=Cc2ccccc2)c1

>  <score_type>  (1) 
oracle

>  <origin>  (1) 
adgpu

>  <m_score__min__energy>  (1) 
-8.7100000000000009

>  <m_primary>  (1) 
energy

$$$$
1:0
     RDKit          3D

 61 65  0  0  0  0  0  0  0  0999 V2000
   -0.7260   24.3200  -27.7360 C   0  0  0  0  0  0  0  0  0  0  0  0
   -2.0060   24.3320  -28.5020 C   0  0  0  0  0  0  0  0  0  0  0  0
   -2.9830   23.3590  -28.4720 C   0  0  0  0  0  0  0  0  0  0  0  0
   -3.9160   23.8410  -29.3600 C   0  0  0  0  0  0  0  0  0  0  0  0
   -5.0330   23.2480  -29.6520 N   0  0  0  0  0  0  0  0  0  0  0  0
   -6.1780   23.8960  -30.7790 S   0  0  0  0  0  0  0  0  0  0  0  0
   -5.4430   24.5410  -31.9200 O   0  0  0  0  0  0  0  0  0  0  0  0
   -7.0130   24.9390  -30.0910 O   0  0  0  0  0  0  0  0  0  0  0  0
   -7.1880   22.5990  -31.4120 C   0  0  0  0  0  0  0  0  0  0  0  0
   -8.5720   22.6430  -31.2160 C   0  0  0  0  0  0  0  0  0  0  0  0
   -9.3870   21.6370  -31.7370 C   0  0  0  0  0  0  0  0  0  0  0  0
   -8.8220   20.5760  -32.4510 C   0  0  0  0  0  0  0  0  0  0  0  0
   -7.4340   20.5050  -32.6380 C   0  0  0  0  0  0  0  0  0  0  0  0
   -6.8780   19.4170  -33.3950 N   0  0  0  0  0  0  0  0  0  0  0  0
   -6.3890   18.2010  -32.8030 C   0  0  0  0  0  0  0  0  0  0  0  0
   -6.8090   17.8470  -31.6680 O   0  0  0  0  0  0  0  0  0  0  0  0
   -5.4340   17.3350  -33.5310 C   0  0  0  0  0  0  0  0  0  0  0  0
   -4.7340   17.8320  -34.6460 C   0  0  0  0  0  0  0  0  0  0  0  0
   -3.8240   17.0220  -35.3300 C   0  0  0  0  0  0  0  0  0  0  0  0
   -3.5940   15.7050  -34.9130 C   0  0  0  0  0  0  0  0  0  0  0  0
   -2.3810   14.7140  -35.7340 S   0  0  0  0  0  0  0  0  0  0  0  0
   -2.3520   15.1140  -37.1820 O   0  0  0  0  0  0  0  0  0  0  0  0
   -2.7950   13.2690  -35.6660 O   0  0  0  0  0  0  0  0  0  0  0  0
   -0.7640   14.9100  -35.0730 N   0  0  0  0  0  0  0  0  0  0  0  0
   -0.6700   14.6130  -33.6330 C   0  0  0  0  0  0  0  0  0  0  0  0
   -1.3910   15.6520  -32.7620 C   0  0  0  0  0  0  0  0  0  0  0  0
   -1.2220   17.0630  -33.2630 C   0  0  0  0  0  0  0  0  0  0  0  0
   -1.7080   18.1260  -32.4840 C   0  0  0  0  0  0  0  0  0  0  0  0
   -1.6310   19.4390  -32.9520 C   0  0  0  0  0  0  0  0  0  0  0  0
   -1.0700   19.7040  -34.2020 C   0  0  0  0  0  0  0  0  0  0  0  0
   -0.5880   18.6570  -34.9890 C   0  0  0  0  0  0  0  0  0  0  0  0
   -0.6790   17.3300  -34.5380 C   0  0  0  0  0  0  0  0  0  0  0  0
   -0.1590   16.2110  -35.4060 C   0  0  0  0  0  0  0  0  0  0  0  0
   -4.3260   15.1890  -33.8330 C   0  0  0  0  0  0  0  0  0  0  0  0
   -5.2310   15.9990  -33.1420 C   0  0  0  0  0  0  0  0  0  0  0  0
   -6.6210   21.5340  -32.1290 C   0  0  0  0  0  0  0  0  0  0  0  0
   -3.5160   25.0160  -29.8850 N   0  0  0  0  0  0  0  0  0  0  0  0
   -2.3610   25.2780  -29.3460 O   0  0  0  0  0  0  0  0  0  0  0  0
   -0.9439   24.3220  -26.6578 H   0  0  0  0  0  0  0  0  0  0  0  0
   -0.1535   23.4164  -27.9927 H   0  0  0  0  0  0  0  0  0  0  0  0
   -0.1367   25.2127  -27.9927 H   0  0  0  0  0  0  0  0  0  0  0  0
   -3.0094   22.4294  -27.8844 H   0  0  0  0  0  0  0  0  0  0  0  0
   -9.0195   23.4730  -30.6495 H   0  0  0  0  0  0  0  0  0  0  0  0
  -10.4757   21.6789  -31.5856 H   0  0  0  0  0  0  0  0  0  0  0  0
   -9.4705   19.7918  -32.8688 H   0  0  0  0  0  0  0  0  0  0  0  0
   -6.9250   19.4690  -34.4380 H   0  0  0  0  0  0  0  0  0  0  0  0
   -4.9045   18.8656  -34.9815 H   0  0  0  0  0  0  0  0  0  0  0  0
   -3.2847   17.4213  -36.2017 H   0  0  0  0  0  0  0  0  0  0  0  0
   -1.1197   13.6264  -33.4477 H   0  0  0  0  0  0  0  0  0  0  0  0
    0.3953   14.6342  -33.3597 H   0  0  0  0  0  0  0  0  0  0  0  0
   -2.4644   15.4120  -32.7471 H   0  0  0  0  0  0  0  0  0  0  0  0
   -0.9444   15.6048  -31.7579 H   0  0  0  0  0  0  0  0  0  0  0  0
   -2.1523   17.9225  -31.4985 H   0  0  0  0  0  0  0  0  0  0  0  0
   -2.0129   20.2656  -32.3348 H   0  0  0  0  0  0  0  0  0  0  0  0
   -1.0076   20.7396  -34.5676 H   0  0  0  0  0  0  0  0  0  0  0  0
   -0.1344   18.8723  -35.9677 H   0  0  0  0  0  0  0  0  0  0  0  0
   -0.3842   16.4460  -36.4567 H   0  0  0  0  0  0  0  0  0  0  0  0
    0.9242   16.1297  -35.2325 H   0  0  0  0  0  0  0  0  0  0  0  0
   -4.1867   14.1412  -33.5286 H   0  0  0  0  0  0  0  0  0  0  0  0
   -5.7888   15.5885  -32.2874 H   0  0  0  0  0  0  0  0  0  0  0  0
   -5.5339   21.5037  -32.2940 H   0  0  0  0  0  0  0  0  0  0  0  0
  1  2  1  0
  2  3  2  0
  3  4  1  0
  4  5  2  3
  5  6  1  0
  6  7  2  0
  6  8  2  0
  6  9  1  0
  9 10  2  0
 10 11  1  0
 11 12  2  0
 12 13  1  0
 13 14  1  0
 14 15  1  0
 15 16  2  0
 15 17  1  0
 17 18  2  0
 18 19  1  0
 19 20  2  0
 20 21  1  0
 21 22  2  0
 21 23  2  0
 21 24  1  0
 24 25  1  0
 25 26  1  0
 26 27  1  0
 27 28  2  0
 28 29  1  0
 29 30  2  0
 30 31  1  0
 31 32  2  0
 32 33  1  0
 20 34  1  0
 34 35  2  0
 13 36  2  0
  4 37  1  0
 37 38  1  0
 38  2  1  0
 36  9  1  0
 35 17  1  0
 33 24  1  0
 32 27  1  0
  1 39  1  0
  1 40  1  0
  1 41  1  0
  3 42  1  0
 10 43  1  0
 11 44  1  0
 12 45  1  0
 14 46  1  0
 18 47  1  0
 19 48  1  0
 25 49  1  0
 25 50  1  0
 26 51  1  0
 26 52  1  0
 28 53  1  0
 29 54  1  0
 30 55  1  0
 31 56  1  0
 33 57  1  0
 33 58  1  0
 34 59  1  0
 35 60  1  0
 36 61  1  0
M  CHG  1  37  -1
M  END
>  <UniqueID>  (2) 
2

>  <SMILES>  (2) 
Cc1cc(=NS(=O)(=O)c2cccc(NC(=O)c3ccc(S(=O)(=O)N4CCc5ccccc5C4)cc3)c2)[n-]o1

>  <Energy>  (2) 
107.69945712209324

>  <Genealogy>  (2) 
Cc1cc(=NS(=O)(=O)c2cccc(NC(=O)c3ccc(S(=O)(=O)N4CCc5ccccc5C4)cc3)c2)[n-]o1 (protonated)
Cc1cc(=NS(=O)(=O)c2cccc(NC(=O)c3ccc(S(=O)(=O)N4CCc5ccccc5C4)cc3)c2)[n-]o1 (3D coordinates assigned)
Cc1cc(=NS(=O)(=O)c2cccc(NC(=O)c3ccc(S(=O)(=O)N4CCc5ccccc5C4)cc3)c2)[n-]o1 (nonaromatic ring conformer: 107.69945712209324 kcal/mol)

>  <smiles>  (2) 
Cc1cc(=NS(=O)(=O)c2cccc(NC(=O)c3ccc(S(=O)(=O)N4CCc5ccccc5C4)cc3)c2)[nH]o1

>  <score_type>  (2) 
oracle

>  <origin>  (2) 
adgpu

>  <m_score__min__energy>  (2) 
-12.35

>  <m_primary>  (2) 
energy

$$$$
2:0
     RDKit          3D

 50 53  0  0  0  0  0  0  0  0999 V2000
   -2.6441   13.5994  -34.3263 H   0  0  0  0  0  0  0  0  0  0  0  0
   -2.5590   14.6960  -34.3420 C   0  0  0  0  0  0  0  0  0  0  0  0
   -1.6240   15.3360  -33.5230 C   0  0  0  0  0  0  0  0  0  0  0  0
   -0.9691   14.7424  -32.8682 H   0  0  0  0  0  0  0  0  0  0  0  0
   -1.5210   16.7310  -33.5360 C   0  0  0  0  0  0  0  0  0  0  0  0
   -0.7774   17.2305  -32.8976 H   0  0  0  0  0  0  0  0  0  0  0  0
   -2.3600   17.4960  -34.3580 C   0  0  0  0  0  0  0  0  0  0  0  0
   -2.2160   18.8910  -34.3550 O   0  0  0  0  0  0  0  0  0  0  0  0
   -3.0670   19.7950  -33.7020 C   0  0  0  0  0  0  0  0  0  0  0  0
   -2.6550   21.0940  -33.3710 C   0  0  0  0  0  0  0  0  0  0  0  0
   -1.6318   21.4209  -33.6082 H   0  0  0  0  0  0  0  0  0  0  0  0
   -3.5370   21.9740  -32.7420 C   0  0  0  0  0  0  0  0  0  0  0  0
   -3.1989   22.9871  -32.4785 H   0  0  0  0  0  0  0  0  0  0  0  0
   -4.8500   21.5810  -32.4420 C   0  0  0  0  0  0  0  0  0  0  0  0
   -5.9430   22.7560  -31.6910 S   0  0  0  0  0  0  0  0  0  0  0  0
   -6.9520   23.1820  -32.7180 O   0  0  0  0  0  0  0  0  0  0  0  0
   -6.6330   22.1170  -30.5180 O   0  0  0  0  0  0  0  0  0  0  0  0
   -5.0090   24.1090  -31.1330 N   0  0  0  0  0  0  0  0  0  0  0  0
   -4.0740   24.1590  -30.2280 C   0  0  0  0  0  0  0  0  0  0  0  0
   -3.4830   25.2910  -29.9180 O   0  0  0  0  0  0  0  0  0  0  0  0
   -2.6000   25.1070  -28.9850 N   0  0  0  0  0  0  0  0  0  0  0  0
   -2.0070   25.8600  -28.5700 H   0  0  0  0  0  0  0  0  0  0  0  0
   -2.6000   23.8030  -28.6560 C   0  0  0  0  0  0  0  0  0  0  0  0
   -1.7190   23.2060  -27.6040 C   0  0  0  0  0  0  0  0  0  0  0  0
   -2.1067   23.4687  -26.6087 H   0  0  0  0  0  0  0  0  0  0  0  0
   -1.7052   22.1117  -27.7150 H   0  0  0  0  0  0  0  0  0  0  0  0
   -0.6975   23.5987  -27.7150 H   0  0  0  0  0  0  0  0  0  0  0  0
   -3.5280   23.1360  -29.4440 C   0  0  0  0  0  0  0  0  0  0  0  0
   -3.8610   21.6760  -29.3560 C   0  0  0  0  0  0  0  0  0  0  0  0
   -3.9289   21.3784  -28.2992 H   0  0  0  0  0  0  0  0  0  0  0  0
   -4.8248   21.4892  -29.8521 H   0  0  0  0  0  0  0  0  0  0  0  0
   -3.0735   21.0897  -29.8521 H   0  0  0  0  0  0  0  0  0  0  0  0
   -5.2690   20.2680  -32.7720 C   0  0  0  0  0  0  0  0  0  0  0  0
   -6.6280   19.7790  -32.4660 C   0  0  0  0  0  0  0  0  0  0  0  0
   -6.8030   18.6570  -31.6380 C   0  0  0  0  0  0  0  0  0  0  0  0
   -5.9267   18.1558  -31.2011 H   0  0  0  0  0  0  0  0  0  0  0  0
   -8.0880   18.1760  -31.3680 C   0  0  0  0  0  0  0  0  0  0  0  0
   -8.2206   17.2925  -30.7262 H   0  0  0  0  0  0  0  0  0  0  0  0
   -9.2040   18.8170  -31.9130 C   0  0  0  0  0  0  0  0  0  0  0  0
  -10.2137   18.4336  -31.7047 H   0  0  0  0  0  0  0  0  0  0  0  0
   -9.0390   19.9440  -32.7220 C   0  0  0  0  0  0  0  0  0  0  0  0
   -9.9188   20.4508  -33.1451 H   0  0  0  0  0  0  0  0  0  0  0  0
   -7.7550   20.4280  -32.9940 C   0  0  0  0  0  0  0  0  0  0  0  0
   -7.6281   21.3207  -33.6241 H   0  0  0  0  0  0  0  0  0  0  0  0
   -4.3770   19.3980  -33.4170 C   0  0  0  0  0  0  0  0  0  0  0  0
   -4.7128   18.3901  -33.7023 H   0  0  0  0  0  0  0  0  0  0  0  0
   -3.2850   16.8440  -35.1950 C   0  0  0  0  0  0  0  0  0  0  0  0
   -3.9309   17.4331  -35.8626 H   0  0  0  0  0  0  0  0  0  0  0  0
   -3.3850   15.4480  -35.1800 C   0  0  0  0  0  0  0  0  0  0  0  0
   -4.1152   14.9426  -35.8292 H   0  0  0  0  0  0  0  0  0  0  0  0
  1  2  1  0
  2  3  2  0
  3  4  1  0
  3  5  1  0
  5  6  1  0
  5  7  2  0
  7  8  1  0
  8  9  1  0
  9 10  2  0
 10 11  1  0
 10 12  1  0
 12 13  1  0
 12 14  2  0
 14 15  1  0
 15 16  2  0
 15 17  2  0
 15 18  1  0
 18 19  2  0
 19 20  1  0
 20 21  1  0
 21 22  1  0
 21 23  1  0
 23 24  1  0
 24 25  1  0
 24 26  1  0
 24 27  1  0
 23 28  2  0
 28 29  1  0
 29 30  1  0
 29 31  1  0
 29 32  1  0
 14 33  1  0
 33 34  1  0
 34 35  2  0
 35 36  1  0
 35 37  1  0
 37 38  1  0
 37 39  2  0
 39 40  1  0
 39 41  1  0
 41 42  1  0
 41 43  2  0
 43 44  1  0
 33 45  2  0
 45 46  1  0
  7 47  1  0
 47 48  1  0
 47 49  2  0
 49 50  1  0
 49  2  1  0
 45  9  1  0
 28 19  1  0
 43 34  1  0
M  END
>  <UniqueID>  (3) 
3

>  <SMILES>  (3) 
Cc1[nH]o/c(=N/S(=O)(=O)c2ccc(Oc3ccccc3)cc2-c2ccccc2)c1C

>  <Energy>  (3) 
108.87427195819643

>  <Genealogy>  (3) 
Cc1[nH]o/c(=N/S(=O)(=O)c2ccc(Oc3ccccc3)cc2-c2ccccc2)c1C (cis-trans isomerization)
Cc1[nH]o/c(=N/S(=O)(=O)c2ccc(Oc3ccccc3)cc2-c2ccccc2)c1C (3D coordinates assigned)
Cc1[nH]o/c(=N/S(=O)(=O)c2ccc(Oc3ccccc3)cc2-c2ccccc2)c1C (optimized conformer: 108.87427195819643 kcal/mol)

>  <smiles>  (3) 
Cc1[nH]oc(=NS(=O)(=O)c2ccc(Oc3ccccc3)cc2-c2ccccc2)c1C

>  <score_type>  (3) 
oracle

>  <origin>  (3) 
adgpu

>  <m_score__min__energy>  (3) 
-10.4

>  <m_primary>  (3) 
energy

$$$$
3:0
     RDKit          3D

 41 43  0  0  0  0  0  0  0  0999 V2000
    2.5740   18.7670  -34.8050 N   0  0  0  0  0  0  0  0  0  0  0  0
    1.6230   19.2070  -34.3130 C   0  0  0  0  0  0  0  0  0  0  0  0
    0.4420   19.7530  -33.6980 C   0  0  0  0  0  0  0  0  0  0  0  0
    0.4540   20.1020  -32.3430 C   0  0  0  0  0  0  0  0  0  0  0  0
   -0.6960   20.6230  -31.7420 C   0  0  0  0  0  0  0  0  0  0  0  0
   -1.8750   20.7970  -32.4870 C   0  0  0  0  0  0  0  0  0  0  0  0
   -3.1060   21.3340  -31.8560 C   0  0  0  0  0  0  0  0  0  0  0  0
   -3.9420   20.5380  -31.3480 O   0  0  0  0  0  0  0  0  0  0  0  0
   -3.3270   22.7530  -31.7670 N   0  0  0  0  0  0  0  0  0  0  0  0
   -4.5820   23.3310  -31.3750 C   0  0  0  0  0  0  0  0  0  0  0  0
   -5.7640   22.6050  -31.5890 C   0  0  0  0  0  0  0  0  0  0  0  0
   -7.0070   23.1420  -31.2290 C   0  0  0  0  0  0  0  0  0  0  0  0
   -8.4960   22.2490  -31.5230 S   0  0  0  0  0  0  0  0  0  0  0  0
   -8.9910   21.5920  -30.2640 O   0  0  0  0  0  0  0  0  0  0  0  0
   -9.5480   23.2070  -32.0040 O   0  0  0  0  0  0  0  0  0  0  0  0
   -8.2320   21.0420  -32.7420 N   0  0  0  0  0  0  0  0  0  0  0  0
   -7.3420   19.9220  -32.6280 C   0  0  0  0  0  0  0  0  0  0  0  0
   -6.1790   19.8130  -33.4120 C   0  0  0  0  0  0  0  0  0  0  0  0
   -5.3340   18.7080  -33.2670 C   0  0  0  0  0  0  0  0  0  0  0  0
   -5.6400   17.7070  -32.3440 C   0  0  0  0  0  0  0  0  0  0  0  0
   -6.7900   17.8110  -31.5590 C   0  0  0  0  0  0  0  0  0  0  0  0
   -7.6360   18.9170  -31.6990 C   0  0  0  0  0  0  0  0  0  0  0  0
   -8.7470   19.0080  -30.9290 F   0  0  0  0  0  0  0  0  0  0  0  0
   -7.0660   24.4080  -30.6320 C   0  0  0  0  0  0  0  0  0  0  0  0
   -5.8920   25.1220  -30.3810 C   0  0  0  0  0  0  0  0  0  0  0  0
   -4.6510   24.5860  -30.7360 C   0  0  0  0  0  0  0  0  0  0  0  0
   -3.4940   25.2940  -30.4250 O   0  0  0  0  0  0  0  0  0  0  0  0
   -1.8710   20.4600  -33.8540 C   0  0  0  0  0  0  0  0  0  0  0  0
   -0.7210   19.9380  -34.4530 C   0  0  0  0  0  0  0  0  0  0  0  0
    1.3701   19.9662  -31.7494 H   0  0  0  0  0  0  0  0  0  0  0  0
   -0.6778   20.8990  -30.6773 H   0  0  0  0  0  0  0  0  0  0  0  0
   -2.4910   23.3790  -31.7820 H   0  0  0  0  0  0  0  0  0  0  0  0
   -5.7140   21.6047  -32.0438 H   0  0  0  0  0  0  0  0  0  0  0  0
   -5.9335   20.5991  -34.1412 H   0  0  0  0  0  0  0  0  0  0  0  0
   -4.4257   18.6277  -33.8822 H   0  0  0  0  0  0  0  0  0  0  0  0
   -4.9759   16.8369  -32.2350 H   0  0  0  0  0  0  0  0  0  0  0  0
   -7.0312   17.0232  -30.8301 H   0  0  0  0  0  0  0  0  0  0  0  0
   -8.0399   24.8411  -30.3601 H   0  0  0  0  0  0  0  0  0  0  0  0
   -5.9444   26.1107  -29.9017 H   0  0  0  0  0  0  0  0  0  0  0  0
   -2.7800   20.6087  -34.4553 H   0  0  0  0  0  0  0  0  0  0  0  0
   -0.7305   19.6721  -35.5203 H   0  0  0  0  0  0  0  0  0  0  0  0
  1  2  3  0
  2  3  1  0
  3  4  2  0
  4  5  1  0
  5  6  2  0
  6  7  1  0
  7  8  2  0
  7  9  1  0
  9 10  1  0
 10 11  2  0
 11 12  1  0
 12 13  1  0
 13 14  2  0
 13 15  2  0
 13 16  1  0
 16 17  1  0
 17 18  2  0
 18 19  1  0
 19 20  2  0
 20 21  1  0
 21 22  2  0
 22 23  1  0
 12 24  2  0
 24 25  1  0
 25 26  2  0
 26 27  1  0
  6 28  1  0
 28 29  2  0
 29  3  1  0
 26 10  1  0
 22 17  1  0
  4 30  1  0
  5 31  1  0
  9 32  1  0
 11 33  1  0
 18 34  1  0
 19 35  1  0
 20 36  1  0
 21 37  1  0
 24 38  1  0
 25 39  1  0
 28 40  1  0
 29 41  1  0
M  CHG  2  16  -1  27  -1
M  END
>  <UniqueID>  (4) 
4

>  <SMILES>  (4) 
N#Cc1ccc(C(=O)Nc2cc(S(=O)(=O)[N-]c3ccccc3F)ccc2[O-])cc1

>  <Energy>  (4) 
54.03299745535882

>  <Genealogy>  (4) 
N#Cc1ccc(C(=O)Nc2cc(S(=O)(=O)[N-]c3ccccc3F)ccc2[O-])cc1 (protonated)
N#Cc1ccc(C(=O)Nc2cc(S(=O)(=O)[N-]c3ccccc3F)ccc2[O-])cc1 (3D coordinates assigned)
N#Cc1ccc(C(=O)Nc2cc(S(=O)(=O)[N-]c3ccccc3F)ccc2[O-])cc1 (optimized conformer: 54.03299745535882 kcal/mol)

>  <smiles>  (4) 
N#Cc1ccc(C(=O)Nc2cc(S(=O)(=O)Nc3ccccc3F)ccc2O)cc1

>  <score_type>  (4) 
oracle

>  <origin>  (4) 
adgpu

>  <m_score__min__energy>  (4) 
-12.07

>  <m_primary>  (4) 
energy

$$$$
4:0
     RDKit          3D

 39 41  0  0  0  0  0  0  0  0999 V2000
   -1.4610   20.1840  -27.9650 C   0  0  0  0  0  0  0  0  0  0  0  0
   -1.9930   21.4490  -28.5700 C   0  0  0  0  0  0  0  0  0  0  0  0
   -1.8370   21.6950  -29.9400 C   0  0  0  0  0  0  0  0  0  0  0  0
   -2.3590   22.8580  -30.5110 C   0  0  0  0  0  0  0  0  0  0  0  0
   -3.0780   23.7750  -29.7280 C   0  0  0  0  0  0  0  0  0  0  0  0
   -3.5900   24.9850  -30.3030 N   0  0  0  0  0  0  0  0  0  0  0  0
   -4.9710   25.3190  -30.5000 C   0  0  0  0  0  0  0  0  0  0  0  0
   -5.3090   26.5310  -30.4780 O   0  0  0  0  0  0  0  0  0  0  0  0
   -6.0460   24.2710  -30.5830 C   0  0  0  0  0  0  0  0  0  0  0  0
   -6.1620   23.7990  -31.9230 O   0  0  0  0  0  0  0  0  0  0  0  0
   -5.8620   22.4840  -32.3080 C   0  0  0  0  0  0  0  0  0  0  0  0
   -4.6020   22.1510  -32.7020 N   0  0  0  0  0  0  0  0  0  0  0  0
   -4.2880   20.8870  -33.0840 C   0  0  0  0  0  0  0  0  0  0  0  0
   -5.2390   19.9180  -33.0810 N   0  0  0  0  0  0  0  0  0  0  0  0
   -6.5130   20.1920  -32.7020 C   0  0  0  0  0  0  0  0  0  0  0  0
   -7.4800   19.1810  -32.7050 C   0  0  0  0  0  0  0  0  0  0  0  0
   -8.7920   19.4640  -32.3140 C   0  0  0  0  0  0  0  0  0  0  0  0
   -9.1420   20.7580  -31.9170 C   0  0  0  0  0  0  0  0  0  0  0  0
   -8.1840   21.7770  -31.9090 C   0  0  0  0  0  0  0  0  0  0  0  0
   -6.8620   21.5000  -32.3010 C   0  0  0  0  0  0  0  0  0  0  0  0
   -3.2340   23.5360  -28.3470 C   0  0  0  0  0  0  0  0  0  0  0  0
   -3.9440   24.5340  -27.4720 C   0  0  0  0  0  0  0  0  0  0  0  0
   -2.6960   22.3690  -27.7790 C   0  0  0  0  0  0  0  0  0  0  0  0
   -1.4931   20.2604  -26.8681 H   0  0  0  0  0  0  0  0  0  0  0  0
   -2.0778   19.3337  -28.2916 H   0  0  0  0  0  0  0  0  0  0  0  0
   -0.4219   20.0301  -28.2916 H   0  0  0  0  0  0  0  0  0  0  0  0
   -1.3010   20.9691  -30.5691 H   0  0  0  0  0  0  0  0  0  0  0  0
   -2.2056   23.0568  -31.5820 H   0  0  0  0  0  0  0  0  0  0  0  0
   -5.7879   23.4308  -29.9216 H   0  0  0  0  0  0  0  0  0  0  0  0
   -7.0046   24.7104  -30.2699 H   0  0  0  0  0  0  0  0  0  0  0  0
   -3.2610   20.6472  -33.3966 H   0  0  0  0  0  0  0  0  0  0  0  0
   -7.2075   18.1616  -33.0156 H   0  0  0  0  0  0  0  0  0  0  0  0
   -9.5503   18.6672  -32.3187 H   0  0  0  0  0  0  0  0  0  0  0  0
  -10.1755   20.9757  -31.6095 H   0  0  0  0  0  0  0  0  0  0  0  0
   -8.4642   22.7938  -31.5965 H   0  0  0  0  0  0  0  0  0  0  0  0
   -3.7675   24.2859  -26.4150 H   0  0  0  0  0  0  0  0  0  0  0  0
   -3.5599   25.5434  -27.6808 H   0  0  0  0  0  0  0  0  0  0  0  0
   -5.0235   24.5021  -27.6808 H   0  0  0  0  0  0  0  0  0  0  0  0
   -2.8274   22.1753  -26.7042 H   0  0  0  0  0  0  0  0  0  0  0  0
  1  2  1  0
  2  3  2  0
  3  4  1  0
  4  5  2  0
  5  6  1  0
  6  7  1  0
  7  8  2  0
  7  9  1  0
  9 10  1  0
 10 11  1  0
 11 12  2  0
 12 13  1  0
 13 14  2  0
 14 15  1  0
 15 16  2  0
 16 17  1  0
 17 18  2  0
 18 19  1  0
 19 20  2  0
  5 21  1  0
 21 22  1  0
 21 23  2  0
 23  2  1  0
 20 11  1  0
 20 15  1  0
  1 24  1  0
  1 25  1  0
  1 26  1  0
  3 27  1  0
  4 28  1  0
  9 29  1  0
  9 30  1  0
 13 31  1  0
 16 32  1  0
 17 33  1  0
 18 34  1  0
 19 35  1  0
 22 36  1  0
 22 37  1  0
 22 38  1  0
 23 39  1  0
M  CHG  1   6  -1
M  END
>  <UniqueID>  (5) 
5

>  <SMILES>  (5) 
Cc1ccc([N-]C(=O)COc2ncnc3ccccc23)c(C)c1

>  <Energy>  (5) 
46.926671522761524

>  <Genealogy>  (5) 
Cc1ccc([N-]C(=O)COc2ncnc3ccccc23)c(C)c1 (protonated)
Cc1ccc([N-]C(=O)COc2ncnc3ccccc23)c(C)c1 (3D coordinates assigned)
Cc1ccc([N-]C(=O)COc2ncnc3ccccc23)c(C)c1 (optimized conformer: 46.926671522761524 kcal/mol)

>  <smiles>  (5) 
Cc1ccc(NC(=O)COc2ncnc3ccccc23)c(C)c1

>  <score_type>  (5) 
oracle

>  <origin>  (5) 
adgpu

>  <m_score__min__energy>  (5) 
-9.9499999999999993

>  <m_primary>  (5) 
energy

$$$$
5:0
     RDKit          3D

 26 27  0  0  0  0  0  0  0  0999 V2000
   -2.3230   20.6700  -30.5110 H   0  0  0  0  0  0  0  0  0  0  0  0
   -2.0360   21.4560  -29.8890 N   0  0  0  0  0  0  0  0  0  0  0  0
   -2.5330   22.6540  -29.9340 C   0  0  0  0  0  0  0  0  0  0  0  0
   -2.0470   23.6080  -29.0330 C   0  0  0  0  0  0  0  0  0  0  0  0
   -1.2665   23.3339  -28.3079 H   0  0  0  0  0  0  0  0  0  0  0  0
   -2.5540   24.9070  -29.0560 C   0  0  0  0  0  0  0  0  0  0  0  0
   -2.1715   25.6586  -28.3497 H   0  0  0  0  0  0  0  0  0  0  0  0
   -3.5190   25.2450  -29.9490 N   0  0  0  0  0  0  0  0  0  0  0  0
   -4.0150   24.3460  -30.8390 C   0  0  0  0  0  0  0  0  0  0  0  0
   -4.7945   24.6566  -31.5503 H   0  0  0  0  0  0  0  0  0  0  0  0
   -3.5420   23.0250  -30.8590 C   0  0  0  0  0  0  0  0  0  0  0  0
   -4.2100   21.8920  -32.0470 S   0  0  0  0  0  0  0  0  0  0  0  0
   -3.7480   20.4910  -31.7560 O   0  0  0  0  0  0  0  0  0  0  0  0
   -3.7220   22.2810  -33.4150 O   0  0  0  0  0  0  0  0  0  0  0  0
   -5.9700   21.9240  -31.9790 C   0  0  0  0  0  0  0  0  0  0  0  0
   -6.6430   23.0430  -31.4660 C   0  0  0  0  0  0  0  0  0  0  0  0
   -6.0711   23.9099  -31.1037 H   0  0  0  0  0  0  0  0  0  0  0  0
   -8.0400   23.0570  -31.4150 C   0  0  0  0  0  0  0  0  0  0  0  0
   -8.5657   23.9348  -31.0112 H   0  0  0  0  0  0  0  0  0  0  0  0
   -8.7700   21.9580  -31.8760 C   0  0  0  0  0  0  0  0  0  0  0  0
   -9.8690   21.9711  -31.8307 H   0  0  0  0  0  0  0  0  0  0  0  0
   -8.1060   20.8410  -32.3950 C   0  0  0  0  0  0  0  0  0  0  0  0
   -8.8460   19.7540  -32.8530 O   0  0  0  0  0  0  0  0  0  0  0  0
   -9.0360   19.6210  -33.8400 H   0  0  0  0  0  0  0  0  0  0  0  0
   -6.7050   20.8260  -32.4470 C   0  0  0  0  0  0  0  0  0  0  0  0
   -6.1809   19.9498  -32.8564 H   0  0  0  0  0  0  0  0  0  0  0  0
  1  2  1  0
  2  3  2  0
  3  4  1  0
  4  5  1  0
  4  6  2  0
  6  7  1  0
  6  8  1  0
  8  9  1  0
  9 10  1  0
  9 11  2  0
 11 12  1  0
 12 13  2  0
 12 14  2  0
 12 15  1  0
 15 16  2  0
 16 17  1  0
 16 18  1  0
 18 19  1  0
 18 20  2  0
 20 21  1  0
 20 22  1  0
 22 23  1  0
 23 24  1  0
 22 25  2  0
 25 26  1  0
 11  3  1  0
 25 15  1  0
M  CHG  1   8  -1
M  END
>  <UniqueID>  (6) 
6

>  <SMILES>  (6) 
[H]/N=c1/cc[n-]cc1S(=O)(=O)c1cccc(O)c1

>  <Energy>  (6) 
32.41224651122903

>  <Genealogy>  (6) 
N=c1cc[n-]cc1S(=O)(=O)c1cccc(O)c1 (protonated)
[H]/N=c1/cc[n-]cc1S(=O)(=O)c1cccc(O)c1 (cis-trans isomerization)
[H]/N=c1/cc[n-]cc1S(=O)(=O)c1cccc(O)c1 (3D coordinates assigned)
[H]/N=c1/cc[n-]cc1S(=O)(=O)c1cccc(O)c1 (optimized conformer: 32.41224651122903 kcal/mol)

>  <smiles>  (6) 
N=c1cc[nH]cc1S(=O)(=O)c1cccc(O)c1

>  <score_type>  (6) 
oracle

>  <origin>  (6) 
adgpu

>  <m_score__min__energy>  (6) 
-7.3300000000000001

>  <m_primary>  (6) 
energy

$$$$
6:0
     RDKit          3D

 35 37  0  0  0  0  0  0  0  0999 V2000
   -1.5910   24.7810  -29.2690 O   0  0  0  0  0  0  0  0  0  0  0  0
   -2.7140   24.3680  -29.6580 C   0  0  0  0  0  0  0  0  0  0  0  0
   -3.1720   23.1050  -29.2830 C   0  0  0  0  0  0  0  0  0  0  0  0
   -4.4200   22.6750  -29.7300 C   0  0  0  0  0  0  0  0  0  0  0  0
   -5.1920   23.5220  -30.5410 C   0  0  0  0  0  0  0  0  0  0  0  0
   -6.5290   23.1190  -31.0510 C   0  0  0  0  0  0  0  0  0  0  0  0
   -7.3200   24.0020  -31.8080 C   0  0  0  0  0  0  0  0  0  0  0  0
   -8.5700   23.6010  -32.2840 C   0  0  0  0  0  0  0  0  0  0  0  0
   -9.0450   22.3160  -32.0190 C   0  0  0  0  0  0  0  0  0  0  0  0
   -8.2650   21.4090  -31.2810 C   0  0  0  0  0  0  0  0  0  0  0  0
   -8.7180   20.0710  -31.0010 N   0  0  0  0  0  0  0  0  0  0  0  0
   -8.8780   18.8310  -32.2050 S   0  0  0  0  0  0  0  0  0  0  0  0
   -9.4870   17.6090  -31.5790 O   0  0  0  0  0  0  0  0  0  0  0  0
   -9.7820   19.3240  -33.3000 O   0  0  0  0  0  0  0  0  0  0  0  0
   -7.2940   18.4080  -32.8490 C   0  0  0  0  0  0  0  0  0  0  0  0
   -7.0530   17.1200  -33.3460 C   0  0  0  0  0  0  0  0  0  0  0  0
   -5.7980   16.7950  -33.8700 C   0  0  0  0  0  0  0  0  0  0  0  0
   -4.7750   17.7500  -33.8980 C   0  0  0  0  0  0  0  0  0  0  0  0
   -3.2120   17.3040  -34.5660 Cl  0  0  0  0  0  0  0  0  0  0  0  0
   -5.0130   19.0400  -33.3950 C   0  0  0  0  0  0  0  0  0  0  0  0
   -3.7570   20.2720  -33.4120 Cl  0  0  0  0  0  0  0  0  0  0  0  0
   -6.2690   19.3620  -32.8700 C   0  0  0  0  0  0  0  0  0  0  0  0
   -7.0120   21.8210  -30.8000 C   0  0  0  0  0  0  0  0  0  0  0  0
   -4.6840   24.7410  -30.8790 N   0  0  0  0  0  0  0  0  0  0  0  0
   -3.4890   25.1510  -30.4520 N   0  0  0  0  0  0  0  0  0  0  0  0
   -2.5560   22.4566  -28.6426 H   0  0  0  0  0  0  0  0  0  0  0  0
   -4.7970   21.6804  -29.4498 H   0  0  0  0  0  0  0  0  0  0  0  0
   -6.9515   25.0151  -32.0265 H   0  0  0  0  0  0  0  0  0  0  0  0
   -9.1830   24.3012  -32.8705 H   0  0  0  0  0  0  0  0  0  0  0  0
  -10.0349   22.0113  -32.3895 H   0  0  0  0  0  0  0  0  0  0  0  0
   -8.8790   19.7890  -30.0090 H   0  0  0  0  0  0  0  0  0  0  0  0
   -7.8518   16.3641  -33.3239 H   0  0  0  0  0  0  0  0  0  0  0  0
   -5.6137   15.7839  -34.2621 H   0  0  0  0  0  0  0  0  0  0  0  0
   -6.4526   20.3706  -32.4713 H   0  0  0  0  0  0  0  0  0  0  0  0
   -6.3980   21.1182  -30.2177 H   0  0  0  0  0  0  0  0  0  0  0  0
  1  2  2  0
  2  3  1  0
  3  4  2  0
  4  5  1  0
  5  6  1  0
  6  7  2  0
  7  8  1  0
  8  9  2  0
  9 10  1  0
 10 11  1  0
 11 12  1  0
 12 13  2  0
 12 14  2  0
 12 15  1  0
 15 16  2  0
 16 17  1  0
 17 18  2  0
 18 19  1  0
 18 20  1  0
 20 21  1  0
 20 22  2  0
 10 23  2  0
  5 24  2  0
 24 25  1  0
 25  2  1  0
 23  6  1  0
 22 15  1  0
  3 26  1  0
  4 27  1  0
  7 28  1  0
  8 29  1  0
  9 30  1  0
 11 31  1  0
 16 32  1  0
 17 33  1  0
 22 34  1  0
 23 35  1  0
M  CHG  1  25  -1
M  END
>  <UniqueID>  (7) 
7

>  <SMILES>  (7) 
O=c1ccc(-c2cccc(NS(=O)(=O)c3ccc(Cl)c(Cl)c3)c2)n[n-]1

>  <Energy>  (7) 
46.73874645991796

>  <Genealogy>  (7) 
O=c1ccc(-c2cccc(NS(=O)(=O)c3ccc(Cl)c(Cl)c3)c2)n[n-]1 (protonated)
O=c1ccc(-c2cccc(NS(=O)(=O)c3ccc(Cl)c(Cl)c3)c2)n[n-]1 (3D coordinates assigned)
O=c1ccc(-c2cccc(NS(=O)(=O)c3ccc(Cl)c(Cl)c3)c2)n[n-]1 (optimized conformer: 46.73874645991796 kcal/mol)

>  <smiles>  (7) 
O=c1ccc(-c2cccc(NS(=O)(=O)c3ccc(Cl)c(Cl)c3)c2)n[nH]1

>  <score_type>  (7) 
oracle

>  <origin>  (7) 
adgpu

>  <m_score__min__energy>  (7) 
-11.779999999999999

>  <m_primary>  (7) 
energy

$$$$
7:0
     RDKit          3D

 45 47  0  0  0  0  0  0  0  0999 V2000
   -6.0490   17.0280  -31.6600 C   0  0  0  0  0  0  0  0  0  0  0  0
   -6.9760   18.1120  -32.0960 C   0  0  0  0  0  0  0  0  0  0  0  0
   -8.2490   18.1770  -31.5720 C   0  0  0  0  0  0  0  0  0  0  0  0
   -9.1440   19.1720  -31.9450 C   0  0  0  0  0  0  0  0  0  0  0  0
   -8.7150   20.1210  -32.8790 C   0  0  0  0  0  0  0  0  0  0  0  0
   -7.4210   20.0460  -33.4070 C   0  0  0  0  0  0  0  0  0  0  0  0
   -6.5370   19.0590  -33.0350 C   0  0  0  0  0  0  0  0  0  0  0  0
   -5.1990   18.9010  -33.5320 C   0  0  0  0  0  0  0  0  0  0  0  0
   -4.9740   17.8550  -34.3820 N   0  0  0  0  0  0  0  0  0  0  0  0
   -3.7500   17.6220  -34.9040 C   0  0  0  0  0  0  0  0  0  0  0  0
   -3.5790   16.6210  -35.7050 N   0  0  0  0  0  0  0  0  0  0  0  0
   -2.7030   18.4250  -34.5940 N   0  0  0  0  0  0  0  0  0  0  0  0
   -2.8840   19.4830  -33.7480 C   0  0  0  0  0  0  0  0  0  0  0  0
   -1.8760   20.2610  -33.4480 N   0  0  0  0  0  0  0  0  0  0  0  0
   -4.1450   19.7290  -33.2070 C   0  0  0  0  0  0  0  0  0  0  0  0
   -4.2880   20.8650  -32.3090 C   0  0  0  0  0  0  0  0  0  0  0  0
   -4.9200   22.0280  -32.7160 C   0  0  0  0  0  0  0  0  0  0  0  0
   -5.0450   23.0810  -31.8290 C   0  0  0  0  0  0  0  0  0  0  0  0
   -4.5700   23.0470  -30.5370 C   0  0  0  0  0  0  0  0  0  0  0  0
   -4.7100   24.1570  -29.6340 N   0  0  0  0  0  0  0  0  0  0  0  0
   -3.8410   24.1740  -28.4690 C   0  0  0  0  0  0  0  0  0  0  0  0
   -5.6530   25.2150  -29.8440 C   0  0  0  0  0  0  0  0  0  0  0  0
   -3.9400   21.8840  -30.1300 C   0  0  0  0  0  0  0  0  0  0  0  0
   -3.8150   20.8340  -31.0140 C   0  0  0  0  0  0  0  0  0  0  0  0
   -6.0181   16.9919  -30.5610 H   0  0  0  0  0  0  0  0  0  0  0  0
   -6.4052   16.0626  -32.0487 H   0  0  0  0  0  0  0  0  0  0  0  0
   -5.0400   17.2300  -32.0487 H   0  0  0  0  0  0  0  0  0  0  0  0
   -8.5650   17.4206  -30.8385 H   0  0  0  0  0  0  0  0  0  0  0  0
  -10.1576   19.2123  -31.5195 H   0  0  0  0  0  0  0  0  0  0  0  0
   -9.3940   20.9254  -33.1981 H   0  0  0  0  0  0  0  0  0  0  0  0
   -7.1007   20.7992  -34.1420 H   0  0  0  0  0  0  0  0  0  0  0  0
   -5.7880   17.2170  -34.6320 H   0  0  0  0  0  0  0  0  0  0  0  0
   -2.6350   16.4330  -36.1130 H   0  0  0  0  0  0  0  0  0  0  0  0
   -1.7660   18.2560  -34.9860 H   0  0  0  0  0  0  0  0  0  0  0  0
   -0.9620   20.0160  -33.8900 H   0  0  0  0  0  0  0  0  0  0  0  0
   -5.3195   22.1133  -33.7373 H   0  0  0  0  0  0  0  0  0  0  0  0
   -5.5510   23.9949  -32.1738 H   0  0  0  0  0  0  0  0  0  0  0  0
   -4.4529   24.1620  -27.5550 H   0  0  0  0  0  0  0  0  0  0  0  0
   -3.1887   23.2884  -28.4852 H   0  0  0  0  0  0  0  0  0  0  0  0
   -3.2238   25.0844  -28.4852 H   0  0  0  0  0  0  0  0  0  0  0  0
   -5.9955   25.5992  -28.8719 H   0  0  0  0  0  0  0  0  0  0  0  0
   -5.1733   26.0266  -30.4107 H   0  0  0  0  0  0  0  0  0  0  0  0
   -6.5142   24.8314  -30.4107 H   0  0  0  0  0  0  0  0  0  0  0  0
   -3.5418   21.7982  -29.1082 H   0  0  0  0  0  0  0  0  0  0  0  0
   -3.3098   19.9204  -30.6673 H   0  0  0  0  0  0  0  0  0  0  0  0
  1  2  1  0
  2  3  2  0
  3  4  1  0
  4  5  2  0
  5  6  1  0
  6  7  2  0
  7  8  1  0
  8  9  1  0
  9 10  1  0
 10 11  2  3
 10 12  1  0
 12 13  1  0
 13 14  2  3
 13 15  1  0
 15 16  1  0
 16 17  2  0
 17 18  1  0
 18 19  2  0
 19 20  1  0
 20 21  1  0
 20 22  1  0
 19 23  1  0
 23 24  2  0
  7  2  1  0
 15  8  2  0
 24 16  1  0
  1 25  1  0
  1 26  1  0
  1 27  1  0
  3 28  1  0
  4 29  1  0
  5 30  1  0
  6 31  1  0
  9 32  1  0
 11 33  1  0
 12 34  1  0
 14 35  1  0
 17 36  1  0
 18 37  1  0
 21 38  1  0
 21 39  1  0
 21 40  1  0
 22 41  1  0
 22 42  1  0
 22 43  1  0
 23 44  1  0
 24 45  1  0
M  END
>  <smiles>  (8) 
Cc1ccccc1-c1[nH]c(=N)[nH]c(=N)c1-c1ccc(N(C)C)cc1

>  <score_type>  (8) 
oracle

>  <origin>  (8) 
adgpu

>  <m_score__min__energy>  (8) 
-7.6900000000000004

>  <m_primary>  (8) 
energy

$$$$
8:0
     RDKit          3D

 27 28  0  0  0  0  0  0  0  0999 V2000
   -0.5610   22.5370  -35.9680 H   0  0  0  0  0  0  0  0  0  0  0  0
    0.0500   21.9450  -35.4170 O   0  0  0  0  0  0  0  0  0  0  0  0
   -0.3280   21.4820  -34.1580 C   0  0  0  0  0  0  0  0  0  0  0  0
    0.6470   21.0010  -33.2780 C   0  0  0  0  0  0  0  0  0  0  0  0
    1.7035   20.9876  -33.5839 H   0  0  0  0  0  0  0  0  0  0  0  0
    0.2820   20.5370  -32.0100 C   0  0  0  0  0  0  0  0  0  0  0  0
    1.0518   20.1454  -31.3287 H   0  0  0  0  0  0  0  0  0  0  0  0
   -1.0590   20.5680  -31.6020 C   0  0  0  0  0  0  0  0  0  0  0  0
   -1.4190   20.0460  -30.2650 C   0  0  0  0  0  0  0  0  0  0  0  0
   -1.4106   18.9543  -30.1303 H   0  0  0  0  0  0  0  0  0  0  0  0
   -1.7550   20.7950  -29.2030 C   0  0  0  0  0  0  0  0  0  0  0  0
   -2.1321   20.2690  -28.3136 H   0  0  0  0  0  0  0  0  0  0  0  0
   -1.6600   22.2690  -29.1300 C   0  0  0  0  0  0  0  0  0  0  0  0
   -2.6370   23.0990  -29.7120 C   0  0  0  0  0  0  0  0  0  0  0  0
   -3.5053   22.6509  -30.2172 H   0  0  0  0  0  0  0  0  0  0  0  0
   -2.5090   24.4900  -29.6510 C   0  0  0  0  0  0  0  0  0  0  0  0
   -3.4880   25.2990  -30.2150 O   0  0  0  0  0  0  0  0  0  0  0  0
   -1.3960   25.0650  -29.0270 C   0  0  0  0  0  0  0  0  0  0  0  0
   -1.2700   26.4480  -28.9630 O   0  0  0  0  0  0  0  0  0  0  0  0
   -0.4050   24.2450  -28.4730 C   0  0  0  0  0  0  0  0  0  0  0  0
    0.7080   24.8100  -27.8620 O   0  0  0  0  0  0  0  0  0  0  0  0
   -0.5340   22.8530  -28.5340 C   0  0  0  0  0  0  0  0  0  0  0  0
    0.2540   22.2125  -28.1111 H   0  0  0  0  0  0  0  0  0  0  0  0
   -2.0410   21.0250  -32.5020 C   0  0  0  0  0  0  0  0  0  0  0  0
   -3.1009   21.0161  -32.2079 H   0  0  0  0  0  0  0  0  0  0  0  0
   -1.6730   21.4900  -33.7680 C   0  0  0  0  0  0  0  0  0  0  0  0
   -2.4423   21.8633  -34.4600 H   0  0  0  0  0  0  0  0  0  0  0  0
  1  2  1  0
  2  3  1  0
  3  4  2  0
  4  5  1  0
  4  6  1  0
  6  7  1  0
  6  8  2  0
  8  9  1  0
  9 10  1  0
  9 11  2  0
 11 12  1  0
 11 13  1  0
 13 14  2  0
 14 15  1  0
 14 16  1  0
 16 17  1  0
 16 18  2  0
 18 19  1  0
 18 20  1  0
 20 21  1  0
 20 22  2  0
 22 23  1  0
  8 24  1  0
 24 25  1  0
 24 26  2  0
 26 27  1  0
 26  3  1  0
 22 13  1  0
M  CHG  3  17  -1  19  -1  21  -1
M  END
>  <UniqueID>  (9) 
8

>  <SMILES>  (9) 
[O-]c1cc(/C=C\c2ccc(O)cc2)cc([O-])c1[O-]

>  <Energy>  (9) 
37.613733376608934

>  <Genealogy>  (9) 
[O-]c1cc(C=Cc2ccc(O)cc2)cc([O-])c1[O-] (protonated)
[O-]c1cc(/C=C\c2ccc(O)cc2)cc([O-])c1[O-] (cis-trans isomerization)
[O-]c1cc(/C=C\c2ccc(O)cc2)cc([O-])c1[O-] (3D coordinates assigned)
[O-]c1cc(/C=C\c2ccc(O)cc2)cc([O-])c1[O-] (optimized conformer: 37.613733376608934 kcal/mol)

>  <smiles>  (9) 
Oc1ccc(C=Cc2cc(O)c(O)c(O)c2)cc1

>  <score_type>  (9) 
oracle

>  <origin>  (9) 
adgpu

>  <m_score__min__energy>  (9) 
-12.300000000000001

>  <m_primary>  (9) 
energy

$$$$
9:0
     RDKit          3D

 50 52  0  0  0  0  0  0  0  0999 V2000
   -3.6140   15.5080  -34.8300 C   0  0  0  0  0  0  0  0  0  0  0  0
   -3.7530   16.8970  -35.1110 O   0  0  0  0  0  0  0  0  0  0  0  0
   -4.2050   17.8500  -34.1860 C   0  0  0  0  0  0  0  0  0  0  0  0
   -5.4330   17.6310  -33.5510 C   0  0  0  0  0  0  0  0  0  0  0  0
   -5.9240   18.5510  -32.6220 C   0  0  0  0  0  0  0  0  0  0  0  0
   -5.1930   19.6990  -32.3040 C   0  0  0  0  0  0  0  0  0  0  0  0
   -5.7210   20.5890  -31.3560 O   0  0  0  0  0  0  0  0  0  0  0  0
   -6.8470   21.3950  -31.5640 C   0  0  0  0  0  0  0  0  0  0  0  0
   -8.0620   20.9170  -31.1800 N   0  0  0  0  0  0  0  0  0  0  0  0
   -9.2050   21.6290  -31.3510 C   0  0  0  0  0  0  0  0  0  0  0  0
   -9.1600   22.8930  -31.9370 C   0  0  0  0  0  0  0  0  0  0  0  0
   -7.9300   23.4230  -32.3230 C   0  0  0  0  0  0  0  0  0  0  0  0
   -6.7480   22.6910  -32.1240 C   0  0  0  0  0  0  0  0  0  0  0  0
   -5.4250   23.3090  -32.5140 C   0  0  0  0  0  0  0  0  0  0  0  0
   -5.0160   24.3250  -31.5480 N   0  0  0  0  0  0  0  0  0  0  0  0
   -4.1670   24.0770  -30.4220 C   0  0  0  0  0  0  0  0  0  0  0  0
   -3.4790   25.0250  -29.9590 O   0  0  0  0  0  0  0  0  0  0  0  0
   -4.0920   22.7760  -29.8220 N   0  0  0  0  0  0  0  0  0  0  0  0
   -2.9120   22.3020  -29.1030 C   0  0  0  0  0  0  0  0  0  0  0  0
   -2.0110   21.5730  -30.0600 C   0  0  0  0  0  0  0  0  0  0  0  0
   -1.9250   21.9820  -31.4000 C   0  0  0  0  0  0  0  0  0  0  0  0
   -1.1360   21.2660  -32.3040 C   0  0  0  0  0  0  0  0  0  0  0  0
   -0.4420   20.1290  -31.8830 C   0  0  0  0  0  0  0  0  0  0  0  0
   -0.5460   19.6880  -30.5550 C   0  0  0  0  0  0  0  0  0  0  0  0
    0.2080   18.4760  -30.0970 C   0  0  0  0  0  0  0  0  0  0  0  0
   -1.3270   20.4190  -29.6450 C   0  0  0  0  0  0  0  0  0  0  0  0
   -3.9620   19.9300  -32.9460 C   0  0  0  0  0  0  0  0  0  0  0  0
   -3.4700   19.0120  -33.8780 C   0  0  0  0  0  0  0  0  0  0  0  0
   -3.5986   15.3540  -33.7409 H   0  0  0  0  0  0  0  0  0  0  0  0
   -4.4617   14.9591  -35.2660 H   0  0  0  0  0  0  0  0  0  0  0  0
   -2.6743   15.1379  -35.2660 H   0  0  0  0  0  0  0  0  0  0  0  0
   -6.0155   16.7278  -33.7853 H   0  0  0  0  0  0  0  0  0  0  0  0
   -6.8944   18.3705  -32.1364 H   0  0  0  0  0  0  0  0  0  0  0  0
  -10.1681   21.2079  -31.0267 H   0  0  0  0  0  0  0  0  0  0  0  0
  -10.0857   23.4663  -32.0932 H   0  0  0  0  0  0  0  0  0  0  0  0
   -7.8848   24.4198  -32.7859 H   0  0  0  0  0  0  0  0  0  0  0  0
   -4.6581   22.5214  -32.5539 H   0  0  0  0  0  0  0  0  0  0  0  0
   -5.5385   23.7872  -33.4981 H   0  0  0  0  0  0  0  0  0  0  0  0
   -4.8660   22.0950  -29.9730 H   0  0  0  0  0  0  0  0  0  0  0  0
   -2.3745   23.1595  -28.6720 H   0  0  0  0  0  0  0  0  0  0  0  0
   -3.2196   21.6228  -28.2942 H   0  0  0  0  0  0  0  0  0  0  0  0
   -2.4804   22.8688  -31.7394 H   0  0  0  0  0  0  0  0  0  0  0  0
   -1.0611   21.5985  -33.3499 H   0  0  0  0  0  0  0  0  0  0  0  0
    0.1886   19.5771  -32.5956 H   0  0  0  0  0  0  0  0  0  0  0  0
    0.2250   18.4486  -28.9975 H   0  0  0  0  0  0  0  0  0  0  0  0
   -0.2865   17.5706  -30.4787 H   0  0  0  0  0  0  0  0  0  0  0  0
    1.2387   18.5195  -30.4787 H   0  0  0  0  0  0  0  0  0  0  0  0
   -1.4034   20.0852  -28.5997 H   0  0  0  0  0  0  0  0  0  0  0  0
   -3.3847   20.8369  -32.7132 H   0  0  0  0  0  0  0  0  0  0  0  0
   -2.5053   19.1974  -34.3730 H   0  0  0  0  0  0  0  0  0  0  0  0
  1  2  1  0
  2  3  1  0
  3  4  2  0
  4  5  1  0
  5  6  2  0
  6  7  1  0
  7  8  1  0
  8  9  2  0
  9 10  1  0
 10 11  2  0
 11 12  1  0
 12 13  2  0
 13 14  1  0
 14 15  1  0
 15 16  1  0
 16 17  2  0
 16 18  1  0
 18 19  1  0
 19 20  1  0
 20 21  2  0
 21 22  1  0
 22 23  2  0
 23 24  1  0
 24 25  1  0
 24 26  2  0
  6 27  1  0
 27 28  2  0
 28  3  1  0
 13  8  1  0
 26 20  1  0
  1 29  1  0
  1 30  1  0
  1 31  1  0
  4 32  1  0
  5 33  1  0
 10 34  1  0
 11 35  1  0
 12 36  1  0
 14 37  1  0
 14 38  1  0
 18 39  1  0
 19 40  1  0
 19 41  1  0
 21 42  1  0
 22 43  1  0
 23 44  1  0
 25 45  1  0
 25 46  1  0
 25 47  1  0
 26 48  1  0
 27 49  1  0
 28 50  1  0
M  CHG  1  15  -1
M  END
>  <UniqueID>  (10) 
9

>  <SMILES>  (10) 
COc1ccc(Oc2ncccc2C[N-]C(=O)NCc2cccc(C)c2)cc1

>  <Energy>  (10) 
55.933054774777844

>  <Genealogy>  (10) 
COc1ccc(Oc2ncccc2C[N-]C(=O)NCc2cccc(C)c2)cc1 (protonated)
COc1ccc(Oc2ncccc2C[N-]C(=O)NCc2cccc(C)c2)cc1 (3D coordinates assigned)
COc1ccc(Oc2ncccc2C[N-]C(=O)NCc2cccc(C)c2)cc1 (optimized conformer: 55.933054774777844 kcal/mol)

>  <smiles>  (10) 
COc1ccc(Oc2ncccc2CNC(=O)NCc2cccc(C)c2)cc1

>  <score_type>  (10) 
oracle

>  <origin>  (10) 
adgpu

>  <m_score__min__energy>  (10) 
-10

>  <m_primary>  (10) 
energy

$$$$
10:0
     RDKit          3D

 38 40  0  0  0  0  0  0  0  0999 V2000
   -4.2180   20.8650  -33.8040 N   0  0  0  0  0  0  0  0  0  0  0  0
   -5.0910   19.7630  -33.5150 C   0  0  0  0  0  0  0  0  0  0  0  0
   -4.7130   18.4720  -33.9070 C   0  0  0  0  0  0  0  0  0  0  0  0
   -5.5470   17.4190  -33.7050 N   0  0  0  0  0  0  0  0  0  0  0  0
   -6.7620   17.5730  -33.1200 C   0  0  0  0  0  0  0  0  0  0  0  0
   -7.1810   18.8350  -32.7000 C   0  0  0  0  0  0  0  0  0  0  0  0
   -6.3440   19.9460  -32.8830 C   0  0  0  0  0  0  0  0  0  0  0  0
   -6.7830   21.2650  -32.3700 C   0  0  0  0  0  0  0  0  0  0  0  0
   -8.1430   21.5160  -32.1240 C   0  0  0  0  0  0  0  0  0  0  0  0
   -8.5500   22.7490  -31.6060 C   0  0  0  0  0  0  0  0  0  0  0  0
   -7.6050   23.7440  -31.3380 C   0  0  0  0  0  0  0  0  0  0  0  0
   -6.2480   23.5170  -31.5930 C   0  0  0  0  0  0  0  0  0  0  0  0
   -5.3010   24.5540  -31.3040 N   0  0  0  0  0  0  0  0  0  0  0  0
   -4.6400   24.7380  -30.0460 C   0  0  0  0  0  0  0  0  0  0  0  0
   -5.3330   24.8160  -28.9970 O   0  0  0  0  0  0  0  0  0  0  0  0
   -3.2180   24.9260  -29.9890 N   0  0  0  0  0  0  0  0  0  0  0  0
   -2.4020   24.6040  -28.8490 C   0  0  0  0  0  0  0  0  0  0  0  0
   -1.5040   25.5380  -28.2980 C   0  0  0  0  0  0  0  0  0  0  0  0
   -0.7490   25.2080  -27.1680 C   0  0  0  0  0  0  0  0  0  0  0  0
   -0.8900   23.9510  -26.5710 C   0  0  0  0  0  0  0  0  0  0  0  0
    0.0560   23.5420  -25.1510 Cl  0  0  0  0  0  0  0  0  0  0  0  0
   -1.7940   23.0260  -27.1010 C   0  0  0  0  0  0  0  0  0  0  0  0
   -2.5510   23.3530  -28.2300 C   0  0  0  0  0  0  0  0  0  0  0  0
   -5.8380   22.2620  -32.0760 C   0  0  0  0  0  0  0  0  0  0  0  0
   -4.5990   21.7510  -34.2060 H   0  0  0  0  0  0  0  0  0  0  0  0
   -3.2080   20.8500  -33.5480 H   0  0  0  0  0  0  0  0  0  0  0  0
   -3.7340   18.3101  -34.3817 H   0  0  0  0  0  0  0  0  0  0  0  0
   -7.4172   16.7010  -32.9770 H   0  0  0  0  0  0  0  0  0  0  0  0
   -8.1659   18.9592  -32.2261 H   0  0  0  0  0  0  0  0  0  0  0  0
   -8.8910   20.7389  -32.3399 H   0  0  0  0  0  0  0  0  0  0  0  0
   -9.6158   22.9368  -31.4089 H   0  0  0  0  0  0  0  0  0  0  0  0
   -7.9299   24.7102  -30.9246 H   0  0  0  0  0  0  0  0  0  0  0  0
   -2.7550   25.3490  -30.8240 H   0  0  0  0  0  0  0  0  0  0  0  0
   -1.3958   26.5312  -28.7582 H   0  0  0  0  0  0  0  0  0  0  0  0
   -0.0425   25.9388  -26.7476 H   0  0  0  0  0  0  0  0  0  0  0  0
   -1.9100   22.0392  -26.6290 H   0  0  0  0  0  0  0  0  0  0  0  0
   -3.2685   22.6248  -28.6361 H   0  0  0  0  0  0  0  0  0  0  0  0
   -4.7673   22.0588  -32.2251 H   0  0  0  0  0  0  0  0  0  0  0  0
  1  2  1  0
  2  3  2  0
  3  4  1  0
  4  5  2  0
  5  6  1  0
  6  7  2  0
  7  8  1  0
  8  9  2  0
  9 10  1  0
 10 11  2  0
 11 12  1  0
 12 13  1  0
 13 14  1  0
 14 15  2  0
 14 16  1  0
 16 17  1  0
 17 18  2  0
 18 19  1  0
 19 20  2  0
 20 21  1  0
 20 22  1  0
 22 23  2  0
 12 24  2  0
  7  2  1  0
 24  8  1  0
 23 17  1  0
  1 25  1  0
  1 26  1  0
  3 27  1  0
  5 28  1  0
  6 29  1  0
  9 30  1  0
 10 31  1  0
 11 32  1  0
 16 33  1  0
 18 34  1  0
 19 35  1  0
 22 36  1  0
 23 37  1  0
 24 38  1  0
M  CHG  1  13  -1
M  END
>  <UniqueID>  (11) 
10

>  <SMILES>  (11) 
Nc1cnccc1-c1cccc([N-]C(=O)Nc2ccc(Cl)cc2)c1

>  <Energy>  (11) 
54.42464429742854

>  <Genealogy>  (11) 
Nc1cnccc1-c1cccc([N-]C(=O)Nc2ccc(Cl)cc2)c1 (protonated)
Nc1cnccc1-c1cccc([N-]C(=O)Nc2ccc(Cl)cc2)c1 (3D coordinates assigned)
Nc1cnccc1-c1cccc([N-]C(=O)Nc2ccc(Cl)cc2)c1 (optimized conformer: 54.42464429742854 kcal/mol)

>  <smiles>  (11) 
Nc1cnccc1-c1cccc(NC(=O)Nc2ccc(Cl)cc2)c1

>  <score_type>  (11) 
oracle

>  <origin>  (11) 
adgpu

>  <m_score__min__energy>  (11) 
-10.029999999999999

>  <m_primary>  (11) 
energy

$$$$
11:0
     RDKit          3D

 50 53  0  0  0  0  0  0  0  0999 V2000
   -1.0680   17.6220  -34.5150 C   0  0  0  0  0  0  0  0  0  0  0  0
   -2.1930   17.4320  -33.6650 O   0  0  0  0  0  0  0  0  0  0  0  0
   -3.4690   17.9710  -33.8980 C   0  0  0  0  0  0  0  0  0  0  0  0
   -4.3870   17.3560  -34.7740 C   0  0  0  0  0  0  0  0  0  0  0  0
   -5.6670   17.8900  -34.9460 C   0  0  0  0  0  0  0  0  0  0  0  0
   -6.0480   19.0340  -34.2450 C   0  0  0  0  0  0  0  0  0  0  0  0
   -5.1470   19.6570  -33.3800 C   0  0  0  0  0  0  0  0  0  0  0  0
   -3.8500   19.1470  -33.2190 C   0  0  0  0  0  0  0  0  0  0  0  0
   -2.9500   19.8120  -32.3210 N   0  0  0  0  0  0  0  0  0  0  0  0
   -1.8570   20.6270  -32.7720 C   0  0  0  0  0  0  0  0  0  0  0  0
   -1.6200   20.7570  -34.0040 O   0  0  0  0  0  0  0  0  0  0  0  0
   -1.0490   21.4070  -31.7800 C   0  0  0  0  0  0  0  0  0  0  0  0
   -1.9410   22.1620  -30.9030 N   0  0  0  0  0  0  0  0  0  0  0  0
   -3.1990   22.5580  -31.2110 C   0  0  0  0  0  0  0  0  0  0  0  0
   -3.6840   23.4130  -30.2330 C   0  0  0  0  0  0  0  0  0  0  0  0
   -5.1780   24.3290  -30.3070 S   0  0  0  0  0  0  0  0  0  0  0  0
   -4.9880   25.5140  -31.2130 O   0  0  0  0  0  0  0  0  0  0  0  0
   -5.5450   24.8240  -28.9360 O   0  0  0  0  0  0  0  0  0  0  0  0
   -6.4480   23.2710  -30.9070 C   0  0  0  0  0  0  0  0  0  0  0  0
   -6.2440   21.8840  -30.9170 C   0  0  0  0  0  0  0  0  0  0  0  0
   -7.2320   21.0310  -31.4180 C   0  0  0  0  0  0  0  0  0  0  0  0
   -8.4290   21.5600  -31.9100 C   0  0  0  0  0  0  0  0  0  0  0  0
   -8.6380   22.9430  -31.9020 C   0  0  0  0  0  0  0  0  0  0  0  0
   -7.6500   23.7980  -31.4040 C   0  0  0  0  0  0  0  0  0  0  0  0
   -2.6700   23.5540  -29.3090 C   0  0  0  0  0  0  0  0  0  0  0  0
   -2.5740   24.3540  -28.1700 C   0  0  0  0  0  0  0  0  0  0  0  0
   -1.3640   24.3340  -27.4530 C   0  0  0  0  0  0  0  0  0  0  0  0
   -1.1900   25.3170  -26.0120 Cl  0  0  0  0  0  0  0  0  0  0  0  0
   -0.2860   23.5350  -27.8940 C   0  0  0  0  0  0  0  0  0  0  0  0
   -0.4070   22.7520  -29.0570 C   0  0  0  0  0  0  0  0  0  0  0  0
   -1.6240   22.7800  -29.7440 C   0  0  0  0  0  0  0  0  0  0  0  0
   -0.1671   17.7741  -33.9024 H   0  0  0  0  0  0  0  0  0  0  0  0
   -0.9340   16.7338  -35.1499 H   0  0  0  0  0  0  0  0  0  0  0  0
   -1.2331   18.5050  -35.1499 H   0  0  0  0  0  0  0  0  0  0  0  0
   -4.0939   16.4504  -35.3253 H   0  0  0  0  0  0  0  0  0  0  0  0
   -6.3752   17.4072  -35.6354 H   0  0  0  0  0  0  0  0  0  0  0  0
   -7.0598   19.4458  -34.3740 H   0  0  0  0  0  0  0  0  0  0  0  0
   -5.4556   20.5529  -32.8214 H   0  0  0  0  0  0  0  0  0  0  0  0
   -3.2220   19.8700  -31.3140 H   0  0  0  0  0  0  0  0  0  0  0  0
   -0.4431   20.7148  -31.1769 H   0  0  0  0  0  0  0  0  0  0  0  0
   -0.3889   22.1048  -32.3161 H   0  0  0  0  0  0  0  0  0  0  0  0
   -3.7555   22.2465  -32.1073 H   0  0  0  0  0  0  0  0  0  0  0  0
   -5.3035   21.4655  -30.5294 H   0  0  0  0  0  0  0  0  0  0  0  0
   -7.0675   19.9434  -31.4251 H   0  0  0  0  0  0  0  0  0  0  0  0
   -9.2064   20.8886  -32.3034 H   0  0  0  0  0  0  0  0  0  0  0  0
   -9.5806   23.3585  -32.2879 H   0  0  0  0  0  0  0  0  0  0  0  0
   -7.8152   24.8855  -31.4018 H   0  0  0  0  0  0  0  0  0  0  0  0
   -3.4173   24.9802  -27.8432 H   0  0  0  0  0  0  0  0  0  0  0  0
    0.6549   23.5247  -27.3243 H   0  0  0  0  0  0  0  0  0  0  0  0
    0.4313   22.1362  -29.4148 H   0  0  0  0  0  0  0  0  0  0  0  0
  1  2  1  0
  2  3  1  0
  3  4  2  0
  4  5  1  0
  5  6  2  0
  6  7  1  0
  7  8  2  0
  8  9  1  0
  9 10  1  0
 10 11  2  0
 10 12  1  0
 12 13  1  0
 13 14  1  0
 14 15  2  0
 15 16  1  0
 16 17  2  0
 16 18  2  0
 16 19  1  0
 19 20  2  0
 20 21  1  0
 21 22  2  0
 22 23  1  0
 23 24  2  0
 15 25  1  0
 25 26  2  0
 26 27  1  0
 27 28  1  0
 27 29  2  0
 29 30  1  0
 30 31  2  0
  8  3  1  0
 31 13  1  0
 24 19  1  0
 31 25  1  0
  1 32  1  0
  1 33  1  0
  1 34  1  0
  4 35  1  0
  5 36  1  0
  6 37  1  0
  7 38  1  0
  9 39  1  0
 12 40  1  0
 12 41  1  0
 14 42  1  0
 20 43  1  0
 21 44  1  0
 22 45  1  0
 23 46  1  0
 24 47  1  0
 26 48  1  0
 29 49  1  0
 30 50  1  0
M  END
>  <UniqueID>  (12) 
11

>  <SMILES>  (12) 
COc1ccccc1NC(=O)Cn1cc(S(=O)(=O)c2ccccc2)c2cc(Cl)ccc21

>  <Energy>  (12) 
90.58422017757219

>  <Genealogy>  (12) 
COc1ccccc1NC(=O)Cn1cc(S(=O)(=O)c2ccccc2)c2cc(Cl)ccc21 (3D coordinates assigned)
COc1ccccc1NC(=O)Cn1cc(S(=O)(=O)c2ccccc2)c2cc(Cl)ccc21 (optimized conformer: 90.58422017757219 kcal/mol)

>  <smiles>  (12) 
COc1ccccc1NC(=O)Cn1cc(S(=O)(=O)c2ccccc2)c2cc(Cl)ccc21

>  <score_type>  (12) 
oracle

>  <origin>  (12) 
adgpu

>  <m_score__min__energy>  (12) 
-10.18

>  <m_primary>  (12) 
energy

$$$$
12:0
     RDKit          3D

 37 39  0  0  0  0  0  0  0  0999 V2000
   -4.8880   25.8730  -30.8370 O   0  0  0  0  0  0  0  0  0  0  0  0
   -4.2610   24.8220  -30.5390 C   0  0  0  0  0  0  0  0  0  0  0  0
   -3.1100   24.9280  -29.6900 N   0  0  0  0  0  0  0  0  0  0  0  0
   -2.4200   23.8390  -29.0590 C   0  0  0  0  0  0  0  0  0  0  0  0
   -1.0710   23.6260  -29.3620 C   0  0  0  0  0  0  0  0  0  0  0  0
   -0.3700   22.5680  -28.7750 C   0  0  0  0  0  0  0  0  0  0  0  0
   -1.0210   21.6940  -27.8830 C   0  0  0  0  0  0  0  0  0  0  0  0
   -0.3680   20.6170  -27.2630 O   0  0  0  0  0  0  0  0  0  0  0  0
   -0.5370   19.2430  -27.6050 C   0  0  0  0  0  0  0  0  0  0  0  0
   -0.9860   19.1280  -28.9090 F   0  0  0  0  0  0  0  0  0  0  0  0
   -1.4380   18.6450  -26.7410 F   0  0  0  0  0  0  0  0  0  0  0  0
    0.6810   18.6000  -27.4940 F   0  0  0  0  0  0  0  0  0  0  0  0
   -2.3760   21.8960  -27.6010 C   0  0  0  0  0  0  0  0  0  0  0  0
   -3.0770   22.9530  -28.1870 C   0  0  0  0  0  0  0  0  0  0  0  0
   -4.7610   23.5150  -31.0270 C   0  0  0  0  0  0  0  0  0  0  0  0
   -3.8910   22.6090  -31.6490 C   0  0  0  0  0  0  0  0  0  0  0  0
   -4.3650   21.3790  -32.1070 C   0  0  0  0  0  0  0  0  0  0  0  0
   -5.7250   21.0590  -31.9560 C   0  0  0  0  0  0  0  0  0  0  0  0
   -6.2720   19.7620  -32.4290 C   0  0  0  0  0  0  0  0  0  0  0  0
   -7.4060   19.1900  -31.8220 C   0  0  0  0  0  0  0  0  0  0  0  0
   -7.9010   17.9640  -32.2690 C   0  0  0  0  0  0  0  0  0  0  0  0
   -7.2590   17.3100  -33.3200 C   0  0  0  0  0  0  0  0  0  0  0  0
   -6.1630   17.8660  -33.8980 N   0  0  0  0  0  0  0  0  0  0  0  0
   -5.6570   19.0580  -33.4820 C   0  0  0  0  0  0  0  0  0  0  0  0
   -4.5700   19.5640  -34.1190 F   0  0  0  0  0  0  0  0  0  0  0  0
   -6.5540   21.9600  -31.3620 N   0  0  0  0  0  0  0  0  0  0  0  0
   -6.1150   23.1620  -30.9050 C   0  0  0  0  0  0  0  0  0  0  0  0
   -0.5577   24.2960  -30.0675 H   0  0  0  0  0  0  0  0  0  0  0  0
    0.6939   22.4178  -29.0108 H   0  0  0  0  0  0  0  0  0  0  0  0
   -2.8953   21.2153  -26.9104 H   0  0  0  0  0  0  0  0  0  0  0  0
   -4.1454   23.0924  -27.9657 H   0  0  0  0  0  0  0  0  0  0  0  0
   -2.8298   22.8687  -31.7767 H   0  0  0  0  0  0  0  0  0  0  0  0
   -3.6781   20.6641  -32.5835 H   0  0  0  0  0  0  0  0  0  0  0  0
   -7.9043   19.7117  -30.9916 H   0  0  0  0  0  0  0  0  0  0  0  0
   -8.7888   17.5180  -31.7969 H   0  0  0  0  0  0  0  0  0  0  0  0
   -7.6404   16.3435  -33.6810 H   0  0  0  0  0  0  0  0  0  0  0  0
   -6.8232   23.8618  -30.4374 H   0  0  0  0  0  0  0  0  0  0  0  0
  1  2  2  0
  2  3  1  0
  3  4  1  0
  4  5  2  0
  5  6  1  0
  6  7  2  0
  7  8  1  0
  8  9  1  0
  9 10  1  0
  9 11  1  0
  9 12  1  0
  7 13  1  0
 13 14  2  0
  2 15  1  0
 15 16  2  0
 16 17  1  0
 17 18  2  0
 18 19  1  0
 19 20  2  0
 20 21  1  0
 21 22  2  0
 22 23  1  0
 23 24  2  0
 24 25  1  0
 18 26  1  0
 26 27  2  0
 14  4  1  0
 27 15  1  0
 24 19  1  0
  5 28  1  0
  6 29  1  0
 13 30  1  0
 14 31  1  0
 16 32  1  0
 17 33  1  0
 20 34  1  0
 21 35  1  0
 22 36  1  0
 27 37  1  0
M  CHG  1   3  -1
M  END
>  <UniqueID>  (13) 
12

>  <SMILES>  (13) 
O=C([N-]c1ccc(OC(F)(F)F)cc1)c1ccc(-c2cccnc2F)nc1

>  <Energy>  (13) 
53.43249619563369

>  <Genealogy>  (13) 
O=C([N-]c1ccc(OC(F)(F)F)cc1)c1ccc(-c2cccnc2F)nc1 (protonated)
O=C([N-]c1ccc(OC(F)(F)F)cc1)c1ccc(-c2cccnc2F)nc1 (3D coordinates assigned)
O=C([N-]c1ccc(OC(F)(F)F)cc1)c1ccc(-c2cccnc2F)nc1 (optimized conformer: 53.43249619563369 kcal/mol)

>  <smiles>  (13) 
O=C(Nc1ccc(OC(F)(F)F)cc1)c1ccc(-c2cccnc2F)nc1

>  <score_type>  (13) 
oracle

>  <origin>  (13) 
adgpu

>  <m_score__min__energy>  (13) 
-9.2699999999999996

>  <m_primary>  (13) 
energy

$$$$
13:0
     RDKit          3D

 23 25  0  0  0  0  0  0  0  0999 V2000
   -3.5320   20.0570  -30.8470 O   0  0  0  0  0  0  0  0  0  0  0  0
   -4.4280   20.9160  -31.0570 C   0  0  0  0  0  0  0  0  0  0  0  0
   -5.7680   20.6710  -31.5840 C   0  0  0  0  0  0  0  0  0  0  0  0
   -6.3760   19.4780  -31.9710 C   0  0  0  0  0  0  0  0  0  0  0  0
   -7.6980   19.5310  -32.4500 C   0  0  0  0  0  0  0  0  0  0  0  0
   -8.3280   18.3520  -32.8440 O   0  0  0  0  0  0  0  0  0  0  0  0
   -8.3770   20.7680  -32.5300 C   0  0  0  0  0  0  0  0  0  0  0  0
   -7.7440   21.9600  -32.1330 C   0  0  0  0  0  0  0  0  0  0  0  0
   -6.4330   21.8820  -31.6620 C   0  0  0  0  0  0  0  0  0  0  0  0
   -5.5350   22.9360  -31.1880 C   0  0  0  0  0  0  0  0  0  0  0  0
   -5.7400   24.3110  -31.0730 C   0  0  0  0  0  0  0  0  0  0  0  0
   -4.6870   25.1010  -30.5780 C   0  0  0  0  0  0  0  0  0  0  0  0
   -4.8590   26.4740  -30.4520 O   0  0  0  0  0  0  0  0  0  0  0  0
   -3.4590   24.5060  -30.2080 C   0  0  0  0  0  0  0  0  0  0  0  0
   -2.4230   25.2930  -29.7190 O   0  0  0  0  0  0  0  0  0  0  0  0
   -3.2750   23.1150  -30.3320 C   0  0  0  0  0  0  0  0  0  0  0  0
   -4.3320   22.3540  -30.8250 C   0  0  0  0  0  0  0  0  0  0  0  0
   -5.8372   18.5214  -31.9038 H   0  0  0  0  0  0  0  0  0  0  0  0
   -9.1030   18.3590  -33.4960 H   0  0  0  0  0  0  0  0  0  0  0  0
   -9.4102   20.7990  -32.9062 H   0  0  0  0  0  0  0  0  0  0  0  0
   -8.2675   22.9256  -32.1922 H   0  0  0  0  0  0  0  0  0  0  0  0
   -6.6994   24.7651  -31.3617 H   0  0  0  0  0  0  0  0  0  0  0  0
   -2.3230   22.6430  -30.0474 H   0  0  0  0  0  0  0  0  0  0  0  0
  1  2  2  0
  2  3  1  0
  3  4  2  0
  4  5  1  0
  5  6  1  0
  5  7  2  0
  7  8  1  0
  8  9  2  0
  9 10  1  0
 10 11  2  0
 11 12  1  0
 12 13  1  0
 12 14  2  0
 14 15  1  0
 14 16  1  0
 16 17  2  0
 17  2  1  0
  9  3  1  0
 17 10  1  0
  4 18  1  0
  6 19  1  0
  7 20  1  0
  8 21  1  0
 11 22  1  0
 16 23  1  0
M  CHG  2  13  -1  15  -1
M  END
>  <UniqueID>  (14) 
13

>  <SMILES>  (14) 
O=C1c2cc(O)ccc2-c2cc([O-])c([O-])cc21

>  <Energy>  (14) 
59.617038672768366

>  <Genealogy>  (14) 
O=C1c2cc(O)ccc2-c2cc([O-])c([O-])cc21 (protonated)
O=C1c2cc(O)ccc2-c2cc([O-])c([O-])cc21 (3D coordinates assigned)
O=C1c2cc(O)ccc2-c2cc([O-])c([O-])cc21 (nonaromatic ring conformer: 59.617038672768366 kcal/mol)

>  <smiles>  (14) 
O=C1c2cc(O)ccc2-c2cc(O)c(O)cc21

>  <score_type>  (14) 
oracle

>  <origin>  (14) 
adgpu

>  <m_score__min__energy>  (14) 
-10.970000000000001

>  <m_primary>  (14) 
energy

$$$$
14:0
     RDKit          3D

 40 42  0  0  0  0  0  0  0  0999 V2000
   -3.4760   20.1690  -28.0190 O   0  0  0  0  0  0  0  0  0  0  0  0
   -2.0480   20.5630  -27.7660 S   0  0  0  0  0  0  0  0  0  0  0  0
   -1.7670   20.4050  -26.2980 O   0  0  0  0  0  0  0  0  0  0  0  0
   -1.0030   19.4960  -28.6510 N   0  0  0  0  0  0  0  0  0  0  0  0
    0.3770   19.2620  -28.3550 C   0  0  0  0  0  0  0  0  0  0  0  0
    1.2900   20.3200  -28.2150 C   0  0  0  0  0  0  0  0  0  0  0  0
    2.6200   20.0610  -27.8660 C   0  0  0  0  0  0  0  0  0  0  0  0
    3.0390   18.7500  -27.6280 C   0  0  0  0  0  0  0  0  0  0  0  0
    4.3570   18.4950  -27.2690 O   0  0  0  0  0  0  0  0  0  0  0  0
    2.1290   17.6950  -27.7450 C   0  0  0  0  0  0  0  0  0  0  0  0
    0.8020   17.9510  -28.0990 C   0  0  0  0  0  0  0  0  0  0  0  0
   -1.8230   22.2540  -28.2040 C   0  0  0  0  0  0  0  0  0  0  0  0
   -0.7230   22.9710  -27.7140 C   0  0  0  0  0  0  0  0  0  0  0  0
   -0.5280   24.3010  -28.0960 C   0  0  0  0  0  0  0  0  0  0  0  0
   -1.4290   24.9210  -28.9670 C   0  0  0  0  0  0  0  0  0  0  0  0
   -1.2200   26.2450  -29.3390 O   0  0  0  0  0  0  0  0  0  0  0  0
   -2.5380   24.2170  -29.4600 C   0  0  0  0  0  0  0  0  0  0  0  0
   -3.4460   24.8850  -30.3480 N   0  0  0  0  0  0  0  0  0  0  0  0
   -5.1720   24.8980  -30.1930 S   0  0  0  0  0  0  0  0  0  0  0  0
   -5.7150   26.1400  -30.8390 O   0  0  0  0  0  0  0  0  0  0  0  0
   -5.5410   24.9160  -28.7360 O   0  0  0  0  0  0  0  0  0  0  0  0
   -5.8600   23.4910  -31.0000 C   0  0  0  0  0  0  0  0  0  0  0  0
   -5.0190   22.6140  -31.7010 C   0  0  0  0  0  0  0  0  0  0  0  0
   -5.5550   21.5080  -32.3640 C   0  0  0  0  0  0  0  0  0  0  0  0
   -6.9320   21.2670  -32.3270 C   0  0  0  0  0  0  0  0  0  0  0  0
   -7.7730   22.1280  -31.6160 C   0  0  0  0  0  0  0  0  0  0  0  0
   -7.2400   23.2410  -30.9570 C   0  0  0  0  0  0  0  0  0  0  0  0
   -2.7280   22.8790  -29.0710 C   0  0  0  0  0  0  0  0  0  0  0  0
    0.9584   21.3557  -28.3803 H   0  0  0  0  0  0  0  0  0  0  0  0
    3.3366   20.8910  -27.7789 H   0  0  0  0  0  0  0  0  0  0  0  0
    2.4583   16.6622  -27.5581 H   0  0  0  0  0  0  0  0  0  0  0  0
    0.0866   17.1191  -28.1773 H   0  0  0  0  0  0  0  0  0  0  0  0
   -0.0125   22.4864  -27.0281 H   0  0  0  0  0  0  0  0  0  0  0  0
    0.3364   24.8615  -27.7105 H   0  0  0  0  0  0  0  0  0  0  0  0
   -3.9348   22.7979  -31.7285 H   0  0  0  0  0  0  0  0  0  0  0  0
   -4.8928   20.8251  -32.9164 H   0  0  0  0  0  0  0  0  0  0  0  0
   -7.3533   20.4002  -32.8572 H   0  0  0  0  0  0  0  0  0  0  0  0
   -8.8543   21.9303  -31.5747 H   0  0  0  0  0  0  0  0  0  0  0  0
   -7.9041   23.9215  -30.4040 H   0  0  0  0  0  0  0  0  0  0  0  0
   -3.5949   22.3185  -29.4510 H   0  0  0  0  0  0  0  0  0  0  0  0
  1  2  2  0
  2  3  2  0
  2  4  1  0
  4  5  1  0
  5  6  2  0
  6  7  1  0
  7  8  2  0
  8  9  1  0
  8 10  1  0
 10 11  2  0
  2 12  1  0
 12 13  2  0
 13 14  1  0
 14 15  2  0
 15 16  1  0
 15 17  1  0
 17 18  1  0
 18 19  1  0
 19 20  2  0
 19 21  2  0
 19 22  1  0
 22 23  2  0
 23 24  1  0
 24 25  2  0
 25 26  1  0
 26 27  2  0
 17 28  2  0
 11  5  1  0
 28 12  1  0
 27 22  1  0
  6 29  1  0
  7 30  1  0
 10 31  1  0
 11 32  1  0
 13 33  1  0
 14 34  1  0
 23 35  1  0
 24 36  1  0
 25 37  1  0
 26 38  1  0
 27 39  1  0
 28 40  1  0
M  CHG  4   4  -1   9  -1  16  -1  18  -1
M  END
>  <UniqueID>  (15) 
14

>  <SMILES>  (15) 
O=S(=O)([N-]c1ccc([O-])cc1)c1ccc([O-])c([N-]S(=O)(=O)c2ccccc2)c1

>  <Energy>  (15) 
51.35647430200523

>  <Genealogy>  (15) 
O=S(=O)([N-]c1ccc([O-])cc1)c1ccc([O-])c([N-]S(=O)(=O)c2ccccc2)c1 (protonated)
O=S(=O)([N-]c1ccc([O-])cc1)c1ccc([O-])c([N-]S(=O)(=O)c2ccccc2)c1 (3D coordinates assigned)
O=S(=O)([N-]c1ccc([O-])cc1)c1ccc([O-])c([N-]S(=O)(=O)c2ccccc2)c1 (optimized conformer: 51.35647430200523 kcal/mol)

>  <smiles>  (15) 
O=S(=O)(Nc1ccc(O)cc1)c1ccc(O)c(NS(=O)(=O)c2ccccc2)c1

>  <score_type>  (15) 
oracle

>  <origin>  (15) 
adgpu

>  <m_score__min__energy>  (15) 
-13.550000000000001

>  <m_primary>  (15) 
energy

$$$$
15:0
     RDKit          3D

 45 47  0  0  0  0  0  0  0  0999 V2000
   -5.4180   17.8290  -34.9420 C   0  0  0  0  0  0  0  0  0  0  0  0
   -5.7200   16.9390  -33.8270 N   0  0  0  0  0  0  0  0  0  0  0  0
   -6.1470   17.3530  -32.5230 C   0  0  0  0  0  0  0  0  0  0  0  0
   -5.7650   16.6870  -31.5270 O   0  0  0  0  0  0  0  0  0  0  0  0
   -6.9800   18.5500  -32.2970 C   0  0  0  0  0  0  0  0  0  0  0  0
   -6.4970   19.8390  -32.5630 C   0  0  0  0  0  0  0  0  0  0  0  0
   -7.3510   20.9470  -32.4160 C   0  0  0  0  0  0  0  0  0  0  0  0
   -6.9280   22.2600  -32.6790 O   0  0  0  0  0  0  0  0  0  0  0  0
   -6.5800   23.2160  -31.7100 C   0  0  0  0  0  0  0  0  0  0  0  0
   -7.5590   23.6460  -30.8070 C   0  0  0  0  0  0  0  0  0  0  0  0
   -7.2360   24.5580  -29.7980 C   0  0  0  0  0  0  0  0  0  0  0  0
   -5.9330   25.0510  -29.6910 C   0  0  0  0  0  0  0  0  0  0  0  0
   -4.9570   24.6760  -30.6200 C   0  0  0  0  0  0  0  0  0  0  0  0
   -3.6180   25.1560  -30.4560 N   0  0  0  0  0  0  0  0  0  0  0  0
   -2.6170   24.5470  -29.6320 C   0  0  0  0  0  0  0  0  0  0  0  0
   -2.5810   23.2960  -29.4980 O   0  0  0  0  0  0  0  0  0  0  0  0
   -1.5910   25.3440  -29.0370 N   0  0  0  0  0  0  0  0  0  0  0  0
   -1.0520   25.1440  -27.7220 C   0  0  0  0  0  0  0  0  0  0  0  0
   -0.1680   24.0870  -27.4400 C   0  0  0  0  0  0  0  0  0  0  0  0
    0.3520   23.9290  -26.1530 C   0  0  0  0  0  0  0  0  0  0  0  0
    0.0120   24.8320  -25.1430 C   0  0  0  0  0  0  0  0  0  0  0  0
   -0.8370   25.9150  -25.4210 C   0  0  0  0  0  0  0  0  0  0  0  0
   -1.2340   26.8600  -24.3260 C   0  0  0  0  0  0  0  0  0  0  0  0
   -1.3720   26.0600  -26.7120 C   0  0  0  0  0  0  0  0  0  0  0  0
   -5.2870   23.7650  -31.6390 C   0  0  0  0  0  0  0  0  0  0  0  0
   -8.6550   20.7430  -31.9590 C   0  0  0  0  0  0  0  0  0  0  0  0
   -9.1060   19.4450  -31.7120 C   0  0  0  0  0  0  0  0  0  0  0  0
   -8.2720   18.3880  -31.8990 N   0  0  0  0  0  0  0  0  0  0  0  0
   -5.0873   18.8037  -34.5540 H   0  0  0  0  0  0  0  0  0  0  0  0
   -4.6190   17.3887  -35.5566 H   0  0  0  0  0  0  0  0  0  0  0  0
   -6.3200   17.9659  -35.5566 H   0  0  0  0  0  0  0  0  0  0  0  0
   -5.4552   19.9832  -32.8851 H   0  0  0  0  0  0  0  0  0  0  0  0
   -8.5873   23.2646  -30.8916 H   0  0  0  0  0  0  0  0  0  0  0  0
   -8.0084   24.8878  -29.0876 H   0  0  0  0  0  0  0  0  0  0  0  0
   -5.6734   25.7377  -28.8718 H   0  0  0  0  0  0  0  0  0  0  0  0
    0.1150   23.3822  -28.2357 H   0  0  0  0  0  0  0  0  0  0  0  0
    1.0308   23.0915  -25.9345 H   0  0  0  0  0  0  0  0  0  0  0  0
    0.4105   24.6942  -24.1270 H   0  0  0  0  0  0  0  0  0  0  0  0
   -1.0378   26.3930  -23.3496 H   0  0  0  0  0  0  0  0  0  0  0  0
   -0.6496   27.7879  -24.4127 H   0  0  0  0  0  0  0  0  0  0  0  0
   -2.3057   27.0922  -24.4127 H   0  0  0  0  0  0  0  0  0  0  0  0
   -2.0477   26.8998  -26.9313 H   0  0  0  0  0  0  0  0  0  0  0  0
   -4.5300   23.4802  -32.3845 H   0  0  0  0  0  0  0  0  0  0  0  0
   -9.3235   21.6010  -31.7945 H   0  0  0  0  0  0  0  0  0  0  0  0
  -10.1366   19.2776  -31.3659 H   0  0  0  0  0  0  0  0  0  0  0  0
  1  2  1  0
  2  3  1  0
  3  4  2  0
  3  5  1  0
  5  6  2  0
  6  7  1  0
  7  8  1  0
  8  9  1  0
  9 10  2  0
 10 11  1  0
 11 12  2  0
 12 13  1  0
 13 14  1  0
 14 15  1  0
 15 16  2  0
 15 17  1  0
 17 18  1  0
 18 19  2  0
 19 20  1  0
 20 21  2  0
 21 22  1  0
 22 23  1  0
 22 24  2  0
 13 25  2  0
  7 26  2  0
 26 27  1  0
 27 28  2  0
 28  5  1  0
 25  9  1  0
 24 18  1  0
  1 29  1  0
  1 30  1  0
  1 31  1  0
  6 32  1  0
 10 33  1  0
 11 34  1  0
 12 35  1  0
 19 36  1  0
 20 37  1  0
 21 38  1  0
 23 39  1  0
 23 40  1  0
 23 41  1  0
 24 42  1  0
 25 43  1  0
 26 44  1  0
 27 45  1  0
M  CHG  3   2  -1  14  -1  17  -1
M  END
>  <UniqueID>  (16) 
15

>  <SMILES>  (16) 
C[N-]C(=O)c1cc(Oc2cccc([N-]C(=O)[N-]c3cccc(C)c3)c2)ccn1

>  <Energy>  (16) 
63.84374355756403

>  <Genealogy>  (16) 
C[N-]C(=O)c1cc(Oc2cccc([N-]C(=O)[N-]c3cccc(C)c3)c2)ccn1 (protonated)
C[N-]C(=O)c1cc(Oc2cccc([N-]C(=O)[N-]c3cccc(C)c3)c2)ccn1 (3D coordinates assigned)
C[N-]C(=O)c1cc(Oc2cccc([N-]C(=O)[N-]c3cccc(C)c3)c2)ccn1 (optimized conformer: 63.84374355756403 kcal/mol)

>  <smiles>  (16) 
CNC(=O)c1cc(Oc2cccc(NC(=O)Nc3cccc(C)c3)c2)ccn1

>  <score_type>  (16) 
oracle

>  <origin>  (16) 
adgpu

>  <m_score__min__energy>  (16) 
-11.880000000000001

>  <m_primary>  (16) 
energy

$$$$
16:0
     RDKit          3D

 50 53  0  0  0  0  0  0  0  0999 V2000
   -1.1184   25.0140  -29.1191 H   0  0  0  0  0  0  0  0  0  0  0  0
   -2.1940   24.8120  -29.0080 C   0  0  0  0  0  0  0  0  0  0  0  0
   -3.0170   24.9150  -30.0860 N   0  0  0  0  0  0  0  0  0  0  0  0
   -4.3530   24.6750  -30.0120 C   0  0  0  0  0  0  0  0  0  0  0  0
   -5.0660   24.7910  -31.0970 N   0  0  0  0  0  0  0  0  0  0  0  0
   -6.5050   24.5600  -31.2420 C   0  0  0  0  0  0  0  0  0  0  0  0
   -7.0105   24.8334  -30.3041 H   0  0  0  0  0  0  0  0  0  0  0  0
   -6.8793   25.1767  -32.0724 H   0  0  0  0  0  0  0  0  0  0  0  0
   -6.7860   23.1110  -31.5510 C   0  0  0  0  0  0  0  0  0  0  0  0
   -7.9300   22.4920  -31.0310 C   0  0  0  0  0  0  0  0  0  0  0  0
   -8.6272   23.0700  -30.4066 H   0  0  0  0  0  0  0  0  0  0  0  0
   -8.1920   21.1480  -31.2990 C   0  0  0  0  0  0  0  0  0  0  0  0
   -9.0961   20.6774  -30.8854 H   0  0  0  0  0  0  0  0  0  0  0  0
   -7.3110   20.3860  -32.0940 C   0  0  0  0  0  0  0  0  0  0  0  0
   -6.1610   21.0150  -32.6270 C   0  0  0  0  0  0  0  0  0  0  0  0
   -5.8970   22.3620  -32.3330 C   0  0  0  0  0  0  0  0  0  0  0  0
   -4.9824   22.8345  -32.7207 H   0  0  0  0  0  0  0  0  0  0  0  0
   -5.1690   20.2370  -33.4540 C   0  0  0  0  0  0  0  0  0  0  0  0
   -4.7558   20.8973  -34.2307 H   0  0  0  0  0  0  0  0  0  0  0  0
   -4.3748   19.8721  -32.7861 H   0  0  0  0  0  0  0  0  0  0  0  0
   -5.8220   19.0300  -34.1250 C   0  0  0  0  0  0  0  0  0  0  0  0
   -6.5383   19.3788  -34.8834 H   0  0  0  0  0  0  0  0  0  0  0  0
   -5.0421   18.4170  -34.6003 H   0  0  0  0  0  0  0  0  0  0  0  0
   -6.5570   18.1860  -33.0870 C   0  0  0  0  0  0  0  0  0  0  0  0
   -7.0481   17.3406  -33.5910 H   0  0  0  0  0  0  0  0  0  0  0  0
   -5.8285   17.8190  -32.3491 H   0  0  0  0  0  0  0  0  0  0  0  0
   -7.5730   18.9890  -32.3900 N   0  0  0  0  0  0  0  0  0  0  0  0
   -8.8090   18.3350  -31.9470 C   0  0  0  0  0  0  0  0  0  0  0  0
   -8.8411   18.3180  -30.8476 H   0  0  0  0  0  0  0  0  0  0  0  0
   -9.6764   18.8921  -32.3306 H   0  0  0  0  0  0  0  0  0  0  0  0
   -8.8363   17.3044  -32.3306 H   0  0  0  0  0  0  0  0  0  0  0  0
   -4.9130   24.3140  -28.7710 C   0  0  0  0  0  0  0  0  0  0  0  0
   -5.9927   24.1216  -28.6859 H   0  0  0  0  0  0  0  0  0  0  0  0
   -4.0890   24.2020  -27.6500 C   0  0  0  0  0  0  0  0  0  0  0  0
   -4.5219   23.9185  -26.6793 H   0  0  0  0  0  0  0  0  0  0  0  0
   -2.7110   24.4490  -27.7540 C   0  0  0  0  0  0  0  0  0  0  0  0
   -1.8230   24.3330  -26.5690 C   0  0  0  0  0  0  0  0  0  0  0  0
   -1.1190   23.1420  -26.3180 C   0  0  0  0  0  0  0  0  0  0  0  0
   -1.2212   22.2918  -27.0085 H   0  0  0  0  0  0  0  0  0  0  0  0
   -0.2910   23.0300  -25.1990 C   0  0  0  0  0  0  0  0  0  0  0  0
    0.2524   22.0924  -25.0104 H   0  0  0  0  0  0  0  0  0  0  0  0
   -0.1510   24.1050  -24.3190 C   0  0  0  0  0  0  0  0  0  0  0  0
    0.4939   24.0080  -23.4332 H   0  0  0  0  0  0  0  0  0  0  0  0
   -0.8300   25.3080  -24.5610 C   0  0  0  0  0  0  0  0  0  0  0  0
   -0.7060   26.4490  -23.5940 C   0  0  0  0  0  0  0  0  0  0  0  0
   -0.7479   26.0634  -22.5646 H   0  0  0  0  0  0  0  0  0  0  0  0
    0.2533   26.9629  -23.7543 H   0  0  0  0  0  0  0  0  0  0  0  0
   -1.5325   27.1570  -23.7543 H   0  0  0  0  0  0  0  0  0  0  0  0
   -1.6740   25.4130  -25.6770 C   0  0  0  0  0  0  0  0  0  0  0  0
   -2.2248   26.3480  -25.8571 H   0  0  0  0  0  0  0  0  0  0  0  0
  1  2  1  0
  2  3  1  0
  3  4  1  0
  4  5  2  0
  5  6  1  0
  6  7  1  0
  6  8  1  0
  6  9  1  0
  9 10  2  0
 10 11  1  0
 10 12  1  0
 12 13  1  0
 12 14  2  0
 14 15  1  0
 15 16  2  0
 16 17  1  0
 15 18  1  0
 18 19  1  0
 18 20  1  0
 18 21  1  0
 21 22  1  0
 21 23  1  0
 21 24  1  0
 24 25  1  0
 24 26  1  0
 24 27  1  0
 27 28  1  0
 28 29  1  0
 28 30  1  0
 28 31  1  0
  4 32  1  0
 32 33  1  0
 32 34  2  0
 34 35  1  0
 34 36  1  0
 36 37  1  0
 37 38  2  0
 38 39  1  0
 38 40  1  0
 40 41  1  0
 40 42  2  0
 42 43  1  0
 42 44  1  0
 44 45  1  0
 45 46  1  0
 45 47  1  0
 45 48  1  0
 44 49  2  0
 49 50  1  0
 36  2  2  0
 49 37  1  0
 16  9  1  0
 27 14  1  0
M  CHG  1   3  -1
M  END
>  <UniqueID>  (17) 
16

>  <SMILES>  (17) 
Cc1cccc(-c2cc/c(=N\Cc3ccc4c(c3)CCCN4C)[n-]c2)c1

>  <Energy>  (17) 
59.96509947683837

>  <Genealogy>  (17) 
Cc1cccc(-c2ccc(=NCc3ccc4c(c3)CCCN4C)[n-]c2)c1 (protonated)
Cc1cccc(-c2cc/c(=N\Cc3ccc4c(c3)CCCN4C)[n-]c2)c1 (cis-trans isomerization)
Cc1cccc(-c2cc/c(=N\Cc3ccc4c(c3)CCCN4C)[n-]c2)c1 (3D coordinates assigned)
Cc1cccc(-c2cc/c(=N\Cc3ccc4c(c3)CCCN4C)[n-]c2)c1 (nonaromatic ring conformer: 59.96509947683837 kcal/mol)

>  <smiles>  (17) 
Cc1cccc(-c2ccc(=NCc3ccc4c(c3)CCCN4C)[nH]c2)c1

>  <score_type>  (17) 
oracle

>  <origin>  (17) 
adgpu

>  <m_score__min__energy>  (17) 
-11.779999999999999

>  <m_primary>  (17) 
energy

$$$$
17:0
     RDKit          3D

 77 81  0  0  0  0  0  0  0  0999 V2000
   -9.4530   22.3150  -31.3690 C   0  0  0  0  0  0  0  0  0  0  0  0
   -9.0460   20.9100  -30.9320 C   0  0  0  0  0  0  0  0  0  0  0  0
   -9.0050   19.9150  -32.1000 C   0  0  0  0  0  0  0  0  0  0  0  0
   -7.5880   19.5460  -32.4750 C   0  0  0  0  0  0  0  0  0  0  0  0
   -7.3000   18.2230  -32.5360 N   0  0  0  0  0  0  0  0  0  0  0  0
   -6.0820   17.7480  -32.8960 C   0  0  0  0  0  0  0  0  0  0  0  0
   -5.8610   16.2470  -32.9180 C   0  0  0  0  0  0  0  0  0  0  0  0
   -6.4930   15.5710  -34.1360 C   0  0  0  0  0  0  0  0  0  0  0  0
   -5.1000   18.6280  -33.2760 N   0  0  0  0  0  0  0  0  0  0  0  0
   -3.8160   18.1580  -33.7310 C   0  0  0  0  0  0  0  0  0  0  0  0
   -3.7140   17.3850  -34.8950 C   0  0  0  0  0  0  0  0  0  0  0  0
   -2.4570   16.9580  -35.3250 C   0  0  0  0  0  0  0  0  0  0  0  0
   -1.3070   17.2980  -34.5960 C   0  0  0  0  0  0  0  0  0  0  0  0
    0.0420   16.8700  -35.0410 C   0  0  0  0  0  0  0  0  0  0  0  0
    0.6410   15.9710  -34.3880 O   0  0  0  0  0  0  0  0  0  0  0  0
    0.7100   17.4580  -36.2280 C   0  0  0  0  0  0  0  0  0  0  0  0
    0.8140   16.7140  -37.4170 C   0  0  0  0  0  0  0  0  0  0  0  0
    1.4240   17.2670  -38.5470 C   0  0  0  0  0  0  0  0  0  0  0  0
    1.9250   18.5710  -38.5060 C   0  0  0  0  0  0  0  0  0  0  0  0
    1.8110   19.3250  -37.3350 C   0  0  0  0  0  0  0  0  0  0  0  0
    1.2040   18.7760  -36.2020 C   0  0  0  0  0  0  0  0  0  0  0  0
   -1.4540   18.1000  -33.4530 C   0  0  0  0  0  0  0  0  0  0  0  0
   -2.6890   18.5040  -33.0520 N   0  0  0  0  0  0  0  0  0  0  0  0
   -5.3310   19.9790  -33.2240 C   0  0  0  0  0  0  0  0  0  0  0  0
   -4.4170   20.7840  -33.5620 O   0  0  0  0  0  0  0  0  0  0  0  0
   -6.5830   20.4830  -32.8130 C   0  0  0  0  0  0  0  0  0  0  0  0
   -6.7810   21.9880  -32.7230 C   0  0  0  0  0  0  0  0  0  0  0  0
   -5.8530   22.5890  -31.6950 C   0  0  0  0  0  0  0  0  0  0  0  0
   -5.6370   23.9750  -31.6540 C   0  0  0  0  0  0  0  0  0  0  0  0
   -4.8020   24.5340  -30.6830 C   0  0  0  0  0  0  0  0  0  0  0  0
   -4.1730   23.7190  -29.7260 C   0  0  0  0  0  0  0  0  0  0  0  0
   -3.2950   24.3150  -28.6840 C   0  0  0  0  0  0  0  0  0  0  0  0
   -3.7500   24.4580  -27.3620 C   0  0  0  0  0  0  0  0  0  0  0  0
   -2.9240   25.0150  -26.3820 C   0  0  0  0  0  0  0  0  0  0  0  0
   -1.6250   25.4480  -26.7030 C   0  0  0  0  0  0  0  0  0  0  0  0
   -0.7560   26.0250  -25.6470 C   0  0  0  0  0  0  0  0  0  0  0  0
    0.4890   25.8310  -25.6970 O   0  0  0  0  0  0  0  0  0  0  0  0
   -1.3060   26.7920  -24.5640 N   0  0  0  0  0  0  0  0  0  0  0  0
   -0.4520   27.4910  -23.6140 C   0  0  0  0  0  0  0  0  0  0  0  0
   -1.1660   25.2950  -28.0230 C   0  0  0  0  0  0  0  0  0  0  0  0
   -1.9930   24.7390  -29.0020 C   0  0  0  0  0  0  0  0  0  0  0  0
   -4.3930   22.3310  -29.7680 C   0  0  0  0  0  0  0  0  0  0  0  0
   -5.2230   21.7720  -30.7440 C   0  0  0  0  0  0  0  0  0  0  0  0
   -9.6334   22.9376  -30.4803 H   0  0  0  0  0  0  0  0  0  0  0  0
   -8.6468   22.7598  -31.9708 H   0  0  0  0  0  0  0  0  0  0  0  0
  -10.3721   22.2600  -31.9708 H   0  0  0  0  0  0  0  0  0  0  0  0
   -8.0461   20.9590  -30.4762 H   0  0  0  0  0  0  0  0  0  0  0  0
   -9.8018   20.5524  -30.2172 H   0  0  0  0  0  0  0  0  0  0  0  0
   -9.5453   19.0021  -31.8089 H   0  0  0  0  0  0  0  0  0  0  0  0
   -9.4756   20.3926  -32.9720 H   0  0  0  0  0  0  0  0  0  0  0  0
   -4.7786   16.0516  -32.9302 H   0  0  0  0  0  0  0  0  0  0  0  0
   -6.3419   15.8289  -32.0214 H   0  0  0  0  0  0  0  0  0  0  0  0
   -7.2084   14.8057  -33.8005 H   0  0  0  0  0  0  0  0  0  0  0  0
   -7.0186   16.3239  -34.7417 H   0  0  0  0  0  0  0  0  0  0  0  0
   -5.7064   15.0972  -34.7417 H   0  0  0  0  0  0  0  0  0  0  0  0
   -4.6162   17.1172  -35.4645 H   0  0  0  0  0  0  0  0  0  0  0  0
   -2.3672   16.3525  -36.2390 H   0  0  0  0  0  0  0  0  0  0  0  0
    0.4129   15.6906  -37.4582 H   0  0  0  0  0  0  0  0  0  0  0  0
    1.5097   16.6747  -39.4699 H   0  0  0  0  0  0  0  0  0  0  0  0
    2.4085   19.0033  -39.3944 H   0  0  0  0  0  0  0  0  0  0  0  0
    2.2001   20.3535  -37.3048 H   0  0  0  0  0  0  0  0  0  0  0  0
    1.1118   19.3769  -35.2853 H   0  0  0  0  0  0  0  0  0  0  0  0
   -0.5659   18.4030  -32.8791 H   0  0  0  0  0  0  0  0  0  0  0  0
   -6.5726   22.4387  -33.7045 H   0  0  0  0  0  0  0  0  0  0  0  0
   -7.8196   22.1902  -32.4222 H   0  0  0  0  0  0  0  0  0  0  0  0
   -6.1287   24.6262  -32.3917 H   0  0  0  0  0  0  0  0  0  0  0  0
   -4.6355   25.6212  -30.6674 H   0  0  0  0  0  0  0  0  0  0  0  0
   -4.7653   24.1286  -27.0963 H   0  0  0  0  0  0  0  0  0  0  0  0
   -3.2930   25.1156  -25.3506 H   0  0  0  0  0  0  0  0  0  0  0  0
   -2.3400   26.8290  -24.4160 H   0  0  0  0  0  0  0  0  0  0  0  0
   -0.7605   27.2385  -22.5888 H   0  0  0  0  0  0  0  0  0  0  0  0
    0.5937   27.1863  -23.7678 H   0  0  0  0  0  0  0  0  0  0  0  0
   -0.5440   28.5763  -23.7678 H   0  0  0  0  0  0  0  0  0  0  0  0
   -0.1475   25.6157  -28.2871 H   0  0  0  0  0  0  0  0  0  0  0  0
   -1.6217   24.6319  -30.0319 H   0  0  0  0  0  0  0  0  0  0  0  0
   -3.9078   21.6793  -29.0264 H   0  0  0  0  0  0  0  0  0  0  0  0
   -5.3834   20.6840  -30.7667 H   0  0  0  0  0  0  0  0  0  0  0  0
  1  2  1  0
  2  3  1  0
  3  4  1  0
  4  5  1  0
  5  6  2  0
  6  7  1  0
  7  8  1  0
  6  9  1  0
  9 10  1  0
 10 11  2  0
 11 12  1  0
 12 13  2  0
 13 14  1  0
 14 15  2  0
 14 16  1  0
 16 17  2  0
 17 18  1  0
 18 19  2  0
 19 20  1  0
 20 21  2  0
 13 22  1  0
 22 23  2  0
  9 24  1  0
 24 25  2  0
 24 26  1  0
 26 27  1  0
 27 28  1  0
 28 29  2  0
 29 30  1  0
 30 31  2  0
 31 32  1  0
 32 33  2  0
 33 34  1  0
 34 35  2  0
 35 36  1  0
 36 37  2  0
 36 38  1  0
 38 39  1  0
 35 40  1  0
 40 41  2  0
 31 42  1  0
 42 43  2  0
 26  4  2  0
 43 28  1  0
 23 10  1  0
 41 32  1  0
 21 16  1  0
  1 44  1  0
  1 45  1  0
  1 46  1  0
  2 47  1  0
  2 48  1  0
  3 49  1  0
  3 50  1  0
  7 51  1  0
  7 52  1  0
  8 53  1  0
  8 54  1  0
  8 55  1  0
 11 56  1  0
 12 57  1  0
 17 58  1  0
 18 59  1  0
 19 60  1  0
 20 61  1  0
 21 62  1  0
 22 63  1  0
 27 64  1  0
 27 65  1  0
 29 66  1  0
 30 67  1  0
 33 68  1  0
 34 69  1  0
 38 70  1  0
 39 71  1  0
 39 72  1  0
 39 73  1  0
 40 74  1  0
 41 75  1  0
 42 76  1  0
 43 77  1  0
M  END
>  <UniqueID>  (18) 
17

>  <SMILES>  (18) 
CCCc1nc(CC)n(-c2ccc(C(=O)c3ccccc3)cn2)c(=O)c1Cc1ccc(-c2ccc(C(=O)NC)cc2)cc1

>  <Energy>  (18) 
102.22241651394653

>  <Genealogy>  (18) 
CCCc1nc(CC)n(-c2ccc(C(=O)c3ccccc3)cn2)c(=O)c1Cc1ccc(-c2ccc(C(=O)NC)cc2)cc1 (3D coordinates assigned)
CCCc1nc(CC)n(-c2ccc(C(=O)c3ccccc3)cn2)c(=O)c1Cc1ccc(-c2ccc(C(=O)NC)cc2)cc1 (optimized conformer: 102.22241651394653 kcal/mol)

>  <smiles>  (18) 
CCCc1nc(CC)n(-c2ccc(C(=O)c3ccccc3)cn2)c(=O)c1Cc1ccc(-c2ccc(C(=O)NC)cc2)cc1

>  <score_type>  (18) 
oracle

>  <origin>  (18) 
adgpu

>  <m_score__min__energy>  (18) 
-10.5

>  <m_primary>  (18) 
energy

$$$$
18:0
     RDKit          3D

 36 37  0  0  0  0  0  0  0  0999 V2000
   -6.1160   17.9270  -31.2210 C   0  0  0  0  0  0  0  0  0  0  0  0
   -5.6410   18.9880  -32.0430 O   0  0  0  0  0  0  0  0  0  0  0  0
   -5.6070   20.3400  -31.6630 C   0  0  0  0  0  0  0  0  0  0  0  0
   -4.4010   21.0430  -31.5280 C   0  0  0  0  0  0  0  0  0  0  0  0
   -4.3820   22.3820  -31.1160 C   0  0  0  0  0  0  0  0  0  0  0  0
   -3.0290   23.0430  -30.9550 C   0  0  0  0  0  0  0  0  0  0  0  0
   -2.8890   23.6730  -29.6030 C   0  0  0  0  0  0  0  0  0  0  0  0
   -2.3130   24.8680  -29.3820 N   0  0  0  0  0  0  0  0  0  0  0  0
   -2.3330   25.0100  -28.0680 N   0  0  0  0  0  0  0  0  0  0  0  0
   -2.8850   23.9450  -27.5090 N   0  0  0  0  0  0  0  0  0  0  0  0
   -3.2380   23.0810  -28.4450 N   0  0  0  0  0  0  0  0  0  0  0  0
   -5.6070   23.0460  -30.8410 C   0  0  0  0  0  0  0  0  0  0  0  0
   -5.6190   24.7250  -30.2380 S   0  0  0  0  0  0  0  0  0  0  0  0
   -5.2520   24.7370  -28.5480 N   0  0  0  0  0  0  0  0  0  0  0  0
   -6.9760   25.3300  -30.4580 O   0  0  0  0  0  0  0  0  0  0  0  0
   -4.6160   25.5780  -30.9630 O   0  0  0  0  0  0  0  0  0  0  0  0
   -6.8260   22.3570  -31.0540 C   0  0  0  0  0  0  0  0  0  0  0  0
   -8.0390   23.0380  -30.9480 O   0  0  0  0  0  0  0  0  0  0  0  0
   -8.9870   23.0250  -32.0100 C   0  0  0  0  0  0  0  0  0  0  0  0
   -6.8200   20.9850  -31.4040 C   0  0  0  0  0  0  0  0  0  0  0  0
   -7.9890   20.2090  -31.5080 O   0  0  0  0  0  0  0  0  0  0  0  0
   -8.5670   19.7280  -32.7170 C   0  0  0  0  0  0  0  0  0  0  0  0
   -5.9937   18.2003  -30.1625 H   0  0  0  0  0  0  0  0  0  0  0  0
   -7.1804   17.7475  -31.4327 H   0  0  0  0  0  0  0  0  0  0  0  0
   -5.5409   17.0135  -31.4327 H   0  0  0  0  0  0  0  0  0  0  0  0
   -3.4518   20.5333  -31.7498 H   0  0  0  0  0  0  0  0  0  0  0  0
   -2.2423   22.2844  -31.0801 H   0  0  0  0  0  0  0  0  0  0  0  0
   -2.9343   23.8308  -31.7169 H   0  0  0  0  0  0  0  0  0  0  0  0
   -4.2610   25.0500  -28.4520 H   0  0  0  0  0  0  0  0  0  0  0  0
   -5.2910   23.7480  -28.2150 H   0  0  0  0  0  0  0  0  0  0  0  0
  -10.0047   23.0110  -31.5929 H   0  0  0  0  0  0  0  0  0  0  0  0
   -8.8567   23.9250  -32.6289 H   0  0  0  0  0  0  0  0  0  0  0  0
   -8.8321   22.1289  -32.6289 H   0  0  0  0  0  0  0  0  0  0  0  0
   -9.3928   19.0408  -32.4806 H   0  0  0  0  0  0  0  0  0  0  0  0
   -8.9519   20.5762  -33.3022 H   0  0  0  0  0  0  0  0  0  0  0  0
   -7.8029   19.1954  -33.3022 H   0  0  0  0  0  0  0  0  0  0  0  0
  1  2  1  0
  2  3  1  0
  3  4  2  0
  4  5  1  0
  5  6  1  0
  6  7  1  0
  7  8  1  0
  8  9  2  0
  9 10  1  0
 10 11  1  0
  5 12  2  0
 12 13  1  0
 13 14  1  0
 13 15  2  0
 13 16  2  0
 12 17  1  0
 17 18  1  0
 18 19  1  0
 17 20  2  0
 20 21  1  0
 21 22  1  0
 20  3  1  0
 11  7  2  0
  1 23  1  0
  1 24  1  0
  1 25  1  0
  4 26  1  0
  6 27  1  0
  6 28  1  0
 14 29  1  0
 14 30  1  0
 19 31  1  0
 19 32  1  0
 19 33  1  0
 22 34  1  0
 22 35  1  0
 22 36  1  0
M  CHG  1  10  -1
M  END
>  <UniqueID>  (19) 
18

>  <SMILES>  (19) 
COc1cc(Cc2nn[n-]n2)c(S(N)(=O)=O)c(OC)c1OC

>  <Energy>  (19) 
85.17360623749926

>  <Genealogy>  (19) 
COc1cc(Cc2nn[n-]n2)c(S(N)(=O)=O)c(OC)c1OC (protonated)
COc1cc(Cc2nn[n-]n2)c(S(N)(=O)=O)c(OC)c1OC (3D coordinates assigned)
COc1cc(Cc2nn[n-]n2)c(S(N)(=O)=O)c(OC)c1OC (optimized conformer: 85.17360623749926 kcal/mol)

>  <smiles>  (19) 
COc1cc(Cc2nn[nH]n2)c(S(N)(=O)=O)c(OC)c1OC

>  <score_type>  (19) 
oracle

>  <origin>  (19) 
adgpu

>  <m_score__min__energy>  (19) 
-8.3800000000000008

>  <m_primary>  (19) 
energy

$$$$
19:0
     RDKit          3D

 43 45  0  0  0  0  0  0  0  0999 V2000
   -2.0070   23.5350  -27.6190 C   0  0  0  0  0  0  0  0  0  0  0  0
   -1.7260   24.5850  -28.6500 C   0  0  0  0  0  0  0  0  0  0  0  0
   -0.5310   24.8940  -28.8940 O   0  0  0  0  0  0  0  0  0  0  0  0
   -2.7760   25.2760  -29.3390 N   0  0  0  0  0  0  0  0  0  0  0  0
   -3.8260   24.6800  -30.1140 C   0  0  0  0  0  0  0  0  0  0  0  0
   -5.0080   25.3990  -30.3180 C   0  0  0  0  0  0  0  0  0  0  0  0
   -6.0460   24.8520  -31.0800 C   0  0  0  0  0  0  0  0  0  0  0  0
   -5.9110   23.5830  -31.6620 C   0  0  0  0  0  0  0  0  0  0  0  0
   -7.0040   23.0370  -32.4200 N   0  0  0  0  0  0  0  0  0  0  0  0
   -8.1050   21.8500  -31.7960 S   0  0  0  0  0  0  0  0  0  0  0  0
   -9.4830   22.1310  -32.3250 O   0  0  0  0  0  0  0  0  0  0  0  0
   -8.1290   21.9350  -30.2960 O   0  0  0  0  0  0  0  0  0  0  0  0
   -7.5720   20.2360  -32.2630 C   0  0  0  0  0  0  0  0  0  0  0  0
   -8.3230   19.1090  -31.9110 C   0  0  0  0  0  0  0  0  0  0  0  0
   -7.9100   17.8350  -32.3140 C   0  0  0  0  0  0  0  0  0  0  0  0
   -6.7390   17.6720  -33.0750 C   0  0  0  0  0  0  0  0  0  0  0  0
   -6.3050   16.3200  -33.5110 C   0  0  0  0  0  0  0  0  0  0  0  0
   -4.9900   15.8780  -33.2700 C   0  0  0  0  0  0  0  0  0  0  0  0
   -4.5840   14.6050  -33.6830 C   0  0  0  0  0  0  0  0  0  0  0  0
   -5.4820   13.7620  -34.3410 C   0  0  0  0  0  0  0  0  0  0  0  0
   -6.7880   14.1900  -34.5870 C   0  0  0  0  0  0  0  0  0  0  0  0
   -7.2000   15.4610  -34.1750 C   0  0  0  0  0  0  0  0  0  0  0  0
   -5.9870   18.8100  -33.4170 C   0  0  0  0  0  0  0  0  0  0  0  0
   -6.4000   20.0820  -33.0120 C   0  0  0  0  0  0  0  0  0  0  0  0
   -4.7020   22.8840  -31.4960 C   0  0  0  0  0  0  0  0  0  0  0  0
   -3.6670   23.4300  -30.7330 C   0  0  0  0  0  0  0  0  0  0  0  0
   -1.8913   23.9675  -26.6142 H   0  0  0  0  0  0  0  0  0  0  0  0
   -3.0356   23.1655  -27.7429 H   0  0  0  0  0  0  0  0  0  0  0  0
   -1.3004   22.7011  -27.7429 H   0  0  0  0  0  0  0  0  0  0  0  0
   -5.1222   26.4002  -29.8769 H   0  0  0  0  0  0  0  0  0  0  0  0
   -6.9758   25.4219  -31.2239 H   0  0  0  0  0  0  0  0  0  0  0  0
   -7.2340   23.4540  -33.3510 H   0  0  0  0  0  0  0  0  0  0  0  0
   -9.2407   19.2254  -31.3157 H   0  0  0  0  0  0  0  0  0  0  0  0
   -8.5058   16.9539  -32.0335 H   0  0  0  0  0  0  0  0  0  0  0  0
   -4.2775   16.5381  -32.7536 H   0  0  0  0  0  0  0  0  0  0  0  0
   -3.5553   14.2671  -33.4891 H   0  0  0  0  0  0  0  0  0  0  0  0
   -5.1606   12.7613  -34.6653 H   0  0  0  0  0  0  0  0  0  0  0  0
   -7.4945   13.5257  -35.1062 H   0  0  0  0  0  0  0  0  0  0  0  0
   -8.2306   15.7916  -34.3713 H   0  0  0  0  0  0  0  0  0  0  0  0
   -5.0661   18.6979  -34.0082 H   0  0  0  0  0  0  0  0  0  0  0  0
   -5.8022   20.9648  -33.2827 H   0  0  0  0  0  0  0  0  0  0  0  0
   -4.5704   21.9003  -31.9704 H   0  0  0  0  0  0  0  0  0  0  0  0
   -2.7228   22.8778  -30.6166 H   0  0  0  0  0  0  0  0  0  0  0  0
  1  2  1  0
  2  3  2  0
  2  4  1  0
  4  5  1  0
  5  6  2  0
  6  7  1  0
  7  8  2  0
  8  9  1  0
  9 10  1  0
 10 11  2  0
 10 12  2  0
 10 13  1  0
 13 14  2  0
 14 15  1  0
 15 16  2  0
 16 17  1  0
 17 18  2  0
 18 19  1  0
 19 20  2  0
 20 21  1  0
 21 22  2  0
 16 23  1  0
 23 24  2  0
  8 25  1  0
 25 26  2  0
 26  5  1  0
 24 13  1  0
 22 17  1  0
  1 27  1  0
  1 28  1  0
  1 29  1  0
  6 30  1  0
  7 31  1  0
  9 32  1  0
 14 33  1  0
 15 34  1  0
 18 35  1  0
 19 36  1  0
 20 37  1  0
 21 38  1  0
 22 39  1  0
 23 40  1  0
 24 41  1  0
 25 42  1  0
 26 43  1  0
M  CHG  1   4  -1
M  END
>  <UniqueID>  (20) 
19

>  <SMILES>  (20) 
CC(=O)[N-]c1ccc(NS(=O)(=O)c2ccc(-c3ccccc3)cc2)cc1

>  <Energy>  (20) 
56.50756739637546

>  <Genealogy>  (20) 
CC(=O)[N-]c1ccc(NS(=O)(=O)c2ccc(-c3ccccc3)cc2)cc1 (protonated)
CC(=O)[N-]c1ccc(NS(=O)(=O)c2ccc(-c3ccccc3)cc2)cc1 (3D coordinates assigned)
CC(=O)[N-]c1ccc(NS(=O)(=O)c2ccc(-c3ccccc3)cc2)cc1 (optimized conformer: 56.50756739637546 kcal/mol)

>  <smiles>  (20) 
CC(=O)Nc1ccc(NS(=O)(=O)c2ccc(-c3ccccc3)cc2)cc1

>  <score_type>  (20) 
oracle

>  <origin>  (20) 
adgpu

>  <m_score__min__energy>  (20) 
-11.5

>  <m_primary>  (20) 
energy

$$$$
20:0
     RDKit          3D

 48 50  0  0  0  0  0  0  0  0999 V2000
   -2.5703   19.4938  -34.6563 H   0  0  0  0  0  0  0  0  0  0  0  0
   -2.9900   18.6250  -34.1280 C   0  0  0  0  0  0  0  0  0  0  0  0
   -4.3440   18.6130  -33.7840 C   0  0  0  0  0  0  0  0  0  0  0  0
   -4.9809   19.4728  -34.0393 H   0  0  0  0  0  0  0  0  0  0  0  0
   -4.8940   17.5140  -33.1170 C   0  0  0  0  0  0  0  0  0  0  0  0
   -6.6090   17.4930  -32.7180 S   0  0  0  0  0  0  0  0  0  0  0  0
   -7.3080   16.3780  -33.4430 O   0  0  0  0  0  0  0  0  0  0  0  0
   -6.7560   17.2860  -31.2380 O   0  0  0  0  0  0  0  0  0  0  0  0
   -7.3410   19.0020  -33.1620 N   0  0  0  0  0  0  0  0  0  0  0  0
   -8.1390   18.9610  -33.8390 H   0  0  0  0  0  0  0  0  0  0  0  0
   -7.0260   20.2590  -32.5340 C   0  0  0  0  0  0  0  0  0  0  0  0
   -5.9160   21.0290  -32.9310 C   0  0  0  0  0  0  0  0  0  0  0  0
   -5.2856   20.6901  -33.7663 H   0  0  0  0  0  0  0  0  0  0  0  0
   -5.6110   22.2220  -32.2690 C   0  0  0  0  0  0  0  0  0  0  0  0
   -4.7350   22.8110  -32.5784 H   0  0  0  0  0  0  0  0  0  0  0  0
   -6.4150   22.6710  -31.2140 C   0  0  0  0  0  0  0  0  0  0  0  0
   -5.9890   24.1350  -30.3360 S   0  0  0  0  0  0  0  0  0  0  0  0
   -5.2540   25.0810  -31.2450 O   0  0  0  0  0  0  0  0  0  0  0  0
   -7.2300   24.8270  -29.8450 O   0  0  0  0  0  0  0  0  0  0  0  0
   -4.9630   23.7240  -29.0000 N   0  0  0  0  0  0  0  0  0  0  0  0
   -3.7450   24.1580  -28.8740 C   0  0  0  0  0  0  0  0  0  0  0  0
   -3.1210   24.9580  -29.7610 N   0  0  0  0  0  0  0  0  0  0  0  0
   -1.9270   25.1660  -29.2850 O   0  0  0  0  0  0  0  0  0  0  0  0
   -1.7600   24.5450  -28.1390 C   0  0  0  0  0  0  0  0  0  0  0  0
   -0.5010   24.5660  -27.3420 C   0  0  0  0  0  0  0  0  0  0  0  0
   -0.7458   24.5619  -26.2696 H   0  0  0  0  0  0  0  0  0  0  0  0
    0.1010   23.6778  -27.5840 H   0  0  0  0  0  0  0  0  0  0  0  0
    0.0711   25.4738  -27.5840 H   0  0  0  0  0  0  0  0  0  0  0  0
   -2.9150   23.8640  -27.8150 C   0  0  0  0  0  0  0  0  0  0  0  0
   -3.1215   23.2418  -26.9317 H   0  0  0  0  0  0  0  0  0  0  0  0
   -7.5320   21.9190  -30.8280 C   0  0  0  0  0  0  0  0  0  0  0  0
   -8.1710   22.2697  -30.0042 H   0  0  0  0  0  0  0  0  0  0  0  0
   -7.8370   20.7250  -31.4860 C   0  0  0  0  0  0  0  0  0  0  0  0
   -8.7201   20.1446  -31.1807 H   0  0  0  0  0  0  0  0  0  0  0  0
   -4.0750   16.4300  -32.7830 C   0  0  0  0  0  0  0  0  0  0  0  0
   -4.4999   15.5671  -32.2493 H   0  0  0  0  0  0  0  0  0  0  0  0
   -2.7200   16.4380  -33.1240 C   0  0  0  0  0  0  0  0  0  0  0  0
   -2.0869   15.5787  -32.8580 H   0  0  0  0  0  0  0  0  0  0  0  0
   -2.1560   17.5350  -33.8050 C   0  0  0  0  0  0  0  0  0  0  0  0
   -0.7510   17.5460  -34.1580 N   0  0  0  0  0  0  0  0  0  0  0  0
    0.2370   16.8840  -33.2990 C   0  0  0  0  0  0  0  0  0  0  0  0
   -0.0205   17.0566  -32.2436 H   0  0  0  0  0  0  0  0  0  0  0  0
    0.2362   15.8034  -33.5047 H   0  0  0  0  0  0  0  0  0  0  0  0
    1.2361   17.2957  -33.5047 H   0  0  0  0  0  0  0  0  0  0  0  0
   -0.2980   18.2190  -35.3820 C   0  0  0  0  0  0  0  0  0  0  0  0
    0.2978   19.1042  -35.1147 H   0  0  0  0  0  0  0  0  0  0  0  0
    0.3188   17.5270  -35.9741 H   0  0  0  0  0  0  0  0  0  0  0  0
   -1.1713   18.5300  -35.9741 H   0  0  0  0  0  0  0  0  0  0  0  0
  1  2  1  0
  2  3  2  0
  3  4  1  0
  3  5  1  0
  5  6  1  0
  6  7  2  0
  6  8  2  0
  6  9  1  0
  9 10  1  0
  9 11  1  0
 11 12  2  0
 12 13  1  0
 12 14  1  0
 14 15  1  0
 14 16  2  0
 16 17  1  0
 17 18  2  0
 17 19  2  0
 17 20  1  0
 20 21  2  0
 21 22  1  0
 22 23  1  0
 23 24  1  0
 24 25  1  0
 25 26  1  0
 25 27  1  0
 25 28  1  0
 24 29  2  0
 29 30  1  0
 16 31  1  0
 31 32  1  0
 31 33  2  0
 33 34  1  0
  5 35  2  0
 35 36  1  0
 35 37  1  0
 37 38  1  0
 37 39  2  0
 39 40  1  0
 40 41  1  0
 41 42  1  0
 41 43  1  0
 41 44  1  0
 40 45  1  0
 45 46  1  0
 45 47  1  0
 45 48  1  0
 39  2  1  0
 33 11  1  0
 29 21  1  0
M  CHG  1  22  -1
M  END
>  <UniqueID>  (21) 
20

>  <SMILES>  (21) 
Cc1c/c(=N/S(=O)(=O)c2ccc(NS(=O)(=O)c3ccc(N(C)C)cc3)cc2)[n-]o1

>  <Energy>  (21) 
87.01399233931687

>  <Genealogy>  (21) 
Cc1cc(=NS(=O)(=O)c2ccc(NS(=O)(=O)c3ccc(N(C)C)cc3)cc2)[n-]o1 (protonated)
Cc1c/c(=N/S(=O)(=O)c2ccc(NS(=O)(=O)c3ccc(N(C)C)cc3)cc2)[n-]o1 (cis-trans isomerization)
Cc1c/c(=N/S(=O)(=O)c2ccc(NS(=O)(=O)c3ccc(N(C)C)cc3)cc2)[n-]o1 (3D coordinates assigned)
Cc1c/c(=N/S(=O)(=O)c2ccc(NS(=O)(=O)c3ccc(N(C)C)cc3)cc2)[n-]o1 (optimized conformer: 87.01399233931687 kcal/mol)

>  <smiles>  (21) 
Cc1cc(=NS(=O)(=O)c2ccc(NS(=O)(=O)c3ccc(N(C)C)cc3)cc2)[nH]o1

>  <score_type>  (21) 
oracle

>  <origin>  (21) 
adgpu

>  <m_score__min__energy>  (21) 
-11.289999999999999

>  <m_primary>  (21) 
energy

$$$$
21:0
     RDKit          3D

 23 24  0  0  0  0  0  0  0  0999 V2000
   -6.6730   18.4750  -32.0660 C   0  0  0  0  0  0  0  0  0  0  0  0
   -6.0450   19.7130  -31.7470 O   0  0  0  0  0  0  0  0  0  0  0  0
   -6.6970   20.9580  -31.7030 C   0  0  0  0  0  0  0  0  0  0  0  0
   -8.0790   21.0610  -31.9630 C   0  0  0  0  0  0  0  0  0  0  0  0
   -8.7230   22.2960  -31.9190 C   0  0  0  0  0  0  0  0  0  0  0  0
   -8.0080   23.4500  -31.6160 C   0  0  0  0  0  0  0  0  0  0  0  0
   -6.6340   23.3830  -31.3520 C   0  0  0  0  0  0  0  0  0  0  0  0
   -5.9270   24.5560  -31.0480 C   0  0  0  0  0  0  0  0  0  0  0  0
   -4.5590   24.5050  -30.7830 C   0  0  0  0  0  0  0  0  0  0  0  0
   -3.8680   25.6720  -30.4820 O   0  0  0  0  0  0  0  0  0  0  0  0
   -3.8850   23.2860  -30.8190 C   0  0  0  0  0  0  0  0  0  0  0  0
   -4.5670   22.0990  -31.1200 C   0  0  0  0  0  0  0  0  0  0  0  0
   -3.8550   20.8990  -31.1460 O   0  0  0  0  0  0  0  0  0  0  0  0
   -5.9590   22.1310  -31.3930 C   0  0  0  0  0  0  0  0  0  0  0  0
   -6.9397   17.9492  -31.1374 H   0  0  0  0  0  0  0  0  0  0  0  0
   -7.5831   18.6662  -32.6535 H   0  0  0  0  0  0  0  0  0  0  0  0
   -5.9811   17.8536  -32.6535 H   0  0  0  0  0  0  0  0  0  0  0  0
   -8.6557   20.1557  -32.2034 H   0  0  0  0  0  0  0  0  0  0  0  0
   -9.8018   22.3585  -32.1248 H   0  0  0  0  0  0  0  0  0  0  0  0
   -8.5245   24.4207  -31.5835 H   0  0  0  0  0  0  0  0  0  0  0  0
   -6.4545   25.5208  -31.0185 H   0  0  0  0  0  0  0  0  0  0  0  0
   -2.8057   23.2549  -30.6089 H   0  0  0  0  0  0  0  0  0  0  0  0
   -4.3160   20.0060  -31.2710 H   0  0  0  0  0  0  0  0  0  0  0  0
  1  2  1  0
  2  3  1  0
  3  4  2  0
  4  5  1  0
  5  6  2  0
  6  7  1  0
  7  8  2  0
  8  9  1  0
  9 10  1  0
  9 11  2  0
 11 12  1  0
 12 13  1  0
 12 14  2  0
 14  3  1  0
 14  7  1  0
  1 15  1  0
  1 16  1  0
  1 17  1  0
  4 18  1  0
  5 19  1  0
  6 20  1  0
  8 21  1  0
 11 22  1  0
 13 23  1  0
M  CHG  1  10  -1
M  END
>  <UniqueID>  (22) 
21

>  <SMILES>  (22) 
COc1cccc2cc([O-])cc(O)c12

>  <Energy>  (22) 
28.921673526619045

>  <Genealogy>  (22) 
COc1cccc2cc([O-])cc(O)c12 (protonated)
COc1cccc2cc([O-])cc(O)c12 (3D coordinates assigned)
COc1cccc2cc([O-])cc(O)c12 (optimized conformer: 28.921673526619045 kcal/mol)

>  <smiles>  (22) 
COc1cccc2cc(O)cc(O)c12

>  <score_type>  (22) 
oracle

>  <origin>  (22) 
adgpu

>  <m_score__min__energy>  (22) 
-8.0600000000000005

>  <m_primary>  (22) 
energy

$$$$
22:0
     RDKit          3D

 56 60  0  0  0  0  0  0  0  0999 V2000
   -0.2460   22.7790  -25.3160 C   0  0  0  0  0  0  0  0  0  0  0  0
   -1.2250   23.1510  -26.3910 C   0  0  0  0  0  0  0  0  0  0  0  0
   -1.9300   22.1530  -27.0760 C   0  0  0  0  0  0  0  0  0  0  0  0
   -2.8270   22.4930  -28.0930 C   0  0  0  0  0  0  0  0  0  0  0  0
   -3.0270   23.8400  -28.4480 C   0  0  0  0  0  0  0  0  0  0  0  0
   -3.9650   24.2120  -29.5360 C   0  0  0  0  0  0  0  0  0  0  0  0
   -5.0620   23.5000  -29.9830 C   0  0  0  0  0  0  0  0  0  0  0  0
   -5.5620   24.1850  -31.0260 N   0  0  0  0  0  0  0  0  0  0  0  0
   -6.6090   23.7350  -31.9430 C   0  0  0  0  0  0  0  0  0  0  0  0
   -6.5200   22.2300  -32.1110 C   0  0  0  0  0  0  0  0  0  0  0  0
   -7.6020   21.4990  -31.6250 C   0  0  0  0  0  0  0  0  0  0  0  0
   -7.6940   20.1320  -31.8520 C   0  0  0  0  0  0  0  0  0  0  0  0
   -8.8060   19.4430  -31.3500 C   0  0  0  0  0  0  0  0  0  0  0  0
   -8.9600   18.0870  -31.5980 C   0  0  0  0  0  0  0  0  0  0  0  0
   -8.0140   17.4070  -32.3580 C   0  0  0  0  0  0  0  0  0  0  0  0
   -6.8750   18.0620  -32.8710 C   0  0  0  0  0  0  0  0  0  0  0  0
   -6.0100   17.2280  -33.8060 C   0  0  0  0  0  0  0  0  0  0  0  0
   -6.6980   19.4650  -32.6080 C   0  0  0  0  0  0  0  0  0  0  0  0
   -5.5830   20.2350  -33.0500 C   0  0  0  0  0  0  0  0  0  0  0  0
   -4.6610   19.6830  -33.7110 O   0  0  0  0  0  0  0  0  0  0  0  0
   -5.4870   21.5850  -32.7620 N   0  0  0  0  0  0  0  0  0  0  0  0
   -4.2330   22.3030  -33.0970 C   0  0  0  0  0  0  0  0  0  0  0  0
   -3.0210   21.6520  -32.4810 C   0  0  0  0  0  0  0  0  0  0  0  0
   -3.0450   21.1960  -31.1530 C   0  0  0  0  0  0  0  0  0  0  0  0
   -1.9150   20.5920  -30.5950 C   0  0  0  0  0  0  0  0  0  0  0  0
   -0.7500   20.4490  -31.3520 C   0  0  0  0  0  0  0  0  0  0  0  0
   -0.7070   20.9300  -32.6600 C   0  0  0  0  0  0  0  0  0  0  0  0
   -1.8290   21.5450  -33.2190 C   0  0  0  0  0  0  0  0  0  0  0  0
   -4.8090   25.2570  -31.2180 N   0  0  0  0  0  0  0  0  0  0  0  0
   -3.8330   25.3030  -30.3200 N   0  0  0  0  0  0  0  0  0  0  0  0
   -2.3070   24.8370  -27.7650 C   0  0  0  0  0  0  0  0  0  0  0  0
   -1.4090   24.4950  -26.7510 C   0  0  0  0  0  0  0  0  0  0  0  0
   -0.7012   22.9520  -24.3297 H   0  0  0  0  0  0  0  0  0  0  0  0
    0.0214   21.7166  -25.4152 H   0  0  0  0  0  0  0  0  0  0  0  0
    0.6594   23.3958  -25.4152 H   0  0  0  0  0  0  0  0  0  0  0  0
   -1.7770   21.0961  -26.8123 H   0  0  0  0  0  0  0  0  0  0  0  0
   -3.3806   21.7017  -28.6197 H   0  0  0  0  0  0  0  0  0  0  0  0
   -5.4496   22.5583  -29.5672 H   0  0  0  0  0  0  0  0  0  0  0  0
   -7.5946   24.0007  -31.5332 H   0  0  0  0  0  0  0  0  0  0  0  0
   -6.4753   24.2220  -32.9202 H   0  0  0  0  0  0  0  0  0  0  0  0
   -8.3920   22.0102  -31.0553 H   0  0  0  0  0  0  0  0  0  0  0  0
   -9.5605   19.9800  -30.7564 H   0  0  0  0  0  0  0  0  0  0  0  0
   -9.8303   17.5493  -31.1936 H   0  0  0  0  0  0  0  0  0  0  0  0
   -8.1572   16.3359  -32.5633 H   0  0  0  0  0  0  0  0  0  0  0  0
   -5.3432   16.5851  -33.2127 H   0  0  0  0  0  0  0  0  0  0  0  0
   -6.6543   16.6016  -34.4404 H   0  0  0  0  0  0  0  0  0  0  0  0
   -5.4075   17.8947  -34.4404 H   0  0  0  0  0  0  0  0  0  0  0  0
   -4.1122   22.3133  -34.1903 H   0  0  0  0  0  0  0  0  0  0  0  0
   -4.3101   23.3231  -32.6926 H   0  0  0  0  0  0  0  0  0  0  0  0
   -3.9570   21.3147  -30.5495 H   0  0  0  0  0  0  0  0  0  0  0  0
   -1.9432   20.2284  -29.5572 H   0  0  0  0  0  0  0  0  0  0  0  0
    0.1326   19.9575  -30.9168 H   0  0  0  0  0  0  0  0  0  0  0  0
    0.2134   20.8247  -33.2532 H   0  0  0  0  0  0  0  0  0  0  0  0
   -1.7802   21.9477  -34.2415 H   0  0  0  0  0  0  0  0  0  0  0  0
   -2.4522   25.8943  -28.0315 H   0  0  0  0  0  0  0  0  0  0  0  0
   -0.8433   25.2829  -26.2322 H   0  0  0  0  0  0  0  0  0  0  0  0
  1  2  1  0
  2  3  2  0
  3  4  1  0
  4  5  2  0
  5  6  1  0
  6  7  2  0
  7  8  1  0
  8  9  1  0
  9 10  1  0
 10 11  2  0
 11 12  1  0
 12 13  2  0
 13 14  1  0
 14 15  2  0
 15 16  1  0
 16 17  1  0
 16 18  2  0
 18 19  1  0
 19 20  2  0
 19 21  1  0
 21 22  1  0
 22 23  1  0
 23 24  2  0
 24 25  1  0
 25 26  2  0
 26 27  1  0
 27 28  2  0
  8 29  1  0
 29 30  2  0
  5 31  1  0
 31 32  2  0
 32  2  1  0
 30  6  1  0
 21 10  1  0
 28 23  1  0
 18 12  1  0
  1 33  1  0
  1 34  1  0
  1 35  1  0
  3 36  1  0
  4 37  1  0
  7 38  1  0
  9 39  1  0
  9 40  1  0
 11 41  1  0
 13 42  1  0
 14 43  1  0
 15 44  1  0
 17 45  1  0
 17 46  1  0
 17 47  1  0
 22 48  1  0
 22 49  1  0
 24 50  1  0
 25 51  1  0
 26 52  1  0
 27 53  1  0
 28 54  1  0
 31 55  1  0
 32 56  1  0
M  END
>  <UniqueID>  (23) 
22

>  <SMILES>  (23) 
Cc1ccc(-c2cn(Cc3cc4cccc(C)c4c(=O)n3Cc3ccccc3)nn2)cc1

>  <Energy>  (23) 
116.13483917645839

>  <Genealogy>  (23) 
Cc1ccc(-c2cn(Cc3cc4cccc(C)c4c(=O)n3Cc3ccccc3)nn2)cc1 (3D coordinates assigned)
Cc1ccc(-c2cn(Cc3cc4cccc(C)c4c(=O)n3Cc3ccccc3)nn2)cc1 (optimized conformer: 116.13483917645839 kcal/mol)

>  <smiles>  (23) 
Cc1ccc(-c2cn(Cc3cc4cccc(C)c4c(=O)n3Cc3ccccc3)nn2)cc1

>  <score_type>  (23) 
oracle

>  <origin>  (23) 
adgpu

>  <m_score__min__energy>  (23) 
-10.84

>  <m_primary>  (23) 
energy

$$$$
23:0
     RDKit          3D

 28 30  0  0  0  0  0  0  0  0999 V2000
   -0.8228   23.8016  -25.6880 H   0  0  0  0  0  0  0  0  0  0  0  0
   -1.2240   24.2130  -26.6260 C   0  0  0  0  0  0  0  0  0  0  0  0
   -0.4090   24.9550  -27.4780 C   0  0  0  0  0  0  0  0  0  0  0  0
    1.2700   25.2460  -27.0730 Cl  0  0  0  0  0  0  0  0  0  0  0  0
   -0.9250   25.4540  -28.6290 N   0  0  0  0  0  0  0  0  0  0  0  0
   -2.1990   25.2560  -28.9740 N   0  0  0  0  0  0  0  0  0  0  0  0
   -2.5230   25.6730  -29.8720 H   0  0  0  0  0  0  0  0  0  0  0  0
   -3.0440   24.5320  -28.1750 C   0  0  0  0  0  0  0  0  0  0  0  0
   -4.2890   24.3170  -28.4920 N   0  0  0  0  0  0  0  0  0  0  0  0
   -5.0950   24.8710  -29.9260 S   0  0  0  0  0  0  0  0  0  0  0  0
   -6.0970   25.9230  -29.5460 O   0  0  0  0  0  0  0  0  0  0  0  0
   -4.0880   25.4660  -30.8710 O   0  0  0  0  0  0  0  0  0  0  0  0
   -5.9350   23.5360  -30.6900 C   0  0  0  0  0  0  0  0  0  0  0  0
   -5.3710   22.7180  -31.5600 O   0  0  0  0  0  0  0  0  0  0  0  0
   -6.2860   21.8550  -31.9260 C   0  0  0  0  0  0  0  0  0  0  0  0
   -6.1540   20.8040  -32.8300 C   0  0  0  0  0  0  0  0  0  0  0  0
   -5.1980   20.6083  -33.3377 H   0  0  0  0  0  0  0  0  0  0  0  0
   -7.2840   20.0000  -33.0730 C   0  0  0  0  0  0  0  0  0  0  0  0
   -7.2156   19.1614  -33.7816 H   0  0  0  0  0  0  0  0  0  0  0  0
   -8.5050   20.2630  -32.4130 C   0  0  0  0  0  0  0  0  0  0  0  0
   -9.3809   19.6276  -32.6106 H   0  0  0  0  0  0  0  0  0  0  0  0
   -8.6080   21.3330  -31.5040 C   0  0  0  0  0  0  0  0  0  0  0  0
   -9.5527   21.5487  -30.9833 H   0  0  0  0  0  0  0  0  0  0  0  0
   -7.4720   22.1090  -31.2870 C   0  0  0  0  0  0  0  0  0  0  0  0
   -7.2670   23.2010  -30.4750 C   0  0  0  0  0  0  0  0  0  0  0  0
   -7.9902   23.6949  -29.8094 H   0  0  0  0  0  0  0  0  0  0  0  0
   -2.5530   24.0000  -26.9790 C   0  0  0  0  0  0  0  0  0  0  0  0
   -3.2135   23.4164  -26.3208 H   0  0  0  0  0  0  0  0  0  0  0  0
  1  2  1  0
  2  3  1  0
  3  4  1  0
  3  5  2  0
  5  6  1  0
  6  7  1  0
  6  8  1  0
  8  9  2  0
  9 10  1  0
 10 11  2  0
 10 12  2  0
 10 13  1  0
 13 14  1  0
 14 15  1  0
 15 16  2  0
 16 17  1  0
 16 18  1  0
 18 19  1  0
 18 20  2  0
 20 21  1  0
 20 22  1  0
 22 23  1  0
 22 24  2  0
 24 25  1  0
 25 26  1  0
  8 27  1  0
 27 28  1  0
 27  2  2  0
 25 13  2  0
 24 15  1  0
M  END
>  <UniqueID>  (24) 
23

>  <SMILES>  (24) 
O=S(=O)(/N=c1/ccc(Cl)n[nH]1)c1cc2ccccc2o1

>  <Energy>  (24) 
69.82390250013891

>  <Genealogy>  (24) 
O=S(=O)(/N=c1/ccc(Cl)n[nH]1)c1cc2ccccc2o1 (cis-trans isomerization)
O=S(=O)(/N=c1/ccc(Cl)n[nH]1)c1cc2ccccc2o1 (3D coordinates assigned)
O=S(=O)(/N=c1/ccc(Cl)n[nH]1)c1cc2ccccc2o1 (optimized conformer: 69.82390250013891 kcal/mol)

>  <smiles>  (24) 
O=S(=O)(N=c1ccc(Cl)n[nH]1)c1cc2ccccc2o1

>  <score_type>  (24) 
oracle

>  <origin>  (24) 
adgpu

>  <m_score__min__energy>  (24) 
-9.0399999999999991

>  <m_primary>  (24) 
energy

$$$$
24:0
     RDKit          3D

 52 55  0  0  0  0  0  0  0  0999 V2000
   -8.1766   24.8146  -30.1206 H   0  0  0  0  0  0  0  0  0  0  0  0
   -7.2390   24.3670  -30.4820 C   0  0  0  0  0  0  0  0  0  0  0  0
   -6.0240   25.0040  -30.2330 C   0  0  0  0  0  0  0  0  0  0  0  0
   -6.0041   25.9433  -29.6609 H   0  0  0  0  0  0  0  0  0  0  0  0
   -4.8250   24.4490  -30.7110 C   0  0  0  0  0  0  0  0  0  0  0  0
   -3.5550   25.0650  -30.4540 N   0  0  0  0  0  0  0  0  0  0  0  0
   -2.5160   24.5420  -29.6160 C   0  0  0  0  0  0  0  0  0  0  0  0
   -1.8680   25.3410  -28.8880 O   0  0  0  0  0  0  0  0  0  0  0  0
   -2.2190   23.0920  -29.5470 C   0  0  0  0  0  0  0  0  0  0  0  0
   -1.9370   22.3740  -30.7200 C   0  0  0  0  0  0  0  0  0  0  0  0
   -1.9414   22.8895  -31.6917 H   0  0  0  0  0  0  0  0  0  0  0  0
   -1.6510   21.0090  -30.6590 C   0  0  0  0  0  0  0  0  0  0  0  0
   -1.4320   20.4531  -31.5826 H   0  0  0  0  0  0  0  0  0  0  0  0
   -1.6420   20.3470  -29.4300 C   0  0  0  0  0  0  0  0  0  0  0  0
   -1.4109   19.2723  -29.3901 H   0  0  0  0  0  0  0  0  0  0  0  0
   -1.9260   21.0440  -28.2440 C   0  0  0  0  0  0  0  0  0  0  0  0
   -1.8620   20.3230  -26.9200 C   0  0  0  0  0  0  0  0  0  0  0  0
   -3.0640   19.7040  -26.6230 F   0  0  0  0  0  0  0  0  0  0  0  0
   -0.8730   19.3550  -26.9560 F   0  0  0  0  0  0  0  0  0  0  0  0
   -1.5660   21.2330  -25.9210 F   0  0  0  0  0  0  0  0  0  0  0  0
   -2.1910   22.4240  -28.3090 C   0  0  0  0  0  0  0  0  0  0  0  0
   -2.3782   22.9866  -27.3825 H   0  0  0  0  0  0  0  0  0  0  0  0
   -4.8590   23.2330  -31.4040 C   0  0  0  0  0  0  0  0  0  0  0  0
   -3.9187   22.7845  -31.7572 H   0  0  0  0  0  0  0  0  0  0  0  0
   -6.0790   22.5750  -31.6560 C   0  0  0  0  0  0  0  0  0  0  0  0
   -6.1080   21.2860  -32.3990 C   0  0  0  0  0  0  0  0  0  0  0  0
   -7.2460   20.5700  -32.7460 C   0  0  0  0  0  0  0  0  0  0  0  0
   -8.2875   20.8437  -32.5214 H   0  0  0  0  0  0  0  0  0  0  0  0
   -6.8180   19.4490  -33.4270 C   0  0  0  0  0  0  0  0  0  0  0  0
   -7.4491   18.6552  -33.8532 H   0  0  0  0  0  0  0  0  0  0  0  0
   -5.4390   19.5220  -33.4670 C   0  0  0  0  0  0  0  0  0  0  0  0
   -4.5470   18.5380  -34.1010 C   0  0  0  0  0  0  0  0  0  0  0  0
   -4.9730   17.8610  -35.0750 O   0  0  0  0  0  0  0  0  0  0  0  0
   -3.2420   18.3050  -33.5460 N   0  0  0  0  0  0  0  0  0  0  0  0
   -2.1780   19.0650  -33.5730 C   0  0  0  0  0  0  0  0  0  0  0  0
   -2.1890   20.3810  -34.0830 C   0  0  0  0  0  0  0  0  0  0  0  0
   -3.1161   20.8085  -34.4926 H   0  0  0  0  0  0  0  0  0  0  0  0
   -1.0170   21.1350  -34.0640 C   0  0  0  0  0  0  0  0  0  0  0  0
   -1.0179   22.1597  -34.4639 H   0  0  0  0  0  0  0  0  0  0  0  0
    0.1540   20.5960  -33.5410 C   0  0  0  0  0  0  0  0  0  0  0  0
    1.0793   21.1906  -33.5223 H   0  0  0  0  0  0  0  0  0  0  0  0
    0.1430   19.2900  -33.0390 C   0  0  0  0  0  0  0  0  0  0  0  0
    1.3880   18.7110  -32.4370 C   0  0  0  0  0  0  0  0  0  0  0  0
    1.3149   18.7450  -31.3400 H   0  0  0  0  0  0  0  0  0  0  0  0
    1.5026   17.6672  -32.7647 H   0  0  0  0  0  0  0  0  0  0  0  0
    2.2600   19.2960  -32.7647 H   0  0  0  0  0  0  0  0  0  0  0  0
   -1.0190   18.5720  -33.0450 N   0  0  0  0  0  0  0  0  0  0  0  0
   -1.0180   17.6050  -32.6460 H   0  0  0  0  0  0  0  0  0  0  0  0
   -5.0100   20.6340  -32.8420 N   0  0  0  0  0  0  0  0  0  0  0  0
   -4.0140   20.9140  -32.7140 H   0  0  0  0  0  0  0  0  0  0  0  0
   -7.2700   23.1620  -31.1890 C   0  0  0  0  0  0  0  0  0  0  0  0
   -8.2336   22.6679  -31.3822 H   0  0  0  0  0  0  0  0  0  0  0  0
  1  2  1  0
  2  3  2  0
  3  4  1  0
  3  5  1  0
  5  6  1  0
  6  7  1  0
  7  8  2  0
  7  9  1  0
  9 10  2  0
 10 11  1  0
 10 12  1  0
 12 13  1  0
 12 14  2  0
 14 15  1  0
 14 16  1  0
 16 17  1  0
 17 18  1  0
 17 19  1  0
 17 20  1  0
 16 21  2  0
 21 22  1  0
  5 23  2  0
 23 24  1  0
 23 25  1  0
 25 26  1  0
 26 27  2  0
 27 28  1  0
 27 29  1  0
 29 30  1  0
 29 31  2  0
 31 32  1  0
 32 33  2  0
 32 34  1  0
 34 35  2  0
 35 36  1  0
 36 37  1  0
 36 38  2  0
 38 39  1  0
 38 40  1  0
 40 41  1  0
 40 42  2  0
 42 43  1  0
 43 44  1  0
 43 45  1  0
 43 46  1  0
 42 47  1  0
 47 48  1  0
 31 49  1  0
 49 50  1  0
 25 51  2  0
 51 52  1  0
 51  2  1  0
 21  9  1  0
 49 26  1  0
 47 35  1  0
M  CHG  1   6  -1
M  END
>  <UniqueID>  (25) 
24

>  <SMILES>  (25) 
Cc1ccc/c(=N\C(=O)c2ccc(-c3cccc([N-]C(=O)c4cccc(C(F)(F)F)c4)c3)[nH]2)[nH]1

>  <Energy>  (25) 
98.21000890932882

>  <Genealogy>  (25) 
Cc1cccc(=NC(=O)c2ccc(-c3cccc([N-]C(=O)c4cccc(C(F)(F)F)c4)c3)[nH]2)[nH]1 (protonated)
Cc1ccc/c(=N\C(=O)c2ccc(-c3cccc([N-]C(=O)c4cccc(C(F)(F)F)c4)c3)[nH]2)[nH]1 (cis-trans isomerization)
Cc1ccc/c(=N\C(=O)c2ccc(-c3cccc([N-]C(=O)c4cccc(C(F)(F)F)c4)c3)[nH]2)[nH]1 (3D coordinates assigned)
Cc1ccc/c(=N\C(=O)c2ccc(-c3cccc([N-]C(=O)c4cccc(C(F)(F)F)c4)c3)[nH]2)[nH]1 (optimized conformer: 98.21000890932882 kcal/mol)

>  <smiles>  (25) 
Cc1cccc(=NC(=O)c2ccc(-c3cccc(NC(=O)c4cccc(C(F)(F)F)c4)c3)[nH]2)[nH]1

>  <score_type>  (25) 
oracle

>  <origin>  (25) 
adgpu

>  <m_score__min__energy>  (25) 
-10.85

>  <m_primary>  (25) 
energy

$$$$
25:0
     RDKit          3D

 42 45  0  0  0  0  0  0  0  0999 V2000
   -2.2521   16.0236  -35.1155 H   0  0  0  0  0  0  0  0  0  0  0  0
   -2.7770   16.8560  -34.6240 C   0  0  0  0  0  0  0  0  0  0  0  0
   -2.2090   18.0840  -34.5970 N   0  0  0  0  0  0  0  0  0  0  0  0
   -2.7770   19.1260  -33.9430 C   0  0  0  0  0  0  0  0  0  0  0  0
   -2.0990   20.3470  -33.9010 C   0  0  0  0  0  0  0  0  0  0  0  0
   -1.1748   20.4792  -34.4828 H   0  0  0  0  0  0  0  0  0  0  0  0
   -2.5860   21.3980  -33.1270 C   0  0  0  0  0  0  0  0  0  0  0  0
   -2.0667   22.3677  -33.1311 H   0  0  0  0  0  0  0  0  0  0  0  0
   -3.7350   21.2250  -32.3430 C   0  0  0  0  0  0  0  0  0  0  0  0
   -4.2110   22.3170  -31.4520 C   0  0  0  0  0  0  0  0  0  0  0  0
   -5.5600   22.3850  -31.0570 C   0  0  0  0  0  0  0  0  0  0  0  0
   -6.2706   21.6213  -31.4059 H   0  0  0  0  0  0  0  0  0  0  0  0
   -6.0030   23.4170  -30.2240 C   0  0  0  0  0  0  0  0  0  0  0  0
   -7.0594   23.4629  -29.9209 H   0  0  0  0  0  0  0  0  0  0  0  0
   -5.1060   24.3900  -29.7760 C   0  0  0  0  0  0  0  0  0  0  0  0
   -5.4565   25.2011  -29.1208 H   0  0  0  0  0  0  0  0  0  0  0  0
   -3.7640   24.3330  -30.1600 C   0  0  0  0  0  0  0  0  0  0  0  0
   -2.8720   25.3000  -29.7120 O   0  0  0  0  0  0  0  0  0  0  0  0
   -3.3170   23.3030  -30.9930 C   0  0  0  0  0  0  0  0  0  0  0  0
   -2.2592   23.2627  -31.2919 H   0  0  0  0  0  0  0  0  0  0  0  0
   -4.4210   20.0000  -32.3940 C   0  0  0  0  0  0  0  0  0  0  0  0
   -5.2961   19.8457  -31.7456 H   0  0  0  0  0  0  0  0  0  0  0  0
   -4.0100   18.9600  -33.2620 C   0  0  0  0  0  0  0  0  0  0  0  0
   -4.6990   17.7100  -33.3990 C   0  0  0  0  0  0  0  0  0  0  0  0
   -5.9250   17.4940  -32.9880 N   0  0  0  0  0  0  0  0  0  0  0  0
   -6.9600   18.4190  -32.6310 C   0  0  0  0  0  0  0  0  0  0  0  0
   -7.8190   18.1150  -31.5660 C   0  0  0  0  0  0  0  0  0  0  0  0
   -7.6700   17.1913  -30.9875 H   0  0  0  0  0  0  0  0  0  0  0  0
   -8.8650   18.9830  -31.2370 C   0  0  0  0  0  0  0  0  0  0  0  0
   -9.5213   18.7536  -30.3845 H   0  0  0  0  0  0  0  0  0  0  0  0
   -9.0780   20.1410  -31.9890 C   0  0  0  0  0  0  0  0  0  0  0  0
   -9.8970   20.8260  -31.7243 H   0  0  0  0  0  0  0  0  0  0  0  0
   -8.2500   20.4290  -33.0780 C   0  0  0  0  0  0  0  0  0  0  0  0
   -8.4251   21.3348  -33.6771 H   0  0  0  0  0  0  0  0  0  0  0  0
   -7.2000   19.5670  -33.4060 C   0  0  0  0  0  0  0  0  0  0  0  0
   -6.5597   19.7874  -34.2728 H   0  0  0  0  0  0  0  0  0  0  0  0
   -4.0270   16.6350  -34.0320 C   0  0  0  0  0  0  0  0  0  0  0  0
   -4.6230   15.2830  -34.1540 C   0  0  0  0  0  0  0  0  0  0  0  0
   -3.8690   14.2820  -34.2920 O   0  0  0  0  0  0  0  0  0  0  0  0
   -6.0400   15.0930  -34.1640 N   0  0  0  0  0  0  0  0  0  0  0  0
   -6.4390   14.1300  -34.2020 H   0  0  0  0  0  0  0  0  0  0  0  0
   -6.6930   15.9050  -34.2250 H   0  0  0  0  0  0  0  0  0  0  0  0
  1  2  1  0
  2  3  1  0
  3  4  1  0
  4  5  2  0
  5  6  1  0
  5  7  1  0
  7  8  1  0
  7  9  2  0
  9 10  1  0
 10 11  2  0
 11 12  1  0
 11 13  1  0
 13 14  1  0
 13 15  2  0
 15 16  1  0
 15 17  1  0
 17 18  1  0
 17 19  2  0
 19 20  1  0
  9 21  1  0
 21 22  1  0
 21 23  2  0
 23 24  1  0
 24 25  2  0
 25 26  1  0
 26 27  2  0
 27 28  1  0
 27 29  1  0
 29 30  1  0
 29 31  2  0
 31 32  1  0
 31 33  1  0
 33 34  1  0
 33 35  2  0
 35 36  1  0
 24 37  1  0
 37 38  1  0
 38 39  2  0
 38 40  1  0
 40 41  1  0
 40 42  1  0
 37  2  2  0
 23  4  1  0
 35 26  1  0
 19 10  1  0
M  CHG  2   3  -1  18  -1
M  END
>  <UniqueID>  (26) 
25

>  <SMILES>  (26) 
NC(=O)c1c[n-]c2ccc(-c3cccc([O-])c3)cc2/c1=N\c1ccccc1

>  <Energy>  (26) 
79.90868115385065

>  <Genealogy>  (26) 
NC(=O)c1c[n-]c2ccc(-c3cccc([O-])c3)cc2c1=Nc1ccccc1 (protonated)
NC(=O)c1c[n-]c2ccc(-c3cccc([O-])c3)cc2/c1=N\c1ccccc1 (cis-trans isomerization)
NC(=O)c1c[n-]c2ccc(-c3cccc([O-])c3)cc2/c1=N\c1ccccc1 (3D coordinates assigned)
NC(=O)c1c[n-]c2ccc(-c3cccc([O-])c3)cc2/c1=N\c1ccccc1 (optimized conformer: 79.90868115385065 kcal/mol)

>  <smiles>  (26) 
NC(=O)c1c[nH]c2ccc(-c3cccc(O)c3)cc2c1=Nc1ccccc1

>  <score_type>  (26) 
oracle

>  <origin>  (26) 
adgpu

>  <m_score__min__energy>  (26) 
-11.68

>  <m_primary>  (26) 
energy

$$$$
26:0
     RDKit          3D

 67 71  0  0  0  0  0  0  0  0999 V2000
   -9.7490   22.3210  -31.4360 O   0  0  0  0  0  0  0  0  0  0  0  0
   -8.6280   22.0810  -31.9650 C   0  0  0  0  0  0  0  0  0  0  0  0
   -7.7700   23.1670  -32.3260 N   0  0  0  0  0  0  0  0  0  0  0  0
   -6.5640   23.4690  -31.6120 C   0  0  0  0  0  0  0  0  0  0  0  0
   -6.5620   24.4910  -30.6560 C   0  0  0  0  0  0  0  0  0  0  0  0
   -5.3950   24.7800  -29.9420 C   0  0  0  0  0  0  0  0  0  0  0  0
   -4.2310   24.0370  -30.1570 C   0  0  0  0  0  0  0  0  0  0  0  0
   -4.2180   22.9900  -31.0970 C   0  0  0  0  0  0  0  0  0  0  0  0
   -3.0000   22.1660  -31.3080 C   0  0  0  0  0  0  0  0  0  0  0  0
   -2.3370   21.5790  -30.2130 C   0  0  0  0  0  0  0  0  0  0  0  0
   -1.2460   20.7290  -30.4160 C   0  0  0  0  0  0  0  0  0  0  0  0
   -0.8050   20.4370  -31.7130 C   0  0  0  0  0  0  0  0  0  0  0  0
    0.2540   19.4280  -31.9070 C   0  0  0  0  0  0  0  0  0  0  0  0
    1.3980   19.6330  -31.4160 O   0  0  0  0  0  0  0  0  0  0  0  0
   -0.0050   18.2190  -32.6510 N   0  0  0  0  0  0  0  0  0  0  0  0
    1.0860   17.6020  -33.4190 C   0  0  0  0  0  0  0  0  0  0  0  0
    0.5450   16.5930  -34.4470 C   0  0  0  0  0  0  0  0  0  0  0  0
   -0.3510   15.5280  -33.7780 C   0  0  0  0  0  0  0  0  0  0  0  0
   -1.0160   14.6970  -34.8200 N   0  0  0  0  0  0  0  0  0  0  0  0
   -0.3670   14.6920  -36.1460 C   0  0  0  0  0  0  0  0  0  0  0  0
   -1.4210   15.0500  -37.1840 C   0  0  0  0  0  0  0  0  0  0  0  0
   -2.7430   14.8160  -36.4870 C   0  0  0  0  0  0  0  0  0  0  0  0
   -2.4340   15.0330  -35.0170 C   0  0  0  0  0  0  0  0  0  0  0  0
   -1.3340   16.1290  -32.7190 C   0  0  0  0  0  0  0  0  0  0  0  0
   -1.3680   17.6660  -32.7120 C   0  0  0  0  0  0  0  0  0  0  0  0
   -1.4370   21.0510  -32.8150 C   0  0  0  0  0  0  0  0  0  0  0  0
   -0.8950   20.7620  -34.4630 Cl  0  0  0  0  0  0  0  0  0  0  0  0
   -2.5180   21.9150  -32.6070 C   0  0  0  0  0  0  0  0  0  0  0  0
   -5.3970   22.7110  -31.8180 C   0  0  0  0  0  0  0  0  0  0  0  0
   -8.2090   20.6880  -32.1860 C   0  0  0  0  0  0  0  0  0  0  0  0
   -8.9450   19.6470  -31.5990 C   0  0  0  0  0  0  0  0  0  0  0  0
   -8.5770   18.3170  -31.8100 C   0  0  0  0  0  0  0  0  0  0  0  0
   -7.4600   18.0130  -32.5940 C   0  0  0  0  0  0  0  0  0  0  0  0
   -6.7030   19.0420  -33.1850 C   0  0  0  0  0  0  0  0  0  0  0  0
   -5.4620   18.7390  -33.9920 C   0  0  0  0  0  0  0  0  0  0  0  0
   -4.8920   17.5620  -33.5450 F   0  0  0  0  0  0  0  0  0  0  0  0
   -5.7500   18.6020  -35.3420 F   0  0  0  0  0  0  0  0  0  0  0  0
   -4.5460   19.7690  -33.8430 F   0  0  0  0  0  0  0  0  0  0  0  0
   -7.0830   20.3810  -32.9750 C   0  0  0  0  0  0  0  0  0  0  0  0
   -7.4794   25.0675  -30.4661 H   0  0  0  0  0  0  0  0  0  0  0  0
   -5.3931   25.5976  -29.2062 H   0  0  0  0  0  0  0  0  0  0  0  0
   -3.3195   24.2721  -29.5879 H   0  0  0  0  0  0  0  0  0  0  0  0
   -2.6804   21.7911  -29.1897 H   0  0  0  0  0  0  0  0  0  0  0  0
   -0.7302   20.2863  -29.5511 H   0  0  0  0  0  0  0  0  0  0  0  0
    1.6417   18.3900  -33.9485 H   0  0  0  0  0  0  0  0  0  0  0  0
    1.7433   17.0656  -32.7188 H   0  0  0  0  0  0  0  0  0  0  0  0
   -0.0451   17.1335  -35.2018 H   0  0  0  0  0  0  0  0  0  0  0  0
    1.4009   16.0813  -34.9114 H   0  0  0  0  0  0  0  0  0  0  0  0
    0.2906   14.8586  -33.1861 H   0  0  0  0  0  0  0  0  0  0  0  0
    0.4454   15.4333  -36.1673 H   0  0  0  0  0  0  0  0  0  0  0  0
    0.0603   13.7012  -36.3598 H   0  0  0  0  0  0  0  0  0  0  0  0
   -1.3240   16.1027  -37.4880 H   0  0  0  0  0  0  0  0  0  0  0  0
   -1.3224   14.4500  -38.1007 H   0  0  0  0  0  0  0  0  0  0  0  0
   -3.5002   15.5334  -36.8363 H   0  0  0  0  0  0  0  0  0  0  0  0
   -3.1530   13.8152  -36.6875 H   0  0  0  0  0  0  0  0  0  0  0  0
   -2.6145   16.0833  -34.7444 H   0  0  0  0  0  0  0  0  0  0  0  0
   -3.0774   14.4039  -34.3843 H   0  0  0  0  0  0  0  0  0  0  0  0
   -2.3472   15.7599  -32.9364 H   0  0  0  0  0  0  0  0  0  0  0  0
   -0.9755   15.8102  -31.7292 H   0  0  0  0  0  0  0  0  0  0  0  0
   -1.8600   18.0200  -33.6299 H   0  0  0  0  0  0  0  0  0  0  0  0
   -1.9248   18.0022  -31.8249 H   0  0  0  0  0  0  0  0  0  0  0  0
   -2.9968   22.4038  -33.4683 H   0  0  0  0  0  0  0  0  0  0  0  0
   -5.4044   21.8905  -32.5506 H   0  0  0  0  0  0  0  0  0  0  0  0
   -9.8163   19.8803  -30.9694 H   0  0  0  0  0  0  0  0  0  0  0  0
   -9.1673   17.5062  -31.3583 H   0  0  0  0  0  0  0  0  0  0  0  0
   -7.1710   16.9632  -32.7499 H   0  0  0  0  0  0  0  0  0  0  0  0
   -6.4969   21.1931  -33.4300 H   0  0  0  0  0  0  0  0  0  0  0  0
  1  2  2  0
  2  3  1  0
  3  4  1  0
  4  5  2  0
  5  6  1  0
  6  7  2  0
  7  8  1  0
  8  9  1  0
  9 10  2  0
 10 11  1  0
 11 12  2  0
 12 13  1  0
 13 14  2  0
 13 15  1  0
 15 16  1  0
 16 17  1  0
 17 18  1  0
 18 19  1  0
 19 20  1  0
 20 21  1  0
 21 22  1  0
 22 23  1  0
 18 24  1  0
 24 25  1  0
 12 26  1  0
 26 27  1  0
 26 28  2  0
  8 29  2  0
  2 30  1  0
 30 31  2  0
 31 32  1  0
 32 33  2  0
 33 34  1  0
 34 35  1  0
 35 36  1  0
 35 37  1  0
 35 38  1  0
 34 39  2  0
 29  4  1  0
 39 30  1  0
 28  9  1  0
 25 15  1  0
 23 19  1  0
  5 40  1  0
  6 41  1  0
  7 42  1  0
 10 43  1  0
 11 44  1  0
 16 45  1  0
 16 46  1  0
 17 47  1  0
 17 48  1  0
 18 49  1  0
 20 50  1  0
 20 51  1  0
 21 52  1  0
 21 53  1  0
 22 54  1  0
 22 55  1  0
 23 56  1  0
 23 57  1  0
 24 58  1  0
 24 59  1  0
 25 60  1  0
 25 61  1  0
 28 62  1  0
 29 63  1  0
 31 64  1  0
 32 65  1  0
 33 66  1  0
 39 67  1  0
M  CHG  1   3  -1
M  END
>  <UniqueID>  (27) 
26

>  <SMILES>  (27) 
O=C([N-]c1cccc(-c2ccc(C(=O)N3CCC(N4CCCC4)CC3)c(Cl)c2)c1)c1cccc(C(F)(F)F)c1

>  <Energy>  (27) 
101.6135486867611

>  <Genealogy>  (27) 
O=C([N-]c1cccc(-c2ccc(C(=O)N3CCC(N4CCCC4)CC3)c(Cl)c2)c1)c1cccc(C(F)(F)F)c1 (protonated)
O=C([N-]c1cccc(-c2ccc(C(=O)N3CCC(N4CCCC4)CC3)c(Cl)c2)c1)c1cccc(C(F)(F)F)c1 (3D coordinates assigned)
O=C([N-]c1cccc(-c2ccc(C(=O)N3CCC(N4CCCC4)CC3)c(Cl)c2)c1)c1cccc(C(F)(F)F)c1 (nonaromatic ring conformer: 101.6135486867611 kcal/mol)

>  <smiles>  (27) 
O=C(Nc1cccc(-c2ccc(C(=O)N3CCC(N4CCCC4)CC3)c(Cl)c2)c1)c1cccc(C(F)(F)F)c1

>  <score_type>  (27) 
oracle

>  <origin>  (27) 
adgpu

>  <m_score__min__energy>  (27) 
-12.32

>  <m_primary>  (27) 
energy

$$$$
27:0
     RDKit          3D

 28 30  0  0  0  0  0  0  0  0999 V2000
   -3.4090   17.3760  -33.5890 O   0  0  0  0  0  0  0  0  0  0  0  0
   -4.4980   18.1700  -33.2550 C   0  0  0  0  0  0  0  0  0  0  0  0
   -4.6530   19.4280  -33.8450 C   0  0  0  0  0  0  0  0  0  0  0  0
   -5.7490   20.2300  -33.5100 C   0  0  0  0  0  0  0  0  0  0  0  0
   -6.6910   19.7860  -32.5680 C   0  0  0  0  0  0  0  0  0  0  0  0
   -7.8550   20.6350  -32.2380 C   0  0  0  0  0  0  0  0  0  0  0  0
   -9.1280   20.2150  -32.3810 N   0  0  0  0  0  0  0  0  0  0  0  0
   -9.8590   21.2320  -31.8800 C   0  0  0  0  0  0  0  0  0  0  0  0
   -9.1150   22.2270  -31.4540 O   0  0  0  0  0  0  0  0  0  0  0  0
   -7.8650   21.9010  -31.6710 C   0  0  0  0  0  0  0  0  0  0  0  0
   -6.7280   22.7980  -31.3730 C   0  0  0  0  0  0  0  0  0  0  0  0
   -6.9200   24.1760  -31.1800 C   0  0  0  0  0  0  0  0  0  0  0  0
   -5.8360   25.0040  -30.8790 C   0  0  0  0  0  0  0  0  0  0  0  0
   -4.5530   24.4630  -30.7500 C   0  0  0  0  0  0  0  0  0  0  0  0
   -3.4810   25.2970  -30.4520 O   0  0  0  0  0  0  0  0  0  0  0  0
   -4.3560   23.0860  -30.9170 C   0  0  0  0  0  0  0  0  0  0  0  0
   -2.7530   22.3860  -30.7480 Cl  0  0  0  0  0  0  0  0  0  0  0  0
   -5.4420   22.2560  -31.2190 C   0  0  0  0  0  0  0  0  0  0  0  0
   -6.5400   18.5100  -31.9960 C   0  0  0  0  0  0  0  0  0  0  0  0
   -5.4430   17.7110  -32.3340 C   0  0  0  0  0  0  0  0  0  0  0  0
   -3.9118   19.7877  -34.5739 H   0  0  0  0  0  0  0  0  0  0  0  0
   -5.8736   21.2134  -33.9869 H   0  0  0  0  0  0  0  0  0  0  0  0
  -10.9580   21.2284  -31.8333 H   0  0  0  0  0  0  0  0  0  0  0  0
   -7.9291   24.6053  -31.2663 H   0  0  0  0  0  0  0  0  0  0  0  0
   -5.9920   26.0844  -30.7431 H   0  0  0  0  0  0  0  0  0  0  0  0
   -5.2870   21.1733  -31.3363 H   0  0  0  0  0  0  0  0  0  0  0  0
   -7.2879   18.1389  -31.2798 H   0  0  0  0  0  0  0  0  0  0  0  0
   -5.3240   16.7191  -31.8737 H   0  0  0  0  0  0  0  0  0  0  0  0
  1  2  1  0
  2  3  2  0
  3  4  1  0
  4  5  2  0
  5  6  1  0
  6  7  1  0
  7  8  2  0
  8  9  1  0
  9 10  1  0
 10 11  1  0
 11 12  2  0
 12 13  1  0
 13 14  2  0
 14 15  1  0
 14 16  1  0
 16 17  1  0
 16 18  2  0
  5 19  1  0
 19 20  2  0
 20  2  1  0
 10  6  2  0
 18 11  1  0
  3 21  1  0
  4 22  1  0
  8 23  1  0
 12 24  1  0
 13 25  1  0
 18 26  1  0
 19 27  1  0
 20 28  1  0
M  CHG  2   1  -1  15  -1
M  END
>  <UniqueID>  (28) 
27

>  <SMILES>  (28) 
[O-]c1ccc(-c2ncoc2-c2ccc([O-])c(Cl)c2)cc1

>  <Energy>  (28) 
68.87243359811237

>  <Genealogy>  (28) 
[O-]c1ccc(-c2ncoc2-c2ccc([O-])c(Cl)c2)cc1 (protonated)
[O-]c1ccc(-c2ncoc2-c2ccc([O-])c(Cl)c2)cc1 (3D coordinates assigned)
[O-]c1ccc(-c2ncoc2-c2ccc([O-])c(Cl)c2)cc1 (optimized conformer: 68.87243359811237 kcal/mol)

>  <smiles>  (28) 
Oc1ccc(-c2ncoc2-c2ccc(O)c(Cl)c2)cc1

>  <score_type>  (28) 
oracle

>  <origin>  (28) 
adgpu

>  <m_score__min__energy>  (28) 
-10.65

>  <m_primary>  (28) 
energy

$$$$
28:0
     RDKit          3D

 48 51  0  0  0  0  0  0  0  0999 V2000
   -7.7230   11.9290  -33.7830 C   0  0  0  0  0  0  0  0  0  0  0  0
   -7.2820   12.8570  -34.7700 O   0  0  0  0  0  0  0  0  0  0  0  0
   -6.4320   13.9420  -34.5120 C   0  0  0  0  0  0  0  0  0  0  0  0
   -5.0300   13.8270  -34.5470 C   0  0  0  0  0  0  0  0  0  0  0  0
   -4.2250   14.9390  -34.2820 C   0  0  0  0  0  0  0  0  0  0  0  0
   -4.8000   16.1850  -33.9770 C   0  0  0  0  0  0  0  0  0  0  0  0
   -3.9290   17.3540  -33.7000 C   0  0  0  0  0  0  0  0  0  0  0  0
   -2.6230   17.5430  -34.1260 C   0  0  0  0  0  0  0  0  0  0  0  0
   -2.2700   18.7810  -33.6250 C   0  0  0  0  0  0  0  0  0  0  0  0
   -0.9940   19.4750  -33.9120 C   0  0  0  0  0  0  0  0  0  0  0  0
    0.2280   18.8400  -33.6320 C   0  0  0  0  0  0  0  0  0  0  0  0
    1.4370   19.4850  -33.9050 C   0  0  0  0  0  0  0  0  0  0  0  0
    1.4390   20.7640  -34.4710 C   0  0  0  0  0  0  0  0  0  0  0  0
    2.6470   21.4000  -34.7350 O   0  0  0  0  0  0  0  0  0  0  0  0
    0.2280   21.3990  -34.7700 C   0  0  0  0  0  0  0  0  0  0  0  0
    0.2370   22.6720  -35.3410 O   0  0  0  0  0  0  0  0  0  0  0  0
   -0.9850   20.7510  -34.4990 C   0  0  0  0  0  0  0  0  0  0  0  0
   -3.3170   19.2810  -32.9270 N   0  0  0  0  0  0  0  0  0  0  0  0
   -3.3770   20.4980  -32.1660 C   0  0  0  0  0  0  0  0  0  0  0  0
   -4.1250   21.5980  -32.6210 C   0  0  0  0  0  0  0  0  0  0  0  0
   -4.1690   22.7790  -31.8750 C   0  0  0  0  0  0  0  0  0  0  0  0
   -3.4530   22.8820  -30.6750 C   0  0  0  0  0  0  0  0  0  0  0  0
   -3.5250   24.3630  -29.7260 S   0  0  0  0  0  0  0  0  0  0  0  0
   -4.2620   25.6130  -30.6630 N   0  0  0  0  0  0  0  0  0  0  0  0
   -2.1370   24.7860  -29.3330 O   0  0  0  0  0  0  0  0  0  0  0  0
   -4.3290   24.1300  -28.4780 O   0  0  0  0  0  0  0  0  0  0  0  0
   -2.6940   21.7940  -30.2260 C   0  0  0  0  0  0  0  0  0  0  0  0
   -2.6490   20.6130  -30.9720 C   0  0  0  0  0  0  0  0  0  0  0  0
   -4.3240   18.4210  -32.9760 N   0  0  0  0  0  0  0  0  0  0  0  0
   -6.2030   16.2930  -33.9460 C   0  0  0  0  0  0  0  0  0  0  0  0
   -7.0060   15.1800  -34.2110 C   0  0  0  0  0  0  0  0  0  0  0  0
   -7.5281   12.3391  -32.7811 H   0  0  0  0  0  0  0  0  0  0  0  0
   -8.8019   11.7512  -33.9029 H   0  0  0  0  0  0  0  0  0  0  0  0
   -7.1795   10.9802  -33.9029 H   0  0  0  0  0  0  0  0  0  0  0  0
   -4.5655   12.8584  -34.7838 H   0  0  0  0  0  0  0  0  0  0  0  0
   -3.1301   14.8378  -34.3125 H   0  0  0  0  0  0  0  0  0  0  0  0
   -2.0060   16.8599  -34.7282 H   0  0  0  0  0  0  0  0  0  0  0  0
    0.2327   17.8302  -33.1958 H   0  0  0  0  0  0  0  0  0  0  0  0
    2.3896   18.9857  -33.6742 H   0  0  0  0  0  0  0  0  0  0  0  0
    1.1040   23.1550  -35.5440 H   0  0  0  0  0  0  0  0  0  0  0  0
   -1.9359   21.2449  -34.7476 H   0  0  0  0  0  0  0  0  0  0  0  0
   -4.6785   21.5288  -33.5691 H   0  0  0  0  0  0  0  0  0  0  0  0
   -4.7676   23.6304  -32.2310 H   0  0  0  0  0  0  0  0  0  0  0  0
   -3.5070   26.0480  -31.2400 H   0  0  0  0  0  0  0  0  0  0  0  0
   -2.1317   21.8692  -29.2836 H   0  0  0  0  0  0  0  0  0  0  0  0
   -2.0387   19.7679  -30.6207 H   0  0  0  0  0  0  0  0  0  0  0  0
   -6.6710   17.2604  -33.7115 H   0  0  0  0  0  0  0  0  0  0  0  0
   -8.1011   15.2797  -34.1823 H   0  0  0  0  0  0  0  0  0  0  0  0
  1  2  1  0
  2  3  1  0
  3  4  2  0
  4  5  1  0
  5  6  2  0
  6  7  1  0
  7  8  1  0
  8  9  2  0
  9 10  1  0
 10 11  2  0
 11 12  1  0
 12 13  2  0
 13 14  1  0
 13 15  1  0
 15 16  1  0
 15 17  2  0
  9 18  1  0
 18 19  1  0
 19 20  2  0
 20 21  1  0
 21 22  2  0
 22 23  1  0
 23 24  1  0
 23 25  2  0
 23 26  2  0
 22 27  1  0
 27 28  2  0
 18 29  1  0
  6 30  1  0
 30 31  2  0
 31  3  1  0
 29  7  2  0
 17 10  1  0
 28 19  1  0
  1 32  1  0
  1 33  1  0
  1 34  1  0
  4 35  1  0
  5 36  1  0
  8 37  1  0
 11 38  1  0
 12 39  1  0
 16 40  1  0
 17 41  1  0
 20 42  1  0
 21 43  1  0
 24 44  1  0
 27 45  1  0
 28 46  1  0
 30 47  1  0
 31 48  1  0
M  CHG  2  14  -1  24  -1
M  END
>  <UniqueID>  (29) 
28

>  <SMILES>  (29) 
COc1ccc(-c2cc(-c3ccc([O-])c(O)c3)n(-c3ccc(S([NH-])(=O)=O)cc3)n2)cc1

>  <Energy>  (29) 
91.893703749237

>  <Genealogy>  (29) 
COc1ccc(-c2cc(-c3ccc([O-])c(O)c3)n(-c3ccc(S([NH-])(=O)=O)cc3)n2)cc1 (protonated)
COc1ccc(-c2cc(-c3ccc([O-])c(O)c3)n(-c3ccc(S([NH-])(=O)=O)cc3)n2)cc1 (3D coordinates assigned)
COc1ccc(-c2cc(-c3ccc([O-])c(O)c3)n(-c3ccc(S([NH-])(=O)=O)cc3)n2)cc1 (optimized conformer: 91.893703749237 kcal/mol)

>  <smiles>  (29) 
COc1ccc(-c2cc(-c3ccc(O)c(O)c3)n(-c3ccc(S(N)(=O)=O)cc3)n2)cc1

>  <score_type>  (29) 
oracle

>  <origin>  (29) 
adgpu

>  <m_score__min__energy>  (29) 
-11.300000000000001

>  <m_primary>  (29) 
energy

$$$$
29:0
     RDKit          3D

 59 62  0  0  0  0  0  0  0  0999 V2000
   -7.8820   18.2920  -32.2930 C   0  0  0  0  0  0  0  0  0  0  0  0
   -6.7550   18.9830  -32.9200 N   0  0  0  0  0  0  0  0  0  0  0  0
   -6.3990   20.3110  -32.4980 C   0  0  0  0  0  0  0  0  0  0  0  0
   -7.2860   21.3840  -32.7020 C   0  0  0  0  0  0  0  0  0  0  0  0
   -6.9500   22.6720  -32.2760 C   0  0  0  0  0  0  0  0  0  0  0  0
   -5.7260   22.9020  -31.6330 C   0  0  0  0  0  0  0  0  0  0  0  0
   -5.3830   24.2250  -31.1850 C   0  0  0  0  0  0  0  0  0  0  0  0
   -5.1080   25.2890  -30.8230 N   0  0  0  0  0  0  0  0  0  0  0  0
   -4.8400   21.8380  -31.4240 C   0  0  0  0  0  0  0  0  0  0  0  0
   -5.1760   20.5500  -31.8510 C   0  0  0  0  0  0  0  0  0  0  0  0
   -5.8240   18.1590  -34.1390 S   0  0  0  0  0  0  0  0  0  0  0  0
   -6.1810   16.6980  -34.1720 O   0  0  0  0  0  0  0  0  0  0  0  0
   -6.1190   18.7520  -35.4870 O   0  0  0  0  0  0  0  0  0  0  0  0
   -4.1110   18.3100  -33.7590 C   0  0  0  0  0  0  0  0  0  0  0  0
   -3.4610   17.2960  -33.0460 C   0  0  0  0  0  0  0  0  0  0  0  0
   -2.1100   17.4220  -32.7160 C   0  0  0  0  0  0  0  0  0  0  0  0
   -1.3890   18.5720  -33.0870 C   0  0  0  0  0  0  0  0  0  0  0  0
    0.0370   18.7160  -32.7180 C   0  0  0  0  0  0  0  0  0  0  0  0
    0.9330   18.2510  -33.4750 O   0  0  0  0  0  0  0  0  0  0  0  0
    0.3990   19.3230  -31.4700 N   0  0  0  0  0  0  0  0  0  0  0  0
   -0.3460   20.3370  -30.7820 C   0  0  0  0  0  0  0  0  0  0  0  0
   -0.6720   20.2230  -29.4190 C   0  0  0  0  0  0  0  0  0  0  0  0
   -1.3950   21.2330  -28.7800 C   0  0  0  0  0  0  0  0  0  0  0  0
   -1.7950   22.3740  -29.4920 C   0  0  0  0  0  0  0  0  0  0  0  0
   -2.7060   23.6560  -28.6840 S   0  0  0  0  0  0  0  0  0  0  0  0
   -2.7480   24.8620  -29.5770 O   0  0  0  0  0  0  0  0  0  0  0  0
   -4.1180   23.1890  -28.4680 O   0  0  0  0  0  0  0  0  0  0  0  0
   -2.0190   24.1100  -27.1450 N   0  0  0  0  0  0  0  0  0  0  0  0
   -0.7290   24.7770  -27.2960 C   0  0  0  0  0  0  0  0  0  0  0  0
   -0.5420   25.6280  -26.0510 C   0  0  0  0  0  0  0  0  0  0  0  0
   -1.9470   25.8620  -25.5120 C   0  0  0  0  0  0  0  0  0  0  0  0
   -2.8690   25.0550  -26.4180 C   0  0  0  0  0  0  0  0  0  0  0  0
   -1.4390   22.5040  -30.8420 C   0  0  0  0  0  0  0  0  0  0  0  0
   -0.7130   21.4950  -31.4790 C   0  0  0  0  0  0  0  0  0  0  0  0
   -2.0470   19.5860  -33.8050 C   0  0  0  0  0  0  0  0  0  0  0  0
   -3.3980   19.4540  -34.1400 C   0  0  0  0  0  0  0  0  0  0  0  0
   -7.7855   18.3511  -31.1988 H   0  0  0  0  0  0  0  0  0  0  0  0
   -8.8233   18.7684  -32.6044 H   0  0  0  0  0  0  0  0  0  0  0  0
   -7.8844   17.2370  -32.6044 H   0  0  0  0  0  0  0  0  0  0  0  0
   -8.2507   21.2079  -33.2003 H   0  0  0  0  0  0  0  0  0  0  0  0
   -7.6469   23.5061  -32.4455 H   0  0  0  0  0  0  0  0  0  0  0  0
   -3.8773   22.0161  -30.9226 H   0  0  0  0  0  0  0  0  0  0  0  0
   -4.4774   19.7179  -31.6789 H   0  0  0  0  0  0  0  0  0  0  0  0
   -4.0168   16.3960  -32.7443 H   0  0  0  0  0  0  0  0  0  0  0  0
   -1.6058   16.6165  -32.1620 H   0  0  0  0  0  0  0  0  0  0  0  0
   -0.3561   19.3341  -28.8532 H   0  0  0  0  0  0  0  0  0  0  0  0
   -1.6517   21.1335  -27.7150 H   0  0  0  0  0  0  0  0  0  0  0  0
    0.0777   24.0333  -27.3740 H   0  0  0  0  0  0  0  0  0  0  0  0
   -0.7000   25.3907  -28.2084 H   0  0  0  0  0  0  0  0  0  0  0  0
    0.0721   25.0964  -25.3092 H   0  0  0  0  0  0  0  0  0  0  0  0
   -0.0244   26.5729  -26.2730 H   0  0  0  0  0  0  0  0  0  0  0  0
   -2.0240   25.5096  -24.4728 H   0  0  0  0  0  0  0  0  0  0  0  0
   -2.2104   26.9300  -25.5080 H   0  0  0  0  0  0  0  0  0  0  0  0
   -3.6121   24.5115  -25.8160 H   0  0  0  0  0  0  0  0  0  0  0  0
   -3.4169   25.7102  -27.1112 H   0  0  0  0  0  0  0  0  0  0  0  0
   -1.7327   23.4043  -31.4017 H   0  0  0  0  0  0  0  0  0  0  0  0
   -0.4276   21.6107  -32.5350 H   0  0  0  0  0  0  0  0  0  0  0  0
   -1.4953   20.4891  -34.1052 H   0  0  0  0  0  0  0  0  0  0  0  0
   -3.9029   20.2515  -34.7049 H   0  0  0  0  0  0  0  0  0  0  0  0
  1  2  1  0
  2  3  1  0
  3  4  2  0
  4  5  1  0
  5  6  2  0
  6  7  1  0
  7  8  3  0
  6  9  1  0
  9 10  2  0
  2 11  1  0
 11 12  2  0
 11 13  2  0
 11 14  1  0
 14 15  2  0
 15 16  1  0
 16 17  2  0
 17 18  1  0
 18 19  2  0
 18 20  1  0
 20 21  1  0
 21 22  2  0
 22 23  1  0
 23 24  2  0
 24 25  1  0
 25 26  2  0
 25 27  2  0
 25 28  1  0
 28 29  1  0
 29 30  1  0
 30 31  1  0
 31 32  1  0
 24 33  1  0
 33 34  2  0
 17 35  1  0
 35 36  2  0
 10  3  1  0
 36 14  1  0
 34 21  1  0
 32 28  1  0
  1 37  1  0
  1 38  1  0
  1 39  1  0
  4 40  1  0
  5 41  1  0
  9 42  1  0
 10 43  1  0
 15 44  1  0
 16 45  1  0
 22 46  1  0
 23 47  1  0
 29 48  1  0
 29 49  1  0
 30 50  1  0
 30 51  1  0
 31 52  1  0
 31 53  1  0
 32 54  1  0
 32 55  1  0
 33 56  1  0
 34 57  1  0
 35 58  1  0
 36 59  1  0
M  CHG  1  20  -1
M  END
>  <UniqueID>  (30) 
29

>  <SMILES>  (30) 
CN(c1ccc(C#N)cc1)S(=O)(=O)c1ccc(C(=O)[N-]c2ccc(S(=O)(=O)N3CCCC3)cc2)cc1

>  <Energy>  (30) 
72.38207409686082

>  <Genealogy>  (30) 
CN(c1ccc(C#N)cc1)S(=O)(=O)c1ccc(C(=O)[N-]c2ccc(S(=O)(=O)N3CCCC3)cc2)cc1 (protonated)
CN(c1ccc(C#N)cc1)S(=O)(=O)c1ccc(C(=O)[N-]c2ccc(S(=O)(=O)N3CCCC3)cc2)cc1 (3D coordinates assigned)
CN(c1ccc(C#N)cc1)S(=O)(=O)c1ccc(C(=O)[N-]c2ccc(S(=O)(=O)N3CCCC3)cc2)cc1 (nonaromatic ring conformer: 72.38207409686082 kcal/mol)

>  <smiles>  (30) 
CN(c1ccc(C#N)cc1)S(=O)(=O)c1ccc(C(=O)Nc2ccc(S(=O)(=O)N3CCCC3)cc2)cc1

>  <score_type>  (30) 
oracle

>  <origin>  (30) 
adgpu

>  <m_score__min__energy>  (30) 
-12.390000000000001

>  <m_primary>  (30) 
energy

$$$$
30:0
     RDKit          3D

 51 53  0  0  0  0  0  0  0  0999 V2000
   -5.3240   24.7950  -30.4310 C   0  0  0  0  0  0  0  0  0  0  0  0
   -4.2490   23.7740  -30.7400 C   0  0  0  0  0  0  0  0  0  0  0  0
   -3.0090   23.8540  -30.0760 C   0  0  0  0  0  0  0  0  0  0  0  0
   -2.7890   24.8930  -29.1160 N   0  0  0  0  0  0  0  0  0  0  0  0
   -2.8500   24.5720  -27.4110 S   0  0  0  0  0  0  0  0  0  0  0  0
   -1.6690   25.5920  -26.5500 C   0  0  0  0  0  0  0  0  0  0  0  0
   -2.5080   23.1280  -27.1690 O   0  0  0  0  0  0  0  0  0  0  0  0
   -4.2320   24.8570  -26.8880 O   0  0  0  0  0  0  0  0  0  0  0  0
   -1.9800   22.9420  -30.3760 C   0  0  0  0  0  0  0  0  0  0  0  0
   -0.6290   23.0740  -29.7120 C   0  0  0  0  0  0  0  0  0  0  0  0
   -2.2470   21.8500  -31.2230 C   0  0  0  0  0  0  0  0  0  0  0  0
   -1.2760   20.9220  -31.4450 N   0  0  0  0  0  0  0  0  0  0  0  0
   -1.4780   19.8210  -32.2060 C   0  0  0  0  0  0  0  0  0  0  0  0
   -2.7400   19.5590  -32.7360 C   0  0  0  0  0  0  0  0  0  0  0  0
   -2.9620   18.3110  -33.4270 C   0  0  0  0  0  0  0  0  0  0  0  0
   -3.1420   17.3080  -33.9810 N   0  0  0  0  0  0  0  0  0  0  0  0
   -3.7890   20.4800  -32.5260 C   0  0  0  0  0  0  0  0  0  0  0  0
   -5.1440   20.0420  -32.7610 N   0  0  0  0  0  0  0  0  0  0  0  0
   -5.5430   19.5910  -34.1010 C   0  0  0  0  0  0  0  0  0  0  0  0
   -5.9420   19.6140  -31.6040 C   0  0  0  0  0  0  0  0  0  0  0  0
   -7.3090   20.2420  -31.6270 C   0  0  0  0  0  0  0  0  0  0  0  0
   -7.5840   21.3810  -30.8520 C   0  0  0  0  0  0  0  0  0  0  0  0
   -8.8630   21.9410  -30.8660 C   0  0  0  0  0  0  0  0  0  0  0  0
   -9.8610   21.3530  -31.6500 C   0  0  0  0  0  0  0  0  0  0  0  0
   -9.5830   20.2470  -32.3940 N   0  0  0  0  0  0  0  0  0  0  0  0
   -8.3420   19.6860  -32.4020 C   0  0  0  0  0  0  0  0  0  0  0  0
   -3.5200   21.7010  -31.8350 C   0  0  0  0  0  0  0  0  0  0  0  0
   -4.4570   22.7700  -31.7220 C   0  0  0  0  0  0  0  0  0  0  0  0
   -5.5890   22.9340  -32.7180 C   0  0  0  0  0  0  0  0  0  0  0  0
   -5.4308   24.8965  -29.3409 H   0  0  0  0  0  0  0  0  0  0  0  0
   -5.0425   25.7663  -30.8638 H   0  0  0  0  0  0  0  0  0  0  0  0
   -6.2795   24.4638  -30.8638 H   0  0  0  0  0  0  0  0  0  0  0  0
   -1.8052   25.4744  -25.4648 H   0  0  0  0  0  0  0  0  0  0  0  0
   -0.6494   25.2859  -26.8269 H   0  0  0  0  0  0  0  0  0  0  0  0
   -1.8235   26.6453  -26.8269 H   0  0  0  0  0  0  0  0  0  0  0  0
   -0.7547   23.0617  -28.6193 H   0  0  0  0  0  0  0  0  0  0  0  0
    0.0129   22.2343  -30.0167 H   0  0  0  0  0  0  0  0  0  0  0  0
   -0.1618   24.0221  -30.0167 H   0  0  0  0  0  0  0  0  0  0  0  0
   -0.6445   19.1318  -32.4065 H   0  0  0  0  0  0  0  0  0  0  0  0
   -6.2694   18.7699  -34.0104 H   0  0  0  0  0  0  0  0  0  0  0  0
   -6.0019   20.4278  -34.6480 H   0  0  0  0  0  0  0  0  0  0  0  0
   -4.6565   19.2376  -34.6480 H   0  0  0  0  0  0  0  0  0  0  0  0
   -6.0490   18.5194  -31.6264 H   0  0  0  0  0  0  0  0  0  0  0  0
   -5.4262   19.9332  -30.6864 H   0  0  0  0  0  0  0  0  0  0  0  0
   -6.7926   21.8312  -30.2348 H   0  0  0  0  0  0  0  0  0  0  0  0
   -9.0837   22.8362  -30.2661 H   0  0  0  0  0  0  0  0  0  0  0  0
  -10.8725   21.7849  -31.6656 H   0  0  0  0  0  0  0  0  0  0  0  0
   -8.1472   18.7949  -33.0168 H   0  0  0  0  0  0  0  0  0  0  0  0
   -6.5367   23.0713  -32.1767 H   0  0  0  0  0  0  0  0  0  0  0  0
   -5.3969   23.8137  -33.3499 H   0  0  0  0  0  0  0  0  0  0  0  0
   -5.6544   22.0360  -33.3499 H   0  0  0  0  0  0  0  0  0  0  0  0
  1  2  1  0
  2  3  2  0
  3  4  1  0
  4  5  1  0
  5  6  1  0
  5  7  2  0
  5  8  2  0
  3  9  1  0
  9 10  1  0
  9 11  2  0
 11 12  1  0
 12 13  2  0
 13 14  1  0
 14 15  1  0
 15 16  3  0
 14 17  2  0
 17 18  1  0
 18 19  1  0
 18 20  1  0
 20 21  1  0
 21 22  2  0
 22 23  1  0
 23 24  2  0
 24 25  1  0
 25 26  2  0
 17 27  1  0
 27 28  2  0
 28 29  1  0
 28  2  1  0
 27 11  1  0
 26 21  1  0
  1 30  1  0
  1 31  1  0
  1 32  1  0
  6 33  1  0
  6 34  1  0
  6 35  1  0
 10 36  1  0
 10 37  1  0
 10 38  1  0
 13 39  1  0
 19 40  1  0
 19 41  1  0
 19 42  1  0
 20 43  1  0
 20 44  1  0
 22 45  1  0
 23 46  1  0
 24 47  1  0
 26 48  1  0
 29 49  1  0
 29 50  1  0
 29 51  1  0
M  CHG  1   4  -1
M  END
>  <UniqueID>  (31) 
30

>  <SMILES>  (31) 
Cc1c([N-]S(C)(=O)=O)c(C)c2ncc(C#N)c(N(C)Cc3cccnc3)c2c1C

>  <Energy>  (31) 
80.48248974989589

>  <Genealogy>  (31) 
Cc1c([N-]S(C)(=O)=O)c(C)c2ncc(C#N)c(N(C)Cc3cccnc3)c2c1C (protonated)
Cc1c([N-]S(C)(=O)=O)c(C)c2ncc(C#N)c(N(C)Cc3cccnc3)c2c1C (3D coordinates assigned)
Cc1c([N-]S(C)(=O)=O)c(C)c2ncc(C#N)c(N(C)Cc3cccnc3)c2c1C (optimized conformer: 80.48248974989589 kcal/mol)

>  <smiles>  (31) 
Cc1c(NS(C)(=O)=O)c(C)c2ncc(C#N)c(N(C)Cc3cccnc3)c2c1C

>  <score_type>  (31) 
oracle

>  <origin>  (31) 
adgpu

>  <m_score__min__energy>  (31) 
-10.949999999999999

>  <m_primary>  (31) 
energy

$$$$
31:0
     RDKit          3D

 52 55  0  0  0  0  0  0  0  0999 V2000
    0.9910   16.7590  -27.8420 C   0  0  0  0  0  0  0  0  0  0  0  0
    0.1720   17.7260  -28.4930 O   0  0  0  0  0  0  0  0  0  0  0  0
   -0.4180   18.8250  -27.8490 C   0  0  0  0  0  0  0  0  0  0  0  0
   -1.5300   18.5970  -27.0280 C   0  0  0  0  0  0  0  0  0  0  0  0
   -2.1510   19.6580  -26.3650 C   0  0  0  0  0  0  0  0  0  0  0  0
   -1.6560   20.9550  -26.5060 C   0  0  0  0  0  0  0  0  0  0  0  0
   -0.5340   21.2000  -27.3140 C   0  0  0  0  0  0  0  0  0  0  0  0
   -0.0280   22.5270  -27.5100 N   0  0  0  0  0  0  0  0  0  0  0  0
   -0.6240   23.5510  -28.3190 C   0  0  0  0  0  0  0  0  0  0  0  0
    0.0760   24.5540  -28.6200 O   0  0  0  0  0  0  0  0  0  0  0  0
   -2.0480   23.5020  -28.7440 C   0  0  0  0  0  0  0  0  0  0  0  0
   -3.0930   23.6470  -27.8130 C   0  0  0  0  0  0  0  0  0  0  0  0
   -4.4260   23.6320  -28.2330 C   0  0  0  0  0  0  0  0  0  0  0  0
   -4.7400   23.4890  -29.5910 C   0  0  0  0  0  0  0  0  0  0  0  0
   -6.4250   23.5090  -30.1360 S   0  0  0  0  0  0  0  0  0  0  0  0
   -6.9990   24.8550  -29.7870 O   0  0  0  0  0  0  0  0  0  0  0  0
   -7.2030   22.4690  -29.3790 O   0  0  0  0  0  0  0  0  0  0  0  0
   -6.6290   23.2540  -31.8610 N   0  0  2  0  0  0  0  0  0  0  0  0
   -8.0230   23.4150  -32.3230 C   0  0  0  0  0  0  0  0  0  0  0  0
   -8.9550   22.3040  -31.8240 C   0  0  0  0  0  0  0  0  0  0  0  0
   -8.3150   20.9390  -31.8700 C   0  0  0  0  0  0  0  0  0  0  0  0
   -9.1100   19.8060  -31.6360 C   0  0  0  0  0  0  0  0  0  0  0  0
   -8.5370   18.5330  -31.6080 C   0  0  0  0  0  0  0  0  0  0  0  0
   -7.1630   18.3800  -31.8050 C   0  0  0  0  0  0  0  0  0  0  0  0
   -6.3600   19.5010  -32.0320 C   0  0  0  0  0  0  0  0  0  0  0  0
   -6.9250   20.7870  -32.0440 C   0  0  0  0  0  0  0  0  0  0  0  0
   -6.0420   21.9800  -32.3220 C   0  0  0  0  0  0  0  0  0  0  0  0
   -3.7010   23.3920  -30.5260 C   0  0  0  0  0  0  0  0  0  0  0  0
   -2.3690   23.3850  -30.1070 C   0  0  0  0  0  0  0  0  0  0  0  0
    0.0690   20.1390  -27.9980 C   0  0  0  0  0  0  0  0  0  0  0  0
    0.8955   16.8718  -26.7520 H   0  0  0  0  0  0  0  0  0  0  0  0
    0.6696   15.7488  -28.1357 H   0  0  0  0  0  0  0  0  0  0  0  0
    2.0403   16.9098  -28.1357 H   0  0  0  0  0  0  0  0  0  0  0  0
   -1.9170   17.5747  -26.9046 H   0  0  0  0  0  0  0  0  0  0  0  0
   -3.0306   19.4711  -25.7315 H   0  0  0  0  0  0  0  0  0  0  0  0
   -2.1466   21.7887  -25.9822 H   0  0  0  0  0  0  0  0  0  0  0  0
   -2.8589   23.7732  -26.7456 H   0  0  0  0  0  0  0  0  0  0  0  0
   -5.2335   23.7331  -27.4929 H   0  0  0  0  0  0  0  0  0  0  0  0
   -6.0770   24.0170  -32.3180 H   0  0  0  0  0  0  0  0  0  0  0  0
   -8.4032   24.3807  -31.9585 H   0  0  0  0  0  0  0  0  0  0  0  0
   -8.0120   23.3646  -33.4218 H   0  0  0  0  0  0  0  0  0  0  0  0
   -9.2389   22.5241  -30.7843 H   0  0  0  0  0  0  0  0  0  0  0  0
   -9.8300   22.2819  -32.4902 H   0  0  0  0  0  0  0  0  0  0  0  0
  -10.1918   19.9218  -31.4736 H   0  0  0  0  0  0  0  0  0  0  0  0
   -9.1684   17.6499  -31.4306 H   0  0  0  0  0  0  0  0  0  0  0  0
   -6.7126   17.3767  -31.7815 H   0  0  0  0  0  0  0  0  0  0  0  0
   -5.2805   19.3757  -32.2021 H   0  0  0  0  0  0  0  0  0  0  0  0
   -5.0805   21.8313  -31.8087 H   0  0  0  0  0  0  0  0  0  0  0  0
   -5.9194   22.0507  -33.4129 H   0  0  0  0  0  0  0  0  0  0  0  0
   -3.9364   23.3208  -31.5982 H   0  0  0  0  0  0  0  0  0  0  0  0
   -1.5641   23.2871  -30.8503 H   0  0  0  0  0  0  0  0  0  0  0  0
    0.9289   20.3317  -28.6564 H   0  0  0  0  0  0  0  0  0  0  0  0
  1  2  1  0
  2  3  1  0
  3  4  2  0
  4  5  1  0
  5  6  2  0
  6  7  1  0
  7  8  1  0
  8  9  1  0
  9 10  2  0
  9 11  1  0
 11 12  2  0
 12 13  1  0
 13 14  2  0
 14 15  1  0
 15 16  2  0
 15 17  2  0
 15 18  1  0
 18 19  1  0
 19 20  1  0
 20 21  1  0
 21 22  2  0
 22 23  1  0
 23 24  2  0
 24 25  1  0
 25 26  2  0
 26 27  1  0
 14 28  1  0
 28 29  2  0
  7 30  2  0
 30  3  1  0
 29 11  1  0
 27 18  1  0
 26 21  1  0
  1 31  1  0
  1 32  1  0
  1 33  1  0
  4 34  1  0
  5 35  1  0
  6 36  1  0
 12 37  1  0
 13 38  1  0
 18 39  1  6
 19 40  1  0
 19 41  1  0
 20 42  1  0
 20 43  1  0
 22 44  1  0
 23 45  1  0
 24 46  1  0
 25 47  1  0
 27 48  1  0
 27 49  1  0
 28 50  1  0
 29 51  1  0
 30 52  1  0
M  CHG  2   8  -1  18   1
M  END
>  <UniqueID>  (32) 
31

>  <SMILES>  (32) 
COc1cccc([N-]C(=O)c2ccc(S(=O)(=O)[N@@H+]3CCc4ccccc4C3)cc2)c1

>  <Energy>  (32) 
63.67629656035336

>  <Genealogy>  (32) 
COc1cccc([N-]C(=O)c2ccc(S(=O)(=O)[NH+]3CCc4ccccc4C3)cc2)c1 (protonated)
COc1cccc([N-]C(=O)c2ccc(S(=O)(=O)[N@@H+]3CCc4ccccc4C3)cc2)c1 (chirality)
COc1cccc([N-]C(=O)c2ccc(S(=O)(=O)[N@@H+]3CCc4ccccc4C3)cc2)c1 (3D coordinates assigned)
COc1cccc([N-]C(=O)c2ccc(S(=O)(=O)[N@@H+]3CCc4ccccc4C3)cc2)c1 (nonaromatic ring conformer: 63.67629656035336 kcal/mol)

>  <smiles>  (32) 
COc1cccc(NC(=O)c2ccc(S(=O)(=O)N3CCc4ccccc4C3)cc2)c1

>  <score_type>  (32) 
oracle

>  <origin>  (32) 
adgpu

>  <m_score__min__energy>  (32) 
-11.300000000000001

>  <m_primary>  (32) 
energy

$$$$
32:0
     RDKit          3D

 50 53  0  0  0  0  0  0  0  0999 V2000
   -2.9290   20.8080  -33.4190 C   0  0  0  0  0  0  0  0  0  0  0  0
   -4.2510   21.5670  -33.3900 C   0  0  0  0  0  0  0  0  0  0  0  0
   -4.5970   22.0210  -31.9670 C   0  0  0  0  0  0  0  0  0  0  0  0
   -6.0070   21.7610  -31.6680 N   0  0  0  0  0  0  0  0  0  0  0  0
   -6.8780   22.5700  -31.0260 C   0  0  0  0  0  0  0  0  0  0  0  0
   -6.5200   24.2260  -30.4270 S   0  0  0  0  0  0  0  0  0  0  0  0
   -4.9180   23.7650  -29.7570 C   0  0  0  0  0  0  0  0  0  0  0  0
   -4.8170   22.6460  -28.9180 C   0  0  0  0  0  0  0  0  0  0  0  0
   -3.5790   22.2680  -28.3780 C   0  0  0  0  0  0  0  0  0  0  0  0
   -3.4980   21.0890  -27.5590 N   0  0  0  0  0  0  0  0  0  0  0  0
   -2.4570   20.1020  -27.6570 C   0  0  0  0  0  0  0  0  0  0  0  0
   -1.4970   20.1510  -28.6840 C   0  0  0  0  0  0  0  0  0  0  0  0
   -0.4780   19.1960  -28.7430 C   0  0  0  0  0  0  0  0  0  0  0  0
   -0.3980   18.1940  -27.7720 C   0  0  0  0  0  0  0  0  0  0  0  0
    0.9970   16.8920  -27.8540 Br  0  0  0  0  0  0  0  0  0  0  0  0
   -1.3350   18.1530  -26.7340 C   0  0  0  0  0  0  0  0  0  0  0  0
   -2.3540   19.1070  -26.6730 C   0  0  0  0  0  0  0  0  0  0  0  0
   -2.4320   23.0110  -28.7060 C   0  0  0  0  0  0  0  0  0  0  0  0
   -2.5340   24.1410  -29.5200 C   0  0  0  0  0  0  0  0  0  0  0  0
   -3.7740   24.5280  -30.0370 C   0  0  0  0  0  0  0  0  0  0  0  0
   -3.8630   25.6810  -30.8090 O   0  0  0  0  0  0  0  0  0  0  0  0
   -8.0770   21.9810  -30.8670 N   0  0  0  0  0  0  0  0  0  0  0  0
   -7.9870   20.7710  -31.3970 N   0  0  0  0  0  0  0  0  0  0  0  0
   -6.7390   20.6410  -31.8870 C   0  0  0  0  0  0  0  0  0  0  0  0
   -6.2580   19.3950  -32.5180 C   0  0  0  0  0  0  0  0  0  0  0  0
   -5.9000   18.3030  -31.7090 C   0  0  0  0  0  0  0  0  0  0  0  0
   -5.4630   17.1070  -32.2860 C   0  0  0  0  0  0  0  0  0  0  0  0
   -5.3950   16.9850  -33.6760 C   0  0  0  0  0  0  0  0  0  0  0  0
   -5.7720   18.0560  -34.4900 C   0  0  0  0  0  0  0  0  0  0  0  0
   -6.2090   19.2540  -33.9160 C   0  0  0  0  0  0  0  0  0  0  0  0
   -2.5940   20.6156  -32.3891 H   0  0  0  0  0  0  0  0  0  0  0  0
   -3.0668   19.8515  -33.9444 H   0  0  0  0  0  0  0  0  0  0  0  0
   -2.1724   21.4093  -33.9444 H   0  0  0  0  0  0  0  0  0  0  0  0
   -4.1718   22.4511  -34.0397 H   0  0  0  0  0  0  0  0  0  0  0  0
   -5.0467   20.8956  -33.7452 H   0  0  0  0  0  0  0  0  0  0  0  0
   -3.9689   21.4718  -31.2502 H   0  0  0  0  0  0  0  0  0  0  0  0
   -4.4125   23.1024  -31.8866 H   0  0  0  0  0  0  0  0  0  0  0  0
   -5.7169   22.0593  -28.6812 H   0  0  0  0  0  0  0  0  0  0  0  0
   -4.2460   20.9370  -26.8450 H   0  0  0  0  0  0  0  0  0  0  0  0
   -1.5484   20.9445  -29.4441 H   0  0  0  0  0  0  0  0  0  0  0  0
    0.2626   19.2332  -29.5555 H   0  0  0  0  0  0  0  0  0  0  0  0
   -1.2695   17.3690  -25.9652 H   0  0  0  0  0  0  0  0  0  0  0  0
   -3.0807   19.0778  -25.8477 H   0  0  0  0  0  0  0  0  0  0  0  0
   -1.4497   22.7011  -28.3198 H   0  0  0  0  0  0  0  0  0  0  0  0
   -1.6348   24.7292  -29.7555 H   0  0  0  0  0  0  0  0  0  0  0  0
   -5.9641   18.3900  -30.6143 H   0  0  0  0  0  0  0  0  0  0  0  0
   -5.1725   16.2615  -31.6451 H   0  0  0  0  0  0  0  0  0  0  0  0
   -5.0447   16.0460  -34.1294 H   0  0  0  0  0  0  0  0  0  0  0  0
   -5.7250   17.9568  -35.5845 H   0  0  0  0  0  0  0  0  0  0  0  0
   -6.5159   20.0902  -34.5615 H   0  0  0  0  0  0  0  0  0  0  0  0
  1  2  1  0
  2  3  1  0
  3  4  1  0
  4  5  1  0
  5  6  1  0
  6  7  1  0
  7  8  2  0
  8  9  1  0
  9 10  1  0
 10 11  1  0
 11 12  2  0
 12 13  1  0
 13 14  2  0
 14 15  1  0
 14 16  1  0
 16 17  2  0
  9 18  2  0
 18 19  1  0
 19 20  2  0
 20 21  1  0
  5 22  2  0
 22 23  1  0
 23 24  2  0
 24 25  1  0
 25 26  2  0
 26 27  1  0
 27 28  2  0
 28 29  1  0
 29 30  2  0
 24  4  1  0
 30 25  1  0
 20  7  1  0
 17 11  1  0
  1 31  1  0
  1 32  1  0
  1 33  1  0
  2 34  1  0
  2 35  1  0
  3 36  1  0
  3 37  1  0
  8 38  1  0
 10 39  1  0
 12 40  1  0
 13 41  1  0
 16 42  1  0
 17 43  1  0
 18 44  1  0
 19 45  1  0
 26 46  1  0
 27 47  1  0
 28 48  1  0
 29 49  1  0
 30 50  1  0
M  CHG  1  21  -1
M  END
>  <UniqueID>  (33) 
32

>  <SMILES>  (33) 
CCCn1c(Sc2cc(Nc3ccc(Br)cc3)ccc2[O-])nnc1-c1ccccc1

>  <Energy>  (33) 
91.446974855172

>  <Genealogy>  (33) 
CCCn1c(Sc2cc(Nc3ccc(Br)cc3)ccc2[O-])nnc1-c1ccccc1 (protonated)
CCCn1c(Sc2cc(Nc3ccc(Br)cc3)ccc2[O-])nnc1-c1ccccc1 (3D coordinates assigned)
CCCn1c(Sc2cc(Nc3ccc(Br)cc3)ccc2[O-])nnc1-c1ccccc1 (optimized conformer: 91.446974855172 kcal/mol)

>  <smiles>  (33) 
CCCn1c(Sc2cc(Nc3ccc(Br)cc3)ccc2O)nnc1-c1ccccc1

>  <score_type>  (33) 
oracle

>  <origin>  (33) 
adgpu

>  <m_score__min__energy>  (33) 
-13.19

>  <m_primary>  (33) 
energy

$$$$
33:0
     RDKit          3D

 29 30  0  0  0  0  0  0  0  0999 V2000
   -3.8820   25.0730  -30.7340 O   0  0  0  0  0  0  0  0  0  0  0  0
   -5.1730   24.8680  -29.9900 S   0  0  0  0  0  0  0  0  0  0  0  0
   -6.0040   26.1150  -30.0940 O   0  0  0  0  0  0  0  0  0  0  0  0
   -4.8300   24.5470  -28.3150 N   0  0  0  0  0  0  0  0  0  0  0  0
   -3.6400   23.7000  -28.2050 C   0  0  0  0  0  0  0  0  0  0  0  0
   -2.4660   24.5390  -27.7890 C   0  0  0  0  0  0  0  0  0  0  0  0
   -2.4860   25.2510  -26.5810 C   0  0  0  0  0  0  0  0  0  0  0  0
   -1.3710   25.9970  -26.1930 C   0  0  0  0  0  0  0  0  0  0  0  0
   -0.2400   26.0130  -27.0120 C   0  0  0  0  0  0  0  0  0  0  0  0
   -0.2290   25.3040  -28.1720 N   0  0  0  0  0  0  0  0  0  0  0  0
   -1.3020   24.5710  -28.5710 C   0  0  0  0  0  0  0  0  0  0  0  0
   -6.0680   23.5230  -30.6900 C   0  0  0  0  0  0  0  0  0  0  0  0
   -5.6290   22.9160  -31.8750 C   0  0  0  0  0  0  0  0  0  0  0  0
   -6.3430   21.8480  -32.4240 C   0  0  0  0  0  0  0  0  0  0  0  0
   -7.5040   21.3820  -31.7950 C   0  0  0  0  0  0  0  0  0  0  0  0
   -8.4000   20.0410  -32.4840 Cl  0  0  0  0  0  0  0  0  0  0  0  0
   -7.9480   21.9890  -30.6150 C   0  0  0  0  0  0  0  0  0  0  0  0
   -7.2350   23.0580  -30.0660 C   0  0  0  0  0  0  0  0  0  0  0  0
   -4.6170   25.4670  -27.8660 H   0  0  0  0  0  0  0  0  0  0  0  0
   -3.8157   22.9165  -27.4532 H   0  0  0  0  0  0  0  0  0  0  0  0
   -3.4307   23.2330  -29.1787 H   0  0  0  0  0  0  0  0  0  0  0  0
   -3.3792   25.2219  -25.9396 H   0  0  0  0  0  0  0  0  0  0  0  0
   -1.3835   26.5662  -25.2518 H   0  0  0  0  0  0  0  0  0  0  0  0
    0.6428   26.5998  -26.7183 H   0  0  0  0  0  0  0  0  0  0  0  0
   -1.2573   24.0008  -29.5106 H   0  0  0  0  0  0  0  0  0  0  0  0
   -4.7195   23.2818  -32.3741 H   0  0  0  0  0  0  0  0  0  0  0  0
   -5.9926   21.3724  -33.3519 H   0  0  0  0  0  0  0  0  0  0  0  0
   -8.8595   21.6242  -30.1189 H   0  0  0  0  0  0  0  0  0  0  0  0
   -7.5901   23.5365  -29.1414 H   0  0  0  0  0  0  0  0  0  0  0  0
  1  2  2  0
  2  3  2  0
  2  4  1  0
  4  5  1  0
  5  6  1  0
  6  7  2  0
  7  8  1  0
  8  9  2  0
  9 10  1  0
 10 11  2  0
  2 12  1  0
 12 13  2  0
 13 14  1  0
 14 15  2  0
 15 16  1  0
 15 17  1  0
 17 18  2  0
 11  6  1  0
 18 12  1  0
  4 19  1  0
  5 20  1  0
  5 21  1  0
  7 22  1  0
  8 23  1  0
  9 24  1  0
 11 25  1  0
 13 26  1  0
 14 27  1  0
 17 28  1  0
 18 29  1  0
M  END
>  <UniqueID>  (34) 
33

>  <SMILES>  (34) 
O=S(=O)(NCc1cccnc1)c1ccc(Cl)cc1

>  <Energy>  (34) 
27.241087325918205

>  <Genealogy>  (34) 
O=S(=O)(NCc1cccnc1)c1ccc(Cl)cc1 (3D coordinates assigned)
O=S(=O)(NCc1cccnc1)c1ccc(Cl)cc1 (optimized conformer: 27.241087325918205 kcal/mol)

>  <smiles>  (34) 
O=S(=O)(NCc1cccnc1)c1ccc(Cl)cc1

>  <score_type>  (34) 
oracle

>  <origin>  (34) 
adgpu

>  <m_score__min__energy>  (34) 
-8.3900000000000006

>  <m_primary>  (34) 
energy

$$$$
34:0
     RDKit          3D

 52 54  0  0  0  0  0  0  0  0999 V2000
   -3.7790   18.6550  -26.3400 C   0  0  0  0  0  0  0  0  0  0  0  0
   -2.4480   19.1050  -26.1040 O   0  0  0  0  0  0  0  0  0  0  0  0
   -1.6920   19.8600  -27.0140 C   0  0  0  0  0  0  0  0  0  0  0  0
   -0.4440   19.3650  -27.4100 C   0  0  0  0  0  0  0  0  0  0  0  0
    0.3540   20.0780  -28.3220 C   0  0  0  0  0  0  0  0  0  0  0  0
    1.6150   19.6240  -28.7370 O   0  0  0  0  0  0  0  0  0  0  0  0
    1.9020   18.2850  -29.1230 C   0  0  0  0  0  0  0  0  0  0  0  0
   -0.1140   21.2910  -28.8370 C   0  0  0  0  0  0  0  0  0  0  0  0
   -1.3510   21.8100  -28.4370 C   0  0  0  0  0  0  0  0  0  0  0  0
   -1.8800   23.3770  -29.0490 S   0  0  0  0  0  0  0  0  0  0  0  0
   -0.6960   24.2910  -29.1950 O   0  0  0  0  0  0  0  0  0  0  0  0
   -2.8470   24.0070  -28.0880 O   0  0  0  0  0  0  0  0  0  0  0  0
   -2.5950   23.1700  -30.6180 N   0  0  0  0  0  0  0  0  0  0  0  0
   -3.9980   23.2760  -30.8900 C   0  0  0  0  0  0  0  0  0  0  0  0
   -4.7730   22.1430  -31.1940 C   0  0  0  0  0  0  0  0  0  0  0  0
   -6.1380   22.2750  -31.4870 C   0  0  0  0  0  0  0  0  0  0  0  0
   -7.1070   20.8450  -31.8550 S   0  0  0  0  0  0  0  0  0  0  0  0
   -7.9250   21.1040  -33.0900 O   0  0  0  0  0  0  0  0  0  0  0  0
   -8.0550   20.5860  -30.7160 O   0  0  0  0  0  0  0  0  0  0  0  0
   -6.1070   19.4350  -32.1160 N   0  0  0  0  0  0  0  0  0  0  0  0
   -6.8340   18.1790  -31.8000 C   0  0  0  0  0  0  0  0  0  0  0  0
   -7.2080   17.3670  -33.0490 C   0  0  0  0  0  0  0  0  0  0  0  0
   -5.9590   17.0230  -33.8820 C   0  0  0  0  0  0  0  0  0  0  0  0
   -4.8840   18.1250  -33.8300 C   0  0  0  0  0  0  0  0  0  0  0  0
   -5.4960   19.4780  -33.4620 C   0  0  0  0  0  0  0  0  0  0  0  0
   -6.7330   23.5440  -31.4590 C   0  0  0  0  0  0  0  0  0  0  0  0
   -5.9730   24.6680  -31.1280 C   0  0  0  0  0  0  0  0  0  0  0  0
   -4.6100   24.5360  -30.8380 C   0  0  0  0  0  0  0  0  0  0  0  0
   -3.8640   25.6640  -30.5180 O   0  0  0  0  0  0  0  0  0  0  0  0
   -2.1420   21.0890  -27.5310 C   0  0  0  0  0  0  0  0  0  0  0  0
   -4.2843   18.4842  -25.3780 H   0  0  0  0  0  0  0  0  0  0  0  0
   -4.3278   19.4175  -26.9121 H   0  0  0  0  0  0  0  0  0  0  0  0
   -3.7525   17.7159  -26.9121 H   0  0  0  0  0  0  0  0  0  0  0  0
   -0.0839   18.4084  -27.0035 H   0  0  0  0  0  0  0  0  0  0  0  0
    2.0349   17.6648  -28.2243 H   0  0  0  0  0  0  0  0  0  0  0  0
    1.0683   17.8892  -29.7216 H   0  0  0  0  0  0  0  0  0  0  0  0
    2.8247   18.2657  -29.7216 H   0  0  0  0  0  0  0  0  0  0  0  0
    0.4974   21.8440  -29.5653 H   0  0  0  0  0  0  0  0  0  0  0  0
   -4.3059   21.1471  -31.2021 H   0  0  0  0  0  0  0  0  0  0  0  0
   -6.1942   17.5568  -31.1569 H   0  0  0  0  0  0  0  0  0  0  0  0
   -7.7722   18.4608  -31.2997 H   0  0  0  0  0  0  0  0  0  0  0  0
   -7.6997   16.4338  -32.7368 H   0  0  0  0  0  0  0  0  0  0  0  0
   -7.8853   17.9725  -33.6691 H   0  0  0  0  0  0  0  0  0  0  0  0
   -5.5244   16.0897  -33.4946 H   0  0  0  0  0  0  0  0  0  0  0  0
   -6.2779   16.9209  -34.9298 H   0  0  0  0  0  0  0  0  0  0  0  0
   -4.1299   17.8553  -33.0760 H   0  0  0  0  0  0  0  0  0  0  0  0
   -4.4239   18.2100  -34.8255 H   0  0  0  0  0  0  0  0  0  0  0  0
   -4.7075   20.2448  -33.4747 H   0  0  0  0  0  0  0  0  0  0  0  0
   -6.2799   19.7190  -34.1951 H   0  0  0  0  0  0  0  0  0  0  0  0
   -7.8009   23.6547  -31.6983 H   0  0  0  0  0  0  0  0  0  0  0  0
   -6.4470   25.6601  -31.0951 H   0  0  0  0  0  0  0  0  0  0  0  0
   -3.1202   21.4865  -27.2226 H   0  0  0  0  0  0  0  0  0  0  0  0
  1  2  1  0
  2  3  1  0
  3  4  2  0
  4  5  1  0
  5  6  1  0
  6  7  1  0
  5  8  2  0
  8  9  1  0
  9 10  1  0
 10 11  2  0
 10 12  2  0
 10 13  1  0
 13 14  1  0
 14 15  2  0
 15 16  1  0
 16 17  1  0
 17 18  2  0
 17 19  2  0
 17 20  1  0
 20 21  1  0
 21 22  1  0
 22 23  1  0
 23 24  1  0
 24 25  1  0
 16 26  2  0
 26 27  1  0
 27 28  2  0
 28 29  1  0
  9 30  2  0
 30  3  1  0
 28 14  1  0
 25 20  1  0
  1 31  1  0
  1 32  1  0
  1 33  1  0
  4 34  1  0
  7 35  1  0
  7 36  1  0
  7 37  1  0
  8 38  1  0
 15 39  1  0
 21 40  1  0
 21 41  1  0
 22 42  1  0
 22 43  1  0
 23 44  1  0
 23 45  1  0
 24 46  1  0
 24 47  1  0
 25 48  1  0
 25 49  1  0
 26 50  1  0
 27 51  1  0
 30 52  1  0
M  CHG  2  13  -1  29  -1
M  END
>  <UniqueID>  (35) 
34

>  <SMILES>  (35) 
COc1cc(OC)cc(S(=O)(=O)[N-]c2cc(S(=O)(=O)N3CCCCC3)ccc2[O-])c1

>  <Energy>  (35) 
60.82876475633992

>  <Genealogy>  (35) 
COc1cc(OC)cc(S(=O)(=O)[N-]c2cc(S(=O)(=O)N3CCCCC3)ccc2[O-])c1 (protonated)
COc1cc(OC)cc(S(=O)(=O)[N-]c2cc(S(=O)(=O)N3CCCCC3)ccc2[O-])c1 (3D coordinates assigned)
COc1cc(OC)cc(S(=O)(=O)[N-]c2cc(S(=O)(=O)N3CCCCC3)ccc2[O-])c1 (nonaromatic ring conformer: 60.82876475633992 kcal/mol)

>  <smiles>  (35) 
COc1cc(OC)cc(S(=O)(=O)Nc2cc(S(=O)(=O)N3CCCCC3)ccc2O)c1

>  <score_type>  (35) 
oracle

>  <origin>  (35) 
adgpu

>  <m_score__min__energy>  (35) 
-12.949999999999999

>  <m_primary>  (35) 
energy

$$$$
35:0
     RDKit          3D

 52 56  0  0  0  0  0  0  0  0999 V2000
   -1.6350   19.1380  -33.3620 O   0  0  0  0  0  0  0  0  0  0  0  0
   -1.1010   20.2190  -33.7340 C   0  0  0  0  0  0  0  0  0  0  0  0
   -1.5400   21.4620  -33.1630 N   0  0  0  0  0  0  0  0  0  0  0  0
   -2.2150   21.5670  -31.8970 C   0  0  0  0  0  0  0  0  0  0  0  0
   -2.0230   20.6110  -30.8830 C   0  0  0  0  0  0  0  0  0  0  0  0
   -2.6700   20.7490  -29.6530 C   0  0  0  0  0  0  0  0  0  0  0  0
   -3.5020   21.8460  -29.4160 C   0  0  0  0  0  0  0  0  0  0  0  0
   -3.6790   22.8220  -30.4050 C   0  0  0  0  0  0  0  0  0  0  0  0
   -4.7240   24.2150  -30.1040 S   0  0  0  0  0  0  0  0  0  0  0  0
   -4.7180   24.5220  -28.6320 O   0  0  0  0  0  0  0  0  0  0  0  0
   -4.1680   25.4100  -30.8280 O   0  0  0  0  0  0  0  0  0  0  0  0
   -6.3720   23.9530  -30.6220 N   0  0  0  0  0  0  0  0  0  0  0  0
   -6.4700   23.7550  -32.0670 C   0  0  0  0  0  0  0  0  0  0  0  0
   -7.7240   22.9260  -32.3070 C   0  0  0  0  0  0  0  0  0  0  0  0
   -8.0590   22.3010  -30.9600 C   0  0  0  0  0  0  0  0  0  0  0  0
   -6.9520   22.7550  -30.0220 C   0  0  0  0  0  0  0  0  0  0  0  0
   -3.0360   22.6760  -31.6440 C   0  0  0  0  0  0  0  0  0  0  0  0
   -0.0580   20.1970  -34.7890 C   0  0  0  0  0  0  0  0  0  0  0  0
    0.5020   18.9790  -35.2490 C   0  0  0  0  0  0  0  0  0  0  0  0
    1.4870   18.9740  -36.2610 C   0  0  0  0  0  0  0  0  0  0  0  0
    1.9280   20.1780  -36.8330 C   0  0  0  0  0  0  0  0  0  0  0  0
    1.3590   21.3590  -36.3700 C   0  0  0  0  0  0  0  0  0  0  0  0
    1.6330   22.6090  -36.7730 N   0  0  0  0  0  0  0  0  0  0  0  0
    0.8070   23.3620  -35.9990 C   0  0  0  0  0  0  0  0  0  0  0  0
    0.7500   24.8380  -36.0820 C   0  0  0  0  0  0  0  0  0  0  0  0
   -0.4000   25.4830  -36.5660 C   0  0  0  0  0  0  0  0  0  0  0  0
   -0.4350   26.8780  -36.6330 C   0  0  0  0  0  0  0  0  0  0  0  0
    0.6410   27.6060  -36.2350 N   0  0  0  0  0  0  0  0  0  0  0  0
    1.7680   27.0120  -35.7640 C   0  0  0  0  0  0  0  0  0  0  0  0
    1.8440   25.6200  -35.6770 C   0  0  0  0  0  0  0  0  0  0  0  0
    0.0410   22.6400  -35.1380 N   0  0  0  0  0  0  0  0  0  0  0  0
    0.4070   21.3740  -35.3950 C   0  0  0  0  0  0  0  0  0  0  0  0
   -1.4600   22.3250  -33.7460 H   0  0  0  0  0  0  0  0  0  0  0  0
   -1.3603   19.7510  -31.0597 H   0  0  0  0  0  0  0  0  0  0  0  0
   -2.5241   19.9918  -28.8686 H   0  0  0  0  0  0  0  0  0  0  0  0
   -4.0194   21.9435  -28.4502 H   0  0  0  0  0  0  0  0  0  0  0  0
   -6.5525   24.7253  -32.5785 H   0  0  0  0  0  0  0  0  0  0  0  0
   -5.5768   23.2471  -32.4598 H   0  0  0  0  0  0  0  0  0  0  0  0
   -8.5495   23.5671  -32.6498 H   0  0  0  0  0  0  0  0  0  0  0  0
   -7.5679   22.1636  -33.0844 H   0  0  0  0  0  0  0  0  0  0  0  0
   -9.0368   22.6562  -30.6027 H   0  0  0  0  0  0  0  0  0  0  0  0
   -8.1219   21.2045  -31.0204 H   0  0  0  0  0  0  0  0  0  0  0  0
   -7.3654   22.9880  -29.0296 H   0  0  0  0  0  0  0  0  0  0  0  0
   -6.1947   21.9687  -29.8872 H   0  0  0  0  0  0  0  0  0  0  0  0
   -3.1772   23.4385  -32.4242 H   0  0  0  0  0  0  0  0  0  0  0  0
    0.1656   18.0268  -34.8128 H   0  0  0  0  0  0  0  0  0  0  0  0
    1.9121   18.0192  -36.6039 H   0  0  0  0  0  0  0  0  0  0  0  0
    2.6967   20.1866  -37.6198 H   0  0  0  0  0  0  0  0  0  0  0  0
   -1.2693   24.8924  -36.8909 H   0  0  0  0  0  0  0  0  0  0  0  0
   -1.3347   27.3876  -37.0084 H   0  0  0  0  0  0  0  0  0  0  0  0
    2.6231   27.6288  -35.4503 H   0  0  0  0  0  0  0  0  0  0  0  0
    2.7558   25.1389  -35.2933 H   0  0  0  0  0  0  0  0  0  0  0  0
  1  2  2  0
  2  3  1  0
  3  4  1  0
  4  5  2  0
  5  6  1  0
  6  7  2  0
  7  8  1  0
  8  9  1  0
  9 10  2  0
  9 11  2  0
  9 12  1  0
 12 13  1  0
 13 14  1  0
 14 15  1  0
 15 16  1  0
  8 17  2  0
  2 18  1  0
 18 19  2  0
 19 20  1  0
 20 21  2  0
 21 22  1  0
 22 23  1  0
 23 24  1  0
 24 25  1  0
 25 26  2  0
 26 27  1  0
 27 28  2  0
 28 29  1  0
 29 30  2  0
 24 31  2  0
 31 32  1  0
 17  4  1  0
 32 18  1  0
 16 12  1  0
 32 22  2  0
 30 25  1  0
  3 33  1  0
  5 34  1  0
  6 35  1  0
  7 36  1  0
 13 37  1  0
 13 38  1  0
 14 39  1  0
 14 40  1  0
 15 41  1  0
 15 42  1  0
 16 43  1  0
 16 44  1  0
 17 45  1  0
 19 46  1  0
 20 47  1  0
 21 48  1  0
 26 49  1  0
 27 50  1  0
 29 51  1  0
 30 52  1  0
M  CHG  1  23  -1
M  END
>  <UniqueID>  (36) 
35

>  <SMILES>  (36) 
O=C(Nc1cccc(S(=O)(=O)N2CCCC2)c1)c1cccc2[n-]c(-c3ccncc3)nc12

>  <Energy>  (36) 
100.39792607050254

>  <Genealogy>  (36) 
O=C(Nc1cccc(S(=O)(=O)N2CCCC2)c1)c1cccc2[n-]c(-c3ccncc3)nc12 (protonated)
O=C(Nc1cccc(S(=O)(=O)N2CCCC2)c1)c1cccc2[n-]c(-c3ccncc3)nc12 (3D coordinates assigned)
O=C(Nc1cccc(S(=O)(=O)N2CCCC2)c1)c1cccc2[n-]c(-c3ccncc3)nc12 (nonaromatic ring conformer: 100.39792607050254 kcal/mol)

>  <smiles>  (36) 
O=C(Nc1cccc(S(=O)(=O)N2CCCC2)c1)c1cccc2[nH]c(-c3ccncc3)nc12

>  <score_type>  (36) 
oracle

>  <origin>  (36) 
adgpu

>  <m_score__min__energy>  (36) 
-11.19

>  <m_primary>  (36) 
energy

$$$$
36:0
     RDKit          3D

 49 52  0  0  0  0  0  0  0  0999 V2000
   -4.6040   19.7190  -33.3560 C   0  0  0  0  0  0  0  0  0  0  0  0
   -5.7770   18.9550  -32.8340 C   0  0  0  0  0  0  0  0  0  0  0  0
   -5.7190   17.6620  -32.4600 N   0  0  0  0  0  0  0  0  0  0  0  0
   -6.8900   17.3490  -31.9830 O   0  0  0  0  0  0  0  0  0  0  0  0
   -7.7070   18.3760  -32.0150 C   0  0  0  0  0  0  0  0  0  0  0  0
   -9.1150   18.3460  -31.5200 C   0  0  0  0  0  0  0  0  0  0  0  0
   -7.0380   19.4540  -32.5620 C   0  0  0  0  0  0  0  0  0  0  0  0
   -7.5290   20.8640  -32.7250 C   0  0  0  0  0  0  0  0  0  0  0  0
   -7.0870   21.6810  -31.6000 N   0  0  0  0  0  0  0  0  0  0  0  0
   -5.8510   22.1860  -31.4300 C   0  0  0  0  0  0  0  0  0  0  0  0
   -5.8680   22.9430  -30.2790 C   0  0  0  0  0  0  0  0  0  0  0  0
   -4.7640   23.6800  -29.7310 N   0  0  0  0  0  0  0  0  0  0  0  0
   -3.9970   23.2880  -28.5540 C   0  0  0  0  0  0  0  0  0  0  0  0
   -2.8930   24.3740  -28.4050 C   0  0  1  0  0  0  0  0  0  0  0  0
   -1.4670   23.8040  -28.4600 C   0  0  0  0  0  0  0  0  0  0  0  0
   -1.2270   23.0530  -29.6930 N   0  0  0  0  0  0  0  0  0  0  0  0
   -1.5560   21.6770  -29.9250 C   0  0  0  0  0  0  0  0  0  0  0  0
   -1.8230   21.3100  -31.1000 O   0  0  0  0  0  0  0  0  0  0  0  0
   -1.5920   20.6780  -28.8380 C   0  0  0  0  0  0  0  0  0  0  0  0
   -2.7580   20.4850  -28.0770 C   0  0  0  0  0  0  0  0  0  0  0  0
   -2.7850   19.5240  -27.0620 C   0  0  0  0  0  0  0  0  0  0  0  0
   -1.6580   18.7380  -26.8100 C   0  0  0  0  0  0  0  0  0  0  0  0
   -0.5030   18.9050  -27.5800 C   0  0  0  0  0  0  0  0  0  0  0  0
   -0.4730   19.8640  -28.5970 C   0  0  0  0  0  0  0  0  0  0  0  0
   -3.1140   25.2900  -29.4730 O   0  0  0  0  0  0  0  0  0  0  0  0
   -4.1940   24.8810  -30.2190 C   0  0  0  0  0  0  0  0  0  0  0  0
   -4.6180   25.5120  -31.2220 O   0  0  0  0  0  0  0  0  0  0  0  0
   -7.1600   22.8630  -29.7930 C   0  0  0  0  0  0  0  0  0  0  0  0
   -7.8860   22.0880  -30.6240 N   0  0  0  0  0  0  0  0  0  0  0  0
   -4.0125   20.1043  -32.5124 H   0  0  0  0  0  0  0  0  0  0  0  0
   -3.9778   19.0550  -33.9700 H   0  0  0  0  0  0  0  0  0  0  0  0
   -4.9581   20.5602  -33.9700 H   0  0  0  0  0  0  0  0  0  0  0  0
   -9.1170   18.3460  -30.4200 H   0  0  0  0  0  0  0  0  0  0  0  0
   -9.6519   19.2329  -31.8876 H   0  0  0  0  0  0  0  0  0  0  0  0
   -9.6136   17.4370  -31.8876 H   0  0  0  0  0  0  0  0  0  0  0  0
   -7.1277   21.2835  -33.6593 H   0  0  0  0  0  0  0  0  0  0  0  0
   -8.6285   20.8612  -32.7584 H   0  0  0  0  0  0  0  0  0  0  0  0
   -4.9856   22.0240  -32.0894 H   0  0  0  0  0  0  0  0  0  0  0  0
   -4.6414   23.2685  -27.6628 H   0  0  0  0  0  0  0  0  0  0  0  0
   -3.5698   22.2798  -28.6592 H   0  0  0  0  0  0  0  0  0  0  0  0
   -2.9639   24.8515  -27.4166 H   0  0  0  0  0  0  0  0  0  0  0  0
   -0.7491   24.6356  -28.4046 H   0  0  0  0  0  0  0  0  0  0  0  0
   -1.3420   23.1153  -27.6114 H   0  0  0  0  0  0  0  0  0  0  0  0
   -3.6523   21.0922  -28.2808 H   0  0  0  0  0  0  0  0  0  0  0  0
   -3.6957   19.3865  -26.4605 H   0  0  0  0  0  0  0  0  0  0  0  0
   -1.6793   17.9878  -26.0058 H   0  0  0  0  0  0  0  0  0  0  0  0
    0.3823   18.2818  -27.3856 H   0  0  0  0  0  0  0  0  0  0  0  0
    0.4317   19.9816  -29.2116 H   0  0  0  0  0  0  0  0  0  0  0  0
   -7.5334   23.3505  -28.8804 H   0  0  0  0  0  0  0  0  0  0  0  0
  1  2  1  0
  2  3  2  0
  3  4  1  0
  4  5  1  0
  5  6  1  0
  5  7  2  0
  7  8  1  0
  8  9  1  0
  9 10  1  0
 10 11  2  0
 11 12  1  0
 12 13  1  0
 13 14  1  0
 14 15  1  0
 15 16  1  0
 16 17  1  0
 17 18  2  0
 17 19  1  0
 19 20  2  0
 20 21  1  0
 21 22  2  0
 22 23  1  0
 23 24  2  0
 14 25  1  0
 25 26  1  0
 26 27  2  0
 11 28  1  0
 28 29  2  0
  7  2  1  0
 29  9  1  0
 26 12  1  0
 24 19  1  0
  1 30  1  0
  1 31  1  0
  1 32  1  0
  6 33  1  0
  6 34  1  0
  6 35  1  0
  8 36  1  0
  8 37  1  0
 10 38  1  0
 13 39  1  0
 13 40  1  0
 14 41  1  1
 15 42  1  0
 15 43  1  0
 20 44  1  0
 21 45  1  0
 22 46  1  0
 23 47  1  0
 24 48  1  0
 28 49  1  0
M  CHG  1  16  -1
M  END
>  <UniqueID>  (37) 
36

>  <SMILES>  (37) 
Cc1noc(C)c1Cn1cc(N2C[C@@H](C[N-]C(=O)c3ccccc3)OC2=O)cn1

>  <Energy>  (37) 
127.51626600774331

>  <Genealogy>  (37) 
Cc1noc(C)c1Cn1cc(N2CC(C[N-]C(=O)c3ccccc3)OC2=O)cn1 (protonated)
Cc1noc(C)c1Cn1cc(N2C[C@@H](C[N-]C(=O)c3ccccc3)OC2=O)cn1 (chirality)
Cc1noc(C)c1Cn1cc(N2C[C@@H](C[N-]C(=O)c3ccccc3)OC2=O)cn1 (3D coordinates assigned)
Cc1noc(C)c1Cn1cc(N2C[C@@H](C[N-]C(=O)c3ccccc3)OC2=O)cn1 (nonaromatic ring conformer: 127.51626600774331 kcal/mol)

>  <smiles>  (37) 
Cc1noc(C)c1Cn1cc(N2CC(CNC(=O)c3ccccc3)OC2=O)cn1

>  <score_type>  (37) 
oracle

>  <origin>  (37) 
adgpu

>  <m_score__min__energy>  (37) 
-11.34

>  <m_primary>  (37) 
energy

$$$$
37:0
     RDKit          3D

 40 43  0  0  0  0  0  0  0  0999 V2000
   -0.1290   17.7110  -31.8610 N   0  0  0  0  0  0  0  0  0  0  0  0
   -0.7180   18.9880  -31.5990 C   0  0  0  0  0  0  0  0  0  0  0  0
   -0.4570   19.6530  -30.3930 C   0  0  0  0  0  0  0  0  0  0  0  0
   -1.0380   20.9000  -30.1380 C   0  0  0  0  0  0  0  0  0  0  0  0
   -1.8840   21.4860  -31.0830 C   0  0  0  0  0  0  0  0  0  0  0  0
   -2.1550   20.8230  -32.2860 C   0  0  0  0  0  0  0  0  0  0  0  0
   -3.2630   21.5590  -33.4880 S   0  0  0  0  0  0  0  0  0  0  0  0
   -4.6900   20.6830  -32.8370 C   0  0  0  0  0  0  0  0  0  0  0  0
   -5.6870   21.1730  -31.9890 C   0  0  0  0  0  0  0  0  0  0  0  0
   -5.7480   22.5250  -31.3950 C   0  0  0  0  0  0  0  0  0  0  0  0
   -6.9860   23.0710  -31.0230 C   0  0  0  0  0  0  0  0  0  0  0  0
   -7.0570   24.3580  -30.4840 C   0  0  0  0  0  0  0  0  0  0  0  0
   -5.8940   25.1120  -30.3000 C   0  0  0  0  0  0  0  0  0  0  0  0
   -5.9940   26.3950  -29.7630 O   0  0  0  0  0  0  0  0  0  0  0  0
   -4.6500   24.5660  -30.6550 C   0  0  0  0  0  0  0  0  0  0  0  0
   -3.4810   25.2970  -30.4710 O   0  0  0  0  0  0  0  0  0  0  0  0
   -4.5790   23.2790  -31.1960 C   0  0  0  0  0  0  0  0  0  0  0  0
   -6.6640   20.2470  -31.8280 N   0  0  0  0  0  0  0  0  0  0  0  0
   -6.2860   19.1790  -32.5530 C   0  0  0  0  0  0  0  0  0  0  0  0
   -6.9770   17.9800  -32.7110 C   0  0  0  0  0  0  0  0  0  0  0  0
   -6.4090   16.9980  -33.5440 C   0  0  0  0  0  0  0  0  0  0  0  0
   -5.1790   17.2380  -34.1960 C   0  0  0  0  0  0  0  0  0  0  0  0
   -4.5060   18.4600  -34.0200 C   0  0  0  0  0  0  0  0  0  0  0  0
   -5.0910   19.4100  -33.1830 C   0  0  0  0  0  0  0  0  0  0  0  0
   -1.5650   19.5810  -32.5470 C   0  0  0  0  0  0  0  0  0  0  0  0
   -0.5050   16.8470  -31.4120 H   0  0  0  0  0  0  0  0  0  0  0  0
    0.6840   17.6220  -32.5090 H   0  0  0  0  0  0  0  0  0  0  0  0
    0.2061   19.1934  -29.6453 H   0  0  0  0  0  0  0  0  0  0  0  0
   -0.8283   21.4201  -29.1917 H   0  0  0  0  0  0  0  0  0  0  0  0
   -2.3370   22.4680  -30.8819 H   0  0  0  0  0  0  0  0  0  0  0  0
   -7.9057   22.4824  -31.1565 H   0  0  0  0  0  0  0  0  0  0  0  0
   -8.0330   24.7803  -30.2029 H   0  0  0  0  0  0  0  0  0  0  0  0
   -5.3670   26.7250  -29.0390 H   0  0  0  0  0  0  0  0  0  0  0  0
   -3.6016   22.8537  -31.4677 H   0  0  0  0  0  0  0  0  0  0  0  0
   -7.5360   20.3390  -31.2590 H   0  0  0  0  0  0  0  0  0  0  0  0
   -7.9360   17.8062  -32.2010 H   0  0  0  0  0  0  0  0  0  0  0  0
   -6.9260   16.0378  -33.6882 H   0  0  0  0  0  0  0  0  0  0  0  0
   -4.7448   16.4638  -34.8457 H   0  0  0  0  0  0  0  0  0  0  0  0
   -3.5498   18.6601  -34.5257 H   0  0  0  0  0  0  0  0  0  0  0  0
   -1.7662   19.0680  -33.4990 H   0  0  0  0  0  0  0  0  0  0  0  0
  1  2  1  0
  2  3  2  0
  3  4  1  0
  4  5  2  0
  5  6  1  0
  6  7  1  0
  7  8  1  0
  8  9  2  0
  9 10  1  0
 10 11  2  0
 11 12  1  0
 12 13  2  0
 13 14  1  0
 13 15  1  0
 15 16  1  0
 15 17  2  0
  9 18  1  0
 18 19  1  0
 19 20  2  0
 20 21  1  0
 21 22  2  0
 22 23  1  0
 23 24  2  0
  6 25  2  0
 25  2  1  0
 24  8  1  0
 17 10  1  0
 24 19  1  0
  1 26  1  0
  1 27  1  0
  3 28  1  0
  4 29  1  0
  5 30  1  0
 11 31  1  0
 12 32  1  0
 14 33  1  0
 17 34  1  0
 18 35  1  0
 20 36  1  0
 21 37  1  0
 22 38  1  0
 23 39  1  0
 25 40  1  0
M  CHG  1  16  -1
M  END
>  <UniqueID>  (38) 
37

>  <SMILES>  (38) 
Nc1cccc(Sc2c(-c3ccc(O)c([O-])c3)[nH]c3ccccc23)c1

>  <Energy>  (38) 
75.37666450576798

>  <Genealogy>  (38) 
Nc1cccc(Sc2c(-c3ccc(O)c([O-])c3)[nH]c3ccccc23)c1 (protonated)
Nc1cccc(Sc2c(-c3ccc(O)c([O-])c3)[nH]c3ccccc23)c1 (3D coordinates assigned)
Nc1cccc(Sc2c(-c3ccc(O)c([O-])c3)[nH]c3ccccc23)c1 (optimized conformer: 75.37666450576798 kcal/mol)

>  <smiles>  (38) 
Nc1cccc(Sc2c(-c3ccc(O)c(O)c3)[nH]c3ccccc23)c1

>  <score_type>  (38) 
oracle

>  <origin>  (38) 
adgpu

>  <m_score__min__energy>  (38) 
-11.300000000000001

>  <m_primary>  (38) 
energy

$$$$
38:0
     RDKit          3D

 60 64  0  0  0  0  0  0  0  0999 V2000
    0.7790   27.6030  -23.2380 C   0  0  0  0  0  0  0  0  0  0  0  0
   -0.6560   27.1200  -23.4220 C   0  0  0  0  0  0  0  0  0  0  0  0
   -0.7550   26.1770  -24.5910 C   0  0  0  0  0  0  0  0  0  0  0  0
   -0.4220   24.8230  -24.4380 C   0  0  0  0  0  0  0  0  0  0  0  0
   -0.5430   23.9400  -25.5150 C   0  0  0  0  0  0  0  0  0  0  0  0
   -1.0080   24.3930  -26.7620 C   0  0  0  0  0  0  0  0  0  0  0  0
   -1.1370   23.4540  -27.9060 C   0  0  0  0  0  0  0  0  0  0  0  0
   -0.4410   22.2320  -27.9100 C   0  0  0  0  0  0  0  0  0  0  0  0
   -0.5630   21.3490  -28.9870 C   0  0  0  0  0  0  0  0  0  0  0  0
   -1.3860   21.6680  -30.0740 C   0  0  0  0  0  0  0  0  0  0  0  0
   -1.4990   20.7570  -31.1810 N   0  0  0  0  0  0  0  0  0  0  0  0
   -0.3040   20.5000  -32.0150 C   0  0  0  0  0  0  0  0  0  0  0  0
   -0.3150   19.0920  -32.6510 C   0  0  0  0  0  0  0  0  0  0  0  0
   -1.6710   18.7840  -33.2040 C   0  0  0  0  0  0  0  0  0  0  0  0
   -2.0720   17.9110  -34.2000 C   0  0  0  0  0  0  0  0  0  0  0  0
   -1.1820   17.0910  -35.0810 C   0  0  0  0  0  0  0  0  0  0  0  0
   -0.3350   16.3140  -34.3120 F   0  0  0  0  0  0  0  0  0  0  0  0
   -1.9530   16.2660  -35.8770 F   0  0  0  0  0  0  0  0  0  0  0  0
   -0.4250   17.9240  -35.8820 F   0  0  0  0  0  0  0  0  0  0  0  0
   -3.4220   17.9180  -34.2750 N   0  0  0  0  0  0  0  0  0  0  0  0
   -3.8780   18.7450  -33.3410 N   0  0  0  0  0  0  0  0  0  0  0  0
   -5.2760   18.9710  -33.1160 C   0  0  0  0  0  0  0  0  0  0  0  0
   -5.8400   20.2350  -33.3410 C   0  0  0  0  0  0  0  0  0  0  0  0
   -7.1960   20.4570  -33.0850 C   0  0  0  0  0  0  0  0  0  0  0  0
   -8.0030   19.4280  -32.5860 C   0  0  0  0  0  0  0  0  0  0  0  0
   -9.3580   19.7010  -32.3470 O   0  0  0  0  0  0  0  0  0  0  0  0
   -9.8660   20.9740  -31.9610 C   0  0  0  0  0  0  0  0  0  0  0  0
   -7.4310   18.1660  -32.3370 C   0  0  0  0  0  0  0  0  0  0  0  0
   -6.0740   17.9450  -32.5930 C   0  0  0  0  0  0  0  0  0  0  0  0
   -2.8280   19.2770  -32.6790 C   0  0  0  0  0  0  0  0  0  0  0  0
   -2.7950   20.2950  -31.6240 C   0  0  0  0  0  0  0  0  0  0  0  0
   -3.8550   20.7440  -31.1130 O   0  0  0  0  0  0  0  0  0  0  0  0
   -2.0770   22.8880  -30.0800 C   0  0  0  0  0  0  0  0  0  0  0  0
   -1.9550   23.7740  -29.0050 C   0  0  0  0  0  0  0  0  0  0  0  0
   -1.3540   25.7490  -26.9060 C   0  0  0  0  0  0  0  0  0  0  0  0
   -1.2320   26.6310  -25.8300 C   0  0  0  0  0  0  0  0  0  0  0  0
    1.0054   27.6792  -22.1643 H   0  0  0  0  0  0  0  0  0  0  0  0
    1.4698   26.8878  -23.7085 H   0  0  0  0  0  0  0  0  0  0  0  0
    0.8968   28.5903  -23.7085 H   0  0  0  0  0  0  0  0  0  0  0  0
   -0.9813   26.5990  -22.5094 H   0  0  0  0  0  0  0  0  0  0  0  0
   -1.2999   27.9907  -23.6149 H   0  0  0  0  0  0  0  0  0  0  0  0
   -0.0638   24.4541  -23.4656 H   0  0  0  0  0  0  0  0  0  0  0  0
   -0.2721   22.8818  -25.3857 H   0  0  0  0  0  0  0  0  0  0  0  0
    0.2045   21.9689  -27.0590 H   0  0  0  0  0  0  0  0  0  0  0  0
   -0.0094   20.3985  -28.9804 H   0  0  0  0  0  0  0  0  0  0  0  0
   -0.2678   21.2496  -32.8192 H   0  0  0  0  0  0  0  0  0  0  0  0
    0.5784   20.5634  -31.3613 H   0  0  0  0  0  0  0  0  0  0  0  0
    0.4256   19.0548  -33.4635 H   0  0  0  0  0  0  0  0  0  0  0  0
   -0.0650   18.3484  -31.8799 H   0  0  0  0  0  0  0  0  0  0  0  0
   -5.2127   21.0551  -33.7205 H   0  0  0  0  0  0  0  0  0  0  0  0
   -7.6324   21.4483  -33.2772 H   0  0  0  0  0  0  0  0  0  0  0  0
   -9.8926   21.0407  -30.8633 H   0  0  0  0  0  0  0  0  0  0  0  0
   -9.2147   21.7652  -32.3607 H   0  0  0  0  0  0  0  0  0  0  0  0
  -10.8831   21.0995  -32.3607 H   0  0  0  0  0  0  0  0  0  0  0  0
   -8.0536   17.3508  -31.9397 H   0  0  0  0  0  0  0  0  0  0  0  0
   -5.6308   16.9604  -32.3826 H   0  0  0  0  0  0  0  0  0  0  0  0
   -2.7183   23.1495  -30.9346 H   0  0  0  0  0  0  0  0  0  0  0  0
   -2.5025   24.7280  -29.0188 H   0  0  0  0  0  0  0  0  0  0  0  0
   -1.7237   26.1177  -27.8742 H   0  0  0  0  0  0  0  0  0  0  0  0
   -1.5114   27.6876  -25.9546 H   0  0  0  0  0  0  0  0  0  0  0  0
  1  2  1  0
  2  3  1  0
  3  4  2  0
  4  5  1  0
  5  6  2  0
  6  7  1  0
  7  8  2  0
  8  9  1  0
  9 10  2  0
 10 11  1  0
 11 12  1  0
 12 13  1  0
 13 14  1  0
 14 15  1  0
 15 16  1  0
 16 17  1  0
 16 18  1  0
 16 19  1  0
 15 20  2  0
 20 21  1  0
 21 22  1  0
 22 23  2  0
 23 24  1  0
 24 25  2  0
 25 26  1  0
 26 27  1  0
 25 28  1  0
 28 29  2  0
 21 30  1  0
 30 31  1  0
 31 32  2  0
 10 33  1  0
 33 34  2  0
  6 35  1  0
 35 36  2  0
 36  3  1  0
 34  7  1  0
 31 11  1  0
 30 14  2  0
 29 22  1  0
  1 37  1  0
  1 38  1  0
  1 39  1  0
  2 40  1  0
  2 41  1  0
  4 42  1  0
  5 43  1  0
  8 44  1  0
  9 45  1  0
 12 46  1  0
 12 47  1  0
 13 48  1  0
 13 49  1  0
 23 50  1  0
 24 51  1  0
 27 52  1  0
 27 53  1  0
 27 54  1  0
 28 55  1  0
 29 56  1  0
 33 57  1  0
 34 58  1  0
 35 59  1  0
 36 60  1  0
M  END
>  <UniqueID>  (39) 
38

>  <SMILES>  (39) 
CCc1ccc(-c2ccc(N3CCc4c(C(F)(F)F)nn(-c5ccc(OC)cc5)c4C3=O)cc2)cc1

>  <Energy>  (39) 
114.37405693728029

>  <Genealogy>  (39) 
CCc1ccc(-c2ccc(N3CCc4c(C(F)(F)F)nn(-c5ccc(OC)cc5)c4C3=O)cc2)cc1 (3D coordinates assigned)
CCc1ccc(-c2ccc(N3CCc4c(C(F)(F)F)nn(-c5ccc(OC)cc5)c4C3=O)cc2)cc1 (nonaromatic ring conformer: 114.37405693728029 kcal/mol)

>  <smiles>  (39) 
CCc1ccc(-c2ccc(N3CCc4c(C(F)(F)F)nn(-c5ccc(OC)cc5)c4C3=O)cc2)cc1

>  <score_type>  (39) 
oracle

>  <origin>  (39) 
adgpu

>  <m_score__min__energy>  (39) 
-8.0299999999999994

>  <m_primary>  (39) 
energy

$$$$
39:0
     RDKit          3D

 37 39  0  0  0  0  0  0  0  0999 V2000
   -5.0130   25.7170  -31.2190 O   0  0  0  0  0  0  0  0  0  0  0  0
   -5.6100   24.7740  -30.2130 S   0  0  0  0  0  0  0  0  0  0  0  0
   -6.9290   25.3250  -29.7490 O   0  0  0  0  0  0  0  0  0  0  0  0
   -4.5410   24.6370  -28.8520 N   0  0  0  0  0  0  0  0  0  0  0  0
   -3.3850   23.7760  -28.8230 C   0  0  0  0  0  0  0  0  0  0  0  0
   -3.5030   22.3980  -28.5530 C   0  0  0  0  0  0  0  0  0  0  0  0
   -2.3700   21.5800  -28.5350 C   0  0  0  0  0  0  0  0  0  0  0  0
   -1.1080   22.1260  -28.7780 C   0  0  0  0  0  0  0  0  0  0  0  0
   -0.9760   23.4900  -29.0380 C   0  0  0  0  0  0  0  0  0  0  0  0
   -2.1050   24.3160  -29.0600 C   0  0  0  0  0  0  0  0  0  0  0  0
   -1.9470   25.6720  -29.3260 O   0  0  0  0  0  0  0  0  0  0  0  0
   -5.8210   23.1990  -30.9730 C   0  0  0  0  0  0  0  0  0  0  0  0
   -4.7820   22.6440  -31.7270 C   0  0  0  0  0  0  0  0  0  0  0  0
   -4.9350   21.3870  -32.3200 C   0  0  0  0  0  0  0  0  0  0  0  0
   -6.1340   20.6670  -32.1680 C   0  0  0  0  0  0  0  0  0  0  0  0
   -6.2960   19.3310  -32.7940 C   0  0  0  0  0  0  0  0  0  0  0  0
   -7.0720   18.3360  -32.1690 C   0  0  0  0  0  0  0  0  0  0  0  0
   -7.2240   17.0790  -32.7610 C   0  0  0  0  0  0  0  0  0  0  0  0
   -6.6040   16.8000  -33.9820 C   0  0  0  0  0  0  0  0  0  0  0  0
   -5.8320   17.7780  -34.6120 C   0  0  0  0  0  0  0  0  0  0  0  0
   -5.6770   19.0370  -34.0240 C   0  0  0  0  0  0  0  0  0  0  0  0
   -7.1760   21.2360  -31.4130 C   0  0  0  0  0  0  0  0  0  0  0  0
   -7.0200   22.4930  -30.8210 C   0  0  0  0  0  0  0  0  0  0  0  0
   -4.7170   25.2880  -28.0550 H   0  0  0  0  0  0  0  0  0  0  0  0
   -4.4938   21.9631  -28.3550 H   0  0  0  0  0  0  0  0  0  0  0  0
   -2.4725   20.5043  -28.3291 H   0  0  0  0  0  0  0  0  0  0  0  0
   -0.2176   21.4802  -28.7644 H   0  0  0  0  0  0  0  0  0  0  0  0
    0.0197   23.9179  -29.2265 H   0  0  0  0  0  0  0  0  0  0  0  0
   -3.8406   23.1986  -31.8540 H   0  0  0  0  0  0  0  0  0  0  0  0
   -4.1116   20.9579  -32.9098 H   0  0  0  0  0  0  0  0  0  0  0  0
   -7.5622   18.5496  -31.2077 H   0  0  0  0  0  0  0  0  0  0  0  0
   -7.8324   16.3083  -32.2652 H   0  0  0  0  0  0  0  0  0  0  0  0
   -6.7242   15.8102  -34.4466 H   0  0  0  0  0  0  0  0  0  0  0  0
   -5.3446   17.5575  -35.5732 H   0  0  0  0  0  0  0  0  0  0  0  0
   -5.0674   19.8030  -34.5257 H   0  0  0  0  0  0  0  0  0  0  0  0
   -8.1211   20.6874  -31.2874 H   0  0  0  0  0  0  0  0  0  0  0  0
   -7.8421   22.9284  -30.2340 H   0  0  0  0  0  0  0  0  0  0  0  0
  1  2  2  0
  2  3  2  0
  2  4  1  0
  4  5  1  0
  5  6  2  0
  6  7  1  0
  7  8  2  0
  8  9  1  0
  9 10  2  0
 10 11  1  0
  2 12  1  0
 12 13  2  0
 13 14  1  0
 14 15  2  0
 15 16  1  0
 16 17  2  0
 17 18  1  0
 18 19  2  0
 19 20  1  0
 20 21  2  0
 15 22  1  0
 22 23  2  0
 10  5  1  0
 23 12  1  0
 21 16  1  0
  4 24  1  0
  6 25  1  0
  7 26  1  0
  8 27  1  0
  9 28  1  0
 13 29  1  0
 14 30  1  0
 17 31  1  0
 18 32  1  0
 19 33  1  0
 20 34  1  0
 21 35  1  0
 22 36  1  0
 23 37  1  0
M  CHG  1  11  -1
M  END
>  <UniqueID>  (40) 
39

>  <SMILES>  (40) 
O=S(=O)(Nc1ccccc1[O-])c1ccc(-c2ccccc2)cc1

>  <Energy>  (40) 
48.610413218738564

>  <Genealogy>  (40) 
O=S(=O)(Nc1ccccc1[O-])c1ccc(-c2ccccc2)cc1 (protonated)
O=S(=O)(Nc1ccccc1[O-])c1ccc(-c2ccccc2)cc1 (3D coordinates assigned)
O=S(=O)(Nc1ccccc1[O-])c1ccc(-c2ccccc2)cc1 (optimized conformer: 48.610413218738564 kcal/mol)

>  <smiles>  (40) 
O=S(=O)(Nc1ccccc1O)c1ccc(-c2ccccc2)cc1

>  <score_type>  (40) 
oracle

>  <origin>  (40) 
adgpu

>  <m_score__min__energy>  (40) 
-12.859999999999999

>  <m_primary>  (40) 
energy

$$$$
40:0
     RDKit          3D

 49 52  0  0  0  0  0  0  0  0999 V2000
   -0.0910   17.2280  -27.4460 C   0  0  0  0  0  0  0  0  0  0  0  0
   -0.5420   18.6360  -27.6970 C   0  0  0  0  0  0  0  0  0  0  0  0
    0.1180   19.4240  -28.6530 C   0  0  0  0  0  0  0  0  0  0  0  0
   -0.3110   20.7280  -28.9110 C   0  0  0  0  0  0  0  0  0  0  0  0
   -1.3930   21.2680  -28.2050 C   0  0  0  0  0  0  0  0  0  0  0  0
   -1.8510   22.5870  -28.5320 N   0  0  0  0  0  0  0  0  0  0  0  0
   -2.8670   22.9250  -29.2790 C   0  0  0  0  0  0  0  0  0  0  0  0
   -3.7230   21.9750  -29.7770 N   0  0  0  0  0  0  0  0  0  0  0  0
   -4.7360   22.3050  -30.6250 C   0  0  0  0  0  0  0  0  0  0  0  0
   -5.5970   21.3220  -31.1400 C   0  0  0  0  0  0  0  0  0  0  0  0
   -6.6290   21.6830  -32.0170 C   0  0  0  0  0  0  0  0  0  0  0  0
   -7.5130   20.6770  -32.5440 C   0  0  0  0  0  0  0  0  0  0  0  0
   -8.2230   19.8680  -32.9680 N   0  0  0  0  0  0  0  0  0  0  0  0
   -6.8020   23.0260  -32.3790 C   0  0  0  0  0  0  0  0  0  0  0  0
   -5.9470   24.0070  -31.8670 C   0  0  0  0  0  0  0  0  0  0  0  0
   -4.9170   23.6490  -30.9910 C   0  0  0  0  0  0  0  0  0  0  0  0
   -4.0990   24.5950  -30.4720 N   0  0  0  0  0  0  0  0  0  0  0  0
   -3.0960   24.2940  -29.6050 C   0  0  0  0  0  0  0  0  0  0  0  0
   -2.3780   25.2880  -29.1510 N   0  0  0  0  0  0  0  0  0  0  0  0
   -1.3740   25.2760  -28.1250 C   0  0  0  0  0  0  0  0  0  0  0  0
   -0.1180   24.6920  -28.3570 C   0  0  0  0  0  0  0  0  0  0  0  0
    0.8500   24.6820  -27.3490 C   0  0  0  0  0  0  0  0  0  0  0  0
    0.5590   25.2240  -26.0890 C   0  0  0  0  0  0  0  0  0  0  0  0
    1.7770   25.2480  -24.8190 S   0  0  0  0  0  0  0  0  0  0  0  0
    1.4040   26.5540  -23.6690 C   0  0  0  0  0  0  0  0  0  0  0  0
    1.7820   23.9250  -24.1070 O   0  0  0  0  0  0  0  0  0  0  0  0
    3.1390   25.4900  -25.4090 O   0  0  0  0  0  0  0  0  0  0  0  0
   -0.7110   25.7670  -25.8450 C   0  0  0  0  0  0  0  0  0  0  0  0
   -1.6770   25.7810  -26.8560 C   0  0  0  0  0  0  0  0  0  0  0  0
   -2.0870   20.4640  -27.2850 C   0  0  0  0  0  0  0  0  0  0  0  0
   -1.6590   19.1590  -27.0270 C   0  0  0  0  0  0  0  0  0  0  0  0
   -0.0337   17.0491  -26.3622 H   0  0  0  0  0  0  0  0  0  0  0  0
   -0.8096   16.5271  -27.8959 H   0  0  0  0  0  0  0  0  0  0  0  0
    0.9011   17.0751  -27.8959 H   0  0  0  0  0  0  0  0  0  0  0  0
    0.9777   19.0123  -29.2020 H   0  0  0  0  0  0  0  0  0  0  0  0
    0.2033   21.3333  -29.6720 H   0  0  0  0  0  0  0  0  0  0  0  0
   -3.6250   20.9740  -29.4940 H   0  0  0  0  0  0  0  0  0  0  0  0
   -5.4613   20.2683  -30.8549 H   0  0  0  0  0  0  0  0  0  0  0  0
   -7.6121   23.3089  -33.0673 H   0  0  0  0  0  0  0  0  0  0  0  0
   -6.0845   25.0602  -32.1532 H   0  0  0  0  0  0  0  0  0  0  0  0
    0.1046   24.2410  -29.3353 H   0  0  0  0  0  0  0  0  0  0  0  0
    1.8418   24.2482  -27.5444 H   0  0  0  0  0  0  0  0  0  0  0  0
    1.5112   26.1787  -22.6406 H   0  0  0  0  0  0  0  0  0  0  0  0
    2.0987   27.3919  -23.8278 H   0  0  0  0  0  0  0  0  0  0  0  0
    0.3715   26.8986  -23.8278 H   0  0  0  0  0  0  0  0  0  0  0  0
   -0.9480   26.1833  -24.8548 H   0  0  0  0  0  0  0  0  0  0  0  0
   -2.6777   26.1901  -26.6530 H   0  0  0  0  0  0  0  0  0  0  0  0
   -2.9707   20.8634  -26.7658 H   0  0  0  0  0  0  0  0  0  0  0  0
   -2.1994   18.5394  -26.2962 H   0  0  0  0  0  0  0  0  0  0  0  0
  1  2  1  0
  2  3  2  0
  3  4  1  0
  4  5  2  0
  5  6  1  0
  6  7  2  3
  7  8  1  0
  8  9  1  0
  9 10  2  0
 10 11  1  0
 11 12  1  0
 12 13  3  0
 11 14  2  0
 14 15  1  0
 15 16  2  0
 16 17  1  0
 17 18  1  0
 18 19  2  3
 19 20  1  0
 20 21  2  0
 21 22  1  0
 22 23  2  0
 23 24  1  0
 24 25  1  0
 24 26  2  0
 24 27  2  0
 23 28  1  0
 28 29  2  0
  5 30  1  0
 30 31  2  0
 31  2  1  0
 18  7  1  0
 29 20  1  0
 16  9  1  0
  1 32  1  0
  1 33  1  0
  1 34  1  0
  3 35  1  0
  4 36  1  0
  8 37  1  0
 10 38  1  0
 14 39  1  0
 15 40  1  0
 21 41  1  0
 22 42  1  0
 25 43  1  0
 25 44  1  0
 25 45  1  0
 28 46  1  0
 29 47  1  0
 30 48  1  0
 31 49  1  0
M  CHG  1  17  -1
M  END
>  <UniqueID>  (41) 
40

>  <SMILES>  (41) 
Cc1ccc(N=c2[nH]c3cc(C#N)ccc3[n-]c2=Nc2ccc(S(C)(=O)=O)cc2)cc1

>  <Energy>  (41) 
75.42966614873684

>  <Genealogy>  (41) 
Cc1ccc(N=c2[nH]c3cc(C#N)ccc3[n-]c2=Nc2ccc(S(C)(=O)=O)cc2)cc1 (protonated)
Cc1ccc(N=c2[nH]c3cc(C#N)ccc3[n-]c2=Nc2ccc(S(C)(=O)=O)cc2)cc1 (3D coordinates assigned)
Cc1ccc(N=c2[nH]c3cc(C#N)ccc3[n-]c2=Nc2ccc(S(C)(=O)=O)cc2)cc1 (optimized conformer: 75.42966614873684 kcal/mol)

>  <smiles>  (41) 
Cc1ccc(N=c2[nH]c3cc(C#N)ccc3[nH]c2=Nc2ccc(S(C)(=O)=O)cc2)cc1

>  <score_type>  (41) 
oracle

>  <origin>  (41) 
adgpu

>  <m_score__min__energy>  (41) 
-10.6

>  <m_primary>  (41) 
energy

$$$$
41:0
     RDKit          3D

 54 56  0  0  0  0  0  0  0  0999 V2000
   -3.6260   17.6770  -33.5080 C   0  0  0  0  0  0  0  0  0  0  0  0
   -4.5260   18.7430  -33.0470 N   0  0  0  0  0  0  0  0  0  0  0  0
   -3.9820   20.0530  -33.4210 C   0  0  0  0  0  0  0  0  0  0  0  0
   -6.0960   18.5390  -33.7840 S   0  0  0  0  0  0  0  0  0  0  0  0
   -6.5380   17.1040  -33.6720 O   0  0  0  0  0  0  0  0  0  0  0  0
   -6.0190   18.9050  -35.2410 O   0  0  0  0  0  0  0  0  0  0  0  0
   -7.2760   19.5910  -33.0040 C   0  0  0  0  0  0  0  0  0  0  0  0
   -8.5500   19.1100  -32.6670 C   0  0  0  0  0  0  0  0  0  0  0  0
   -9.4690   19.9460  -32.0270 C   0  0  0  0  0  0  0  0  0  0  0  0
   -9.1240   21.2670  -31.7280 C   0  0  0  0  0  0  0  0  0  0  0  0
   -7.8610   21.7690  -32.0780 C   0  0  0  0  0  0  0  0  0  0  0  0
   -7.5160   23.1190  -31.7280 N   0  0  0  0  0  0  0  0  0  0  0  0
   -6.6090   23.4760  -30.6730 C   0  0  0  0  0  0  0  0  0  0  0  0
   -6.8000   24.9300  -29.9350 S   0  0  0  0  0  0  0  0  0  0  0  0
   -5.5400   22.5890  -30.2870 N   0  0  0  0  0  0  0  0  0  0  0  0
   -4.3420   23.0170  -29.6240 C   0  0  0  0  0  0  0  0  0  0  0  0
   -3.9060   24.3490  -29.7140 C   0  0  0  0  0  0  0  0  0  0  0  0
   -2.7060   24.7390  -29.1130 C   0  0  0  0  0  0  0  0  0  0  0  0
   -1.9260   23.8040  -28.4230 C   0  0  0  0  0  0  0  0  0  0  0  0
   -0.4050   24.3110  -27.6940 S   0  0  0  0  0  0  0  0  0  0  0  0
   -0.1650   23.4940  -26.4560 O   0  0  0  0  0  0  0  0  0  0  0  0
    0.7450   24.1050  -28.6420 O   0  0  0  0  0  0  0  0  0  0  0  0
   -0.5010   25.9890  -27.2610 N   0  0  0  0  0  0  0  0  0  0  0  0
   -0.0880   26.5440  -26.0030 C   0  0  0  0  0  0  0  0  0  0  0  0
    1.1990   27.0780  -25.8050 C   0  0  0  0  0  0  0  0  0  0  0  0
    1.5640   27.5950  -24.5560 C   0  0  0  0  0  0  0  0  0  0  0  0
    0.6510   27.5890  -23.4970 C   0  0  0  0  0  0  0  0  0  0  0  0
    1.0260   28.1130  -22.2600 O   0  0  0  0  0  0  0  0  0  0  0  0
   -0.6310   27.0520  -23.6880 C   0  0  0  0  0  0  0  0  0  0  0  0
   -0.9940   26.5280  -24.9340 C   0  0  0  0  0  0  0  0  0  0  0  0
   -2.3540   22.4730  -28.3390 C   0  0  0  0  0  0  0  0  0  0  0  0
   -3.5490   22.0790  -28.9490 C   0  0  0  0  0  0  0  0  0  0  0  0
   -6.9290   20.9140  -32.6930 C   0  0  0  0  0  0  0  0  0  0  0  0
   -3.1915   17.1624  -32.6383 H   0  0  0  0  0  0  0  0  0  0  0  0
   -4.1926   16.9559  -34.1154 H   0  0  0  0  0  0  0  0  0  0  0  0
   -2.8201   18.1147  -34.1154 H   0  0  0  0  0  0  0  0  0  0  0  0
   -3.7446   20.6246  -32.5117 H   0  0  0  0  0  0  0  0  0  0  0  0
   -3.0673   19.9139  -34.0159 H   0  0  0  0  0  0  0  0  0  0  0  0
   -4.7262   20.6028  -34.0159 H   0  0  0  0  0  0  0  0  0  0  0  0
   -8.8262   18.0726  -32.9070 H   0  0  0  0  0  0  0  0  0  0  0  0
  -10.4649   19.5640  -31.7583 H   0  0  0  0  0  0  0  0  0  0  0  0
   -9.8474   21.9177  -31.2148 H   0  0  0  0  0  0  0  0  0  0  0  0
   -7.9350   23.8930  -32.2930 H   0  0  0  0  0  0  0  0  0  0  0  0
   -5.6060   21.5760  -30.5230 H   0  0  0  0  0  0  0  0  0  0  0  0
   -4.5112   25.0880  -30.2595 H   0  0  0  0  0  0  0  0  0  0  0  0
   -2.3732   25.7851  -29.1826 H   0  0  0  0  0  0  0  0  0  0  0  0
    1.9210   27.0893  -26.6348 H   0  0  0  0  0  0  0  0  0  0  0  0
    2.5729   28.0075  -24.4073 H   0  0  0  0  0  0  0  0  0  0  0  0
    1.5450   27.5630  -21.5850 H   0  0  0  0  0  0  0  0  0  0  0  0
   -1.3519   27.0428  -22.8572 H   0  0  0  0  0  0  0  0  0  0  0  0
   -1.9977   26.1005  -25.0752 H   0  0  0  0  0  0  0  0  0  0  0  0
   -1.7484   21.7356  -27.7917 H   0  0  0  0  0  0  0  0  0  0  0  0
   -3.8683   21.0276  -28.8988 H   0  0  0  0  0  0  0  0  0  0  0  0
   -5.9214   21.2852  -32.9317 H   0  0  0  0  0  0  0  0  0  0  0  0
  1  2  1  0
  2  3  1  0
  2  4  1  0
  4  5  2  0
  4  6  2  0
  4  7  1  0
  7  8  2  0
  8  9  1  0
  9 10  2  0
 10 11  1  0
 11 12  1  0
 12 13  1  0
 13 14  2  0
 13 15  1  0
 15 16  1  0
 16 17  2  0
 17 18  1  0
 18 19  2  0
 19 20  1  0
 20 21  2  0
 20 22  2  0
 20 23  1  0
 23 24  1  0
 24 25  2  0
 25 26  1  0
 26 27  2  0
 27 28  1  0
 27 29  1  0
 29 30  2  0
 19 31  1  0
 31 32  2  0
 11 33  2  0
 33  7  1  0
 32 16  1  0
 30 24  1  0
  1 34  1  0
  1 35  1  0
  1 36  1  0
  3 37  1  0
  3 38  1  0
  3 39  1  0
  8 40  1  0
  9 41  1  0
 10 42  1  0
 12 43  1  0
 15 44  1  0
 17 45  1  0
 18 46  1  0
 25 47  1  0
 26 48  1  0
 28 49  1  0
 29 50  1  0
 30 51  1  0
 31 52  1  0
 32 53  1  0
 33 54  1  0
M  CHG  1  23  -1
M  END
>  <UniqueID>  (42) 
41

>  <SMILES>  (42) 
CN(C)S(=O)(=O)c1cccc(NC(=S)Nc2ccc(S(=O)(=O)[N-]c3ccc(O)cc3)cc2)c1

>  <Energy>  (42) 
67.18802568325498

>  <Genealogy>  (42) 
CN(C)S(=O)(=O)c1cccc(NC(=S)Nc2ccc(S(=O)(=O)[N-]c3ccc(O)cc3)cc2)c1 (protonated)
CN(C)S(=O)(=O)c1cccc(NC(=S)Nc2ccc(S(=O)(=O)[N-]c3ccc(O)cc3)cc2)c1 (3D coordinates assigned)
CN(C)S(=O)(=O)c1cccc(NC(=S)Nc2ccc(S(=O)(=O)[N-]c3ccc(O)cc3)cc2)c1 (optimized conformer: 67.18802568325498 kcal/mol)

>  <smiles>  (42) 
CN(C)S(=O)(=O)c1cccc(NC(=S)Nc2ccc(S(=O)(=O)Nc3ccc(O)cc3)cc2)c1

>  <score_type>  (42) 
oracle

>  <origin>  (42) 
adgpu

>  <m_score__min__energy>  (42) 
-10.33

>  <m_primary>  (42) 
energy

$$$$
42:0
     RDKit          3D

 30 32  0  0  0  0  0  0  0  0999 V2000
   -3.8630   25.6690  -30.4900 O   0  0  0  0  0  0  0  0  0  0  0  0
   -4.1540   24.3190  -30.6420 C   0  0  0  0  0  0  0  0  0  0  0  0
   -3.1720   23.3590  -30.3830 C   0  0  0  0  0  0  0  0  0  0  0  0
   -3.4660   22.0010  -30.5300 C   0  0  0  0  0  0  0  0  0  0  0  0
   -4.7390   21.6000  -30.9430 C   0  0  0  0  0  0  0  0  0  0  0  0
   -5.7300   22.5580  -31.2240 C   0  0  0  0  0  0  0  0  0  0  0  0
   -7.0840   22.1440  -31.6540 C   0  0  0  0  0  0  0  0  0  0  0  0
   -8.2370   22.9120  -31.5750 C   0  0  0  0  0  0  0  0  0  0  0  0
   -9.2920   22.1890  -31.9980 N   0  0  0  0  0  0  0  0  0  0  0  0
   -8.8400   20.9940  -32.3390 N   0  0  0  0  0  0  0  0  0  0  0  0
   -9.6340   20.0050  -32.8770 O   0  0  0  0  0  0  0  0  0  0  0  0
   -7.5090   20.9180  -32.1530 C   0  0  0  0  0  0  0  0  0  0  0  0
   -6.6760   19.7560  -32.5330 C   0  0  0  0  0  0  0  0  0  0  0  0
   -5.9350   19.7680  -33.7270 C   0  0  0  0  0  0  0  0  0  0  0  0
   -5.1510   18.6670  -34.0810 C   0  0  0  0  0  0  0  0  0  0  0  0
   -5.1060   17.5430  -33.2520 C   0  0  0  0  0  0  0  0  0  0  0  0
   -5.8470   17.5190  -32.0670 C   0  0  0  0  0  0  0  0  0  0  0  0
   -6.6320   18.6190  -31.7080 C   0  0  0  0  0  0  0  0  0  0  0  0
   -5.4300   23.9210  -31.0560 C   0  0  0  0  0  0  0  0  0  0  0  0
   -2.1673   23.6726  -30.0633 H   0  0  0  0  0  0  0  0  0  0  0  0
   -2.6938   21.2462  -30.3202 H   0  0  0  0  0  0  0  0  0  0  0  0
   -4.9676   20.5293  -31.0490 H   0  0  0  0  0  0  0  0  0  0  0  0
   -8.2826   23.9525  -31.2210 H   0  0  0  0  0  0  0  0  0  0  0  0
   -9.4810   19.6800  -33.8240 H   0  0  0  0  0  0  0  0  0  0  0  0
   -5.9724   20.6481  -34.3858 H   0  0  0  0  0  0  0  0  0  0  0  0
   -4.5683   18.6850  -35.0138 H   0  0  0  0  0  0  0  0  0  0  0  0
   -4.4877   16.6774  -33.5319 H   0  0  0  0  0  0  0  0  0  0  0  0
   -5.8125   16.6332  -31.4157 H   0  0  0  0  0  0  0  0  0  0  0  0
   -7.2170   18.5944  -30.7768 H   0  0  0  0  0  0  0  0  0  0  0  0
   -6.2028   24.6791  -31.2511 H   0  0  0  0  0  0  0  0  0  0  0  0
  1  2  1  0
  2  3  2  0
  3  4  1  0
  4  5  2  0
  5  6  1  0
  6  7  1  0
  7  8  1  0
  8  9  2  0
  9 10  1  0
 10 11  1  0
 10 12  1  0
 12 13  1  0
 13 14  2  0
 14 15  1  0
 15 16  2  0
 16 17  1  0
 17 18  2  0
  6 19  2  0
 19  2  1  0
 12  7  2  0
 18 13  1  0
  3 20  1  0
  4 21  1  0
  5 22  1  0
  8 23  1  0
 11 24  1  0
 14 25  1  0
 15 26  1  0
 16 27  1  0
 17 28  1  0
 18 29  1  0
 19 30  1  0
M  CHG  1   1  -1
M  END
>  <UniqueID>  (43) 
42

>  <SMILES>  (43) 
[O-]c1cccc(-c2cnn(O)c2-c2ccccc2)c1

>  <Energy>  (43) 
71.87157395599509

>  <Genealogy>  (43) 
[O-]c1cccc(-c2cnn(O)c2-c2ccccc2)c1 (protonated)
[O-]c1cccc(-c2cnn(O)c2-c2ccccc2)c1 (3D coordinates assigned)
[O-]c1cccc(-c2cnn(O)c2-c2ccccc2)c1 (optimized conformer: 71.87157395599509 kcal/mol)

>  <smiles>  (43) 
Oc1cccc(-c2cnn(O)c2-c2ccccc2)c1

>  <score_type>  (43) 
oracle

>  <origin>  (43) 
adgpu

>  <m_score__min__energy>  (43) 
-10.98

>  <m_primary>  (43) 
energy

$$$$
43:0
     RDKit          3D

 51 53  0  0  0  0  0  0  0  0999 V2000
   -2.0370   17.7320  -33.4930 C   0  0  0  0  0  0  0  0  0  0  0  0
   -2.9230   18.6880  -34.0760 O   0  0  0  0  0  0  0  0  0  0  0  0
   -4.1230   19.1190  -33.4840 C   0  0  0  0  0  0  0  0  0  0  0  0
   -4.1290   19.9410  -32.3390 C   0  0  0  0  0  0  0  0  0  0  0  0
   -5.3340   20.3400  -31.7620 C   0  0  0  0  0  0  0  0  0  0  0  0
   -6.5490   19.9320  -32.3160 C   0  0  0  0  0  0  0  0  0  0  0  0
   -8.0540   20.4030  -31.5390 S   0  0  0  0  0  0  0  0  0  0  0  0
   -8.7330   19.2190  -30.9020 O   0  0  0  0  0  0  0  0  0  0  0  0
   -8.9730   20.9860  -32.5770 O   0  0  0  0  0  0  0  0  0  0  0  0
   -7.7270   21.5990  -30.3220 N   0  0  0  0  0  0  0  0  0  0  0  0
   -6.7230   22.6220  -30.4170 C   0  0  0  0  0  0  0  0  0  0  0  0
   -6.8030   23.5500  -31.4540 C   0  0  0  0  0  0  0  0  0  0  0  0
   -5.8530   24.5690  -31.5730 C   0  0  0  0  0  0  0  0  0  0  0  0
   -4.7950   24.6490  -30.6570 C   0  0  0  0  0  0  0  0  0  0  0  0
   -3.8640   25.6730  -30.7790 O   0  0  0  0  0  0  0  0  0  0  0  0
   -4.6870   23.7080  -29.6210 C   0  0  0  0  0  0  0  0  0  0  0  0
   -3.3900   23.8450  -28.4400 S   0  0  0  0  0  0  0  0  0  0  0  0
   -3.9610   24.3230  -27.1420 O   0  0  0  0  0  0  0  0  0  0  0  0
   -2.3450   24.8190  -28.9020 O   0  0  0  0  0  0  0  0  0  0  0  0
   -2.6770   22.2850  -28.2070 N   0  0  0  0  0  0  0  0  0  0  0  0
   -1.9560   21.6060  -29.2430 C   0  0  0  0  0  0  0  0  0  0  0  0
   -1.9110   22.1320  -30.5460 C   0  0  0  0  0  0  0  0  0  0  0  0
   -1.2610   21.4280  -31.5650 C   0  0  0  0  0  0  0  0  0  0  0  0
   -0.6590   20.1950  -31.2910 C   0  0  0  0  0  0  0  0  0  0  0  0
   -0.6920   19.6690  -29.9950 C   0  0  0  0  0  0  0  0  0  0  0  0
   -1.3420   20.3750  -28.9600 C   0  0  0  0  0  0  0  0  0  0  0  0
   -1.4310   19.8750  -27.6580 O   0  0  0  0  0  0  0  0  0  0  0  0
   -2.6460   19.5080  -27.0220 C   0  0  0  0  0  0  0  0  0  0  0  0
   -5.6580   22.7070  -29.4980 C   0  0  0  0  0  0  0  0  0  0  0  0
   -6.5550   19.1170  -33.4510 C   0  0  0  0  0  0  0  0  0  0  0  0
   -5.3510   18.7170  -34.0490 C   0  0  0  0  0  0  0  0  0  0  0  0
   -5.3940   17.7830  -35.2280 C   0  0  0  0  0  0  0  0  0  0  0  0
   -2.0973   17.7971  -32.3966 H   0  0  0  0  0  0  0  0  0  0  0  0
   -2.3243   16.7207  -33.8166 H   0  0  0  0  0  0  0  0  0  0  0  0
   -1.0068   17.9417  -33.8166 H   0  0  0  0  0  0  0  0  0  0  0  0
   -3.1766   20.2699  -31.8977 H   0  0  0  0  0  0  0  0  0  0  0  0
   -5.3274   20.9789  -30.8666 H   0  0  0  0  0  0  0  0  0  0  0  0
   -7.6213   23.4800  -32.1857 H   0  0  0  0  0  0  0  0  0  0  0  0
   -5.9358   25.3070  -32.3845 H   0  0  0  0  0  0  0  0  0  0  0  0
   -2.3878   23.0989  -30.7645 H   0  0  0  0  0  0  0  0  0  0  0  0
   -1.2231   21.8440  -32.5826 H   0  0  0  0  0  0  0  0  0  0  0  0
   -0.1585   19.6378  -32.0966 H   0  0  0  0  0  0  0  0  0  0  0  0
   -0.2104   18.7032  -29.7822 H   0  0  0  0  0  0  0  0  0  0  0  0
   -2.5150   19.5476  -25.9305 H   0  0  0  0  0  0  0  0  0  0  0  0
   -3.4419   20.2058  -27.3213 H   0  0  0  0  0  0  0  0  0  0  0  0
   -2.9225   18.4863  -27.3213 H   0  0  0  0  0  0  0  0  0  0  0  0
   -5.5890   21.9795  -28.6758 H   0  0  0  0  0  0  0  0  0  0  0  0
   -7.5126   18.7861  -33.8794 H   0  0  0  0  0  0  0  0  0  0  0  0
   -5.4418   16.7437  -34.8709 H   0  0  0  0  0  0  0  0  0  0  0  0
   -6.2830   18.0026  -35.8375 H   0  0  0  0  0  0  0  0  0  0  0  0
   -4.4886   17.9200  -35.8375 H   0  0  0  0  0  0  0  0  0  0  0  0
  1  2  1  0
  2  3  1  0
  3  4  2  0
  4  5  1  0
  5  6  2  0
  6  7  1  0
  7  8  2  0
  7  9  2  0
  7 10  1  0
 10 11  1  0
 11 12  2  0
 12 13  1  0
 13 14  2  0
 14 15  1  0
 14 16  1  0
 16 17  1  0
 17 18  2  0
 17 19  2  0
 17 20  1  0
 20 21  1  0
 21 22  2  0
 22 23  1  0
 23 24  2  0
 24 25  1  0
 25 26  2  0
 26 27  1  0
 27 28  1  0
 16 29  2  0
  6 30  1  0
 30 31  2  0
 31 32  1  0
 31  3  1  0
 29 11  1  0
 26 21  1  0
  1 33  1  0
  1 34  1  0
  1 35  1  0
  4 36  1  0
  5 37  1  0
 12 38  1  0
 13 39  1  0
 22 40  1  0
 23 41  1  0
 24 42  1  0
 25 43  1  0
 28 44  1  0
 28 45  1  0
 28 46  1  0
 29 47  1  0
 30 48  1  0
 32 49  1  0
 32 50  1  0
 32 51  1  0
M  CHG  3  10  -1  15  -1  20  -1
M  END
>  <UniqueID>  (44) 
43

>  <SMILES>  (44) 
COc1ccc(S(=O)(=O)[N-]c2ccc([O-])c(S(=O)(=O)[N-]c3ccccc3OC)c2)cc1C

>  <Energy>  (44) 
61.08839970608611

>  <Genealogy>  (44) 
COc1ccc(S(=O)(=O)[N-]c2ccc([O-])c(S(=O)(=O)[N-]c3ccccc3OC)c2)cc1C (protonated)
COc1ccc(S(=O)(=O)[N-]c2ccc([O-])c(S(=O)(=O)[N-]c3ccccc3OC)c2)cc1C (3D coordinates assigned)
COc1ccc(S(=O)(=O)[N-]c2ccc([O-])c(S(=O)(=O)[N-]c3ccccc3OC)c2)cc1C (optimized conformer: 61.08839970608611 kcal/mol)

>  <smiles>  (44) 
COc1ccc(S(=O)(=O)Nc2ccc(O)c(S(=O)(=O)Nc3ccccc3OC)c2)cc1C

>  <score_type>  (44) 
oracle

>  <origin>  (44) 
adgpu

>  <m_score__min__energy>  (44) 
-12.74

>  <m_primary>  (44) 
energy

$$$$
44:0
     RDKit          3D

 45 47  0  0  0  0  0  0  0  0999 V2000
   -1.2090   19.6770  -27.8850 N   0  0  0  0  0  0  0  0  0  0  0  0
   -2.2560   20.6530  -27.8270 C   0  0  0  0  0  0  0  0  0  0  0  0
   -3.4000   20.3070  -27.4240 O   0  0  0  0  0  0  0  0  0  0  0  0
   -2.0030   22.0570  -28.2310 C   0  0  0  0  0  0  0  0  0  0  0  0
   -0.8880   22.7520  -27.7230 C   0  0  0  0  0  0  0  0  0  0  0  0
   -0.6580   24.0800  -28.0900 C   0  0  0  0  0  0  0  0  0  0  0  0
   -1.5270   24.7290  -28.9750 C   0  0  0  0  0  0  0  0  0  0  0  0
   -1.2780   26.0490  -29.3320 O   0  0  0  0  0  0  0  0  0  0  0  0
   -2.6350   24.0520  -29.5050 C   0  0  0  0  0  0  0  0  0  0  0  0
   -3.4930   24.7420  -30.4260 N   0  0  0  0  0  0  0  0  0  0  0  0
   -5.2180   24.8860  -30.2620 S   0  0  0  0  0  0  0  0  0  0  0  0
   -5.5590   25.0390  -28.8050 O   0  0  0  0  0  0  0  0  0  0  0  0
   -5.6830   26.1030  -31.0120 O   0  0  0  0  0  0  0  0  0  0  0  0
   -5.9970   23.4600  -30.9390 C   0  0  0  0  0  0  0  0  0  0  0  0
   -7.2920   23.5400  -31.4690 C   0  0  0  0  0  0  0  0  0  0  0  0
   -7.9380   22.3880  -31.9270 C   0  0  0  0  0  0  0  0  0  0  0  0
   -7.2940   21.1450  -31.8550 C   0  0  0  0  0  0  0  0  0  0  0  0
   -8.1170   19.6830  -32.3900 S   0  0  0  0  0  0  0  0  0  0  0  0
   -8.4580   18.8500  -31.1850 O   0  0  0  0  0  0  0  0  0  0  0  0
   -9.3960   20.0500  -33.0920 O   0  0  0  0  0  0  0  0  0  0  0  0
   -7.0870   18.7690  -33.4640 N   0  0  0  0  0  0  0  0  0  0  0  0
   -6.1220   19.6570  -34.1570 C   0  0  0  0  0  0  0  0  0  0  0  0
   -4.6750   19.4320  -33.6850 C   0  0  0  0  0  0  0  0  0  0  0  0
   -4.2510   18.0920  -33.8730 O   0  0  0  0  0  0  0  0  0  0  0  0
   -5.2330   17.1250  -33.5100 C   0  0  0  0  0  0  0  0  0  0  0  0
   -6.4300   17.6790  -32.7180 C   0  0  0  0  0  0  0  0  0  0  0  0
   -5.9880   21.0700  -31.3520 C   0  0  0  0  0  0  0  0  0  0  0  0
   -5.3430   22.2220  -30.8950 C   0  0  0  0  0  0  0  0  0  0  0  0
   -2.8740   22.7170  -29.1210 C   0  0  0  0  0  0  0  0  0  0  0  0
   -0.4850   19.6140  -27.1370 H   0  0  0  0  0  0  0  0  0  0  0  0
   -0.1952   22.2466  -27.0341 H   0  0  0  0  0  0  0  0  0  0  0  0
    0.2100   24.6183  -27.6817 H   0  0  0  0  0  0  0  0  0  0  0  0
   -7.8020   24.5130  -31.5248 H   0  0  0  0  0  0  0  0  0  0  0  0
   -8.9533   22.4570  -32.3446 H   0  0  0  0  0  0  0  0  0  0  0  0
   -6.1754   19.4615  -35.2382 H   0  0  0  0  0  0  0  0  0  0  0  0
   -6.3939   20.6966  -33.9217 H   0  0  0  0  0  0  0  0  0  0  0  0
   -4.0094   20.0971  -34.2547 H   0  0  0  0  0  0  0  0  0  0  0  0
   -4.6341   19.6504  -32.6077 H   0  0  0  0  0  0  0  0  0  0  0  0
   -5.6175   16.6662  -34.4329 H   0  0  0  0  0  0  0  0  0  0  0  0
   -4.7284   16.4098  -32.8438 H   0  0  0  0  0  0  0  0  0  0  0  0
   -7.1554   16.8701  -32.5464 H   0  0  0  0  0  0  0  0  0  0  0  0
   -6.0671   18.0750  -31.7580 H   0  0  0  0  0  0  0  0  0  0  0  0
   -5.4690   20.1008  -31.3169 H   0  0  0  0  0  0  0  0  0  0  0  0
   -4.3186   22.1567  -30.4995 H   0  0  0  0  0  0  0  0  0  0  0  0
   -3.7498   22.1845  -29.5203 H   0  0  0  0  0  0  0  0  0  0  0  0
  1  2  1  0
  2  3  2  0
  2  4  1  0
  4  5  2  0
  5  6  1  0
  6  7  2  0
  7  8  1  0
  7  9  1  0
  9 10  1  0
 10 11  1  0
 11 12  2  0
 11 13  2  0
 11 14  1  0
 14 15  2  0
 15 16  1  0
 16 17  2  0
 17 18  1  0
 18 19  2  0
 18 20  2  0
 18 21  1  0
 21 22  1  0
 22 23  1  0
 23 24  1  0
 24 25  1  0
 25 26  1  0
 17 27  1  0
 27 28  2  0
  9 29  2  0
 29  4  1  0
 28 14  1  0
 26 21  1  0
  1 30  1  0
  5 31  1  0
  6 32  1  0
 15 33  1  0
 16 34  1  0
 22 35  1  0
 22 36  1  0
 23 37  1  0
 23 38  1  0
 25 39  1  0
 25 40  1  0
 26 41  1  0
 26 42  1  0
 27 43  1  0
 28 44  1  0
 29 45  1  0
M  CHG  3   1  -1   8  -1  10  -1
M  END
>  <UniqueID>  (45) 
44

>  <SMILES>  (45) 
[NH-]C(=O)c1ccc([O-])c([N-]S(=O)(=O)c2ccc(S(=O)(=O)N3CCOCC3)cc2)c1

>  <Energy>  (45) 
62.550983965867914

>  <Genealogy>  (45) 
[NH-]C(=O)c1ccc([O-])c([N-]S(=O)(=O)c2ccc(S(=O)(=O)N3CCOCC3)cc2)c1 (protonated)
[NH-]C(=O)c1ccc([O-])c([N-]S(=O)(=O)c2ccc(S(=O)(=O)N3CCOCC3)cc2)c1 (3D coordinates assigned)
[NH-]C(=O)c1ccc([O-])c([N-]S(=O)(=O)c2ccc(S(=O)(=O)N3CCOCC3)cc2)c1 (nonaromatic ring conformer: 62.550983965867914 kcal/mol)

>  <smiles>  (45) 
NC(=O)c1ccc(O)c(NS(=O)(=O)c2ccc(S(=O)(=O)N3CCOCC3)cc2)c1

>  <score_type>  (45) 
oracle

>  <origin>  (45) 
adgpu

>  <m_score__min__energy>  (45) 
-14.07

>  <m_primary>  (45) 
energy

$$$$
45:0
     RDKit          3D

 38 40  0  0  0  0  0  0  0  0999 V2000
    2.6640   19.6650  -28.6380 O   0  0  0  0  0  0  0  0  0  0  0  0
    1.4200   19.8460  -28.5770 C   0  0  0  0  0  0  0  0  0  0  0  0
    0.8590   20.3160  -27.4370 N   0  0  0  0  0  0  0  0  0  0  0  0
   -0.4810   20.5210  -27.3310 C   0  0  0  0  0  0  0  0  0  0  0  0
   -1.0170   21.0280  -26.0960 N   0  0  0  0  0  0  0  0  0  0  0  0
   -0.5170   22.2570  -25.4860 C   0  0  0  0  0  0  0  0  0  0  0  0
   -0.7350   23.4120  -26.4220 C   0  0  0  0  0  0  0  0  0  0  0  0
   -0.1430   23.4160  -27.6960 C   0  0  0  0  0  0  0  0  0  0  0  0
   -0.3190   24.5080  -28.5510 C   0  0  0  0  0  0  0  0  0  0  0  0
   -1.0690   25.6110  -28.1350 C   0  0  0  0  0  0  0  0  0  0  0  0
   -1.2360   26.6990  -28.9830 O   0  0  0  0  0  0  0  0  0  0  0  0
   -1.6470   25.6220  -26.8620 C   0  0  0  0  0  0  0  0  0  0  0  0
   -1.4810   24.5270  -26.0080 C   0  0  0  0  0  0  0  0  0  0  0  0
   -1.3170   20.2430  -28.4400 C   0  0  0  0  0  0  0  0  0  0  0  0
   -2.8060   20.5280  -28.4060 C   0  0  0  0  0  0  0  0  0  0  0  0
   -3.1200   21.8840  -28.9930 C   0  0  0  0  0  0  0  0  0  0  0  0
   -2.8280   22.1610  -30.3390 C   0  0  0  0  0  0  0  0  0  0  0  0
   -3.0940   23.4260  -30.8730 C   0  0  0  0  0  0  0  0  0  0  0  0
   -3.6490   24.4240  -30.0680 C   0  0  0  0  0  0  0  0  0  0  0  0
   -3.9160   25.6790  -30.6010 O   0  0  0  0  0  0  0  0  0  0  0  0
   -3.9390   24.1580  -28.7270 C   0  0  0  0  0  0  0  0  0  0  0  0
   -3.6690   22.8970  -28.1870 C   0  0  0  0  0  0  0  0  0  0  0  0
   -0.7010   19.7600  -29.6140 C   0  0  0  0  0  0  0  0  0  0  0  0
   -1.3820   19.5040  -30.6420 O   0  0  0  0  0  0  0  0  0  0  0  0
    0.6420   19.5710  -29.6510 N   0  0  0  0  0  0  0  0  0  0  0  0
   -1.8690   20.6000  -25.6740 H   0  0  0  0  0  0  0  0  0  0  0  0
   -1.0546   22.4429  -24.5445 H   0  0  0  0  0  0  0  0  0  0  0  0
    0.5588   22.1511  -25.2824 H   0  0  0  0  0  0  0  0  0  0  0  0
    0.4613   22.5567  -28.0221 H   0  0  0  0  0  0  0  0  0  0  0  0
    0.1339   24.4988  -29.5534 H   0  0  0  0  0  0  0  0  0  0  0  0
   -2.2328   26.4926  -26.5319 H   0  0  0  0  0  0  0  0  0  0  0  0
   -1.9371   24.5394  -25.0071 H   0  0  0  0  0  0  0  0  0  0  0  0
   -3.3317   19.7559  -28.9869 H   0  0  0  0  0  0  0  0  0  0  0  0
   -3.1368   20.5193  -27.3569 H   0  0  0  0  0  0  0  0  0  0  0  0
   -2.3881   21.3794  -30.9758 H   0  0  0  0  0  0  0  0  0  0  0  0
   -2.8659   23.6355  -31.9285 H   0  0  0  0  0  0  0  0  0  0  0  0
   -4.3807   24.9425  -28.0950 H   0  0  0  0  0  0  0  0  0  0  0  0
   -3.8869   22.6965  -27.1276 H   0  0  0  0  0  0  0  0  0  0  0  0
  1  2  2  0
  2  3  1  0
  3  4  1  0
  4  5  1  0
  5  6  1  0
  6  7  1  0
  7  8  2  0
  8  9  1  0
  9 10  2  0
 10 11  1  0
 10 12  1  0
 12 13  2  0
  4 14  2  0
 14 15  1  0
 15 16  1  0
 16 17  2  0
 17 18  1  0
 18 19  2  0
 19 20  1  0
 19 21  1  0
 21 22  2  0
 14 23  1  0
 23 24  2  0
 23 25  1  0
 25  2  1  0
 13  7  1  0
 22 16  1  0
  5 26  1  0
  6 27  1  0
  6 28  1  0
  8 29  1  0
  9 30  1  0
 12 31  1  0
 13 32  1  0
 15 33  1  0
 15 34  1  0
 17 35  1  0
 18 36  1  0
 21 37  1  0
 22 38  1  0
M  CHG  4   3  -1  11  -1  20  -1  25  -1
M  END
>  <UniqueID>  (46) 
45

>  <SMILES>  (46) 
O=c1[n-]c(NCc2ccc([O-])cc2)c(Cc2ccc([O-])cc2)c(=O)[n-]1

>  <Energy>  (46) 
38.93595528436198

>  <Genealogy>  (46) 
O=c1[n-]c(NCc2ccc([O-])cc2)c(Cc2ccc([O-])cc2)c(=O)[n-]1 (protonated)
O=c1[n-]c(NCc2ccc([O-])cc2)c(Cc2ccc([O-])cc2)c(=O)[n-]1 (3D coordinates assigned)
O=c1[n-]c(NCc2ccc([O-])cc2)c(Cc2ccc([O-])cc2)c(=O)[n-]1 (optimized conformer: 38.93595528436198 kcal/mol)

>  <smiles>  (46) 
O=c1[nH]c(NCc2ccc(O)cc2)c(Cc2ccc(O)cc2)c(=O)[nH]1

>  <score_type>  (46) 
oracle

>  <origin>  (46) 
adgpu

>  <m_score__min__energy>  (46) 
-11.869999999999999

>  <m_primary>  (46) 
energy

$$$$
46:0
     RDKit          3D

 35 37  0  0  0  0  0  0  0  0999 V2000
   -1.6030   26.0910  -27.2280 C   0  0  0  0  0  0  0  0  0  0  0  0
   -0.9360   25.0300  -28.0440 C   0  0  0  0  0  0  0  0  0  0  0  0
    0.3840   24.7660  -27.9740 N   0  0  0  0  0  0  0  0  0  0  0  0
    0.6250   23.7930  -28.8050 O   0  0  0  0  0  0  0  0  0  0  0  0
   -0.4700   23.4060  -29.4170 C   0  0  0  0  0  0  0  0  0  0  0  0
   -0.5120   22.3060  -30.4270 C   0  0  0  0  0  0  0  0  0  0  0  0
   -1.5290   24.1770  -28.9650 C   0  0  0  0  0  0  0  0  0  0  0  0
   -2.9490   24.0980  -29.3650 C   0  0  0  0  0  0  0  0  0  0  0  0
   -3.6910   23.2070  -28.8710 O   0  0  0  0  0  0  0  0  0  0  0  0
   -3.4850   25.0270  -30.3130 N   0  0  0  0  0  0  0  0  0  0  0  0
   -4.9090   25.3060  -30.4570 C   0  0  0  0  0  0  0  0  0  0  0  0
   -5.6020   24.1340  -31.0870 C   0  0  0  0  0  0  0  0  0  0  0  0
   -6.9160   24.2350  -31.4100 N   0  0  0  0  0  0  0  0  0  0  0  0
   -7.5690   23.1750  -31.9430 C   0  0  0  0  0  0  0  0  0  0  0  0
   -8.7860   23.2750  -32.2480 O   0  0  0  0  0  0  0  0  0  0  0  0
   -6.9140   22.0070  -32.1450 N   0  0  0  0  0  0  0  0  0  0  0  0
   -5.6010   21.8850  -31.8180 C   0  0  0  0  0  0  0  0  0  0  0  0
   -4.9410   20.5440  -32.0580 C   0  0  0  0  0  0  0  0  0  0  0  0
   -5.1890   19.8690  -33.3990 C   0  0  0  0  0  0  0  0  0  0  0  0
   -3.8330   20.4980  -33.1000 C   0  0  0  0  0  0  0  0  0  0  0  0
   -4.9420   22.9590  -31.2840 N   0  0  0  0  0  0  0  0  0  0  0  0
   -1.4654   25.8721  -26.1588 H   0  0  0  0  0  0  0  0  0  0  0  0
   -1.1568   27.0687  -27.4625 H   0  0  0  0  0  0  0  0  0  0  0  0
   -2.6775   26.1127  -27.4625 H   0  0  0  0  0  0  0  0  0  0  0  0
   -0.5491   21.3354  -29.9107 H   0  0  0  0  0  0  0  0  0  0  0  0
   -1.4064   22.4206  -31.0570 H   0  0  0  0  0  0  0  0  0  0  0  0
    0.3886   22.3521  -31.0570 H   0  0  0  0  0  0  0  0  0  0  0  0
   -5.3447   25.4964  -29.4651 H   0  0  0  0  0  0  0  0  0  0  0  0
   -5.0400   26.1897  -31.0988 H   0  0  0  0  0  0  0  0  0  0  0  0
   -5.0375   20.2361  -31.0064 H   0  0  0  0  0  0  0  0  0  0  0  0
   -5.2878   18.7748  -33.4543 H   0  0  0  0  0  0  0  0  0  0  0  0
   -5.9376   19.9767  -34.1977 H   0  0  0  0  0  0  0  0  0  0  0  0
   -2.9530   19.8579  -32.9394 H   0  0  0  0  0  0  0  0  0  0  0  0
   -3.1972   21.2478  -33.5935 H   0  0  0  0  0  0  0  0  0  0  0  0
   -3.9370   22.8990  -31.0170 H   0  0  0  0  0  0  0  0  0  0  0  0
  1  2  1  0
  2  3  2  0
  3  4  1  0
  4  5  1  0
  5  6  1  0
  5  7  2  0
  7  8  1  0
  8  9  2  0
  8 10  1  0
 10 11  1  0
 11 12  1  0
 12 13  2  0
 13 14  1  0
 14 15  2  0
 14 16  1  0
 16 17  2  0
 17 18  1  0
 18 19  1  0
 19 20  1  0
 17 21  1  0
  7  2  1  0
 21 12  1  0
 20 18  1  0
  1 22  1  0
  1 23  1  0
  1 24  1  0
  6 25  1  0
  6 26  1  0
  6 27  1  0
 11 28  1  0
 11 29  1  0
 18 30  1  0
 19 31  1  0
 19 32  1  0
 20 33  1  0
 20 34  1  0
 21 35  1  0
M  CHG  1  10  -1
M  END
>  <UniqueID>  (47) 
46

>  <SMILES>  (47) 
Cc1noc(C)c1C(=O)[N-]Cc1nc(=O)nc(C2CC2)[nH]1

>  <Energy>  (47) 
329.27097493037434

>  <Genealogy>  (47) 
Cc1noc(C)c1C(=O)[N-]Cc1nc(=O)nc(C2CC2)[nH]1 (protonated)
Cc1noc(C)c1C(=O)[N-]Cc1nc(=O)nc(C2CC2)[nH]1 (3D coordinates assigned)
Cc1noc(C)c1C(=O)[N-]Cc1nc(=O)nc(C2CC2)[nH]1 (nonaromatic ring conformer: 329.27097493037434 kcal/mol)

>  <smiles>  (47) 
Cc1noc(C)c1C(=O)NCc1nc(=O)nc(C2CC2)[nH]1

>  <score_type>  (47) 
oracle

>  <origin>  (47) 
adgpu

>  <m_score__min__energy>  (47) 
-9.1899999999999995

>  <m_primary>  (47) 
energy

$$$$
47:0
     RDKit          3D

 30 31  0  0  1  0  0  0  0  0999 V2000
   -2.7950   22.2250  -31.5340 N   0  0  0  0  0  0  0  0  0  0  0  0
   -3.2610   22.4220  -30.3460 C   0  0  0  0  0  0  0  0  0  0  0  0
   -3.4050   21.4220  -29.4570 N   0  0  0  0  0  0  0  0  0  0  0  0
   -3.8960   21.9370  -28.3500 N   0  0  0  0  0  0  0  0  0  0  0  0
   -4.0790   23.2700  -28.4970 C   0  0  0  0  0  0  0  0  0  0  0  0
   -4.5890   24.1540  -27.5100 N   0  0  0  0  0  0  0  0  0  0  0  0
   -3.6820   23.6270  -29.7730 C   0  0  0  0  0  0  0  0  0  0  0  0
   -3.6800   24.9030  -30.3960 N   0  0  0  0  0  0  0  0  0  0  0  0
   -4.6230   25.1110  -31.2130 N   0  0  0  0  0  0  0  0  0  0  0  0
   -5.5410   24.0390  -31.3830 C   0  0  0  0  0  0  0  0  0  0  0  0
   -5.4070   23.0760  -32.3680 C   0  0  0  0  0  0  0  0  0  0  0  0
   -6.3220   22.0450  -32.5100 C   0  0  0  0  0  0  0  0  0  0  0  0
   -7.4000   21.9370  -31.6770 C   0  0  0  0  0  0  0  0  0  0  0  0
   -8.5900   20.6590  -31.8040 S   0  0  0  0  0  0  0  0  0  0  0  0
   -8.6870   20.0480  -33.4100 N   0  0  0  0  0  0  0  0  0  0  0  0
   -9.9530   21.1820  -31.4540 O   0  0  0  0  0  0  0  0  0  0  0  0
   -8.2370   19.5280  -30.8900 O   0  0  0  0  0  0  0  0  0  0  0  0
   -7.5590   22.8770  -30.6920 C   0  0  0  0  0  0  0  0  0  0  0  0
   -6.6610   23.8870  -30.5540 C   0  0  0  0  0  0  0  0  0  0  0  0
   -2.7180   23.0590  -32.1560 H   0  0  0  0  0  0  0  0  0  0  0  0
   -3.1750   20.4010  -29.5960 H   0  0  0  0  0  0  0  0  0  0  0  0
   -4.1030   21.3680  -27.4990 H   0  0  0  0  0  0  0  0  0  0  0  0
   -4.9760   23.7600  -26.6200 H   0  0  0  0  0  0  0  0  0  0  0  0
   -4.5640   25.1950  -27.7020 H   0  0  0  0  0  0  0  0  0  0  0  0
   -4.5511   23.1305  -33.0568 H   0  0  0  0  0  0  0  0  0  0  0  0
   -6.1781   21.3006  -33.3070 H   0  0  0  0  0  0  0  0  0  0  0  0
   -7.7530   19.9930  -33.8650 H   0  0  0  0  0  0  0  0  0  0  0  0
   -9.2460   19.1790  -33.5040 H   0  0  0  0  0  0  0  0  0  0  0  0
   -8.4190   22.8131  -30.0091 H   0  0  0  0  0  0  0  0  0  0  0  0
   -6.8208   24.6223  -29.7516 H   0  0  0  0  0  0  0  0  0  0  0  0
  1  2  2  3
  2  3  1  0
  3  4  1  0
  4  5  1  0
  5  6  1  0
  5  7  2  0
  7  8  1  0
  8  9  2  0
  9 10  1  0
 10 11  2  0
 11 12  1  0
 12 13  2  0
 13 14  1  0
 14 15  1  0
 14 16  2  0
 14 17  2  0
 13 18  1  0
 18 19  2  0
  7  2  1  0
 19 10  1  0
  1 20  1  0
  3 21  1  0
  4 22  1  0
  6 23  1  0
  6 24  1  0
 11 25  1  0
 12 26  1  0
 15 27  1  0
 15 28  1  0
 18 29  1  0
 19 30  1  0
M  END
>  <smiles>  (48) 
N=c1[nH][nH]c(N)c1N=Nc1ccc(S(N)(=O)=O)cc1

>  <score_type>  (48) 
oracle

>  <origin>  (48) 
adgpu

>  <m_score__min__energy>  (48) 
-6.9299999999999997

>  <m_primary>  (48) 
energy

$$$$
48:0
     RDKit          3D

 58 60  0  0  0  0  0  0  0  0999 V2000
   -2.5520   15.7180  -34.2400 C   0  0  0  0  0  0  0  0  0  0  0  0
   -3.9840   16.1800  -34.1510 C   0  0  0  0  0  0  0  0  0  0  0  0
   -5.0030   15.2340  -33.9680 C   0  0  0  0  0  0  0  0  0  0  0  0
   -6.3340   15.6390  -33.8670 C   0  0  0  0  0  0  0  0  0  0  0  0
   -6.6590   16.9940  -33.9200 C   0  0  0  0  0  0  0  0  0  0  0  0
   -5.6580   17.9620  -34.0970 C   0  0  0  0  0  0  0  0  0  0  0  0
   -6.0550   19.4130  -34.0250 C   0  0  0  0  0  0  0  0  0  0  0  0
   -4.3140   17.5470  -34.2940 C   0  0  0  0  0  0  0  0  0  0  0  0
   -3.2610   18.4830  -34.5850 N   0  0  0  0  0  0  0  0  0  0  0  0
   -2.4440   19.1360  -33.6050 C   0  0  0  0  0  0  0  0  0  0  0  0
   -2.6590   20.3380  -33.2890 O   0  0  0  0  0  0  0  0  0  0  0  0
   -1.3350   18.3730  -32.9430 C   0  0  0  0  0  0  0  0  0  0  0  0
   -0.4060   19.2720  -32.2340 N   0  0  0  0  0  0  0  0  0  0  0  0
   -0.4940   19.1440  -30.7690 C   0  0  0  0  0  0  0  0  0  0  0  0
   -0.9940   20.4230  -30.1540 C   0  0  0  0  0  0  0  0  0  0  0  0
   -1.1110   20.5460  -28.7600 C   0  0  0  0  0  0  0  0  0  0  0  0
   -1.4480   21.7740  -28.1880 C   0  0  0  0  0  0  0  0  0  0  0  0
   -1.6670   22.8980  -28.9980 C   0  0  0  0  0  0  0  0  0  0  0  0
   -1.9580   24.2270  -28.3660 C   0  0  0  0  0  0  0  0  0  0  0  0
   -2.5800   25.1080  -29.3490 N   0  0  0  0  0  0  0  0  0  0  0  0
   -3.8580   24.8990  -29.9670 C   0  0  0  0  0  0  0  0  0  0  0  0
   -4.1960   25.6390  -30.9290 O   0  0  0  0  0  0  0  0  0  0  0  0
   -4.7910   23.9150  -29.4950 N   0  0  0  0  0  0  0  0  0  0  0  0
   -5.7350   23.1990  -30.3010 C   0  0  0  0  0  0  0  0  0  0  0  0
   -7.0380   23.0330  -29.8120 C   0  0  0  0  0  0  0  0  0  0  0  0
   -7.9810   22.3080  -30.5430 C   0  0  0  0  0  0  0  0  0  0  0  0
   -7.6370   21.7610  -31.7810 C   0  0  0  0  0  0  0  0  0  0  0  0
   -6.3490   21.9420  -32.2940 C   0  0  0  0  0  0  0  0  0  0  0  0
   -5.3930   22.6760  -31.5740 C   0  0  0  0  0  0  0  0  0  0  0  0
   -4.1010   22.8990  -32.1540 N   0  0  0  0  0  0  0  0  0  0  0  0
   -1.5990   22.7650  -30.3940 C   0  0  0  0  0  0  0  0  0  0  0  0
   -1.2640   21.5360  -30.9670 C   0  0  0  0  0  0  0  0  0  0  0  0
   -2.1454   15.5868  -33.2264 H   0  0  0  0  0  0  0  0  0  0  0  0
   -2.5086   14.7603  -34.7793 H   0  0  0  0  0  0  0  0  0  0  0  0
   -1.9570   16.4698  -34.7793 H   0  0  0  0  0  0  0  0  0  0  0  0
   -4.7509   14.1652  -33.9037 H   0  0  0  0  0  0  0  0  0  0  0  0
   -7.1286   14.8882  -33.7453 H   0  0  0  0  0  0  0  0  0  0  0  0
   -7.7090   17.3071  -33.8222 H   0  0  0  0  0  0  0  0  0  0  0  0
   -6.1386   19.7184  -32.9716 H   0  0  0  0  0  0  0  0  0  0  0  0
   -5.2919   20.0272  -34.5254 H   0  0  0  0  0  0  0  0  0  0  0  0
   -7.0245   19.5532  -34.5254 H   0  0  0  0  0  0  0  0  0  0  0  0
   -1.7695   17.6665  -32.2204 H   0  0  0  0  0  0  0  0  0  0  0  0
   -0.7707   17.8401  -33.7225 H   0  0  0  0  0  0  0  0  0  0  0  0
   -0.6850   20.2530  -32.4730 H   0  0  0  0  0  0  0  0  0  0  0  0
   -1.1872   18.3275  -30.5186 H   0  0  0  0  0  0  0  0  0  0  0  0
    0.5086   18.9279  -30.3714 H   0  0  0  0  0  0  0  0  0  0  0  0
   -0.9364   19.6713  -28.1163 H   0  0  0  0  0  0  0  0  0  0  0  0
   -1.5424   21.8607  -27.0955 H   0  0  0  0  0  0  0  0  0  0  0  0
   -2.6412   24.0866  -27.5154 H   0  0  0  0  0  0  0  0  0  0  0  0
   -1.0191   24.6779  -28.0121 H   0  0  0  0  0  0  0  0  0  0  0  0
   -7.3195   23.4769  -28.8457 H   0  0  0  0  0  0  0  0  0  0  0  0
   -8.9961   22.1675  -30.1433 H   0  0  0  0  0  0  0  0  0  0  0  0
   -8.3805   21.1869  -32.3534 H   0  0  0  0  0  0  0  0  0  0  0  0
   -6.0829   21.5063  -33.2684 H   0  0  0  0  0  0  0  0  0  0  0  0
   -3.6420   22.1910  -32.7660 H   0  0  0  0  0  0  0  0  0  0  0  0
   -3.5590   23.7650  -31.9300 H   0  0  0  0  0  0  0  0  0  0  0  0
   -1.8102   23.6312  -31.0384 H   0  0  0  0  0  0  0  0  0  0  0  0
   -1.2113   21.4393  -32.0615 H   0  0  0  0  0  0  0  0  0  0  0  0
  1  2  1  0
  2  3  2  0
  3  4  1  0
  4  5  2  0
  5  6  1  0
  6  7  1  0
  6  8  2  0
  8  9  1  0
  9 10  1  0
 10 11  2  0
 10 12  1  0
 12 13  1  0
 13 14  1  0
 14 15  1  0
 15 16  2  0
 16 17  1  0
 17 18  2  0
 18 19  1  0
 19 20  1  0
 20 21  1  0
 21 22  2  0
 21 23  1  0
 23 24  1  0
 24 25  2  0
 25 26  1  0
 26 27  2  0
 27 28  1  0
 28 29  2  0
 29 30  1  0
 18 31  1  0
 31 32  2  0
  8  2  1  0
 32 15  1  0
 29 24  1  0
  1 33  1  0
  1 34  1  0
  1 35  1  0
  3 36  1  0
  4 37  1  0
  5 38  1  0
  7 39  1  0
  7 40  1  0
  7 41  1  0
 12 42  1  0
 12 43  1  0
 13 44  1  0
 14 45  1  0
 14 46  1  0
 16 47  1  0
 17 48  1  0
 19 49  1  0
 19 50  1  0
 25 51  1  0
 26 52  1  0
 27 53  1  0
 28 54  1  0
 30 55  1  0
 30 56  1  0
 31 57  1  0
 32 58  1  0
M  CHG  3   9  -1  20  -1  23  -1
M  END
>  <UniqueID>  (49) 
47

>  <SMILES>  (49) 
Cc1cccc(C)c1[N-]C(=O)CNCc1ccc(C[N-]C(=O)[N-]c2ccccc2N)cc1

>  <Energy>  (49) 
69.04487385631732

>  <Genealogy>  (49) 
Cc1cccc(C)c1[N-]C(=O)CNCc1ccc(C[N-]C(=O)[N-]c2ccccc2N)cc1 (protonated)
Cc1cccc(C)c1[N-]C(=O)CNCc1ccc(C[N-]C(=O)[N-]c2ccccc2N)cc1 (3D coordinates assigned)
Cc1cccc(C)c1[N-]C(=O)CNCc1ccc(C[N-]C(=O)[N-]c2ccccc2N)cc1 (optimized conformer: 69.04487385631732 kcal/mol)

>  <smiles>  (49) 
Cc1cccc(C)c1NC(=O)CNCc1ccc(CNC(=O)Nc2ccccc2N)cc1

>  <score_type>  (49) 
oracle

>  <origin>  (49) 
adgpu

>  <m_score__min__energy>  (49) 
-12.31

>  <m_primary>  (49) 
energy

$$$$
