0:0
     RDKit          3D

 33 34  0  0  0  0  0  0  0  0999 V2000
   -3.3120   21.2300  -30.1470 C   0  0  0  0  0  0  0  0  0  0  0  0
   -4.3840   21.5960  -31.0770 N   0  0  0  0  0  0  0  0  0  0  0  0
   -5.5410   22.3460  -30.5720 C   0  0  0  0  0  0  0  0  0  0  0  0
   -5.2400   23.8110  -30.5540 C   0  0  0  0  0  0  0  0  0  0  0  0
   -6.1390   24.8240  -30.3050 C   0  0  0  0  0  0  0  0  0  0  0  0
   -5.3930   25.9710  -30.4660 C   0  0  0  0  0  0  0  0  0  0  0  0
   -4.1670   25.6290  -30.7900 O   0  0  0  0  0  0  0  0  0  0  0  0
   -4.0380   24.3360  -30.8590 N   0  0  0  0  0  0  0  0  0  0  0  0
   -4.2680   21.3230  -32.4920 C   0  0  0  0  0  0  0  0  0  0  0  0
   -4.1880   22.2810  -33.3090 O   0  0  0  0  0  0  0  0  0  0  0  0
   -4.3120   19.9210  -33.0460 C   0  0  0  0  0  0  0  0  0  0  0  0
   -5.5930   19.6790  -33.8560 C   0  0  0  0  0  0  0  0  0  0  0  0
   -6.8070   19.5760  -32.9680 C   0  0  0  0  0  0  0  0  0  0  0  0
   -7.1980   18.3370  -32.4400 C   0  0  0  0  0  0  0  0  0  0  0  0
   -8.3550   18.2550  -31.6590 C   0  0  0  0  0  0  0  0  0  0  0  0
   -9.0940   19.3700  -31.4170 N   0  0  0  0  0  0  0  0  0  0  0  0
   -8.7390   20.5830  -31.9190 C   0  0  0  0  0  0  0  0  0  0  0  0
   -7.5920   20.7080  -32.7070 C   0  0  0  0  0  0  0  0  0  0  0  0
   -3.6666   21.3511  -29.1128 H   0  0  0  0  0  0  0  0  0  0  0  0
   -3.0226   20.1821  -30.3151 H   0  0  0  0  0  0  0  0  0  0  0  0
   -2.4422   21.8821  -30.3151 H   0  0  0  0  0  0  0  0  0  0  0  0
   -6.4068   22.1611  -31.2249 H   0  0  0  0  0  0  0  0  0  0  0  0
   -5.7647   22.0133  -29.5477 H   0  0  0  0  0  0  0  0  0  0  0  0
   -7.2031   24.7376  -30.0398 H   0  0  0  0  0  0  0  0  0  0  0  0
   -5.7620   27.0000  -30.3438 H   0  0  0  0  0  0  0  0  0  0  0  0
   -3.4408   19.7669  -33.6996 H   0  0  0  0  0  0  0  0  0  0  0  0
   -4.2970   19.2149  -32.2027 H   0  0  0  0  0  0  0  0  0  0  0  0
   -5.7344   20.5152  -34.5565 H   0  0  0  0  0  0  0  0  0  0  0  0
   -5.4818   18.7262  -34.3943 H   0  0  0  0  0  0  0  0  0  0  0  0
   -6.5988   17.4362  -32.6388 H   0  0  0  0  0  0  0  0  0  0  0  0
   -8.6675   17.2871  -31.2400 H   0  0  0  0  0  0  0  0  0  0  0  0
   -9.3563   21.4678  -31.7042 H   0  0  0  0  0  0  0  0  0  0  0  0
   -7.3070   21.6871  -33.1195 H   0  0  0  0  0  0  0  0  0  0  0  0
  1  2  1  0
  2  3  1  0
  3  4  1  0
  4  5  1  0
  5  6  2  0
  6  7  1  0
  7  8  1  0
  2  9  1  0
  9 10  2  0
  9 11  1  0
 11 12  1  0
 12 13  1  0
 13 14  2  0
 14 15  1  0
 15 16  2  0
 16 17  1  0
 17 18  2  0
  8  4  2  0
 18 13  1  0
  1 19  1  0
  1 20  1  0
  1 21  1  0
  3 22  1  0
  3 23  1  0
  5 24  1  0
  6 25  1  0
 11 26  1  0
 11 27  1  0
 12 28  1  0
 12 29  1  0
 14 30  1  0
 15 31  1  0
 17 32  1  0
 18 33  1  0
M  END
>  <UniqueID>  (1) 
1

>  <SMILES>  (1) 
CN(Cc1ccon1)C(=O)CCc1ccncc1

>  <Energy>  (1) 
57.131870523892346

>  <Genealogy>  (1) 
CN(Cc1ccon1)C(=O)CCc1ccncc1 (3D coordinates assigned)
CN(Cc1ccon1)C(=O)CCc1ccncc1 (optimized conformer: 57.131870523892346 kcal/mol)

>  <smiles>  (1) 
CN(Cc1ccon1)C(=O)CCc1ccncc1

>  <score_type>  (1) 
oracle

>  <origin>  (1) 
adgpu

>  <m_score__min__energy>  (1) 
-7.9900000000000002

>  <m_primary>  (1) 
energy

$$$$
1:0
     RDKit          3D

 45 48  0  0  0  0  0  0  0  0999 V2000
    2.9890   22.8710  -36.8250 O   0  0  0  0  0  0  0  0  0  0  0  0
    2.0610   22.2520  -35.9970 C   0  0  0  0  0  0  0  0  0  0  0  0
    0.8000   22.8250  -35.8090 C   0  0  0  0  0  0  0  0  0  0  0  0
   -0.1350   22.2030  -34.9760 C   0  0  0  0  0  0  0  0  0  0  0  0
    0.1810   21.0000  -34.3210 C   0  0  0  0  0  0  0  0  0  0  0  0
   -0.7750   20.3460  -33.4580 N   0  0  0  0  0  0  0  0  0  0  0  0
   -0.6890   18.8960  -33.2070 C   0  0  0  0  0  0  0  0  0  0  0  0
   -1.9260   18.1780  -33.6920 C   0  0  0  0  0  0  0  0  0  0  0  0
   -1.8490   17.2690  -34.7630 C   0  0  0  0  0  0  0  0  0  0  0  0
   -2.9940   16.6020  -35.2080 C   0  0  0  0  0  0  0  0  0  0  0  0
   -4.2240   16.8280  -34.5850 C   0  0  0  0  0  0  0  0  0  0  0  0
   -4.3080   17.7140  -33.5080 C   0  0  0  0  0  0  0  0  0  0  0  0
   -3.1650   18.3830  -33.0590 C   0  0  0  0  0  0  0  0  0  0  0  0
   -1.7850   21.1480  -32.8140 C   0  0  0  0  0  0  0  0  0  0  0  0
   -1.6240   21.6180  -31.5040 C   0  0  0  0  0  0  0  0  0  0  0  0
   -2.6320   22.3860  -30.9260 C   0  0  0  0  0  0  0  0  0  0  0  0
   -3.7870   22.6750  -31.6640 C   0  0  0  0  0  0  0  0  0  0  0  0
   -4.8980   23.4710  -31.0910 C   0  0  0  0  0  0  0  0  0  0  0  0
   -6.2100   22.9710  -31.1670 C   0  0  0  0  0  0  0  0  0  0  0  0
   -7.2780   23.6960  -30.6310 C   0  0  0  0  0  0  0  0  0  0  0  0
   -7.0510   24.9310  -30.0240 C   0  0  0  0  0  0  0  0  0  0  0  0
   -5.7560   25.4490  -29.9580 C   0  0  0  0  0  0  0  0  0  0  0  0
   -4.6800   24.7340  -30.4950 C   0  0  0  0  0  0  0  0  0  0  0  0
   -3.4100   25.2990  -30.4560 O   0  0  0  0  0  0  0  0  0  0  0  0
   -3.9050   22.1670  -32.9200 N   0  0  0  0  0  0  0  0  0  0  0  0
   -2.9410   21.4320  -33.4750 N   0  0  0  0  0  0  0  0  0  0  0  0
    1.4520   20.4310  -34.5210 C   0  0  0  0  0  0  0  0  0  0  0  0
    2.3860   21.0540  -35.3530 C   0  0  0  0  0  0  0  0  0  0  0  0
    0.5430   23.7663  -36.3169 H   0  0  0  0  0  0  0  0  0  0  0  0
   -1.1258   22.6587  -34.8321 H   0  0  0  0  0  0  0  0  0  0  0  0
    0.1884   18.4931  -33.7341 H   0  0  0  0  0  0  0  0  0  0  0  0
   -0.5998   18.7373  -32.1222 H   0  0  0  0  0  0  0  0  0  0  0  0
   -0.8821   17.0821  -35.2531 H   0  0  0  0  0  0  0  0  0  0  0  0
   -2.9265   15.8978  -36.0503 H   0  0  0  0  0  0  0  0  0  0  0  0
   -5.1256   16.3088  -34.9422 H   0  0  0  0  0  0  0  0  0  0  0  0
   -5.2749   17.8856  -33.0124 H   0  0  0  0  0  0  0  0  0  0  0  0
   -3.2354   19.0736  -32.2057 H   0  0  0  0  0  0  0  0  0  0  0  0
   -0.7108   21.3829  -30.9377 H   0  0  0  0  0  0  0  0  0  0  0  0
   -2.5220   22.7625  -29.8983 H   0  0  0  0  0  0  0  0  0  0  0  0
   -6.3973   22.0017  -31.6521 H   0  0  0  0  0  0  0  0  0  0  0  0
   -8.2995   23.2918  -30.6880 H   0  0  0  0  0  0  0  0  0  0  0  0
   -7.8922   25.4970  -29.5972 H   0  0  0  0  0  0  0  0  0  0  0  0
   -5.5808   26.4247  -29.4811 H   0  0  0  0  0  0  0  0  0  0  0  0
    1.7127   19.4879  -34.0183 H   0  0  0  0  0  0  0  0  0  0  0  0
    3.3777   20.6017  -35.5015 H   0  0  0  0  0  0  0  0  0  0  0  0
  1  2  1  0
  2  3  2  0
  3  4  1  0
  4  5  2  0
  5  6  1  0
  6  7  1  0
  7  8  1  0
  8  9  2  0
  9 10  1  0
 10 11  2  0
 11 12  1  0
 12 13  2  0
  6 14  1  0
 14 15  2  0
 15 16  1  0
 16 17  2  0
 17 18  1  0
 18 19  2  0
 19 20  1  0
 20 21  2  0
 21 22  1  0
 22 23  2  0
 23 24  1  0
 17 25  1  0
 25 26  2  0
  5 27  1  0
 27 28  2  0
 28  2  1  0
 13  8  1  0
 26 14  1  0
 23 18  1  0
  3 29  1  0
  4 30  1  0
  7 31  1  0
  7 32  1  0
  9 33  1  0
 10 34  1  0
 11 35  1  0
 12 36  1  0
 13 37  1  0
 15 38  1  0
 16 39  1  0
 19 40  1  0
 20 41  1  0
 21 42  1  0
 22 43  1  0
 27 44  1  0
 28 45  1  0
M  CHG  2   1  -1  24  -1
M  END
>  <UniqueID>  (2) 
2

>  <SMILES>  (2) 
[O-]c1ccc(N(Cc2ccccc2)c2ccc(-c3ccccc3[O-])nn2)cc1

>  <Energy>  (2) 
65.64270974705882

>  <Genealogy>  (2) 
[O-]c1ccc(N(Cc2ccccc2)c2ccc(-c3ccccc3[O-])nn2)cc1 (protonated)
[O-]c1ccc(N(Cc2ccccc2)c2ccc(-c3ccccc3[O-])nn2)cc1 (3D coordinates assigned)
[O-]c1ccc(N(Cc2ccccc2)c2ccc(-c3ccccc3[O-])nn2)cc1 (optimized conformer: 65.64270974705882 kcal/mol)

>  <smiles>  (2) 
Oc1ccc(N(Cc2ccccc2)c2ccc(-c3ccccc3O)nn2)cc1

>  <score_type>  (2) 
oracle

>  <origin>  (2) 
adgpu

>  <m_score__min__energy>  (2) 
-12.19

>  <m_primary>  (2) 
energy

$$$$
2:0
     RDKit          3D

 40 41  0  0  1  0  0  0  0  0999 V2000
   -2.8920   20.6190  -27.5200 C   0  0  0  0  0  0  0  0  0  0  0  0
   -3.7760   21.7220  -27.4920 O   0  0  0  0  0  0  0  0  0  0  0  0
   -3.5940   22.7880  -28.3750 C   0  0  0  0  0  0  0  0  0  0  0  0
   -4.4850   23.0080  -29.4080 C   0  0  0  0  0  0  0  0  0  0  0  0
   -4.3110   24.0530  -30.2800 C   0  0  0  0  0  0  0  0  0  0  0  0
   -5.0930   24.3220  -31.2620 N   0  0  0  0  0  0  0  0  0  0  0  0
   -6.4590   23.3230  -31.5330 S   0  0  0  0  0  0  0  0  0  0  0  0
   -7.2420   23.9060  -32.6870 O   0  0  0  0  0  0  0  0  0  0  0  0
   -7.3780   23.2300  -30.3530 O   0  0  0  0  0  0  0  0  0  0  0  0
   -5.9060   21.7450  -32.0470 C   0  0  0  0  0  0  0  0  0  0  0  0
   -4.6180   21.5120  -32.4840 C   0  0  0  0  0  0  0  0  0  0  0  0
   -4.1800   20.2700  -32.8900 C   0  0  0  0  0  0  0  0  0  0  0  0
   -5.0260   19.1810  -32.8780 C   0  0  0  0  0  0  0  0  0  0  0  0
   -4.5200   17.9320  -33.3070 N   0  0  0  0  0  0  0  0  0  0  0  0
   -4.6840   17.3460  -34.5610 C   0  0  0  0  0  0  0  0  0  0  0  0
   -4.0760   15.9990  -34.8600 C   0  0  0  0  0  0  0  0  0  0  0  0
   -5.3230   17.8720  -35.4970 O   0  0  0  0  0  0  0  0  0  0  0  0
   -6.3110   19.4030  -32.4460 C   0  0  0  0  0  0  0  0  0  0  0  0
   -6.7590   20.6620  -32.0330 C   0  0  0  0  0  0  0  0  0  0  0  0
   -3.2430   24.8720  -30.1050 N   0  0  0  0  0  0  0  0  0  0  0  0
   -2.3580   24.6690  -29.0910 C   0  0  0  0  0  0  0  0  0  0  0  0
   -1.2910   25.5550  -28.9850 O   0  0  0  0  0  0  0  0  0  0  0  0
   -0.8090   25.8500  -27.6870 C   0  0  0  0  0  0  0  0  0  0  0  0
   -2.5350   23.6350  -28.2360 N   0  0  0  0  0  0  0  0  0  0  0  0
   -2.6499   20.3169  -26.4904 H   0  0  0  0  0  0  0  0  0  0  0  0
   -3.3700   19.7793  -28.0457 H   0  0  0  0  0  0  0  0  0  0  0  0
   -1.9683   20.9026  -28.0457 H   0  0  0  0  0  0  0  0  0  0  0  0
   -5.3464   22.3355  -29.5331 H   0  0  0  0  0  0  0  0  0  0  0  0
   -3.9104   22.3538  -32.5094 H   0  0  0  0  0  0  0  0  0  0  0  0
   -3.1408   20.1455  -33.2285 H   0  0  0  0  0  0  0  0  0  0  0  0
   -3.9500   17.3700  -32.6000 H   0  0  0  0  0  0  0  0  0  0  0  0
   -3.8435   15.4840  -33.9162 H   0  0  0  0  0  0  0  0  0  0  0  0
   -4.7891   15.3957  -35.4410 H   0  0  0  0  0  0  0  0  0  0  0  0
   -3.1518   16.1347  -35.4410 H   0  0  0  0  0  0  0  0  0  0  0  0
   -7.0148   18.5579  -32.4240 H   0  0  0  0  0  0  0  0  0  0  0  0
   -7.7981   20.7888  -31.6950 H   0  0  0  0  0  0  0  0  0  0  0  0
   -3.1000   25.6820  -30.7710 H   0  0  0  0  0  0  0  0  0  0  0  0
   -1.4952   25.4300  -26.9368 H   0  0  0  0  0  0  0  0  0  0  0  0
    0.1902   25.4085  -27.5578 H   0  0  0  0  0  0  0  0  0  0  0  0
   -0.7475   26.9407  -27.5578 H   0  0  0  0  0  0  0  0  0  0  0  0
  1  2  1  0
  2  3  1  0
  3  4  2  0
  4  5  1  0
  5  6  2  0
  6  7  1  0
  7  8  2  0
  7  9  2  0
  7 10  1  0
 10 11  2  0
 11 12  1  0
 12 13  2  0
 13 14  1  0
 14 15  1  0
 15 16  1  0
 15 17  2  0
 13 18  1  0
 18 19  2  0
  5 20  1  0
 20 21  1  0
 21 22  1  0
 22 23  1  0
 21 24  2  0
 24  3  1  0
 19 10  1  0
  1 25  1  0
  1 26  1  0
  1 27  1  0
  4 28  1  0
 11 29  1  0
 12 30  1  0
 14 31  1  0
 16 32  1  0
 16 33  1  0
 16 34  1  0
 18 35  1  0
 19 36  1  0
 20 37  1  0
 23 38  1  0
 23 39  1  0
 23 40  1  0
M  END
>  <smiles>  (3) 
COc1cc(=NS(=O)(=O)c2ccc(NC(C)=O)cc2)[nH]c(OC)n1

>  <score_type>  (3) 
oracle

>  <origin>  (3) 
adgpu

>  <m_score__min__energy>  (3) 
-7.9500000000000002

>  <m_primary>  (3) 
energy

$$$$
3:0
     RDKit          3D

 48 51  0  0  0  0  0  0  0  0999 V2000
   -5.6670   25.4120  -30.8550 C   0  0  0  0  0  0  0  0  0  0  0  0
   -5.4270   24.0910  -30.2760 N   0  0  0  0  0  0  0  0  0  0  0  0
   -4.9760   23.9690  -28.8880 C   0  0  0  0  0  0  0  0  0  0  0  0
   -3.6020   23.3570  -28.8540 C   0  0  0  0  0  0  0  0  0  0  0  0
   -2.4920   24.0770  -29.3290 C   0  0  0  0  0  0  0  0  0  0  0  0
   -1.2290   23.4810  -29.3610 C   0  0  0  0  0  0  0  0  0  0  0  0
   -1.0660   22.1610  -28.9300 C   0  0  0  0  0  0  0  0  0  0  0  0
   -2.1680   21.4340  -28.4700 C   0  0  0  0  0  0  0  0  0  0  0  0
   -3.4330   22.0270  -28.4370 C   0  0  0  0  0  0  0  0  0  0  0  0
   -5.4480   22.9260  -31.1140 C   0  0  0  0  0  0  0  0  0  0  0  0
   -4.2770   22.4450  -31.6070 N   0  0  0  0  0  0  0  0  0  0  0  0
   -4.2280   21.3330  -32.3910 C   0  0  0  0  0  0  0  0  0  0  0  0
   -2.9630   20.8610  -32.8980 N   0  0  0  0  0  0  0  0  0  0  0  0
   -2.9420   19.7000  -33.7970 C   0  0  0  0  0  0  0  0  0  0  0  0
   -1.5100   19.3580  -34.2210 C   0  0  0  0  0  0  0  0  0  0  0  0
   -0.7970   20.5760  -34.6210 N   0  0  0  0  0  0  0  0  0  0  0  0
   -0.6450   21.5420  -33.5140 C   0  0  0  0  0  0  0  0  0  0  0  0
   -1.6930   21.3990  -32.3880 C   0  0  0  0  0  0  0  0  0  0  0  0
   -5.3810   20.6760  -32.6890 N   0  0  0  0  0  0  0  0  0  0  0  0
   -6.5810   21.1010  -32.2150 C   0  0  0  0  0  0  0  0  0  0  0  0
   -7.7470   20.3910  -32.5250 C   0  0  0  0  0  0  0  0  0  0  0  0
   -8.9780   20.8140  -32.0170 C   0  0  0  0  0  0  0  0  0  0  0  0
   -9.0510   21.9430  -31.1970 C   0  0  0  0  0  0  0  0  0  0  0  0
   -7.8920   22.6610  -30.8850 C   0  0  0  0  0  0  0  0  0  0  0  0
   -6.6490   22.2510  -31.3990 C   0  0  0  0  0  0  0  0  0  0  0  0
   -5.8006   26.1473  -30.0479 H   0  0  0  0  0  0  0  0  0  0  0  0
   -4.8068   25.7018  -31.4764 H   0  0  0  0  0  0  0  0  0  0  0  0
   -6.5742   25.3807  -31.4764 H   0  0  0  0  0  0  0  0  0  0  0  0
   -4.9438   24.9662  -28.4249 H   0  0  0  0  0  0  0  0  0  0  0  0
   -5.6751   23.3266  -28.3326 H   0  0  0  0  0  0  0  0  0  0  0  0
   -2.6184   25.1130  -29.6766 H   0  0  0  0  0  0  0  0  0  0  0  0
   -0.3617   24.0509  -29.7257 H   0  0  0  0  0  0  0  0  0  0  0  0
   -0.0702   21.6942  -28.9528 H   0  0  0  0  0  0  0  0  0  0  0  0
   -2.0393   20.3946  -28.1338 H   0  0  0  0  0  0  0  0  0  0  0  0
   -4.2997   21.4495  -28.0829 H   0  0  0  0  0  0  0  0  0  0  0  0
   -3.3793   18.8348  -33.2771 H   0  0  0  0  0  0  0  0  0  0  0  0
   -3.5246   19.9442  -34.6975 H   0  0  0  0  0  0  0  0  0  0  0  0
   -0.9831   18.8888  -33.3770 H   0  0  0  0  0  0  0  0  0  0  0  0
   -1.5436   18.6645  -35.0742 H   0  0  0  0  0  0  0  0  0  0  0  0
   -1.3310   21.0320  -35.3990 H   0  0  0  0  0  0  0  0  0  0  0  0
    0.3534   21.4045  -33.0731 H   0  0  0  0  0  0  0  0  0  0  0  0
   -0.7899   22.5415  -33.9500 H   0  0  0  0  0  0  0  0  0  0  0  0
   -1.3000   20.7183  -31.6184 H   0  0  0  0  0  0  0  0  0  0  0  0
   -1.8855   22.3970  -31.9673 H   0  0  0  0  0  0  0  0  0  0  0  0
   -7.6941   19.5003  -33.1684 H   0  0  0  0  0  0  0  0  0  0  0  0
   -9.8933   20.2560  -32.2636 H   0  0  0  0  0  0  0  0  0  0  0  0
  -10.0224   22.2679  -30.7959 H   0  0  0  0  0  0  0  0  0  0  0  0
   -7.9529   23.5476  -30.2367 H   0  0  0  0  0  0  0  0  0  0  0  0
  1  2  1  0
  2  3  1  0
  3  4  1  0
  4  5  2  0
  5  6  1  0
  6  7  2  0
  7  8  1  0
  8  9  2  0
  2 10  1  0
 10 11  2  0
 11 12  1  0
 12 13  1  0
 13 14  1  0
 14 15  1  0
 15 16  1  0
 16 17  1  0
 17 18  1  0
 12 19  2  0
 19 20  1  0
 20 21  2  0
 21 22  1  0
 22 23  2  0
 23 24  1  0
 24 25  2  0
  9  4  1  0
 25 10  1  0
 18 13  1  0
 25 20  1  0
  1 26  1  0
  1 27  1  0
  1 28  1  0
  3 29  1  0
  3 30  1  0
  5 31  1  0
  6 32  1  0
  7 33  1  0
  8 34  1  0
  9 35  1  0
 14 36  1  0
 14 37  1  0
 15 38  1  0
 15 39  1  0
 16 40  1  0
 17 41  1  0
 17 42  1  0
 18 43  1  0
 18 44  1  0
 21 45  1  0
 22 46  1  0
 23 47  1  0
 24 48  1  0
M  END
>  <UniqueID>  (4) 
3

>  <SMILES>  (4) 
CN(Cc1ccccc1)c1nc(N2CCNCC2)nc2ccccc12

>  <Energy>  (4) 
60.99470878972816

>  <Genealogy>  (4) 
CN(Cc1ccccc1)c1nc(N2CCNCC2)nc2ccccc12 (3D coordinates assigned)
CN(Cc1ccccc1)c1nc(N2CCNCC2)nc2ccccc12 (nonaromatic ring conformer: 60.99470878972816 kcal/mol)

>  <smiles>  (4) 
CN(Cc1ccccc1)c1nc(N2CCNCC2)nc2ccccc12

>  <score_type>  (4) 
oracle

>  <origin>  (4) 
adgpu

>  <m_score__min__energy>  (4) 
-8.8599999999999994

>  <m_primary>  (4) 
energy

$$$$
4:0
     RDKit          3D

 41 43  0  0  0  0  0  0  0  0999 V2000
   -1.2350   26.3680  -28.9720 N   0  0  0  0  0  0  0  0  0  0  0  0
   -0.5460   25.5000  -27.6440 S   0  0  0  0  0  0  0  0  0  0  0  0
   -0.8610   26.2420  -26.3760 O   0  0  0  0  0  0  0  0  0  0  0  0
    0.9430   25.4270  -27.8300 O   0  0  0  0  0  0  0  0  0  0  0  0
   -1.2080   23.8610  -27.5570 C   0  0  0  0  0  0  0  0  0  0  0  0
   -0.8230   23.0250  -26.4960 C   0  0  0  0  0  0  0  0  0  0  0  0
   -1.2920   21.7130  -26.4190 C   0  0  0  0  0  0  0  0  0  0  0  0
   -2.1570   21.2220  -27.3950 C   0  0  0  0  0  0  0  0  0  0  0  0
   -2.5600   22.0430  -28.4500 C   0  0  0  0  0  0  0  0  0  0  0  0
   -2.0950   23.3670  -28.5460 C   0  0  0  0  0  0  0  0  0  0  0  0
   -2.5340   24.2050  -29.6290 N   0  0  0  0  0  0  0  0  0  0  0  0
   -4.2020   24.3290  -30.0900 S   0  0  0  0  0  0  0  0  0  0  0  0
   -5.0400   24.5390  -28.8590 O   0  0  0  0  0  0  0  0  0  0  0  0
   -4.3790   25.5030  -31.0110 O   0  0  0  0  0  0  0  0  0  0  0  0
   -4.6910   22.8670  -30.9390 C   0  0  0  0  0  0  0  0  0  0  0  0
   -6.0140   22.4140  -30.8820 C   0  0  0  0  0  0  0  0  0  0  0  0
   -6.3830   21.2340  -31.5350 C   0  0  0  0  0  0  0  0  0  0  0  0
   -5.4330   20.4890  -32.2570 C   0  0  0  0  0  0  0  0  0  0  0  0
   -5.8210   19.2330  -32.9470 C   0  0  0  0  0  0  0  0  0  0  0  0
   -5.2880   18.9150  -34.2110 C   0  0  0  0  0  0  0  0  0  0  0  0
   -5.6570   17.7320  -34.8570 C   0  0  0  0  0  0  0  0  0  0  0  0
   -6.5570   16.8530  -34.2510 C   0  0  0  0  0  0  0  0  0  0  0  0
   -7.0920   17.1560  -32.9980 C   0  0  0  0  0  0  0  0  0  0  0  0
   -6.7290   18.3390  -32.3470 C   0  0  0  0  0  0  0  0  0  0  0  0
   -4.1060   20.9540  -32.3120 C   0  0  0  0  0  0  0  0  0  0  0  0
   -3.7400   22.1340  -31.6580 C   0  0  0  0  0  0  0  0  0  0  0  0
   -1.1200   25.7710  -29.8210 H   0  0  0  0  0  0  0  0  0  0  0  0
   -0.1455   23.4080  -25.7186 H   0  0  0  0  0  0  0  0  0  0  0  0
   -0.9785   21.0655  -25.5868 H   0  0  0  0  0  0  0  0  0  0  0  0
   -2.5227   20.1864  -27.3342 H   0  0  0  0  0  0  0  0  0  0  0  0
   -3.2478   21.6506  -29.2135 H   0  0  0  0  0  0  0  0  0  0  0  0
   -1.8360   24.6870  -30.2370 H   0  0  0  0  0  0  0  0  0  0  0  0
   -6.7662   22.9884  -30.3214 H   0  0  0  0  0  0  0  0  0  0  0  0
   -7.4250   20.8853  -31.4837 H   0  0  0  0  0  0  0  0  0  0  0  0
   -4.5768   19.6020  -34.6929 H   0  0  0  0  0  0  0  0  0  0  0  0
   -5.2374   17.4927  -35.8453 H   0  0  0  0  0  0  0  0  0  0  0  0
   -6.8443   15.9218  -34.7611 H   0  0  0  0  0  0  0  0  0  0  0  0
   -7.8007   16.4626  -32.5216 H   0  0  0  0  0  0  0  0  0  0  0  0
   -7.1552   18.5729  -31.3602 H   0  0  0  0  0  0  0  0  0  0  0  0
   -3.3510   20.3846  -32.8739 H   0  0  0  0  0  0  0  0  0  0  0  0
   -2.6998   22.4880  -31.7087 H   0  0  0  0  0  0  0  0  0  0  0  0
  1  2  1  0
  2  3  2  0
  2  4  2  0
  2  5  1  0
  5  6  2  0
  6  7  1  0
  7  8  2  0
  8  9  1  0
  9 10  2  0
 10 11  1  0
 11 12  1  0
 12 13  2  0
 12 14  2  0
 12 15  1  0
 15 16  2  0
 16 17  1  0
 17 18  2  0
 18 19  1  0
 19 20  2  0
 20 21  1  0
 21 22  2  0
 22 23  1  0
 23 24  2  0
 18 25  1  0
 25 26  2  0
 10  5  1  0
 26 15  1  0
 24 19  1  0
  1 27  1  0
  6 28  1  0
  7 29  1  0
  8 30  1  0
  9 31  1  0
 11 32  1  0
 16 33  1  0
 17 34  1  0
 20 35  1  0
 21 36  1  0
 22 37  1  0
 23 38  1  0
 24 39  1  0
 25 40  1  0
 26 41  1  0
M  CHG  1   1  -1
M  END
>  <UniqueID>  (5) 
4

>  <SMILES>  (5) 
[NH-]S(=O)(=O)c1ccccc1NS(=O)(=O)c1ccc(-c2ccccc2)cc1

>  <Energy>  (5) 
53.638769837595696

>  <Genealogy>  (5) 
[NH-]S(=O)(=O)c1ccccc1NS(=O)(=O)c1ccc(-c2ccccc2)cc1 (protonated)
[NH-]S(=O)(=O)c1ccccc1NS(=O)(=O)c1ccc(-c2ccccc2)cc1 (3D coordinates assigned)
[NH-]S(=O)(=O)c1ccccc1NS(=O)(=O)c1ccc(-c2ccccc2)cc1 (optimized conformer: 53.638769837595696 kcal/mol)

>  <smiles>  (5) 
NS(=O)(=O)c1ccccc1NS(=O)(=O)c1ccc(-c2ccccc2)cc1

>  <score_type>  (5) 
oracle

>  <origin>  (5) 
adgpu

>  <m_score__min__energy>  (5) 
-12.710000000000001

>  <m_primary>  (5) 
energy

$$$$
5:0
     RDKit          3D

 46 49  0  0  0  0  0  0  0  0999 V2000
   -3.5500   16.7850  -35.3770 C   0  0  0  0  0  0  0  0  0  0  0  0
   -4.8040   17.4360  -35.5530 O   0  0  0  0  0  0  0  0  0  0  0  0
   -5.5810   17.9600  -34.5080 C   0  0  0  0  0  0  0  0  0  0  0  0
   -5.5510   19.3250  -34.1640 C   0  0  0  0  0  0  0  0  0  0  0  0
   -6.3350   19.8070  -33.1110 C   0  0  0  0  0  0  0  0  0  0  0  0
   -7.1480   18.9290  -32.3750 C   0  0  0  0  0  0  0  0  0  0  0  0
   -7.9570   19.3910  -31.2830 N   0  0  0  0  0  0  0  0  0  0  0  0
   -8.3400   20.7500  -31.0280 C   0  0  0  0  0  0  0  0  0  0  0  0
   -9.4550   20.9690  -30.4840 O   0  0  0  0  0  0  0  0  0  0  0  0
   -7.4470   21.8920  -31.3380 C   0  0  0  0  0  0  0  0  0  0  0  0
   -7.8180   22.8320  -32.3150 C   0  0  0  0  0  0  0  0  0  0  0  0
   -6.9730   23.8990  -32.6250 C   0  0  0  0  0  0  0  0  0  0  0  0
   -5.7520   24.0450  -31.9610 C   0  0  0  0  0  0  0  0  0  0  0  0
   -5.3710   23.1280  -30.9700 C   0  0  0  0  0  0  0  0  0  0  0  0
   -4.1120   23.2720  -30.2890 N   0  0  0  0  0  0  0  0  0  0  0  0
   -3.3590   22.2850  -29.7510 C   0  0  0  0  0  0  0  0  0  0  0  0
   -3.7210   20.9420  -29.7270 O   0  0  0  0  0  0  0  0  0  0  0  0
   -2.2050   22.8040  -29.2000 C   0  0  0  0  0  0  0  0  0  0  0  0
   -2.2610   24.1660  -29.3820 C   0  0  0  0  0  0  0  0  0  0  0  0
   -3.4370   24.4220  -30.0590 C   0  0  0  0  0  0  0  0  0  0  0  0
   -3.8640   25.6800  -30.4690 O   0  0  0  0  0  0  0  0  0  0  0  0
   -1.2280   25.1340  -28.8920 C   0  0  0  0  0  0  0  0  0  0  0  0
   -0.0750   24.4080  -28.2290 C   0  0  0  0  0  0  0  0  0  0  0  0
    0.7120   25.0410  -27.5420 O   0  0  0  0  0  0  0  0  0  0  0  0
    0.1690   22.9300  -28.4720 C   0  0  0  0  0  0  0  0  0  0  0  0
   -1.1340   22.1140  -28.4150 C   0  0  0  0  0  0  0  0  0  0  0  0
   -6.2300   22.0620  -30.6550 C   0  0  0  0  0  0  0  0  0  0  0  0
   -7.2000   17.5790  -32.7330 C   0  0  0  0  0  0  0  0  0  0  0  0
   -6.4170   17.0920  -33.7870 C   0  0  0  0  0  0  0  0  0  0  0  0
   -6.4910   15.3840  -34.1920 Cl  0  0  0  0  0  0  0  0  0  0  0  0
   -3.3409   16.6764  -34.3025 H   0  0  0  0  0  0  0  0  0  0  0  0
   -3.5840   15.7907  -35.8462 H   0  0  0  0  0  0  0  0  0  0  0  0
   -2.7564   17.3849  -35.8462 H   0  0  0  0  0  0  0  0  0  0  0  0
   -4.9069   20.0165  -34.7270 H   0  0  0  0  0  0  0  0  0  0  0  0
   -6.3150   20.8774  -32.8582 H   0  0  0  0  0  0  0  0  0  0  0  0
   -8.7797   22.7262  -32.8383 H   0  0  0  0  0  0  0  0  0  0  0  0
   -7.2692   24.6272  -33.3944 H   0  0  0  0  0  0  0  0  0  0  0  0
   -5.0866   24.8828  -32.2166 H   0  0  0  0  0  0  0  0  0  0  0  0
   -0.8453   25.7140  -29.7447 H   0  0  0  0  0  0  0  0  0  0  0  0
   -1.6950   25.8001  -28.1516 H   0  0  0  0  0  0  0  0  0  0  0  0
    0.6240   22.8038  -29.4655 H   0  0  0  0  0  0  0  0  0  0  0  0
    0.8362   22.5608  -27.6792 H   0  0  0  0  0  0  0  0  0  0  0  0
   -0.9571   21.1150  -28.8401 H   0  0  0  0  0  0  0  0  0  0  0  0
   -1.4567   22.0219  -27.3675 H   0  0  0  0  0  0  0  0  0  0  0  0
   -5.9469   21.3516  -29.8643 H   0  0  0  0  0  0  0  0  0  0  0  0
   -7.8612   16.8936  -32.1825 H   0  0  0  0  0  0  0  0  0  0  0  0
  1  2  1  0
  2  3  1  0
  3  4  2  0
  4  5  1  0
  5  6  2  0
  6  7  1  0
  7  8  1  0
  8  9  2  0
  8 10  1  0
 10 11  2  0
 11 12  1  0
 12 13  2  0
 13 14  1  0
 14 15  1  0
 15 16  1  0
 16 17  1  0
 16 18  2  0
 18 19  1  0
 19 20  2  0
 20 21  1  0
 19 22  1  0
 22 23  1  0
 23 24  2  0
 23 25  1  0
 25 26  1  0
 14 27  2  0
  6 28  1  0
 28 29  2  0
 29 30  1  0
 29  3  1  0
 27 10  1  0
 20 15  1  0
 26 18  1  0
  1 31  1  0
  1 32  1  0
  1 33  1  0
  4 34  1  0
  5 35  1  0
 11 36  1  0
 12 37  1  0
 13 38  1  0
 22 39  1  0
 22 40  1  0
 25 41  1  0
 25 42  1  0
 26 43  1  0
 26 44  1  0
 27 45  1  0
 28 46  1  0
M  CHG  3   7  -1  17  -1  21  -1
M  END
>  <UniqueID>  (6) 
5

>  <SMILES>  (6) 
COc1ccc([N-]C(=O)c2cccc(-n3c([O-])c4c(c3[O-])CC(=O)CC4)c2)cc1Cl

>  <Energy>  (6) 
91.80481515694048

>  <Genealogy>  (6) 
COc1ccc([N-]C(=O)c2cccc(-n3c([O-])c4c(c3[O-])CC(=O)CC4)c2)cc1Cl (protonated)
COc1ccc([N-]C(=O)c2cccc(-n3c([O-])c4c(c3[O-])CC(=O)CC4)c2)cc1Cl (3D coordinates assigned)
COc1ccc([N-]C(=O)c2cccc(-n3c([O-])c4c(c3[O-])CC(=O)CC4)c2)cc1Cl (nonaromatic ring conformer: 91.80481515694048 kcal/mol)

>  <smiles>  (6) 
COc1ccc(NC(=O)c2cccc(-n3c(O)c4c(c3O)CC(=O)CC4)c2)cc1Cl

>  <score_type>  (6) 
oracle

>  <origin>  (6) 
adgpu

>  <m_score__min__energy>  (6) 
-11.630000000000001

>  <m_primary>  (6) 
energy

$$$$
6:0
     RDKit          3D

 43 45  0  0  0  0  0  0  0  0999 V2000
   -5.0350   16.0730  -32.3440 C   0  0  0  0  0  0  0  0  0  0  0  0
   -5.8720   17.3050  -32.5140 C   0  0  0  0  0  0  0  0  0  0  0  0
   -5.6540   18.1690  -33.5970 C   0  0  0  0  0  0  0  0  0  0  0  0
   -6.4090   19.3370  -33.7300 C   0  0  0  0  0  0  0  0  0  0  0  0
   -7.3770   19.6710  -32.7740 C   0  0  0  0  0  0  0  0  0  0  0  0
   -8.1030   20.8990  -32.9260 N   0  0  0  0  0  0  0  0  0  0  0  0
   -8.4990   21.9800  -31.6290 S   0  0  0  0  0  0  0  0  0  0  0  0
   -9.4870   23.0000  -32.1170 O   0  0  0  0  0  0  0  0  0  0  0  0
   -9.1190   21.2020  -30.5010 O   0  0  0  0  0  0  0  0  0  0  0  0
   -7.0390   22.8100  -31.1010 C   0  0  0  0  0  0  0  0  0  0  0  0
   -7.1000   24.1670  -30.7560 C   0  0  0  0  0  0  0  0  0  0  0  0
   -5.9300   24.8660  -30.4440 C   0  0  0  0  0  0  0  0  0  0  0  0
   -4.6870   24.2250  -30.4960 C   0  0  0  0  0  0  0  0  0  0  0  0
   -3.5010   24.9960  -30.2710 N   0  0  0  0  0  0  0  0  0  0  0  0
   -2.4020   24.7250  -28.9560 S   0  0  0  0  0  0  0  0  0  0  0  0
   -3.1370   24.9050  -27.6580 O   0  0  0  0  0  0  0  0  0  0  0  0
   -1.2790   25.7190  -29.0330 O   0  0  0  0  0  0  0  0  0  0  0  0
   -1.7340   23.0990  -29.0710 C   0  0  0  0  0  0  0  0  0  0  0  0
   -1.3840   22.5600  -30.3170 C   0  0  0  0  0  0  0  0  0  0  0  0
   -0.8260   21.2790  -30.3990 C   0  0  0  0  0  0  0  0  0  0  0  0
   -0.6170   20.5300  -29.2350 C   0  0  0  0  0  0  0  0  0  0  0  0
   -0.9720   21.0600  -27.9920 C   0  0  0  0  0  0  0  0  0  0  0  0
   -1.5330   22.3390  -27.9080 C   0  0  0  0  0  0  0  0  0  0  0  0
   -4.6320   22.8540  -30.8050 C   0  0  0  0  0  0  0  0  0  0  0  0
   -5.8030   22.1510  -31.0990 C   0  0  0  0  0  0  0  0  0  0  0  0
   -7.6040   18.7990  -31.6950 C   0  0  0  0  0  0  0  0  0  0  0  0
   -6.8470   17.6330  -31.5590 C   0  0  0  0  0  0  0  0  0  0  0  0
   -4.8964   15.8689  -31.2720 H   0  0  0  0  0  0  0  0  0  0  0  0
   -5.5401   15.2183  -32.8176 H   0  0  0  0  0  0  0  0  0  0  0  0
   -4.0543   16.2277  -32.8176 H   0  0  0  0  0  0  0  0  0  0  0  0
   -4.8851   17.9260  -34.3451 H   0  0  0  0  0  0  0  0  0  0  0  0
   -6.2421   19.9995  -34.5921 H   0  0  0  0  0  0  0  0  0  0  0  0
   -8.0709   24.6835  -30.7306 H   0  0  0  0  0  0  0  0  0  0  0  0
   -5.9868   25.9261  -30.1559 H   0  0  0  0  0  0  0  0  0  0  0  0
   -1.5485   23.1459  -31.2333 H   0  0  0  0  0  0  0  0  0  0  0  0
   -0.5516   20.8606  -31.3786 H   0  0  0  0  0  0  0  0  0  0  0  0
   -0.1738   19.5253  -29.2989 H   0  0  0  0  0  0  0  0  0  0  0  0
   -0.8101   20.4705  -27.0775 H   0  0  0  0  0  0  0  0  0  0  0  0
   -1.8173   22.7501  -26.9281 H   0  0  0  0  0  0  0  0  0  0  0  0
   -3.6632   22.3332  -30.8152 H   0  0  0  0  0  0  0  0  0  0  0  0
   -5.7542   21.0766  -31.3296 H   0  0  0  0  0  0  0  0  0  0  0  0
   -8.3817   19.0361  -30.9541 H   0  0  0  0  0  0  0  0  0  0  0  0
   -7.0158   16.9683  -30.6990 H   0  0  0  0  0  0  0  0  0  0  0  0
  1  2  1  0
  2  3  2  0
  3  4  1  0
  4  5  2  0
  5  6  1  0
  6  7  1  0
  7  8  2  0
  7  9  2  0
  7 10  1  0
 10 11  2  0
 11 12  1  0
 12 13  2  0
 13 14  1  0
 14 15  1  0
 15 16  2  0
 15 17  2  0
 15 18  1  0
 18 19  2  0
 19 20  1  0
 20 21  2  0
 21 22  1  0
 22 23  2  0
 13 24  1  0
 24 25  2  0
  5 26  1  0
 26 27  2  0
 27  2  1  0
 25 10  1  0
 23 18  1  0
  1 28  1  0
  1 29  1  0
  1 30  1  0
  3 31  1  0
  4 32  1  0
 11 33  1  0
 12 34  1  0
 19 35  1  0
 20 36  1  0
 21 37  1  0
 22 38  1  0
 23 39  1  0
 24 40  1  0
 25 41  1  0
 26 42  1  0
 27 43  1  0
M  CHG  2   6  -1  14  -1
M  END
>  <UniqueID>  (7) 
6

>  <SMILES>  (7) 
Cc1ccc([N-]S(=O)(=O)c2ccc([N-]S(=O)(=O)c3ccccc3)cc2)cc1

>  <Energy>  (7) 
50.00605982710104

>  <Genealogy>  (7) 
Cc1ccc([N-]S(=O)(=O)c2ccc([N-]S(=O)(=O)c3ccccc3)cc2)cc1 (protonated)
Cc1ccc([N-]S(=O)(=O)c2ccc([N-]S(=O)(=O)c3ccccc3)cc2)cc1 (3D coordinates assigned)
Cc1ccc([N-]S(=O)(=O)c2ccc([N-]S(=O)(=O)c3ccccc3)cc2)cc1 (optimized conformer: 50.00605982710104 kcal/mol)

>  <smiles>  (7) 
Cc1ccc(NS(=O)(=O)c2ccc(NS(=O)(=O)c3ccccc3)cc2)cc1

>  <score_type>  (7) 
oracle

>  <origin>  (7) 
adgpu

>  <m_score__min__energy>  (7) 
-10.970000000000001

>  <m_primary>  (7) 
energy

$$$$
7:0
     RDKit          3D

 39 41  0  0  0  0  0  0  0  0999 V2000
   -5.1800   24.3150  -31.4740 O   0  0  0  0  0  0  0  0  0  0  0  0
   -5.5560   23.2130  -30.9900 C   0  0  0  0  0  0  0  0  0  0  0  0
   -4.6960   22.4840  -30.0980 N   0  0  0  0  0  0  0  0  0  0  0  0
   -3.5720   23.0660  -29.4150 C   0  0  0  0  0  0  0  0  0  0  0  0
   -2.3090   23.0420  -30.0250 C   0  0  0  0  0  0  0  0  0  0  0  0
   -1.1950   23.5800  -29.3730 C   0  0  0  0  0  0  0  0  0  0  0  0
   -1.3310   24.1440  -28.0970 C   0  0  0  0  0  0  0  0  0  0  0  0
    0.0700   24.8000  -27.2540 S   0  0  0  0  0  0  0  0  0  0  0  0
    1.2290   24.9240  -28.2040 O   0  0  0  0  0  0  0  0  0  0  0  0
   -0.2750   26.1690  -26.7370 O   0  0  0  0  0  0  0  0  0  0  0  0
    0.5020   23.7600  -25.9180 N   0  0  0  0  0  0  0  0  0  0  0  0
   -0.3270   24.0840  -24.7400 C   0  0  0  0  0  0  0  0  0  0  0  0
   -0.3530   22.9040  -23.7540 C   0  0  0  0  0  0  0  0  0  0  0  0
   -0.8790   21.7000  -24.3010 O   0  0  0  0  0  0  0  0  0  0  0  0
   -0.8220   21.6410  -25.7190 C   0  0  0  0  0  0  0  0  0  0  0  0
    0.4220   22.3330  -26.3050 C   0  0  0  0  0  0  0  0  0  0  0  0
   -2.5840   24.1450  -27.4710 C   0  0  0  0  0  0  0  0  0  0  0  0
   -3.6980   23.6080  -28.1230 C   0  0  0  0  0  0  0  0  0  0  0  0
   -6.8650   22.6730  -31.3910 C   0  0  0  0  0  0  0  0  0  0  0  0
   -8.0240   23.3950  -31.6150 C   0  0  0  0  0  0  0  0  0  0  0  0
   -8.9800   22.4680  -31.9730 C   0  0  0  0  0  0  0  0  0  0  0  0
   -8.3440   21.2450  -31.9470 C   0  0  0  0  0  0  0  0  0  0  0  0
   -9.1500   19.5660  -32.3550 Br  0  0  0  0  0  0  0  0  0  0  0  0
   -7.0880   21.3950  -31.5990 O   0  0  0  0  0  0  0  0  0  0  0  0
   -4.8330   21.4520  -30.0150 H   0  0  0  0  0  0  0  0  0  0  0  0
   -2.1940   22.5964  -31.0241 H   0  0  0  0  0  0  0  0  0  0  0  0
   -0.2101   23.5606  -29.8624 H   0  0  0  0  0  0  0  0  0  0  0  0
    0.0916   24.9673  -24.2355 H   0  0  0  0  0  0  0  0  0  0  0  0
   -1.3546   24.2881  -25.0753 H   0  0  0  0  0  0  0  0  0  0  0  0
    0.6770   22.7104  -23.4200 H   0  0  0  0  0  0  0  0  0  0  0  0
   -1.0200   23.1951  -22.9291 H   0  0  0  0  0  0  0  0  0  0  0  0
   -0.8110   20.5844  -26.0248 H   0  0  0  0  0  0  0  0  0  0  0  0
   -1.7042   22.1734  -26.1041 H   0  0  0  0  0  0  0  0  0  0  0  0
    1.3209   21.8156  -25.9386 H   0  0  0  0  0  0  0  0  0  0  0  0
    0.3510   22.2837  -27.4016 H   0  0  0  0  0  0  0  0  0  0  0  0
   -2.6919   24.5701  -26.4622 H   0  0  0  0  0  0  0  0  0  0  0  0
   -4.6779   23.6093  -27.6232 H   0  0  0  0  0  0  0  0  0  0  0  0
   -8.1555   24.4835  -31.5259 H   0  0  0  0  0  0  0  0  0  0  0  0
  -10.0323   22.6637  -32.2268 H   0  0  0  0  0  0  0  0  0  0  0  0
  1  2  2  0
  2  3  1  0
  3  4  1  0
  4  5  2  0
  5  6  1  0
  6  7  2  0
  7  8  1  0
  8  9  2  0
  8 10  2  0
  8 11  1  0
 11 12  1  0
 12 13  1  0
 13 14  1  0
 14 15  1  0
 15 16  1  0
  7 17  1  0
 17 18  2  0
  2 19  1  0
 19 20  2  0
 20 21  1  0
 21 22  2  0
 22 23  1  0
 22 24  1  0
 18  4  1  0
 24 19  1  0
 16 11  1  0
  3 25  1  0
  5 26  1  0
  6 27  1  0
 12 28  1  0
 12 29  1  0
 13 30  1  0
 13 31  1  0
 15 32  1  0
 15 33  1  0
 16 34  1  0
 16 35  1  0
 17 36  1  0
 18 37  1  0
 20 38  1  0
 21 39  1  0
M  END
>  <UniqueID>  (8) 
7

>  <SMILES>  (8) 
O=C(Nc1ccc(S(=O)(=O)N2CCOCC2)cc1)c1ccc(Br)o1

>  <Energy>  (8) 
81.42516863024025

>  <Genealogy>  (8) 
O=C(Nc1ccc(S(=O)(=O)N2CCOCC2)cc1)c1ccc(Br)o1 (3D coordinates assigned)
O=C(Nc1ccc(S(=O)(=O)N2CCOCC2)cc1)c1ccc(Br)o1 (nonaromatic ring conformer: 81.42516863024025 kcal/mol)

>  <smiles>  (8) 
O=C(Nc1ccc(S(=O)(=O)N2CCOCC2)cc1)c1ccc(Br)o1

>  <score_type>  (8) 
oracle

>  <origin>  (8) 
adgpu

>  <m_score__min__energy>  (8) 
-8.9299999999999997

>  <m_primary>  (8) 
energy

$$$$
8:0
     RDKit          3D

 47 50  0  0  0  0  0  0  0  0999 V2000
    0.8808   24.3536  -27.8148 H   0  0  0  0  0  0  0  0  0  0  0  0
   -0.1080   24.2430  -28.2840 C   0  0  0  0  0  0  0  0  0  0  0  0
   -1.1390   25.5010  -28.7200 S   0  0  0  0  0  0  0  0  0  0  0  0
   -2.3200   24.4650  -29.3000 C   0  0  0  0  0  0  0  0  0  0  0  0
   -3.4300   24.8730  -29.8410 N   0  0  0  0  0  0  0  0  0  0  0  0
   -4.4990   24.0410  -30.3260 C   0  0  0  0  0  0  0  0  0  0  0  0
   -4.2780   22.9910  -31.2340 C   0  0  0  0  0  0  0  0  0  0  0  0
   -3.2630   22.7999  -31.6124 H   0  0  0  0  0  0  0  0  0  0  0  0
   -5.3410   22.1880  -31.6590 C   0  0  0  0  0  0  0  0  0  0  0  0
   -5.1591   21.3748  -32.3771 H   0  0  0  0  0  0  0  0  0  0  0  0
   -6.6400   22.4140  -31.1740 C   0  0  0  0  0  0  0  0  0  0  0  0
   -7.7410   21.5890  -31.6040 N   0  0  0  0  0  0  0  0  0  0  0  0
   -7.4870   20.2340  -32.1040 C   0  0  0  0  0  0  0  0  0  0  0  0
   -6.5138   20.2093  -32.6160 H   0  0  0  0  0  0  0  0  0  0  0  0
   -7.4772   19.5292  -31.2595 H   0  0  0  0  0  0  0  0  0  0  0  0
   -8.5910   19.8330  -33.0880 C   0  0  0  0  0  0  0  0  0  0  0  0
   -8.5120   20.4550  -33.9918 H   0  0  0  0  0  0  0  0  0  0  0  0
   -8.4673   18.7701  -33.3429 H   0  0  0  0  0  0  0  0  0  0  0  0
   -9.8690   20.0150  -32.5100 O   0  0  0  0  0  0  0  0  0  0  0  0
  -10.0930   21.3910  -32.2640 C   0  0  0  0  0  0  0  0  0  0  0  0
   -9.9559   21.9518  -33.2003 H   0  0  0  0  0  0  0  0  0  0  0  0
  -11.1185   21.5197  -31.8875 H   0  0  0  0  0  0  0  0  0  0  0  0
   -9.1130   21.9220  -31.2120 C   0  0  0  0  0  0  0  0  0  0  0  0
   -9.2163   23.0144  -31.1341 H   0  0  0  0  0  0  0  0  0  0  0  0
   -9.3367   21.4600  -30.2391 H   0  0  0  0  0  0  0  0  0  0  0  0
   -6.8510   23.4400  -30.2400 C   0  0  0  0  0  0  0  0  0  0  0  0
   -7.8605   23.6156  -29.8399 H   0  0  0  0  0  0  0  0  0  0  0  0
   -5.7870   24.2400  -29.8150 C   0  0  0  0  0  0  0  0  0  0  0  0
   -5.9630   25.0326  -29.0728 H   0  0  0  0  0  0  0  0  0  0  0  0
   -1.9550   23.1710  -29.1900 N   0  0  0  0  0  0  0  0  0  0  0  0
   -0.7250   23.0320  -28.6210 C   0  0  0  0  0  0  0  0  0  0  0  0
   -0.1300   21.6900  -28.3890 C   0  0  0  0  0  0  0  0  0  0  0  0
   -0.8520   20.5340  -28.7450 C   0  0  0  0  0  0  0  0  0  0  0  0
   -1.8528   20.6330  -29.1906 H   0  0  0  0  0  0  0  0  0  0  0  0
   -0.3100   19.2630  -28.5380 C   0  0  0  0  0  0  0  0  0  0  0  0
   -0.8885   18.3693  -28.8147 H   0  0  0  0  0  0  0  0  0  0  0  0
    0.9660   19.1220  -27.9800 C   0  0  0  0  0  0  0  0  0  0  0  0
    1.6370   17.5180  -27.7090 S   0  0  0  0  0  0  0  0  0  0  0  0
    2.7840   17.6000  -26.7410 O   0  0  0  0  0  0  0  0  0  0  0  0
    2.1410   16.9530  -29.0080 O   0  0  0  0  0  0  0  0  0  0  0  0
    0.4120   16.4840  -27.0610 N   0  0  0  0  0  0  0  0  0  0  0  0
   -0.1290   17.0480  -26.3680 H   0  0  0  0  0  0  0  0  0  0  0  0
    0.9000   15.7340  -26.5230 H   0  0  0  0  0  0  0  0  0  0  0  0
    1.6920   20.2640  -27.6210 C   0  0  0  0  0  0  0  0  0  0  0  0
    2.6918   20.1588  -27.1745 H   0  0  0  0  0  0  0  0  0  0  0  0
    1.1530   21.5370  -27.8270 C   0  0  0  0  0  0  0  0  0  0  0  0
    1.7356   22.4273  -27.5479 H   0  0  0  0  0  0  0  0  0  0  0  0
  1  2  1  0
  2  3  1  0
  3  4  1  0
  4  5  2  0
  5  6  1  0
  6  7  2  0
  7  8  1  0
  7  9  1  0
  9 10  1  0
  9 11  2  0
 11 12  1  0
 12 13  1  0
 13 14  1  0
 13 15  1  0
 13 16  1  0
 16 17  1  0
 16 18  1  0
 16 19  1  0
 19 20  1  0
 20 21  1  0
 20 22  1  0
 20 23  1  0
 23 24  1  0
 23 25  1  0
 11 26  1  0
 26 27  1  0
 26 28  2  0
 28 29  1  0
  4 30  1  0
 30 31  1  0
 31 32  1  0
 32 33  2  0
 33 34  1  0
 33 35  1  0
 35 36  1  0
 35 37  2  0
 37 38  1  0
 38 39  2  0
 38 40  2  0
 38 41  1  0
 41 42  1  0
 41 43  1  0
 37 44  1  0
 44 45  1  0
 44 46  2  0
 46 47  1  0
 31  2  2  0
 46 32  1  0
 28  6  1  0
 23 12  1  0
M  CHG  1  30  -1
M  END
>  <UniqueID>  (9) 
8

>  <SMILES>  (9) 
NS(=O)(=O)c1ccc(-c2cs/c(=N/c3ccc(N4CCOCC4)cc3)[n-]2)cc1

>  <Energy>  (9) 
92.1447715377798

>  <Genealogy>  (9) 
NS(=O)(=O)c1ccc(-c2csc(=Nc3ccc(N4CCOCC4)cc3)[n-]2)cc1 (protonated)
NS(=O)(=O)c1ccc(-c2cs/c(=N/c3ccc(N4CCOCC4)cc3)[n-]2)cc1 (cis-trans isomerization)
NS(=O)(=O)c1ccc(-c2cs/c(=N/c3ccc(N4CCOCC4)cc3)[n-]2)cc1 (3D coordinates assigned)
NS(=O)(=O)c1ccc(-c2cs/c(=N/c3ccc(N4CCOCC4)cc3)[n-]2)cc1 (nonaromatic ring conformer: 92.1447715377798 kcal/mol)

>  <smiles>  (9) 
NS(=O)(=O)c1ccc(-c2csc(=Nc3ccc(N4CCOCC4)cc3)[nH]2)cc1

>  <score_type>  (9) 
oracle

>  <origin>  (9) 
adgpu

>  <m_score__min__energy>  (9) 
-9.4700000000000006

>  <m_primary>  (9) 
energy

$$$$
9:0
     RDKit          3D

 49 53  0  0  0  0  0  0  0  0999 V2000
   -2.4666   25.2353  -24.7948 H   0  0  0  0  0  0  0  0  0  0  0  0
   -1.9390   25.3430  -25.7540 C   0  0  0  0  0  0  0  0  0  0  0  0
   -2.5290   25.0640  -26.9470 N   0  0  0  0  0  0  0  0  0  0  0  0
   -1.6790   25.2730  -27.9760 C   0  0  0  0  0  0  0  0  0  0  0  0
   -1.9910   25.0930  -29.2210 N   0  0  0  0  0  0  0  0  0  0  0  0
   -3.5560   24.5540  -29.7380 S   0  0  0  0  0  0  0  0  0  0  0  0
   -4.3750   24.1850  -28.5330 O   0  0  0  0  0  0  0  0  0  0  0  0
   -4.2400   25.6720  -30.4730 O   0  0  0  0  0  0  0  0  0  0  0  0
   -3.3940   23.1400  -30.7750 C   0  0  0  0  0  0  0  0  0  0  0  0
   -4.4800   22.7170  -31.5530 C   0  0  0  0  0  0  0  0  0  0  0  0
   -5.4247   23.2799  -31.5284 H   0  0  0  0  0  0  0  0  0  0  0  0
   -4.3660   21.5820  -32.3600 C   0  0  0  0  0  0  0  0  0  0  0  0
   -5.2300   21.2401  -32.9487 H   0  0  0  0  0  0  0  0  0  0  0  0
   -3.1580   20.8780  -32.4230 C   0  0  0  0  0  0  0  0  0  0  0  0
   -3.0960   19.6730  -33.1980 N   0  0  0  0  0  0  0  0  0  0  0  0
   -2.1250   19.2530  -33.9630 C   0  0  0  0  0  0  0  0  0  0  0  0
   -2.1890   17.9570  -34.5590 C   0  0  0  0  0  0  0  0  0  0  0  0
   -3.2030   17.1400  -34.4360 N   0  0  0  0  0  0  0  0  0  0  0  0
   -4.4860   17.3850  -33.8440 C   0  0  0  0  0  0  0  0  0  0  0  0
   -5.3390   18.3410  -34.4080 C   0  0  0  0  0  0  0  0  0  0  0  0
   -5.0277   18.8901  -35.3089 H   0  0  0  0  0  0  0  0  0  0  0  0
   -6.5850   18.6000  -33.8300 C   0  0  0  0  0  0  0  0  0  0  0  0
   -7.2582   19.3415  -34.2850 H   0  0  0  0  0  0  0  0  0  0  0  0
   -6.9770   17.9170  -32.6730 C   0  0  0  0  0  0  0  0  0  0  0  0
   -8.6850   18.2620  -31.8910 Br  0  0  0  0  0  0  0  0  0  0  0  0
   -6.1130   16.9870  -32.0850 C   0  0  0  0  0  0  0  0  0  0  0  0
   -6.4150   16.4585  -31.1688 H   0  0  0  0  0  0  0  0  0  0  0  0
   -4.8650   16.7290  -32.6620 C   0  0  0  0  0  0  0  0  0  0  0  0
   -4.1793   16.0108  -32.1887 H   0  0  0  0  0  0  0  0  0  0  0  0
   -1.1180   17.5190  -35.2720 N   0  0  0  0  0  0  0  0  0  0  0  0
   -0.0200   18.2840  -35.4750 C   0  0  0  0  0  0  0  0  0  0  0  0
    1.0570   17.7940  -36.2240 C   0  0  0  0  0  0  0  0  0  0  0  0
    1.0217   16.7757  -36.6386 H   0  0  0  0  0  0  0  0  0  0  0  0
    2.1770   18.6010  -36.4440 C   0  0  0  0  0  0  0  0  0  0  0  0
    3.0240   18.2153  -37.0304 H   0  0  0  0  0  0  0  0  0  0  0  0
    2.2240   19.8970  -35.9210 C   0  0  0  0  0  0  0  0  0  0  0  0
    3.1060   20.5297  -36.0992 H   0  0  0  0  0  0  0  0  0  0  0  0
    1.1500   20.3900  -35.1710 C   0  0  0  0  0  0  0  0  0  0  0  0
    1.1891   21.4097  -34.7604 H   0  0  0  0  0  0  0  0  0  0  0  0
    0.0230   19.5850  -34.9420 C   0  0  0  0  0  0  0  0  0  0  0  0
   -1.0300   20.0400  -34.2090 N   0  0  0  0  0  0  0  0  0  0  0  0
   -0.9910   21.0210  -33.8540 H   0  0  0  0  0  0  0  0  0  0  0  0
   -2.0770   21.2870  -31.6240 C   0  0  0  0  0  0  0  0  0  0  0  0
   -1.1382   20.7139  -31.6357 H   0  0  0  0  0  0  0  0  0  0  0  0
   -2.1920   22.4210  -30.8140 C   0  0  0  0  0  0  0  0  0  0  0  0
   -1.3364   22.7495  -30.2057 H   0  0  0  0  0  0  0  0  0  0  0  0
   -0.1750   25.8080  -27.4590 S   0  0  0  0  0  0  0  0  0  0  0  0
   -0.6180   25.7750  -25.8360 C   0  0  0  0  0  0  0  0  0  0  0  0
    0.0252   26.0477  -24.9863 H   0  0  0  0  0  0  0  0  0  0  0  0
  1  2  1  0
  2  3  1  0
  3  4  1  0
  4  5  2  3
  5  6  1  0
  6  7  2  0
  6  8  2  0
  6  9  1  0
  9 10  2  0
 10 11  1  0
 10 12  1  0
 12 13  1  0
 12 14  2  0
 14 15  1  0
 15 16  2  0
 16 17  1  0
 17 18  2  0
 18 19  1  0
 19 20  2  0
 20 21  1  0
 20 22  1  0
 22 23  1  0
 22 24  2  0
 24 25  1  0
 24 26  1  0
 26 27  1  0
 26 28  2  0
 28 29  1  0
 17 30  1  0
 30 31  1  0
 31 32  2  0
 32 33  1  0
 32 34  1  0
 34 35  1  0
 34 36  2  0
 36 37  1  0
 36 38  1  0
 38 39  1  0
 38 40  2  0
 40 41  1  0
 41 42  1  0
 14 43  1  0
 43 44  1  0
 43 45  2  0
 45 46  1  0
  4 47  1  0
 47 48  1  0
 48 49  1  0
 48  2  2  0
 45  9  1  0
 41 16  1  0
 28 19  1  0
 40 31  1  0
M  CHG  2   3  -1  30  -1
M  END
>  <UniqueID>  (10) 
9

>  <SMILES>  (10) 
O=S(=O)(N=c1[n-]ccs1)c1ccc(N=c2[nH]c3ccccc3[n-]/c2=N/c2ccc(Br)cc2)cc1

>  <Energy>  (10) 
114.5273353672402

>  <Genealogy>  (10) 
O=S(=O)(N=c1[n-]ccs1)c1ccc(N=c2[nH]c3ccccc3[n-]c2=Nc2ccc(Br)cc2)cc1 (protonated)
O=S(=O)(N=c1[n-]ccs1)c1ccc(N=c2[nH]c3ccccc3[n-]/c2=N/c2ccc(Br)cc2)cc1 (cis-trans isomerization)
O=S(=O)(N=c1[n-]ccs1)c1ccc(N=c2[nH]c3ccccc3[n-]/c2=N/c2ccc(Br)cc2)cc1 (3D coordinates assigned)
O=S(=O)(N=c1[n-]ccs1)c1ccc(N=c2[nH]c3ccccc3[n-]/c2=N/c2ccc(Br)cc2)cc1 (optimized conformer: 114.5273353672402 kcal/mol)

>  <smiles>  (10) 
O=S(=O)(N=c1[nH]ccs1)c1ccc(N=c2[nH]c3ccccc3[nH]c2=Nc2ccc(Br)cc2)cc1

>  <score_type>  (10) 
oracle

>  <origin>  (10) 
adgpu

>  <m_score__min__energy>  (10) 
-10.75

>  <m_primary>  (10) 
energy

$$$$
10:0
     RDKit          3D

 21 22  0  0  0  0  0  0  0  0999 V2000
   -9.9980   21.9150  -30.7020 N   0  0  0  0  0  0  0  0  0  0  0  0
   -9.1590   21.3110  -31.2210 C   0  0  0  0  0  0  0  0  0  0  0  0
   -8.1140   20.5580  -31.8680 C   0  0  0  0  0  0  0  0  0  0  0  0
   -7.0260   21.1280  -32.5270 C   0  0  0  0  0  0  0  0  0  0  0  0
   -6.7350   22.5190  -32.7220 N   0  0  0  0  0  0  0  0  0  0  0  0
   -5.7580   23.2500  -31.9650 C   0  0  0  0  0  0  0  0  0  0  0  0
   -4.4660   22.7250  -31.8180 C   0  0  0  0  0  0  0  0  0  0  0  0
   -3.5060   23.4110  -31.0660 C   0  0  0  0  0  0  0  0  0  0  0  0
   -3.8350   24.6160  -30.4410 C   0  0  0  0  0  0  0  0  0  0  0  0
   -2.8800   25.2970  -29.6940 O   0  0  0  0  0  0  0  0  0  0  0  0
   -5.1270   25.1360  -30.5630 C   0  0  0  0  0  0  0  0  0  0  0  0
   -6.0890   24.4540  -31.3150 C   0  0  0  0  0  0  0  0  0  0  0  0
   -6.2130   19.8630  -33.2410 S   0  0  0  0  0  0  0  0  0  0  0  0
   -7.1410   18.5850  -32.7220 N   0  0  0  0  0  0  0  0  0  0  0  0
   -8.1360   19.1490  -31.9880 C   0  0  0  0  0  0  0  0  0  0  0  0
   -9.0350   18.4410  -31.4610 O   0  0  0  0  0  0  0  0  0  0  0  0
   -7.2320   23.0130  -33.4980 H   0  0  0  0  0  0  0  0  0  0  0  0
   -4.2060   21.7691  -32.2963 H   0  0  0  0  0  0  0  0  0  0  0  0
   -2.4903   23.0006  -30.9668 H   0  0  0  0  0  0  0  0  0  0  0  0
   -5.3873   26.0827  -30.0669 H   0  0  0  0  0  0  0  0  0  0  0  0
   -7.1079   24.8599  -31.3988 H   0  0  0  0  0  0  0  0  0  0  0  0
  1  2  3  0
  2  3  1  0
  3  4  2  0
  4  5  1  0
  5  6  1  0
  6  7  2  0
  7  8  1  0
  8  9  2  0
  9 10  1  0
  9 11  1  0
 11 12  2  0
  4 13  1  0
 13 14  1  0
 14 15  1  0
 15 16  2  0
 15  3  1  0
 12  6  1  0
  5 17  1  0
  7 18  1  0
  8 19  1  0
 11 20  1  0
 12 21  1  0
M  CHG  2  10  -1  14  -1
M  END
>  <UniqueID>  (11) 
10

>  <SMILES>  (11) 
N#Cc1c(Nc2ccc([O-])cc2)s[n-]c1=O

>  <Energy>  (11) 
60.35537486703972

>  <Genealogy>  (11) 
N#Cc1c(Nc2ccc([O-])cc2)s[n-]c1=O (protonated)
N#Cc1c(Nc2ccc([O-])cc2)s[n-]c1=O (3D coordinates assigned)
N#Cc1c(Nc2ccc([O-])cc2)s[n-]c1=O (optimized conformer: 60.35537486703972 kcal/mol)

>  <smiles>  (11) 
N#Cc1c(Nc2ccc(O)cc2)s[nH]c1=O

>  <score_type>  (11) 
oracle

>  <origin>  (11) 
adgpu

>  <m_score__min__energy>  (11) 
-9.5399999999999991

>  <m_primary>  (11) 
energy

$$$$
11:0
     RDKit          3D

 60 64  0  0  0  0  0  0  0  0999 V2000
   -0.6880   20.9470  -26.2440 O   0  0  0  0  0  0  0  0  0  0  0  0
   -0.6260   21.0950  -27.4980 C   0  0  0  0  0  0  0  0  0  0  0  0
    0.4820   20.5560  -28.2320 N   0  0  0  0  0  0  0  0  0  0  0  0
    0.7290   19.1710  -28.5060 C   0  0  0  0  0  0  0  0  0  0  0  0
    1.2140   18.3130  -27.5020 C   0  0  0  0  0  0  0  0  0  0  0  0
    1.3430   16.9420  -27.7420 C   0  0  0  0  0  0  0  0  0  0  0  0
    1.0000   16.4180  -28.9870 C   0  0  0  0  0  0  0  0  0  0  0  0
    0.5200   17.2600  -29.9960 C   0  0  0  0  0  0  0  0  0  0  0  0
    0.3700   18.6390  -29.7620 C   0  0  0  0  0  0  0  0  0  0  0  0
   -0.0840   19.4990  -30.8280 N   0  0  0  0  0  0  0  0  0  0  0  0
    0.9040   20.0520  -31.7620 C   0  0  0  0  0  0  0  0  0  0  0  0
    0.2330   20.9280  -32.8090 C   0  0  0  0  0  0  0  0  0  0  0  0
   -0.6720   21.8000  -32.1650 O   0  0  0  0  0  0  0  0  0  0  0  0
   -1.8230   21.0800  -31.7720 C   0  0  0  0  0  0  0  0  0  0  0  0
   -1.5170   19.8380  -30.8930 C   0  0  0  0  0  0  0  0  0  0  0  0
   -1.6540   21.8960  -28.2030 C   0  0  0  0  0  0  0  0  0  0  0  0
   -3.0140   21.5480  -28.1160 C   0  0  0  0  0  0  0  0  0  0  0  0
   -3.9860   22.3030  -28.7800 C   0  0  0  0  0  0  0  0  0  0  0  0
   -3.6100   23.4080  -29.5550 C   0  0  0  0  0  0  0  0  0  0  0  0
   -4.8370   24.3690  -30.3860 S   0  0  0  0  0  0  0  0  0  0  0  0
   -5.9530   24.6830  -29.4260 O   0  0  0  0  0  0  0  0  0  0  0  0
   -4.2210   25.6640  -30.8350 O   0  0  0  0  0  0  0  0  0  0  0  0
   -5.4650   23.5090  -31.7750 N   0  0  0  0  0  0  0  0  0  0  0  0
   -4.7760   22.2100  -31.9040 C   0  0  0  0  0  0  0  0  0  0  0  0
   -5.4010   21.3640  -33.0100 C   0  0  0  0  0  0  0  0  0  0  0  0
   -6.8220   21.0840  -32.6430 C   0  0  0  0  0  0  0  0  0  0  0  0
   -7.4110   19.8380  -32.9180 C   0  0  0  0  0  0  0  0  0  0  0  0
   -8.7380   19.5900  -32.5510 C   0  0  0  0  0  0  0  0  0  0  0  0
   -9.4790   20.5850  -31.9060 C   0  0  0  0  0  0  0  0  0  0  0  0
   -8.8960   21.8290  -31.6330 C   0  0  0  0  0  0  0  0  0  0  0  0
   -7.5600   22.0840  -31.9880 C   0  0  0  0  0  0  0  0  0  0  0  0
   -6.9560   23.4500  -31.7190 C   0  0  0  0  0  0  0  0  0  0  0  0
   -2.2570   23.7530  -29.6560 C   0  0  0  0  0  0  0  0  0  0  0  0
   -1.2850   23.0090  -28.9810 C   0  0  0  0  0  0  0  0  0  0  0  0
    1.4938   18.7241  -26.5208 H   0  0  0  0  0  0  0  0  0  0  0  0
    1.7150   16.2771  -26.9486 H   0  0  0  0  0  0  0  0  0  0  0  0
    1.1069   15.3398  -29.1768 H   0  0  0  0  0  0  0  0  0  0  0  0
    0.2582   16.8409  -30.9788 H   0  0  0  0  0  0  0  0  0  0  0  0
    1.6316   20.6561  -31.2001 H   0  0  0  0  0  0  0  0  0  0  0  0
    1.4083   19.2186  -32.2730 H   0  0  0  0  0  0  0  0  0  0  0  0
    0.9951   21.5151  -33.3424 H   0  0  0  0  0  0  0  0  0  0  0  0
   -0.3069   20.2979  -33.5311 H   0  0  0  0  0  0  0  0  0  0  0  0
   -2.4765   21.7561  -31.2011 H   0  0  0  0  0  0  0  0  0  0  0  0
   -2.2989   20.7108  -32.6924 H   0  0  0  0  0  0  0  0  0  0  0  0
   -1.8735   20.0384  -29.8719 H   0  0  0  0  0  0  0  0  0  0  0  0
   -2.0302   18.9818  -31.3551 H   0  0  0  0  0  0  0  0  0  0  0  0
   -3.3158   20.6740  -27.5202 H   0  0  0  0  0  0  0  0  0  0  0  0
   -5.0478   22.0288  -28.6937 H   0  0  0  0  0  0  0  0  0  0  0  0
   -3.7168   22.3872  -32.1423 H   0  0  0  0  0  0  0  0  0  0  0  0
   -4.8725   21.6672  -30.9521 H   0  0  0  0  0  0  0  0  0  0  0  0
   -5.3644   21.9123  -33.9629 H   0  0  0  0  0  0  0  0  0  0  0  0
   -4.8468   20.4206  -33.1234 H   0  0  0  0  0  0  0  0  0  0  0  0
   -6.8266   19.0551  -33.4235 H   0  0  0  0  0  0  0  0  0  0  0  0
   -9.1973   18.6146  -32.7693 H   0  0  0  0  0  0  0  0  0  0  0  0
  -10.5212   20.3906  -31.6126 H   0  0  0  0  0  0  0  0  0  0  0  0
   -9.4881   22.6123  -31.1371 H   0  0  0  0  0  0  0  0  0  0  0  0
   -7.3525   24.1508  -32.4684 H   0  0  0  0  0  0  0  0  0  0  0  0
   -7.2327   23.7077  -30.6860 H   0  0  0  0  0  0  0  0  0  0  0  0
   -1.9570   24.6148  -30.2703 H   0  0  0  0  0  0  0  0  0  0  0  0
   -0.2257   23.2952  -29.0584 H   0  0  0  0  0  0  0  0  0  0  0  0
  1  2  2  0
  2  3  1  0
  3  4  1  0
  4  5  2  0
  5  6  1  0
  6  7  2  0
  7  8  1  0
  8  9  2  0
  9 10  1  0
 10 11  1  0
 11 12  1  0
 12 13  1  0
 13 14  1  0
 14 15  1  0
  2 16  1  0
 16 17  2  0
 17 18  1  0
 18 19  2  0
 19 20  1  0
 20 21  2  0
 20 22  2  0
 20 23  1  0
 23 24  1  0
 24 25  1  0
 25 26  1  0
 26 27  2  0
 27 28  1  0
 28 29  2  0
 29 30  1  0
 30 31  2  0
 31 32  1  0
 19 33  1  0
 33 34  2  0
  9  4  1  0
 15 10  1  0
 34 16  1  0
 32 23  1  0
 31 26  1  0
  5 35  1  0
  6 36  1  0
  7 37  1  0
  8 38  1  0
 11 39  1  0
 11 40  1  0
 12 41  1  0
 12 42  1  0
 14 43  1  0
 14 44  1  0
 15 45  1  0
 15 46  1  0
 17 47  1  0
 18 48  1  0
 24 49  1  0
 24 50  1  0
 25 51  1  0
 25 52  1  0
 27 53  1  0
 28 54  1  0
 29 55  1  0
 30 56  1  0
 32 57  1  0
 32 58  1  0
 33 59  1  0
 34 60  1  0
M  CHG  1   3  -1
M  END
>  <UniqueID>  (12) 
11

>  <SMILES>  (12) 
O=C([N-]c1ccccc1N1CCOCC1)c1ccc(S(=O)(=O)N2CCc3ccccc3C2)cc1

>  <Energy>  (12) 
88.55668207164668

>  <Genealogy>  (12) 
O=C([N-]c1ccccc1N1CCOCC1)c1ccc(S(=O)(=O)N2CCc3ccccc3C2)cc1 (protonated)
O=C([N-]c1ccccc1N1CCOCC1)c1ccc(S(=O)(=O)N2CCc3ccccc3C2)cc1 (3D coordinates assigned)
O=C([N-]c1ccccc1N1CCOCC1)c1ccc(S(=O)(=O)N2CCc3ccccc3C2)cc1 (nonaromatic ring conformer: 88.55668207164668 kcal/mol)

>  <smiles>  (12) 
O=C(Nc1ccccc1N1CCOCC1)c1ccc(S(=O)(=O)N2CCc3ccccc3C2)cc1

>  <score_type>  (12) 
oracle

>  <origin>  (12) 
adgpu

>  <m_score__min__energy>  (12) 
-12.69

>  <m_primary>  (12) 
energy

$$$$
12:0
     RDKit          3D

 36 37  0  0  0  0  0  0  0  0999 V2000
   -6.4860   17.4290  -31.2120 C   0  0  0  0  0  0  0  0  0  0  0  0
   -5.7440   18.2550  -32.1720 N   0  0  0  0  0  0  0  0  0  0  0  0
   -5.0230   17.4000  -33.1240 C   0  0  0  0  0  0  0  0  0  0  0  0
   -6.8480   19.3010  -33.0310 S   0  0  0  0  0  0  0  0  0  0  0  0
   -6.4760   19.3300  -34.4870 O   0  0  0  0  0  0  0  0  0  0  0  0
   -8.2450   18.7550  -32.9190 O   0  0  0  0  0  0  0  0  0  0  0  0
   -6.8170   20.9450  -32.3900 C   0  0  0  0  0  0  0  0  0  0  0  0
   -8.0070   21.5780  -32.0080 C   0  0  0  0  0  0  0  0  0  0  0  0
   -7.9780   22.8840  -31.5110 C   0  0  0  0  0  0  0  0  0  0  0  0
   -6.7600   23.5580  -31.3800 C   0  0  0  0  0  0  0  0  0  0  0  0
   -5.5620   22.9290  -31.7350 C   0  0  0  0  0  0  0  0  0  0  0  0
   -4.3300   23.6520  -31.5920 N   0  0  0  0  0  0  0  0  0  0  0  0
   -3.9390   24.4510  -30.4650 C   0  0  0  0  0  0  0  0  0  0  0  0
   -4.2510   25.6720  -30.4540 O   0  0  0  0  0  0  0  0  0  0  0  0
   -3.2080   23.8820  -29.3100 C   0  0  0  0  0  0  0  0  0  0  0  0
   -3.6470   22.6710  -28.7460 C   0  0  0  0  0  0  0  0  0  0  0  0
   -2.9930   22.1300  -27.6360 C   0  0  0  0  0  0  0  0  0  0  0  0
   -1.8880   22.7840  -27.0860 C   0  0  0  0  0  0  0  0  0  0  0  0
   -1.4300   23.9760  -27.6510 C   0  0  0  0  0  0  0  0  0  0  0  0
   -2.0760   24.5230  -28.7650 C   0  0  0  0  0  0  0  0  0  0  0  0
   -1.5720   25.6880  -29.3330 O   0  0  0  0  0  0  0  0  0  0  0  0
   -5.5980   21.6260  -32.2660 C   0  0  0  0  0  0  0  0  0  0  0  0
   -6.2181   17.7273  -30.1877 H   0  0  0  0  0  0  0  0  0  0  0  0
   -7.5661   17.5706  -31.3644 H   0  0  0  0  0  0  0  0  0  0  0  0
   -6.2299   16.3702  -31.3644 H   0  0  0  0  0  0  0  0  0  0  0  0
   -4.4097   16.6727  -32.5719 H   0  0  0  0  0  0  0  0  0  0  0  0
   -5.7463   16.8645  -33.7565 H   0  0  0  0  0  0  0  0  0  0  0  0
   -4.3731   18.0225  -33.7565 H   0  0  0  0  0  0  0  0  0  0  0  0
   -8.9656   21.0463  -32.0994 H   0  0  0  0  0  0  0  0  0  0  0  0
   -8.9151   23.3825  -31.2224 H   0  0  0  0  0  0  0  0  0  0  0  0
   -6.7437   24.5885  -30.9957 H   0  0  0  0  0  0  0  0  0  0  0  0
   -4.5104   22.1464  -29.1812 H   0  0  0  0  0  0  0  0  0  0  0  0
   -3.3489   21.1874  -27.1945 H   0  0  0  0  0  0  0  0  0  0  0  0
   -1.3787   22.3601  -26.2080 H   0  0  0  0  0  0  0  0  0  0  0  0
   -0.5574   24.4872  -27.2183 H   0  0  0  0  0  0  0  0  0  0  0  0
   -4.6646   21.1394  -32.5854 H   0  0  0  0  0  0  0  0  0  0  0  0
  1  2  1  0
  2  3  1  0
  2  4  1  0
  4  5  2  0
  4  6  2  0
  4  7  1  0
  7  8  2  0
  8  9  1  0
  9 10  2  0
 10 11  1  0
 11 12  1  0
 12 13  1  0
 13 14  2  0
 13 15  1  0
 15 16  2  0
 16 17  1  0
 17 18  2  0
 18 19  1  0
 19 20  2  0
 20 21  1  0
 11 22  2  0
 22  7  1  0
 20 15  1  0
  1 23  1  0
  1 24  1  0
  1 25  1  0
  3 26  1  0
  3 27  1  0
  3 28  1  0
  8 29  1  0
  9 30  1  0
 10 31  1  0
 16 32  1  0
 17 33  1  0
 18 34  1  0
 19 35  1  0
 22 36  1  0
M  CHG  2  12  -1  21  -1
M  END
>  <UniqueID>  (13) 
12

>  <SMILES>  (13) 
CN(C)S(=O)(=O)c1cccc([N-]C(=O)c2ccccc2[O-])c1

>  <Energy>  (13) 
41.68661054144445

>  <Genealogy>  (13) 
CN(C)S(=O)(=O)c1cccc([N-]C(=O)c2ccccc2[O-])c1 (protonated)
CN(C)S(=O)(=O)c1cccc([N-]C(=O)c2ccccc2[O-])c1 (3D coordinates assigned)
CN(C)S(=O)(=O)c1cccc([N-]C(=O)c2ccccc2[O-])c1 (optimized conformer: 41.68661054144445 kcal/mol)

>  <smiles>  (13) 
CN(C)S(=O)(=O)c1cccc(NC(=O)c2ccccc2O)c1

>  <score_type>  (13) 
oracle

>  <origin>  (13) 
adgpu

>  <m_score__min__energy>  (13) 
-12.539999999999999

>  <m_primary>  (13) 
energy

$$$$
13:0
     RDKit          3D

 46 49  0  0  0  0  0  0  0  0999 V2000
   -0.7600   16.6680  -26.3650 H   0  0  0  0  0  0  0  0  0  0  0  0
   -0.2930   17.2080  -27.0830 O   0  0  0  0  0  0  0  0  0  0  0  0
   -0.8190   18.4120  -27.5470 C   0  0  0  0  0  0  0  0  0  0  0  0
   -1.9820   18.9500  -26.9790 C   0  0  0  0  0  0  0  0  0  0  0  0
   -2.4866   18.4212  -26.1569 H   0  0  0  0  0  0  0  0  0  0  0  0
   -2.5020   20.1570  -27.4550 C   0  0  0  0  0  0  0  0  0  0  0  0
   -3.4047   20.5843  -26.9940 H   0  0  0  0  0  0  0  0  0  0  0  0
   -1.8750   20.8280  -28.5220 C   0  0  0  0  0  0  0  0  0  0  0  0
   -2.3470   22.0920  -29.0150 N   0  0  0  0  0  0  0  0  0  0  0  0
   -1.8720   23.2780  -28.7570 C   0  0  0  0  0  0  0  0  0  0  0  0
   -0.8820   23.4310  -27.8320 N   0  0  0  0  0  0  0  0  0  0  0  0
   -0.4170   24.6510  -27.4710 C   0  0  0  0  0  0  0  0  0  0  0  0
    0.6090   24.7730  -26.5280 C   0  0  0  0  0  0  0  0  0  0  0  0
    1.0525   23.8729  -26.0773 H   0  0  0  0  0  0  0  0  0  0  0  0
    1.0700   26.0400  -26.1590 C   0  0  0  0  0  0  0  0  0  0  0  0
    1.8854   26.1337  -25.4266 H   0  0  0  0  0  0  0  0  0  0  0  0
    0.4970   27.1950  -26.7190 C   0  0  0  0  0  0  0  0  0  0  0  0
    1.0190   28.5520  -26.3500 C   0  0  0  0  0  0  0  0  0  0  0  0
    1.0550   28.6456  -25.2546 H   0  0  0  0  0  0  0  0  0  0  0  0
    2.0307   28.6803  -26.7624 H   0  0  0  0  0  0  0  0  0  0  0  0
    0.3541   29.3252  -26.7624 H   0  0  0  0  0  0  0  0  0  0  0  0
   -0.5230   27.0680  -27.6780 C   0  0  0  0  0  0  0  0  0  0  0  0
   -0.9603   27.9663  -28.1383 H   0  0  0  0  0  0  0  0  0  0  0  0
   -0.9820   25.7980  -28.0470 C   0  0  0  0  0  0  0  0  0  0  0  0
   -1.9700   25.6600  -28.9660 N   0  0  0  0  0  0  0  0  0  0  0  0
   -2.4330   24.4420  -29.3590 C   0  0  0  0  0  0  0  0  0  0  0  0
   -3.3840   24.4200  -30.2560 N   0  0  0  0  0  0  0  0  0  0  0  0
   -3.9600   23.2880  -30.9220 C   0  0  0  0  0  0  0  0  0  0  0  0
   -5.3320   23.0400  -30.8040 C   0  0  0  0  0  0  0  0  0  0  0  0
   -5.9569   23.7016  -30.1861 H   0  0  0  0  0  0  0  0  0  0  0  0
   -5.9120   21.9550  -31.4680 C   0  0  0  0  0  0  0  0  0  0  0  0
   -6.9880   21.7555  -31.3562 H   0  0  0  0  0  0  0  0  0  0  0  0
   -5.1230   21.1160  -32.2800 C   0  0  0  0  0  0  0  0  0  0  0  0
   -5.6550   20.0120  -32.9620 O   0  0  0  0  0  0  0  0  0  0  0  0
   -7.0480   19.7400  -33.0870 C   0  0  0  0  0  0  0  0  0  0  0  0
   -7.4958   19.6526  -32.0861 H   0  0  0  0  0  0  0  0  0  0  0  0
   -7.5340   20.5602  -33.6357 H   0  0  0  0  0  0  0  0  0  0  0  0
   -7.1897   18.7972  -33.6357 H   0  0  0  0  0  0  0  0  0  0  0  0
   -3.7580   21.3900  -32.4210 C   0  0  0  0  0  0  0  0  0  0  0  0
   -3.1356   20.7461  -33.0597 H   0  0  0  0  0  0  0  0  0  0  0  0
   -3.1790   22.4750  -31.7570 C   0  0  0  0  0  0  0  0  0  0  0  0
   -2.1088   22.6919  -31.8894 H   0  0  0  0  0  0  0  0  0  0  0  0
   -0.6950   20.3000  -29.0610 C   0  0  0  0  0  0  0  0  0  0  0  0
   -0.1731   20.8396  -29.8650 H   0  0  0  0  0  0  0  0  0  0  0  0
   -0.1750   19.0920  -28.5850 C   0  0  0  0  0  0  0  0  0  0  0  0
    0.7420   18.6763  -29.0280 H   0  0  0  0  0  0  0  0  0  0  0  0
  1  2  1  0
  2  3  1  0
  3  4  2  0
  4  5  1  0
  4  6  1  0
  6  7  1  0
  6  8  2  0
  8  9  1  0
  9 10  2  0
 10 11  1  0
 11 12  1  0
 12 13  2  0
 13 14  1  0
 13 15  1  0
 15 16  1  0
 15 17  2  0
 17 18  1  0
 18 19  1  0
 18 20  1  0
 18 21  1  0
 17 22  1  0
 22 23  1  0
 22 24  2  0
 24 25  1  0
 25 26  1  0
 26 27  2  0
 27 28  1  0
 28 29  2  0
 29 30  1  0
 29 31  1  0
 31 32  1  0
 31 33  2  0
 33 34  1  0
 34 35  1  0
 35 36  1  0
 35 37  1  0
 35 38  1  0
 33 39  1  0
 39 40  1  0
 39 41  2  0
 41 42  1  0
  8 43  1  0
 43 44  1  0
 43 45  2  0
 45 46  1  0
 45  3  1  0
 26 10  1  0
 41 28  1  0
 24 12  1  0
M  CHG  2  11  -1  25  -1
M  END
>  <UniqueID>  (14) 
13

>  <SMILES>  (14) 
COc1ccc(/N=c2/[n-]c3cc(C)ccc3[n-]/c2=N/c2ccc(O)cc2)cc1

>  <Energy>  (14) 
71.98889283587366

>  <Genealogy>  (14) 
COc1ccc(N=c2[n-]c3cc(C)ccc3[n-]c2=Nc2ccc(O)cc2)cc1 (protonated)
COc1ccc(/N=c2/[n-]c3cc(C)ccc3[n-]/c2=N/c2ccc(O)cc2)cc1 (cis-trans isomerization)
COc1ccc(/N=c2/[n-]c3cc(C)ccc3[n-]/c2=N/c2ccc(O)cc2)cc1 (3D coordinates assigned)
COc1ccc(/N=c2/[n-]c3cc(C)ccc3[n-]/c2=N/c2ccc(O)cc2)cc1 (optimized conformer: 71.98889283587366 kcal/mol)

>  <smiles>  (14) 
COc1ccc(N=c2[nH]c3cc(C)ccc3[nH]c2=Nc2ccc(O)cc2)cc1

>  <score_type>  (14) 
oracle

>  <origin>  (14) 
adgpu

>  <m_score__min__energy>  (14) 
-9.4700000000000006

>  <m_primary>  (14) 
energy

$$$$
14:0
     RDKit          3D

 44 46  0  0  0  0  0  0  0  0999 V2000
   -5.1480   16.8600  -33.4440 C   0  0  0  0  0  0  0  0  0  0  0  0
   -6.2310   17.8490  -33.1340 C   0  0  0  0  0  0  0  0  0  0  0  0
   -6.2070   19.1320  -33.7050 C   0  0  0  0  0  0  0  0  0  0  0  0
   -7.2460   20.0320  -33.4570 C   0  0  0  0  0  0  0  0  0  0  0  0
   -8.3250   19.6560  -32.6500 C   0  0  0  0  0  0  0  0  0  0  0  0
   -9.6980   20.7840  -32.4040 S   0  0  0  0  0  0  0  0  0  0  0  0
   -8.6820   21.9030  -31.4430 C   0  0  0  0  0  0  0  0  0  0  0  0
   -8.1110   23.0270  -32.0490 C   0  0  0  0  0  0  0  0  0  0  0  0
   -7.2120   23.8260  -31.3350 C   0  0  0  0  0  0  0  0  0  0  0  0
   -6.8670   23.4990  -30.0160 C   0  0  0  0  0  0  0  0  0  0  0  0
   -5.8410   24.2480  -29.3490 N   0  0  0  0  0  0  0  0  0  0  0  0
   -4.2320   24.3840  -29.9880 S   0  0  0  0  0  0  0  0  0  0  0  0
   -4.1550   25.5850  -30.8890 O   0  0  0  0  0  0  0  0  0  0  0  0
   -3.2680   24.5590  -28.8480 O   0  0  0  0  0  0  0  0  0  0  0  0
   -3.8240   22.9450  -30.9250 C   0  0  0  0  0  0  0  0  0  0  0  0
   -2.8270   22.0690  -30.4750 C   0  0  0  0  0  0  0  0  0  0  0  0
   -2.4650   20.9570  -31.2430 C   0  0  0  0  0  0  0  0  0  0  0  0
   -3.1250   20.6870  -32.4500 C   0  0  0  0  0  0  0  0  0  0  0  0
   -2.7180   19.5090  -33.2840 C   0  0  0  0  0  0  0  0  0  0  0  0
   -4.1270   21.5620  -32.8970 C   0  0  0  0  0  0  0  0  0  0  0  0
   -4.4770   22.6820  -32.1360 C   0  0  0  0  0  0  0  0  0  0  0  0
   -7.4910   22.4050  -29.3930 C   0  0  0  0  0  0  0  0  0  0  0  0
   -8.3960   21.6130  -30.1040 C   0  0  0  0  0  0  0  0  0  0  0  0
   -8.3560   18.3780  -32.0810 C   0  0  0  0  0  0  0  0  0  0  0  0
   -7.3180   17.4750  -32.3280 C   0  0  0  0  0  0  0  0  0  0  0  0
   -4.7247   16.4735  -32.5052 H   0  0  0  0  0  0  0  0  0  0  0  0
   -5.5679   16.0272  -34.0272 H   0  0  0  0  0  0  0  0  0  0  0  0
   -4.3566   17.3536  -34.0272 H   0  0  0  0  0  0  0  0  0  0  0  0
   -5.3669   19.4291  -34.3499 H   0  0  0  0  0  0  0  0  0  0  0  0
   -7.2157   21.0395  -33.8976 H   0  0  0  0  0  0  0  0  0  0  0  0
   -8.3690   23.2826  -33.0873 H   0  0  0  0  0  0  0  0  0  0  0  0
   -6.7734   24.7155  -31.8108 H   0  0  0  0  0  0  0  0  0  0  0  0
   -6.1100   24.9150  -28.5920 H   0  0  0  0  0  0  0  0  0  0  0  0
   -2.3267   22.2566  -29.5135 H   0  0  0  0  0  0  0  0  0  0  0  0
   -1.6594   20.2920  -30.8984 H   0  0  0  0  0  0  0  0  0  0  0  0
   -2.4301   18.6758  -32.6260 H   0  0  0  0  0  0  0  0  0  0  0  0
   -3.5616   19.2002  -33.9189 H   0  0  0  0  0  0  0  0  0  0  0  0
   -1.8638   19.7868  -33.9189 H   0  0  0  0  0  0  0  0  0  0  0  0
   -4.6395   21.3660  -33.8504 H   0  0  0  0  0  0  0  0  0  0  0  0
   -5.2683   23.3592  -32.4899 H   0  0  0  0  0  0  0  0  0  0  0  0
   -7.2662   22.1713  -28.3419 H   0  0  0  0  0  0  0  0  0  0  0  0
   -8.8847   20.7599  -29.6105 H   0  0  0  0  0  0  0  0  0  0  0  0
   -9.1987   18.0835  -31.4382 H   0  0  0  0  0  0  0  0  0  0  0  0
   -7.3530   16.4670  -31.8890 H   0  0  0  0  0  0  0  0  0  0  0  0
  1  2  1  0
  2  3  2  0
  3  4  1  0
  4  5  2  0
  5  6  1  0
  6  7  1  0
  7  8  2  0
  8  9  1  0
  9 10  2  0
 10 11  1  0
 11 12  1  0
 12 13  2  0
 12 14  2  0
 12 15  1  0
 15 16  2  0
 16 17  1  0
 17 18  2  0
 18 19  1  0
 18 20  1  0
 20 21  2  0
 10 22  1  0
 22 23  2  0
  5 24  1  0
 24 25  2  0
 25  2  1  0
 23  7  1  0
 21 15  1  0
  1 26  1  0
  1 27  1  0
  1 28  1  0
  3 29  1  0
  4 30  1  0
  8 31  1  0
  9 32  1  0
 11 33  1  0
 16 34  1  0
 17 35  1  0
 19 36  1  0
 19 37  1  0
 19 38  1  0
 20 39  1  0
 21 40  1  0
 22 41  1  0
 23 42  1  0
 24 43  1  0
 25 44  1  0
M  END
>  <UniqueID>  (15) 
14

>  <SMILES>  (15) 
Cc1ccc(Sc2ccc(NS(=O)(=O)c3ccc(C)cc3)cc2)cc1

>  <Energy>  (15) 
40.79140364701421

>  <Genealogy>  (15) 
Cc1ccc(Sc2ccc(NS(=O)(=O)c3ccc(C)cc3)cc2)cc1 (3D coordinates assigned)
Cc1ccc(Sc2ccc(NS(=O)(=O)c3ccc(C)cc3)cc2)cc1 (optimized conformer: 40.79140364701421 kcal/mol)

>  <smiles>  (15) 
Cc1ccc(Sc2ccc(NS(=O)(=O)c3ccc(C)cc3)cc2)cc1

>  <score_type>  (15) 
oracle

>  <origin>  (15) 
adgpu

>  <m_score__min__energy>  (15) 
-9.8100000000000005

>  <m_primary>  (15) 
energy

$$$$
15:0
     RDKit          3D

 63 67  0  0  0  0  0  0  0  0999 V2000
    0.1732   19.6501  -33.6245 H   0  0  0  0  0  0  0  0  0  0  0  0
   -0.7060   19.9770  -33.0500 C   0  0  0  0  0  0  0  0  0  0  0  0
   -0.5900   20.9920  -32.1620 N   0  0  0  0  0  0  0  0  0  0  0  0
   -1.6310   21.3950  -31.3890 C   0  0  0  0  0  0  0  0  0  0  0  0
   -1.4180   22.4020  -30.4410 C   0  0  0  0  0  0  0  0  0  0  0  0
   -0.4453   22.9141  -30.4001 H   0  0  0  0  0  0  0  0  0  0  0  0
   -2.4310   22.7650  -29.5430 C   0  0  0  0  0  0  0  0  0  0  0  0
   -2.2060   23.8290  -28.5350 C   0  0  0  0  0  0  0  0  0  0  0  0
   -3.0360   23.9250  -27.4040 C   0  0  0  0  0  0  0  0  0  0  0  0
   -3.8573   23.2062  -27.2668 H   0  0  0  0  0  0  0  0  0  0  0  0
   -2.8250   24.9270  -26.4530 C   0  0  0  0  0  0  0  0  0  0  0  0
   -3.4842   24.9955  -25.5750 H   0  0  0  0  0  0  0  0  0  0  0  0
   -1.7770   25.8460  -26.6120 C   0  0  0  0  0  0  0  0  0  0  0  0
   -1.5420   26.9270  -25.5870 C   0  0  0  0  0  0  0  0  0  0  0  0
   -1.7247   27.9080  -26.0500 H   0  0  0  0  0  0  0  0  0  0  0  0
   -2.2290   26.7661  -24.7431 H   0  0  0  0  0  0  0  0  0  0  0  0
   -0.1550   26.8820  -25.0810 N   0  0  0  0  0  0  0  0  0  0  0  0
    0.1790   25.5200  -24.6250 C   0  0  0  0  0  0  0  0  0  0  0  0
   -0.4752   25.2517  -23.7824 H   0  0  0  0  0  0  0  0  0  0  0  0
    0.0316   24.8227  -25.4629 H   0  0  0  0  0  0  0  0  0  0  0  0
    1.6510   25.4380  -24.1680 C   0  0  0  0  0  0  0  0  0  0  0  0
    1.6897   24.9901  -23.1641 H   0  0  0  0  0  0  0  0  0  0  0  0
    2.2045   24.8218  -24.8919 H   0  0  0  0  0  0  0  0  0  0  0  0
    2.2760   26.7750  -24.1220 N   0  0  0  0  0  0  0  0  0  0  0  0
    3.6250   26.6870  -23.5440 C   0  0  0  0  0  0  0  0  0  0  0  0
    3.5546   26.6916  -22.4463 H   0  0  0  0  0  0  0  0  0  0  0  0
    4.1064   25.7555  -23.8766 H   0  0  0  0  0  0  0  0  0  0  0  0
    4.2233   27.5480  -23.8766 H   0  0  0  0  0  0  0  0  0  0  0  0
    1.4390   27.7000  -23.3380 C   0  0  0  0  0  0  0  0  0  0  0  0
    1.3295   27.3092  -22.3156 H   0  0  0  0  0  0  0  0  0  0  0  0
    1.9247   28.6868  -23.3200 H   0  0  0  0  0  0  0  0  0  0  0  0
    0.0420   27.8470  -23.9760 C   0  0  0  0  0  0  0  0  0  0  0  0
   -0.7230   27.6693  -23.2058 H   0  0  0  0  0  0  0  0  0  0  0  0
   -0.0441   28.8638  -24.3868 H   0  0  0  0  0  0  0  0  0  0  0  0
   -0.9420   25.7490  -27.7350 C   0  0  0  0  0  0  0  0  0  0  0  0
   -0.1137   26.4612  -27.8640 H   0  0  0  0  0  0  0  0  0  0  0  0
   -1.1570   24.7520  -28.6910 C   0  0  0  0  0  0  0  0  0  0  0  0
   -0.5008   24.6892  -29.5716 H   0  0  0  0  0  0  0  0  0  0  0  0
   -3.6470   22.0710  -29.5800 C   0  0  0  0  0  0  0  0  0  0  0  0
   -4.4375   22.3210  -28.8571 H   0  0  0  0  0  0  0  0  0  0  0  0
   -3.8680   21.0650  -30.5240 C   0  0  0  0  0  0  0  0  0  0  0  0
   -4.8108   20.4987  -30.5026 H   0  0  0  0  0  0  0  0  0  0  0  0
   -2.8970   20.7650  -31.5060 C   0  0  0  0  0  0  0  0  0  0  0  0
   -3.0740   19.7850  -32.5360 C   0  0  0  0  0  0  0  0  0  0  0  0
   -4.2330   19.2930  -32.9040 N   0  0  0  0  0  0  0  0  0  0  0  0
   -5.5650   19.7580  -32.6410 C   0  0  0  0  0  0  0  0  0  0  0  0
   -5.8530   21.1330  -32.6340 C   0  0  0  0  0  0  0  0  0  0  0  0
   -5.0460   21.8599  -32.8081 H   0  0  0  0  0  0  0  0  0  0  0  0
   -7.1660   21.5890  -32.4060 C   0  0  0  0  0  0  0  0  0  0  0  0
   -7.4810   22.9560  -32.3540 O   0  0  0  0  0  0  0  0  0  0  0  0
   -6.9570   23.8690  -31.3940 C   0  0  0  0  0  0  0  0  0  0  0  0
   -7.1700   23.4979  -30.3806 H   0  0  0  0  0  0  0  0  0  0  0  0
   -5.8692   23.9599  -31.5301 H   0  0  0  0  0  0  0  0  0  0  0  0
   -7.4272   24.8541  -31.5301 H   0  0  0  0  0  0  0  0  0  0  0  0
   -8.1940   20.6510  -32.2290 C   0  0  0  0  0  0  0  0  0  0  0  0
   -9.8450   21.1810  -31.9460 Cl  0  0  0  0  0  0  0  0  0  0  0  0
   -7.9170   19.2810  -32.2870 C   0  0  0  0  0  0  0  0  0  0  0  0
   -8.7317   18.5525  -32.1627 H   0  0  0  0  0  0  0  0  0  0  0  0
   -6.6110   18.8330  -32.5020 C   0  0  0  0  0  0  0  0  0  0  0  0
   -6.2980   17.1050  -32.5730 Cl  0  0  0  0  0  0  0  0  0  0  0  0
   -1.9340   19.3430  -33.2410 C   0  0  0  0  0  0  0  0  0  0  0  0
   -2.0240   18.2960  -34.2350 C   0  0  0  0  0  0  0  0  0  0  0  0
   -2.0950   17.4590  -35.0300 N   0  0  0  0  0  0  0  0  0  0  0  0
  1  2  1  0
  2  3  1  0
  3  4  1  0
  4  5  2  0
  5  6  1  0
  5  7  1  0
  7  8  1  0
  8  9  2  0
  9 10  1  0
  9 11  1  0
 11 12  1  0
 11 13  2  0
 13 14  1  0
 14 15  1  0
 14 16  1  0
 14 17  1  0
 17 18  1  0
 18 19  1  0
 18 20  1  0
 18 21  1  0
 21 22  1  0
 21 23  1  0
 21 24  1  0
 24 25  1  0
 25 26  1  0
 25 27  1  0
 25 28  1  0
 24 29  1  0
 29 30  1  0
 29 31  1  0
 29 32  1  0
 32 33  1  0
 32 34  1  0
 13 35  1  0
 35 36  1  0
 35 37  2  0
 37 38  1  0
  7 39  2  0
 39 40  1  0
 39 41  1  0
 41 42  1  0
 41 43  2  0
 43 44  1  0
 44 45  2  0
 45 46  1  0
 46 47  2  0
 47 48  1  0
 47 49  1  0
 49 50  1  0
 50 51  1  0
 51 52  1  0
 51 53  1  0
 51 54  1  0
 49 55  2  0
 55 56  1  0
 55 57  1  0
 57 58  1  0
 57 59  2  0
 59 60  1  0
 44 61  1  0
 61 62  1  0
 62 63  3  0
 61  2  2  0
 43  4  1  0
 59 46  1  0
 37  8  1  0
 32 17  1  0
M  CHG  1   3  -1
M  END
>  <UniqueID>  (16) 
15

>  <SMILES>  (16) 
COc1cc(/N=c2\c(C#N)c[n-]c3cc(-c4ccc(CN5CCN(C)CC5)cc4)ccc23)c(Cl)cc1Cl

>  <Energy>  (16) 
104.68149531505995

>  <Genealogy>  (16) 
COc1cc(N=c2c(C#N)c[n-]c3cc(-c4ccc(CN5CCN(C)CC5)cc4)ccc23)c(Cl)cc1Cl (protonated)
COc1cc(/N=c2\c(C#N)c[n-]c3cc(-c4ccc(CN5CCN(C)CC5)cc4)ccc23)c(Cl)cc1Cl (cis-trans isomerization)
COc1cc(/N=c2\c(C#N)c[n-]c3cc(-c4ccc(CN5CCN(C)CC5)cc4)ccc23)c(Cl)cc1Cl (3D coordinates assigned)
COc1cc(/N=c2\c(C#N)c[n-]c3cc(-c4ccc(CN5CCN(C)CC5)cc4)ccc23)c(Cl)cc1Cl (nonaromatic ring conformer: 104.68149531505995 kcal/mol)

>  <smiles>  (16) 
COc1cc(N=c2c(C#N)c[nH]c3cc(-c4ccc(CN5CCN(C)CC5)cc4)ccc23)c(Cl)cc1Cl

>  <score_type>  (16) 
oracle

>  <origin>  (16) 
adgpu

>  <m_score__min__energy>  (16) 
-9.75

>  <m_primary>  (16) 
energy

$$$$
16:0
     RDKit          3D

 54 57  0  0  0  0  0  0  0  0999 V2000
   -5.4000   25.3030  -31.4640 H   0  0  0  0  0  0  0  0  0  0  0  0
   -4.6450   25.3090  -30.7420 N   0  0  0  0  0  0  0  0  0  0  0  0
   -3.7890   24.3450  -30.6530 C   0  0  0  0  0  0  0  0  0  0  0  0
   -3.8540   23.2910  -31.5060 N   0  0  0  0  0  0  0  0  0  0  0  0
   -2.9510   22.2770  -31.4240 C   0  0  0  0  0  0  0  0  0  0  0  0
   -3.0160   21.1140  -32.3570 C   0  0  0  0  0  0  0  0  0  0  0  0
   -4.1440   20.2710  -32.3230 C   0  0  0  0  0  0  0  0  0  0  0  0
   -4.9566   20.4806  -31.6119 H   0  0  0  0  0  0  0  0  0  0  0  0
   -4.2450   19.1700  -33.1820 C   0  0  0  0  0  0  0  0  0  0  0  0
   -5.4540   18.2630  -33.1260 C   0  0  0  0  0  0  0  0  0  0  0  0
   -5.7427   17.9936  -34.1527 H   0  0  0  0  0  0  0  0  0  0  0  0
   -5.1815   17.3727  -32.5402 H   0  0  0  0  0  0  0  0  0  0  0  0
   -6.6100   18.9110  -32.4590 N   0  0  0  0  0  0  0  0  0  0  0  0
   -6.2540   19.4110  -31.6100 H   0  0  0  0  0  0  0  0  0  0  0  0
   -7.6060   17.9110  -32.0230 C   0  0  0  0  0  0  0  0  0  0  0  0
   -8.0442   17.4274  -32.9085 H   0  0  0  0  0  0  0  0  0  0  0  0
   -7.1047   17.1638  -31.3902 H   0  0  0  0  0  0  0  0  0  0  0  0
   -8.7280   18.5830  -31.2050 C   0  0  0  0  0  0  0  0  0  0  0  0
   -9.6083   17.9235  -31.2148 H   0  0  0  0  0  0  0  0  0  0  0  0
   -8.3359   18.7422  -30.1897 H   0  0  0  0  0  0  0  0  0  0  0  0
   -9.1310   19.9110  -31.7290 N   0  0  0  0  0  0  0  0  0  0  0  0
   -8.7010   21.0190  -30.8600 C   0  0  0  0  0  0  0  0  0  0  0  0
   -8.8154   20.7243  -29.8064 H   0  0  0  0  0  0  0  0  0  0  0  0
   -7.6459   21.2553  -31.0622 H   0  0  0  0  0  0  0  0  0  0  0  0
   -9.3205   21.9052  -31.0622 H   0  0  0  0  0  0  0  0  0  0  0  0
   -8.7360   20.1240  -33.1330 C   0  0  0  0  0  0  0  0  0  0  0  0
   -9.2892   19.4140  -33.7654 H   0  0  0  0  0  0  0  0  0  0  0  0
   -8.9717   21.1676  -33.3888 H   0  0  0  0  0  0  0  0  0  0  0  0
   -7.2220   19.9180  -33.3670 C   0  0  0  0  0  0  0  0  0  0  0  0
   -7.0727   19.5863  -34.4051 H   0  0  0  0  0  0  0  0  0  0  0  0
   -6.7301   20.8798  -33.1599 H   0  0  0  0  0  0  0  0  0  0  0  0
   -3.2020   18.9170  -34.0750 C   0  0  0  0  0  0  0  0  0  0  0  0
   -3.2615   18.0580  -34.7595 H   0  0  0  0  0  0  0  0  0  0  0  0
   -2.1150   19.7290  -34.1000 N   0  0  0  0  0  0  0  0  0  0  0  0
   -1.9890   20.8150  -33.2870 C   0  0  0  0  0  0  0  0  0  0  0  0
   -0.9040   21.5380  -33.3240 N   0  0  0  0  0  0  0  0  0  0  0  0
    0.2050   21.4000  -34.2280 C   0  0  0  0  0  0  0  0  0  0  0  0
    0.2770   22.2430  -35.3430 C   0  0  0  0  0  0  0  0  0  0  0  0
   -0.4924   23.0141  -35.4963 H   0  0  0  0  0  0  0  0  0  0  0  0
    1.2930   22.1140  -36.2380 N   0  0  0  0  0  0  0  0  0  0  0  0
    2.2550   21.1620  -36.0980 C   0  0  0  0  0  0  0  0  0  0  0  0
    3.2080   21.0670  -36.9680 N   0  0  0  0  0  0  0  0  0  0  0  0
    3.2650   21.7120  -37.7880 H   0  0  0  0  0  0  0  0  0  0  0  0
    2.2070   20.2770  -35.0150 C   0  0  0  0  0  0  0  0  0  0  0  0
    2.9770   19.5002  -34.8977 H   0  0  0  0  0  0  0  0  0  0  0  0
    1.1720   20.3900  -34.0850 C   0  0  0  0  0  0  0  0  0  0  0  0
    1.1132   19.6883  -33.2399 H   0  0  0  0  0  0  0  0  0  0  0  0
   -1.9840   22.3300  -30.4690 N   0  0  0  0  0  0  0  0  0  0  0  0
   -1.9230   23.3750  -29.6040 C   0  0  0  0  0  0  0  0  0  0  0  0
   -0.8330   23.4410  -28.5870 C   0  0  0  0  0  0  0  0  0  0  0  0
   -1.2707   23.4145  -27.5782 H   0  0  0  0  0  0  0  0  0  0  0  0
   -0.1581   22.5821  -28.7166 H   0  0  0  0  0  0  0  0  0  0  0  0
   -0.2667   24.3751  -28.7166 H   0  0  0  0  0  0  0  0  0  0  0  0
   -2.8200   24.3890  -29.7070 N   0  0  0  0  0  0  0  0  0  0  0  0
  1  2  1  0
  2  3  2  3
  3  4  1  0
  4  5  2  0
  5  6  1  0
  6  7  2  0
  7  8  1  0
  7  9  1  0
  9 10  1  0
 10 11  1  0
 10 12  1  0
 10 13  1  0
 13 14  1  0
 13 15  1  0
 15 16  1  0
 15 17  1  0
 15 18  1  0
 18 19  1  0
 18 20  1  0
 18 21  1  0
 21 22  1  0
 22 23  1  0
 22 24  1  0
 22 25  1  0
 21 26  1  0
 26 27  1  0
 26 28  1  0
 26 29  1  0
 29 30  1  0
 29 31  1  0
  9 32  2  0
 32 33  1  0
 32 34  1  0
 34 35  1  0
 35 36  2  0
 36 37  1  0
 37 38  2  0
 38 39  1  0
 38 40  1  0
 40 41  1  0
 41 42  2  0
 42 43  1  0
 41 44  1  0
 44 45  1  0
 44 46  2  0
 46 47  1  0
  5 48  1  0
 48 49  1  0
 49 50  1  0
 50 51  1  0
 50 52  1  0
 50 53  1  0
 49 54  2  0
 54  3  1  0
 35  6  1  0
 46 37  1  0
 29 13  1  0
M  CHG  4  13   1  34  -1  40  -1  48  -1
M  END
>  <UniqueID>  (17) 
16

>  <SMILES>  (17) 
[H]/N=c1/ccc(/N=c2\[n-]cc(C[NH+]3CCN(C)CC3)cc2-c2nc(=N)nc(C)[n-]2)c[n-]1

>  <Energy>  (17) 
80.51057564291656

>  <Genealogy>  (17) 
Cc1nc(=N)nc(-c2cc(C[NH+]3CCN(C)CC3)c[n-]c2=Nc2ccc(=N)[n-]c2)[n-]1 (protonated)
[H]/N=c1/ccc(/N=c2\[n-]cc(C[NH+]3CCN(C)CC3)cc2-c2nc(=N)nc(C)[n-]2)c[n-]1 (cis-trans isomerization)
[H]/N=c1/ccc(/N=c2\[n-]cc(C[NH+]3CCN(C)CC3)cc2-c2nc(=N)nc(C)[n-]2)c[n-]1 (3D coordinates assigned)
[H]/N=c1/ccc(/N=c2\[n-]cc(C[NH+]3CCN(C)CC3)cc2-c2nc(=N)nc(C)[n-]2)c[n-]1 (nonaromatic ring conformer: 80.51057564291656 kcal/mol)

>  <smiles>  (17) 
Cc1nc(=N)nc(-c2cc(CN3CCN(C)CC3)c[nH]c2=Nc2ccc(=N)[nH]c2)[nH]1

>  <score_type>  (17) 
oracle

>  <origin>  (17) 
adgpu

>  <m_score__min__energy>  (17) 
-9.9000000000000004

>  <m_primary>  (17) 
energy

$$$$
17:0
     RDKit          3D

 59 62  0  0  1  0  0  0  0  0999 V2000
   -1.0670   21.8830  -30.4820 C   0  0  0  0  0  0  0  0  0  0  0  0
   -0.8440   20.5640  -30.4520 O   0  0  0  0  0  0  0  0  0  0  0  0
   -0.2390   19.8770  -31.4400 C   0  0  0  0  0  0  0  0  0  0  0  0
   -1.0910   19.3330  -32.5450 C   0  0  0  0  0  0  0  0  0  0  0  0
   -2.4780   19.6740  -32.3700 N   0  0  0  0  0  0  0  0  0  0  0  0
   -3.3120   19.5440  -33.5200 C   0  0  0  0  0  0  0  0  0  0  0  0
   -2.7700   19.1540  -34.5550 O   0  0  0  0  0  0  0  0  0  0  0  0
   -4.7160   19.8960  -33.3320 C   0  0  0  0  0  0  0  0  0  0  0  0
   -6.1180   18.9640  -33.9100 S   0  0  0  0  0  0  0  0  0  0  0  0
   -7.2820   20.0480  -33.0830 C   0  0  0  0  0  0  0  0  0  0  0  0
   -8.6440   19.9430  -33.0720 N   0  0  0  0  0  0  0  0  0  0  0  0
   -9.3930   20.8140  -32.3860 C   0  0  0  0  0  0  0  0  0  0  0  0
   -8.7360   21.7700  -31.7170 N   0  0  0  0  0  0  0  0  0  0  0  0
   -7.3760   21.8830  -31.7190 C   0  0  0  0  0  0  0  0  0  0  0  0
   -6.8840   22.5750  -30.8630 N   0  0  0  0  0  0  0  0  0  0  0  0
   -5.8170   23.0590  -30.3280 C   0  0  0  0  0  0  0  0  0  0  0  0
   -5.3940   24.4010  -30.5120 C   0  0  0  0  0  0  0  0  0  0  0  0
   -4.3360   24.9230  -29.8110 C   0  0  0  0  0  0  0  0  0  0  0  0
   -3.6290   24.1820  -28.8940 C   0  0  0  0  0  0  0  0  0  0  0  0
   -2.5360   24.7290  -28.1710 N   0  0  0  0  0  0  0  0  0  0  0  0
   -1.2520   25.0250  -28.7280 C   0  0  0  0  0  0  0  0  0  0  0  0
   -0.8630   26.3910  -28.1690 C   0  0  0  0  0  0  0  0  0  0  0  0
   -0.5430   26.2020  -26.7900 N   0  0  0  0  0  0  0  0  0  0  0  0
   -0.2720   27.4410  -26.0920 C   0  0  0  0  0  0  0  0  0  0  0  0
   -1.4040   25.3220  -26.0780 C   0  0  0  0  0  0  0  0  0  0  0  0
   -2.7190   25.0220  -26.7390 C   0  0  0  0  0  0  0  0  0  0  0  0
   -4.0160   22.8790  -28.6950 C   0  0  0  0  0  0  0  0  0  0  0  0
   -5.0680   22.3080  -29.3700 C   0  0  0  0  0  0  0  0  0  0  0  0
   -6.5500   21.0090  -32.4430 C   0  0  0  0  0  0  0  0  0  0  0  0
   -5.2230   20.9710  -32.5610 C   0  0  0  0  0  0  0  0  0  0  0  0
   -4.1570   22.0370  -32.3030 C   0  0  0  0  0  0  0  0  0  0  0  0
   -1.1320   22.2674  -29.4534 H   0  0  0  0  0  0  0  0  0  0  0  0
   -0.2406   22.3827  -31.0086 H   0  0  0  0  0  0  0  0  0  0  0  0
   -2.0117   22.0833  -31.0086 H   0  0  0  0  0  0  0  0  0  0  0  0
    0.5015   20.5487  -31.8989 H   0  0  0  0  0  0  0  0  0  0  0  0
    0.1677   18.9839  -30.9430 H   0  0  0  0  0  0  0  0  0  0  0  0
   -0.7406   19.7480  -33.5016 H   0  0  0  0  0  0  0  0  0  0  0  0
   -1.0052   18.2364  -32.5336 H   0  0  0  0  0  0  0  0  0  0  0  0
   -2.9380   19.9840  -31.5020 H   0  0  0  0  0  0  0  0  0  0  0  0
   -9.1180   19.1940  -33.5890 H   0  0  0  0  0  0  0  0  0  0  0  0
  -10.4909   20.7482  -32.3723 H   0  0  0  0  0  0  0  0  0  0  0  0
   -5.9267   25.0379  -31.2335 H   0  0  0  0  0  0  0  0  0  0  0  0
   -4.0441   25.9686  -29.9887 H   0  0  0  0  0  0  0  0  0  0  0  0
   -0.5180   24.2637  -28.4252 H   0  0  0  0  0  0  0  0  0  0  0  0
   -1.2782   25.0293  -29.8277 H   0  0  0  0  0  0  0  0  0  0  0  0
    0.0105   26.7853  -28.7089 H   0  0  0  0  0  0  0  0  0  0  0  0
   -1.6857   27.1118  -28.2859 H   0  0  0  0  0  0  0  0  0  0  0  0
   -0.3102   27.2663  -25.0066 H   0  0  0  0  0  0  0  0  0  0  0  0
    0.7275   27.8071  -26.3695 H   0  0  0  0  0  0  0  0  0  0  0  0
   -1.0273   28.1910  -26.3695 H   0  0  0  0  0  0  0  0  0  0  0  0
   -0.8719   24.3698  -25.9362 H   0  0  0  0  0  0  0  0  0  0  0  0
   -1.6512   25.8387  -25.1389 H   0  0  0  0  0  0  0  0  0  0  0  0
   -3.1770   24.1500  -26.2492 H   0  0  0  0  0  0  0  0  0  0  0  0
   -3.3689   25.9042  -26.6423 H   0  0  0  0  0  0  0  0  0  0  0  0
   -3.4619   22.2687  -27.9666 H   0  0  0  0  0  0  0  0  0  0  0  0
   -5.3369   21.2602  -29.1706 H   0  0  0  0  0  0  0  0  0  0  0  0
   -4.0251   22.1689  -31.2189 H   0  0  0  0  0  0  0  0  0  0  0  0
   -3.2045   21.7193  -32.7523 H   0  0  0  0  0  0  0  0  0  0  0  0
   -4.4747   22.9895  -32.7523 H   0  0  0  0  0  0  0  0  0  0  0  0
  1  2  1  0
  2  3  1  0
  3  4  1  0
  4  5  1  0
  5  6  1  0
  6  7  2  0
  6  8  1  0
  8  9  1  0
  9 10  1  0
 10 11  1  0
 11 12  1  0
 12 13  2  0
 13 14  1  0
 14 15  2  0
 15 16  1  0
 16 17  2  0
 17 18  1  0
 18 19  2  0
 19 20  1  0
 20 21  1  0
 21 22  1  0
 22 23  1  0
 23 24  1  0
 23 25  1  0
 25 26  1  0
 19 27  1  0
 27 28  2  0
 14 29  1  0
 29 30  1  0
 30 31  1  0
 30  8  2  0
 29 10  2  0
 28 16  1  0
 26 20  1  0
  1 32  1  0
  1 33  1  0
  1 34  1  0
  3 35  1  0
  3 36  1  0
  4 37  1  0
  4 38  1  0
  5 39  1  0
 11 40  1  0
 12 41  1  0
 17 42  1  0
 18 43  1  0
 21 44  1  0
 21 45  1  0
 22 46  1  0
 22 47  1  0
 24 48  1  0
 24 49  1  0
 24 50  1  0
 25 51  1  0
 25 52  1  0
 26 53  1  0
 26 54  1  0
 27 55  1  0
 28 56  1  0
 31 57  1  0
 31 58  1  0
 31 59  1  0
M  END
>  <smiles>  (18) 
COCCNC(=O)c1sc2[nH]cnc(=Nc3ccc(N4CCN(C)CC4)cc3)c2c1C

>  <score_type>  (18) 
oracle

>  <origin>  (18) 
adgpu

>  <m_score__min__energy>  (18) 
-9.2599999999999998

>  <m_primary>  (18) 
energy

$$$$
18:0
     RDKit          3D

 45 47  0  0  0  0  0  0  0  0999 V2000
   -6.1570   26.1260  -29.5010 N   0  0  0  0  0  0  0  0  0  0  0  0
   -5.9160   24.8590  -30.1270 C   0  0  0  0  0  0  0  0  0  0  0  0
   -7.0040   24.0400  -30.4680 C   0  0  0  0  0  0  0  0  0  0  0  0
   -6.7930   22.8000  -31.0740 C   0  0  0  0  0  0  0  0  0  0  0  0
   -5.4950   22.3690  -31.3630 C   0  0  0  0  0  0  0  0  0  0  0  0
   -5.2440   20.8050  -32.1330 S   0  0  0  0  0  0  0  0  0  0  0  0
   -4.9640   20.9950  -33.6000 O   0  0  0  0  0  0  0  0  0  0  0  0
   -4.0600   20.1380  -31.4890 O   0  0  0  0  0  0  0  0  0  0  0  0
   -6.6680   19.8160  -31.9320 N   0  0  0  0  0  0  0  0  0  0  0  0
   -7.7400   20.2900  -32.8220 C   0  0  0  0  0  0  0  0  0  0  0  0
   -9.0650   19.5770  -32.4920 C   0  0  0  0  0  0  0  0  0  0  0  0
   -8.8450   18.2130  -31.8170 C   0  0  0  0  0  0  0  0  0  0  0  0
   -7.5970   17.5210  -32.3700 C   0  0  0  0  0  0  0  0  0  0  0  0
   -6.3380   18.4020  -32.2110 C   0  0  0  0  0  0  0  0  0  0  0  0
   -4.4040   23.1800  -31.0280 C   0  0  0  0  0  0  0  0  0  0  0  0
   -4.6040   24.4180  -30.3880 C   0  0  0  0  0  0  0  0  0  0  0  0
   -3.4890   25.2550  -30.0410 N   0  0  0  0  0  0  0  0  0  0  0  0
   -2.3120   24.8480  -29.3280 C   0  0  0  0  0  0  0  0  0  0  0  0
   -1.4950   25.7350  -28.9600 O   0  0  0  0  0  0  0  0  0  0  0  0
   -2.0580   23.4330  -28.9710 C   0  0  0  0  0  0  0  0  0  0  0  0
   -2.5510   22.8930  -27.7700 C   0  0  0  0  0  0  0  0  0  0  0  0
   -2.3130   21.5540  -27.4470 C   0  0  0  0  0  0  0  0  0  0  0  0
   -1.5730   20.7440  -28.3130 C   0  0  0  0  0  0  0  0  0  0  0  0
   -1.0640   21.2750  -29.5020 C   0  0  0  0  0  0  0  0  0  0  0  0
   -0.1310   20.2590  -30.5860 Cl  0  0  0  0  0  0  0  0  0  0  0  0
   -1.3010   22.6150  -29.8280 C   0  0  0  0  0  0  0  0  0  0  0  0
   -7.1220   26.4390  -29.2550 H   0  0  0  0  0  0  0  0  0  0  0  0
   -5.3650   26.7660  -29.2770 H   0  0  0  0  0  0  0  0  0  0  0  0
   -8.0294   24.3774  -30.2564 H   0  0  0  0  0  0  0  0  0  0  0  0
   -7.6515   22.1597  -31.3250 H   0  0  0  0  0  0  0  0  0  0  0  0
   -7.8688   21.3743  -32.6891 H   0  0  0  0  0  0  0  0  0  0  0  0
   -7.4643   20.0675  -33.8634 H   0  0  0  0  0  0  0  0  0  0  0  0
   -9.6507   20.2159  -31.8146 H   0  0  0  0  0  0  0  0  0  0  0  0
   -9.5956   19.4005  -33.4393 H   0  0  0  0  0  0  0  0  0  0  0  0
   -8.7227   18.3633  -30.7342 H   0  0  0  0  0  0  0  0  0  0  0  0
   -9.7181   17.5762  -32.0221 H   0  0  0  0  0  0  0  0  0  0  0  0
   -7.4425   16.5770  -31.8269 H   0  0  0  0  0  0  0  0  0  0  0  0
   -7.7538   17.3370  -33.4431 H   0  0  0  0  0  0  0  0  0  0  0  0
   -5.7356   18.0095  -31.3785 H   0  0  0  0  0  0  0  0  0  0  0  0
   -5.7848   18.3691  -33.1612 H   0  0  0  0  0  0  0  0  0  0  0  0
   -3.3830   22.8475  -31.2666 H   0  0  0  0  0  0  0  0  0  0  0  0
   -3.1272   23.5278  -27.0808 H   0  0  0  0  0  0  0  0  0  0  0  0
   -2.7089   21.1369  -26.5093 H   0  0  0  0  0  0  0  0  0  0  0  0
   -1.3912   19.6892  -28.0592 H   0  0  0  0  0  0  0  0  0  0  0  0
   -0.8924   23.0310  -30.7607 H   0  0  0  0  0  0  0  0  0  0  0  0
  1  2  1  0
  2  3  2  0
  3  4  1  0
  4  5  2  0
  5  6  1  0
  6  7  2  0
  6  8  2  0
  6  9  1  0
  9 10  1  0
 10 11  1  0
 11 12  1  0
 12 13  1  0
 13 14  1  0
  5 15  1  0
 15 16  2  0
 16 17  1  0
 17 18  1  0
 18 19  2  0
 18 20  1  0
 20 21  2  0
 21 22  1  0
 22 23  2  0
 23 24  1  0
 24 25  1  0
 24 26  2  0
 16  2  1  0
 26 20  1  0
 14  9  1  0
  1 27  1  0
  1 28  1  0
  3 29  1  0
  4 30  1  0
 10 31  1  0
 10 32  1  0
 11 33  1  0
 11 34  1  0
 12 35  1  0
 12 36  1  0
 13 37  1  0
 13 38  1  0
 14 39  1  0
 14 40  1  0
 15 41  1  0
 21 42  1  0
 22 43  1  0
 23 44  1  0
 26 45  1  0
M  CHG  1  17  -1
M  END
>  <UniqueID>  (19) 
17

>  <SMILES>  (19) 
Nc1ccc(S(=O)(=O)N2CCCCC2)cc1[N-]C(=O)c1cccc(Cl)c1

>  <Energy>  (19) 
55.02664875248218

>  <Genealogy>  (19) 
Nc1ccc(S(=O)(=O)N2CCCCC2)cc1[N-]C(=O)c1cccc(Cl)c1 (protonated)
Nc1ccc(S(=O)(=O)N2CCCCC2)cc1[N-]C(=O)c1cccc(Cl)c1 (3D coordinates assigned)
Nc1ccc(S(=O)(=O)N2CCCCC2)cc1[N-]C(=O)c1cccc(Cl)c1 (nonaromatic ring conformer: 55.02664875248218 kcal/mol)

>  <smiles>  (19) 
Nc1ccc(S(=O)(=O)N2CCCCC2)cc1NC(=O)c1cccc(Cl)c1

>  <score_type>  (19) 
oracle

>  <origin>  (19) 
adgpu

>  <m_score__min__energy>  (19) 
-11.300000000000001

>  <m_primary>  (19) 
energy

$$$$
19:0
     RDKit          3D

 52 54  0  0  0  0  0  0  0  0999 V2000
   -7.7410   18.5910  -31.6650 C   0  0  0  0  0  0  0  0  0  0  0  0
   -8.1580   19.9300  -32.0870 N   0  0  0  0  0  0  0  0  0  0  0  0
   -9.4880   20.0930  -32.6740 C   0  0  0  0  0  0  0  0  0  0  0  0
   -7.4450   21.0820  -31.6020 C   0  0  0  0  0  0  0  0  0  0  0  0
   -8.0790   21.9820  -30.7330 C   0  0  0  0  0  0  0  0  0  0  0  0
   -7.3960   23.0980  -30.2460 C   0  0  0  0  0  0  0  0  0  0  0  0
   -6.0730   23.3400  -30.6350 C   0  0  0  0  0  0  0  0  0  0  0  0
   -5.2270   24.7780  -30.0560 S   0  0  0  0  0  0  0  0  0  0  0  0
   -4.8760   25.6520  -31.2290 O   0  0  0  0  0  0  0  0  0  0  0  0
   -6.1400   25.5590  -29.1520 O   0  0  0  0  0  0  0  0  0  0  0  0
   -3.7710   24.3590  -29.1820 N   0  0  0  0  0  0  0  0  0  0  0  0
   -4.0800   23.7150  -27.8810 C   0  0  0  0  0  0  0  0  0  0  0  0
   -3.8750   22.1920  -27.9040 C   0  0  0  0  0  0  0  0  0  0  0  0
   -2.4280   21.8330  -28.2800 C   0  0  0  0  0  0  0  0  0  0  0  0
   -1.7860   22.8600  -29.2300 C   0  0  0  0  0  0  0  0  0  0  0  0
   -2.8530   23.5910  -30.0520 C   0  0  0  0  0  0  0  0  0  0  0  0
   -5.4320   22.4440  -31.5000 C   0  0  0  0  0  0  0  0  0  0  0  0
   -6.1030   21.3060  -31.9790 C   0  0  0  0  0  0  0  0  0  0  0  0
   -5.4630   20.4220  -32.9140 N   0  0  0  0  0  0  0  0  0  0  0  0
   -4.2110   19.7650  -32.6520 C   0  0  0  0  0  0  0  0  0  0  0  0
   -3.5530   20.0500  -31.6140 O   0  0  0  0  0  0  0  0  0  0  0  0
   -3.6780   18.7400  -33.5800 C   0  0  0  0  0  0  0  0  0  0  0  0
   -2.2890   18.5450  -33.6880 C   0  0  0  0  0  0  0  0  0  0  0  0
   -1.7750   17.5720  -34.5520 C   0  0  0  0  0  0  0  0  0  0  0  0
   -2.6390   16.7790  -35.3090 C   0  0  0  0  0  0  0  0  0  0  0  0
   -4.0210   16.9530  -35.2000 C   0  0  0  0  0  0  0  0  0  0  0  0
   -4.5400   17.9250  -34.3400 C   0  0  0  0  0  0  0  0  0  0  0  0
   -7.7255   18.5411  -30.5662 H   0  0  0  0  0  0  0  0  0  0  0  0
   -8.4497   17.8460  -32.0559 H   0  0  0  0  0  0  0  0  0  0  0  0
   -6.7346   18.3802  -32.0559 H   0  0  0  0  0  0  0  0  0  0  0  0
  -10.2344   20.1845  -31.8712 H   0  0  0  0  0  0  0  0  0  0  0  0
   -9.5056   21.0000  -33.2961 H   0  0  0  0  0  0  0  0  0  0  0  0
   -9.7241   19.2171  -33.2961 H   0  0  0  0  0  0  0  0  0  0  0  0
   -9.1227   21.8072  -30.4328 H   0  0  0  0  0  0  0  0  0  0  0  0
   -7.8991   23.7896  -29.5542 H   0  0  0  0  0  0  0  0  0  0  0  0
   -3.4230   24.1460  -27.1112 H   0  0  0  0  0  0  0  0  0  0  0  0
   -5.1421   23.9019  -27.6641 H   0  0  0  0  0  0  0  0  0  0  0  0
   -4.0986   21.7845  -26.9071 H   0  0  0  0  0  0  0  0  0  0  0  0
   -4.5490   21.7605  -28.6586 H   0  0  0  0  0  0  0  0  0  0  0  0
   -1.8279   21.7827  -27.3595 H   0  0  0  0  0  0  0  0  0  0  0  0
   -2.4523   20.8665  -28.8048 H   0  0  0  0  0  0  0  0  0  0  0  0
   -1.2227   23.5954  -28.6369 H   0  0  0  0  0  0  0  0  0  0  0  0
   -1.1161   22.3270  -29.9208 H   0  0  0  0  0  0  0  0  0  0  0  0
   -2.3568   24.2830  -30.7483 H   0  0  0  0  0  0  0  0  0  0  0  0
   -3.4417   22.8412  -30.6009 H   0  0  0  0  0  0  0  0  0  0  0  0
   -4.3929   22.6331  -31.8075 H   0  0  0  0  0  0  0  0  0  0  0  0
   -5.9860   20.1910  -33.7880 H   0  0  0  0  0  0  0  0  0  0  0  0
   -1.6025   19.1616  -33.0892 H   0  0  0  0  0  0  0  0  0  0  0  0
   -0.6872   17.4316  -34.6350 H   0  0  0  0  0  0  0  0  0  0  0  0
   -2.2321   16.0177  -35.9908 H   0  0  0  0  0  0  0  0  0  0  0  0
   -4.7019   16.3239  -35.7921 H   0  0  0  0  0  0  0  0  0  0  0  0
   -5.6291   18.0545  -34.2560 H   0  0  0  0  0  0  0  0  0  0  0  0
  1  2  1  0
  2  3  1  0
  2  4  1  0
  4  5  2  0
  5  6  1  0
  6  7  2  0
  7  8  1  0
  8  9  2  0
  8 10  2  0
  8 11  1  0
 11 12  1  0
 12 13  1  0
 13 14  1  0
 14 15  1  0
 15 16  1  0
  7 17  1  0
 17 18  2  0
 18 19  1  0
 19 20  1  0
 20 21  2  0
 20 22  1  0
 22 23  2  0
 23 24  1  0
 24 25  2  0
 25 26  1  0
 26 27  2  0
 18  4  1  0
 27 22  1  0
 16 11  1  0
  1 28  1  0
  1 29  1  0
  1 30  1  0
  3 31  1  0
  3 32  1  0
  3 33  1  0
  5 34  1  0
  6 35  1  0
 12 36  1  0
 12 37  1  0
 13 38  1  0
 13 39  1  0
 14 40  1  0
 14 41  1  0
 15 42  1  0
 15 43  1  0
 16 44  1  0
 16 45  1  0
 17 46  1  0
 19 47  1  0
 23 48  1  0
 24 49  1  0
 25 50  1  0
 26 51  1  0
 27 52  1  0
M  END
>  <UniqueID>  (20) 
18

>  <SMILES>  (20) 
CN(C)c1ccc(S(=O)(=O)N2CCCCC2)cc1NC(=O)c1ccccc1

>  <Energy>  (20) 
67.2975494664285

>  <Genealogy>  (20) 
CN(C)c1ccc(S(=O)(=O)N2CCCCC2)cc1NC(=O)c1ccccc1 (3D coordinates assigned)
CN(C)c1ccc(S(=O)(=O)N2CCCCC2)cc1NC(=O)c1ccccc1 (nonaromatic ring conformer: 67.2975494664285 kcal/mol)

>  <smiles>  (20) 
CN(C)c1ccc(S(=O)(=O)N2CCCCC2)cc1NC(=O)c1ccccc1

>  <score_type>  (20) 
oracle

>  <origin>  (20) 
adgpu

>  <m_score__min__energy>  (20) 
-8.9299999999999997

>  <m_primary>  (20) 
energy

$$$$
20:0
     RDKit          3D

 30 31  0  0  0  0  0  0  0  0999 V2000
   -2.9149   19.9401  -30.7314 H   0  0  0  0  0  0  0  0  0  0  0  0
   -3.6180   20.7860  -30.7340 C   0  0  0  0  0  0  0  0  0  0  0  0
   -3.1150   22.1010  -30.2820 C   0  0  0  0  0  0  0  0  0  0  0  0
   -2.0950   22.2030  -29.3200 C   0  0  0  0  0  0  0  0  0  0  0  0
   -1.6337   21.2919  -28.9113 H   0  0  0  0  0  0  0  0  0  0  0  0
   -1.6650   23.4590  -28.8810 C   0  0  0  0  0  0  0  0  0  0  0  0
   -0.8554   23.5335  -28.1401 H   0  0  0  0  0  0  0  0  0  0  0  0
   -2.2610   24.6200  -29.3810 C   0  0  0  0  0  0  0  0  0  0  0  0
   -1.8280   25.8650  -28.9410 O   0  0  0  0  0  0  0  0  0  0  0  0
   -3.2980   24.5250  -30.3170 C   0  0  0  0  0  0  0  0  0  0  0  0
   -3.9020   25.6750  -30.8100 O   0  0  0  0  0  0  0  0  0  0  0  0
   -3.7290   23.2680  -30.7580 C   0  0  0  0  0  0  0  0  0  0  0  0
   -4.5540   23.1957  -31.4820 H   0  0  0  0  0  0  0  0  0  0  0  0
   -4.8730   20.5540  -31.1470 C   0  0  0  0  0  0  0  0  0  0  0  0
   -5.4180   19.0660  -31.6960 S   0  0  0  0  0  0  0  0  0  0  0  0
   -7.0250   19.5060  -31.9850 C   0  0  0  0  0  0  0  0  0  0  0  0
   -7.9700   18.6560  -32.4670 C   0  0  0  0  0  0  0  0  0  0  0  0
   -9.3940   19.0870  -32.7120 C   0  0  0  0  0  0  0  0  0  0  0  0
   -9.9016   19.2406  -31.7483 H   0  0  0  0  0  0  0  0  0  0  0  0
   -9.3995   20.0270  -33.2832 H   0  0  0  0  0  0  0  0  0  0  0  0
   -9.9198   18.3078  -33.2832 H   0  0  0  0  0  0  0  0  0  0  0  0
   -7.6020   17.2250  -32.7770 C   0  0  0  0  0  0  0  0  0  0  0  0
   -7.4596   16.6712  -31.8373 H   0  0  0  0  0  0  0  0  0  0  0  0
   -8.4090   16.7569  -33.3598 H   0  0  0  0  0  0  0  0  0  0  0  0
   -6.6693   17.2043  -33.3598 H   0  0  0  0  0  0  0  0  0  0  0  0
   -7.1430   20.8660  -31.6270 C   0  0  0  0  0  0  0  0  0  0  0  0
   -8.3450   21.6610  -31.6920 C   0  0  0  0  0  0  0  0  0  0  0  0
   -9.3050   22.3050  -31.7400 N   0  0  0  0  0  0  0  0  0  0  0  0
   -5.9490   21.4380  -31.1600 C   0  0  0  0  0  0  0  0  0  0  0  0
   -5.8707   22.4859  -30.8349 H   0  0  0  0  0  0  0  0  0  0  0  0
  1  2  1  0
  2  3  1  0
  3  4  2  0
  4  5  1  0
  4  6  1  0
  6  7  1  0
  6  8  2  0
  8  9  1  0
  8 10  1  0
 10 11  1  0
 10 12  2  0
 12 13  1  0
  2 14  2  0
 14 15  1  0
 15 16  1  0
 16 17  2  3
 17 18  1  0
 18 19  1  0
 18 20  1  0
 18 21  1  0
 17 22  1  0
 22 23  1  0
 22 24  1  0
 22 25  1  0
 16 26  1  0
 26 27  1  0
 27 28  3  0
 26 29  2  0
 29 30  1  0
 12  3  1  0
 29 14  1  0
M  CHG  2   9  -1  11  -1
M  END
>  <UniqueID>  (21) 
19

>  <SMILES>  (21) 
CC(C)=c1s/c(=C/c2ccc([O-])c([O-])c2)cc1C#N

>  <Energy>  (21) 
65.04071768117623

>  <Genealogy>  (21) 
CC(C)=c1sc(=Cc2ccc([O-])c([O-])c2)cc1C#N (protonated)
CC(C)=c1s/c(=C/c2ccc([O-])c([O-])c2)cc1C#N (cis-trans isomerization)
CC(C)=c1s/c(=C/c2ccc([O-])c([O-])c2)cc1C#N (3D coordinates assigned)
CC(C)=c1s/c(=C/c2ccc([O-])c([O-])c2)cc1C#N (optimized conformer: 65.04071768117623 kcal/mol)

>  <smiles>  (21) 
CC(C)=c1sc(=Cc2ccc(O)c(O)c2)cc1C#N

>  <score_type>  (21) 
oracle

>  <origin>  (21) 
adgpu

>  <m_score__min__energy>  (21) 
-13.369999999999999

>  <m_primary>  (21) 
energy

$$$$
21:0
     RDKit          3D

 48 50  0  0  0  0  0  0  0  0999 V2000
   -9.1570   18.1730  -31.6440 C   0  0  0  0  0  0  0  0  0  0  0  0
   -8.0250   19.1260  -31.8920 C   0  0  0  0  0  0  0  0  0  0  0  0
   -6.7800   18.6480  -32.3290 C   0  0  0  0  0  0  0  0  0  0  0  0
   -5.7140   19.5310  -32.5240 C   0  0  0  0  0  0  0  0  0  0  0  0
   -5.8760   20.9000  -32.2670 C   0  0  0  0  0  0  0  0  0  0  0  0
   -4.5400   22.0150  -32.5270 S   0  0  0  0  0  0  0  0  0  0  0  0
   -3.9020   21.7290  -33.8580 O   0  0  0  0  0  0  0  0  0  0  0  0
   -5.0560   23.4270  -32.5170 O   0  0  0  0  0  0  0  0  0  0  0  0
   -3.3790   21.8010  -31.2570 N   0  0  0  0  0  0  0  0  0  0  0  0
   -3.3300   22.5660  -30.0460 C   0  0  0  0  0  0  0  0  0  0  0  0
   -3.9210   22.1160  -28.8520 C   0  0  0  0  0  0  0  0  0  0  0  0
   -3.8470   22.8940  -27.6940 C   0  0  0  0  0  0  0  0  0  0  0  0
   -3.1750   24.1260  -27.7020 C   0  0  0  0  0  0  0  0  0  0  0  0
   -3.1080   24.9290  -26.4610 C   0  0  0  0  0  0  0  0  0  0  0  0
   -4.1850   25.3010  -25.9210 O   0  0  0  0  0  0  0  0  0  0  0  0
   -1.8500   25.2910  -25.8590 N   0  0  0  0  0  0  0  0  0  0  0  0
   -0.7360   24.3370  -25.8090 C   0  0  0  0  0  0  0  0  0  0  0  0
    0.6090   25.0520  -26.0410 C   0  0  0  0  0  0  0  0  0  0  0  0
    0.6790   26.4250  -25.4760 N   0  0  0  0  0  0  0  0  0  0  0  0
    0.7170   27.4540  -26.5300 C   0  0  0  0  0  0  0  0  0  0  0  0
   -0.3640   26.7080  -24.4700 C   0  0  0  0  0  0  0  0  0  0  0  0
   -1.7770   26.5050  -25.0370 C   0  0  0  0  0  0  0  0  0  0  0  0
   -2.6050   24.5870  -28.9040 C   0  0  0  0  0  0  0  0  0  0  0  0
   -1.9850   25.8300  -28.9680 O   0  0  0  0  0  0  0  0  0  0  0  0
   -2.6770   23.8030  -30.0610 C   0  0  0  0  0  0  0  0  0  0  0  0
   -7.1160   21.3780  -31.8210 C   0  0  0  0  0  0  0  0  0  0  0  0
   -8.1820   20.4950  -31.6250 C   0  0  0  0  0  0  0  0  0  0  0  0
   -9.3025   18.0505  -30.5606 H   0  0  0  0  0  0  0  0  0  0  0  0
  -10.0776   18.5720  -32.0948 H   0  0  0  0  0  0  0  0  0  0  0  0
   -8.9208   17.1978  -32.0948 H   0  0  0  0  0  0  0  0  0  0  0  0
   -6.6423   17.5733  -32.5190 H   0  0  0  0  0  0  0  0  0  0  0  0
   -4.7452   19.1508  -32.8801 H   0  0  0  0  0  0  0  0  0  0  0  0
   -4.4433   21.1482  -28.8297 H   0  0  0  0  0  0  0  0  0  0  0  0
   -4.3200   22.5375  -26.7671 H   0  0  0  0  0  0  0  0  0  0  0  0
   -0.7208   23.8520  -24.8218 H   0  0  0  0  0  0  0  0  0  0  0  0
   -0.8780   23.5880  -26.6020 H   0  0  0  0  0  0  0  0  0  0  0  0
    1.4039   24.4485  -25.5785 H   0  0  0  0  0  0  0  0  0  0  0  0
    0.7271   25.1538  -27.1299 H   0  0  0  0  0  0  0  0  0  0  0  0
    0.7538   28.4514  -26.0675 H   0  0  0  0  0  0  0  0  0  0  0  0
    1.6103   27.3062  -27.1546 H   0  0  0  0  0  0  0  0  0  0  0  0
   -0.1848   27.3725  -27.1546 H   0  0  0  0  0  0  0  0  0  0  0  0
   -0.2242   26.0325  -23.6132 H   0  0  0  0  0  0  0  0  0  0  0  0
   -0.2670   27.7605  -24.1653 H   0  0  0  0  0  0  0  0  0  0  0  0
   -2.4890   26.4170  -24.2031 H   0  0  0  0  0  0  0  0  0  0  0  0
   -2.0258   27.3696  -25.6699 H   0  0  0  0  0  0  0  0  0  0  0  0
   -2.2152   24.1633  -30.9921 H   0  0  0  0  0  0  0  0  0  0  0  0
   -7.2508   22.4519  -31.6245 H   0  0  0  0  0  0  0  0  0  0  0  0
   -9.1477   20.8747  -31.2600 H   0  0  0  0  0  0  0  0  0  0  0  0
  1  2  1  0
  2  3  2  0
  3  4  1  0
  4  5  2  0
  5  6  1  0
  6  7  2  0
  6  8  2  0
  6  9  1  0
  9 10  1  0
 10 11  2  0
 11 12  1  0
 12 13  2  0
 13 14  1  0
 14 15  2  0
 14 16  1  0
 16 17  1  0
 17 18  1  0
 18 19  1  0
 19 20  1  0
 19 21  1  0
 21 22  1  0
 13 23  1  0
 23 24  1  0
 23 25  2  0
  5 26  1  0
 26 27  2  0
 27  2  1  0
 25 10  1  0
 22 16  1  0
  1 28  1  0
  1 29  1  0
  1 30  1  0
  3 31  1  0
  4 32  1  0
 11 33  1  0
 12 34  1  0
 17 35  1  0
 17 36  1  0
 18 37  1  0
 18 38  1  0
 20 39  1  0
 20 40  1  0
 20 41  1  0
 21 42  1  0
 21 43  1  0
 22 44  1  0
 22 45  1  0
 25 46  1  0
 26 47  1  0
 27 48  1  0
M  CHG  2   9  -1  24  -1
M  END
>  <UniqueID>  (22) 
20

>  <SMILES>  (22) 
Cc1ccc(S(=O)(=O)[N-]c2ccc(C(=O)N3CCN(C)CC3)c([O-])c2)cc1

>  <Energy>  (22) 
66.02717707063034

>  <Genealogy>  (22) 
Cc1ccc(S(=O)(=O)[N-]c2ccc(C(=O)N3CCN(C)CC3)c([O-])c2)cc1 (protonated)
Cc1ccc(S(=O)(=O)[N-]c2ccc(C(=O)N3CCN(C)CC3)c([O-])c2)cc1 (3D coordinates assigned)
Cc1ccc(S(=O)(=O)[N-]c2ccc(C(=O)N3CCN(C)CC3)c([O-])c2)cc1 (nonaromatic ring conformer: 66.02717707063034 kcal/mol)

>  <smiles>  (22) 
Cc1ccc(S(=O)(=O)Nc2ccc(C(=O)N3CCN(C)CC3)c(O)c2)cc1

>  <score_type>  (22) 
oracle

>  <origin>  (22) 
adgpu

>  <m_score__min__energy>  (22) 
-12.529999999999999

>  <m_primary>  (22) 
energy

$$$$
22:0
     RDKit          3D

 48 50  0  0  0  0  0  0  0  0999 V2000
   -2.9060   19.8070  -33.0630 C   0  0  0  0  0  0  0  0  0  0  0  0
   -2.2930   21.1470  -33.4590 C   0  0  0  0  0  0  0  0  0  0  0  0
   -0.7990   21.1580  -33.2540 C   0  0  0  0  0  0  0  0  0  0  0  0
   -0.0530   21.5680  -34.1850 O   0  0  0  0  0  0  0  0  0  0  0  0
   -0.2010   20.8060  -31.9990 N   0  0  0  0  0  0  0  0  0  0  0  0
   -0.6660   21.2440  -30.7190 C   0  0  0  0  0  0  0  0  0  0  0  0
   -1.2560   22.5090  -30.6050 C   0  0  0  0  0  0  0  0  0  0  0  0
   -1.7120   22.9680  -29.3610 C   0  0  0  0  0  0  0  0  0  0  0  0
   -2.4720   24.5500  -29.2040 S   0  0  0  0  0  0  0  0  0  0  0  0
   -3.1310   24.7020  -27.8610 O   0  0  0  0  0  0  0  0  0  0  0  0
   -1.4170   25.6100  -29.3360 O   0  0  0  0  0  0  0  0  0  0  0  0
   -3.6510   24.7630  -30.4570 N   0  0  0  0  0  0  0  0  0  0  0  0
   -4.8500   23.9940  -30.6120 C   0  0  0  0  0  0  0  0  0  0  0  0
   -4.7940   22.8070  -31.3530 C   0  0  0  0  0  0  0  0  0  0  0  0
   -5.9450   22.0400  -31.5540 C   0  0  0  0  0  0  0  0  0  0  0  0
   -7.1680   22.4480  -31.0090 C   0  0  0  0  0  0  0  0  0  0  0  0
   -8.6160   21.4890  -31.2970 S   0  0  0  0  0  0  0  0  0  0  0  0
   -9.6760   21.8890  -30.3110 O   0  0  0  0  0  0  0  0  0  0  0  0
   -9.1120   21.7190  -32.6980 O   0  0  0  0  0  0  0  0  0  0  0  0
   -8.2220   19.8100  -31.0990 N   0  0  0  0  0  0  0  0  0  0  0  0
   -7.5620   19.1050  -31.9670 C   0  0  0  0  0  0  0  0  0  0  0  0
   -7.0590   19.5420  -33.1800 C   0  0  0  0  0  0  0  0  0  0  0  0
   -6.4600   18.4090  -33.6870 C   0  0  0  0  0  0  0  0  0  0  0  0
   -5.7300   18.3060  -34.9840 C   0  0  0  0  0  0  0  0  0  0  0  0
   -6.6080   17.4210  -32.8340 O   0  0  0  0  0  0  0  0  0  0  0  0
   -7.2730   17.8040  -31.7810 N   0  0  0  0  0  0  0  0  0  0  0  0
   -7.2280   23.6250  -30.2500 C   0  0  0  0  0  0  0  0  0  0  0  0
   -6.0780   24.3950  -30.0510 C   0  0  0  0  0  0  0  0  0  0  0  0
   -1.5610   22.1610  -28.2270 C   0  0  0  0  0  0  0  0  0  0  0  0
   -0.9560   20.9060  -28.3330 C   0  0  0  0  0  0  0  0  0  0  0  0
   -0.5010   20.4440  -29.5720 C   0  0  0  0  0  0  0  0  0  0  0  0
    0.3180   18.8910  -29.6500 Cl  0  0  0  0  0  0  0  0  0  0  0  0
   -2.9413   19.7298  -31.9663 H   0  0  0  0  0  0  0  0  0  0  0  0
   -3.9260   19.7362  -33.4686 H   0  0  0  0  0  0  0  0  0  0  0  0
   -2.2926   18.9890  -33.4686 H   0  0  0  0  0  0  0  0  0  0  0  0
   -2.5088   21.3382  -34.5206 H   0  0  0  0  0  0  0  0  0  0  0  0
   -2.7329   21.9278  -32.8211 H   0  0  0  0  0  0  0  0  0  0  0  0
   -1.3622   23.1456  -31.4957 H   0  0  0  0  0  0  0  0  0  0  0  0
   -3.8362   22.4755  -31.7804 H   0  0  0  0  0  0  0  0  0  0  0  0
   -5.8895   21.1124  -32.1426 H   0  0  0  0  0  0  0  0  0  0  0  0
   -7.1217   20.5446  -33.6282 H   0  0  0  0  0  0  0  0  0  0  0  0
   -4.6578   18.1547  -34.7903 H   0  0  0  0  0  0  0  0  0  0  0  0
   -6.1225   17.4543  -35.5590 H   0  0  0  0  0  0  0  0  0  0  0  0
   -5.8715   19.2330  -35.5590 H   0  0  0  0  0  0  0  0  0  0  0  0
   -8.1839   23.9442  -29.8091 H   0  0  0  0  0  0  0  0  0  0  0  0
   -6.1326   25.3173  -29.4541 H   0  0  0  0  0  0  0  0  0  0  0  0
   -1.9197   22.5160  -27.2496 H   0  0  0  0  0  0  0  0  0  0  0  0
   -0.8370   20.2783  -27.4375 H   0  0  0  0  0  0  0  0  0  0  0  0
  1  2  1  0
  2  3  1  0
  3  4  2  0
  3  5  1  0
  5  6  1  0
  6  7  2  0
  7  8  1  0
  8  9  1  0
  9 10  2  0
  9 11  2  0
  9 12  1  0
 12 13  1  0
 13 14  2  0
 14 15  1  0
 15 16  2  0
 16 17  1  0
 17 18  2  0
 17 19  2  0
 17 20  1  0
 20 21  2  3
 21 22  1  0
 22 23  2  0
 23 24  1  0
 23 25  1  0
 25 26  1  0
 16 27  1  0
 27 28  2  0
  8 29  2  0
 29 30  1  0
 30 31  2  0
 31 32  1  0
 31  6  1  0
 28 13  1  0
 26 21  1  0
  1 33  1  0
  1 34  1  0
  1 35  1  0
  2 36  1  0
  2 37  1  0
  7 38  1  0
 14 39  1  0
 15 40  1  0
 22 41  1  0
 24 42  1  0
 24 43  1  0
 24 44  1  0
 27 45  1  0
 28 46  1  0
 29 47  1  0
 30 48  1  0
M  CHG  3   5  -1  12  -1  26  -1
M  END
>  <UniqueID>  (23) 
21

>  <SMILES>  (23) 
CCC(=O)[N-]c1cc(S(=O)(=O)[N-]c2ccc(S(=O)(=O)N=c3cc(C)o[n-]3)cc2)ccc1Cl

>  <Energy>  (23) 
92.39699516243002

>  <Genealogy>  (23) 
CCC(=O)[N-]c1cc(S(=O)(=O)[N-]c2ccc(S(=O)(=O)N=c3cc(C)o[n-]3)cc2)ccc1Cl (protonated)
CCC(=O)[N-]c1cc(S(=O)(=O)[N-]c2ccc(S(=O)(=O)N=c3cc(C)o[n-]3)cc2)ccc1Cl (3D coordinates assigned)
CCC(=O)[N-]c1cc(S(=O)(=O)[N-]c2ccc(S(=O)(=O)N=c3cc(C)o[n-]3)cc2)ccc1Cl (optimized conformer: 92.39699516243002 kcal/mol)

>  <smiles>  (23) 
CCC(=O)Nc1cc(S(=O)(=O)Nc2ccc(S(=O)(=O)N=c3cc(C)o[nH]3)cc2)ccc1Cl

>  <score_type>  (23) 
oracle

>  <origin>  (23) 
adgpu

>  <m_score__min__energy>  (23) 
-11.84

>  <m_primary>  (23) 
energy

$$$$
23:0
     RDKit          3D

 48 50  0  0  0  0  0  0  0  0999 V2000
   -0.4680   22.8900  -25.8200 C   0  0  0  0  0  0  0  0  0  0  0  0
   -0.2990   22.8010  -27.2320 O   0  0  0  0  0  0  0  0  0  0  0  0
   -1.3490   22.7660  -28.1650 C   0  0  0  0  0  0  0  0  0  0  0  0
   -1.8960   23.9520  -28.6970 C   0  0  0  0  0  0  0  0  0  0  0  0
   -2.9530   23.9090  -29.6120 C   0  0  0  0  0  0  0  0  0  0  0  0
   -3.4860   25.1470  -30.1050 N   0  0  0  0  0  0  0  0  0  0  0  0
   -4.7440   25.3310  -30.7670 C   0  0  0  0  0  0  0  0  0  0  0  0
   -5.4060   26.3900  -30.6070 O   0  0  0  0  0  0  0  0  0  0  0  0
   -5.2930   24.2850  -31.5730 N   0  0  0  0  0  0  0  0  0  0  0  0
   -6.5910   23.6590  -31.3250 C   0  0  2  0  0  0  0  0  0  0  0  0
   -6.8830   23.6140  -29.8230 C   0  0  0  0  0  0  0  0  0  0  0  0
   -6.6000   22.2610  -31.9030 C   0  0  0  0  0  0  0  0  0  0  0  0
   -5.4460   21.7450  -32.5160 C   0  0  0  0  0  0  0  0  0  0  0  0
   -5.4520   20.4590  -33.0630 C   0  0  0  0  0  0  0  0  0  0  0  0
   -6.6130   19.6830  -33.0190 C   0  0  0  0  0  0  0  0  0  0  0  0
   -7.7820   20.1920  -32.4370 C   0  0  0  0  0  0  0  0  0  0  0  0
   -9.0210   19.3510  -32.3570 C   0  0  0  0  0  0  0  0  0  0  0  0
   -7.7680   21.4770  -31.8710 C   0  0  0  0  0  0  0  0  0  0  0  0
   -3.5000   22.6690  -29.9730 C   0  0  0  0  0  0  0  0  0  0  0  0
   -2.9650   21.4880  -29.4570 C   0  0  0  0  0  0  0  0  0  0  0  0
   -1.8800   21.5190  -28.5630 C   0  0  0  0  0  0  0  0  0  0  0  0
   -1.3230   20.2410  -28.0520 C   0  0  0  0  0  0  0  0  0  0  0  0
   -1.8830   19.4370  -27.0570 C   0  0  0  0  0  0  0  0  0  0  0  0
   -1.2040   18.2880  -26.7940 N   0  0  0  0  0  0  0  0  0  0  0  0
   -0.1010   18.1660  -27.5620 C   0  0  0  0  0  0  0  0  0  0  0  0
    0.7920   16.9710  -27.5370 C   0  0  0  0  0  0  0  0  0  0  0  0
    0.0600   19.4600  -28.6210 S   0  0  0  0  0  0  0  0  0  0  0  0
    0.3979   22.4340  -25.3176 H   0  0  0  0  0  0  0  0  0  0  0  0
   -0.5477   23.9470  -25.5262 H   0  0  0  0  0  0  0  0  0  0  0  0
   -1.3847   22.3577  -25.5262 H   0  0  0  0  0  0  0  0  0  0  0  0
   -1.4856   24.9247  -28.3880 H   0  0  0  0  0  0  0  0  0  0  0  0
   -7.3758   24.2557  -31.8128 H   0  0  0  0  0  0  0  0  0  0  0  0
   -5.9472   23.7582  -29.2631 H   0  0  0  0  0  0  0  0  0  0  0  0
   -7.5926   24.4134  -29.5633 H   0  0  0  0  0  0  0  0  0  0  0  0
   -7.3190   22.6381  -29.5633 H   0  0  0  0  0  0  0  0  0  0  0  0
   -4.5329   22.3564  -32.5657 H   0  0  0  0  0  0  0  0  0  0  0  0
   -4.5405   20.0568  -33.5293 H   0  0  0  0  0  0  0  0  0  0  0  0
   -6.6096   18.6680  -33.4430 H   0  0  0  0  0  0  0  0  0  0  0  0
   -9.2782   19.1764  -31.3018 H   0  0  0  0  0  0  0  0  0  0  0  0
   -9.8513   19.8730  -32.8552 H   0  0  0  0  0  0  0  0  0  0  0  0
   -8.8424   18.3867  -32.8552 H   0  0  0  0  0  0  0  0  0  0  0  0
   -8.6783   21.8743  -31.3983 H   0  0  0  0  0  0  0  0  0  0  0  0
   -4.3538   22.6273  -30.6653 H   0  0  0  0  0  0  0  0  0  0  0  0
   -3.3973   20.5209  -29.7532 H   0  0  0  0  0  0  0  0  0  0  0  0
   -2.8055   19.7126  -26.5249 H   0  0  0  0  0  0  0  0  0  0  0  0
    1.0011   16.6912  -26.4939 H   0  0  0  0  0  0  0  0  0  0  0  0
    0.2972   16.1327  -28.0493 H   0  0  0  0  0  0  0  0  0  0  0  0
    1.7361   17.2080  -28.0493 H   0  0  0  0  0  0  0  0  0  0  0  0
  1  2  1  0
  2  3  1  0
  3  4  2  0
  4  5  1  0
  5  6  1  0
  6  7  1  0
  7  8  2  0
  7  9  1  0
  9 10  1  0
 10 11  1  0
 10 12  1  0
 12 13  2  0
 13 14  1  0
 14 15  2  0
 15 16  1  0
 16 17  1  0
 16 18  2  0
  5 19  2  0
 19 20  1  0
 20 21  2  0
 21 22  1  0
 22 23  2  0
 23 24  1  0
 24 25  2  0
 25 26  1  0
 25 27  1  0
 21  3  1  0
 27 22  1  0
 18 12  1  0
  1 28  1  0
  1 29  1  0
  1 30  1  0
  4 31  1  0
 10 32  1  6
 11 33  1  0
 11 34  1  0
 11 35  1  0
 13 36  1  0
 14 37  1  0
 15 38  1  0
 17 39  1  0
 17 40  1  0
 17 41  1  0
 18 42  1  0
 19 43  1  0
 20 44  1  0
 23 45  1  0
 26 46  1  0
 26 47  1  0
 26 48  1  0
M  CHG  2   6  -1   9  -1
M  END
>  <UniqueID>  (24) 
22

>  <SMILES>  (24) 
COc1cc([N-]C(=O)[N-][C@H](C)c2cccc(C)c2)ccc1-c1cnc(C)s1

>  <Energy>  (24) 
81.11542407557492

>  <Genealogy>  (24) 
COc1cc([N-]C(=O)[N-]C(C)c2cccc(C)c2)ccc1-c1cnc(C)s1 (protonated)
COc1cc([N-]C(=O)[N-][C@H](C)c2cccc(C)c2)ccc1-c1cnc(C)s1 (chirality)
COc1cc([N-]C(=O)[N-][C@H](C)c2cccc(C)c2)ccc1-c1cnc(C)s1 (3D coordinates assigned)
COc1cc([N-]C(=O)[N-][C@H](C)c2cccc(C)c2)ccc1-c1cnc(C)s1 (optimized conformer: 81.11542407557492 kcal/mol)

>  <smiles>  (24) 
COc1cc(NC(=O)NC(C)c2cccc(C)c2)ccc1-c1cnc(C)s1

>  <score_type>  (24) 
oracle

>  <origin>  (24) 
adgpu

>  <m_score__min__energy>  (24) 
-11.06

>  <m_primary>  (24) 
energy

$$$$
24:0
     RDKit          3D

 49 53  0  0  0  0  0  0  0  0999 V2000
   -6.6710   20.0800  -33.1150 C   0  0  0  0  0  0  0  0  0  0  0  0
   -6.6000   21.3910  -32.3900 C   0  0  0  0  0  0  0  0  0  0  0  0
   -7.7590   22.1570  -32.2000 C   0  0  0  0  0  0  0  0  0  0  0  0
   -7.6970   23.3630  -31.4990 C   0  0  0  0  0  0  0  0  0  0  0  0
   -6.4830   23.8060  -30.9690 C   0  0  0  0  0  0  0  0  0  0  0  0
   -5.3170   23.0370  -31.1230 C   0  0  0  0  0  0  0  0  0  0  0  0
   -4.0360   23.5130  -30.5490 C   0  0  0  0  0  0  0  0  0  0  0  0
   -3.6990   24.8200  -30.4300 N   0  0  0  0  0  0  0  0  0  0  0  0
   -2.5870   24.9180  -29.7090 N   0  0  0  0  0  0  0  0  0  0  0  0
   -2.1870   23.6670  -29.4360 C   0  0  0  0  0  0  0  0  0  0  0  0
   -3.0640   22.7540  -29.9210 C   0  0  0  0  0  0  0  0  0  0  0  0
   -3.1480   21.5320  -29.0500 C   0  0  0  0  0  0  0  0  0  0  0  0
   -2.1470   21.9060  -27.9870 C   0  0  0  0  0  0  0  0  0  0  0  0
   -1.8050   21.1860  -26.8440 C   0  0  0  0  0  0  0  0  0  0  0  0
   -0.9020   21.7590  -25.9330 C   0  0  0  0  0  0  0  0  0  0  0  0
   -0.3600   23.0440  -26.1660 C   0  0  0  0  0  0  0  0  0  0  0  0
    0.7400   23.7530  -24.9860 S   0  0  0  0  0  0  0  0  0  0  0  0
    1.0610   22.7110  -23.9510 O   0  0  0  0  0  0  0  0  0  0  0  0
    2.0170   24.1570  -25.6680 O   0  0  0  0  0  0  0  0  0  0  0  0
   -0.0300   25.1360  -24.2340 N   0  0  0  0  0  0  0  0  0  0  0  0
   -1.3380   25.4470  -24.8600 C   0  0  0  0  0  0  0  0  0  0  0  0
   -1.2470   26.5820  -25.8960 C   0  0  0  0  0  0  0  0  0  0  0  0
    0.0110   26.5710  -26.5290 O   0  0  0  0  0  0  0  0  0  0  0  0
    1.0240   26.9510  -25.6140 C   0  0  0  0  0  0  0  0  0  0  0  0
    0.8670   26.3090  -24.2140 C   0  0  0  0  0  0  0  0  0  0  0  0
   -0.7270   23.7620  -27.3210 C   0  0  0  0  0  0  0  0  0  0  0  0
   -1.6060   23.1600  -28.2170 C   0  0  0  0  0  0  0  0  0  0  0  0
   -5.3850   21.8290  -31.8390 C   0  0  0  0  0  0  0  0  0  0  0  0
   -6.7155   19.2589  -32.3844 H   0  0  0  0  0  0  0  0  0  0  0  0
   -7.5716   20.0584  -33.7462 H   0  0  0  0  0  0  0  0  0  0  0  0
   -5.7780   19.9612  -33.7462 H   0  0  0  0  0  0  0  0  0  0  0  0
   -8.7201   21.8067  -32.6045 H   0  0  0  0  0  0  0  0  0  0  0  0
   -8.6070   23.9660  -31.3637 H   0  0  0  0  0  0  0  0  0  0  0  0
   -6.4394   24.7626  -30.4278 H   0  0  0  0  0  0  0  0  0  0  0  0
   -4.1565   21.3957  -28.6325 H   0  0  0  0  0  0  0  0  0  0  0  0
   -2.9480   20.5799  -29.5633 H   0  0  0  0  0  0  0  0  0  0  0  0
   -2.2331   20.1898  -26.6589 H   0  0  0  0  0  0  0  0  0  0  0  0
   -0.6137   21.2023  -25.0292 H   0  0  0  0  0  0  0  0  0  0  0  0
   -0.2060   24.8620  -23.2380 H   0  0  0  0  0  0  0  0  0  0  0  0
   -1.7119   24.5422  -25.3615 H   0  0  0  0  0  0  0  0  0  0  0  0
   -2.0172   25.7803  -24.0615 H   0  0  0  0  0  0  0  0  0  0  0  0
   -2.0342   26.4461  -26.6522 H   0  0  0  0  0  0  0  0  0  0  0  0
   -1.3785   27.5453  -25.3815 H   0  0  0  0  0  0  0  0  0  0  0  0
    1.9975   26.6492  -26.0278 H   0  0  0  0  0  0  0  0  0  0  0  0
    0.9459   28.0400  -25.4802 H   0  0  0  0  0  0  0  0  0  0  0  0
    1.8578   25.9909  -23.8573 H   0  0  0  0  0  0  0  0  0  0  0  0
    0.4228   27.0616  -23.5460 H   0  0  0  0  0  0  0  0  0  0  0  0
   -0.3300   24.7704  -27.5097 H   0  0  0  0  0  0  0  0  0  0  0  0
   -4.4775   21.2210  -31.9688 H   0  0  0  0  0  0  0  0  0  0  0  0
  1  2  1  0
  2  3  2  0
  3  4  1  0
  4  5  2  0
  5  6  1  0
  6  7  1  0
  7  8  2  0
  8  9  1  0
  9 10  1  0
 10 11  2  0
 11 12  1  0
 12 13  1  0
 13 14  2  0
 14 15  1  0
 15 16  2  0
 16 17  1  0
 17 18  2  0
 17 19  2  0
 17 20  1  0
 20 21  1  0
 21 22  1  0
 22 23  1  0
 23 24  1  0
 24 25  1  0
 16 26  1  0
 26 27  2  0
  6 28  2  0
 28  2  1  0
 11  7  1  0
 27 13  1  0
 27 10  1  0
 25 20  1  0
  1 29  1  0
  1 30  1  0
  1 31  1  0
  3 32  1  0
  4 33  1  0
  5 34  1  0
 12 35  1  0
 12 36  1  0
 14 37  1  0
 15 38  1  0
 20 39  1  0
 21 40  1  0
 21 41  1  0
 22 42  1  0
 22 43  1  0
 24 44  1  0
 24 45  1  0
 25 46  1  0
 25 47  1  0
 26 48  1  0
 28 49  1  0
M  CHG  2   9  -1  20   1
M  END
>  <UniqueID>  (25) 
23

>  <SMILES>  (25) 
Cc1cccc(-c2n[n-]c3c2Cc2ccc(S(=O)(=O)[NH+]4CCOCC4)cc2-3)c1

>  <Energy>  (25) 
135.86957480436433

>  <Genealogy>  (25) 
Cc1cccc(-c2n[n-]c3c2Cc2ccc(S(=O)(=O)[NH+]4CCOCC4)cc2-3)c1 (protonated)
Cc1cccc(-c2n[n-]c3c2Cc2ccc(S(=O)(=O)[NH+]4CCOCC4)cc2-3)c1 (3D coordinates assigned)
Cc1cccc(-c2n[n-]c3c2Cc2ccc(S(=O)(=O)[NH+]4CCOCC4)cc2-3)c1 (nonaromatic ring conformer: 135.86957480436433 kcal/mol)

>  <smiles>  (25) 
Cc1cccc(-c2n[nH]c3c2Cc2ccc(S(=O)(=O)N4CCOCC4)cc2-3)c1

>  <score_type>  (25) 
oracle

>  <origin>  (25) 
adgpu

>  <m_score__min__energy>  (25) 
-11.550000000000001

>  <m_primary>  (25) 
energy

$$$$
25:0
     RDKit          3D

 37 39  0  0  0  0  0  0  0  0999 V2000
   -3.3250   16.2380  -34.4100 C   0  0  0  0  0  0  0  0  0  0  0  0
   -3.3540   17.3060  -33.5200 O   0  0  0  0  0  0  0  0  0  0  0  0
   -4.4310   18.0430  -33.1180 C   0  0  0  0  0  0  0  0  0  0  0  0
   -5.2900   17.7060  -32.0970 C   0  0  0  0  0  0  0  0  0  0  0  0
   -6.3730   18.5220  -31.7510 C   0  0  0  0  0  0  0  0  0  0  0  0
   -6.5850   19.6920  -32.4480 C   0  0  0  0  0  0  0  0  0  0  0  0
   -7.6830   20.6080  -32.1700 C   0  0  0  0  0  0  0  0  0  0  0  0
   -7.6220   21.8870  -31.6820 C   0  0  0  0  0  0  0  0  0  0  0  0
   -6.4630   22.6680  -31.3200 C   0  0  0  0  0  0  0  0  0  0  0  0
   -5.1560   22.2610  -31.5530 C   0  0  0  0  0  0  0  0  0  0  0  0
   -4.0960   23.0870  -31.1730 C   0  0  0  0  0  0  0  0  0  0  0  0
   -4.3530   24.3130  -30.5620 C   0  0  0  0  0  0  0  0  0  0  0  0
   -3.3290   25.1650  -30.1700 O   0  0  0  0  0  0  0  0  0  0  0  0
   -5.6470   24.7260  -30.3270 C   0  0  0  0  0  0  0  0  0  0  0  0
   -5.9670   25.9330  -29.7230 O   0  0  0  0  0  0  0  0  0  0  0  0
   -6.7130   23.9030  -30.7050 C   0  0  0  0  0  0  0  0  0  0  0  0
   -8.8830   22.3350  -31.5900 N   0  0  0  0  0  0  0  0  0  0  0  0
   -9.7190   21.4010  -31.9930 N   0  0  0  0  0  0  0  0  0  0  0  0
   -9.0390   20.3180  -32.3610 C   0  0  0  0  0  0  0  0  0  0  0  0
   -9.5540   19.2230  -32.8070 N   0  0  0  0  0  0  0  0  0  0  0  0
   -5.7300   20.0630  -33.4890 C   0  0  0  0  0  0  0  0  0  0  0  0
   -4.6720   19.2380  -33.8070 C   0  0  0  0  0  0  0  0  0  0  0  0
   -3.2993   15.2928  -33.8478 H   0  0  0  0  0  0  0  0  0  0  0  0
   -4.2242   16.2638  -35.0431 H   0  0  0  0  0  0  0  0  0  0  0  0
   -2.4285   16.3125  -35.0431 H   0  0  0  0  0  0  0  0  0  0  0  0
   -5.1213   16.7729  -31.5395 H   0  0  0  0  0  0  0  0  0  0  0  0
   -7.0477   18.2328  -30.9317 H   0  0  0  0  0  0  0  0  0  0  0  0
   -4.9565   21.2924  -32.0347 H   0  0  0  0  0  0  0  0  0  0  0  0
   -3.0586   22.7701  -31.3559 H   0  0  0  0  0  0  0  0  0  0  0  0
   -3.5050   26.0510  -29.7150 H   0  0  0  0  0  0  0  0  0  0  0  0
   -5.4170   26.3080  -28.9560 H   0  0  0  0  0  0  0  0  0  0  0  0
   -7.7484   24.2250  -30.5196 H   0  0  0  0  0  0  0  0  0  0  0  0
   -9.1720   23.2700  -31.2550 H   0  0  0  0  0  0  0  0  0  0  0  0
  -10.7560   21.5030  -32.0190 H   0  0  0  0  0  0  0  0  0  0  0  0
  -10.5820   19.1130  -32.9120 H   0  0  0  0  0  0  0  0  0  0  0  0
   -5.8980   20.9970  -34.0452 H   0  0  0  0  0  0  0  0  0  0  0  0
   -3.9973   19.5271  -34.6262 H   0  0  0  0  0  0  0  0  0  0  0  0
  1  2  1  0
  2  3  1  0
  3  4  2  0
  4  5  1  0
  5  6  2  0
  6  7  1  0
  7  8  2  0
  8  9  1  0
  9 10  2  0
 10 11  1  0
 11 12  2  0
 12 13  1  0
 12 14  1  0
 14 15  1  0
 14 16  2  0
  8 17  1  0
 17 18  1  0
 18 19  1  0
 19 20  2  3
  6 21  1  0
 21 22  2  0
 22  3  1  0
 19  7  1  0
 16  9  1  0
  1 23  1  0
  1 24  1  0
  1 25  1  0
  4 26  1  0
  5 27  1  0
 10 28  1  0
 11 29  1  0
 13 30  1  0
 15 31  1  0
 16 32  1  0
 17 33  1  0
 18 34  1  0
 20 35  1  0
 21 36  1  0
 22 37  1  0
M  END
>  <smiles>  (26) 
COc1ccc(-c2c(-c3ccc(O)c(O)c3)[nH][nH]c2=N)cc1

>  <score_type>  (26) 
oracle

>  <origin>  (26) 
adgpu

>  <m_score__min__energy>  (26) 
-8.0399999999999991

>  <m_primary>  (26) 
energy

$$$$
26:0
     RDKit          3D

 55 58  0  0  0  0  0  0  0  0999 V2000
   -2.1290   12.2320  -31.7140 C   0  0  0  0  0  0  0  0  0  0  0  0
   -3.2430   12.1040  -32.7490 C   0  0  0  0  0  0  0  0  0  0  0  0
   -3.6690   13.4220  -33.2140 N   0  0  0  0  0  0  0  0  0  0  0  0
   -4.3700   14.3490  -32.3680 C   0  0  0  0  0  0  0  0  0  0  0  0
   -4.6060   14.0450  -31.1670 O   0  0  0  0  0  0  0  0  0  0  0  0
   -4.8170   15.6580  -32.8950 C   0  0  0  0  0  0  0  0  0  0  0  0
   -5.4190   16.6110  -32.0550 C   0  0  0  0  0  0  0  0  0  0  0  0
   -5.8210   17.8430  -32.5760 C   0  0  0  0  0  0  0  0  0  0  0  0
   -6.4160   18.7750  -31.7110 O   0  0  0  0  0  0  0  0  0  0  0  0
   -6.1940   20.1580  -31.7680 C   0  0  0  0  0  0  0  0  0  0  0  0
   -4.8760   20.6170  -31.7550 C   0  0  0  0  0  0  0  0  0  0  0  0
   -4.5980   21.9820  -31.7820 C   0  0  0  0  0  0  0  0  0  0  0  0
   -5.6370   22.9240  -31.8520 C   0  0  0  0  0  0  0  0  0  0  0  0
   -5.3490   24.3330  -31.8540 N   0  0  0  0  0  0  0  0  0  0  0  0
   -4.9320   25.1050  -30.7250 C   0  0  0  0  0  0  0  0  0  0  0  0
   -5.8010   25.7120  -30.0460 O   0  0  0  0  0  0  0  0  0  0  0  0
   -3.5380   25.2740  -30.4360 N   0  0  0  0  0  0  0  0  0  0  0  0
   -2.7720   24.5660  -29.4520 C   0  0  0  0  0  0  0  0  0  0  0  0
   -1.8720   25.2220  -28.5930 C   0  0  0  0  0  0  0  0  0  0  0  0
   -1.1710   24.4990  -27.6250 C   0  0  0  0  0  0  0  0  0  0  0  0
   -1.3660   23.1220  -27.4980 C   0  0  0  0  0  0  0  0  0  0  0  0
   -2.2670   22.4510  -28.3400 C   0  0  0  0  0  0  0  0  0  0  0  0
   -2.4970   20.9720  -28.1560 C   0  0  0  0  0  0  0  0  0  0  0  0
   -3.4520   20.7220  -27.1860 F   0  0  0  0  0  0  0  0  0  0  0  0
   -1.3100   20.3700  -27.7790 F   0  0  0  0  0  0  0  0  0  0  0  0
   -2.9290   20.4130  -29.3450 F   0  0  0  0  0  0  0  0  0  0  0  0
   -2.9810   23.1880  -29.3030 C   0  0  0  0  0  0  0  0  0  0  0  0
   -6.9770   22.4770  -31.8680 C   0  0  0  0  0  0  0  0  0  0  0  0
   -8.0470   23.3930  -31.9270 C   0  0  0  0  0  0  0  0  0  0  0  0
   -9.3660   22.9400  -31.9790 C   0  0  0  0  0  0  0  0  0  0  0  0
   -9.6390   21.5740  -31.9820 C   0  0  0  0  0  0  0  0  0  0  0  0
   -8.5970   20.6480  -31.9220 C   0  0  0  0  0  0  0  0  0  0  0  0
   -7.2580   21.0820  -31.8470 C   0  0  0  0  0  0  0  0  0  0  0  0
   -5.6310   18.1050  -33.9430 C   0  0  0  0  0  0  0  0  0  0  0  0
   -5.0310   17.1370  -34.7490 C   0  0  0  0  0  0  0  0  0  0  0  0
   -4.6400   15.9510  -34.2130 N   0  0  0  0  0  0  0  0  0  0  0  0
   -2.5601   12.1825  -30.7032 H   0  0  0  0  0  0  0  0  0  0  0  0
   -1.4094   11.4106  -31.8463 H   0  0  0  0  0  0  0  0  0  0  0  0
   -1.6144   13.1952  -31.8463 H   0  0  0  0  0  0  0  0  0  0  0  0
   -2.8748   11.5203  -33.6056 H   0  0  0  0  0  0  0  0  0  0  0  0
   -4.1019   11.5982  -32.2838 H   0  0  0  0  0  0  0  0  0  0  0  0
   -3.4020   13.7070  -34.1820 H   0  0  0  0  0  0  0  0  0  0  0  0
   -5.5732   16.3868  -30.9892 H   0  0  0  0  0  0  0  0  0  0  0  0
   -4.0480   19.8935  -31.7231 H   0  0  0  0  0  0  0  0  0  0  0  0
   -3.5535   22.3254  -31.7481 H   0  0  0  0  0  0  0  0  0  0  0  0
   -1.7197   26.3076  -28.6837 H   0  0  0  0  0  0  0  0  0  0  0  0
   -0.4630   25.0160  -26.9605 H   0  0  0  0  0  0  0  0  0  0  0  0
   -0.8101   22.5595  -26.7334 H   0  0  0  0  0  0  0  0  0  0  0  0
   -3.7119   22.6765  -29.9466 H   0  0  0  0  0  0  0  0  0  0  0  0
   -7.8406   24.4735  -31.9321 H   0  0  0  0  0  0  0  0  0  0  0  0
  -10.1930   23.6642  -32.0178 H   0  0  0  0  0  0  0  0  0  0  0  0
  -10.6806   21.2238  -32.0319 H   0  0  0  0  0  0  0  0  0  0  0  0
   -8.8221   19.5713  -31.9333 H   0  0  0  0  0  0  0  0  0  0  0  0
   -5.9524   19.0646  -34.3741 H   0  0  0  0  0  0  0  0  0  0  0  0
   -4.8742   17.3341  -35.8198 H   0  0  0  0  0  0  0  0  0  0  0  0
  1  2  1  0
  2  3  1  0
  3  4  1  0
  4  5  2  0
  4  6  1  0
  6  7  2  0
  7  8  1  0
  8  9  1  0
  9 10  1  0
 10 11  2  0
 11 12  1  0
 12 13  2  0
 13 14  1  0
 14 15  1  0
 15 16  2  0
 15 17  1  0
 17 18  1  0
 18 19  2  0
 19 20  1  0
 20 21  2  0
 21 22  1  0
 22 23  1  0
 23 24  1  0
 23 25  1  0
 23 26  1  0
 22 27  2  0
 13 28  1  0
 28 29  2  0
 29 30  1  0
 30 31  2  0
 31 32  1  0
 32 33  2  0
  8 34  2  0
 34 35  1  0
 35 36  2  0
 36  6  1  0
 33 10  1  0
 27 18  1  0
 33 28  1  0
  1 37  1  0
  1 38  1  0
  1 39  1  0
  2 40  1  0
  2 41  1  0
  3 42  1  0
  7 43  1  0
 11 44  1  0
 12 45  1  0
 19 46  1  0
 20 47  1  0
 21 48  1  0
 27 49  1  0
 29 50  1  0
 30 51  1  0
 31 52  1  0
 32 53  1  0
 34 54  1  0
 35 55  1  0
M  CHG  2  14  -1  17  -1
M  END
>  <UniqueID>  (27) 
24

>  <SMILES>  (27) 
CCNC(=O)c1cc(Oc2ccc([N-]C(=O)[N-]c3cccc(C(F)(F)F)c3)c3ccccc23)ccn1

>  <Energy>  (27) 
76.66373746918545

>  <Genealogy>  (27) 
CCNC(=O)c1cc(Oc2ccc([N-]C(=O)[N-]c3cccc(C(F)(F)F)c3)c3ccccc23)ccn1 (protonated)
CCNC(=O)c1cc(Oc2ccc([N-]C(=O)[N-]c3cccc(C(F)(F)F)c3)c3ccccc23)ccn1 (3D coordinates assigned)
CCNC(=O)c1cc(Oc2ccc([N-]C(=O)[N-]c3cccc(C(F)(F)F)c3)c3ccccc23)ccn1 (optimized conformer: 76.66373746918545 kcal/mol)

>  <smiles>  (27) 
CCNC(=O)c1cc(Oc2ccc(NC(=O)Nc3cccc(C(F)(F)F)c3)c3ccccc23)ccn1

>  <score_type>  (27) 
oracle

>  <origin>  (27) 
adgpu

>  <m_score__min__energy>  (27) 
-11.56

>  <m_primary>  (27) 
energy

$$$$
27:0
     RDKit          3D

 50 52  0  0  0  0  0  0  0  0999 V2000
   -4.0060   24.5390  -27.6260 C   0  0  0  0  0  0  0  0  0  0  0  0
   -3.0930   23.6150  -28.3830 C   0  0  0  0  0  0  0  0  0  0  0  0
   -2.4440   22.5660  -27.7070 C   0  0  0  0  0  0  0  0  0  0  0  0
   -1.5830   21.7090  -28.3930 C   0  0  0  0  0  0  0  0  0  0  0  0
   -1.3560   21.8910  -29.7580 C   0  0  0  0  0  0  0  0  0  0  0  0
   -1.9830   22.9380  -30.4400 C   0  0  0  0  0  0  0  0  0  0  0  0
   -2.8370   23.8220  -29.7560 C   0  0  0  0  0  0  0  0  0  0  0  0
   -3.4940   24.8970  -30.4480 N   0  0  0  0  0  0  0  0  0  0  0  0
   -4.9110   25.0670  -30.5970 C   0  0  0  0  0  0  0  0  0  0  0  0
   -5.3910   26.2310  -30.5270 O   0  0  0  0  0  0  0  0  0  0  0  0
   -5.8110   23.9260  -30.8880 C   0  0  0  0  0  0  0  0  0  0  0  0
   -5.3020   22.6230  -31.0160 C   0  0  0  0  0  0  0  0  0  0  0  0
   -6.1570   21.5540  -31.2980 C   0  0  0  0  0  0  0  0  0  0  0  0
   -7.5310   21.7750  -31.4730 C   0  0  0  0  0  0  0  0  0  0  0  0
   -8.5980   20.4280  -31.8770 S   0  0  0  0  0  0  0  0  0  0  0  0
   -9.9130   20.9770  -32.3600 O   0  0  0  0  0  0  0  0  0  0  0  0
   -8.8640   19.6220  -30.6340 O   0  0  0  0  0  0  0  0  0  0  0  0
   -7.9130   19.3790  -33.1040 N   0  0  1  0  0  0  0  0  0  0  0  0
   -6.8210   20.0600  -33.8520 C   0  0  0  0  0  0  0  0  0  0  0  0
   -5.6380   19.1390  -34.1680 C   0  0  0  0  0  0  0  0  0  0  0  0
   -5.0570   18.6030  -32.8520 C   0  0  2  0  0  0  0  0  0  0  0  0
   -3.8750   17.6600  -33.1280 C   0  0  0  0  0  0  0  0  0  0  0  0
   -6.1440   17.9230  -31.9800 C   0  0  0  0  0  0  0  0  0  0  0  0
   -7.5750   18.0420  -32.5500 C   0  0  0  0  0  0  0  0  0  0  0  0
   -8.0430   23.0720  -31.3450 C   0  0  0  0  0  0  0  0  0  0  0  0
   -7.1880   24.1420  -31.0630 C   0  0  0  0  0  0  0  0  0  0  0  0
   -3.8616   24.3929  -26.5453 H   0  0  0  0  0  0  0  0  0  0  0  0
   -3.7733   25.5813  -27.8894 H   0  0  0  0  0  0  0  0  0  0  0  0
   -5.0511   24.3188  -27.8894 H   0  0  0  0  0  0  0  0  0  0  0  0
   -2.6165   22.4204  -26.6304 H   0  0  0  0  0  0  0  0  0  0  0  0
   -1.0825   20.8889  -27.8574 H   0  0  0  0  0  0  0  0  0  0  0  0
   -0.6825   21.2094  -30.2982 H   0  0  0  0  0  0  0  0  0  0  0  0
   -1.8075   23.0713  -31.5177 H   0  0  0  0  0  0  0  0  0  0  0  0
   -4.2238   22.4429  -30.8935 H   0  0  0  0  0  0  0  0  0  0  0  0
   -5.7508   20.5353  -31.3830 H   0  0  0  0  0  0  0  0  0  0  0  0
   -8.6930   19.2190  -33.7840 H   0  0  0  0  0  0  0  0  0  0  0  0
   -6.4557   20.9026  -33.2466 H   0  0  0  0  0  0  0  0  0  0  0  0
   -7.2415   20.3920  -34.8127 H   0  0  0  0  0  0  0  0  0  0  0  0
   -4.8650   19.7040  -34.7094 H   0  0  0  0  0  0  0  0  0  0  0  0
   -5.9767   18.3002  -34.7939 H   0  0  0  0  0  0  0  0  0  0  0  0
   -4.6788   19.4592  -32.2741 H   0  0  0  0  0  0  0  0  0  0  0  0
   -3.4475   17.3189  -32.1736 H   0  0  0  0  0  0  0  0  0  0  0  0
   -4.2259   16.7910  -33.7040 H   0  0  0  0  0  0  0  0  0  0  0  0
   -3.1057   18.1952  -33.7040 H   0  0  0  0  0  0  0  0  0  0  0  0
   -6.1291   18.3890  -30.9837 H   0  0  0  0  0  0  0  0  0  0  0  0
   -5.9022   16.8503  -31.9508 H   0  0  0  0  0  0  0  0  0  0  0  0
   -8.2859   17.8163  -31.7415 H   0  0  0  0  0  0  0  0  0  0  0  0
   -7.6353   17.3334  -33.3892 H   0  0  0  0  0  0  0  0  0  0  0  0
   -9.1217   23.2498  -31.4667 H   0  0  0  0  0  0  0  0  0  0  0  0
   -7.5965   25.1598  -30.9776 H   0  0  0  0  0  0  0  0  0  0  0  0
  1  2  1  0
  2  3  2  0
  3  4  1  0
  4  5  2  0
  5  6  1  0
  6  7  2  0
  7  8  1  0
  8  9  1  0
  9 10  2  0
  9 11  1  0
 11 12  2  0
 12 13  1  0
 13 14  2  0
 14 15  1  0
 15 16  2  0
 15 17  2  0
 15 18  1  0
 18 19  1  0
 19 20  1  0
 20 21  1  0
 21 22  1  0
 21 23  1  0
 23 24  1  0
 14 25  1  0
 25 26  2  0
  7  2  1  0
 26 11  1  0
 24 18  1  0
  1 27  1  0
  1 28  1  0
  1 29  1  0
  3 30  1  0
  4 31  1  0
  5 32  1  0
  6 33  1  0
 12 34  1  0
 13 35  1  0
 18 36  1  6
 19 37  1  0
 19 38  1  0
 20 39  1  0
 20 40  1  0
 21 41  1  1
 22 42  1  0
 22 43  1  0
 22 44  1  0
 23 45  1  0
 23 46  1  0
 24 47  1  0
 24 48  1  0
 25 49  1  0
 26 50  1  0
M  CHG  2   8  -1  18   1
M  END
>  <UniqueID>  (28) 
25

>  <SMILES>  (28) 
Cc1ccccc1[N-]C(=O)c1ccc(S(=O)(=O)[NH+]2CCC(C)CC2)cc1

>  <Energy>  (28) 
64.2840945678436

>  <Genealogy>  (28) 
Cc1ccccc1[N-]C(=O)c1ccc(S(=O)(=O)[NH+]2CCC(C)CC2)cc1 (protonated)
Cc1ccccc1[N-]C(=O)c1ccc(S(=O)(=O)[NH+]2CCC(C)CC2)cc1 (3D coordinates assigned)
Cc1ccccc1[N-]C(=O)c1ccc(S(=O)(=O)[NH+]2CCC(C)CC2)cc1 (nonaromatic ring conformer: 64.2840945678436 kcal/mol)

>  <smiles>  (28) 
Cc1ccccc1NC(=O)c1ccc(S(=O)(=O)N2CCC(C)CC2)cc1

>  <score_type>  (28) 
oracle

>  <origin>  (28) 
adgpu

>  <m_score__min__energy>  (28) 
-11.699999999999999

>  <m_primary>  (28) 
energy

$$$$
28:0
     RDKit          3D

 36 37  0  0  0  0  0  0  0  0999 V2000
   -5.6883   22.5317  -28.2877 H   0  0  0  0  0  0  0  0  0  0  0  0
   -4.9870   22.9970  -28.9960 C   0  0  0  0  0  0  0  0  0  0  0  0
   -5.1690   22.8440  -30.2750 N   0  0  0  0  0  0  0  0  0  0  0  0
   -6.2200   22.0960  -30.9110 C   0  0  0  0  0  0  0  0  0  0  0  0
   -5.9840   21.1900  -31.9650 C   0  0  0  0  0  0  0  0  0  0  0  0
   -4.9586   21.0264  -32.3280 H   0  0  0  0  0  0  0  0  0  0  0  0
   -7.0500   20.4980  -32.5510 C   0  0  0  0  0  0  0  0  0  0  0  0
   -6.8562   19.7811  -33.3624 H   0  0  0  0  0  0  0  0  0  0  0  0
   -8.3640   20.7130  -32.1100 C   0  0  0  0  0  0  0  0  0  0  0  0
   -9.4990   19.9410  -32.7130 C   0  0  0  0  0  0  0  0  0  0  0  0
  -10.1215   19.5176  -31.9110 H   0  0  0  0  0  0  0  0  0  0  0  0
  -10.1093   20.6121  -33.3352 H   0  0  0  0  0  0  0  0  0  0  0  0
   -9.0990   19.1269  -33.3352 H   0  0  0  0  0  0  0  0  0  0  0  0
   -8.5970   21.6110  -31.0600 C   0  0  0  0  0  0  0  0  0  0  0  0
   -9.6221   21.7720  -30.6951 H   0  0  0  0  0  0  0  0  0  0  0  0
   -7.5340   22.3030  -30.4740 C   0  0  0  0  0  0  0  0  0  0  0  0
   -7.7314   23.0175  -29.6613 H   0  0  0  0  0  0  0  0  0  0  0  0
   -3.8500   23.7880  -28.4840 C   0  0  0  0  0  0  0  0  0  0  0  0
   -2.7560   24.1150  -29.3010 C   0  0  0  0  0  0  0  0  0  0  0  0
   -2.7378   23.7797  -30.3485 H   0  0  0  0  0  0  0  0  0  0  0  0
   -1.6900   24.8630  -28.7940 C   0  0  0  0  0  0  0  0  0  0  0  0
   -0.8405   25.1102  -29.4476 H   0  0  0  0  0  0  0  0  0  0  0  0
   -1.6900   25.3050  -27.4540 C   0  0  0  0  0  0  0  0  0  0  0  0
   -0.5830   26.0840  -26.9260 N   0  0  0  0  0  0  0  0  0  0  0  0
   -0.8290   27.3550  -26.2330 C   0  0  0  0  0  0  0  0  0  0  0  0
   -0.7974   27.1918  -25.1456 H   0  0  0  0  0  0  0  0  0  0  0  0
   -0.0551   28.0833  -26.5171 H   0  0  0  0  0  0  0  0  0  0  0  0
   -1.8187   27.7420  -26.5171 H   0  0  0  0  0  0  0  0  0  0  0  0
    0.8000   25.6130  -27.0760 C   0  0  0  0  0  0  0  0  0  0  0  0
    1.2455   25.4613  -26.0818 H   0  0  0  0  0  0  0  0  0  0  0  0
    0.8056   24.6623  -27.6293 H   0  0  0  0  0  0  0  0  0  0  0  0
    1.3847   26.3627  -27.6293 H   0  0  0  0  0  0  0  0  0  0  0  0
   -2.7930   24.9720  -26.6430 C   0  0  0  0  0  0  0  0  0  0  0  0
   -2.8171   25.3067  -25.5954 H   0  0  0  0  0  0  0  0  0  0  0  0
   -3.8570   24.2220  -27.1520 C   0  0  0  0  0  0  0  0  0  0  0  0
   -4.7072   23.9703  -26.5010 H   0  0  0  0  0  0  0  0  0  0  0  0
  1  2  1  0
  2  3  2  0
  3  4  1  0
  4  5  2  0
  5  6  1  0
  5  7  1  0
  7  8  1  0
  7  9  2  0
  9 10  1  0
 10 11  1  0
 10 12  1  0
 10 13  1  0
  9 14  1  0
 14 15  1  0
 14 16  2  0
 16 17  1  0
  2 18  1  0
 18 19  2  0
 19 20  1  0
 19 21  1  0
 21 22  1  0
 21 23  2  0
 23 24  1  0
 24 25  1  0
 25 26  1  0
 25 27  1  0
 25 28  1  0
 24 29  1  0
 29 30  1  0
 29 31  1  0
 29 32  1  0
 23 33  1  0
 33 34  1  0
 33 35  2  0
 35 36  1  0
 16  4  1  0
 35 18  1  0
M  END
>  <UniqueID>  (29) 
26

>  <SMILES>  (29) 
Cc1ccc(/N=C/c2ccc(N(C)C)cc2)cc1

>  <Energy>  (29) 
39.56610276251589

>  <Genealogy>  (29) 
Cc1ccc(/N=C/c2ccc(N(C)C)cc2)cc1 (cis-trans isomerization)
Cc1ccc(/N=C/c2ccc(N(C)C)cc2)cc1 (3D coordinates assigned)
Cc1ccc(/N=C/c2ccc(N(C)C)cc2)cc1 (optimized conformer: 39.56610276251589 kcal/mol)

>  <smiles>  (29) 
Cc1ccc(N=Cc2ccc(N(C)C)cc2)cc1

>  <score_type>  (29) 
oracle

>  <origin>  (29) 
adgpu

>  <m_score__min__energy>  (29) 
-6.0099999999999998

>  <m_primary>  (29) 
energy

$$$$
29:0
     RDKit          3D

 53 57  0  0  0  0  0  0  0  0999 V2000
    2.1361   15.9449  -27.2653 H   0  0  0  0  0  0  0  0  0  0  0  0
    1.6690   16.9210  -27.4630 C   0  0  0  0  0  0  0  0  0  0  0  0
    2.4650   18.0320  -27.7430 C   0  0  0  0  0  0  0  0  0  0  0  0
    3.5600   17.9305  -27.7671 H   0  0  0  0  0  0  0  0  0  0  0  0
    1.8740   19.2740  -27.9930 C   0  0  0  0  0  0  0  0  0  0  0  0
    2.5088   20.1460  -28.2089 H   0  0  0  0  0  0  0  0  0  0  0  0
    0.4730   19.4190  -27.9710 C   0  0  0  0  0  0  0  0  0  0  0  0
   -0.1490   20.7430  -28.2350 C   0  0  0  0  0  0  0  0  0  0  0  0
    0.6280   22.2430  -28.0350 S   0  0  0  0  0  0  0  0  0  0  0  0
   -0.6900   23.1600  -28.5110 C   0  0  0  0  0  0  0  0  0  0  0  0
   -0.8280   24.5350  -28.5940 C   0  0  0  0  0  0  0  0  0  0  0  0
    0.0051   25.2042  -28.3331 H   0  0  0  0  0  0  0  0  0  0  0  0
   -2.0250   25.0350  -29.0080 N   0  0  0  0  0  0  0  0  0  0  0  0
   -3.0710   24.2170  -29.3450 C   0  0  0  0  0  0  0  0  0  0  0  0
   -4.1900   24.7680  -29.7240 N   0  0  0  0  0  0  0  0  0  0  0  0
   -5.3610   24.0990  -30.2130 C   0  0  0  0  0  0  0  0  0  0  0  0
   -5.9740   23.0720  -29.4760 C   0  0  0  0  0  0  0  0  0  0  0  0
   -5.5812   22.7994  -28.4854 H   0  0  0  0  0  0  0  0  0  0  0  0
   -7.0810   22.3950  -29.9960 C   0  0  0  0  0  0  0  0  0  0  0  0
   -7.5689   21.6053  -29.4058 H   0  0  0  0  0  0  0  0  0  0  0  0
   -7.5700   22.7210  -31.2680 C   0  0  0  0  0  0  0  0  0  0  0  0
   -8.9760   21.8870  -31.9290 S   0  0  0  0  0  0  0  0  0  0  0  0
   -9.7560   21.2960  -30.7870 O   0  0  0  0  0  0  0  0  0  0  0  0
   -9.8610   22.8680  -32.6460 O   0  0  0  0  0  0  0  0  0  0  0  0
   -8.4810   20.6040  -33.0130 N   0  0  0  0  0  0  0  0  0  0  0  0
   -9.1910   19.3390  -32.7390 C   0  0  0  0  0  0  0  0  0  0  0  0
  -10.2634   19.5560  -32.6254 H   0  0  0  0  0  0  0  0  0  0  0  0
   -8.9973   18.6622  -33.5842 H   0  0  0  0  0  0  0  0  0  0  0  0
   -8.6940   18.6370  -31.4620 C   0  0  0  0  0  0  0  0  0  0  0  0
   -9.1784   19.1070  -30.5934 H   0  0  0  0  0  0  0  0  0  0  0  0
   -8.9525   17.5716  -31.5524 H   0  0  0  0  0  0  0  0  0  0  0  0
   -7.1680   18.7240  -31.2780 C   0  0  0  0  0  0  0  0  0  0  0  0
   -6.9458   19.4684  -30.4992 H   0  0  0  0  0  0  0  0  0  0  0  0
   -6.8024   17.7272  -30.9904 H   0  0  0  0  0  0  0  0  0  0  0  0
   -6.4600   19.1330  -32.5680 C   0  0  0  0  0  0  0  0  0  0  0  0
   -5.3819   19.2307  -32.3729 H   0  0  0  0  0  0  0  0  0  0  0  0
   -6.6412   18.3616  -33.3309 H   0  0  0  0  0  0  0  0  0  0  0  0
   -7.0040   20.4770  -33.0840 C   0  0  0  0  0  0  0  0  0  0  0  0
   -6.5593   21.2830  -32.4819 H   0  0  0  0  0  0  0  0  0  0  0  0
   -6.7325   20.5399  -34.1481 H   0  0  0  0  0  0  0  0  0  0  0  0
   -6.9440   23.7260  -32.0140 C   0  0  0  0  0  0  0  0  0  0  0  0
   -7.3258   23.9859  -33.0123 H   0  0  0  0  0  0  0  0  0  0  0  0
   -5.8350   24.4010  -31.4950 C   0  0  0  0  0  0  0  0  0  0  0  0
   -5.3328   25.1728  -32.0968 H   0  0  0  0  0  0  0  0  0  0  0  0
   -2.9300   22.8530  -29.2410 N   0  0  0  0  0  0  0  0  0  0  0  0
   -3.7210   22.2000  -29.4310 H   0  0  0  0  0  0  0  0  0  0  0  0
   -1.7420   22.3350  -28.8310 C   0  0  0  0  0  0  0  0  0  0  0  0
   -1.4590   20.9730  -28.6810 C   0  0  0  0  0  0  0  0  0  0  0  0
   -2.1832   20.1717  -28.8896 H   0  0  0  0  0  0  0  0  0  0  0  0
   -0.3170   18.2870  -27.6850 C   0  0  0  0  0  0  0  0  0  0  0  0
   -1.4128   18.3792  -27.6592 H   0  0  0  0  0  0  0  0  0  0  0  0
    0.2800   17.0490  -27.4340 C   0  0  0  0  0  0  0  0  0  0  0  0
   -0.3470   16.1726  -27.2129 H   0  0  0  0  0  0  0  0  0  0  0  0
  1  2  1  0
  2  3  2  0
  3  4  1  0
  3  5  1  0
  5  6  1  0
  5  7  2  0
  7  8  1  0
  8  9  1  0
  9 10  1  0
 10 11  1  0
 11 12  1  0
 11 13  2  0
 13 14  1  0
 14 15  2  0
 15 16  1  0
 16 17  2  0
 17 18  1  0
 17 19  1  0
 19 20  1  0
 19 21  2  0
 21 22  1  0
 22 23  2  0
 22 24  2  0
 22 25  1  0
 25 26  1  0
 26 27  1  0
 26 28  1  0
 26 29  1  0
 29 30  1  0
 29 31  1  0
 29 32  1  0
 32 33  1  0
 32 34  1  0
 32 35  1  0
 35 36  1  0
 35 37  1  0
 35 38  1  0
 38 39  1  0
 38 40  1  0
 21 41  1  0
 41 42  1  0
 41 43  2  0
 43 44  1  0
 14 45  1  0
 45 46  1  0
 45 47  1  0
 47 48  1  0
 48 49  1  0
  7 50  1  0
 50 51  1  0
 50 52  2  0
 52 53  1  0
 52  2  1  0
 48  8  2  0
 47 10  2  0
 43 16  1  0
 38 25  1  0
M  END
>  <UniqueID>  (30) 
27

>  <SMILES>  (30) 
O=S(=O)(c1ccc(/N=c2/ncc3sc(-c4ccccc4)cc3[nH]2)cc1)N1CCCCC1

>  <Energy>  (30) 
109.42259116701281

>  <Genealogy>  (30) 
O=S(=O)(c1ccc(/N=c2/ncc3sc(-c4ccccc4)cc3[nH]2)cc1)N1CCCCC1 (cis-trans isomerization)
O=S(=O)(c1ccc(/N=c2/ncc3sc(-c4ccccc4)cc3[nH]2)cc1)N1CCCCC1 (3D coordinates assigned)
O=S(=O)(c1ccc(/N=c2/ncc3sc(-c4ccccc4)cc3[nH]2)cc1)N1CCCCC1 (nonaromatic ring conformer: 109.42259116701281 kcal/mol)

>  <smiles>  (30) 
O=S(=O)(c1ccc(N=c2ncc3sc(-c4ccccc4)cc3[nH]2)cc1)N1CCCCC1

>  <score_type>  (30) 
oracle

>  <origin>  (30) 
adgpu

>  <m_score__min__energy>  (30) 
-10.199999999999999

>  <m_primary>  (30) 
energy

$$$$
30:0
     RDKit          3D

 62 65  0  0  0  0  0  0  0  0999 V2000
   -0.5040   25.8510  -27.5490 C   0  0  0  0  0  0  0  0  0  0  0  0
   -0.2780   24.9010  -28.5850 O   0  0  0  0  0  0  0  0  0  0  0  0
   -0.8590   23.6240  -28.6370 C   0  0  0  0  0  0  0  0  0  0  0  0
   -0.1030   22.4520  -28.4400 C   0  0  0  0  0  0  0  0  0  0  0  0
   -0.7250   21.2000  -28.4490 C   0  0  0  0  0  0  0  0  0  0  0  0
   -2.1030   21.1040  -28.6450 C   0  0  0  0  0  0  0  0  0  0  0  0
   -2.8620   22.2590  -28.8460 C   0  0  0  0  0  0  0  0  0  0  0  0
   -2.2450   23.5160  -28.8690 C   0  0  0  0  0  0  0  0  0  0  0  0
   -3.0510   24.6800  -29.0770 N   0  0  0  0  0  0  0  0  0  0  0  0
   -4.0660   24.8010  -30.0810 C   0  0  0  0  0  0  0  0  0  0  0  0
   -3.9330   25.6750  -30.9780 O   0  0  0  0  0  0  0  0  0  0  0  0
   -5.3180   23.9690  -30.0500 C   0  0  0  0  0  0  0  0  0  0  0  0
   -6.4460   24.4430  -31.4080 S   0  0  0  0  0  0  0  0  0  0  0  0
   -7.1810   22.8090  -31.5780 C   0  0  0  0  0  0  0  0  0  0  0  0
   -8.4870   22.6600  -31.2290 N   0  0  0  0  0  0  0  0  0  0  0  0
   -9.1180   21.4610  -31.2810 C   0  0  0  0  0  0  0  0  0  0  0  0
   -8.4260   20.3260  -31.6940 C   0  0  0  0  0  0  0  0  0  0  0  0
   -7.0770   20.4280  -32.0550 C   0  0  0  0  0  0  0  0  0  0  0  0
   -6.3930   19.2550  -32.5250 N   0  0  0  0  0  0  0  0  0  0  0  0
   -5.8630   19.2090  -33.8930 C   0  0  0  0  0  0  0  0  0  0  0  0
   -6.1180   17.8360  -34.5540 C   0  0  0  0  0  0  0  0  0  0  0  0
   -6.3820   16.7500  -33.5810 N   0  0  0  0  0  0  0  0  0  0  0  0
   -6.0940   15.4400  -34.1830 C   0  0  0  0  0  0  0  0  0  0  0  0
   -5.6070   16.9270  -32.3410 C   0  0  0  0  0  0  0  0  0  0  0  0
   -6.1440   18.1480  -31.5950 C   0  0  0  0  0  0  0  0  0  0  0  0
   -6.4300   21.6840  -31.9940 C   0  0  0  0  0  0  0  0  0  0  0  0
   -4.9890   21.7960  -32.3040 C   0  0  0  0  0  0  0  0  0  0  0  0
   -4.5940   22.6950  -33.0940 O   0  0  0  0  0  0  0  0  0  0  0  0
   -4.0610   20.8670  -31.7320 N   0  0  0  0  0  0  0  0  0  0  0  0
   -2.7630   20.5200  -32.2330 C   0  0  0  0  0  0  0  0  0  0  0  0
   -2.5220   19.3160  -32.9220 C   0  0  0  0  0  0  0  0  0  0  0  0
   -1.2440   19.0310  -33.4150 C   0  0  0  0  0  0  0  0  0  0  0  0
   -0.2040   19.9470  -33.2380 C   0  0  0  0  0  0  0  0  0  0  0  0
   -0.4430   21.1540  -32.5770 C   0  0  0  0  0  0  0  0  0  0  0  0
   -1.7190   21.4420  -32.0840 C   0  0  0  0  0  0  0  0  0  0  0  0
   -0.3875   25.3615  -26.5708 H   0  0  0  0  0  0  0  0  0  0  0  0
    0.2242   26.6706  -27.6379 H   0  0  0  0  0  0  0  0  0  0  0  0
   -1.5233   26.2549  -27.6379 H   0  0  0  0  0  0  0  0  0  0  0  0
    0.9828   22.5222  -28.2782 H   0  0  0  0  0  0  0  0  0  0  0  0
   -0.1268   20.2888  -28.3013 H   0  0  0  0  0  0  0  0  0  0  0  0
   -2.5917   20.1185  -28.6412 H   0  0  0  0  0  0  0  0  0  0  0  0
   -3.9501   22.1810  -28.9870 H   0  0  0  0  0  0  0  0  0  0  0  0
   -5.0487   22.9080  -30.1586 H   0  0  0  0  0  0  0  0  0  0  0  0
   -5.8300   24.1379  -29.0912 H   0  0  0  0  0  0  0  0  0  0  0  0
  -10.1779   21.3851  -30.9965 H   0  0  0  0  0  0  0  0  0  0  0  0
   -8.9369   19.3528  -31.7366 H   0  0  0  0  0  0  0  0  0  0  0  0
   -6.3528   19.9906  -34.4924 H   0  0  0  0  0  0  0  0  0  0  0  0
   -4.7763   19.3732  -33.8474 H   0  0  0  0  0  0  0  0  0  0  0  0
   -6.9894   17.9266  -35.2192 H   0  0  0  0  0  0  0  0  0  0  0  0
   -5.2021   17.5652  -35.0996 H   0  0  0  0  0  0  0  0  0  0  0  0
   -5.9310   14.6985  -33.3870 H   0  0  0  0  0  0  0  0  0  0  0  0
   -6.9450   15.1278  -34.8062 H   0  0  0  0  0  0  0  0  0  0  0  0
   -5.1906   15.5135  -34.8062 H   0  0  0  0  0  0  0  0  0  0  0  0
   -5.7108   16.0325  -31.7092 H   0  0  0  0  0  0  0  0  0  0  0  0
   -4.5439   17.0740  -32.5823 H   0  0  0  0  0  0  0  0  0  0  0  0
   -7.0851   17.8794  -31.0929 H   0  0  0  0  0  0  0  0  0  0  0  0
   -5.3953   18.4685  -30.8556 H   0  0  0  0  0  0  0  0  0  0  0  0
   -3.3409   18.5973  -33.0731 H   0  0  0  0  0  0  0  0  0  0  0  0
   -1.0577   18.0841  -33.9429 H   0  0  0  0  0  0  0  0  0  0  0  0
    0.8022   19.7178  -33.6189 H   0  0  0  0  0  0  0  0  0  0  0  0
    0.3738   21.8788  -32.4442 H   0  0  0  0  0  0  0  0  0  0  0  0
   -1.9046   22.3995  -31.5754 H   0  0  0  0  0  0  0  0  0  0  0  0
  1  2  1  0
  2  3  1  0
  3  4  2  0
  4  5  1  0
  5  6  2  0
  6  7  1  0
  7  8  2  0
  8  9  1  0
  9 10  1  0
 10 11  2  0
 10 12  1  0
 12 13  1  0
 13 14  1  0
 14 15  2  0
 15 16  1  0
 16 17  2  0
 17 18  1  0
 18 19  1  0
 19 20  1  0
 20 21  1  0
 21 22  1  0
 22 23  1  0
 22 24  1  0
 24 25  1  0
 18 26  2  0
 26 27  1  0
 27 28  2  0
 27 29  1  0
 29 30  1  0
 30 31  2  0
 31 32  1  0
 32 33  2  0
 33 34  1  0
 34 35  2  0
  8  3  1  0
 26 14  1  0
 35 30  1  0
 25 19  1  0
  1 36  1  0
  1 37  1  0
  1 38  1  0
  4 39  1  0
  5 40  1  0
  6 41  1  0
  7 42  1  0
 12 43  1  0
 12 44  1  0
 16 45  1  0
 17 46  1  0
 20 47  1  0
 20 48  1  0
 21 49  1  0
 21 50  1  0
 23 51  1  0
 23 52  1  0
 23 53  1  0
 24 54  1  0
 24 55  1  0
 25 56  1  0
 25 57  1  0
 31 58  1  0
 32 59  1  0
 33 60  1  0
 34 61  1  0
 35 62  1  0
M  CHG  2   9  -1  29  -1
M  END
>  <UniqueID>  (31) 
28

>  <SMILES>  (31) 
COc1ccccc1[N-]C(=O)CSc1nccc(N2CCN(C)CC2)c1C(=O)[N-]c1ccccc1

>  <Energy>  (31) 
85.92801213445917

>  <Genealogy>  (31) 
COc1ccccc1[N-]C(=O)CSc1nccc(N2CCN(C)CC2)c1C(=O)[N-]c1ccccc1 (protonated)
COc1ccccc1[N-]C(=O)CSc1nccc(N2CCN(C)CC2)c1C(=O)[N-]c1ccccc1 (3D coordinates assigned)
COc1ccccc1[N-]C(=O)CSc1nccc(N2CCN(C)CC2)c1C(=O)[N-]c1ccccc1 (nonaromatic ring conformer: 85.92801213445917 kcal/mol)

>  <smiles>  (31) 
COc1ccccc1NC(=O)CSc1nccc(N2CCN(C)CC2)c1C(=O)Nc1ccccc1

>  <score_type>  (31) 
oracle

>  <origin>  (31) 
adgpu

>  <m_score__min__energy>  (31) 
-12.199999999999999

>  <m_primary>  (31) 
energy

$$$$
31:0
     RDKit          3D

 53 57  0  0  0  0  0  0  0  0999 V2000
   -0.8260   24.8990  -23.7300 C   0  0  0  0  0  0  0  0  0  0  0  0
   -0.4830   26.1960  -24.3990 C   0  0  0  0  0  0  0  0  0  0  0  0
    0.2590   27.2070  -23.8180 C   0  0  0  0  0  0  0  0  0  0  0  0
    0.3490   28.2170  -24.7570 C   0  0  0  0  0  0  0  0  0  0  0  0
   -0.3250   27.7720  -25.8790 C   0  0  0  0  0  0  0  0  0  0  0  0
   -0.4800   28.5560  -27.1470 C   0  0  0  0  0  0  0  0  0  0  0  0
   -0.8360   26.5400  -25.6580 N   0  0  0  0  0  0  0  0  0  0  0  0
   -1.6040   25.7490  -26.5820 C   0  0  0  0  0  0  0  0  0  0  0  0
   -2.8940   25.3210  -26.2450 C   0  0  0  0  0  0  0  0  0  0  0  0
   -3.6410   24.5530  -27.1430 C   0  0  0  0  0  0  0  0  0  0  0  0
   -3.1080   24.1990  -28.3970 C   0  0  0  0  0  0  0  0  0  0  0  0
   -3.9160   23.3840  -29.3370 C   0  0  0  0  0  0  0  0  0  0  0  0
   -5.2900   23.4080  -29.4940 C   0  0  0  0  0  0  0  0  0  0  0  0
   -5.6160   22.5310  -30.4610 N   0  0  0  0  0  0  0  0  0  0  0  0
   -6.9360   22.3510  -31.0060 C   0  0  0  0  0  0  0  0  0  0  0  0
   -7.5460   21.0850  -31.0030 C   0  0  0  0  0  0  0  0  0  0  0  0
   -8.8240   20.9160  -31.5430 C   0  0  0  0  0  0  0  0  0  0  0  0
   -9.4980   22.0060  -32.1010 C   0  0  0  0  0  0  0  0  0  0  0  0
   -8.8930   23.2650  -32.1230 C   0  0  0  0  0  0  0  0  0  0  0  0
   -7.6150   23.4380  -31.5830 C   0  0  0  0  0  0  0  0  0  0  0  0
   -4.4430   21.9840  -30.8640 C   0  0  0  0  0  0  0  0  0  0  0  0
   -4.2970   20.9070  -31.8680 C   0  0  0  0  0  0  0  0  0  0  0  0
   -3.3530   21.0410  -32.9000 C   0  0  0  0  0  0  0  0  0  0  0  0
   -3.1930   20.0230  -33.8460 C   0  0  0  0  0  0  0  0  0  0  0  0
   -3.9630   18.8610  -33.7610 C   0  0  0  0  0  0  0  0  0  0  0  0
   -4.8890   18.7100  -32.7260 C   0  0  0  0  0  0  0  0  0  0  0  0
   -5.0510   19.7240  -31.7780 C   0  0  0  0  0  0  0  0  0  0  0  0
   -3.3840   22.4910  -30.1980 N   0  0  0  0  0  0  0  0  0  0  0  0
   -1.8120   24.6340  -28.7300 C   0  0  0  0  0  0  0  0  0  0  0  0
   -1.0680   25.4020  -27.8300 C   0  0  0  0  0  0  0  0  0  0  0  0
   -0.7916   25.0292  -22.6383 H   0  0  0  0  0  0  0  0  0  0  0  0
   -1.8374   24.5877  -24.0304 H   0  0  0  0  0  0  0  0  0  0  0  0
   -0.1008   24.1284  -24.0304 H   0  0  0  0  0  0  0  0  0  0  0  0
    0.6926   27.2076  -22.8071 H   0  0  0  0  0  0  0  0  0  0  0  0
    0.8572   29.1850  -24.6355 H   0  0  0  0  0  0  0  0  0  0  0  0
   -0.6881   29.6085  -26.9042 H   0  0  0  0  0  0  0  0  0  0  0  0
    0.4483   28.4916  -27.7337 H   0  0  0  0  0  0  0  0  0  0  0  0
   -1.3139   28.1432  -27.7337 H   0  0  0  0  0  0  0  0  0  0  0  0
   -3.3220   25.5906  -25.2682 H   0  0  0  0  0  0  0  0  0  0  0  0
   -4.6534   24.2226  -26.8676 H   0  0  0  0  0  0  0  0  0  0  0  0
   -5.9938   24.0350  -28.9270 H   0  0  0  0  0  0  0  0  0  0  0  0
   -7.0150   20.2227  -30.5735 H   0  0  0  0  0  0  0  0  0  0  0  0
   -9.2998   19.9243  -31.5289 H   0  0  0  0  0  0  0  0  0  0  0  0
  -10.5050   21.8724  -32.5229 H   0  0  0  0  0  0  0  0  0  0  0  0
   -9.4228   24.1213  -32.5657 H   0  0  0  0  0  0  0  0  0  0  0  0
   -7.1388   24.4292  -31.6098 H   0  0  0  0  0  0  0  0  0  0  0  0
   -2.7372   21.9502  -32.9643 H   0  0  0  0  0  0  0  0  0  0  0  0
   -2.4598   20.1379  -34.6579 H   0  0  0  0  0  0  0  0  0  0  0  0
   -3.8403   18.0642  -34.5094 H   0  0  0  0  0  0  0  0  0  0  0  0
   -5.4912   17.7921  -32.6571 H   0  0  0  0  0  0  0  0  0  0  0  0
   -5.7721   19.5958  -30.9573 H   0  0  0  0  0  0  0  0  0  0  0  0
   -1.3810   24.3675  -29.7063 H   0  0  0  0  0  0  0  0  0  0  0  0
   -0.0560   25.7361  -28.1025 H   0  0  0  0  0  0  0  0  0  0  0  0
  1  2  1  0
  2  3  2  0
  3  4  1  0
  4  5  2  0
  5  6  1  0
  5  7  1  0
  7  8  1  0
  8  9  2  0
  9 10  1  0
 10 11  2  0
 11 12  1  0
 12 13  2  0
 13 14  1  0
 14 15  1  0
 15 16  2  0
 16 17  1  0
 17 18  2  0
 18 19  1  0
 19 20  2  0
 14 21  1  0
 21 22  1  0
 22 23  2  0
 23 24  1  0
 24 25  2  0
 25 26  1  0
 26 27  2  0
 21 28  2  0
 11 29  1  0
 29 30  2  0
  7  2  1  0
 30  8  1  0
 28 12  1  0
 20 15  1  0
 27 22  1  0
  1 31  1  0
  1 32  1  0
  1 33  1  0
  3 34  1  0
  4 35  1  0
  6 36  1  0
  6 37  1  0
  6 38  1  0
  9 39  1  0
 10 40  1  0
 13 41  1  0
 16 42  1  0
 17 43  1  0
 18 44  1  0
 19 45  1  0
 20 46  1  0
 23 47  1  0
 24 48  1  0
 25 49  1  0
 26 50  1  0
 27 51  1  0
 29 52  1  0
 30 53  1  0
M  END
>  <UniqueID>  (32) 
29

>  <SMILES>  (32) 
Cc1ccc(C)n1-c1ccc(-c2cn(-c3ccccc3)c(-c3ccccc3)n2)cc1

>  <Energy>  (32) 
129.56298753264343

>  <Genealogy>  (32) 
Cc1ccc(C)n1-c1ccc(-c2cn(-c3ccccc3)c(-c3ccccc3)n2)cc1 (3D coordinates assigned)
Cc1ccc(C)n1-c1ccc(-c2cn(-c3ccccc3)c(-c3ccccc3)n2)cc1 (optimized conformer: 129.56298753264343 kcal/mol)

>  <smiles>  (32) 
Cc1ccc(C)n1-c1ccc(-c2cn(-c3ccccc3)c(-c3ccccc3)n2)cc1

>  <score_type>  (32) 
oracle

>  <origin>  (32) 
adgpu

>  <m_score__min__energy>  (32) 
-8.9700000000000006

>  <m_primary>  (32) 
energy

$$$$
32:0
     RDKit          3D

 46 49  0  0  0  0  0  0  0  0999 V2000
   -4.9050   23.7890  -28.6530 O   0  0  0  0  0  0  0  0  0  0  0  0
   -3.8590   24.2270  -29.2040 C   0  0  0  0  0  0  0  0  0  0  0  0
   -3.9640   25.1310  -30.3140 N   0  0  0  0  0  0  0  0  0  0  0  0
   -5.2450   25.3760  -30.9760 C   0  0  0  0  0  0  0  0  0  0  0  0
   -5.9090   24.0750  -31.3390 C   0  0  0  0  0  0  0  0  0  0  0  0
   -7.2320   23.8220  -30.9420 C   0  0  0  0  0  0  0  0  0  0  0  0
   -7.8370   22.5990  -31.2450 C   0  0  0  0  0  0  0  0  0  0  0  0
   -7.1220   21.6150  -31.9360 C   0  0  0  0  0  0  0  0  0  0  0  0
   -7.9490   19.9430  -32.3470 Br  0  0  0  0  0  0  0  0  0  0  0  0
   -5.7990   21.8550  -32.3210 C   0  0  0  0  0  0  0  0  0  0  0  0
   -5.1910   23.0780  -32.0190 C   0  0  0  0  0  0  0  0  0  0  0  0
   -2.5460   23.8360  -28.6560 C   0  0  0  0  0  0  0  0  0  0  0  0
   -2.3610   22.5400  -28.2830 N   0  0  0  0  0  0  0  0  0  0  0  0
   -1.1910   22.0800  -27.7640 C   0  0  0  0  0  0  0  0  0  0  0  0
   -1.1000   20.6980  -27.3960 N   0  0  0  0  0  0  0  0  0  0  0  0
   -0.0190   19.8710  -27.9320 C   0  0  0  0  0  0  0  0  0  0  0  0
   -0.4910   18.4170  -28.0390 C   0  0  0  0  0  0  0  0  0  0  0  0
   -1.0450   17.9770  -26.8130 O   0  0  0  0  0  0  0  0  0  0  0  0
   -2.2250   18.7050  -26.5300 C   0  0  0  0  0  0  0  0  0  0  0  0
   -1.9070   20.1850  -26.2900 C   0  0  0  0  0  0  0  0  0  0  0  0
   -0.1050   22.9640  -27.6030 C   0  0  0  0  0  0  0  0  0  0  0  0
    1.1300   22.5590  -27.0690 C   0  0  0  0  0  0  0  0  0  0  0  0
    2.1700   23.4800  -26.9440 C   0  0  0  0  0  0  0  0  0  0  0  0
    1.9750   24.7980  -27.3550 C   0  0  0  0  0  0  0  0  0  0  0  0
    0.7780   25.1810  -27.8710 N   0  0  0  0  0  0  0  0  0  0  0  0
   -0.2610   24.3100  -28.0020 C   0  0  0  0  0  0  0  0  0  0  0  0
   -1.4770   24.7450  -28.5410 C   0  0  0  0  0  0  0  0  0  0  0  0
   -1.6010   26.0600  -28.9840 O   0  0  0  0  0  0  0  0  0  0  0  0
   -3.1200   25.6740  -30.6090 H   0  0  0  0  0  0  0  0  0  0  0  0
   -5.9012   25.9400  -30.2969 H   0  0  0  0  0  0  0  0  0  0  0  0
   -5.0653   25.9521  -31.8957 H   0  0  0  0  0  0  0  0  0  0  0  0
   -7.7946   24.5895  -30.3902 H   0  0  0  0  0  0  0  0  0  0  0  0
   -8.8767   22.4100  -30.9397 H   0  0  0  0  0  0  0  0  0  0  0  0
   -5.2356   21.0806  -32.8622 H   0  0  0  0  0  0  0  0  0  0  0  0
   -4.1472   23.2593  -32.3151 H   0  0  0  0  0  0  0  0  0  0  0  0
    0.2636   20.2388  -28.9294 H   0  0  0  0  0  0  0  0  0  0  0  0
    0.8506   19.9250  -27.2605 H   0  0  0  0  0  0  0  0  0  0  0  0
   -1.2548   18.3428  -28.8271 H   0  0  0  0  0  0  0  0  0  0  0  0
    0.3738   17.7826  -28.2830 H   0  0  0  0  0  0  0  0  0  0  0  0
   -2.9155   18.6180  -27.3819 H   0  0  0  0  0  0  0  0  0  0  0  0
   -2.6850   18.2912  -25.6205 H   0  0  0  0  0  0  0  0  0  0  0  0
   -2.8453   20.7555  -26.2259 H   0  0  0  0  0  0  0  0  0  0  0  0
   -1.3472   20.2908  -25.3490 H   0  0  0  0  0  0  0  0  0  0  0  0
    1.2765   21.5166  -26.7498 H   0  0  0  0  0  0  0  0  0  0  0  0
    3.1377   23.1686  -26.5239 H   0  0  0  0  0  0  0  0  0  0  0  0
    2.7917   25.5289  -27.2613 H   0  0  0  0  0  0  0  0  0  0  0  0
  1  2  2  0
  2  3  1  0
  3  4  1  0
  4  5  1  0
  5  6  2  0
  6  7  1  0
  7  8  2  0
  8  9  1  0
  8 10  1  0
 10 11  2  0
  2 12  1  0
 12 13  2  0
 13 14  1  0
 14 15  1  0
 15 16  1  0
 16 17  1  0
 17 18  1  0
 18 19  1  0
 19 20  1  0
 14 21  2  0
 21 22  1  0
 22 23  2  0
 23 24  1  0
 24 25  2  0
 25 26  1  0
 26 27  2  0
 27 28  1  0
 11  5  1  0
 27 12  1  0
 20 15  1  0
 26 21  1  0
  3 29  1  0
  4 30  1  0
  4 31  1  0
  6 32  1  0
  7 33  1  0
 10 34  1  0
 11 35  1  0
 16 36  1  0
 16 37  1  0
 17 38  1  0
 17 39  1  0
 19 40  1  0
 19 41  1  0
 20 42  1  0
 20 43  1  0
 22 44  1  0
 23 45  1  0
 24 46  1  0
M  CHG  1  28  -1
M  END
>  <UniqueID>  (33) 
30

>  <SMILES>  (33) 
O=C(NCc1ccc(Br)cc1)c1nc(N2CCOCC2)c2cccnc2c1[O-]

>  <Energy>  (33) 
63.30547805595301

>  <Genealogy>  (33) 
O=C(NCc1ccc(Br)cc1)c1nc(N2CCOCC2)c2cccnc2c1[O-] (protonated)
O=C(NCc1ccc(Br)cc1)c1nc(N2CCOCC2)c2cccnc2c1[O-] (3D coordinates assigned)
O=C(NCc1ccc(Br)cc1)c1nc(N2CCOCC2)c2cccnc2c1[O-] (nonaromatic ring conformer: 63.30547805595301 kcal/mol)

>  <smiles>  (33) 
O=C(NCc1ccc(Br)cc1)c1nc(N2CCOCC2)c2cccnc2c1O

>  <score_type>  (33) 
oracle

>  <origin>  (33) 
adgpu

>  <m_score__min__energy>  (33) 
-12.85

>  <m_primary>  (33) 
energy

$$$$
33:0
     RDKit          3D

 57 61  0  0  0  0  0  0  0  0999 V2000
   -9.0780   18.9070  -31.6220 C   0  0  0  0  0  0  0  0  0  0  0  0
   -9.0670   20.2830  -31.9860 O   0  0  0  0  0  0  0  0  0  0  0  0
   -7.9230   21.0970  -31.9880 C   0  0  0  0  0  0  0  0  0  0  0  0
   -7.8930   22.3470  -31.3400 C   0  0  0  0  0  0  0  0  0  0  0  0
   -6.7380   23.1420  -31.3770 C   0  0  0  0  0  0  0  0  0  0  0  0
   -6.7010   24.4640  -30.6570 C   0  0  0  0  0  0  0  0  0  0  0  0
   -5.7330   24.4040  -29.4740 C   0  0  0  0  0  0  0  0  0  0  0  0
   -4.3100   24.4760  -29.9490 C   0  0  0  0  0  0  0  0  0  0  0  0
   -3.9780   25.3640  -30.7780 O   0  0  0  0  0  0  0  0  0  0  0  0
   -3.3060   23.4990  -29.4990 C   0  0  0  0  0  0  0  0  0  0  0  0
   -1.9840   23.6040  -29.7600 N   0  0  0  0  0  0  0  0  0  0  0  0
   -1.4590   22.5170  -29.1650 C   0  0  0  0  0  0  0  0  0  0  0  0
   -2.4750   21.8020  -28.5710 C   0  0  0  0  0  0  0  0  0  0  0  0
   -2.3520   20.5510  -27.8140 C   0  0  0  0  0  0  0  0  0  0  0  0
   -1.1760   19.8660  -27.8250 N   0  0  0  0  0  0  0  0  0  0  0  0
   -1.0390   18.7040  -27.1340 C   0  0  0  0  0  0  0  0  0  0  0  0
   -2.1120   18.1980  -26.4040 C   0  0  0  0  0  0  0  0  0  0  0  0
   -3.3110   18.9100  -26.4040 C   0  0  0  0  0  0  0  0  0  0  0  0
   -3.4100   20.0690  -27.1060 N   0  0  0  0  0  0  0  0  0  0  0  0
   -3.6020   22.4300  -28.7940 O   0  0  0  0  0  0  0  0  0  0  0  0
   -5.5980   22.6690  -32.0400 C   0  0  0  0  0  0  0  0  0  0  0  0
   -5.6180   21.4300  -32.6800 C   0  0  0  0  0  0  0  0  0  0  0  0
   -6.7820   20.6390  -32.6660 C   0  0  0  0  0  0  0  0  0  0  0  0
   -6.8490   19.3920  -33.3100 O   0  0  0  0  0  0  0  0  0  0  0  0
   -6.1110   19.0200  -34.4750 C   0  0  0  0  0  0  0  0  0  0  0  0
   -4.9890   18.0730  -34.1230 C   0  0  0  0  0  0  0  0  0  0  0  0
   -5.2250   16.6880  -34.1090 C   0  0  0  0  0  0  0  0  0  0  0  0
   -4.2010   15.7940  -33.7830 C   0  0  0  0  0  0  0  0  0  0  0  0
   -2.9240   16.2670  -33.4740 C   0  0  0  0  0  0  0  0  0  0  0  0
   -2.6630   17.6430  -33.4950 C   0  0  0  0  0  0  0  0  0  0  0  0
   -1.3880   18.1410  -33.1920 C   0  0  0  0  0  0  0  0  0  0  0  0
   -1.1540   19.5170  -33.2220 C   0  0  0  0  0  0  0  0  0  0  0  0
   -2.1960   20.3840  -33.5590 C   0  0  0  0  0  0  0  0  0  0  0  0
   -3.4280   19.8900  -33.8500 N   0  0  0  0  0  0  0  0  0  0  0  0
   -3.6950   18.5540  -33.8270 C   0  0  0  0  0  0  0  0  0  0  0  0
   -9.0787   18.8177  -30.5256 H   0  0  0  0  0  0  0  0  0  0  0  0
   -9.9800   18.4271  -32.0295 H   0  0  0  0  0  0  0  0  0  0  0  0
   -8.1838   18.4128  -32.0295 H   0  0  0  0  0  0  0  0  0  0  0  0
   -8.7829   22.7029  -30.8002 H   0  0  0  0  0  0  0  0  0  0  0  0
   -6.3708   25.2472  -31.3553 H   0  0  0  0  0  0  0  0  0  0  0  0
   -7.7090   24.6917  -30.2801 H   0  0  0  0  0  0  0  0  0  0  0  0
   -5.9324   25.2508  -28.8008 H   0  0  0  0  0  0  0  0  0  0  0  0
   -5.8812   23.4519  -28.9434 H   0  0  0  0  0  0  0  0  0  0  0  0
   -0.3933   22.2444  -29.1548 H   0  0  0  0  0  0  0  0  0  0  0  0
   -0.0813   18.1632  -27.1511 H   0  0  0  0  0  0  0  0  0  0  0  0
   -2.0157   17.2583  -25.8404 H   0  0  0  0  0  0  0  0  0  0  0  0
   -4.1751   18.5339  -25.8366 H   0  0  0  0  0  0  0  0  0  0  0  0
   -4.6822   23.2782  -32.0559 H   0  0  0  0  0  0  0  0  0  0  0  0
   -4.7181   21.0686  -33.1992 H   0  0  0  0  0  0  0  0  0  0  0  0
   -6.7881   18.5268  -35.1879 H   0  0  0  0  0  0  0  0  0  0  0  0
   -5.6778   19.9274  -34.9210 H   0  0  0  0  0  0  0  0  0  0  0  0
   -6.2253   16.3034  -34.3570 H   0  0  0  0  0  0  0  0  0  0  0  0
   -4.4021   14.7126  -33.7698 H   0  0  0  0  0  0  0  0  0  0  0  0
   -2.1232   15.5591  -33.2141 H   0  0  0  0  0  0  0  0  0  0  0  0
   -0.5737   17.4490  -32.9312 H   0  0  0  0  0  0  0  0  0  0  0  0
   -0.1570   19.9152  -32.9822 H   0  0  0  0  0  0  0  0  0  0  0  0
   -2.0189   21.4692  -33.5889 H   0  0  0  0  0  0  0  0  0  0  0  0
  1  2  1  0
  2  3  1  0
  3  4  2  0
  4  5  1  0
  5  6  1  0
  6  7  1  0
  7  8  1  0
  8  9  2  0
  8 10  1  0
 10 11  2  0
 11 12  1  0
 12 13  2  0
 13 14  1  0
 14 15  2  0
 15 16  1  0
 16 17  2  0
 17 18  1  0
 18 19  2  0
 13 20  1  0
  5 21  2  0
 21 22  1  0
 22 23  2  0
 23 24  1  0
 24 25  1  0
 25 26  1  0
 26 27  2  0
 27 28  1  0
 28 29  2  0
 29 30  1  0
 30 31  2  0
 31 32  1  0
 32 33  2  0
 33 34  1  0
 34 35  2  0
 23  3  1  0
 35 26  1  0
 20 10  1  0
 35 30  1  0
 19 14  1  0
  1 36  1  0
  1 37  1  0
  1 38  1  0
  4 39  1  0
  6 40  1  0
  6 41  1  0
  7 42  1  0
  7 43  1  0
 12 44  1  0
 16 45  1  0
 17 46  1  0
 18 47  1  0
 21 48  1  0
 22 49  1  0
 25 50  1  0
 25 51  1  0
 27 52  1  0
 28 53  1  0
 29 54  1  0
 31 55  1  0
 32 56  1  0
 33 57  1  0
M  END
>  <UniqueID>  (34) 
31

>  <SMILES>  (34) 
COc1cc(CCC(=O)c2ncc(-c3ncccn3)o2)ccc1OCc1cccc2cccnc12

>  <Energy>  (34) 
91.66756800308444

>  <Genealogy>  (34) 
COc1cc(CCC(=O)c2ncc(-c3ncccn3)o2)ccc1OCc1cccc2cccnc12 (3D coordinates assigned)
COc1cc(CCC(=O)c2ncc(-c3ncccn3)o2)ccc1OCc1cccc2cccnc12 (optimized conformer: 91.66756800308444 kcal/mol)

>  <smiles>  (34) 
COc1cc(CCC(=O)c2ncc(-c3ncccn3)o2)ccc1OCc1cccc2cccnc12

>  <score_type>  (34) 
oracle

>  <origin>  (34) 
adgpu

>  <m_score__min__energy>  (34) 
-10.16

>  <m_primary>  (34) 
energy

$$$$
34:0
     RDKit          3D

 47 49  0  0  0  0  0  0  0  0999 V2000
   -3.2400   18.8210  -25.6120 N   0  0  0  0  0  0  0  0  0  0  0  0
   -2.4040   19.2890  -26.6730 C   0  0  0  0  0  0  0  0  0  0  0  0
   -1.2680   18.5580  -27.0500 C   0  0  0  0  0  0  0  0  0  0  0  0
   -0.4490   19.0170  -28.0860 C   0  0  0  0  0  0  0  0  0  0  0  0
   -0.7600   20.2070  -28.7500 C   0  0  0  0  0  0  0  0  0  0  0  0
   -1.8910   20.9450  -28.3780 C   0  0  0  0  0  0  0  0  0  0  0  0
   -2.2680   22.4660  -29.1830 S   0  0  0  0  0  0  0  0  0  0  0  0
   -1.3380   23.5560  -28.7250 O   0  0  0  0  0  0  0  0  0  0  0  0
   -2.1110   22.2800  -30.6660 O   0  0  0  0  0  0  0  0  0  0  0  0
   -3.9030   22.9350  -28.8330 N   0  0  0  0  0  0  0  0  0  0  0  0
   -4.8540   23.3460  -29.8360 C   0  0  0  0  0  0  0  0  0  0  0  0
   -6.0190   22.5990  -30.0950 C   0  0  0  0  0  0  0  0  0  0  0  0
   -6.9320   23.0090  -31.0750 C   0  0  0  0  0  0  0  0  0  0  0  0
   -8.3890   22.0590  -31.3810 S   0  0  0  0  0  0  0  0  0  0  0  0
   -9.3980   22.9170  -32.0920 O   0  0  0  0  0  0  0  0  0  0  0  0
   -8.9860   21.6280  -30.0700 O   0  0  0  0  0  0  0  0  0  0  0  0
   -8.0410   20.6460  -32.3510 N   0  0  0  0  0  0  0  0  0  0  0  0
   -8.5200   19.4250  -31.6660 C   0  0  0  0  0  0  0  0  0  0  0  0
   -7.8840   18.1650  -32.2610 C   0  0  0  0  0  0  0  0  0  0  0  0
   -6.3550   18.1790  -32.0820 C   0  0  0  0  0  0  0  0  0  0  0  0
   -5.7820   19.6020  -31.9640 C   0  0  0  0  0  0  0  0  0  0  0  0
   -6.6190   20.6050  -32.7730 C   0  0  0  0  0  0  0  0  0  0  0  0
   -6.6850   24.1770  -31.8040 C   0  0  0  0  0  0  0  0  0  0  0  0
   -5.5380   24.9310  -31.5530 C   0  0  0  0  0  0  0  0  0  0  0  0
   -4.6250   24.5220  -30.5760 C   0  0  0  0  0  0  0  0  0  0  0  0
   -3.4890   25.2910  -30.3490 O   0  0  0  0  0  0  0  0  0  0  0  0
   -2.7140   20.4810  -27.3430 C   0  0  0  0  0  0  0  0  0  0  0  0
   -4.2550   19.0660  -25.5820 H   0  0  0  0  0  0  0  0  0  0  0  0
   -2.8510   18.2230  -24.8480 H   0  0  0  0  0  0  0  0  0  0  0  0
   -1.0207   17.6211  -26.5293 H   0  0  0  0  0  0  0  0  0  0  0  0
    0.4412   18.4409  -28.3789 H   0  0  0  0  0  0  0  0  0  0  0  0
   -0.1153   20.5647  -29.5663 H   0  0  0  0  0  0  0  0  0  0  0  0
   -4.1750   22.9550  -27.8260 H   0  0  0  0  0  0  0  0  0  0  0  0
   -6.2147   21.6817  -29.5204 H   0  0  0  0  0  0  0  0  0  0  0  0
   -8.2598   19.4877  -30.5991 H   0  0  0  0  0  0  0  0  0  0  0  0
   -9.6100   19.3585  -31.7985 H   0  0  0  0  0  0  0  0  0  0  0  0
   -8.2970   17.2804  -31.7542 H   0  0  0  0  0  0  0  0  0  0  0  0
   -8.1097   18.1343  -33.3372 H   0  0  0  0  0  0  0  0  0  0  0  0
   -6.1030   17.6216  -31.1678 H   0  0  0  0  0  0  0  0  0  0  0  0
   -5.9124   17.7167  -32.9766 H   0  0  0  0  0  0  0  0  0  0  0  0
   -5.7841   19.9034  -30.9061 H   0  0  0  0  0  0  0  0  0  0  0  0
   -4.7572   19.5999  -32.3638 H   0  0  0  0  0  0  0  0  0  0  0  0
   -6.1858   21.6078  -32.6438 H   0  0  0  0  0  0  0  0  0  0  0  0
   -6.5966   20.2806  -33.8238 H   0  0  0  0  0  0  0  0  0  0  0  0
   -7.3968   24.5020  -32.5771 H   0  0  0  0  0  0  0  0  0  0  0  0
   -5.3512   25.8511  -32.1262 H   0  0  0  0  0  0  0  0  0  0  0  0
   -3.6073   21.0546  -27.0549 H   0  0  0  0  0  0  0  0  0  0  0  0
  1  2  1  0
  2  3  2  0
  3  4  1  0
  4  5  2  0
  5  6  1  0
  6  7  1  0
  7  8  2  0
  7  9  2  0
  7 10  1  0
 10 11  1  0
 11 12  2  0
 12 13  1  0
 13 14  1  0
 14 15  2  0
 14 16  2  0
 14 17  1  0
 17 18  1  0
 18 19  1  0
 19 20  1  0
 20 21  1  0
 21 22  1  0
 13 23  2  0
 23 24  1  0
 24 25  2  0
 25 26  1  0
  6 27  2  0
 27  2  1  0
 25 11  1  0
 22 17  1  0
  1 28  1  0
  1 29  1  0
  3 30  1  0
  4 31  1  0
  5 32  1  0
 10 33  1  0
 12 34  1  0
 18 35  1  0
 18 36  1  0
 19 37  1  0
 19 38  1  0
 20 39  1  0
 20 40  1  0
 21 41  1  0
 21 42  1  0
 22 43  1  0
 22 44  1  0
 23 45  1  0
 24 46  1  0
 27 47  1  0
M  CHG  1  26  -1
M  END
>  <UniqueID>  (35) 
32

>  <SMILES>  (35) 
Nc1cccc(S(=O)(=O)Nc2cc(S(=O)(=O)N3CCCCC3)ccc2[O-])c1

>  <Energy>  (35) 
53.981374904257095

>  <Genealogy>  (35) 
Nc1cccc(S(=O)(=O)Nc2cc(S(=O)(=O)N3CCCCC3)ccc2[O-])c1 (protonated)
Nc1cccc(S(=O)(=O)Nc2cc(S(=O)(=O)N3CCCCC3)ccc2[O-])c1 (3D coordinates assigned)
Nc1cccc(S(=O)(=O)Nc2cc(S(=O)(=O)N3CCCCC3)ccc2[O-])c1 (nonaromatic ring conformer: 53.981374904257095 kcal/mol)

>  <smiles>  (35) 
Nc1cccc(S(=O)(=O)Nc2cc(S(=O)(=O)N3CCCCC3)ccc2O)c1

>  <score_type>  (35) 
oracle

>  <origin>  (35) 
adgpu

>  <m_score__min__energy>  (35) 
-13.41

>  <m_primary>  (35) 
energy

$$$$
35:0
     RDKit          3D

 51 53  0  0  0  0  0  0  0  0999 V2000
   -2.4050   24.5490  -28.9290 C   0  0  0  0  0  0  0  0  0  0  0  0
   -3.2770   25.2240  -29.8300 O   0  0  0  0  0  0  0  0  0  0  0  0
   -4.5550   24.7670  -30.1960 C   0  0  0  0  0  0  0  0  0  0  0  0
   -5.7310   25.3800  -29.7170 C   0  0  0  0  0  0  0  0  0  0  0  0
   -6.9830   24.9030  -30.1070 C   0  0  0  0  0  0  0  0  0  0  0  0
   -7.0790   23.8260  -30.9920 C   0  0  0  0  0  0  0  0  0  0  0  0
   -5.9190   23.2050  -31.4670 C   0  0  0  0  0  0  0  0  0  0  0  0
   -4.6490   23.6670  -31.0650 C   0  0  0  0  0  0  0  0  0  0  0  0
   -3.4400   23.0310  -31.5070 N   0  0  0  0  0  0  0  0  0  0  0  0
   -2.9770   21.3960  -31.1690 S   0  0  0  0  0  0  0  0  0  0  0  0
   -2.1210   21.3770  -29.9330 O   0  0  0  0  0  0  0  0  0  0  0  0
   -4.2030   20.5650  -30.9110 O   0  0  0  0  0  0  0  0  0  0  0  0
   -2.0420   20.7470  -32.5120 C   0  0  0  0  0  0  0  0  0  0  0  0
   -1.0770   21.5260  -33.1660 C   0  0  0  0  0  0  0  0  0  0  0  0
   -0.3760   21.0040  -34.2570 C   0  0  0  0  0  0  0  0  0  0  0  0
   -0.6360   19.6990  -34.6930 C   0  0  0  0  0  0  0  0  0  0  0  0
   -1.5690   18.9000  -34.0270 C   0  0  0  0  0  0  0  0  0  0  0  0
   -1.8370   17.5820  -34.5180 N   0  0  0  0  0  0  0  0  0  0  0  0
   -3.1380   16.5770  -33.9610 S   0  0  0  0  0  0  0  0  0  0  0  0
   -2.6970   15.8520  -32.7180 O   0  0  0  0  0  0  0  0  0  0  0  0
   -3.4450   15.5530  -35.0190 O   0  0  0  0  0  0  0  0  0  0  0  0
   -4.6040   17.4980  -33.6420 C   0  0  0  0  0  0  0  0  0  0  0  0
   -4.9640   18.5740  -34.4680 C   0  0  0  0  0  0  0  0  0  0  0  0
   -6.1420   19.2850  -34.2240 C   0  0  0  0  0  0  0  0  0  0  0  0
   -6.9780   18.9280  -33.1510 C   0  0  0  0  0  0  0  0  0  0  0  0
   -8.2100   19.6250  -32.9020 N   0  0  0  0  0  0  0  0  0  0  0  0
   -8.3850   20.5900  -31.8540 C   0  0  0  0  0  0  0  0  0  0  0  0
   -9.6260   21.4200  -31.8060 C   0  0  0  0  0  0  0  0  0  0  0  0
   -7.5370   20.6910  -30.9280 O   0  0  0  0  0  0  0  0  0  0  0  0
   -6.6280   17.8330  -32.3460 C   0  0  0  0  0  0  0  0  0  0  0  0
   -5.4420   17.1300  -32.5810 C   0  0  0  0  0  0  0  0  0  0  0  0
   -2.2830   19.4370  -32.9430 C   0  0  0  0  0  0  0  0  0  0  0  0
   -2.6994   24.7769  -27.8939 H   0  0  0  0  0  0  0  0  0  0  0  0
   -2.4708   23.4641  -29.0986 H   0  0  0  0  0  0  0  0  0  0  0  0
   -1.3713   24.8846  -29.0986 H   0  0  0  0  0  0  0  0  0  0  0  0
   -5.6611   26.2383  -29.0326 H   0  0  0  0  0  0  0  0  0  0  0  0
   -7.8964   25.3759  -29.7169 H   0  0  0  0  0  0  0  0  0  0  0  0
   -8.0670   23.4664  -31.3153 H   0  0  0  0  0  0  0  0  0  0  0  0
   -5.9980   22.3523  -32.1574 H   0  0  0  0  0  0  0  0  0  0  0  0
   -0.8712   22.5497  -32.8200 H   0  0  0  0  0  0  0  0  0  0  0  0
    0.3783   21.6171  -34.7719 H   0  0  0  0  0  0  0  0  0  0  0  0
   -0.1012   19.2994  -35.5673 H   0  0  0  0  0  0  0  0  0  0  0  0
   -4.3166   18.8587  -35.3105 H   0  0  0  0  0  0  0  0  0  0  0  0
   -6.4168   20.1283  -34.8746 H   0  0  0  0  0  0  0  0  0  0  0  0
   -9.0490   19.3620  -33.4710 H   0  0  0  0  0  0  0  0  0  0  0  0
   -9.9029   21.6052  -30.7577 H   0  0  0  0  0  0  0  0  0  0  0  0
   -9.4452   22.3796  -32.3125 H   0  0  0  0  0  0  0  0  0  0  0  0
  -10.4438   20.8864  -32.3125 H   0  0  0  0  0  0  0  0  0  0  0  0
   -7.2913   17.5254  -31.5242 H   0  0  0  0  0  0  0  0  0  0  0  0
   -5.1664   16.2862  -31.9314 H   0  0  0  0  0  0  0  0  0  0  0  0
   -3.0374   18.8234  -32.4288 H   0  0  0  0  0  0  0  0  0  0  0  0
  1  2  1  0
  2  3  1  0
  3  4  2  0
  4  5  1  0
  5  6  2  0
  6  7  1  0
  7  8  2  0
  8  9  1  0
  9 10  1  0
 10 11  2  0
 10 12  2  0
 10 13  1  0
 13 14  2  0
 14 15  1  0
 15 16  2  0
 16 17  1  0
 17 18  1  0
 18 19  1  0
 19 20  2  0
 19 21  2  0
 19 22  1  0
 22 23  2  0
 23 24  1  0
 24 25  2  0
 25 26  1  0
 26 27  1  0
 27 28  1  0
 27 29  2  0
 25 30  1  0
 30 31  2  0
 17 32  2  0
  8  3  1  0
 32 13  1  0
 31 22  1  0
  1 33  1  0
  1 34  1  0
  1 35  1  0
  4 36  1  0
  5 37  1  0
  6 38  1  0
  7 39  1  0
 14 40  1  0
 15 41  1  0
 16 42  1  0
 23 43  1  0
 24 44  1  0
 26 45  1  0
 28 46  1  0
 28 47  1  0
 28 48  1  0
 30 49  1  0
 31 50  1  0
 32 51  1  0
M  CHG  2   9  -1  18  -1
M  END
>  <UniqueID>  (36) 
33

>  <SMILES>  (36) 
COc1ccccc1[N-]S(=O)(=O)c1cccc([N-]S(=O)(=O)c2ccc(NC(C)=O)cc2)c1

>  <Energy>  (36) 
62.815275481298755

>  <Genealogy>  (36) 
COc1ccccc1[N-]S(=O)(=O)c1cccc([N-]S(=O)(=O)c2ccc(NC(C)=O)cc2)c1 (protonated)
COc1ccccc1[N-]S(=O)(=O)c1cccc([N-]S(=O)(=O)c2ccc(NC(C)=O)cc2)c1 (3D coordinates assigned)
COc1ccccc1[N-]S(=O)(=O)c1cccc([N-]S(=O)(=O)c2ccc(NC(C)=O)cc2)c1 (optimized conformer: 62.815275481298755 kcal/mol)

>  <smiles>  (36) 
COc1ccccc1NS(=O)(=O)c1cccc(NS(=O)(=O)c2ccc(NC(C)=O)cc2)c1

>  <score_type>  (36) 
oracle

>  <origin>  (36) 
adgpu

>  <m_score__min__energy>  (36) 
-11.56

>  <m_primary>  (36) 
energy

$$$$
36:0
     RDKit          3D

 40 42  0  0  0  0  0  0  0  0999 V2000
   -2.9080   24.5180  -29.2390 C   0  0  0  0  0  0  0  0  0  0  0  0
   -3.5740   24.9240  -30.4700 N   0  0  0  0  0  0  0  0  0  0  0  0
   -4.9690   25.2380  -30.5800 C   0  0  0  0  0  0  0  0  0  0  0  0
   -5.3310   26.4370  -30.4500 O   0  0  0  0  0  0  0  0  0  0  0  0
   -5.9950   24.1990  -30.8020 C   0  0  0  0  0  0  0  0  0  0  0  0
   -6.4680   23.4440  -29.7190 C   0  0  0  0  0  0  0  0  0  0  0  0
   -7.4450   22.4640  -29.9140 C   0  0  0  0  0  0  0  0  0  0  0  0
   -7.9750   22.2290  -31.1920 C   0  0  0  0  0  0  0  0  0  0  0  0
   -8.9720   21.2020  -31.3620 N   0  0  0  0  0  0  0  0  0  0  0  0
   -9.0380   20.2940  -32.5080 C   0  0  0  0  0  0  0  0  0  0  0  0
   -7.7050   19.6510  -32.7410 C   0  0  0  0  0  0  0  0  0  0  0  0
   -6.5400   20.3300  -32.7140 N   0  0  0  0  0  0  0  0  0  0  0  0
   -5.6030   19.3900  -32.9600 C   0  0  0  0  0  0  0  0  0  0  0  0
   -4.1500   19.6800  -33.0390 C   0  0  0  0  0  0  0  0  0  0  0  0
   -3.3420   19.1060  -34.0380 C   0  0  0  0  0  0  0  0  0  0  0  0
   -1.9750   19.3930  -34.0960 C   0  0  0  0  0  0  0  0  0  0  0  0
   -1.3940   20.2550  -33.1630 C   0  0  0  0  0  0  0  0  0  0  0  0
    0.3290   20.5910  -33.2700 Cl  0  0  0  0  0  0  0  0  0  0  0  0
   -2.1890   20.8340  -32.1600 C   0  0  0  0  0  0  0  0  0  0  0  0
   -1.4970   21.9250  -30.9660 Cl  0  0  0  0  0  0  0  0  0  0  0  0
   -3.5570   20.5460  -32.1030 C   0  0  0  0  0  0  0  0  0  0  0  0
   -6.2210   18.1620  -33.1230 C   0  0  0  0  0  0  0  0  0  0  0  0
   -7.5420   18.3360  -32.9790 N   0  0  0  0  0  0  0  0  0  0  0  0
   -7.5200   23.0100  -32.2730 C   0  0  0  0  0  0  0  0  0  0  0  0
   -6.5420   23.9880  -32.0750 C   0  0  0  0  0  0  0  0  0  0  0  0
   -3.4884   24.8718  -28.3742 H   0  0  0  0  0  0  0  0  0  0  0  0
   -2.8339   23.4210  -29.2068 H   0  0  0  0  0  0  0  0  0  0  0  0
   -1.8989   24.9547  -29.2068 H   0  0  0  0  0  0  0  0  0  0  0  0
   -6.0677   23.6242  -28.7104 H   0  0  0  0  0  0  0  0  0  0  0  0
   -7.8017   21.8717  -29.0584 H   0  0  0  0  0  0  0  0  0  0  0  0
   -9.6840   21.0680  -30.6080 H   0  0  0  0  0  0  0  0  0  0  0  0
   -9.7874   19.5136  -32.3096 H   0  0  0  0  0  0  0  0  0  0  0  0
   -9.3190   20.8683  -33.4031 H   0  0  0  0  0  0  0  0  0  0  0  0
   -3.7892   18.4266  -34.7786 H   0  0  0  0  0  0  0  0  0  0  0  0
   -1.3534   18.9374  -34.8809 H   0  0  0  0  0  0  0  0  0  0  0  0
   -4.1761   21.0024  -31.3166 H   0  0  0  0  0  0  0  0  0  0  0  0
   -5.7152   17.2083  -33.3342 H   0  0  0  0  0  0  0  0  0  0  0  0
   -8.2840   17.6040  -33.0450 H   0  0  0  0  0  0  0  0  0  0  0  0
   -7.9370   22.8489  -33.2781 H   0  0  0  0  0  0  0  0  0  0  0  0
   -6.1988   24.5968  -32.9245 H   0  0  0  0  0  0  0  0  0  0  0  0
  1  2  1  0
  2  3  1  0
  3  4  2  0
  3  5  1  0
  5  6  2  0
  6  7  1  0
  7  8  2  0
  8  9  1  0
  9 10  1  0
 10 11  1  0
 11 12  2  0
 12 13  1  0
 13 14  1  0
 14 15  2  0
 15 16  1  0
 16 17  2  0
 17 18  1  0
 17 19  1  0
 19 20  1  0
 19 21  2  0
 13 22  2  0
 22 23  1  0
  8 24  1  0
 24 25  2  0
 25  5  1  0
 23 11  1  0
 21 14  1  0
  1 26  1  0
  1 27  1  0
  1 28  1  0
  6 29  1  0
  7 30  1  0
  9 31  1  0
 10 32  1  0
 10 33  1  0
 15 34  1  0
 16 35  1  0
 21 36  1  0
 22 37  1  0
 23 38  1  0
 24 39  1  0
 25 40  1  0
M  CHG  1   2  -1
M  END
>  <UniqueID>  (37) 
34

>  <SMILES>  (37) 
C[N-]C(=O)c1ccc(NCc2nc(-c3ccc(Cl)c(Cl)c3)c[nH]2)cc1

>  <Energy>  (37) 
75.11782419336235

>  <Genealogy>  (37) 
C[N-]C(=O)c1ccc(NCc2nc(-c3ccc(Cl)c(Cl)c3)c[nH]2)cc1 (protonated)
C[N-]C(=O)c1ccc(NCc2nc(-c3ccc(Cl)c(Cl)c3)c[nH]2)cc1 (3D coordinates assigned)
C[N-]C(=O)c1ccc(NCc2nc(-c3ccc(Cl)c(Cl)c3)c[nH]2)cc1 (optimized conformer: 75.11782419336235 kcal/mol)

>  <smiles>  (37) 
CNC(=O)c1ccc(NCc2nc(-c3ccc(Cl)c(Cl)c3)c[nH]2)cc1

>  <score_type>  (37) 
oracle

>  <origin>  (37) 
adgpu

>  <m_score__min__energy>  (37) 
-10.15

>  <m_primary>  (37) 
energy

$$$$
37:0
     RDKit          3D

 43 45  0  0  0  0  0  0  0  0999 V2000
   -4.7710   17.5920  -35.3100 C   0  0  0  0  0  0  0  0  0  0  0  0
   -5.4400   17.9050  -34.0070 C   0  0  0  0  0  0  0  0  0  0  0  0
   -6.0830   19.1380  -33.8180 C   0  0  0  0  0  0  0  0  0  0  0  0
   -6.7340   19.4000  -32.6010 C   0  0  0  0  0  0  0  0  0  0  0  0
   -7.4250   20.6910  -32.3770 C   0  0  0  0  0  0  0  0  0  0  0  0
   -8.8190   20.7080  -32.1700 C   0  0  0  0  0  0  0  0  0  0  0  0
   -9.4880   21.9160  -31.9670 C   0  0  0  0  0  0  0  0  0  0  0  0
   -8.7760   23.1170  -31.9590 C   0  0  0  0  0  0  0  0  0  0  0  0
   -7.3890   23.1130  -32.1460 C   0  0  0  0  0  0  0  0  0  0  0  0
   -6.7010   21.9040  -32.3600 C   0  0  0  0  0  0  0  0  0  0  0  0
   -5.3010   21.8690  -32.4740 O   0  0  0  0  0  0  0  0  0  0  0  0
   -4.3820   21.7830  -31.4190 C   0  0  0  0  0  0  0  0  0  0  0  0
   -3.7150   20.6050  -31.2540 N   0  0  0  0  0  0  0  0  0  0  0  0
   -2.7870   20.4240  -30.2820 C   0  0  0  0  0  0  0  0  0  0  0  0
   -2.4650   21.4670  -29.4160 C   0  0  0  0  0  0  0  0  0  0  0  0
   -3.0990   22.7060  -29.5690 C   0  0  0  0  0  0  0  0  0  0  0  0
   -2.7480   23.7810  -28.6880 N   0  0  0  0  0  0  0  0  0  0  0  0
   -1.4910   24.4950  -28.9120 C   0  0  0  0  0  0  0  0  0  0  0  0
   -3.6680   24.1610  -27.6150 C   0  0  0  0  0  0  0  0  0  0  0  0
   -4.0520   22.8810  -30.5940 C   0  0  0  0  0  0  0  0  0  0  0  0
   -4.6120   24.1920  -30.8340 C   0  0  0  0  0  0  0  0  0  0  0  0
   -5.0530   25.2390  -31.0520 N   0  0  0  0  0  0  0  0  0  0  0  0
   -6.7240   18.4160  -31.6010 C   0  0  0  0  0  0  0  0  0  0  0  0
   -6.0790   17.2000  -31.8300 C   0  0  0  0  0  0  0  0  0  0  0  0
   -5.4610   16.9710  -33.0190 N   0  0  0  0  0  0  0  0  0  0  0  0
   -3.7900   17.1330  -35.1176 H   0  0  0  0  0  0  0  0  0  0  0  0
   -5.3964   16.8930  -35.8847 H   0  0  0  0  0  0  0  0  0  0  0  0
   -4.6352   18.5201  -35.8847 H   0  0  0  0  0  0  0  0  0  0  0  0
   -6.0773   19.8939  -34.6171 H   0  0  0  0  0  0  0  0  0  0  0  0
   -9.3831   19.7636  -32.1684 H   0  0  0  0  0  0  0  0  0  0  0  0
  -10.5772   21.9219  -31.8132 H   0  0  0  0  0  0  0  0  0  0  0  0
   -9.3063   24.0684  -31.8054 H   0  0  0  0  0  0  0  0  0  0  0  0
   -6.8326   24.0617  -32.1256 H   0  0  0  0  0  0  0  0  0  0  0  0
   -2.2865   19.4501  -30.1768 H   0  0  0  0  0  0  0  0  0  0  0  0
   -1.7203   21.3185  -28.6202 H   0  0  0  0  0  0  0  0  0  0  0  0
   -1.0379   24.7524  -27.9433 H   0  0  0  0  0  0  0  0  0  0  0  0
   -0.8014   23.8538  -29.4806 H   0  0  0  0  0  0  0  0  0  0  0  0
   -1.6886   25.4157  -29.4806 H   0  0  0  0  0  0  0  0  0  0  0  0
   -3.1957   23.9659  -26.6409 H   0  0  0  0  0  0  0  0  0  0  0  0
   -3.9070   25.2314  -27.6988 H   0  0  0  0  0  0  0  0  0  0  0  0
   -4.5927   23.5712  -27.6988 H   0  0  0  0  0  0  0  0  0  0  0  0
   -7.2234   18.6026  -30.6388 H   0  0  0  0  0  0  0  0  0  0  0  0
   -6.0706   16.4264  -31.0481 H   0  0  0  0  0  0  0  0  0  0  0  0
  1  2  1  0
  2  3  2  0
  3  4  1  0
  4  5  1  0
  5  6  2  0
  6  7  1  0
  7  8  2  0
  8  9  1  0
  9 10  2  0
 10 11  1  0
 11 12  1  0
 12 13  2  0
 13 14  1  0
 14 15  2  0
 15 16  1  0
 16 17  1  0
 17 18  1  0
 17 19  1  0
 16 20  2  0
 20 21  1  0
 21 22  3  0
  4 23  2  0
 23 24  1  0
 24 25  2  0
 25  2  1  0
 10  5  1  0
 20 12  1  0
  1 26  1  0
  1 27  1  0
  1 28  1  0
  3 29  1  0
  6 30  1  0
  7 31  1  0
  8 32  1  0
  9 33  1  0
 14 34  1  0
 15 35  1  0
 18 36  1  0
 18 37  1  0
 18 38  1  0
 19 39  1  0
 19 40  1  0
 19 41  1  0
 23 42  1  0
 24 43  1  0
M  END
>  <UniqueID>  (38) 
35

>  <SMILES>  (38) 
Cc1cc(-c2ccccc2Oc2nccc(N(C)C)c2C#N)ccn1

>  <Energy>  (38) 
64.02239904330578

>  <Genealogy>  (38) 
Cc1cc(-c2ccccc2Oc2nccc(N(C)C)c2C#N)ccn1 (3D coordinates assigned)
Cc1cc(-c2ccccc2Oc2nccc(N(C)C)c2C#N)ccn1 (optimized conformer: 64.02239904330578 kcal/mol)

>  <smiles>  (38) 
Cc1cc(-c2ccccc2Oc2nccc(N(C)C)c2C#N)ccn1

>  <score_type>  (38) 
oracle

>  <origin>  (38) 
adgpu

>  <m_score__min__energy>  (38) 
-8.4399999999999995

>  <m_primary>  (38) 
energy

$$$$
38:0
     RDKit          3D

 51 52  0  0  0  0  0  0  0  0999 V2000
   -8.7390   20.2930  -31.3010 C   0  0  0  0  0  0  0  0  0  0  0  0
   -9.1530   19.3500  -32.4270 C   0  0  0  0  0  0  0  0  0  0  0  0
   -8.4160   18.0890  -32.3420 N   0  0  0  0  0  0  0  0  0  0  0  0
   -7.1560   17.8270  -32.9910 C   0  0  0  0  0  0  0  0  0  0  0  0
   -6.8570   16.5780  -33.5680 C   0  0  0  0  0  0  0  0  0  0  0  0
   -5.6260   16.3650  -34.1920 C   0  0  0  0  0  0  0  0  0  0  0  0
   -4.6750   17.3850  -34.2400 C   0  0  0  0  0  0  0  0  0  0  0  0
   -4.9420   18.6300  -33.6450 C   0  0  0  0  0  0  0  0  0  0  0  0
   -3.9890   19.7050  -33.7020 N   0  0  0  0  0  0  0  0  0  0  0  0
   -4.0140   20.8590  -32.8430 C   0  0  0  0  0  0  0  0  0  0  0  0
   -2.8680   21.2780  -32.1600 C   0  0  0  0  0  0  0  0  0  0  0  0
   -2.9140   22.3940  -31.3270 C   0  0  0  0  0  0  0  0  0  0  0  0
   -4.1080   23.1090  -31.1390 C   0  0  0  0  0  0  0  0  0  0  0  0
   -4.0470   24.5500  -30.1000 S   0  0  0  0  0  0  0  0  0  0  0  0
   -4.8750   24.3290  -28.8630 O   0  0  0  0  0  0  0  0  0  0  0  0
   -4.6200   25.7240  -30.8420 O   0  0  0  0  0  0  0  0  0  0  0  0
   -2.4160   24.9050  -29.6200 N   0  0  0  0  0  0  0  0  0  0  0  0
   -2.2690   24.7010  -28.1790 C   0  0  0  0  0  0  0  0  0  0  0  0
   -1.6200   23.3340  -27.9040 C   0  0  0  0  0  0  0  0  0  0  0  0
   -2.6730   22.2180  -27.8600 C   0  0  0  0  0  0  0  0  0  0  0  0
   -0.5620   23.0210  -28.9690 C   0  0  0  0  0  0  0  0  0  0  0  0
   -5.2980   22.6550  -31.7780 C   0  0  0  0  0  0  0  0  0  0  0  0
   -6.6330   23.3670  -31.6400 C   0  0  0  0  0  0  0  0  0  0  0  0
   -7.1100   23.2890  -30.3470 F   0  0  0  0  0  0  0  0  0  0  0  0
   -7.5930   22.8010  -32.4620 F   0  0  0  0  0  0  0  0  0  0  0  0
   -6.4880   24.6930  -31.9990 F   0  0  0  0  0  0  0  0  0  0  0  0
   -5.2190   21.5400  -32.6390 C   0  0  0  0  0  0  0  0  0  0  0  0
   -6.1890   18.8450  -33.0400 C   0  0  0  0  0  0  0  0  0  0  0  0
   -8.9472   19.8189  -30.3305 H   0  0  0  0  0  0  0  0  0  0  0  0
   -7.6633   20.5089  -31.3804 H   0  0  0  0  0  0  0  0  0  0  0  0
   -9.3081   21.2310  -31.3804 H   0  0  0  0  0  0  0  0  0  0  0  0
  -10.2307   19.1445  -32.3481 H   0  0  0  0  0  0  0  0  0  0  0  0
   -8.9256   19.8285  -33.3910 H   0  0  0  0  0  0  0  0  0  0  0  0
   -8.8510   17.3240  -31.7760 H   0  0  0  0  0  0  0  0  0  0  0  0
   -7.5972   15.7654  -33.5270 H   0  0  0  0  0  0  0  0  0  0  0  0
   -5.4050   15.3886  -34.6478 H   0  0  0  0  0  0  0  0  0  0  0  0
   -3.7130   17.2141  -34.7453 H   0  0  0  0  0  0  0  0  0  0  0  0
   -3.2250   19.6420  -34.4130 H   0  0  0  0  0  0  0  0  0  0  0  0
   -1.9255   20.7238  -32.2809 H   0  0  0  0  0  0  0  0  0  0  0  0
   -2.0005   22.7202  -30.8083 H   0  0  0  0  0  0  0  0  0  0  0  0
   -1.6339   25.4962  -27.7616 H   0  0  0  0  0  0  0  0  0  0  0  0
   -3.2623   24.7302  -27.7073 H   0  0  0  0  0  0  0  0  0  0  0  0
   -1.1326   23.3834  -26.9191 H   0  0  0  0  0  0  0  0  0  0  0  0
   -2.9041   21.9730  -26.8128 H   0  0  0  0  0  0  0  0  0  0  0  0
   -3.5880   22.5570  -28.3678 H   0  0  0  0  0  0  0  0  0  0  0  0
   -2.2815   21.3242  -28.3678 H   0  0  0  0  0  0  0  0  0  0  0  0
    0.3816   22.7418  -28.4775 H   0  0  0  0  0  0  0  0  0  0  0  0
   -0.9091   22.1871  -29.5967 H   0  0  0  0  0  0  0  0  0  0  0  0
   -0.3996   23.9096  -29.5967 H   0  0  0  0  0  0  0  0  0  0  0  0
   -6.1248   21.1986  -33.1614 H   0  0  0  0  0  0  0  0  0  0  0  0
   -6.4135   19.8264  -32.5968 H   0  0  0  0  0  0  0  0  0  0  0  0
  1  2  1  0
  2  3  1  0
  3  4  1  0
  4  5  2  0
  5  6  1  0
  6  7  2  0
  7  8  1  0
  8  9  1  0
  9 10  1  0
 10 11  2  0
 11 12  1  0
 12 13  2  0
 13 14  1  0
 14 15  2  0
 14 16  2  0
 14 17  1  0
 17 18  1  0
 18 19  1  0
 19 20  1  0
 19 21  1  0
 13 22  1  0
 22 23  1  0
 23 24  1  0
 23 25  1  0
 23 26  1  0
 22 27  2  0
  8 28  2  0
 28  4  1  0
 27 10  1  0
  1 29  1  0
  1 30  1  0
  1 31  1  0
  2 32  1  0
  2 33  1  0
  3 34  1  0
  5 35  1  0
  6 36  1  0
  7 37  1  0
  9 38  1  0
 11 39  1  0
 12 40  1  0
 18 41  1  0
 18 42  1  0
 19 43  1  0
 20 44  1  0
 20 45  1  0
 20 46  1  0
 21 47  1  0
 21 48  1  0
 21 49  1  0
 27 50  1  0
 28 51  1  0
M  CHG  1  17  -1
M  END
>  <UniqueID>  (39) 
36

>  <SMILES>  (39) 
CCNc1cccc(Nc2ccc(S(=O)(=O)[N-]CC(C)C)c(C(F)(F)F)c2)c1

>  <Energy>  (39) 
50.2850509977052

>  <Genealogy>  (39) 
CCNc1cccc(Nc2ccc(S(=O)(=O)[N-]CC(C)C)c(C(F)(F)F)c2)c1 (protonated)
CCNc1cccc(Nc2ccc(S(=O)(=O)[N-]CC(C)C)c(C(F)(F)F)c2)c1 (3D coordinates assigned)
CCNc1cccc(Nc2ccc(S(=O)(=O)[N-]CC(C)C)c(C(F)(F)F)c2)c1 (optimized conformer: 50.2850509977052 kcal/mol)

>  <smiles>  (39) 
CCNc1cccc(Nc2ccc(S(=O)(=O)NCC(C)C)c(C(F)(F)F)c2)c1

>  <score_type>  (39) 
oracle

>  <origin>  (39) 
adgpu

>  <m_score__min__energy>  (39) 
-9.7799999999999994

>  <m_primary>  (39) 
energy

$$$$
39:0
     RDKit          3D

 33 34  0  0  0  0  0  0  0  0999 V2000
   -2.8490   23.5160  -28.4230 C   0  0  0  0  0  0  0  0  0  0  0  0
   -2.6260   24.6650  -29.3590 C   0  0  0  0  0  0  0  0  0  0  0  0
   -1.6170   25.4000  -29.1930 O   0  0  0  0  0  0  0  0  0  0  0  0
   -3.5050   24.9320  -30.4610 N   0  0  0  0  0  0  0  0  0  0  0  0
   -4.6840   24.1960  -30.8110 C   0  0  0  0  0  0  0  0  0  0  0  0
   -4.6120   22.9360  -31.4280 C   0  0  0  0  0  0  0  0  0  0  0  0
   -5.7810   22.2330  -31.7340 C   0  0  0  0  0  0  0  0  0  0  0  0
   -7.0320   22.7760  -31.4160 C   0  0  0  0  0  0  0  0  0  0  0  0
   -8.5030   21.8960  -31.8230 S   0  0  0  0  0  0  0  0  0  0  0  0
   -9.5580   22.8360  -32.3370 O   0  0  0  0  0  0  0  0  0  0  0  0
   -9.0150   21.2100  -30.5890 O   0  0  0  0  0  0  0  0  0  0  0  0
   -8.1680   20.7040  -33.0370 N   0  0  0  0  0  0  0  0  0  0  0  0
   -7.2850   19.5830  -32.8810 C   0  0  0  0  0  0  0  0  0  0  0  0
   -6.0810   19.4850  -33.6050 C   0  0  0  0  0  0  0  0  0  0  0  0
   -5.2370   18.3860  -33.4270 C   0  0  0  0  0  0  0  0  0  0  0  0
   -5.5840   17.3730  -32.5310 C   0  0  0  0  0  0  0  0  0  0  0  0
   -6.7780   17.4580  -31.8120 C   0  0  0  0  0  0  0  0  0  0  0  0
   -7.6300   18.5550  -31.9800 C   0  0  0  0  0  0  0  0  0  0  0  0
   -8.8130   18.6040  -31.2420 O   0  0  0  0  0  0  0  0  0  0  0  0
   -7.1060   24.0150  -30.7690 C   0  0  0  0  0  0  0  0  0  0  0  0
   -5.9360   24.7160  -30.4610 C   0  0  0  0  0  0  0  0  0  0  0  0
   -2.7802   23.8707  -27.3840 H   0  0  0  0  0  0  0  0  0  0  0  0
   -3.8470   23.0881  -28.5990 H   0  0  0  0  0  0  0  0  0  0  0  0
   -2.0836   22.7458  -28.5990 H   0  0  0  0  0  0  0  0  0  0  0  0
   -3.6316   22.5007  -31.6714 H   0  0  0  0  0  0  0  0  0  0  0  0
   -5.7180   21.2510  -32.2257 H   0  0  0  0  0  0  0  0  0  0  0  0
   -5.8035   20.2783  -34.3147 H   0  0  0  0  0  0  0  0  0  0  0  0
   -4.2969   18.3186  -33.9941 H   0  0  0  0  0  0  0  0  0  0  0  0
   -4.9176   16.5090  -32.3917 H   0  0  0  0  0  0  0  0  0  0  0  0
   -7.0505   16.6572  -31.1089 H   0  0  0  0  0  0  0  0  0  0  0  0
   -9.3900   19.4350  -31.1940 H   0  0  0  0  0  0  0  0  0  0  0  0
   -8.0859   24.4378  -30.5025 H   0  0  0  0  0  0  0  0  0  0  0  0
   -5.9996   25.6827  -29.9401 H   0  0  0  0  0  0  0  0  0  0  0  0
  1  2  1  0
  2  3  2  0
  2  4  1  0
  4  5  1  0
  5  6  2  0
  6  7  1  0
  7  8  2  0
  8  9  1  0
  9 10  2  0
  9 11  2  0
  9 12  1  0
 12 13  1  0
 13 14  2  0
 14 15  1  0
 15 16  2  0
 16 17  1  0
 17 18  2  0
 18 19  1  0
  8 20  1  0
 20 21  2  0
 21  5  1  0
 18 13  1  0
  1 22  1  0
  1 23  1  0
  1 24  1  0
  6 25  1  0
  7 26  1  0
 14 27  1  0
 15 28  1  0
 16 29  1  0
 17 30  1  0
 19 31  1  0
 20 32  1  0
 21 33  1  0
M  CHG  2   4  -1  12  -1
M  END
>  <UniqueID>  (40) 
37

>  <SMILES>  (40) 
CC(=O)[N-]c1ccc(S(=O)(=O)[N-]c2ccccc2O)cc1

>  <Energy>  (40) 
40.12179964401778

>  <Genealogy>  (40) 
CC(=O)[N-]c1ccc(S(=O)(=O)[N-]c2ccccc2O)cc1 (protonated)
CC(=O)[N-]c1ccc(S(=O)(=O)[N-]c2ccccc2O)cc1 (3D coordinates assigned)
CC(=O)[N-]c1ccc(S(=O)(=O)[N-]c2ccccc2O)cc1 (optimized conformer: 40.12179964401778 kcal/mol)

>  <smiles>  (40) 
CC(=O)Nc1ccc(S(=O)(=O)Nc2ccccc2O)cc1

>  <score_type>  (40) 
oracle

>  <origin>  (40) 
adgpu

>  <m_score__min__energy>  (40) 
-10.199999999999999

>  <m_primary>  (40) 
energy

$$$$
40:0
     RDKit          3D

 51 54  0  0  0  0  0  0  0  0999 V2000
   -8.6960   19.5460  -31.5960 C   0  0  0  0  0  0  0  0  0  0  0  0
   -8.3420   20.8500  -32.3040 C   0  0  0  0  0  0  0  0  0  0  0  0
   -8.1680   21.9070  -31.3600 O   0  0  0  0  0  0  0  0  0  0  0  0
   -6.9820   22.6300  -31.1500 C   0  0  0  0  0  0  0  0  0  0  0  0
   -7.0480   23.7960  -30.3810 C   0  0  0  0  0  0  0  0  0  0  0  0
   -5.9000   24.5530  -30.1330 C   0  0  0  0  0  0  0  0  0  0  0  0
   -4.6570   24.1390  -30.6420 C   0  0  0  0  0  0  0  0  0  0  0  0
   -3.4590   24.8980  -30.4180 N   0  0  0  0  0  0  0  0  0  0  0  0
   -2.5160   24.6960  -29.3560 C   0  0  0  0  0  0  0  0  0  0  0  0
   -1.9890   25.7070  -28.8210 O   0  0  0  0  0  0  0  0  0  0  0  0
   -2.1090   23.3430  -28.9110 C   0  0  0  0  0  0  0  0  0  0  0  0
   -0.9320   22.7610  -29.4080 C   0  0  0  0  0  0  0  0  0  0  0  0
   -0.5400   21.4860  -28.9890 C   0  0  0  0  0  0  0  0  0  0  0  0
   -1.3150   20.7670  -28.0640 C   0  0  0  0  0  0  0  0  0  0  0  0
   -0.8930   19.4570  -27.6430 N   0  0  0  0  0  0  0  0  0  0  0  0
   -1.6230   18.6290  -26.9050 N   0  0  0  0  0  0  0  0  0  0  0  0
   -0.9600   17.4920  -26.7290 N   0  0  0  0  0  0  0  0  0  0  0  0
    0.2090   17.5750  -27.3470 N   0  0  0  0  0  0  0  0  0  0  0  0
    1.1710   16.4850  -27.4690 C   0  0  0  0  0  0  0  0  0  0  0  0
    1.5460   16.2940  -28.9120 C   0  0  0  0  0  0  0  0  0  0  0  0
    2.8890   16.0940  -29.2720 C   0  0  0  0  0  0  0  0  0  0  0  0
    3.2340   15.8750  -30.6090 C   0  0  0  0  0  0  0  0  0  0  0  0
    2.2420   15.8440  -31.5930 C   0  0  0  0  0  0  0  0  0  0  0  0
    0.9010   16.0290  -31.2410 C   0  0  0  0  0  0  0  0  0  0  0  0
   -0.3440   15.9780  -32.4760 Cl  0  0  0  0  0  0  0  0  0  0  0  0
    0.5530   16.2500  -29.9050 C   0  0  0  0  0  0  0  0  0  0  0  0
    0.2390   18.7850  -27.9280 C   0  0  0  0  0  0  0  0  0  0  0  0
    1.1680   19.1990  -28.6710 O   0  0  0  0  0  0  0  0  0  0  0  0
   -2.5100   21.3370  -27.5920 C   0  0  0  0  0  0  0  0  0  0  0  0
   -2.9040   22.6100  -28.0130 C   0  0  0  0  0  0  0  0  0  0  0  0
   -4.5900   22.9840  -31.4270 C   0  0  0  0  0  0  0  0  0  0  0  0
   -5.7390   22.2270  -31.6760 C   0  0  0  0  0  0  0  0  0  0  0  0
   -8.6550   19.6971  -30.5072 H   0  0  0  0  0  0  0  0  0  0  0  0
   -9.7109   19.2356  -31.8851 H   0  0  0  0  0  0  0  0  0  0  0  0
   -7.9774   18.7650  -31.8851 H   0  0  0  0  0  0  0  0  0  0  0  0
   -7.4076   20.7123  -32.8679 H   0  0  0  0  0  0  0  0  0  0  0  0
   -9.1637   21.1164  -32.9850 H   0  0  0  0  0  0  0  0  0  0  0  0
   -8.0139   24.1208  -29.9669 H   0  0  0  0  0  0  0  0  0  0  0  0
   -5.9692   25.4755  -29.5378 H   0  0  0  0  0  0  0  0  0  0  0  0
   -0.3139   23.3120  -30.1321 H   0  0  0  0  0  0  0  0  0  0  0  0
    0.3840   21.0417  -29.3875 H   0  0  0  0  0  0  0  0  0  0  0  0
    2.0723   16.7269  -26.8867 H   0  0  0  0  0  0  0  0  0  0  0  0
    0.7191   15.5581  -27.0861 H   0  0  0  0  0  0  0  0  0  0  0  0
    3.6718   16.1097  -28.4994 H   0  0  0  0  0  0  0  0  0  0  0  0
    4.2879   15.7268  -30.8869 H   0  0  0  0  0  0  0  0  0  0  0  0
    2.5159   15.6740  -32.6447 H   0  0  0  0  0  0  0  0  0  0  0  0
   -0.5029   16.3900  -29.6301 H   0  0  0  0  0  0  0  0  0  0  0  0
   -3.1401   20.7766  -26.8856 H   0  0  0  0  0  0  0  0  0  0  0  0
   -3.8439   23.0419  -27.6386 H   0  0  0  0  0  0  0  0  0  0  0  0
   -3.6258   22.6683  -31.8521 H   0  0  0  0  0  0  0  0  0  0  0  0
   -5.6719   21.3134  -32.2849 H   0  0  0  0  0  0  0  0  0  0  0  0
  1  2  1  0
  2  3  1  0
  3  4  1  0
  4  5  2  0
  5  6  1  0
  6  7  2  0
  7  8  1  0
  8  9  1  0
  9 10  2  0
  9 11  1  0
 11 12  2  0
 12 13  1  0
 13 14  2  0
 14 15  1  0
 15 16  1  0
 16 17  2  0
 17 18  1  0
 18 19  1  0
 19 20  1  0
 20 21  2  0
 21 22  1  0
 22 23  2  0
 23 24  1  0
 24 25  1  0
 24 26  2  0
 18 27  1  0
 27 28  2  0
 14 29  1  0
 29 30  2  0
  7 31  1  0
 31 32  2  0
 32  4  1  0
 30 11  1  0
 27 15  1  0
 26 20  1  0
  1 33  1  0
  1 34  1  0
  1 35  1  0
  2 36  1  0
  2 37  1  0
  5 38  1  0
  6 39  1  0
 12 40  1  0
 13 41  1  0
 19 42  1  0
 19 43  1  0
 21 44  1  0
 22 45  1  0
 23 46  1  0
 26 47  1  0
 29 48  1  0
 30 49  1  0
 31 50  1  0
 32 51  1  0
M  CHG  1   8  -1
M  END
>  <UniqueID>  (41) 
38

>  <SMILES>  (41) 
CCOc1ccc([N-]C(=O)c2ccc(-n3nnn(Cc4cccc(Cl)c4)c3=O)cc2)cc1

>  <Energy>  (41) 
106.44402367035649

>  <Genealogy>  (41) 
CCOc1ccc([N-]C(=O)c2ccc(-n3nnn(Cc4cccc(Cl)c4)c3=O)cc2)cc1 (protonated)
CCOc1ccc([N-]C(=O)c2ccc(-n3nnn(Cc4cccc(Cl)c4)c3=O)cc2)cc1 (3D coordinates assigned)
CCOc1ccc([N-]C(=O)c2ccc(-n3nnn(Cc4cccc(Cl)c4)c3=O)cc2)cc1 (optimized conformer: 106.44402367035649 kcal/mol)

>  <smiles>  (41) 
CCOc1ccc(NC(=O)c2ccc(-n3nnn(Cc4cccc(Cl)c4)c3=O)cc2)cc1

>  <score_type>  (41) 
oracle

>  <origin>  (41) 
adgpu

>  <m_score__min__energy>  (41) 
-11.300000000000001

>  <m_primary>  (41) 
energy

$$$$
41:0
     RDKit          3D

 60 64  0  0  0  0  0  0  0  0999 V2000
   -4.8950   24.2390  -31.3870 O   0  0  0  0  0  0  0  0  0  0  0  0
   -5.6570   23.5930  -30.6140 C   0  0  0  0  0  0  0  0  0  0  0  0
   -5.5030   23.7250  -29.1910 N   0  0  0  0  0  0  0  0  0  0  0  0
   -4.2800   24.1480  -28.5660 C   0  0  0  0  0  0  0  0  0  0  0  0
   -3.1260   24.3090  -29.3450 C   0  0  0  0  0  0  0  0  0  0  0  0
   -1.9290   24.7310  -28.7590 C   0  0  0  0  0  0  0  0  0  0  0  0
   -1.8690   25.0110  -27.3830 C   0  0  0  0  0  0  0  0  0  0  0  0
   -0.6400   25.4620  -26.7810 N   0  0  0  0  0  0  0  0  0  0  0  0
   -0.1010   26.7950  -27.0800 C   0  0  0  0  0  0  0  0  0  0  0  0
    0.0620   27.6070  -25.7860 C   0  0  0  0  0  0  0  0  0  0  0  0
    0.5380   26.7580  -24.5860 C   0  0  0  0  0  0  0  0  0  0  0  0
    1.1000   25.3940  -25.0060 C   0  0  0  0  0  0  0  0  0  0  0  0
    0.0530   24.6060  -25.8070 C   0  0  0  0  0  0  0  0  0  0  0  0
   -3.0360   24.8890  -26.6100 C   0  0  0  0  0  0  0  0  0  0  0  0
   -4.2320   24.4620  -27.1950 C   0  0  0  0  0  0  0  0  0  0  0  0
   -6.7200   22.7350  -31.1890 C   0  0  0  0  0  0  0  0  0  0  0  0
   -7.9970   23.2580  -31.4730 C   0  0  0  0  0  0  0  0  0  0  0  0
   -9.0050   22.4300  -31.9770 C   0  0  0  0  0  0  0  0  0  0  0  0
   -8.7560   21.0740  -32.1950 C   0  0  0  0  0  0  0  0  0  0  0  0
   -7.4910   20.5370  -31.9200 C   0  0  0  0  0  0  0  0  0  0  0  0
   -7.1970   18.8160  -32.1450 S   0  0  0  0  0  0  0  0  0  0  0  0
   -8.4560   18.1170  -32.5760 O   0  0  0  0  0  0  0  0  0  0  0  0
   -6.7490   18.2090  -30.8450 O   0  0  0  0  0  0  0  0  0  0  0  0
   -5.9580   18.6000  -33.3390 N   0  0  0  0  0  0  0  0  0  0  0  0
   -6.0680   17.6620  -34.4530 C   0  0  0  0  0  0  0  0  0  0  0  0
   -4.6510   17.5670  -35.0730 C   0  0  0  0  0  0  0  0  0  0  0  0
   -3.8270   18.4290  -34.1810 C   0  0  0  0  0  0  0  0  0  0  0  0
   -2.4530   18.6720  -34.2490 C   0  0  0  0  0  0  0  0  0  0  0  0
   -1.8760   19.5260  -33.2950 C   0  0  0  0  0  0  0  0  0  0  0  0
   -2.6760   20.1210  -32.3010 C   0  0  0  0  0  0  0  0  0  0  0  0
   -4.0540   19.8600  -32.2520 C   0  0  0  0  0  0  0  0  0  0  0  0
   -4.6040   18.9990  -33.2100 C   0  0  0  0  0  0  0  0  0  0  0  0
   -6.4780   21.3680  -31.4190 C   0  0  0  0  0  0  0  0  0  0  0  0
   -6.3530   23.6220  -28.5920 H   0  0  0  0  0  0  0  0  0  0  0  0
   -3.1624   24.1019  -30.4247 H   0  0  0  0  0  0  0  0  0  0  0  0
   -1.0277   24.8447  -29.3792 H   0  0  0  0  0  0  0  0  0  0  0  0
    0.8792   26.6890  -27.5677 H   0  0  0  0  0  0  0  0  0  0  0  0
   -0.7991   27.3217  -27.7473 H   0  0  0  0  0  0  0  0  0  0  0  0
    0.7996   28.4033  -25.9644 H   0  0  0  0  0  0  0  0  0  0  0  0
   -0.9287   28.0090  -25.5273 H   0  0  0  0  0  0  0  0  0  0  0  0
    1.3244   27.3128  -24.0534 H   0  0  0  0  0  0  0  0  0  0  0  0
   -0.3367   26.5718  -23.9455 H   0  0  0  0  0  0  0  0  0  0  0  0
    1.9934   25.5467  -25.6294 H   0  0  0  0  0  0  0  0  0  0  0  0
    1.3616   24.8230  -24.1030 H   0  0  0  0  0  0  0  0  0  0  0  0
    0.5558   23.7884  -26.3444 H   0  0  0  0  0  0  0  0  0  0  0  0
   -0.6941   24.2119  -25.1024 H   0  0  0  0  0  0  0  0  0  0  0  0
   -3.0085   25.1311  -25.5373 H   0  0  0  0  0  0  0  0  0  0  0  0
   -5.1399   24.3711  -26.5806 H   0  0  0  0  0  0  0  0  0  0  0  0
   -8.2024   24.3243  -31.2972 H   0  0  0  0  0  0  0  0  0  0  0  0
   -9.9970   22.8486  -32.2023 H   0  0  0  0  0  0  0  0  0  0  0  0
   -9.5547   20.4251  -32.5837 H   0  0  0  0  0  0  0  0  0  0  0  0
   -6.3938   16.6756  -34.0913 H   0  0  0  0  0  0  0  0  0  0  0  0
   -6.8094   17.9996  -35.1922 H   0  0  0  0  0  0  0  0  0  0  0  0
   -4.2862   16.5293  -35.0647 H   0  0  0  0  0  0  0  0  0  0  0  0
   -4.6202   17.8842  -36.1258 H   0  0  0  0  0  0  0  0  0  0  0  0
   -1.8372   18.2052  -35.0318 H   0  0  0  0  0  0  0  0  0  0  0  0
   -0.7956   19.7306  -33.3245 H   0  0  0  0  0  0  0  0  0  0  0  0
   -2.2191   20.7932  -31.5598 H   0  0  0  0  0  0  0  0  0  0  0  0
   -4.6872   20.3207  -31.4795 H   0  0  0  0  0  0  0  0  0  0  0  0
   -5.4848   20.9470  -31.2038 H   0  0  0  0  0  0  0  0  0  0  0  0
  1  2  2  0
  2  3  1  0
  3  4  1  0
  4  5  2  0
  5  6  1  0
  6  7  2  0
  7  8  1  0
  8  9  1  0
  9 10  1  0
 10 11  1  0
 11 12  1  0
 12 13  1  0
  7 14  1  0
 14 15  2  0
  2 16  1  0
 16 17  2  0
 17 18  1  0
 18 19  2  0
 19 20  1  0
 20 21  1  0
 21 22  2  0
 21 23  2  0
 21 24  1  0
 24 25  1  0
 25 26  1  0
 26 27  1  0
 27 28  2  0
 28 29  1  0
 29 30  2  0
 30 31  1  0
 31 32  2  0
 20 33  2  0
 15  4  1  0
 33 16  1  0
 13  8  1  0
 32 24  1  0
 32 27  1  0
  3 34  1  0
  5 35  1  0
  6 36  1  0
  9 37  1  0
  9 38  1  0
 10 39  1  0
 10 40  1  0
 11 41  1  0
 11 42  1  0
 12 43  1  0
 12 44  1  0
 13 45  1  0
 13 46  1  0
 14 47  1  0
 15 48  1  0
 17 49  1  0
 18 50  1  0
 19 51  1  0
 25 52  1  0
 25 53  1  0
 26 54  1  0
 26 55  1  0
 28 56  1  0
 29 57  1  0
 30 58  1  0
 31 59  1  0
 33 60  1  0
M  END
>  <UniqueID>  (42) 
39

>  <SMILES>  (42) 
O=C(Nc1ccc(N2CCCCC2)cc1)c1cccc(S(=O)(=O)N2CCc3ccccc32)c1

>  <Energy>  (42) 
91.19927401753363

>  <Genealogy>  (42) 
O=C(Nc1ccc(N2CCCCC2)cc1)c1cccc(S(=O)(=O)N2CCc3ccccc32)c1 (3D coordinates assigned)
O=C(Nc1ccc(N2CCCCC2)cc1)c1cccc(S(=O)(=O)N2CCc3ccccc32)c1 (nonaromatic ring conformer: 91.19927401753363 kcal/mol)

>  <smiles>  (42) 
O=C(Nc1ccc(N2CCCCC2)cc1)c1cccc(S(=O)(=O)N2CCc3ccccc32)c1

>  <score_type>  (42) 
oracle

>  <origin>  (42) 
adgpu

>  <m_score__min__energy>  (42) 
-11.08

>  <m_primary>  (42) 
energy

$$$$
42:0
     RDKit          3D

 32 33  0  0  0  0  0  0  0  0999 V2000
   -8.1780   23.4180  -31.8660 C   0  0  0  0  0  0  0  0  0  0  0  0
   -7.2470   22.2510  -31.8780 C   0  0  0  0  0  0  0  0  0  0  0  0
   -7.3490   21.2140  -32.7340 N   0  0  0  0  0  0  0  0  0  0  0  0
   -6.2990   20.4280  -32.5430 N   0  0  0  0  0  0  0  0  0  0  0  0
   -6.0240   19.2440  -33.3490 C   0  0  0  0  0  0  0  0  0  0  0  0
   -5.4980   20.9520  -31.5890 C   0  0  0  0  0  0  0  0  0  0  0  0
   -4.1470   20.4270  -31.2110 C   0  0  0  0  0  0  0  0  0  0  0  0
   -6.0840   22.1180  -31.1460 C   0  0  0  0  0  0  0  0  0  0  0  0
   -5.4990   23.0910  -30.2820 N   0  0  0  0  0  0  0  0  0  0  0  0
   -3.9220   23.7230  -30.6030 S   0  0  0  0  0  0  0  0  0  0  0  0
   -4.0260   25.2040  -30.8360 O   0  0  0  0  0  0  0  0  0  0  0  0
   -3.3570   23.0850  -31.8420 O   0  0  0  0  0  0  0  0  0  0  0  0
   -2.8730   23.4210  -29.2160 C   0  0  0  0  0  0  0  0  0  0  0  0
   -2.8720   22.1550  -28.6100 C   0  0  0  0  0  0  0  0  0  0  0  0
   -2.0110   21.8820  -27.5430 C   0  0  0  0  0  0  0  0  0  0  0  0
   -2.0110   20.2940  -26.7990 Cl  0  0  0  0  0  0  0  0  0  0  0  0
   -1.1400   22.8720  -27.0760 C   0  0  0  0  0  0  0  0  0  0  0  0
   -1.1300   24.1330  -27.6770 C   0  0  0  0  0  0  0  0  0  0  0  0
   -1.9880   24.4120  -28.7460 C   0  0  0  0  0  0  0  0  0  0  0  0
   -1.9480   25.6690  -29.3370 O   0  0  0  0  0  0  0  0  0  0  0  0
   -8.4015   23.6981  -30.8260 H   0  0  0  0  0  0  0  0  0  0  0  0
   -7.7072   24.2680  -32.3816 H   0  0  0  0  0  0  0  0  0  0  0  0
   -9.1114   23.1478  -32.3816 H   0  0  0  0  0  0  0  0  0  0  0  0
   -5.8252   18.3881  -32.6873 H   0  0  0  0  0  0  0  0  0  0  0  0
   -6.8946   19.0223  -33.9838 H   0  0  0  0  0  0  0  0  0  0  0  0
   -5.1448   19.4287  -33.9838 H   0  0  0  0  0  0  0  0  0  0  0  0
   -4.0602   20.3933  -30.1149 H   0  0  0  0  0  0  0  0  0  0  0  0
   -4.0196   19.4139  -31.6202 H   0  0  0  0  0  0  0  0  0  0  0  0
   -3.3690   21.0882  -31.6202 H   0  0  0  0  0  0  0  0  0  0  0  0
   -3.5529   21.3728  -28.9769 H   0  0  0  0  0  0  0  0  0  0  0  0
   -0.4632   22.6576  -26.2358 H   0  0  0  0  0  0  0  0  0  0  0  0
   -0.4444   24.9100  -27.3080 H   0  0  0  0  0  0  0  0  0  0  0  0
  1  2  1  0
  2  3  2  0
  3  4  1  0
  4  5  1  0
  4  6  1  0
  6  7  1  0
  6  8  2  0
  8  9  1  0
  9 10  1  0
 10 11  2  0
 10 12  2  0
 10 13  1  0
 13 14  2  0
 14 15  1  0
 15 16  1  0
 15 17  2  0
 17 18  1  0
 18 19  2  0
 19 20  1  0
  8  2  1  0
 19 13  1  0
  1 21  1  0
  1 22  1  0
  1 23  1  0
  5 24  1  0
  5 25  1  0
  5 26  1  0
  7 27  1  0
  7 28  1  0
  7 29  1  0
 14 30  1  0
 17 31  1  0
 18 32  1  0
M  CHG  2   9  -1  20  -1
M  END
>  <UniqueID>  (43) 
40

>  <SMILES>  (43) 
Cc1nn(C)c(C)c1[N-]S(=O)(=O)c1cc(Cl)ccc1[O-]

>  <Energy>  (43) 
69.46621589171147

>  <Genealogy>  (43) 
Cc1nn(C)c(C)c1[N-]S(=O)(=O)c1cc(Cl)ccc1[O-] (protonated)
Cc1nn(C)c(C)c1[N-]S(=O)(=O)c1cc(Cl)ccc1[O-] (3D coordinates assigned)
Cc1nn(C)c(C)c1[N-]S(=O)(=O)c1cc(Cl)ccc1[O-] (optimized conformer: 69.46621589171147 kcal/mol)

>  <smiles>  (43) 
Cc1nn(C)c(C)c1NS(=O)(=O)c1cc(Cl)ccc1O

>  <score_type>  (43) 
oracle

>  <origin>  (43) 
adgpu

>  <m_score__min__energy>  (43) 
-11.369999999999999

>  <m_primary>  (43) 
energy

$$$$
43:0
     RDKit          3D

 35 37  0  0  0  0  0  0  0  0999 V2000
   -5.5080   20.4940  -33.0330 F   0  0  0  0  0  0  0  0  0  0  0  0
   -6.7570   20.7530  -32.5750 C   0  0  0  0  0  0  0  0  0  0  0  0
   -7.8260   19.9810  -33.0420 C   0  0  0  0  0  0  0  0  0  0  0  0
   -9.1180   20.2030  -32.5580 C   0  0  0  0  0  0  0  0  0  0  0  0
   -9.3440   21.1930  -31.6000 C   0  0  0  0  0  0  0  0  0  0  0  0
   -8.2810   21.9680  -31.1280 C   0  0  0  0  0  0  0  0  0  0  0  0
   -6.9780   21.7590  -31.6130 C   0  0  0  0  0  0  0  0  0  0  0  0
   -5.8890   22.5670  -31.1300 N   0  0  0  0  0  0  0  0  0  0  0  0
   -4.6060   21.9210  -30.8020 C   0  0  0  0  0  0  0  0  0  0  0  0
   -3.4890   22.9530  -30.6410 C   0  0  0  0  0  0  0  0  0  0  0  0
   -3.9500   24.0420  -29.7680 N   0  0  0  0  0  0  0  0  0  0  0  0
   -3.1300   24.5430  -28.6960 C   0  0  0  0  0  0  0  0  0  0  0  0
   -3.5250   24.4080  -27.3530 C   0  0  0  0  0  0  0  0  0  0  0  0
   -2.7130   24.9270  -26.3420 C   0  0  0  0  0  0  0  0  0  0  0  0
   -1.5250   25.5810  -26.6710 C   0  0  0  0  0  0  0  0  0  0  0  0
   -1.1690   25.7150  -28.0140 C   0  0  0  0  0  0  0  0  0  0  0  0
   -1.9730   25.2040  -28.9850 N   0  0  0  0  0  0  0  0  0  0  0  0
   -5.2450   24.6860  -30.0330 C   0  0  0  0  0  0  0  0  0  0  0  0
   -5.9790   24.0320  -31.2120 C   0  0  0  0  0  0  0  0  0  0  0  0
   -7.6490   19.1966  -33.7926 H   0  0  0  0  0  0  0  0  0  0  0  0
   -9.9569   19.5977  -32.9319 H   0  0  0  0  0  0  0  0  0  0  0  0
  -10.3606   21.3634  -31.2159 H   0  0  0  0  0  0  0  0  0  0  0  0
   -8.4649   22.7461  -30.3726 H   0  0  0  0  0  0  0  0  0  0  0  0
   -4.7163   21.3627  -29.8607 H   0  0  0  0  0  0  0  0  0  0  0  0
   -4.3372   21.2445  -31.6267 H   0  0  0  0  0  0  0  0  0  0  0  0
   -2.6072   22.4719  -30.1926 H   0  0  0  0  0  0  0  0  0  0  0  0
   -3.2223   23.3614  -31.6269 H   0  0  0  0  0  0  0  0  0  0  0  0
   -4.4662   23.8976  -27.1007 H   0  0  0  0  0  0  0  0  0  0  0  0
   -3.0095   24.8204  -25.2881 H   0  0  0  0  0  0  0  0  0  0  0  0
   -0.8762   25.9865  -25.8807 H   0  0  0  0  0  0  0  0  0  0  0  0
   -0.2383   26.2338  -28.2872 H   0  0  0  0  0  0  0  0  0  0  0  0
   -5.8732   24.6046  -29.1337 H   0  0  0  0  0  0  0  0  0  0  0  0
   -5.0559   25.7385  -30.2908 H   0  0  0  0  0  0  0  0  0  0  0  0
   -7.0374   24.3309  -31.1894 H   0  0  0  0  0  0  0  0  0  0  0  0
   -5.5094   24.3639  -32.1497 H   0  0  0  0  0  0  0  0  0  0  0  0
  1  2  1  0
  2  3  2  0
  3  4  1  0
  4  5  2  0
  5  6  1  0
  6  7  2  0
  7  8  1  0
  8  9  1  0
  9 10  1  0
 10 11  1  0
 11 12  1  0
 12 13  2  0
 13 14  1  0
 14 15  2  0
 15 16  1  0
 16 17  2  0
 11 18  1  0
 18 19  1  0
  7  2  1  0
 19  8  1  0
 17 12  1  0
  3 20  1  0
  4 21  1  0
  5 22  1  0
  6 23  1  0
  9 24  1  0
  9 25  1  0
 10 26  1  0
 10 27  1  0
 13 28  1  0
 14 29  1  0
 15 30  1  0
 16 31  1  0
 18 32  1  0
 18 33  1  0
 19 34  1  0
 19 35  1  0
M  END
>  <UniqueID>  (44) 
41

>  <SMILES>  (44) 
Fc1ccccc1N1CCN(c2ccccn2)CC1

>  <Energy>  (44) 
45.80452528793363

>  <Genealogy>  (44) 
Fc1ccccc1N1CCN(c2ccccn2)CC1 (3D coordinates assigned)
Fc1ccccc1N1CCN(c2ccccn2)CC1 (nonaromatic ring conformer: 45.80452528793363 kcal/mol)

>  <smiles>  (44) 
Fc1ccccc1N1CCN(c2ccccn2)CC1

>  <score_type>  (44) 
oracle

>  <origin>  (44) 
adgpu

>  <m_score__min__energy>  (44) 
-6.9299999999999997

>  <m_primary>  (44) 
energy

$$$$
44:0
     RDKit          3D

 71 75  0  0  0  0  0  0  0  0999 V2000
   -2.8750   18.1140  -34.2010 C   0  0  0  0  0  0  0  0  0  0  0  0
   -2.1990   17.2930  -33.1070 C   0  0  0  0  0  0  0  0  0  0  0  0
   -0.7250   17.6850  -32.9540 C   0  0  0  0  0  0  0  0  0  0  0  0
   -0.2490   18.6060  -34.0470 C   0  0  0  0  0  0  0  0  0  0  0  0
    0.1980   18.1610  -35.2450 N   0  0  0  0  0  0  0  0  0  0  0  0
    0.5430   19.2770  -35.9140 C   0  0  0  0  0  0  0  0  0  0  0  0
    1.2430   19.2500  -37.2350 C   0  0  0  0  0  0  0  0  0  0  0  0
    0.2990   20.3810  -35.1230 C   0  0  0  0  0  0  0  0  0  0  0  0
    0.6300   21.7750  -35.4550 C   0  0  0  0  0  0  0  0  0  0  0  0
   -0.1090   22.6970  -35.0230 O   0  0  0  0  0  0  0  0  0  0  0  0
    1.7510   22.1080  -36.2810 N   0  0  0  0  0  0  0  0  0  0  0  0
    2.5110   23.3550  -36.2200 C   0  0  0  0  0  0  0  0  0  0  0  0
    1.6590   24.5600  -36.6400 C   0  0  0  0  0  0  0  0  0  0  0  0
    1.3580   25.5380  -35.4910 C   0  0  0  0  0  0  0  0  0  0  0  0
    0.2650   26.5110  -35.8470 C   0  0  0  0  0  0  0  0  0  0  0  0
   -0.3810   26.4240  -37.0920 C   0  0  0  0  0  0  0  0  0  0  0  0
   -1.4100   27.3150  -37.4160 C   0  0  0  0  0  0  0  0  0  0  0  0
   -1.8040   28.2940  -36.5000 C   0  0  0  0  0  0  0  0  0  0  0  0
   -1.1710   28.3830  -35.2570 C   0  0  0  0  0  0  0  0  0  0  0  0
   -0.1420   27.4940  -34.9290 C   0  0  0  0  0  0  0  0  0  0  0  0
   -0.1990   19.9590  -33.9400 N   0  0  0  0  0  0  0  0  0  0  0  0
   -0.4380   20.7750  -32.7380 C   0  0  0  0  0  0  0  0  0  0  0  0
   -1.9110   20.9750  -32.4950 C   0  0  0  0  0  0  0  0  0  0  0  0
   -2.7290   21.4990  -33.5070 C   0  0  0  0  0  0  0  0  0  0  0  0
   -4.1070   21.6230  -33.3100 C   0  0  0  0  0  0  0  0  0  0  0  0
   -4.6850   21.2240  -32.0960 C   0  0  0  0  0  0  0  0  0  0  0  0
   -6.1470   21.3070  -31.9020 C   0  0  0  0  0  0  0  0  0  0  0  0
   -6.9300   20.1980  -32.2630 C   0  0  0  0  0  0  0  0  0  0  0  0
   -8.3210   20.2550  -32.1800 C   0  0  0  0  0  0  0  0  0  0  0  0
   -8.9480   21.4190  -31.7410 C   0  0  0  0  0  0  0  0  0  0  0  0
   -8.1860   22.5270  -31.3640 C   0  0  0  0  0  0  0  0  0  0  0  0
   -6.7810   22.4850  -31.4210 C   0  0  0  0  0  0  0  0  0  0  0  0
   -6.0150   23.6550  -30.9250 C   0  0  0  0  0  0  0  0  0  0  0  0
   -4.9900   24.2280  -31.5900 N   0  0  0  0  0  0  0  0  0  0  0  0
   -4.6260   25.2560  -30.8410 N   0  0  0  0  0  0  0  0  0  0  0  0
   -5.4010   25.3080  -29.7730 N   0  0  0  0  0  0  0  0  0  0  0  0
   -6.2890   24.3300  -29.7900 N   0  0  0  0  0  0  0  0  0  0  0  0
   -3.8620   20.7510  -31.0630 C   0  0  0  0  0  0  0  0  0  0  0  0
   -2.4840   20.6340  -31.2580 C   0  0  0  0  0  0  0  0  0  0  0  0
   -3.5101   18.8854  -33.7410 H   0  0  0  0  0  0  0  0  0  0  0  0
   -2.1078   18.5952  -34.8254 H   0  0  0  0  0  0  0  0  0  0  0  0
   -3.4945   17.4534  -34.8254 H   0  0  0  0  0  0  0  0  0  0  0  0
   -2.7183   17.4686  -32.1533 H   0  0  0  0  0  0  0  0  0  0  0  0
   -2.2508   16.2301  -33.3854 H   0  0  0  0  0  0  0  0  0  0  0  0
   -0.5947   18.1914  -31.9862 H   0  0  0  0  0  0  0  0  0  0  0  0
   -0.1290   16.7625  -33.0155 H   0  0  0  0  0  0  0  0  0  0  0  0
    2.3302   19.2081  -37.0731 H   0  0  0  0  0  0  0  0  0  0  0  0
    0.9223   18.3636  -37.8019 H   0  0  0  0  0  0  0  0  0  0  0  0
    0.9915   20.1585  -37.8019 H   0  0  0  0  0  0  0  0  0  0  0  0
    2.8619   23.5086  -35.1888 H   0  0  0  0  0  0  0  0  0  0  0  0
    3.3583   23.2746  -36.9168 H   0  0  0  0  0  0  0  0  0  0  0  0
    2.1963   25.1066  -37.4290 H   0  0  0  0  0  0  0  0  0  0  0  0
    0.6925   24.1643  -36.9856 H   0  0  0  0  0  0  0  0  0  0  0  0
    1.0461   24.9619  -34.6074 H   0  0  0  0  0  0  0  0  0  0  0  0
    2.2725   26.1149  -35.2889 H   0  0  0  0  0  0  0  0  0  0  0  0
   -0.0765   25.6525  -37.8145 H   0  0  0  0  0  0  0  0  0  0  0  0
   -1.9097   27.2447  -38.3934 H   0  0  0  0  0  0  0  0  0  0  0  0
   -2.6122   28.9945  -36.7571 H   0  0  0  0  0  0  0  0  0  0  0  0
   -1.4824   29.1530  -34.5358 H   0  0  0  0  0  0  0  0  0  0  0  0
    0.3508   27.5647  -33.9481 H   0  0  0  0  0  0  0  0  0  0  0  0
    0.0030   20.2677  -31.8673 H   0  0  0  0  0  0  0  0  0  0  0  0
    0.0253   21.7610  -32.8905 H   0  0  0  0  0  0  0  0  0  0  0  0
   -2.2829   21.8143  -34.4618 H   0  0  0  0  0  0  0  0  0  0  0  0
   -4.7403   22.0348  -34.1096 H   0  0  0  0  0  0  0  0  0  0  0  0
   -6.4419   19.2769  -32.6141 H   0  0  0  0  0  0  0  0  0  0  0  0
   -8.9241   19.3793  -32.4617 H   0  0  0  0  0  0  0  0  0  0  0  0
  -10.0459   21.4655  -31.6912 H   0  0  0  0  0  0  0  0  0  0  0  0
   -8.6896   23.4420  -31.0189 H   0  0  0  0  0  0  0  0  0  0  0  0
   -5.3310   26.0290  -29.0230 H   0  0  0  0  0  0  0  0  0  0  0  0
   -4.3039   20.4711  -30.0953 H   0  0  0  0  0  0  0  0  0  0  0  0
   -1.8441   20.2732  -30.4393 H   0  0  0  0  0  0  0  0  0  0  0  0
  1  2  1  0
  2  3  1  0
  3  4  1  0
  4  5  2  0
  5  6  1  0
  6  7  1  0
  6  8  2  0
  8  9  1  0
  9 10  2  0
  9 11  1  0
 11 12  1  0
 12 13  1  0
 13 14  1  0
 14 15  1  0
 15 16  2  0
 16 17  1  0
 17 18  2  0
 18 19  1  0
 19 20  2  0
  8 21  1  0
 21 22  1  0
 22 23  1  0
 23 24  2  0
 24 25  1  0
 25 26  2  0
 26 27  1  0
 27 28  2  0
 28 29  1  0
 29 30  2  0
 30 31  1  0
 31 32  2  0
 32 33  1  0
 33 34  1  0
 34 35  2  0
 35 36  1  0
 36 37  1  0
 26 38  1  0
 38 39  2  0
 21  4  1  0
 39 23  1  0
 20 15  1  0
 32 27  1  0
 37 33  2  0
  1 40  1  0
  1 41  1  0
  1 42  1  0
  2 43  1  0
  2 44  1  0
  3 45  1  0
  3 46  1  0
  7 47  1  0
  7 48  1  0
  7 49  1  0
 12 50  1  0
 12 51  1  0
 13 52  1  0
 13 53  1  0
 14 54  1  0
 14 55  1  0
 16 56  1  0
 17 57  1  0
 18 58  1  0
 19 59  1  0
 20 60  1  0
 22 61  1  0
 22 62  1  0
 24 63  1  0
 25 64  1  0
 28 65  1  0
 29 66  1  0
 30 67  1  0
 31 68  1  0
 36 69  1  0
 38 70  1  0
 39 71  1  0
M  CHG  1  11  -1
M  END
>  <UniqueID>  (45) 
42

>  <SMILES>  (45) 
CCCc1nc(C)c(C(=O)[N-]CCCc2ccccc2)n1Cc1ccc(-c2ccccc2-c2nn[nH]n2)cc1

>  <Energy>  (45) 
150.06916044084417

>  <Genealogy>  (45) 
CCCc1nc(C)c(C(=O)[N-]CCCc2ccccc2)n1Cc1ccc(-c2ccccc2-c2nn[nH]n2)cc1 (protonated)
CCCc1nc(C)c(C(=O)[N-]CCCc2ccccc2)n1Cc1ccc(-c2ccccc2-c2nn[nH]n2)cc1 (3D coordinates assigned)
CCCc1nc(C)c(C(=O)[N-]CCCc2ccccc2)n1Cc1ccc(-c2ccccc2-c2nn[nH]n2)cc1 (optimized conformer: 150.06916044084417 kcal/mol)

>  <smiles>  (45) 
CCCc1nc(C)c(C(=O)NCCCc2ccccc2)n1Cc1ccc(-c2ccccc2-c2nn[nH]n2)cc1

>  <score_type>  (45) 
oracle

>  <origin>  (45) 
adgpu

>  <m_score__min__energy>  (45) 
-13.42

>  <m_primary>  (45) 
energy

$$$$
45:0
     RDKit          3D

 43 45  0  0  0  0  0  0  0  0999 V2000
   -2.3320   19.7520  -26.6580 C   0  0  0  0  0  0  0  0  0  0  0  0
   -2.4080   20.2440  -27.9920 O   0  0  0  0  0  0  0  0  0  0  0  0
   -2.3300   21.6010  -28.3430 C   0  0  0  0  0  0  0  0  0  0  0  0
   -1.2970   22.3690  -27.7970 C   0  0  0  0  0  0  0  0  0  0  0  0
   -1.1710   23.7210  -28.1210 C   0  0  0  0  0  0  0  0  0  0  0  0
   -2.0800   24.3240  -28.9940 C   0  0  0  0  0  0  0  0  0  0  0  0
   -1.9070   25.6620  -29.3320 O   0  0  0  0  0  0  0  0  0  0  0  0
   -3.1440   23.5740  -29.5350 C   0  0  0  0  0  0  0  0  0  0  0  0
   -4.1290   24.1840  -30.4570 C   0  0  0  0  0  0  0  0  0  0  0  0
   -3.9330   25.3660  -30.8540 O   0  0  0  0  0  0  0  0  0  0  0  0
   -5.3200   23.4460  -30.9450 C   0  0  0  0  0  0  0  0  0  0  0  0
   -6.5780   24.0610  -30.9550 C   0  0  0  0  0  0  0  0  0  0  0  0
   -7.6910   23.3700  -31.4240 C   0  0  0  0  0  0  0  0  0  0  0  0
   -7.5470   22.0620  -31.8940 C   0  0  0  0  0  0  0  0  0  0  0  0
   -8.5610   21.4550  -32.3340 O   0  0  0  0  0  0  0  0  0  0  0  0
   -6.3140   21.4590  -31.8910 N   0  0  0  0  0  0  0  0  0  0  0  0
   -6.1520   20.1070  -32.3670 C   0  0  0  0  0  0  0  0  0  0  0  0
   -5.4940   19.8540  -33.5810 C   0  0  0  0  0  0  0  0  0  0  0  0
   -5.3500   18.5440  -34.0470 C   0  0  0  0  0  0  0  0  0  0  0  0
   -5.8600   17.4710  -33.3050 C   0  0  0  0  0  0  0  0  0  0  0  0
   -5.6950   15.8230  -33.9020 S   0  0  0  0  0  0  0  0  0  0  0  0
   -7.1980   15.2950  -34.5720 N   0  0  0  0  0  0  0  0  0  0  0  0
   -5.3010   14.9100  -32.7740 O   0  0  0  0  0  0  0  0  0  0  0  0
   -4.6280   15.7690  -34.9590 O   0  0  0  0  0  0  0  0  0  0  0  0
   -6.5290   17.7210  -32.0990 C   0  0  0  0  0  0  0  0  0  0  0  0
   -6.6740   19.0300  -31.6320 C   0  0  0  0  0  0  0  0  0  0  0  0
   -5.2130   22.1340  -31.4380 C   0  0  0  0  0  0  0  0  0  0  0  0
   -3.2510   22.2080  -29.2190 C   0  0  0  0  0  0  0  0  0  0  0  0
   -2.4608   20.5856  -25.9519 H   0  0  0  0  0  0  0  0  0  0  0  0
   -3.1259   19.0081  -26.4958 H   0  0  0  0  0  0  0  0  0  0  0  0
   -1.3506   19.2823  -26.4958 H   0  0  0  0  0  0  0  0  0  0  0  0
   -0.5778   21.9041  -27.1066 H   0  0  0  0  0  0  0  0  0  0  0  0
   -0.3525   24.3141  -27.6871 H   0  0  0  0  0  0  0  0  0  0  0  0
   -6.6867   25.0933  -30.5910 H   0  0  0  0  0  0  0  0  0  0  0  0
   -8.6801   23.8514  -31.4248 H   0  0  0  0  0  0  0  0  0  0  0  0
   -5.0895   20.6912  -34.1688 H   0  0  0  0  0  0  0  0  0  0  0  0
   -4.8342   18.3551  -35.0000 H   0  0  0  0  0  0  0  0  0  0  0  0
   -7.1640   14.2520  -34.6110 H   0  0  0  0  0  0  0  0  0  0  0  0
   -7.9430   15.5470  -33.8850 H   0  0  0  0  0  0  0  0  0  0  0  0
   -6.9416   16.8832  -31.5177 H   0  0  0  0  0  0  0  0  0  0  0  0
   -7.1995   19.2179  -30.6841 H   0  0  0  0  0  0  0  0  0  0  0  0
   -4.2293   21.6423  -31.4600 H   0  0  0  0  0  0  0  0  0  0  0  0
   -4.0610   21.6082  -29.6597 H   0  0  0  0  0  0  0  0  0  0  0  0
  1  2  1  0
  2  3  1  0
  3  4  2  0
  4  5  1  0
  5  6  2  0
  6  7  1  0
  6  8  1  0
  8  9  1  0
  9 10  2  0
  9 11  1  0
 11 12  1  0
 12 13  2  0
 13 14  1  0
 14 15  2  0
 14 16  1  0
 16 17  1  0
 17 18  2  0
 18 19  1  0
 19 20  2  0
 20 21  1  0
 21 22  1  0
 21 23  2  0
 21 24  2  0
 20 25  1  0
 25 26  2  0
 16 27  1  0
  8 28  2  0
 28  3  1  0
 27 11  2  0
 26 17  1  0
  1 29  1  0
  1 30  1  0
  1 31  1  0
  4 32  1  0
  5 33  1  0
 12 34  1  0
 13 35  1  0
 18 36  1  0
 19 37  1  0
 22 38  1  0
 22 39  1  0
 25 40  1  0
 26 41  1  0
 27 42  1  0
 28 43  1  0
M  CHG  1   7  -1
M  END
>  <UniqueID>  (46) 
43

>  <SMILES>  (46) 
COc1ccc([O-])c(C(=O)c2ccc(=O)n(-c3ccc(S(N)(=O)=O)cc3)c2)c1

>  <Energy>  (46) 
60.02968054828085

>  <Genealogy>  (46) 
COc1ccc([O-])c(C(=O)c2ccc(=O)n(-c3ccc(S(N)(=O)=O)cc3)c2)c1 (protonated)
COc1ccc([O-])c(C(=O)c2ccc(=O)n(-c3ccc(S(N)(=O)=O)cc3)c2)c1 (3D coordinates assigned)
COc1ccc([O-])c(C(=O)c2ccc(=O)n(-c3ccc(S(N)(=O)=O)cc3)c2)c1 (optimized conformer: 60.02968054828085 kcal/mol)

>  <smiles>  (46) 
COc1ccc(O)c(C(=O)c2ccc(=O)n(-c3ccc(S(N)(=O)=O)cc3)c2)c1

>  <score_type>  (46) 
oracle

>  <origin>  (46) 
adgpu

>  <m_score__min__energy>  (46) 
-12.449999999999999

>  <m_primary>  (46) 
energy

$$$$
46:0
     RDKit          3D

 39 41  0  0  0  0  0  0  0  0999 V2000
   -8.5780   22.3880  -31.6800 C   0  0  0  0  0  0  0  0  0  0  0  0
   -9.1070   20.9840  -31.9280 C   0  0  0  0  0  0  0  0  0  0  0  0
   -8.1460   20.0320  -31.4820 O   0  0  0  0  0  0  0  0  0  0  0  0
   -7.1890   19.4160  -32.3030 C   0  0  0  0  0  0  0  0  0  0  0  0
   -7.4890   18.2630  -33.0560 C   0  0  0  0  0  0  0  0  0  0  0  0
   -6.5300   17.7040  -33.9060 C   0  0  0  0  0  0  0  0  0  0  0  0
   -5.2700   18.2890  -34.0190 C   0  0  0  0  0  0  0  0  0  0  0  0
   -4.9570   19.4260  -33.2730 C   0  0  0  0  0  0  0  0  0  0  0  0
   -5.8990   19.9830  -32.3950 C   0  0  0  0  0  0  0  0  0  0  0  0
   -5.5450   21.1560  -31.6460 N   0  0  0  0  0  0  0  0  0  0  0  0
   -4.4290   21.9940  -31.9850 C   0  0  0  0  0  0  0  0  0  0  0  0
   -3.8780   21.8880  -33.1150 O   0  0  0  0  0  0  0  0  0  0  0  0
   -3.9300   23.0070  -31.0410 C   0  0  0  0  0  0  0  0  0  0  0  0
   -3.0990   22.7890  -29.9610 C   0  0  0  0  0  0  0  0  0  0  0  0
   -2.9080   24.0490  -29.4230 C   0  0  0  0  0  0  0  0  0  0  0  0
   -2.0610   24.4110  -28.2600 C   0  0  0  0  0  0  0  0  0  0  0  0
   -2.0280   23.5500  -27.1470 C   0  0  0  0  0  0  0  0  0  0  0  0
   -1.2510   23.8630  -26.0290 C   0  0  0  0  0  0  0  0  0  0  0  0
   -0.4910   25.0330  -26.0080 C   0  0  0  0  0  0  0  0  0  0  0  0
   -0.5010   25.8900  -27.1110 C   0  0  0  0  0  0  0  0  0  0  0  0
   -1.2720   25.5840  -28.2380 C   0  0  0  0  0  0  0  0  0  0  0  0
   -1.2210   26.4400  -29.3330 O   0  0  0  0  0  0  0  0  0  0  0  0
   -3.5810   24.9550  -30.1620 N   0  0  0  0  0  0  0  0  0  0  0  0
   -4.2050   24.3200  -31.1440 N   0  0  0  0  0  0  0  0  0  0  0  0
   -8.5101   22.5683  -30.5970 H   0  0  0  0  0  0  0  0  0  0  0  0
   -7.5802   22.4890  -32.1318 H   0  0  0  0  0  0  0  0  0  0  0  0
   -9.2611   23.1223  -32.1318 H   0  0  0  0  0  0  0  0  0  0  0  0
  -10.0475   20.8430  -31.3752 H   0  0  0  0  0  0  0  0  0  0  0  0
   -9.2911   20.8448  -33.0035 H   0  0  0  0  0  0  0  0  0  0  0  0
   -8.4836   17.8002  -32.9744 H   0  0  0  0  0  0  0  0  0  0  0  0
   -6.7703   16.8011  -34.4865 H   0  0  0  0  0  0  0  0  0  0  0  0
   -4.5212   17.8538  -34.6972 H   0  0  0  0  0  0  0  0  0  0  0  0
   -3.9643   19.8890  -33.3741 H   0  0  0  0  0  0  0  0  0  0  0  0
   -6.2200   21.4960  -30.9250 H   0  0  0  0  0  0  0  0  0  0  0  0
   -2.6839   21.8331  -29.6089 H   0  0  0  0  0  0  0  0  0  0  0  0
   -2.6192   22.6225  -27.1576 H   0  0  0  0  0  0  0  0  0  0  0  0
   -1.2383   23.1852  -25.1628 H   0  0  0  0  0  0  0  0  0  0  0  0
    0.1152   25.2802  -25.1240 H   0  0  0  0  0  0  0  0  0  0  0  0
    0.1006   26.8107  -27.0936 H   0  0  0  0  0  0  0  0  0  0  0  0
  1  2  1  0
  2  3  1  0
  3  4  1  0
  4  5  2  0
  5  6  1  0
  6  7  2  0
  7  8  1  0
  8  9  2  0
  9 10  1  0
 10 11  1  0
 11 12  2  0
 11 13  1  0
 13 14  1  0
 14 15  2  0
 15 16  1  0
 16 17  2  0
 17 18  1  0
 18 19  2  0
 19 20  1  0
 20 21  2  0
 21 22  1  0
 15 23  1  0
 23 24  1  0
  9  4  1  0
 24 13  2  0
 21 16  1  0
  1 25  1  0
  1 26  1  0
  1 27  1  0
  2 28  1  0
  2 29  1  0
  5 30  1  0
  6 31  1  0
  7 32  1  0
  8 33  1  0
 10 34  1  0
 14 35  1  0
 17 36  1  0
 18 37  1  0
 19 38  1  0
 20 39  1  0
M  CHG  2  22  -1  23  -1
M  END
>  <UniqueID>  (47) 
44

>  <SMILES>  (47) 
CCOc1ccccc1NC(=O)c1cc(-c2ccccc2[O-])[n-]n1

>  <Energy>  (47) 
75.65571235683025

>  <Genealogy>  (47) 
CCOc1ccccc1NC(=O)c1cc(-c2ccccc2[O-])[n-]n1 (protonated)
CCOc1ccccc1NC(=O)c1cc(-c2ccccc2[O-])[n-]n1 (3D coordinates assigned)
CCOc1ccccc1NC(=O)c1cc(-c2ccccc2[O-])[n-]n1 (optimized conformer: 75.65571235683025 kcal/mol)

>  <smiles>  (47) 
CCOc1ccccc1NC(=O)c1cc(-c2ccccc2O)[nH]n1

>  <score_type>  (47) 
oracle

>  <origin>  (47) 
adgpu

>  <m_score__min__energy>  (47) 
-13.33

>  <m_primary>  (47) 
energy

$$$$
47:0
     RDKit          3D

 46 48  0  0  0  0  0  0  0  0999 V2000
   -3.8700   25.6740  -30.4580 O   0  0  0  0  0  0  0  0  0  0  0  0
   -4.2010   24.3370  -30.6430 C   0  0  0  0  0  0  0  0  0  0  0  0
   -3.3080   23.3400  -30.2560 C   0  0  0  0  0  0  0  0  0  0  0  0
   -3.6390   21.9970  -30.4390 C   0  0  0  0  0  0  0  0  0  0  0  0
   -4.8580   21.6330  -31.0270 C   0  0  0  0  0  0  0  0  0  0  0  0
   -5.0990   20.2690  -31.2050 O   0  0  0  0  0  0  0  0  0  0  0  0
   -5.7730   22.6450  -31.4300 C   0  0  0  0  0  0  0  0  0  0  0  0
   -7.1080   22.3500  -32.0860 C   0  0  0  0  0  0  0  0  0  0  0  0
   -7.9710   21.3580  -31.2830 C   0  0  0  0  0  0  0  0  0  0  0  0
   -8.4510   20.1310  -32.0840 C   0  0  0  0  0  0  0  0  0  0  0  0
   -7.3230   19.2940  -32.6390 C   0  0  0  0  0  0  0  0  0  0  0  0
   -6.9750   18.0700  -32.0430 C   0  0  0  0  0  0  0  0  0  0  0  0
   -5.9850   17.2630  -32.6110 C   0  0  0  0  0  0  0  0  0  0  0  0
   -5.3070   17.6820  -33.7710 C   0  0  0  0  0  0  0  0  0  0  0  0
   -4.3420   16.8880  -34.4060 O   0  0  0  0  0  0  0  0  0  0  0  0
   -3.0770   16.5540  -33.8420 C   0  0  0  0  0  0  0  0  0  0  0  0
   -2.1140   17.6810  -34.0890 C   0  0  0  0  0  0  0  0  0  0  0  0
   -1.1090   17.5490  -35.0620 C   0  0  0  0  0  0  0  0  0  0  0  0
   -0.1930   18.5830  -35.2770 C   0  0  0  0  0  0  0  0  0  0  0  0
    0.7930   18.4480  -36.2460 O   0  0  0  0  0  0  0  0  0  0  0  0
   -0.2670   19.7520  -34.5150 C   0  0  0  0  0  0  0  0  0  0  0  0
   -1.2520   19.8880  -33.5330 C   0  0  0  0  0  0  0  0  0  0  0  0
   -1.3130   21.0510  -32.7730 O   0  0  0  0  0  0  0  0  0  0  0  0
   -2.1730   18.8550  -33.3120 C   0  0  0  0  0  0  0  0  0  0  0  0
   -3.1410   18.9970  -32.3230 O   0  0  0  0  0  0  0  0  0  0  0  0
   -5.6060   18.9320  -34.3210 C   0  0  0  0  0  0  0  0  0  0  0  0
   -6.6000   19.7360  -33.7590 C   0  0  0  0  0  0  0  0  0  0  0  0
   -5.4270   23.9940  -31.2160 C   0  0  0  0  0  0  0  0  0  0  0  0
   -2.3417   23.6118  -29.8061 H   0  0  0  0  0  0  0  0  0  0  0  0
   -2.9352   21.2149  -30.1181 H   0  0  0  0  0  0  0  0  0  0  0  0
   -4.4410   19.6180  -31.6080 H   0  0  0  0  0  0  0  0  0  0  0  0
   -7.6636   23.2938  -32.1885 H   0  0  0  0  0  0  0  0  0  0  0  0
   -6.8984   21.8868  -33.0615 H   0  0  0  0  0  0  0  0  0  0  0  0
   -7.3772   20.9996  -30.4292 H   0  0  0  0  0  0  0  0  0  0  0  0
   -8.8754   21.9058  -30.9797 H   0  0  0  0  0  0  0  0  0  0  0  0
   -9.0597   19.4988  -31.4208 H   0  0  0  0  0  0  0  0  0  0  0  0
   -9.0250   20.5098  -32.9425 H   0  0  0  0  0  0  0  0  0  0  0  0
   -7.4847   17.7449  -31.1240 H   0  0  0  0  0  0  0  0  0  0  0  0
   -5.7348   16.2964  -32.1494 H   0  0  0  0  0  0  0  0  0  0  0  0
   -3.1872   16.3947  -32.7592 H   0  0  0  0  0  0  0  0  0  0  0  0
   -2.6960   15.6330  -34.3073 H   0  0  0  0  0  0  0  0  0  0  0  0
   -1.0426   16.6268  -35.6580 H   0  0  0  0  0  0  0  0  0  0  0  0
    0.4514   20.5667  -34.6884 H   0  0  0  0  0  0  0  0  0  0  0  0
   -5.0535   19.2853  -35.2041 H   0  0  0  0  0  0  0  0  0  0  0  0
   -6.8180   20.7215  -34.1962 H   0  0  0  0  0  0  0  0  0  0  0  0
   -6.1322   24.7874  -31.5042 H   0  0  0  0  0  0  0  0  0  0  0  0
  1  2  1  0
  2  3  2  0
  3  4  1  0
  4  5  2  0
  5  6  1  0
  5  7  1  0
  7  8  1  0
  8  9  1  0
  9 10  1  0
 10 11  1  0
 11 12  2  0
 12 13  1  0
 13 14  2  0
 14 15  1  0
 15 16  1  0
 16 17  1  0
 17 18  2  0
 18 19  1  0
 19 20  1  0
 19 21  2  0
 21 22  1  0
 22 23  1  0
 22 24  2  0
 24 25  1  0
 14 26  1  0
 26 27  2  0
  7 28  2  0
 28  2  1  0
 27 11  1  0
 24 17  1  0
  3 29  1  0
  4 30  1  0
  6 31  1  0
  8 32  1  0
  8 33  1  0
  9 34  1  0
  9 35  1  0
 10 36  1  0
 10 37  1  0
 12 38  1  0
 13 39  1  0
 16 40  1  0
 16 41  1  0
 18 42  1  0
 21 43  1  0
 26 44  1  0
 27 45  1  0
 28 46  1  0
M  CHG  4   1  -1  20  -1  23  -1  25  -1
M  END
>  <UniqueID>  (48) 
45

>  <SMILES>  (48) 
[O-]c1ccc(O)c(CCCc2ccc(OCc3cc([O-])cc([O-])c3[O-])cc2)c1

>  <Energy>  (48) 
46.11951499529119

>  <Genealogy>  (48) 
[O-]c1ccc(O)c(CCCc2ccc(OCc3cc([O-])cc([O-])c3[O-])cc2)c1 (protonated)
[O-]c1ccc(O)c(CCCc2ccc(OCc3cc([O-])cc([O-])c3[O-])cc2)c1 (3D coordinates assigned)
[O-]c1ccc(O)c(CCCc2ccc(OCc3cc([O-])cc([O-])c3[O-])cc2)c1 (optimized conformer: 46.11951499529119 kcal/mol)

>  <smiles>  (48) 
Oc1ccc(O)c(CCCc2ccc(OCc3cc(O)cc(O)c3O)cc2)c1

>  <score_type>  (48) 
oracle

>  <origin>  (48) 
adgpu

>  <m_score__min__energy>  (48) 
-13.74

>  <m_primary>  (48) 
energy

$$$$
48:0
     RDKit          3D

 52 55  0  0  0  0  0  0  0  0999 V2000
   -6.6205   17.8579  -31.7242 H   0  0  0  0  0  0  0  0  0  0  0  0
   -6.4250   18.1260  -32.7730 C   0  0  0  0  0  0  0  0  0  0  0  0
   -6.0630   19.3600  -33.2890 C   0  0  0  0  0  0  0  0  0  0  0  0
   -5.8610   20.6200  -32.5340 C   0  0  0  0  0  0  0  0  0  0  0  0
   -6.9440   21.3130  -31.9630 C   0  0  0  0  0  0  0  0  0  0  0  0
   -7.9638   20.9148  -32.0703 H   0  0  0  0  0  0  0  0  0  0  0  0
   -6.7350   22.5040  -31.2600 C   0  0  0  0  0  0  0  0  0  0  0  0
   -7.5900   23.0374  -30.8189 H   0  0  0  0  0  0  0  0  0  0  0  0
   -5.4430   23.0190  -31.1160 C   0  0  0  0  0  0  0  0  0  0  0  0
   -5.1890   24.5120  -30.2180 S   0  0  0  0  0  0  0  0  0  0  0  0
   -4.0820   25.3210  -30.8350 O   0  0  0  0  0  0  0  0  0  0  0  0
   -6.4570   25.3170  -30.2500 O   0  0  0  0  0  0  0  0  0  0  0  0
   -4.7770   24.1540  -28.5710 N   0  0  0  0  0  0  0  0  0  0  0  0
   -5.4050   24.5440  -27.8320 H   0  0  0  0  0  0  0  0  0  0  0  0
   -3.6750   23.3160  -28.1800 C   0  0  0  0  0  0  0  0  0  0  0  0
   -3.8500   21.9220  -28.1610 C   0  0  0  0  0  0  0  0  0  0  0  0
   -4.8219   21.4903  -28.4422 H   0  0  0  0  0  0  0  0  0  0  0  0
   -2.8000   21.0800  -27.7880 C   0  0  0  0  0  0  0  0  0  0  0  0
   -2.9471   19.9899  -27.7789 H   0  0  0  0  0  0  0  0  0  0  0  0
   -1.5650   21.6190  -27.4270 C   0  0  0  0  0  0  0  0  0  0  0  0
   -0.7405   20.9526  -27.1336 H   0  0  0  0  0  0  0  0  0  0  0  0
   -1.3720   23.0040  -27.4370 C   0  0  0  0  0  0  0  0  0  0  0  0
    0.1890   23.6680  -26.9630 S   0  0  0  0  0  0  0  0  0  0  0  0
    0.6320   24.7450  -27.9160 O   0  0  0  0  0  0  0  0  0  0  0  0
    1.2090   22.5640  -26.9830 O   0  0  0  0  0  0  0  0  0  0  0  0
    0.0840   24.3240  -25.3600 N   0  0  0  0  0  0  0  0  0  0  0  0
    0.2820   23.6770  -24.5630 H   0  0  0  0  0  0  0  0  0  0  0  0
   -0.2520   25.5580  -25.1070 C   0  0  0  0  0  0  0  0  0  0  0  0
   -0.5430   26.5250  -26.1000 N   0  0  0  0  0  0  0  0  0  0  0  0
   -0.4980   26.3880  -27.1330 H   0  0  0  0  0  0  0  0  0  0  0  0
   -0.8730   27.7910  -25.4770 C   0  0  0  0  0  0  0  0  0  0  0  0
   -1.8690   28.1271  -25.8011 H   0  0  0  0  0  0  0  0  0  0  0  0
   -0.1540   28.5748  -25.7576 H   0  0  0  0  0  0  0  0  0  0  0  0
   -0.8630   27.5390  -23.9570 C   0  0  0  0  0  0  0  0  0  0  0  0
   -1.8785   27.6528  -23.5498 H   0  0  0  0  0  0  0  0  0  0  0  0
   -0.2083   28.2608  -23.4467 H   0  0  0  0  0  0  0  0  0  0  0  0
   -0.3660   26.1030  -23.7360 C   0  0  0  0  0  0  0  0  0  0  0  0
   -1.0891   25.5244  -23.1424 H   0  0  0  0  0  0  0  0  0  0  0  0
    0.5818   26.0602  -23.1794 H   0  0  0  0  0  0  0  0  0  0  0  0
   -2.4260   23.8500  -27.8100 C   0  0  0  0  0  0  0  0  0  0  0  0
   -2.2758   24.9397  -27.8136 H   0  0  0  0  0  0  0  0  0  0  0  0
   -4.3590   22.3380  -31.6810 C   0  0  0  0  0  0  0  0  0  0  0  0
   -3.3415   22.7418  -31.5733 H   0  0  0  0  0  0  0  0  0  0  0  0
   -4.5650   21.1460  -32.3820 C   0  0  0  0  0  0  0  0  0  0  0  0
   -3.7063   20.6148  -32.8185 H   0  0  0  0  0  0  0  0  0  0  0  0
   -5.9270   19.2580  -34.6270 N   0  0  0  0  0  0  0  0  0  0  0  0
   -6.1860   18.0230  -34.9470 O   0  0  0  0  0  0  0  0  0  0  0  0
   -6.4820   17.3150  -33.8840 C   0  0  0  0  0  0  0  0  0  0  0  0
   -6.8630   15.8730  -33.9060 C   0  0  0  0  0  0  0  0  0  0  0  0
   -6.9606   15.5038  -32.8744 H   0  0  0  0  0  0  0  0  0  0  0  0
   -7.8230   15.7554  -34.4299 H   0  0  0  0  0  0  0  0  0  0  0  0
   -6.0864   15.2965  -34.4299 H   0  0  0  0  0  0  0  0  0  0  0  0
  1  2  1  0
  2  3  1  0
  3  4  1  0
  4  5  2  0
  5  6  1  0
  5  7  1  0
  7  8  1  0
  7  9  2  0
  9 10  1  0
 10 11  2  0
 10 12  2  0
 10 13  1  0
 13 14  1  0
 13 15  1  0
 15 16  2  0
 16 17  1  0
 16 18  1  0
 18 19  1  0
 18 20  2  0
 20 21  1  0
 20 22  1  0
 22 23  1  0
 23 24  2  0
 23 25  2  0
 23 26  1  0
 26 27  1  0
 26 28  2  0
 28 29  1  0
 29 30  1  0
 29 31  1  0
 31 32  1  0
 31 33  1  0
 31 34  1  0
 34 35  1  0
 34 36  1  0
 34 37  1  0
 37 38  1  0
 37 39  1  0
 22 40  2  0
 40 41  1  0
  9 42  1  0
 42 43  1  0
 42 44  2  0
 44 45  1  0
  3 46  2  0
 46 47  1  0
 47 48  1  0
 48 49  1  0
 49 50  1  0
 49 51  1  0
 49 52  1  0
 48  2  2  0
 44  4  1  0
 40 15  1  0
 37 28  1  0
M  CHG  1  26   1
M  END
>  <UniqueID>  (49) 
46

>  <SMILES>  (49) 
Cc1cc(-c2ccc(S(=O)(=O)Nc3cccc(S(=O)(=O)/[NH+]=C4/CCCN4)c3)cc2)no1

>  <Energy>  (49) 
94.99233477457047

>  <Genealogy>  (49) 
Cc1cc(-c2ccc(S(=O)(=O)Nc3cccc(S(=O)(=O)[NH+]=C4CCCN4)c3)cc2)no1 (protonated)
Cc1cc(-c2ccc(S(=O)(=O)Nc3cccc(S(=O)(=O)/[NH+]=C4/CCCN4)c3)cc2)no1 (cis-trans isomerization)
Cc1cc(-c2ccc(S(=O)(=O)Nc3cccc(S(=O)(=O)/[NH+]=C4/CCCN4)c3)cc2)no1 (3D coordinates assigned)
Cc1cc(-c2ccc(S(=O)(=O)Nc3cccc(S(=O)(=O)/[NH+]=C4/CCCN4)c3)cc2)no1 (nonaromatic ring conformer: 94.99233477457047 kcal/mol)

>  <smiles>  (49) 
Cc1cc(-c2ccc(S(=O)(=O)Nc3cccc(S(=O)(=O)N=C4CCCN4)c3)cc2)no1

>  <score_type>  (49) 
oracle

>  <origin>  (49) 
adgpu

>  <m_score__min__energy>  (49) 
-10.84

>  <m_primary>  (49) 
energy

$$$$
