0:0
     RDKit          3D

 40 42  0  0  0  0  0  0  0  0999 V2000
   -3.5070   24.1240  -30.1090 C   0  0  0  0  0  0  0  0  0  0  0  0
   -4.5710   24.4860  -30.9830 O   0  0  0  0  0  0  0  0  0  0  0  0
   -5.7830   23.7870  -31.0870 C   0  0  0  0  0  0  0  0  0  0  0  0
   -6.2270   23.0570  -29.9780 C   0  0  0  0  0  0  0  0  0  0  0  0
   -7.4240   22.3390  -30.0340 C   0  0  0  0  0  0  0  0  0  0  0  0
   -8.1960   22.3370  -31.2060 C   0  0  0  0  0  0  0  0  0  0  0  0
   -9.4510   21.5110  -31.2930 C   0  0  0  0  0  0  0  0  0  0  0  0
   -9.3920   20.3720  -32.7220 S   0  0  0  0  0  0  0  0  0  0  0  0
   -7.6840   19.8990  -32.4620 C   0  0  0  0  0  0  0  0  0  0  0  0
   -6.6480   20.4590  -33.1140 N   0  0  0  0  0  0  0  0  0  0  0  0
   -5.5910   19.8350  -32.5470 C   0  0  0  0  0  0  0  0  0  0  0  0
   -4.1860   20.1300  -32.8930 C   0  0  0  0  0  0  0  0  0  0  0  0
   -3.4700   19.2750  -33.7490 C   0  0  0  0  0  0  0  0  0  0  0  0
   -2.1430   19.5580  -34.0860 C   0  0  0  0  0  0  0  0  0  0  0  0
   -1.5090   20.7040  -33.5710 C   0  0  0  0  0  0  0  0  0  0  0  0
   -0.1790   21.0320  -33.8790 O   0  0  0  0  0  0  0  0  0  0  0  0
    0.2430   21.5930  -35.1180 C   0  0  0  0  0  0  0  0  0  0  0  0
   -2.2230   21.5540  -32.7200 C   0  0  0  0  0  0  0  0  0  0  0  0
   -3.5490   21.2730  -32.3820 C   0  0  0  0  0  0  0  0  0  0  0  0
   -5.9630   18.9420  -31.6050 N   0  0  0  0  0  0  0  0  0  0  0  0
   -7.2810   18.9900  -31.5620 N   0  0  0  0  0  0  0  0  0  0  0  0
   -7.7560   23.0710  -32.3190 C   0  0  0  0  0  0  0  0  0  0  0  0
   -6.5590   23.7920  -32.2620 C   0  0  0  0  0  0  0  0  0  0  0  0
   -3.8357   24.2358  -29.0652 H   0  0  0  0  0  0  0  0  0  0  0  0
   -3.2209   23.0780  -30.2932 H   0  0  0  0  0  0  0  0  0  0  0  0
   -2.6423   24.7785  -30.2932 H   0  0  0  0  0  0  0  0  0  0  0  0
   -5.6285   23.0487  -29.0551 H   0  0  0  0  0  0  0  0  0  0  0  0
   -7.7634   21.7720  -29.1546 H   0  0  0  0  0  0  0  0  0  0  0  0
   -9.5590   20.9233  -30.3694 H   0  0  0  0  0  0  0  0  0  0  0  0
  -10.3073   22.1893  -31.4221 H   0  0  0  0  0  0  0  0  0  0  0  0
   -3.9573   18.3770  -34.1565 H   0  0  0  0  0  0  0  0  0  0  0  0
   -1.5921   18.8820  -34.7565 H   0  0  0  0  0  0  0  0  0  0  0  0
    0.8941   22.4585  -34.9258 H   0  0  0  0  0  0  0  0  0  0  0  0
    0.7982   20.8370  -35.6926 H   0  0  0  0  0  0  0  0  0  0  0  0
   -0.6373   21.9168  -35.6926 H   0  0  0  0  0  0  0  0  0  0  0  0
   -1.7357   22.4523  -32.3130 H   0  0  0  0  0  0  0  0  0  0  0  0
   -4.0977   21.9509  -31.7116 H   0  0  0  0  0  0  0  0  0  0  0  0
   -7.8810   18.4260  -30.9210 H   0  0  0  0  0  0  0  0  0  0  0  0
   -8.3560   23.0790  -33.2409 H   0  0  0  0  0  0  0  0  0  0  0  0
   -6.2224   24.3652  -33.1384 H   0  0  0  0  0  0  0  0  0  0  0  0
  1  2  1  0
  2  3  1  0
  3  4  2  0
  4  5  1  0
  5  6  2  0
  6  7  1  0
  7  8  1  0
  8  9  1  0
  9 10  2  0
 10 11  1  0
 11 12  1  0
 12 13  2  0
 13 14  1  0
 14 15  2  0
 15 16  1  0
 16 17  1  0
 15 18  1  0
 18 19  2  0
 11 20  2  0
 20 21  1  0
  6 22  1  0
 22 23  2  0
 23  3  1  0
 21  9  1  0
 19 12  1  0
  1 24  1  0
  1 25  1  0
  1 26  1  0
  4 27  1  0
  5 28  1  0
  7 29  1  0
  7 30  1  0
 13 31  1  0
 14 32  1  0
 17 33  1  0
 17 34  1  0
 17 35  1  0
 18 36  1  0
 19 37  1  0
 21 38  1  0
 22 39  1  0
 23 40  1  0
M  END
>  <UniqueID>  (1) 
1

>  <SMILES>  (1) 
COc1ccc(CSc2nc(-c3ccc(OC)cc3)n[nH]2)cc1

>  <Energy>  (1) 
68.6414712093374

>  <Genealogy>  (1) 
COc1ccc(CSc2nc(-c3ccc(OC)cc3)n[nH]2)cc1 (3D coordinates assigned)
COc1ccc(CSc2nc(-c3ccc(OC)cc3)n[nH]2)cc1 (optimized conformer: 68.6414712093374 kcal/mol)

>  <smiles>  (1) 
COc1ccc(CSc2nc(-c3ccc(OC)cc3)n[nH]2)cc1

>  <score_type>  (1) 
oracle

>  <origin>  (1) 
adgpu

>  <m_score__min__energy>  (1) 
-8.25

>  <m_primary>  (1) 
energy

$$$$
1:0
     RDKit          3D

 40 42  0  0  0  0  0  0  0  0999 V2000
   -8.7040   21.9950  -31.5870 C   0  0  0  0  0  0  0  0  0  0  0  0
   -7.6150   23.4480  -31.4880 S   0  0  0  0  0  0  0  0  0  0  0  0
   -6.1280   22.5080  -31.8600 C   0  0  0  0  0  0  0  0  0  0  0  0
   -6.2500   21.2010  -32.3490 C   0  0  0  0  0  0  0  0  0  0  0  0
   -5.1090   20.4610  -32.6710 C   0  0  0  0  0  0  0  0  0  0  0  0
   -3.8420   21.0220  -32.5030 C   0  0  0  0  0  0  0  0  0  0  0  0
   -3.7120   22.3270  -32.0220 C   0  0  0  0  0  0  0  0  0  0  0  0
   -4.8540   23.0840  -31.7120 C   0  0  0  0  0  0  0  0  0  0  0  0
   -4.7270   24.4240  -31.2230 N   0  0  0  0  0  0  0  0  0  0  0  0
   -5.1780   24.8810  -29.9390 C   0  0  0  0  0  0  0  0  0  0  0  0
   -6.1010   25.7350  -29.8890 O   0  0  0  0  0  0  0  0  0  0  0  0
   -4.5470   24.4070  -28.6550 C   0  0  0  0  0  0  0  0  0  0  0  0
   -3.2490   23.7000  -28.9140 C   0  0  0  0  0  0  0  0  0  0  0  0
   -3.0180   22.0310  -28.8550 S   0  0  0  0  0  0  0  0  0  0  0  0
   -1.3690   22.1530  -29.1840 C   0  0  0  0  0  0  0  0  0  0  0  0
   -0.4650   21.0430  -29.2580 N   0  0  0  0  0  0  0  0  0  0  0  0
    0.1930   20.4770  -28.0950 C   0  0  0  0  0  0  0  0  0  0  0  0
    1.1500   19.4250  -28.6400 C   0  0  0  0  0  0  0  0  0  0  0  0
    0.7010   19.1500  -30.0750 C   0  0  0  0  0  0  0  0  0  0  0  0
   -0.1360   20.3530  -30.4910 C   0  0  0  0  0  0  0  0  0  0  0  0
   -0.9810   23.4360  -29.3520 N   0  0  0  0  0  0  0  0  0  0  0  0
   -2.0240   24.2940  -29.2060 C   0  0  0  0  0  0  0  0  0  0  0  0
   -1.8590   25.6680  -29.3360 O   0  0  0  0  0  0  0  0  0  0  0  0
   -8.9574   21.6569  -30.5714 H   0  0  0  0  0  0  0  0  0  0  0  0
   -9.6253   22.2633  -32.1247 H   0  0  0  0  0  0  0  0  0  0  0  0
   -8.1880   21.1860  -32.1247 H   0  0  0  0  0  0  0  0  0  0  0  0
   -7.2472   20.7556  -32.4800 H   0  0  0  0  0  0  0  0  0  0  0  0
   -5.2095   19.4359  -33.0571 H   0  0  0  0  0  0  0  0  0  0  0  0
   -2.9446   20.4356  -32.7497 H   0  0  0  0  0  0  0  0  0  0  0  0
   -2.7116   22.7635  -31.8855 H   0  0  0  0  0  0  0  0  0  0  0  0
   -4.3589   25.2752  -28.0063 H   0  0  0  0  0  0  0  0  0  0  0  0
   -5.2363   23.7005  -28.1695 H   0  0  0  0  0  0  0  0  0  0  0  0
    0.7473   21.2554  -27.5502 H   0  0  0  0  0  0  0  0  0  0  0  0
   -0.5298   20.0437  -27.3880 H   0  0  0  0  0  0  0  0  0  0  0  0
    2.1823   19.8048  -28.6287 H   0  0  0  0  0  0  0  0  0  0  0  0
    1.1325   18.5098  -28.0300 H   0  0  0  0  0  0  0  0  0  0  0  0
    1.5745   19.0454  -30.7354 H   0  0  0  0  0  0  0  0  0  0  0  0
    0.1255   18.2152  -30.1449 H   0  0  0  0  0  0  0  0  0  0  0  0
    0.4414   21.0109  -31.1571 H   0  0  0  0  0  0  0  0  0  0  0  0
   -1.0387   20.0505  -31.0420 H   0  0  0  0  0  0  0  0  0  0  0  0
  1  2  1  0
  2  3  1  0
  3  4  2  0
  4  5  1  0
  5  6  2  0
  6  7  1  0
  7  8  2  0
  8  9  1  0
  9 10  1  0
 10 11  2  0
 10 12  1  0
 12 13  1  0
 13 14  1  0
 14 15  1  0
 15 16  1  0
 16 17  1  0
 17 18  1  0
 18 19  1  0
 19 20  1  0
 15 21  2  0
 21 22  1  0
 22 23  1  0
  8  3  1  0
 22 13  2  0
 20 16  1  0
  1 24  1  0
  1 25  1  0
  1 26  1  0
  4 27  1  0
  5 28  1  0
  6 29  1  0
  7 30  1  0
 12 31  1  0
 12 32  1  0
 17 33  1  0
 17 34  1  0
 18 35  1  0
 18 36  1  0
 19 37  1  0
 19 38  1  0
 20 39  1  0
 20 40  1  0
M  CHG  2   9  -1  23  -1
M  END
>  <UniqueID>  (2) 
2

>  <SMILES>  (2) 
CSc1ccccc1[N-]C(=O)Cc1sc(N2CCCC2)nc1[O-]

>  <Energy>  (2) 
67.7323798049983

>  <Genealogy>  (2) 
CSc1ccccc1[N-]C(=O)Cc1sc(N2CCCC2)nc1[O-] (protonated)
CSc1ccccc1[N-]C(=O)Cc1sc(N2CCCC2)nc1[O-] (3D coordinates assigned)
CSc1ccccc1[N-]C(=O)Cc1sc(N2CCCC2)nc1[O-] (nonaromatic ring conformer: 67.7323798049983 kcal/mol)

>  <smiles>  (2) 
CSc1ccccc1NC(=O)Cc1sc(N2CCCC2)nc1O

>  <score_type>  (2) 
oracle

>  <origin>  (2) 
adgpu

>  <m_score__min__energy>  (2) 
-11.35

>  <m_primary>  (2) 
energy

$$$$
2:0
     RDKit          3D

 41 43  0  0  0  0  0  0  0  0999 V2000
   -4.1560   23.3330  -27.0500 O   0  0  0  0  0  0  0  0  0  0  0  0
   -3.5490   24.1640  -27.7790 C   0  0  0  0  0  0  0  0  0  0  0  0
   -3.7950   24.1820  -29.1940 N   0  0  0  0  0  0  0  0  0  0  0  0
   -4.8980   23.4870  -29.7930 C   0  0  0  0  0  0  0  0  0  0  0  0
   -4.6900   22.2040  -30.3190 C   0  0  0  0  0  0  0  0  0  0  0  0
   -5.7440   21.4990  -30.9040 C   0  0  0  0  0  0  0  0  0  0  0  0
   -7.0190   22.0700  -30.9800 C   0  0  0  0  0  0  0  0  0  0  0  0
   -8.3520   21.1790  -31.7240 S   0  0  0  0  0  0  0  0  0  0  0  0
   -9.0730   20.3980  -30.6610 O   0  0  0  0  0  0  0  0  0  0  0  0
   -9.3240   22.1590  -32.3190 O   0  0  0  0  0  0  0  0  0  0  0  0
   -7.8180   20.0790  -32.9740 N   0  0  0  0  0  0  0  0  0  0  0  0
   -6.4850   20.4160  -33.4680 C   0  0  0  0  0  0  0  0  0  0  0  0
   -5.8940   19.1270  -34.0190 C   0  0  0  0  0  0  0  0  0  0  0  0
   -6.7030   18.0070  -33.3800 C   0  0  0  0  0  0  0  0  0  0  0  0
   -7.7210   18.7030  -32.4900 C   0  0  0  0  0  0  0  0  0  0  0  0
   -7.2240   23.3680  -30.4920 C   0  0  0  0  0  0  0  0  0  0  0  0
   -6.1730   24.0800  -29.9020 C   0  0  0  0  0  0  0  0  0  0  0  0
   -6.4680   25.7370  -29.3890 Cl  0  0  0  0  0  0  0  0  0  0  0  0
   -2.5510   25.0740  -27.1700 C   0  0  0  0  0  0  0  0  0  0  0  0
   -2.5520   25.2660  -25.7760 C   0  0  0  0  0  0  0  0  0  0  0  0
   -1.6170   26.1150  -25.1760 C   0  0  0  0  0  0  0  0  0  0  0  0
   -0.6780   26.7870  -25.9580 C   0  0  0  0  0  0  0  0  0  0  0  0
   -0.6760   26.6210  -27.3450 C   0  0  0  0  0  0  0  0  0  0  0  0
   -1.6110   25.7760  -27.9560 C   0  0  0  0  0  0  0  0  0  0  0  0
   -1.6110   25.6680  -29.3420 O   0  0  0  0  0  0  0  0  0  0  0  0
   -3.0290   24.5160  -29.8220 H   0  0  0  0  0  0  0  0  0  0  0  0
   -3.6894   21.7495  -30.2705 H   0  0  0  0  0  0  0  0  0  0  0  0
   -5.5710   20.4902  -31.3069 H   0  0  0  0  0  0  0  0  0  0  0  0
   -6.5538   21.1734  -34.2627 H   0  0  0  0  0  0  0  0  0  0  0  0
   -5.8563   20.8334  -32.6677 H   0  0  0  0  0  0  0  0  0  0  0  0
   -5.9916   19.0960  -35.1142 H   0  0  0  0  0  0  0  0  0  0  0  0
   -4.8214   19.0384  -33.7918 H   0  0  0  0  0  0  0  0  0  0  0  0
   -7.2107   17.4100  -34.1519 H   0  0  0  0  0  0  0  0  0  0  0  0
   -6.0656   17.3152  -32.8098 H   0  0  0  0  0  0  0  0  0  0  0  0
   -8.6979   18.2030  -32.5659 H   0  0  0  0  0  0  0  0  0  0  0  0
   -7.4154   18.6718  -31.4338 H   0  0  0  0  0  0  0  0  0  0  0  0
   -8.2186   23.8308  -30.5733 H   0  0  0  0  0  0  0  0  0  0  0  0
   -3.2939   24.7443  -25.1536 H   0  0  0  0  0  0  0  0  0  0  0  0
   -1.6221   26.2532  -24.0847 H   0  0  0  0  0  0  0  0  0  0  0  0
    0.0614   27.4481  -25.4824 H   0  0  0  0  0  0  0  0  0  0  0  0
    0.0628   27.1560  -27.9597 H   0  0  0  0  0  0  0  0  0  0  0  0
  1  2  2  0
  2  3  1  0
  3  4  1  0
  4  5  2  0
  5  6  1  0
  6  7  2  0
  7  8  1  0
  8  9  2  0
  8 10  2  0
  8 11  1  0
 11 12  1  0
 12 13  1  0
 13 14  1  0
 14 15  1  0
  7 16  1  0
 16 17  2  0
 17 18  1  0
  2 19  1  0
 19 20  2  0
 20 21  1  0
 21 22  2  0
 22 23  1  0
 23 24  2  0
 24 25  1  0
 17  4  1  0
 24 19  1  0
 15 11  1  0
  3 26  1  0
  5 27  1  0
  6 28  1  0
 12 29  1  0
 12 30  1  0
 13 31  1  0
 13 32  1  0
 14 33  1  0
 14 34  1  0
 15 35  1  0
 15 36  1  0
 16 37  1  0
 20 38  1  0
 21 39  1  0
 22 40  1  0
 23 41  1  0
M  CHG  1  25  -1
M  END
>  <UniqueID>  (3) 
3

>  <SMILES>  (3) 
O=C(Nc1ccc(S(=O)(=O)N2CCCC2)cc1Cl)c1ccccc1[O-]

>  <Energy>  (3) 
53.458958990742936

>  <Genealogy>  (3) 
O=C(Nc1ccc(S(=O)(=O)N2CCCC2)cc1Cl)c1ccccc1[O-] (protonated)
O=C(Nc1ccc(S(=O)(=O)N2CCCC2)cc1Cl)c1ccccc1[O-] (3D coordinates assigned)
O=C(Nc1ccc(S(=O)(=O)N2CCCC2)cc1Cl)c1ccccc1[O-] (nonaromatic ring conformer: 53.458958990742936 kcal/mol)

>  <smiles>  (3) 
O=C(Nc1ccc(S(=O)(=O)N2CCCC2)cc1Cl)c1ccccc1O

>  <score_type>  (3) 
oracle

>  <origin>  (3) 
adgpu

>  <m_score__min__energy>  (3) 
-12.42

>  <m_primary>  (3) 
energy

$$$$
3:0
     RDKit          3D

 52 56  0  0  0  0  0  0  0  0999 V2000
   -5.4660   26.0590  -30.1120 O   0  0  0  0  0  0  0  0  0  0  0  0
   -4.9120   25.0160  -30.5450 C   0  0  0  0  0  0  0  0  0  0  0  0
   -3.4870   24.9030  -30.4480 N   0  0  0  0  0  0  0  0  0  0  0  0
   -2.7420   24.6260  -29.2550 C   0  0  0  0  0  0  0  0  0  0  0  0
   -1.5510   25.3090  -28.9530 C   0  0  0  0  0  0  0  0  0  0  0  0
   -0.8100   24.9620  -27.8210 C   0  0  0  0  0  0  0  0  0  0  0  0
   -1.2530   23.9350  -26.9750 C   0  0  0  0  0  0  0  0  0  0  0  0
   -0.2700   23.4360  -25.5940 S   0  0  0  0  0  0  0  0  0  0  0  0
    1.1080   23.0790  -26.0750 O   0  0  0  0  0  0  0  0  0  0  0  0
   -0.8820   22.2090  -24.9750 O   0  0  0  0  0  0  0  0  0  0  0  0
   -0.1480   24.6890  -24.3820 N   0  0  0  0  0  0  0  0  0  0  0  0
    1.0900   25.4640  -24.5000 C   0  0  0  0  0  0  0  0  0  0  0  0
    0.8080   26.8290  -23.8900 C   0  0  0  0  0  0  0  0  0  0  0  0
   -0.7080   26.9620  -23.8750 C   0  0  0  0  0  0  0  0  0  0  0  0
   -1.2360   25.6650  -24.4720 C   0  0  0  0  0  0  0  0  0  0  0  0
   -2.4720   23.3000  -27.2420 C   0  0  0  0  0  0  0  0  0  0  0  0
   -3.2150   23.6480  -28.3730 C   0  0  0  0  0  0  0  0  0  0  0  0
   -5.7570   23.9460  -31.1200 C   0  0  0  0  0  0  0  0  0  0  0  0
   -7.1370   23.9280  -31.0720 C   0  0  0  0  0  0  0  0  0  0  0  0
   -7.4890   22.7650  -31.7300 C   0  0  0  0  0  0  0  0  0  0  0  0
   -8.9000   22.2950  -31.9480 C   0  0  0  0  0  0  0  0  0  0  0  0
   -9.1060   20.7890  -31.9890 C   0  0  0  0  0  0  0  0  0  0  0  0
   -9.5210   21.5790  -30.7590 C   0  0  0  0  0  0  0  0  0  0  0  0
   -6.3800   22.1100  -32.1300 N   0  0  0  0  0  0  0  0  0  0  0  0
   -5.3320   22.8210  -31.7450 N   0  0  0  0  0  0  0  0  0  0  0  0
   -3.9550   22.3960  -32.0030 C   0  0  0  0  0  0  0  0  0  0  0  0
   -3.8500   21.3710  -33.1220 C   0  0  0  0  0  0  0  0  0  0  0  0
   -3.6640   20.9400  -31.6790 C   0  0  0  0  0  0  0  0  0  0  0  0
   -1.2016   26.1191  -29.6101 H   0  0  0  0  0  0  0  0  0  0  0  0
    0.1241   25.4960  -27.5923 H   0  0  0  0  0  0  0  0  0  0  0  0
   -0.1750   24.2350  -23.4380 H   0  0  0  0  0  0  0  0  0  0  0  0
    1.9038   24.9649  -23.9536 H   0  0  0  0  0  0  0  0  0  0  0  0
    1.4019   25.5558  -25.5508 H   0  0  0  0  0  0  0  0  0  0  0  0
    1.2089   26.8832  -22.8671 H   0  0  0  0  0  0  0  0  0  0  0  0
    1.2831   27.6385  -24.4636 H   0  0  0  0  0  0  0  0  0  0  0  0
   -1.0727   27.0875  -22.8448 H   0  0  0  0  0  0  0  0  0  0  0  0
   -1.0462   27.8406  -24.4440 H   0  0  0  0  0  0  0  0  0  0  0  0
   -2.1093   25.3133  -23.9031 H   0  0  0  0  0  0  0  0  0  0  0  0
   -1.5540   25.8092  -25.5151 H   0  0  0  0  0  0  0  0  0  0  0  0
   -2.8464   22.5238  -26.5584 H   0  0  0  0  0  0  0  0  0  0  0  0
   -4.1761   23.1509  -28.5710 H   0  0  0  0  0  0  0  0  0  0  0  0
   -7.8053   24.6717  -30.6134 H   0  0  0  0  0  0  0  0  0  0  0  0
   -9.1873   23.1308  -32.6029 H   0  0  0  0  0  0  0  0  0  0  0  0
   -9.8722   20.3565  -32.6492 H   0  0  0  0  0  0  0  0  0  0  0  0
   -8.4571   19.9200  -32.1727 H   0  0  0  0  0  0  0  0  0  0  0  0
  -10.5876   21.7183  -30.5289 H   0  0  0  0  0  0  0  0  0  0  0  0
   -9.2969   21.5186  -29.6838 H   0  0  0  0  0  0  0  0  0  0  0  0
   -3.4703   23.3521  -31.7563 H   0  0  0  0  0  0  0  0  0  0  0  0
   -4.7507   21.0665  -33.6752 H   0  0  0  0  0  0  0  0  0  0  0  0
   -3.2547   21.2831  -34.0428 H   0  0  0  0  0  0  0  0  0  0  0  0
   -4.4299   20.3228  -31.1866 H   0  0  0  0  0  0  0  0  0  0  0  0
   -2.8777   20.4100  -31.1214 H   0  0  0  0  0  0  0  0  0  0  0  0
  1  2  2  0
  2  3  1  0
  3  4  1  0
  4  5  2  0
  5  6  1  0
  6  7  2  0
  7  8  1  0
  8  9  2  0
  8 10  2  0
  8 11  1  0
 11 12  1  0
 12 13  1  0
 13 14  1  0
 14 15  1  0
  7 16  1  0
 16 17  2  0
  2 18  1  0
 18 19  2  0
 19 20  1  0
 20 21  1  0
 21 22  1  0
 22 23  1  0
 20 24  2  0
 24 25  1  0
 25 26  1  0
 26 27  1  0
 27 28  1  0
 17  4  1  0
 25 18  1  0
 28 26  1  0
 15 11  1  0
 23 21  1  0
  5 29  1  0
  6 30  1  0
 11 31  1  0
 12 32  1  0
 12 33  1  0
 13 34  1  0
 13 35  1  0
 14 36  1  0
 14 37  1  0
 15 38  1  0
 15 39  1  0
 16 40  1  0
 17 41  1  0
 19 42  1  0
 21 43  1  0
 22 44  1  0
 22 45  1  0
 23 46  1  0
 23 47  1  0
 26 48  1  0
 27 49  1  0
 27 50  1  0
 28 51  1  0
 28 52  1  0
M  CHG  2   3  -1  11   1
M  END
>  <UniqueID>  (4) 
4

>  <SMILES>  (4) 
O=C([N-]c1ccc(S(=O)(=O)[NH+]2CCCC2)cc1)c1cc(C2CC2)nn1C1CC1

>  <Energy>  (4) 
619.7659784139971

>  <Genealogy>  (4) 
O=C([N-]c1ccc(S(=O)(=O)[NH+]2CCCC2)cc1)c1cc(C2CC2)nn1C1CC1 (protonated)
O=C([N-]c1ccc(S(=O)(=O)[NH+]2CCCC2)cc1)c1cc(C2CC2)nn1C1CC1 (3D coordinates assigned)
O=C([N-]c1ccc(S(=O)(=O)[NH+]2CCCC2)cc1)c1cc(C2CC2)nn1C1CC1 (nonaromatic ring conformer: 619.7659784139971 kcal/mol)

>  <smiles>  (4) 
O=C(Nc1ccc(S(=O)(=O)N2CCCC2)cc1)c1cc(C2CC2)nn1C1CC1

>  <score_type>  (4) 
oracle

>  <origin>  (4) 
adgpu

>  <m_score__min__energy>  (4) 
-11.369999999999999

>  <m_primary>  (4) 
energy

$$$$
4:0
     RDKit          3D

 63 66  0  0  1  0  0  0  0  0999 V2000
    2.2510   25.9340  -24.1310 C   0  0  0  0  0  0  0  0  0  0  0  0
    1.3110   25.9090  -25.2820 C   0  0  0  0  0  0  0  0  0  0  0  0
    1.6240   25.1940  -26.4380 C   0  0  0  0  0  0  0  0  0  0  0  0
    0.7210   25.2000  -27.4830 C   0  0  0  0  0  0  0  0  0  0  0  0
   -0.4870   25.8970  -27.4120 C   0  0  0  0  0  0  0  0  0  0  0  0
   -1.4040   25.8840  -28.5140 N   0  0  0  0  0  0  0  0  0  0  0  0
   -2.0200   24.7790  -28.8230 C   0  0  0  0  0  0  0  0  0  0  0  0
   -1.8130   23.6310  -28.1250 N   0  0  0  0  0  0  0  0  0  0  0  0
   -2.4460   22.4820  -28.4400 C   0  0  0  0  0  0  0  0  0  0  0  0
   -2.1740   21.0230  -27.5420 S   0  0  0  0  0  0  0  0  0  0  0  0
   -1.3480   19.7900  -28.5140 C   0  0  0  0  0  0  0  0  0  0  0  0
   -1.4550   21.3500  -26.2850 O   0  0  0  0  0  0  0  0  0  0  0  0
   -3.5220   20.4420  -27.1500 O   0  0  0  0  0  0  0  0  0  0  0  0
   -3.3190   22.4950  -29.4980 C   0  0  0  0  0  0  0  0  0  0  0  0
   -3.5270   23.6620  -30.2050 C   0  0  0  0  0  0  0  0  0  0  0  0
   -4.3530   23.6520  -31.1960 N   0  0  0  0  0  0  0  0  0  0  0  0
   -5.0200   22.4370  -31.5250 C   0  0  0  0  0  0  0  0  0  0  0  0
   -4.3570   21.3090  -31.9700 C   0  0  0  0  0  0  0  0  0  0  0  0
   -5.1140   20.1950  -32.2560 C   0  0  0  0  0  0  0  0  0  0  0  0
   -6.4860   20.1490  -32.1220 C   0  0  0  0  0  0  0  0  0  0  0  0
   -7.4640   18.7720  -32.4740 S   0  0  0  0  0  0  0  0  0  0  0  0
   -7.5250   17.9070  -31.2340 O   0  0  0  0  0  0  0  0  0  0  0  0
   -8.8770   19.2710  -32.7200 O   0  0  0  0  0  0  0  0  0  0  0  0
   -6.8910   17.8610  -33.8040 N   0  0  0  0  0  0  0  0  0  0  0  0
   -6.0870   18.6930  -34.6410 C   0  0  0  0  0  0  0  0  0  0  0  0
   -4.6480   18.2090  -34.4250 C   0  0  0  0  0  0  0  0  0  0  0  0
   -4.8720   16.7160  -34.2760 C   0  0  0  0  0  0  0  0  0  0  0  0
   -6.1310   16.7160  -33.4200 C   0  0  0  0  0  0  0  0  0  0  0  0
   -7.1190   21.3010  -31.6720 C   0  0  0  0  0  0  0  0  0  0  0  0
   -6.4030   22.4430  -31.3720 C   0  0  0  0  0  0  0  0  0  0  0  0
   -2.8800   24.8000  -29.8680 N   0  0  0  0  0  0  0  0  0  0  0  0
   -0.7780   26.5960  -26.2680 C   0  0  0  0  0  0  0  0  0  0  0  0
    0.1090   26.6110  -25.1970 C   0  0  0  0  0  0  0  0  0  0  0  0
   -0.2630   27.4990  -23.7430 S   0  0  0  0  0  0  0  0  0  0  0  0
    1.1830   28.2090  -23.0710 N   0  0  0  0  0  0  0  0  0  0  0  0
   -0.9530   26.6610  -22.7220 O   0  0  0  0  0  0  0  0  0  0  0  0
   -1.1620   28.6490  -24.0960 O   0  0  0  0  0  0  0  0  0  0  0  0
    1.6800   25.9188  -23.1909 H   0  0  0  0  0  0  0  0  0  0  0  0
    2.9082   25.0530  -24.1751 H   0  0  0  0  0  0  0  0  0  0  0  0
    2.8605   26.8487  -24.1751 H   0  0  0  0  0  0  0  0  0  0  0  0
    2.5696   24.6374  -26.5157 H   0  0  0  0  0  0  0  0  0  0  0  0
    0.9605   24.6391  -28.3984 H   0  0  0  0  0  0  0  0  0  0  0  0
   -1.1540   23.6090  -27.3210 H   0  0  0  0  0  0  0  0  0  0  0  0
   -0.8610   19.0631  -27.8473 H   0  0  0  0  0  0  0  0  0  0  0  0
   -2.0816   19.2713  -29.1487 H   0  0  0  0  0  0  0  0  0  0  0  0
   -0.5892   20.2711  -29.1487 H   0  0  0  0  0  0  0  0  0  0  0  0
   -3.8528   21.5763  -29.7827 H   0  0  0  0  0  0  0  0  0  0  0  0
   -3.2637   21.3014  -32.0914 H   0  0  0  0  0  0  0  0  0  0  0  0
   -4.5960   19.2919  -32.6109 H   0  0  0  0  0  0  0  0  0  0  0  0
   -6.3790   18.5769  -35.6952 H   0  0  0  0  0  0  0  0  0  0  0  0
   -6.2037   19.7589  -34.3954 H   0  0  0  0  0  0  0  0  0  0  0  0
   -4.0091   18.4385  -35.2905 H   0  0  0  0  0  0  0  0  0  0  0  0
   -4.1309   18.6798  -33.5759 H   0  0  0  0  0  0  0  0  0  0  0  0
   -5.0407   16.2304  -35.2485 H   0  0  0  0  0  0  0  0  0  0  0  0
   -4.0231   16.1628  -33.8478 H   0  0  0  0  0  0  0  0  0  0  0  0
   -6.7111   15.7988  -33.5998 H   0  0  0  0  0  0  0  0  0  0  0  0
   -5.8803   16.7497  -32.3495 H   0  0  0  0  0  0  0  0  0  0  0  0
   -8.2125   21.3034  -31.5523 H   0  0  0  0  0  0  0  0  0  0  0  0
   -6.9197   23.3466  -31.0163 H   0  0  0  0  0  0  0  0  0  0  0  0
   -3.0450   25.6710  -30.4070 H   0  0  0  0  0  0  0  0  0  0  0  0
   -1.7247   27.1515  -26.1970 H   0  0  0  0  0  0  0  0  0  0  0  0
    0.9350   29.0970  -22.6030 H   0  0  0  0  0  0  0  0  0  0  0  0
    1.5230   27.5510  -22.3330 H   0  0  0  0  0  0  0  0  0  0  0  0
  1  2  1  0
  2  3  2  0
  3  4  1  0
  4  5  2  0
  5  6  1  0
  6  7  2  0
  7  8  1  0
  8  9  1  0
  9 10  1  0
 10 11  1  0
 10 12  2  0
 10 13  2  0
  9 14  2  0
 14 15  1  0
 15 16  2  0
 16 17  1  0
 17 18  2  0
 18 19  1  0
 19 20  2  0
 20 21  1  0
 21 22  2  0
 21 23  2  0
 21 24  1  0
 24 25  1  0
 25 26  1  0
 26 27  1  0
 27 28  1  0
 20 29  1  0
 29 30  2  0
 15 31  1  0
  5 32  1  0
 32 33  2  0
 33 34  1  0
 34 35  1  0
 34 36  2  0
 34 37  2  0
 33  2  1  0
 31  7  1  0
 30 17  1  0
 28 24  1  0
  1 38  1  0
  1 39  1  0
  1 40  1  0
  3 41  1  0
  4 42  1  0
  8 43  1  0
 11 44  1  0
 11 45  1  0
 11 46  1  0
 14 47  1  0
 18 48  1  0
 19 49  1  0
 25 50  1  0
 25 51  1  0
 26 52  1  0
 26 53  1  0
 27 54  1  0
 27 55  1  0
 28 56  1  0
 28 57  1  0
 29 58  1  0
 30 59  1  0
 31 60  1  0
 32 61  1  0
 35 62  1  0
 35 63  1  0
M  END
>  <smiles>  (5) 
Cc1ccc(N=c2[nH]c(S(C)(=O)=O)cc(=Nc3ccc(S(=O)(=O)N4CCCC4)cc3)[nH]2)cc1S(N)(=O)=O

>  <score_type>  (5) 
oracle

>  <origin>  (5) 
adgpu

>  <m_score__min__energy>  (5) 
-11.52

>  <m_primary>  (5) 
energy

$$$$
5:0
     RDKit          3D

 52 55  0  0  0  0  0  0  0  0999 V2000
   -5.0020   17.4190  -34.9480 C   0  0  0  0  0  0  0  0  0  0  0  0
   -4.3910   18.3680  -33.9510 C   0  0  0  0  0  0  0  0  0  0  0  0
   -3.1340   18.9280  -34.2290 C   0  0  0  0  0  0  0  0  0  0  0  0
   -2.5340   19.8140  -33.3340 C   0  0  0  0  0  0  0  0  0  0  0  0
   -3.1750   20.1640  -32.1360 C   0  0  0  0  0  0  0  0  0  0  0  0
   -2.5210   21.0980  -31.1830 C   0  0  0  0  0  0  0  0  0  0  0  0
   -1.3380   20.8770  -30.4740 C   0  0  0  0  0  0  0  0  0  0  0  0
   -0.9620   21.9500  -29.6550 C   0  0  0  0  0  0  0  0  0  0  0  0
   -1.8440   23.0240  -29.7070 C   0  0  0  0  0  0  0  0  0  0  0  0
   -1.7010   24.2910  -28.9690 C   0  0  0  0  0  0  0  0  0  0  0  0
   -2.3620   25.2980  -29.3400 O   0  0  0  0  0  0  0  0  0  0  0  0
   -0.7900   24.3920  -27.8600 N   0  0  0  0  0  0  0  0  0  0  0  0
   -0.7910   25.4800  -26.9210 C   0  0  0  0  0  0  0  0  0  0  0  0
   -1.1900   25.2460  -25.5950 C   0  0  0  0  0  0  0  0  0  0  0  0
   -1.2190   26.2930  -24.6690 C   0  0  0  0  0  0  0  0  0  0  0  0
   -0.8630   27.5860  -25.0620 C   0  0  0  0  0  0  0  0  0  0  0  0
   -0.4860   27.8340  -26.3850 C   0  0  0  0  0  0  0  0  0  0  0  0
   -0.4560   26.7910  -27.3140 C   0  0  0  0  0  0  0  0  0  0  0  0
   -3.0820   22.6370  -30.7770 S   0  0  0  0  0  0  0  0  0  0  0  0
   -4.4420   19.6200  -31.8630 C   0  0  0  0  0  0  0  0  0  0  0  0
   -5.0610   18.7320  -32.7590 C   0  0  0  0  0  0  0  0  0  0  0  0
   -6.6560   18.0740  -32.3500 S   0  0  0  0  0  0  0  0  0  0  0  0
   -6.7930   16.6820  -32.9040 O   0  0  0  0  0  0  0  0  0  0  0  0
   -6.7830   18.0000  -30.8540 O   0  0  0  0  0  0  0  0  0  0  0  0
   -7.8970   19.1140  -33.0160 N   0  0  0  0  0  0  0  0  0  0  0  0
   -7.3530   20.4220  -33.4220 C   0  0  0  0  0  0  0  0  0  0  0  0
   -7.0580   21.3390  -32.2100 C   0  0  0  0  0  0  0  0  0  0  0  0
   -7.7050   20.9290  -31.0170 O   0  0  0  0  0  0  0  0  0  0  0  0
   -9.0350   20.5480  -31.2920 C   0  0  0  0  0  0  0  0  0  0  0  0
   -9.0570   19.2430  -32.1070 C   0  0  0  0  0  0  0  0  0  0  0  0
   -5.5224   16.6107  -34.4135 H   0  0  0  0  0  0  0  0  0  0  0  0
   -5.7201   17.9628  -35.5794 H   0  0  0  0  0  0  0  0  0  0  0  0
   -4.2098   16.9904  -35.5794 H   0  0  0  0  0  0  0  0  0  0  0  0
   -2.6163   18.6651  -35.1633 H   0  0  0  0  0  0  0  0  0  0  0  0
   -1.5487   20.2424  -33.5698 H   0  0  0  0  0  0  0  0  0  0  0  0
   -0.7556   19.9470  -30.5514 H   0  0  0  0  0  0  0  0  0  0  0  0
   -0.0562   21.9435  -29.0309 H   0  0  0  0  0  0  0  0  0  0  0  0
   -0.0230   23.6860  -27.7860 H   0  0  0  0  0  0  0  0  0  0  0  0
   -1.4816   24.2323  -25.2829 H   0  0  0  0  0  0  0  0  0  0  0  0
   -1.5224   26.0988  -23.6297 H   0  0  0  0  0  0  0  0  0  0  0  0
   -0.8794   28.4078  -24.3310 H   0  0  0  0  0  0  0  0  0  0  0  0
   -0.2122   28.8531  -26.6955 H   0  0  0  0  0  0  0  0  0  0  0  0
   -0.1697   26.9941  -28.3565 H   0  0  0  0  0  0  0  0  0  0  0  0
   -4.9582   19.8944  -30.9312 H   0  0  0  0  0  0  0  0  0  0  0  0
   -6.4178   20.2588  -33.9777 H   0  0  0  0  0  0  0  0  0  0  0  0
   -8.1094   20.9217  -34.0451 H   0  0  0  0  0  0  0  0  0  0  0  0
   -5.9723   21.3429  -32.0331 H   0  0  0  0  0  0  0  0  0  0  0  0
   -7.4449   22.3380  -32.4597 H   0  0  0  0  0  0  0  0  0  0  0  0
   -9.5719   20.3936  -30.3444 H   0  0  0  0  0  0  0  0  0  0  0  0
   -9.5226   21.3432  -31.8750 H   0  0  0  0  0  0  0  0  0  0  0  0
   -9.0525   18.3928  -31.4090 H   0  0  0  0  0  0  0  0  0  0  0  0
   -9.9644   19.2565  -32.7286 H   0  0  0  0  0  0  0  0  0  0  0  0
  1  2  1  0
  2  3  2  0
  3  4  1  0
  4  5  2  0
  5  6  1  0
  6  7  2  0
  7  8  1  0
  8  9  2  0
  9 10  1  0
 10 11  2  0
 10 12  1  0
 12 13  1  0
 13 14  2  0
 14 15  1  0
 15 16  2  0
 16 17  1  0
 17 18  2  0
  9 19  1  0
  5 20  1  0
 20 21  2  0
 21 22  1  0
 22 23  2  0
 22 24  2  0
 22 25  1  0
 25 26  1  0
 26 27  1  0
 27 28  1  0
 28 29  1  0
 29 30  1  0
 21  2  1  0
 30 25  1  0
 19  6  1  0
 18 13  1  0
  1 31  1  0
  1 32  1  0
  1 33  1  0
  3 34  1  0
  4 35  1  0
  7 36  1  0
  8 37  1  0
 12 38  1  0
 14 39  1  0
 15 40  1  0
 16 41  1  0
 17 42  1  0
 18 43  1  0
 20 44  1  0
 26 45  1  0
 26 46  1  0
 27 47  1  0
 27 48  1  0
 29 49  1  0
 29 50  1  0
 30 51  1  0
 30 52  1  0
M  END
>  <UniqueID>  (6) 
5

>  <SMILES>  (6) 
Cc1ccc(-c2ccc(C(=O)Nc3ccccc3)s2)cc1S(=O)(=O)N1CCOCC1

>  <Energy>  (6) 
98.93082239977598

>  <Genealogy>  (6) 
Cc1ccc(-c2ccc(C(=O)Nc3ccccc3)s2)cc1S(=O)(=O)N1CCOCC1 (3D coordinates assigned)
Cc1ccc(-c2ccc(C(=O)Nc3ccccc3)s2)cc1S(=O)(=O)N1CCOCC1 (nonaromatic ring conformer: 98.93082239977598 kcal/mol)

>  <smiles>  (6) 
Cc1ccc(-c2ccc(C(=O)Nc3ccccc3)s2)cc1S(=O)(=O)N1CCOCC1

>  <score_type>  (6) 
oracle

>  <origin>  (6) 
adgpu

>  <m_score__min__energy>  (6) 
-10.220000000000001

>  <m_primary>  (6) 
energy

$$$$
6:0
     RDKit          3D

 58 62  0  0  1  0  0  0  0  0999 V2000
   -5.3530   25.6770  -30.7650 C   0  0  0  0  0  0  0  0  0  0  0  0
   -3.9920   25.2950  -30.8080 O   0  0  0  0  0  0  0  0  0  0  0  0
   -3.5080   24.2720  -30.0060 C   0  0  0  0  0  0  0  0  0  0  0  0
   -2.5200   24.5600  -29.1080 C   0  0  0  0  0  0  0  0  0  0  0  0
   -2.0080   23.5990  -28.2960 C   0  0  0  0  0  0  0  0  0  0  0  0
   -1.0100   23.9180  -27.3990 C   0  0  0  0  0  0  0  0  0  0  0  0
   -0.5250   25.1250  -27.2930 N   0  0  0  0  0  0  0  0  0  0  0  0
    0.5040   25.2870  -26.3150 C   0  0  0  0  0  0  0  0  0  0  0  0
    1.7900   24.8160  -26.5210 C   0  0  0  0  0  0  0  0  0  0  0  0
    2.7420   25.0100  -25.5240 C   0  0  0  0  0  0  0  0  0  0  0  0
    2.4150   25.6570  -24.3530 C   0  0  0  0  0  0  0  0  0  0  0  0
    1.1360   26.1270  -24.1450 C   0  0  0  0  0  0  0  0  0  0  0  0
    0.5630   26.7730  -23.1320 N   0  0  0  0  0  0  0  0  0  0  0  0
   -0.7340   27.0340  -23.3750 C   0  0  0  0  0  0  0  0  0  0  0  0
   -0.9760   26.5090  -24.6390 C   0  0  0  0  0  0  0  0  0  0  0  0
    0.1630   25.9460  -25.1290 C   0  0  0  0  0  0  0  0  0  0  0  0
   -0.5530   22.9020  -26.6220 N   0  0  0  0  0  0  0  0  0  0  0  0
   -1.0510   21.6500  -26.7290 C   0  0  0  0  0  0  0  0  0  0  0  0
   -2.0210   21.3570  -27.6070 N   0  0  0  0  0  0  0  0  0  0  0  0
   -2.5050   22.3240  -28.3940 C   0  0  0  0  0  0  0  0  0  0  0  0
   -3.5150   22.0320  -29.3110 C   0  0  0  0  0  0  0  0  0  0  0  0
   -4.0530   22.9840  -30.1470 C   0  0  0  0  0  0  0  0  0  0  0  0
   -5.0190   22.8190  -31.0630 O   0  0  0  0  0  0  0  0  0  0  0  0
   -5.2440   21.9970  -32.1260 C   0  0  0  0  0  0  0  0  0  0  0  0
   -6.6750   21.8830  -32.5230 C   0  0  0  0  0  0  0  0  0  0  0  0
   -7.3560   20.7790  -31.8760 N   0  0  0  0  0  0  0  0  0  0  0  0
   -8.7720   20.8790  -31.8420 C   0  0  0  0  0  0  0  0  0  0  0  0
   -9.4330   19.7500  -32.5610 C   0  0  0  0  0  0  0  0  0  0  0  0
   -9.0390   18.4110  -31.9720 C   0  0  0  0  0  0  0  0  0  0  0  0
   -7.5640   18.3410  -31.6780 C   0  0  0  0  0  0  0  0  0  0  0  0
   -6.8000   19.5090  -32.1900 C   0  0  0  0  0  0  0  0  0  0  0  0
   -5.6755   25.7675  -29.7172 H   0  0  0  0  0  0  0  0  0  0  0  0
   -5.4783   26.6450  -31.2722 H   0  0  0  0  0  0  0  0  0  0  0  0
   -5.9638   24.9156  -31.2722 H   0  0  0  0  0  0  0  0  0  0  0  0
   -2.1325   25.5873  -29.0412 H   0  0  0  0  0  0  0  0  0  0  0  0
    2.0542   24.2983  -27.4549 H   0  0  0  0  0  0  0  0  0  0  0  0
    3.7678   24.6421  -25.6733 H   0  0  0  0  0  0  0  0  0  0  0  0
    3.1813   25.8000  -23.5769 H   0  0  0  0  0  0  0  0  0  0  0  0
    1.0810   27.0340  -22.2600 H   0  0  0  0  0  0  0  0  0  0  0  0
   -1.4479   27.5506  -22.7166 H   0  0  0  0  0  0  0  0  0  0  0  0
   -1.9419   26.5431  -25.1643 H   0  0  0  0  0  0  0  0  0  0  0  0
    0.2030   23.0660  -25.9180 H   0  0  0  0  0  0  0  0  0  0  0  0
   -0.6521   20.8548  -26.0821 H   0  0  0  0  0  0  0  0  0  0  0  0
   -3.8960   21.0017  -29.3681 H   0  0  0  0  0  0  0  0  0  0  0  0
   -4.6780   22.3841  -32.9862 H   0  0  0  0  0  0  0  0  0  0  0  0
   -4.9221   20.9910  -31.8188 H   0  0  0  0  0  0  0  0  0  0  0  0
   -7.1889   22.8177  -32.2543 H   0  0  0  0  0  0  0  0  0  0  0  0
   -6.7020   21.6966  -33.6067 H   0  0  0  0  0  0  0  0  0  0  0  0
   -9.1027   20.8733  -30.7929 H   0  0  0  0  0  0  0  0  0  0  0  0
   -9.0573   21.8143  -32.3458 H   0  0  0  0  0  0  0  0  0  0  0  0
  -10.5241   19.8672  -32.4844 H   0  0  0  0  0  0  0  0  0  0  0  0
   -9.1098   19.7735  -33.6122 H   0  0  0  0  0  0  0  0  0  0  0  0
   -9.5962   18.2559  -31.0363 H   0  0  0  0  0  0  0  0  0  0  0  0
   -9.2779   17.6300  -32.7089 H   0  0  0  0  0  0  0  0  0  0  0  0
   -7.4287   18.2876  -30.5877 H   0  0  0  0  0  0  0  0  0  0  0  0
   -7.1742   17.4498  -32.1916 H   0  0  0  0  0  0  0  0  0  0  0  0
   -5.7866   19.4662  -31.7643 H   0  0  0  0  0  0  0  0  0  0  0  0
   -6.8187   19.4297  -33.2870 H   0  0  0  0  0  0  0  0  0  0  0  0
  1  2  1  0
  2  3  1  0
  3  4  2  0
  4  5  1  0
  5  6  1  0
  6  7  2  0
  7  8  1  0
  8  9  2  0
  9 10  1  0
 10 11  2  0
 11 12  1  0
 12 13  1  0
 13 14  1  0
 14 15  2  0
 15 16  1  0
  6 17  1  0
 17 18  1  0
 18 19  2  0
 19 20  1  0
 20 21  1  0
 21 22  2  0
 22 23  1  0
 23 24  1  0
 24 25  1  0
 25 26  1  0
 26 27  1  0
 27 28  1  0
 28 29  1  0
 29 30  1  0
 30 31  1  0
 22  3  1  0
 31 26  1  0
 20  5  2  0
 16  8  1  0
 16 12  2  0
  1 32  1  0
  1 33  1  0
  1 34  1  0
  4 35  1  0
  9 36  1  0
 10 37  1  0
 11 38  1  0
 13 39  1  0
 14 40  1  0
 15 41  1  0
 17 42  1  0
 18 43  1  0
 21 44  1  0
 24 45  1  0
 24 46  1  0
 25 47  1  0
 25 48  1  0
 27 49  1  0
 27 50  1  0
 28 51  1  0
 28 52  1  0
 29 53  1  0
 29 54  1  0
 30 55  1  0
 30 56  1  0
 31 57  1  0
 31 58  1  0
M  END
>  <smiles>  (7) 
COc1cc2c(=Nc3cccc4[nH]ccc34)[nH]cnc2cc1OCCN1CCCCC1

>  <score_type>  (7) 
oracle

>  <origin>  (7) 
adgpu

>  <m_score__min__energy>  (7) 
-9.2899999999999991

>  <m_primary>  (7) 
energy

$$$$
7:0
     RDKit          3D

 51 54  0  0  0  0  0  0  0  0999 V2000
    1.2960   19.6310  -30.6710 O   0  0  0  0  0  0  0  0  0  0  0  0
    0.0690   19.7210  -30.9480 C   0  0  0  0  0  0  0  0  0  0  0  0
   -0.4100   19.4000  -32.2590 N   0  0  0  0  0  0  0  0  0  0  0  0
   -1.7800   19.2120  -32.6440 C   0  0  0  0  0  0  0  0  0  0  0  0
   -2.3430   17.9340  -32.8030 C   0  0  0  0  0  0  0  0  0  0  0  0
   -3.6880   17.7950  -33.1590 C   0  0  0  0  0  0  0  0  0  0  0  0
   -4.4970   18.9280  -33.3360 C   0  0  0  0  0  0  0  0  0  0  0  0
   -5.9100   18.7890  -33.7370 C   0  0  0  0  0  0  0  0  0  0  0  0
   -6.1780   18.3170  -34.8750 O   0  0  0  0  0  0  0  0  0  0  0  0
   -6.9840   19.1870  -32.8630 N   0  0  0  0  0  0  0  0  0  0  0  0
   -6.8780   20.2650  -31.8930 C   0  0  0  0  0  0  0  0  0  0  0  0
   -8.2600   20.3940  -31.2670 C   0  0  0  0  0  0  0  0  0  0  0  0
   -9.2170   19.6610  -32.2040 C   0  0  0  0  0  0  0  0  0  0  0  0
   -8.3520   18.7340  -33.0490 C   0  0  0  0  0  0  0  0  0  0  0  0
   -3.9330   20.2030  -33.1740 C   0  0  0  0  0  0  0  0  0  0  0  0
   -2.5890   20.3410  -32.8150 C   0  0  0  0  0  0  0  0  0  0  0  0
   -0.8610   20.1760  -29.9610 N   0  0  0  0  0  0  0  0  0  0  0  0
   -1.1680   21.5570  -29.7270 C   0  0  0  0  0  0  0  0  0  0  0  0
   -0.1430   22.3970  -29.2850 C   0  0  0  0  0  0  0  0  0  0  0  0
   -0.3740   23.7590  -29.1100 C   0  0  0  0  0  0  0  0  0  0  0  0
   -1.6390   24.2970  -29.3550 C   0  0  0  0  0  0  0  0  0  0  0  0
   -1.8230   25.6680  -29.2120 O   0  0  0  0  0  0  0  0  0  0  0  0
   -2.7020   23.4590  -29.7440 C   0  0  0  0  0  0  0  0  0  0  0  0
   -4.3100   24.1450  -30.0430 S   0  0  0  0  0  0  0  0  0  0  0  0
   -4.1880   25.4310  -30.8110 O   0  0  0  0  0  0  0  0  0  0  0  0
   -4.9960   24.4480  -28.7390 O   0  0  0  0  0  0  0  0  0  0  0  0
   -5.2500   22.9730  -31.0180 C   0  0  0  0  0  0  0  0  0  0  0  0
   -5.7860   23.5110  -32.3330 C   0  0  0  0  0  0  0  0  0  0  0  0
   -6.7260   23.3020  -31.1560 C   0  0  0  0  0  0  0  0  0  0  0  0
   -2.4680   22.0790  -29.9240 C   0  0  0  0  0  0  0  0  0  0  0  0
   -3.5320   21.2440  -30.2720 O   0  0  0  0  0  0  0  0  0  0  0  0
   -1.7227   17.0391  -32.6467 H   0  0  0  0  0  0  0  0  0  0  0  0
   -4.1147   16.7912  -33.3012 H   0  0  0  0  0  0  0  0  0  0  0  0
   -6.1306   20.0175  -31.1248 H   0  0  0  0  0  0  0  0  0  0  0  0
   -6.5569   21.2053  -32.3648 H   0  0  0  0  0  0  0  0  0  0  0  0
   -8.2724   19.9308  -30.2694 H   0  0  0  0  0  0  0  0  0  0  0  0
   -8.5482   21.4481  -31.1410 H   0  0  0  0  0  0  0  0  0  0  0  0
   -9.9478   19.0782  -31.6241 H   0  0  0  0  0  0  0  0  0  0  0  0
   -9.7840   20.3648  -32.8311 H   0  0  0  0  0  0  0  0  0  0  0  0
   -8.4602   17.6936  -32.7085 H   0  0  0  0  0  0  0  0  0  0  0  0
   -8.6461   18.7614  -34.1086 H   0  0  0  0  0  0  0  0  0  0  0  0
   -4.5520   21.0987  -33.3304 H   0  0  0  0  0  0  0  0  0  0  0  0
   -2.1641   21.3446  -32.6658 H   0  0  0  0  0  0  0  0  0  0  0  0
    0.8527   21.9799  -29.0739 H   0  0  0  0  0  0  0  0  0  0  0  0
    0.4443   24.4144  -28.7770 H   0  0  0  0  0  0  0  0  0  0  0  0
   -4.6711   22.0865  -30.7196 H   0  0  0  0  0  0  0  0  0  0  0  0
   -5.5278   24.5301  -32.6566 H   0  0  0  0  0  0  0  0  0  0  0  0
   -5.7624   23.1729  -33.3795 H   0  0  0  0  0  0  0  0  0  0  0  0
   -7.1479   24.1699  -30.6280 H   0  0  0  0  0  0  0  0  0  0  0  0
   -7.6643   22.7501  -30.9980 H   0  0  0  0  0  0  0  0  0  0  0  0
   -3.4220   20.2550  -30.4550 H   0  0  0  0  0  0  0  0  0  0  0  0
  1  2  2  0
  2  3  1  0
  3  4  1  0
  4  5  2  0
  5  6  1  0
  6  7  2  0
  7  8  1  0
  8  9  2  0
  8 10  1  0
 10 11  1  0
 11 12  1  0
 12 13  1  0
 13 14  1  0
  7 15  1  0
 15 16  2  0
  2 17  1  0
 17 18  1  0
 18 19  2  0
 19 20  1  0
 20 21  2  0
 21 22  1  0
 21 23  1  0
 23 24  1  0
 24 25  2  0
 24 26  2  0
 24 27  1  0
 27 28  1  0
 28 29  1  0
 23 30  2  0
 30 31  1  0
 16  4  1  0
 30 18  1  0
 14 10  1  0
 29 27  1  0
  5 32  1  0
  6 33  1  0
 11 34  1  0
 11 35  1  0
 12 36  1  0
 12 37  1  0
 13 38  1  0
 13 39  1  0
 14 40  1  0
 14 41  1  0
 15 42  1  0
 16 43  1  0
 19 44  1  0
 20 45  1  0
 27 46  1  0
 28 47  1  0
 28 48  1  0
 29 49  1  0
 29 50  1  0
 31 51  1  0
M  CHG  3   3  -1  17  -1  22  -1
M  END
>  <UniqueID>  (8) 
6

>  <SMILES>  (8) 
O=C([N-]c1ccc(C(=O)N2CCCC2)cc1)[N-]c1ccc([O-])c(S(=O)(=O)C2CC2)c1O

>  <Energy>  (8) 
333.16668361452594

>  <Genealogy>  (8) 
O=C([N-]c1ccc(C(=O)N2CCCC2)cc1)[N-]c1ccc([O-])c(S(=O)(=O)C2CC2)c1O (protonated)
O=C([N-]c1ccc(C(=O)N2CCCC2)cc1)[N-]c1ccc([O-])c(S(=O)(=O)C2CC2)c1O (3D coordinates assigned)
O=C([N-]c1ccc(C(=O)N2CCCC2)cc1)[N-]c1ccc([O-])c(S(=O)(=O)C2CC2)c1O (nonaromatic ring conformer: 333.16668361452594 kcal/mol)

>  <smiles>  (8) 
O=C(Nc1ccc(C(=O)N2CCCC2)cc1)Nc1ccc(O)c(S(=O)(=O)C2CC2)c1O

>  <score_type>  (8) 
oracle

>  <origin>  (8) 
adgpu

>  <m_score__min__energy>  (8) 
-13.029999999999999

>  <m_primary>  (8) 
energy

$$$$
8:0
     RDKit          3D

 58 61  0  0  0  0  0  0  0  0999 V2000
   -5.8484   16.3268  -30.5974 H   0  0  0  0  0  0  0  0  0  0  0  0
   -5.9580   16.8440  -31.5620 C   0  0  0  0  0  0  0  0  0  0  0  0
   -6.8890   17.8750  -31.6940 C   0  0  0  0  0  0  0  0  0  0  0  0
   -7.5057   18.1685  -30.8317 H   0  0  0  0  0  0  0  0  0  0  0  0
   -7.0430   18.5390  -32.9190 C   0  0  0  0  0  0  0  0  0  0  0  0
   -8.0330   19.6660  -33.0500 C   0  0  0  0  0  0  0  0  0  0  0  0
   -8.1652   19.9092  -34.1146 H   0  0  0  0  0  0  0  0  0  0  0  0
   -8.9905   19.3500  -32.6103 H   0  0  0  0  0  0  0  0  0  0  0  0
   -7.5460   20.8820  -32.3240 C   0  0  0  0  0  0  0  0  0  0  0  0
   -6.5610   21.6860  -32.7850 N   0  0  0  0  0  0  0  0  0  0  0  0
   -6.2510   22.6730  -31.9490 N   0  0  0  0  0  0  0  0  0  0  0  0
   -5.4840   23.3370  -32.1830 H   0  0  0  0  0  0  0  0  0  0  0  0
   -6.9880   22.6620  -30.8090 C   0  0  0  0  0  0  0  0  0  0  0  0
   -6.8850   23.5080  -29.8200 N   0  0  0  0  0  0  0  0  0  0  0  0
   -6.0350   24.6650  -29.7170 C   0  0  0  0  0  0  0  0  0  0  0  0
   -6.4330   25.7990  -30.1040 O   0  0  0  0  0  0  0  0  0  0  0  0
   -4.6900   24.5420  -29.1100 C   0  0  0  0  0  0  0  0  0  0  0  0
   -4.5450   24.5190  -27.7130 C   0  0  0  0  0  0  0  0  0  0  0  0
   -5.4365   24.5786  -27.0714 H   0  0  0  0  0  0  0  0  0  0  0  0
   -3.2780   24.4210  -27.1310 C   0  0  0  0  0  0  0  0  0  0  0  0
   -3.1775   24.4199  -26.0356 H   0  0  0  0  0  0  0  0  0  0  0  0
   -2.1340   24.3240  -27.9370 C   0  0  0  0  0  0  0  0  0  0  0  0
   -0.5320   24.2120  -27.1930 S   0  0  0  0  0  0  0  0  0  0  0  0
    0.5180   24.3010  -28.2690 O   0  0  0  0  0  0  0  0  0  0  0  0
   -0.3970   22.8690  -26.5240 O   0  0  0  0  0  0  0  0  0  0  0  0
   -0.2690   25.4450  -25.9780 N   0  0  0  0  0  0  0  0  0  0  0  0
   -0.7940   25.0190  -24.6730 C   0  0  0  0  0  0  0  0  0  0  0  0
   -1.8831   24.8826  -24.7450 H   0  0  0  0  0  0  0  0  0  0  0  0
   -0.3185   24.0702  -24.3839 H   0  0  0  0  0  0  0  0  0  0  0  0
   -0.4820   26.0890  -23.6060 C   0  0  0  0  0  0  0  0  0  0  0  0
   -1.4053   26.3150  -23.0524 H   0  0  0  0  0  0  0  0  0  0  0  0
    0.2973   25.6838  -22.9438 H   0  0  0  0  0  0  0  0  0  0  0  0
    0.0150   27.2910  -24.1720 O   0  0  0  0  0  0  0  0  0  0  0  0
   -0.8390   27.7340  -25.2100 C   0  0  0  0  0  0  0  0  0  0  0  0
   -1.8568   27.8527  -24.8100 H   0  0  0  0  0  0  0  0  0  0  0  0
   -0.4547   28.6923  -25.5894 H   0  0  0  0  0  0  0  0  0  0  0  0
   -0.8730   26.7270  -26.3790 C   0  0  0  0  0  0  0  0  0  0  0  0
   -1.9176   26.5562  -26.6785 H   0  0  0  0  0  0  0  0  0  0  0  0
   -0.2982   27.1415  -27.2203 H   0  0  0  0  0  0  0  0  0  0  0  0
   -2.2730   24.3320  -29.3310 C   0  0  0  0  0  0  0  0  0  0  0  0
   -1.3825   24.2411  -29.9703 H   0  0  0  0  0  0  0  0  0  0  0  0
   -3.5390   24.4550  -29.9140 C   0  0  0  0  0  0  0  0  0  0  0  0
   -3.6350   24.4839  -31.0094 H   0  0  0  0  0  0  0  0  0  0  0  0
   -8.0780   21.3770  -30.8000 S   0  0  0  0  0  0  0  0  0  0  0  0
   -6.2340   18.1750  -34.0060 C   0  0  0  0  0  0  0  0  0  0  0  0
   -6.3344   18.7088  -34.9626 H   0  0  0  0  0  0  0  0  0  0  0  0
   -5.2930   17.1310  -33.8840 C   0  0  0  0  0  0  0  0  0  0  0  0
   -4.4790   16.7300  -34.9560 O   0  0  0  0  0  0  0  0  0  0  0  0
   -3.0600   16.8550  -34.9830 C   0  0  0  0  0  0  0  0  0  0  0  0
   -2.6752   16.8889  -33.9530 H   0  0  0  0  0  0  0  0  0  0  0  0
   -2.6258   15.9916  -35.5084 H   0  0  0  0  0  0  0  0  0  0  0  0
   -2.7834   17.7810  -35.5084 H   0  0  0  0  0  0  0  0  0  0  0  0
   -5.1570   16.4610  -32.6570 C   0  0  0  0  0  0  0  0  0  0  0  0
   -4.2190   15.4170  -32.5680 O   0  0  0  0  0  0  0  0  0  0  0  0
   -4.5040   14.1230  -32.0440 C   0  0  0  0  0  0  0  0  0  0  0  0
   -4.4953   14.1625  -30.9447 H   0  0  0  0  0  0  0  0  0  0  0  0
   -5.4955   13.7970  -32.3914 H   0  0  0  0  0  0  0  0  0  0  0  0
   -3.7412   13.4106  -32.3914 H   0  0  0  0  0  0  0  0  0  0  0  0
  1  2  1  0
  2  3  2  0
  3  4  1  0
  3  5  1  0
  5  6  1  0
  6  7  1  0
  6  8  1  0
  6  9  1  0
  9 10  2  0
 10 11  1  0
 11 12  1  0
 11 13  1  0
 13 14  2  0
 14 15  1  0
 15 16  2  0
 15 17  1  0
 17 18  2  0
 18 19  1  0
 18 20  1  0
 20 21  1  0
 20 22  2  0
 22 23  1  0
 23 24  2  0
 23 25  2  0
 23 26  1  0
 26 27  1  0
 27 28  1  0
 27 29  1  0
 27 30  1  0
 30 31  1  0
 30 32  1  0
 30 33  1  0
 33 34  1  0
 34 35  1  0
 34 36  1  0
 34 37  1  0
 37 38  1  0
 37 39  1  0
 22 40  1  0
 40 41  1  0
 40 42  2  0
 42 43  1  0
 13 44  1  0
  5 45  2  0
 45 46  1  0
 45 47  1  0
 47 48  1  0
 48 49  1  0
 49 50  1  0
 49 51  1  0
 49 52  1  0
 47 53  2  0
 53 54  1  0
 54 55  1  0
 55 56  1  0
 55 57  1  0
 55 58  1  0
 53  2  1  0
 44  9  1  0
 42 17  1  0
 37 26  1  0
M  END
>  <UniqueID>  (9) 
7

>  <SMILES>  (9) 
COc1ccc(Cc2n[nH]/c(=N\C(=O)c3ccc(S(=O)(=O)N4CCOCC4)cc3)s2)cc1OC

>  <Energy>  (9) 
107.38633093421521

>  <Genealogy>  (9) 
COc1ccc(Cc2n[nH]/c(=N\C(=O)c3ccc(S(=O)(=O)N4CCOCC4)cc3)s2)cc1OC (cis-trans isomerization)
COc1ccc(Cc2n[nH]/c(=N\C(=O)c3ccc(S(=O)(=O)N4CCOCC4)cc3)s2)cc1OC (3D coordinates assigned)
COc1ccc(Cc2n[nH]/c(=N\C(=O)c3ccc(S(=O)(=O)N4CCOCC4)cc3)s2)cc1OC (nonaromatic ring conformer: 107.38633093421521 kcal/mol)

>  <smiles>  (9) 
COc1ccc(Cc2n[nH]c(=NC(=O)c3ccc(S(=O)(=O)N4CCOCC4)cc3)s2)cc1OC

>  <score_type>  (9) 
oracle

>  <origin>  (9) 
adgpu

>  <m_score__min__energy>  (9) 
-10.65

>  <m_primary>  (9) 
energy

$$$$
9:0
     RDKit          3D

 65 69  0  0  0  0  0  0  0  0999 V2000
   -5.3470   12.7150  -33.2980 C   0  0  0  0  0  0  0  0  0  0  0  0
   -5.8230   14.1150  -33.4960 C   0  0  0  0  0  0  0  0  0  0  0  0
   -6.9300   14.5030  -34.2390 C   0  0  0  0  0  0  0  0  0  0  0  0
   -7.2050   15.8350  -34.1960 N   0  0  0  0  0  0  0  0  0  0  0  0
   -6.3320   16.5100  -33.4150 C   0  0  0  0  0  0  0  0  0  0  0  0
   -6.4340   17.9920  -33.1640 C   0  0  1  0  0  0  0  0  0  0  0  0
   -6.9440   18.2980  -31.7390 C   0  0  0  0  0  0  0  0  0  0  0  0
   -7.5440   19.6740  -31.6580 C   0  0  0  0  0  0  0  0  0  0  0  0
   -8.8770   19.9010  -32.0230 C   0  0  0  0  0  0  0  0  0  0  0  0
   -9.3860   21.1970  -31.9730 C   0  0  0  0  0  0  0  0  0  0  0  0
   -8.5700   22.2540  -31.5670 C   0  0  0  0  0  0  0  0  0  0  0  0
   -7.2300   22.0030  -31.2110 C   0  0  0  0  0  0  0  0  0  0  0  0
   -6.3440   23.0690  -30.7890 N   0  0  0  0  0  0  0  0  0  0  0  0
   -6.8340   24.4530  -30.6890 C   0  0  0  0  0  0  0  0  0  0  0  0
   -5.7750   25.3730  -30.0760 C   0  0  0  0  0  0  0  0  0  0  0  0
   -4.4860   25.1860  -30.7490 N   0  0  0  0  0  0  0  0  0  0  0  0
   -3.9680   23.8050  -30.6490 C   0  0  0  0  0  0  0  0  0  0  0  0
   -5.0160   22.7480  -30.2410 C   0  0  0  0  0  0  0  0  0  0  0  0
   -6.7660   20.7220  -31.2740 N   0  0  0  0  0  0  0  0  0  0  0  0
   -5.1100   18.6750  -33.4580 C   0  0  0  0  0  0  0  0  0  0  0  0
   -4.1200   18.0530  -34.2420 C   0  0  0  0  0  0  0  0  0  0  0  0
   -2.9110   18.7000  -34.5050 C   0  0  0  0  0  0  0  0  0  0  0  0
   -2.6580   19.9820  -33.9870 C   0  0  0  0  0  0  0  0  0  0  0  0
   -1.4070   20.6520  -34.2200 N   0  0  0  0  0  0  0  0  0  0  0  0
   -0.2050   20.8790  -32.9880 S   0  0  0  0  0  0  0  0  0  0  0  0
   -0.7580   21.7670  -31.9100 O   0  0  0  0  0  0  0  0  0  0  0  0
    1.0030   21.5370  -33.5930 O   0  0  0  0  0  0  0  0  0  0  0  0
    0.2180   19.3250  -32.2750 C   0  0  0  0  0  0  0  0  0  0  0  0
    0.8750   19.2850  -31.0380 C   0  0  0  0  0  0  0  0  0  0  0  0
    1.1910   18.0560  -30.4500 C   0  0  0  0  0  0  0  0  0  0  0  0
    0.8540   16.8620  -31.0960 C   0  0  0  0  0  0  0  0  0  0  0  0
    0.1990   16.8980  -32.3310 C   0  0  0  0  0  0  0  0  0  0  0  0
   -0.1170   18.1260  -32.9230 C   0  0  0  0  0  0  0  0  0  0  0  0
   -3.6570   20.6190  -33.2320 C   0  0  0  0  0  0  0  0  0  0  0  0
   -3.4520   21.8620  -32.7290 F   0  0  0  0  0  0  0  0  0  0  0  0
   -4.8690   19.9710  -32.9720 C   0  0  0  0  0  0  0  0  0  0  0  0
   -5.1880   15.4710  -32.7340 S   0  0  0  0  0  0  0  0  0  0  0  0
   -5.2743   12.5012  -32.2214 H   0  0  0  0  0  0  0  0  0  0  0  0
   -6.0582   12.0166  -33.7633 H   0  0  0  0  0  0  0  0  0  0  0  0
   -4.3575   12.5949  -33.7633 H   0  0  0  0  0  0  0  0  0  0  0  0
   -7.5367   13.7901  -34.8166 H   0  0  0  0  0  0  0  0  0  0  0  0
   -7.1831   18.4048  -33.8557 H   0  0  0  0  0  0  0  0  0  0  0  0
   -7.7091   17.5566  -31.4652 H   0  0  0  0  0  0  0  0  0  0  0  0
   -6.0905   18.2498  -31.0467 H   0  0  0  0  0  0  0  0  0  0  0  0
   -9.5151   19.0651  -32.3456 H   0  0  0  0  0  0  0  0  0  0  0  0
  -10.4324   21.3874  -32.2539 H   0  0  0  0  0  0  0  0  0  0  0  0
   -8.9708   23.2775  -31.5252 H   0  0  0  0  0  0  0  0  0  0  0  0
   -7.0867   24.8177  -31.6956 H   0  0  0  0  0  0  0  0  0  0  0  0
   -7.7212   24.4620  -30.0388 H   0  0  0  0  0  0  0  0  0  0  0  0
   -6.0946   26.4195  -30.1888 H   0  0  0  0  0  0  0  0  0  0  0  0
   -5.6608   25.1261  -29.0102 H   0  0  0  0  0  0  0  0  0  0  0  0
   -4.6060   25.4300  -31.7610 H   0  0  0  0  0  0  0  0  0  0  0  0
   -3.5597   23.5209  -31.6301 H   0  0  0  0  0  0  0  0  0  0  0  0
   -3.2118   23.8153  -29.8503 H   0  0  0  0  0  0  0  0  0  0  0  0
   -4.7000   21.7653  -30.6211 H   0  0  0  0  0  0  0  0  0  0  0  0
   -5.0877   22.7373  -29.1434 H   0  0  0  0  0  0  0  0  0  0  0  0
   -4.3005   17.0480  -34.6512 H   0  0  0  0  0  0  0  0  0  0  0  0
   -2.1496   18.2020  -35.1232 H   0  0  0  0  0  0  0  0  0  0  0  0
   -1.2480   21.1440  -35.1270 H   0  0  0  0  0  0  0  0  0  0  0  0
    1.1428   20.2223  -30.5283 H   0  0  0  0  0  0  0  0  0  0  0  0
    1.7053   18.0283  -29.4780 H   0  0  0  0  0  0  0  0  0  0  0  0
    1.1039   15.8959  -30.6331 H   0  0  0  0  0  0  0  0  0  0  0  0
   -0.0684   15.9592  -32.8381 H   0  0  0  0  0  0  0  0  0  0  0  0
   -0.6282   18.1515  -33.8967 H   0  0  0  0  0  0  0  0  0  0  0  0
   -5.6426   20.4821  -32.3801 H   0  0  0  0  0  0  0  0  0  0  0  0
  1  2  1  0
  2  3  2  0
  3  4  1  0
  4  5  2  0
  5  6  1  0
  6  7  1  0
  7  8  1  0
  8  9  2  0
  9 10  1  0
 10 11  2  0
 11 12  1  0
 12 13  1  0
 13 14  1  0
 14 15  1  0
 15 16  1  0
 16 17  1  0
 17 18  1  0
 12 19  2  0
  6 20  1  0
 20 21  2  0
 21 22  1  0
 22 23  2  0
 23 24  1  0
 24 25  1  0
 25 26  2  0
 25 27  2  0
 25 28  1  0
 28 29  2  0
 29 30  1  0
 30 31  2  0
 31 32  1  0
 32 33  2  0
 23 34  1  0
 34 35  1  0
 34 36  2  0
  5 37  1  0
 37  2  1  0
 19  8  1  0
 36 20  1  0
 18 13  1  0
 33 28  1  0
  1 38  1  0
  1 39  1  0
  1 40  1  0
  3 41  1  0
  6 42  1  6
  7 43  1  0
  7 44  1  0
  9 45  1  0
 10 46  1  0
 11 47  1  0
 14 48  1  0
 14 49  1  0
 15 50  1  0
 15 51  1  0
 16 52  1  0
 17 53  1  0
 17 54  1  0
 18 55  1  0
 18 56  1  0
 21 57  1  0
 22 58  1  0
 24 59  1  0
 29 60  1  0
 30 61  1  0
 31 62  1  0
 32 63  1  0
 33 64  1  0
 36 65  1  0
M  END
>  <UniqueID>  (10) 
8

>  <SMILES>  (10) 
Cc1cnc([C@@H](Cc2cccc(N3CCNCC3)n2)c2ccc(NS(=O)(=O)c3ccccc3)c(F)c2)s1

>  <Energy>  (10) 
106.13330354950355

>  <Genealogy>  (10) 
Cc1cnc([C@@H](Cc2cccc(N3CCNCC3)n2)c2ccc(NS(=O)(=O)c3ccccc3)c(F)c2)s1 (chirality)
Cc1cnc([C@@H](Cc2cccc(N3CCNCC3)n2)c2ccc(NS(=O)(=O)c3ccccc3)c(F)c2)s1 (3D coordinates assigned)
Cc1cnc([C@@H](Cc2cccc(N3CCNCC3)n2)c2ccc(NS(=O)(=O)c3ccccc3)c(F)c2)s1 (nonaromatic ring conformer: 106.13330354950355 kcal/mol)

>  <smiles>  (10) 
Cc1cnc(C(Cc2cccc(N3CCNCC3)n2)c2ccc(NS(=O)(=O)c3ccccc3)c(F)c2)s1

>  <score_type>  (10) 
oracle

>  <origin>  (10) 
adgpu

>  <m_score__min__energy>  (10) 
-11.35

>  <m_primary>  (10) 
energy

$$$$
10:0
     RDKit          3D

 39 41  0  0  0  0  0  0  0  0999 V2000
   -7.5730   19.9520  -32.6810 C   0  0  0  0  0  0  0  0  0  0  0  0
   -7.0130   21.2170  -32.1010 C   0  0  0  0  0  0  0  0  0  0  0  0
   -5.6790   21.5760  -32.3460 C   0  0  0  0  0  0  0  0  0  0  0  0
   -5.1470   22.7390  -31.7790 C   0  0  0  0  0  0  0  0  0  0  0  0
   -5.9390   23.5460  -30.9530 C   0  0  0  0  0  0  0  0  0  0  0  0
   -5.2910   25.0290  -30.2600 S   0  0  0  0  0  0  0  0  0  0  0  0
   -4.2490   25.5810  -31.1910 O   0  0  0  0  0  0  0  0  0  0  0  0
   -6.3770   26.0520  -30.0770 O   0  0  0  0  0  0  0  0  0  0  0  0
   -4.5640   24.6930  -28.7190 N   0  0  0  0  0  0  0  0  0  0  0  0
   -3.4120   23.8450  -28.5510 C   0  0  0  0  0  0  0  0  0  0  0  0
   -3.5380   22.5290  -28.0700 C   0  0  0  0  0  0  0  0  0  0  0  0
   -2.4130   21.7050  -27.9250 C   0  0  0  0  0  0  0  0  0  0  0  0
   -1.1410   22.1920  -28.2850 C   0  0  0  0  0  0  0  0  0  0  0  0
   -1.0090   23.5130  -28.7320 C   0  0  0  0  0  0  0  0  0  0  0  0
   -2.1320   24.3330  -28.8700 C   0  0  0  0  0  0  0  0  0  0  0  0
   -1.9670   25.6330  -29.3330 O   0  0  0  0  0  0  0  0  0  0  0  0
    0.0940   21.3430  -28.0940 C   0  0  0  0  0  0  0  0  0  0  0  0
   -0.2180   19.9070  -28.0430 N   0  0  0  0  0  0  0  0  0  0  0  0
   -1.2680   19.6390  -27.0540 C   0  0  0  0  0  0  0  0  0  0  0  0
   -2.5960   20.2780  -27.4750 C   0  0  0  0  0  0  0  0  0  0  0  0
   -7.2640   23.1750  -30.6870 C   0  0  0  0  0  0  0  0  0  0  0  0
   -7.7970   22.0140  -31.2540 C   0  0  0  0  0  0  0  0  0  0  0  0
   -7.8722   19.2761  -31.8663 H   0  0  0  0  0  0  0  0  0  0  0  0
   -8.4500   20.1897  -33.3010 H   0  0  0  0  0  0  0  0  0  0  0  0
   -6.8075   19.4626  -33.3010 H   0  0  0  0  0  0  0  0  0  0  0  0
   -5.0492   20.9408  -32.9862 H   0  0  0  0  0  0  0  0  0  0  0  0
   -4.1033   23.0204  -31.9827 H   0  0  0  0  0  0  0  0  0  0  0  0
   -4.9290   25.2340  -27.9030 H   0  0  0  0  0  0  0  0  0  0  0  0
   -4.5325   22.1413  -27.8041 H   0  0  0  0  0  0  0  0  0  0  0  0
   -0.0121   23.9085  -28.9766 H   0  0  0  0  0  0  0  0  0  0  0  0
    0.7821   21.5259  -28.9325 H   0  0  0  0  0  0  0  0  0  0  0  0
    0.5490   21.6227  -27.1324 H   0  0  0  0  0  0  0  0  0  0  0  0
   -0.5500   19.5980  -28.9880 H   0  0  0  0  0  0  0  0  0  0  0  0
   -1.4056   18.5516  -26.9613 H   0  0  0  0  0  0  0  0  0  0  0  0
   -0.9607   20.0724  -26.0908 H   0  0  0  0  0  0  0  0  0  0  0  0
   -3.0244   19.6955  -28.3039 H   0  0  0  0  0  0  0  0  0  0  0  0
   -3.2669   20.2778  -26.6033 H   0  0  0  0  0  0  0  0  0  0  0  0
   -7.8867   23.7997  -30.0297 H   0  0  0  0  0  0  0  0  0  0  0  0
   -8.8353   21.7242  -31.0351 H   0  0  0  0  0  0  0  0  0  0  0  0
  1  2  1  0
  2  3  2  0
  3  4  1  0
  4  5  2  0
  5  6  1  0
  6  7  2  0
  6  8  2  0
  6  9  1  0
  9 10  1  0
 10 11  2  0
 11 12  1  0
 12 13  2  0
 13 14  1  0
 14 15  2  0
 15 16  1  0
 13 17  1  0
 17 18  1  0
 18 19  1  0
 19 20  1  0
  5 21  1  0
 21 22  2  0
 22  2  1  0
 15 10  1  0
 20 12  1  0
  1 23  1  0
  1 24  1  0
  1 25  1  0
  3 26  1  0
  4 27  1  0
  9 28  1  0
 11 29  1  0
 14 30  1  0
 17 31  1  0
 17 32  1  0
 18 33  1  0
 19 34  1  0
 19 35  1  0
 20 36  1  0
 20 37  1  0
 21 38  1  0
 22 39  1  0
M  CHG  1  16  -1
M  END
>  <UniqueID>  (11) 
9

>  <SMILES>  (11) 
Cc1ccc(S(=O)(=O)Nc2cc3c(cc2[O-])CNCC3)cc1

>  <Energy>  (11) 
44.72471147269268

>  <Genealogy>  (11) 
Cc1ccc(S(=O)(=O)Nc2cc3c(cc2[O-])CNCC3)cc1 (protonated)
Cc1ccc(S(=O)(=O)Nc2cc3c(cc2[O-])CNCC3)cc1 (3D coordinates assigned)
Cc1ccc(S(=O)(=O)Nc2cc3c(cc2[O-])CNCC3)cc1 (nonaromatic ring conformer: 44.72471147269268 kcal/mol)

>  <smiles>  (11) 
Cc1ccc(S(=O)(=O)Nc2cc3c(cc2O)CNCC3)cc1

>  <score_type>  (11) 
oracle

>  <origin>  (11) 
adgpu

>  <m_score__min__energy>  (11) 
-12.4

>  <m_primary>  (11) 
energy

$$$$
11:0
     RDKit          3D

 44 47  0  0  0  0  0  0  0  0999 V2000
   -5.6490   26.3940  -30.6940 O   0  0  0  0  0  0  0  0  0  0  0  0
   -5.0660   25.2770  -30.7040 C   0  0  0  0  0  0  0  0  0  0  0  0
   -3.6720   25.2270  -30.3730 N   0  0  0  0  0  0  0  0  0  0  0  0
   -3.0840   24.5440  -29.2550 C   0  0  0  0  0  0  0  0  0  0  0  0
   -3.7340   23.4710  -28.6140 C   0  0  0  0  0  0  0  0  0  0  0  0
   -3.1680   22.8780  -27.4830 C   0  0  0  0  0  0  0  0  0  0  0  0
   -1.9650   23.3620  -26.9670 C   0  0  0  0  0  0  0  0  0  0  0  0
   -1.3180   24.4320  -27.5890 C   0  0  0  0  0  0  0  0  0  0  0  0
   -1.8720   25.0200  -28.7300 C   0  0  0  0  0  0  0  0  0  0  0  0
   -1.2170   26.0850  -29.3370 O   0  0  0  0  0  0  0  0  0  0  0  0
   -5.8200   24.0700  -31.1060 C   0  0  0  0  0  0  0  0  0  0  0  0
   -7.2220   24.0640  -31.0330 C   0  0  0  0  0  0  0  0  0  0  0  0
   -7.9420   22.9300  -31.4150 C   0  0  0  0  0  0  0  0  0  0  0  0
   -7.2710   21.8030  -31.8940 C   0  0  0  0  0  0  0  0  0  0  0  0
   -5.8760   21.8000  -32.0020 C   0  0  0  0  0  0  0  0  0  0  0  0
   -5.2370   20.6400  -32.5490 N   0  0  0  0  0  0  0  0  0  0  0  0
   -3.5770   20.5380  -33.0380 S   0  0  0  0  0  0  0  0  0  0  0  0
   -3.4090   19.3490  -33.9390 O   0  0  0  0  0  0  0  0  0  0  0  0
   -3.2210   21.7810  -33.8070 O   0  0  0  0  0  0  0  0  0  0  0  0
   -2.5060   20.3470  -31.6450 C   0  0  0  0  0  0  0  0  0  0  0  0
   -3.0130   20.5800  -30.3580 C   0  0  0  0  0  0  0  0  0  0  0  0
   -2.1780   20.5070  -29.2400 C   0  0  0  0  0  0  0  0  0  0  0  0
   -0.8230   20.2080  -29.3930 C   0  0  0  0  0  0  0  0  0  0  0  0
   -0.3000   19.9600  -30.6680 C   0  0  0  0  0  0  0  0  0  0  0  0
    1.0530   19.6370  -30.8410 C   0  0  0  0  0  0  0  0  0  0  0  0
    1.5500   19.3930  -32.1220 C   0  0  0  0  0  0  0  0  0  0  0  0
    0.6910   19.4800  -33.2190 C   0  0  0  0  0  0  0  0  0  0  0  0
   -0.6180   19.7960  -33.0380 N   0  0  0  0  0  0  0  0  0  0  0  0
   -1.1410   20.0310  -31.8030 C   0  0  0  0  0  0  0  0  0  0  0  0
   -5.1490   22.9330  -31.5900 C   0  0  0  0  0  0  0  0  0  0  0  0
   -4.6918   23.0984  -29.0060 H   0  0  0  0  0  0  0  0  0  0  0  0
   -3.6712   22.0283  -26.9984 H   0  0  0  0  0  0  0  0  0  0  0  0
   -1.5263   22.9005  -26.0700 H   0  0  0  0  0  0  0  0  0  0  0  0
   -0.3705   24.8130  -27.1803 H   0  0  0  0  0  0  0  0  0  0  0  0
   -7.7556   24.9562  -30.6734 H   0  0  0  0  0  0  0  0  0  0  0  0
   -9.0393   22.9246  -31.3384 H   0  0  0  0  0  0  0  0  0  0  0  0
   -7.8433   20.9110  -32.1886 H   0  0  0  0  0  0  0  0  0  0  0  0
   -4.0780   20.8225  -30.2277 H   0  0  0  0  0  0  0  0  0  0  0  0
   -2.5898   20.6858  -28.2358 H   0  0  0  0  0  0  0  0  0  0  0  0
   -0.1660   20.1672  -28.5117 H   0  0  0  0  0  0  0  0  0  0  0  0
    1.7212   19.5760  -29.9694 H   0  0  0  0  0  0  0  0  0  0  0  0
    2.6094   19.1344  -32.2661 H   0  0  0  0  0  0  0  0  0  0  0  0
    1.0749   19.2922  -34.2326 H   0  0  0  0  0  0  0  0  0  0  0  0
   -4.0505   22.9288  -31.6470 H   0  0  0  0  0  0  0  0  0  0  0  0
  1  2  2  0
  2  3  1  0
  3  4  1  0
  4  5  2  0
  5  6  1  0
  6  7  2  0
  7  8  1  0
  8  9  2  0
  9 10  1  0
  2 11  1  0
 11 12  2  0
 12 13  1  0
 13 14  2  0
 14 15  1  0
 15 16  1  0
 16 17  1  0
 17 18  2  0
 17 19  2  0
 17 20  1  0
 20 21  2  0
 21 22  1  0
 22 23  2  0
 23 24  1  0
 24 25  2  0
 25 26  1  0
 26 27  2  0
 27 28  1  0
 28 29  2  0
 15 30  2  0
  9  4  1  0
 30 11  1  0
 29 20  1  0
 29 24  1  0
  5 31  1  0
  6 32  1  0
  7 33  1  0
  8 34  1  0
 12 35  1  0
 13 36  1  0
 14 37  1  0
 21 38  1  0
 22 39  1  0
 23 40  1  0
 25 41  1  0
 26 42  1  0
 27 43  1  0
 30 44  1  0
M  CHG  3   3  -1  10  -1  16  -1
M  END
>  <UniqueID>  (12) 
10

>  <SMILES>  (12) 
O=C([N-]c1ccccc1[O-])c1cccc([N-]S(=O)(=O)c2cccc3cccnc23)c1

>  <Energy>  (12) 
58.82593087910388

>  <Genealogy>  (12) 
O=C([N-]c1ccccc1[O-])c1cccc([N-]S(=O)(=O)c2cccc3cccnc23)c1 (protonated)
O=C([N-]c1ccccc1[O-])c1cccc([N-]S(=O)(=O)c2cccc3cccnc23)c1 (3D coordinates assigned)
O=C([N-]c1ccccc1[O-])c1cccc([N-]S(=O)(=O)c2cccc3cccnc23)c1 (optimized conformer: 58.82593087910388 kcal/mol)

>  <smiles>  (12) 
O=C(Nc1ccccc1O)c1cccc(NS(=O)(=O)c2cccc3cccnc23)c1

>  <score_type>  (12) 
oracle

>  <origin>  (12) 
adgpu

>  <m_score__min__energy>  (12) 
-14.41

>  <m_primary>  (12) 
energy

$$$$
12:0
     RDKit          3D

 44 46  0  0  0  0  0  0  0  0999 V2000
   -6.0480   18.9570  -34.0020 C   0  0  0  0  0  0  0  0  0  0  0  0
   -5.6810   19.2390  -32.6550 O   0  0  0  0  0  0  0  0  0  0  0  0
   -5.6330   20.5260  -32.0960 C   0  0  0  0  0  0  0  0  0  0  0  0
   -4.4150   21.1480  -31.7590 C   0  0  0  0  0  0  0  0  0  0  0  0
   -4.4080   22.4260  -31.1960 C   0  0  0  0  0  0  0  0  0  0  0  0
   -5.6100   23.1020  -30.9670 C   0  0  0  0  0  0  0  0  0  0  0  0
   -5.6060   24.6990  -30.2230 S   0  0  0  0  0  0  0  0  0  0  0  0
   -5.0180   25.7170  -31.1600 O   0  0  0  0  0  0  0  0  0  0  0  0
   -7.0230   25.0840  -29.9040 O   0  0  0  0  0  0  0  0  0  0  0  0
   -4.6750   24.6750  -28.7580 N   0  0  0  0  0  0  0  0  0  0  0  0
   -3.6140   23.7330  -28.5090 C   0  0  0  0  0  0  0  0  0  0  0  0
   -3.8800   22.4640  -27.9620 C   0  0  0  0  0  0  0  0  0  0  0  0
   -2.8360   21.5690  -27.6920 C   0  0  0  0  0  0  0  0  0  0  0  0
   -1.5100   21.9240  -28.0040 C   0  0  0  0  0  0  0  0  0  0  0  0
   -1.2430   23.1860  -28.5490 C   0  0  0  0  0  0  0  0  0  0  0  0
   -2.2850   24.0830  -28.8050 C   0  0  0  0  0  0  0  0  0  0  0  0
   -1.9860   25.3310  -29.3440 O   0  0  0  0  0  0  0  0  0  0  0  0
   -0.3740   20.9860  -27.6810 C   0  0  0  0  0  0  0  0  0  0  0  0
   -0.8390   19.5260  -27.6280 C   0  0  0  0  0  0  0  0  0  0  0  0
   -2.0500   19.3810  -26.7040 C   0  0  0  0  0  0  0  0  0  0  0  0
   -3.1220   20.2790  -27.1280 N   0  0  0  0  0  0  0  0  0  0  0  0
   -6.8230   22.4950  -31.3150 C   0  0  0  0  0  0  0  0  0  0  0  0
   -6.8420   21.2010  -31.8710 C   0  0  0  0  0  0  0  0  0  0  0  0
   -8.0420   20.5540  -32.2070 O   0  0  0  0  0  0  0  0  0  0  0  0
   -8.5370   19.3880  -31.5570 C   0  0  0  0  0  0  0  0  0  0  0  0
   -6.9202   18.2868  -34.0118 H   0  0  0  0  0  0  0  0  0  0  0  0
   -6.3008   19.8954  -34.5173 H   0  0  0  0  0  0  0  0  0  0  0  0
   -5.2064   18.4710  -34.5173 H   0  0  0  0  0  0  0  0  0  0  0  0
   -3.4646   20.6245  -31.9402 H   0  0  0  0  0  0  0  0  0  0  0  0
   -3.4526   22.9027  -30.9316 H   0  0  0  0  0  0  0  0  0  0  0  0
   -5.0000   25.2990  -27.9870 H   0  0  0  0  0  0  0  0  0  0  0  0
   -4.9178   22.1716  -27.7442 H   0  0  0  0  0  0  0  0  0  0  0  0
   -0.2062   23.4739  -28.7774 H   0  0  0  0  0  0  0  0  0  0  0  0
    0.4008   21.0851  -28.4555 H   0  0  0  0  0  0  0  0  0  0  0  0
    0.0208   21.2554  -26.6903 H   0  0  0  0  0  0  0  0  0  0  0  0
   -1.1153   19.1974  -28.6407 H   0  0  0  0  0  0  0  0  0  0  0  0
   -0.0184   18.9059  -27.2380 H   0  0  0  0  0  0  0  0  0  0  0  0
   -2.4112   18.3426  -26.7395 H   0  0  0  0  0  0  0  0  0  0  0  0
   -1.7503   19.6410  -25.6780 H   0  0  0  0  0  0  0  0  0  0  0  0
   -4.1110   19.9980  -26.9440 H   0  0  0  0  0  0  0  0  0  0  0  0
   -7.7686   23.0331  -31.1528 H   0  0  0  0  0  0  0  0  0  0  0  0
   -8.4795   19.5235  -30.4669 H   0  0  0  0  0  0  0  0  0  0  0  0
   -9.5837   19.2208  -31.8510 H   0  0  0  0  0  0  0  0  0  0  0  0
   -7.9303   18.5188  -31.8510 H   0  0  0  0  0  0  0  0  0  0  0  0
  1  2  1  0
  2  3  1  0
  3  4  2  0
  4  5  1  0
  5  6  2  0
  6  7  1  0
  7  8  2  0
  7  9  2  0
  7 10  1  0
 10 11  1  0
 11 12  2  0
 12 13  1  0
 13 14  2  0
 14 15  1  0
 15 16  2  0
 16 17  1  0
 14 18  1  0
 18 19  1  0
 19 20  1  0
 20 21  1  0
  6 22  1  0
 22 23  2  0
 23 24  1  0
 24 25  1  0
 23  3  1  0
 16 11  1  0
 21 13  1  0
  1 26  1  0
  1 27  1  0
  1 28  1  0
  4 29  1  0
  5 30  1  0
 10 31  1  0
 12 32  1  0
 15 33  1  0
 18 34  1  0
 18 35  1  0
 19 36  1  0
 19 37  1  0
 20 38  1  0
 20 39  1  0
 21 40  1  0
 22 41  1  0
 25 42  1  0
 25 43  1  0
 25 44  1  0
M  CHG  1  17  -1
M  END
>  <UniqueID>  (13) 
11

>  <SMILES>  (13) 
COc1ccc(S(=O)(=O)Nc2cc3c(cc2[O-])CCCN3)cc1OC

>  <Energy>  (13) 
45.61405487677402

>  <Genealogy>  (13) 
COc1ccc(S(=O)(=O)Nc2cc3c(cc2[O-])CCCN3)cc1OC (protonated)
COc1ccc(S(=O)(=O)Nc2cc3c(cc2[O-])CCCN3)cc1OC (3D coordinates assigned)
COc1ccc(S(=O)(=O)Nc2cc3c(cc2[O-])CCCN3)cc1OC (nonaromatic ring conformer: 45.61405487677402 kcal/mol)

>  <smiles>  (13) 
COc1ccc(S(=O)(=O)Nc2cc3c(cc2O)CCCN3)cc1OC

>  <score_type>  (13) 
oracle

>  <origin>  (13) 
adgpu

>  <m_score__min__energy>  (13) 
-11.81

>  <m_primary>  (13) 
energy

$$$$
13:0
     RDKit          3D

 38 40  0  0  0  0  0  0  0  0999 V2000
   -2.0290   21.4740  -33.1430 C   0  0  0  0  0  0  0  0  0  0  0  0
   -3.2900   20.9130  -32.5700 C   0  0  0  0  0  0  0  0  0  0  0  0
   -3.2370   20.2290  -31.5120 O   0  0  0  0  0  0  0  0  0  0  0  0
   -4.5520   21.2300  -33.1750 N   0  0  0  0  0  0  0  0  0  0  0  0
   -5.7970   20.6180  -32.7910 C   0  0  0  0  0  0  0  0  0  0  0  0
   -5.9300   19.2170  -32.7660 C   0  0  0  0  0  0  0  0  0  0  0  0
   -7.1460   18.6270  -32.4140 C   0  0  0  0  0  0  0  0  0  0  0  0
   -8.2470   19.4260  -32.1040 C   0  0  0  0  0  0  0  0  0  0  0  0
   -8.1360   20.8170  -32.1440 C   0  0  0  0  0  0  0  0  0  0  0  0
   -6.9100   21.4230  -32.4730 C   0  0  0  0  0  0  0  0  0  0  0  0
   -6.7860   22.8540  -32.5200 N   0  0  0  0  0  0  0  0  0  0  0  0
   -6.6340   23.7240  -31.3910 C   0  0  0  0  0  0  0  0  0  0  0  0
   -7.6640   24.2130  -30.8570 O   0  0  0  0  0  0  0  0  0  0  0  0
   -5.3080   24.1100  -30.8740 C   0  0  0  0  0  0  0  0  0  0  0  0
   -4.4750   23.3430  -30.0830 C   0  0  0  0  0  0  0  0  0  0  0  0
   -3.3540   24.1360  -29.9040 C   0  0  0  0  0  0  0  0  0  0  0  0
   -2.1440   23.7930  -29.1130 C   0  0  0  0  0  0  0  0  0  0  0  0
   -1.9830   22.4930  -28.5920 C   0  0  0  0  0  0  0  0  0  0  0  0
   -0.8520   22.1620  -27.8410 C   0  0  0  0  0  0  0  0  0  0  0  0
    0.1330   23.1200  -27.5960 C   0  0  0  0  0  0  0  0  0  0  0  0
   -0.0110   24.4120  -28.1030 C   0  0  0  0  0  0  0  0  0  0  0  0
   -1.1390   24.7550  -28.8570 C   0  0  0  0  0  0  0  0  0  0  0  0
   -1.2400   26.0500  -29.3550 O   0  0  0  0  0  0  0  0  0  0  0  0
   -3.5240   25.2980  -30.5690 N   0  0  0  0  0  0  0  0  0  0  0  0
   -4.7080   25.2800  -31.1610 N   0  0  0  0  0  0  0  0  0  0  0  0
   -1.3563   21.7733  -32.3258 H   0  0  0  0  0  0  0  0  0  0  0  0
   -1.5362   20.7102  -33.7625 H   0  0  0  0  0  0  0  0  0  0  0  0
   -2.2663   22.3514  -33.7625 H   0  0  0  0  0  0  0  0  0  0  0  0
   -4.5720   22.0000  -33.8810 H   0  0  0  0  0  0  0  0  0  0  0  0
   -5.0700   18.5822  -33.0256 H   0  0  0  0  0  0  0  0  0  0  0  0
   -7.2358   17.5312  -32.3811 H   0  0  0  0  0  0  0  0  0  0  0  0
   -9.2039   18.9592  -31.8277 H   0  0  0  0  0  0  0  0  0  0  0  0
   -9.0119   21.4425  -31.9170 H   0  0  0  0  0  0  0  0  0  0  0  0
   -4.6597   22.3338  -29.6863 H   0  0  0  0  0  0  0  0  0  0  0  0
   -2.7550   21.7319  -28.7784 H   0  0  0  0  0  0  0  0  0  0  0  0
   -0.7377   21.1434  -27.4417 H   0  0  0  0  0  0  0  0  0  0  0  0
    1.0219   22.8568  -27.0039 H   0  0  0  0  0  0  0  0  0  0  0  0
    0.7667   25.1654  -27.9089 H   0  0  0  0  0  0  0  0  0  0  0  0
  1  2  1  0
  2  3  2  0
  2  4  1  0
  4  5  1  0
  5  6  2  0
  6  7  1  0
  7  8  2  0
  8  9  1  0
  9 10  2  0
 10 11  1  0
 11 12  1  0
 12 13  2  0
 12 14  1  0
 14 15  1  0
 15 16  2  0
 16 17  1  0
 17 18  2  0
 18 19  1  0
 19 20  2  0
 20 21  1  0
 21 22  2  0
 22 23  1  0
 16 24  1  0
 24 25  1  0
 10  5  1  0
 25 14  2  0
 22 17  1  0
  1 26  1  0
  1 27  1  0
  1 28  1  0
  4 29  1  0
  6 30  1  0
  7 31  1  0
  8 32  1  0
  9 33  1  0
 15 34  1  0
 18 35  1  0
 19 36  1  0
 20 37  1  0
 21 38  1  0
M  CHG  3  11  -1  23  -1  24  -1
M  END
>  <UniqueID>  (14) 
12

>  <SMILES>  (14) 
CC(=O)Nc1ccccc1[N-]C(=O)c1cc(-c2ccccc2[O-])[n-]n1

>  <Energy>  (14) 
80.22430687398999

>  <Genealogy>  (14) 
CC(=O)Nc1ccccc1[N-]C(=O)c1cc(-c2ccccc2[O-])[n-]n1 (protonated)
CC(=O)Nc1ccccc1[N-]C(=O)c1cc(-c2ccccc2[O-])[n-]n1 (3D coordinates assigned)
CC(=O)Nc1ccccc1[N-]C(=O)c1cc(-c2ccccc2[O-])[n-]n1 (optimized conformer: 80.22430687398999 kcal/mol)

>  <smiles>  (14) 
CC(=O)Nc1ccccc1NC(=O)c1cc(-c2ccccc2O)[nH]n1

>  <score_type>  (14) 
oracle

>  <origin>  (14) 
adgpu

>  <m_score__min__energy>  (14) 
-14.220000000000001

>  <m_primary>  (14) 
energy

$$$$
14:0
     RDKit          3D

 63 66  0  0  0  0  0  0  0  0999 V2000
   -3.1300   24.8740  -26.8470 C   0  0  0  0  0  0  0  0  0  0  0  0
   -3.9420   24.3380  -27.8870 O   0  0  0  0  0  0  0  0  0  0  0  0
   -3.4820   23.4550  -28.8770 C   0  0  0  0  0  0  0  0  0  0  0  0
   -3.0690   22.1440  -28.5740 C   0  0  0  0  0  0  0  0  0  0  0  0
   -2.6000   21.3010  -29.5830 C   0  0  0  0  0  0  0  0  0  0  0  0
   -2.5420   21.7500  -30.9060 C   0  0  0  0  0  0  0  0  0  0  0  0
   -1.8540   20.7250  -32.1610 S   0  0  0  0  0  0  0  0  0  0  0  0
   -0.6780   21.4280  -32.7800 O   0  0  0  0  0  0  0  0  0  0  0  0
   -1.3690   19.4390  -31.5510 O   0  0  0  0  0  0  0  0  0  0  0  0
   -3.0080   20.3660  -33.4080 N   0  0  0  0  0  0  0  0  0  0  0  0
   -4.4100   20.1990  -33.1680 C   0  0  0  0  0  0  0  0  0  0  0  0
   -5.1870   21.2980  -32.7430 C   0  0  0  0  0  0  0  0  0  0  0  0
   -6.5460   21.0970  -32.5180 C   0  0  0  0  0  0  0  0  0  0  0  0
   -7.1380   19.8850  -32.7330 C   0  0  0  0  0  0  0  0  0  0  0  0
   -6.4170   18.7810  -33.1850 C   0  0  0  0  0  0  0  0  0  0  0  0
   -5.0280   18.9360  -33.4040 C   0  0  0  0  0  0  0  0  0  0  0  0
   -4.0610   17.5660  -33.9850 S   0  0  0  0  0  0  0  0  0  0  0  0
   -4.2270   17.4380  -35.4740 O   0  0  0  0  0  0  0  0  0  0  0  0
   -4.5760   16.3180  -33.3220 O   0  0  0  0  0  0  0  0  0  0  0  0
   -2.3560   17.7480  -33.6260 N   0  0  0  0  0  0  0  0  0  0  0  0
   -1.9250   16.6490  -32.7280 C   0  0  0  0  0  0  0  0  0  0  0  0
   -0.4020   16.4720  -32.7470 C   0  0  0  0  0  0  0  0  0  0  0  0
    0.0840   16.0650  -34.1480 C   0  0  0  0  0  0  0  0  0  0  0  0
   -0.8550   16.5490  -35.2660 C   0  0  0  0  0  0  0  0  0  0  0  0
   -1.5580   17.8580  -34.8810 C   0  0  0  0  0  0  0  0  0  0  0  0
   -8.4450   19.9650  -32.4090 N   0  0  0  0  0  0  0  0  0  0  0  0
   -9.4290   18.8850  -32.3870 C   0  0  0  0  0  0  0  0  0  0  0  0
   -8.6000   21.2390  -31.9730 C   0  0  0  0  0  0  0  0  0  0  0  0
   -9.6860   21.6910  -31.5170 O   0  0  0  0  0  0  0  0  0  0  0  0
   -7.4610   21.9710  -32.0540 N   0  0  0  0  0  0  0  0  0  0  0  0
   -7.2350   23.3270  -31.5580 C   0  0  0  0  0  0  0  0  0  0  0  0
   -2.9650   23.0490  -31.2170 C   0  0  0  0  0  0  0  0  0  0  0  0
   -3.4330   23.9090  -30.2040 C   0  0  0  0  0  0  0  0  0  0  0  0
   -3.8420   25.2250  -30.4760 O   0  0  0  0  0  0  0  0  0  0  0  0
   -5.1980   25.6590  -30.5020 C   0  0  0  0  0  0  0  0  0  0  0  0
   -3.5530   24.5948  -25.8707 H   0  0  0  0  0  0  0  0  0  0  0  0
   -2.1101   24.4710  -26.9335 H   0  0  0  0  0  0  0  0  0  0  0  0
   -3.0997   25.9702  -26.9335 H   0  0  0  0  0  0  0  0  0  0  0  0
   -3.1161   21.7817  -27.5364 H   0  0  0  0  0  0  0  0  0  0  0  0
   -2.2748   20.2795  -29.3364 H   0  0  0  0  0  0  0  0  0  0  0  0
   -4.7306   22.2876  -32.5935 H   0  0  0  0  0  0  0  0  0  0  0  0
   -6.9140   17.8166  -33.3663 H   0  0  0  0  0  0  0  0  0  0  0  0
   -2.2480   18.6390  -33.0880 H   0  0  0  0  0  0  0  0  0  0  0  0
   -2.2452   16.8800  -31.7013 H   0  0  0  0  0  0  0  0  0  0  0  0
   -2.3854   15.7144  -33.0809 H   0  0  0  0  0  0  0  0  0  0  0  0
    0.0748   17.4214  -32.4618 H   0  0  0  0  0  0  0  0  0  0  0  0
   -0.1309   15.6779  -32.0357 H   0  0  0  0  0  0  0  0  0  0  0  0
    1.0814   16.4981  -34.3141 H   0  0  0  0  0  0  0  0  0  0  0  0
    0.1064   14.9659  -34.1856 H   0  0  0  0  0  0  0  0  0  0  0  0
   -0.2666   16.7146  -36.1806 H   0  0  0  0  0  0  0  0  0  0  0  0
   -1.6234   15.7791  -35.4295 H   0  0  0  0  0  0  0  0  0  0  0  0
   -0.7944   18.6376  -34.7428 H   0  0  0  0  0  0  0  0  0  0  0  0
   -2.2576   18.1050  -35.6931 H   0  0  0  0  0  0  0  0  0  0  0  0
   -9.6654   18.6255  -31.3445 H   0  0  0  0  0  0  0  0  0  0  0  0
  -10.3451   19.2131  -32.9000 H   0  0  0  0  0  0  0  0  0  0  0  0
   -9.0173   18.0033  -32.9000 H   0  0  0  0  0  0  0  0  0  0  0  0
   -7.2362   23.3200  -30.4580 H   0  0  0  0  0  0  0  0  0  0  0  0
   -6.2634   23.6932  -31.9213 H   0  0  0  0  0  0  0  0  0  0  0  0
   -8.0353   23.9885  -31.9213 H   0  0  0  0  0  0  0  0  0  0  0  0
   -2.9315   23.3997  -32.2591 H   0  0  0  0  0  0  0  0  0  0  0  0
   -5.5652   25.7765  -29.4718 H   0  0  0  0  0  0  0  0  0  0  0  0
   -5.2644   26.6233  -31.0272 H   0  0  0  0  0  0  0  0  0  0  0  0
   -5.8119   24.9125  -31.0272 H   0  0  0  0  0  0  0  0  0  0  0  0
  1  2  1  0
  2  3  1  0
  3  4  2  0
  4  5  1  0
  5  6  2  0
  6  7  1  0
  7  8  2  0
  7  9  2  0
  7 10  1  0
 10 11  1  0
 11 12  2  0
 12 13  1  0
 13 14  2  0
 14 15  1  0
 15 16  2  0
 16 17  1  0
 17 18  2  0
 17 19  2  0
 17 20  1  0
 20 21  1  0
 21 22  1  0
 22 23  1  0
 23 24  1  0
 24 25  1  0
 14 26  1  0
 26 27  1  0
 26 28  1  0
 28 29  2  0
 28 30  1  0
 30 31  1  0
  6 32  1  0
 32 33  2  0
 33 34  1  0
 34 35  1  0
 33  3  1  0
 16 11  1  0
 25 20  1  0
 30 13  1  0
  1 36  1  0
  1 37  1  0
  1 38  1  0
  4 39  1  0
  5 40  1  0
 12 41  1  0
 15 42  1  0
 20 43  1  0
 21 44  1  0
 21 45  1  0
 22 46  1  0
 22 47  1  0
 23 48  1  0
 23 49  1  0
 24 50  1  0
 24 51  1  0
 25 52  1  0
 25 53  1  0
 27 54  1  0
 27 55  1  0
 27 56  1  0
 31 57  1  0
 31 58  1  0
 31 59  1  0
 32 60  1  0
 35 61  1  0
 35 62  1  0
 35 63  1  0
M  CHG  2  10  -1  20   1
M  END
>  <UniqueID>  (15) 
13

>  <SMILES>  (15) 
COc1ccc(S(=O)(=O)[N-]c2cc3c(cc2S(=O)(=O)[NH+]2CCCCC2)n(C)c(=O)n3C)cc1OC

>  <Energy>  (15) 
117.78519490550181

>  <Genealogy>  (15) 
COc1ccc(S(=O)(=O)[N-]c2cc3c(cc2S(=O)(=O)[NH+]2CCCCC2)n(C)c(=O)n3C)cc1OC (protonated)
COc1ccc(S(=O)(=O)[N-]c2cc3c(cc2S(=O)(=O)[NH+]2CCCCC2)n(C)c(=O)n3C)cc1OC (3D coordinates assigned)
COc1ccc(S(=O)(=O)[N-]c2cc3c(cc2S(=O)(=O)[NH+]2CCCCC2)n(C)c(=O)n3C)cc1OC (nonaromatic ring conformer: 117.78519490550181 kcal/mol)

>  <smiles>  (15) 
COc1ccc(S(=O)(=O)Nc2cc3c(cc2S(=O)(=O)N2CCCCC2)n(C)c(=O)n3C)cc1OC

>  <score_type>  (15) 
oracle

>  <origin>  (15) 
adgpu

>  <m_score__min__energy>  (15) 
-10.470000000000001

>  <m_primary>  (15) 
energy

$$$$
15:0
     RDKit          3D

 49 51  0  0  0  0  0  0  0  0999 V2000
   -6.1430   25.6310  -29.6250 C   0  0  0  0  0  0  0  0  0  0  0  0
   -6.0880   24.1730  -30.6470 S   0  0  0  0  0  0  0  0  0  0  0  0
   -7.0900   23.1920  -30.1060 O   0  0  0  0  0  0  0  0  0  0  0  0
   -6.4730   24.5180  -32.0590 O   0  0  0  0  0  0  0  0  0  0  0  0
   -4.4660   23.4590  -30.6260 C   0  0  0  0  0  0  0  0  0  0  0  0
   -3.5650   23.8590  -29.6250 C   0  0  0  0  0  0  0  0  0  0  0  0
   -2.2570   23.3580  -29.5940 C   0  0  0  0  0  0  0  0  0  0  0  0
   -1.1350   23.8790  -28.3310 S   0  0  0  0  0  0  0  0  0  0  0  0
   -0.9640   22.7640  -27.3370 O   0  0  0  0  0  0  0  0  0  0  0  0
    0.2050   24.1560  -28.9520 O   0  0  0  0  0  0  0  0  0  0  0  0
   -1.6790   25.3110  -27.4900 N   0  0  0  0  0  0  0  0  0  0  0  0
   -2.0760   25.0230  -26.1130 C   0  0  0  0  0  0  0  0  0  0  0  0
   -1.9090   26.3200  -25.3380 C   0  0  0  0  0  0  0  0  0  0  0  0
   -0.9670   27.1730  -26.1750 C   0  0  0  0  0  0  0  0  0  0  0  0
   -0.6290   26.3220  -27.3900 C   0  0  0  0  0  0  0  0  0  0  0  0
   -1.8520   22.4310  -30.5570 C   0  0  0  0  0  0  0  0  0  0  0  0
   -2.7360   22.0210  -31.5550 C   0  0  0  0  0  0  0  0  0  0  0  0
   -4.0470   22.5300  -31.6090 C   0  0  0  0  0  0  0  0  0  0  0  0
   -4.9480   22.0860  -32.6400 N   0  0  0  0  0  0  0  0  0  0  0  0
   -5.0350   20.6930  -33.0770 C   0  0  0  0  0  0  0  0  0  0  0  0
   -6.3250   20.0830  -32.5950 C   0  0  0  0  0  0  0  0  0  0  0  0
   -6.3700   18.7210  -32.2540 C   0  0  0  0  0  0  0  0  0  0  0  0
   -7.5490   18.1540  -31.7650 C   0  0  0  0  0  0  0  0  0  0  0  0
   -8.6910   18.9410  -31.6030 C   0  0  0  0  0  0  0  0  0  0  0  0
   -8.6540   20.3010  -31.9230 C   0  0  0  0  0  0  0  0  0  0  0  0
   -7.4750   20.8800  -32.4150 C   0  0  0  0  0  0  0  0  0  0  0  0
   -7.4390   22.2410  -32.7160 O   0  0  0  0  0  0  0  0  0  0  0  0
   -6.1319   25.3365  -28.5652 H   0  0  0  0  0  0  0  0  0  0  0  0
   -5.2680   26.2623  -29.8394 H   0  0  0  0  0  0  0  0  0  0  0  0
   -7.0630   26.1945  -29.8394 H   0  0  0  0  0  0  0  0  0  0  0  0
   -3.8907   24.5747  -28.8558 H   0  0  0  0  0  0  0  0  0  0  0  0
   -3.1248   24.6928  -26.0806 H   0  0  0  0  0  0  0  0  0  0  0  0
   -1.4626   24.2186  -25.6811 H   0  0  0  0  0  0  0  0  0  0  0  0
   -2.8794   26.8237  -25.2172 H   0  0  0  0  0  0  0  0  0  0  0  0
   -1.5122   26.1442  -24.3272 H   0  0  0  0  0  0  0  0  0  0  0  0
   -1.4626   28.1054  -26.4833 H   0  0  0  0  0  0  0  0  0  0  0  0
   -0.0666   27.4623  -25.6131 H   0  0  0  0  0  0  0  0  0  0  0  0
   -0.6119   26.9438  -28.2972 H   0  0  0  0  0  0  0  0  0  0  0  0
    0.3632   25.8580  -27.2886 H   0  0  0  0  0  0  0  0  0  0  0  0
   -0.8311   22.0223  -30.5283 H   0  0  0  0  0  0  0  0  0  0  0  0
   -2.4046   21.2914  -32.3086 H   0  0  0  0  0  0  0  0  0  0  0  0
   -5.6500   22.7590  -33.0200 H   0  0  0  0  0  0  0  0  0  0  0  0
   -5.0009   20.6528  -34.1757 H   0  0  0  0  0  0  0  0  0  0  0  0
   -4.1891   20.1288  -32.6573 H   0  0  0  0  0  0  0  0  0  0  0  0
   -5.4716   18.0975  -32.3728 H   0  0  0  0  0  0  0  0  0  0  0  0
   -7.5780   17.0851  -31.5069 H   0  0  0  0  0  0  0  0  0  0  0  0
   -9.6200   18.4905  -31.2234 H   0  0  0  0  0  0  0  0  0  0  0  0
   -9.5533   20.9199  -31.7884 H   0  0  0  0  0  0  0  0  0  0  0  0
   -7.6150   22.9470  -32.0100 H   0  0  0  0  0  0  0  0  0  0  0  0
  1  2  1  0
  2  3  2  0
  2  4  2  0
  2  5  1  0
  5  6  2  0
  6  7  1  0
  7  8  1  0
  8  9  2  0
  8 10  2  0
  8 11  1  0
 11 12  1  0
 12 13  1  0
 13 14  1  0
 14 15  1  0
  7 16  2  0
 16 17  1  0
 17 18  2  0
 18 19  1  0
 19 20  1  0
 20 21  1  0
 21 22  2  0
 22 23  1  0
 23 24  2  0
 24 25  1  0
 25 26  2  0
 26 27  1  0
 18  5  1  0
 26 21  1  0
 15 11  1  0
  1 28  1  0
  1 29  1  0
  1 30  1  0
  6 31  1  0
 12 32  1  0
 12 33  1  0
 13 34  1  0
 13 35  1  0
 14 36  1  0
 14 37  1  0
 15 38  1  0
 15 39  1  0
 16 40  1  0
 17 41  1  0
 19 42  1  0
 20 43  1  0
 20 44  1  0
 22 45  1  0
 23 46  1  0
 24 47  1  0
 25 48  1  0
 27 49  1  0
M  END
>  <UniqueID>  (16) 
14

>  <SMILES>  (16) 
CS(=O)(=O)c1cc(S(=O)(=O)N2CCCC2)ccc1NCc1ccccc1O

>  <Energy>  (16) 
50.463077923328555

>  <Genealogy>  (16) 
CS(=O)(=O)c1cc(S(=O)(=O)N2CCCC2)ccc1NCc1ccccc1O (3D coordinates assigned)
CS(=O)(=O)c1cc(S(=O)(=O)N2CCCC2)ccc1NCc1ccccc1O (nonaromatic ring conformer: 50.463077923328555 kcal/mol)

>  <smiles>  (16) 
CS(=O)(=O)c1cc(S(=O)(=O)N2CCCC2)ccc1NCc1ccccc1O

>  <score_type>  (16) 
oracle

>  <origin>  (16) 
adgpu

>  <m_score__min__energy>  (16) 
-10.640000000000001

>  <m_primary>  (16) 
energy

$$$$
16:0
     RDKit          3D

 34 36  0  0  0  0  0  0  0  0999 V2000
   -3.9520   22.3010  -33.4860 N   0  0  0  0  0  0  0  0  0  0  0  0
   -3.2500   22.1410  -32.2790 N   0  0  0  0  0  0  0  0  0  0  0  0
   -2.1300   21.4260  -32.0820 C   0  0  0  0  0  0  0  0  0  0  0  0
   -1.1540   20.6600  -33.3720 S   0  0  0  0  0  0  0  0  0  0  0  0
   -2.5900   19.9870  -34.1520 N   0  0  0  0  0  0  0  0  0  0  0  0
   -3.2610   18.8280  -33.6510 C   0  0  0  0  0  0  0  0  0  0  0  0
   -2.6320   17.7400  -33.5490 O   0  0  0  0  0  0  0  0  0  0  0  0
   -4.6870   18.9020  -33.2570 C   0  0  0  0  0  0  0  0  0  0  0  0
   -5.2270   17.9700  -32.3510 C   0  0  0  0  0  0  0  0  0  0  0  0
   -6.5730   18.0420  -31.9760 C   0  0  0  0  0  0  0  0  0  0  0  0
   -7.3920   19.0440  -32.5000 C   0  0  0  0  0  0  0  0  0  0  0  0
   -6.8680   19.9770  -33.3980 C   0  0  0  0  0  0  0  0  0  0  0  0
   -5.5230   19.9080  -33.7760 C   0  0  0  0  0  0  0  0  0  0  0  0
   -1.8310   21.3440  -30.7710 N   0  0  0  0  0  0  0  0  0  0  0  0
   -2.7740   22.0130  -30.1170 N   0  0  0  0  0  0  0  0  0  0  0  0
   -3.6350   22.4950  -31.0370 C   0  0  0  0  0  0  0  0  0  0  0  0
   -4.8120   23.3230  -30.7000 C   0  0  0  0  0  0  0  0  0  0  0  0
   -6.0970   22.7550  -30.6990 C   0  0  0  0  0  0  0  0  0  0  0  0
   -7.2170   23.5400  -30.4080 C   0  0  0  0  0  0  0  0  0  0  0  0
   -7.0660   24.8980  -30.1260 C   0  0  0  0  0  0  0  0  0  0  0  0
   -5.7950   25.4780  -30.1400 C   0  0  0  0  0  0  0  0  0  0  0  0
   -4.6680   24.6990  -30.4290 C   0  0  0  0  0  0  0  0  0  0  0  0
   -3.4130   25.2970  -30.4310 O   0  0  0  0  0  0  0  0  0  0  0  0
   -3.5870   21.9020  -34.3780 H   0  0  0  0  0  0  0  0  0  0  0  0
   -4.8070   22.8980  -33.5290 H   0  0  0  0  0  0  0  0  0  0  0  0
   -4.5859   17.1790  -31.9346 H   0  0  0  0  0  0  0  0  0  0  0  0
   -6.9863   17.3087  -31.2679 H   0  0  0  0  0  0  0  0  0  0  0  0
   -8.4504   19.0988  -32.2056 H   0  0  0  0  0  0  0  0  0  0  0  0
   -7.5140   20.7671  -33.8084 H   0  0  0  0  0  0  0  0  0  0  0  0
   -5.1160   20.6452  -34.4838 H   0  0  0  0  0  0  0  0  0  0  0  0
   -6.2228   21.6866  -30.9285 H   0  0  0  0  0  0  0  0  0  0  0  0
   -8.2189   23.0860  -30.4014 H   0  0  0  0  0  0  0  0  0  0  0  0
   -7.9481   25.5124  -29.8925 H   0  0  0  0  0  0  0  0  0  0  0  0
   -5.6793   26.5502  -29.9233 H   0  0  0  0  0  0  0  0  0  0  0  0
  1  2  1  0
  2  3  1  0
  3  4  1  0
  4  5  1  0
  5  6  1  0
  6  7  2  0
  6  8  1  0
  8  9  2  0
  9 10  1  0
 10 11  2  0
 11 12  1  0
 12 13  2  0
  3 14  2  0
 14 15  1  0
 15 16  2  0
 16 17  1  0
 17 18  2  0
 18 19  1  0
 19 20  2  0
 20 21  1  0
 21 22  2  0
 22 23  1  0
 16  2  1  0
 22 17  1  0
 13  8  1  0
  1 24  1  0
  1 25  1  0
  9 26  1  0
 10 27  1  0
 11 28  1  0
 12 29  1  0
 13 30  1  0
 18 31  1  0
 19 32  1  0
 20 33  1  0
 21 34  1  0
M  CHG  2   5  -1  23  -1
M  END
>  <UniqueID>  (17) 
15

>  <SMILES>  (17) 
Nn1c(S[N-]C(=O)c2ccccc2)nnc1-c1ccccc1[O-]

>  <Energy>  (17) 
75.41211544259026

>  <Genealogy>  (17) 
Nn1c(S[N-]C(=O)c2ccccc2)nnc1-c1ccccc1[O-] (protonated)
Nn1c(S[N-]C(=O)c2ccccc2)nnc1-c1ccccc1[O-] (3D coordinates assigned)
Nn1c(S[N-]C(=O)c2ccccc2)nnc1-c1ccccc1[O-] (optimized conformer: 75.41211544259026 kcal/mol)

>  <smiles>  (17) 
Nn1c(SNC(=O)c2ccccc2)nnc1-c1ccccc1O

>  <score_type>  (17) 
oracle

>  <origin>  (17) 
adgpu

>  <m_score__min__energy>  (17) 
-11.369999999999999

>  <m_primary>  (17) 
energy

$$$$
17:0
     RDKit          3D

 46 48  0  0  0  0  0  0  0  0999 V2000
   -8.4360   20.8090  -31.8780 C   0  0  0  0  0  0  0  0  0  0  0  0
   -7.4970   21.9170  -31.5230 C   0  0  0  0  0  0  0  0  0  0  0  0
   -6.3880   22.1940  -32.3300 C   0  0  0  0  0  0  0  0  0  0  0  0
   -5.5400   23.2490  -31.9920 C   0  0  0  0  0  0  0  0  0  0  0  0
   -5.8010   24.0320  -30.8540 C   0  0  0  0  0  0  0  0  0  0  0  0
   -4.9100   25.1560  -30.4860 C   0  0  0  0  0  0  0  0  0  0  0  0
   -5.3950   26.3000  -30.2760 O   0  0  0  0  0  0  0  0  0  0  0  0
   -3.4910   24.9540  -30.4220 N   0  0  0  0  0  0  0  0  0  0  0  0
   -2.7360   24.5370  -29.2740 C   0  0  0  0  0  0  0  0  0  0  0  0
   -1.5600   25.2290  -28.9560 C   0  0  0  0  0  0  0  0  0  0  0  0
   -0.7860   24.8420  -27.8590 C   0  0  0  0  0  0  0  0  0  0  0  0
   -1.1700   23.7460  -27.0760 C   0  0  0  0  0  0  0  0  0  0  0  0
   -0.1890   23.2800  -25.6870 S   0  0  0  0  0  0  0  0  0  0  0  0
   -0.8460   22.1450  -24.9510 O   0  0  0  0  0  0  0  0  0  0  0  0
    1.1540   22.8180  -26.1820 O   0  0  0  0  0  0  0  0  0  0  0  0
    0.0090   24.6490  -24.6150 N   0  0  0  0  0  0  0  0  0  0  0  0
   -1.2380   25.4530  -24.6040 C   0  0  0  0  0  0  0  0  0  0  0  0
   -0.9860   26.8760  -24.0950 C   0  0  0  0  0  0  0  0  0  0  0  0
   -0.0120   27.6280  -25.0190 C   0  0  0  0  0  0  0  0  0  0  0  0
    0.9320   26.6840  -25.7820 C   0  0  0  0  0  0  0  0  0  0  0  0
    1.2340   25.4210  -24.9610 C   0  0  0  0  0  0  0  0  0  0  0  0
   -2.3340   23.0380  -27.4020 C   0  0  0  0  0  0  0  0  0  0  0  0
   -3.1100   23.4240  -28.4990 C   0  0  0  0  0  0  0  0  0  0  0  0
   -6.9340   23.7240  -30.0820 C   0  0  0  0  0  0  0  0  0  0  0  0
   -7.7440   22.6900  -30.4310 N   0  0  0  0  0  0  0  0  0  0  0  0
   -8.8255   20.3494  -30.9576 H   0  0  0  0  0  0  0  0  0  0  0  0
   -9.2719   21.2119  -32.4688 H   0  0  0  0  0  0  0  0  0  0  0  0
   -7.9015   20.0505  -32.4688 H   0  0  0  0  0  0  0  0  0  0  0  0
   -6.1864   21.5850  -33.2236 H   0  0  0  0  0  0  0  0  0  0  0  0
   -4.6632   23.4691  -32.6188 H   0  0  0  0  0  0  0  0  0  0  0  0
   -1.2440   26.0824  -29.5739 H   0  0  0  0  0  0  0  0  0  0  0  0
    0.1284   25.4002  -27.6094 H   0  0  0  0  0  0  0  0  0  0  0  0
    0.1420   24.2530  -23.6540 H   0  0  0  0  0  0  0  0  0  0  0  0
   -1.6382   25.5053  -25.6273 H   0  0  0  0  0  0  0  0  0  0  0  0
   -1.9554   24.9668  -23.9265 H   0  0  0  0  0  0  0  0  0  0  0  0
   -1.9414   27.4201  -24.0603 H   0  0  0  0  0  0  0  0  0  0  0  0
   -0.5403   26.8153  -23.0912 H   0  0  0  0  0  0  0  0  0  0  0  0
   -0.5962   28.2070  -25.7493 H   0  0  0  0  0  0  0  0  0  0  0  0
    0.6096   28.2790  -24.3866 H   0  0  0  0  0  0  0  0  0  0  0  0
    0.4577   26.3911  -26.7303 H   0  0  0  0  0  0  0  0  0  0  0  0
    1.8780   27.2129  -25.9698 H   0  0  0  0  0  0  0  0  0  0  0  0
    1.9034   24.7735  -25.5463 H   0  0  0  0  0  0  0  0  0  0  0  0
    1.6987   25.7435  -24.0176 H   0  0  0  0  0  0  0  0  0  0  0  0
   -2.6387   22.1747  -26.7923 H   0  0  0  0  0  0  0  0  0  0  0  0
   -4.0158   22.8557  -28.7570 H   0  0  0  0  0  0  0  0  0  0  0  0
   -7.1668   24.3235  -29.1896 H   0  0  0  0  0  0  0  0  0  0  0  0
  1  2  1  0
  2  3  2  0
  3  4  1  0
  4  5  2  0
  5  6  1  0
  6  7  2  0
  6  8  1  0
  8  9  1  0
  9 10  2  0
 10 11  1  0
 11 12  2  0
 12 13  1  0
 13 14  2  0
 13 15  2  0
 13 16  1  0
 16 17  1  0
 17 18  1  0
 18 19  1  0
 19 20  1  0
 20 21  1  0
 12 22  1  0
 22 23  2  0
  5 24  1  0
 24 25  2  0
 25  2  1  0
 23  9  1  0
 21 16  1  0
  1 26  1  0
  1 27  1  0
  1 28  1  0
  3 29  1  0
  4 30  1  0
 10 31  1  0
 11 32  1  0
 16 33  1  0
 17 34  1  0
 17 35  1  0
 18 36  1  0
 18 37  1  0
 19 38  1  0
 19 39  1  0
 20 40  1  0
 20 41  1  0
 21 42  1  0
 21 43  1  0
 22 44  1  0
 23 45  1  0
 24 46  1  0
M  CHG  2   8  -1  16   1
M  END
>  <UniqueID>  (18) 
16

>  <SMILES>  (18) 
Cc1ccc(C(=O)[N-]c2ccc(S(=O)(=O)[NH+]3CCCCC3)cc2)cn1

>  <Energy>  (18) 
56.006915265913705

>  <Genealogy>  (18) 
Cc1ccc(C(=O)[N-]c2ccc(S(=O)(=O)[NH+]3CCCCC3)cc2)cn1 (protonated)
Cc1ccc(C(=O)[N-]c2ccc(S(=O)(=O)[NH+]3CCCCC3)cc2)cn1 (3D coordinates assigned)
Cc1ccc(C(=O)[N-]c2ccc(S(=O)(=O)[NH+]3CCCCC3)cc2)cn1 (nonaromatic ring conformer: 56.006915265913705 kcal/mol)

>  <smiles>  (18) 
Cc1ccc(C(=O)Nc2ccc(S(=O)(=O)N3CCCCC3)cc2)cn1

>  <score_type>  (18) 
oracle

>  <origin>  (18) 
adgpu

>  <m_score__min__energy>  (18) 
-10.57

>  <m_primary>  (18) 
energy

$$$$
18:0
     RDKit          3D

 46 48  0  0  0  0  0  0  0  0999 V2000
   -1.7870   19.4650  -26.7780 C   0  0  0  0  0  0  0  0  0  0  0  0
   -1.5410   20.8080  -27.3770 C   0  0  0  0  0  0  0  0  0  0  0  0
   -0.3160   21.2950  -27.8000 C   0  0  0  0  0  0  0  0  0  0  0  0
   -0.5800   22.5880  -28.1970 C   0  0  0  0  0  0  0  0  0  0  0  0
   -1.8870   22.8320  -27.9980 N   0  0  0  0  0  0  0  0  0  0  0  0
   -2.6990   24.3160  -28.3550 S   0  0  0  0  0  0  0  0  0  0  0  0
   -3.1880   24.9450  -27.0810 O   0  0  0  0  0  0  0  0  0  0  0  0
   -1.7340   25.2580  -29.0200 O   0  0  0  0  0  0  0  0  0  0  0  0
   -4.0740   23.9850  -29.4020 C   0  0  0  0  0  0  0  0  0  0  0  0
   -5.3060   24.5910  -29.1350 C   0  0  0  0  0  0  0  0  0  0  0  0
   -6.4100   24.3370  -29.9530 C   0  0  0  0  0  0  0  0  0  0  0  0
   -6.2930   23.4740  -31.0590 C   0  0  0  0  0  0  0  0  0  0  0  0
   -7.4030   23.2030  -31.9320 N   0  0  0  0  0  0  0  0  0  0  0  0
   -8.5930   21.9770  -31.6210 S   0  0  0  0  0  0  0  0  0  0  0  0
   -8.8770   21.9250  -30.1470 O   0  0  0  0  0  0  0  0  0  0  0  0
   -9.8600   22.3250  -32.3530 O   0  0  0  0  0  0  0  0  0  0  0  0
   -7.9860   20.4060  -32.1370 C   0  0  0  0  0  0  0  0  0  0  0  0
   -8.6880   19.2380  -31.8210 C   0  0  0  0  0  0  0  0  0  0  0  0
   -8.2170   17.9970  -32.2530 C   0  0  0  0  0  0  0  0  0  0  0  0
   -7.0360   17.9030  -33.0090 C   0  0  0  0  0  0  0  0  0  0  0  0
   -6.5530   16.5490  -33.4590 C   0  0  0  0  0  0  0  0  0  0  0  0
   -6.3120   19.0810  -33.3140 C   0  0  0  0  0  0  0  0  0  0  0  0
   -5.0470   19.0320  -34.1300 C   0  0  0  0  0  0  0  0  0  0  0  0
   -6.8000   20.3240  -32.8760 C   0  0  0  0  0  0  0  0  0  0  0  0
   -5.0570   22.8580  -31.3120 C   0  0  0  0  0  0  0  0  0  0  0  0
   -3.9540   23.1130  -30.4920 C   0  0  0  0  0  0  0  0  0  0  0  0
   -2.4830   21.7640  -27.4950 N   0  0  0  0  0  0  0  0  0  0  0  0
   -1.7724   19.5446  -25.6810 H   0  0  0  0  0  0  0  0  0  0  0  0
   -2.7685   19.0916  -27.1055 H   0  0  0  0  0  0  0  0  0  0  0  0
   -1.0016   18.7680  -27.1055 H   0  0  0  0  0  0  0  0  0  0  0  0
    0.6498   20.7688  -27.8157 H   0  0  0  0  0  0  0  0  0  0  0  0
    0.1530   23.2986  -28.6065 H   0  0  0  0  0  0  0  0  0  0  0  0
   -5.4063   25.2712  -28.2764 H   0  0  0  0  0  0  0  0  0  0  0  0
   -7.3761   24.8141  -29.7315 H   0  0  0  0  0  0  0  0  0  0  0  0
   -7.5840   23.8430  -32.7370 H   0  0  0  0  0  0  0  0  0  0  0  0
   -9.6140   19.2977  -31.2303 H   0  0  0  0  0  0  0  0  0  0  0  0
   -8.7755   17.0839  -31.9993 H   0  0  0  0  0  0  0  0  0  0  0  0
   -6.3313   15.9276  -32.5788 H   0  0  0  0  0  0  0  0  0  0  0  0
   -7.3334   16.0636  -34.0634 H   0  0  0  0  0  0  0  0  0  0  0  0
   -5.6415   16.6671  -34.0634 H   0  0  0  0  0  0  0  0  0  0  0  0
   -4.1776   18.9983  -33.4570 H   0  0  0  0  0  0  0  0  0  0  0  0
   -5.0545   18.1335  -34.7645 H   0  0  0  0  0  0  0  0  0  0  0  0
   -4.9850   19.9284  -34.7645 H   0  0  0  0  0  0  0  0  0  0  0  0
   -6.2441   21.2422  -33.1164 H   0  0  0  0  0  0  0  0  0  0  0  0
   -4.9557   22.1685  -32.1631 H   0  0  0  0  0  0  0  0  0  0  0  0
   -2.9896   22.6279  -30.7030 H   0  0  0  0  0  0  0  0  0  0  0  0
  1  2  1  0
  2  3  1  0
  3  4  2  0
  4  5  1  0
  5  6  1  0
  6  7  2  0
  6  8  2  0
  6  9  1  0
  9 10  2  0
 10 11  1  0
 11 12  2  0
 12 13  1  0
 13 14  1  0
 14 15  2  0
 14 16  2  0
 14 17  1  0
 17 18  2  0
 18 19  1  0
 19 20  2  0
 20 21  1  0
 20 22  1  0
 22 23  1  0
 22 24  2  0
 12 25  1  0
 25 26  2  0
  5 27  1  0
 27  2  2  0
 26  9  1  0
 24 17  1  0
  1 28  1  0
  1 29  1  0
  1 30  1  0
  3 31  1  0
  4 32  1  0
 10 33  1  0
 11 34  1  0
 13 35  1  0
 18 36  1  0
 19 37  1  0
 21 38  1  0
 21 39  1  0
 21 40  1  0
 23 41  1  0
 23 42  1  0
 23 43  1  0
 24 44  1  0
 25 45  1  0
 26 46  1  0
M  END
>  <UniqueID>  (19) 
17

>  <SMILES>  (19) 
Cc1ccn(S(=O)(=O)c2ccc(NS(=O)(=O)c3ccc(C)c(C)c3)cc2)n1

>  <Energy>  (19) 
80.57912313931996

>  <Genealogy>  (19) 
Cc1ccn(S(=O)(=O)c2ccc(NS(=O)(=O)c3ccc(C)c(C)c3)cc2)n1 (3D coordinates assigned)
Cc1ccn(S(=O)(=O)c2ccc(NS(=O)(=O)c3ccc(C)c(C)c3)cc2)n1 (optimized conformer: 80.57912313931996 kcal/mol)

>  <smiles>  (19) 
Cc1ccn(S(=O)(=O)c2ccc(NS(=O)(=O)c3ccc(C)c(C)c3)cc2)n1

>  <score_type>  (19) 
oracle

>  <origin>  (19) 
adgpu

>  <m_score__min__energy>  (19) 
-10.390000000000001

>  <m_primary>  (19) 
energy

$$$$
19:0
     RDKit          3D

 58 61  0  0  0  0  0  0  0  0999 V2000
   -3.7110   17.8740  -32.3090 H   0  0  0  0  0  0  0  0  0  0  0  0
   -2.8110   17.9430  -32.8450 N   0  0  0  0  0  0  0  0  0  0  0  0
   -2.7000   19.5460  -33.4850 S   0  0  0  0  0  0  0  0  0  0  0  0
   -4.0770   20.0080  -33.8660 O   0  0  0  0  0  0  0  0  0  0  0  0
   -1.8460   19.5510  -34.7200 O   0  0  0  0  0  0  0  0  0  0  0  0
   -2.0090   20.6360  -32.2730 C   0  0  0  0  0  0  0  0  0  0  0  0
   -2.8740   21.4050  -31.4770 C   0  0  0  0  0  0  0  0  0  0  0  0
   -3.9617   21.2674  -31.5663 H   0  0  0  0  0  0  0  0  0  0  0  0
   -2.3670   22.3450  -30.5710 C   0  0  0  0  0  0  0  0  0  0  0  0
   -3.4590   23.3470  -29.6190 S   0  0  0  0  0  0  0  0  0  0  0  0
   -2.6770   24.3960  -28.8860 O   0  0  0  0  0  0  0  0  0  0  0  0
   -4.1650   22.4850  -28.6100 O   0  0  0  0  0  0  0  0  0  0  0  0
   -4.6350   24.1170  -30.6320 N   0  0  0  0  0  0  0  0  0  0  0  0
   -5.8070   23.4230  -31.0740 C   0  0  0  0  0  0  0  0  0  0  0  0
   -7.0240   24.1020  -31.1510 C   0  0  0  0  0  0  0  0  0  0  0  0
   -7.0832   25.1600  -30.8558 H   0  0  0  0  0  0  0  0  0  0  0  0
   -8.1670   23.4380  -31.6030 C   0  0  0  0  0  0  0  0  0  0  0  0
   -9.1237   23.9766  -31.6705 H   0  0  0  0  0  0  0  0  0  0  0  0
   -8.0980   22.0900  -31.9700 C   0  0  0  0  0  0  0  0  0  0  0  0
   -8.9992   21.5735  -32.3321 H   0  0  0  0  0  0  0  0  0  0  0  0
   -6.8870   21.3970  -31.8780 C   0  0  0  0  0  0  0  0  0  0  0  0
   -6.7850   19.6950  -32.3290 S   0  0  0  0  0  0  0  0  0  0  0  0
   -7.9170   18.9340  -31.6830 O   0  0  0  0  0  0  0  0  0  0  0  0
   -6.8790   19.5460  -33.8210 O   0  0  0  0  0  0  0  0  0  0  0  0
   -5.2680   19.0430  -31.8020 N   0  0  0  0  0  0  0  0  0  0  0  0
   -4.6000   19.8390  -31.7350 H   0  0  0  0  0  0  0  0  0  0  0  0
   -4.9140   18.4330  -32.5680 H   0  0  0  0  0  0  0  0  0  0  0  0
   -5.7480   22.0630  -31.4120 C   0  0  0  0  0  0  0  0  0  0  0  0
   -4.7992   21.5158  -31.3100 H   0  0  0  0  0  0  0  0  0  0  0  0
   -0.9860   22.5410  -30.4780 C   0  0  0  0  0  0  0  0  0  0  0  0
   -0.5841   23.2921  -29.7821 H   0  0  0  0  0  0  0  0  0  0  0  0
   -0.1170   21.7870  -31.2650 C   0  0  0  0  0  0  0  0  0  0  0  0
    0.9666   21.9668  -31.2058 H   0  0  0  0  0  0  0  0  0  0  0  0
   -0.6110   20.8020  -32.1310 C   0  0  0  0  0  0  0  0  0  0  0  0
    0.5700   19.8100  -33.0670 S   0  0  0  0  0  0  0  0  0  0  0  0
    0.9720   21.1450  -34.1980 C   0  0  0  0  0  0  0  0  0  0  0  0
    2.2730   21.3780  -34.5190 N   0  0  0  0  0  0  0  0  0  0  0  0
    2.6230   22.3600  -35.3890 C   0  0  0  0  0  0  0  0  0  0  0  0
    3.6815   22.5366  -35.6307 H   0  0  0  0  0  0  0  0  0  0  0  0
    1.6240   23.1450  -35.9750 C   0  0  0  0  0  0  0  0  0  0  0  0
    1.9480   24.0670  -36.8330 N   0  0  0  0  0  0  0  0  0  0  0  0
    0.9920   24.9220  -37.5390 C   0  0  0  0  0  0  0  0  0  0  0  0
    1.4334   25.2479  -38.4924 H   0  0  0  0  0  0  0  0  0  0  0  0
    0.0712   24.3490  -37.7232 H   0  0  0  0  0  0  0  0  0  0  0  0
    0.6540   26.1330  -36.7100 C   0  0  0  0  0  0  0  0  0  0  0  0
    1.6760   26.9430  -36.1720 C   0  0  0  0  0  0  0  0  0  0  0  0
    2.7298   26.7095  -36.3840 H   0  0  0  0  0  0  0  0  0  0  0  0
    1.3530   28.0420  -35.3700 C   0  0  0  0  0  0  0  0  0  0  0  0
    2.1519   28.6719  -34.9516 H   0  0  0  0  0  0  0  0  0  0  0  0
    0.0120   28.3400  -35.1000 C   0  0  0  0  0  0  0  0  0  0  0  0
   -0.2420   29.1990  -34.4615 H   0  0  0  0  0  0  0  0  0  0  0  0
   -1.0050   27.5470  -35.6410 C   0  0  0  0  0  0  0  0  0  0  0  0
   -2.0579   27.7894  -35.4347 H   0  0  0  0  0  0  0  0  0  0  0  0
   -0.6870   26.4460  -36.4440 C   0  0  0  0  0  0  0  0  0  0  0  0
   -1.4902   25.8249  -36.8673 H   0  0  0  0  0  0  0  0  0  0  0  0
    0.3220   22.9180  -35.6410 N   0  0  0  0  0  0  0  0  0  0  0  0
   -0.0250   21.9420  -34.7630 C   0  0  0  0  0  0  0  0  0  0  0  0
   -1.0808   21.7811  -34.4997 H   0  0  0  0  0  0  0  0  0  0  0  0
  1  2  1  0
  2  3  1  0
  3  4  2  0
  3  5  2  0
  3  6  1  0
  6  7  2  0
  7  8  1  0
  7  9  1  0
  9 10  1  0
 10 11  2  0
 10 12  2  0
 10 13  1  0
 13 14  1  0
 14 15  2  0
 15 16  1  0
 15 17  1  0
 17 18  1  0
 17 19  2  0
 19 20  1  0
 19 21  1  0
 21 22  1  0
 22 23  2  0
 22 24  2  0
 22 25  1  0
 25 26  1  0
 25 27  1  0
 21 28  2  0
 28 29  1  0
  9 30  2  0
 30 31  1  0
 30 32  1  0
 32 33  1  0
 32 34  2  0
 34 35  1  0
 35 36  1  0
 36 37  1  0
 37 38  2  0
 38 39  1  0
 38 40  1  0
 40 41  2  0
 41 42  1  0
 42 43  1  0
 42 44  1  0
 42 45  1  0
 45 46  2  0
 46 47  1  0
 46 48  1  0
 48 49  1  0
 48 50  2  0
 50 51  1  0
 50 52  1  0
 52 53  1  0
 52 54  2  0
 54 55  1  0
 40 56  1  0
 56 57  1  0
 57 58  1  0
 34  6  1  0
 57 36  2  0
 28 14  1  0
 54 45  1  0
M  CHG  3   2  -1  13  -1  56  -1
M  END
>  <UniqueID>  (20) 
18

>  <SMILES>  (20) 
[NH-]S(=O)(=O)c1cc(S(=O)(=O)[N-]c2cccc(S(N)(=O)=O)c2)ccc1Sc1c[n-]/c(=N\Cc2ccccc2)cn1

>  <Energy>  (20) 
68.95979513234872

>  <Genealogy>  (20) 
[NH-]S(=O)(=O)c1cc(S(=O)(=O)[N-]c2cccc(S(N)(=O)=O)c2)ccc1Sc1c[n-]c(=NCc2ccccc2)cn1 (protonated)
[NH-]S(=O)(=O)c1cc(S(=O)(=O)[N-]c2cccc(S(N)(=O)=O)c2)ccc1Sc1c[n-]/c(=N\Cc2ccccc2)cn1 (cis-trans isomerization)
[NH-]S(=O)(=O)c1cc(S(=O)(=O)[N-]c2cccc(S(N)(=O)=O)c2)ccc1Sc1c[n-]/c(=N\Cc2ccccc2)cn1 (3D coordinates assigned)
[NH-]S(=O)(=O)c1cc(S(=O)(=O)[N-]c2cccc(S(N)(=O)=O)c2)ccc1Sc1c[n-]/c(=N\Cc2ccccc2)cn1 (optimized conformer: 68.95979513234872 kcal/mol)

>  <smiles>  (20) 
NS(=O)(=O)c1cccc(NS(=O)(=O)c2ccc(Sc3c[nH]c(=NCc4ccccc4)cn3)c(S(N)(=O)=O)c2)c1

>  <score_type>  (20) 
oracle

>  <origin>  (20) 
adgpu

>  <m_score__min__energy>  (20) 
-14.09

>  <m_primary>  (20) 
energy

$$$$
20:0
     RDKit          3D

 47 51  0  0  0  0  0  0  0  0999 V2000
   -6.9320   25.3190  -29.7110 C   0  0  0  0  0  0  0  0  0  0  0  0
   -5.5430   24.8640  -30.0200 C   0  0  0  0  0  0  0  0  0  0  0  0
   -4.9890   23.6480  -29.6750 C   0  0  0  0  0  0  0  0  0  0  0  0
   -3.6810   23.7510  -30.1170 C   0  0  0  0  0  0  0  0  0  0  0  0
   -2.6180   22.7240  -30.0350 C   0  0  0  0  0  0  0  0  0  0  0  0
   -2.1750   22.2230  -28.7960 C   0  0  0  0  0  0  0  0  0  0  0  0
   -1.2170   21.2070  -28.7450 C   0  0  0  0  0  0  0  0  0  0  0  0
   -0.7070   20.6640  -29.9280 C   0  0  0  0  0  0  0  0  0  0  0  0
   -1.1400   21.1480  -31.1690 C   0  0  0  0  0  0  0  0  0  0  0  0
   -0.6300   20.3300  -32.6500 S   0  0  0  0  0  0  0  0  0  0  0  0
   -0.3880   18.8770  -32.3260 O   0  0  0  0  0  0  0  0  0  0  0  0
    0.6510   20.9360  -33.1680 O   0  0  0  0  0  0  0  0  0  0  0  0
   -1.8630   20.4360  -33.8780 N   0  0  0  0  0  0  0  0  0  0  0  0
   -3.2120   19.9890  -33.7000 C   0  0  0  0  0  0  0  0  0  0  0  0
   -4.2520   20.9080  -33.4490 C   0  0  0  0  0  0  0  0  0  0  0  0
   -5.5060   20.4170  -33.0960 C   0  0  0  0  0  0  0  0  0  0  0  0
   -5.7680   19.0610  -33.0520 C   0  0  0  0  0  0  0  0  0  0  0  0
   -4.7780   18.1330  -33.3840 C   0  0  0  0  0  0  0  0  0  0  0  0
   -3.4920   18.5970  -33.7090 C   0  0  0  0  0  0  0  0  0  0  0  0
   -2.4970   17.6610  -34.0060 O   0  0  0  0  0  0  0  0  0  0  0  0
   -7.1510   18.7810  -32.5400 C   0  0  0  0  0  0  0  0  0  0  0  0
   -7.6230   20.1790  -32.2520 C   0  0  0  0  0  0  0  0  0  0  0  0
   -8.8220   20.5650  -31.6480 C   0  0  0  0  0  0  0  0  0  0  0  0
   -9.0410   21.9320  -31.4020 C   0  0  0  0  0  0  0  0  0  0  0  0
   -8.0680   22.8890  -31.7610 C   0  0  0  0  0  0  0  0  0  0  0  0
   -6.8640   22.4830  -32.3630 C   0  0  0  0  0  0  0  0  0  0  0  0
   -6.6700   21.1200  -32.5980 C   0  0  0  0  0  0  0  0  0  0  0  0
   -2.0730   22.1960  -31.2200 C   0  0  0  0  0  0  0  0  0  0  0  0
   -3.5180   24.9390  -30.6590 O   0  0  0  0  0  0  0  0  0  0  0  0
   -4.6150   25.6400  -30.6110 N   0  0  0  0  0  0  0  0  0  0  0  0
   -7.0691   25.3639  -28.6205 H   0  0  0  0  0  0  0  0  0  0  0  0
   -7.0952   26.3176  -30.1425 H   0  0  0  0  0  0  0  0  0  0  0  0
   -7.6544   24.6105  -30.1425 H   0  0  0  0  0  0  0  0  0  0  0  0
   -5.4718   22.7989  -29.1691 H   0  0  0  0  0  0  0  0  0  0  0  0
   -2.5857   22.6341  -27.8620 H   0  0  0  0  0  0  0  0  0  0  0  0
   -0.8636   20.8339  -27.7725 H   0  0  0  0  0  0  0  0  0  0  0  0
    0.0364   19.8544  -29.8841 H   0  0  0  0  0  0  0  0  0  0  0  0
   -4.0759   21.9907  -33.5305 H   0  0  0  0  0  0  0  0  0  0  0  0
   -5.0016   17.0560  -33.3909 H   0  0  0  0  0  0  0  0  0  0  0  0
   -1.5110   17.8660  -33.8890 H   0  0  0  0  0  0  0  0  0  0  0  0
   -7.7747   18.2903  -33.3017 H   0  0  0  0  0  0  0  0  0  0  0  0
   -7.1922   18.0963  -31.6801 H   0  0  0  0  0  0  0  0  0  0  0  0
   -9.5783   19.8159  -31.3709 H   0  0  0  0  0  0  0  0  0  0  0  0
   -9.9777   22.2578  -30.9262 H   0  0  0  0  0  0  0  0  0  0  0  0
   -8.2522   23.9564  -31.5692 H   0  0  0  0  0  0  0  0  0  0  0  0
   -6.0955   23.2191  -32.6414 H   0  0  0  0  0  0  0  0  0  0  0  0
   -2.3800   22.6071  -32.1930 H   0  0  0  0  0  0  0  0  0  0  0  0
  1  2  1  0
  2  3  1  0
  3  4  2  0
  4  5  1  0
  5  6  2  0
  6  7  1  0
  7  8  2  0
  8  9  1  0
  9 10  1  0
 10 11  2  0
 10 12  2  0
 10 13  1  0
 13 14  1  0
 14 15  2  0
 15 16  1  0
 16 17  2  0
 17 18  1  0
 18 19  2  0
 19 20  1  0
 17 21  1  0
 21 22  1  0
 22 23  2  0
 23 24  1  0
 24 25  2  0
 25 26  1  0
 26 27  2  0
  9 28  2  0
  4 29  1  0
 29 30  1  0
 30  2  2  0
 28  5  1  0
 19 14  1  0
 27 22  1  0
 27 16  1  0
  1 31  1  0
  1 32  1  0
  1 33  1  0
  3 34  1  0
  6 35  1  0
  7 36  1  0
  8 37  1  0
 15 38  1  0
 18 39  1  0
 20 40  1  0
 21 41  1  0
 21 42  1  0
 23 43  1  0
 24 44  1  0
 25 45  1  0
 26 46  1  0
 28 47  1  0
M  CHG  1  13  -1
M  END
>  <UniqueID>  (21) 
19

>  <SMILES>  (21) 
Cc1cc(-c2cccc(S(=O)(=O)[N-]c3cc4c(cc3O)Cc3ccccc3-4)c2)on1

>  <Energy>  (21) 
110.58087790489587

>  <Genealogy>  (21) 
Cc1cc(-c2cccc(S(=O)(=O)[N-]c3cc4c(cc3O)Cc3ccccc3-4)c2)on1 (protonated)
Cc1cc(-c2cccc(S(=O)(=O)[N-]c3cc4c(cc3O)Cc3ccccc3-4)c2)on1 (3D coordinates assigned)
Cc1cc(-c2cccc(S(=O)(=O)[N-]c3cc4c(cc3O)Cc3ccccc3-4)c2)on1 (nonaromatic ring conformer: 110.58087790489587 kcal/mol)

>  <smiles>  (21) 
Cc1cc(-c2cccc(S(=O)(=O)Nc3cc4c(cc3O)Cc3ccccc3-4)c2)on1

>  <score_type>  (21) 
oracle

>  <origin>  (21) 
adgpu

>  <m_score__min__energy>  (21) 
-12.130000000000001

>  <m_primary>  (21) 
energy

$$$$
21:0
     RDKit          3D

 47 49  0  0  0  0  0  0  0  0999 V2000
   -9.0350   19.1190  -30.8330 O   0  0  0  0  0  0  0  0  0  0  0  0
   -8.6170   19.9330  -32.0260 S   0  0  0  0  0  0  0  0  0  0  0  0
   -9.8550   20.4620  -32.6970 O   0  0  0  0  0  0  0  0  0  0  0  0
   -7.7410   18.9200  -33.1320 N   0  0  0  0  0  0  0  0  0  0  0  0
   -7.1710   17.7770  -32.4140 C   0  0  0  0  0  0  0  0  0  0  0  0
   -5.9680   17.2650  -33.1540 C   0  0  0  0  0  0  0  0  0  0  0  0
   -5.5350   17.8970  -34.3290 C   0  0  0  0  0  0  0  0  0  0  0  0
   -4.3930   17.4260  -34.9830 C   0  0  0  0  0  0  0  0  0  0  0  0
   -3.7030   16.3700  -34.4750 N   0  0  0  0  0  0  0  0  0  0  0  0
   -4.0930   15.7480  -33.3300 C   0  0  0  0  0  0  0  0  0  0  0  0
   -5.2290   16.1880  -32.6450 C   0  0  0  0  0  0  0  0  0  0  0  0
   -7.6030   21.2690  -31.4840 C   0  0  0  0  0  0  0  0  0  0  0  0
   -8.0430   22.1020  -30.4470 C   0  0  0  0  0  0  0  0  0  0  0  0
   -7.2380   23.1510  -29.9960 C   0  0  0  0  0  0  0  0  0  0  0  0
   -5.9790   23.3710  -30.5740 C   0  0  0  0  0  0  0  0  0  0  0  0
   -4.9650   24.7070  -30.0320 S   0  0  0  0  0  0  0  0  0  0  0  0
   -4.2270   25.2970  -31.2020 O   0  0  0  0  0  0  0  0  0  0  0  0
   -5.8460   25.7680  -29.4350 O   0  0  0  0  0  0  0  0  0  0  0  0
   -3.8270   24.1430  -28.8320 N   0  0  0  0  0  0  0  0  0  0  0  0
   -4.2310   22.8040  -28.3440 C   0  0  0  0  0  0  0  0  0  0  0  0
   -3.0670   22.0800  -27.6610 C   0  0  0  0  0  0  0  0  0  0  0  0
   -1.9110   21.8370  -28.6480 C   0  0  0  0  0  0  0  0  0  0  0  0
   -1.8860   22.8590  -29.7970 C   0  0  0  0  0  0  0  0  0  0  0  0
   -2.4350   24.2200  -29.3420 C   0  0  0  0  0  0  0  0  0  0  0  0
   -5.5390   22.5380  -31.6110 C   0  0  0  0  0  0  0  0  0  0  0  0
   -6.3450   21.4890  -32.0620 C   0  0  0  0  0  0  0  0  0  0  0  0
   -8.4360   18.5550  -33.8240 H   0  0  0  0  0  0  0  0  0  0  0  0
   -6.8722   18.0918  -31.4032 H   0  0  0  0  0  0  0  0  0  0  0  0
   -7.9237   16.9779  -32.3438 H   0  0  0  0  0  0  0  0  0  0  0  0
   -6.0899   18.7567  -34.7327 H   0  0  0  0  0  0  0  0  0  0  0  0
   -4.0519   17.9102  -35.9099 H   0  0  0  0  0  0  0  0  0  0  0  0
   -3.5133   14.8972  -32.9425 H   0  0  0  0  0  0  0  0  0  0  0  0
   -5.5409   15.6929  -31.7135 H   0  0  0  0  0  0  0  0  0  0  0  0
   -9.0266   21.9293  -29.9859 H   0  0  0  0  0  0  0  0  0  0  0  0
   -7.5922   23.8057  -29.1861 H   0  0  0  0  0  0  0  0  0  0  0  0
   -5.0528   22.9198  -27.6220 H   0  0  0  0  0  0  0  0  0  0  0  0
   -4.5506   22.2038  -29.2087 H   0  0  0  0  0  0  0  0  0  0  0  0
   -2.7024   22.6947  -26.8248 H   0  0  0  0  0  0  0  0  0  0  0  0
   -3.4263   21.1063  -27.2966 H   0  0  0  0  0  0  0  0  0  0  0  0
   -0.9601   21.9017  -28.0989 H   0  0  0  0  0  0  0  0  0  0  0  0
   -2.0576   20.8415  -29.0923 H   0  0  0  0  0  0  0  0  0  0  0  0
   -0.8490   22.9872  -30.1407 H   0  0  0  0  0  0  0  0  0  0  0  0
   -2.5210   22.4821  -30.6123 H   0  0  0  0  0  0  0  0  0  0  0  0
   -1.7891   24.6083  -28.5407 H   0  0  0  0  0  0  0  0  0  0  0  0
   -2.4427   24.8820  -30.2205 H   0  0  0  0  0  0  0  0  0  0  0  0
   -4.5553   22.7103  -32.0721 H   0  0  0  0  0  0  0  0  0  0  0  0
   -5.9914   20.8346  -32.8723 H   0  0  0  0  0  0  0  0  0  0  0  0
  1  2  2  0
  2  3  2  0
  2  4  1  0
  4  5  1  0
  5  6  1  0
  6  7  2  0
  7  8  1  0
  8  9  2  0
  9 10  1  0
 10 11  2  0
  2 12  1  0
 12 13  2  0
 13 14  1  0
 14 15  2  0
 15 16  1  0
 16 17  2  0
 16 18  2  0
 16 19  1  0
 19 20  1  0
 20 21  1  0
 21 22  1  0
 22 23  1  0
 23 24  1  0
 15 25  1  0
 25 26  2  0
 11  6  1  0
 26 12  1  0
 24 19  1  0
  4 27  1  0
  5 28  1  0
  5 29  1  0
  7 30  1  0
  8 31  1  0
 10 32  1  0
 11 33  1  0
 13 34  1  0
 14 35  1  0
 20 36  1  0
 20 37  1  0
 21 38  1  0
 21 39  1  0
 22 40  1  0
 22 41  1  0
 23 42  1  0
 23 43  1  0
 24 44  1  0
 24 45  1  0
 25 46  1  0
 26 47  1  0
M  END
>  <UniqueID>  (22) 
20

>  <SMILES>  (22) 
O=S(=O)(NCc1ccncc1)c1ccc(S(=O)(=O)N2CCCCC2)cc1

>  <Energy>  (22) 
50.91225591192624

>  <Genealogy>  (22) 
O=S(=O)(NCc1ccncc1)c1ccc(S(=O)(=O)N2CCCCC2)cc1 (3D coordinates assigned)
O=S(=O)(NCc1ccncc1)c1ccc(S(=O)(=O)N2CCCCC2)cc1 (nonaromatic ring conformer: 50.91225591192624 kcal/mol)

>  <smiles>  (22) 
O=S(=O)(NCc1ccncc1)c1ccc(S(=O)(=O)N2CCCCC2)cc1

>  <score_type>  (22) 
oracle

>  <origin>  (22) 
adgpu

>  <m_score__min__energy>  (22) 
-10.68

>  <m_primary>  (22) 
energy

$$$$
22:0
     RDKit          3D

 35 37  0  0  0  0  0  0  0  0999 V2000
   -3.8510   25.6480  -30.8530 O   0  0  0  0  0  0  0  0  0  0  0  0
   -3.9850   24.5930  -30.1770 C   0  0  0  0  0  0  0  0  0  0  0  0
   -2.9620   24.1880  -29.2620 N   0  0  0  0  0  0  0  0  0  0  0  0
   -3.0850   24.3450  -27.8200 C   0  0  0  0  0  0  0  0  0  0  0  0
   -1.7520   24.7390  -27.2460 C   0  0  0  0  0  0  0  0  0  0  0  0
   -1.3860   24.2990  -25.9620 C   0  0  0  0  0  0  0  0  0  0  0  0
   -0.1620   24.6840  -25.4060 C   0  0  0  0  0  0  0  0  0  0  0  0
    0.7010   25.5170  -26.1210 C   0  0  0  0  0  0  0  0  0  0  0  0
    0.3410   25.9730  -27.3910 C   0  0  0  0  0  0  0  0  0  0  0  0
   -0.8860   25.5950  -27.9580 C   0  0  0  0  0  0  0  0  0  0  0  0
   -1.2460   26.0650  -29.2200 O   0  0  0  0  0  0  0  0  0  0  0  0
   -5.1950   23.7760  -30.3290 C   0  0  0  0  0  0  0  0  0  0  0  0
   -6.4190   24.0010  -29.7110 C   0  0  0  0  0  0  0  0  0  0  0  0
   -7.3940   23.0540  -30.0450 C   0  0  0  0  0  0  0  0  0  0  0  0
   -6.9460   22.0710  -30.9320 C   0  0  0  0  0  0  0  0  0  0  0  0
   -7.7310   20.9330  -31.4750 C   0  0  0  0  0  0  0  0  0  0  0  0
   -7.1690   19.6480  -31.6010 C   0  0  0  0  0  0  0  0  0  0  0  0
   -7.9280   18.5950  -32.1140 C   0  0  0  0  0  0  0  0  0  0  0  0
   -9.2470   18.8250  -32.4980 C   0  0  0  0  0  0  0  0  0  0  0  0
   -9.7850   20.0660  -32.3710 N   0  0  0  0  0  0  0  0  0  0  0  0
   -9.0690   21.1100  -31.8750 C   0  0  0  0  0  0  0  0  0  0  0  0
   -5.3280   22.4010  -31.2870 S   0  0  0  0  0  0  0  0  0  0  0  0
   -3.8261   25.1269  -27.5977 H   0  0  0  0  0  0  0  0  0  0  0  0
   -3.4116   23.3945  -27.3730 H   0  0  0  0  0  0  0  0  0  0  0  0
   -2.0657   23.6487  -25.3919 H   0  0  0  0  0  0  0  0  0  0  0  0
    0.1214   24.3301  -24.4038 H   0  0  0  0  0  0  0  0  0  0  0  0
    1.6654   25.8144  -25.6835 H   0  0  0  0  0  0  0  0  0  0  0  0
    1.0224   26.6316  -27.9496 H   0  0  0  0  0  0  0  0  0  0  0  0
   -2.0260   25.6710  -29.7310 H   0  0  0  0  0  0  0  0  0  0  0  0
   -6.6037   24.8416  -29.0259 H   0  0  0  0  0  0  0  0  0  0  0  0
   -8.4188   23.0809  -29.6461 H   0  0  0  0  0  0  0  0  0  0  0  0
   -6.1273   19.4734  -31.2938 H   0  0  0  0  0  0  0  0  0  0  0  0
   -7.4882   17.5918  -32.2142 H   0  0  0  0  0  0  0  0  0  0  0  0
   -9.8531   18.0018  -32.9041 H   0  0  0  0  0  0  0  0  0  0  0  0
   -9.5389   22.1006  -31.7856 H   0  0  0  0  0  0  0  0  0  0  0  0
  1  2  2  0
  2  3  1  0
  3  4  1  0
  4  5  1  0
  5  6  2  0
  6  7  1  0
  7  8  2  0
  8  9  1  0
  9 10  2  0
 10 11  1  0
  2 12  1  0
 12 13  2  0
 13 14  1  0
 14 15  2  0
 15 16  1  0
 16 17  2  0
 17 18  1  0
 18 19  2  0
 19 20  1  0
 20 21  2  0
 15 22  1  0
 10  5  1  0
 22 12  1  0
 21 16  1  0
  4 23  1  0
  4 24  1  0
  6 25  1  0
  7 26  1  0
  8 27  1  0
  9 28  1  0
 11 29  1  0
 13 30  1  0
 14 31  1  0
 17 32  1  0
 18 33  1  0
 19 34  1  0
 21 35  1  0
M  CHG  1   3  -1
M  END
>  <UniqueID>  (23) 
21

>  <SMILES>  (23) 
O=C([N-]Cc1ccccc1O)c1ccc(-c2cccnc2)s1

>  <Energy>  (23) 
63.57517922941064

>  <Genealogy>  (23) 
O=C([N-]Cc1ccccc1O)c1ccc(-c2cccnc2)s1 (protonated)
O=C([N-]Cc1ccccc1O)c1ccc(-c2cccnc2)s1 (3D coordinates assigned)
O=C([N-]Cc1ccccc1O)c1ccc(-c2cccnc2)s1 (optimized conformer: 63.57517922941064 kcal/mol)

>  <smiles>  (23) 
O=C(NCc1ccccc1O)c1ccc(-c2cccnc2)s1

>  <score_type>  (23) 
oracle

>  <origin>  (23) 
adgpu

>  <m_score__min__energy>  (23) 
-10.68

>  <m_primary>  (23) 
energy

$$$$
23:0
     RDKit          3D

 48 50  0  0  0  0  0  0  0  0999 V2000
   -3.5750   21.9120  -31.7680 O   0  0  0  0  0  0  0  0  0  0  0  0
   -3.7120   21.9560  -30.2730 S   0  0  0  0  0  0  0  0  0  0  0  0
   -3.7010   20.5470  -29.7490 O   0  0  0  0  0  0  0  0  0  0  0  0
   -5.2340   22.6990  -29.8620 N   0  0  0  0  0  0  0  0  0  0  0  0
   -5.9270   23.2210  -31.0440 C   0  0  0  0  0  0  0  0  0  0  0  0
   -7.1170   22.3760  -31.4120 C   0  0  0  0  0  0  0  0  0  0  0  0
   -8.3640   22.9760  -31.6440 C   0  0  0  0  0  0  0  0  0  0  0  0
   -9.4660   22.1940  -31.9920 C   0  0  0  0  0  0  0  0  0  0  0  0
   -9.3320   20.8090  -32.1160 C   0  0  0  0  0  0  0  0  0  0  0  0
   -8.0920   20.1990  -31.8950 C   0  0  0  0  0  0  0  0  0  0  0  0
   -7.9420   18.4470  -32.0100 S   0  0  0  0  0  0  0  0  0  0  0  0
   -7.1110   17.9550  -30.8580 O   0  0  0  0  0  0  0  0  0  0  0  0
   -9.3010   17.8080  -31.9270 O   0  0  0  0  0  0  0  0  0  0  0  0
   -7.1740   18.0160  -33.5170 N   0  0  0  0  0  0  0  0  0  0  0  0
   -6.3790   16.7820  -33.3350 C   0  0  0  0  0  0  0  0  0  0  0  0
   -5.3360   16.6110  -34.4420 C   0  0  0  0  0  0  0  0  0  0  0  0
   -4.3190   17.7630  -34.4230 C   0  0  0  0  0  0  0  0  0  0  0  0
   -4.8950   19.0530  -33.8100 C   0  0  0  0  0  0  0  0  0  0  0  0
   -6.4060   19.1630  -34.0690 C   0  0  0  0  0  0  0  0  0  0  0  0
   -6.9880   20.9840  -31.5340 C   0  0  0  0  0  0  0  0  0  0  0  0
   -2.3510   22.8280  -29.5720 C   0  0  0  0  0  0  0  0  0  0  0  0
   -1.2850   22.1310  -28.9870 C   0  0  0  0  0  0  0  0  0  0  0  0
   -0.1970   22.8290  -28.4530 C   0  0  0  0  0  0  0  0  0  0  0  0
   -0.1730   24.2310  -28.4910 C   0  0  0  0  0  0  0  0  0  0  0  0
    0.9110   24.9370  -27.9730 O   0  0  0  0  0  0  0  0  0  0  0  0
   -1.2480   24.9280  -29.0540 C   0  0  0  0  0  0  0  0  0  0  0  0
   -1.2350   26.3180  -29.0920 O   0  0  0  0  0  0  0  0  0  0  0  0
   -2.3380   24.2300  -29.5820 C   0  0  0  0  0  0  0  0  0  0  0  0
   -6.2688   24.2451  -30.8332 H   0  0  0  0  0  0  0  0  0  0  0  0
   -5.2222   23.2058  -31.8884 H   0  0  0  0  0  0  0  0  0  0  0  0
   -8.4732   24.0666  -31.5512 H   0  0  0  0  0  0  0  0  0  0  0  0
  -10.4422   22.6690  -32.1691 H   0  0  0  0  0  0  0  0  0  0  0  0
  -10.2039   20.1960  -32.3882 H   0  0  0  0  0  0  0  0  0  0  0  0
   -5.8637   16.8300  -32.3643 H   0  0  0  0  0  0  0  0  0  0  0  0
   -7.0653   15.9233  -33.3755 H   0  0  0  0  0  0  0  0  0  0  0  0
   -4.8047   15.6596  -34.2918 H   0  0  0  0  0  0  0  0  0  0  0  0
   -5.8520   16.6150  -35.4134 H   0  0  0  0  0  0  0  0  0  0  0  0
   -3.4454   17.4517  -33.8315 H   0  0  0  0  0  0  0  0  0  0  0  0
   -4.0462   17.9831  -35.4657 H   0  0  0  0  0  0  0  0  0  0  0  0
   -4.7163   19.0457  -32.7246 H   0  0  0  0  0  0  0  0  0  0  0  0
   -4.3970   19.9147  -34.2785 H   0  0  0  0  0  0  0  0  0  0  0  0
   -6.7751   20.0888  -33.6035 H   0  0  0  0  0  0  0  0  0  0  0  0
   -6.5542   19.1647  -35.1590 H   0  0  0  0  0  0  0  0  0  0  0  0
   -6.0153   20.5062  -31.3453 H   0  0  0  0  0  0  0  0  0  0  0  0
   -1.3041   21.0319  -28.9477 H   0  0  0  0  0  0  0  0  0  0  0  0
    0.6414   22.2776  -28.0024 H   0  0  0  0  0  0  0  0  0  0  0  0
    1.0810   25.8990  -28.2220 H   0  0  0  0  0  0  0  0  0  0  0  0
   -3.1888   24.7828  -30.0070 H   0  0  0  0  0  0  0  0  0  0  0  0
  1  2  2  0
  2  3  2  0
  2  4  1  0
  4  5  1  0
  5  6  1  0
  6  7  2  0
  7  8  1  0
  8  9  2  0
  9 10  1  0
 10 11  1  0
 11 12  2  0
 11 13  2  0
 11 14  1  0
 14 15  1  0
 15 16  1  0
 16 17  1  0
 17 18  1  0
 18 19  1  0
 10 20  2  0
  2 21  1  0
 21 22  2  0
 22 23  1  0
 23 24  2  0
 24 25  1  0
 24 26  1  0
 26 27  1  0
 26 28  2  0
 20  6  1  0
 28 21  1  0
 19 14  1  0
  5 29  1  0
  5 30  1  0
  7 31  1  0
  8 32  1  0
  9 33  1  0
 15 34  1  0
 15 35  1  0
 16 36  1  0
 16 37  1  0
 17 38  1  0
 17 39  1  0
 18 40  1  0
 18 41  1  0
 19 42  1  0
 19 43  1  0
 20 44  1  0
 22 45  1  0
 23 46  1  0
 25 47  1  0
 28 48  1  0
M  CHG  2   4  -1  27  -1
M  END
>  <UniqueID>  (24) 
22

>  <SMILES>  (24) 
O=S(=O)([N-]Cc1cccc(S(=O)(=O)N2CCCCC2)c1)c1ccc(O)c([O-])c1

>  <Energy>  (24) 
50.46409173063599

>  <Genealogy>  (24) 
O=S(=O)([N-]Cc1cccc(S(=O)(=O)N2CCCCC2)c1)c1ccc(O)c([O-])c1 (protonated)
O=S(=O)([N-]Cc1cccc(S(=O)(=O)N2CCCCC2)c1)c1ccc(O)c([O-])c1 (3D coordinates assigned)
O=S(=O)([N-]Cc1cccc(S(=O)(=O)N2CCCCC2)c1)c1ccc(O)c([O-])c1 (nonaromatic ring conformer: 50.46409173063599 kcal/mol)

>  <smiles>  (24) 
O=S(=O)(NCc1cccc(S(=O)(=O)N2CCCCC2)c1)c1ccc(O)c(O)c1

>  <score_type>  (24) 
oracle

>  <origin>  (24) 
adgpu

>  <m_score__min__energy>  (24) 
-12.630000000000001

>  <m_primary>  (24) 
energy

$$$$
24:0
     RDKit          3D

 47 49  0  0  0  0  0  0  0  0999 V2000
   -1.4610   21.9180  -30.6090 C   0  0  0  0  0  0  0  0  0  0  0  0
   -1.8860   22.6130  -29.3570 C   0  0  0  0  0  0  0  0  0  0  0  0
   -1.2420   22.4950  -28.1790 N   0  0  0  0  0  0  0  0  0  0  0  0
   -1.9260   23.1710  -27.3000 O   0  0  0  0  0  0  0  0  0  0  0  0
   -2.9900   23.7180  -27.8430 C   0  0  0  0  0  0  0  0  0  0  0  0
   -3.9880   24.5340  -27.0900 C   0  0  0  0  0  0  0  0  0  0  0  0
   -3.0170   23.3830  -29.1830 C   0  0  0  0  0  0  0  0  0  0  0  0
   -4.2430   23.7740  -30.3880 S   0  0  0  0  0  0  0  0  0  0  0  0
   -3.9390   23.0150  -31.6480 O   0  0  0  0  0  0  0  0  0  0  0  0
   -4.2460   25.2450  -30.6960 O   0  0  0  0  0  0  0  0  0  0  0  0
   -5.8110   23.3140  -29.8030 N   0  0  0  0  0  0  0  0  0  0  0  0
   -6.8840   22.8650  -30.6510 C   0  0  0  0  0  0  0  0  0  0  0  0
   -7.7430   23.8120  -31.2290 C   0  0  0  0  0  0  0  0  0  0  0  0
   -8.7910   23.4060  -32.0590 C   0  0  0  0  0  0  0  0  0  0  0  0
   -8.9920   22.0490  -32.3230 C   0  0  0  0  0  0  0  0  0  0  0  0
   -8.1450   21.0900  -31.7540 C   0  0  0  0  0  0  0  0  0  0  0  0
   -8.3900   19.3720  -32.0790 S   0  0  0  0  0  0  0  0  0  0  0  0
   -8.8210   18.6810  -30.8150 O   0  0  0  0  0  0  0  0  0  0  0  0
   -9.4910   19.2180  -33.0910 O   0  0  0  0  0  0  0  0  0  0  0  0
   -6.9360   18.6180  -32.6840 N   0  0  0  0  0  0  0  0  0  0  0  0
   -6.4180   19.3710  -33.8460 C   0  0  0  0  0  0  0  0  0  0  0  0
   -5.3130   18.5990  -34.6030 C   0  0  0  0  0  0  0  0  0  0  0  0
   -4.7530   17.4450  -33.7670 C   0  0  0  0  0  0  0  0  0  0  0  0
   -5.8720   16.4830  -33.3320 C   0  0  0  0  0  0  0  0  0  0  0  0
   -7.1950   17.2130  -33.0410 C   0  0  0  0  0  0  0  0  0  0  0  0
   -7.0980   21.4990  -30.9170 C   0  0  0  0  0  0  0  0  0  0  0  0
   -0.9032   21.0058  -30.3507 H   0  0  0  0  0  0  0  0  0  0  0  0
   -2.3497   21.6496  -31.1991 H   0  0  0  0  0  0  0  0  0  0  0  0
   -0.8172   22.5868  -31.1991 H   0  0  0  0  0  0  0  0  0  0  0  0
   -3.8282   24.4033  -26.0096 H   0  0  0  0  0  0  0  0  0  0  0  0
   -3.8671   25.5953  -27.3528 H   0  0  0  0  0  0  0  0  0  0  0  0
   -5.0041   24.2047  -27.3528 H   0  0  0  0  0  0  0  0  0  0  0  0
   -5.9860   23.4280  -28.7800 H   0  0  0  0  0  0  0  0  0  0  0  0
   -7.5901   24.8824  -31.0271 H   0  0  0  0  0  0  0  0  0  0  0  0
   -9.4595   24.1567  -32.5057 H   0  0  0  0  0  0  0  0  0  0  0  0
   -9.8168   21.7334  -32.9788 H   0  0  0  0  0  0  0  0  0  0  0  0
   -7.2495   19.5677  -34.5388 H   0  0  0  0  0  0  0  0  0  0  0  0
   -5.9769   20.3060  -33.4703 H   0  0  0  0  0  0  0  0  0  0  0  0
   -5.7360   18.1924  -35.5335 H   0  0  0  0  0  0  0  0  0  0  0  0
   -4.4909   19.2983  -34.8157 H   0  0  0  0  0  0  0  0  0  0  0  0
   -4.0160   16.8911  -34.3671 H   0  0  0  0  0  0  0  0  0  0  0  0
   -4.2813   17.8631  -32.8655 H   0  0  0  0  0  0  0  0  0  0  0  0
   -6.0417   15.7521  -34.1364 H   0  0  0  0  0  0  0  0  0  0  0  0
   -5.5489   15.9923  -32.4021 H   0  0  0  0  0  0  0  0  0  0  0  0
   -7.8333   17.1778  -33.9362 H   0  0  0  0  0  0  0  0  0  0  0  0
   -7.6994   16.7170  -32.1986 H   0  0  0  0  0  0  0  0  0  0  0  0
   -6.4371   20.7457  -30.4635 H   0  0  0  0  0  0  0  0  0  0  0  0
  1  2  1  0
  2  3  2  0
  3  4  1  0
  4  5  1  0
  5  6  1  0
  5  7  2  0
  7  8  1  0
  8  9  2  0
  8 10  2  0
  8 11  1  0
 11 12  1  0
 12 13  2  0
 13 14  1  0
 14 15  2  0
 15 16  1  0
 16 17  1  0
 17 18  2  0
 17 19  2  0
 17 20  1  0
 20 21  1  0
 21 22  1  0
 22 23  1  0
 23 24  1  0
 24 25  1  0
 16 26  2  0
  7  2  1  0
 26 12  1  0
 25 20  1  0
  1 27  1  0
  1 28  1  0
  1 29  1  0
  6 30  1  0
  6 31  1  0
  6 32  1  0
 11 33  1  0
 13 34  1  0
 14 35  1  0
 15 36  1  0
 21 37  1  0
 21 38  1  0
 22 39  1  0
 22 40  1  0
 23 41  1  0
 23 42  1  0
 24 43  1  0
 24 44  1  0
 25 45  1  0
 25 46  1  0
 26 47  1  0
M  END
>  <UniqueID>  (25) 
23

>  <SMILES>  (25) 
Cc1noc(C)c1S(=O)(=O)Nc1cccc(S(=O)(=O)N2CCCCC2)c1

>  <Energy>  (25) 
79.58847819163688

>  <Genealogy>  (25) 
Cc1noc(C)c1S(=O)(=O)Nc1cccc(S(=O)(=O)N2CCCCC2)c1 (3D coordinates assigned)
Cc1noc(C)c1S(=O)(=O)Nc1cccc(S(=O)(=O)N2CCCCC2)c1 (nonaromatic ring conformer: 79.58847819163688 kcal/mol)

>  <smiles>  (25) 
Cc1noc(C)c1S(=O)(=O)Nc1cccc(S(=O)(=O)N2CCCCC2)c1

>  <score_type>  (25) 
oracle

>  <origin>  (25) 
adgpu

>  <m_score__min__energy>  (25) 
-9.8399999999999999

>  <m_primary>  (25) 
energy

$$$$
25:0
     RDKit          3D

 33 34  0  0  0  0  0  0  0  0999 V2000
   -5.8960   17.4460  -34.5930 C   0  0  0  0  0  0  0  0  0  0  0  0
   -5.7420   18.9330  -34.2970 C   0  0  0  0  0  0  0  0  0  0  0  0
   -6.7980   19.3930  -33.3340 C   0  0  0  0  0  0  0  0  0  0  0  0
   -7.6750   18.4780  -32.7410 C   0  0  0  0  0  0  0  0  0  0  0  0
   -8.6630   18.9620  -31.8810 C   0  0  0  0  0  0  0  0  0  0  0  0
   -9.4630   18.1610  -31.3290 O   0  0  0  0  0  0  0  0  0  0  0  0
   -8.7610   20.2980  -31.6420 N   0  0  0  0  0  0  0  0  0  0  0  0
   -7.9080   21.1740  -32.2390 C   0  0  0  0  0  0  0  0  0  0  0  0
   -8.0580   22.9320  -31.9330 S   0  0  0  0  0  0  0  0  0  0  0  0
   -7.1370   22.8510  -30.3640 C   0  0  0  0  0  0  0  0  0  0  0  0
   -5.8430   23.5900  -30.5070 C   0  0  0  0  0  0  0  0  0  0  0  0
   -4.7030   23.1860  -31.1720 C   0  0  0  0  0  0  0  0  0  0  0  0
   -4.4770   21.8680  -31.8370 C   0  0  0  0  0  0  0  0  0  0  0  0
   -3.7860   24.1750  -31.1280 N   0  0  0  0  0  0  0  0  0  0  0  0
   -4.3280   25.1680  -30.4820 O   0  0  0  0  0  0  0  0  0  0  0  0
   -5.5500   24.8770  -30.1000 C   0  0  0  0  0  0  0  0  0  0  0  0
   -6.4460   25.8070  -29.3520 C   0  0  0  0  0  0  0  0  0  0  0  0
   -6.9410   20.7200  -33.0770 N   0  0  0  0  0  0  0  0  0  0  0  0
   -5.9538   16.8879  -33.6469 H   0  0  0  0  0  0  0  0  0  0  0  0
   -6.8160   17.2809  -35.1729 H   0  0  0  0  0  0  0  0  0  0  0  0
   -5.0293   17.0959  -35.1729 H   0  0  0  0  0  0  0  0  0  0  0  0
   -4.7495   19.1132  -33.8582 H   0  0  0  0  0  0  0  0  0  0  0  0
   -5.8506   19.4944  -35.2367 H   0  0  0  0  0  0  0  0  0  0  0  0
   -7.5881   17.4011  -32.9477 H   0  0  0  0  0  0  0  0  0  0  0  0
   -9.5030   20.6570  -30.9990 H   0  0  0  0  0  0  0  0  0  0  0  0
   -7.7352   23.3105  -29.5634 H   0  0  0  0  0  0  0  0  0  0  0  0
   -6.9333   21.7998  -30.1119 H   0  0  0  0  0  0  0  0  0  0  0  0
   -4.3435   21.0893  -31.0717 H   0  0  0  0  0  0  0  0  0  0  0  0
   -5.3458   21.6202  -32.4646 H   0  0  0  0  0  0  0  0  0  0  0  0
   -3.5753   21.9238  -32.4646 H   0  0  0  0  0  0  0  0  0  0  0  0
   -6.3055   25.6612  -28.2708 H   0  0  0  0  0  0  0  0  0  0  0  0
   -6.1997   26.8458  -29.6169 H   0  0  0  0  0  0  0  0  0  0  0  0
   -7.4933   25.5995  -29.6169 H   0  0  0  0  0  0  0  0  0  0  0  0
  1  2  1  0
  2  3  1  0
  3  4  2  0
  4  5  1  0
  5  6  2  0
  5  7  1  0
  7  8  1  0
  8  9  1  0
  9 10  1  0
 10 11  1  0
 11 12  1  0
 12 13  1  0
 12 14  2  0
 14 15  1  0
 15 16  1  0
 16 17  1  0
  8 18  2  0
 18  3  1  0
 16 11  2  0
  1 19  1  0
  1 20  1  0
  1 21  1  0
  2 22  1  0
  2 23  1  0
  4 24  1  0
  7 25  1  0
 10 26  1  0
 10 27  1  0
 13 28  1  0
 13 29  1  0
 13 30  1  0
 17 31  1  0
 17 32  1  0
 17 33  1  0
M  END
>  <UniqueID>  (26) 
24

>  <SMILES>  (26) 
CCc1cc(=O)[nH]c(SCc2c(C)noc2C)n1

>  <Energy>  (26) 
52.5438738094403

>  <Genealogy>  (26) 
CCc1cc(=O)[nH]c(SCc2c(C)noc2C)n1 (3D coordinates assigned)
CCc1cc(=O)[nH]c(SCc2c(C)noc2C)n1 (optimized conformer: 52.5438738094403 kcal/mol)

>  <smiles>  (26) 
CCc1cc(=O)[nH]c(SCc2c(C)noc2C)n1

>  <score_type>  (26) 
oracle

>  <origin>  (26) 
adgpu

>  <m_score__min__energy>  (26) 
-8.3300000000000001

>  <m_primary>  (26) 
energy

$$$$
26:0
     RDKit          3D

 62 66  0  0  0  0  0  0  0  0999 V2000
   -4.4730   14.0220  -33.9720 C   0  0  0  0  0  0  0  0  0  0  0  0
   -3.9090   15.3900  -33.7010 C   0  0  0  0  0  0  0  0  0  0  0  0
   -2.5600   15.5440  -33.3550 C   0  0  0  0  0  0  0  0  0  0  0  0
   -2.0540   16.7800  -33.1120 N   0  0  0  0  0  0  0  0  0  0  0  0
   -2.8370   17.8870  -33.1960 C   0  0  0  0  0  0  0  0  0  0  0  0
   -2.2710   19.1870  -32.9830 N   0  0  0  0  0  0  0  0  0  0  0  0
   -2.1790   19.8240  -31.7990 C   0  0  0  0  0  0  0  0  0  0  0  0
   -1.6110   21.0580  -32.0390 C   0  0  0  0  0  0  0  0  0  0  0  0
   -1.2900   22.0820  -31.0880 N   0  0  0  0  0  0  0  0  0  0  0  0
   -1.2550   21.8630  -29.6670 C   0  0  0  0  0  0  0  0  0  0  0  0
   -1.7980   20.8380  -29.1680 O   0  0  0  0  0  0  0  0  0  0  0  0
   -0.6190   22.8470  -28.7720 C   0  0  0  0  0  0  0  0  0  0  0  0
   -0.1640   22.6090  -27.4910 C   0  0  0  0  0  0  0  0  0  0  0  0
    0.3660   23.8080  -27.0580 C   0  0  0  0  0  0  0  0  0  0  0  0
    0.2500   24.7160  -28.0050 O   0  0  0  0  0  0  0  0  0  0  0  0
   -0.3350   24.1730  -29.0470 C   0  0  0  0  0  0  0  0  0  0  0  0
   -1.3560   21.1020  -33.3950 C   0  0  0  0  0  0  0  0  0  0  0  0
   -1.7830   19.9500  -33.9520 N   0  0  0  0  0  0  0  0  0  0  0  0
   -4.1520   17.7590  -33.5150 N   0  0  0  0  0  0  0  0  0  0  0  0
   -4.7060   16.5460  -33.7690 C   0  0  0  0  0  0  0  0  0  0  0  0
   -6.4500   16.4740  -34.2070 S   0  0  0  0  0  0  0  0  0  0  0  0
   -6.8150   18.0180  -33.3690 C   0  0  0  0  0  0  0  0  0  0  0  0
   -6.4800   19.2310  -33.9800 C   0  0  0  0  0  0  0  0  0  0  0  0
   -6.7990   20.4420  -33.3590 C   0  0  0  0  0  0  0  0  0  0  0  0
   -7.4530   20.4460  -32.1190 C   0  0  0  0  0  0  0  0  0  0  0  0
   -7.9180   21.9680  -31.3670 S   0  0  0  0  0  0  0  0  0  0  0  0
   -8.7370   22.7630  -32.3430 O   0  0  0  0  0  0  0  0  0  0  0  0
   -8.7570   21.6970  -30.1480 O   0  0  0  0  0  0  0  0  0  0  0  0
   -6.4860   22.8640  -30.9280 N   0  0  0  0  0  0  0  0  0  0  0  0
   -6.5290   24.2130  -31.5090 C   0  0  0  0  0  0  0  0  0  0  0  0
   -5.3660   25.0620  -30.9600 C   0  0  0  0  0  0  0  0  0  0  0  0
   -4.1720   24.2610  -30.5980 N   0  0  0  0  0  0  0  0  0  0  0  0
   -4.1270   23.9450  -29.1610 C   0  0  0  0  0  0  0  0  0  0  0  0
   -4.0330   23.0490  -31.4330 C   0  0  0  0  0  0  0  0  0  0  0  0
   -5.2820   22.1370  -31.3720 C   0  0  0  0  0  0  0  0  0  0  0  0
   -7.7790   19.2300  -31.5030 C   0  0  0  0  0  0  0  0  0  0  0  0
   -7.4560   18.0180  -32.1240 C   0  0  0  0  0  0  0  0  0  0  0  0
   -4.6817   13.5158  -33.0179 H   0  0  0  0  0  0  0  0  0  0  0  0
   -5.4052   14.1173  -34.5481 H   0  0  0  0  0  0  0  0  0  0  0  0
   -3.7445   13.4326  -34.5481 H   0  0  0  0  0  0  0  0  0  0  0  0
   -1.9089   14.6606  -33.2800 H   0  0  0  0  0  0  0  0  0  0  0  0
   -2.4979   19.4323  -30.8218 H   0  0  0  0  0  0  0  0  0  0  0  0
   -1.1520   23.0510  -31.4500 H   0  0  0  0  0  0  0  0  0  0  0  0
   -0.2133   21.6627  -26.9323 H   0  0  0  0  0  0  0  0  0  0  0  0
    0.8177   23.9794  -26.0698 H   0  0  0  0  0  0  0  0  0  0  0  0
   -0.5635   24.6906  -29.9903 H   0  0  0  0  0  0  0  0  0  0  0  0
   -0.8832   21.9375  -33.9320 H   0  0  0  0  0  0  0  0  0  0  0  0
   -5.9642   19.2318  -34.9516 H   0  0  0  0  0  0  0  0  0  0  0  0
   -6.5364   21.3936  -33.8442 H   0  0  0  0  0  0  0  0  0  0  0  0
   -6.4423   24.1410  -32.6032 H   0  0  0  0  0  0  0  0  0  0  0  0
   -7.4826   24.6911  -31.2403 H   0  0  0  0  0  0  0  0  0  0  0  0
   -5.0753   25.7935  -31.7283 H   0  0  0  0  0  0  0  0  0  0  0  0
   -5.7237   25.5461  -30.0393 H   0  0  0  0  0  0  0  0  0  0  0  0
   -4.2585   24.8686  -28.5782 H   0  0  0  0  0  0  0  0  0  0  0  0
   -4.9336   23.2385  -28.9155 H   0  0  0  0  0  0  0  0  0  0  0  0
   -3.1552   23.4918  -28.9155 H   0  0  0  0  0  0  0  0  0  0  0  0
   -3.8724   23.3569  -32.4767 H   0  0  0  0  0  0  0  0  0  0  0  0
   -3.1807   22.4727  -31.0440 H   0  0  0  0  0  0  0  0  0  0  0  0
   -5.4678   21.7244  -32.3746 H   0  0  0  0  0  0  0  0  0  0  0  0
   -5.0813   21.3407  -30.6401 H   0  0  0  0  0  0  0  0  0  0  0  0
   -8.2901   19.2282  -30.5289 H   0  0  0  0  0  0  0  0  0  0  0  0
   -7.7057   17.0653  -31.6340 H   0  0  0  0  0  0  0  0  0  0  0  0
  1  2  1  0
  2  3  2  0
  3  4  1  0
  4  5  2  0
  5  6  1  0
  6  7  1  0
  7  8  2  0
  8  9  1  0
  9 10  1  0
 10 11  2  0
 10 12  1  0
 12 13  1  0
 13 14  2  0
 14 15  1  0
 15 16  1  0
  8 17  1  0
 17 18  2  0
  5 19  1  0
 19 20  2  0
 20 21  1  0
 21 22  1  0
 22 23  2  0
 23 24  1  0
 24 25  2  0
 25 26  1  0
 26 27  2  0
 26 28  2  0
 26 29  1  0
 29 30  1  0
 30 31  1  0
 31 32  1  0
 32 33  1  0
 32 34  1  0
 34 35  1  0
 25 36  1  0
 36 37  2  0
 20  2  1  0
 37 22  1  0
 18  6  1  0
 35 29  1  0
 16 12  2  0
  1 38  1  0
  1 39  1  0
  1 40  1  0
  3 41  1  0
  7 42  1  0
  9 43  1  0
 13 44  1  0
 14 45  1  0
 16 46  1  0
 17 47  1  0
 23 48  1  0
 24 49  1  0
 30 50  1  0
 30 51  1  0
 31 52  1  0
 31 53  1  0
 33 54  1  0
 33 55  1  0
 33 56  1  0
 34 57  1  0
 34 58  1  0
 35 59  1  0
 35 60  1  0
 36 61  1  0
 37 62  1  0
M  END
>  <UniqueID>  (27) 
25

>  <SMILES>  (27) 
Cc1cnc(-n2cc(NC(=O)c3ccoc3)cn2)nc1Sc1ccc(S(=O)(=O)N2CCN(C)CC2)cc1

>  <Energy>  (27) 
131.22435886404168

>  <Genealogy>  (27) 
Cc1cnc(-n2cc(NC(=O)c3ccoc3)cn2)nc1Sc1ccc(S(=O)(=O)N2CCN(C)CC2)cc1 (3D coordinates assigned)
Cc1cnc(-n2cc(NC(=O)c3ccoc3)cn2)nc1Sc1ccc(S(=O)(=O)N2CCN(C)CC2)cc1 (nonaromatic ring conformer: 131.22435886404168 kcal/mol)

>  <smiles>  (27) 
Cc1cnc(-n2cc(NC(=O)c3ccoc3)cn2)nc1Sc1ccc(S(=O)(=O)N2CCN(C)CC2)cc1

>  <score_type>  (27) 
oracle

>  <origin>  (27) 
adgpu

>  <m_score__min__energy>  (27) 
-10.630000000000001

>  <m_primary>  (27) 
energy

$$$$
27:0
     RDKit          3D

 36 38  0  0  0  0  0  0  0  0999 V2000
   -1.5710   23.4700  -27.3920 O   0  0  0  0  0  0  0  0  0  0  0  0
   -1.1140   24.7840  -27.9640 S   0  0  0  0  0  0  0  0  0  0  0  0
    0.2390   24.6010  -28.5910 O   0  0  0  0  0  0  0  0  0  0  0  0
   -2.2400   25.2950  -29.1800 N   0  0  0  0  0  0  0  0  0  0  0  0
   -3.1390   24.4340  -29.8960 C   0  0  0  0  0  0  0  0  0  0  0  0
   -4.4780   24.7950  -30.1250 C   0  0  0  0  0  0  0  0  0  0  0  0
   -5.3370   23.9460  -30.8390 C   0  0  0  0  0  0  0  0  0  0  0  0
   -4.8460   22.7310  -31.3540 C   0  0  0  0  0  0  0  0  0  0  0  0
   -3.5180   22.3600  -31.1030 C   0  0  0  0  0  0  0  0  0  0  0  0
   -2.6650   23.2030  -30.3850 C   0  0  0  0  0  0  0  0  0  0  0  0
   -1.3460   22.7960  -30.1720 O   0  0  0  0  0  0  0  0  0  0  0  0
   -5.7620   21.7740  -32.0830 C   0  0  0  0  0  0  0  0  0  0  0  0
   -6.9510   22.4430  -32.6290 N   0  0  0  0  0  0  0  0  0  0  0  0
   -7.6290   23.2280  -31.5910 C   0  0  0  0  0  0  0  0  0  0  0  0
   -6.7490   24.3930  -31.1220 C   0  0  0  0  0  0  0  0  0  0  0  0
   -0.9950   26.0050  -26.7010 C   0  0  0  0  0  0  0  0  0  0  0  0
   -0.5430   27.2980  -27.0030 C   0  0  0  0  0  0  0  0  0  0  0  0
   -0.4360   28.2580  -25.9920 C   0  0  0  0  0  0  0  0  0  0  0  0
   -0.7790   27.9320  -24.6770 C   0  0  0  0  0  0  0  0  0  0  0  0
   -1.2340   26.6450  -24.3720 C   0  0  0  0  0  0  0  0  0  0  0  0
   -1.3420   25.6830  -25.3800 C   0  0  0  0  0  0  0  0  0  0  0  0
   -4.8565   25.7535  -29.7403 H   0  0  0  0  0  0  0  0  0  0  0  0
   -3.1430   21.3951  -31.4750 H   0  0  0  0  0  0  0  0  0  0  0  0
   -0.7950   23.1280  -29.3910 H   0  0  0  0  0  0  0  0  0  0  0  0
   -5.2042   21.3131  -32.9115 H   0  0  0  0  0  0  0  0  0  0  0  0
   -6.1042   21.0200  -31.3589 H   0  0  0  0  0  0  0  0  0  0  0  0
   -6.6550   23.0820  -33.4050 H   0  0  0  0  0  0  0  0  0  0  0  0
   -8.5689   23.6284  -31.9988 H   0  0  0  0  0  0  0  0  0  0  0  0
   -7.8310   22.5725  -30.7311 H   0  0  0  0  0  0  0  0  0  0  0  0
   -6.7286   25.1631  -31.9072 H   0  0  0  0  0  0  0  0  0  0  0  0
   -7.1759   24.7919  -30.1900 H   0  0  0  0  0  0  0  0  0  0  0  0
   -0.2722   27.5573  -28.0371 H   0  0  0  0  0  0  0  0  0  0  0  0
   -0.0814   29.2712  -26.2320 H   0  0  0  0  0  0  0  0  0  0  0  0
   -0.6912   28.6873  -23.8821 H   0  0  0  0  0  0  0  0  0  0  0  0
   -1.5072   26.3897  -23.3375 H   0  0  0  0  0  0  0  0  0  0  0  0
   -1.6997   24.6715  -25.1374 H   0  0  0  0  0  0  0  0  0  0  0  0
  1  2  2  0
  2  3  2  0
  2  4  1  0
  4  5  1  0
  5  6  2  0
  6  7  1  0
  7  8  2  0
  8  9  1  0
  9 10  2  0
 10 11  1  0
  8 12  1  0
 12 13  1  0
 13 14  1  0
 14 15  1  0
  2 16  1  0
 16 17  2  0
 17 18  1  0
 18 19  2  0
 19 20  1  0
 20 21  2  0
 10  5  1  0
 21 16  1  0
 15  7  1  0
  6 22  1  0
  9 23  1  0
 11 24  1  0
 12 25  1  0
 12 26  1  0
 13 27  1  0
 14 28  1  0
 14 29  1  0
 15 30  1  0
 15 31  1  0
 17 32  1  0
 18 33  1  0
 19 34  1  0
 20 35  1  0
 21 36  1  0
M  CHG  1   4  -1
M  END
>  <UniqueID>  (28) 
26

>  <SMILES>  (28) 
O=S(=O)([N-]c1cc2c(cc1O)CNCC2)c1ccccc1

>  <Energy>  (28) 
42.84842881403068

>  <Genealogy>  (28) 
O=S(=O)([N-]c1cc2c(cc1O)CNCC2)c1ccccc1 (protonated)
O=S(=O)([N-]c1cc2c(cc1O)CNCC2)c1ccccc1 (3D coordinates assigned)
O=S(=O)([N-]c1cc2c(cc1O)CNCC2)c1ccccc1 (nonaromatic ring conformer: 42.84842881403068 kcal/mol)

>  <smiles>  (28) 
O=S(=O)(Nc1cc2c(cc1O)CNCC2)c1ccccc1

>  <score_type>  (28) 
oracle

>  <origin>  (28) 
adgpu

>  <m_score__min__energy>  (28) 
-9.4600000000000009

>  <m_primary>  (28) 
energy

$$$$
28:0
     RDKit          3D

 36 39  0  0  0  0  0  0  0  0999 V2000
   -8.9410   19.7710  -32.8880 O   0  0  0  0  0  0  0  0  0  0  0  0
   -7.7640   20.2040  -32.7730 C   0  0  0  0  0  0  0  0  0  0  0  0
   -6.5460   19.5630  -33.2620 C   0  0  0  0  0  0  0  0  0  0  0  0
   -6.3740   18.3610  -33.9460 C   0  0  0  0  0  0  0  0  0  0  0  0
   -5.0660   17.9780  -34.2910 C   0  0  0  0  0  0  0  0  0  0  0  0
   -3.9660   18.7930  -33.9470 C   0  0  0  0  0  0  0  0  0  0  0  0
   -4.1620   20.0010  -33.2550 C   0  0  0  0  0  0  0  0  0  0  0  0
   -5.4670   20.3650  -32.9250 C   0  0  0  0  0  0  0  0  0  0  0  0
   -5.9700   21.5400  -32.2130 C   0  0  0  0  0  0  0  0  0  0  0  0
   -5.2820   22.6220  -31.6680 C   0  0  0  0  0  0  0  0  0  0  0  0
   -6.0240   23.6210  -31.0060 C   0  0  0  0  0  0  0  0  0  0  0  0
   -5.2000   24.9840  -30.2510 S   0  0  0  0  0  0  0  0  0  0  0  0
   -5.4730   24.9550  -28.7740 O   0  0  0  0  0  0  0  0  0  0  0  0
   -5.7340   26.2760  -30.8050 O   0  0  0  0  0  0  0  0  0  0  0  0
   -3.4790   24.9100  -30.5100 N   0  0  0  0  0  0  0  0  0  0  0  0
   -2.8410   23.9300  -29.6290 C   0  0  0  0  0  0  0  0  0  0  0  0
   -2.4030   24.5590  -28.3430 C   0  0  0  0  0  0  0  0  0  0  0  0
   -1.2200   25.2410  -28.1390 C   0  0  0  0  0  0  0  0  0  0  0  0
   -1.2450   25.6380  -26.8200 C   0  0  0  0  0  0  0  0  0  0  0  0
   -2.4350   25.1710  -26.3010 C   0  0  0  0  0  0  0  0  0  0  0  0
   -3.1040   24.5310  -27.2330 O   0  0  0  0  0  0  0  0  0  0  0  0
   -7.4310   23.5130  -30.9120 C   0  0  0  0  0  0  0  0  0  0  0  0
   -8.1040   22.4150  -31.4760 C   0  0  0  0  0  0  0  0  0  0  0  0
   -7.3470   21.4410  -32.1210 C   0  0  0  0  0  0  0  0  0  0  0  0
   -7.2363   17.7304  -34.2082 H   0  0  0  0  0  0  0  0  0  0  0  0
   -4.8985   17.0358  -34.8333 H   0  0  0  0  0  0  0  0  0  0  0  0
   -2.9479   18.4806  -34.2224 H   0  0  0  0  0  0  0  0  0  0  0  0
   -3.3100   20.6409  -32.9816 H   0  0  0  0  0  0  0  0  0  0  0  0
   -4.1876   22.6948  -31.7522 H   0  0  0  0  0  0  0  0  0  0  0  0
   -3.5584   23.1258  -29.4085 H   0  0  0  0  0  0  0  0  0  0  0  0
   -1.9529   23.5298  -30.1401 H   0  0  0  0  0  0  0  0  0  0  0  0
   -0.4244   25.4281  -28.8752 H   0  0  0  0  0  0  0  0  0  0  0  0
   -0.4719   26.2117  -26.2878 H   0  0  0  0  0  0  0  0  0  0  0  0
   -2.7725   25.3131  -25.2637 H   0  0  0  0  0  0  0  0  0  0  0  0
   -8.0041   24.2953  -30.3928 H   0  0  0  0  0  0  0  0  0  0  0  0
   -9.1985   22.3280  -31.4094 H   0  0  0  0  0  0  0  0  0  0  0  0
  1  2  2  0
  2  3  1  0
  3  4  2  0
  4  5  1  0
  5  6  2  0
  6  7  1  0
  7  8  2  0
  8  9  1  0
  9 10  2  0
 10 11  1  0
 11 12  1  0
 12 13  2  0
 12 14  2  0
 12 15  1  0
 15 16  1  0
 16 17  1  0
 17 18  2  0
 18 19  1  0
 19 20  2  0
 20 21  1  0
 11 22  2  0
 22 23  1  0
 23 24  2  0
 24  2  1  0
  8  3  1  0
 24  9  1  0
 21 17  1  0
  4 25  1  0
  5 26  1  0
  6 27  1  0
  7 28  1  0
 10 29  1  0
 16 30  1  0
 16 31  1  0
 18 32  1  0
 19 33  1  0
 20 34  1  0
 22 35  1  0
 23 36  1  0
M  CHG  1  15  -1
M  END
>  <UniqueID>  (29) 
27

>  <SMILES>  (29) 
O=C1c2ccccc2-c2cc(S(=O)(=O)[N-]Cc3ccco3)ccc21

>  <Energy>  (29) 
97.52945870161122

>  <Genealogy>  (29) 
O=C1c2ccccc2-c2cc(S(=O)(=O)[N-]Cc3ccco3)ccc21 (protonated)
O=C1c2ccccc2-c2cc(S(=O)(=O)[N-]Cc3ccco3)ccc21 (3D coordinates assigned)
O=C1c2ccccc2-c2cc(S(=O)(=O)[N-]Cc3ccco3)ccc21 (nonaromatic ring conformer: 97.52945870161122 kcal/mol)

>  <smiles>  (29) 
O=C1c2ccccc2-c2cc(S(=O)(=O)NCc3ccco3)ccc21

>  <score_type>  (29) 
oracle

>  <origin>  (29) 
adgpu

>  <m_score__min__energy>  (29) 
-11.880000000000001

>  <m_primary>  (29) 
energy

$$$$
29:0
     RDKit          3D

 42 44  0  0  0  0  0  0  0  0999 V2000
   -3.9190   25.4140  -30.8210 O   0  0  0  0  0  0  0  0  0  0  0  0
   -4.7410   24.3630  -30.1290 S   0  0  0  0  0  0  0  0  0  0  0  0
   -5.2700   24.9370  -28.8430 O   0  0  0  0  0  0  0  0  0  0  0  0
   -3.7110   22.9750  -29.7830 C   0  0  0  0  0  0  0  0  0  0  0  0
   -2.7470   22.5540  -30.7110 C   0  0  0  0  0  0  0  0  0  0  0  0
   -1.9200   21.4650  -30.4190 C   0  0  0  0  0  0  0  0  0  0  0  0
   -2.0490   20.7940  -29.1990 C   0  0  0  0  0  0  0  0  0  0  0  0
   -3.0040   21.2160  -28.2680 C   0  0  0  0  0  0  0  0  0  0  0  0
   -3.1250   20.5690  -27.0820 F   0  0  0  0  0  0  0  0  0  0  0  0
   -3.8320   22.3050  -28.5580 C   0  0  0  0  0  0  0  0  0  0  0  0
   -6.0660   23.8790  -31.1600 N   0  0  0  0  0  0  0  0  0  0  0  0
   -5.5970   22.8840  -32.1510 C   0  0  0  0  0  0  0  0  0  0  0  0
   -6.7720   22.1120  -32.7570 C   0  0  0  0  0  0  0  0  0  0  0  0
   -7.5080   21.2480  -31.6740 C   0  0  0  0  0  0  0  0  0  0  0  0
   -6.8890   19.8090  -31.6500 C   0  0  0  0  0  0  0  0  0  0  0  0
   -7.9180   18.7650  -31.2170 C   0  0  0  0  0  0  0  0  0  0  0  0
   -9.1120   18.7340  -32.1970 C   0  0  0  0  0  0  0  0  0  0  0  0
   -9.3310   20.0160  -32.8950 N   0  0  0  0  0  0  0  0  0  0  0  0
   -9.0370   21.1620  -32.0240 C   0  0  0  0  0  0  0  0  0  0  0  0
   -7.3360   21.9060  -30.2610 C   0  0  0  0  0  0  0  0  0  0  0  0
   -7.2330   23.4360  -30.3570 C   0  0  0  0  0  0  0  0  0  0  0  0
   -2.6414   23.0817  -31.6704 H   0  0  0  0  0  0  0  0  0  0  0  0
   -1.1669   21.1357  -31.1500 H   0  0  0  0  0  0  0  0  0  0  0  0
   -1.4002   19.9353  -28.9716 H   0  0  0  0  0  0  0  0  0  0  0  0
   -4.5801   22.6365  -27.8229 H   0  0  0  0  0  0  0  0  0  0  0  0
   -5.0569   23.4052  -32.9551 H   0  0  0  0  0  0  0  0  0  0  0  0
   -4.9354   22.1685  -31.6408 H   0  0  0  0  0  0  0  0  0  0  0  0
   -7.4861   22.8283  -33.1894 H   0  0  0  0  0  0  0  0  0  0  0  0
   -6.3800   21.4363  -33.5314 H   0  0  0  0  0  0  0  0  0  0  0  0
   -6.5276   19.5583  -32.6582 H   0  0  0  0  0  0  0  0  0  0  0  0
   -6.0619   19.8006  -30.9248 H   0  0  0  0  0  0  0  0  0  0  0  0
   -7.4408   17.7741  -31.1982 H   0  0  0  0  0  0  0  0  0  0  0  0
   -8.2896   19.0294  -30.2160 H   0  0  0  0  0  0  0  0  0  0  0  0
   -8.9247   17.9545  -32.9502 H   0  0  0  0  0  0  0  0  0  0  0  0
  -10.0147   18.5296  -31.6026 H   0  0  0  0  0  0  0  0  0  0  0  0
   -8.7140   20.0620  -33.7390 H   0  0  0  0  0  0  0  0  0  0  0  0
   -9.3377   22.0869  -32.5380 H   0  0  0  0  0  0  0  0  0  0  0  0
   -9.5969   21.0326  -31.0861 H   0  0  0  0  0  0  0  0  0  0  0  0
   -8.2042   21.6453  -29.6380 H   0  0  0  0  0  0  0  0  0  0  0  0
   -6.4044   21.5262  -29.8163 H   0  0  0  0  0  0  0  0  0  0  0  0
   -8.1503   23.8224  -30.8253 H   0  0  0  0  0  0  0  0  0  0  0  0
   -7.1036   23.8264  -29.3368 H   0  0  0  0  0  0  0  0  0  0  0  0
  1  2  2  0
  2  3  2  0
  2  4  1  0
  4  5  2  0
  5  6  1  0
  6  7  2  0
  7  8  1  0
  8  9  1  0
  8 10  2  0
  2 11  1  0
 11 12  1  0
 12 13  1  0
 13 14  1  0
 14 15  1  0
 15 16  1  0
 16 17  1  0
 17 18  1  0
 18 19  1  0
 14 20  1  0
 20 21  1  0
 10  4  1  0
 21 11  1  0
 19 14  1  0
  5 22  1  0
  6 23  1  0
  7 24  1  0
 10 25  1  0
 12 26  1  0
 12 27  1  0
 13 28  1  0
 13 29  1  0
 15 30  1  0
 15 31  1  0
 16 32  1  0
 16 33  1  0
 17 34  1  0
 17 35  1  0
 18 36  1  0
 19 37  1  0
 19 38  1  0
 20 39  1  0
 20 40  1  0
 21 41  1  0
 21 42  1  0
M  END
>  <UniqueID>  (30) 
28

>  <SMILES>  (30) 
O=S(=O)(c1cccc(F)c1)N1CCC2(CCCNC2)CC1

>  <Energy>  (30) 
59.30632972376808

>  <Genealogy>  (30) 
O=S(=O)(c1cccc(F)c1)N1CCC2(CCCNC2)CC1 (3D coordinates assigned)
O=S(=O)(c1cccc(F)c1)N1CCC2(CCCNC2)CC1 (nonaromatic ring conformer: 59.30632972376808 kcal/mol)

>  <smiles>  (30) 
O=S(=O)(c1cccc(F)c1)N1CCC2(CCCNC2)CC1

>  <score_type>  (30) 
oracle

>  <origin>  (30) 
adgpu

>  <m_score__min__energy>  (30) 
-9.0600000000000005

>  <m_primary>  (30) 
energy

$$$$
30:0
     RDKit          3D

 50 52  0  0  0  0  0  0  0  0999 V2000
   -0.2850   22.3470  -26.3200 C   0  0  0  0  0  0  0  0  0  0  0  0
    0.3720   23.2040  -27.3990 C   0  0  0  0  0  0  0  0  0  0  0  0
   -0.6320   23.7240  -28.3380 N   0  0  0  0  0  0  0  0  0  0  0  0
   -0.9070   22.7430  -29.3990 C   0  0  0  0  0  0  0  0  0  0  0  0
   -2.2870   22.9590  -29.9720 C   0  0  0  0  0  0  0  0  0  0  0  0
   -2.9440   21.8980  -30.6200 C   0  0  0  0  0  0  0  0  0  0  0  0
   -4.2120   22.0880  -31.1890 C   0  0  0  0  0  0  0  0  0  0  0  0
   -5.0540   20.7530  -31.9750 S   0  0  0  0  0  0  0  0  0  0  0  0
   -4.5180   20.6570  -33.3740 O   0  0  0  0  0  0  0  0  0  0  0  0
   -4.7470   19.4770  -31.2440 O   0  0  0  0  0  0  0  0  0  0  0  0
   -6.8110   21.0270  -31.9710 C   0  0  0  0  0  0  0  0  0  0  0  0
   -7.2620   22.3600  -31.9730 C   0  0  0  0  0  0  0  0  0  0  0  0
   -8.6240   22.6580  -31.9720 C   0  0  0  0  0  0  0  0  0  0  0  0
   -9.5610   21.6300  -31.9620 C   0  0  0  0  0  0  0  0  0  0  0  0
   -9.1410   20.3020  -31.9410 C   0  0  0  0  0  0  0  0  0  0  0  0
   -7.7720   19.9760  -31.9350 C   0  0  0  0  0  0  0  0  0  0  0  0
   -7.3400   18.2540  -31.8670 S   0  0  0  0  0  0  0  0  0  0  0  0
   -6.7290   17.9260  -30.5330 O   0  0  0  0  0  0  0  0  0  0  0  0
   -8.5840   17.4250  -32.0260 O   0  0  0  0  0  0  0  0  0  0  0  0
   -6.1470   17.8520  -33.0970 C   0  0  0  0  0  0  0  0  0  0  0  0
   -6.1900   18.4560  -34.3630 C   0  0  0  0  0  0  0  0  0  0  0  0
   -5.2330   18.1300  -35.3290 C   0  0  0  0  0  0  0  0  0  0  0  0
   -4.2360   17.1940  -35.0400 C   0  0  0  0  0  0  0  0  0  0  0  0
   -4.1950   16.5810  -33.7840 C   0  0  0  0  0  0  0  0  0  0  0  0
   -5.1490   16.9070  -32.8150 C   0  0  0  0  0  0  0  0  0  0  0  0
   -4.8240   23.3450  -31.1110 C   0  0  0  0  0  0  0  0  0  0  0  0
   -4.1710   24.4090  -30.4840 C   0  0  0  0  0  0  0  0  0  0  0  0
   -2.9040   24.2240  -29.9210 C   0  0  0  0  0  0  0  0  0  0  0  0
   -2.2650   25.3010  -29.3160 O   0  0  0  0  0  0  0  0  0  0  0  0
    0.0032   22.7229  -25.3272 H   0  0  0  0  0  0  0  0  0  0  0  0
   -1.3786   22.3967  -26.4276 H   0  0  0  0  0  0  0  0  0  0  0  0
    0.0470   21.3038  -26.4276 H   0  0  0  0  0  0  0  0  0  0  0  0
    0.8908   24.0486  -26.9220 H   0  0  0  0  0  0  0  0  0  0  0  0
    1.0862   22.5807  -27.9570 H   0  0  0  0  0  0  0  0  0  0  0  0
   -0.2740   24.6080  -28.7730 H   0  0  0  0  0  0  0  0  0  0  0  0
   -1.5190   23.9280  -27.8180 H   0  0  0  0  0  0  0  0  0  0  0  0
   -0.1607   22.8560  -30.1992 H   0  0  0  0  0  0  0  0  0  0  0  0
   -0.8530   21.7310  -28.9714 H   0  0  0  0  0  0  0  0  0  0  0  0
   -2.4602   20.9120  -30.6812 H   0  0  0  0  0  0  0  0  0  0  0  0
   -6.5285   23.1797  -31.9754 H   0  0  0  0  0  0  0  0  0  0  0  0
   -8.9576   23.7062  -31.9791 H   0  0  0  0  0  0  0  0  0  0  0  0
  -10.6353   21.8661  -31.9707 H   0  0  0  0  0  0  0  0  0  0  0  0
   -9.8901   19.4966  -31.9289 H   0  0  0  0  0  0  0  0  0  0  0  0
   -6.9780   19.1873  -34.5959 H   0  0  0  0  0  0  0  0  0  0  0  0
   -5.2648   18.6109  -36.3178 H   0  0  0  0  0  0  0  0  0  0  0  0
   -3.4834   16.9396  -35.8009 H   0  0  0  0  0  0  0  0  0  0  0  0
   -3.4121   15.8421  -33.5581 H   0  0  0  0  0  0  0  0  0  0  0  0
   -5.1169   16.4211  -31.8287 H   0  0  0  0  0  0  0  0  0  0  0  0
   -5.8234   23.4953  -31.5453 H   0  0  0  0  0  0  0  0  0  0  0  0
   -4.6548   25.3956  -30.4329 H   0  0  0  0  0  0  0  0  0  0  0  0
  1  2  1  0
  2  3  1  0
  3  4  1  0
  4  5  1  0
  5  6  2  0
  6  7  1  0
  7  8  1  0
  8  9  2  0
  8 10  2  0
  8 11  1  0
 11 12  2  0
 12 13  1  0
 13 14  2  0
 14 15  1  0
 15 16  2  0
 16 17  1  0
 17 18  2  0
 17 19  2  0
 17 20  1  0
 20 21  2  0
 21 22  1  0
 22 23  2  0
 23 24  1  0
 24 25  2  0
  7 26  2  0
 26 27  1  0
 27 28  2  0
 28 29  1  0
 28  5  1  0
 16 11  1  0
 25 20  1  0
  1 30  1  0
  1 31  1  0
  1 32  1  0
  2 33  1  0
  2 34  1  0
  3 35  1  0
  3 36  1  0
  4 37  1  0
  4 38  1  0
  6 39  1  0
 12 40  1  0
 13 41  1  0
 14 42  1  0
 15 43  1  0
 21 44  1  0
 22 45  1  0
 23 46  1  0
 24 47  1  0
 25 48  1  0
 26 49  1  0
 27 50  1  0
M  CHG  2   3   1  29  -1
M  END
>  <UniqueID>  (31) 
29

>  <SMILES>  (31) 
CC[NH2+]Cc1cc(S(=O)(=O)c2ccccc2S(=O)(=O)c2ccccc2)ccc1[O-]

>  <Energy>  (31) 
56.80522458891736

>  <Genealogy>  (31) 
CC[NH2+]Cc1cc(S(=O)(=O)c2ccccc2S(=O)(=O)c2ccccc2)ccc1[O-] (protonated)
CC[NH2+]Cc1cc(S(=O)(=O)c2ccccc2S(=O)(=O)c2ccccc2)ccc1[O-] (3D coordinates assigned)
CC[NH2+]Cc1cc(S(=O)(=O)c2ccccc2S(=O)(=O)c2ccccc2)ccc1[O-] (optimized conformer: 56.80522458891736 kcal/mol)

>  <smiles>  (31) 
CCNCc1cc(S(=O)(=O)c2ccccc2S(=O)(=O)c2ccccc2)ccc1O

>  <score_type>  (31) 
oracle

>  <origin>  (31) 
adgpu

>  <m_score__min__energy>  (31) 
-10.539999999999999

>  <m_primary>  (31) 
energy

$$$$
31:0
     RDKit          3D

 33 35  0  0  0  0  0  0  0  0999 V2000
   -2.6100   20.4330  -32.6810 C   0  0  0  0  0  0  0  0  0  0  0  0
   -3.9770   19.9150  -33.0520 C   0  0  0  0  0  0  0  0  0  0  0  0
   -4.0850   18.9230  -34.0430 C   0  0  0  0  0  0  0  0  0  0  0  0
   -5.3340   18.4180  -34.4110 C   0  0  0  0  0  0  0  0  0  0  0  0
   -6.4930   18.8920  -33.7970 C   0  0  0  0  0  0  0  0  0  0  0  0
   -6.4130   19.8760  -32.8090 C   0  0  0  0  0  0  0  0  0  0  0  0
   -7.5280   20.3160  -32.2360 O   0  0  0  0  0  0  0  0  0  0  0  0
   -7.5370   21.2470  -31.2880 C   0  0  0  0  0  0  0  0  0  0  0  0
   -8.6400   21.6090  -30.8000 O   0  0  0  0  0  0  0  0  0  0  0  0
   -6.3310   21.8170  -30.8400 C   0  0  0  0  0  0  0  0  0  0  0  0
   -6.2950   22.8720  -29.7590 C   0  0  0  0  0  0  0  0  0  0  0  0
   -5.1400   23.8150  -29.9660 C   0  0  0  0  0  0  0  0  0  0  0  0
   -3.8650   23.7700  -29.4190 C   0  0  0  0  0  0  0  0  0  0  0  0
   -3.3220   22.7420  -28.4690 C   0  0  0  0  0  0  0  0  0  0  0  0
   -3.0760   21.5570  -29.1380 F   0  0  0  0  0  0  0  0  0  0  0  0
   -2.1470   23.2080  -27.9100 F   0  0  0  0  0  0  0  0  0  0  0  0
   -4.2320   22.4960  -27.4580 F   0  0  0  0  0  0  0  0  0  0  0  0
   -3.1290   24.7640  -29.9600 N   0  0  0  0  0  0  0  0  0  0  0  0
   -3.8630   25.4510  -30.8210 N   0  0  0  0  0  0  0  0  0  0  0  0
   -5.0830   24.8860  -30.8380 C   0  0  0  0  0  0  0  0  0  0  0  0
   -6.0270   25.2880  -31.5670 O   0  0  0  0  0  0  0  0  0  0  0  0
   -5.1350   21.3850  -31.4300 C   0  0  0  0  0  0  0  0  0  0  0  0
   -5.1550   20.3980  -32.4270 C   0  0  0  0  0  0  0  0  0  0  0  0
   -2.5162   20.4685  -31.5856 H   0  0  0  0  0  0  0  0  0  0  0  0
   -1.8401   19.7643  -33.0934 H   0  0  0  0  0  0  0  0  0  0  0  0
   -2.4766   21.4440  -33.0934 H   0  0  0  0  0  0  0  0  0  0  0  0
   -3.1771   18.5412  -34.5329 H   0  0  0  0  0  0  0  0  0  0  0  0
   -5.4039   17.6430  -35.1885 H   0  0  0  0  0  0  0  0  0  0  0  0
   -7.4734   18.4896  -34.0918 H   0  0  0  0  0  0  0  0  0  0  0  0
   -7.2348   23.4433  -29.7820 H   0  0  0  0  0  0  0  0  0  0  0  0
   -6.1715   22.3738  -28.7861 H   0  0  0  0  0  0  0  0  0  0  0  0
   -2.1250   24.9710  -29.7600 H   0  0  0  0  0  0  0  0  0  0  0  0
   -4.1773   21.8214  -31.1101 H   0  0  0  0  0  0  0  0  0  0  0  0
  1  2  1  0
  2  3  2  0
  3  4  1  0
  4  5  2  0
  5  6  1  0
  6  7  1  0
  7  8  1  0
  8  9  2  0
  8 10  1  0
 10 11  1  0
 11 12  1  0
 12 13  2  0
 13 14  1  0
 14 15  1  0
 14 16  1  0
 14 17  1  0
 13 18  1  0
 18 19  1  0
 19 20  1  0
 20 21  2  0
 10 22  2  0
 22 23  1  0
 23  2  1  0
 23  6  2  0
 20 12  1  0
  1 24  1  0
  1 25  1  0
  1 26  1  0
  3 27  1  0
  4 28  1  0
  5 29  1  0
 11 30  1  0
 11 31  1  0
 18 32  1  0
 22 33  1  0
M  CHG  1  19  -1
M  END
>  <UniqueID>  (32) 
30

>  <SMILES>  (32) 
Cc1cccc2oc(=O)c(Cc3c(C(F)(F)F)[nH][n-]c3=O)cc12

>  <Energy>  (32) 
71.52280611363021

>  <Genealogy>  (32) 
Cc1cccc2oc(=O)c(Cc3c(C(F)(F)F)[nH][n-]c3=O)cc12 (protonated)
Cc1cccc2oc(=O)c(Cc3c(C(F)(F)F)[nH][n-]c3=O)cc12 (3D coordinates assigned)
Cc1cccc2oc(=O)c(Cc3c(C(F)(F)F)[nH][n-]c3=O)cc12 (optimized conformer: 71.52280611363021 kcal/mol)

>  <smiles>  (32) 
Cc1cccc2oc(=O)c(Cc3c(C(F)(F)F)[nH][nH]c3=O)cc12

>  <score_type>  (32) 
oracle

>  <origin>  (32) 
adgpu

>  <m_score__min__energy>  (32) 
-8.8000000000000007

>  <m_primary>  (32) 
energy

$$$$
32:0
     RDKit          3D

 51 53  0  0  0  0  0  0  0  0999 V2000
   -6.0170   17.2770  -34.6950 C   0  0  0  0  0  0  0  0  0  0  0  0
   -5.7410   18.2610  -33.6470 N   0  0  0  0  0  0  0  0  0  0  0  0
   -6.8270   18.8620  -32.9170 C   0  0  0  0  0  0  0  0  0  0  0  0
   -7.5870   18.0970  -32.0140 C   0  0  0  0  0  0  0  0  0  0  0  0
   -8.6450   18.6780  -31.3100 C   0  0  0  0  0  0  0  0  0  0  0  0
   -8.9490   20.0290  -31.4930 C   0  0  0  0  0  0  0  0  0  0  0  0
   -8.1970   20.8000  -32.3790 C   0  0  0  0  0  0  0  0  0  0  0  0
   -7.1410   20.2220  -33.0890 C   0  0  0  0  0  0  0  0  0  0  0  0
   -4.0950   18.7130  -33.2970 S   0  0  0  0  0  0  0  0  0  0  0  0
   -3.3410   18.8360  -34.5930 O   0  0  0  0  0  0  0  0  0  0  0  0
   -3.4290   17.6560  -32.4590 O   0  0  0  0  0  0  0  0  0  0  0  0
   -4.0770   20.2430  -32.4300 C   0  0  0  0  0  0  0  0  0  0  0  0
   -3.9190   20.2520  -31.0390 C   0  0  0  0  0  0  0  0  0  0  0  0
   -4.0230   21.4490  -30.3270 C   0  0  0  0  0  0  0  0  0  0  0  0
   -4.2930   22.6490  -31.0010 C   0  0  0  0  0  0  0  0  0  0  0  0
   -4.5770   24.1330  -30.0960 S   0  0  0  0  0  0  0  0  0  0  0  0
   -5.9280   24.0630  -29.4390 O   0  0  0  0  0  0  0  0  0  0  0  0
   -4.5830   25.3020  -31.0410 O   0  0  0  0  0  0  0  0  0  0  0  0
   -3.3350   24.3670  -28.8820 N   0  0  0  0  0  0  0  0  0  0  0  0
   -2.0680   23.7010  -29.2830 C   0  0  0  0  0  0  0  0  0  0  0  0
   -0.8150   24.1000  -28.4640 C   0  0  0  0  0  0  0  0  0  0  0  0
   -0.9990   25.2620  -27.4540 C   0  0  0  0  0  0  0  0  0  0  0  0
   -1.8300   24.9290  -26.2030 C   0  0  0  0  0  0  0  0  0  0  0  0
   -3.3540   24.9270  -26.4330 C   0  0  0  0  0  0  0  0  0  0  0  0
   -3.8620   24.0020  -27.5520 C   0  0  0  0  0  0  0  0  0  0  0  0
   -4.4120   22.6450  -32.3980 C   0  0  0  0  0  0  0  0  0  0  0  0
   -4.3040   21.4490  -33.1100 C   0  0  0  0  0  0  0  0  0  0  0  0
   -6.2867   16.3156  -34.2335 H   0  0  0  0  0  0  0  0  0  0  0  0
   -6.8506   17.6305  -35.3195 H   0  0  0  0  0  0  0  0  0  0  0  0
   -5.1211   17.1454  -35.3195 H   0  0  0  0  0  0  0  0  0  0  0  0
   -7.3470   17.0345  -31.8610 H   0  0  0  0  0  0  0  0  0  0  0  0
   -9.2390   18.0709  -30.6110 H   0  0  0  0  0  0  0  0  0  0  0  0
   -9.7820   20.4851  -30.9380 H   0  0  0  0  0  0  0  0  0  0  0  0
   -8.4354   21.8647  -32.5192 H   0  0  0  0  0  0  0  0  0  0  0  0
   -6.5516   20.8348  -33.7869 H   0  0  0  0  0  0  0  0  0  0  0  0
   -3.7122   19.3129  -30.5049 H   0  0  0  0  0  0  0  0  0  0  0  0
   -3.8928   21.4506  -29.2347 H   0  0  0  0  0  0  0  0  0  0  0  0
   -2.2087   22.6150  -29.1792 H   0  0  0  0  0  0  0  0  0  0  0  0
   -1.8698   24.0266  -30.3149 H   0  0  0  0  0  0  0  0  0  0  0  0
   -0.4864   23.2143  -27.9004 H   0  0  0  0  0  0  0  0  0  0  0  0
   -0.0847   24.4639  -29.2017 H   0  0  0  0  0  0  0  0  0  0  0  0
   -0.0007   25.5831  -27.1218 H   0  0  0  0  0  0  0  0  0  0  0  0
   -1.5607   26.0411  -27.9902 H   0  0  0  0  0  0  0  0  0  0  0  0
   -1.5341   23.9303  -25.8492 H   0  0  0  0  0  0  0  0  0  0  0  0
   -1.6243   25.7222  -25.4692 H   0  0  0  0  0  0  0  0  0  0  0  0
   -3.8364   24.6171  -25.4942 H   0  0  0  0  0  0  0  0  0  0  0  0
   -3.6089   25.9485  -26.7517 H   0  0  0  0  0  0  0  0  0  0  0  0
   -3.5533   22.9714  -27.3228 H   0  0  0  0  0  0  0  0  0  0  0  0
   -4.9567   24.1019  -27.5917 H   0  0  0  0  0  0  0  0  0  0  0  0
   -4.5912   23.5880  -32.9352 H   0  0  0  0  0  0  0  0  0  0  0  0
   -4.3970   21.4522  -34.2061 H   0  0  0  0  0  0  0  0  0  0  0  0
  1  2  1  0
  2  3  1  0
  3  4  2  0
  4  5  1  0
  5  6  2  0
  6  7  1  0
  7  8  2  0
  2  9  1  0
  9 10  2  0
  9 11  2  0
  9 12  1  0
 12 13  2  0
 13 14  1  0
 14 15  2  0
 15 16  1  0
 16 17  2  0
 16 18  2  0
 16 19  1  0
 19 20  1  0
 20 21  1  0
 21 22  1  0
 22 23  1  0
 23 24  1  0
 24 25  1  0
 15 26  1  0
 26 27  2  0
  8  3  1  0
 27 12  1  0
 25 19  1  0
  1 28  1  0
  1 29  1  0
  1 30  1  0
  4 31  1  0
  5 32  1  0
  6 33  1  0
  7 34  1  0
  8 35  1  0
 13 36  1  0
 14 37  1  0
 20 38  1  0
 20 39  1  0
 21 40  1  0
 21 41  1  0
 22 42  1  0
 22 43  1  0
 23 44  1  0
 23 45  1  0
 24 46  1  0
 24 47  1  0
 25 48  1  0
 25 49  1  0
 26 50  1  0
 27 51  1  0
M  END
>  <UniqueID>  (33) 
31

>  <SMILES>  (33) 
CN(c1ccccc1)S(=O)(=O)c1ccc(S(=O)(=O)N2CCCCCC2)cc1

>  <Energy>  (33) 
67.14259668705822

>  <Genealogy>  (33) 
CN(c1ccccc1)S(=O)(=O)c1ccc(S(=O)(=O)N2CCCCCC2)cc1 (3D coordinates assigned)
CN(c1ccccc1)S(=O)(=O)c1ccc(S(=O)(=O)N2CCCCCC2)cc1 (nonaromatic ring conformer: 67.14259668705822 kcal/mol)

>  <smiles>  (33) 
CN(c1ccccc1)S(=O)(=O)c1ccc(S(=O)(=O)N2CCCCCC2)cc1

>  <score_type>  (33) 
oracle

>  <origin>  (33) 
adgpu

>  <m_score__min__energy>  (33) 
-8.0600000000000005

>  <m_primary>  (33) 
energy

$$$$
33:0
     RDKit          3D

 45 47  0  0  0  0  0  0  0  0999 V2000
   -8.0640   24.7860  -31.2770 H   0  0  0  0  0  0  0  0  0  0  0  0
   -8.3030   23.8070  -31.5440 N   0  0  0  0  0  0  0  0  0  0  0  0
   -7.4890   22.7990  -31.4590 C   0  0  0  0  0  0  0  0  0  0  0  0
   -7.9520   21.5380  -31.8560 C   0  0  0  0  0  0  0  0  0  0  0  0
   -8.9801   21.4209  -32.2293 H   0  0  0  0  0  0  0  0  0  0  0  0
   -7.1060   20.4300  -31.7770 C   0  0  0  0  0  0  0  0  0  0  0  0
   -7.6830   18.8410  -32.2470 S   0  0  0  0  0  0  0  0  0  0  0  0
   -8.9610   18.9760  -33.0260 O   0  0  0  0  0  0  0  0  0  0  0  0
   -7.9600   18.0230  -31.0170 O   0  0  0  0  0  0  0  0  0  0  0  0
   -6.4670   18.0560  -33.2490 C   0  0  0  0  0  0  0  0  0  0  0  0
   -6.4900   16.6660  -33.4330 C   0  0  0  0  0  0  0  0  0  0  0  0
   -7.2798   16.0625  -32.9617 H   0  0  0  0  0  0  0  0  0  0  0  0
   -5.5100   16.0460  -34.2150 C   0  0  0  0  0  0  0  0  0  0  0  0
   -5.5329   14.9561  -34.3618 H   0  0  0  0  0  0  0  0  0  0  0  0
   -4.5020   16.8090  -34.8100 C   0  0  0  0  0  0  0  0  0  0  0  0
   -3.7334   16.3199  -35.4265 H   0  0  0  0  0  0  0  0  0  0  0  0
   -4.4700   18.1940  -34.6220 C   0  0  0  0  0  0  0  0  0  0  0  0
   -3.6747   18.7940  -35.0884 H   0  0  0  0  0  0  0  0  0  0  0  0
   -5.4490   18.8170  -33.8410 C   0  0  0  0  0  0  0  0  0  0  0  0
   -5.4202   19.9063  -33.6909 H   0  0  0  0  0  0  0  0  0  0  0  0
   -5.8390   20.5780  -31.3120 N   0  0  0  0  0  0  0  0  0  0  0  0
   -5.3540   21.7840  -30.9190 C   0  0  0  0  0  0  0  0  0  0  0  0
   -4.3207   21.8629  -30.5501 H   0  0  0  0  0  0  0  0  0  0  0  0
   -6.1610   22.9300  -30.9800 C   0  0  0  0  0  0  0  0  0  0  0  0
   -5.4970   24.4780  -30.4290 S   0  0  0  0  0  0  0  0  0  0  0  0
   -6.5860   25.2580  -29.7480 O   0  0  0  0  0  0  0  0  0  0  0  0
   -4.9920   25.2810  -31.5970 O   0  0  0  0  0  0  0  0  0  0  0  0
   -4.1520   24.1920  -29.3280 C   0  0  0  0  0  0  0  0  0  0  0  0
   -2.8680   23.9600  -29.8390 C   0  0  0  0  0  0  0  0  0  0  0  0
   -2.7022   23.9652  -30.9264 H   0  0  0  0  0  0  0  0  0  0  0  0
   -1.7970   23.7220  -28.9730 C   0  0  0  0  0  0  0  0  0  0  0  0
   -0.7924   23.5393  -29.3821 H   0  0  0  0  0  0  0  0  0  0  0  0
   -1.9980   23.7150  -27.5790 C   0  0  0  0  0  0  0  0  0  0  0  0
   -0.9620   23.4800  -26.6610 O   0  0  0  0  0  0  0  0  0  0  0  0
   -0.8170   22.3130  -25.8520 C   0  0  0  0  0  0  0  0  0  0  0  0
   -1.8034   21.8471  -25.7107 H   0  0  0  0  0  0  0  0  0  0  0  0
   -0.1335   21.6154  -26.3581 H   0  0  0  0  0  0  0  0  0  0  0  0
   -0.2320   22.6690  -24.4890 C   0  0  0  0  0  0  0  0  0  0  0  0
   -0.8830   22.2728  -23.6958 H   0  0  0  0  0  0  0  0  0  0  0  0
    0.7713   22.2282  -24.3942 H   0  0  0  0  0  0  0  0  0  0  0  0
   -0.1625   23.7627  -24.3942 H   0  0  0  0  0  0  0  0  0  0  0  0
   -3.2820   23.9600  -27.0760 C   0  0  0  0  0  0  0  0  0  0  0  0
   -3.4491   23.9659  -25.9888 H   0  0  0  0  0  0  0  0  0  0  0  0
   -4.3530   24.1970  -27.9420 C   0  0  0  0  0  0  0  0  0  0  0  0
   -5.3565   24.3880  -27.5339 H   0  0  0  0  0  0  0  0  0  0  0  0
  1  2  1  0
  2  3  2  0
  3  4  1  0
  4  5  1  0
  4  6  2  0
  6  7  1  0
  7  8  2  0
  7  9  2  0
  7 10  1  0
 10 11  2  0
 11 12  1  0
 11 13  1  0
 13 14  1  0
 13 15  2  0
 15 16  1  0
 15 17  1  0
 17 18  1  0
 17 19  2  0
 19 20  1  0
  6 21  1  0
 21 22  1  0
 22 23  1  0
 22 24  2  0
 24 25  1  0
 25 26  2  0
 25 27  2  0
 25 28  1  0
 28 29  2  0
 29 30  1  0
 29 31  1  0
 31 32  1  0
 31 33  2  0
 33 34  1  0
 34 35  1  0
 35 36  1  0
 35 37  1  0
 35 38  1  0
 38 39  1  0
 38 40  1  0
 38 41  1  0
 33 42  1  0
 42 43  1  0
 42 44  2  0
 44 45  1  0
 24  3  1  0
 44 28  1  0
 19 10  1  0
M  CHG  1  21  -1
M  END
>  <UniqueID>  (34) 
32

>  <SMILES>  (34) 
[H]/N=c1/cc(S(=O)(=O)c2ccccc2)[n-]cc1S(=O)(=O)c1ccc(OCC)cc1

>  <Energy>  (34) 
52.914831710571

>  <Genealogy>  (34) 
CCOc1ccc(S(=O)(=O)c2c[n-]c(S(=O)(=O)c3ccccc3)cc2=N)cc1 (protonated)
[H]/N=c1/cc(S(=O)(=O)c2ccccc2)[n-]cc1S(=O)(=O)c1ccc(OCC)cc1 (cis-trans isomerization)
[H]/N=c1/cc(S(=O)(=O)c2ccccc2)[n-]cc1S(=O)(=O)c1ccc(OCC)cc1 (3D coordinates assigned)
[H]/N=c1/cc(S(=O)(=O)c2ccccc2)[n-]cc1S(=O)(=O)c1ccc(OCC)cc1 (optimized conformer: 52.914831710571 kcal/mol)

>  <smiles>  (34) 
CCOc1ccc(S(=O)(=O)c2c[nH]c(S(=O)(=O)c3ccccc3)cc2=N)cc1

>  <score_type>  (34) 
oracle

>  <origin>  (34) 
adgpu

>  <m_score__min__energy>  (34) 
-10.15

>  <m_primary>  (34) 
energy

$$$$
34:0
     RDKit          3D

 38 41  0  0  0  0  0  0  0  0999 V2000
   -5.3730   26.4600  -30.5150 O   0  0  0  0  0  0  0  0  0  0  0  0
   -4.9090   25.2920  -30.5750 C   0  0  0  0  0  0  0  0  0  0  0  0
   -3.4930   25.1030  -30.4570 N   0  0  0  0  0  0  0  0  0  0  0  0
   -2.8330   24.1810  -29.5740 C   0  0  0  0  0  0  0  0  0  0  0  0
   -2.5310   24.5530  -28.2510 C   0  0  0  0  0  0  0  0  0  0  0  0
   -1.8730   23.6680  -27.3970 C   0  0  0  0  0  0  0  0  0  0  0  0
   -1.4900   22.4060  -27.8490 C   0  0  0  0  0  0  0  0  0  0  0  0
   -1.7570   22.0190  -29.1700 C   0  0  0  0  0  0  0  0  0  0  0  0
   -1.3630   20.7530  -29.6290 C   0  0  0  0  0  0  0  0  0  0  0  0
   -1.6280   20.3680  -30.9450 C   0  0  0  0  0  0  0  0  0  0  0  0
   -2.2880   21.2410  -31.8120 C   0  0  0  0  0  0  0  0  0  0  0  0
   -2.6890   22.5050  -31.3690 C   0  0  0  0  0  0  0  0  0  0  0  0
   -2.4290   22.9130  -30.0460 C   0  0  0  0  0  0  0  0  0  0  0  0
   -5.8320   24.1700  -30.8230 C   0  0  0  0  0  0  0  0  0  0  0  0
   -7.1530   24.0840  -30.4250 C   0  0  0  0  0  0  0  0  0  0  0  0
   -7.5990   22.8550  -30.8620 C   0  0  0  0  0  0  0  0  0  0  0  0
   -6.5180   22.2610  -31.4970 C   0  0  0  0  0  0  0  0  0  0  0  0
   -6.4830   20.9270  -32.1380 C   0  0  0  0  0  0  0  0  0  0  0  0
   -7.5520   20.0330  -31.9410 C   0  0  0  0  0  0  0  0  0  0  0  0
   -7.5390   18.7680  -32.5380 C   0  0  0  0  0  0  0  0  0  0  0  0
   -6.4600   18.3810  -33.3370 C   0  0  0  0  0  0  0  0  0  0  0  0
   -6.4450   16.6520  -34.1500 Br  0  0  0  0  0  0  0  0  0  0  0  0
   -5.3930   19.2590  -33.5390 C   0  0  0  0  0  0  0  0  0  0  0  0
   -5.4010   20.5250  -32.9450 C   0  0  0  0  0  0  0  0  0  0  0  0
   -5.4830   23.0710  -31.4520 O   0  0  0  0  0  0  0  0  0  0  0  0
   -2.8165   25.5510  -27.8869 H   0  0  0  0  0  0  0  0  0  0  0  0
   -1.6551   23.9674  -26.3612 H   0  0  0  0  0  0  0  0  0  0  0  0
   -0.9768   21.7118  -27.1673 H   0  0  0  0  0  0  0  0  0  0  0  0
   -0.8434   20.0611  -28.9497 H   0  0  0  0  0  0  0  0  0  0  0  0
   -1.3160   19.3745  -31.2994 H   0  0  0  0  0  0  0  0  0  0  0  0
   -2.4933   20.9330  -32.8479 H   0  0  0  0  0  0  0  0  0  0  0  0
   -3.2109   23.1853  -32.0580 H   0  0  0  0  0  0  0  0  0  0  0  0
   -7.7298   24.8407  -29.8730 H   0  0  0  0  0  0  0  0  0  0  0  0
   -8.6062   22.4318  -30.7335 H   0  0  0  0  0  0  0  0  0  0  0  0
   -8.4043   20.3313  -31.3128 H   0  0  0  0  0  0  0  0  0  0  0  0
   -8.3796   18.0768  -32.3782 H   0  0  0  0  0  0  0  0  0  0  0  0
   -4.5434   18.9537  -34.1675 H   0  0  0  0  0  0  0  0  0  0  0  0
   -4.5570   21.2111  -33.1091 H   0  0  0  0  0  0  0  0  0  0  0  0
  1  2  2  0
  2  3  1  0
  3  4  1  0
  4  5  2  0
  5  6  1  0
  6  7  2  0
  7  8  1  0
  8  9  2  0
  9 10  1  0
 10 11  2  0
 11 12  1  0
 12 13  2  0
  2 14  1  0
 14 15  2  0
 15 16  1  0
 16 17  2  0
 17 18  1  0
 18 19  2  0
 19 20  1  0
 20 21  2  0
 21 22  1  0
 21 23  1  0
 23 24  2  0
 17 25  1  0
 13  4  1  0
 25 14  1  0
 13  8  1  0
 24 18  1  0
  5 26  1  0
  6 27  1  0
  7 28  1  0
  9 29  1  0
 10 30  1  0
 11 31  1  0
 12 32  1  0
 15 33  1  0
 16 34  1  0
 19 35  1  0
 20 36  1  0
 23 37  1  0
 24 38  1  0
M  CHG  1   3  -1
M  END
>  <UniqueID>  (35) 
33

>  <SMILES>  (35) 
O=C([N-]c1cccc2ccccc12)c1ccc(-c2ccc(Br)cc2)o1

>  <Energy>  (35) 
79.15183758339136

>  <Genealogy>  (35) 
O=C([N-]c1cccc2ccccc12)c1ccc(-c2ccc(Br)cc2)o1 (protonated)
O=C([N-]c1cccc2ccccc12)c1ccc(-c2ccc(Br)cc2)o1 (3D coordinates assigned)
O=C([N-]c1cccc2ccccc12)c1ccc(-c2ccc(Br)cc2)o1 (optimized conformer: 79.15183758339136 kcal/mol)

>  <smiles>  (35) 
O=C(Nc1cccc2ccccc12)c1ccc(-c2ccc(Br)cc2)o1

>  <score_type>  (35) 
oracle

>  <origin>  (35) 
adgpu

>  <m_score__min__energy>  (35) 
-10.800000000000001

>  <m_primary>  (35) 
energy

$$$$
35:0
     RDKit          3D

 53 56  0  0  0  0  0  0  0  0999 V2000
   -2.7700   18.2060  -25.6410 C   0  0  0  0  0  0  0  0  0  0  0  0
   -2.3810   19.4200  -26.4160 C   0  0  0  0  0  0  0  0  0  0  0  0
   -3.2390   20.2330  -27.1240 C   0  0  0  0  0  0  0  0  0  0  0  0
   -2.4130   21.2410  -27.5950 C   0  0  0  0  0  0  0  0  0  0  0  0
   -2.7930   22.4060  -28.4270 C   0  0  0  0  0  0  0  0  0  0  0  0
   -2.2170   23.6720  -28.2190 C   0  0  0  0  0  0  0  0  0  0  0  0
   -2.5810   24.7540  -29.0250 C   0  0  0  0  0  0  0  0  0  0  0  0
   -3.5250   24.5920  -30.0430 C   0  0  0  0  0  0  0  0  0  0  0  0
   -3.8580   25.6800  -30.8410 O   0  0  0  0  0  0  0  0  0  0  0  0
   -4.1270   23.3410  -30.2490 C   0  0  0  0  0  0  0  0  0  0  0  0
   -5.3520   23.1410  -31.5040 S   0  0  0  0  0  0  0  0  0  0  0  0
   -5.8650   24.4810  -31.9580 O   0  0  0  0  0  0  0  0  0  0  0  0
   -4.7260   22.4230  -32.6690 O   0  0  0  0  0  0  0  0  0  0  0  0
   -6.6650   22.2130  -30.8530 N   0  0  0  0  0  0  0  0  0  0  0  0
   -7.2840   21.0900  -31.4890 C   0  0  0  0  0  0  0  0  0  0  0  0
   -8.6780   21.0750  -31.6050 C   0  0  0  0  0  0  0  0  0  0  0  0
   -9.3310   19.9750  -32.1720 C   0  0  0  0  0  0  0  0  0  0  0  0
   -8.5930   18.8810  -32.6260 C   0  0  0  0  0  0  0  0  0  0  0  0
   -7.1970   18.8830  -32.5230 C   0  0  0  0  0  0  0  0  0  0  0  0
   -6.2660   17.4970  -33.0940 S   0  0  0  0  0  0  0  0  0  0  0  0
   -7.1930   16.5810  -33.8450 O   0  0  0  0  0  0  0  0  0  0  0  0
   -5.6930   16.7560  -31.9170 O   0  0  0  0  0  0  0  0  0  0  0  0
   -4.9640   17.9990  -34.1480 N   0  0  0  0  0  0  0  0  0  0  0  0
   -4.0390   18.9090  -33.4250 C   0  0  0  0  0  0  0  0  0  0  0  0
   -2.6700   18.9710  -34.1090 C   0  0  0  0  0  0  0  0  0  0  0  0
   -1.9800   17.5940  -34.0690 C   0  0  0  0  0  0  0  0  0  0  0  0
   -2.9890   16.4280  -34.0570 C   0  0  0  0  0  0  0  0  0  0  0  0
   -4.3000   16.8160  -34.7650 C   0  0  0  0  0  0  0  0  0  0  0  0
   -6.5410   19.9980  -31.9770 C   0  0  0  0  0  0  0  0  0  0  0  0
   -3.7550   22.2510  -29.4420 C   0  0  0  0  0  0  0  0  0  0  0  0
   -1.1900   21.0070  -27.1730 O   0  0  0  0  0  0  0  0  0  0  0  0
   -1.1330   19.9220  -26.4560 N   0  0  0  0  0  0  0  0  0  0  0  0
   -2.7012   18.4207  -24.5643 H   0  0  0  0  0  0  0  0  0  0  0  0
   -3.8031   17.9252  -25.8936 H   0  0  0  0  0  0  0  0  0  0  0  0
   -2.0925   17.3770  -25.8936 H   0  0  0  0  0  0  0  0  0  0  0  0
   -4.3212   20.1110  -27.2785 H   0  0  0  0  0  0  0  0  0  0  0  0
   -1.4762   23.8112  -27.4178 H   0  0  0  0  0  0  0  0  0  0  0  0
   -2.1217   25.7394  -28.8572 H   0  0  0  0  0  0  0  0  0  0  0  0
   -9.2650   21.9341  -31.2479 H   0  0  0  0  0  0  0  0  0  0  0  0
  -10.4275   19.9726  -32.2600 H   0  0  0  0  0  0  0  0  0  0  0  0
   -9.1095   18.0151  -33.0658 H   0  0  0  0  0  0  0  0  0  0  0  0
   -4.4745   19.9189  -33.4032 H   0  0  0  0  0  0  0  0  0  0  0  0
   -3.8996   18.5226  -32.4046 H   0  0  0  0  0  0  0  0  0  0  0  0
   -2.8032   19.2782  -35.1568 H   0  0  0  0  0  0  0  0  0  0  0  0
   -2.0402   19.6984  -33.5759 H   0  0  0  0  0  0  0  0  0  0  0  0
   -1.3376   17.4954  -34.9564 H   0  0  0  0  0  0  0  0  0  0  0  0
   -1.3956   17.5399  -33.1386 H   0  0  0  0  0  0  0  0  0  0  0  0
   -2.5448   15.5643  -34.5734 H   0  0  0  0  0  0  0  0  0  0  0  0
   -3.2198   16.1790  -33.0107 H   0  0  0  0  0  0  0  0  0  0  0  0
   -4.0756   17.0482  -35.8166 H   0  0  0  0  0  0  0  0  0  0  0  0
   -4.9900   15.9643  -34.6721 H   0  0  0  0  0  0  0  0  0  0  0  0
   -5.4422   20.0185  -31.9303 H   0  0  0  0  0  0  0  0  0  0  0  0
   -4.2205   21.2679  -29.6059 H   0  0  0  0  0  0  0  0  0  0  0  0
  1  2  1  0
  2  3  1  0
  3  4  2  0
  4  5  1  0
  5  6  2  0
  6  7  1  0
  7  8  2  0
  8  9  1  0
  8 10  1  0
 10 11  1  0
 11 12  2  0
 11 13  2  0
 11 14  1  0
 14 15  1  0
 15 16  2  0
 16 17  1  0
 17 18  2  0
 18 19  1  0
 19 20  1  0
 20 21  2  0
 20 22  2  0
 20 23  1  0
 23 24  1  0
 24 25  1  0
 25 26  1  0
 26 27  1  0
 27 28  1  0
 19 29  2  0
 10 30  2  0
  4 31  1  0
 31 32  1  0
 32  2  2  0
 30  5  1  0
 29 15  1  0
 28 23  1  0
  1 33  1  0
  1 34  1  0
  1 35  1  0
  3 36  1  0
  6 37  1  0
  7 38  1  0
 16 39  1  0
 17 40  1  0
 18 41  1  0
 24 42  1  0
 24 43  1  0
 25 44  1  0
 25 45  1  0
 26 46  1  0
 26 47  1  0
 27 48  1  0
 27 49  1  0
 28 50  1  0
 28 51  1  0
 29 52  1  0
 30 53  1  0
M  CHG  2   9  -1  14  -1
M  END
>  <UniqueID>  (36) 
34

>  <SMILES>  (36) 
Cc1cc(-c2ccc([O-])c(S(=O)(=O)[N-]c3cccc(S(=O)(=O)N4CCCCC4)c3)c2)on1

>  <Energy>  (36) 
96.60856325169581

>  <Genealogy>  (36) 
Cc1cc(-c2ccc([O-])c(S(=O)(=O)[N-]c3cccc(S(=O)(=O)N4CCCCC4)c3)c2)on1 (protonated)
Cc1cc(-c2ccc([O-])c(S(=O)(=O)[N-]c3cccc(S(=O)(=O)N4CCCCC4)c3)c2)on1 (3D coordinates assigned)
Cc1cc(-c2ccc([O-])c(S(=O)(=O)[N-]c3cccc(S(=O)(=O)N4CCCCC4)c3)c2)on1 (nonaromatic ring conformer: 96.60856325169581 kcal/mol)

>  <smiles>  (36) 
Cc1cc(-c2ccc(O)c(S(=O)(=O)Nc3cccc(S(=O)(=O)N4CCCCC4)c3)c2)on1

>  <score_type>  (36) 
oracle

>  <origin>  (36) 
adgpu

>  <m_score__min__energy>  (36) 
-15.199999999999999

>  <m_primary>  (36) 
energy

$$$$
36:0
     RDKit          3D

 56 59  0  0  0  0  0  0  0  0999 V2000
   -2.3730   25.3230  -28.8480 O   0  0  0  0  0  0  0  0  0  0  0  0
   -2.8390   24.5380  -29.7190 C   0  0  0  0  0  0  0  0  0  0  0  0
   -4.0080   24.9070  -30.4650 N   0  0  0  0  0  0  0  0  0  0  0  0
   -5.1450   24.0740  -30.7340 C   0  0  0  0  0  0  0  0  0  0  0  0
   -5.6030   23.1180  -29.8110 C   0  0  0  0  0  0  0  0  0  0  0  0
   -6.6950   22.3020  -30.1270 C   0  0  0  0  0  0  0  0  0  0  0  0
   -7.3360   22.4270  -31.3660 C   0  0  0  0  0  0  0  0  0  0  0  0
   -8.6920   21.3740  -31.7580 S   0  0  0  0  0  0  0  0  0  0  0  0
   -9.2010   20.7550  -30.4850 O   0  0  0  0  0  0  0  0  0  0  0  0
   -9.8030   22.1780  -32.3770 O   0  0  0  0  0  0  0  0  0  0  0  0
   -8.1680   20.1180  -32.8590 N   0  0  0  0  0  0  0  0  0  0  0  0
   -6.7300   20.2200  -33.1320 C   0  0  0  0  0  0  0  0  0  0  0  0
   -6.0080   19.3140  -32.1450 C   0  0  0  0  0  0  0  0  0  0  0  0
   -7.0680   18.3620  -31.6130 C   0  0  0  0  0  0  0  0  0  0  0  0
   -8.3710   18.7840  -32.2800 C   0  0  0  0  0  0  0  0  0  0  0  0
   -6.8650   23.3640  -32.2960 C   0  0  0  0  0  0  0  0  0  0  0  0
   -5.7700   24.1760  -31.9820 C   0  0  0  0  0  0  0  0  0  0  0  0
   -2.1470   23.2600  -30.0080 C   0  0  0  0  0  0  0  0  0  0  0  0
   -2.4980   22.4930  -31.1340 C   0  0  0  0  0  0  0  0  0  0  0  0
   -1.8460   21.2850  -31.4000 C   0  0  0  0  0  0  0  0  0  0  0  0
   -0.8390   20.8210  -30.5470 C   0  0  0  0  0  0  0  0  0  0  0  0
   -0.0050   19.3010  -30.8940 S   0  0  0  0  0  0  0  0  0  0  0  0
    1.0690   19.5540  -31.9150 O   0  0  0  0  0  0  0  0  0  0  0  0
   -0.9880   18.3280  -31.4840 O   0  0  0  0  0  0  0  0  0  0  0  0
    0.7180   18.5810  -29.4740 N   0  0  0  0  0  0  0  0  0  0  0  0
   -0.2160   18.5260  -28.3500 C   0  0  0  0  0  0  0  0  0  0  0  0
    0.2600   17.3900  -27.4570 C   0  0  0  0  0  0  0  0  0  0  0  0
    1.1140   16.5060  -28.3530 C   0  0  0  0  0  0  0  0  0  0  0  0
    1.1330   17.1990  -29.7080 C   0  0  0  0  0  0  0  0  0  0  0  0
   -0.4760   21.5850  -29.4300 C   0  0  0  0  0  0  0  0  0  0  0  0
   -1.1290   22.7910  -29.1580 C   0  0  0  0  0  0  0  0  0  0  0  0
   -5.1017   23.0110  -28.8377 H   0  0  0  0  0  0  0  0  0  0  0  0
   -7.0517   21.5588  -29.3988 H   0  0  0  0  0  0  0  0  0  0  0  0
   -8.7110   20.2120  -33.7500 H   0  0  0  0  0  0  0  0  0  0  0  0
   -6.5199   19.8954  -34.1618 H   0  0  0  0  0  0  0  0  0  0  0  0
   -6.3890   21.2600  -33.0219 H   0  0  0  0  0  0  0  0  0  0  0  0
   -5.2084   18.7539  -32.6519 H   0  0  0  0  0  0  0  0  0  0  0  0
   -5.5344   19.8892  -31.3358 H   0  0  0  0  0  0  0  0  0  0  0  0
   -6.8196   17.3239  -31.8786 H   0  0  0  0  0  0  0  0  0  0  0  0
   -7.1400   18.4055  -30.5162 H   0  0  0  0  0  0  0  0  0  0  0  0
   -8.6344   18.0683  -33.0727 H   0  0  0  0  0  0  0  0  0  0  0  0
   -9.1893   18.8048  -31.5452 H   0  0  0  0  0  0  0  0  0  0  0  0
   -7.3574   23.4610  -33.2748 H   0  0  0  0  0  0  0  0  0  0  0  0
   -5.3975   24.9001  -32.7215 H   0  0  0  0  0  0  0  0  0  0  0  0
   -3.2909   22.8461  -31.8098 H   0  0  0  0  0  0  0  0  0  0  0  0
   -2.1267   20.6959  -32.2855 H   0  0  0  0  0  0  0  0  0  0  0  0
   -0.2032   19.4767  -27.7968 H   0  0  0  0  0  0  0  0  0  0  0  0
   -1.2475   18.3598  -28.6941 H   0  0  0  0  0  0  0  0  0  0  0  0
    0.8571   17.7818  -26.6204 H   0  0  0  0  0  0  0  0  0  0  0  0
   -0.5811   16.8355  -27.0154 H   0  0  0  0  0  0  0  0  0  0  0  0
    2.1340   16.4214  -27.9501 H   0  0  0  0  0  0  0  0  0  0  0  0
    0.7113   15.4847  -28.4223 H   0  0  0  0  0  0  0  0  0  0  0  0
    2.1471   17.1737  -30.1334 H   0  0  0  0  0  0  0  0  0  0  0  0
    0.4614   16.6975  -30.4204 H   0  0  0  0  0  0  0  0  0  0  0  0
    0.3263   21.2344  -28.7641 H   0  0  0  0  0  0  0  0  0  0  0  0
   -0.8444   23.3778  -28.2722 H   0  0  0  0  0  0  0  0  0  0  0  0
  1  2  2  0
  2  3  1  0
  3  4  1  0
  4  5  2  0
  5  6  1  0
  6  7  2  0
  7  8  1  0
  8  9  2  0
  8 10  2  0
  8 11  1  0
 11 12  1  0
 12 13  1  0
 13 14  1  0
 14 15  1  0
  7 16  1  0
 16 17  2  0
  2 18  1  0
 18 19  2  0
 19 20  1  0
 20 21  2  0
 21 22  1  0
 22 23  2  0
 22 24  2  0
 22 25  1  0
 25 26  1  0
 26 27  1  0
 27 28  1  0
 28 29  1  0
 21 30  1  0
 30 31  2  0
 17  4  1  0
 31 18  1  0
 15 11  1  0
 29 25  1  0
  5 32  1  0
  6 33  1  0
 11 34  1  0
 12 35  1  0
 12 36  1  0
 13 37  1  0
 13 38  1  0
 14 39  1  0
 14 40  1  0
 15 41  1  0
 15 42  1  0
 16 43  1  0
 17 44  1  0
 19 45  1  0
 20 46  1  0
 26 47  1  0
 26 48  1  0
 27 49  1  0
 27 50  1  0
 28 51  1  0
 28 52  1  0
 29 53  1  0
 29 54  1  0
 30 55  1  0
 31 56  1  0
M  CHG  2   3  -1  11   1
M  END
>  <UniqueID>  (37) 
35

>  <SMILES>  (37) 
O=C([N-]c1ccc(S(=O)(=O)[NH+]2CCCC2)cc1)c1ccc(S(=O)(=O)N2CCCC2)cc1

>  <Energy>  (37) 
64.70127603598236

>  <Genealogy>  (37) 
O=C([N-]c1ccc(S(=O)(=O)[NH+]2CCCC2)cc1)c1ccc(S(=O)(=O)N2CCCC2)cc1 (protonated)
O=C([N-]c1ccc(S(=O)(=O)[NH+]2CCCC2)cc1)c1ccc(S(=O)(=O)N2CCCC2)cc1 (3D coordinates assigned)
O=C([N-]c1ccc(S(=O)(=O)[NH+]2CCCC2)cc1)c1ccc(S(=O)(=O)N2CCCC2)cc1 (nonaromatic ring conformer: 64.70127603598236 kcal/mol)

>  <smiles>  (37) 
O=C(Nc1ccc(S(=O)(=O)N2CCCC2)cc1)c1ccc(S(=O)(=O)N2CCCC2)cc1

>  <score_type>  (37) 
oracle

>  <origin>  (37) 
adgpu

>  <m_score__min__energy>  (37) 
-12.6

>  <m_primary>  (37) 
energy

$$$$
37:0
     RDKit          3D

 43 45  0  0  0  0  0  0  0  0999 V2000
   -3.6550   18.8620  -26.3600 C   0  0  0  0  0  0  0  0  0  0  0  0
   -2.2250   19.3660  -26.5480 C   0  0  0  0  0  0  0  0  0  0  0  0
   -2.0150   20.0080  -27.9240 C   0  0  0  0  0  0  0  0  0  0  0  0
   -2.0250   21.4660  -27.8310 N   0  0  0  0  0  0  0  0  0  0  0  0
   -2.3320   22.3320  -28.8110 C   0  0  0  0  0  0  0  0  0  0  0  0
   -2.1600   23.5880  -28.2720 C   0  0  0  0  0  0  0  0  0  0  0  0
   -2.3650   24.8730  -28.9480 C   0  0  0  0  0  0  0  0  0  0  0  0
   -1.8970   25.9250  -28.4370 O   0  0  0  0  0  0  0  0  0  0  0  0
   -3.1370   24.9260  -30.1550 N   0  0  0  0  0  0  0  0  0  0  0  0
   -4.3810   24.2540  -30.4060 C   0  0  0  0  0  0  0  0  0  0  0  0
   -5.6030   24.7300  -29.8980 C   0  0  0  0  0  0  0  0  0  0  0  0
   -6.7950   24.0570  -30.1840 C   0  0  0  0  0  0  0  0  0  0  0  0
   -6.7830   22.9150  -30.9960 C   0  0  0  0  0  0  0  0  0  0  0  0
   -8.2780   22.0530  -31.3360 S   0  0  0  0  0  0  0  0  0  0  0  0
   -9.0900   21.9140  -30.0790 O   0  0  0  0  0  0  0  0  0  0  0  0
   -9.0950   22.8220  -32.3370 O   0  0  0  0  0  0  0  0  0  0  0  0
   -7.8880   20.4610  -31.9750 C   0  0  0  0  0  0  0  0  0  0  0  0
   -6.9700   20.3310  -33.0260 C   0  0  0  0  0  0  0  0  0  0  0  0
   -6.6730   19.0670  -33.5480 C   0  0  0  0  0  0  0  0  0  0  0  0
   -7.2980   17.9310  -33.0270 C   0  0  0  0  0  0  0  0  0  0  0  0
   -8.2200   18.0560  -31.9840 C   0  0  0  0  0  0  0  0  0  0  0  0
   -8.5180   19.3190  -31.4610 C   0  0  0  0  0  0  0  0  0  0  0  0
   -5.5680   22.4480  -31.5150 C   0  0  0  0  0  0  0  0  0  0  0  0
   -4.3770   23.1220  -31.2300 C   0  0  0  0  0  0  0  0  0  0  0  0
   -1.7530   23.4530  -26.9930 N   0  0  0  0  0  0  0  0  0  0  0  0
   -1.6760   22.1510  -26.7540 N   0  0  0  0  0  0  0  0  0  0  0  0
   -3.8778   18.7835  -25.2857 H   0  0  0  0  0  0  0  0  0  0  0  0
   -4.3569   19.5669  -26.8295 H   0  0  0  0  0  0  0  0  0  0  0  0
   -3.7598   17.8728  -26.8295 H   0  0  0  0  0  0  0  0  0  0  0  0
   -2.0076   20.1137  -25.7710 H   0  0  0  0  0  0  0  0  0  0  0  0
   -1.5489   18.5017  -26.4712 H   0  0  0  0  0  0  0  0  0  0  0  0
   -1.0462   19.6805  -28.3292 H   0  0  0  0  0  0  0  0  0  0  0  0
   -2.8364   19.6944  -28.5850 H   0  0  0  0  0  0  0  0  0  0  0  0
   -2.6546   22.0882  -29.8340 H   0  0  0  0  0  0  0  0  0  0  0  0
   -5.6212   25.6352  -29.2733 H   0  0  0  0  0  0  0  0  0  0  0  0
   -7.7453   24.4253  -29.7701 H   0  0  0  0  0  0  0  0  0  0  0  0
   -6.4817   21.2248  -33.4416 H   0  0  0  0  0  0  0  0  0  0  0  0
   -5.9473   18.9677  -34.3687 H   0  0  0  0  0  0  0  0  0  0  0  0
   -7.0642   16.9378  -33.4380 H   0  0  0  0  0  0  0  0  0  0  0  0
   -8.7114   17.1612  -31.5743 H   0  0  0  0  0  0  0  0  0  0  0  0
   -9.2485   19.4162  -30.6444 H   0  0  0  0  0  0  0  0  0  0  0  0
   -5.5514   21.5487  -32.1483 H   0  0  0  0  0  0  0  0  0  0  0  0
   -3.4296   22.7604  -31.6562 H   0  0  0  0  0  0  0  0  0  0  0  0
  1  2  1  0
  2  3  1  0
  3  4  1  0
  4  5  1  0
  5  6  2  0
  6  7  1  0
  7  8  2  0
  7  9  1  0
  9 10  1  0
 10 11  2  0
 11 12  1  0
 12 13  2  0
 13 14  1  0
 14 15  2  0
 14 16  2  0
 14 17  1  0
 17 18  2  0
 18 19  1  0
 19 20  2  0
 20 21  1  0
 21 22  2  0
 13 23  1  0
 23 24  2  0
  6 25  1  0
 25 26  2  0
 26  4  1  0
 24 10  1  0
 22 17  1  0
  1 27  1  0
  1 28  1  0
  1 29  1  0
  2 30  1  0
  2 31  1  0
  3 32  1  0
  3 33  1  0
  5 34  1  0
 11 35  1  0
 12 36  1  0
 18 37  1  0
 19 38  1  0
 20 39  1  0
 21 40  1  0
 22 41  1  0
 23 42  1  0
 24 43  1  0
M  CHG  1   9  -1
M  END
>  <UniqueID>  (38) 
36

>  <SMILES>  (38) 
CCCn1cc(C(=O)[N-]c2ccc(S(=O)(=O)c3ccccc3)cc2)nn1

>  <Energy>  (38) 
78.99840555001227

>  <Genealogy>  (38) 
CCCn1cc(C(=O)[N-]c2ccc(S(=O)(=O)c3ccccc3)cc2)nn1 (protonated)
CCCn1cc(C(=O)[N-]c2ccc(S(=O)(=O)c3ccccc3)cc2)nn1 (3D coordinates assigned)
CCCn1cc(C(=O)[N-]c2ccc(S(=O)(=O)c3ccccc3)cc2)nn1 (optimized conformer: 78.99840555001227 kcal/mol)

>  <smiles>  (38) 
CCCn1cc(C(=O)Nc2ccc(S(=O)(=O)c3ccccc3)cc2)nn1

>  <score_type>  (38) 
oracle

>  <origin>  (38) 
adgpu

>  <m_score__min__energy>  (38) 
-11.529999999999999

>  <m_primary>  (38) 
energy

$$$$
38:0
     RDKit          3D

 53 56  0  0  0  0  0  0  0  0999 V2000
    0.3130   19.2060  -30.1060 C   0  0  0  0  0  0  0  0  0  0  0  0
   -0.4210   20.5120  -29.9210 C   0  0  0  0  0  0  0  0  0  0  0  0
   -0.5180   21.0530  -28.6260 C   0  0  0  0  0  0  0  0  0  0  0  0
   -1.1880   22.2590  -28.4030 C   0  0  0  0  0  0  0  0  0  0  0  0
   -1.7960   22.9340  -29.4660 C   0  0  0  0  0  0  0  0  0  0  0  0
   -2.5460   24.5110  -29.2050 S   0  0  0  0  0  0  0  0  0  0  0  0
   -3.2640   24.5440  -27.8820 O   0  0  0  0  0  0  0  0  0  0  0  0
   -1.4830   25.5730  -29.1910 O   0  0  0  0  0  0  0  0  0  0  0  0
   -3.6430   24.8350  -30.5130 N   0  0  0  0  0  0  0  0  0  0  0  0
   -4.8880   24.1460  -30.6890 C   0  0  0  0  0  0  0  0  0  0  0  0
   -5.0310   23.1370  -31.6590 C   0  0  0  0  0  0  0  0  0  0  0  0
   -6.2690   22.5070  -31.8420 C   0  0  0  0  0  0  0  0  0  0  0  0
   -7.3730   22.8850  -31.0570 C   0  0  0  0  0  0  0  0  0  0  0  0
   -7.2290   23.8810  -30.0800 C   0  0  0  0  0  0  0  0  0  0  0  0
   -5.9870   24.5030  -29.8850 C   0  0  0  0  0  0  0  0  0  0  0  0
   -5.8460   25.4950  -28.9110 O   0  0  0  0  0  0  0  0  0  0  0  0
   -8.7140   22.2550  -31.3420 C   0  0  0  0  0  0  0  0  0  0  0  0
   -8.5790   20.7320  -31.5670 C   0  0  0  0  0  0  0  0  0  0  0  0
   -7.3140   20.2970  -32.3620 C   0  0  0  0  0  0  0  0  0  0  0  0
   -6.4670   21.4620  -32.9080 C   0  0  0  0  0  0  0  0  0  0  0  0
   -1.7350   22.3890  -30.7560 C   0  0  0  0  0  0  0  0  0  0  0  0
   -1.0440   21.1890  -31.0020 C   0  0  0  0  0  0  0  0  0  0  0  0
   -0.9310   20.6030  -32.6730 S   0  0  0  0  0  0  0  0  0  0  0  0
    0.3560   19.8390  -32.8360 O   0  0  0  0  0  0  0  0  0  0  0  0
   -0.9220   21.7590  -33.6400 O   0  0  0  0  0  0  0  0  0  0  0  0
   -2.3120   19.5850  -33.0610 C   0  0  0  0  0  0  0  0  0  0  0  0
   -3.5080   19.6790  -32.3270 C   0  0  0  0  0  0  0  0  0  0  0  0
   -4.6070   18.8830  -32.6670 C   0  0  0  0  0  0  0  0  0  0  0  0
   -4.5160   17.9830  -33.7370 C   0  0  0  0  0  0  0  0  0  0  0  0
   -6.0180   16.8940  -34.1970 Br  0  0  0  0  0  0  0  0  0  0  0  0
   -3.3230   17.8800  -34.4640 C   0  0  0  0  0  0  0  0  0  0  0  0
   -2.2240   18.6790  -34.1290 C   0  0  0  0  0  0  0  0  0  0  0  0
    0.5536   18.7780  -29.1217 H   0  0  0  0  0  0  0  0  0  0  0  0
   -0.3228   18.5041  -30.6656 H   0  0  0  0  0  0  0  0  0  0  0  0
    1.2431   19.3842  -30.6656 H   0  0  0  0  0  0  0  0  0  0  0  0
   -0.0611   20.5204  -27.7789 H   0  0  0  0  0  0  0  0  0  0  0  0
   -1.2373   22.6788  -27.3875 H   0  0  0  0  0  0  0  0  0  0  0  0
   -4.1688   22.8420  -32.2752 H   0  0  0  0  0  0  0  0  0  0  0  0
   -8.0923   24.1751  -29.4651 H   0  0  0  0  0  0  0  0  0  0  0  0
   -4.9590   25.6580  -28.4410 H   0  0  0  0  0  0  0  0  0  0  0  0
   -9.3833   22.4336  -30.4875 H   0  0  0  0  0  0  0  0  0  0  0  0
   -9.1242   22.7074  -32.2569 H   0  0  0  0  0  0  0  0  0  0  0  0
   -8.5490   20.2424  -30.5824 H   0  0  0  0  0  0  0  0  0  0  0  0
   -9.4445   20.4321  -32.1760 H   0  0  0  0  0  0  0  0  0  0  0  0
   -6.6797   19.6951  -31.6947 H   0  0  0  0  0  0  0  0  0  0  0  0
   -7.6738   19.7364  -33.2374 H   0  0  0  0  0  0  0  0  0  0  0  0
   -5.4866   21.0794  -33.2279 H   0  0  0  0  0  0  0  0  0  0  0  0
   -6.9906   21.9162  -33.7622 H   0  0  0  0  0  0  0  0  0  0  0  0
   -2.2347   22.9072  -31.5877 H   0  0  0  0  0  0  0  0  0  0  0  0
   -3.5795   20.3807  -31.4829 H   0  0  0  0  0  0  0  0  0  0  0  0
   -5.5427   18.9637  -32.0943 H   0  0  0  0  0  0  0  0  0  0  0  0
   -3.2499   17.1692  -35.3003 H   0  0  0  0  0  0  0  0  0  0  0  0
   -1.2897   18.5967  -34.7038 H   0  0  0  0  0  0  0  0  0  0  0  0
  1  2  1  0
  2  3  2  0
  3  4  1  0
  4  5  2  0
  5  6  1  0
  6  7  2  0
  6  8  2  0
  6  9  1  0
  9 10  1  0
 10 11  2  0
 11 12  1  0
 12 13  2  0
 13 14  1  0
 14 15  2  0
 15 16  1  0
 13 17  1  0
 17 18  1  0
 18 19  1  0
 19 20  1  0
  5 21  1  0
 21 22  2  0
 22 23  1  0
 23 24  2  0
 23 25  2  0
 23 26  1  0
 26 27  2  0
 27 28  1  0
 28 29  2  0
 29 30  1  0
 29 31  1  0
 31 32  2  0
 22  2  1  0
 32 26  1  0
 15 10  1  0
 20 12  1  0
  1 33  1  0
  1 34  1  0
  1 35  1  0
  3 36  1  0
  4 37  1  0
 11 38  1  0
 14 39  1  0
 16 40  1  0
 17 41  1  0
 17 42  1  0
 18 43  1  0
 18 44  1  0
 19 45  1  0
 19 46  1  0
 20 47  1  0
 20 48  1  0
 21 49  1  0
 27 50  1  0
 28 51  1  0
 31 52  1  0
 32 53  1  0
M  CHG  1   9  -1
M  END
>  <UniqueID>  (39) 
37

>  <SMILES>  (39) 
Cc1ccc(S(=O)(=O)[N-]c2cc3c(cc2O)CCCC3)cc1S(=O)(=O)c1ccc(Br)cc1

>  <Energy>  (39) 
68.77388150561566

>  <Genealogy>  (39) 
Cc1ccc(S(=O)(=O)[N-]c2cc3c(cc2O)CCCC3)cc1S(=O)(=O)c1ccc(Br)cc1 (protonated)
Cc1ccc(S(=O)(=O)[N-]c2cc3c(cc2O)CCCC3)cc1S(=O)(=O)c1ccc(Br)cc1 (3D coordinates assigned)
Cc1ccc(S(=O)(=O)[N-]c2cc3c(cc2O)CCCC3)cc1S(=O)(=O)c1ccc(Br)cc1 (nonaromatic ring conformer: 68.77388150561566 kcal/mol)

>  <smiles>  (39) 
Cc1ccc(S(=O)(=O)Nc2cc3c(cc2O)CCCC3)cc1S(=O)(=O)c1ccc(Br)cc1

>  <score_type>  (39) 
oracle

>  <origin>  (39) 
adgpu

>  <m_score__min__energy>  (39) 
-12.81

>  <m_primary>  (39) 
energy

$$$$
39:0
     RDKit          3D

 61 64  0  0  0  0  0  0  0  0999 V2000
   -0.7730   26.1950  -27.6820 C   0  0  0  0  0  0  0  0  0  0  0  0
   -1.4820   24.9340  -27.9450 N   0  0  0  0  0  0  0  0  0  0  0  0
   -2.6950   24.8380  -27.1210 C   0  0  0  0  0  0  0  0  0  0  0  0
   -3.5370   23.6310  -27.5720 C   0  0  0  0  0  0  0  0  0  0  0  0
   -2.7210   22.4940  -28.0590 N   0  0  0  0  0  0  0  0  0  0  0  0
   -2.6830   22.4100  -29.8100 S   0  0  0  0  0  0  0  0  0  0  0  0
   -1.5600   23.2580  -30.3390 O   0  0  0  0  0  0  0  0  0  0  0  0
   -2.4850   20.9880  -30.2550 O   0  0  0  0  0  0  0  0  0  0  0  0
   -4.2150   22.9910  -30.4700 C   0  0  0  0  0  0  0  0  0  0  0  0
   -5.2230   22.0730  -30.8030 C   0  0  0  0  0  0  0  0  0  0  0  0
   -6.4460   22.5160  -31.3310 C   0  0  0  0  0  0  0  0  0  0  0  0
   -7.5190   21.5470  -31.6410 C   0  0  0  0  0  0  0  0  0  0  0  0
   -7.2180   20.1760  -31.6210 C   0  0  0  0  0  0  0  0  0  0  0  0
   -8.1860   19.2220  -31.9700 C   0  0  0  0  0  0  0  0  0  0  0  0
   -7.8360   17.7530  -31.9970 C   0  0  0  0  0  0  0  0  0  0  0  0
   -6.4660   17.4950  -31.5210 N   0  0  0  0  0  0  0  0  0  0  0  0
   -5.4860   17.3690  -32.6160 C   0  0  0  0  0  0  0  0  0  0  0  0
   -6.1580   17.2150  -33.9780 C   0  0  0  0  0  0  0  0  0  0  0  0
   -5.1890   17.8140  -34.9910 C   0  0  0  0  0  0  0  0  0  0  0  0
   -4.2100   18.6850  -34.2060 C   0  0  0  0  0  0  0  0  0  0  0  0
   -4.6570   18.6400  -32.7520 C   0  0  0  0  0  0  0  0  0  0  0  0
   -9.4680   19.6490  -32.3370 C   0  0  0  0  0  0  0  0  0  0  0  0
   -9.7840   21.0090  -32.3400 C   0  0  0  0  0  0  0  0  0  0  0  0
   -8.8240   21.9640  -31.9880 C   0  0  0  0  0  0  0  0  0  0  0  0
   -9.2030   23.3080  -31.9720 O   0  0  0  0  0  0  0  0  0  0  0  0
   -6.6610   23.8890  -31.5150 C   0  0  0  0  0  0  0  0  0  0  0  0
   -5.6560   24.8060  -31.2010 C   0  0  0  0  0  0  0  0  0  0  0  0
   -4.4330   24.3630  -30.6860 C   0  0  0  0  0  0  0  0  0  0  0  0
   -3.4420   25.2940  -30.3950 O   0  0  0  0  0  0  0  0  0  0  0  0
   -1.3670   22.4650  -27.4760 C   0  0  0  0  0  0  0  0  0  0  0  0
   -0.5880   23.7780  -27.7120 C   0  0  0  0  0  0  0  0  0  0  0  0
   -0.6871   26.3478  -26.5960 H   0  0  0  0  0  0  0  0  0  0  0  0
    0.2321   26.1501  -28.1266 H   0  0  0  0  0  0  0  0  0  0  0  0
   -1.3336   27.0305  -28.1266 H   0  0  0  0  0  0  0  0  0  0  0  0
   -2.4108   24.7113  -26.0659 H   0  0  0  0  0  0  0  0  0  0  0  0
   -3.2870   25.7578  -27.2373 H   0  0  0  0  0  0  0  0  0  0  0  0
   -4.1395   23.2875  -26.7182 H   0  0  0  0  0  0  0  0  0  0  0  0
   -4.1616   23.9665  -28.4130 H   0  0  0  0  0  0  0  0  0  0  0  0
   -5.0533   20.9971  -30.6490 H   0  0  0  0  0  0  0  0  0  0  0  0
   -6.2106   19.8454  -31.3280 H   0  0  0  0  0  0  0  0  0  0  0  0
   -8.5425   17.2093  -31.3526 H   0  0  0  0  0  0  0  0  0  0  0  0
   -7.8991   17.4116  -33.0408 H   0  0  0  0  0  0  0  0  0  0  0  0
   -6.4690   16.6050  -30.9670 H   0  0  0  0  0  0  0  0  0  0  0  0
   -4.8819   16.4866  -32.3584 H   0  0  0  0  0  0  0  0  0  0  0  0
   -6.3349   16.1522  -34.1996 H   0  0  0  0  0  0  0  0  0  0  0  0
   -7.1351   17.7194  -34.0060 H   0  0  0  0  0  0  0  0  0  0  0  0
   -4.6467   17.0133  -35.5152 H   0  0  0  0  0  0  0  0  0  0  0  0
   -5.7254   18.4068  -35.7466 H   0  0  0  0  0  0  0  0  0  0  0  0
   -3.1885   18.2883  -34.3014 H   0  0  0  0  0  0  0  0  0  0  0  0
   -4.2036   19.7168  -34.5872 H   0  0  0  0  0  0  0  0  0  0  0  0
   -3.7844   18.6024  -32.0833 H   0  0  0  0  0  0  0  0  0  0  0  0
   -5.2356   19.5341  -32.4768 H   0  0  0  0  0  0  0  0  0  0  0  0
  -10.2299   18.9094  -32.6243 H   0  0  0  0  0  0  0  0  0  0  0  0
  -10.7969   21.3326  -32.6217 H   0  0  0  0  0  0  0  0  0  0  0  0
   -9.4640   23.8160  -32.8070 H   0  0  0  0  0  0  0  0  0  0  0  0
   -7.6247   24.2451  -31.9081 H   0  0  0  0  0  0  0  0  0  0  0  0
   -5.8265   25.8811  -31.3592 H   0  0  0  0  0  0  0  0  0  0  0  0
   -1.4540   22.2973  -26.3923 H   0  0  0  0  0  0  0  0  0  0  0  0
   -0.8100   21.6549  -27.9696 H   0  0  0  0  0  0  0  0  0  0  0  0
    0.0318   23.9843  -26.8269 H   0  0  0  0  0  0  0  0  0  0  0  0
    0.0267   23.6440  -28.6143 H   0  0  0  0  0  0  0  0  0  0  0  0
  1  2  1  0
  2  3  1  0
  3  4  1  0
  4  5  1  0
  5  6  1  0
  6  7  2  0
  6  8  2  0
  6  9  1  0
  9 10  2  0
 10 11  1  0
 11 12  1  0
 12 13  2  0
 13 14  1  0
 14 15  1  0
 15 16  1  0
 16 17  1  0
 17 18  1  0
 18 19  1  0
 19 20  1  0
 20 21  1  0
 14 22  2  0
 22 23  1  0
 23 24  2  0
 24 25  1  0
 11 26  2  0
 26 27  1  0
 27 28  2  0
 28 29  1  0
  5 30  1  0
 30 31  1  0
 31  2  1  0
 28  9  1  0
 24 12  1  0
 21 17  1  0
  1 32  1  0
  1 33  1  0
  1 34  1  0
  3 35  1  0
  3 36  1  0
  4 37  1  0
  4 38  1  0
 10 39  1  0
 13 40  1  0
 15 41  1  0
 15 42  1  0
 16 43  1  0
 17 44  1  0
 18 45  1  0
 18 46  1  0
 19 47  1  0
 19 48  1  0
 20 49  1  0
 20 50  1  0
 21 51  1  0
 21 52  1  0
 22 53  1  0
 23 54  1  0
 25 55  1  0
 26 56  1  0
 27 57  1  0
 30 58  1  0
 30 59  1  0
 31 60  1  0
 31 61  1  0
M  CHG  1  29  -1
M  END
>  <UniqueID>  (40) 
38

>  <SMILES>  (40) 
CN1CCN(S(=O)(=O)c2cc(-c3cc(CNC4CCCC4)ccc3O)ccc2[O-])CC1

>  <Energy>  (40) 
80.41463481813703

>  <Genealogy>  (40) 
CN1CCN(S(=O)(=O)c2cc(-c3cc(CNC4CCCC4)ccc3O)ccc2[O-])CC1 (protonated)
CN1CCN(S(=O)(=O)c2cc(-c3cc(CNC4CCCC4)ccc3O)ccc2[O-])CC1 (3D coordinates assigned)
CN1CCN(S(=O)(=O)c2cc(-c3cc(CNC4CCCC4)ccc3O)ccc2[O-])CC1 (nonaromatic ring conformer: 80.41463481813703 kcal/mol)

>  <smiles>  (40) 
CN1CCN(S(=O)(=O)c2cc(-c3cc(CNC4CCCC4)ccc3O)ccc2O)CC1

>  <score_type>  (40) 
oracle

>  <origin>  (40) 
adgpu

>  <m_score__min__energy>  (40) 
-13.199999999999999

>  <m_primary>  (40) 
energy

$$$$
40:0
     RDKit          3D

 68 72  0  0  0  0  0  0  0  0999 V2000
   -6.6990   25.3320  -30.1790 O   0  0  0  0  0  0  0  0  0  0  0  0
   -5.3220   24.7590  -30.3360 S   0  0  0  0  0  0  0  0  0  0  0  0
   -4.5100   25.6730  -31.2100 O   0  0  0  0  0  0  0  0  0  0  0  0
   -4.5680   24.6260  -28.7770 N   0  0  0  0  0  0  0  0  0  0  0  0
   -3.3880   23.8300  -28.5600 C   0  0  0  0  0  0  0  0  0  0  0  0
   -3.4840   22.5200  -28.0530 C   0  0  0  0  0  0  0  0  0  0  0  0
   -2.3270   21.7730  -27.7900 C   0  0  0  0  0  0  0  0  0  0  0  0
   -1.0640   22.3240  -28.0410 C   0  0  0  0  0  0  0  0  0  0  0  0
   -0.9620   23.6200  -28.5660 C   0  0  0  0  0  0  0  0  0  0  0  0
   -2.1150   24.3680  -28.8300 C   0  0  0  0  0  0  0  0  0  0  0  0
   -1.9880   25.6560  -29.3410 O   0  0  0  0  0  0  0  0  0  0  0  0
    0.1580   21.5540  -27.6200 C   0  0  0  0  0  0  0  0  0  0  0  0
    0.0330   20.0540  -27.9540 C   0  0  0  0  0  0  0  0  0  0  0  0
   -1.3890   19.4560  -27.7900 C   0  0  0  0  0  0  0  0  0  0  0  0
   -2.4090   20.4110  -27.1530 C   0  0  0  0  0  0  0  0  0  0  0  0
   -5.4590   23.1560  -31.0540 C   0  0  0  0  0  0  0  0  0  0  0  0
   -6.6970   22.6620  -31.4830 C   0  0  0  0  0  0  0  0  0  0  0  0
   -6.7800   21.4000  -32.0720 C   0  0  0  0  0  0  0  0  0  0  0  0
   -5.6310   20.6160  -32.2350 C   0  0  0  0  0  0  0  0  0  0  0  0
   -5.7560   19.3010  -32.7960 N   0  0  0  0  0  0  0  0  0  0  0  0
   -5.6540   19.1360  -34.2510 C   0  0  0  0  0  0  0  0  0  0  0  0
   -5.4990   17.6570  -34.6200 C   0  0  0  0  0  0  0  0  0  0  0  0
   -6.6190   16.7800  -34.0240 C   0  0  0  0  0  0  0  0  0  0  0  0
   -7.2020   17.3220  -32.7020 C   0  0  0  0  0  0  0  0  0  0  0  0
   -6.1980   18.1930  -31.9440 C   0  0  0  0  0  0  0  0  0  0  0  0
   -4.3790   21.1160  -31.8190 C   0  0  0  0  0  0  0  0  0  0  0  0
   -2.9010   20.1480  -31.9550 S   0  0  0  0  0  0  0  0  0  0  0  0
   -2.2590   20.0260  -30.6020 O   0  0  0  0  0  0  0  0  0  0  0  0
   -3.2480   18.7650  -32.4380 O   0  0  0  0  0  0  0  0  0  0  0  0
   -1.7900   20.9080  -33.0630 N   0  0  0  0  0  0  0  0  0  0  0  0
   -0.5230   21.2430  -32.3800 C   0  0  0  0  0  0  0  0  0  0  0  0
    0.6270   21.4330  -33.3900 C   0  0  0  0  0  0  0  0  0  0  0  0
    0.1120   21.8410  -34.6390 O   0  0  0  0  0  0  0  0  0  0  0  0
   -0.6340   20.7860  -35.2340 C   0  0  0  0  0  0  0  0  0  0  0  0
   -1.5480   20.0480  -34.2300 C   0  0  0  0  0  0  0  0  0  0  0  0
   -4.3060   22.3850  -31.2310 C   0  0  0  0  0  0  0  0  0  0  0  0
   -5.1170   24.9670  -27.9540 H   0  0  0  0  0  0  0  0  0  0  0  0
   -4.4737   22.0795  -27.8619 H   0  0  0  0  0  0  0  0  0  0  0  0
    0.0290   24.0510  -28.7714 H   0  0  0  0  0  0  0  0  0  0  0  0
    1.0346   21.9634  -28.1434 H   0  0  0  0  0  0  0  0  0  0  0  0
    0.2661   21.6536  -26.5299 H   0  0  0  0  0  0  0  0  0  0  0  0
    0.3434   19.9114  -28.9996 H   0  0  0  0  0  0  0  0  0  0  0  0
    0.6710   19.5263  -27.2298 H   0  0  0  0  0  0  0  0  0  0  0  0
   -1.7595   19.1713  -28.7858 H   0  0  0  0  0  0  0  0  0  0  0  0
   -1.2924   18.5989  -27.1073 H   0  0  0  0  0  0  0  0  0  0  0  0
   -3.4217   20.0057  -27.2947 H   0  0  0  0  0  0  0  0  0  0  0  0
   -2.1848   20.5063  -26.0803 H   0  0  0  0  0  0  0  0  0  0  0  0
   -7.6051   23.2696  -31.3555 H   0  0  0  0  0  0  0  0  0  0  0  0
   -7.7544   21.0182  -32.4106 H   0  0  0  0  0  0  0  0  0  0  0  0
   -6.5647   19.5324  -34.7239 H   0  0  0  0  0  0  0  0  0  0  0  0
   -4.7690   19.6835  -34.6073 H   0  0  0  0  0  0  0  0  0  0  0  0
   -5.5219   17.5623  -35.7157 H   0  0  0  0  0  0  0  0  0  0  0  0
   -4.5427   17.3068  -34.2042 H   0  0  0  0  0  0  0  0  0  0  0  0
   -7.4340   16.7120  -34.7596 H   0  0  0  0  0  0  0  0  0  0  0  0
   -6.1712   15.8011  -33.7975 H   0  0  0  0  0  0  0  0  0  0  0  0
   -8.0941   17.9244  -32.9284 H   0  0  0  0  0  0  0  0  0  0  0  0
   -7.4526   16.4613  -32.0645 H   0  0  0  0  0  0  0  0  0  0  0  0
   -6.6756   18.5967  -31.0391 H   0  0  0  0  0  0  0  0  0  0  0  0
   -5.3274   17.5819  -31.6637 H   0  0  0  0  0  0  0  0  0  0  0  0
   -0.6582   22.1752  -31.8119 H   0  0  0  0  0  0  0  0  0  0  0  0
   -0.2609   20.4117  -31.7090 H   0  0  0  0  0  0  0  0  0  0  0  0
    1.3191   22.2006  -33.0134 H   0  0  0  0  0  0  0  0  0  0  0  0
    1.1591   20.4783  -33.5141 H   0  0  0  0  0  0  0  0  0  0  0  0
   -1.2610   21.2082  -36.0332 H   0  0  0  0  0  0  0  0  0  0  0  0
    0.0879   20.0518  -35.6210 H   0  0  0  0  0  0  0  0  0  0  0  0
   -2.5064   19.8088  -34.7141 H   0  0  0  0  0  0  0  0  0  0  0  0
   -1.0590   19.1180  -33.9046 H   0  0  0  0  0  0  0  0  0  0  0  0
   -3.3320   22.7790  -30.9052 H   0  0  0  0  0  0  0  0  0  0  0  0
  1  2  2  0
  2  3  2  0
  2  4  1  0
  4  5  1  0
  5  6  2  0
  6  7  1  0
  7  8  2  0
  8  9  1  0
  9 10  2  0
 10 11  1  0
  8 12  1  0
 12 13  1  0
 13 14  1  0
 14 15  1  0
  2 16  1  0
 16 17  2  0
 17 18  1  0
 18 19  2  0
 19 20  1  0
 20 21  1  0
 21 22  1  0
 22 23  1  0
 23 24  1  0
 24 25  1  0
 19 26  1  0
 26 27  1  0
 27 28  2  0
 27 29  2  0
 27 30  1  0
 30 31  1  0
 31 32  1  0
 32 33  1  0
 33 34  1  0
 34 35  1  0
 26 36  2  0
 10  5  1  0
 36 16  1  0
 15  7  1  0
 25 20  1  0
 35 30  1  0
  4 37  1  0
  6 38  1  0
  9 39  1  0
 12 40  1  0
 12 41  1  0
 13 42  1  0
 13 43  1  0
 14 44  1  0
 14 45  1  0
 15 46  1  0
 15 47  1  0
 17 48  1  0
 18 49  1  0
 21 50  1  0
 21 51  1  0
 22 52  1  0
 22 53  1  0
 23 54  1  0
 23 55  1  0
 24 56  1  0
 24 57  1  0
 25 58  1  0
 25 59  1  0
 31 60  1  0
 31 61  1  0
 32 62  1  0
 32 63  1  0
 34 64  1  0
 34 65  1  0
 35 66  1  0
 35 67  1  0
 36 68  1  0
M  CHG  1  11  -1
M  END
>  <UniqueID>  (41) 
39

>  <SMILES>  (41) 
O=S(=O)(Nc1cc2c(cc1[O-])CCCC2)c1ccc(N2CCCCC2)c(S(=O)(=O)N2CCOCC2)c1

>  <Energy>  (41) 
91.539435102807

>  <Genealogy>  (41) 
O=S(=O)(Nc1cc2c(cc1[O-])CCCC2)c1ccc(N2CCCCC2)c(S(=O)(=O)N2CCOCC2)c1 (protonated)
O=S(=O)(Nc1cc2c(cc1[O-])CCCC2)c1ccc(N2CCCCC2)c(S(=O)(=O)N2CCOCC2)c1 (3D coordinates assigned)
O=S(=O)(Nc1cc2c(cc1[O-])CCCC2)c1ccc(N2CCCCC2)c(S(=O)(=O)N2CCOCC2)c1 (nonaromatic ring conformer: 91.539435102807 kcal/mol)

>  <smiles>  (41) 
O=S(=O)(Nc1cc2c(cc1O)CCCC2)c1ccc(N2CCCCC2)c(S(=O)(=O)N2CCOCC2)c1

>  <score_type>  (41) 
oracle

>  <origin>  (41) 
adgpu

>  <m_score__min__energy>  (41) 
-15.08

>  <m_primary>  (41) 
energy

$$$$
41:0
     RDKit          3D

 40 42  0  0  0  0  0  0  0  0999 V2000
   -0.1130   23.0280  -24.2860 C   0  0  0  0  0  0  0  0  0  0  0  0
   -0.1920   22.5020  -25.6070 O   0  0  0  0  0  0  0  0  0  0  0  0
   -1.1380   22.9020  -26.5620 C   0  0  0  0  0  0  0  0  0  0  0  0
   -1.3910   24.2550  -26.8550 C   0  0  0  0  0  0  0  0  0  0  0  0
   -2.3440   24.6030  -27.8180 C   0  0  0  0  0  0  0  0  0  0  0  0
   -3.0600   23.6080  -28.5040 C   0  0  0  0  0  0  0  0  0  0  0  0
   -4.0700   23.9760  -29.5180 C   0  0  0  0  0  0  0  0  0  0  0  0
   -3.8660   24.8980  -30.4820 N   0  0  0  0  0  0  0  0  0  0  0  0
   -4.9710   24.9190  -31.1640 O   0  0  0  0  0  0  0  0  0  0  0  0
   -5.8170   24.0600  -30.6560 C   0  0  0  0  0  0  0  0  0  0  0  0
   -7.1870   23.8080  -31.1990 C   0  0  0  0  0  0  0  0  0  0  0  0
   -7.1220   22.9500  -32.3380 O   0  0  0  0  0  0  0  0  0  0  0  0
   -7.4520   21.5840  -32.3470 C   0  0  0  0  0  0  0  0  0  0  0  0
   -8.5740   21.1730  -31.6230 C   0  0  0  0  0  0  0  0  0  0  0  0
   -8.9520   19.8300  -31.6030 C   0  0  0  0  0  0  0  0  0  0  0  0
   -8.2090   18.8810  -32.3080 C   0  0  0  0  0  0  0  0  0  0  0  0
   -7.0720   19.2640  -33.0430 C   0  0  0  0  0  0  0  0  0  0  0  0
   -6.2700   18.2670  -33.8030 C   0  0  0  0  0  0  0  0  0  0  0  0
   -5.9650   16.9080  -33.2490 C   0  0  0  0  0  0  0  0  0  0  0  0
   -5.8290   18.5590  -34.9490 O   0  0  0  0  0  0  0  0  0  0  0  0
   -6.6980   20.6240  -33.0520 C   0  0  0  0  0  0  0  0  0  0  0  0
   -5.2990   23.4210  -29.5910 N   0  0  0  0  0  0  0  0  0  0  0  0
   -2.8030   22.2580  -28.2100 C   0  0  0  0  0  0  0  0  0  0  0  0
   -1.8500   21.9120  -27.2470 C   0  0  0  0  0  0  0  0  0  0  0  0
   -0.2355   22.2121  -23.5585 H   0  0  0  0  0  0  0  0  0  0  0  0
    0.8670   23.5057  -24.1395 H   0  0  0  0  0  0  0  0  0  0  0  0
   -0.9094   23.7725  -24.1395 H   0  0  0  0  0  0  0  0  0  0  0  0
   -0.8366   25.0429  -26.3241 H   0  0  0  0  0  0  0  0  0  0  0  0
   -2.5341   25.6635  -28.0397 H   0  0  0  0  0  0  0  0  0  0  0  0
   -7.8029   23.3321  -30.4217 H   0  0  0  0  0  0  0  0  0  0  0  0
   -7.6328   24.7673  -31.5006 H   0  0  0  0  0  0  0  0  0  0  0  0
   -9.1642   21.9142  -31.0642 H   0  0  0  0  0  0  0  0  0  0  0  0
   -9.8378   19.5180  -31.0303 H   0  0  0  0  0  0  0  0  0  0  0  0
   -8.5153   17.8247  -32.2886 H   0  0  0  0  0  0  0  0  0  0  0  0
   -5.9743   16.9496  -32.1498 H   0  0  0  0  0  0  0  0  0  0  0  0
   -6.7248   16.1919  -33.5953 H   0  0  0  0  0  0  0  0  0  0  0  0
   -4.9721   16.5852  -33.5953 H   0  0  0  0  0  0  0  0  0  0  0  0
   -5.8076   20.9392  -33.6157 H   0  0  0  0  0  0  0  0  0  0  0  0
   -3.3551   21.4684  -28.7408 H   0  0  0  0  0  0  0  0  0  0  0  0
   -1.6585   20.8515  -27.0262 H   0  0  0  0  0  0  0  0  0  0  0  0
  1  2  1  0
  2  3  1  0
  3  4  2  0
  4  5  1  0
  5  6  2  0
  6  7  1  0
  7  8  2  0
  8  9  1  0
  9 10  1  0
 10 11  1  0
 11 12  1  0
 12 13  1  0
 13 14  2  0
 14 15  1  0
 15 16  2  0
 16 17  1  0
 17 18  1  0
 18 19  1  0
 18 20  2  0
 17 21  2  0
 10 22  2  0
  6 23  1  0
 23 24  2  0
 24  3  1  0
 22  7  1  0
 21 13  1  0
  1 25  1  0
  1 26  1  0
  1 27  1  0
  4 28  1  0
  5 29  1  0
 11 30  1  0
 11 31  1  0
 14 32  1  0
 15 33  1  0
 16 34  1  0
 19 35  1  0
 19 36  1  0
 19 37  1  0
 21 38  1  0
 23 39  1  0
 24 40  1  0
M  END
>  <UniqueID>  (42) 
40

>  <SMILES>  (42) 
COc1ccc(-c2noc(COc3cccc(C(C)=O)c3)n2)cc1

>  <Energy>  (42) 
74.5055794713006

>  <Genealogy>  (42) 
COc1ccc(-c2noc(COc3cccc(C(C)=O)c3)n2)cc1 (3D coordinates assigned)
COc1ccc(-c2noc(COc3cccc(C(C)=O)c3)n2)cc1 (optimized conformer: 74.5055794713006 kcal/mol)

>  <smiles>  (42) 
COc1ccc(-c2noc(COc3cccc(C(C)=O)c3)n2)cc1

>  <score_type>  (42) 
oracle

>  <origin>  (42) 
adgpu

>  <m_score__min__energy>  (42) 
-8.7300000000000004

>  <m_primary>  (42) 
energy

$$$$
42:0
     RDKit          3D

 44 46  0  0  0  0  0  0  0  0999 V2000
   -6.0260   25.9010  -30.4520 O   0  0  0  0  0  0  0  0  0  0  0  0
   -5.2440   24.6550  -30.1390 S   0  0  0  0  0  0  0  0  0  0  0  0
   -3.9180   24.7420  -30.8450 O   0  0  0  0  0  0  0  0  0  0  0  0
   -4.9650   24.5540  -28.4200 N   0  0  0  0  0  0  0  0  0  0  0  0
   -4.1880   23.3610  -28.0650 C   0  0  0  0  0  0  0  0  0  0  0  0
   -2.7110   23.6380  -28.1230 C   0  0  0  0  0  0  0  0  0  0  0  0
   -1.7800   22.6110  -27.9090 C   0  0  0  0  0  0  0  0  0  0  0  0
   -0.4150   22.9060  -27.9540 C   0  0  0  0  0  0  0  0  0  0  0  0
    0.0050   24.2150  -28.1940 C   0  0  0  0  0  0  0  0  0  0  0  0
   -0.9500   25.2140  -28.3970 C   0  0  0  0  0  0  0  0  0  0  0  0
   -2.2730   24.9050  -28.3660 N   0  0  0  0  0  0  0  0  0  0  0  0
   -6.1050   23.2380  -30.7360 C   0  0  0  0  0  0  0  0  0  0  0  0
   -7.4850   23.2950  -30.9840 C   0  0  0  0  0  0  0  0  0  0  0  0
   -8.1620   22.1620  -31.4460 C   0  0  0  0  0  0  0  0  0  0  0  0
   -7.4680   20.9600  -31.6650 C   0  0  0  0  0  0  0  0  0  0  0  0
   -8.3200   19.5350  -32.2650 S   0  0  0  0  0  0  0  0  0  0  0  0
   -9.4960   19.9680  -33.1000 O   0  0  0  0  0  0  0  0  0  0  0  0
   -8.8380   18.7440  -31.0940 O   0  0  0  0  0  0  0  0  0  0  0  0
   -7.2280   18.5320  -33.1980 N   0  0  0  0  0  0  0  0  0  0  0  0
   -6.3650   19.3520  -34.0520 C   0  0  0  0  0  0  0  0  0  0  0  0
   -5.0450   18.6200  -34.1650 C   0  0  0  0  0  0  0  0  0  0  0  0
   -4.9100   17.9140  -32.8370 C   0  0  0  0  0  0  0  0  0  0  0  0
   -6.3400   17.7260  -32.3430 C   0  0  0  0  0  0  0  0  0  0  0  0
   -6.0880   20.9060  -31.4120 C   0  0  0  0  0  0  0  0  0  0  0  0
   -5.4110   22.0370  -30.9470 C   0  0  0  0  0  0  0  0  0  0  0  0
   -4.4020   25.3940  -28.1550 H   0  0  0  0  0  0  0  0  0  0  0  0
   -4.4550   23.0493  -27.0444 H   0  0  0  0  0  0  0  0  0  0  0  0
   -4.4221   22.5648  -28.7870 H   0  0  0  0  0  0  0  0  0  0  0  0
   -2.1207   21.5846  -27.7080 H   0  0  0  0  0  0  0  0  0  0  0  0
    0.3268   22.1084  -27.8006 H   0  0  0  0  0  0  0  0  0  0  0  0
    1.0775   24.4577  -28.2230 H   0  0  0  0  0  0  0  0  0  0  0  0
   -0.6313   26.2504  -28.5819 H   0  0  0  0  0  0  0  0  0  0  0  0
   -8.0351   24.2324  -30.8147 H   0  0  0  0  0  0  0  0  0  0  0  0
   -9.2438   22.2120  -31.6390 H   0  0  0  0  0  0  0  0  0  0  0  0
   -6.8189   19.4714  -35.0468 H   0  0  0  0  0  0  0  0  0  0  0  0
   -6.2257   20.3566  -33.6262 H   0  0  0  0  0  0  0  0  0  0  0  0
   -5.0679   17.8963  -34.9931 H   0  0  0  0  0  0  0  0  0  0  0  0
   -4.2016   19.2938  -34.3763 H   0  0  0  0  0  0  0  0  0  0  0  0
   -4.4141   16.9405  -32.9653 H   0  0  0  0  0  0  0  0  0  0  0  0
   -4.2987   18.4873  -32.1245 H   0  0  0  0  0  0  0  0  0  0  0  0
   -6.6210   16.6646  -32.4091 H   0  0  0  0  0  0  0  0  0  0  0  0
   -6.4265   18.0461  -31.2942 H   0  0  0  0  0  0  0  0  0  0  0  0
   -5.5369   19.9690  -31.5806 H   0  0  0  0  0  0  0  0  0  0  0  0
   -4.3308   21.9853  -30.7459 H   0  0  0  0  0  0  0  0  0  0  0  0
  1  2  2  0
  2  3  2  0
  2  4  1  0
  4  5  1  0
  5  6  1  0
  6  7  2  0
  7  8  1  0
  8  9  2  0
  9 10  1  0
 10 11  2  0
  2 12  1  0
 12 13  2  0
 13 14  1  0
 14 15  2  0
 15 16  1  0
 16 17  2  0
 16 18  2  0
 16 19  1  0
 19 20  1  0
 20 21  1  0
 21 22  1  0
 22 23  1  0
 15 24  1  0
 24 25  2  0
 11  6  1  0
 25 12  1  0
 23 19  1  0
  4 26  1  0
  5 27  1  0
  5 28  1  0
  7 29  1  0
  8 30  1  0
  9 31  1  0
 10 32  1  0
 13 33  1  0
 14 34  1  0
 20 35  1  0
 20 36  1  0
 21 37  1  0
 21 38  1  0
 22 39  1  0
 22 40  1  0
 23 41  1  0
 23 42  1  0
 24 43  1  0
 25 44  1  0
M  END
>  <UniqueID>  (43) 
41

>  <SMILES>  (43) 
O=S(=O)(NCc1ccccn1)c1ccc(S(=O)(=O)N2CCCC2)cc1

>  <Energy>  (43) 
45.52894781634281

>  <Genealogy>  (43) 
O=S(=O)(NCc1ccccn1)c1ccc(S(=O)(=O)N2CCCC2)cc1 (3D coordinates assigned)
O=S(=O)(NCc1ccccn1)c1ccc(S(=O)(=O)N2CCCC2)cc1 (nonaromatic ring conformer: 45.52894781634281 kcal/mol)

>  <smiles>  (43) 
O=S(=O)(NCc1ccccn1)c1ccc(S(=O)(=O)N2CCCC2)cc1

>  <score_type>  (43) 
oracle

>  <origin>  (43) 
adgpu

>  <m_score__min__energy>  (43) 
-9.8900000000000006

>  <m_primary>  (43) 
energy

$$$$
43:0
     RDKit          3D

 49 51  0  0  0  0  0  0  0  0999 V2000
    0.3170   24.2270  -26.1760 C   0  0  0  0  0  0  0  0  0  0  0  0
    0.1340   24.6220  -27.6100 C   0  0  0  0  0  0  0  0  0  0  0  0
    1.1190   24.5260  -28.3890 O   0  0  0  0  0  0  0  0  0  0  0  0
   -1.1010   25.1430  -28.1320 N   0  0  0  0  0  0  0  0  0  0  0  0
   -1.9290   24.6030  -28.9800 C   0  0  0  0  0  0  0  0  0  0  0  0
   -3.0730   25.2200  -29.3440 N   0  0  0  0  0  0  0  0  0  0  0  0
   -3.7800   24.5050  -30.2630 C   0  0  0  0  0  0  0  0  0  0  0  0
   -5.0840   25.0160  -30.7900 C   0  0  0  0  0  0  0  0  0  0  0  0
   -3.1850   23.2940  -30.6500 C   0  0  0  0  0  0  0  0  0  0  0  0
   -3.7050   22.2960  -31.6130 C   0  0  0  0  0  0  0  0  0  0  0  0
   -4.8540   22.4430  -32.1090 O   0  0  0  0  0  0  0  0  0  0  0  0
   -2.8970   21.1740  -32.0060 N   0  0  0  0  0  0  0  0  0  0  0  0
   -3.4210   20.0420  -32.7230 C   0  0  0  0  0  0  0  0  0  0  0  0
   -4.6090   19.4250  -32.2920 C   0  0  0  0  0  0  0  0  0  0  0  0
   -5.1230   18.3130  -32.9680 C   0  0  0  0  0  0  0  0  0  0  0  0
   -6.6380   17.5820  -32.4400 S   0  0  0  0  0  0  0  0  0  0  0  0
   -6.4880   17.0730  -31.0320 O   0  0  0  0  0  0  0  0  0  0  0  0
   -6.9690   16.4200  -33.3350 O   0  0  0  0  0  0  0  0  0  0  0  0
   -7.9130   18.7700  -32.5340 N   0  0  0  0  0  0  0  0  0  0  0  0
   -7.3930   20.0810  -32.9210 C   0  0  0  0  0  0  0  0  0  0  0  0
   -8.3540   21.1110  -32.3520 C   0  0  0  0  0  0  0  0  0  0  0  0
   -9.0850   20.3960  -31.2260 C   0  0  0  0  0  0  0  0  0  0  0  0
   -8.5480   18.9720  -31.2320 C   0  0  0  0  0  0  0  0  0  0  0  0
   -4.4440   17.8020  -34.0780 C   0  0  0  0  0  0  0  0  0  0  0  0
   -3.2510   18.3900  -34.5030 C   0  0  0  0  0  0  0  0  0  0  0  0
   -2.7310   19.5120  -33.8380 C   0  0  0  0  0  0  0  0  0  0  0  0
   -1.4450   20.1270  -34.3190 C   0  0  0  0  0  0  0  0  0  0  0  0
   -1.7380   23.1440  -29.7990 S   0  0  0  0  0  0  0  0  0  0  0  0
   -0.0554   25.0308  -25.5239 H   0  0  0  0  0  0  0  0  0  0  0  0
   -0.2446   23.3026  -25.9758 H   0  0  0  0  0  0  0  0  0  0  0  0
    1.3853   24.0577  -25.9758 H   0  0  0  0  0  0  0  0  0  0  0  0
   -5.7436   25.2745  -29.9485 H   0  0  0  0  0  0  0  0  0  0  0  0
   -4.9058   25.9108  -31.4045 H   0  0  0  0  0  0  0  0  0  0  0  0
   -5.5612   24.2384  -31.4045 H   0  0  0  0  0  0  0  0  0  0  0  0
   -1.8700   21.2090  -31.8200 H   0  0  0  0  0  0  0  0  0  0  0  0
   -5.1400   19.8210  -31.4138 H   0  0  0  0  0  0  0  0  0  0  0  0
   -6.3862   20.2290  -32.5033 H   0  0  0  0  0  0  0  0  0  0  0  0
   -7.3148   20.1711  -34.0145 H   0  0  0  0  0  0  0  0  0  0  0  0
   -7.8024   21.9797  -31.9632 H   0  0  0  0  0  0  0  0  0  0  0  0
   -9.0480   21.4916  -33.1159 H   0  0  0  0  0  0  0  0  0  0  0  0
   -8.8749   20.8820  -30.2618 H   0  0  0  0  0  0  0  0  0  0  0  0
  -10.1756   20.4213  -31.3669 H   0  0  0  0  0  0  0  0  0  0  0  0
   -7.8110   18.8409  -30.4260 H   0  0  0  0  0  0  0  0  0  0  0  0
   -9.3552   18.2431  -31.0671 H   0  0  0  0  0  0  0  0  0  0  0  0
   -4.8507   16.9343  -34.6181 H   0  0  0  0  0  0  0  0  0  0  0  0
   -2.7138   17.9705  -35.3664 H   0  0  0  0  0  0  0  0  0  0  0  0
   -0.8324   20.4199  -33.4536 H   0  0  0  0  0  0  0  0  0  0  0  0
   -0.8936   19.3951  -34.9276 H   0  0  0  0  0  0  0  0  0  0  0  0
   -1.6686   21.0156  -34.9276 H   0  0  0  0  0  0  0  0  0  0  0  0
  1  2  1  0
  2  3  2  0
  2  4  1  0
  4  5  2  3
  5  6  1  0
  6  7  1  0
  7  8  1  0
  7  9  2  0
  9 10  1  0
 10 11  2  0
 10 12  1  0
 12 13  1  0
 13 14  2  0
 14 15  1  0
 15 16  1  0
 16 17  2  0
 16 18  2  0
 16 19  1  0
 19 20  1  0
 20 21  1  0
 21 22  1  0
 22 23  1  0
 15 24  2  0
 24 25  1  0
 25 26  2  0
 26 27  1  0
  9 28  1  0
 28  5  1  0
 26 13  1  0
 23 19  1  0
  1 29  1  0
  1 30  1  0
  1 31  1  0
  8 32  1  0
  8 33  1  0
  8 34  1  0
 12 35  1  0
 14 36  1  0
 20 37  1  0
 20 38  1  0
 21 39  1  0
 21 40  1  0
 22 41  1  0
 22 42  1  0
 23 43  1  0
 23 44  1  0
 24 45  1  0
 25 46  1  0
 27 47  1  0
 27 48  1  0
 27 49  1  0
M  CHG  1   6  -1
M  END
>  <UniqueID>  (44) 
42

>  <SMILES>  (44) 
CC(=O)N=c1[n-]c(C)c(C(=O)Nc2cc(S(=O)(=O)N3CCCC3)ccc2C)s1

>  <Energy>  (44) 
88.24288392561594

>  <Genealogy>  (44) 
CC(=O)N=c1[n-]c(C)c(C(=O)Nc2cc(S(=O)(=O)N3CCCC3)ccc2C)s1 (protonated)
CC(=O)N=c1[n-]c(C)c(C(=O)Nc2cc(S(=O)(=O)N3CCCC3)ccc2C)s1 (3D coordinates assigned)
CC(=O)N=c1[n-]c(C)c(C(=O)Nc2cc(S(=O)(=O)N3CCCC3)ccc2C)s1 (nonaromatic ring conformer: 88.24288392561594 kcal/mol)

>  <smiles>  (44) 
CC(=O)N=c1[nH]c(C)c(C(=O)Nc2cc(S(=O)(=O)N3CCCC3)ccc2C)s1

>  <score_type>  (44) 
oracle

>  <origin>  (44) 
adgpu

>  <m_score__min__energy>  (44) 
-11.24

>  <m_primary>  (44) 
energy

$$$$
44:0
     RDKit          3D

 56 58  0  0  0  0  0  0  0  0999 V2000
   -3.6770   21.2140  -32.9540 C   0  0  0  0  0  0  0  0  0  0  0  0
   -2.2380   21.1770  -33.4780 C   0  0  0  0  0  0  0  0  0  0  0  0
   -1.2120   20.8510  -32.3820 C   0  0  0  0  0  0  0  0  0  0  0  0
   -1.6740   21.3100  -31.0330 C   0  0  0  0  0  0  0  0  0  0  0  0
   -2.0120   22.6100  -30.8430 N   0  0  0  0  0  0  0  0  0  0  0  0
   -2.3710   23.0810  -29.6190 C   0  0  0  0  0  0  0  0  0  0  0  0
   -2.6380   24.5190  -29.4640 C   0  0  0  0  0  0  0  0  0  0  0  0
   -1.6880   25.3370  -29.3380 O   0  0  0  0  0  0  0  0  0  0  0  0
   -3.9860   24.9890  -29.5190 N   0  0  0  0  0  0  0  0  0  0  0  0
   -4.6960   25.2110  -30.7690 C   0  0  0  0  0  0  0  0  0  0  0  0
   -5.5560   24.0130  -31.0590 C   0  0  0  0  0  0  0  0  0  0  0  0
   -6.0360   23.7920  -32.3600 C   0  0  0  0  0  0  0  0  0  0  0  0
   -6.9350   22.7540  -32.6140 C   0  0  0  0  0  0  0  0  0  0  0  0
   -7.3760   21.9310  -31.5670 C   0  0  0  0  0  0  0  0  0  0  0  0
   -8.5210   20.6260  -31.8740 S   0  0  0  0  0  0  0  0  0  0  0  0
   -9.6590   21.1330  -32.7180 O   0  0  0  0  0  0  0  0  0  0  0  0
   -9.0760   20.1510  -30.5600 O   0  0  0  0  0  0  0  0  0  0  0  0
   -7.7090   19.3100  -32.6830 N   0  0  0  0  0  0  0  0  0  0  0  0
   -6.5290   19.8150  -33.4020 C   0  0  0  0  0  0  0  0  0  0  0  0
   -5.9030   18.6940  -34.2550 C   0  0  0  0  0  0  0  0  0  0  0  0
   -5.9300   17.3630  -33.5970 N   0  0  0  0  0  0  0  0  0  0  0  0
   -6.8930   16.4370  -34.2190 C   0  0  0  0  0  0  0  0  0  0  0  0
   -6.0990   17.4350  -32.1330 C   0  0  0  0  0  0  0  0  0  0  0  0
   -7.3440   18.2500  -31.7110 C   0  0  0  0  0  0  0  0  0  0  0  0
   -6.8900   22.1420  -30.2690 C   0  0  0  0  0  0  0  0  0  0  0  0
   -5.9930   23.1830  -30.0150 C   0  0  0  0  0  0  0  0  0  0  0  0
   -2.3950   22.2030  -28.5270 C   0  0  0  0  0  0  0  0  0  0  0  0
   -2.0480   20.8660  -28.7380 C   0  0  0  0  0  0  0  0  0  0  0  0
   -2.0640   20.0500  -27.7810 O   0  0  0  0  0  0  0  0  0  0  0  0
   -1.6870   20.4480  -29.9800 N   0  0  0  0  0  0  0  0  0  0  0  0
   -3.6668   21.2137  -31.8540 H   0  0  0  0  0  0  0  0  0  0  0  0
   -4.1757   22.1253  -33.3158 H   0  0  0  0  0  0  0  0  0  0  0  0
   -4.2218   20.3296  -33.3158 H   0  0  0  0  0  0  0  0  0  0  0  0
   -2.1696   20.4091  -34.2627 H   0  0  0  0  0  0  0  0  0  0  0  0
   -2.0012   22.1791  -33.8649 H   0  0  0  0  0  0  0  0  0  0  0  0
   -1.0553   19.7626  -32.3534 H   0  0  0  0  0  0  0  0  0  0  0  0
   -0.2770   21.3789  -32.6210 H   0  0  0  0  0  0  0  0  0  0  0  0
   -5.3282   26.1068  -30.6807 H   0  0  0  0  0  0  0  0  0  0  0  0
   -3.9749   25.3591  -31.5863 H   0  0  0  0  0  0  0  0  0  0  0  0
   -5.7020   24.4401  -33.1837 H   0  0  0  0  0  0  0  0  0  0  0  0
   -7.2983   22.5812  -33.6378 H   0  0  0  0  0  0  0  0  0  0  0  0
   -8.3880   18.9240  -33.3810 H   0  0  0  0  0  0  0  0  0  0  0  0
   -6.8312   20.6446  -34.0580 H   0  0  0  0  0  0  0  0  0  0  0  0
   -5.7863   20.1652  -32.6700 H   0  0  0  0  0  0  0  0  0  0  0  0
   -6.4587   18.6255  -35.2018 H   0  0  0  0  0  0  0  0  0  0  0  0
   -4.8461   18.9570  -34.4093 H   0  0  0  0  0  0  0  0  0  0  0  0
   -7.4481   15.9032  -33.4336 H   0  0  0  0  0  0  0  0  0  0  0  0
   -7.5974   17.0057  -34.8439 H   0  0  0  0  0  0  0  0  0  0  0  0
   -6.3523   15.7109  -34.8439 H   0  0  0  0  0  0  0  0  0  0  0  0
   -6.1991   16.4123  -31.7404 H   0  0  0  0  0  0  0  0  0  0  0  0
   -5.2152   17.9457  -31.7231 H   0  0  0  0  0  0  0  0  0  0  0  0
   -8.1951   17.5604  -31.6106 H   0  0  0  0  0  0  0  0  0  0  0  0
   -7.1002   18.7488  -30.7614 H   0  0  0  0  0  0  0  0  0  0  0  0
   -7.2157   21.4862  -29.4481 H   0  0  0  0  0  0  0  0  0  0  0  0
   -5.6275   23.3528  -28.9915 H   0  0  0  0  0  0  0  0  0  0  0  0
   -2.6807   22.5585  -27.5260 H   0  0  0  0  0  0  0  0  0  0  0  0
  1  2  1  0
  2  3  1  0
  3  4  1  0
  4  5  2  0
  5  6  1  0
  6  7  1  0
  7  8  2  0
  7  9  1  0
  9 10  1  0
 10 11  1  0
 11 12  2  0
 12 13  1  0
 13 14  2  0
 14 15  1  0
 15 16  2  0
 15 17  2  0
 15 18  1  0
 18 19  1  0
 19 20  1  0
 20 21  1  0
 21 22  1  0
 21 23  1  0
 23 24  1  0
 14 25  1  0
 25 26  2  0
  6 27  2  0
 27 28  1  0
 28 29  2  0
 28 30  1  0
 30  4  1  0
 26 11  1  0
 24 18  1  0
  1 31  1  0
  1 32  1  0
  1 33  1  0
  2 34  1  0
  2 35  1  0
  3 36  1  0
  3 37  1  0
 10 38  1  0
 10 39  1  0
 12 40  1  0
 13 41  1  0
 18 42  1  0
 19 43  1  0
 19 44  1  0
 20 45  1  0
 20 46  1  0
 22 47  1  0
 22 48  1  0
 22 49  1  0
 23 50  1  0
 23 51  1  0
 24 52  1  0
 24 53  1  0
 25 54  1  0
 26 55  1  0
 27 56  1  0
M  CHG  3   9  -1  18   1  30  -1
M  END
>  <UniqueID>  (45) 
43

>  <SMILES>  (45) 
CCCc1nc(C(=O)[N-]Cc2ccc(S(=O)(=O)[NH+]3CCN(C)CC3)cc2)cc(=O)[n-]1

>  <Energy>  (45) 
60.69398152628953

>  <Genealogy>  (45) 
CCCc1nc(C(=O)[N-]Cc2ccc(S(=O)(=O)[NH+]3CCN(C)CC3)cc2)cc(=O)[n-]1 (protonated)
CCCc1nc(C(=O)[N-]Cc2ccc(S(=O)(=O)[NH+]3CCN(C)CC3)cc2)cc(=O)[n-]1 (3D coordinates assigned)
CCCc1nc(C(=O)[N-]Cc2ccc(S(=O)(=O)[NH+]3CCN(C)CC3)cc2)cc(=O)[n-]1 (nonaromatic ring conformer: 60.69398152628953 kcal/mol)

>  <smiles>  (45) 
CCCc1nc(C(=O)NCc2ccc(S(=O)(=O)N3CCN(C)CC3)cc2)cc(=O)[nH]1

>  <score_type>  (45) 
oracle

>  <origin>  (45) 
adgpu

>  <m_score__min__energy>  (45) 
-12.17

>  <m_primary>  (45) 
energy

$$$$
45:0
     RDKit          3D

 54 57  0  0  0  0  0  0  0  0999 V2000
   -2.6810   23.4620  -28.9220 C   0  0  0  0  0  0  0  0  0  0  0  0
   -2.5920   22.6380  -30.1780 C   0  0  0  0  0  0  0  0  0  0  0  0
   -1.4760   21.8010  -30.3590 C   0  0  0  0  0  0  0  0  0  0  0  0
   -1.3250   21.0440  -31.5330 C   0  0  0  0  0  0  0  0  0  0  0  0
   -0.1910   20.2570  -31.7640 O   0  0  0  0  0  0  0  0  0  0  0  0
   -0.1320   18.8710  -31.5820 C   0  0  0  0  0  0  0  0  0  0  0  0
    0.2710   18.2420  -30.4550 N   0  0  0  0  0  0  0  0  0  0  0  0
    0.1210   16.9670  -30.6990 O   0  0  0  0  0  0  0  0  0  0  0  0
   -0.3460   16.7410  -31.8900 N   0  0  0  0  0  0  0  0  0  0  0  0
   -0.6180   15.4940  -32.4070 O   0  0  0  0  0  0  0  0  0  0  0  0
   -0.5260   17.9230  -32.4930 C   0  0  0  0  0  0  0  0  0  0  0  0
   -1.1360   18.1830  -34.1170 S   0  0  0  0  0  0  0  0  0  0  0  0
   -0.8980   19.6120  -34.5150 O   0  0  0  0  0  0  0  0  0  0  0  0
   -0.4030   17.2950  -35.0850 O   0  0  0  0  0  0  0  0  0  0  0  0
   -2.8590   17.8290  -34.1650 C   0  0  0  0  0  0  0  0  0  0  0  0
   -3.3000   16.4980  -34.1770 C   0  0  0  0  0  0  0  0  0  0  0  0
   -4.6690   16.2120  -34.2150 C   0  0  0  0  0  0  0  0  0  0  0  0
   -5.6020   17.2540  -34.2440 C   0  0  0  0  0  0  0  0  0  0  0  0
   -5.1670   18.5820  -34.2430 C   0  0  0  0  0  0  0  0  0  0  0  0
   -3.7980   18.8710  -34.2060 C   0  0  0  0  0  0  0  0  0  0  0  0
   -2.3040   21.1160  -32.5270 C   0  0  0  0  0  0  0  0  0  0  0  0
   -3.4340   21.9130  -32.3460 C   0  0  0  0  0  0  0  0  0  0  0  0
   -3.5980   22.6760  -31.1770 C   0  0  0  0  0  0  0  0  0  0  0  0
   -5.0490   23.6900  -31.0600 S   0  0  0  0  0  0  0  0  0  0  0  0
   -4.6440   25.1330  -31.1970 O   0  0  0  0  0  0  0  0  0  0  0  0
   -5.7750   23.5100  -29.7520 O   0  0  0  0  0  0  0  0  0  0  0  0
   -6.1350   23.2810  -32.3510 N   0  0  0  0  0  0  0  0  0  0  0  0
   -7.2480   22.3830  -32.2080 C   0  0  0  0  0  0  0  0  0  0  0  0
   -8.5530   22.8480  -31.9460 C   0  0  0  0  0  0  0  0  0  0  0  0
   -9.6120   21.9460  -31.8280 C   0  0  0  0  0  0  0  0  0  0  0  0
   -9.3850   20.5770  -31.9670 C   0  0  0  0  0  0  0  0  0  0  0  0
   -8.0950   20.1000  -32.2380 C   0  0  0  0  0  0  0  0  0  0  0  0
   -7.8460   18.6230  -32.3890 C   0  0  0  0  0  0  0  0  0  0  0  0
   -7.1000   18.1450  -31.3040 O   0  0  0  0  0  0  0  0  0  0  0  0
   -7.0290   21.0000  -32.3370 C   0  0  0  0  0  0  0  0  0  0  0  0
   -2.6097   22.8022  -28.0448 H   0  0  0  0  0  0  0  0  0  0  0  0
   -1.8562   24.1895  -28.9016 H   0  0  0  0  0  0  0  0  0  0  0  0
   -3.6421   23.9966  -28.9016 H   0  0  0  0  0  0  0  0  0  0  0  0
   -0.7113   21.7383  -29.5708 H   0  0  0  0  0  0  0  0  0  0  0  0
   -2.5681   15.6771  -34.1565 H   0  0  0  0  0  0  0  0  0  0  0  0
   -5.0120   15.1669  -34.2221 H   0  0  0  0  0  0  0  0  0  0  0  0
   -6.6783   17.0279  -34.2676 H   0  0  0  0  0  0  0  0  0  0  0  0
   -5.9010   19.4008  -34.2713 H   0  0  0  0  0  0  0  0  0  0  0  0
   -3.4575   19.9170  -34.2091 H   0  0  0  0  0  0  0  0  0  0  0  0
   -2.1830   20.5412  -33.4570 H   0  0  0  0  0  0  0  0  0  0  0  0
   -4.2068   21.9449  -33.1281 H   0  0  0  0  0  0  0  0  0  0  0  0
   -5.9820   23.7620  -33.2670 H   0  0  0  0  0  0  0  0  0  0  0  0
   -8.7376   23.9266  -31.8340 H   0  0  0  0  0  0  0  0  0  0  0  0
  -10.6278   22.3159  -31.6249 H   0  0  0  0  0  0  0  0  0  0  0  0
  -10.2208   19.8693  -31.8637 H   0  0  0  0  0  0  0  0  0  0  0  0
   -8.8097   18.0942  -32.4285 H   0  0  0  0  0  0  0  0  0  0  0  0
   -7.2828   18.4469  -33.3173 H   0  0  0  0  0  0  0  0  0  0  0  0
   -6.1490   18.3370  -31.5150 H   0  0  0  0  0  0  0  0  0  0  0  0
   -6.0114   20.6230  -32.5172 H   0  0  0  0  0  0  0  0  0  0  0  0
  1  2  1  0
  2  3  2  0
  3  4  1  0
  4  5  1  0
  5  6  1  0
  6  7  2  0
  7  8  1  0
  8  9  1  0
  9 10  1  0
  9 11  2  0
 11 12  1  0
 12 13  2  0
 12 14  2  0
 12 15  1  0
 15 16  2  0
 16 17  1  0
 17 18  2  0
 18 19  1  0
 19 20  2  0
  4 21  2  0
 21 22  1  0
 22 23  2  0
 23 24  1  0
 24 25  2  0
 24 26  2  0
 24 27  1  0
 27 28  1  0
 28 29  2  0
 29 30  1  0
 30 31  2  0
 31 32  1  0
 32 33  1  0
 33 34  1  0
 32 35  2  0
 23  2  1  0
 35 28  1  0
 11  6  1  0
 20 15  1  0
  1 36  1  0
  1 37  1  0
  1 38  1  0
  3 39  1  0
 16 40  1  0
 17 41  1  0
 18 42  1  0
 19 43  1  0
 20 44  1  0
 21 45  1  0
 22 46  1  0
 27 47  1  0
 29 48  1  0
 30 49  1  0
 31 50  1  0
 33 51  1  0
 33 52  1  0
 34 53  1  0
 35 54  1  0
M  CHG  2   9   1  10  -1
M  END
>  <UniqueID>  (46) 
44

>  <SMILES>  (46) 
Cc1cc(Oc2no[n+]([O-])c2S(=O)(=O)c2ccccc2)ccc1S(=O)(=O)Nc1cccc(CO)c1

>  <Energy>  (46) 
107.89453892273909

>  <Genealogy>  (46) 
Cc1cc(Oc2no[n+]([O-])c2S(=O)(=O)c2ccccc2)ccc1S(=O)(=O)Nc1cccc(CO)c1 (3D coordinates assigned)
Cc1cc(Oc2no[n+]([O-])c2S(=O)(=O)c2ccccc2)ccc1S(=O)(=O)Nc1cccc(CO)c1 (optimized conformer: 107.89453892273909 kcal/mol)

>  <smiles>  (46) 
Cc1cc(Oc2no[n+]([O-])c2S(=O)(=O)c2ccccc2)ccc1S(=O)(=O)Nc1cccc(CO)c1

>  <score_type>  (46) 
oracle

>  <origin>  (46) 
adgpu

>  <m_score__min__energy>  (46) 
-10.5

>  <m_primary>  (46) 
energy

$$$$
46:0
     RDKit          3D

 64 67  0  0  1  0  0  0  0  0999 V2000
   -9.4410   20.0700  -32.3090 C   0  0  0  0  0  0  0  0  0  0  0  0
   -8.2640   19.5330  -31.7980 O   0  0  0  0  0  0  0  0  0  0  0  0
   -6.9810   19.7440  -32.3980 C   0  0  0  0  0  0  0  0  0  0  0  0
   -6.2850   18.7250  -32.9270 C   0  0  0  0  0  0  0  0  0  0  0  0
   -5.0540   19.0380  -33.4840 C   0  0  0  0  0  0  0  0  0  0  0  0
   -4.0880   18.1390  -34.1260 C   0  0  0  0  0  0  0  0  0  0  0  0
   -4.4800   16.9980  -34.7970 C   0  0  0  0  0  0  0  0  0  0  0  0
   -3.5270   16.1900  -35.3840 C   0  0  0  0  0  0  0  0  0  0  0  0
   -2.1960   16.5410  -35.2870 C   0  0  0  0  0  0  0  0  0  0  0  0
   -1.1940   15.7220  -35.8850 N   0  0  0  0  0  0  0  0  0  0  0  0
   -1.6200   14.7630  -36.8890 C   0  0  0  0  0  0  0  0  0  0  0  0
    0.1890   15.8770  -35.4740 C   0  0  0  0  0  0  0  0  0  0  0  0
   -1.8540   17.6690  -34.6200 N   0  0  0  0  0  0  0  0  0  0  0  0
   -2.7530   18.4830  -34.0340 C   0  0  0  0  0  0  0  0  0  0  0  0
   -4.8650   20.8000  -33.2660 S   0  0  0  0  0  0  0  0  0  0  0  0
   -6.4530   20.9780  -32.4420 C   0  0  0  0  0  0  0  0  0  0  0  0
   -6.9800   22.2300  -31.9590 N   0  0  0  0  0  0  0  0  0  0  0  0
   -6.2310   22.8870  -31.1460 C   0  0  0  0  0  0  0  0  0  0  0  0
   -4.9890   22.4220  -30.7540 C   0  0  0  0  0  0  0  0  0  0  0  0
   -4.2060   23.1630  -29.8660 C   0  0  0  0  0  0  0  0  0  0  0  0
   -2.9290   22.6990  -29.4660 N   0  0  0  0  0  0  0  0  0  0  0  0
   -2.0830   21.8390  -30.2670 C   0  0  0  0  0  0  0  0  0  0  0  0
   -1.8280   20.5320  -29.5570 C   0  0  0  0  0  0  0  0  0  0  0  0
   -1.7310   20.6930  -28.1130 N   0  0  0  0  0  0  0  0  0  0  0  0
   -2.9460   20.2500  -27.5110 C   0  0  0  0  0  0  0  0  0  0  0  0
   -2.8440   19.0530  -26.6120 C   0  0  0  0  0  0  0  0  0  0  0  0
   -1.6760   18.3400  -26.7420 O   0  0  0  0  0  0  0  0  0  0  0  0
   -1.3660   22.0390  -27.7740 C   0  0  0  0  0  0  0  0  0  0  0  0
   -2.3860   23.0770  -28.1580 C   0  0  0  0  0  0  0  0  0  0  0  0
   -4.7460   24.3190  -29.4480 N   0  0  0  0  0  0  0  0  0  0  0  0
   -5.9650   24.7530  -29.8470 C   0  0  0  0  0  0  0  0  0  0  0  0
   -6.4920   26.0460  -29.3370 C   0  0  0  0  0  0  0  0  0  0  0  0
   -6.7380   24.0650  -30.6940 N   0  0  0  0  0  0  0  0  0  0  0  0
  -10.0979   20.3697  -31.4791 H   0  0  0  0  0  0  0  0  0  0  0  0
   -9.2051   20.9496  -32.9260 H   0  0  0  0  0  0  0  0  0  0  0  0
   -9.9508   19.3154  -32.9260 H   0  0  0  0  0  0  0  0  0  0  0  0
   -6.6712   17.6950  -32.9190 H   0  0  0  0  0  0  0  0  0  0  0  0
   -5.5458   16.7342  -34.8635 H   0  0  0  0  0  0  0  0  0  0  0  0
   -3.8248   15.2780  -35.9222 H   0  0  0  0  0  0  0  0  0  0  0  0
   -2.0186   13.8657  -36.3931 H   0  0  0  0  0  0  0  0  0  0  0  0
   -2.4028   15.2131  -37.5172 H   0  0  0  0  0  0  0  0  0  0  0  0
   -0.7612   14.4839  -37.5172 H   0  0  0  0  0  0  0  0  0  0  0  0
    0.2465   15.8834  -34.3755 H   0  0  0  0  0  0  0  0  0  0  0  0
    0.7845   15.0400  -35.8675 H   0  0  0  0  0  0  0  0  0  0  0  0
    0.5844   16.8251  -35.8675 H   0  0  0  0  0  0  0  0  0  0  0  0
   -2.4351   19.3908  -33.5003 H   0  0  0  0  0  0  0  0  0  0  0  0
   -4.6158   21.4634  -31.1436 H   0  0  0  0  0  0  0  0  0  0  0  0
   -2.5793   21.6374  -31.2278 H   0  0  0  0  0  0  0  0  0  0  0  0
   -1.1206   22.3449  -30.4338 H   0  0  0  0  0  0  0  0  0  0  0  0
   -2.6548   19.8417  -29.7805 H   0  0  0  0  0  0  0  0  0  0  0  0
   -0.8654   20.1385  -29.9154 H   0  0  0  0  0  0  0  0  0  0  0  0
   -3.3484   21.0830  -26.9158 H   0  0  0  0  0  0  0  0  0  0  0  0
   -3.5898   19.9361  -28.3458 H   0  0  0  0  0  0  0  0  0  0  0  0
   -2.9217   19.3981  -25.5704 H   0  0  0  0  0  0  0  0  0  0  0  0
   -3.6590   18.3736  -26.9022 H   0  0  0  0  0  0  0  0  0  0  0  0
   -1.0270   18.8360  -27.2730 H   0  0  0  0  0  0  0  0  0  0  0  0
   -1.2160   22.0907  -26.6855 H   0  0  0  0  0  0  0  0  0  0  0  0
   -0.4544   22.2695  -28.3448 H   0  0  0  0  0  0  0  0  0  0  0  0
   -3.1926   23.1054  -27.4106 H   0  0  0  0  0  0  0  0  0  0  0  0
   -1.9249   24.0747  -28.2038 H   0  0  0  0  0  0  0  0  0  0  0  0
   -4.2380   24.9330  -28.7900 H   0  0  0  0  0  0  0  0  0  0  0  0
   -6.4877   26.0354  -28.2371 H   0  0  0  0  0  0  0  0  0  0  0  0
   -5.8574   26.8687  -29.6983 H   0  0  0  0  0  0  0  0  0  0  0  0
   -7.5209   26.1907  -29.6983 H   0  0  0  0  0  0  0  0  0  0  0  0
  1  2  1  0
  2  3  1  0
  3  4  1  0
  4  5  2  0
  5  6  1  0
  6  7  2  0
  7  8  1  0
  8  9  2  0
  9 10  1  0
 10 11  1  0
 10 12  1  0
  9 13  1  0
 13 14  2  0
  5 15  1  0
 15 16  1  0
 16 17  1  0
 17 18  2  0
 18 19  1  0
 19 20  2  0
 20 21  1  0
 21 22  1  0
 22 23  1  0
 23 24  1  0
 24 25  1  0
 25 26  1  0
 26 27  1  0
 24 28  1  0
 28 29  1  0
 20 30  1  0
 30 31  1  0
 31 32  1  0
 31 33  2  0
 16  3  2  0
 33 18  1  0
 14  6  1  0
 29 21  1  0
  1 34  1  0
  1 35  1  0
  1 36  1  0
  4 37  1  0
  7 38  1  0
  8 39  1  0
 11 40  1  0
 11 41  1  0
 11 42  1  0
 12 43  1  0
 12 44  1  0
 12 45  1  0
 14 46  1  0
 19 47  1  0
 22 48  1  0
 22 49  1  0
 23 50  1  0
 23 51  1  0
 25 52  1  0
 25 53  1  0
 26 54  1  0
 26 55  1  0
 27 56  1  0
 28 57  1  0
 28 58  1  0
 29 59  1  0
 29 60  1  0
 30 61  1  0
 32 62  1  0
 32 63  1  0
 32 64  1  0
M  END
>  <smiles>  (47) 
COc1cc(-c2ccc(N(C)C)nc2)sc1N=c1cc(N2CCN(CCO)CC2)[nH]c(C)n1

>  <score_type>  (47) 
oracle

>  <origin>  (47) 
adgpu

>  <m_score__min__energy>  (47) 
-8.3399999999999999

>  <m_primary>  (47) 
energy

$$$$
47:0
     RDKit          3D

 52 54  0  0  0  0  0  0  0  0999 V2000
   -7.1600   17.6700  -32.6820 C   0  0  0  0  0  0  0  0  0  0  0  0
   -5.7570   17.4280  -33.0420 N   0  0  0  0  0  0  0  0  0  0  0  0
   -5.6480   16.2050  -33.8460 C   0  0  0  0  0  0  0  0  0  0  0  0
   -5.1510   18.7820  -33.9640 S   0  0  0  0  0  0  0  0  0  0  0  0
   -3.8260   18.4250  -34.5780 O   0  0  0  0  0  0  0  0  0  0  0  0
   -6.1120   19.1290  -35.0670 O   0  0  0  0  0  0  0  0  0  0  0  0
   -4.9240   20.1720  -32.9050 C   0  0  0  0  0  0  0  0  0  0  0  0
   -3.6540   20.7360  -32.7290 C   0  0  0  0  0  0  0  0  0  0  0  0
   -3.4880   21.8540  -31.9060 C   0  0  0  0  0  0  0  0  0  0  0  0
   -4.5950   22.4290  -31.2610 C   0  0  0  0  0  0  0  0  0  0  0  0
   -4.4330   23.6060  -30.3820 C   0  0  0  0  0  0  0  0  0  0  0  0
   -4.7350   24.7400  -30.8420 O   0  0  0  0  0  0  0  0  0  0  0  0
   -3.9380   23.4970  -29.0270 N   0  0  0  0  0  0  0  0  0  0  0  0
   -3.2260   22.2940  -28.5670 C   0  0  0  0  0  0  0  0  0  0  0  0
   -2.0640   22.6160  -27.6030 C   0  0  0  0  0  0  0  0  0  0  0  0
   -2.1420   23.9460  -26.9700 N   0  0  0  0  0  0  0  0  0  0  0  0
   -1.0990   25.1350  -27.7270 S   0  0  0  0  0  0  0  0  0  0  0  0
    0.1940   24.4750  -28.1210 O   0  0  0  0  0  0  0  0  0  0  0  0
   -1.7610   25.6280  -28.9840 O   0  0  0  0  0  0  0  0  0  0  0  0
   -0.7470   26.5380  -26.7060 C   0  0  0  0  0  0  0  0  0  0  0  0
   -0.4800   27.7890  -27.2860 C   0  0  0  0  0  0  0  0  0  0  0  0
   -0.2280   28.9020  -26.4790 C   0  0  0  0  0  0  0  0  0  0  0  0
   -0.2510   28.7770  -25.0870 C   0  0  0  0  0  0  0  0  0  0  0  0
   -0.5370   27.5410  -24.5020 C   0  0  0  0  0  0  0  0  0  0  0  0
   -0.7970   26.4280  -25.3070 C   0  0  0  0  0  0  0  0  0  0  0  0
   -3.5210   24.4110  -26.7540 C   0  0  0  0  0  0  0  0  0  0  0  0
   -4.2970   24.5480  -28.0660 C   0  0  0  0  0  0  0  0  0  0  0  0
   -5.8630   21.8480  -31.4240 C   0  0  0  0  0  0  0  0  0  0  0  0
   -6.0270   20.7320  -32.2490 C   0  0  0  0  0  0  0  0  0  0  0  0
   -7.2598   17.6872  -31.5867 H   0  0  0  0  0  0  0  0  0  0  0  0
   -7.4829   18.6371  -33.0948 H   0  0  0  0  0  0  0  0  0  0  0  0
   -7.7882   16.8670  -33.0948 H   0  0  0  0  0  0  0  0  0  0  0  0
   -5.5703   15.3336  -33.1792 H   0  0  0  0  0  0  0  0  0  0  0  0
   -6.5406   16.1027  -34.4807 H   0  0  0  0  0  0  0  0  0  0  0  0
   -4.7514   16.2621  -34.4807 H   0  0  0  0  0  0  0  0  0  0  0  0
   -2.7841   20.2978  -33.2401 H   0  0  0  0  0  0  0  0  0  0  0  0
   -2.4861   22.2850  -31.7631 H   0  0  0  0  0  0  0  0  0  0  0  0
   -3.9416   21.6395  -28.0479 H   0  0  0  0  0  0  0  0  0  0  0  0
   -2.7943   21.8065  -29.4535 H   0  0  0  0  0  0  0  0  0  0  0  0
   -2.0583   21.8569  -26.8069 H   0  0  0  0  0  0  0  0  0  0  0  0
   -1.1460   22.6125  -28.2091 H   0  0  0  0  0  0  0  0  0  0  0  0
   -0.4692   27.8933  -28.3810 H   0  0  0  0  0  0  0  0  0  0  0  0
   -0.0114   29.8771  -26.9397 H   0  0  0  0  0  0  0  0  0  0  0  0
   -0.0440   29.6514  -24.4525 H   0  0  0  0  0  0  0  0  0  0  0  0
   -0.5576   27.4434  -23.4065 H   0  0  0  0  0  0  0  0  0  0  0  0
   -1.0419   25.4615  -24.8423 H   0  0  0  0  0  0  0  0  0  0  0  0
   -4.0415   23.6884  -26.1084 H   0  0  0  0  0  0  0  0  0  0  0  0
   -3.4727   25.4047  -26.2848 H   0  0  0  0  0  0  0  0  0  0  0  0
   -5.3737   24.4806  -27.8510 H   0  0  0  0  0  0  0  0  0  0  0  0
   -4.0419   25.5202  -28.5130 H   0  0  0  0  0  0  0  0  0  0  0  0
   -6.7314   22.2734  -30.8997 H   0  0  0  0  0  0  0  0  0  0  0  0
   -7.0261   20.2920  -32.3835 H   0  0  0  0  0  0  0  0  0  0  0  0
  1  2  1  0
  2  3  1  0
  2  4  1  0
  4  5  2  0
  4  6  2  0
  4  7  1  0
  7  8  2  0
  8  9  1  0
  9 10  2  0
 10 11  1  0
 11 12  2  0
 11 13  1  0
 13 14  1  0
 14 15  1  0
 15 16  1  0
 16 17  1  0
 17 18  2  0
 17 19  2  0
 17 20  1  0
 20 21  2  0
 21 22  1  0
 22 23  2  0
 23 24  1  0
 24 25  2  0
 16 26  1  0
 26 27  1  0
 10 28  1  0
 28 29  2  0
 29  7  1  0
 27 13  1  0
 25 20  1  0
  1 30  1  0
  1 31  1  0
  1 32  1  0
  3 33  1  0
  3 34  1  0
  3 35  1  0
  8 36  1  0
  9 37  1  0
 14 38  1  0
 14 39  1  0
 15 40  1  0
 15 41  1  0
 21 42  1  0
 22 43  1  0
 23 44  1  0
 24 45  1  0
 25 46  1  0
 26 47  1  0
 26 48  1  0
 27 49  1  0
 27 50  1  0
 28 51  1  0
 29 52  1  0
M  END
>  <UniqueID>  (48) 
45

>  <SMILES>  (48) 
CN(C)S(=O)(=O)c1ccc(C(=O)N2CCN(S(=O)(=O)c3ccccc3)CC2)cc1

>  <Energy>  (48) 
61.898815913007894

>  <Genealogy>  (48) 
CN(C)S(=O)(=O)c1ccc(C(=O)N2CCN(S(=O)(=O)c3ccccc3)CC2)cc1 (3D coordinates assigned)
CN(C)S(=O)(=O)c1ccc(C(=O)N2CCN(S(=O)(=O)c3ccccc3)CC2)cc1 (nonaromatic ring conformer: 61.898815913007894 kcal/mol)

>  <smiles>  (48) 
CN(C)S(=O)(=O)c1ccc(C(=O)N2CCN(S(=O)(=O)c3ccccc3)CC2)cc1

>  <score_type>  (48) 
oracle

>  <origin>  (48) 
adgpu

>  <m_score__min__energy>  (48) 
-10.119999999999999

>  <m_primary>  (48) 
energy

$$$$
48:0
     RDKit          3D

 58 61  0  0  0  0  0  0  0  0999 V2000
   -5.6750   25.4990  -30.9370 C   0  0  0  0  0  0  0  0  0  0  0  0
   -4.4880   24.7460  -30.4410 C   0  0  0  0  0  0  0  0  0  0  0  0
   -4.1770   23.4370  -30.7570 C   0  0  0  0  0  0  0  0  0  0  0  0
   -2.9520   23.2320  -30.1420 C   0  0  0  0  0  0  0  0  0  0  0  0
   -2.2110   22.1600  -30.1880 N   0  0  0  0  0  0  0  0  0  0  0  0
   -2.4770   20.9120  -30.8480 C   0  0  0  0  0  0  0  0  0  0  0  0
   -3.6590   20.5160  -31.0380 O   0  0  0  0  0  0  0  0  0  0  0  0
   -1.3700   20.0980  -31.2630 N   0  0  0  0  0  0  0  0  0  0  0  0
   -1.4980   18.9220  -32.0800 C   0  0  0  0  0  0  0  0  0  0  0  0
   -0.5110   17.9270  -32.0860 C   0  0  0  0  0  0  0  0  0  0  0  0
   -0.6620   16.7870  -32.8760 C   0  0  0  0  0  0  0  0  0  0  0  0
   -1.8100   16.6060  -33.6680 C   0  0  0  0  0  0  0  0  0  0  0  0
   -1.9110   15.3590  -34.5040 C   0  0  0  0  0  0  0  0  0  0  0  0
   -2.8260   17.5990  -33.6480 C   0  0  0  0  0  0  0  0  0  0  0  0
   -4.3400   17.5000  -34.5740 S   0  0  0  0  0  0  0  0  0  0  0  0
   -4.1690   16.8290  -35.9060 O   0  0  0  0  0  0  0  0  0  0  0  0
   -4.8130   18.9060  -34.8180 O   0  0  0  0  0  0  0  0  0  0  0  0
   -5.5430   16.6460  -33.6320 N   0  0  0  0  0  0  0  0  0  0  0  0
   -6.8960   17.2100  -33.8250 C   0  0  0  0  0  0  0  0  0  0  0  0
   -7.1400   18.5030  -33.0220 C   0  0  0  0  0  0  0  0  0  0  0  0
   -6.5160   18.4770  -31.6170 C   0  0  0  0  0  0  0  0  0  0  0  0
   -6.1120   17.0670  -31.1980 C   0  0  0  0  0  0  0  0  0  0  0  0
   -5.1240   16.4790  -32.2170 C   0  0  0  0  0  0  0  0  0  0  0  0
   -2.6570   18.7360  -32.8430 C   0  0  0  0  0  0  0  0  0  0  0  0
   -2.5790   24.3690  -29.5060 N   0  0  0  0  0  0  0  0  0  0  0  0
   -1.3620   24.6180  -28.7750 C   0  0  0  0  0  0  0  0  0  0  0  0
   -1.1420   25.8440  -28.1190 C   0  0  0  0  0  0  0  0  0  0  0  0
    0.0440   26.0640  -27.4120 C   0  0  0  0  0  0  0  0  0  0  0  0
    1.0250   25.0710  -27.3620 C   0  0  0  0  0  0  0  0  0  0  0  0
    0.8280   23.8600  -28.0300 C   0  0  0  0  0  0  0  0  0  0  0  0
   -0.3570   23.6360  -28.7370 C   0  0  0  0  0  0  0  0  0  0  0  0
   -3.5040   25.2960  -29.7040 N   0  0  0  0  0  0  0  0  0  0  0  0
   -6.2584   25.8691  -30.0810 H   0  0  0  0  0  0  0  0  0  0  0  0
   -5.3402   26.3502  -31.5480 H   0  0  0  0  0  0  0  0  0  0  0  0
   -6.3024   24.8334  -31.5480 H   0  0  0  0  0  0  0  0  0  0  0  0
   -4.7639   22.7251  -31.3559 H   0  0  0  0  0  0  0  0  0  0  0  0
   -0.4380   20.3080  -30.8420 H   0  0  0  0  0  0  0  0  0  0  0  0
    0.3884   18.0456  -31.4639 H   0  0  0  0  0  0  0  0  0  0  0  0
    0.1267   16.0202  -32.8794 H   0  0  0  0  0  0  0  0  0  0  0  0
   -1.9821   14.4808  -33.8454 H   0  0  0  0  0  0  0  0  0  0  0  0
   -2.8076   15.4148  -35.1389 H   0  0  0  0  0  0  0  0  0  0  0  0
   -1.0171   15.2698  -35.1389 H   0  0  0  0  0  0  0  0  0  0  0  0
   -7.0320   17.4322  -34.8937 H   0  0  0  0  0  0  0  0  0  0  0  0
   -7.6151   16.4612  -33.4615 H   0  0  0  0  0  0  0  0  0  0  0  0
   -6.7075   19.3466  -33.5799 H   0  0  0  0  0  0  0  0  0  0  0  0
   -8.2276   18.6039  -32.8921 H   0  0  0  0  0  0  0  0  0  0  0  0
   -5.6224   19.1185  -31.6132 H   0  0  0  0  0  0  0  0  0  0  0  0
   -7.2697   18.8410  -30.9033 H   0  0  0  0  0  0  0  0  0  0  0  0
   -5.6350   17.1039  -30.2075 H   0  0  0  0  0  0  0  0  0  0  0  0
   -7.0090   16.4316  -31.1566 H   0  0  0  0  0  0  0  0  0  0  0  0
   -4.1522   16.9768  -32.0832 H   0  0  0  0  0  0  0  0  0  0  0  0
   -5.0763   15.3969  -32.0253 H   0  0  0  0  0  0  0  0  0  0  0  0
   -3.4512   19.4964  -32.8108 H   0  0  0  0  0  0  0  0  0  0  0  0
   -1.9072   26.6330  -28.1629 H   0  0  0  0  0  0  0  0  0  0  0  0
    0.2048   27.0210  -26.8941 H   0  0  0  0  0  0  0  0  0  0  0  0
    1.9528   25.2425  -26.7966 H   0  0  0  0  0  0  0  0  0  0  0  0
    1.6055   23.0825  -27.9997 H   0  0  0  0  0  0  0  0  0  0  0  0
   -0.5041   22.6838  -29.2677 H   0  0  0  0  0  0  0  0  0  0  0  0
  1  2  1  0
  2  3  2  0
  3  4  1  0
  4  5  2  3
  5  6  1  0
  6  7  2  0
  6  8  1  0
  8  9  1  0
  9 10  2  0
 10 11  1  0
 11 12  2  0
 12 13  1  0
 12 14  1  0
 14 15  1  0
 15 16  2  0
 15 17  2  0
 15 18  1  0
 18 19  1  0
 19 20  1  0
 20 21  1  0
 21 22  1  0
 22 23  1  0
 14 24  2  0
  4 25  1  0
 25 26  1  0
 26 27  2  0
 27 28  1  0
 28 29  2  0
 29 30  1  0
 30 31  2  0
 25 32  1  0
 32  2  1  0
 24  9  1  0
 31 26  1  0
 23 18  1  0
  1 33  1  0
  1 34  1  0
  1 35  1  0
  3 36  1  0
  8 37  1  0
 10 38  1  0
 11 39  1  0
 13 40  1  0
 13 41  1  0
 13 42  1  0
 19 43  1  0
 19 44  1  0
 20 45  1  0
 20 46  1  0
 21 47  1  0
 21 48  1  0
 22 49  1  0
 22 50  1  0
 23 51  1  0
 23 52  1  0
 24 53  1  0
 27 54  1  0
 28 55  1  0
 29 56  1  0
 30 57  1  0
 31 58  1  0
M  CHG  1  32  -1
M  END
>  <UniqueID>  (49) 
46

>  <SMILES>  (49) 
Cc1cc(=NC(=O)Nc2ccc(C)c(S(=O)(=O)N3CCCCC3)c2)n(-c2ccccc2)[n-]1

>  <Energy>  (49) 
113.05461199403464

>  <Genealogy>  (49) 
Cc1cc(=NC(=O)Nc2ccc(C)c(S(=O)(=O)N3CCCCC3)c2)n(-c2ccccc2)[n-]1 (protonated)
Cc1cc(=NC(=O)Nc2ccc(C)c(S(=O)(=O)N3CCCCC3)c2)n(-c2ccccc2)[n-]1 (3D coordinates assigned)
Cc1cc(=NC(=O)Nc2ccc(C)c(S(=O)(=O)N3CCCCC3)c2)n(-c2ccccc2)[n-]1 (nonaromatic ring conformer: 113.05461199403464 kcal/mol)

>  <smiles>  (49) 
Cc1cc(=NC(=O)Nc2ccc(C)c(S(=O)(=O)N3CCCCC3)c2)n(-c2ccccc2)[nH]1

>  <score_type>  (49) 
oracle

>  <origin>  (49) 
adgpu

>  <m_score__min__energy>  (49) 
-11.32

>  <m_primary>  (49) 
energy

$$$$
49:0
     RDKit          3D

 48 50  0  0  0  0  0  0  0  0999 V2000
   -4.6950   21.9300  -30.3340 C   0  0  0  0  0  0  0  0  0  0  0  0
   -5.9010   22.7380  -30.1230 N   0  0  0  0  0  0  0  0  0  0  0  0
   -5.6330   24.0400  -29.4720 C   0  0  0  0  0  0  0  0  0  0  0  0
   -4.8130   25.0140  -30.2980 C   0  0  0  0  0  0  0  0  0  0  0  0
   -5.3640   26.0300  -30.7960 O   0  0  0  0  0  0  0  0  0  0  0  0
   -3.3840   24.9230  -30.3630 N   0  0  0  0  0  0  0  0  0  0  0  0
   -2.5190   24.3440  -29.3770 C   0  0  0  0  0  0  0  0  0  0  0  0
   -2.3140   24.9610  -28.1340 C   0  0  0  0  0  0  0  0  0  0  0  0
   -1.5020   24.3540  -27.1730 C   0  0  0  0  0  0  0  0  0  0  0  0
   -0.9050   23.1200  -27.4380 C   0  0  0  0  0  0  0  0  0  0  0  0
   -1.1250   22.4820  -28.6670 C   0  0  0  0  0  0  0  0  0  0  0  0
   -0.4120   20.9020  -28.9780 S   0  0  0  0  0  0  0  0  0  0  0  0
    0.9220   20.8170  -28.2910 O   0  0  0  0  0  0  0  0  0  0  0  0
   -0.2010   20.7240  -30.4580 O   0  0  0  0  0  0  0  0  0  0  0  0
   -1.4690   19.6600  -28.3550 N   0  0  0  0  0  0  0  0  0  0  0  0
   -0.8540   18.9540  -27.2320 C   0  0  0  0  0  0  0  0  0  0  0  0
   -1.9940   18.4360  -26.3680 C   0  0  0  0  0  0  0  0  0  0  0  0
   -3.2040   19.2720  -26.7560 C   0  0  0  0  0  0  0  0  0  0  0  0
   -2.7060   20.2320  -27.8250 C   0  0  0  0  0  0  0  0  0  0  0  0
   -1.9460   23.0910  -29.6270 C   0  0  0  0  0  0  0  0  0  0  0  0
   -6.8460   22.8620  -31.5900 S   0  0  0  0  0  0  0  0  0  0  0  0
   -6.0020   23.3840  -32.7220 O   0  0  0  0  0  0  0  0  0  0  0  0
   -8.0230   23.7780  -31.3960 O   0  0  0  0  0  0  0  0  0  0  0  0
   -7.4380   21.2670  -32.0060 C   0  0  0  0  0  0  0  0  0  0  0  0
   -6.6860   20.2310  -32.5420 C   0  0  0  0  0  0  0  0  0  0  0  0
   -7.4340   19.0650  -32.7460 C   0  0  0  0  0  0  0  0  0  0  0  0
   -8.7670   19.1850  -32.3700 C   0  0  0  0  0  0  0  0  0  0  0  0
   -9.0160   20.7420  -31.7800 S   0  0  0  0  0  0  0  0  0  0  0  0
   -4.2696   21.6450  -29.3604 H   0  0  0  0  0  0  0  0  0  0  0  0
   -4.9554   21.0234  -30.8999 H   0  0  0  0  0  0  0  0  0  0  0  0
   -3.9556   22.5157  -30.8999 H   0  0  0  0  0  0  0  0  0  0  0  0
   -6.5997   24.5138  -29.2461 H   0  0  0  0  0  0  0  0  0  0  0  0
   -5.0351   23.8180  -28.5758 H   0  0  0  0  0  0  0  0  0  0  0  0
   -2.7943   25.9261  -27.9153 H   0  0  0  0  0  0  0  0  0  0  0  0
   -1.3326   24.8492  -26.2055 H   0  0  0  0  0  0  0  0  0  0  0  0
   -0.2611   22.6476  -26.6815 H   0  0  0  0  0  0  0  0  0  0  0  0
   -0.2444   18.1151  -27.5990 H   0  0  0  0  0  0  0  0  0  0  0  0
   -0.1926   19.6202  -26.6587 H   0  0  0  0  0  0  0  0  0  0  0  0
   -2.1796   17.3713  -26.5729 H   0  0  0  0  0  0  0  0  0  0  0  0
   -1.7656   18.5187  -25.2952 H   0  0  0  0  0  0  0  0  0  0  0  0
   -4.0025   18.6303  -27.1568 H   0  0  0  0  0  0  0  0  0  0  0  0
   -3.6264   19.8057  -25.8919 H   0  0  0  0  0  0  0  0  0  0  0  0
   -3.4534   20.3290  -28.6263 H   0  0  0  0  0  0  0  0  0  0  0  0
   -2.5331   21.2353  -27.4085 H   0  0  0  0  0  0  0  0  0  0  0  0
   -2.1410   22.5814  -30.5821 H   0  0  0  0  0  0  0  0  0  0  0  0
   -5.6158   20.3168  -32.7812 H   0  0  0  0  0  0  0  0  0  0  0  0
   -7.0072   18.1414  -33.1642 H   0  0  0  0  0  0  0  0  0  0  0  0
   -9.5299   18.3961  -32.4452 H   0  0  0  0  0  0  0  0  0  0  0  0
  1  2  1  0
  2  3  1  0
  3  4  1  0
  4  5  2  0
  4  6  1  0
  6  7  1  0
  7  8  2  0
  8  9  1  0
  9 10  2  0
 10 11  1  0
 11 12  1  0
 12 13  2  0
 12 14  2  0
 12 15  1  0
 15 16  1  0
 16 17  1  0
 17 18  1  0
 18 19  1  0
 11 20  2  0
  2 21  1  0
 21 22  2  0
 21 23  2  0
 21 24  1  0
 24 25  2  0
 25 26  1  0
 26 27  2  0
 27 28  1  0
 20  7  1  0
 28 24  1  0
 19 15  1  0
  1 29  1  0
  1 30  1  0
  1 31  1  0
  3 32  1  0
  3 33  1  0
  8 34  1  0
  9 35  1  0
 10 36  1  0
 16 37  1  0
 16 38  1  0
 17 39  1  0
 17 40  1  0
 18 41  1  0
 18 42  1  0
 19 43  1  0
 19 44  1  0
 20 45  1  0
 25 46  1  0
 26 47  1  0
 27 48  1  0
M  CHG  1   6  -1
M  END
>  <UniqueID>  (50) 
47

>  <SMILES>  (50) 
CN(CC(=O)[N-]c1cccc(S(=O)(=O)N2CCCC2)c1)S(=O)(=O)c1cccs1

>  <Energy>  (50) 
85.26829379016064

>  <Genealogy>  (50) 
CN(CC(=O)[N-]c1cccc(S(=O)(=O)N2CCCC2)c1)S(=O)(=O)c1cccs1 (protonated)
CN(CC(=O)[N-]c1cccc(S(=O)(=O)N2CCCC2)c1)S(=O)(=O)c1cccs1 (3D coordinates assigned)
CN(CC(=O)[N-]c1cccc(S(=O)(=O)N2CCCC2)c1)S(=O)(=O)c1cccs1 (nonaromatic ring conformer: 85.26829379016064 kcal/mol)

>  <smiles>  (50) 
CN(CC(=O)Nc1cccc(S(=O)(=O)N2CCCC2)c1)S(=O)(=O)c1cccs1

>  <score_type>  (50) 
oracle

>  <origin>  (50) 
adgpu

>  <m_score__min__energy>  (50) 
-11.449999999999999

>  <m_primary>  (50) 
energy

$$$$
