0:0
     RDKit          3D

 50 52  0  0  0  0  0  0  0  0999 V2000
   -5.0330   15.3080  -33.3790 C   0  0  0  0  0  0  0  0  0  0  0  0
   -5.4190   16.7370  -33.1330 C   0  0  0  0  0  0  0  0  0  0  0  0
   -6.6560   17.0410  -32.5630 C   0  0  0  0  0  0  0  0  0  0  0  0
   -7.0160   18.3690  -32.2810 C   0  0  0  0  0  0  0  0  0  0  0  0
   -8.3530   18.6130  -31.6280 C   0  0  0  0  0  0  0  0  0  0  0  0
   -6.1220   19.4290  -32.6060 C   0  0  0  0  0  0  0  0  0  0  0  0
   -6.5200   20.8490  -32.3800 C   0  0  0  0  0  0  0  0  0  0  0  0
   -5.6400   21.8510  -32.1360 N   0  0  0  0  0  0  0  0  0  0  0  0
   -6.4500   22.9110  -31.9620 C   0  0  0  0  0  0  0  0  0  0  0  0
   -5.8660   24.5700  -31.5920 S   0  0  0  0  0  0  0  0  0  0  0  0
   -5.6550   24.3230  -29.7900 C   0  0  0  0  0  0  0  0  0  0  0  0
   -4.2710   23.8920  -29.4190 C   0  0  0  0  0  0  0  0  0  0  0  0
   -4.0690   22.7300  -28.9760 O   0  0  0  0  0  0  0  0  0  0  0  0
   -3.1820   24.7970  -29.6290 N   0  0  0  0  0  0  0  0  0  0  0  0
   -1.9100   24.7440  -28.9720 C   0  0  0  0  0  0  0  0  0  0  0  0
   -1.6360   25.7050  -27.9900 C   0  0  0  0  0  0  0  0  0  0  0  0
   -0.4110   25.7030  -27.3020 C   0  0  0  0  0  0  0  0  0  0  0  0
   -0.0870   26.7750  -26.2900 C   0  0  0  0  0  0  0  0  0  0  0  0
   -1.0390   26.7880  -25.2870 F   0  0  0  0  0  0  0  0  0  0  0  0
    1.1510   26.5140  -25.7330 F   0  0  0  0  0  0  0  0  0  0  0  0
   -0.0600   28.0270  -26.8790 F   0  0  0  0  0  0  0  0  0  0  0  0
    0.5480   24.7290  -27.6220 C   0  0  0  0  0  0  0  0  0  0  0  0
    0.2620   23.7390  -28.5640 C   0  0  0  0  0  0  0  0  0  0  0  0
   -0.9680   23.7270  -29.2300 C   0  0  0  0  0  0  0  0  0  0  0  0
   -1.3240   22.3650  -30.2870 Cl  0  0  0  0  0  0  0  0  0  0  0  0
   -7.7420   22.5710  -32.0960 N   0  0  0  0  0  0  0  0  0  0  0  0
   -8.9060   23.4400  -31.9790 C   0  0  0  0  0  0  0  0  0  0  0  0
   -7.7990   21.2800  -32.3620 N   0  0  0  0  0  0  0  0  0  0  0  0
   -4.8480   19.1070  -33.1580 C   0  0  0  0  0  0  0  0  0  0  0  0
   -3.8150   20.1580  -33.4840 C   0  0  0  0  0  0  0  0  0  0  0  0
   -4.5120   17.7650  -33.3980 C   0  0  0  0  0  0  0  0  0  0  0  0
   -4.8943   14.7947  -32.4161 H   0  0  0  0  0  0  0  0  0  0  0  0
   -5.8279   14.8067  -33.9506 H   0  0  0  0  0  0  0  0  0  0  0  0
   -4.0938   15.2751  -33.9506 H   0  0  0  0  0  0  0  0  0  0  0  0
   -7.3599   16.2281  -32.3310 H   0  0  0  0  0  0  0  0  0  0  0  0
   -8.2363   18.5917  -30.5344 H   0  0  0  0  0  0  0  0  0  0  0  0
   -8.7378   19.5962  -31.9366 H   0  0  0  0  0  0  0  0  0  0  0  0
   -9.0603   17.8291  -31.9366 H   0  0  0  0  0  0  0  0  0  0  0  0
   -5.8766   25.2708  -29.2776 H   0  0  0  0  0  0  0  0  0  0  0  0
   -6.3433   23.5213  -29.4841 H   0  0  0  0  0  0  0  0  0  0  0  0
   -2.3896   26.4709  -27.7546 H   0  0  0  0  0  0  0  0  0  0  0  0
    1.5305   24.7459  -27.1277 H   0  0  0  0  0  0  0  0  0  0  0  0
    1.0095   22.9626  -28.7841 H   0  0  0  0  0  0  0  0  0  0  0  0
   -9.1321   23.6088  -30.9158 H   0  0  0  0  0  0  0  0  0  0  0  0
   -8.6949   24.4033  -32.4664 H   0  0  0  0  0  0  0  0  0  0  0  0
   -9.7695   22.9639  -32.4664 H   0  0  0  0  0  0  0  0  0  0  0  0
   -3.4070   20.5731  -32.5506 H   0  0  0  0  0  0  0  0  0  0  0  0
   -3.0020   19.7039  -34.0695 H   0  0  0  0  0  0  0  0  0  0  0  0
   -4.2831   20.9630  -34.0695 H   0  0  0  0  0  0  0  0  0  0  0  0
   -3.5184   17.5196  -33.8012 H   0  0  0  0  0  0  0  0  0  0  0  0
  1  2  1  0
  2  3  2  0
  3  4  1  0
  4  5  1  0
  4  6  2  0
  6  7  1  0
  7  8  1  0
  8  9  2  0
  9 10  1  0
 10 11  1  0
 11 12  1  0
 12 13  2  0
 12 14  1  0
 14 15  1  0
 15 16  2  0
 16 17  1  0
 17 18  1  0
 18 19  1  0
 18 20  1  0
 18 21  1  0
 17 22  2  0
 22 23  1  0
 23 24  2  0
 24 25  1  0
  9 26  1  0
 26 27  1  0
 26 28  1  0
  6 29  1  0
 29 30  1  0
 29 31  2  0
 31  2  1  0
 28  7  2  0
 24 15  1  0
  1 32  1  0
  1 33  1  0
  1 34  1  0
  3 35  1  0
  5 36  1  0
  5 37  1  0
  5 38  1  0
 11 39  1  0
 11 40  1  0
 16 41  1  0
 22 42  1  0
 23 43  1  0
 27 44  1  0
 27 45  1  0
 27 46  1  0
 30 47  1  0
 30 48  1  0
 30 49  1  0
 31 50  1  0
M  CHG  1  14  -1
M  END
>  <UniqueID>  (1) 
1

>  <SMILES>  (1) 
Cc1cc(C)c(-c2nc(SCC(=O)[N-]c3cc(C(F)(F)F)ccc3Cl)n(C)n2)c(C)c1

>  <Energy>  (1) 
92.7136522267564

>  <Genealogy>  (1) 
Cc1cc(C)c(-c2nc(SCC(=O)[N-]c3cc(C(F)(F)F)ccc3Cl)n(C)n2)c(C)c1 (protonated)
Cc1cc(C)c(-c2nc(SCC(=O)[N-]c3cc(C(F)(F)F)ccc3Cl)n(C)n2)c(C)c1 (3D coordinates assigned)
Cc1cc(C)c(-c2nc(SCC(=O)[N-]c3cc(C(F)(F)F)ccc3Cl)n(C)n2)c(C)c1 (optimized conformer: 92.7136522267564 kcal/mol)

>  <smiles>  (1) 
Cc1cc(C)c(-c2nc(SCC(=O)Nc3cc(C(F)(F)F)ccc3Cl)n(C)n2)c(C)c1

>  <score_type>  (1) 
oracle

>  <origin>  (1) 
adgpu

>  <m_score__min__energy>  (1) 
-10.94

>  <m_primary>  (1) 
energy

$$$$
1:0
     RDKit          3D

 82 86  0  0  0  0  0  0  0  0999 V2000
   -5.9180   18.5850  -34.2560 C   0  0  0  0  0  0  0  0  0  0  0  0
   -6.4560   17.5190  -33.3930 N   0  0  0  0  0  0  0  0  0  0  0  0
   -5.7460   17.5370  -32.1010 C   0  0  0  0  0  0  0  0  0  0  0  0
   -6.2890   16.1890  -34.0200 C   0  0  0  0  0  0  0  0  0  0  0  0
   -5.2370   15.3400  -33.2960 C   0  0  0  0  0  0  0  0  0  0  0  0
   -4.3880   14.6670  -34.2770 N   0  0  0  0  0  0  0  0  0  0  0  0
   -2.9570   14.7440  -34.2940 C   0  0  0  0  0  0  0  0  0  0  0  0
   -2.2870   13.7130  -34.0310 O   0  0  0  0  0  0  0  0  0  0  0  0
   -2.2520   16.0060  -34.5890 C   0  0  0  0  0  0  0  0  0  0  0  0
   -0.9160   15.9900  -35.0100 C   0  0  0  0  0  0  0  0  0  0  0  0
   -0.2300   17.1860  -35.2310 C   0  0  0  0  0  0  0  0  0  0  0  0
   -0.8620   18.4250  -35.0150 C   0  0  0  0  0  0  0  0  0  0  0  0
   -0.1390   19.6680  -35.1830 N   0  0  0  0  0  0  0  0  0  0  0  0
    0.9350   19.7720  -36.1770 C   0  0  0  0  0  0  0  0  0  0  0  0
   -0.4540   20.8230  -34.3800 C   0  0  0  0  0  0  0  0  0  0  0  0
   -0.1370   21.9710  -34.8010 O   0  0  0  0  0  0  0  0  0  0  0  0
   -1.1520   20.6910  -33.0790 C   0  0  0  0  0  0  0  0  0  0  0  0
   -0.4830   20.1570  -31.9670 C   0  0  0  0  0  0  0  0  0  0  0  0
   -1.1210   20.0680  -30.7280 C   0  0  0  0  0  0  0  0  0  0  0  0
   -2.4410   20.5260  -30.5720 C   0  0  0  0  0  0  0  0  0  0  0  0
   -3.0840   20.5120  -29.3250 O   0  0  0  0  0  0  0  0  0  0  0  0
   -2.4530   20.5960  -28.0760 C   0  0  0  0  0  0  0  0  0  0  0  0
   -3.0030   21.2350  -27.1380 O   0  0  0  0  0  0  0  0  0  0  0  0
   -1.1200   19.9650  -27.8950 C   0  0  0  0  0  0  0  0  0  0  0  0
   -1.0640   18.5720  -27.6850 C   0  0  0  0  0  0  0  0  0  0  0  0
    0.1590   17.9230  -27.4940 C   0  0  0  0  0  0  0  0  0  0  0  0
    1.3460   18.6520  -27.5120 C   0  0  0  0  0  0  0  0  0  0  0  0
    1.3150   20.0300  -27.7220 C   0  0  0  0  0  0  0  0  0  0  0  0
    0.0970   20.6970  -27.9160 C   0  0  0  0  0  0  0  0  0  0  0  0
    0.1750   22.4330  -28.2150 Cl  0  0  0  0  0  0  0  0  0  0  0  0
   -3.1110   21.0850  -31.6760 C   0  0  0  0  0  0  0  0  0  0  0  0
   -4.4830   21.6200  -31.5240 C   0  0  0  0  0  0  0  0  0  0  0  0
   -5.4690   21.1260  -32.3250 N   0  0  0  0  0  0  0  0  0  0  0  0
   -6.7520   21.5610  -32.2430 C   0  0  0  0  0  0  0  0  0  0  0  0
   -7.0990   22.5500  -31.3230 C   0  0  0  0  0  0  0  0  0  0  0  0
   -6.1200   23.0690  -30.4790 C   0  0  0  0  0  0  0  0  0  0  0  0
   -4.7940   22.6120  -30.5640 C   0  0  0  0  0  0  0  0  0  0  0  0
   -3.8080   23.0500  -29.6100 N   0  0  0  0  0  0  0  0  0  0  0  0
   -3.3530   24.4090  -29.5030 C   0  0  0  0  0  0  0  0  0  0  0  0
   -3.5220   25.1990  -30.4740 O   0  0  0  0  0  0  0  0  0  0  0  0
   -2.6320   24.8830  -28.2940 C   0  0  0  0  0  0  0  0  0  0  0  0
   -3.2060   24.7620  -27.0120 C   0  0  0  0  0  0  0  0  0  0  0  0
   -2.5120   25.2040  -25.8810 C   0  0  0  0  0  0  0  0  0  0  0  0
   -1.2470   25.7800  -26.0130 C   0  0  0  0  0  0  0  0  0  0  0  0
   -0.6760   25.9230  -27.2800 C   0  0  0  0  0  0  0  0  0  0  0  0
   -1.3640   25.4810  -28.4130 C   0  0  0  0  0  0  0  0  0  0  0  0
   -2.4700   21.1470  -32.9260 C   0  0  0  0  0  0  0  0  0  0  0  0
   -2.2050   18.4330  -34.5900 C   0  0  0  0  0  0  0  0  0  0  0  0
   -2.8920   17.2360  -34.3820 C   0  0  0  0  0  0  0  0  0  0  0  0
   -5.5104   19.3926  -33.6302 H   0  0  0  0  0  0  0  0  0  0  0  0
   -5.1191   18.1745  -34.8911 H   0  0  0  0  0  0  0  0  0  0  0  0
   -6.7228   18.9838  -34.8911 H   0  0  0  0  0  0  0  0  0  0  0  0
   -6.4780   17.5184  -31.2801 H   0  0  0  0  0  0  0  0  0  0  0  0
   -5.0924   16.6551  -32.0295 H   0  0  0  0  0  0  0  0  0  0  0  0
   -5.1379   18.4509  -32.0295 H   0  0  0  0  0  0  0  0  0  0  0  0
   -7.2529   15.6598  -33.9920 H   0  0  0  0  0  0  0  0  0  0  0  0
   -5.9485   16.3418  -35.0548 H   0  0  0  0  0  0  0  0  0  0  0  0
   -4.6173   15.9894  -32.6602 H   0  0  0  0  0  0  0  0  0  0  0  0
   -5.7419   14.5869  -32.6731 H   0  0  0  0  0  0  0  0  0  0  0  0
   -0.4041   15.0292  -35.1675 H   0  0  0  0  0  0  0  0  0  0  0  0
    0.8138   17.1596  -35.5770 H   0  0  0  0  0  0  0  0  0  0  0  0
    1.9028   19.8657  -35.6627 H   0  0  0  0  0  0  0  0  0  0  0  0
    0.9403   18.8702  -36.8068 H   0  0  0  0  0  0  0  0  0  0  0  0
    0.7672   20.6581  -36.8068 H   0  0  0  0  0  0  0  0  0  0  0  0
    0.5539   19.8052  -32.0723 H   0  0  0  0  0  0  0  0  0  0  0  0
   -0.5872   19.6367  -29.8684 H   0  0  0  0  0  0  0  0  0  0  0  0
   -1.9959   17.9878  -27.6713 H   0  0  0  0  0  0  0  0  0  0  0  0
    0.1843   16.8357  -27.3293 H   0  0  0  0  0  0  0  0  0  0  0  0
    2.3079   18.1403  -27.3605 H   0  0  0  0  0  0  0  0  0  0  0  0
    2.2558   20.5998  -27.7356 H   0  0  0  0  0  0  0  0  0  0  0  0
   -7.5200   21.1325  -32.9038 H   0  0  0  0  0  0  0  0  0  0  0  0
   -8.1346   22.9162  -31.2645 H   0  0  0  0  0  0  0  0  0  0  0  0
   -6.3864   23.8408  -29.7419 H   0  0  0  0  0  0  0  0  0  0  0  0
   -3.3530   22.3280  -29.0070 H   0  0  0  0  0  0  0  0  0  0  0  0
   -4.2059   24.3172  -26.9006 H   0  0  0  0  0  0  0  0  0  0  0  0
   -2.9644   25.0975  -24.8840 H   0  0  0  0  0  0  0  0  0  0  0  0
   -0.7009   26.1206  -25.1209 H   0  0  0  0  0  0  0  0  0  0  0  0
    0.3169   26.3844  -27.3858 H   0  0  0  0  0  0  0  0  0  0  0  0
   -0.9099   25.6017  -29.4076 H   0  0  0  0  0  0  0  0  0  0  0  0
   -3.0078   21.5575  -33.7934 H   0  0  0  0  0  0  0  0  0  0  0  0
   -2.7171   19.3916  -34.4205 H   0  0  0  0  0  0  0  0  0  0  0  0
   -3.9417   17.2579  -34.0538 H   0  0  0  0  0  0  0  0  0  0  0  0
  1  2  1  0
  2  3  1  0
  2  4  1  0
  4  5  1  0
  5  6  1  0
  6  7  1  0
  7  8  2  0
  7  9  1  0
  9 10  2  0
 10 11  1  0
 11 12  2  0
 12 13  1  0
 13 14  1  0
 13 15  1  0
 15 16  2  0
 15 17  1  0
 17 18  2  0
 18 19  1  0
 19 20  2  0
 20 21  1  0
 21 22  1  0
 22 23  2  0
 22 24  1  0
 24 25  2  0
 25 26  1  0
 26 27  2  0
 27 28  1  0
 28 29  2  0
 29 30  1  0
 20 31  1  0
 31 32  1  0
 32 33  2  0
 33 34  1  0
 34 35  2  0
 35 36  1  0
 36 37  2  0
 37 38  1  0
 38 39  1  0
 39 40  2  0
 39 41  1  0
 41 42  2  0
 42 43  1  0
 43 44  2  0
 44 45  1  0
 45 46  2  0
 31 47  2  0
 12 48  1  0
 48 49  2  0
 49  9  1  0
 47 17  1  0
 29 24  1  0
 37 32  1  0
 46 41  1  0
  1 50  1  0
  1 51  1  0
  1 52  1  0
  3 53  1  0
  3 54  1  0
  3 55  1  0
  4 56  1  0
  4 57  1  0
  5 58  1  0
  5 59  1  0
 10 60  1  0
 11 61  1  0
 14 62  1  0
 14 63  1  0
 14 64  1  0
 18 65  1  0
 19 66  1  0
 25 67  1  0
 26 68  1  0
 27 69  1  0
 28 70  1  0
 34 71  1  0
 35 72  1  0
 36 73  1  0
 38 74  1  0
 42 75  1  0
 43 76  1  0
 44 77  1  0
 45 78  1  0
 46 79  1  0
 47 80  1  0
 48 81  1  0
 49 82  1  0
M  CHG  1   6  -1
M  END
>  <UniqueID>  (2) 
2

>  <SMILES>  (2) 
CN(C)CC[N-]C(=O)c1ccc(N(C)C(=O)c2ccc(OC(=O)c3ccccc3Cl)c(-c3ncccc3NC(=O)c3ccccc3)c2)cc1

>  <Energy>  (2) 
119.41887240506179

>  <Genealogy>  (2) 
CN(C)CC[N-]C(=O)c1ccc(N(C)C(=O)c2ccc(OC(=O)c3ccccc3Cl)c(-c3ncccc3NC(=O)c3ccccc3)c2)cc1 (protonated)
CN(C)CC[N-]C(=O)c1ccc(N(C)C(=O)c2ccc(OC(=O)c3ccccc3Cl)c(-c3ncccc3NC(=O)c3ccccc3)c2)cc1 (3D coordinates assigned)
CN(C)CC[N-]C(=O)c1ccc(N(C)C(=O)c2ccc(OC(=O)c3ccccc3Cl)c(-c3ncccc3NC(=O)c3ccccc3)c2)cc1 (optimized conformer: 119.41887240506179 kcal/mol)

>  <smiles>  (2) 
CN(C)CCNC(=O)c1ccc(N(C)C(=O)c2ccc(OC(=O)c3ccccc3Cl)c(-c3ncccc3NC(=O)c3ccccc3)c2)cc1

>  <score_type>  (2) 
oracle

>  <origin>  (2) 
adgpu

>  <m_score__min__energy>  (2) 
-13.140000000000001

>  <m_primary>  (2) 
energy

$$$$
2:0
     RDKit          3D

 51 54  0  0  0  0  0  0  0  0999 V2000
   -3.4850   21.9640  -32.3380 C   0  0  0  0  0  0  0  0  0  0  0  0
   -4.8220   21.3130  -32.1800 C   0  0  0  0  0  0  0  0  0  0  0  0
   -5.0010   19.9700  -32.1390 N   0  0  0  0  0  0  0  0  0  0  0  0
   -6.3310   19.7800  -32.0700 C   0  0  0  0  0  0  0  0  0  0  0  0
   -7.0080   18.5600  -32.0130 C   0  0  0  0  0  0  0  0  0  0  0  0
   -8.4130   18.5930  -31.9620 C   0  0  0  0  0  0  0  0  0  0  0  0
   -9.1030   19.8250  -31.9800 C   0  0  0  0  0  0  0  0  0  0  0  0
   -8.3940   21.0390  -32.0500 C   0  0  0  0  0  0  0  0  0  0  0  0
   -7.0020   20.9760  -32.0840 C   0  0  0  0  0  0  0  0  0  0  0  0
   -6.0470   21.9700  -32.1520 C   0  0  0  0  0  0  0  0  0  0  0  0
   -6.3290   23.7440  -32.2410 S   0  0  0  0  0  0  0  0  0  0  0  0
   -5.8100   24.0670  -30.5160 C   0  0  0  0  0  0  0  0  0  0  0  0
   -4.9190   25.2780  -30.4330 C   0  0  0  0  0  0  0  0  0  0  0  0
   -5.4420   26.4220  -30.4920 O   0  0  0  0  0  0  0  0  0  0  0  0
   -3.4910   25.1760  -30.3870 N   0  0  0  0  0  0  0  0  0  0  0  0
   -2.7200   24.5380  -29.3600 C   0  0  0  0  0  0  0  0  0  0  0  0
   -1.8310   25.2680  -28.5570 C   0  0  0  0  0  0  0  0  0  0  0  0
   -1.0750   24.6180  -27.5780 C   0  0  0  0  0  0  0  0  0  0  0  0
   -1.1880   23.2350  -27.4070 C   0  0  0  0  0  0  0  0  0  0  0  0
   -2.0540   22.4920  -28.2210 C   0  0  0  0  0  0  0  0  0  0  0  0
   -2.1960   20.7450  -28.0070 S   0  0  0  0  0  0  0  0  0  0  0  0
   -2.3450   20.0960  -29.3550 O   0  0  0  0  0  0  0  0  0  0  0  0
   -3.4350   20.4440  -27.2100 O   0  0  0  0  0  0  0  0  0  0  0  0
   -0.8060   20.0630  -27.1840 N   0  0  0  0  0  0  0  0  0  0  0  0
    0.4330   20.3510  -27.9160 C   0  0  0  0  0  0  0  0  0  0  0  0
    0.7600   19.1460  -28.7810 C   0  0  0  0  0  0  0  0  0  0  0  0
   -0.0270   17.9950  -28.1890 C   0  0  0  0  0  0  0  0  0  0  0  0
   -0.9040   18.6010  -27.1020 C   0  0  0  0  0  0  0  0  0  0  0  0
   -2.8070   23.1470  -29.2080 C   0  0  0  0  0  0  0  0  0  0  0  0
   -3.0587   22.1716  -31.3455 H   0  0  0  0  0  0  0  0  0  0  0  0
   -2.8133   21.2921  -32.8924 H   0  0  0  0  0  0  0  0  0  0  0  0
   -3.5996   22.9071  -32.8924 H   0  0  0  0  0  0  0  0  0  0  0  0
   -4.2620   19.2310  -32.1770 H   0  0  0  0  0  0  0  0  0  0  0  0
   -6.4610   17.6057  -32.0082 H   0  0  0  0  0  0  0  0  0  0  0  0
   -8.9791   17.6514  -31.9076 H   0  0  0  0  0  0  0  0  0  0  0  0
  -10.2022   19.8360  -31.9390 H   0  0  0  0  0  0  0  0  0  0  0  0
   -8.9205   22.0044  -32.0769 H   0  0  0  0  0  0  0  0  0  0  0  0
   -6.7041   24.2364  -29.8981 H   0  0  0  0  0  0  0  0  0  0  0  0
   -5.2469   23.1947  -30.1526 H   0  0  0  0  0  0  0  0  0  0  0  0
   -1.7289   26.3541  -28.6983 H   0  0  0  0  0  0  0  0  0  0  0  0
   -0.3895   25.1956  -26.9405 H   0  0  0  0  0  0  0  0  0  0  0  0
   -0.5953   22.7283  -26.6311 H   0  0  0  0  0  0  0  0  0  0  0  0
    0.2937   21.2388  -28.5504 H   0  0  0  0  0  0  0  0  0  0  0  0
    1.2546   20.5494  -27.2120 H   0  0  0  0  0  0  0  0  0  0  0  0
    0.4533   19.3258  -29.8220 H   0  0  0  0  0  0  0  0  0  0  0  0
    1.8397   18.9362  -28.7959 H   0  0  0  0  0  0  0  0  0  0  0  0
   -0.6494   17.5202  -28.9617 H   0  0  0  0  0  0  0  0  0  0  0  0
    0.6384   17.2186  -27.7835 H   0  0  0  0  0  0  0  0  0  0  0  0
   -1.9485   18.2904  -27.2522 H   0  0  0  0  0  0  0  0  0  0  0  0
   -0.5691   18.2563  -26.1125 H   0  0  0  0  0  0  0  0  0  0  0  0
   -3.4693   22.5655  -29.8661 H   0  0  0  0  0  0  0  0  0  0  0  0
  1  2  1  0
  2  3  1  0
  3  4  1  0
  4  5  2  0
  5  6  1  0
  6  7  2  0
  7  8  1  0
  8  9  2  0
  9 10  1  0
 10 11  1  0
 11 12  1  0
 12 13  1  0
 13 14  2  0
 13 15  1  0
 15 16  1  0
 16 17  2  0
 17 18  1  0
 18 19  2  0
 19 20  1  0
 20 21  1  0
 21 22  2  0
 21 23  2  0
 21 24  1  0
 24 25  1  0
 25 26  1  0
 26 27  1  0
 27 28  1  0
 20 29  2  0
 10  2  2  0
 29 16  1  0
  9  4  1  0
 28 24  1  0
  1 30  1  0
  1 31  1  0
  1 32  1  0
  3 33  1  0
  5 34  1  0
  6 35  1  0
  7 36  1  0
  8 37  1  0
 12 38  1  0
 12 39  1  0
 17 40  1  0
 18 41  1  0
 19 42  1  0
 25 43  1  0
 25 44  1  0
 26 45  1  0
 26 46  1  0
 27 47  1  0
 27 48  1  0
 28 49  1  0
 28 50  1  0
 29 51  1  0
M  CHG  1  15  -1
M  END
>  <UniqueID>  (3) 
3

>  <SMILES>  (3) 
Cc1[nH]c2ccccc2c1SCC(=O)[N-]c1cccc(S(=O)(=O)N2CCCC2)c1

>  <Energy>  (3) 
84.54472462159404

>  <Genealogy>  (3) 
Cc1[nH]c2ccccc2c1SCC(=O)[N-]c1cccc(S(=O)(=O)N2CCCC2)c1 (protonated)
Cc1[nH]c2ccccc2c1SCC(=O)[N-]c1cccc(S(=O)(=O)N2CCCC2)c1 (3D coordinates assigned)
Cc1[nH]c2ccccc2c1SCC(=O)[N-]c1cccc(S(=O)(=O)N2CCCC2)c1 (nonaromatic ring conformer: 84.54472462159404 kcal/mol)

>  <smiles>  (3) 
Cc1[nH]c2ccccc2c1SCC(=O)Nc1cccc(S(=O)(=O)N2CCCC2)c1

>  <score_type>  (3) 
oracle

>  <origin>  (3) 
adgpu

>  <m_score__min__energy>  (3) 
-12.18

>  <m_primary>  (3) 
energy

$$$$
3:0
     RDKit          3D

 52 54  0  0  0  0  0  0  0  0999 V2000
   -4.0500   23.7700  -28.6240 O   0  0  0  0  0  0  0  0  0  0  0  0
   -3.1970   24.0170  -29.8380 S   0  0  0  0  0  0  0  0  0  0  0  0
   -1.8210   24.4120  -29.3800 O   0  0  0  0  0  0  0  0  0  0  0  0
   -3.8720   25.3060  -30.7860 N   0  0  0  0  0  0  0  0  0  0  0  0
   -5.2880   25.4690  -30.4620 C   0  0  0  0  0  0  0  0  0  0  0  0
   -6.1120   24.3640  -31.1220 C   0  0  0  0  0  0  0  0  0  0  0  0
   -7.1870   23.4810  -29.9300 S   0  0  0  0  0  0  0  0  0  0  0  0
   -7.5970   22.1160  -31.0230 C   0  0  0  0  0  0  0  0  0  0  0  0
   -6.7370   21.7840  -32.0790 C   0  0  0  0  0  0  0  0  0  0  0  0
   -7.0620   20.7350  -32.9440 C   0  0  0  0  0  0  0  0  0  0  0  0
   -8.2490   20.0190  -32.7610 C   0  0  0  0  0  0  0  0  0  0  0  0
   -9.1150   20.3550  -31.7150 C   0  0  0  0  0  0  0  0  0  0  0  0
   -8.7930   21.4060  -30.8490 C   0  0  0  0  0  0  0  0  0  0  0  0
   -3.0860   22.5490  -30.8060 C   0  0  0  0  0  0  0  0  0  0  0  0
   -2.3530   21.4520  -30.3350 C   0  0  0  0  0  0  0  0  0  0  0  0
   -2.2210   20.3050  -31.1220 C   0  0  0  0  0  0  0  0  0  0  0  0
   -2.8190   20.2460  -32.3890 C   0  0  0  0  0  0  0  0  0  0  0  0
   -2.6540   18.8090  -33.3950 S   0  0  0  0  0  0  0  0  0  0  0  0
   -2.0210   17.7040  -32.5980 O   0  0  0  0  0  0  0  0  0  0  0  0
   -1.7540   19.1400  -34.5550 O   0  0  0  0  0  0  0  0  0  0  0  0
   -4.2360   18.3240  -33.9730 N   0  0  0  0  0  0  0  0  0  0  0  0
   -5.2090   18.1840  -32.8510 C   0  0  0  0  0  0  0  0  0  0  0  0
   -5.7460   16.7550  -32.6580 C   0  0  0  0  0  0  0  0  0  0  0  0
   -4.6100   15.7370  -32.7420 C   0  0  0  0  0  0  0  0  0  0  0  0
   -3.8450   15.8380  -34.0740 C   0  0  0  0  0  0  0  0  0  0  0  0
   -4.1450   17.1360  -34.8500 C   0  0  0  0  0  0  0  0  0  0  0  0
   -3.5590   21.3400  -32.8560 C   0  0  0  0  0  0  0  0  0  0  0  0
   -3.6910   22.4870  -32.0700 C   0  0  0  0  0  0  0  0  0  0  0  0
   -5.4192   25.4175  -29.3711 H   0  0  0  0  0  0  0  0  0  0  0  0
   -5.6315   26.4446  -30.8364 H   0  0  0  0  0  0  0  0  0  0  0  0
   -6.7448   24.8138  -31.9012 H   0  0  0  0  0  0  0  0  0  0  0  0
   -5.4092   23.6306  -31.5441 H   0  0  0  0  0  0  0  0  0  0  0  0
   -5.8053   22.3496  -32.2272 H   0  0  0  0  0  0  0  0  0  0  0  0
   -6.3835   20.4727  -33.7691 H   0  0  0  0  0  0  0  0  0  0  0  0
   -8.5020   19.1912  -33.4398 H   0  0  0  0  0  0  0  0  0  0  0  0
  -10.0497   19.7927  -31.5731 H   0  0  0  0  0  0  0  0  0  0  0  0
   -9.4784   21.6750  -30.0318 H   0  0  0  0  0  0  0  0  0  0  0  0
   -1.8800   21.4937  -29.3428 H   0  0  0  0  0  0  0  0  0  0  0  0
   -1.6462   19.4456  -30.7465 H   0  0  0  0  0  0  0  0  0  0  0  0
   -4.5650   19.1140  -34.5780 H   0  0  0  0  0  0  0  0  0  0  0  0
   -4.7102   18.4939  -31.9208 H   0  0  0  0  0  0  0  0  0  0  0  0
   -6.0738   18.8161  -33.1011 H   0  0  0  0  0  0  0  0  0  0  0  0
   -6.2265   16.6797  -31.6714 H   0  0  0  0  0  0  0  0  0  0  0  0
   -6.4743   16.5397  -33.4538 H   0  0  0  0  0  0  0  0  0  0  0  0
   -3.9083   15.9182  -31.9145 H   0  0  0  0  0  0  0  0  0  0  0  0
   -5.0491   14.7305  -32.6769 H   0  0  0  0  0  0  0  0  0  0  0  0
   -2.7664   15.7991  -33.8615 H   0  0  0  0  0  0  0  0  0  0  0  0
   -4.1727   14.9977  -34.7036 H   0  0  0  0  0  0  0  0  0  0  0  0
   -3.3406   17.3010  -35.5819 H   0  0  0  0  0  0  0  0  0  0  0  0
   -5.1231   17.0102  -35.3374 H   0  0  0  0  0  0  0  0  0  0  0  0
   -4.0378   21.2955  -33.8453 H   0  0  0  0  0  0  0  0  0  0  0  0
   -4.2709   23.3440  -32.4432 H   0  0  0  0  0  0  0  0  0  0  0  0
  1  2  2  0
  2  3  2  0
  2  4  1  0
  4  5  1  0
  5  6  1  0
  6  7  1  0
  7  8  1  0
  8  9  2  0
  9 10  1  0
 10 11  2  0
 11 12  1  0
 12 13  2  0
  2 14  1  0
 14 15  2  0
 15 16  1  0
 16 17  2  0
 17 18  1  0
 18 19  2  0
 18 20  2  0
 18 21  1  0
 21 22  1  0
 22 23  1  0
 23 24  1  0
 24 25  1  0
 25 26  1  0
 17 27  1  0
 27 28  2  0
 13  8  1  0
 28 14  1  0
 26 21  1  0
  5 29  1  0
  5 30  1  0
  6 31  1  0
  6 32  1  0
  9 33  1  0
 10 34  1  0
 11 35  1  0
 12 36  1  0
 13 37  1  0
 15 38  1  0
 16 39  1  0
 21 40  1  0
 22 41  1  0
 22 42  1  0
 23 43  1  0
 23 44  1  0
 24 45  1  0
 24 46  1  0
 25 47  1  0
 25 48  1  0
 26 49  1  0
 26 50  1  0
 27 51  1  0
 28 52  1  0
M  CHG  2   4  -1  21   1
M  END
>  <UniqueID>  (4) 
4

>  <SMILES>  (4) 
O=S(=O)([N-]CCSc1ccccc1)c1ccc(S(=O)(=O)[NH+]2CCCCC2)cc1

>  <Energy>  (4) 
49.171099057703

>  <Genealogy>  (4) 
O=S(=O)([N-]CCSc1ccccc1)c1ccc(S(=O)(=O)[NH+]2CCCCC2)cc1 (protonated)
O=S(=O)([N-]CCSc1ccccc1)c1ccc(S(=O)(=O)[NH+]2CCCCC2)cc1 (3D coordinates assigned)
O=S(=O)([N-]CCSc1ccccc1)c1ccc(S(=O)(=O)[NH+]2CCCCC2)cc1 (nonaromatic ring conformer: 49.171099057703 kcal/mol)

>  <smiles>  (4) 
O=S(=O)(NCCSc1ccccc1)c1ccc(S(=O)(=O)N2CCCCC2)cc1

>  <score_type>  (4) 
oracle

>  <origin>  (4) 
adgpu

>  <m_score__min__energy>  (4) 
-11.23

>  <m_primary>  (4) 
energy

$$$$
4:0
     RDKit          3D

 60 63  0  0  0  0  0  0  0  0999 V2000
   -4.2310   25.5420  -31.1910 O   0  0  0  0  0  0  0  0  0  0  0  0
   -4.0300   24.9260  -30.1100 C   0  0  0  0  0  0  0  0  0  0  0  0
   -2.7350   24.9310  -29.4970 N   0  0  0  0  0  0  0  0  0  0  0  0
   -1.8930   23.7940  -29.2610 C   0  0  0  0  0  0  0  0  0  0  0  0
   -1.0890   23.7840  -28.1130 C   0  0  0  0  0  0  0  0  0  0  0  0
   -0.2480   22.7010  -27.8460 C   0  0  0  0  0  0  0  0  0  0  0  0
   -0.1950   21.6230  -28.7330 C   0  0  0  0  0  0  0  0  0  0  0  0
   -0.9730   21.6270  -29.8960 C   0  0  0  0  0  0  0  0  0  0  0  0
   -0.8790   20.2600  -31.0030 S   0  0  0  0  0  0  0  0  0  0  0  0
   -0.1630   19.1340  -30.3090 O   0  0  0  0  0  0  0  0  0  0  0  0
   -2.2610   19.7990  -31.3830 O   0  0  0  0  0  0  0  0  0  0  0  0
   -0.0030   20.7320  -32.4380 N   0  0  0  0  0  0  0  0  0  0  0  0
   -0.9230   21.2690  -33.4740 C   0  0  0  0  0  0  0  0  0  0  0  0
   -1.2060   20.2670  -34.6030 C   0  0  0  0  0  0  0  0  0  0  0  0
    0.0970   19.8370  -35.3000 C   0  0  0  0  0  0  0  0  0  0  0  0
    1.3020   19.8080  -34.3420 C   0  0  0  0  0  0  0  0  0  0  0  0
    0.8480   19.6100  -32.8920 C   0  0  0  0  0  0  0  0  0  0  0  0
   -1.8120   22.7180  -30.1660 C   0  0  0  0  0  0  0  0  0  0  0  0
   -5.0640   24.1230  -29.5350 N   0  0  0  0  0  0  0  0  0  0  0  0
   -5.8600   23.1560  -30.2330 C   0  0  0  0  0  0  0  0  0  0  0  0
   -7.2350   23.0120  -29.9820 C   0  0  0  0  0  0  0  0  0  0  0  0
   -7.9750   22.0410  -30.6600 C   0  0  0  0  0  0  0  0  0  0  0  0
   -7.3520   21.2090  -31.5930 C   0  0  0  0  0  0  0  0  0  0  0  0
   -5.9820   21.3340  -31.8420 C   0  0  0  0  0  0  0  0  0  0  0  0
   -5.2170   20.3020  -33.0490 S   0  0  0  0  0  0  0  0  0  0  0  0
   -6.1510   20.0960  -34.2090 O   0  0  0  0  0  0  0  0  0  0  0  0
   -3.9680   20.9830  -33.5400 O   0  0  0  0  0  0  0  0  0  0  0  0
   -4.8180   18.7650  -32.3120 N   0  0  0  0  0  0  0  0  0  0  0  0
   -6.0220   18.0560  -31.8240 C   0  0  0  0  0  0  0  0  0  0  0  0
   -6.5020   16.9590  -32.7890 C   0  0  0  0  0  0  0  0  0  0  0  0
   -6.2190   17.3220  -34.1210 O   0  0  0  0  0  0  0  0  0  0  0  0
   -4.8210   17.2930  -34.3470 C   0  0  0  0  0  0  0  0  0  0  0  0
   -3.9950   17.9290  -33.2040 C   0  0  0  0  0  0  0  0  0  0  0  0
   -5.2360   22.2980  -31.1490 C   0  0  0  0  0  0  0  0  0  0  0  0
   -1.1205   24.6353  -27.4171 H   0  0  0  0  0  0  0  0  0  0  0  0
    0.3723   22.6970  -26.9376 H   0  0  0  0  0  0  0  0  0  0  0  0
    0.4613   20.7672  -28.5162 H   0  0  0  0  0  0  0  0  0  0  0  0
   -1.8763   21.5336  -32.9931 H   0  0  0  0  0  0  0  0  0  0  0  0
   -0.4342   22.1446  -33.9261 H   0  0  0  0  0  0  0  0  0  0  0  0
   -1.6976   19.3785  -34.1802 H   0  0  0  0  0  0  0  0  0  0  0  0
   -1.8568   20.7515  -35.3458 H   0  0  0  0  0  0  0  0  0  0  0  0
   -0.0439   18.8296  -35.7188 H   0  0  0  0  0  0  0  0  0  0  0  0
    0.3140   20.5771  -36.0843 H   0  0  0  0  0  0  0  0  0  0  0  0
    1.9676   18.9797  -34.6265 H   0  0  0  0  0  0  0  0  0  0  0  0
    1.8301   20.7702  -34.4149 H   0  0  0  0  0  0  0  0  0  0  0  0
    0.2750   18.6737  -32.8204 H   0  0  0  0  0  0  0  0  0  0  0  0
    1.7408   19.5694  -32.2507 H   0  0  0  0  0  0  0  0  0  0  0  0
   -2.4098   22.7333  -31.0893 H   0  0  0  0  0  0  0  0  0  0  0  0
   -7.7300   23.6661  -29.2492 H   0  0  0  0  0  0  0  0  0  0  0  0
   -9.0509   21.9312  -30.4588 H   0  0  0  0  0  0  0  0  0  0  0  0
   -7.9409   20.4533  -32.1334 H   0  0  0  0  0  0  0  0  0  0  0  0
   -5.7877   17.5926  -30.8543 H   0  0  0  0  0  0  0  0  0  0  0  0
   -6.8300   18.7974  -31.7384 H   0  0  0  0  0  0  0  0  0  0  0  0
   -5.9866   16.0165  -32.5523 H   0  0  0  0  0  0  0  0  0  0  0  0
   -7.5888   16.8327  -32.6755 H   0  0  0  0  0  0  0  0  0  0  0  0
   -4.5087   16.2443  -34.4597 H   0  0  0  0  0  0  0  0  0  0  0  0
   -4.6285   17.8867  -35.2528 H   0  0  0  0  0  0  0  0  0  0  0  0
   -3.5364   17.1246  -32.6101 H   0  0  0  0  0  0  0  0  0  0  0  0
   -3.2335   18.5773  -33.6620 H   0  0  0  0  0  0  0  0  0  0  0  0
   -4.1535   22.3815  -31.3255 H   0  0  0  0  0  0  0  0  0  0  0  0
  1  2  2  0
  2  3  1  0
  3  4  1  0
  4  5  2  0
  5  6  1  0
  6  7  2  0
  7  8  1  0
  8  9  1  0
  9 10  2  0
  9 11  2  0
  9 12  1  0
 12 13  1  0
 13 14  1  0
 14 15  1  0
 15 16  1  0
 16 17  1  0
  8 18  2  0
  2 19  1  0
 19 20  1  0
 20 21  2  0
 21 22  1  0
 22 23  2  0
 23 24  1  0
 24 25  1  0
 25 26  2  0
 25 27  2  0
 25 28  1  0
 28 29  1  0
 29 30  1  0
 30 31  1  0
 31 32  1  0
 32 33  1  0
 24 34  2  0
 18  4  1  0
 34 20  1  0
 17 12  1  0
 33 28  1  0
  5 35  1  0
  6 36  1  0
  7 37  1  0
 13 38  1  0
 13 39  1  0
 14 40  1  0
 14 41  1  0
 15 42  1  0
 15 43  1  0
 16 44  1  0
 16 45  1  0
 17 46  1  0
 17 47  1  0
 18 48  1  0
 21 49  1  0
 22 50  1  0
 23 51  1  0
 29 52  1  0
 29 53  1  0
 30 54  1  0
 30 55  1  0
 32 56  1  0
 32 57  1  0
 33 58  1  0
 33 59  1  0
 34 60  1  0
M  CHG  2   3  -1  19  -1
M  END
>  <UniqueID>  (5) 
5

>  <SMILES>  (5) 
O=C([N-]c1cccc(S(=O)(=O)N2CCCCC2)c1)[N-]c1cccc(S(=O)(=O)N2CCOCC2)c1

>  <Energy>  (5) 
84.99052224585004

>  <Genealogy>  (5) 
O=C([N-]c1cccc(S(=O)(=O)N2CCCCC2)c1)[N-]c1cccc(S(=O)(=O)N2CCOCC2)c1 (protonated)
O=C([N-]c1cccc(S(=O)(=O)N2CCCCC2)c1)[N-]c1cccc(S(=O)(=O)N2CCOCC2)c1 (3D coordinates assigned)
O=C([N-]c1cccc(S(=O)(=O)N2CCCCC2)c1)[N-]c1cccc(S(=O)(=O)N2CCOCC2)c1 (nonaromatic ring conformer: 84.99052224585004 kcal/mol)

>  <smiles>  (5) 
O=C(Nc1cccc(S(=O)(=O)N2CCCCC2)c1)Nc1cccc(S(=O)(=O)N2CCOCC2)c1

>  <score_type>  (5) 
oracle

>  <origin>  (5) 
adgpu

>  <m_score__min__energy>  (5) 
-12.289999999999999

>  <m_primary>  (5) 
energy

$$$$
5:0
     RDKit          3D

 34 35  0  0  0  0  0  0  0  0999 V2000
   -1.9760   22.0220  -27.1190 C   0  0  0  0  0  0  0  0  0  0  0  0
   -1.8560   21.9580  -28.6120 C   0  0  0  0  0  0  0  0  0  0  0  0
   -2.1780   22.9570  -29.5100 C   0  0  0  0  0  0  0  0  0  0  0  0
   -2.8130   24.5610  -29.1610 S   0  0  0  0  0  0  0  0  0  0  0  0
   -1.6560   25.4990  -28.9680 O   0  0  0  0  0  0  0  0  0  0  0  0
   -3.6290   24.5260  -27.9000 O   0  0  0  0  0  0  0  0  0  0  0  0
   -3.7960   25.1290  -30.4740 N   0  0  0  0  0  0  0  0  0  0  0  0
   -5.2010   24.8790  -30.6130 C   0  0  0  0  0  0  0  0  0  0  0  0
   -6.0140   25.7670  -30.2450 O   0  0  0  0  0  0  0  0  0  0  0  0
   -5.7210   23.6280  -31.1930 C   0  0  0  0  0  0  0  0  0  0  0  0
   -4.8530   22.7120  -31.8020 C   0  0  0  0  0  0  0  0  0  0  0  0
   -5.3560   21.5490  -32.3880 C   0  0  0  0  0  0  0  0  0  0  0  0
   -6.7280   21.2860  -32.3580 C   0  0  0  0  0  0  0  0  0  0  0  0
   -7.6090   22.1730  -31.7170 C   0  0  0  0  0  0  0  0  0  0  0  0
   -9.0910   21.9010  -31.7360 C   0  0  0  0  0  0  0  0  0  0  0  0
   -9.3830   20.7700  -32.4800 F   0  0  0  0  0  0  0  0  0  0  0  0
   -9.7670   22.9720  -32.2930 F   0  0  0  0  0  0  0  0  0  0  0  0
   -9.5360   21.7130  -30.4400 F   0  0  0  0  0  0  0  0  0  0  0  0
   -7.0960   23.3510  -31.1420 C   0  0  0  0  0  0  0  0  0  0  0  0
   -1.7830   22.4800  -30.7440 C   0  0  0  0  0  0  0  0  0  0  0  0
   -1.2350   21.2570  -30.5900 N   0  0  0  0  0  0  0  0  0  0  0  0
   -1.2800   20.9520  -29.3020 N   0  0  0  0  0  0  0  0  0  0  0  0
   -0.7330   19.7190  -28.7480 C   0  0  0  0  0  0  0  0  0  0  0  0
   -1.0940   21.5516  -26.6598 H   0  0  0  0  0  0  0  0  0  0  0  0
   -2.0384   23.0731  -26.8009 H   0  0  0  0  0  0  0  0  0  0  0  0
   -2.8837   21.4882  -26.8009 H   0  0  0  0  0  0  0  0  0  0  0  0
   -3.7711   22.9100  -31.8184 H   0  0  0  0  0  0  0  0  0  0  0  0
   -4.6712   20.8386  -32.8741 H   0  0  0  0  0  0  0  0  0  0  0  0
   -7.1209   20.3784  -32.8395 H   0  0  0  0  0  0  0  0  0  0  0  0
   -7.7778   24.0597  -30.6491 H   0  0  0  0  0  0  0  0  0  0  0  0
   -1.8969   23.0122  -31.6999 H   0  0  0  0  0  0  0  0  0  0  0  0
   -0.7552   19.7691  -27.6494 H   0  0  0  0  0  0  0  0  0  0  0  0
   -1.3366   18.8647  -29.0884 H   0  0  0  0  0  0  0  0  0  0  0  0
    0.3054   19.5931  -29.0884 H   0  0  0  0  0  0  0  0  0  0  0  0
  1  2  1  0
  2  3  2  0
  3  4  1  0
  4  5  2  0
  4  6  2  0
  4  7  1  0
  7  8  1  0
  8  9  2  0
  8 10  1  0
 10 11  2  0
 11 12  1  0
 12 13  2  0
 13 14  1  0
 14 15  1  0
 15 16  1  0
 15 17  1  0
 15 18  1  0
 14 19  2  0
  3 20  1  0
 20 21  2  0
 21 22  1  0
 22 23  1  0
 22  2  1  0
 19 10  1  0
  1 24  1  0
  1 25  1  0
  1 26  1  0
 11 27  1  0
 12 28  1  0
 13 29  1  0
 19 30  1  0
 20 31  1  0
 23 32  1  0
 23 33  1  0
 23 34  1  0
M  CHG  1   7  -1
M  END
>  <UniqueID>  (6) 
6

>  <SMILES>  (6) 
Cc1c(S(=O)(=O)[N-]C(=O)c2cccc(C(F)(F)F)c2)cnn1C

>  <Energy>  (6) 
67.71705715330857

>  <Genealogy>  (6) 
Cc1c(S(=O)(=O)[N-]C(=O)c2cccc(C(F)(F)F)c2)cnn1C (protonated)
Cc1c(S(=O)(=O)[N-]C(=O)c2cccc(C(F)(F)F)c2)cnn1C (3D coordinates assigned)
Cc1c(S(=O)(=O)[N-]C(=O)c2cccc(C(F)(F)F)c2)cnn1C (optimized conformer: 67.71705715330857 kcal/mol)

>  <smiles>  (6) 
Cc1c(S(=O)(=O)NC(=O)c2cccc(C(F)(F)F)c2)cnn1C

>  <score_type>  (6) 
oracle

>  <origin>  (6) 
adgpu

>  <m_score__min__energy>  (6) 
-8.5500000000000007

>  <m_primary>  (6) 
energy

$$$$
6:0
     RDKit          3D

 54 56  0  0  0  0  0  0  0  0999 V2000
   -2.7460   20.2010  -28.4360 C   0  0  0  0  0  0  0  0  0  0  0  0
   -2.0570   21.4230  -27.8880 C   0  0  0  0  0  0  0  0  0  0  0  0
   -1.4600   21.3510  -26.6210 C   0  0  0  0  0  0  0  0  0  0  0  0
   -0.8710   22.4770  -26.0500 C   0  0  0  0  0  0  0  0  0  0  0  0
   -0.9000   23.6980  -26.7190 C   0  0  0  0  0  0  0  0  0  0  0  0
   -1.5170   23.8100  -27.9740 C   0  0  0  0  0  0  0  0  0  0  0  0
   -1.5690   25.1660  -28.6260 C   0  0  0  0  0  0  0  0  0  0  0  0
   -2.0720   22.6560  -28.5830 C   0  0  0  0  0  0  0  0  0  0  0  0
   -2.6670   22.7380  -29.8890 N   0  0  0  0  0  0  0  0  0  0  0  0
   -2.0020   22.1440  -31.0230 C   0  0  0  0  0  0  0  0  0  0  0  0
   -2.6890   21.9640  -32.2340 C   0  0  0  0  0  0  0  0  0  0  0  0
   -2.0600   21.3670  -33.3280 C   0  0  0  0  0  0  0  0  0  0  0  0
   -0.7150   20.9460  -33.2520 C   0  0  0  0  0  0  0  0  0  0  0  0
   -0.0520   20.2440  -34.4540 C   0  0  0  0  0  0  0  0  0  0  0  0
   -0.5210   20.8120  -35.6570 O   0  0  0  0  0  0  0  0  0  0  0  0
   -0.4790   18.7560  -34.4570 C   0  0  0  0  0  0  0  0  0  0  0  0
   -1.8500   18.6270  -34.5990 F   0  0  0  0  0  0  0  0  0  0  0  0
   -0.0930   18.1420  -33.2780 F   0  0  0  0  0  0  0  0  0  0  0  0
    0.1330   18.0940  -35.5090 F   0  0  0  0  0  0  0  0  0  0  0  0
    1.5040   20.3770  -34.4400 C   0  0  0  0  0  0  0  0  0  0  0  0
    2.0780   19.9100  -35.6100 F   0  0  0  0  0  0  0  0  0  0  0  0
    1.8610   21.7070  -34.2960 F   0  0  0  0  0  0  0  0  0  0  0  0
    2.0350   19.6720  -33.3730 F   0  0  0  0  0  0  0  0  0  0  0  0
   -0.0470   21.0920  -32.0200 C   0  0  0  0  0  0  0  0  0  0  0  0
   -0.6790   21.6890  -30.9260 C   0  0  0  0  0  0  0  0  0  0  0  0
   -4.1410   23.6530  -30.0760 S   0  0  0  0  0  0  0  0  0  0  0  0
   -3.8690   24.9180  -30.8420 O   0  0  0  0  0  0  0  0  0  0  0  0
   -4.6740   24.0380  -28.7240 O   0  0  0  0  0  0  0  0  0  0  0  0
   -5.3330   22.7050  -30.9590 C   0  0  0  0  0  0  0  0  0  0  0  0
   -6.3700   23.3310  -31.6650 C   0  0  0  0  0  0  0  0  0  0  0  0
   -7.3240   22.5620  -32.3400 C   0  0  0  0  0  0  0  0  0  0  0  0
   -7.2470   21.1660  -32.3180 C   0  0  0  0  0  0  0  0  0  0  0  0
   -8.2070   20.4130  -32.9900 O   0  0  0  0  0  0  0  0  0  0  0  0
   -6.2060   20.5380  -31.6190 C   0  0  0  0  0  0  0  0  0  0  0  0
   -5.2510   21.3060  -30.9460 C   0  0  0  0  0  0  0  0  0  0  0  0
   -3.0991   19.5748  -27.6034 H   0  0  0  0  0  0  0  0  0  0  0  0
   -3.6034   20.5090  -29.0524 H   0  0  0  0  0  0  0  0  0  0  0  0
   -2.0387   19.6267  -29.0524 H   0  0  0  0  0  0  0  0  0  0  0  0
   -1.4568   20.3971  -26.0733 H   0  0  0  0  0  0  0  0  0  0  0  0
   -0.3816   22.4014  -25.0678 H   0  0  0  0  0  0  0  0  0  0  0  0
   -0.4350   24.5826  -26.2593 H   0  0  0  0  0  0  0  0  0  0  0  0
   -1.5989   25.9451  -27.8500 H   0  0  0  0  0  0  0  0  0  0  0  0
   -0.6756   25.3063  -29.2522 H   0  0  0  0  0  0  0  0  0  0  0  0
   -2.4705   25.2374  -29.2522 H   0  0  0  0  0  0  0  0  0  0  0  0
   -3.7338   22.2968  -32.3218 H   0  0  0  0  0  0  0  0  0  0  0  0
   -2.6210   21.2226  -34.2631 H   0  0  0  0  0  0  0  0  0  0  0  0
   -1.1030   21.5840  -35.4270 H   0  0  0  0  0  0  0  0  0  0  0  0
    0.9870   20.7308  -31.9179 H   0  0  0  0  0  0  0  0  0  0  0  0
   -0.1327   21.8033  -29.9781 H   0  0  0  0  0  0  0  0  0  0  0  0
   -6.4336   24.4289  -31.6882 H   0  0  0  0  0  0  0  0  0  0  0  0
   -8.1377   23.0573  -32.8901 H   0  0  0  0  0  0  0  0  0  0  0  0
   -8.0100   19.9820  -33.8860 H   0  0  0  0  0  0  0  0  0  0  0  0
   -6.1408   19.4401  -31.6002 H   0  0  0  0  0  0  0  0  0  0  0  0
   -4.4321   20.8102  -30.4042 H   0  0  0  0  0  0  0  0  0  0  0  0
  1  2  1  0
  2  3  2  0
  3  4  1  0
  4  5  2  0
  5  6  1  0
  6  7  1  0
  6  8  2  0
  8  9  1  0
  9 10  1  0
 10 11  2  0
 11 12  1  0
 12 13  2  0
 13 14  1  0
 14 15  1  0
 14 16  1  0
 16 17  1  0
 16 18  1  0
 16 19  1  0
 14 20  1  0
 20 21  1  0
 20 22  1  0
 20 23  1  0
 13 24  1  0
 24 25  2  0
  9 26  1  0
 26 27  2  0
 26 28  2  0
 26 29  1  0
 29 30  2  0
 30 31  1  0
 31 32  2  0
 32 33  1  0
 32 34  1  0
 34 35  2  0
  8  2  1  0
 25 10  1  0
 35 29  1  0
  1 36  1  0
  1 37  1  0
  1 38  1  0
  3 39  1  0
  4 40  1  0
  5 41  1  0
  7 42  1  0
  7 43  1  0
  7 44  1  0
 11 45  1  0
 12 46  1  0
 15 47  1  0
 24 48  1  0
 25 49  1  0
 30 50  1  0
 31 51  1  0
 33 52  1  0
 34 53  1  0
 35 54  1  0
M  END
>  <UniqueID>  (7) 
7

>  <SMILES>  (7) 
Cc1cccc(C)c1N(c1ccc(C(O)(C(F)(F)F)C(F)(F)F)cc1)S(=O)(=O)c1ccc(O)cc1

>  <Energy>  (7) 
72.1623005094489

>  <Genealogy>  (7) 
Cc1cccc(C)c1N(c1ccc(C(O)(C(F)(F)F)C(F)(F)F)cc1)S(=O)(=O)c1ccc(O)cc1 (3D coordinates assigned)
Cc1cccc(C)c1N(c1ccc(C(O)(C(F)(F)F)C(F)(F)F)cc1)S(=O)(=O)c1ccc(O)cc1 (optimized conformer: 72.1623005094489 kcal/mol)

>  <smiles>  (7) 
Cc1cccc(C)c1N(c1ccc(C(O)(C(F)(F)F)C(F)(F)F)cc1)S(=O)(=O)c1ccc(O)cc1

>  <score_type>  (7) 
oracle

>  <origin>  (7) 
adgpu

>  <m_score__min__energy>  (7) 
-7.5700000000000003

>  <m_primary>  (7) 
energy

$$$$
7:0
     RDKit          3D

 63 66  0  0  0  0  0  0  0  0999 V2000
   -1.2260   21.6570  -26.4040 C   0  0  0  0  0  0  0  0  0  0  0  0
   -1.9860   22.4470  -27.4370 C   0  0  0  0  0  0  0  0  0  0  0  0
   -3.0770   21.8220  -28.0640 C   0  0  0  0  0  0  0  0  0  0  0  0
   -3.7920   22.4660  -29.0700 C   0  0  0  0  0  0  0  0  0  0  0  0
   -3.4090   23.7400  -29.5050 C   0  0  0  0  0  0  0  0  0  0  0  0
   -4.1380   24.4390  -30.5280 N   0  0  0  0  0  0  0  0  0  0  0  0
   -5.3110   23.9820  -31.2140 C   0  0  0  0  0  0  0  0  0  0  0  0
   -5.4000   24.1790  -32.4550 O   0  0  0  0  0  0  0  0  0  0  0  0
   -6.3600   23.3170  -30.4990 N   0  0  0  0  0  0  0  0  0  0  0  0
   -7.2200   22.2730  -30.9830 C   0  0  0  0  0  0  0  0  0  0  0  0
   -8.5980   22.5170  -31.0360 C   0  0  0  0  0  0  0  0  0  0  0  0
   -9.4750   21.5330  -31.4970 C   0  0  0  0  0  0  0  0  0  0  0  0
   -8.9820   20.2890  -31.9000 C   0  0  0  0  0  0  0  0  0  0  0  0
   -7.6100   20.0200  -31.8320 C   0  0  0  0  0  0  0  0  0  0  0  0
   -7.0050   18.4320  -32.3030 S   0  0  0  0  0  0  0  0  0  0  0  0
   -8.1370   17.4430  -32.3260 O   0  0  0  0  0  0  0  0  0  0  0  0
   -6.0070   17.9810  -31.2730 O   0  0  0  0  0  0  0  0  0  0  0  0
   -6.2230   18.5040  -33.8680 N   0  0  0  0  0  0  0  0  0  0  0  0
   -6.1810   17.1880  -34.5340 C   0  0  0  0  0  0  0  0  0  0  0  0
   -5.1500   16.2320  -33.9050 C   0  0  0  0  0  0  0  0  0  0  0  0
   -3.8410   16.9360  -33.5060 C   0  0  0  0  0  0  0  0  0  0  0  0
   -3.7070   18.3110  -34.1580 C   0  0  0  0  0  0  0  0  0  0  0  0
   -4.9120   19.2010  -33.8010 C   0  0  0  0  0  0  0  0  0  0  0  0
   -6.7320   21.0070  -31.3580 C   0  0  0  0  0  0  0  0  0  0  0  0
   -2.3350   24.3880  -28.8790 C   0  0  0  0  0  0  0  0  0  0  0  0
   -1.9900   25.6640  -29.3120 O   0  0  0  0  0  0  0  0  0  0  0  0
   -1.6180   23.7650  -27.8300 C   0  0  0  0  0  0  0  0  0  0  0  0
   -0.2550   24.6490  -27.0780 S   0  0  0  0  0  0  0  0  0  0  0  0
    0.2430   23.9150  -25.8650 O   0  0  0  0  0  0  0  0  0  0  0  0
    0.8890   24.6770  -28.0540 O   0  0  0  0  0  0  0  0  0  0  0  0
   -0.6270   26.3040  -26.6280 N   0  0  0  0  0  0  0  0  0  0  0  0
   -1.7070   26.4300  -25.6300 C   0  0  0  0  0  0  0  0  0  0  0  0
   -1.1790   26.4240  -24.1850 C   0  0  0  0  0  0  0  0  0  0  0  0
   -0.1560   27.3830  -24.0150 O   0  0  0  0  0  0  0  0  0  0  0  0
    0.9430   27.0390  -24.8330 C   0  0  0  0  0  0  0  0  0  0  0  0
    0.5540   27.1290  -26.3140 C   0  0  0  0  0  0  0  0  0  0  0  0
   -1.5341   21.9773  -25.3978 H   0  0  0  0  0  0  0  0  0  0  0  0
   -1.4417   20.5857  -26.5299 H   0  0  0  0  0  0  0  0  0  0  0  0
   -0.1472   21.8311  -26.5299 H   0  0  0  0  0  0  0  0  0  0  0  0
   -3.3708   20.8079  -27.7552 H   0  0  0  0  0  0  0  0  0  0  0  0
   -4.6624   21.9711  -29.5254 H   0  0  0  0  0  0  0  0  0  0  0  0
   -8.9926   23.4913  -30.7120 H   0  0  0  0  0  0  0  0  0  0  0  0
  -10.5549   21.7372  -31.5430 H   0  0  0  0  0  0  0  0  0  0  0  0
   -9.6741   19.5190  -32.2717 H   0  0  0  0  0  0  0  0  0  0  0  0
   -7.1770   16.7265  -34.4630 H   0  0  0  0  0  0  0  0  0  0  0  0
   -5.8818   17.3557  -35.5792 H   0  0  0  0  0  0  0  0  0  0  0  0
   -5.5937   15.7811  -33.0051 H   0  0  0  0  0  0  0  0  0  0  0  0
   -4.8984   15.4753  -34.6627 H   0  0  0  0  0  0  0  0  0  0  0  0
   -3.8228   17.0583  -32.4130 H   0  0  0  0  0  0  0  0  0  0  0  0
   -3.0024   16.3137  -33.8516 H   0  0  0  0  0  0  0  0  0  0  0  0
   -2.7843   18.7918  -33.8010 H   0  0  0  0  0  0  0  0  0  0  0  0
   -3.6721   18.1833  -35.2500 H   0  0  0  0  0  0  0  0  0  0  0  0
   -4.7725   19.5764  -32.7765 H   0  0  0  0  0  0  0  0  0  0  0  0
   -4.9431   20.0072  -34.5488 H   0  0  0  0  0  0  0  0  0  0  0  0
   -5.6565   20.7901  -31.2791 H   0  0  0  0  0  0  0  0  0  0  0  0
   -2.2413   27.3752  -25.8062 H   0  0  0  0  0  0  0  0  0  0  0  0
   -2.3717   25.5613  -25.7461 H   0  0  0  0  0  0  0  0  0  0  0  0
   -2.0068   26.6559  -23.4987 H   0  0  0  0  0  0  0  0  0  0  0  0
   -0.7650   25.4283  -23.9677 H   0  0  0  0  0  0  0  0  0  0  0  0
    1.7743   27.7312  -24.6336 H   0  0  0  0  0  0  0  0  0  0  0  0
    1.2487   26.0070  -24.6057 H   0  0  0  0  0  0  0  0  0  0  0  0
    0.3294   28.1777  -26.5587 H   0  0  0  0  0  0  0  0  0  0  0  0
    1.3986   26.7524  -26.9097 H   0  0  0  0  0  0  0  0  0  0  0  0
  1  2  1  0
  2  3  2  0
  3  4  1  0
  4  5  2  0
  5  6  1  0
  6  7  1  0
  7  8  2  0
  7  9  1  0
  9 10  1  0
 10 11  2  0
 11 12  1  0
 12 13  2  0
 13 14  1  0
 14 15  1  0
 15 16  2  0
 15 17  2  0
 15 18  1  0
 18 19  1  0
 19 20  1  0
 20 21  1  0
 21 22  1  0
 22 23  1  0
 14 24  2  0
  5 25  1  0
 25 26  1  0
 25 27  2  0
 27 28  1  0
 28 29  2  0
 28 30  2  0
 28 31  1  0
 31 32  1  0
 32 33  1  0
 33 34  1  0
 34 35  1  0
 35 36  1  0
 27  2  1  0
 36 31  1  0
 24 10  1  0
 23 18  1  0
  1 37  1  0
  1 38  1  0
  1 39  1  0
  3 40  1  0
  4 41  1  0
 11 42  1  0
 12 43  1  0
 13 44  1  0
 19 45  1  0
 19 46  1  0
 20 47  1  0
 20 48  1  0
 21 49  1  0
 21 50  1  0
 22 51  1  0
 22 52  1  0
 23 53  1  0
 23 54  1  0
 24 55  1  0
 32 56  1  0
 32 57  1  0
 33 58  1  0
 33 59  1  0
 35 60  1  0
 35 61  1  0
 36 62  1  0
 36 63  1  0
M  CHG  3   6  -1   9  -1  26  -1
M  END
>  <UniqueID>  (8) 
8

>  <SMILES>  (8) 
Cc1ccc([N-]C(=O)[N-]c2cccc(S(=O)(=O)N3CCCCC3)c2)c([O-])c1S(=O)(=O)N1CCOCC1

>  <Energy>  (8) 
90.09503545308867

>  <Genealogy>  (8) 
Cc1ccc([N-]C(=O)[N-]c2cccc(S(=O)(=O)N3CCCCC3)c2)c([O-])c1S(=O)(=O)N1CCOCC1 (protonated)
Cc1ccc([N-]C(=O)[N-]c2cccc(S(=O)(=O)N3CCCCC3)c2)c([O-])c1S(=O)(=O)N1CCOCC1 (3D coordinates assigned)
Cc1ccc([N-]C(=O)[N-]c2cccc(S(=O)(=O)N3CCCCC3)c2)c([O-])c1S(=O)(=O)N1CCOCC1 (nonaromatic ring conformer: 90.09503545308867 kcal/mol)

>  <smiles>  (8) 
Cc1ccc(NC(=O)Nc2cccc(S(=O)(=O)N3CCCCC3)c2)c(O)c1S(=O)(=O)N1CCOCC1

>  <score_type>  (8) 
oracle

>  <origin>  (8) 
adgpu

>  <m_score__min__energy>  (8) 
-17.399999999999999

>  <m_primary>  (8) 
energy

$$$$
8:0
     RDKit          3D

 60 63  0  0  0  0  0  0  0  0999 V2000
   -3.5370   24.8830  -26.7190 C   0  0  0  0  0  0  0  0  0  0  0  0
   -1.8460   25.3890  -27.1680 S   0  0  0  0  0  0  0  0  0  0  0  0
   -1.5360   23.9580  -28.2110 C   0  0  0  0  0  0  0  0  0  0  0  0
   -0.7390   22.9660  -27.7310 N   0  0  0  0  0  0  0  0  0  0  0  0
   -0.4980   21.8260  -28.4300 C   0  0  0  0  0  0  0  0  0  0  0  0
    0.3780   20.7660  -27.8420 C   0  0  0  0  0  0  0  0  0  0  0  0
   -1.1170   21.6290  -29.6660 C   0  0  0  0  0  0  0  0  0  0  0  0
   -1.9590   22.6160  -30.1850 C   0  0  0  0  0  0  0  0  0  0  0  0
   -2.7760   22.3250  -31.7600 S   0  0  0  0  0  0  0  0  0  0  0  0
   -1.6530   21.0070  -32.2290 C   0  0  0  0  0  0  0  0  0  0  0  0
   -0.4580   21.3090  -32.8920 C   0  0  0  0  0  0  0  0  0  0  0  0
    0.4290   20.2850  -33.2420 C   0  0  0  0  0  0  0  0  0  0  0  0
    0.1170   18.9560  -32.9430 C   0  0  0  0  0  0  0  0  0  0  0  0
   -1.0860   18.6490  -32.2980 C   0  0  0  0  0  0  0  0  0  0  0  0
   -1.9730   19.6710  -31.9460 C   0  0  0  0  0  0  0  0  0  0  0  0
   -2.1660   23.8050  -29.4640 C   0  0  0  0  0  0  0  0  0  0  0  0
   -3.0880   24.7850  -29.9560 N   0  0  0  0  0  0  0  0  0  0  0  0
   -4.3860   24.4690  -30.4670 C   0  0  0  0  0  0  0  0  0  0  0  0
   -4.9660   25.2980  -31.2160 O   0  0  0  0  0  0  0  0  0  0  0  0
   -5.0480   23.2580  -30.0720 N   0  0  0  0  0  0  0  0  0  0  0  0
   -6.1630   22.6950  -30.7790 C   0  0  0  0  0  0  0  0  0  0  0  0
   -7.4380   23.2540  -30.6150 C   0  0  0  0  0  0  0  0  0  0  0  0
   -8.5460   22.6830  -31.2450 C   0  0  0  0  0  0  0  0  0  0  0  0
   -8.3940   21.5370  -32.0290 C   0  0  0  0  0  0  0  0  0  0  0  0
   -7.1270   20.9580  -32.1880 C   0  0  0  0  0  0  0  0  0  0  0  0
   -6.9270   19.4640  -33.1010 S   0  0  0  0  0  0  0  0  0  0  0  0
   -8.1350   18.5870  -32.9200 O   0  0  0  0  0  0  0  0  0  0  0  0
   -6.8100   19.8160  -34.5580 O   0  0  0  0  0  0  0  0  0  0  0  0
   -5.4760   18.6280  -32.5880 N   0  0  0  0  0  0  0  0  0  0  0  0
   -5.7610   17.2580  -32.1270 C   0  0  0  0  0  0  0  0  0  0  0  0
   -6.0820   16.3000  -33.2980 C   0  0  0  0  0  0  0  0  0  0  0  0
   -5.6460   16.7800  -34.5590 O   0  0  0  0  0  0  0  0  0  0  0  0
   -4.3630   17.3520  -34.4480 C   0  0  0  0  0  0  0  0  0  0  0  0
   -4.4280   18.6580  -33.6330 C   0  0  0  0  0  0  0  0  0  0  0  0
   -6.0160   21.5360  -31.5600 C   0  0  0  0  0  0  0  0  0  0  0  0
   -3.6325   24.8544  -25.6235 H   0  0  0  0  0  0  0  0  0  0  0  0
   -4.2574   25.6049  -27.1311 H   0  0  0  0  0  0  0  0  0  0  0  0
   -3.7424   23.8840  -27.1311 H   0  0  0  0  0  0  0  0  0  0  0  0
    0.3330   20.8204  -26.7443 H   0  0  0  0  0  0  0  0  0  0  0  0
    0.0303   19.7768  -28.1746 H   0  0  0  0  0  0  0  0  0  0  0  0
    1.4150   20.9211  -28.1746 H   0  0  0  0  0  0  0  0  0  0  0  0
   -0.9425   20.7003  -30.2290 H   0  0  0  0  0  0  0  0  0  0  0  0
   -0.2156   22.3533  -33.1384 H   0  0  0  0  0  0  0  0  0  0  0  0
    1.3728   20.5263  -33.7530 H   0  0  0  0  0  0  0  0  0  0  0  0
    0.8167   18.1519  -33.2146 H   0  0  0  0  0  0  0  0  0  0  0  0
   -1.3343   17.6025  -32.0675 H   0  0  0  0  0  0  0  0  0  0  0  0
   -2.9224   19.4271  -31.4468 H   0  0  0  0  0  0  0  0  0  0  0  0
   -4.7340   22.7880  -29.1940 H   0  0  0  0  0  0  0  0  0  0  0  0
   -7.5666   24.1475  -29.9865 H   0  0  0  0  0  0  0  0  0  0  0  0
   -9.5406   23.1368  -31.1235 H   0  0  0  0  0  0  0  0  0  0  0  0
   -9.2690   21.0884  -32.5221 H   0  0  0  0  0  0  0  0  0  0  0  0
   -4.8815   16.8758  -31.5881 H   0  0  0  0  0  0  0  0  0  0  0  0
   -6.6452   17.2996  -31.4739 H   0  0  0  0  0  0  0  0  0  0  0  0
   -5.5896   15.3357  -33.1036 H   0  0  0  0  0  0  0  0  0  0  0  0
   -7.1769   16.2075  -33.3487 H   0  0  0  0  0  0  0  0  0  0  0  0
   -3.6917   16.6420  -33.9427 H   0  0  0  0  0  0  0  0  0  0  0  0
   -3.9837   17.5777  -35.4556 H   0  0  0  0  0  0  0  0  0  0  0  0
   -3.4534   18.8198  -33.1493 H   0  0  0  0  0  0  0  0  0  0  0  0
   -4.6768   19.4722  -34.3296 H   0  0  0  0  0  0  0  0  0  0  0  0
   -5.0222   21.0797  -31.6790 H   0  0  0  0  0  0  0  0  0  0  0  0
  1  2  1  0
  2  3  1  0
  3  4  2  0
  4  5  1  0
  5  6  1  0
  5  7  2  0
  7  8  1  0
  8  9  1  0
  9 10  1  0
 10 11  2  0
 11 12  1  0
 12 13  2  0
 13 14  1  0
 14 15  2  0
  8 16  2  0
 16 17  1  0
 17 18  1  0
 18 19  2  0
 18 20  1  0
 20 21  1  0
 21 22  2  0
 22 23  1  0
 23 24  2  0
 24 25  1  0
 25 26  1  0
 26 27  2  0
 26 28  2  0
 26 29  1  0
 29 30  1  0
 30 31  1  0
 31 32  1  0
 32 33  1  0
 33 34  1  0
 25 35  2  0
 16  3  1  0
 35 21  1  0
 15 10  1  0
 34 29  1  0
  1 36  1  0
  1 37  1  0
  1 38  1  0
  6 39  1  0
  6 40  1  0
  6 41  1  0
  7 42  1  0
 11 43  1  0
 12 44  1  0
 13 45  1  0
 14 46  1  0
 15 47  1  0
 20 48  1  0
 22 49  1  0
 23 50  1  0
 24 51  1  0
 30 52  1  0
 30 53  1  0
 31 54  1  0
 31 55  1  0
 33 56  1  0
 33 57  1  0
 34 58  1  0
 34 59  1  0
 35 60  1  0
M  CHG  1  17  -1
M  END
>  <UniqueID>  (9) 
9

>  <SMILES>  (9) 
CSc1nc(C)cc(Sc2ccccc2)c1[N-]C(=O)Nc1cccc(S(=O)(=O)N2CCOCC2)c1

>  <Energy>  (9) 
72.58885172967037

>  <Genealogy>  (9) 
CSc1nc(C)cc(Sc2ccccc2)c1[N-]C(=O)Nc1cccc(S(=O)(=O)N2CCOCC2)c1 (protonated)
CSc1nc(C)cc(Sc2ccccc2)c1[N-]C(=O)Nc1cccc(S(=O)(=O)N2CCOCC2)c1 (3D coordinates assigned)
CSc1nc(C)cc(Sc2ccccc2)c1[N-]C(=O)Nc1cccc(S(=O)(=O)N2CCOCC2)c1 (nonaromatic ring conformer: 72.58885172967037 kcal/mol)

>  <smiles>  (9) 
CSc1nc(C)cc(Sc2ccccc2)c1NC(=O)Nc1cccc(S(=O)(=O)N2CCOCC2)c1

>  <score_type>  (9) 
oracle

>  <origin>  (9) 
adgpu

>  <m_score__min__energy>  (9) 
-11.25

>  <m_primary>  (9) 
energy

$$$$
9:0
     RDKit          3D

 45 48  0  0  0  0  0  0  0  0999 V2000
   -5.2430   24.8190  -31.4290 O   0  0  0  0  0  0  0  0  0  0  0  0
   -4.6090   23.7910  -31.0620 C   0  0  0  0  0  0  0  0  0  0  0  0
   -5.0430   22.4950  -31.5210 N   0  0  0  0  0  0  0  0  0  0  0  0
   -6.4000   22.2640  -32.0090 C   0  0  0  0  0  0  0  0  0  0  0  0
   -6.6560   20.7900  -32.1400 C   0  0  0  0  0  0  0  0  0  0  0  0
   -7.9630   20.2960  -32.2140 C   0  0  0  0  0  0  0  0  0  0  0  0
   -8.1630   18.9200  -32.3290 C   0  0  0  0  0  0  0  0  0  0  0  0
   -7.0700   18.0500  -32.3530 C   0  0  0  0  0  0  0  0  0  0  0  0
   -5.7830   18.5740  -32.2600 C   0  0  0  0  0  0  0  0  0  0  0  0
   -5.6060   19.9180  -32.1520 N   0  0  0  0  0  0  0  0  0  0  0  0
   -3.4420   23.9280  -30.1530 C   0  0  0  0  0  0  0  0  0  0  0  0
   -3.0580   25.1090  -29.6070 N   0  0  0  0  0  0  0  0  0  0  0  0
   -1.9430   24.8570  -28.9030 C   0  0  0  0  0  0  0  0  0  0  0  0
   -1.1780   25.7830  -28.1920 C   0  0  0  0  0  0  0  0  0  0  0  0
   -0.0200   25.3230  -27.5430 C   0  0  0  0  0  0  0  0  0  0  0  0
    0.3480   23.9630  -27.6200 C   0  0  0  0  0  0  0  0  0  0  0  0
    1.8020   23.4070  -26.8100 Cl  0  0  0  0  0  0  0  0  0  0  0  0
   -0.4410   23.0520  -28.3490 C   0  0  0  0  0  0  0  0  0  0  0  0
   -1.5920   23.5330  -28.9820 C   0  0  0  0  0  0  0  0  0  0  0  0
   -2.5460   22.9120  -29.7770 C   0  0  0  0  0  0  0  0  0  0  0  0
   -2.5540   21.2260  -30.3230 S   0  0  0  0  0  0  0  0  0  0  0  0
   -2.2950   21.2060  -31.8040 O   0  0  0  0  0  0  0  0  0  0  0  0
   -3.8790   20.5670  -30.0630 O   0  0  0  0  0  0  0  0  0  0  0  0
   -1.3030   20.3240  -29.4660 C   0  0  0  0  0  0  0  0  0  0  0  0
   -1.5160   19.8990  -28.1460 C   0  0  0  0  0  0  0  0  0  0  0  0
   -0.5220   19.1830  -27.4720 C   0  0  0  0  0  0  0  0  0  0  0  0
    0.6840   18.8820  -28.1170 C   0  0  0  0  0  0  0  0  0  0  0  0
    1.6400   18.1840  -27.4630 F   0  0  0  0  0  0  0  0  0  0  0  0
    0.9120   19.3220  -29.4290 C   0  0  0  0  0  0  0  0  0  0  0  0
   -0.0690   20.0620  -30.0950 C   0  0  0  0  0  0  0  0  0  0  0  0
   -4.3910   21.6820  -31.4980 H   0  0  0  0  0  0  0  0  0  0  0  0
   -7.1206   22.6970  -31.2997 H   0  0  0  0  0  0  0  0  0  0  0  0
   -6.5145   22.7389  -32.9946 H   0  0  0  0  0  0  0  0  0  0  0  0
   -8.8213   20.9832  -32.1819 H   0  0  0  0  0  0  0  0  0  0  0  0
   -9.1847   18.5187  -32.4010 H   0  0  0  0  0  0  0  0  0  0  0  0
   -7.2241   16.9647  -32.4442 H   0  0  0  0  0  0  0  0  0  0  0  0
   -4.9119   17.9025  -32.2739 H   0  0  0  0  0  0  0  0  0  0  0  0
   -3.5030   26.0460  -29.7160 H   0  0  0  0  0  0  0  0  0  0  0  0
   -1.4730   26.8415  -28.1413 H   0  0  0  0  0  0  0  0  0  0  0  0
    0.6031   26.0268  -26.9718 H   0  0  0  0  0  0  0  0  0  0  0  0
   -0.1597   21.9909  -28.4187 H   0  0  0  0  0  0  0  0  0  0  0  0
   -2.4657   20.1292  -27.6410 H   0  0  0  0  0  0  0  0  0  0  0  0
   -0.6874   18.8561  -26.4348 H   0  0  0  0  0  0  0  0  0  0  0  0
    1.8608   19.0852  -29.9328 H   0  0  0  0  0  0  0  0  0  0  0  0
    0.1219   20.4400  -31.1102 H   0  0  0  0  0  0  0  0  0  0  0  0
  1  2  2  0
  2  3  1  0
  3  4  1  0
  4  5  1  0
  5  6  2  0
  6  7  1  0
  7  8  2  0
  8  9  1  0
  9 10  2  0
  2 11  1  0
 11 12  1  0
 12 13  1  0
 13 14  2  0
 14 15  1  0
 15 16  2  0
 16 17  1  0
 16 18  1  0
 18 19  2  0
 19 20  1  0
 20 21  1  0
 21 22  2  0
 21 23  2  0
 21 24  1  0
 24 25  2  0
 25 26  1  0
 26 27  2  0
 27 28  1  0
 27 29  1  0
 29 30  2  0
 10  5  1  0
 20 11  2  0
 30 24  1  0
 19 13  1  0
  3 31  1  0
  4 32  1  0
  4 33  1  0
  6 34  1  0
  7 35  1  0
  8 36  1  0
  9 37  1  0
 12 38  1  0
 14 39  1  0
 15 40  1  0
 18 41  1  0
 25 42  1  0
 26 43  1  0
 29 44  1  0
 30 45  1  0
M  END
>  <UniqueID>  (10) 
10

>  <SMILES>  (10) 
O=C(NCc1ccccn1)c1[nH]c2ccc(Cl)cc2c1S(=O)(=O)c1ccc(F)cc1

>  <Energy>  (10) 
84.07583321586408

>  <Genealogy>  (10) 
O=C(NCc1ccccn1)c1[nH]c2ccc(Cl)cc2c1S(=O)(=O)c1ccc(F)cc1 (3D coordinates assigned)
O=C(NCc1ccccn1)c1[nH]c2ccc(Cl)cc2c1S(=O)(=O)c1ccc(F)cc1 (optimized conformer: 84.07583321586408 kcal/mol)

>  <smiles>  (10) 
O=C(NCc1ccccn1)c1[nH]c2ccc(Cl)cc2c1S(=O)(=O)c1ccc(F)cc1

>  <score_type>  (10) 
oracle

>  <origin>  (10) 
adgpu

>  <m_score__min__energy>  (10) 
-9.5600000000000005

>  <m_primary>  (10) 
energy

$$$$
10:0
     RDKit          3D

 52 55  0  0  0  0  0  0  0  0999 V2000
   -6.0720   16.5710  -32.7110 C   0  0  0  0  0  0  0  0  0  0  0  0
   -6.6700   17.8810  -32.3290 C   0  0  0  0  0  0  0  0  0  0  0  0
   -7.5110   18.6490  -33.1060 C   0  0  0  0  0  0  0  0  0  0  0  0
   -7.7480   19.7410  -32.3040 C   0  0  0  0  0  0  0  0  0  0  0  0
   -8.4490   20.7720  -32.6550 N   0  0  0  0  0  0  0  0  0  0  0  0
   -8.7080   22.1530  -31.6410 S   0  0  0  0  0  0  0  0  0  0  0  0
   -9.6220   23.1110  -32.3480 O   0  0  0  0  0  0  0  0  0  0  0  0
   -9.3700   21.7260  -30.3610 O   0  0  0  0  0  0  0  0  0  0  0  0
   -7.1790   22.9620  -31.2980 C   0  0  0  0  0  0  0  0  0  0  0  0
   -6.0000   22.5260  -31.9180 C   0  0  0  0  0  0  0  0  0  0  0  0
   -4.7890   23.1700  -31.6570 C   0  0  0  0  0  0  0  0  0  0  0  0
   -4.7370   24.2520  -30.7590 C   0  0  0  0  0  0  0  0  0  0  0  0
   -3.5050   24.9230  -30.4580 N   0  0  0  0  0  0  0  0  0  0  0  0
   -2.5620   24.6210  -29.0340 S   0  0  0  0  0  0  0  0  0  0  0  0
   -1.3590   25.5220  -29.0240 O   0  0  0  0  0  0  0  0  0  0  0  0
   -3.3930   24.8930  -27.8080 O   0  0  0  0  0  0  0  0  0  0  0  0
   -2.0290   22.9440  -29.0790 C   0  0  0  0  0  0  0  0  0  0  0  0
   -2.1980   22.0980  -27.9740 C   0  0  0  0  0  0  0  0  0  0  0  0
   -1.8630   20.7440  -28.0720 C   0  0  0  0  0  0  0  0  0  0  0  0
   -1.3730   20.2260  -29.2760 C   0  0  0  0  0  0  0  0  0  0  0  0
   -1.2030   21.0700  -30.3850 C   0  0  0  0  0  0  0  0  0  0  0  0
   -0.6890   20.4380  -31.9460 S   0  0  0  0  0  0  0  0  0  0  0  0
   -0.0610   21.5420  -32.7480 O   0  0  0  0  0  0  0  0  0  0  0  0
    0.3230   19.3390  -31.7710 O   0  0  0  0  0  0  0  0  0  0  0  0
   -2.1090   19.8030  -32.7760 C   0  0  0  0  0  0  0  0  0  0  0  0
   -3.3120   20.5210  -32.7670 C   0  0  0  0  0  0  0  0  0  0  0  0
   -4.4140   20.0440  -33.4770 C   0  0  0  0  0  0  0  0  0  0  0  0
   -4.3220   18.8640  -34.2180 C   0  0  0  0  0  0  0  0  0  0  0  0
   -3.1230   18.1450  -34.2330 C   0  0  0  0  0  0  0  0  0  0  0  0
   -2.0180   18.6080  -33.5090 C   0  0  0  0  0  0  0  0  0  0  0  0
   -1.5190   22.4300  -30.2770 C   0  0  0  0  0  0  0  0  0  0  0  0
   -5.9170   24.6800  -30.1330 C   0  0  0  0  0  0  0  0  0  0  0  0
   -7.1340   24.0470  -30.4120 C   0  0  0  0  0  0  0  0  0  0  0  0
   -7.1110   19.6120  -31.1240 N   0  0  0  0  0  0  0  0  0  0  0  0
   -6.4750   18.4800  -31.1730 O   0  0  0  0  0  0  0  0  0  0  0  0
   -5.8144   16.0067  -31.8026 H   0  0  0  0  0  0  0  0  0  0  0  0
   -6.7971   15.9966  -33.3062 H   0  0  0  0  0  0  0  0  0  0  0  0
   -5.1630   16.7425  -33.3062 H   0  0  0  0  0  0  0  0  0  0  0  0
   -7.8962   18.4405  -34.1151 H   0  0  0  0  0  0  0  0  0  0  0  0
   -6.0289   21.6735  -32.6126 H   0  0  0  0  0  0  0  0  0  0  0  0
   -3.8700   22.8294  -32.1564 H   0  0  0  0  0  0  0  0  0  0  0  0
   -2.5942   22.4995  -27.0296 H   0  0  0  0  0  0  0  0  0  0  0  0
   -1.9850   20.0843  -27.2003 H   0  0  0  0  0  0  0  0  0  0  0  0
   -1.1211   19.1580  -29.3535 H   0  0  0  0  0  0  0  0  0  0  0  0
   -3.3876   21.4607  -32.2002 H   0  0  0  0  0  0  0  0  0  0  0  0
   -5.3621   20.6013  -33.4530 H   0  0  0  0  0  0  0  0  0  0  0  0
   -5.1900   18.5013  -34.7881 H   0  0  0  0  0  0  0  0  0  0  0  0
   -3.0479   17.2143  -34.8145 H   0  0  0  0  0  0  0  0  0  0  0  0
   -1.0784   18.0361  -33.5140 H   0  0  0  0  0  0  0  0  0  0  0  0
   -1.3657   23.0976  -31.1377 H   0  0  0  0  0  0  0  0  0  0  0  0
   -5.8859   25.5168  -29.4197 H   0  0  0  0  0  0  0  0  0  0  0  0
   -8.0587   24.4026  -29.9339 H   0  0  0  0  0  0  0  0  0  0  0  0
  1  2  1  0
  2  3  2  0
  3  4  1  0
  4  5  2  3
  5  6  1  0
  6  7  2  0
  6  8  2  0
  6  9  1  0
  9 10  2  0
 10 11  1  0
 11 12  2  0
 12 13  1  0
 13 14  1  0
 14 15  2  0
 14 16  2  0
 14 17  1  0
 17 18  2  0
 18 19  1  0
 19 20  2  0
 20 21  1  0
 21 22  1  0
 22 23  2  0
 22 24  2  0
 22 25  1  0
 25 26  2  0
 26 27  1  0
 27 28  2  0
 28 29  1  0
 29 30  2  0
 21 31  2  0
 12 32  1  0
 32 33  2  0
  4 34  1  0
 34 35  1  0
 35  2  1  0
 33  9  1  0
 31 17  1  0
 30 25  1  0
  1 36  1  0
  1 37  1  0
  1 38  1  0
  3 39  1  0
 10 40  1  0
 11 41  1  0
 18 42  1  0
 19 43  1  0
 20 44  1  0
 26 45  1  0
 27 46  1  0
 28 47  1  0
 29 48  1  0
 30 49  1  0
 31 50  1  0
 32 51  1  0
 33 52  1  0
M  CHG  2  13  -1  34  -1
M  END
>  <UniqueID>  (11) 
11

>  <SMILES>  (11) 
Cc1cc(=NS(=O)(=O)c2ccc([N-]S(=O)(=O)c3cccc(S(=O)(=O)c4ccccc4)c3)cc2)[n-]o1

>  <Energy>  (11) 
89.45897904585627

>  <Genealogy>  (11) 
Cc1cc(=NS(=O)(=O)c2ccc([N-]S(=O)(=O)c3cccc(S(=O)(=O)c4ccccc4)c3)cc2)[n-]o1 (protonated)
Cc1cc(=NS(=O)(=O)c2ccc([N-]S(=O)(=O)c3cccc(S(=O)(=O)c4ccccc4)c3)cc2)[n-]o1 (3D coordinates assigned)
Cc1cc(=NS(=O)(=O)c2ccc([N-]S(=O)(=O)c3cccc(S(=O)(=O)c4ccccc4)c3)cc2)[n-]o1 (optimized conformer: 89.45897904585627 kcal/mol)

>  <smiles>  (11) 
Cc1cc(=NS(=O)(=O)c2ccc(NS(=O)(=O)c3cccc(S(=O)(=O)c4ccccc4)c3)cc2)[nH]o1

>  <score_type>  (11) 
oracle

>  <origin>  (11) 
adgpu

>  <m_score__min__energy>  (11) 
-12.539999999999999

>  <m_primary>  (11) 
energy

$$$$
11:0
     RDKit          3D

 59 62  0  0  0  0  0  0  0  0999 V2000
   -1.7112   24.4564  -29.7542 H   0  0  0  0  0  0  0  0  0  0  0  0
   -1.9840   23.5450  -29.2020 C   0  0  0  0  0  0  0  0  0  0  0  0
   -1.0740   22.4880  -29.1110 C   0  0  0  0  0  0  0  0  0  0  0  0
   -0.0826   22.5759  -29.5794 H   0  0  0  0  0  0  0  0  0  0  0  0
   -1.4210   21.3170  -28.4250 C   0  0  0  0  0  0  0  0  0  0  0  0
   -0.2550   20.0050  -28.2930 S   0  0  0  0  0  0  0  0  0  0  0  0
   -0.7880   18.9020  -27.4220 O   0  0  0  0  0  0  0  0  0  0  0  0
    1.0160   20.5330  -27.6890 O   0  0  0  0  0  0  0  0  0  0  0  0
    0.0840   19.3730  -29.8700 N   0  0  0  0  0  0  0  0  0  0  0  0
   -0.7550   19.4730  -30.8520 C   0  0  0  0  0  0  0  0  0  0  0  0
   -1.9370   20.0360  -30.7740 O   0  0  0  0  0  0  0  0  0  0  0  0
   -2.5410   19.9990  -31.9290 N   0  0  0  0  0  0  0  0  0  0  0  0
   -1.7060   19.3870  -32.7940 C   0  0  0  0  0  0  0  0  0  0  0  0
   -2.0200   19.1510  -34.2350 C   0  0  0  0  0  0  0  0  0  0  0  0
   -2.8969   18.4919  -34.3160 H   0  0  0  0  0  0  0  0  0  0  0  0
   -2.2368   20.1116  -34.7251 H   0  0  0  0  0  0  0  0  0  0  0  0
   -1.1575   18.6757  -34.7251 H   0  0  0  0  0  0  0  0  0  0  0  0
   -0.5490   19.0140  -32.1330 C   0  0  0  0  0  0  0  0  0  0  0  0
    0.6830   18.3880  -32.7090 C   0  0  0  0  0  0  0  0  0  0  0  0
    1.3404   18.0539  -31.8928 H   0  0  0  0  0  0  0  0  0  0  0  0
    0.4000   17.5243  -33.3287 H   0  0  0  0  0  0  0  0  0  0  0  0
    1.2137   19.1258  -33.3287 H   0  0  0  0  0  0  0  0  0  0  0  0
   -2.6920   21.2050  -27.8440 C   0  0  0  0  0  0  0  0  0  0  0  0
   -2.9730   20.2840  -27.3122 H   0  0  0  0  0  0  0  0  0  0  0  0
   -3.6030   22.2610  -27.9390 C   0  0  0  0  0  0  0  0  0  0  0  0
   -4.6065   22.1612  -27.4997 H   0  0  0  0  0  0  0  0  0  0  0  0
   -3.2400   23.4490  -28.5940 C   0  0  0  0  0  0  0  0  0  0  0  0
   -4.1470   24.5510  -28.6810 N   0  0  0  0  0  0  0  0  0  0  0  0
   -5.1230   24.8720  -30.0800 S   0  0  0  0  0  0  0  0  0  0  0  0
   -4.2270   25.3120  -31.2040 O   0  0  0  0  0  0  0  0  0  0  0  0
   -6.0840   25.9860  -29.7670 O   0  0  0  0  0  0  0  0  0  0  0  0
   -6.0310   23.4490  -30.5830 C   0  0  0  0  0  0  0  0  0  0  0  0
   -5.3600   22.2460  -30.8380 C   0  0  0  0  0  0  0  0  0  0  0  0
   -4.2741   22.1799  -30.6756 H   0  0  0  0  0  0  0  0  0  0  0  0
   -6.0640   21.1290  -31.2980 C   0  0  0  0  0  0  0  0  0  0  0  0
   -5.5282   20.1923  -31.5112 H   0  0  0  0  0  0  0  0  0  0  0  0
   -7.4500   21.2000  -31.4880 C   0  0  0  0  0  0  0  0  0  0  0  0
   -8.3350   19.8060  -32.1020 S   0  0  0  0  0  0  0  0  0  0  0  0
   -9.4820   20.2820  -32.9530 O   0  0  0  0  0  0  0  0  0  0  0  0
   -8.8960   19.0300  -30.9420 O   0  0  0  0  0  0  0  0  0  0  0  0
   -7.2740   18.7780  -33.0340 N   0  0  0  0  0  0  0  0  0  0  0  0
   -7.8770   18.1840  -33.6540 H   0  0  0  0  0  0  0  0  0  0  0  0
   -6.4940   17.8990  -32.1390 C   0  0  0  0  0  0  0  0  0  0  0  0
   -6.0312   18.5110  -31.3508 H   0  0  0  0  0  0  0  0  0  0  0  0
   -7.1769   17.1539  -31.7048 H   0  0  0  0  0  0  0  0  0  0  0  0
   -5.3860   17.1510  -32.9090 C   0  0  0  0  0  0  0  0  0  0  0  0
   -4.4059   17.5112  -32.5631 H   0  0  0  0  0  0  0  0  0  0  0  0
   -5.5004   16.0742  -32.7155 H   0  0  0  0  0  0  0  0  0  0  0  0
   -5.4860   17.3620  -34.3040 O   0  0  0  0  0  0  0  0  0  0  0  0
   -5.3220   18.7370  -34.5860 C   0  0  0  0  0  0  0  0  0  0  0  0
   -4.3229   19.0521  -34.2505 H   0  0  0  0  0  0  0  0  0  0  0  0
   -5.4394   18.8788  -35.6705 H   0  0  0  0  0  0  0  0  0  0  0  0
   -6.3850   19.6030  -33.8720 C   0  0  0  0  0  0  0  0  0  0  0  0
   -5.8764   20.3418  -33.2352 H   0  0  0  0  0  0  0  0  0  0  0  0
   -6.9959   20.1036  -34.6376 H   0  0  0  0  0  0  0  0  0  0  0  0
   -8.1240   22.3980  -31.2200 C   0  0  0  0  0  0  0  0  0  0  0  0
   -9.2132   22.4573  -31.3617 H   0  0  0  0  0  0  0  0  0  0  0  0
   -7.4180   23.5190  -30.7730 C   0  0  0  0  0  0  0  0  0  0  0  0
   -7.9526   24.4586  -30.5698 H   0  0  0  0  0  0  0  0  0  0  0  0
  1  2  1  0
  2  3  2  0
  3  4  1  0
  3  5  1  0
  5  6  1  0
  6  7  2  0
  6  8  2  0
  6  9  1  0
  9 10  2  0
 10 11  1  0
 11 12  1  0
 12 13  1  0
 13 14  1  0
 14 15  1  0
 14 16  1  0
 14 17  1  0
 13 18  2  0
 18 19  1  0
 19 20  1  0
 19 21  1  0
 19 22  1  0
  5 23  2  0
 23 24  1  0
 23 25  1  0
 25 26  1  0
 25 27  2  0
 27 28  1  0
 28 29  1  0
 29 30  2  0
 29 31  2  0
 29 32  1  0
 32 33  2  0
 33 34  1  0
 33 35  1  0
 35 36  1  0
 35 37  2  0
 37 38  1  0
 38 39  2  0
 38 40  2  0
 38 41  1  0
 41 42  1  0
 41 43  1  0
 43 44  1  0
 43 45  1  0
 43 46  1  0
 46 47  1  0
 46 48  1  0
 46 49  1  0
 49 50  1  0
 50 51  1  0
 50 52  1  0
 50 53  1  0
 53 54  1  0
 53 55  1  0
 37 56  1  0
 56 57  1  0
 56 58  2  0
 58 59  1  0
 27  2  1  0
 58 32  1  0
 18 10  1  0
 53 41  1  0
M  CHG  3  12  -1  28  -1  41   1
M  END
>  <UniqueID>  (12) 
12

>  <SMILES>  (12) 
Cc1[n-]o/c(=N\S(=O)(=O)c2ccc([N-]S(=O)(=O)c3ccc(S(=O)(=O)[NH+]4CCOCC4)cc3)cc2)c1C

>  <Energy>  (12) 
109.80412043792157

>  <Genealogy>  (12) 
Cc1[n-]oc(=NS(=O)(=O)c2ccc([N-]S(=O)(=O)c3ccc(S(=O)(=O)[NH+]4CCOCC4)cc3)cc2)c1C (protonated)
Cc1[n-]o/c(=N\S(=O)(=O)c2ccc([N-]S(=O)(=O)c3ccc(S(=O)(=O)[NH+]4CCOCC4)cc3)cc2)c1C (cis-trans isomerization)
Cc1[n-]o/c(=N\S(=O)(=O)c2ccc([N-]S(=O)(=O)c3ccc(S(=O)(=O)[NH+]4CCOCC4)cc3)cc2)c1C (3D coordinates assigned)
Cc1[n-]o/c(=N\S(=O)(=O)c2ccc([N-]S(=O)(=O)c3ccc(S(=O)(=O)[NH+]4CCOCC4)cc3)cc2)c1C (nonaromatic ring conformer: 109.80412043792157 kcal/mol)

>  <smiles>  (12) 
Cc1[nH]oc(=NS(=O)(=O)c2ccc(NS(=O)(=O)c3ccc(S(=O)(=O)N4CCOCC4)cc3)cc2)c1C

>  <score_type>  (12) 
oracle

>  <origin>  (12) 
adgpu

>  <m_score__min__energy>  (12) 
-13.15

>  <m_primary>  (12) 
energy

$$$$
12:0
     RDKit          3D

 47 49  0  0  0  0  0  0  0  0999 V2000
   -5.0650   15.6370  -34.1720 C   0  0  0  0  0  0  0  0  0  0  0  0
   -5.6500   16.7540  -33.4150 N   0  0  0  0  0  0  0  0  0  0  0  0
   -5.4030   16.5850  -31.9730 C   0  0  0  0  0  0  0  0  0  0  0  0
   -5.7800   17.8660  -31.2060 C   0  0  0  0  0  0  0  0  0  0  0  0
   -6.8610   18.7120  -31.9170 C   0  0  0  0  0  0  0  0  0  0  0  0
   -6.1720   20.0280  -32.9450 S   0  0  0  0  0  0  0  0  0  0  0  0
   -6.9380   20.0700  -34.2370 O   0  0  0  0  0  0  0  0  0  0  0  0
   -4.7400   19.7490  -33.3070 O   0  0  0  0  0  0  0  0  0  0  0  0
   -6.3220   21.6060  -32.1260 C   0  0  0  0  0  0  0  0  0  0  0  0
   -7.6050   22.1040  -31.7910 C   0  0  0  0  0  0  0  0  0  0  0  0
   -9.0730   21.1420  -31.9490 Cl  0  0  0  0  0  0  0  0  0  0  0  0
   -7.7490   23.3980  -31.2870 C   0  0  0  0  0  0  0  0  0  0  0  0
   -6.6350   24.2020  -31.0750 C   0  0  0  0  0  0  0  0  0  0  0  0
   -5.3530   23.7040  -31.3030 C   0  0  0  0  0  0  0  0  0  0  0  0
   -4.2350   24.5550  -31.0160 N   0  0  0  0  0  0  0  0  0  0  0  0
   -3.1910   24.2560  -30.0800 C   0  0  0  0  0  0  0  0  0  0  0  0
   -2.7950   23.0700  -29.9280 O   0  0  0  0  0  0  0  0  0  0  0  0
   -2.5750   25.2980  -29.3160 N   0  0  0  0  0  0  0  0  0  0  0  0
   -1.3750   25.1820  -28.5370 C   0  0  0  0  0  0  0  0  0  0  0  0
   -1.1970   25.8750  -27.3280 C   0  0  0  0  0  0  0  0  0  0  0  0
   -0.0200   25.7050  -26.5950 C   0  0  0  0  0  0  0  0  0  0  0  0
    0.9610   24.8310  -27.0670 C   0  0  0  0  0  0  0  0  0  0  0  0
    0.7620   24.1480  -28.2250 N   0  0  0  0  0  0  0  0  0  0  0  0
   -0.3750   24.2960  -28.9570 C   0  0  0  0  0  0  0  0  0  0  0  0
   -5.1820   22.4080  -31.8320 C   0  0  0  0  0  0  0  0  0  0  0  0
   -3.8770   21.9570  -32.0500 O   0  0  0  0  0  0  0  0  0  0  0  0
   -7.8240   17.8190  -32.7200 C   0  0  0  0  0  0  0  0  0  0  0  0
   -7.0980   16.8620  -33.6940 C   0  0  0  0  0  0  0  0  0  0  0  0
   -4.6715   14.8856  -33.4716 H   0  0  0  0  0  0  0  0  0  0  0  0
   -5.8386   15.1783  -34.8053 H   0  0  0  0  0  0  0  0  0  0  0  0
   -4.2473   16.0116  -34.8053 H   0  0  0  0  0  0  0  0  0  0  0  0
   -6.0091   15.7472  -31.5979 H   0  0  0  0  0  0  0  0  0  0  0  0
   -4.3336   16.3797  -31.8175 H   0  0  0  0  0  0  0  0  0  0  0  0
   -6.1583   17.5796  -30.2136 H   0  0  0  0  0  0  0  0  0  0  0  0
   -4.8730   18.4851  -31.1426 H   0  0  0  0  0  0  0  0  0  0  0  0
   -7.4337   19.2139  -31.1232 H   0  0  0  0  0  0  0  0  0  0  0  0
   -8.7525   23.7846  -31.0557 H   0  0  0  0  0  0  0  0  0  0  0  0
   -6.7657   25.2368  -30.7255 H   0  0  0  0  0  0  0  0  0  0  0  0
   -1.9831   26.5503  -26.9592 H   0  0  0  0  0  0  0  0  0  0  0  0
    0.1324   26.2548  -25.6545 H   0  0  0  0  0  0  0  0  0  0  0  0
    1.8948   24.6952  -26.5017 H   0  0  0  0  0  0  0  0  0  0  0  0
   -0.5095   23.7173  -29.8828 H   0  0  0  0  0  0  0  0  0  0  0  0
   -3.0550   22.4060  -31.6750 H   0  0  0  0  0  0  0  0  0  0  0  0
   -8.4140   17.2171  -32.0132 H   0  0  0  0  0  0  0  0  0  0  0  0
   -8.4575   18.4835  -33.3260 H   0  0  0  0  0  0  0  0  0  0  0  0
   -7.5487   15.8624  -33.6065 H   0  0  0  0  0  0  0  0  0  0  0  0
   -7.2111   17.2720  -34.7085 H   0  0  0  0  0  0  0  0  0  0  0  0
  1  2  1  0
  2  3  1  0
  3  4  1  0
  4  5  1  0
  5  6  1  0
  6  7  2  0
  6  8  2  0
  6  9  1  0
  9 10  2  0
 10 11  1  0
 10 12  1  0
 12 13  2  0
 13 14  1  0
 14 15  1  0
 15 16  1  0
 16 17  2  0
 16 18  1  0
 18 19  1  0
 19 20  2  0
 20 21  1  0
 21 22  2  0
 22 23  1  0
 23 24  2  0
 14 25  2  0
 25 26  1  0
  5 27  1  0
 27 28  1  0
 28  2  1  0
 25  9  1  0
 24 19  1  0
  1 29  1  0
  1 30  1  0
  1 31  1  0
  3 32  1  0
  3 33  1  0
  4 34  1  0
  4 35  1  0
  5 36  1  0
 12 37  1  0
 13 38  1  0
 20 39  1  0
 21 40  1  0
 22 41  1  0
 24 42  1  0
 26 43  1  0
 27 44  1  0
 27 45  1  0
 28 46  1  0
 28 47  1  0
M  CHG  2  15  -1  18  -1
M  END
>  <UniqueID>  (13) 
13

>  <SMILES>  (13) 
CN1CCC(S(=O)(=O)c2c(Cl)ccc([N-]C(=O)[N-]c3cccnc3)c2O)CC1

>  <Energy>  (13) 
69.5864322661308

>  <Genealogy>  (13) 
CN1CCC(S(=O)(=O)c2c(Cl)ccc([N-]C(=O)[N-]c3cccnc3)c2O)CC1 (protonated)
CN1CCC(S(=O)(=O)c2c(Cl)ccc([N-]C(=O)[N-]c3cccnc3)c2O)CC1 (3D coordinates assigned)
CN1CCC(S(=O)(=O)c2c(Cl)ccc([N-]C(=O)[N-]c3cccnc3)c2O)CC1 (nonaromatic ring conformer: 69.5864322661308 kcal/mol)

>  <smiles>  (13) 
CN1CCC(S(=O)(=O)c2c(Cl)ccc(NC(=O)Nc3cccnc3)c2O)CC1

>  <score_type>  (13) 
oracle

>  <origin>  (13) 
adgpu

>  <m_score__min__energy>  (13) 
-11.83

>  <m_primary>  (13) 
energy

$$$$
13:0
     RDKit          3D

 70 74  0  0  0  0  0  0  0  0999 V2000
   -0.8750   25.9430  -29.2110 O   0  0  0  0  0  0  0  0  0  0  0  0
   -1.7930   25.1650  -28.8410 C   0  0  0  0  0  0  0  0  0  0  0  0
   -3.1210   25.2900  -29.3810 N   0  0  0  0  0  0  0  0  0  0  0  0
   -3.9770   24.2780  -29.9400 C   0  0  0  0  0  0  0  0  0  0  0  0
   -5.3220   24.2770  -29.5550 C   0  0  0  0  0  0  0  0  0  0  0  0
   -6.1990   23.3080  -30.0480 C   0  0  0  0  0  0  0  0  0  0  0  0
   -5.7430   22.3370  -30.9410 C   0  0  0  0  0  0  0  0  0  0  0  0
   -4.4070   22.3420  -31.3680 C   0  0  0  0  0  0  0  0  0  0  0  0
   -3.7750   21.1230  -32.4830 S   0  0  0  0  0  0  0  0  0  0  0  0
   -4.8300   20.0670  -32.6850 O   0  0  0  0  0  0  0  0  0  0  0  0
   -3.5140   21.8010  -33.8030 O   0  0  0  0  0  0  0  0  0  0  0  0
   -2.2990   20.3710  -31.9110 N   0  0  0  0  0  0  0  0  0  0  0  0
   -1.1390   21.2280  -32.2110 C   0  0  0  0  0  0  0  0  0  0  0  0
    0.1800   20.5470  -31.7730 C   0  0  0  0  0  0  0  0  0  0  0  0
   -0.0420   19.2480  -31.2530 O   0  0  0  0  0  0  0  0  0  0  0  0
   -0.7230   18.4590  -32.2090 C   0  0  0  0  0  0  0  0  0  0  0  0
   -2.1190   19.0370  -32.5260 C   0  0  0  0  0  0  0  0  0  0  0  0
   -3.5300   23.3180  -30.8690 C   0  0  0  0  0  0  0  0  0  0  0  0
   -1.5010   24.0720  -27.8790 C   0  0  0  0  0  0  0  0  0  0  0  0
   -1.8540   22.7510  -28.2160 C   0  0  0  0  0  0  0  0  0  0  0  0
   -1.5810   21.6870  -27.3490 C   0  0  0  0  0  0  0  0  0  0  0  0
   -2.0260   20.0480  -27.8140 S   0  0  0  0  0  0  0  0  0  0  0  0
   -2.5760   19.3040  -26.6250 O   0  0  0  0  0  0  0  0  0  0  0  0
   -3.0900   20.1110  -28.8770 O   0  0  0  0  0  0  0  0  0  0  0  0
   -0.6190   19.2310  -28.4430 N   0  0  0  0  0  0  0  0  0  0  0  0
    0.5680   20.0860  -28.3890 C   0  0  0  0  0  0  0  0  0  0  0  0
    1.7720   19.1670  -28.2060 C   0  0  0  0  0  0  0  0  0  0  0  0
    1.1960   17.8110  -27.8280 C   0  0  0  0  0  0  0  0  0  0  0  0
   -0.2920   18.0480  -27.6460 C   0  0  0  0  0  0  0  0  0  0  0  0
   -0.9470   21.9360  -26.1300 C   0  0  0  0  0  0  0  0  0  0  0  0
   -0.5950   23.2380  -25.7760 C   0  0  0  0  0  0  0  0  0  0  0  0
   -0.8610   24.3110  -26.6380 C   0  0  0  0  0  0  0  0  0  0  0  0
   -0.5280   25.6390  -26.2070 N   0  0  0  0  0  0  0  0  0  0  0  0
    0.6880   26.2470  -26.7670 C   0  0  0  0  0  0  0  0  0  0  0  0
    0.9180   27.6680  -26.2430 C   0  0  0  0  0  0  0  0  0  0  0  0
   -0.2990   28.3850  -26.2180 O   0  0  0  0  0  0  0  0  0  0  0  0
   -1.1170   27.8480  -25.1970 C   0  0  0  0  0  0  0  0  0  0  0  0
   -1.5830   26.4290  -25.5540 C   0  0  0  0  0  0  0  0  0  0  0  0
   -5.6915   25.0447  -28.8592 H   0  0  0  0  0  0  0  0  0  0  0  0
   -7.2525   23.3102  -29.7314 H   0  0  0  0  0  0  0  0  0  0  0  0
   -6.4338   21.5652  -31.3112 H   0  0  0  0  0  0  0  0  0  0  0  0
   -2.3650   20.2710  -30.8710 H   0  0  0  0  0  0  0  0  0  0  0  0
   -1.1031   21.4192  -33.2937 H   0  0  0  0  0  0  0  0  0  0  0  0
   -1.2474   22.1721  -31.6570 H   0  0  0  0  0  0  0  0  0  0  0  0
    0.8474   20.4718  -32.6441 H   0  0  0  0  0  0  0  0  0  0  0  0
    0.6315   21.1591  -30.9783 H   0  0  0  0  0  0  0  0  0  0  0  0
   -0.1300   18.4278  -33.1349 H   0  0  0  0  0  0  0  0  0  0  0  0
   -0.8531   17.4486  -31.7941 H   0  0  0  0  0  0  0  0  0  0  0  0
   -2.2308   19.1268  -33.6166 H   0  0  0  0  0  0  0  0  0  0  0  0
   -2.8790   18.3577  -32.1124 H   0  0  0  0  0  0  0  0  0  0  0  0
   -2.4833   23.3333  -31.2068 H   0  0  0  0  0  0  0  0  0  0  0  0
   -2.3524   22.5523  -29.1763 H   0  0  0  0  0  0  0  0  0  0  0  0
    0.6663   20.6554  -29.3250 H   0  0  0  0  0  0  0  0  0  0  0  0
    0.4951   20.8069  -27.5613 H   0  0  0  0  0  0  0  0  0  0  0  0
    2.3451   19.0936  -29.1420 H   0  0  0  0  0  0  0  0  0  0  0  0
    2.4609   19.5460  -27.4367 H   0  0  0  0  0  0  0  0  0  0  0  0
    1.3749   17.0789  -28.6292 H   0  0  0  0  0  0  0  0  0  0  0  0
    1.6622   17.4053  -26.9180 H   0  0  0  0  0  0  0  0  0  0  0  0
   -0.8629   17.1782  -28.0031 H   0  0  0  0  0  0  0  0  0  0  0  0
   -0.5470   18.1964  -26.5863 H   0  0  0  0  0  0  0  0  0  0  0  0
   -0.7246   21.1028  -25.4471 H   0  0  0  0  0  0  0  0  0  0  0  0
   -0.1033   23.4251  -24.8100 H   0  0  0  0  0  0  0  0  0  0  0  0
    1.5531   25.6246  -26.4946 H   0  0  0  0  0  0  0  0  0  0  0  0
    0.5648   26.3052  -27.8585 H   0  0  0  0  0  0  0  0  0  0  0  0
    1.3298   27.6167  -25.2243 H   0  0  0  0  0  0  0  0  0  0  0  0
    1.6239   28.1850  -26.9096 H   0  0  0  0  0  0  0  0  0  0  0  0
   -0.5444   27.8130  -24.2584 H   0  0  0  0  0  0  0  0  0  0  0  0
   -2.0032   28.4898  -25.0842 H   0  0  0  0  0  0  0  0  0  0  0  0
   -1.8887   25.9150  -24.6308 H   0  0  0  0  0  0  0  0  0  0  0  0
   -2.4203   26.5195  -26.2617 H   0  0  0  0  0  0  0  0  0  0  0  0
  1  2  2  0
  2  3  1  0
  3  4  1  0
  4  5  2  0
  5  6  1  0
  6  7  2  0
  7  8  1  0
  8  9  1  0
  9 10  2  0
  9 11  2  0
  9 12  1  0
 12 13  1  0
 13 14  1  0
 14 15  1  0
 15 16  1  0
 16 17  1  0
  8 18  2  0
  2 19  1  0
 19 20  2  0
 20 21  1  0
 21 22  1  0
 22 23  2  0
 22 24  2  0
 22 25  1  0
 25 26  1  0
 26 27  1  0
 27 28  1  0
 28 29  1  0
 21 30  2  0
 30 31  1  0
 31 32  2  0
 32 33  1  0
 33 34  1  0
 34 35  1  0
 35 36  1  0
 36 37  1  0
 37 38  1  0
 18  4  1  0
 32 19  1  0
 38 33  1  0
 17 12  1  0
 29 25  1  0
  5 39  1  0
  6 40  1  0
  7 41  1  0
 12 42  1  0
 13 43  1  0
 13 44  1  0
 14 45  1  0
 14 46  1  0
 16 47  1  0
 16 48  1  0
 17 49  1  0
 17 50  1  0
 18 51  1  0
 20 52  1  0
 26 53  1  0
 26 54  1  0
 27 55  1  0
 27 56  1  0
 28 57  1  0
 28 58  1  0
 29 59  1  0
 29 60  1  0
 30 61  1  0
 31 62  1  0
 34 63  1  0
 34 64  1  0
 35 65  1  0
 35 66  1  0
 37 67  1  0
 37 68  1  0
 38 69  1  0
 38 70  1  0
M  CHG  2   3  -1  12   1
M  END
>  <UniqueID>  (14) 
14

>  <SMILES>  (14) 
O=C([N-]c1cccc(S(=O)(=O)[NH+]2CCOCC2)c1)c1cc(S(=O)(=O)N2CCCC2)ccc1N1CCOCC1

>  <Energy>  (14) 
98.32245339616303

>  <Genealogy>  (14) 
O=C([N-]c1cccc(S(=O)(=O)[NH+]2CCOCC2)c1)c1cc(S(=O)(=O)N2CCCC2)ccc1N1CCOCC1 (protonated)
O=C([N-]c1cccc(S(=O)(=O)[NH+]2CCOCC2)c1)c1cc(S(=O)(=O)N2CCCC2)ccc1N1CCOCC1 (3D coordinates assigned)
O=C([N-]c1cccc(S(=O)(=O)[NH+]2CCOCC2)c1)c1cc(S(=O)(=O)N2CCCC2)ccc1N1CCOCC1 (nonaromatic ring conformer: 98.32245339616303 kcal/mol)

>  <smiles>  (14) 
O=C(Nc1cccc(S(=O)(=O)N2CCOCC2)c1)c1cc(S(=O)(=O)N2CCCC2)ccc1N1CCOCC1

>  <score_type>  (14) 
oracle

>  <origin>  (14) 
adgpu

>  <m_score__min__energy>  (14) 
-11.08

>  <m_primary>  (14) 
energy

$$$$
14:0
     RDKit          3D

 51 54  0  0  0  0  0  0  0  0999 V2000
   -8.6070   18.5170  -31.4320 C   0  0  0  0  0  0  0  0  0  0  0  0
   -8.5210   19.3030  -32.6780 N   0  0  0  0  0  0  0  0  0  0  0  0
   -9.4640   20.4390  -32.6970 C   0  0  0  0  0  0  0  0  0  0  0  0
   -9.1270   21.5030  -31.6430 C   0  0  0  0  0  0  0  0  0  0  0  0
   -7.6520   21.7830  -31.5440 C   0  0  0  0  0  0  0  0  0  0  0  0
   -7.2120   22.8790  -30.7880 C   0  0  0  0  0  0  0  0  0  0  0  0
   -5.8480   23.1050  -30.5960 C   0  0  0  0  0  0  0  0  0  0  0  0
   -4.9010   22.2310  -31.1480 C   0  0  0  0  0  0  0  0  0  0  0  0
   -3.4950   22.4530  -30.9590 N   0  0  0  0  0  0  0  0  0  0  0  0
   -2.8920   22.7320  -29.6860 C   0  0  0  0  0  0  0  0  0  0  0  0
   -3.5520   22.1210  -28.3060 S   0  0  0  0  0  0  0  0  0  0  0  0
   -1.6370   23.4300  -29.6500 N   0  0  0  0  0  0  0  0  0  0  0  0
   -0.8990   23.6340  -28.4400 C   0  0  0  0  0  0  0  0  0  0  0  0
    0.2660   22.8960  -28.2210 C   0  0  0  0  0  0  0  0  0  0  0  0
    1.0420   23.1310  -27.0890 C   0  0  0  0  0  0  0  0  0  0  0  0
    0.6540   24.0870  -26.1460 C   0  0  0  0  0  0  0  0  0  0  0  0
    1.7400   24.3760  -24.7900 Cl  0  0  0  0  0  0  0  0  0  0  0  0
   -0.5530   24.8020  -26.3200 C   0  0  0  0  0  0  0  0  0  0  0  0
   -1.0830   25.9960  -25.1140 S   0  0  0  0  0  0  0  0  0  0  0  0
   -2.5550   26.2660  -25.2540 O   0  0  0  0  0  0  0  0  0  0  0  0
   -0.8480   25.4650  -23.7280 O   0  0  0  0  0  0  0  0  0  0  0  0
   -0.1270   27.4940  -25.3440 C   0  0  0  0  0  0  0  0  0  0  0  0
   -0.9160   28.7880  -25.2630 C   0  0  0  0  0  0  0  0  0  0  0  0
   -0.4640   28.2570  -26.6120 C   0  0  0  0  0  0  0  0  0  0  0  0
   -1.3200   24.5850  -27.4870 C   0  0  0  0  0  0  0  0  0  0  0  0
   -2.4900   25.3180  -27.6950 O   0  0  0  0  0  0  0  0  0  0  0  0
   -5.3350   21.1530  -31.9280 C   0  0  0  0  0  0  0  0  0  0  0  0
   -6.7040   20.9020  -32.1050 C   0  0  0  0  0  0  0  0  0  0  0  0
   -7.1420   19.7400  -32.9660 C   0  0  0  0  0  0  0  0  0  0  0  0
   -8.5331   19.1922  -30.5667 H   0  0  0  0  0  0  0  0  0  0  0  0
   -9.5688   17.9842  -31.4002 H   0  0  0  0  0  0  0  0  0  0  0  0
   -7.7832   17.7888  -31.4002 H   0  0  0  0  0  0  0  0  0  0  0  0
   -9.4326   20.9065  -33.6922 H   0  0  0  0  0  0  0  0  0  0  0  0
  -10.4647   20.0455  -32.4653 H   0  0  0  0  0  0  0  0  0  0  0  0
   -9.6443   22.4366  -31.9090 H   0  0  0  0  0  0  0  0  0  0  0  0
   -9.4557   21.1164  -30.6670 H   0  0  0  0  0  0  0  0  0  0  0  0
   -7.9471   23.5657  -30.3430 H   0  0  0  0  0  0  0  0  0  0  0  0
   -5.5145   23.9732  -30.0086 H   0  0  0  0  0  0  0  0  0  0  0  0
   -2.8610   22.3330  -31.7810 H   0  0  0  0  0  0  0  0  0  0  0  0
   -1.3220   23.9360  -30.5080 H   0  0  0  0  0  0  0  0  0  0  0  0
    0.5717   22.1265  -28.9451 H   0  0  0  0  0  0  0  0  0  0  0  0
    1.9690   22.5590  -26.9354 H   0  0  0  0  0  0  0  0  0  0  0  0
    0.7933   27.1193  -24.8723 H   0  0  0  0  0  0  0  0  0  0  0  0
   -1.9820   28.7663  -24.9924 H   0  0  0  0  0  0  0  0  0  0  0  0
   -0.7981   29.7384  -24.7219 H   0  0  0  0  0  0  0  0  0  0  0  0
   -1.2025   27.8506  -27.3187 H   0  0  0  0  0  0  0  0  0  0  0  0
    0.1170   28.6634  -27.4530 H   0  0  0  0  0  0  0  0  0  0  0  0
   -3.0520   25.6830  -26.9350 H   0  0  0  0  0  0  0  0  0  0  0  0
   -4.5948   20.4955  -32.4074 H   0  0  0  0  0  0  0  0  0  0  0  0
   -7.0826   20.0429  -34.0218 H   0  0  0  0  0  0  0  0  0  0  0  0
   -6.4738   18.8944  -32.7458 H   0  0  0  0  0  0  0  0  0  0  0  0
  1  2  1  0
  2  3  1  0
  3  4  1  0
  4  5  1  0
  5  6  2  0
  6  7  1  0
  7  8  2  0
  8  9  1  0
  9 10  1  0
 10 11  2  0
 10 12  1  0
 12 13  1  0
 13 14  2  0
 14 15  1  0
 15 16  2  0
 16 17  1  0
 16 18  1  0
 18 19  1  0
 19 20  2  0
 19 21  2  0
 19 22  1  0
 22 23  1  0
 23 24  1  0
 18 25  2  0
 25 26  1  0
  8 27  1  0
 27 28  2  0
 28 29  1  0
 29  2  1  0
 28  5  1  0
 25 13  1  0
 24 22  1  0
  1 30  1  0
  1 31  1  0
  1 32  1  0
  3 33  1  0
  3 34  1  0
  4 35  1  0
  4 36  1  0
  6 37  1  0
  7 38  1  0
  9 39  1  0
 12 40  1  0
 14 41  1  0
 15 42  1  0
 22 43  1  0
 23 44  1  0
 23 45  1  0
 24 46  1  0
 24 47  1  0
 26 48  1  0
 27 49  1  0
 29 50  1  0
 29 51  1  0
M  END
>  <UniqueID>  (15) 
15

>  <SMILES>  (15) 
CN1CCc2ccc(NC(=S)Nc3ccc(Cl)c(S(=O)(=O)C4CC4)c3O)cc2C1

>  <Energy>  (15) 
337.31019842659424

>  <Genealogy>  (15) 
CN1CCc2ccc(NC(=S)Nc3ccc(Cl)c(S(=O)(=O)C4CC4)c3O)cc2C1 (3D coordinates assigned)
CN1CCc2ccc(NC(=S)Nc3ccc(Cl)c(S(=O)(=O)C4CC4)c3O)cc2C1 (nonaromatic ring conformer: 337.31019842659424 kcal/mol)

>  <smiles>  (15) 
CN1CCc2ccc(NC(=S)Nc3ccc(Cl)c(S(=O)(=O)C4CC4)c3O)cc2C1

>  <score_type>  (15) 
oracle

>  <origin>  (15) 
adgpu

>  <m_score__min__energy>  (15) 
-10

>  <m_primary>  (15) 
energy

$$$$
15:0
     RDKit          3D

 45 47  0  0  0  0  0  0  0  0999 V2000
   -0.9070   25.9510  -28.8300 N   0  0  0  0  0  0  0  0  0  0  0  0
   -0.8430   24.5270  -28.7810 C   0  0  0  0  0  0  0  0  0  0  0  0
    0.2100   23.9740  -28.3660 O   0  0  0  0  0  0  0  0  0  0  0  0
   -1.9900   23.7050  -29.2200 C   0  0  0  0  0  0  0  0  0  0  0  0
   -1.9120   22.2990  -29.2050 C   0  0  0  0  0  0  0  0  0  0  0  0
   -3.0030   21.5270  -29.6090 C   0  0  0  0  0  0  0  0  0  0  0  0
   -4.1740   22.1420  -30.0550 C   0  0  0  0  0  0  0  0  0  0  0  0
   -4.2560   23.5410  -30.1100 C   0  0  0  0  0  0  0  0  0  0  0  0
   -5.7120   24.3130  -30.7360 S   0  0  0  0  0  0  0  0  0  0  0  0
   -5.3690   25.7190  -31.1420 O   0  0  0  0  0  0  0  0  0  0  0  0
   -6.7810   24.3520  -29.6790 O   0  0  0  0  0  0  0  0  0  0  0  0
   -6.2980   23.4570  -32.1300 N   0  0  0  0  0  0  0  0  0  0  0  0
   -7.2860   22.4210  -32.0940 C   0  0  0  0  0  0  0  0  0  0  0  0
   -8.6310   22.7820  -31.9390 C   0  0  0  0  0  0  0  0  0  0  0  0
   -9.6310   21.8110  -31.9670 C   0  0  0  0  0  0  0  0  0  0  0  0
   -9.2920   20.4630  -32.1160 C   0  0  0  0  0  0  0  0  0  0  0  0
   -7.9490   20.0790  -32.2170 C   0  0  0  0  0  0  0  0  0  0  0  0
   -7.5190   18.3660  -32.2580 S   0  0  0  0  0  0  0  0  0  0  0  0
   -6.5340   18.0960  -31.1560 O   0  0  0  0  0  0  0  0  0  0  0  0
   -8.7450   17.5470  -31.9750 O   0  0  0  0  0  0  0  0  0  0  0  0
   -6.8480   17.8440  -33.7900 N   0  0  0  0  0  0  0  0  0  0  0  0
   -5.9750   18.8650  -34.4040 C   0  0  0  0  0  0  0  0  0  0  0  0
   -4.5390   18.8580  -33.8220 C   0  0  0  0  0  0  0  0  0  0  0  0
   -4.2590   17.7130  -33.0390 O   0  0  0  0  0  0  0  0  0  0  0  0
   -4.7010   16.5510  -33.7090 C   0  0  0  0  0  0  0  0  0  0  0  0
   -6.2340   16.5030  -33.7330 C   0  0  0  0  0  0  0  0  0  0  0  0
   -6.9450   21.0610  -32.2180 C   0  0  0  0  0  0  0  0  0  0  0  0
   -3.1760   24.3170  -29.6630 C   0  0  0  0  0  0  0  0  0  0  0  0
   -1.2320   26.4450  -29.6970 H   0  0  0  0  0  0  0  0  0  0  0  0
   -0.9863   21.8062  -28.8731 H   0  0  0  0  0  0  0  0  0  0  0  0
   -2.9394   20.4293  -29.5757 H   0  0  0  0  0  0  0  0  0  0  0  0
   -5.0334   21.5287  -30.3637 H   0  0  0  0  0  0  0  0  0  0  0  0
   -8.8997   23.8388  -31.7942 H   0  0  0  0  0  0  0  0  0  0  0  0
  -10.6866   22.1055  -31.8719 H   0  0  0  0  0  0  0  0  0  0  0  0
  -10.0838   19.7004  -32.1541 H   0  0  0  0  0  0  0  0  0  0  0  0
   -5.9165   18.6727  -35.4855 H   0  0  0  0  0  0  0  0  0  0  0  0
   -6.4148   19.8496  -34.1870 H   0  0  0  0  0  0  0  0  0  0  0  0
   -3.8236   18.8938  -34.6568 H   0  0  0  0  0  0  0  0  0  0  0  0
   -4.4499   19.7339  -33.1626 H   0  0  0  0  0  0  0  0  0  0  0  0
   -4.3217   16.5607  -34.7415 H   0  0  0  0  0  0  0  0  0  0  0  0
   -4.3228   15.6651  -33.1778 H   0  0  0  0  0  0  0  0  0  0  0  0
   -6.5538   15.9323  -34.6173 H   0  0  0  0  0  0  0  0  0  0  0  0
   -6.5649   16.0270  -32.7981 H   0  0  0  0  0  0  0  0  0  0  0  0
   -5.8896   20.7666  -32.3159 H   0  0  0  0  0  0  0  0  0  0  0  0
   -3.2577   25.4140  -29.6590 H   0  0  0  0  0  0  0  0  0  0  0  0
  1  2  1  0
  2  3  2  0
  2  4  1  0
  4  5  2  0
  5  6  1  0
  6  7  2  0
  7  8  1  0
  8  9  1  0
  9 10  2  0
  9 11  2  0
  9 12  1  0
 12 13  1  0
 13 14  2  0
 14 15  1  0
 15 16  2  0
 16 17  1  0
 17 18  1  0
 18 19  2  0
 18 20  2  0
 18 21  1  0
 21 22  1  0
 22 23  1  0
 23 24  1  0
 24 25  1  0
 25 26  1  0
 17 27  2  0
  8 28  2  0
 28  4  1  0
 27 13  1  0
 26 21  1  0
  1 29  1  0
  5 30  1  0
  6 31  1  0
  7 32  1  0
 14 33  1  0
 15 34  1  0
 16 35  1  0
 22 36  1  0
 22 37  1  0
 23 38  1  0
 23 39  1  0
 25 40  1  0
 25 41  1  0
 26 42  1  0
 26 43  1  0
 27 44  1  0
 28 45  1  0
M  CHG  2   1  -1  12  -1
M  END
>  <UniqueID>  (16) 
16

>  <SMILES>  (16) 
[NH-]C(=O)c1cccc(S(=O)(=O)[N-]c2cccc(S(=O)(=O)N3CCOCC3)c2)c1

>  <Energy>  (16) 
59.787871991773216

>  <Genealogy>  (16) 
[NH-]C(=O)c1cccc(S(=O)(=O)[N-]c2cccc(S(=O)(=O)N3CCOCC3)c2)c1 (protonated)
[NH-]C(=O)c1cccc(S(=O)(=O)[N-]c2cccc(S(=O)(=O)N3CCOCC3)c2)c1 (3D coordinates assigned)
[NH-]C(=O)c1cccc(S(=O)(=O)[N-]c2cccc(S(=O)(=O)N3CCOCC3)c2)c1 (nonaromatic ring conformer: 59.787871991773216 kcal/mol)

>  <smiles>  (16) 
NC(=O)c1cccc(S(=O)(=O)Nc2cccc(S(=O)(=O)N3CCOCC3)c2)c1

>  <score_type>  (16) 
oracle

>  <origin>  (16) 
adgpu

>  <m_score__min__energy>  (16) 
-12.19

>  <m_primary>  (16) 
energy

$$$$
16:0
     RDKit          3D

 44 46  0  0  0  0  0  0  0  0999 V2000
   -0.2780   22.1630  -28.8020 C   0  0  0  0  0  0  0  0  0  0  0  0
   -0.6990   23.5770  -28.5660 C   0  0  0  0  0  0  0  0  0  0  0  0
    0.1200   24.5650  -28.3030 O   0  0  0  0  0  0  0  0  0  0  0  0
   -0.6170   25.6450  -28.1540 C   0  0  0  0  0  0  0  0  0  0  0  0
   -1.9370   25.4020  -28.3130 N   0  0  0  0  0  0  0  0  0  0  0  0
   -1.9810   24.0840  -28.5870 C   0  0  0  0  0  0  0  0  0  0  0  0
   -3.2450   23.3150  -28.7980 C   0  0  0  0  0  0  0  0  0  0  0  0
   -4.3880   24.1810  -28.5220 N   0  0  0  0  0  0  0  0  0  0  0  0
   -5.0200   24.8140  -30.0110 S   0  0  0  0  0  0  0  0  0  0  0  0
   -5.9660   25.9450  -29.7110 O   0  0  0  0  0  0  0  0  0  0  0  0
   -3.8860   25.3400  -30.8470 O   0  0  0  0  0  0  0  0  0  0  0  0
   -5.8460   23.5410  -30.9050 C   0  0  0  0  0  0  0  0  0  0  0  0
   -7.2400   23.5600  -31.0590 C   0  0  0  0  0  0  0  0  0  0  0  0
   -7.8810   22.5400  -31.7670 C   0  0  0  0  0  0  0  0  0  0  0  0
   -7.1360   21.4970  -32.3270 C   0  0  0  0  0  0  0  0  0  0  0  0
   -7.7750   20.5210  -33.0200 F   0  0  0  0  0  0  0  0  0  0  0  0
   -5.7410   21.4680  -32.1740 C   0  0  0  0  0  0  0  0  0  0  0  0
   -4.8020   20.1630  -32.8990 S   0  0  0  0  0  0  0  0  0  0  0  0
   -4.7550   18.9800  -31.9700 O   0  0  0  0  0  0  0  0  0  0  0  0
   -5.4680   19.7410  -34.1800 O   0  0  0  0  0  0  0  0  0  0  0  0
   -3.1820   20.7240  -33.2340 N   0  0  0  0  0  0  0  0  0  0  0  0
   -2.4710   20.9940  -31.9710 C   0  0  0  0  0  0  0  0  0  0  0  0
   -0.9640   21.2030  -32.2210 C   0  0  0  0  0  0  0  0  0  0  0  0
   -0.6990   21.3870  -33.5980 O   0  0  0  0  0  0  0  0  0  0  0  0
   -1.0200   20.2030  -34.3090 C   0  0  0  0  0  0  0  0  0  0  0  0
   -2.4560   19.7170  -34.0220 C   0  0  0  0  0  0  0  0  0  0  0  0
   -5.1010   22.4960  -31.4670 C   0  0  0  0  0  0  0  0  0  0  0  0
   -0.1279   21.6590  -27.8358 H   0  0  0  0  0  0  0  0  0  0  0  0
   -1.0589   21.6382  -29.3720 H   0  0  0  0  0  0  0  0  0  0  0  0
    0.6627   22.1508  -29.3720 H   0  0  0  0  0  0  0  0  0  0  0  0
   -0.2034   26.6382  -27.9248 H   0  0  0  0  0  0  0  0  0  0  0  0
   -3.2925   22.9645  -29.8396 H   0  0  0  0  0  0  0  0  0  0  0  0
   -3.2669   22.4485  -28.1207 H   0  0  0  0  0  0  0  0  0  0  0  0
   -7.8296   24.3792  -30.6217 H   0  0  0  0  0  0  0  0  0  0  0  0
   -8.9746   22.5573  -31.8843 H   0  0  0  0  0  0  0  0  0  0  0  0
   -2.8886   21.9010  -31.5096 H   0  0  0  0  0  0  0  0  0  0  0  0
   -2.5996   20.1290  -31.3038 H   0  0  0  0  0  0  0  0  0  0  0  0
   -0.6277   22.0925  -31.6680 H   0  0  0  0  0  0  0  0  0  0  0  0
   -0.4245   20.3083  -31.8770 H   0  0  0  0  0  0  0  0  0  0  0  0
   -0.9224   20.4004  -35.3867 H   0  0  0  0  0  0  0  0  0  0  0  0
   -0.3266   19.4151  -33.9798 H   0  0  0  0  0  0  0  0  0  0  0  0
   -2.9814   19.5520  -34.9742 H   0  0  0  0  0  0  0  0  0  0  0  0
   -2.4110   18.7774  -33.4518 H   0  0  0  0  0  0  0  0  0  0  0  0
   -4.0070   22.4819  -31.3529 H   0  0  0  0  0  0  0  0  0  0  0  0
  1  2  1  0
  2  3  1  0
  3  4  1  0
  4  5  2  0
  5  6  1  0
  6  7  1  0
  7  8  1  0
  8  9  1  0
  9 10  2  0
  9 11  2  0
  9 12  1  0
 12 13  2  0
 13 14  1  0
 14 15  2  0
 15 16  1  0
 15 17  1  0
 17 18  1  0
 18 19  2  0
 18 20  2  0
 18 21  1  0
 21 22  1  0
 22 23  1  0
 23 24  1  0
 24 25  1  0
 25 26  1  0
 17 27  2  0
  6  2  2  0
 27 12  1  0
 26 21  1  0
  1 28  1  0
  1 29  1  0
  1 30  1  0
  4 31  1  0
  7 32  1  0
  7 33  1  0
 13 34  1  0
 14 35  1  0
 22 36  1  0
 22 37  1  0
 23 38  1  0
 23 39  1  0
 25 40  1  0
 25 41  1  0
 26 42  1  0
 26 43  1  0
 27 44  1  0
M  CHG  1   8  -1
M  END
>  <UniqueID>  (17) 
17

>  <SMILES>  (17) 
Cc1ocnc1C[N-]S(=O)(=O)c1ccc(F)c(S(=O)(=O)N2CCOCC2)c1

>  <Energy>  (17) 
77.86236735384529

>  <Genealogy>  (17) 
Cc1ocnc1C[N-]S(=O)(=O)c1ccc(F)c(S(=O)(=O)N2CCOCC2)c1 (protonated)
Cc1ocnc1C[N-]S(=O)(=O)c1ccc(F)c(S(=O)(=O)N2CCOCC2)c1 (3D coordinates assigned)
Cc1ocnc1C[N-]S(=O)(=O)c1ccc(F)c(S(=O)(=O)N2CCOCC2)c1 (nonaromatic ring conformer: 77.86236735384529 kcal/mol)

>  <smiles>  (17) 
Cc1ocnc1CNS(=O)(=O)c1ccc(F)c(S(=O)(=O)N2CCOCC2)c1

>  <score_type>  (17) 
oracle

>  <origin>  (17) 
adgpu

>  <m_score__min__energy>  (17) 
-10.01

>  <m_primary>  (17) 
energy

$$$$
17:0
     RDKit          3D

 35 36  0  0  0  0  0  0  0  0999 V2000
   -5.2180   25.3060  -30.0040 C   0  0  0  0  0  0  0  0  0  0  0  0
   -3.9010   25.0360  -30.4690 O   0  0  0  0  0  0  0  0  0  0  0  0
   -2.9070   24.4800  -29.6550 C   0  0  0  0  0  0  0  0  0  0  0  0
   -1.9990   25.2880  -29.0350 N   0  0  0  0  0  0  0  0  0  0  0  0
   -1.0450   24.7980  -28.2030 C   0  0  0  0  0  0  0  0  0  0  0  0
   -0.9780   23.4290  -27.9470 C   0  0  0  0  0  0  0  0  0  0  0  0
   -1.8900   22.5740  -28.5670 C   0  0  0  0  0  0  0  0  0  0  0  0
   -2.8570   23.0870  -29.4460 C   0  0  0  0  0  0  0  0  0  0  0  0
   -3.8060   22.1620  -30.1010 C   0  0  0  0  0  0  0  0  0  0  0  0
   -3.8400   20.9590  -29.7290 O   0  0  0  0  0  0  0  0  0  0  0  0
   -4.6770   22.6240  -31.1510 N   0  0  0  0  0  0  0  0  0  0  0  0
   -5.6320   21.7910  -31.8280 C   0  0  0  0  0  0  0  0  0  0  0  0
   -7.0110   21.9120  -31.5830 C   0  0  0  0  0  0  0  0  0  0  0  0
   -7.9270   21.0720  -32.2370 C   0  0  0  0  0  0  0  0  0  0  0  0
   -9.3930   21.1770  -31.9370 C   0  0  0  0  0  0  0  0  0  0  0  0
   -7.4550   20.0800  -33.1080 C   0  0  0  0  0  0  0  0  0  0  0  0
   -6.0810   19.9460  -33.3550 C   0  0  0  0  0  0  0  0  0  0  0  0
   -5.5780   18.8570  -34.2550 C   0  0  0  0  0  0  0  0  0  0  0  0
   -5.1750   20.7900  -32.6960 C   0  0  0  0  0  0  0  0  0  0  0  0
   -5.2254   25.3075  -28.9040 H   0  0  0  0  0  0  0  0  0  0  0  0
   -5.5431   26.2895  -30.3742 H   0  0  0  0  0  0  0  0  0  0  0  0
   -5.9039   24.5298  -30.3742 H   0  0  0  0  0  0  0  0  0  0  0  0
   -0.3242   25.4814  -27.7304 H   0  0  0  0  0  0  0  0  0  0  0  0
   -0.2149   23.0275  -27.2640 H   0  0  0  0  0  0  0  0  0  0  0  0
   -1.8511   21.4932  -28.3661 H   0  0  0  0  0  0  0  0  0  0  0  0
   -4.6620   23.6370  -31.4060 H   0  0  0  0  0  0  0  0  0  0  0  0
   -7.3752   22.6700  -30.8740 H   0  0  0  0  0  0  0  0  0  0  0  0
   -9.5445   21.1878  -30.8475 H   0  0  0  0  0  0  0  0  0  0  0  0
   -9.7906   22.1059  -32.3717 H   0  0  0  0  0  0  0  0  0  0  0  0
   -9.9189   20.3142  -32.3717 H   0  0  0  0  0  0  0  0  0  0  0  0
   -8.1673   19.4021  -33.6011 H   0  0  0  0  0  0  0  0  0  0  0  0
   -5.1940   18.0257  -33.6455 H   0  0  0  0  0  0  0  0  0  0  0  0
   -6.4009   18.4966  -34.8898 H   0  0  0  0  0  0  0  0  0  0  0  0
   -4.7701   19.2499  -34.8898 H   0  0  0  0  0  0  0  0  0  0  0  0
   -4.0948   20.6650  -32.8621 H   0  0  0  0  0  0  0  0  0  0  0  0
  1  2  1  0
  2  3  1  0
  3  4  2  0
  4  5  1  0
  5  6  2  0
  6  7  1  0
  7  8  2  0
  8  9  1  0
  9 10  2  0
  9 11  1  0
 11 12  1  0
 12 13  2  0
 13 14  1  0
 14 15  1  0
 14 16  2  0
 16 17  1  0
 17 18  1  0
 17 19  2  0
  8  3  1  0
 19 12  1  0
  1 20  1  0
  1 21  1  0
  1 22  1  0
  5 23  1  0
  6 24  1  0
  7 25  1  0
 11 26  1  0
 13 27  1  0
 15 28  1  0
 15 29  1  0
 15 30  1  0
 16 31  1  0
 18 32  1  0
 18 33  1  0
 18 34  1  0
 19 35  1  0
M  END
>  <UniqueID>  (18) 
18

>  <SMILES>  (18) 
COc1ncccc1C(=O)Nc1cc(C)cc(C)c1

>  <Energy>  (18) 
40.72178371209321

>  <Genealogy>  (18) 
COc1ncccc1C(=O)Nc1cc(C)cc(C)c1 (3D coordinates assigned)
COc1ncccc1C(=O)Nc1cc(C)cc(C)c1 (optimized conformer: 40.72178371209321 kcal/mol)

>  <smiles>  (18) 
COc1ncccc1C(=O)Nc1cc(C)cc(C)c1

>  <score_type>  (18) 
oracle

>  <origin>  (18) 
adgpu

>  <m_score__min__energy>  (18) 
-6.8899999999999997

>  <m_primary>  (18) 
energy

$$$$
18:0
     RDKit          3D

 58 61  0  0  0  0  0  0  0  0999 V2000
   -0.7510   24.0920  -26.8560 C   0  0  0  0  0  0  0  0  0  0  0  0
   -1.7020   23.6050  -27.8470 N   0  0  0  0  0  0  0  0  0  0  0  0
   -2.2870   24.4780  -28.8240 C   0  0  0  0  0  0  0  0  0  0  0  0
   -1.8330   25.6460  -28.9680 O   0  0  0  0  0  0  0  0  0  0  0  0
   -3.3930   24.0180  -29.6940 C   0  0  0  0  0  0  0  0  0  0  0  0
   -4.4290   24.9120  -30.0130 C   0  0  0  0  0  0  0  0  0  0  0  0
   -5.4890   24.5150  -30.8290 C   0  0  0  0  0  0  0  0  0  0  0  0
   -5.5360   23.2140  -31.3480 C   0  0  0  0  0  0  0  0  0  0  0  0
   -6.6780   22.7790  -32.1910 C   0  0  0  0  0  0  0  0  0  0  0  0
   -7.3930   23.6430  -32.7660 O   0  0  0  0  0  0  0  0  0  0  0  0
   -7.0160   21.3900  -32.3280 N   0  0  0  0  0  0  0  0  0  0  0  0
   -8.1620   20.7730  -31.9370 C   0  0  0  0  0  0  0  0  0  0  0  0
   -9.2980   21.4690  -31.2600 C   0  0  0  0  0  0  0  0  0  0  0  0
   -8.1680   19.4370  -32.1880 N   0  0  0  0  0  0  0  0  0  0  0  0
   -6.9670   19.2280  -32.7630 C   0  0  0  0  0  0  0  0  0  0  0  0
   -6.4390   18.0170  -33.2230 C   0  0  0  0  0  0  0  0  0  0  0  0
   -7.2240   16.7420  -33.1470 C   0  0  0  0  0  0  0  0  0  0  0  0
   -5.1590   18.0540  -33.8210 C   0  0  0  0  0  0  0  0  0  0  0  0
   -4.4470   19.2700  -33.9230 C   0  0  0  0  0  0  0  0  0  0  0  0
   -5.0050   20.4660  -33.4390 C   0  0  0  0  0  0  0  0  0  0  0  0
   -6.2710   20.4010  -32.8530 C   0  0  0  0  0  0  0  0  0  0  0  0
   -4.5120   22.3120  -31.0190 C   0  0  0  0  0  0  0  0  0  0  0  0
   -3.4470   22.6930  -30.1810 C   0  0  0  0  0  0  0  0  0  0  0  0
   -2.4540   21.7750  -29.7910 O   0  0  0  0  0  0  0  0  0  0  0  0
   -1.1150   21.7340  -30.2910 C   0  0  0  0  0  0  0  0  0  0  0  0
   -1.0340   20.9300  -31.5630 C   0  0  0  0  0  0  0  0  0  0  0  0
   -1.6710   19.6810  -31.6570 C   0  0  0  0  0  0  0  0  0  0  0  0
   -1.5860   18.9360  -32.8360 C   0  0  0  0  0  0  0  0  0  0  0  0
   -0.8730   19.4330  -33.9300 C   0  0  0  0  0  0  0  0  0  0  0  0
   -0.2390   20.6800  -33.8510 C   0  0  0  0  0  0  0  0  0  0  0  0
    0.6500   21.3160  -35.2320 S   0  0  0  0  0  0  0  0  0  0  0  0
    0.2920   22.9950  -35.4250 N   0  0  0  0  0  0  0  0  0  0  0  0
    0.2580   20.5750  -36.4800 O   0  0  0  0  0  0  0  0  0  0  0  0
    2.1260   21.1380  -35.0100 O   0  0  0  0  0  0  0  0  0  0  0  0
   -0.3320   21.4310  -32.6710 C   0  0  0  0  0  0  0  0  0  0  0  0
   -1.1395   23.8931  -25.8463 H   0  0  0  0  0  0  0  0  0  0  0  0
    0.2115   23.5758  -26.9868 H   0  0  0  0  0  0  0  0  0  0  0  0
   -0.6072   25.1747  -26.9868 H   0  0  0  0  0  0  0  0  0  0  0  0
   -1.9320   22.5860  -27.8550 H   0  0  0  0  0  0  0  0  0  0  0  0
   -4.4041   25.9371  -29.6147 H   0  0  0  0  0  0  0  0  0  0  0  0
   -6.2927   25.2276  -31.0664 H   0  0  0  0  0  0  0  0  0  0  0  0
   -9.1761   21.3943  -30.1693 H   0  0  0  0  0  0  0  0  0  0  0  0
   -9.3078   22.5283  -31.5562 H   0  0  0  0  0  0  0  0  0  0  0  0
  -10.2462   20.9967  -31.5562 H   0  0  0  0  0  0  0  0  0  0  0  0
   -7.3884   16.4749  -32.0927 H   0  0  0  0  0  0  0  0  0  0  0  0
   -8.1946   16.8787  -33.6463 H   0  0  0  0  0  0  0  0  0  0  0  0
   -6.6650   15.9369  -33.6463 H   0  0  0  0  0  0  0  0  0  0  0  0
   -4.7128   17.1272  -34.2107 H   0  0  0  0  0  0  0  0  0  0  0  0
   -3.4486   19.2810  -34.3846 H   0  0  0  0  0  0  0  0  0  0  0  0
   -4.4633   21.4200  -33.5190 H   0  0  0  0  0  0  0  0  0  0  0  0
   -4.5423   21.2894  -31.4231 H   0  0  0  0  0  0  0  0  0  0  0  0
   -0.7756   22.7606  -30.4929 H   0  0  0  0  0  0  0  0  0  0  0  0
   -0.4747   21.2561  -29.5349 H   0  0  0  0  0  0  0  0  0  0  0  0
   -2.2381   19.2887  -30.8000 H   0  0  0  0  0  0  0  0  0  0  0  0
   -2.0814   17.9562  -32.9030 H   0  0  0  0  0  0  0  0  0  0  0  0
   -0.8092   18.8433  -34.8564 H   0  0  0  0  0  0  0  0  0  0  0  0
   -0.5450   23.0590  -36.0460 H   0  0  0  0  0  0  0  0  0  0  0  0
    0.1480   22.4190  -32.6127 H   0  0  0  0  0  0  0  0  0  0  0  0
  1  2  1  0
  2  3  1  0
  3  4  2  0
  3  5  1  0
  5  6  2  0
  6  7  1  0
  7  8  2  0
  8  9  1  0
  9 10  2  0
  9 11  1  0
 11 12  1  0
 12 13  1  0
 12 14  2  0
 14 15  1  0
 15 16  2  0
 16 17  1  0
 16 18  1  0
 18 19  2  0
 19 20  1  0
 20 21  2  0
  8 22  1  0
 22 23  2  0
 23 24  1  0
 24 25  1  0
 25 26  1  0
 26 27  2  0
 27 28  1  0
 28 29  2  0
 29 30  1  0
 30 31  1  0
 31 32  1  0
 31 33  2  0
 31 34  2  0
 30 35  2  0
 23  5  1  0
 35 26  1  0
 21 11  1  0
 21 15  1  0
  1 36  1  0
  1 37  1  0
  1 38  1  0
  2 39  1  0
  6 40  1  0
  7 41  1  0
 13 42  1  0
 13 43  1  0
 13 44  1  0
 17 45  1  0
 17 46  1  0
 17 47  1  0
 18 48  1  0
 19 49  1  0
 20 50  1  0
 22 51  1  0
 25 52  1  0
 25 53  1  0
 27 54  1  0
 28 55  1  0
 29 56  1  0
 32 57  1  0
 35 58  1  0
M  CHG  1  32  -1
M  END
>  <UniqueID>  (19) 
19

>  <SMILES>  (19) 
CNC(=O)c1ccc(C(=O)n2c(C)nc3c(C)cccc32)cc1OCc1cccc(S([NH-])(=O)=O)c1

>  <Energy>  (19) 
102.73390025235709

>  <Genealogy>  (19) 
CNC(=O)c1ccc(C(=O)n2c(C)nc3c(C)cccc32)cc1OCc1cccc(S([NH-])(=O)=O)c1 (protonated)
CNC(=O)c1ccc(C(=O)n2c(C)nc3c(C)cccc32)cc1OCc1cccc(S([NH-])(=O)=O)c1 (3D coordinates assigned)
CNC(=O)c1ccc(C(=O)n2c(C)nc3c(C)cccc32)cc1OCc1cccc(S([NH-])(=O)=O)c1 (optimized conformer: 102.73390025235709 kcal/mol)

>  <smiles>  (19) 
CNC(=O)c1ccc(C(=O)n2c(C)nc3c(C)cccc32)cc1OCc1cccc(S(N)(=O)=O)c1

>  <score_type>  (19) 
oracle

>  <origin>  (19) 
adgpu

>  <m_score__min__energy>  (19) 
-12.27

>  <m_primary>  (19) 
energy

$$$$
19:0
     RDKit          3D

 47 50  0  0  0  0  0  0  0  0999 V2000
   -4.1100   24.7180  -26.7530 C   0  0  0  0  0  0  0  0  0  0  0  0
   -4.6100   24.0640  -27.9170 O   0  0  0  0  0  0  0  0  0  0  0  0
   -3.8300   23.2830  -28.7850 C   0  0  0  0  0  0  0  0  0  0  0  0
   -3.3170   22.0220  -28.3930 C   0  0  0  0  0  0  0  0  0  0  0  0
   -2.5450   21.3140  -29.3080 C   0  0  0  0  0  0  0  0  0  0  0  0
   -1.9120   20.1460  -29.1000 N   0  0  0  0  0  0  0  0  0  0  0  0
   -1.2030   19.9000  -30.2240 C   0  0  0  0  0  0  0  0  0  0  0  0
   -1.3950   20.9180  -31.1540 C   0  0  0  0  0  0  0  0  0  0  0  0
   -0.6370   21.0900  -32.4430 C   0  0  0  0  0  0  0  0  0  0  0  0
   -1.1900   20.2110  -33.5800 C   0  0  0  0  0  0  0  0  0  0  0  0
   -2.5660   20.5780  -33.9160 N   0  0  0  0  0  0  0  0  0  0  0  0
   -3.6700   19.7430  -33.5340 C   0  0  0  0  0  0  0  0  0  0  0  0
   -3.5590   18.4890  -33.5960 O   0  0  0  0  0  0  0  0  0  0  0  0
   -4.9120   20.3230  -33.0020 C   0  0  0  0  0  0  0  0  0  0  0  0
   -6.0950   19.6360  -32.7340 C   0  0  0  0  0  0  0  0  0  0  0  0
   -6.9710   20.6140  -32.3270 C   0  0  0  0  0  0  0  0  0  0  0  0
   -8.3100   20.5420  -31.9530 C   0  0  0  0  0  0  0  0  0  0  0  0
   -8.9550   21.7410  -31.5970 C   0  0  0  0  0  0  0  0  0  0  0  0
   -8.2540   22.9680  -31.6290 C   0  0  0  0  0  0  0  0  0  0  0  0
   -6.9020   23.0060  -32.0160 C   0  0  0  0  0  0  0  0  0  0  0  0
   -6.2910   21.8030  -32.3620 C   0  0  0  0  0  0  0  0  0  0  0  0
   -5.0590   21.6160  -32.7640 O   0  0  0  0  0  0  0  0  0  0  0  0
   -2.2630   21.8100  -30.5520 C   0  0  0  0  0  0  0  0  0  0  0  0
   -2.7520   23.0430  -30.9760 C   0  0  0  0  0  0  0  0  0  0  0  0
   -3.5510   23.7910  -30.0780 C   0  0  0  0  0  0  0  0  0  0  0  0
   -4.0750   25.0470  -30.4250 O   0  0  0  0  0  0  0  0  0  0  0  0
   -5.4570   25.3840  -30.3690 C   0  0  0  0  0  0  0  0  0  0  0  0
   -4.4957   24.2135  -25.8548 H   0  0  0  0  0  0  0  0  0  0  0  0
   -3.0108   24.6770  -26.7531 H   0  0  0  0  0  0  0  0  0  0  0  0
   -4.4378   25.7680  -26.7531 H   0  0  0  0  0  0  0  0  0  0  0  0
   -3.5235   21.6141  -27.3925 H   0  0  0  0  0  0  0  0  0  0  0  0
   -1.9140   19.5760  -28.2260 H   0  0  0  0  0  0  0  0  0  0  0  0
   -0.5638   19.0188  -30.3819 H   0  0  0  0  0  0  0  0  0  0  0  0
   -0.7006   22.1442  -32.7506 H   0  0  0  0  0  0  0  0  0  0  0  0
    0.4029   20.7813  -32.2604 H   0  0  0  0  0  0  0  0  0  0  0  0
   -0.5577   20.3384  -34.4710 H   0  0  0  0  0  0  0  0  0  0  0  0
   -1.1828   19.1638  -33.2434 H   0  0  0  0  0  0  0  0  0  0  0  0
   -2.7470   21.5570  -34.2280 H   0  0  0  0  0  0  0  0  0  0  0  0
   -6.2845   18.5564  -32.8271 H   0  0  0  0  0  0  0  0  0  0  0  0
   -8.8453   19.5812  -31.9363 H   0  0  0  0  0  0  0  0  0  0  0  0
  -10.0117   21.7232  -31.2918 H   0  0  0  0  0  0  0  0  0  0  0  0
   -8.7689   23.8990  -31.3495 H   0  0  0  0  0  0  0  0  0  0  0  0
   -6.3457   23.9545  -32.0444 H   0  0  0  0  0  0  0  0  0  0  0  0
   -2.5236   23.4255  -31.9817 H   0  0  0  0  0  0  0  0  0  0  0  0
   -5.7733   25.4611  -29.3183 H   0  0  0  0  0  0  0  0  0  0  0  0
   -5.6200   26.3482  -30.8727 H   0  0  0  0  0  0  0  0  0  0  0  0
   -6.0455   24.6031  -30.8727 H   0  0  0  0  0  0  0  0  0  0  0  0
  1  2  1  0
  2  3  1  0
  3  4  2  0
  4  5  1  0
  5  6  1  0
  6  7  1  0
  7  8  2  0
  8  9  1  0
  9 10  1  0
 10 11  1  0
 11 12  1  0
 12 13  2  0
 12 14  1  0
 14 15  2  0
 15 16  1  0
 16 17  2  0
 17 18  1  0
 18 19  2  0
 19 20  1  0
 20 21  2  0
 21 22  1  0
  8 23  1  0
 23 24  1  0
 24 25  2  0
 25 26  1  0
 26 27  1  0
 25  3  1  0
 23  5  2  0
 22 14  1  0
 21 16  1  0
  1 28  1  0
  1 29  1  0
  1 30  1  0
  4 31  1  0
  6 32  1  0
  7 33  1  0
  9 34  1  0
  9 35  1  0
 10 36  1  0
 10 37  1  0
 11 38  1  0
 15 39  1  0
 17 40  1  0
 18 41  1  0
 19 42  1  0
 20 43  1  0
 24 44  1  0
 27 45  1  0
 27 46  1  0
 27 47  1  0
M  END
>  <UniqueID>  (20) 
20

>  <SMILES>  (20) 
COc1cc2[nH]cc(CCNC(=O)c3cc4ccccc4o3)c2cc1OC

>  <Energy>  (20) 
110.16873844857484

>  <Genealogy>  (20) 
COc1cc2[nH]cc(CCNC(=O)c3cc4ccccc4o3)c2cc1OC (3D coordinates assigned)
COc1cc2[nH]cc(CCNC(=O)c3cc4ccccc4o3)c2cc1OC (optimized conformer: 110.16873844857484 kcal/mol)

>  <smiles>  (20) 
COc1cc2[nH]cc(CCNC(=O)c3cc4ccccc4o3)c2cc1OC

>  <score_type>  (20) 
oracle

>  <origin>  (20) 
adgpu

>  <m_score__min__energy>  (20) 
-9.3699999999999992

>  <m_primary>  (20) 
energy

$$$$
20:0
     RDKit          3D

 43 45  0  0  0  0  0  0  0  0999 V2000
   -4.9600   24.4430  -28.6020 N   0  0  0  0  0  0  0  0  0  0  0  0
   -5.1840   24.6000  -30.3090 S   0  0  0  0  0  0  0  0  0  0  0  0
   -4.2400   25.6410  -30.8440 O   0  0  0  0  0  0  0  0  0  0  0  0
   -6.5930   25.0390  -30.5920 O   0  0  0  0  0  0  0  0  0  0  0  0
   -4.8730   23.0540  -31.0900 C   0  0  0  0  0  0  0  0  0  0  0  0
   -3.5670   22.6980  -31.4490 C   0  0  0  0  0  0  0  0  0  0  0  0
   -3.3170   21.4700  -32.0760 C   0  0  0  0  0  0  0  0  0  0  0  0
   -1.6770   21.0350  -32.5430 S   0  0  0  0  0  0  0  0  0  0  0  0
   -0.7350   21.2860  -31.3980 O   0  0  0  0  0  0  0  0  0  0  0  0
   -1.2320   21.8760  -33.7060 O   0  0  0  0  0  0  0  0  0  0  0  0
   -1.6450   19.3330  -32.9870 C   0  0  0  0  0  0  0  0  0  0  0  0
   -0.9960   18.4020  -32.1620 C   0  0  0  0  0  0  0  0  0  0  0  0
   -0.9910   17.0460  -32.5050 C   0  0  0  0  0  0  0  0  0  0  0  0
   -1.6380   16.6140  -33.6670 C   0  0  0  0  0  0  0  0  0  0  0  0
   -2.2940   17.5390  -34.4860 C   0  0  0  0  0  0  0  0  0  0  0  0
   -2.3000   18.8950  -34.1460 C   0  0  0  0  0  0  0  0  0  0  0  0
   -4.3820   20.6080  -32.3670 C   0  0  0  0  0  0  0  0  0  0  0  0
   -5.6920   20.9660  -32.0260 C   0  0  0  0  0  0  0  0  0  0  0  0
   -7.0220   19.8680  -32.3730 S   0  0  0  0  0  0  0  0  0  0  0  0
   -7.8940   19.7160  -31.1570 O   0  0  0  0  0  0  0  0  0  0  0  0
   -7.8680   20.4240  -33.4860 O   0  0  0  0  0  0  0  0  0  0  0  0
   -6.3650   18.3050  -32.8390 C   0  0  0  0  0  0  0  0  0  0  0  0
   -5.9830   17.3800  -31.8580 C   0  0  0  0  0  0  0  0  0  0  0  0
   -5.4400   16.1460  -32.2300 C   0  0  0  0  0  0  0  0  0  0  0  0
   -5.2710   15.8350  -33.5820 C   0  0  0  0  0  0  0  0  0  0  0  0
   -5.6420   16.7580  -34.5640 C   0  0  0  0  0  0  0  0  0  0  0  0
   -6.1850   17.9930  -34.1950 C   0  0  0  0  0  0  0  0  0  0  0  0
   -5.9350   22.1860  -31.3820 C   0  0  0  0  0  0  0  0  0  0  0  0
   -5.9100   24.4590  -28.1670 H   0  0  0  0  0  0  0  0  0  0  0  0
   -4.4660   25.3050  -28.2780 H   0  0  0  0  0  0  0  0  0  0  0  0
   -2.7342   23.3850  -31.2380 H   0  0  0  0  0  0  0  0  0  0  0  0
   -0.4907   18.7388  -31.2448 H   0  0  0  0  0  0  0  0  0  0  0  0
   -0.4773   16.3182  -31.8597 H   0  0  0  0  0  0  0  0  0  0  0  0
   -1.6311   15.5476  -33.9368 H   0  0  0  0  0  0  0  0  0  0  0  0
   -2.8057   17.1991  -35.3985 H   0  0  0  0  0  0  0  0  0  0  0  0
   -2.8200   19.6198  -34.7896 H   0  0  0  0  0  0  0  0  0  0  0  0
   -4.1886   19.6465  -32.8651 H   0  0  0  0  0  0  0  0  0  0  0  0
   -6.1105   17.6250  -30.7932 H   0  0  0  0  0  0  0  0  0  0  0  0
   -5.1458   15.4198  -31.4580 H   0  0  0  0  0  0  0  0  0  0  0  0
   -4.8458   14.8633  -33.8735 H   0  0  0  0  0  0  0  0  0  0  0  0
   -5.5068   16.5129  -35.6278 H   0  0  0  0  0  0  0  0  0  0  0  0
   -6.4713   18.7205  -34.9688 H   0  0  0  0  0  0  0  0  0  0  0  0
   -6.9624   22.4641  -31.1044 H   0  0  0  0  0  0  0  0  0  0  0  0
  1  2  1  0
  2  3  2  0
  2  4  2  0
  2  5  1  0
  5  6  2  0
  6  7  1  0
  7  8  1  0
  8  9  2  0
  8 10  2  0
  8 11  1  0
 11 12  2  0
 12 13  1  0
 13 14  2  0
 14 15  1  0
 15 16  2  0
  7 17  2  0
 17 18  1  0
 18 19  1  0
 19 20  2  0
 19 21  2  0
 19 22  1  0
 22 23  2  0
 23 24  1  0
 24 25  2  0
 25 26  1  0
 26 27  2  0
 18 28  2  0
 28  5  1  0
 16 11  1  0
 27 22  1  0
  1 29  1  0
  1 30  1  0
  6 31  1  0
 12 32  1  0
 13 33  1  0
 14 34  1  0
 15 35  1  0
 16 36  1  0
 17 37  1  0
 23 38  1  0
 24 39  1  0
 25 40  1  0
 26 41  1  0
 27 42  1  0
 28 43  1  0
M  END
>  <UniqueID>  (21) 
21

>  <SMILES>  (21) 
NS(=O)(=O)c1cc(S(=O)(=O)c2ccccc2)cc(S(=O)(=O)c2ccccc2)c1

>  <Energy>  (21) 
47.42026349947687

>  <Genealogy>  (21) 
NS(=O)(=O)c1cc(S(=O)(=O)c2ccccc2)cc(S(=O)(=O)c2ccccc2)c1 (3D coordinates assigned)
NS(=O)(=O)c1cc(S(=O)(=O)c2ccccc2)cc(S(=O)(=O)c2ccccc2)c1 (optimized conformer: 47.42026349947687 kcal/mol)

>  <smiles>  (21) 
NS(=O)(=O)c1cc(S(=O)(=O)c2ccccc2)cc(S(=O)(=O)c2ccccc2)c1

>  <score_type>  (21) 
oracle

>  <origin>  (21) 
adgpu

>  <m_score__min__energy>  (21) 
-10.1

>  <m_primary>  (21) 
energy

$$$$
21:0
     RDKit          3D

 45 47  0  0  0  0  0  0  0  0999 V2000
   -8.6290   18.2970  -32.0610 N   0  0  0  0  0  0  0  0  0  0  0  0
   -7.6180   18.7750  -32.3600 C   0  0  0  0  0  0  0  0  0  0  0  0
   -6.3610   19.3690  -32.7320 C   0  0  0  0  0  0  0  0  0  0  0  0
   -6.2120   20.7610  -32.7220 C   0  0  0  0  0  0  0  0  0  0  0  0
   -4.9900   21.3380  -33.0780 C   0  0  0  0  0  0  0  0  0  0  0  0
   -3.8990   20.5270  -33.4420 C   0  0  0  0  0  0  0  0  0  0  0  0
   -2.6220   21.0920  -33.7840 N   0  0  0  0  0  0  0  0  0  0  0  0
   -1.3670   20.5870  -33.2980 C   0  0  0  0  0  0  0  0  0  0  0  0
   -0.3200   20.3350  -34.2090 C   0  0  0  0  0  0  0  0  0  0  0  0
   -0.4770   20.5960  -35.6100 N   0  0  0  0  0  0  0  0  0  0  0  0
    0.9070   19.8540  -33.7390 C   0  0  0  0  0  0  0  0  0  0  0  0
    1.1020   19.6190  -32.3810 C   0  0  0  0  0  0  0  0  0  0  0  0
    0.0710   19.8460  -31.4620 C   0  0  0  0  0  0  0  0  0  0  0  0
    0.2960   19.5550  -30.0760 N   0  0  0  0  0  0  0  0  0  0  0  0
   -1.1790   20.3180  -31.9170 C   0  0  0  0  0  0  0  0  0  0  0  0
   -2.2390   20.5440  -30.9700 N   0  0  0  0  0  0  0  0  0  0  0  0
   -2.5630   21.8240  -30.3960 C   0  0  0  0  0  0  0  0  0  0  0  0
   -3.9110   22.1970  -30.3150 C   0  0  0  0  0  0  0  0  0  0  0  0
   -4.2800   23.3960  -29.7090 C   0  0  0  0  0  0  0  0  0  0  0  0
   -3.3050   24.2560  -29.2120 C   0  0  0  0  0  0  0  0  0  0  0  0
   -1.9420   23.9390  -29.3280 C   0  0  0  0  0  0  0  0  0  0  0  0
   -0.9500   24.9370  -28.8740 C   0  0  0  0  0  0  0  0  0  0  0  0
   -1.2340   26.3320  -28.9490 N   0  0  0  0  0  0  0  0  0  0  0  0
    0.1340   24.5540  -28.3570 O   0  0  0  0  0  0  0  0  0  0  0  0
   -1.5650   22.7000  -29.9060 C   0  0  0  0  0  0  0  0  0  0  0  0
   -0.2240   22.3120  -29.9890 O   0  0  0  0  0  0  0  0  0  0  0  0
   -4.0630   19.1330  -33.4650 C   0  0  0  0  0  0  0  0  0  0  0  0
   -5.2850   18.5570  -33.1080 C   0  0  0  0  0  0  0  0  0  0  0  0
   -7.0583   21.4017  -32.4334 H   0  0  0  0  0  0  0  0  0  0  0  0
   -4.8802   22.4325  -33.0737 H   0  0  0  0  0  0  0  0  0  0  0  0
   -2.5950   21.9220  -34.4200 H   0  0  0  0  0  0  0  0  0  0  0  0
   -1.1230   21.3480  -35.9400 H   0  0  0  0  0  0  0  0  0  0  0  0
    0.0230   20.0370  -36.3350 H   0  0  0  0  0  0  0  0  0  0  0  0
    1.7246   19.6599  -34.4488 H   0  0  0  0  0  0  0  0  0  0  0  0
    2.0762   19.2512  -32.0265 H   0  0  0  0  0  0  0  0  0  0  0  0
    0.4670   18.5740  -29.7620 H   0  0  0  0  0  0  0  0  0  0  0  0
    0.2610   20.2970  -29.3430 H   0  0  0  0  0  0  0  0  0  0  0  0
   -2.7420   19.7020  -30.6080 H   0  0  0  0  0  0  0  0  0  0  0  0
   -4.6851   21.5372  -30.7337 H   0  0  0  0  0  0  0  0  0  0  0  0
   -5.3435   23.6634  -29.6232 H   0  0  0  0  0  0  0  0  0  0  0  0
   -3.6055   25.1944  -28.7229 H   0  0  0  0  0  0  0  0  0  0  0  0
   -0.8460   26.9180  -29.7200 H   0  0  0  0  0  0  0  0  0  0  0  0
    0.5160   22.7450  -29.4550 H   0  0  0  0  0  0  0  0  0  0  0  0
   -3.2234   18.4894  -33.7663 H   0  0  0  0  0  0  0  0  0  0  0  0
   -5.4014   17.4633  -33.1225 H   0  0  0  0  0  0  0  0  0  0  0  0
  1  2  3  0
  2  3  1  0
  3  4  2  0
  4  5  1  0
  5  6  2  0
  6  7  1  0
  7  8  1  0
  8  9  2  0
  9 10  1  0
  9 11  1  0
 11 12  2  0
 12 13  1  0
 13 14  1  0
 13 15  2  0
 15 16  1  0
 16 17  1  0
 17 18  2  0
 18 19  1  0
 19 20  2  0
 20 21  1  0
 21 22  1  0
 22 23  1  0
 22 24  2  0
 21 25  2  0
 25 26  1  0
  6 27  1  0
 27 28  2  0
 28  3  1  0
 15  8  1  0
 25 17  1  0
  4 29  1  0
  5 30  1  0
  7 31  1  0
 10 32  1  0
 10 33  1  0
 11 34  1  0
 12 35  1  0
 14 36  1  0
 14 37  1  0
 16 38  1  0
 18 39  1  0
 19 40  1  0
 20 41  1  0
 23 42  1  0
 26 43  1  0
 27 44  1  0
 28 45  1  0
M  CHG  1  23  -1
M  END
>  <UniqueID>  (22) 
22

>  <SMILES>  (22) 
N#Cc1ccc(Nc2c(N)ccc(N)c2Nc2cccc(C([NH-])=O)c2O)cc1

>  <Energy>  (22) 
65.44477320290981

>  <Genealogy>  (22) 
N#Cc1ccc(Nc2c(N)ccc(N)c2Nc2cccc(C([NH-])=O)c2O)cc1 (protonated)
N#Cc1ccc(Nc2c(N)ccc(N)c2Nc2cccc(C([NH-])=O)c2O)cc1 (3D coordinates assigned)
N#Cc1ccc(Nc2c(N)ccc(N)c2Nc2cccc(C([NH-])=O)c2O)cc1 (optimized conformer: 65.44477320290981 kcal/mol)

>  <smiles>  (22) 
N#Cc1ccc(Nc2c(N)ccc(N)c2Nc2cccc(C(N)=O)c2O)cc1

>  <score_type>  (22) 
oracle

>  <origin>  (22) 
adgpu

>  <m_score__min__energy>  (22) 
-11.92

>  <m_primary>  (22) 
energy

$$$$
22:0
     RDKit          3D

 58 62  0  0  0  0  0  0  0  0999 V2000
   -0.8932   21.0944  -34.8768 H   0  0  0  0  0  0  0  0  0  0  0  0
   -0.8260   20.6900  -33.8560 C   0  0  0  0  0  0  0  0  0  0  0  0
   -0.7440   21.5590  -32.7670 C   0  0  0  0  0  0  0  0  0  0  0  0
   -0.7778   22.6463  -32.9301 H   0  0  0  0  0  0  0  0  0  0  0  0
   -0.6190   21.0530  -31.4690 C   0  0  0  0  0  0  0  0  0  0  0  0
   -0.5330   21.9700  -30.3680 N   0  0  0  0  0  0  0  0  0  0  0  0
   -1.3680   22.9000  -29.9680 C   0  0  0  0  0  0  0  0  0  0  0  0
   -0.8730   23.8700  -29.0600 C   0  0  0  0  0  0  0  0  0  0  0  0
    0.4050   23.7570  -28.4670 C   0  0  0  0  0  0  0  0  0  0  0  0
    1.0299   22.8774  -28.6809 H   0  0  0  0  0  0  0  0  0  0  0  0
    0.8810   24.7540  -27.6110 C   0  0  0  0  0  0  0  0  0  0  0  0
    1.8742   24.6519  -27.1494 H   0  0  0  0  0  0  0  0  0  0  0  0
    0.1010   25.8780  -27.3400 C   0  0  0  0  0  0  0  0  0  0  0  0
    0.4805   26.6601  -26.6660 H   0  0  0  0  0  0  0  0  0  0  0  0
   -1.1590   26.0120  -27.9220 C   0  0  0  0  0  0  0  0  0  0  0  0
   -1.7692   26.9023  -27.7099 H   0  0  0  0  0  0  0  0  0  0  0  0
   -1.6500   25.0160  -28.7760 C   0  0  0  0  0  0  0  0  0  0  0  0
   -2.8710   25.1700  -29.3410 N   0  0  0  0  0  0  0  0  0  0  0  0
   -3.4210   24.2250  -30.1440 C   0  0  0  0  0  0  0  0  0  0  0  0
   -4.7110   24.4320  -30.6410 C   0  0  0  0  0  0  0  0  0  0  0  0
   -5.2252   25.3849  -30.4472 H   0  0  0  0  0  0  0  0  0  0  0  0
   -5.3490   23.4390  -31.3800 C   0  0  0  0  0  0  0  0  0  0  0  0
   -6.3490   23.6256  -31.7986 H   0  0  0  0  0  0  0  0  0  0  0  0
   -4.7240   22.2040  -31.5930 C   0  0  0  0  0  0  0  0  0  0  0  0
   -5.4030   21.1550  -32.3110 N   0  0  0  0  0  0  0  0  0  0  0  0
   -6.8400   21.2880  -32.5900 C   0  0  0  0  0  0  0  0  0  0  0  0
   -7.3777   21.4450  -31.6433 H   0  0  0  0  0  0  0  0  0  0  0  0
   -6.9896   22.1449  -33.2633 H   0  0  0  0  0  0  0  0  0  0  0  0
   -7.3810   20.0330  -33.2700 C   0  0  0  0  0  0  0  0  0  0  0  0
   -7.4471   19.2149  -32.5376 H   0  0  0  0  0  0  0  0  0  0  0  0
   -8.3833   20.2312  -33.6775 H   0  0  0  0  0  0  0  0  0  0  0  0
   -6.4710   19.6530  -34.3510 N   0  0  0  0  0  0  0  0  0  0  0  0
   -6.9140   18.8720  -34.8910 H   0  0  0  0  0  0  0  0  0  0  0  0
   -5.1700   19.1860  -33.8410 C   0  0  0  0  0  0  0  0  0  0  0  0
   -5.2355   18.1017  -33.6680 H   0  0  0  0  0  0  0  0  0  0  0  0
   -4.4180   19.4497  -34.5993 H   0  0  0  0  0  0  0  0  0  0  0  0
   -4.7310   19.8630  -32.5220 C   0  0  0  0  0  0  0  0  0  0  0  0
   -4.9750   19.1953  -31.6826 H   0  0  0  0  0  0  0  0  0  0  0  0
   -3.6488   20.0506  -32.5821 H   0  0  0  0  0  0  0  0  0  0  0  0
   -3.4290   21.9960  -31.0880 C   0  0  0  0  0  0  0  0  0  0  0  0
   -2.9585   21.0086  -31.2044 H   0  0  0  0  0  0  0  0  0  0  0  0
   -2.7170   23.0290  -30.4330 C   0  0  0  0  0  0  0  0  0  0  0  0
   -0.6530   19.6610  -31.2560 C   0  0  0  0  0  0  0  0  0  0  0  0
   -0.5600   19.1550  -29.9620 O   0  0  0  0  0  0  0  0  0  0  0  0
   -0.7650   18.7840  -32.3530 C   0  0  0  0  0  0  0  0  0  0  0  0
   -0.7770   17.3200  -32.1600 C   0  0  0  0  0  0  0  0  0  0  0  0
   -1.8550   16.6910  -32.3430 O   0  0  0  0  0  0  0  0  0  0  0  0
    0.4070   16.6030  -31.7560 N   0  0  0  0  0  0  0  0  0  0  0  0
    0.5340   15.1850  -32.0990 C   0  0  0  0  0  0  0  0  0  0  0  0
    0.5875   14.5880  -31.1766 H   0  0  0  0  0  0  0  0  0  0  0  0
   -0.3396   14.8708  -32.6890 H   0  0  0  0  0  0  0  0  0  0  0  0
    1.4495   15.0310  -32.6890 H   0  0  0  0  0  0  0  0  0  0  0  0
    1.4030   17.2520  -30.8960 C   0  0  0  0  0  0  0  0  0  0  0  0
    1.1426   17.0823  -29.8408 H   0  0  0  0  0  0  0  0  0  0  0  0
    2.3969   16.8276  -31.1012 H   0  0  0  0  0  0  0  0  0  0  0  0
    1.4162   18.3326  -31.1012 H   0  0  0  0  0  0  0  0  0  0  0  0
   -0.8230   19.3080  -33.6530 C   0  0  0  0  0  0  0  0  0  0  0  0
   -0.8663   18.6276  -34.5162 H   0  0  0  0  0  0  0  0  0  0  0  0
  1  2  1  0
  2  3  2  0
  3  4  1  0
  3  5  1  0
  5  6  1  0
  6  7  2  0
  7  8  1  0
  8  9  2  0
  9 10  1  0
  9 11  1  0
 11 12  1  0
 11 13  2  0
 13 14  1  0
 13 15  1  0
 15 16  1  0
 15 17  2  0
 17 18  1  0
 18 19  1  0
 19 20  2  0
 20 21  1  0
 20 22  1  0
 22 23  1  0
 22 24  2  0
 24 25  1  0
 25 26  1  0
 26 27  1  0
 26 28  1  0
 26 29  1  0
 29 30  1  0
 29 31  1  0
 29 32  1  0
 32 33  1  0
 32 34  1  0
 34 35  1  0
 34 36  1  0
 34 37  1  0
 37 38  1  0
 37 39  1  0
 24 40  1  0
 40 41  1  0
 40 42  2  0
  5 43  2  0
 43 44  1  0
 43 45  1  0
 45 46  1  0
 46 47  2  0
 46 48  1  0
 48 49  1  0
 49 50  1  0
 49 51  1  0
 49 52  1  0
 48 53  1  0
 53 54  1  0
 53 55  1  0
 53 56  1  0
 45 57  2  0
 57 58  1  0
 57  2  1  0
 42  7  1  0
 17  8  1  0
 42 19  1  0
 37 25  1  0
M  CHG  2  18  -1  44  -1
M  END
>  <UniqueID>  (23) 
23

>  <SMILES>  (23) 
CN(C)C(=O)c1cccc(/N=c2/c3ccccc3[n-]c3ccc(N4CCNCC4)cc23)c1[O-]

>  <Energy>  (23) 
101.47361950694895

>  <Genealogy>  (23) 
CN(C)C(=O)c1cccc(N=c2c3ccccc3[n-]c3ccc(N4CCNCC4)cc23)c1[O-] (protonated)
CN(C)C(=O)c1cccc(/N=c2/c3ccccc3[n-]c3ccc(N4CCNCC4)cc23)c1[O-] (cis-trans isomerization)
CN(C)C(=O)c1cccc(/N=c2/c3ccccc3[n-]c3ccc(N4CCNCC4)cc23)c1[O-] (3D coordinates assigned)
CN(C)C(=O)c1cccc(/N=c2/c3ccccc3[n-]c3ccc(N4CCNCC4)cc23)c1[O-] (nonaromatic ring conformer: 101.47361950694895 kcal/mol)

>  <smiles>  (23) 
CN(C)C(=O)c1cccc(N=c2c3ccccc3[nH]c3ccc(N4CCNCC4)cc23)c1O

>  <score_type>  (23) 
oracle

>  <origin>  (23) 
adgpu

>  <m_score__min__energy>  (23) 
-11.140000000000001

>  <m_primary>  (23) 
energy

$$$$
23:0
     RDKit          3D

 53 56  0  0  0  0  0  0  0  0999 V2000
   -6.0650   19.2660  -33.9230 C   0  0  0  0  0  0  0  0  0  0  0  0
   -6.5980   20.3770  -33.0680 C   0  0  0  0  0  0  0  0  0  0  0  0
   -7.9520   20.4170  -32.7200 C   0  0  0  0  0  0  0  0  0  0  0  0
   -8.4050   21.4720  -31.9220 C   0  0  0  0  0  0  0  0  0  0  0  0
   -9.8410   21.5530  -31.5200 C   0  0  0  0  0  0  0  0  0  0  0  0
   -7.5230   22.4100  -31.4820 N   0  0  0  0  0  0  0  0  0  0  0  0
   -6.2040   22.3480  -31.8040 C   0  0  0  0  0  0  0  0  0  0  0  0
   -5.2810   23.3470  -31.3370 N   0  0  0  0  0  0  0  0  0  0  0  0
   -5.4420   24.6420  -31.5460 N   0  0  0  0  0  0  0  0  0  0  0  0
   -4.4370   25.3000  -30.9840 N   0  0  0  0  0  0  0  0  0  0  0  0
   -3.6050   24.4460  -30.4060 N   0  0  0  0  0  0  0  0  0  0  0  0
   -4.1300   23.2260  -30.6370 C   0  0  0  0  0  0  0  0  0  0  0  0
   -3.4870   21.9490  -30.1660 C   0  0  0  0  0  0  0  0  0  0  0  0
   -3.5090   20.9470  -31.2310 N   0  0  0  0  0  0  0  0  0  0  0  0
   -2.4780   20.8130  -32.2300 C   0  0  0  0  0  0  0  0  0  0  0  0
   -1.2880   21.5440  -32.0900 C   0  0  0  0  0  0  0  0  0  0  0  0
   -0.2620   21.4200  -33.0300 C   0  0  0  0  0  0  0  0  0  0  0  0
   -0.4080   20.5600  -34.1270 C   0  0  0  0  0  0  0  0  0  0  0  0
    0.9000   20.3740  -35.2960 S   0  0  0  0  0  0  0  0  0  0  0  0
    1.7850   21.5890  -35.2380 O   0  0  0  0  0  0  0  0  0  0  0  0
    0.3010   20.3110  -36.6760 O   0  0  0  0  0  0  0  0  0  0  0  0
    1.8670   18.9340  -35.0280 N   0  0  0  0  0  0  0  0  0  0  0  0
    1.0460   17.7720  -34.6060 C   0  0  0  0  0  0  0  0  0  0  0  0
    1.0660   17.5440  -33.0830 C   0  0  0  0  0  0  0  0  0  0  0  0
    1.2890   18.7550  -32.3990 O   0  0  0  0  0  0  0  0  0  0  0  0
    2.6120   19.1980  -32.6290 C   0  0  0  0  0  0  0  0  0  0  0  0
    3.0100   19.1890  -34.1250 C   0  0  0  0  0  0  0  0  0  0  0  0
   -1.6010   19.8440  -34.2870 C   0  0  0  0  0  0  0  0  0  0  0  0
   -2.6270   19.9630  -33.3440 C   0  0  0  0  0  0  0  0  0  0  0  0
   -5.7560   21.3390  -32.6000 N   0  0  0  0  0  0  0  0  0  0  0  0
   -5.6790   18.4613  -33.2800 H   0  0  0  0  0  0  0  0  0  0  0  0
   -6.8723   18.8724  -34.5581 H   0  0  0  0  0  0  0  0  0  0  0  0
   -5.2528   19.6494  -34.5581 H   0  0  0  0  0  0  0  0  0  0  0  0
   -8.6450   19.6361  -33.0663 H   0  0  0  0  0  0  0  0  0  0  0  0
   -9.9148   21.5572  -30.4225 H   0  0  0  0  0  0  0  0  0  0  0  0
  -10.2824   22.4775  -31.9207 H   0  0  0  0  0  0  0  0  0  0  0  0
  -10.3835   20.6840  -31.9207 H   0  0  0  0  0  0  0  0  0  0  0  0
   -2.4444   22.1517  -29.8799 H   0  0  0  0  0  0  0  0  0  0  0  0
   -4.0470   21.5642  -29.3010 H   0  0  0  0  0  0  0  0  0  0  0  0
   -4.3490   20.3280  -31.2890 H   0  0  0  0  0  0  0  0  0  0  0  0
   -1.1621   22.2209  -31.2321 H   0  0  0  0  0  0  0  0  0  0  0  0
    0.6647   22.0000  -32.9086 H   0  0  0  0  0  0  0  0  0  0  0  0
    2.2710   18.7030  -35.9680 H   0  0  0  0  0  0  0  0  0  0  0  0
    0.0063   17.9441  -34.9213 H   0  0  0  0  0  0  0  0  0  0  0  0
    1.4749   16.8763  -35.0790 H   0  0  0  0  0  0  0  0  0  0  0  0
    0.0989   17.1248  -32.7683 H   0  0  0  0  0  0  0  0  0  0  0  0
    1.8821   16.8471  -32.8414 H   0  0  0  0  0  0  0  0  0  0  0  0
    2.7070   20.2258  -32.2487 H   0  0  0  0  0  0  0  0  0  0  0  0
    3.2842   18.4996  -32.1091 H   0  0  0  0  0  0  0  0  0  0  0  0
    3.4442   20.1676  -34.3776 H   0  0  0  0  0  0  0  0  0  0  0  0
    3.7299   18.3697  -34.2679 H   0  0  0  0  0  0  0  0  0  0  0  0
   -1.7316   19.1852  -35.1581 H   0  0  0  0  0  0  0  0  0  0  0  0
   -3.5566   19.3892  -33.4728 H   0  0  0  0  0  0  0  0  0  0  0  0
  1  2  1  0
  2  3  2  0
  3  4  1  0
  4  5  1  0
  4  6  2  0
  6  7  1  0
  7  8  1  0
  8  9  1  0
  9 10  2  0
 10 11  1  0
 11 12  2  0
 12 13  1  0
 13 14  1  0
 14 15  1  0
 15 16  2  0
 16 17  1  0
 17 18  2  0
 18 19  1  0
 19 20  2  0
 19 21  2  0
 19 22  1  0
 22 23  1  0
 23 24  1  0
 24 25  1  0
 25 26  1  0
 26 27  1  0
 18 28  1  0
 28 29  2  0
  7 30  2  0
 30  2  1  0
 12  8  1  0
 29 15  1  0
 27 22  1  0
  1 31  1  0
  1 32  1  0
  1 33  1  0
  3 34  1  0
  5 35  1  0
  5 36  1  0
  5 37  1  0
 13 38  1  0
 13 39  1  0
 14 40  1  0
 16 41  1  0
 17 42  1  0
 22 43  1  0
 23 44  1  0
 23 45  1  0
 24 46  1  0
 24 47  1  0
 26 48  1  0
 26 49  1  0
 27 50  1  0
 27 51  1  0
 28 52  1  0
 29 53  1  0
M  CHG  1  22   1
M  END
>  <UniqueID>  (24) 
24

>  <SMILES>  (24) 
Cc1cc(C)nc(-n2nnnc2CNc2ccc(S(=O)(=O)[NH+]3CCOCC3)cc2)n1

>  <Energy>  (24) 
106.35729968448494

>  <Genealogy>  (24) 
Cc1cc(C)nc(-n2nnnc2CNc2ccc(S(=O)(=O)[NH+]3CCOCC3)cc2)n1 (protonated)
Cc1cc(C)nc(-n2nnnc2CNc2ccc(S(=O)(=O)[NH+]3CCOCC3)cc2)n1 (3D coordinates assigned)
Cc1cc(C)nc(-n2nnnc2CNc2ccc(S(=O)(=O)[NH+]3CCOCC3)cc2)n1 (nonaromatic ring conformer: 106.35729968448494 kcal/mol)

>  <smiles>  (24) 
Cc1cc(C)nc(-n2nnnc2CNc2ccc(S(=O)(=O)N3CCOCC3)cc2)n1

>  <score_type>  (24) 
oracle

>  <origin>  (24) 
adgpu

>  <m_score__min__energy>  (24) 
-10.050000000000001

>  <m_primary>  (24) 
energy

$$$$
24:0
     RDKit          3D

 39 40  0  0  0  0  0  0  0  0999 V2000
   -0.5420   24.1540  -24.7720 C   0  0  0  0  0  0  0  0  0  0  0  0
   -0.9860   24.0520  -26.2090 C   0  0  0  0  0  0  0  0  0  0  0  0
   -1.4630   22.8160  -26.6700 C   0  0  0  0  0  0  0  0  0  0  0  0
   -1.8660   22.6490  -27.9950 C   0  0  0  0  0  0  0  0  0  0  0  0
   -2.5460   21.0620  -28.4890 S   0  0  0  0  0  0  0  0  0  0  0  0
   -1.7720   23.7250  -28.8940 C   0  0  0  0  0  0  0  0  0  0  0  0
   -2.1580   23.5860  -30.2680 N   0  0  0  0  0  0  0  0  0  0  0  0
   -3.4980   23.3670  -30.7320 C   0  0  0  0  0  0  0  0  0  0  0  0
   -3.7840   22.2370  -31.2120 O   0  0  0  0  0  0  0  0  0  0  0  0
   -4.6020   24.4080  -30.5920 C   0  0  2  0  0  0  0  0  0  0  0  0
   -5.7060   24.1940  -31.6520 C   0  0  0  0  0  0  0  0  0  0  0  0
   -4.0090   25.6690  -30.8080 O   0  0  0  0  0  0  0  0  0  0  0  0
   -5.2030   24.3640  -29.1640 C   0  0  0  0  0  0  0  0  0  0  0  0
   -6.1600   25.3480  -28.9990 F   0  0  0  0  0  0  0  0  0  0  0  0
   -4.2130   24.5660  -28.2170 F   0  0  0  0  0  0  0  0  0  0  0  0
   -5.7860   23.1310  -28.9290 F   0  0  0  0  0  0  0  0  0  0  0  0
   -1.3680   24.9840  -28.4300 C   0  0  0  0  0  0  0  0  0  0  0  0
   -1.3330   26.0460  -29.3280 O   0  0  0  0  0  0  0  0  0  0  0  0
   -0.9790   25.1680  -27.0860 C   0  0  0  0  0  0  0  0  0  0  0  0
   -0.4210   26.7720  -26.5510 S   0  0  0  0  0  0  0  0  0  0  0  0
   -1.2880   27.2860  -25.4350 O   0  0  0  0  0  0  0  0  0  0  0  0
   -0.5070   27.7590  -27.6830 O   0  0  0  0  0  0  0  0  0  0  0  0
    1.2650   26.6150  -25.9640 C   0  0  0  0  0  0  0  0  0  0  0  0
    2.0790   25.5450  -26.6730 C   0  0  0  0  0  0  0  0  0  0  0  0
    2.3410   27.0150  -26.9600 C   0  0  0  0  0  0  0  0  0  0  0  0
   -1.3975   23.9575  -24.1091 H   0  0  0  0  0  0  0  0  0  0  0  0
    0.2488   23.4141  -24.5792 H   0  0  0  0  0  0  0  0  0  0  0  0
   -0.1533   25.1648  -24.5792 H   0  0  0  0  0  0  0  0  0  0  0  0
   -1.5202   21.9648  -25.9756 H   0  0  0  0  0  0  0  0  0  0  0  0
   -2.6690   21.4710  -29.8300 H   0  0  0  0  0  0  0  0  0  0  0  0
   -6.6663   24.0079  -31.1488 H   0  0  0  0  0  0  0  0  0  0  0  0
   -5.7897   25.0926  -32.2808 H   0  0  0  0  0  0  0  0  0  0  0  0
   -5.4478   23.3292  -32.2808 H   0  0  0  0  0  0  0  0  0  0  0  0
   -3.0900   25.6590  -30.4310 H   0  0  0  0  0  0  0  0  0  0  0  0
    1.0462   26.8702  -24.9166 H   0  0  0  0  0  0  0  0  0  0  0  0
    2.8178   24.9539  -26.1119 H   0  0  0  0  0  0  0  0  0  0  0  0
    1.8391   24.6635  -27.2857 H   0  0  0  0  0  0  0  0  0  0  0  0
    3.2694   27.4875  -26.6066 H   0  0  0  0  0  0  0  0  0  0  0  0
    2.3692   27.6376  -27.8664 H   0  0  0  0  0  0  0  0  0  0  0  0
  1  2  1  0
  2  3  2  0
  3  4  1  0
  4  5  1  0
  4  6  2  0
  6  7  1  0
  7  8  1  0
  8  9  2  0
  8 10  1  0
 10 11  1  0
 10 12  1  6
 10 13  1  0
 13 14  1  0
 13 15  1  0
 13 16  1  0
  6 17  1  0
 17 18  1  0
 17 19  2  0
 19 20  1  0
 20 21  2  0
 20 22  2  0
 20 23  1  0
 23 24  1  0
 24 25  1  0
 19  2  1  0
 25 23  1  0
  1 26  1  0
  1 27  1  0
  1 28  1  0
  3 29  1  0
  5 30  1  0
 11 31  1  0
 11 32  1  0
 11 33  1  0
 12 34  1  0
 23 35  1  0
 24 36  1  0
 24 37  1  0
 25 38  1  0
 25 39  1  0
M  CHG  2   7  -1  18  -1
M  END
>  <UniqueID>  (25) 
25

>  <SMILES>  (25) 
Cc1cc(S)c([N-]C(=O)[C@](C)(O)C(F)(F)F)c([O-])c1S(=O)(=O)C1CC1

>  <Energy>  (25) 
315.8159617940402

>  <Genealogy>  (25) 
Cc1cc(S)c([N-]C(=O)C(C)(O)C(F)(F)F)c([O-])c1S(=O)(=O)C1CC1 (protonated)
Cc1cc(S)c([N-]C(=O)[C@](C)(O)C(F)(F)F)c([O-])c1S(=O)(=O)C1CC1 (chirality)
Cc1cc(S)c([N-]C(=O)[C@](C)(O)C(F)(F)F)c([O-])c1S(=O)(=O)C1CC1 (3D coordinates assigned)
Cc1cc(S)c([N-]C(=O)[C@](C)(O)C(F)(F)F)c([O-])c1S(=O)(=O)C1CC1 (nonaromatic ring conformer: 315.8159617940402 kcal/mol)

>  <smiles>  (25) 
Cc1cc(S)c(NC(=O)C(C)(O)C(F)(F)F)c(O)c1S(=O)(=O)C1CC1

>  <score_type>  (25) 
oracle

>  <origin>  (25) 
adgpu

>  <m_score__min__energy>  (25) 
-10.279999999999999

>  <m_primary>  (25) 
energy

$$$$
25:0
     RDKit          3D

 64 68  0  0  0  0  0  0  0  0999 V2000
   -3.9590   24.9410  -26.4840 C   0  0  0  0  0  0  0  0  0  0  0  0
   -3.3540   23.8710  -27.3450 C   0  0  0  0  0  0  0  0  0  0  0  0
   -2.1200   24.0820  -27.9800 C   0  0  0  0  0  0  0  0  0  0  0  0
   -1.5740   23.0940  -28.8040 C   0  0  0  0  0  0  0  0  0  0  0  0
   -2.2530   21.8820  -29.0080 C   0  0  0  0  0  0  0  0  0  0  0  0
   -1.6880   20.8200  -29.8650 C   0  0  0  0  0  0  0  0  0  0  0  0
   -0.7180   19.9810  -29.4520 N   0  0  0  0  0  0  0  0  0  0  0  0
   -0.3830   19.2000  -30.4690 N   0  0  0  0  0  0  0  0  0  0  0  0
    0.6400   18.1860  -30.3890 C   0  0  0  0  0  0  0  0  0  0  0  0
    0.6090   17.2360  -29.3480 C   0  0  0  0  0  0  0  0  0  0  0  0
    1.5920   16.2460  -29.2600 C   0  0  0  0  0  0  0  0  0  0  0  0
    2.6140   16.1870  -30.2070 C   0  0  0  0  0  0  0  0  0  0  0  0
    2.6550   17.1170  -31.2490 C   0  0  0  0  0  0  0  0  0  0  0  0
    1.6750   18.1100  -31.3430 C   0  0  0  0  0  0  0  0  0  0  0  0
   -1.1140   19.5380  -31.5530 C   0  0  0  0  0  0  0  0  0  0  0  0
   -1.9590   20.5720  -31.2070 C   0  0  0  0  0  0  0  0  0  0  0  0
   -2.8620   21.3260  -32.1460 C   0  0  0  0  0  0  0  0  0  0  0  0
   -3.0940   22.6940  -31.6740 N   0  0  0  0  0  0  0  0  0  0  0  0
   -4.4020   23.1880  -31.3290 C   0  0  0  0  0  0  0  0  0  0  0  0
   -5.5510   22.4200  -31.6050 C   0  0  0  0  0  0  0  0  0  0  0  0
   -6.8210   22.8620  -31.2190 C   0  0  0  0  0  0  0  0  0  0  0  0
   -8.2310   21.8600  -31.5590 S   0  0  0  0  0  0  0  0  0  0  0  0
   -8.7400   21.2450  -30.2850 O   0  0  0  0  0  0  0  0  0  0  0  0
   -9.3080   22.7360  -32.1350 O   0  0  0  0  0  0  0  0  0  0  0  0
   -7.7800   20.6170  -32.7080 N   0  0  0  0  0  0  0  0  0  0  0  0
   -6.6540   19.7940  -32.2150 C   0  0  0  0  0  0  0  0  0  0  0  0
   -7.1160   18.4570  -31.6070 C   0  0  0  0  0  0  0  0  0  0  0  0
   -8.3800   18.6040  -31.0010 O   0  0  0  0  0  0  0  0  0  0  0  0
   -9.3750   18.8190  -31.9870 C   0  0  0  0  0  0  0  0  0  0  0  0
   -8.9390   19.7980  -33.1040 C   0  0  0  0  0  0  0  0  0  0  0  0
   -6.9570   24.0770  -30.5400 C   0  0  0  0  0  0  0  0  0  0  0  0
   -5.8300   24.8530  -30.2670 C   0  0  0  0  0  0  0  0  0  0  0  0
   -4.5570   24.4310  -30.6650 C   0  0  0  0  0  0  0  0  0  0  0  0
   -3.4790   25.2820  -30.4060 O   0  0  0  0  0  0  0  0  0  0  0  0
   -3.5060   21.6910  -28.4030 C   0  0  0  0  0  0  0  0  0  0  0  0
   -4.0520   22.6770  -27.5770 C   0  0  0  0  0  0  0  0  0  0  0  0
   -3.8140   24.6845  -25.4242 H   0  0  0  0  0  0  0  0  0  0  0  0
   -3.4714   25.9035  -26.6984 H   0  0  0  0  0  0  0  0  0  0  0  0
   -5.0351   25.0193  -26.6984 H   0  0  0  0  0  0  0  0  0  0  0  0
   -1.5807   25.0287  -27.8285 H   0  0  0  0  0  0  0  0  0  0  0  0
   -0.6056   23.2671  -29.2962 H   0  0  0  0  0  0  0  0  0  0  0  0
   -0.1954   17.2740  -28.5987 H   0  0  0  0  0  0  0  0  0  0  0  0
    1.5593   15.5116  -28.4417 H   0  0  0  0  0  0  0  0  0  0  0  0
    3.3877   15.4085  -30.1337 H   0  0  0  0  0  0  0  0  0  0  0  0
    3.4600   17.0679  -31.9970 H   0  0  0  0  0  0  0  0  0  0  0  0
    1.7120   18.8372  -32.1675 H   0  0  0  0  0  0  0  0  0  0  0  0
   -1.0469   19.0678  -32.5452 H   0  0  0  0  0  0  0  0  0  0  0  0
   -2.3939   21.3642  -33.1407 H   0  0  0  0  0  0  0  0  0  0  0  0
   -3.8296   20.8048  -32.1924 H   0  0  0  0  0  0  0  0  0  0  0  0
   -2.2740   23.3330  -31.5830 H   0  0  0  0  0  0  0  0  0  0  0  0
   -5.4478   21.4596  -32.1313 H   0  0  0  0  0  0  0  0  0  0  0  0
   -5.9778   19.5828  -33.0565 H   0  0  0  0  0  0  0  0  0  0  0  0
   -6.1496   20.3634  -31.4204 H   0  0  0  0  0  0  0  0  0  0  0  0
   -7.1812   17.7002  -32.4026 H   0  0  0  0  0  0  0  0  0  0  0  0
   -6.3889   18.1415  -30.8442 H   0  0  0  0  0  0  0  0  0  0  0  0
   -9.6215   17.8517  -32.4491 H   0  0  0  0  0  0  0  0  0  0  0  0
  -10.2393   19.2726  -31.4797 H   0  0  0  0  0  0  0  0  0  0  0  0
   -8.6725   19.2172  -33.9994 H   0  0  0  0  0  0  0  0  0  0  0  0
   -9.7801   20.4785  -33.3026 H   0  0  0  0  0  0  0  0  0  0  0  0
   -7.9521   24.4208  -30.2213 H   0  0  0  0  0  0  0  0  0  0  0  0
   -5.9438   25.8077  -29.7326 H   0  0  0  0  0  0  0  0  0  0  0  0
   -3.5160   26.0500  -29.7500 H   0  0  0  0  0  0  0  0  0  0  0  0
   -4.0616   20.7584  -28.5807 H   0  0  0  0  0  0  0  0  0  0  0  0
   -5.0333   22.5160  -27.1068 H   0  0  0  0  0  0  0  0  0  0  0  0
  1  2  1  0
  2  3  2  0
  3  4  1  0
  4  5  2  0
  5  6  1  0
  6  7  2  0
  7  8  1  0
  8  9  1  0
  9 10  2  0
 10 11  1  0
 11 12  2  0
 12 13  1  0
 13 14  2  0
  8 15  1  0
 15 16  2  0
 16 17  1  0
 17 18  1  0
 18 19  1  0
 19 20  2  0
 20 21  1  0
 21 22  1  0
 22 23  2  0
 22 24  2  0
 22 25  1  0
 25 26  1  0
 26 27  1  0
 27 28  1  0
 28 29  1  0
 29 30  1  0
 21 31  2  0
 31 32  1  0
 32 33  2  0
 33 34  1  0
  5 35  1  0
 35 36  2  0
 36  2  1  0
 16  6  1  0
 33 19  1  0
 14  9  1  0
 30 25  1  0
  1 37  1  0
  1 38  1  0
  1 39  1  0
  3 40  1  0
  4 41  1  0
 10 42  1  0
 11 43  1  0
 12 44  1  0
 13 45  1  0
 14 46  1  0
 15 47  1  0
 17 48  1  0
 17 49  1  0
 18 50  1  0
 20 51  1  0
 26 52  1  0
 26 53  1  0
 27 54  1  0
 27 55  1  0
 29 56  1  0
 29 57  1  0
 30 58  1  0
 30 59  1  0
 31 60  1  0
 32 61  1  0
 34 62  1  0
 35 63  1  0
 36 64  1  0
M  END
>  <UniqueID>  (26) 
26

>  <SMILES>  (26) 
Cc1ccc(-c2nn(-c3ccccc3)cc2CNc2cc(S(=O)(=O)N3CCOCC3)ccc2O)cc1

>  <Energy>  (26) 
118.44866218010175

>  <Genealogy>  (26) 
Cc1ccc(-c2nn(-c3ccccc3)cc2CNc2cc(S(=O)(=O)N3CCOCC3)ccc2O)cc1 (3D coordinates assigned)
Cc1ccc(-c2nn(-c3ccccc3)cc2CNc2cc(S(=O)(=O)N3CCOCC3)ccc2O)cc1 (nonaromatic ring conformer: 118.44866218010175 kcal/mol)

>  <smiles>  (26) 
Cc1ccc(-c2nn(-c3ccccc3)cc2CNc2cc(S(=O)(=O)N3CCOCC3)ccc2O)cc1

>  <score_type>  (26) 
oracle

>  <origin>  (26) 
adgpu

>  <m_score__min__energy>  (26) 
-11.619999999999999

>  <m_primary>  (26) 
energy

$$$$
26:0
     RDKit          3D

 26 28  0  0  0  0  0  0  0  0999 V2000
   -7.9940   22.5440  -30.1510 N   0  0  0  0  0  0  0  0  0  0  0  0
   -7.4040   21.8550  -30.8690 C   0  0  0  0  0  0  0  0  0  0  0  0
   -6.6620   20.9930  -31.7700 C   0  0  0  0  0  0  0  0  0  0  0  0
   -5.2510   21.0700  -31.8290 C   0  0  0  0  0  0  0  0  0  0  0  0
   -4.5480   22.0410  -30.9600 C   0  0  0  0  0  0  0  0  0  0  0  0
   -3.8650   21.5980  -29.8170 C   0  0  0  0  0  0  0  0  0  0  0  0
   -3.1900   22.5150  -29.0060 C   0  0  0  0  0  0  0  0  0  0  0  0
   -3.1910   23.8740  -29.3330 C   0  0  0  0  0  0  0  0  0  0  0  0
   -3.8650   24.3190  -30.4760 C   0  0  0  0  0  0  0  0  0  0  0  0
   -3.8630   25.6700  -30.8010 O   0  0  0  0  0  0  0  0  0  0  0  0
   -4.5410   23.4040  -31.2900 C   0  0  0  0  0  0  0  0  0  0  0  0
   -4.5410   20.2150  -32.7180 C   0  0  0  0  0  0  0  0  0  0  0  0
   -3.1310   20.1980  -32.8680 C   0  0  0  0  0  0  0  0  0  0  0  0
   -2.3860   20.9640  -32.2020 O   0  0  0  0  0  0  0  0  0  0  0  0
   -2.5550   19.3390  -33.7490 N   0  0  0  0  0  0  0  0  0  0  0  0
   -3.2970   18.4880  -34.4980 C   0  0  0  0  0  0  0  0  0  0  0  0
   -4.6470   18.4800  -34.3780 N   0  0  0  0  0  0  0  0  0  0  0  0
   -5.2810   19.3130  -33.5170 C   0  0  0  0  0  0  0  0  0  0  0  0
   -6.6330   19.2700  -33.4320 N   0  0  0  0  0  0  0  0  0  0  0  0
   -7.3380   20.0710  -32.5940 C   0  0  0  0  0  0  0  0  0  0  0  0
   -8.9730   19.9280  -32.5770 S   0  0  0  0  0  0  0  0  0  0  0  0
   -3.8607   20.5287  -29.5591 H   0  0  0  0  0  0  0  0  0  0  0  0
   -2.6572   22.1665  -28.1090 H   0  0  0  0  0  0  0  0  0  0  0  0
   -2.6618   24.5941  -28.6916 H   0  0  0  0  0  0  0  0  0  0  0  0
   -5.0677   23.7540  -32.1900 H   0  0  0  0  0  0  0  0  0  0  0  0
   -2.8036   17.8034  -35.2037 H   0  0  0  0  0  0  0  0  0  0  0  0
  1  2  3  0
  2  3  1  0
  3  4  2  0
  4  5  1  0
  5  6  2  0
  6  7  1  0
  7  8  2  0
  8  9  1  0
  9 10  1  0
  9 11  2  0
  4 12  1  0
 12 13  1  0
 13 14  2  0
 13 15  1  0
 15 16  2  0
 16 17  1  0
 17 18  1  0
 18 19  1  0
 19 20  1  0
 20 21  2  0
 20  3  1  0
 11  5  1  0
 18 12  2  0
  6 22  1  0
  7 23  1  0
  8 24  1  0
 11 25  1  0
 16 26  1  0
M  CHG  3  10  -1  17  -1  19  -1
M  END
>  <UniqueID>  (27) 
27

>  <SMILES>  (27) 
N#Cc1c(-c2cccc([O-])c2)c2c(=O)nc[n-]c2[n-]c1=S

>  <Energy>  (27) 
48.519491293847054

>  <Genealogy>  (27) 
N#Cc1c(-c2cccc([O-])c2)c2c(=O)nc[n-]c2[n-]c1=S (protonated)
N#Cc1c(-c2cccc([O-])c2)c2c(=O)nc[n-]c2[n-]c1=S (3D coordinates assigned)
N#Cc1c(-c2cccc([O-])c2)c2c(=O)nc[n-]c2[n-]c1=S (optimized conformer: 48.519491293847054 kcal/mol)

>  <smiles>  (27) 
N#Cc1c(-c2cccc(O)c2)c2c(=O)nc[nH]c2[nH]c1=S

>  <score_type>  (27) 
oracle

>  <origin>  (27) 
adgpu

>  <m_score__min__energy>  (27) 
-10.24

>  <m_primary>  (27) 
energy

$$$$
27:0
     RDKit          3D

 52 55  0  0  0  0  0  0  0  0999 V2000
   -5.6970   15.8780  -32.6800 C   0  0  0  0  0  0  0  0  0  0  0  0
   -6.1920   17.2880  -32.5100 C   0  0  0  0  0  0  0  0  0  0  0  0
   -7.2430   17.5230  -31.6050 C   0  0  0  0  0  0  0  0  0  0  0  0
   -7.7450   18.8090  -31.4100 C   0  0  0  0  0  0  0  0  0  0  0  0
   -7.2070   19.8870  -32.1170 C   0  0  0  0  0  0  0  0  0  0  0  0
   -7.8200   21.5190  -31.8710 S   0  0  0  0  0  0  0  0  0  0  0  0
   -8.0540   21.7860  -30.4100 O   0  0  0  0  0  0  0  0  0  0  0  0
   -9.1210   21.6580  -32.6110 O   0  0  0  0  0  0  0  0  0  0  0  0
   -6.6830   22.6770  -32.4860 N   0  0  0  0  0  0  0  0  0  0  0  0
   -5.6750   23.2910  -31.6620 C   0  0  0  0  0  0  0  0  0  0  0  0
   -5.9240   24.5460  -31.0810 C   0  0  0  0  0  0  0  0  0  0  0  0
   -4.9440   25.1950  -30.3320 C   0  0  0  0  0  0  0  0  0  0  0  0
   -3.6880   24.6170  -30.1580 C   0  0  0  0  0  0  0  0  0  0  0  0
   -2.7290   25.2970  -29.4140 O   0  0  0  0  0  0  0  0  0  0  0  0
   -3.4060   23.3600  -30.7250 C   0  0  0  0  0  0  0  0  0  0  0  0
   -2.1430   22.7650  -30.5520 C   0  0  0  0  0  0  0  0  0  0  0  0
   -1.8810   21.4990  -31.0730 C   0  0  0  0  0  0  0  0  0  0  0  0
   -2.8730   20.8070  -31.7640 C   0  0  0  0  0  0  0  0  0  0  0  0
   -4.1280   21.3860  -31.9610 C   0  0  0  0  0  0  0  0  0  0  0  0
   -4.4110   22.6760  -31.4660 C   0  0  0  0  0  0  0  0  0  0  0  0
   -6.1620   19.6700  -33.0190 C   0  0  0  0  0  0  0  0  0  0  0  0
   -5.6360   18.3850  -33.2220 C   0  0  0  0  0  0  0  0  0  0  0  0
   -4.2980   18.2480  -34.3820 S   0  0  0  0  0  0  0  0  0  0  0  0
   -3.6430   19.5950  -34.4990 O   0  0  0  0  0  0  0  0  0  0  0  0
   -4.7560   17.8150  -35.7460 O   0  0  0  0  0  0  0  0  0  0  0  0
   -3.1350   17.0890  -33.7800 N   0  0  0  0  0  0  0  0  0  0  0  0
   -2.7320   16.1690  -34.8620 C   0  0  0  0  0  0  0  0  0  0  0  0
   -1.3490   15.5660  -34.5750 C   0  0  0  0  0  0  0  0  0  0  0  0
   -0.3120   16.5360  -34.5050 O   0  0  0  0  0  0  0  0  0  0  0  0
   -0.7550   17.8170  -34.0700 C   0  0  0  0  0  0  0  0  0  0  0  0
   -1.9860   17.7690  -33.1440 C   0  0  0  0  0  0  0  0  0  0  0  0
   -5.5375   15.4236  -31.6910 H   0  0  0  0  0  0  0  0  0  0  0  0
   -6.4432   15.2920  -33.2367 H   0  0  0  0  0  0  0  0  0  0  0  0
   -4.7483   15.8871  -33.2367 H   0  0  0  0  0  0  0  0  0  0  0  0
   -7.6745   16.6811  -31.0438 H   0  0  0  0  0  0  0  0  0  0  0  0
   -8.5666   18.9751  -30.6978 H   0  0  0  0  0  0  0  0  0  0  0  0
   -6.7540   22.9190  -33.4970 H   0  0  0  0  0  0  0  0  0  0  0  0
   -6.9057   25.0227  -31.2192 H   0  0  0  0  0  0  0  0  0  0  0  0
   -5.1637   26.1710  -29.8747 H   0  0  0  0  0  0  0  0  0  0  0  0
   -1.3567   23.3026  -30.0017 H   0  0  0  0  0  0  0  0  0  0  0  0
   -0.8881   21.0451  -30.9381 H   0  0  0  0  0  0  0  0  0  0  0  0
   -2.6667   19.8002  -32.1561 H   0  0  0  0  0  0  0  0  0  0  0  0
   -4.9041   20.8304  -32.5079 H   0  0  0  0  0  0  0  0  0  0  0  0
   -5.7450   20.5201  -33.5789 H   0  0  0  0  0  0  0  0  0  0  0  0
   -3.4706   15.3576  -34.9398 H   0  0  0  0  0  0  0  0  0  0  0  0
   -2.6832   16.7325  -35.8054 H   0  0  0  0  0  0  0  0  0  0  0  0
   -1.3937   15.0338  -33.6133 H   0  0  0  0  0  0  0  0  0  0  0  0
   -1.1083   14.8942  -35.4121 H   0  0  0  0  0  0  0  0  0  0  0  0
    0.0689   18.3026  -33.5265 H   0  0  0  0  0  0  0  0  0  0  0  0
   -1.0530   18.3751  -34.9698 H   0  0  0  0  0  0  0  0  0  0  0  0
   -1.7176   17.2272  -32.2251 H   0  0  0  0  0  0  0  0  0  0  0  0
   -2.2848   18.8046  -32.9242 H   0  0  0  0  0  0  0  0  0  0  0  0
  1  2  1  0
  2  3  2  0
  3  4  1  0
  4  5  2  0
  5  6  1  0
  6  7  2  0
  6  8  2  0
  6  9  1  0
  9 10  1  0
 10 11  2  0
 11 12  1  0
 12 13  2  0
 13 14  1  0
 13 15  1  0
 15 16  2  0
 16 17  1  0
 17 18  2  0
 18 19  1  0
 19 20  2  0
  5 21  1  0
 21 22  2  0
 22 23  1  0
 23 24  2  0
 23 25  2  0
 23 26  1  0
 26 27  1  0
 27 28  1  0
 28 29  1  0
 29 30  1  0
 30 31  1  0
 22  2  1  0
 31 26  1  0
 20 10  1  0
 20 15  1  0
  1 32  1  0
  1 33  1  0
  1 34  1  0
  3 35  1  0
  4 36  1  0
  9 37  1  0
 11 38  1  0
 12 39  1  0
 16 40  1  0
 17 41  1  0
 18 42  1  0
 19 43  1  0
 21 44  1  0
 27 45  1  0
 27 46  1  0
 28 47  1  0
 28 48  1  0
 30 49  1  0
 30 50  1  0
 31 51  1  0
 31 52  1  0
M  CHG  1  14  -1
M  END
>  <UniqueID>  (28) 
28

>  <SMILES>  (28) 
Cc1ccc(S(=O)(=O)Nc2ccc([O-])c3ccccc23)cc1S(=O)(=O)N1CCOCC1

>  <Energy>  (28) 
76.29402980800495

>  <Genealogy>  (28) 
Cc1ccc(S(=O)(=O)Nc2ccc([O-])c3ccccc23)cc1S(=O)(=O)N1CCOCC1 (protonated)
Cc1ccc(S(=O)(=O)Nc2ccc([O-])c3ccccc23)cc1S(=O)(=O)N1CCOCC1 (3D coordinates assigned)
Cc1ccc(S(=O)(=O)Nc2ccc([O-])c3ccccc23)cc1S(=O)(=O)N1CCOCC1 (nonaromatic ring conformer: 76.29402980800495 kcal/mol)

>  <smiles>  (28) 
Cc1ccc(S(=O)(=O)Nc2ccc(O)c3ccccc23)cc1S(=O)(=O)N1CCOCC1

>  <score_type>  (28) 
oracle

>  <origin>  (28) 
adgpu

>  <m_score__min__energy>  (28) 
-13.130000000000001

>  <m_primary>  (28) 
energy

$$$$
28:0
     RDKit          3D

 41 43  0  0  1  0  0  0  0  0999 V2000
   -5.7290   18.3870  -34.8550 C   0  0  0  0  0  0  0  0  0  0  0  0
   -6.4790   17.3400  -34.1850 N   0  0  0  0  0  0  0  0  0  0  0  0
   -5.7200   16.1150  -34.1750 C   0  0  0  0  0  0  0  0  0  0  0  0
   -6.9020   17.8280  -32.5740 S   0  0  0  0  0  0  0  0  0  0  0  0
   -8.3730   17.6520  -32.3470 O   0  0  0  0  0  0  0  0  0  0  0  0
   -6.1170   17.0420  -31.5930 O   0  0  0  0  0  0  0  0  0  0  0  0
   -6.5790   19.5440  -32.3510 C   0  0  0  0  0  0  0  0  0  0  0  0
   -7.5760   20.4970  -32.5000 C   0  0  0  0  0  0  0  0  0  0  0  0
   -7.2790   21.8420  -32.3150 C   0  0  0  0  0  0  0  0  0  0  0  0
   -5.9680   22.1760  -31.9820 C   0  0  0  0  0  0  0  0  0  0  0  0
   -5.5680   23.5270  -31.7730 N   0  0  0  0  0  0  0  0  0  0  0  0
   -4.7390   23.9210  -30.8910 C   0  0  0  0  0  0  0  0  0  0  0  0
   -4.1060   23.1070  -30.0110 N   0  0  0  0  0  0  0  0  0  0  0  0
   -3.3190   23.9050  -29.2530 C   0  0  0  0  0  0  0  0  0  0  0  0
   -2.4330   23.5160  -28.1610 C   0  0  0  0  0  0  0  0  0  0  0  0
   -1.9000   24.4990  -27.3840 C   0  0  0  0  0  0  0  0  0  0  0  0
   -1.0560   24.0950  -26.3470 C   0  0  0  0  0  0  0  0  0  0  0  0
   -0.7880   22.7510  -26.1360 C   0  0  0  0  0  0  0  0  0  0  0  0
   -1.3580   21.7990  -26.9560 C   0  0  0  0  0  0  0  0  0  0  0  0
   -2.1880   22.1660  -27.9790 C   0  0  0  0  0  0  0  0  0  0  0  0
   -3.4890   25.1710  -29.6830 N   0  0  0  0  0  0  0  0  0  0  0  0
   -4.3600   25.1980  -30.6920 N   0  0  0  0  0  0  0  0  0  0  0  0
   -4.9970   21.2060  -31.8400 C   0  0  0  0  0  0  0  0  0  0  0  0
   -5.2840   19.8860  -32.0210 C   0  0  0  0  0  0  0  0  0  0  0  0
   -5.2609   19.0405  -34.1042 H   0  0  0  0  0  0  0  0  0  0  0  0
   -4.9488   17.9339  -35.4842 H   0  0  0  0  0  0  0  0  0  0  0  0
   -6.4091   18.9799  -35.4842 H   0  0  0  0  0  0  0  0  0  0  0  0
   -5.5307   15.8094  -33.1354 H   0  0  0  0  0  0  0  0  0  0  0  0
   -6.2885   15.3272  -34.6910 H   0  0  0  0  0  0  0  0  0  0  0  0
   -4.7615   16.2733  -34.6910 H   0  0  0  0  0  0  0  0  0  0  0  0
   -8.5985   20.1890  -32.7638 H   0  0  0  0  0  0  0  0  0  0  0  0
   -8.0523   22.6162  -32.4276 H   0  0  0  0  0  0  0  0  0  0  0  0
   -2.1235   25.5608  -27.5644 H   0  0  0  0  0  0  0  0  0  0  0  0
   -0.5993   24.8507  -25.6910 H   0  0  0  0  0  0  0  0  0  0  0  0
   -0.1219   22.4443  -25.3161 H   0  0  0  0  0  0  0  0  0  0  0  0
   -1.1426   20.7339  -26.7851 H   0  0  0  0  0  0  0  0  0  0  0  0
   -2.6463   21.4123  -28.6362 H   0  0  0  0  0  0  0  0  0  0  0  0
   -3.0440   26.0580  -29.3370 H   0  0  0  0  0  0  0  0  0  0  0  0
   -4.6990   26.0330  -31.2380 H   0  0  0  0  0  0  0  0  0  0  0  0
   -3.9716   21.5038  -31.5756 H   0  0  0  0  0  0  0  0  0  0  0  0
   -4.5063   19.1164  -31.9073 H   0  0  0  0  0  0  0  0  0  0  0  0
  1  2  1  0
  2  3  1  0
  2  4  1  0
  4  5  2  0
  4  6  2  0
  4  7  1  0
  7  8  2  0
  8  9  1  0
  9 10  2  0
 10 11  1  0
 11 12  2  0
 12 13  1  0
 13 14  2  0
 14 15  1  0
 15 16  2  0
 16 17  1  0
 17 18  2  0
 18 19  1  0
 19 20  2  0
 14 21  1  0
 21 22  1  0
 10 23  1  0
 23 24  2  0
 24  7  1  0
 22 12  1  0
 20 15  1  0
  1 25  1  0
  1 26  1  0
  1 27  1  0
  3 28  1  0
  3 29  1  0
  3 30  1  0
  8 31  1  0
  9 32  1  0
 16 33  1  0
 17 34  1  0
 18 35  1  0
 19 36  1  0
 20 37  1  0
 21 38  1  0
 22 39  1  0
 23 40  1  0
 24 41  1  0
M  END
>  <smiles>  (29) 
CN(C)S(=O)(=O)c1ccc(N=c2nc(-c3ccccc3)[nH][nH]2)cc1

>  <score_type>  (29) 
oracle

>  <origin>  (29) 
adgpu

>  <m_score__min__energy>  (29) 
-8.6799999999999997

>  <m_primary>  (29) 
energy

$$$$
29:0
     RDKit          3D

 42 44  0  0  0  0  0  0  0  0999 V2000
   -5.7210   26.4270  -30.7680 O   0  0  0  0  0  0  0  0  0  0  0  0
   -5.2540   25.1500  -30.1250 S   0  0  0  0  0  0  0  0  0  0  0  0
   -5.4190   25.2800  -28.6380 O   0  0  0  0  0  0  0  0  0  0  0  0
   -3.5660   24.9120  -30.4900 N   0  0  0  0  0  0  0  0  0  0  0  0
   -2.8950   24.1060  -29.4670 C   0  0  0  0  0  0  0  0  0  0  0  0
   -2.0940   24.9620  -28.5360 C   0  0  0  0  0  0  0  0  0  0  0  0
   -1.9450   24.7560  -27.1790 C   0  0  0  0  0  0  0  0  0  0  0  0
   -1.1320   25.7780  -26.7390 C   0  0  0  0  0  0  0  0  0  0  0  0
   -0.8420   26.5430  -27.8500 C   0  0  0  0  0  0  0  0  0  0  0  0
   -1.4310   26.0320  -28.9070 O   0  0  0  0  0  0  0  0  0  0  0  0
   -6.2340   23.7970  -30.6860 C   0  0  0  0  0  0  0  0  0  0  0  0
   -6.2360   23.4260  -32.0380 C   0  0  0  0  0  0  0  0  0  0  0  0
   -6.9640   22.3120  -32.4600 C   0  0  0  0  0  0  0  0  0  0  0  0
   -7.6910   21.5520  -31.5330 C   0  0  0  0  0  0  0  0  0  0  0  0
   -8.5430   20.0980  -32.0500 S   0  0  0  0  0  0  0  0  0  0  0  0
   -9.8130   20.4920  -32.7520 O   0  0  0  0  0  0  0  0  0  0  0  0
   -8.9230   19.3000  -30.8330 O   0  0  0  0  0  0  0  0  0  0  0  0
   -7.5740   19.0950  -33.1120 N   0  0  0  0  0  0  0  0  0  0  0  0
   -6.2190   19.6370  -33.3250 C   0  0  0  0  0  0  0  0  0  0  0  0
   -5.2350   19.2780  -32.1870 C   0  0  0  0  0  0  0  0  0  0  0  0
   -5.7630   18.3430  -31.2660 O   0  0  0  0  0  0  0  0  0  0  0  0
   -6.3110   17.2490  -31.9610 C   0  0  0  0  0  0  0  0  0  0  0  0
   -7.5830   17.6700  -32.7180 C   0  0  0  0  0  0  0  0  0  0  0  0
   -7.7100   21.9380  -30.1860 C   0  0  0  0  0  0  0  0  0  0  0  0
   -6.9840   23.0550  -29.7640 C   0  0  0  0  0  0  0  0  0  0  0  0
   -3.6536   23.5595  -28.8874 H   0  0  0  0  0  0  0  0  0  0  0  0
   -2.2105   23.4074  -29.9704 H   0  0  0  0  0  0  0  0  0  0  0  0
   -2.3829   23.9468  -26.5762 H   0  0  0  0  0  0  0  0  0  0  0  0
   -0.7843   25.9493  -25.7095 H   0  0  0  0  0  0  0  0  0  0  0  0
   -0.2124   27.4450  -27.8505 H   0  0  0  0  0  0  0  0  0  0  0  0
   -5.6620   24.0147  -32.7688 H   0  0  0  0  0  0  0  0  0  0  0  0
   -6.9672   22.0297  -33.5232 H   0  0  0  0  0  0  0  0  0  0  0  0
   -5.8248   19.2326  -34.2690 H   0  0  0  0  0  0  0  0  0  0  0  0
   -6.3050   20.7334  -33.3500 H   0  0  0  0  0  0  0  0  0  0  0  0
   -4.3245   18.8522  -32.6339 H   0  0  0  0  0  0  0  0  0  0  0  0
   -5.0288   20.2038  -31.6299 H   0  0  0  0  0  0  0  0  0  0  0  0
   -5.5705   16.8705  -32.6810 H   0  0  0  0  0  0  0  0  0  0  0  0
   -6.5731   16.4640  -31.2364 H   0  0  0  0  0  0  0  0  0  0  0  0
   -7.6704   17.0555  -33.6261 H   0  0  0  0  0  0  0  0  0  0  0  0
   -8.4354   17.5211  -32.0388 H   0  0  0  0  0  0  0  0  0  0  0  0
   -8.2984   21.3598  -29.4584 H   0  0  0  0  0  0  0  0  0  0  0  0
   -7.0014   23.3525  -28.7051 H   0  0  0  0  0  0  0  0  0  0  0  0
  1  2  2  0
  2  3  2  0
  2  4  1  0
  4  5  1  0
  5  6  1  0
  6  7  2  0
  7  8  1  0
  8  9  2  0
  9 10  1  0
  2 11  1  0
 11 12  2  0
 12 13  1  0
 13 14  2  0
 14 15  1  0
 15 16  2  0
 15 17  2  0
 15 18  1  0
 18 19  1  0
 19 20  1  0
 20 21  1  0
 21 22  1  0
 22 23  1  0
 14 24  1  0
 24 25  2  0
 10  6  1  0
 25 11  1  0
 23 18  1  0
  5 26  1  0
  5 27  1  0
  7 28  1  0
  8 29  1  0
  9 30  1  0
 12 31  1  0
 13 32  1  0
 19 33  1  0
 19 34  1  0
 20 35  1  0
 20 36  1  0
 22 37  1  0
 22 38  1  0
 23 39  1  0
 23 40  1  0
 24 41  1  0
 25 42  1  0
M  CHG  1   4  -1
M  END
>  <UniqueID>  (30) 
29

>  <SMILES>  (30) 
O=S(=O)([N-]Cc1ccco1)c1ccc(S(=O)(=O)N2CCOCC2)cc1

>  <Energy>  (30) 
76.4642449061931

>  <Genealogy>  (30) 
O=S(=O)([N-]Cc1ccco1)c1ccc(S(=O)(=O)N2CCOCC2)cc1 (protonated)
O=S(=O)([N-]Cc1ccco1)c1ccc(S(=O)(=O)N2CCOCC2)cc1 (3D coordinates assigned)
O=S(=O)([N-]Cc1ccco1)c1ccc(S(=O)(=O)N2CCOCC2)cc1 (nonaromatic ring conformer: 76.4642449061931 kcal/mol)

>  <smiles>  (30) 
O=S(=O)(NCc1ccco1)c1ccc(S(=O)(=O)N2CCOCC2)cc1

>  <score_type>  (30) 
oracle

>  <origin>  (30) 
adgpu

>  <m_score__min__energy>  (30) 
-11.109999999999999

>  <m_primary>  (30) 
energy

$$$$
30:0
     RDKit          3D

 55 58  0  0  0  0  0  0  0  0999 V2000
   -1.3380   17.4530  -33.8450 C   0  0  0  0  0  0  0  0  0  0  0  0
   -2.7740   17.2310  -33.6950 N   0  0  0  0  0  0  0  0  0  0  0  0
   -3.4460   16.0580  -33.7910 C   0  0  0  0  0  0  0  0  0  0  0  0
   -2.8790   14.9440  -33.9640 O   0  0  0  0  0  0  0  0  0  0  0  0
   -4.7920   16.2080  -33.7080 N   0  0  0  0  0  0  0  0  0  0  0  0
   -5.8210   15.1810  -33.8350 C   0  0  0  0  0  0  0  0  0  0  0  0
   -4.9680   17.5390  -33.5900 C   0  0  0  0  0  0  0  0  0  0  0  0
   -6.1600   18.2580  -33.5370 C   0  0  0  0  0  0  0  0  0  0  0  0
   -6.0870   19.6700  -33.4520 C   0  0  0  0  0  0  0  0  0  0  0  0
   -7.2700   20.4840  -33.3810 N   0  0  0  0  0  0  0  0  0  0  0  0
   -7.7560   21.3690  -31.9690 S   0  0  0  0  0  0  0  0  0  0  0  0
   -9.0290   22.1110  -32.2600 O   0  0  0  0  0  0  0  0  0  0  0  0
   -8.0050   20.4080  -30.8400 O   0  0  0  0  0  0  0  0  0  0  0  0
   -6.5070   22.5360  -31.5420 C   0  0  0  0  0  0  0  0  0  0  0  0
   -6.7300   23.9120  -31.6930 C   0  0  0  0  0  0  0  0  0  0  0  0
   -5.7380   24.8250  -31.3290 C   0  0  0  0  0  0  0  0  0  0  0  0
   -4.5160   24.3720  -30.8180 C   0  0  0  0  0  0  0  0  0  0  0  0
   -3.5380   25.2970  -30.4650 O   0  0  0  0  0  0  0  0  0  0  0  0
   -4.2840   22.9950  -30.6650 C   0  0  0  0  0  0  0  0  0  0  0  0
   -2.7380   22.4170  -30.0420 S   0  0  0  0  0  0  0  0  0  0  0  0
   -2.8900   21.9550  -28.6180 O   0  0  0  0  0  0  0  0  0  0  0  0
   -1.7510   23.5490  -30.0790 O   0  0  0  0  0  0  0  0  0  0  0  0
   -2.1680   21.0930  -31.0300 N   0  0  0  0  0  0  0  0  0  0  0  0
   -1.3940   20.1160  -30.2220 C   0  0  0  0  0  0  0  0  0  0  0  0
    0.1240   20.2560  -30.4040 C   0  0  0  0  0  0  0  0  0  0  0  0
    0.5280   20.0800  -31.8780 C   0  0  0  0  0  0  0  0  0  0  0  0
   -0.5650   20.5510  -32.8540 C   0  0  0  0  0  0  0  0  0  0  0  0
   -1.4510   21.6220  -32.2100 C   0  0  0  0  0  0  0  0  0  0  0  0
   -5.2850   22.0830  -31.0290 C   0  0  0  0  0  0  0  0  0  0  0  0
   -4.8160   20.3000  -33.4470 C   0  0  0  0  0  0  0  0  0  0  0  0
   -3.6300   19.5460  -33.5190 C   0  0  0  0  0  0  0  0  0  0  0  0
   -3.7470   18.1590  -33.5840 C   0  0  0  0  0  0  0  0  0  0  0  0
   -0.8723   17.5250  -32.8510 H   0  0  0  0  0  0  0  0  0  0  0  0
   -0.8930   16.6130  -34.3985 H   0  0  0  0  0  0  0  0  0  0  0  0
   -1.1674   18.3882  -34.3985 H   0  0  0  0  0  0  0  0  0  0  0  0
   -6.1434   14.8592  -32.8338 H   0  0  0  0  0  0  0  0  0  0  0  0
   -6.6821   15.5905  -34.3835 H   0  0  0  0  0  0  0  0  0  0  0  0
   -5.4131   14.3191  -34.3835 H   0  0  0  0  0  0  0  0  0  0  0  0
   -7.1317   17.7431  -33.5605 H   0  0  0  0  0  0  0  0  0  0  0  0
   -7.8490   20.6130  -34.2420 H   0  0  0  0  0  0  0  0  0  0  0  0
   -7.6869   24.2726  -32.0984 H   0  0  0  0  0  0  0  0  0  0  0  0
   -5.9175   25.9041  -31.4442 H   0  0  0  0  0  0  0  0  0  0  0  0
   -1.6354   20.2702  -29.1599 H   0  0  0  0  0  0  0  0  0  0  0  0
   -1.6751   19.1094  -30.5651 H   0  0  0  0  0  0  0  0  0  0  0  0
    0.4352   21.2547  -30.0638 H   0  0  0  0  0  0  0  0  0  0  0  0
    0.6188   19.4720  -29.8120 H   0  0  0  0  0  0  0  0  0  0  0  0
    1.4416   20.6636  -32.0645 H   0  0  0  0  0  0  0  0  0  0  0  0
    0.6886   19.0059  -32.0524 H   0  0  0  0  0  0  0  0  0  0  0  0
   -0.0887   20.9706  -33.7524 H   0  0  0  0  0  0  0  0  0  0  0  0
   -1.1940   19.6883  -33.1189 H   0  0  0  0  0  0  0  0  0  0  0  0
   -0.8201   22.4667  -31.8961 H   0  0  0  0  0  0  0  0  0  0  0  0
   -2.1967   21.9451  -32.9513 H   0  0  0  0  0  0  0  0  0  0  0  0
   -5.1092   21.0036  -30.9107 H   0  0  0  0  0  0  0  0  0  0  0  0
   -4.7565   21.3967  -33.3858 H   0  0  0  0  0  0  0  0  0  0  0  0
   -2.6445   20.0347  -33.5238 H   0  0  0  0  0  0  0  0  0  0  0  0
  1  2  1  0
  2  3  1  0
  3  4  2  0
  3  5  1  0
  5  6  1  0
  5  7  1  0
  7  8  2  0
  8  9  1  0
  9 10  1  0
 10 11  1  0
 11 12  2  0
 11 13  2  0
 11 14  1  0
 14 15  2  0
 15 16  1  0
 16 17  2  0
 17 18  1  0
 17 19  1  0
 19 20  1  0
 20 21  2  0
 20 22  2  0
 20 23  1  0
 23 24  1  0
 24 25  1  0
 25 26  1  0
 26 27  1  0
 27 28  1  0
 19 29  2  0
  9 30  2  0
 30 31  1  0
 31 32  2  0
 32  2  1  0
 32  7  1  0
 29 14  1  0
 28 23  1  0
  1 33  1  0
  1 34  1  0
  1 35  1  0
  6 36  1  0
  6 37  1  0
  6 38  1  0
  8 39  1  0
 10 40  1  0
 15 41  1  0
 16 42  1  0
 24 43  1  0
 24 44  1  0
 25 45  1  0
 25 46  1  0
 26 47  1  0
 26 48  1  0
 27 49  1  0
 27 50  1  0
 28 51  1  0
 28 52  1  0
 29 53  1  0
 30 54  1  0
 31 55  1  0
M  CHG  1  18  -1
M  END
>  <UniqueID>  (31) 
30

>  <SMILES>  (31) 
Cn1c(=O)n(C)c2cc(NS(=O)(=O)c3ccc([O-])c(S(=O)(=O)N4CCCCC4)c3)ccc21

>  <Energy>  (31) 
106.03291315799116

>  <Genealogy>  (31) 
Cn1c(=O)n(C)c2cc(NS(=O)(=O)c3ccc([O-])c(S(=O)(=O)N4CCCCC4)c3)ccc21 (protonated)
Cn1c(=O)n(C)c2cc(NS(=O)(=O)c3ccc([O-])c(S(=O)(=O)N4CCCCC4)c3)ccc21 (3D coordinates assigned)
Cn1c(=O)n(C)c2cc(NS(=O)(=O)c3ccc([O-])c(S(=O)(=O)N4CCCCC4)c3)ccc21 (nonaromatic ring conformer: 106.03291315799116 kcal/mol)

>  <smiles>  (31) 
Cn1c(=O)n(C)c2cc(NS(=O)(=O)c3ccc(O)c(S(=O)(=O)N4CCCCC4)c3)ccc21

>  <score_type>  (31) 
oracle

>  <origin>  (31) 
adgpu

>  <m_score__min__energy>  (31) 
-13.06

>  <m_primary>  (31) 
energy

$$$$
31:0
     RDKit          3D

 63 66  0  0  1  0  0  0  0  0999 V2000
   -3.8030   22.1320  -27.4710 C   0  0  0  0  0  0  0  0  0  0  0  0
   -4.0110   23.5300  -27.2570 O   0  0  0  0  0  0  0  0  0  0  0  0
   -2.9340   24.3940  -27.3880 C   0  0  0  0  0  0  0  0  0  0  0  0
   -2.5810   25.2410  -26.3560 C   0  0  0  0  0  0  0  0  0  0  0  0
   -1.5160   26.1220  -26.4340 C   0  0  0  0  0  0  0  0  0  0  0  0
   -1.1350   26.9880  -25.3850 N   0  0  0  0  0  0  0  0  0  0  0  0
   -0.9030   28.4240  -25.5860 C   0  0  0  0  0  0  0  0  0  0  0  0
    0.5550   28.6660  -25.3600 C   0  0  0  0  0  0  0  0  0  0  0  0
    0.8350   28.2580  -23.9760 N   0  0  0  0  0  0  0  0  0  0  0  0
    1.4350   29.1960  -23.1130 C   0  0  0  0  0  0  0  0  0  0  0  0
    1.7840   28.9630  -21.7100 C   0  0  0  0  0  0  0  0  0  0  0  0
    1.6920   30.3430  -23.6120 O   0  0  0  0  0  0  0  0  0  0  0  0
    0.4850   26.9220  -23.5620 C   0  0  0  0  0  0  0  0  0  0  0  0
   -0.9260   26.5320  -24.0090 C   0  0  0  0  0  0  0  0  0  0  0  0
   -0.8070   26.1120  -27.6230 C   0  0  0  0  0  0  0  0  0  0  0  0
   -1.1630   25.2540  -28.6710 C   0  0  0  0  0  0  0  0  0  0  0  0
   -2.2280   24.3860  -28.5710 C   0  0  0  0  0  0  0  0  0  0  0  0
   -2.6020   23.5090  -29.6250 N   0  0  0  0  0  0  0  0  0  0  0  0
   -3.7890   23.5450  -30.0960 C   0  0  0  0  0  0  0  0  0  0  0  0
   -4.7340   24.3980  -29.6290 N   0  0  0  0  0  0  0  0  0  0  0  0
   -5.9690   24.3990  -30.1550 C   0  0  0  0  0  0  0  0  0  0  0  0
   -6.2540   23.5150  -31.1800 C   0  0  0  0  0  0  0  0  0  0  0  0
   -7.8320   23.4500  -31.9220 Cl  0  0  0  0  0  0  0  0  0  0  0  0
   -5.2950   22.6310  -31.6710 C   0  0  0  0  0  0  0  0  0  0  0  0
   -5.5350   21.8040  -32.6180 N   0  0  0  0  0  0  0  0  0  0  0  0
   -4.5010   20.9350  -33.0630 C   0  0  0  0  0  0  0  0  0  0  0  0
   -3.2670   21.4840  -33.4010 C   0  0  0  0  0  0  0  0  0  0  0  0
   -2.2380   20.6640  -33.8390 C   0  0  0  0  0  0  0  0  0  0  0  0
   -2.4570   19.2990  -33.9310 C   0  0  0  0  0  0  0  0  0  0  0  0
   -3.7030   18.7650  -33.5860 C   0  0  0  0  0  0  0  0  0  0  0  0
   -4.7370   19.5750  -33.1480 C   0  0  0  0  0  0  0  0  0  0  0  0
   -6.2890   18.8780  -32.7230 S   0  0  0  0  0  0  0  0  0  0  0  0
   -6.4670   17.3040  -33.5360 C   0  0  0  0  0  0  0  0  0  0  0  0
   -7.4070   19.7660  -33.2370 O   0  0  0  0  0  0  0  0  0  0  0  0
   -6.4120   18.7150  -31.2380 O   0  0  0  0  0  0  0  0  0  0  0  0
   -4.0780   22.6810  -31.1010 N   0  0  0  0  0  0  0  0  0  0  0  0
   -3.7268   21.6199  -26.5005 H   0  0  0  0  0  0  0  0  0  0  0  0
   -4.6494   21.7180  -28.0386 H   0  0  0  0  0  0  0  0  0  0  0  0
   -2.8727   21.9824  -28.0386 H   0  0  0  0  0  0  0  0  0  0  0  0
   -3.1733   25.2144  -25.4294 H   0  0  0  0  0  0  0  0  0  0  0  0
   -1.1794   28.7117  -26.6111 H   0  0  0  0  0  0  0  0  0  0  0  0
   -1.5127   29.0215  -24.8923 H   0  0  0  0  0  0  0  0  0  0  0  0
    1.1532   28.0661  -26.0616 H   0  0  0  0  0  0  0  0  0  0  0  0
    0.8134   29.7226  -25.5237 H   0  0  0  0  0  0  0  0  0  0  0  0
    1.0450   29.4564  -21.0615 H   0  0  0  0  0  0  0  0  0  0  0  0
    1.7859   27.8818  -21.5073 H   0  0  0  0  0  0  0  0  0  0  0  0
    2.7833   29.3758  -21.5073 H   0  0  0  0  0  0  0  0  0  0  0  0
    1.2043   26.2148  -24.0007 H   0  0  0  0  0  0  0  0  0  0  0  0
    0.5133   26.8895  -22.4628 H   0  0  0  0  0  0  0  0  0  0  0  0
   -1.0385   25.4388  -23.9620 H   0  0  0  0  0  0  0  0  0  0  0  0
   -1.6681   27.0009  -23.3460 H   0  0  0  0  0  0  0  0  0  0  0  0
    0.0507   26.7896  -27.7467 H   0  0  0  0  0  0  0  0  0  0  0  0
   -0.5754   25.2737  -29.6007 H   0  0  0  0  0  0  0  0  0  0  0  0
   -4.4620   25.0370  -28.8620 H   0  0  0  0  0  0  0  0  0  0  0  0
   -6.7387   25.0888  -29.7786 H   0  0  0  0  0  0  0  0  0  0  0  0
   -3.1081   22.5695  -33.3205 H   0  0  0  0  0  0  0  0  0  0  0  0
   -1.2613   21.0914  -34.1097 H   0  0  0  0  0  0  0  0  0  0  0  0
   -1.6506   18.6349  -34.2755 H   0  0  0  0  0  0  0  0  0  0  0  0
   -3.8646   17.6798  -33.6642 H   0  0  0  0  0  0  0  0  0  0  0  0
   -6.5569   16.5093  -32.7808 H   0  0  0  0  0  0  0  0  0  0  0  0
   -7.3695   17.3161  -34.1648 H   0  0  0  0  0  0  0  0  0  0  0  0
   -5.5846   17.1142  -34.1648 H   0  0  0  0  0  0  0  0  0  0  0  0
   -3.3480   22.0330  -31.4500 H   0  0  0  0  0  0  0  0  0  0  0  0
  1  2  1  0
  2  3  1  0
  3  4  2  0
  4  5  1  0
  5  6  1  0
  6  7  1  0
  7  8  1  0
  8  9  1  0
  9 10  1  0
 10 11  1  0
 10 12  2  0
  9 13  1  0
 13 14  1  0
  5 15  2  0
 15 16  1  0
 16 17  2  0
 17 18  1  0
 18 19  2  0
 19 20  1  0
 20 21  1  0
 21 22  2  0
 22 23  1  0
 22 24  1  0
 24 25  2  0
 25 26  1  0
 26 27  2  0
 27 28  1  0
 28 29  2  0
 29 30  1  0
 30 31  2  0
 31 32  1  0
 32 33  1  0
 32 34  2  0
 32 35  2  0
 24 36  1  0
 17  3  1  0
 36 19  1  0
 14  6  1  0
 31 26  1  0
  1 37  1  0
  1 38  1  0
  1 39  1  0
  4 40  1  0
  7 41  1  0
  7 42  1  0
  8 43  1  0
  8 44  1  0
 11 45  1  0
 11 46  1  0
 11 47  1  0
 13 48  1  0
 13 49  1  0
 14 50  1  0
 14 51  1  0
 15 52  1  0
 16 53  1  0
 20 54  1  0
 21 55  1  0
 27 56  1  0
 28 57  1  0
 29 58  1  0
 30 59  1  0
 33 60  1  0
 33 61  1  0
 33 62  1  0
 36 63  1  0
M  END
>  <smiles>  (32) 
COc1cc(N2CCN(C(C)=O)CC2)ccc1N=c1[nH]cc(Cl)c(=Nc2ccccc2S(C)(=O)=O)[nH]1

>  <score_type>  (32) 
oracle

>  <origin>  (32) 
adgpu

>  <m_score__min__energy>  (32) 
-9.9800000000000004

>  <m_primary>  (32) 
energy

$$$$
32:0
     RDKit          3D

 44 46  0  0  0  0  0  0  0  0999 V2000
   -3.3760   22.3930  -29.4020 C   0  0  0  0  0  0  0  0  0  0  0  0
   -3.7050   23.7690  -29.0310 N   0  0  0  0  0  0  0  0  0  0  0  0
   -2.9700   24.4370  -27.9850 C   0  0  0  0  0  0  0  0  0  0  0  0
   -3.5560   24.6560  -26.7260 C   0  0  0  0  0  0  0  0  0  0  0  0
   -2.8440   25.3050  -25.7140 C   0  0  0  0  0  0  0  0  0  0  0  0
   -1.5330   25.7430  -25.9400 C   0  0  0  0  0  0  0  0  0  0  0  0
   -0.6240   26.5370  -24.6510 S   0  0  0  0  0  0  0  0  0  0  0  0
   -1.5530   26.8310  -23.5040 O   0  0  0  0  0  0  0  0  0  0  0  0
   -0.0850   27.8450  -25.1590 O   0  0  0  0  0  0  0  0  0  0  0  0
    0.6990   25.5420  -24.0840 N   0  0  0  0  0  0  0  0  0  0  0  0
    0.7410   24.2360  -24.7890 C   0  0  0  0  0  0  0  0  0  0  0  0
    1.8570   24.1910  -25.8500 C   0  0  0  0  0  0  0  0  0  0  0  0
    3.1520   24.4100  -25.3080 O   0  0  0  0  0  0  0  0  0  0  0  0
    3.1690   25.3150  -24.2080 C   0  0  0  0  0  0  0  0  0  0  0  0
    1.9750   26.2850  -24.1760 C   0  0  0  0  0  0  0  0  0  0  0  0
   -0.9490   25.5430  -27.1970 C   0  0  0  0  0  0  0  0  0  0  0  0
   -1.6600   24.8960  -28.2120 C   0  0  0  0  0  0  0  0  0  0  0  0
   -4.9540   24.6060  -29.9110 S   0  0  0  0  0  0  0  0  0  0  0  0
   -4.3200   25.5880  -30.8580 O   0  0  0  0  0  0  0  0  0  0  0  0
   -5.8370   25.3620  -28.9590 O   0  0  0  0  0  0  0  0  0  0  0  0
   -5.9140   23.4480  -30.8100 C   0  0  0  0  0  0  0  0  0  0  0  0
   -7.2310   23.1040  -30.5470 C   0  0  0  0  0  0  0  0  0  0  0  0
   -7.7390   22.1650  -31.4510 C   0  0  0  0  0  0  0  0  0  0  0  0
   -6.8230   21.7720  -32.4220 C   0  0  0  0  0  0  0  0  0  0  0  0
   -5.3810   22.5970  -32.1560 S   0  0  0  0  0  0  0  0  0  0  0  0
   -3.2323   21.7922  -28.4918 H   0  0  0  0  0  0  0  0  0  0  0  0
   -4.1976   21.9671  -29.9966 H   0  0  0  0  0  0  0  0  0  0  0  0
   -2.4506   22.3848  -29.9966 H   0  0  0  0  0  0  0  0  0  0  0  0
   -4.5839   24.3135  -26.5360 H   0  0  0  0  0  0  0  0  0  0  0  0
   -3.3156   25.4728  -24.7345 H   0  0  0  0  0  0  0  0  0  0  0  0
    0.5120   25.3520  -23.0710 H   0  0  0  0  0  0  0  0  0  0  0  0
    0.9192   23.4395  -24.0516 H   0  0  0  0  0  0  0  0  0  0  0  0
   -0.2220   24.0943  -25.3013 H   0  0  0  0  0  0  0  0  0  0  0  0
    1.8420   23.2022  -26.3318 H   0  0  0  0  0  0  0  0  0  0  0  0
    1.6605   25.0021  -26.5666 H   0  0  0  0  0  0  0  0  0  0  0  0
    3.1629   24.7283  -23.2775 H   0  0  0  0  0  0  0  0  0  0  0  0
    4.0750   25.9295  -24.3159 H   0  0  0  0  0  0  0  0  0  0  0  0
    2.0710   26.9469  -23.3027 H   0  0  0  0  0  0  0  0  0  0  0  0
    1.9741   26.8750  -25.1044 H   0  0  0  0  0  0  0  0  0  0  0  0
    0.0750   25.8970  -27.3868 H   0  0  0  0  0  0  0  0  0  0  0  0
   -1.1914   24.7447  -29.1956 H   0  0  0  0  0  0  0  0  0  0  0  0
   -7.8149   23.5250  -29.7152 H   0  0  0  0  0  0  0  0  0  0  0  0
   -8.7659   21.7741  -31.3991 H   0  0  0  0  0  0  0  0  0  0  0  0
   -7.0099   21.0456  -33.2266 H   0  0  0  0  0  0  0  0  0  0  0  0
  1  2  1  0
  2  3  1  0
  3  4  2  0
  4  5  1  0
  5  6  2  0
  6  7  1  0
  7  8  2  0
  7  9  2  0
  7 10  1  0
 10 11  1  0
 11 12  1  0
 12 13  1  0
 13 14  1  0
 14 15  1  0
  6 16  1  0
 16 17  2  0
  2 18  1  0
 18 19  2  0
 18 20  2  0
 18 21  1  0
 21 22  2  0
 22 23  1  0
 23 24  2  0
 24 25  1  0
 17  3  1  0
 25 21  1  0
 15 10  1  0
  1 26  1  0
  1 27  1  0
  1 28  1  0
  4 29  1  0
  5 30  1  0
 10 31  1  0
 11 32  1  0
 11 33  1  0
 12 34  1  0
 12 35  1  0
 14 36  1  0
 14 37  1  0
 15 38  1  0
 15 39  1  0
 16 40  1  0
 17 41  1  0
 22 42  1  0
 23 43  1  0
 24 44  1  0
M  CHG  1  10   1
M  END
>  <UniqueID>  (33) 
31

>  <SMILES>  (33) 
CN(c1ccc(S(=O)(=O)[NH+]2CCOCC2)cc1)S(=O)(=O)c1cccs1

>  <Energy>  (33) 
86.68965052033073

>  <Genealogy>  (33) 
CN(c1ccc(S(=O)(=O)[NH+]2CCOCC2)cc1)S(=O)(=O)c1cccs1 (protonated)
CN(c1ccc(S(=O)(=O)[NH+]2CCOCC2)cc1)S(=O)(=O)c1cccs1 (3D coordinates assigned)
CN(c1ccc(S(=O)(=O)[NH+]2CCOCC2)cc1)S(=O)(=O)c1cccs1 (nonaromatic ring conformer: 86.68965052033073 kcal/mol)

>  <smiles>  (33) 
CN(c1ccc(S(=O)(=O)N2CCOCC2)cc1)S(=O)(=O)c1cccs1

>  <score_type>  (33) 
oracle

>  <origin>  (33) 
adgpu

>  <m_score__min__energy>  (33) 
-8.8000000000000007

>  <m_primary>  (33) 
energy

$$$$
33:0
     RDKit          3D

 66 69  0  0  0  0  0  0  0  0999 V2000
   -8.8400   19.7630  -32.7350 C   0  0  0  0  0  0  0  0  0  0  0  0
   -7.7210   20.6590  -32.3460 C   0  0  0  0  0  0  0  0  0  0  0  0
   -7.8420   21.5680  -31.3000 C   0  0  0  0  0  0  0  0  0  0  0  0
   -6.8010   22.3910  -30.9490 C   0  0  0  0  0  0  0  0  0  0  0  0
   -6.8460   23.3840  -29.8550 C   0  0  0  0  0  0  0  0  0  0  0  0
   -5.7450   24.3870  -30.0610 C   0  0  0  0  0  0  0  0  0  0  0  0
   -4.9160   24.4920  -28.8280 C   0  0  0  0  0  0  0  0  0  0  0  0
   -3.4870   24.1390  -29.0710 C   0  0  0  0  0  0  0  0  0  0  0  0
   -3.2300   23.0110  -29.8040 C   0  0  0  0  0  0  0  0  0  0  0  0
   -1.9200   22.6150  -30.0720 C   0  0  0  0  0  0  0  0  0  0  0  0
   -1.6800   21.5480  -30.7650 N   0  0  0  0  0  0  0  0  0  0  0  0
   -0.9440   23.3990  -29.5720 N   0  0  0  0  0  0  0  0  0  0  0  0
   -1.2280   24.5010  -28.8570 C   0  0  0  0  0  0  0  0  0  0  0  0
   -0.2570   25.2400  -28.3870 N   0  0  0  0  0  0  0  0  0  0  0  0
   -2.4880   24.8990  -28.5870 N   0  0  0  0  0  0  0  0  0  0  0  0
   -5.5970   22.3110  -31.6590 C   0  0  0  0  0  0  0  0  0  0  0  0
   -5.4470   21.4200  -32.7000 C   0  0  0  0  0  0  0  0  0  0  0  0
   -4.1570   21.3340  -33.4610 C   0  0  0  0  0  0  0  0  0  0  0  0
   -6.5260   20.5940  -33.0340 C   0  0  0  0  0  0  0  0  0  0  0  0
   -6.3030   19.7220  -34.0930 O   0  0  0  0  0  0  0  0  0  0  0  0
   -5.8680   18.4380  -33.8650 C   0  0  0  0  0  0  0  0  0  0  0  0
   -4.5620   18.2580  -33.4640 C   0  0  0  0  0  0  0  0  0  0  0  0
   -4.0480   17.0030  -33.2140 C   0  0  0  0  0  0  0  0  0  0  0  0
   -2.7260   16.8540  -32.8110 O   0  0  0  0  0  0  0  0  0  0  0  0
   -1.7260   17.5410  -33.4880 C   0  0  0  0  0  0  0  0  0  0  0  0
   -0.8670   16.7520  -34.2580 C   0  0  0  0  0  0  0  0  0  0  0  0
    0.1720   17.3150  -34.9830 C   0  0  0  0  0  0  0  0  0  0  0  0
    0.3310   18.6810  -34.9180 C   0  0  0  0  0  0  0  0  0  0  0  0
   -0.5270   19.4530  -34.1500 C   0  0  0  0  0  0  0  0  0  0  0  0
   -0.3110   20.8910  -34.1180 C   0  0  0  0  0  0  0  0  0  0  0  0
   -0.0590   21.5460  -33.0270 N   0  0  0  0  0  0  0  0  0  0  0  0
   -0.3790   21.6210  -35.3500 N   0  0  0  0  0  0  0  0  0  0  0  0
   -1.5690   18.8980  -33.4210 C   0  0  0  0  0  0  0  0  0  0  0  0
   -4.8830   15.9600  -33.3830 N   0  0  0  0  0  0  0  0  0  0  0  0
   -6.1730   16.0910  -33.7760 C   0  0  0  0  0  0  0  0  0  0  0  0
   -6.9190   15.0470  -33.9170 N   0  0  0  0  0  0  0  0  0  0  0  0
   -6.6300   17.3390  -34.0070 N   0  0  0  0  0  0  0  0  0  0  0  0
   -9.3282   19.3721  -31.8301 H   0  0  0  0  0  0  0  0  0  0  0  0
   -9.5716   20.3278  -33.3315 H   0  0  0  0  0  0  0  0  0  0  0  0
   -8.4489   18.9256  -33.3315 H   0  0  0  0  0  0  0  0  0  0  0  0
   -8.7892   21.6284  -30.7440 H   0  0  0  0  0  0  0  0  0  0  0  0
   -7.8189   23.8972  -29.8621 H   0  0  0  0  0  0  0  0  0  0  0  0
   -6.7127   22.8782  -28.8873 H   0  0  0  0  0  0  0  0  0  0  0  0
   -5.1109   24.0650  -30.9002 H   0  0  0  0  0  0  0  0  0  0  0  0
   -6.1875   25.3691  -30.2839 H   0  0  0  0  0  0  0  0  0  0  0  0
   -4.9660   25.5259  -28.4558 H   0  0  0  0  0  0  0  0  0  0  0  0
   -5.3170   23.7788  -28.0928 H   0  0  0  0  0  0  0  0  0  0  0  0
   -4.0679   22.4095  -30.1863 H   0  0  0  0  0  0  0  0  0  0  0  0
   -0.7290   21.2040  -30.9970 H   0  0  0  0  0  0  0  0  0  0  0  0
    0.0440   23.1080  -29.7720 H   0  0  0  0  0  0  0  0  0  0  0  0
    0.7450   24.9470  -28.5870 H   0  0  0  0  0  0  0  0  0  0  0  0
   -2.7000   25.7670  -28.0230 H   0  0  0  0  0  0  0  0  0  0  0  0
   -4.7593   22.9681  -31.3824 H   0  0  0  0  0  0  0  0  0  0  0  0
   -3.3168   21.2780  -32.7532 H   0  0  0  0  0  0  0  0  0  0  0  0
   -4.1639   20.4343  -34.0939 H   0  0  0  0  0  0  0  0  0  0  0  0
   -4.0444   22.2266  -34.0939 H   0  0  0  0  0  0  0  0  0  0  0  0
   -3.9131   19.1375  -33.3402 H   0  0  0  0  0  0  0  0  0  0  0  0
   -1.0183   15.6629  -34.2894 H   0  0  0  0  0  0  0  0  0  0  0  0
    0.8460   16.6919  -35.5892 H   0  0  0  0  0  0  0  0  0  0  0  0
    1.1447   19.1633  -35.4795 H   0  0  0  0  0  0  0  0  0  0  0  0
   -0.0080   21.0190  -32.1230 H   0  0  0  0  0  0  0  0  0  0  0  0
   -0.5070   22.6470  -35.4020 H   0  0  0  0  0  0  0  0  0  0  0  0
   -0.2970   21.1070  -36.2670 H   0  0  0  0  0  0  0  0  0  0  0  0
   -2.2407   19.5233  -32.8145 H   0  0  0  0  0  0  0  0  0  0  0  0
   -6.4780   14.1230  -33.7160 H   0  0  0  0  0  0  0  0  0  0  0  0
   -7.6220   17.4480  -34.3100 H   0  0  0  0  0  0  0  0  0  0  0  0
  1  2  1  0
  2  3  2  0
  3  4  1  0
  4  5  1  0
  5  6  1  0
  6  7  1  0
  7  8  1  0
  8  9  2  0
  9 10  1  0
 10 11  2  3
 10 12  1  0
 12 13  1  0
 13 14  2  3
 13 15  1  0
  4 16  2  0
 16 17  1  0
 17 18  1  0
 17 19  2  0
 19 20  1  0
 20 21  1  0
 21 22  2  0
 22 23  1  0
 23 24  1  0
 24 25  1  0
 25 26  2  0
 26 27  1  0
 27 28  2  0
 28 29  1  0
 29 30  1  0
 30 31  2  3
 30 32  1  0
 29 33  2  0
 23 34  2  0
 34 35  1  0
 35 36  2  3
 35 37  1  0
 19  2  1  0
 37 21  1  0
 15  8  1  0
 33 25  1  0
  1 38  1  0
  1 39  1  0
  1 40  1  0
  3 41  1  0
  5 42  1  0
  5 43  1  0
  6 44  1  0
  6 45  1  0
  7 46  1  0
  7 47  1  0
  9 48  1  0
 11 49  1  0
 12 50  1  0
 14 51  1  0
 15 52  1  0
 16 53  1  0
 18 54  1  0
 18 55  1  0
 18 56  1  0
 22 57  1  0
 26 58  1  0
 27 59  1  0
 28 60  1  0
 31 61  1  0
 32 62  1  0
 32 63  1  0
 33 64  1  0
 36 65  1  0
 37 66  1  0
M  END
>  <smiles>  (34) 
Cc1cc(CCCc2cc(=N)[nH]c(=N)[nH]2)cc(C)c1Oc1cc(Oc2cccc(C(=N)N)c2)nc(=N)[nH]1

>  <score_type>  (34) 
oracle

>  <origin>  (34) 
adgpu

>  <m_score__min__energy>  (34) 
-12.01

>  <m_primary>  (34) 
energy

$$$$
34:0
     RDKit          3D

 52 54  0  0  0  0  0  0  0  0999 V2000
   -7.6000   19.3380  -32.7280 C   0  0  0  0  0  0  0  0  0  0  0  0
   -8.7370   19.3460  -31.7030 C   0  0  0  0  0  0  0  0  0  0  0  0
   -9.0200   20.7800  -31.2120 C   0  0  0  0  0  0  0  0  0  0  0  0
   -8.4550   21.8540  -32.1690 C   0  0  0  0  0  0  0  0  0  0  0  0
   -8.0040   23.1400  -31.4540 C   0  0  0  0  0  0  0  0  0  0  0  0
   -6.5110   23.1880  -31.2460 C   0  0  0  0  0  0  0  0  0  0  0  0
   -5.7370   22.0250  -31.3950 C   0  0  0  0  0  0  0  0  0  0  0  0
   -4.3450   22.0850  -31.2680 C   0  0  0  0  0  0  0  0  0  0  0  0
   -3.7070   23.3090  -30.9870 C   0  0  0  0  0  0  0  0  0  0  0  0
   -2.3140   23.3940  -30.8370 O   0  0  0  0  0  0  0  0  0  0  0  0
   -1.4780   22.3440  -30.4200 C   0  0  0  0  0  0  0  0  0  0  0  0
   -1.3440   21.9840  -29.0670 C   0  0  0  0  0  0  0  0  0  0  0  0
   -0.5540   20.8920  -28.7070 C   0  0  0  0  0  0  0  0  0  0  0  0
    0.0920   20.1390  -29.6910 C   0  0  0  0  0  0  0  0  0  0  0  0
   -0.0160   20.4930  -31.0410 C   0  0  0  0  0  0  0  0  0  0  0  0
    0.6370   19.6750  -32.0160 N   0  0  0  0  0  0  0  0  0  0  0  0
    0.1440   19.4930  -33.6710 S   0  0  0  0  0  0  0  0  0  0  0  0
    0.6170   18.1600  -34.1730 O   0  0  0  0  0  0  0  0  0  0  0  0
   -1.3500   19.5130  -33.7310 O   0  0  0  0  0  0  0  0  0  0  0  0
    0.7540   20.7950  -34.6940 C   0  0  0  0  0  0  0  0  0  0  0  0
   -0.0980   21.8630  -35.0670 C   0  0  0  0  0  0  0  0  0  0  0  0
    0.3730   22.8840  -35.9000 C   0  0  0  0  0  0  0  0  0  0  0  0
    1.7030   22.8520  -36.3600 C   0  0  0  0  0  0  0  0  0  0  0  0
    2.1680   23.8660  -37.1950 O   0  0  0  0  0  0  0  0  0  0  0  0
    2.5630   21.7970  -35.9820 C   0  0  0  0  0  0  0  0  0  0  0  0
    2.0910   20.7730  -35.1500 C   0  0  0  0  0  0  0  0  0  0  0  0
   -0.8050   21.5990  -31.3980 C   0  0  0  0  0  0  0  0  0  0  0  0
   -4.4810   24.4630  -30.8060 C   0  0  0  0  0  0  0  0  0  0  0  0
   -3.8670   25.6750  -30.4990 O   0  0  0  0  0  0  0  0  0  0  0  0
   -5.8720   24.4080  -30.9450 C   0  0  0  0  0  0  0  0  0  0  0  0
   -6.6333   19.3312  -32.2032 H   0  0  0  0  0  0  0  0  0  0  0  0
   -7.6812   18.4404  -33.3587 H   0  0  0  0  0  0  0  0  0  0  0  0
   -7.6685   20.2366  -33.3587 H   0  0  0  0  0  0  0  0  0  0  0  0
   -9.6460   18.9383  -32.1693 H   0  0  0  0  0  0  0  0  0  0  0  0
   -8.4400   18.7300  -30.8414 H   0  0  0  0  0  0  0  0  0  0  0  0
  -10.1084   20.9170  -31.1307 H   0  0  0  0  0  0  0  0  0  0  0  0
   -8.5236   20.9046  -30.2383 H   0  0  0  0  0  0  0  0  0  0  0  0
   -7.5894   21.4281  -32.6976 H   0  0  0  0  0  0  0  0  0  0  0  0
   -9.2677   22.1344  -32.8553 H   0  0  0  0  0  0  0  0  0  0  0  0
   -8.3041   24.0062  -32.0620 H   0  0  0  0  0  0  0  0  0  0  0  0
   -8.4817   23.1584  -30.4633 H   0  0  0  0  0  0  0  0  0  0  0  0
   -6.2269   21.0644  -31.6122 H   0  0  0  0  0  0  0  0  0  0  0  0
   -3.7452   21.1708  -31.3883 H   0  0  0  0  0  0  0  0  0  0  0  0
   -1.8634   22.5650  -28.2907 H   0  0  0  0  0  0  0  0  0  0  0  0
   -0.4394   20.6232  -27.6465 H   0  0  0  0  0  0  0  0  0  0  0  0
    0.6897   19.2617  -29.4027 H   0  0  0  0  0  0  0  0  0  0  0  0
   -1.1347   21.8901  -34.7003 H   0  0  0  0  0  0  0  0  0  0  0  0
   -0.2934   23.7083  -36.1942 H   0  0  0  0  0  0  0  0  0  0  0  0
    3.6028   21.7793  -36.3406 H   0  0  0  0  0  0  0  0  0  0  0  0
    2.7608   19.9528  -34.8522 H   0  0  0  0  0  0  0  0  0  0  0  0
   -0.8957   21.8835  -32.4567 H   0  0  0  0  0  0  0  0  0  0  0  0
   -6.4706   25.3221  -30.8187 H   0  0  0  0  0  0  0  0  0  0  0  0
  1  2  1  0
  2  3  1  0
  3  4  1  0
  4  5  1  0
  5  6  1  0
  6  7  2  0
  7  8  1  0
  8  9  2  0
  9 10  1  0
 10 11  1  0
 11 12  2  0
 12 13  1  0
 13 14  2  0
 14 15  1  0
 15 16  1  0
 16 17  1  0
 17 18  2  0
 17 19  2  0
 17 20  1  0
 20 21  2  0
 21 22  1  0
 22 23  2  0
 23 24  1  0
 23 25  1  0
 25 26  2  0
 15 27  2  0
  9 28  1  0
 28 29  1  0
 28 30  2  0
 30  6  1  0
 27 11  1  0
 26 20  1  0
  1 31  1  0
  1 32  1  0
  1 33  1  0
  2 34  1  0
  2 35  1  0
  3 36  1  0
  3 37  1  0
  4 38  1  0
  4 39  1  0
  5 40  1  0
  5 41  1  0
  7 42  1  0
  8 43  1  0
 12 44  1  0
 13 45  1  0
 14 46  1  0
 21 47  1  0
 22 48  1  0
 25 49  1  0
 26 50  1  0
 27 51  1  0
 30 52  1  0
M  CHG  3  16  -1  24  -1  29  -1
M  END
>  <UniqueID>  (35) 
32

>  <SMILES>  (35) 
CCCCCc1ccc(Oc2cccc([N-]S(=O)(=O)c3ccc([O-])cc3)c2)c([O-])c1

>  <Energy>  (35) 
60.400396036270635

>  <Genealogy>  (35) 
CCCCCc1ccc(Oc2cccc([N-]S(=O)(=O)c3ccc([O-])cc3)c2)c([O-])c1 (protonated)
CCCCCc1ccc(Oc2cccc([N-]S(=O)(=O)c3ccc([O-])cc3)c2)c([O-])c1 (3D coordinates assigned)
CCCCCc1ccc(Oc2cccc([N-]S(=O)(=O)c3ccc([O-])cc3)c2)c([O-])c1 (optimized conformer: 60.400396036270635 kcal/mol)

>  <smiles>  (35) 
CCCCCc1ccc(Oc2cccc(NS(=O)(=O)c3ccc(O)cc3)c2)c(O)c1

>  <score_type>  (35) 
oracle

>  <origin>  (35) 
adgpu

>  <m_score__min__energy>  (35) 
-13.039999999999999

>  <m_primary>  (35) 
energy

$$$$
35:0
     RDKit          3D

 54 57  0  0  0  0  0  0  0  0999 V2000
   -1.8790   25.3900  -28.9820 O   0  0  0  0  0  0  0  0  0  0  0  0
   -2.6880   24.5960  -29.5300 C   0  0  0  0  0  0  0  0  0  0  0  0
   -3.9260   25.1160  -30.0290 N   0  0  0  0  0  0  0  0  0  0  0  0
   -5.0800   24.3510  -30.4080 C   0  0  0  0  0  0  0  0  0  0  0  0
   -5.6130   23.4390  -29.4890 C   0  0  0  0  0  0  0  0  0  0  0  0
   -6.7520   22.6970  -29.8070 C   0  0  0  0  0  0  0  0  0  0  0  0
   -7.3720   22.8550  -31.0550 C   0  0  0  0  0  0  0  0  0  0  0  0
   -8.8160   21.9180  -31.4620 S   0  0  0  0  0  0  0  0  0  0  0  0
   -9.7410   22.7740  -32.2830 O   0  0  0  0  0  0  0  0  0  0  0  0
   -9.5330   21.5470  -30.1930 O   0  0  0  0  0  0  0  0  0  0  0  0
   -8.4490   20.4640  -32.3560 N   0  0  0  0  0  0  0  0  0  0  0  0
   -7.0410   20.3830  -32.7220 C   0  0  0  0  0  0  0  0  0  0  0  0
   -6.7310   18.9090  -32.9080 C   0  0  0  0  0  0  0  0  0  0  0  0
   -7.7930   18.1730  -32.1080 C   0  0  0  0  0  0  0  0  0  0  0  0
   -8.7230   19.2560  -31.5820 C   0  0  0  0  0  0  0  0  0  0  0  0
   -6.8590   23.7890  -31.9660 C   0  0  0  0  0  0  0  0  0  0  0  0
   -5.7280   24.5430  -31.6410 C   0  0  0  0  0  0  0  0  0  0  0  0
   -2.3550   23.1570  -29.6120 C   0  0  0  0  0  0  0  0  0  0  0  0
   -2.1580   22.3940  -28.4480 C   0  0  0  0  0  0  0  0  0  0  0  0
   -1.8580   21.0300  -28.5390 C   0  0  0  0  0  0  0  0  0  0  0  0
   -1.7560   20.4160  -29.7910 C   0  0  0  0  0  0  0  0  0  0  0  0
   -1.9390   21.1700  -30.9610 C   0  0  0  0  0  0  0  0  0  0  0  0
   -1.8610   20.4100  -32.5480 S   0  0  0  0  0  0  0  0  0  0  0  0
   -1.4920   18.9630  -32.3630 O   0  0  0  0  0  0  0  0  0  0  0  0
   -3.1960   20.4950  -33.2380 O   0  0  0  0  0  0  0  0  0  0  0  0
   -0.6580   21.2280  -33.4970 N   0  0  0  0  0  0  0  0  0  0  0  0
    0.0440   20.6700  -34.6150 C   0  0  0  0  0  0  0  0  0  0  0  0
   -0.0780   19.3140  -34.9730 C   0  0  0  0  0  0  0  0  0  0  0  0
    0.6500   18.7980  -36.0530 C   0  0  0  0  0  0  0  0  0  0  0  0
    1.4870   19.6270  -36.8000 C   0  0  0  0  0  0  0  0  0  0  0  0
    1.5920   20.9820  -36.4680 C   0  0  0  0  0  0  0  0  0  0  0  0
    0.8760   21.5030  -35.3760 C   0  0  0  0  0  0  0  0  0  0  0  0
    1.0000   22.8510  -35.0490 O   0  0  0  0  0  0  0  0  0  0  0  0
   -2.2320   22.5370  -30.8660 C   0  0  0  0  0  0  0  0  0  0  0  0
   -5.1308   23.3062  -28.5093 H   0  0  0  0  0  0  0  0  0  0  0  0
   -7.1646   21.9859  -29.0761 H   0  0  0  0  0  0  0  0  0  0  0  0
   -6.8591   20.9311  -33.6582 H   0  0  0  0  0  0  0  0  0  0  0  0
   -6.4011   20.8305  -31.9473 H   0  0  0  0  0  0  0  0  0  0  0  0
   -6.7898   18.6339  -33.9714 H   0  0  0  0  0  0  0  0  0  0  0  0
   -5.7148   18.6574  -32.5704 H   0  0  0  0  0  0  0  0  0  0  0  0
   -8.3438   17.4720  -32.7524 H   0  0  0  0  0  0  0  0  0  0  0  0
   -7.3537   17.5788  -31.2931 H   0  0  0  0  0  0  0  0  0  0  0  0
   -9.7716   18.9514  -31.7150 H   0  0  0  0  0  0  0  0  0  0  0  0
   -8.5568   19.4302  -30.5087 H   0  0  0  0  0  0  0  0  0  0  0  0
   -7.3488   23.9290  -32.9409 H   0  0  0  0  0  0  0  0  0  0  0  0
   -5.3435   25.2890  -32.3521 H   0  0  0  0  0  0  0  0  0  0  0  0
   -2.2401   22.8715  -27.4604 H   0  0  0  0  0  0  0  0  0  0  0  0
   -1.7022   20.4399  -27.6238 H   0  0  0  0  0  0  0  0  0  0  0  0
   -1.5322   19.3412  -29.8593 H   0  0  0  0  0  0  0  0  0  0  0  0
   -0.7488   18.6558  -34.4014 H   0  0  0  0  0  0  0  0  0  0  0  0
    0.5611   17.7330  -36.3134 H   0  0  0  0  0  0  0  0  0  0  0  0
    2.0608   19.2180  -37.6447 H   0  0  0  0  0  0  0  0  0  0  0  0
    2.2380   21.6431  -37.0644 H   0  0  0  0  0  0  0  0  0  0  0  0
   -2.3670   23.1301  -31.7825 H   0  0  0  0  0  0  0  0  0  0  0  0
  1  2  2  0
  2  3  1  0
  3  4  1  0
  4  5  2  0
  5  6  1  0
  6  7  2  0
  7  8  1  0
  8  9  2  0
  8 10  2  0
  8 11  1  0
 11 12  1  0
 12 13  1  0
 13 14  1  0
 14 15  1  0
  7 16  1  0
 16 17  2  0
  2 18  1  0
 18 19  2  0
 19 20  1  0
 20 21  2  0
 21 22  1  0
 22 23  1  0
 23 24  2  0
 23 25  2  0
 23 26  1  0
 26 27  1  0
 27 28  2  0
 28 29  1  0
 29 30  2  0
 30 31  1  0
 31 32  2  0
 32 33  1  0
 22 34  2  0
 17  4  1  0
 34 18  1  0
 15 11  1  0
 32 27  1  0
  5 35  1  0
  6 36  1  0
 12 37  1  0
 12 38  1  0
 13 39  1  0
 13 40  1  0
 14 41  1  0
 14 42  1  0
 15 43  1  0
 15 44  1  0
 16 45  1  0
 17 46  1  0
 19 47  1  0
 20 48  1  0
 21 49  1  0
 28 50  1  0
 29 51  1  0
 30 52  1  0
 31 53  1  0
 34 54  1  0
M  CHG  3   3  -1  26  -1  33  -1
M  END
>  <UniqueID>  (36) 
33

>  <SMILES>  (36) 
O=C([N-]c1ccc(S(=O)(=O)N2CCCC2)cc1)c1cccc(S(=O)(=O)[N-]c2ccccc2[O-])c1

>  <Energy>  (36) 
70.87942276334151

>  <Genealogy>  (36) 
O=C([N-]c1ccc(S(=O)(=O)N2CCCC2)cc1)c1cccc(S(=O)(=O)[N-]c2ccccc2[O-])c1 (protonated)
O=C([N-]c1ccc(S(=O)(=O)N2CCCC2)cc1)c1cccc(S(=O)(=O)[N-]c2ccccc2[O-])c1 (3D coordinates assigned)
O=C([N-]c1ccc(S(=O)(=O)N2CCCC2)cc1)c1cccc(S(=O)(=O)[N-]c2ccccc2[O-])c1 (nonaromatic ring conformer: 70.87942276334151 kcal/mol)

>  <smiles>  (36) 
O=C(Nc1ccc(S(=O)(=O)N2CCCC2)cc1)c1cccc(S(=O)(=O)Nc2ccccc2O)c1

>  <score_type>  (36) 
oracle

>  <origin>  (36) 
adgpu

>  <m_score__min__energy>  (36) 
-14.92

>  <m_primary>  (36) 
energy

$$$$
36:0
     RDKit          3D

 46 48  0  0  0  0  0  0  0  0999 V2000
   -2.3190   20.2070  -27.7710 C   0  0  0  0  0  0  0  0  0  0  0  0
   -2.2140   21.6400  -28.2030 C   0  0  0  0  0  0  0  0  0  0  0  0
   -0.9610   22.2180  -28.4470 C   0  0  0  0  0  0  0  0  0  0  0  0
   -0.8680   23.5610  -28.8170 C   0  0  0  0  0  0  0  0  0  0  0  0
   -2.0230   24.3380  -28.9500 C   0  0  0  0  0  0  0  0  0  0  0  0
   -1.9060   25.6690  -29.3360 O   0  0  0  0  0  0  0  0  0  0  0  0
   -3.2890   23.7740  -28.7070 C   0  0  0  0  0  0  0  0  0  0  0  0
   -4.4750   24.5720  -28.8610 N   0  0  0  0  0  0  0  0  0  0  0  0
   -5.4070   24.5900  -30.3240 S   0  0  0  0  0  0  0  0  0  0  0  0
   -6.8530   24.8480  -29.9980 O   0  0  0  0  0  0  0  0  0  0  0  0
   -4.9140   25.6940  -31.2160 O   0  0  0  0  0  0  0  0  0  0  0  0
   -5.2140   23.0530  -31.1640 C   0  0  0  0  0  0  0  0  0  0  0  0
   -3.9440   22.6600  -31.5990 C   0  0  0  0  0  0  0  0  0  0  0  0
   -3.7640   21.4150  -32.2030 C   0  0  0  0  0  0  0  0  0  0  0  0
   -4.8510   20.5550  -32.3750 C   0  0  0  0  0  0  0  0  0  0  0  0
   -6.1420   20.9400  -31.9580 C   0  0  0  0  0  0  0  0  0  0  0  0
   -6.3090   22.1940  -31.3420 C   0  0  0  0  0  0  0  0  0  0  0  0
   -7.2290   19.9920  -32.1230 N   0  0  0  0  0  0  0  0  0  0  0  0
   -8.6400   20.3640  -32.3840 C   0  0  0  0  0  0  0  0  0  0  0  0
   -9.4930   19.1320  -32.7100 C   0  0  0  0  0  0  0  0  0  0  0  0
   -9.2450   21.2240  -31.2650 C   0  0  0  0  0  0  0  0  0  0  0  0
   -6.8430   18.5730  -32.2100 C   0  0  0  0  0  0  0  0  0  0  0  0
   -5.7320   18.4150  -33.2480 C   0  0  0  0  0  0  0  0  0  0  0  0
   -4.6470   19.2890  -32.9390 O   0  0  0  0  0  0  0  0  0  0  0  0
   -3.3700   22.4280  -28.3050 C   0  0  0  0  0  0  0  0  0  0  0  0
   -2.3228   20.1546  -26.6723 H   0  0  0  0  0  0  0  0  0  0  0  0
   -3.2513   19.7735  -28.1620 H   0  0  0  0  0  0  0  0  0  0  0  0
   -1.4598   19.6423  -28.1620 H   0  0  0  0  0  0  0  0  0  0  0  0
   -0.0484   21.6121  -28.3468 H   0  0  0  0  0  0  0  0  0  0  0  0
    0.1185   24.0100  -29.0048 H   0  0  0  0  0  0  0  0  0  0  0  0
   -4.6960   25.3050  -28.1510 H   0  0  0  0  0  0  0  0  0  0  0  0
   -3.0851   23.3340  -31.4646 H   0  0  0  0  0  0  0  0  0  0  0  0
   -2.7637   21.1102  -32.5444 H   0  0  0  0  0  0  0  0  0  0  0  0
   -7.3066   22.5035  -30.9970 H   0  0  0  0  0  0  0  0  0  0  0  0
   -8.6421   21.0032  -33.2792 H   0  0  0  0  0  0  0  0  0  0  0  0
   -9.8224   18.6562  -31.7746 H   0  0  0  0  0  0  0  0  0  0  0  0
  -10.3726   19.4393  -33.2946 H   0  0  0  0  0  0  0  0  0  0  0  0
   -8.8958   18.4168  -33.2946 H   0  0  0  0  0  0  0  0  0  0  0  0
   -8.9546   20.8112  -30.2876 H   0  0  0  0  0  0  0  0  0  0  0  0
   -8.8723   22.2552  -31.3529 H   0  0  0  0  0  0  0  0  0  0  0  0
  -10.3415   21.2217  -31.3529 H   0  0  0  0  0  0  0  0  0  0  0  0
   -6.4815   18.2297  -31.2295 H   0  0  0  0  0  0  0  0  0  0  0  0
   -7.7144   17.9714  -32.5081 H   0  0  0  0  0  0  0  0  0  0  0  0
   -5.3744   17.3748  -33.2433 H   0  0  0  0  0  0  0  0  0  0  0  0
   -6.1282   18.6690  -34.2422 H   0  0  0  0  0  0  0  0  0  0  0  0
   -4.3504   21.9890  -28.0682 H   0  0  0  0  0  0  0  0  0  0  0  0
  1  2  1  0
  2  3  2  0
  3  4  1  0
  4  5  2  0
  5  6  1  0
  5  7  1  0
  7  8  1  0
  8  9  1  0
  9 10  2  0
  9 11  2  0
  9 12  1  0
 12 13  2  0
 13 14  1  0
 14 15  2  0
 15 16  1  0
 16 17  2  0
 16 18  1  0
 18 19  1  0
 19 20  1  0
 19 21  1  0
 18 22  1  0
 22 23  1  0
 23 24  1  0
  7 25  2  0
 25  2  1  0
 17 12  1  0
 24 15  1  0
  1 26  1  0
  1 27  1  0
  1 28  1  0
  3 29  1  0
  4 30  1  0
  8 31  1  0
 13 32  1  0
 14 33  1  0
 17 34  1  0
 19 35  1  0
 20 36  1  0
 20 37  1  0
 20 38  1  0
 21 39  1  0
 21 40  1  0
 21 41  1  0
 22 42  1  0
 22 43  1  0
 23 44  1  0
 23 45  1  0
 25 46  1  0
M  CHG  1   6  -1
M  END
>  <UniqueID>  (37) 
34

>  <SMILES>  (37) 
Cc1ccc([O-])c(NS(=O)(=O)c2ccc3c(c2)N(C(C)C)CCO3)c1

>  <Energy>  (37) 
51.47222048926994

>  <Genealogy>  (37) 
Cc1ccc([O-])c(NS(=O)(=O)c2ccc3c(c2)N(C(C)C)CCO3)c1 (protonated)
Cc1ccc([O-])c(NS(=O)(=O)c2ccc3c(c2)N(C(C)C)CCO3)c1 (3D coordinates assigned)
Cc1ccc([O-])c(NS(=O)(=O)c2ccc3c(c2)N(C(C)C)CCO3)c1 (nonaromatic ring conformer: 51.47222048926994 kcal/mol)

>  <smiles>  (37) 
Cc1ccc(O)c(NS(=O)(=O)c2ccc3c(c2)N(C(C)C)CCO3)c1

>  <score_type>  (37) 
oracle

>  <origin>  (37) 
adgpu

>  <m_score__min__energy>  (37) 
-12.800000000000001

>  <m_primary>  (37) 
energy

$$$$
37:0
     RDKit          3D

 45 47  0  0  0  0  0  0  0  0999 V2000
   -0.7810   27.0460  -23.9440 C   0  0  0  0  0  0  0  0  0  0  0  0
   -0.4250   27.3270  -25.4000 C   0  0  0  0  0  0  0  0  0  0  0  0
   -1.1240   26.3610  -26.3180 C   0  0  0  0  0  0  0  0  0  0  0  0
   -2.3850   25.8500  -25.9790 C   0  0  0  0  0  0  0  0  0  0  0  0
   -3.0200   24.9280  -26.8160 C   0  0  0  0  0  0  0  0  0  0  0  0
   -2.4090   24.5070  -28.0060 C   0  0  0  0  0  0  0  0  0  0  0  0
   -3.0740   23.5390  -28.8340 N   0  0  0  0  0  0  0  0  0  0  0  0
   -3.7490   23.8580  -30.0630 C   0  0  0  0  0  0  0  0  0  0  0  0
   -3.8080   25.0510  -30.4660 O   0  0  0  0  0  0  0  0  0  0  0  0
   -4.3900   22.8010  -30.8700 C   0  0  0  0  0  0  0  0  0  0  0  0
   -3.8100   21.9570  -31.8090 C   0  0  0  0  0  0  0  0  0  0  0  0
   -2.3770   21.9170  -32.2340 C   0  0  0  0  0  0  0  0  0  0  0  0
   -4.7430   21.1170  -32.2980 N   0  0  0  0  0  0  0  0  0  0  0  0
   -5.8910   21.3800  -31.6910 N   0  0  0  0  0  0  0  0  0  0  0  0
   -7.0990   20.6520  -31.9700 C   0  0  0  0  0  0  0  0  0  0  0  0
   -7.0580   19.2530  -32.0920 C   0  0  0  0  0  0  0  0  0  0  0  0
   -8.2310   18.5330  -32.3420 C   0  0  0  0  0  0  0  0  0  0  0  0
   -9.4530   19.2000  -32.4560 C   0  0  0  0  0  0  0  0  0  0  0  0
   -9.5050   20.5890  -32.3150 C   0  0  0  0  0  0  0  0  0  0  0  0
   -8.3350   21.3140  -32.0670 C   0  0  0  0  0  0  0  0  0  0  0  0
   -5.7180   22.4050  -30.8230 C   0  0  0  0  0  0  0  0  0  0  0  0
   -6.7990   23.0430  -29.9980 C   0  0  0  0  0  0  0  0  0  0  0  0
   -1.1280   24.9900  -28.3250 C   0  0  0  0  0  0  0  0  0  0  0  0
   -0.4920   25.9120  -27.4880 C   0  0  0  0  0  0  0  0  0  0  0  0
   -0.0894   27.5919  -23.2855 H   0  0  0  0  0  0  0  0  0  0  0  0
   -1.8117   27.3767  -23.7481 H   0  0  0  0  0  0  0  0  0  0  0  0
   -0.6987   25.9667  -23.7481 H   0  0  0  0  0  0  0  0  0  0  0  0
   -0.7315   28.3523  -25.6546 H   0  0  0  0  0  0  0  0  0  0  0  0
    0.6614   27.2092  -25.5260 H   0  0  0  0  0  0  0  0  0  0  0  0
   -2.8766   26.1760  -25.0505 H   0  0  0  0  0  0  0  0  0  0  0  0
   -4.0071   24.5294  -26.5390 H   0  0  0  0  0  0  0  0  0  0  0  0
   -3.1070   22.5550  -28.4850 H   0  0  0  0  0  0  0  0  0  0  0  0
   -1.7309   21.8990  -31.3439 H   0  0  0  0  0  0  0  0  0  0  0  0
   -2.1980   21.0135  -32.8354 H   0  0  0  0  0  0  0  0  0  0  0  0
   -2.1479   22.8091  -32.8354 H   0  0  0  0  0  0  0  0  0  0  0  0
   -6.1001   18.7219  -31.9906 H   0  0  0  0  0  0  0  0  0  0  0  0
   -8.1910   17.4390  -32.4491 H   0  0  0  0  0  0  0  0  0  0  0  0
  -10.3735   18.6322  -32.6566 H   0  0  0  0  0  0  0  0  0  0  0  0
  -10.4682   21.1135  -32.3992 H   0  0  0  0  0  0  0  0  0  0  0  0
   -8.3823   22.4065  -31.9474 H   0  0  0  0  0  0  0  0  0  0  0  0
   -6.5723   22.9092  -28.9300 H   0  0  0  0  0  0  0  0  0  0  0  0
   -6.8517   24.1170  -30.2299 H   0  0  0  0  0  0  0  0  0  0  0  0
   -7.7647   22.5700  -30.2299 H   0  0  0  0  0  0  0  0  0  0  0  0
   -0.6233   24.6408  -29.2379 H   0  0  0  0  0  0  0  0  0  0  0  0
    0.5088   26.2874  -27.7478 H   0  0  0  0  0  0  0  0  0  0  0  0
  1  2  1  0
  2  3  1  0
  3  4  2  0
  4  5  1  0
  5  6  2  0
  6  7  1  0
  7  8  1  0
  8  9  2  0
  8 10  1  0
 10 11  1  0
 11 12  1  0
 11 13  2  0
 13 14  1  0
 14 15  1  0
 15 16  2  0
 16 17  1  0
 17 18  2  0
 18 19  1  0
 19 20  2  0
 14 21  1  0
 21 22  1  0
  6 23  1  0
 23 24  2  0
 24  3  1  0
 21 10  2  0
 20 15  1  0
  1 25  1  0
  1 26  1  0
  1 27  1  0
  2 28  1  0
  2 29  1  0
  4 30  1  0
  5 31  1  0
  7 32  1  0
 12 33  1  0
 12 34  1  0
 12 35  1  0
 16 36  1  0
 17 37  1  0
 18 38  1  0
 19 39  1  0
 20 40  1  0
 22 41  1  0
 22 42  1  0
 22 43  1  0
 23 44  1  0
 24 45  1  0
M  END
>  <UniqueID>  (38) 
35

>  <SMILES>  (38) 
CCc1ccc(NC(=O)c2c(C)nn(-c3ccccc3)c2C)cc1

>  <Energy>  (38) 
85.19840416054959

>  <Genealogy>  (38) 
CCc1ccc(NC(=O)c2c(C)nn(-c3ccccc3)c2C)cc1 (3D coordinates assigned)
CCc1ccc(NC(=O)c2c(C)nn(-c3ccccc3)c2C)cc1 (optimized conformer: 85.19840416054959 kcal/mol)

>  <smiles>  (38) 
CCc1ccc(NC(=O)c2c(C)nn(-c3ccccc3)c2C)cc1

>  <score_type>  (38) 
oracle

>  <origin>  (38) 
adgpu

>  <m_score__min__energy>  (38) 
-9.0600000000000005

>  <m_primary>  (38) 
energy

$$$$
38:0
     RDKit          3D

 59 63  0  0  0  0  0  0  0  0999 V2000
   -5.6320   26.0420  -31.1830 O   0  0  0  0  0  0  0  0  0  0  0  0
   -5.1940   24.8640  -31.1410 C   0  0  0  0  0  0  0  0  0  0  0  0
   -3.8770   24.6230  -30.6290 N   0  0  0  0  0  0  0  0  0  0  0  0
   -3.5160   24.5520  -29.2390 C   0  0  0  0  0  0  0  0  0  0  0  0
   -4.5290   24.5310  -28.2750 C   0  0  0  0  0  0  0  0  0  0  0  0
   -4.2090   24.5230  -26.9130 C   0  0  0  0  0  0  0  0  0  0  0  0
   -2.8720   24.5530  -26.5050 C   0  0  0  0  0  0  0  0  0  0  0  0
   -1.8460   24.5840  -27.4560 C   0  0  0  0  0  0  0  0  0  0  0  0
   -0.1480   24.6520  -26.9600 S   0  0  0  0  0  0  0  0  0  0  0  0
    0.7030   24.9090  -28.1730 O   0  0  0  0  0  0  0  0  0  0  0  0
    0.2470   23.3200  -26.3870 O   0  0  0  0  0  0  0  0  0  0  0  0
    0.1370   25.8870  -25.7440 N   0  0  0  0  0  0  0  0  0  0  0  0
   -0.5040   25.5060  -24.4710 C   0  0  0  0  0  0  0  0  0  0  0  0
   -0.0780   26.4550  -23.3350 C   0  0  0  0  0  0  0  0  0  0  0  0
    0.1220   27.9050  -23.8150 C   0  0  0  0  0  0  0  0  0  0  0  0
   -0.6830   28.1950  -25.0830 C   0  0  0  0  0  0  0  0  0  0  0  0
   -0.3040   27.2230  -26.2240 C   0  0  0  0  0  0  0  0  0  0  0  0
   -2.1730   24.5910  -28.8190 C   0  0  0  0  0  0  0  0  0  0  0  0
   -6.0570   23.7570  -31.5760 C   0  0  0  0  0  0  0  0  0  0  0  0
   -7.4380   23.7650  -31.6310 C   0  0  0  0  0  0  0  0  0  0  0  0
   -7.8780   22.5530  -32.0230 N   0  0  0  0  0  0  0  0  0  0  0  0
   -6.8230   21.7760  -32.2140 N   0  0  0  0  0  0  0  0  0  0  0  0
   -6.9350   20.3730  -32.4830 C   0  0  0  0  0  0  0  0  0  0  0  0
   -6.1730   19.7790  -33.5000 C   0  0  0  0  0  0  0  0  0  0  0  0
   -6.2770   18.4100  -33.7520 C   0  0  0  0  0  0  0  0  0  0  0  0
   -7.1370   17.6230  -32.9820 C   0  0  0  0  0  0  0  0  0  0  0  0
   -7.8870   18.2050  -31.9580 C   0  0  0  0  0  0  0  0  0  0  0  0
   -7.7790   19.5750  -31.6990 C   0  0  0  0  0  0  0  0  0  0  0  0
   -5.6960   22.4780  -31.9550 C   0  0  0  0  0  0  0  0  0  0  0  0
   -4.3600   21.9440  -32.0040 N   0  0  0  0  0  0  0  0  0  0  0  0
   -3.5780   21.8520  -33.0970 C   0  0  0  0  0  0  0  0  0  0  0  0
   -2.3730   21.2670  -32.7620 C   0  0  0  0  0  0  0  0  0  0  0  0
   -2.4280   20.9970  -31.4100 C   0  0  0  0  0  0  0  0  0  0  0  0
   -3.6630   21.4300  -30.9710 C   0  0  0  0  0  0  0  0  0  0  0  0
   -5.5831   24.5207  -28.5893 H   0  0  0  0  0  0  0  0  0  0  0  0
   -5.0114   24.4930  -26.1612 H   0  0  0  0  0  0  0  0  0  0  0  0
   -2.6259   24.5522  -25.4329 H   0  0  0  0  0  0  0  0  0  0  0  0
    1.1720   25.9180  -25.5890 H   0  0  0  0  0  0  0  0  0  0  0  0
   -1.5965   25.5539  -24.5895 H   0  0  0  0  0  0  0  0  0  0  0  0
   -0.1899   24.4842  -24.2115 H   0  0  0  0  0  0  0  0  0  0  0  0
   -0.8567   26.4458  -22.5581 H   0  0  0  0  0  0  0  0  0  0  0  0
    0.8874   26.0972  -22.9477 H   0  0  0  0  0  0  0  0  0  0  0  0
   -0.2040   28.5922  -23.0203 H   0  0  0  0  0  0  0  0  0  0  0  0
    1.1883   28.0472  -24.0446 H   0  0  0  0  0  0  0  0  0  0  0  0
   -1.7546   28.0853  -24.8600 H   0  0  0  0  0  0  0  0  0  0  0  0
   -0.4566   29.2203  -25.4109 H   0  0  0  0  0  0  0  0  0  0  0  0
   -1.1825   27.0874  -26.8719 H   0  0  0  0  0  0  0  0  0  0  0  0
    0.5457   27.6702  -26.7607 H   0  0  0  0  0  0  0  0  0  0  0  0
   -1.3700   24.6274  -29.5699 H   0  0  0  0  0  0  0  0  0  0  0  0
   -8.0785   24.6268  -31.3919 H   0  0  0  0  0  0  0  0  0  0  0  0
   -5.4896   20.3956  -34.1024 H   0  0  0  0  0  0  0  0  0  0  0  0
   -5.6825   17.9514  -34.5559 H   0  0  0  0  0  0  0  0  0  0  0  0
   -7.2233   16.5449  -33.1824 H   0  0  0  0  0  0  0  0  0  0  0  0
   -8.5646   17.5842  -31.3534 H   0  0  0  0  0  0  0  0  0  0  0  0
   -8.3570   20.0266  -30.8792 H   0  0  0  0  0  0  0  0  0  0  0  0
   -3.8575   22.1919  -34.1051 H   0  0  0  0  0  0  0  0  0  0  0  0
   -1.5331   21.0571  -33.4406 H   0  0  0  0  0  0  0  0  0  0  0  0
   -1.6412   20.5282  -30.8008 H   0  0  0  0  0  0  0  0  0  0  0  0
   -4.0241   21.3653  -29.9340 H   0  0  0  0  0  0  0  0  0  0  0  0
  1  2  2  0
  2  3  1  0
  3  4  1  0
  4  5  2  0
  5  6  1  0
  6  7  2  0
  7  8  1  0
  8  9  1  0
  9 10  2  0
  9 11  2  0
  9 12  1  0
 12 13  1  0
 13 14  1  0
 14 15  1  0
 15 16  1  0
 16 17  1  0
  8 18  2  0
  2 19  1  0
 19 20  1  0
 20 21  2  0
 21 22  1  0
 22 23  1  0
 23 24  2  0
 24 25  1  0
 25 26  2  0
 26 27  1  0
 27 28  2  0
 22 29  1  0
 29 30  1  0
 30 31  1  0
 31 32  2  0
 32 33  1  0
 33 34  2  0
 18  4  1  0
 29 19  2  0
 34 30  1  0
 17 12  1  0
 28 23  1  0
  5 35  1  0
  6 36  1  0
  7 37  1  0
 12 38  1  0
 13 39  1  0
 13 40  1  0
 14 41  1  0
 14 42  1  0
 15 43  1  0
 15 44  1  0
 16 45  1  0
 16 46  1  0
 17 47  1  0
 17 48  1  0
 18 49  1  0
 20 50  1  0
 24 51  1  0
 25 52  1  0
 26 53  1  0
 27 54  1  0
 28 55  1  0
 31 56  1  0
 32 57  1  0
 33 58  1  0
 34 59  1  0
M  CHG  2   3  -1  12   1
M  END
>  <UniqueID>  (39) 
36

>  <SMILES>  (39) 
O=C([N-]c1cccc(S(=O)(=O)[NH+]2CCCCC2)c1)c1cnn(-c2ccccc2)c1-n1cccc1

>  <Energy>  (39) 
138.28643940291192

>  <Genealogy>  (39) 
O=C([N-]c1cccc(S(=O)(=O)[NH+]2CCCCC2)c1)c1cnn(-c2ccccc2)c1-n1cccc1 (protonated)
O=C([N-]c1cccc(S(=O)(=O)[NH+]2CCCCC2)c1)c1cnn(-c2ccccc2)c1-n1cccc1 (3D coordinates assigned)
O=C([N-]c1cccc(S(=O)(=O)[NH+]2CCCCC2)c1)c1cnn(-c2ccccc2)c1-n1cccc1 (nonaromatic ring conformer: 138.28643940291192 kcal/mol)

>  <smiles>  (39) 
O=C(Nc1cccc(S(=O)(=O)N2CCCCC2)c1)c1cnn(-c2ccccc2)c1-n1cccc1

>  <score_type>  (39) 
oracle

>  <origin>  (39) 
adgpu

>  <m_score__min__energy>  (39) 
-12.06

>  <m_primary>  (39) 
energy

$$$$
39:0
     RDKit          3D

 40 42  0  0  0  0  0  0  0  0999 V2000
   -9.4320   19.7990  -32.6980 C   0  0  0  0  0  0  0  0  0  0  0  0
   -8.2930   20.6480  -32.2180 C   0  0  0  0  0  0  0  0  0  0  0  0
   -6.9980   20.4400  -32.7140 C   0  0  0  0  0  0  0  0  0  0  0  0
   -5.9290   21.2070  -32.2390 C   0  0  0  0  0  0  0  0  0  0  0  0
   -6.1370   22.1880  -31.2550 C   0  0  0  0  0  0  0  0  0  0  0  0
   -5.0040   22.9970  -30.7420 C   0  0  0  0  0  0  0  0  0  0  0  0
   -4.9780   24.3780  -30.9500 C   0  0  0  0  0  0  0  0  0  0  0  0
   -3.9510   25.1220  -30.4700 N   0  0  0  0  0  0  0  0  0  0  0  0
   -2.9280   24.5540  -29.7840 C   0  0  0  0  0  0  0  0  0  0  0  0
   -2.0050   25.2900  -29.3430 O   0  0  0  0  0  0  0  0  0  0  0  0
   -2.9110   23.2010  -29.5670 N   0  0  0  0  0  0  0  0  0  0  0  0
   -1.8210   22.6050  -28.8370 C   0  0  0  0  0  0  0  0  0  0  0  0
   -1.3880   22.9340  -27.5660 C   0  0  0  0  0  0  0  0  0  0  0  0
   -1.9840   23.9560  -26.6540 C   0  0  0  0  0  0  0  0  0  0  0  0
   -0.3480   22.1420  -27.2350 N   0  0  0  0  0  0  0  0  0  0  0  0
   -0.1040   21.3450  -28.2660 N   0  0  0  0  0  0  0  0  0  0  0  0
    0.9450   20.3310  -28.2670 C   0  0  0  0  0  0  0  0  0  0  0  0
   -0.9920   21.5850  -29.2550 C   0  0  0  0  0  0  0  0  0  0  0  0
   -1.0290   20.8800  -30.5770 C   0  0  0  0  0  0  0  0  0  0  0  0
   -3.9270   22.4160  -30.0440 C   0  0  0  0  0  0  0  0  0  0  0  0
   -3.8860   21.1630  -29.8850 O   0  0  0  0  0  0  0  0  0  0  0  0
   -7.4330   22.3760  -30.7420 C   0  0  0  0  0  0  0  0  0  0  0  0
   -8.5010   21.6090  -31.2180 C   0  0  0  0  0  0  0  0  0  0  0  0
   -9.9767   19.3930  -31.8329 H   0  0  0  0  0  0  0  0  0  0  0  0
  -10.1142   20.4107  -33.3066 H   0  0  0  0  0  0  0  0  0  0  0  0
   -9.0407   18.9705  -33.3066 H   0  0  0  0  0  0  0  0  0  0  0  0
   -6.8220   19.6703  -33.4799 H   0  0  0  0  0  0  0  0  0  0  0  0
   -4.9178   21.0408  -32.6389 H   0  0  0  0  0  0  0  0  0  0  0  0
   -5.7938   24.8639  -31.5053 H   0  0  0  0  0  0  0  0  0  0  0  0
   -1.8113   23.6599  -25.6088 H   0  0  0  0  0  0  0  0  0  0  0  0
   -1.5139   24.9328  -26.8408 H   0  0  0  0  0  0  0  0  0  0  0  0
   -3.0656   24.0279  -26.8408 H   0  0  0  0  0  0  0  0  0  0  0  0
    1.2091   20.0757  -27.2302 H   0  0  0  0  0  0  0  0  0  0  0  0
    0.5842   19.4306  -28.7858 H   0  0  0  0  0  0  0  0  0  0  0  0
    1.8326   20.7222  -28.7858 H   0  0  0  0  0  0  0  0  0  0  0  0
   -1.0860   19.7940  -30.4119 H   0  0  0  0  0  0  0  0  0  0  0  0
   -1.9110   21.2114  -31.1447 H   0  0  0  0  0  0  0  0  0  0  0  0
   -0.1172   21.1172  -31.1447 H   0  0  0  0  0  0  0  0  0  0  0  0
   -7.6076   23.1311  -29.9614 H   0  0  0  0  0  0  0  0  0  0  0  0
   -9.5096   21.7602  -30.8059 H   0  0  0  0  0  0  0  0  0  0  0  0
  1  2  1  0
  2  3  2  0
  3  4  1  0
  4  5  2  0
  5  6  1  0
  6  7  2  0
  7  8  1  0
  8  9  1  0
  9 10  2  0
  9 11  1  0
 11 12  1  0
 12 13  1  0
 13 14  1  0
 13 15  2  0
 15 16  1  0
 16 17  1  0
 16 18  1  0
 18 19  1  0
 11 20  1  0
 20 21  2  0
  5 22  1  0
 22 23  2  0
 23  2  1  0
 20  6  1  0
 18 12  2  0
  1 24  1  0
  1 25  1  0
  1 26  1  0
  3 27  1  0
  4 28  1  0
  7 29  1  0
 14 30  1  0
 14 31  1  0
 14 32  1  0
 17 33  1  0
 17 34  1  0
 17 35  1  0
 19 36  1  0
 19 37  1  0
 19 38  1  0
 22 39  1  0
 23 40  1  0
M  CHG  1   8  -1
M  END
>  <UniqueID>  (40) 
37

>  <SMILES>  (40) 
Cc1ccc(-c2c[n-]c(=O)n(-c3c(C)nn(C)c3C)c2=O)cc1

>  <Energy>  (40) 
86.9417021747867

>  <Genealogy>  (40) 
Cc1ccc(-c2c[n-]c(=O)n(-c3c(C)nn(C)c3C)c2=O)cc1 (protonated)
Cc1ccc(-c2c[n-]c(=O)n(-c3c(C)nn(C)c3C)c2=O)cc1 (3D coordinates assigned)
Cc1ccc(-c2c[n-]c(=O)n(-c3c(C)nn(C)c3C)c2=O)cc1 (optimized conformer: 86.9417021747867 kcal/mol)

>  <smiles>  (40) 
Cc1ccc(-c2c[nH]c(=O)n(-c3c(C)nn(C)c3C)c2=O)cc1

>  <score_type>  (40) 
oracle

>  <origin>  (40) 
adgpu

>  <m_score__min__energy>  (40) 
-9.0399999999999991

>  <m_primary>  (40) 
energy

$$$$
40:0
     RDKit          3D

 36 38  0  0  0  0  0  0  0  0999 V2000
   -9.8800   21.9580  -31.0990 O   0  0  0  0  0  0  0  0  0  0  0  0
   -8.9560   21.1400  -31.7400 C   0  0  0  0  0  0  0  0  0  0  0  0
   -7.7370   21.6700  -32.1750 C   0  0  0  0  0  0  0  0  0  0  0  0
   -6.8070   20.8500  -32.8220 C   0  0  0  0  0  0  0  0  0  0  0  0
   -7.0870   19.4880  -33.0270 C   0  0  0  0  0  0  0  0  0  0  0  0
   -6.1040   18.6130  -33.7540 C   0  0  0  0  0  0  0  0  0  0  0  0
   -4.7090   19.0660  -33.4720 C   0  0  0  0  0  0  0  0  0  0  0  0
   -4.2960   19.4950  -32.2640 N   0  0  0  0  0  0  0  0  0  0  0  0
   -2.9880   19.7290  -32.4930 C   0  0  0  0  0  0  0  0  0  0  0  0
   -2.0600   20.3090  -31.4710 C   0  0  0  0  0  0  0  0  0  0  0  0
   -2.8160   20.7440  -30.2090 C   0  0  0  0  0  0  0  0  0  0  0  0
   -2.5210   22.1780  -29.8470 C   0  0  0  0  0  0  0  0  0  0  0  0
   -1.3920   22.4990  -29.0750 C   0  0  0  0  0  0  0  0  0  0  0  0
   -1.0970   23.8320  -28.7770 C   0  0  0  0  0  0  0  0  0  0  0  0
   -1.9240   24.8560  -29.2500 C   0  0  0  0  0  0  0  0  0  0  0  0
   -1.6260   26.1800  -28.9490 O   0  0  0  0  0  0  0  0  0  0  0  0
   -3.0470   24.5460  -30.0260 C   0  0  0  0  0  0  0  0  0  0  0  0
   -3.8690   25.5600  -30.5030 O   0  0  0  0  0  0  0  0  0  0  0  0
   -3.3430   23.2110  -30.3260 C   0  0  0  0  0  0  0  0  0  0  0  0
   -2.6290   19.4650  -33.7630 N   0  0  0  0  0  0  0  0  0  0  0  0
   -3.7160   19.0340  -34.3790 N   0  0  0  0  0  0  0  0  0  0  0  0
   -8.3190   18.9660  -32.5980 C   0  0  0  0  0  0  0  0  0  0  0  0
   -9.2470   19.7900  -31.9530 C   0  0  0  0  0  0  0  0  0  0  0  0
   -7.5094   22.7332  -32.0080 H   0  0  0  0  0  0  0  0  0  0  0  0
   -5.8534   21.2723  -33.1716 H   0  0  0  0  0  0  0  0  0  0  0  0
   -6.2241   17.5727  -33.4172 H   0  0  0  0  0  0  0  0  0  0  0  0
   -6.2930   18.6798  -34.8356 H   0  0  0  0  0  0  0  0  0  0  0  0
   -1.3118   19.5509  -31.1962 H   0  0  0  0  0  0  0  0  0  0  0  0
   -1.5765   21.1957  -31.9070 H   0  0  0  0  0  0  0  0  0  0  0  0
   -3.8963   20.6363  -30.3860 H   0  0  0  0  0  0  0  0  0  0  0  0
   -2.4868   20.1059  -29.3757 H   0  0  0  0  0  0  0  0  0  0  0  0
   -0.7371   21.6972  -28.7033 H   0  0  0  0  0  0  0  0  0  0  0  0
   -0.2131   24.0763  -28.1695 H   0  0  0  0  0  0  0  0  0  0  0  0
   -4.2235   22.9700  -30.9397 H   0  0  0  0  0  0  0  0  0  0  0  0
   -8.5545   17.9054  -32.7701 H   0  0  0  0  0  0  0  0  0  0  0  0
  -10.2072   19.3748  -31.6130 H   0  0  0  0  0  0  0  0  0  0  0  0
  1  2  1  0
  2  3  2  0
  3  4  1  0
  4  5  2  0
  5  6  1  0
  6  7  1  0
  7  8  2  0
  8  9  1  0
  9 10  1  0
 10 11  1  0
 11 12  1  0
 12 13  2  0
 13 14  1  0
 14 15  2  0
 15 16  1  0
 15 17  1  0
 17 18  1  0
 17 19  2  0
  9 20  2  0
 20 21  1  0
  5 22  1  0
 22 23  2  0
 23  2  1  0
 21  7  1  0
 19 12  1  0
  3 24  1  0
  4 25  1  0
  6 26  1  0
  6 27  1  0
 10 28  1  0
 10 29  1  0
 11 30  1  0
 11 31  1  0
 13 32  1  0
 14 33  1  0
 19 34  1  0
 22 35  1  0
 23 36  1  0
M  CHG  4   1  -1  16  -1  18  -1  21  -1
M  END
>  <UniqueID>  (41) 
38

>  <SMILES>  (41) 
[O-]c1ccc(Cc2nc(CCc3ccc([O-])c([O-])c3)n[n-]2)cc1

>  <Energy>  (41) 
64.49645750845531

>  <Genealogy>  (41) 
[O-]c1ccc(Cc2nc(CCc3ccc([O-])c([O-])c3)n[n-]2)cc1 (protonated)
[O-]c1ccc(Cc2nc(CCc3ccc([O-])c([O-])c3)n[n-]2)cc1 (3D coordinates assigned)
[O-]c1ccc(Cc2nc(CCc3ccc([O-])c([O-])c3)n[n-]2)cc1 (optimized conformer: 64.49645750845531 kcal/mol)

>  <smiles>  (41) 
Oc1ccc(Cc2nc(CCc3ccc(O)c(O)c3)n[nH]2)cc1

>  <score_type>  (41) 
oracle

>  <origin>  (41) 
adgpu

>  <m_score__min__energy>  (41) 
-13.33

>  <m_primary>  (41) 
energy

$$$$
41:0
     RDKit          3D

 53 56  0  0  0  0  0  0  0  0999 V2000
   -4.1630   25.6650  -30.7530 O   0  0  0  0  0  0  0  0  0  0  0  0
   -4.1750   24.4160  -30.6140 C   0  0  0  0  0  0  0  0  0  0  0  0
   -4.9250   23.6270  -31.5470 N   0  0  0  0  0  0  0  0  0  0  0  0
   -4.4590   22.4230  -32.1810 C   0  0  0  0  0  0  0  0  0  0  0  0
   -3.1150   22.2850  -32.5720 C   0  0  0  0  0  0  0  0  0  0  0  0
   -2.6520   21.0800  -33.1140 C   0  0  0  0  0  0  0  0  0  0  0  0
   -0.9400   20.9100  -33.4900 S   0  0  0  0  0  0  0  0  0  0  0  0
   -0.5290   21.9470  -34.5010 O   0  0  0  0  0  0  0  0  0  0  0  0
   -0.7230   19.5420  -34.0840 O   0  0  0  0  0  0  0  0  0  0  0  0
    0.0030   21.0820  -32.0210 N   0  0  0  0  0  0  0  0  0  0  0  0
    0.6340   19.8010  -31.6630 C   0  0  0  0  0  0  0  0  0  0  0  0
   -0.2830   19.0730  -30.6870 C   0  0  0  0  0  0  0  0  0  0  0  0
   -1.3090   20.1110  -30.2440 C   0  0  0  0  0  0  0  0  0  0  0  0
   -0.8670   21.4130  -30.8900 C   0  0  0  0  0  0  0  0  0  0  0  0
   -3.5500   20.0230  -33.3280 C   0  0  0  0  0  0  0  0  0  0  0  0
   -4.8960   20.1690  -32.9870 C   0  0  0  0  0  0  0  0  0  0  0  0
   -5.3570   21.3660  -32.4130 C   0  0  0  0  0  0  0  0  0  0  0  0
   -6.7350   21.4890  -32.0400 N   0  0  0  0  0  0  0  0  0  0  0  0
   -7.4610   20.2670  -31.6620 C   0  0  0  0  0  0  0  0  0  0  0  0
   -8.9120   20.5540  -31.2530 C   0  0  0  0  0  0  0  0  0  0  0  0
   -9.4830   21.5610  -32.0650 O   0  0  0  0  0  0  0  0  0  0  0  0
   -8.8350   22.7840  -31.8030 C   0  0  0  0  0  0  0  0  0  0  0  0
   -7.4130   22.7580  -32.3470 C   0  0  0  0  0  0  0  0  0  0  0  0
   -3.4470   23.7960  -29.4790 C   0  0  0  0  0  0  0  0  0  0  0  0
   -3.8420   22.5330  -29.0030 C   0  0  0  0  0  0  0  0  0  0  0  0
   -3.1180   21.9030  -27.9870 C   0  0  0  0  0  0  0  0  0  0  0  0
   -2.0010   22.5300  -27.4290 C   0  0  0  0  0  0  0  0  0  0  0  0
   -1.6110   23.7910  -27.8760 C   0  0  0  0  0  0  0  0  0  0  0  0
   -2.3260   24.4270  -28.8970 C   0  0  0  0  0  0  0  0  0  0  0  0
   -1.9010   25.6700  -29.3430 O   0  0  0  0  0  0  0  0  0  0  0  0
   -2.4220   23.1307  -32.4510 H   0  0  0  0  0  0  0  0  0  0  0  0
    0.7752   19.1903  -32.5669 H   0  0  0  0  0  0  0  0  0  0  0  0
    1.6162   19.9781  -31.2005 H   0  0  0  0  0  0  0  0  0  0  0  0
   -0.7809   18.2276  -31.1844 H   0  0  0  0  0  0  0  0  0  0  0  0
    0.2741   18.6586  -29.8339 H   0  0  0  0  0  0  0  0  0  0  0  0
   -2.3147   19.8309  -30.5906 H   0  0  0  0  0  0  0  0  0  0  0  0
   -1.3615   20.1940  -29.1484 H   0  0  0  0  0  0  0  0  0  0  0  0
   -1.7458   21.9711  -31.2453 H   0  0  0  0  0  0  0  0  0  0  0  0
   -0.3285   22.0381  -30.1625 H   0  0  0  0  0  0  0  0  0  0  0  0
   -3.1931   19.0786  -33.7648 H   0  0  0  0  0  0  0  0  0  0  0  0
   -5.5992   19.3428  -33.1686 H   0  0  0  0  0  0  0  0  0  0  0  0
   -7.4650   19.5784  -32.5198 H   0  0  0  0  0  0  0  0  0  0  0  0
   -6.9481   19.8258  -30.7947 H   0  0  0  0  0  0  0  0  0  0  0  0
   -9.5029   19.6319  -31.3563 H   0  0  0  0  0  0  0  0  0  0  0  0
   -8.9171   20.9034  -30.2100 H   0  0  0  0  0  0  0  0  0  0  0  0
   -9.3927   23.6004  -32.2852 H   0  0  0  0  0  0  0  0  0  0  0  0
   -8.7982   22.9426  -30.7151 H   0  0  0  0  0  0  0  0  0  0  0  0
   -7.4467   22.8889  -33.4387 H   0  0  0  0  0  0  0  0  0  0  0  0
   -6.8486   23.5722  -31.8690 H   0  0  0  0  0  0  0  0  0  0  0  0
   -4.7256   22.0383  -29.4326 H   0  0  0  0  0  0  0  0  0  0  0  0
   -3.4282   20.9114  -27.6259 H   0  0  0  0  0  0  0  0  0  0  0  0
   -1.4285   22.0274  -26.6355 H   0  0  0  0  0  0  0  0  0  0  0  0
   -0.7391   24.2876  -27.4252 H   0  0  0  0  0  0  0  0  0  0  0  0
  1  2  2  0
  2  3  1  0
  3  4  1  0
  4  5  2  0
  5  6  1  0
  6  7  1  0
  7  8  2  0
  7  9  2  0
  7 10  1  0
 10 11  1  0
 11 12  1  0
 12 13  1  0
 13 14  1  0
  6 15  2  0
 15 16  1  0
 16 17  2  0
 17 18  1  0
 18 19  1  0
 19 20  1  0
 20 21  1  0
 21 22  1  0
 22 23  1  0
  2 24  1  0
 24 25  2  0
 25 26  1  0
 26 27  2  0
 27 28  1  0
 28 29  2  0
 29 30  1  0
 17  4  1  0
 23 18  1  0
 29 24  1  0
 14 10  1  0
  5 31  1  0
 11 32  1  0
 11 33  1  0
 12 34  1  0
 12 35  1  0
 13 36  1  0
 13 37  1  0
 14 38  1  0
 14 39  1  0
 15 40  1  0
 16 41  1  0
 19 42  1  0
 19 43  1  0
 20 44  1  0
 20 45  1  0
 22 46  1  0
 22 47  1  0
 23 48  1  0
 23 49  1  0
 25 50  1  0
 26 51  1  0
 27 52  1  0
 28 53  1  0
M  CHG  2   3  -1  30  -1
M  END
>  <UniqueID>  (42) 
39

>  <SMILES>  (42) 
O=C([N-]c1cc(S(=O)(=O)N2CCCC2)ccc1N1CCOCC1)c1ccccc1[O-]

>  <Energy>  (42) 
72.18445835968869

>  <Genealogy>  (42) 
O=C([N-]c1cc(S(=O)(=O)N2CCCC2)ccc1N1CCOCC1)c1ccccc1[O-] (protonated)
O=C([N-]c1cc(S(=O)(=O)N2CCCC2)ccc1N1CCOCC1)c1ccccc1[O-] (3D coordinates assigned)
O=C([N-]c1cc(S(=O)(=O)N2CCCC2)ccc1N1CCOCC1)c1ccccc1[O-] (nonaromatic ring conformer: 72.18445835968869 kcal/mol)

>  <smiles>  (42) 
O=C(Nc1cc(S(=O)(=O)N2CCCC2)ccc1N1CCOCC1)c1ccccc1O

>  <score_type>  (42) 
oracle

>  <origin>  (42) 
adgpu

>  <m_score__min__energy>  (42) 
-13.380000000000001

>  <m_primary>  (42) 
energy

$$$$
42:0
     RDKit          3D

 40 43  0  0  0  0  0  0  0  0999 V2000
   -1.9330   25.2900  -29.3410 O   0  0  0  0  0  0  0  0  0  0  0  0
   -2.9030   24.5250  -29.5820 C   0  0  0  0  0  0  0  0  0  0  0  0
   -3.0420   23.2220  -28.8500 C   0  0  0  0  0  0  0  0  0  0  0  0
   -3.7110   22.1630  -29.7380 C   0  0  0  0  0  0  0  0  0  0  0  0
   -4.9410   22.6950  -30.4330 C   0  0  0  0  0  0  0  0  0  0  0  0
   -5.9880   21.8310  -30.7870 C   0  0  0  0  0  0  0  0  0  0  0  0
   -7.0830   22.3080  -31.5190 C   0  0  0  0  0  0  0  0  0  0  0  0
   -8.3920   21.2240  -31.9830 S   0  0  0  0  0  0  0  0  0  0  0  0
   -8.7480   20.3000  -30.8520 O   0  0  0  0  0  0  0  0  0  0  0  0
   -9.5970   22.0470  -32.3390 O   0  0  0  0  0  0  0  0  0  0  0  0
   -7.9150   20.2790  -33.3590 N   0  0  0  0  0  0  0  0  0  0  0  0
   -6.7270   19.4690  -33.4000 C   0  0  0  0  0  0  0  0  0  0  0  0
   -5.4730   20.0970  -33.4930 C   0  0  0  0  0  0  0  0  0  0  0  0
   -4.2970   19.3400  -33.5170 C   0  0  0  0  0  0  0  0  0  0  0  0
   -4.3650   17.9470  -33.4490 C   0  0  0  0  0  0  0  0  0  0  0  0
   -5.6090   17.3080  -33.3950 C   0  0  0  0  0  0  0  0  0  0  0  0
   -6.7860   18.0610  -33.3590 C   0  0  0  0  0  0  0  0  0  0  0  0
   -5.6550   15.9100  -33.3770 O   0  0  0  0  0  0  0  0  0  0  0  0
   -4.4970   15.1300  -33.6860 C   0  0  0  0  0  0  0  0  0  0  0  0
   -3.2420   15.7840  -33.0960 C   0  0  0  0  0  0  0  0  0  0  0  0
   -3.2010   17.1730  -33.4380 O   0  0  0  0  0  0  0  0  0  0  0  0
   -7.1260   23.6530  -31.9100 C   0  0  0  0  0  0  0  0  0  0  0  0
   -6.0790   24.5160  -31.5770 C   0  0  0  0  0  0  0  0  0  0  0  0
   -4.9870   24.0440  -30.8420 C   0  0  0  0  0  0  0  0  0  0  0  0
   -3.9210   24.9330  -30.4970 N   0  0  0  0  0  0  0  0  0  0  0  0
   -2.0437   22.8663  -28.5552 H   0  0  0  0  0  0  0  0  0  0  0  0
   -3.6703   23.3834  -27.9616 H   0  0  0  0  0  0  0  0  0  0  0  0
   -2.9893   21.8321  -30.4994 H   0  0  0  0  0  0  0  0  0  0  0  0
   -4.0227   21.3290  -29.0920 H   0  0  0  0  0  0  0  0  0  0  0  0
   -5.9489   20.7731  -30.4881 H   0  0  0  0  0  0  0  0  0  0  0  0
   -8.4840   20.3900  -34.2290 H   0  0  0  0  0  0  0  0  0  0  0  0
   -5.4159   21.1942  -33.5474 H   0  0  0  0  0  0  0  0  0  0  0  0
   -3.3205   19.8411  -33.5893 H   0  0  0  0  0  0  0  0  0  0  0  0
   -7.7603   17.5540  -33.2986 H   0  0  0  0  0  0  0  0  0  0  0  0
   -4.6146   14.1220  -33.2616 H   0  0  0  0  0  0  0  0  0  0  0  0
   -4.3883   15.0684  -34.7789 H   0  0  0  0  0  0  0  0  0  0  0  0
   -3.2586   15.6798  -32.0011 H   0  0  0  0  0  0  0  0  0  0  0  0
   -2.3512   15.2868  -33.5073 H   0  0  0  0  0  0  0  0  0  0  0  0
   -7.9870   24.0306  -32.4810 H   0  0  0  0  0  0  0  0  0  0  0  0
   -6.1137   25.5689  -31.8936 H   0  0  0  0  0  0  0  0  0  0  0  0
  1  2  2  0
  2  3  1  0
  3  4  1  0
  4  5  1  0
  5  6  2  0
  6  7  1  0
  7  8  1  0
  8  9  2  0
  8 10  2  0
  8 11  1  0
 11 12  1  0
 12 13  2  0
 13 14  1  0
 14 15  2  0
 15 16  1  0
 16 17  2  0
 16 18  1  0
 18 19  1  0
 19 20  1  0
 20 21  1  0
  7 22  2  0
 22 23  1  0
 23 24  2  0
 24 25  1  0
 25  2  1  0
 24  5  1  0
 17 12  1  0
 21 15  1  0
  3 26  1  0
  3 27  1  0
  4 28  1  0
  4 29  1  0
  6 30  1  0
 11 31  1  0
 13 32  1  0
 14 33  1  0
 17 34  1  0
 19 35  1  0
 19 36  1  0
 20 37  1  0
 20 38  1  0
 22 39  1  0
 23 40  1  0
M  CHG  1  25  -1
M  END
>  <UniqueID>  (43) 
40

>  <SMILES>  (43) 
O=C1CCc2cc(S(=O)(=O)Nc3ccc4c(c3)OCCO4)ccc2[N-]1

>  <Energy>  (43) 
46.86986640818111

>  <Genealogy>  (43) 
O=C1CCc2cc(S(=O)(=O)Nc3ccc4c(c3)OCCO4)ccc2[N-]1 (protonated)
O=C1CCc2cc(S(=O)(=O)Nc3ccc4c(c3)OCCO4)ccc2[N-]1 (3D coordinates assigned)
O=C1CCc2cc(S(=O)(=O)Nc3ccc4c(c3)OCCO4)ccc2[N-]1 (nonaromatic ring conformer: 46.86986640818111 kcal/mol)

>  <smiles>  (43) 
O=C1CCc2cc(S(=O)(=O)Nc3ccc4c(c3)OCCO4)ccc2N1

>  <score_type>  (43) 
oracle

>  <origin>  (43) 
adgpu

>  <m_score__min__energy>  (43) 
-10.880000000000001

>  <m_primary>  (43) 
energy

$$$$
43:0
     RDKit          3D

 66 70  0  0  0  0  0  0  0  0999 V2000
   -9.4730   19.0210  -32.0260 C   0  0  0  0  0  0  0  0  0  0  0  0
   -8.0110   19.0350  -32.3910 C   0  0  0  0  0  0  0  0  0  0  0  0
   -7.3700   17.8270  -32.7070 C   0  0  0  0  0  0  0  0  0  0  0  0
   -6.0180   17.8100  -33.0530 C   0  0  0  0  0  0  0  0  0  0  0  0
   -5.2710   18.9970  -33.0810 C   0  0  0  0  0  0  0  0  0  0  0  0
   -3.8360   18.9560  -33.4580 C   0  0  0  0  0  0  0  0  0  0  0  0
   -2.9860   20.0490  -33.2360 C   0  0  0  0  0  0  0  0  0  0  0  0
   -1.6300   19.9880  -33.6020 C   0  0  0  0  0  0  0  0  0  0  0  0
   -0.8020   21.1980  -33.3820 C   0  0  0  0  0  0  0  0  0  0  0  0
   -0.4940   21.9270  -34.3630 O   0  0  0  0  0  0  0  0  0  0  0  0
   -0.2580   21.4810  -32.0870 N   0  0  0  0  0  0  0  0  0  0  0  0
   -0.9770   21.3560  -30.8520 C   0  0  0  0  0  0  0  0  0  0  0  0
   -1.6820   22.4740  -30.3850 C   0  0  0  0  0  0  0  0  0  0  0  0
   -2.4110   22.4130  -29.1900 C   0  0  0  0  0  0  0  0  0  0  0  0
   -3.3100   23.8130  -28.6060 S   0  0  0  0  0  0  0  0  0  0  0  0
   -3.2280   23.8410  -27.1050 O   0  0  0  0  0  0  0  0  0  0  0  0
   -2.7020   25.0810  -29.1450 O   0  0  0  0  0  0  0  0  0  0  0  0
   -4.9810   23.6990  -29.1090 N   0  0  0  0  0  0  0  0  0  0  0  0
   -5.1540   22.6690  -30.1640 C   0  0  0  0  0  0  0  0  0  0  0  0
   -5.3110   23.2970  -31.5610 C   0  0  0  0  0  0  0  0  0  0  0  0
   -6.4190   24.1820  -31.6570 O   0  0  0  0  0  0  0  0  0  0  0  0
   -6.6860   24.9000  -30.4570 C   0  0  0  0  0  0  0  0  0  0  0  0
   -5.4710   25.0320  -29.5220 C   0  0  0  0  0  0  0  0  0  0  0  0
   -2.4320   21.2250  -28.4550 C   0  0  0  0  0  0  0  0  0  0  0  0
   -1.7080   20.1140  -28.8900 C   0  0  0  0  0  0  0  0  0  0  0  0
   -0.9500   20.1730  -30.0710 C   0  0  0  0  0  0  0  0  0  0  0  0
   -0.1320   18.9690  -30.4570 C   0  0  0  0  0  0  0  0  0  0  0  0
   -1.1280   18.7860  -34.1690 C   0  0  0  0  0  0  0  0  0  0  0  0
    0.2330   18.5950  -34.4960 C   0  0  0  0  0  0  0  0  0  0  0  0
    0.6690   17.3870  -35.0490 C   0  0  0  0  0  0  0  0  0  0  0  0
   -0.2340   16.3480  -35.2730 C   0  0  0  0  0  0  0  0  0  0  0  0
   -1.5760   16.5040  -34.9310 C   0  0  0  0  0  0  0  0  0  0  0  0
   -2.0260   17.7080  -34.3740 C   0  0  0  0  0  0  0  0  0  0  0  0
   -3.3300   17.8250  -34.0160 N   0  0  0  0  0  0  0  0  0  0  0  0
   -5.9120   20.2100  -32.7720 C   0  0  0  0  0  0  0  0  0  0  0  0
   -7.2720   20.2410  -32.4180 C   0  0  0  0  0  0  0  0  0  0  0  0
   -7.9240   21.5630  -32.1050 C   0  0  0  0  0  0  0  0  0  0  0  0
   -9.5775   19.0200  -30.9310 H   0  0  0  0  0  0  0  0  0  0  0  0
   -9.9629   19.9145  -32.4403 H   0  0  0  0  0  0  0  0  0  0  0  0
   -9.9457   18.1183  -32.4403 H   0  0  0  0  0  0  0  0  0  0  0  0
   -7.9382   16.8854  -32.6817 H   0  0  0  0  0  0  0  0  0  0  0  0
   -5.5331   16.8557  -33.3064 H   0  0  0  0  0  0  0  0  0  0  0  0
   -3.3841   20.9629  -32.7710 H   0  0  0  0  0  0  0  0  0  0  0  0
   -1.6627   23.4096  -30.9631 H   0  0  0  0  0  0  0  0  0  0  0  0
   -5.5300   23.3990  -28.2690 H   0  0  0  0  0  0  0  0  0  0  0  0
   -4.2720   22.0116  -30.1669 H   0  0  0  0  0  0  0  0  0  0  0  0
   -6.0704   22.1031  -29.9402 H   0  0  0  0  0  0  0  0  0  0  0  0
   -4.3945   23.8577  -31.7970 H   0  0  0  0  0  0  0  0  0  0  0  0
   -5.4875   22.4750  -32.2704 H   0  0  0  0  0  0  0  0  0  0  0  0
   -7.0257   25.9107  -30.7272 H   0  0  0  0  0  0  0  0  0  0  0  0
   -7.4490   24.3288  -29.9079 H   0  0  0  0  0  0  0  0  0  0  0  0
   -4.6661   25.5651  -30.0492 H   0  0  0  0  0  0  0  0  0  0  0  0
   -5.7749   25.5904  -28.6244 H   0  0  0  0  0  0  0  0  0  0  0  0
   -3.0222   21.1650  -27.5287 H   0  0  0  0  0  0  0  0  0  0  0  0
   -1.7312   19.1841  -28.3029 H   0  0  0  0  0  0  0  0  0  0  0  0
    0.2166   18.4560  -29.5485 H   0  0  0  0  0  0  0  0  0  0  0  0
   -0.7504   18.2811  -31.0522 H   0  0  0  0  0  0  0  0  0  0  0  0
    0.7354   19.2905  -31.0522 H   0  0  0  0  0  0  0  0  0  0  0  0
    0.9561   19.4037  -34.3140 H   0  0  0  0  0  0  0  0  0  0  0  0
    1.7298   17.2555  -35.3087 H   0  0  0  0  0  0  0  0  0  0  0  0
    0.1133   15.4048  -35.7199 H   0  0  0  0  0  0  0  0  0  0  0  0
   -2.2841   15.6791  -35.0990 H   0  0  0  0  0  0  0  0  0  0  0  0
   -5.3403   21.1491  -32.8079 H   0  0  0  0  0  0  0  0  0  0  0  0
   -7.9874   21.6915  -31.0144 H   0  0  0  0  0  0  0  0  0  0  0  0
   -7.3248   22.3785  -32.5361 H   0  0  0  0  0  0  0  0  0  0  0  0
   -8.9358   21.5840  -32.5361 H   0  0  0  0  0  0  0  0  0  0  0  0
  1  2  1  0
  2  3  2  0
  3  4  1  0
  4  5  2  0
  5  6  1  0
  6  7  2  0
  7  8  1  0
  8  9  1  0
  9 10  2  0
  9 11  1  0
 11 12  1  0
 12 13  2  0
 13 14  1  0
 14 15  1  0
 15 16  2  0
 15 17  2  0
 15 18  1  0
 18 19  1  0
 19 20  1  0
 20 21  1  0
 21 22  1  0
 22 23  1  0
 14 24  2  0
 24 25  1  0
 25 26  2  0
 26 27  1  0
  8 28  2  0
 28 29  1  0
 29 30  2  0
 30 31  1  0
 31 32  2  0
 32 33  1  0
 33 34  2  0
  5 35  1  0
 35 36  2  0
 36 37  1  0
 36  2  1  0
 34  6  1  0
 26 12  1  0
 33 28  1  0
 23 18  1  0
  1 38  1  0
  1 39  1  0
  1 40  1  0
  3 41  1  0
  4 42  1  0
  7 43  1  0
 13 44  1  0
 18 45  1  0
 19 46  1  0
 19 47  1  0
 20 48  1  0
 20 49  1  0
 22 50  1  0
 22 51  1  0
 23 52  1  0
 23 53  1  0
 24 54  1  0
 25 55  1  0
 27 56  1  0
 27 57  1  0
 27 58  1  0
 29 59  1  0
 30 60  1  0
 31 61  1  0
 32 62  1  0
 35 63  1  0
 37 64  1  0
 37 65  1  0
 37 66  1  0
M  CHG  2  11  -1  18   1
M  END
>  <UniqueID>  (44) 
41

>  <SMILES>  (44) 
Cc1ccc(-c2cc(C(=O)[N-]c3cc(S(=O)(=O)[NH+]4CCOCC4)ccc3C)c3ccccc3n2)cc1C

>  <Energy>  (44) 
104.26161517844508

>  <Genealogy>  (44) 
Cc1ccc(-c2cc(C(=O)[N-]c3cc(S(=O)(=O)[NH+]4CCOCC4)ccc3C)c3ccccc3n2)cc1C (protonated)
Cc1ccc(-c2cc(C(=O)[N-]c3cc(S(=O)(=O)[NH+]4CCOCC4)ccc3C)c3ccccc3n2)cc1C (3D coordinates assigned)
Cc1ccc(-c2cc(C(=O)[N-]c3cc(S(=O)(=O)[NH+]4CCOCC4)ccc3C)c3ccccc3n2)cc1C (nonaromatic ring conformer: 104.26161517844508 kcal/mol)

>  <smiles>  (44) 
Cc1ccc(-c2cc(C(=O)Nc3cc(S(=O)(=O)N4CCOCC4)ccc3C)c3ccccc3n2)cc1C

>  <score_type>  (44) 
oracle

>  <origin>  (44) 
adgpu

>  <m_score__min__energy>  (44) 
-11.470000000000001

>  <m_primary>  (44) 
energy

$$$$
44:0
     RDKit          3D

 45 48  0  0  0  0  0  0  0  0999 V2000
   -5.0270   18.1370  -35.0760 C   0  0  0  0  0  0  0  0  0  0  0  0
   -5.8550   18.3140  -33.8380 C   0  0  0  0  0  0  0  0  0  0  0  0
   -6.0360   17.2410  -32.9540 C   0  0  0  0  0  0  0  0  0  0  0  0
   -6.8430   17.3900  -31.8240 C   0  0  0  0  0  0  0  0  0  0  0  0
   -7.4750   18.6100  -31.5680 C   0  0  0  0  0  0  0  0  0  0  0  0
   -7.3010   19.6950  -32.4400 C   0  0  0  0  0  0  0  0  0  0  0  0
   -7.9870   20.9760  -32.1640 C   0  0  0  0  0  0  0  0  0  0  0  0
   -9.3090   21.1520  -32.3510 N   0  0  0  0  0  0  0  0  0  0  0  0
   -9.6110   22.4140  -32.0810 N   0  0  0  0  0  0  0  0  0  0  0  0
   -8.4860   23.0590  -31.7210 C   0  0  0  0  0  0  0  0  0  0  0  0
   -7.4250   22.1770  -31.7490 C   0  0  0  0  0  0  0  0  0  0  0  0
   -6.0420   22.4670  -31.3150 C   0  0  0  0  0  0  0  0  0  0  0  0
   -5.1800   21.4330  -30.9210 C   0  0  0  0  0  0  0  0  0  0  0  0
   -3.8770   21.7150  -30.5080 C   0  0  0  0  0  0  0  0  0  0  0  0
   -3.4200   23.0440  -30.4530 C   0  0  0  0  0  0  0  0  0  0  0  0
   -2.0750   23.3570  -30.0560 N   0  0  0  0  0  0  0  0  0  0  0  0
   -1.6770   24.2770  -29.0300 C   0  0  0  0  0  0  0  0  0  0  0  0
   -1.6070   25.5090  -29.2830 O   0  0  0  0  0  0  0  0  0  0  0  0
   -1.2720   23.7600  -27.6980 C   0  0  0  0  0  0  0  0  0  0  0  0
   -1.1730   22.3670  -27.5100 C   0  0  0  0  0  0  0  0  0  0  0  0
   -0.7800   21.8380  -26.2790 C   0  0  0  0  0  0  0  0  0  0  0  0
   -0.4870   22.6880  -25.2130 C   0  0  0  0  0  0  0  0  0  0  0  0
   -0.5870   24.0700  -25.3750 C   0  0  0  0  0  0  0  0  0  0  0  0
   -0.9790   24.6160  -26.6050 C   0  0  0  0  0  0  0  0  0  0  0  0
   -1.1420   26.3690  -26.6940 Cl  0  0  0  0  0  0  0  0  0  0  0  0
   -4.2810   24.0840  -30.8510 C   0  0  0  0  0  0  0  0  0  0  0  0
   -3.8650   25.4160  -30.8360 O   0  0  0  0  0  0  0  0  0  0  0  0
   -5.5850   23.7930  -31.2650 C   0  0  0  0  0  0  0  0  0  0  0  0
   -6.5100   19.5310  -33.5910 C   0  0  0  0  0  0  0  0  0  0  0  0
   -3.9875   17.9148  -34.7932 H   0  0  0  0  0  0  0  0  0  0  0  0
   -5.4309   17.3049  -35.6714 H   0  0  0  0  0  0  0  0  0  0  0  0
   -5.0554   19.0615  -35.6714 H   0  0  0  0  0  0  0  0  0  0  0  0
   -5.5408   16.2787  -33.1511 H   0  0  0  0  0  0  0  0  0  0  0  0
   -6.9816   16.5449  -31.1336 H   0  0  0  0  0  0  0  0  0  0  0  0
   -8.1122   18.7200  -30.6781 H   0  0  0  0  0  0  0  0  0  0  0  0
   -8.4222   24.1225  -31.4473 H   0  0  0  0  0  0  0  0  0  0  0  0
   -5.5338   20.3916  -30.9377 H   0  0  0  0  0  0  0  0  0  0  0  0
   -3.2035   20.8930  -30.2238 H   0  0  0  0  0  0  0  0  0  0  0  0
   -1.4081   21.6882  -28.3430 H   0  0  0  0  0  0  0  0  0  0  0  0
   -0.7013   20.7484  -26.1498 H   0  0  0  0  0  0  0  0  0  0  0  0
   -0.1770   22.2688  -24.2444 H   0  0  0  0  0  0  0  0  0  0  0  0
   -0.3564   24.7365  -24.5308 H   0  0  0  0  0  0  0  0  0  0  0  0
   -2.8870   25.6790  -30.8110 H   0  0  0  0  0  0  0  0  0  0  0  0
   -6.2595   24.6123  -31.5545 H   0  0  0  0  0  0  0  0  0  0  0  0
   -6.4036   20.3625  -34.3032 H   0  0  0  0  0  0  0  0  0  0  0  0
  1  2  1  0
  2  3  2  0
  3  4  1  0
  4  5  2  0
  5  6  1  0
  6  7  1  0
  7  8  1  0
  8  9  1  0
  9 10  2  0
 10 11  1  0
 11 12  1  0
 12 13  2  0
 13 14  1  0
 14 15  2  0
 15 16  1  0
 16 17  1  0
 17 18  2  0
 17 19  1  0
 19 20  2  0
 20 21  1  0
 21 22  2  0
 22 23  1  0
 23 24  2  0
 24 25  1  0
 15 26  1  0
 26 27  1  0
 26 28  2  0
  6 29  2  0
 29  2  1  0
 11  7  2  0
 28 12  1  0
 24 19  1  0
  1 30  1  0
  1 31  1  0
  1 32  1  0
  3 33  1  0
  4 34  1  0
  5 35  1  0
 10 36  1  0
 13 37  1  0
 14 38  1  0
 20 39  1  0
 21 40  1  0
 22 41  1  0
 23 42  1  0
 27 43  1  0
 28 44  1  0
 29 45  1  0
M  CHG  2   8  -1  16  -1
M  END
>  <UniqueID>  (45) 
42

>  <SMILES>  (45) 
Cc1cccc(-c2[n-]ncc2-c2ccc([N-]C(=O)c3ccccc3Cl)c(O)c2)c1

>  <Energy>  (45) 
94.7335891968149

>  <Genealogy>  (45) 
Cc1cccc(-c2[n-]ncc2-c2ccc([N-]C(=O)c3ccccc3Cl)c(O)c2)c1 (protonated)
Cc1cccc(-c2[n-]ncc2-c2ccc([N-]C(=O)c3ccccc3Cl)c(O)c2)c1 (3D coordinates assigned)
Cc1cccc(-c2[n-]ncc2-c2ccc([N-]C(=O)c3ccccc3Cl)c(O)c2)c1 (optimized conformer: 94.7335891968149 kcal/mol)

>  <smiles>  (45) 
Cc1cccc(-c2[nH]ncc2-c2ccc(NC(=O)c3ccccc3Cl)c(O)c2)c1

>  <score_type>  (45) 
oracle

>  <origin>  (45) 
adgpu

>  <m_score__min__energy>  (45) 
-12.18

>  <m_primary>  (45) 
energy

$$$$
45:0
     RDKit          3D

 59 62  0  0  0  0  0  0  0  0999 V2000
   -5.8090   26.4920  -30.1090 O   0  0  0  0  0  0  0  0  0  0  0  0
   -5.2850   25.4020  -30.4630 C   0  0  0  0  0  0  0  0  0  0  0  0
   -3.8550   25.3020  -30.4810 N   0  0  0  0  0  0  0  0  0  0  0  0
   -3.0840   24.1960  -29.9890 C   0  0  0  0  0  0  0  0  0  0  0  0
   -3.2650   22.8920  -30.4850 C   0  0  0  0  0  0  0  0  0  0  0  0
   -2.4840   21.8410  -29.9970 C   0  0  0  0  0  0  0  0  0  0  0  0
   -1.5120   22.0820  -29.0230 C   0  0  0  0  0  0  0  0  0  0  0  0
   -1.3100   23.3820  -28.5380 C   0  0  0  0  0  0  0  0  0  0  0  0
   -0.0970   23.7010  -27.3020 S   0  0  0  0  0  0  0  0  0  0  0  0
    0.8870   24.7010  -27.8420 O   0  0  0  0  0  0  0  0  0  0  0  0
    0.6430   22.4350  -26.9640 O   0  0  0  0  0  0  0  0  0  0  0  0
   -0.8780   24.3370  -25.8740 N   0  0  0  0  0  0  0  0  0  0  0  0
    0.0350   24.2970  -24.7030 C   0  0  0  0  0  0  0  0  0  0  0  0
    0.6520   25.6650  -24.3760 C   0  0  0  0  0  0  0  0  0  0  0  0
   -0.4360   26.7140  -24.0930 C   0  0  0  0  0  0  0  0  0  0  0  0
   -1.7340   26.4510  -24.8790 C   0  0  0  0  0  0  0  0  0  0  0  0
   -1.4480   25.6710  -26.1650 C   0  0  0  0  0  0  0  0  0  0  0  0
   -2.0960   24.4340  -29.0260 C   0  0  0  0  0  0  0  0  0  0  0  0
   -6.1560   24.2490  -30.7860 C   0  0  0  0  0  0  0  0  0  0  0  0
   -6.6840   23.4540  -29.7550 C   0  0  0  0  0  0  0  0  0  0  0  0
   -7.4920   22.3530  -30.0540 C   0  0  0  0  0  0  0  0  0  0  0  0
   -7.7630   22.0170  -31.3860 C   0  0  0  0  0  0  0  0  0  0  0  0
   -8.7820   20.6270  -31.7630 S   0  0  0  0  0  0  0  0  0  0  0  0
   -9.1070   19.9040  -30.4840 O   0  0  0  0  0  0  0  0  0  0  0  0
  -10.0760   21.1200  -32.3470 O   0  0  0  0  0  0  0  0  0  0  0  0
   -8.0380   19.5060  -32.8840 N   0  0  0  0  0  0  0  0  0  0  0  0
   -6.7800   20.0070  -33.4690 C   0  0  0  0  0  0  0  0  0  0  0  0
   -5.5440   19.5920  -32.6580 C   0  0  0  0  0  0  0  0  0  0  0  0
   -5.5300   18.1980  -32.4460 O   0  0  0  0  0  0  0  0  0  0  0  0
   -6.6320   17.8430  -31.6400 C   0  0  0  0  0  0  0  0  0  0  0  0
   -7.9530   18.1240  -32.3690 C   0  0  0  0  0  0  0  0  0  0  0  0
   -7.2440   22.8110  -32.4180 C   0  0  0  0  0  0  0  0  0  0  0  0
   -6.4390   23.9130  -32.1210 C   0  0  0  0  0  0  0  0  0  0  0  0
   -4.0229   22.6993  -31.2586 H   0  0  0  0  0  0  0  0  0  0  0  0
   -2.6350   20.8212  -30.3808 H   0  0  0  0  0  0  0  0  0  0  0  0
   -0.9043   21.2508  -28.6360 H   0  0  0  0  0  0  0  0  0  0  0  0
   -0.5332   23.9504  -23.8272 H   0  0  0  0  0  0  0  0  0  0  0  0
    0.8609   23.6148  -24.9529 H   0  0  0  0  0  0  0  0  0  0  0  0
    1.2940   25.5658  -23.4883 H   0  0  0  0  0  0  0  0  0  0  0  0
    1.2388   25.9983  -25.2446 H   0  0  0  0  0  0  0  0  0  0  0  0
   -0.6669   26.7002  -23.0176 H   0  0  0  0  0  0  0  0  0  0  0  0
   -0.0462   27.6916  -24.4129 H   0  0  0  0  0  0  0  0  0  0  0  0
   -2.4233   25.8681  -24.2505 H   0  0  0  0  0  0  0  0  0  0  0  0
   -2.1828   27.4185  -25.1483 H   0  0  0  0  0  0  0  0  0  0  0  0
   -2.3876   25.5444  -26.7228 H   0  0  0  0  0  0  0  0  0  0  0  0
   -0.7148   26.2382  -26.7571 H   0  0  0  0  0  0  0  0  0  0  0  0
   -1.9356   25.4551  -28.6496 H   0  0  0  0  0  0  0  0  0  0  0  0
   -6.4603   23.6993  -28.7063 H   0  0  0  0  0  0  0  0  0  0  0  0
   -7.9167   21.7481  -29.2393 H   0  0  0  0  0  0  0  0  0  0  0  0
   -6.6823   19.6072  -34.4891 H   0  0  0  0  0  0  0  0  0  0  0  0
   -6.8262   21.1060  -33.4661 H   0  0  0  0  0  0  0  0  0  0  0  0
   -4.6371   19.8823  -33.2086 H   0  0  0  0  0  0  0  0  0  0  0  0
   -5.5767   20.0972  -31.6814 H   0  0  0  0  0  0  0  0  0  0  0  0
   -6.5732   16.7710  -31.4004 H   0  0  0  0  0  0  0  0  0  0  0  0
   -6.6030   18.4432  -30.7187 H   0  0  0  0  0  0  0  0  0  0  0  0
   -8.0429   17.4271  -33.2153 H   0  0  0  0  0  0  0  0  0  0  0  0
   -8.7681   17.9897  -31.6426 H   0  0  0  0  0  0  0  0  0  0  0  0
   -7.4716   22.5652  -33.4658 H   0  0  0  0  0  0  0  0  0  0  0  0
   -6.0237   24.5220  -32.9374 H   0  0  0  0  0  0  0  0  0  0  0  0
  1  2  2  0
  2  3  1  0
  3  4  1  0
  4  5  2  0
  5  6  1  0
  6  7  2  0
  7  8  1  0
  8  9  1  0
  9 10  2  0
  9 11  2  0
  9 12  1  0
 12 13  1  0
 13 14  1  0
 14 15  1  0
 15 16  1  0
 16 17  1  0
  8 18  2  0
  2 19  1  0
 19 20  2  0
 20 21  1  0
 21 22  2  0
 22 23  1  0
 23 24  2  0
 23 25  2  0
 23 26  1  0
 26 27  1  0
 27 28  1  0
 28 29  1  0
 29 30  1  0
 30 31  1  0
 22 32  1  0
 32 33  2  0
 18  4  1  0
 33 19  1  0
 17 12  1  0
 31 26  1  0
  5 34  1  0
  6 35  1  0
  7 36  1  0
 13 37  1  0
 13 38  1  0
 14 39  1  0
 14 40  1  0
 15 41  1  0
 15 42  1  0
 16 43  1  0
 16 44  1  0
 17 45  1  0
 17 46  1  0
 18 47  1  0
 20 48  1  0
 21 49  1  0
 27 50  1  0
 27 51  1  0
 28 52  1  0
 28 53  1  0
 30 54  1  0
 30 55  1  0
 31 56  1  0
 31 57  1  0
 32 58  1  0
 33 59  1  0
M  CHG  1   3  -1
M  END
>  <UniqueID>  (46) 
43

>  <SMILES>  (46) 
O=C([N-]c1cccc(S(=O)(=O)N2CCCCC2)c1)c1ccc(S(=O)(=O)N2CCOCC2)cc1

>  <Energy>  (46) 
78.61278448636554

>  <Genealogy>  (46) 
O=C([N-]c1cccc(S(=O)(=O)N2CCCCC2)c1)c1ccc(S(=O)(=O)N2CCOCC2)cc1 (protonated)
O=C([N-]c1cccc(S(=O)(=O)N2CCCCC2)c1)c1ccc(S(=O)(=O)N2CCOCC2)cc1 (3D coordinates assigned)
O=C([N-]c1cccc(S(=O)(=O)N2CCCCC2)c1)c1ccc(S(=O)(=O)N2CCOCC2)cc1 (nonaromatic ring conformer: 78.61278448636554 kcal/mol)

>  <smiles>  (46) 
O=C(Nc1cccc(S(=O)(=O)N2CCCCC2)c1)c1ccc(S(=O)(=O)N2CCOCC2)cc1

>  <score_type>  (46) 
oracle

>  <origin>  (46) 
adgpu

>  <m_score__min__energy>  (46) 
-13.33

>  <m_primary>  (46) 
energy

$$$$
46:0
     RDKit          3D

 36 38  0  0  1  0  0  0  0  0999 V2000
   -9.4330   20.6230  -31.6640 C   0  0  0  0  0  0  0  0  0  0  0  0
   -8.0620   20.3380  -32.1150 C   0  0  0  0  0  0  0  0  0  0  0  0
   -7.0540   21.2600  -31.9210 C   0  0  0  0  0  0  0  0  0  0  0  0
   -5.7860   20.9350  -32.3670 C   0  0  0  0  0  0  0  0  0  0  0  0
   -4.8010   21.7530  -32.2150 N   0  0  0  0  0  0  0  0  0  0  0  0
   -4.9420   23.0120  -31.5970 C   0  0  0  0  0  0  0  0  0  0  0  0
   -6.0710   23.8000  -31.6910 C   0  0  0  0  0  0  0  0  0  0  0  0
   -6.0690   25.0140  -31.0320 C   0  0  0  0  0  0  0  0  0  0  0  0
   -4.9950   25.4580  -30.2920 C   0  0  0  0  0  0  0  0  0  0  0  0
   -3.8650   24.6760  -30.1930 C   0  0  0  0  0  0  0  0  0  0  0  0
   -2.7420   25.0510  -29.4690 O   0  0  0  0  0  0  0  0  0  0  0  0
   -3.8550   23.4650  -30.8470 C   0  0  0  0  0  0  0  0  0  0  0  0
   -5.5250   19.7660  -32.9710 N   0  0  0  0  0  0  0  0  0  0  0  0
   -4.4060   19.2590  -33.4670 N   0  0  0  0  0  0  0  0  0  0  0  0
   -4.6830   18.0420  -33.9680 C   0  0  0  0  0  0  0  0  0  0  0  0
   -3.6570   17.1590  -34.6170 C   0  0  0  0  0  0  0  0  0  0  0  0
   -6.0310   17.7740  -33.7790 C   0  0  0  0  0  0  0  0  0  0  0  0
   -6.7510   16.5330  -34.1890 C   0  0  0  0  0  0  0  0  0  0  0  0
   -6.5470   18.8890  -33.1410 C   0  0  0  0  0  0  0  0  0  0  0  0
   -7.7730   19.1750  -32.7240 N   0  0  0  0  0  0  0  0  0  0  0  0
   -9.4634   20.6293  -30.5644 H   0  0  0  0  0  0  0  0  0  0  0  0
   -9.7476   21.6057  -32.0452 H   0  0  0  0  0  0  0  0  0  0  0  0
  -10.1131   19.8470  -32.0452 H   0  0  0  0  0  0  0  0  0  0  0  0
   -7.2526   22.2227  -31.4274 H   0  0  0  0  0  0  0  0  0  0  0  0
   -6.9451   23.4717  -32.2725 H   0  0  0  0  0  0  0  0  0  0  0  0
   -6.9619   25.6527  -31.1009 H   0  0  0  0  0  0  0  0  0  0  0  0
   -5.0395   26.4320  -29.7828 H   0  0  0  0  0  0  0  0  0  0  0  0
   -2.0370   25.6750  -29.8450 H   0  0  0  0  0  0  0  0  0  0  0  0
   -2.9586   22.8314  -30.7763 H   0  0  0  0  0  0  0  0  0  0  0  0
   -3.4690   19.7130  -33.4740 H   0  0  0  0  0  0  0  0  0  0  0  0
   -3.0666   16.6509  -33.8404 H   0  0  0  0  0  0  0  0  0  0  0  0
   -4.1622   16.4088  -35.2431 H   0  0  0  0  0  0  0  0  0  0  0  0
   -2.9904   17.7703  -35.2431 H   0  0  0  0  0  0  0  0  0  0  0  0
   -7.0709   15.9816  -33.2926 H   0  0  0  0  0  0  0  0  0  0  0  0
   -7.6333   16.8020  -34.7883 H   0  0  0  0  0  0  0  0  0  0  0  0
   -6.0796   15.9006  -34.7883 H   0  0  0  0  0  0  0  0  0  0  0  0
  1  2  1  0
  2  3  2  0
  3  4  1  0
  4  5  2  0
  5  6  1  0
  6  7  2  0
  7  8  1  0
  8  9  2  0
  9 10  1  0
 10 11  1  0
 10 12  2  0
  4 13  1  0
 13 14  1  0
 14 15  1  0
 15 16  1  0
 15 17  2  0
 17 18  1  0
 17 19  1  0
 19 20  2  0
 20  2  1  0
 12  6  1  0
 19 13  1  0
  1 21  1  0
  1 22  1  0
  1 23  1  0
  3 24  1  0
  7 25  1  0
  8 26  1  0
  9 27  1  0
 11 28  1  0
 12 29  1  0
 14 30  1  0
 16 31  1  0
 16 32  1  0
 16 33  1  0
 18 34  1  0
 18 35  1  0
 18 36  1  0
M  END
>  <smiles>  (47) 
Cc1cc(=Nc2cccc(O)c2)n2[nH]c(C)c(C)c2n1

>  <score_type>  (47) 
oracle

>  <origin>  (47) 
adgpu

>  <m_score__min__energy>  (47) 
-8.7799999999999994

>  <m_primary>  (47) 
energy

$$$$
47:0
     RDKit          3D

 54 57  0  0  0  0  0  0  0  0999 V2000
   -7.9090   22.3420  -29.6810 O   0  0  0  0  0  0  0  0  0  0  0  0
   -7.8480   22.4540  -31.1800 S   0  0  0  0  0  0  0  0  0  0  0  0
   -9.1410   23.0470  -31.6650 O   0  0  0  0  0  0  0  0  0  0  0  0
   -7.6710   20.8540  -31.8930 C   0  0  0  0  0  0  0  0  0  0  0  0
   -6.8580   20.6850  -33.0220 C   0  0  0  0  0  0  0  0  0  0  0  0
   -6.6830   19.4160  -33.5820 C   0  0  0  0  0  0  0  0  0  0  0  0
   -7.3240   18.3030  -33.0260 C   0  0  0  0  0  0  0  0  0  0  0  0
   -7.1060   17.0430  -33.6010 O   0  0  0  0  0  0  0  0  0  0  0  0
   -5.9040   16.3220  -33.5410 C   0  0  0  0  0  0  0  0  0  0  0  0
   -4.7250   17.0050  -33.2160 C   0  0  0  0  0  0  0  0  0  0  0  0
   -3.5050   16.3220  -33.1630 C   0  0  0  0  0  0  0  0  0  0  0  0
   -3.4540   14.9540  -33.4450 C   0  0  0  0  0  0  0  0  0  0  0  0
   -4.6220   14.2680  -33.7890 C   0  0  0  0  0  0  0  0  0  0  0  0
   -5.8430   14.9480  -33.8420 C   0  0  0  0  0  0  0  0  0  0  0  0
   -8.1250   18.4700  -31.8810 C   0  0  0  0  0  0  0  0  0  0  0  0
   -8.2970   19.7380  -31.3190 C   0  0  0  0  0  0  0  0  0  0  0  0
   -6.5170   23.4840  -31.6640 N   0  0  0  0  0  0  0  0  0  0  0  0
   -5.2290   22.7640  -31.6700 C   0  0  0  0  0  0  0  0  0  0  0  0
   -4.6510   22.5500  -30.2550 C   0  0  0  0  0  0  0  0  0  0  0  0
   -4.9640   23.6550  -29.3140 N   0  0  0  0  0  0  0  0  0  0  0  0
   -3.6520   23.8830  -28.1840 S   0  0  0  0  0  0  0  0  0  0  0  0
   -2.7610   24.9990  -28.6560 O   0  0  0  0  0  0  0  0  0  0  0  0
   -4.1950   24.2460  -26.8280 O   0  0  0  0  0  0  0  0  0  0  0  0
   -2.6960   22.4070  -28.0730 C   0  0  0  0  0  0  0  0  0  0  0  0
   -1.4010   22.3730  -28.6110 C   0  0  0  0  0  0  0  0  0  0  0  0
   -0.6430   21.2010  -28.5450 C   0  0  0  0  0  0  0  0  0  0  0  0
   -1.1760   20.0550  -27.9470 C   0  0  0  0  0  0  0  0  0  0  0  0
   -2.4690   20.0810  -27.4160 C   0  0  0  0  0  0  0  0  0  0  0  0
   -3.2290   21.2530  -27.4780 C   0  0  0  0  0  0  0  0  0  0  0  0
   -5.2500   24.9170  -30.0140 C   0  0  0  0  0  0  0  0  0  0  0  0
   -6.4900   24.7600  -30.9120 C   0  0  0  0  0  0  0  0  0  0  0  0
   -6.3552   21.5549  -33.4696 H   0  0  0  0  0  0  0  0  0  0  0  0
   -6.0380   19.2917  -34.4644 H   0  0  0  0  0  0  0  0  0  0  0  0
   -4.7584   18.0834  -33.0014 H   0  0  0  0  0  0  0  0  0  0  0  0
   -2.5842   16.8627  -32.8989 H   0  0  0  0  0  0  0  0  0  0  0  0
   -2.4949   14.4175  -33.3962 H   0  0  0  0  0  0  0  0  0  0  0  0
   -4.5810   13.1929  -34.0181 H   0  0  0  0  0  0  0  0  0  0  0  0
   -6.7595   14.4070  -34.1200 H   0  0  0  0  0  0  0  0  0  0  0  0
   -8.6181   17.5983  -31.4261 H   0  0  0  0  0  0  0  0  0  0  0  0
   -8.9249   19.8610  -30.4242 H   0  0  0  0  0  0  0  0  0  0  0  0
   -5.3793   21.7807  -32.1396 H   0  0  0  0  0  0  0  0  0  0  0  0
   -4.5100   23.3807  -32.2293 H   0  0  0  0  0  0  0  0  0  0  0  0
   -5.0663   21.6168  -29.8467 H   0  0  0  0  0  0  0  0  0  0  0  0
   -3.5563   22.5107  -30.3552 H   0  0  0  0  0  0  0  0  0  0  0  0
   -5.8030   23.3950  -28.7440 H   0  0  0  0  0  0  0  0  0  0  0  0
   -0.9809   23.2717  -29.0863 H   0  0  0  0  0  0  0  0  0  0  0  0
    0.3739   21.1799  -28.9639 H   0  0  0  0  0  0  0  0  0  0  0  0
   -0.5781   19.1332  -27.8944 H   0  0  0  0  0  0  0  0  0  0  0  0
   -2.8891   19.1781  -26.9487 H   0  0  0  0  0  0  0  0  0  0  0  0
   -4.2462   21.2706  -27.0598 H   0  0  0  0  0  0  0  0  0  0  0  0
   -5.4361   25.7088  -29.2734 H   0  0  0  0  0  0  0  0  0  0  0  0
   -4.3857   25.1828  -30.6404 H   0  0  0  0  0  0  0  0  0  0  0  0
   -7.3876   24.8096  -30.2780 H   0  0  0  0  0  0  0  0  0  0  0  0
   -6.4576   25.5720  -31.6534 H   0  0  0  0  0  0  0  0  0  0  0  0
  1  2  2  0
  2  3  2  0
  2  4  1  0
  4  5  2  0
  5  6  1  0
  6  7  2  0
  7  8  1  0
  8  9  1  0
  9 10  2  0
 10 11  1  0
 11 12  2  0
 12 13  1  0
 13 14  2  0
  7 15  1  0
 15 16  2  0
  2 17  1  0
 17 18  1  0
 18 19  1  0
 19 20  1  0
 20 21  1  0
 21 22  2  0
 21 23  2  0
 21 24  1  0
 24 25  2  0
 25 26  1  0
 26 27  2  0
 27 28  1  0
 28 29  2  0
 20 30  1  0
 30 31  1  0
 16  4  1  0
 31 17  1  0
 14  9  1  0
 29 24  1  0
  5 32  1  0
  6 33  1  0
 10 34  1  0
 11 35  1  0
 12 36  1  0
 13 37  1  0
 14 38  1  0
 15 39  1  0
 16 40  1  0
 18 41  1  0
 18 42  1  0
 19 43  1  0
 19 44  1  0
 20 45  1  0
 25 46  1  0
 26 47  1  0
 27 48  1  0
 28 49  1  0
 29 50  1  0
 30 51  1  0
 30 52  1  0
 31 53  1  0
 31 54  1  0
M  CHG  1  20   1
M  END
>  <UniqueID>  (48) 
44

>  <SMILES>  (48) 
O=S(=O)(c1ccc(Oc2ccccc2)cc1)N1CC[NH+](S(=O)(=O)c2ccccc2)CC1

>  <Energy>  (48) 
73.84232155879693

>  <Genealogy>  (48) 
O=S(=O)(c1ccc(Oc2ccccc2)cc1)N1CC[NH+](S(=O)(=O)c2ccccc2)CC1 (protonated)
O=S(=O)(c1ccc(Oc2ccccc2)cc1)N1CC[NH+](S(=O)(=O)c2ccccc2)CC1 (3D coordinates assigned)
O=S(=O)(c1ccc(Oc2ccccc2)cc1)N1CC[NH+](S(=O)(=O)c2ccccc2)CC1 (nonaromatic ring conformer: 73.84232155879693 kcal/mol)

>  <smiles>  (48) 
O=S(=O)(c1ccccc1)N1CCN(S(=O)(=O)c2ccc(Oc3ccccc3)cc2)CC1

>  <score_type>  (48) 
oracle

>  <origin>  (48) 
adgpu

>  <m_score__min__energy>  (48) 
-9.6699999999999999

>  <m_primary>  (48) 
energy

$$$$
48:0
     RDKit          3D

 42 44  0  0  0  0  0  0  0  0999 V2000
   -4.4270   22.2680  -33.3780 O   0  0  0  0  0  0  0  0  0  0  0  0
   -3.7300   21.8480  -32.4140 C   0  0  0  0  0  0  0  0  0  0  0  0
   -3.7720   22.5420  -31.1570 N   0  0  0  0  0  0  0  0  0  0  0  0
   -4.8420   23.4250  -30.7850 C   0  0  0  0  0  0  0  0  0  0  0  0
   -6.1640   22.9550  -30.8280 C   0  0  0  0  0  0  0  0  0  0  0  0
   -7.2260   23.7940  -30.4790 C   0  0  0  0  0  0  0  0  0  0  0  0
   -6.9780   25.1140  -30.0970 C   0  0  0  0  0  0  0  0  0  0  0  0
   -5.6690   25.6010  -30.0760 C   0  0  0  0  0  0  0  0  0  0  0  0
   -4.6000   24.7680  -30.4300 C   0  0  0  0  0  0  0  0  0  0  0  0
   -3.3120   25.2920  -30.4520 O   0  0  0  0  0  0  0  0  0  0  0  0
   -2.8580   20.6630  -32.6030 C   0  0  0  0  0  0  0  0  0  0  0  0
   -1.6240   20.5610  -31.9350 C   0  0  0  0  0  0  0  0  0  0  0  0
   -0.8280   19.4230  -32.0900 C   0  0  0  0  0  0  0  0  0  0  0  0
   -1.2580   18.3710  -32.8980 C   0  0  0  0  0  0  0  0  0  0  0  0
   -2.4870   18.4490  -33.5610 C   0  0  0  0  0  0  0  0  0  0  0  0
   -3.0560   17.0700  -34.4990 S   0  0  0  0  0  0  0  0  0  0  0  0
   -2.1330   16.8020  -35.6560 O   0  0  0  0  0  0  0  0  0  0  0  0
   -3.0730   15.8580  -33.6120 O   0  0  0  0  0  0  0  0  0  0  0  0
   -4.6720   17.3780  -35.0730 N   0  0  0  0  0  0  0  0  0  0  0  0
   -5.6820   16.9050  -34.1240 C   0  0  0  0  0  0  0  0  0  0  0  0
   -6.4320   18.0460  -33.4980 C   0  0  0  0  0  0  0  0  0  0  0  0
   -7.2990   17.8310  -32.4170 C   0  0  0  0  0  0  0  0  0  0  0  0
   -7.9550   18.9200  -31.8390 C   0  0  0  0  0  0  0  0  0  0  0  0
   -7.7590   20.2030  -32.3530 C   0  0  0  0  0  0  0  0  0  0  0  0
   -6.9070   20.3770  -33.4450 C   0  0  0  0  0  0  0  0  0  0  0  0
   -6.2680   19.3070  -33.9880 N   0  0  0  0  0  0  0  0  0  0  0  0
   -3.2810   19.5970  -33.4180 C   0  0  0  0  0  0  0  0  0  0  0  0
   -2.9110   22.5430  -30.5650 H   0  0  0  0  0  0  0  0  0  0  0  0
   -6.3656   21.9192  -31.1385 H   0  0  0  0  0  0  0  0  0  0  0  0
   -8.2580   23.4141  -30.5053 H   0  0  0  0  0  0  0  0  0  0  0  0
   -7.8136   25.7704  -29.8126 H   0  0  0  0  0  0  0  0  0  0  0  0
   -5.4769   26.6429  -29.7803 H   0  0  0  0  0  0  0  0  0  0  0  0
   -1.2837   21.3820  -31.2868 H   0  0  0  0  0  0  0  0  0  0  0  0
    0.1407   19.3569  -31.5731 H   0  0  0  0  0  0  0  0  0  0  0  0
   -0.6283   17.4766  -33.0144 H   0  0  0  0  0  0  0  0  0  0  0  0
   -6.3955   16.2580  -34.6554 H   0  0  0  0  0  0  0  0  0  0  0  0
   -5.1689   16.3513  -33.3240 H   0  0  0  0  0  0  0  0  0  0  0  0
   -7.4608   16.8148  -32.0282 H   0  0  0  0  0  0  0  0  0  0  0  0
   -8.6250   18.7670  -30.9801 H   0  0  0  0  0  0  0  0  0  0  0  0
   -8.2700   21.0668  -31.9028 H   0  0  0  0  0  0  0  0  0  0  0  0
   -6.7525   21.3812  -33.8666 H   0  0  0  0  0  0  0  0  0  0  0  0
   -4.2427   19.6641  -33.9478 H   0  0  0  0  0  0  0  0  0  0  0  0
  1  2  2  0
  2  3  1  0
  3  4  1  0
  4  5  2  0
  5  6  1  0
  6  7  2  0
  7  8  1  0
  8  9  2  0
  9 10  1  0
  2 11  1  0
 11 12  2  0
 12 13  1  0
 13 14  2  0
 14 15  1  0
 15 16  1  0
 16 17  2  0
 16 18  2  0
 16 19  1  0
 19 20  1  0
 20 21  1  0
 21 22  2  0
 22 23  1  0
 23 24  2  0
 24 25  1  0
 25 26  2  0
 15 27  2  0
  9  4  1  0
 27 11  1  0
 26 21  1  0
  3 28  1  0
  5 29  1  0
  6 30  1  0
  7 31  1  0
  8 32  1  0
 12 33  1  0
 13 34  1  0
 14 35  1  0
 20 36  1  0
 20 37  1  0
 22 38  1  0
 23 39  1  0
 24 40  1  0
 25 41  1  0
 27 42  1  0
M  CHG  2  10  -1  19  -1
M  END
>  <UniqueID>  (49) 
45

>  <SMILES>  (49) 
O=C(Nc1ccccc1[O-])c1cccc(S(=O)(=O)[N-]Cc2ccccn2)c1

>  <Energy>  (49) 
47.66154398468078

>  <Genealogy>  (49) 
O=C(Nc1ccccc1[O-])c1cccc(S(=O)(=O)[N-]Cc2ccccn2)c1 (protonated)
O=C(Nc1ccccc1[O-])c1cccc(S(=O)(=O)[N-]Cc2ccccn2)c1 (3D coordinates assigned)
O=C(Nc1ccccc1[O-])c1cccc(S(=O)(=O)[N-]Cc2ccccn2)c1 (optimized conformer: 47.66154398468078 kcal/mol)

>  <smiles>  (49) 
O=C(Nc1ccccc1O)c1cccc(S(=O)(=O)NCc2ccccn2)c1

>  <score_type>  (49) 
oracle

>  <origin>  (49) 
adgpu

>  <m_score__min__energy>  (49) 
-11.800000000000001

>  <m_primary>  (49) 
energy

$$$$
49:0
     RDKit          3D

 64 66  0  0  0  0  0  0  0  0999 V2000
    0.0520   21.3080  -36.1530 C   0  0  0  0  0  0  0  0  0  0  0  0
    0.6390   22.1160  -35.0700 N   0  0  0  0  0  0  0  0  0  0  0  0
    2.0670   22.3460  -35.3520 C   0  0  0  0  0  0  0  0  0  0  0  0
    0.4530   21.4320  -33.7710 C   0  0  0  0  0  0  0  0  0  0  0  0
   -1.0300   21.3250  -33.3820 C   0  0  0  0  0  0  0  0  0  0  0  0
   -1.2530   20.3930  -32.1870 C   0  0  0  0  0  0  0  0  0  0  0  0
   -1.3520   19.0130  -32.6520 N   0  0  0  0  0  0  0  0  0  0  0  0
   -1.9110   18.6000  -33.9050 C   0  0  0  0  0  0  0  0  0  0  0  0
   -1.1600   18.5550  -34.9140 O   0  0  0  0  0  0  0  0  0  0  0  0
   -3.3190   18.1630  -34.0280 C   0  0  0  0  0  0  0  0  0  0  0  0
   -4.4170   18.9490  -33.7200 C   0  0  0  0  0  0  0  0  0  0  0  0
   -5.5170   18.1200  -33.8570 C   0  0  0  0  0  0  0  0  0  0  0  0
   -6.8890   18.4270  -33.5810 N   0  0  0  0  0  0  0  0  0  0  0  0
   -7.3960   19.0880  -32.4140 C   0  0  0  0  0  0  0  0  0  0  0  0
   -7.8130   18.4220  -31.4310 O   0  0  0  0  0  0  0  0  0  0  0  0
   -7.3860   20.5630  -32.3630 C   0  0  0  0  0  0  0  0  0  0  0  0
   -6.2420   21.3350  -32.4630 C   0  0  0  0  0  0  0  0  0  0  0  0
   -6.6570   22.6430  -32.2890 C   0  0  0  0  0  0  0  0  0  0  0  0
   -5.8460   23.8240  -32.3010 N   0  0  0  0  0  0  0  0  0  0  0  0
   -5.2100   24.4350  -31.1680 C   0  0  0  0  0  0  0  0  0  0  0  0
   -5.5820   25.5890  -30.8240 O   0  0  0  0  0  0  0  0  0  0  0  0
   -4.1650   23.7480  -30.3730 C   0  0  0  0  0  0  0  0  0  0  0  0
   -4.2290   22.3570  -30.1800 C   0  0  0  0  0  0  0  0  0  0  0  0
   -3.2690   21.7080  -29.3980 C   0  0  0  0  0  0  0  0  0  0  0  0
   -2.2370   22.4370  -28.8020 C   0  0  0  0  0  0  0  0  0  0  0  0
   -2.1500   23.8220  -29.0020 C   0  0  0  0  0  0  0  0  0  0  0  0
   -0.8860   24.7670  -28.2220 S   0  0  0  0  0  0  0  0  0  0  0  0
   -1.0390   26.4220  -28.7000 N   0  0  0  0  0  0  0  0  0  0  0  0
    0.4600   24.2410  -28.6370 O   0  0  0  0  0  0  0  0  0  0  0  0
   -1.0110   24.6740  -26.7260 O   0  0  0  0  0  0  0  0  0  0  0  0
   -3.0970   24.4680  -29.8060 C   0  0  0  0  0  0  0  0  0  0  0  0
   -8.0230   22.6320  -32.1290 C   0  0  0  0  0  0  0  0  0  0  0  0
   -8.4660   21.3580  -32.1670 N   0  0  0  0  0  0  0  0  0  0  0  0
   -9.8590   20.9490  -32.0060 C   0  0  0  0  0  0  0  0  0  0  0  0
   -5.0600   16.8750  -34.2280 C   0  0  0  0  0  0  0  0  0  0  0  0
   -3.7180   16.9080  -34.3400 N   0  0  0  0  0  0  0  0  0  0  0  0
   -2.8720   15.7680  -34.6890 C   0  0  0  0  0  0  0  0  0  0  0  0
   -0.5422   20.4901  -35.7195 H   0  0  0  0  0  0  0  0  0  0  0  0
   -0.5967   21.9432  -36.7741 H   0  0  0  0  0  0  0  0  0  0  0  0
    0.8566   20.8874  -36.7741 H   0  0  0  0  0  0  0  0  0  0  0  0
    2.6182   22.4348  -34.4042 H   0  0  0  0  0  0  0  0  0  0  0  0
    2.4672   21.5007  -35.9311 H   0  0  0  0  0  0  0  0  0  0  0  0
    2.1815   23.2742  -35.9311 H   0  0  0  0  0  0  0  0  0  0  0  0
    0.8758   20.4188  -33.8397 H   0  0  0  0  0  0  0  0  0  0  0  0
    0.9641   22.0258  -32.9989 H   0  0  0  0  0  0  0  0  0  0  0  0
   -1.4006   22.3276  -33.1224 H   0  0  0  0  0  0  0  0  0  0  0  0
   -1.5734   20.9053  -34.2414 H   0  0  0  0  0  0  0  0  0  0  0  0
   -0.4075   20.4841  -31.4893 H   0  0  0  0  0  0  0  0  0  0  0  0
   -2.1856   20.6731  -31.6753 H   0  0  0  0  0  0  0  0  0  0  0  0
   -4.4153   20.0095  -33.4278 H   0  0  0  0  0  0  0  0  0  0  0  0
   -5.2159   20.9820  -32.6434 H   0  0  0  0  0  0  0  0  0  0  0  0
   -5.0384   21.7764  -30.6466 H   0  0  0  0  0  0  0  0  0  0  0  0
   -3.3264   20.6193  -29.2514 H   0  0  0  0  0  0  0  0  0  0  0  0
   -1.4923   21.9242  -28.1755 H   0  0  0  0  0  0  0  0  0  0  0  0
   -1.1780   26.4330  -29.7340 H   0  0  0  0  0  0  0  0  0  0  0  0
   -3.0054   25.5476  -29.9961 H   0  0  0  0  0  0  0  0  0  0  0  0
   -8.6550   23.5218  -31.9917 H   0  0  0  0  0  0  0  0  0  0  0  0
  -10.0990   20.8785  -30.9348 H   0  0  0  0  0  0  0  0  0  0  0  0
  -10.5165   21.6920  -32.4810 H   0  0  0  0  0  0  0  0  0  0  0  0
  -10.0105   19.9685  -32.4810 H   0  0  0  0  0  0  0  0  0  0  0  0
   -5.6917   15.9921  -34.4051 H   0  0  0  0  0  0  0  0  0  0  0  0
   -2.5123   15.2833  -33.7694 H   0  0  0  0  0  0  0  0  0  0  0  0
   -3.4548   15.0462  -35.2801 H   0  0  0  0  0  0  0  0  0  0  0  0
   -2.0123   16.1167  -35.2801 H   0  0  0  0  0  0  0  0  0  0  0  0
  1  2  1  0
  2  3  1  0
  2  4  1  0
  4  5  1  0
  5  6  1  0
  6  7  1  0
  7  8  1  0
  8  9  2  0
  8 10  1  0
 10 11  2  0
 11 12  1  0
 12 13  1  0
 13 14  1  0
 14 15  2  0
 14 16  1  0
 16 17  2  0
 17 18  1  0
 18 19  1  0
 19 20  1  0
 20 21  2  0
 20 22  1  0
 22 23  2  0
 23 24  1  0
 24 25  2  0
 25 26  1  0
 26 27  1  0
 27 28  1  0
 27 29  2  0
 27 30  2  0
 26 31  2  0
 18 32  2  0
 32 33  1  0
 33 34  1  0
 12 35  2  0
 35 36  1  0
 36 37  1  0
 36 10  1  0
 33 16  1  0
 31 22  1  0
  1 38  1  0
  1 39  1  0
  1 40  1  0
  3 41  1  0
  3 42  1  0
  3 43  1  0
  4 44  1  0
  4 45  1  0
  5 46  1  0
  5 47  1  0
  6 48  1  0
  6 49  1  0
 11 50  1  0
 17 51  1  0
 23 52  1  0
 24 53  1  0
 25 54  1  0
 28 55  1  0
 31 56  1  0
 32 57  1  0
 34 58  1  0
 34 59  1  0
 34 60  1  0
 35 61  1  0
 37 62  1  0
 37 63  1  0
 37 64  1  0
M  CHG  4   7  -1  13  -1  19  -1  28  -1
M  END
>  <UniqueID>  (50) 
46

>  <SMILES>  (50) 
CN(C)CCC[N-]C(=O)c1cc([N-]C(=O)c2cc([N-]C(=O)c3cccc(S([NH-])(=O)=O)c3)cn2C)cn1C

>  <Energy>  (50) 
125.85545370600096

>  <Genealogy>  (50) 
CN(C)CCC[N-]C(=O)c1cc([N-]C(=O)c2cc([N-]C(=O)c3cccc(S([NH-])(=O)=O)c3)cn2C)cn1C (protonated)
CN(C)CCC[N-]C(=O)c1cc([N-]C(=O)c2cc([N-]C(=O)c3cccc(S([NH-])(=O)=O)c3)cn2C)cn1C (3D coordinates assigned)
CN(C)CCC[N-]C(=O)c1cc([N-]C(=O)c2cc([N-]C(=O)c3cccc(S([NH-])(=O)=O)c3)cn2C)cn1C (optimized conformer: 125.85545370600096 kcal/mol)

>  <smiles>  (50) 
CN(C)CCCNC(=O)c1cc(NC(=O)c2cc(NC(=O)c3cccc(S(N)(=O)=O)c3)cn2C)cn1C

>  <score_type>  (50) 
oracle

>  <origin>  (50) 
adgpu

>  <m_score__min__energy>  (50) 
-11.42

>  <m_primary>  (50) 
energy

$$$$
