0:0
     RDKit          3D

 46 48  0  0  0  0  0  0  0  0999 V2000
   -9.0760   19.4970  -32.8640 O   0  0  0  0  0  0  0  0  0  0  0  0
   -7.8520   19.6840  -32.6220 C   0  0  0  0  0  0  0  0  0  0  0  0
   -6.8710   18.6530  -33.0500 C   0  0  0  0  0  0  0  0  0  0  0  0
   -6.6440   17.4900  -32.2880 C   0  0  0  0  0  0  0  0  0  0  0  0
   -5.7090   16.5380  -32.7090 C   0  0  0  0  0  0  0  0  0  0  0  0
   -4.9870   16.7370  -33.8880 C   0  0  0  0  0  0  0  0  0  0  0  0
   -4.0810   15.8130  -34.2910 F   0  0  0  0  0  0  0  0  0  0  0  0
   -5.1940   17.8920  -34.6450 C   0  0  0  0  0  0  0  0  0  0  0  0
   -6.1270   18.8460  -34.2290 C   0  0  0  0  0  0  0  0  0  0  0  0
   -7.4250   20.9700  -31.9440 C   0  0  0  0  0  0  0  0  0  0  0  0
   -8.5920   21.9840  -31.8440 C   0  0  0  0  0  0  0  0  0  0  0  0
   -8.0950   23.4280  -31.6310 C   0  0  0  0  0  0  0  0  0  0  0  0
   -6.7470   23.4260  -31.0370 N   0  0  0  0  0  0  0  0  0  0  0  0
   -6.3490   24.7220  -30.4460 C   0  0  0  0  0  0  0  0  0  0  0  0
   -4.8300   24.9890  -30.4560 C   0  0  0  0  0  0  0  0  0  0  0  0
   -4.1660   24.1370  -29.4710 N   0  0  0  0  0  0  0  0  0  0  0  0
   -4.8010   23.0320  -28.7790 C   0  0  0  0  0  0  0  0  0  0  0  0
   -3.7280   22.4440  -27.8420 C   0  0  0  0  0  0  0  0  0  0  0  0
   -2.5130   23.3860  -27.8870 C   0  0  0  0  0  0  0  0  0  0  0  0
   -2.8740   24.3550  -28.9410 C   0  0  0  0  0  0  0  0  0  0  0  0
   -2.1230   25.2940  -29.3160 O   0  0  0  0  0  0  0  0  0  0  0  0
   -5.7300   22.8710  -31.9590 C   0  0  0  0  0  0  0  0  0  0  0  0
   -6.2290   21.5970  -32.6780 C   0  0  0  0  0  0  0  0  0  0  0  0
   -7.2055   17.3293  -31.3559 H   0  0  0  0  0  0  0  0  0  0  0  0
   -5.5421   15.6306  -32.1100 H   0  0  0  0  0  0  0  0  0  0  0  0
   -4.6216   18.0514  -35.5707 H   0  0  0  0  0  0  0  0  0  0  0  0
   -6.2811   19.7555  -34.8283 H   0  0  0  0  0  0  0  0  0  0  0  0
   -7.1188   20.7153  -30.9186 H   0  0  0  0  0  0  0  0  0  0  0  0
   -9.1759   21.9445  -32.7754 H   0  0  0  0  0  0  0  0  0  0  0  0
   -9.2052   21.7070  -30.9738 H   0  0  0  0  0  0  0  0  0  0  0  0
   -8.0629   23.9467  -32.6005 H   0  0  0  0  0  0  0  0  0  0  0  0
   -8.7847   23.9451  -30.9477 H   0  0  0  0  0  0  0  0  0  0  0  0
   -6.8428   25.5246  -31.0134 H   0  0  0  0  0  0  0  0  0  0  0  0
   -6.6547   24.6917  -29.3898 H   0  0  0  0  0  0  0  0  0  0  0  0
   -4.4283   24.7704  -31.4564 H   0  0  0  0  0  0  0  0  0  0  0  0
   -4.6472   26.0437  -30.2028 H   0  0  0  0  0  0  0  0  0  0  0  0
   -5.6623   23.3904  -28.1962 H   0  0  0  0  0  0  0  0  0  0  0  0
   -5.1764   22.2769  -29.4853 H   0  0  0  0  0  0  0  0  0  0  0  0
   -4.1182   22.3822  -26.8154 H   0  0  0  0  0  0  0  0  0  0  0  0
   -3.4458   21.4301  -28.1620 H   0  0  0  0  0  0  0  0  0  0  0  0
   -2.3694   23.8906  -26.9201 H   0  0  0  0  0  0  0  0  0  0  0  0
   -1.5681   22.8607  -28.0902 H   0  0  0  0  0  0  0  0  0  0  0  0
   -5.4842   23.6314  -32.7149 H   0  0  0  0  0  0  0  0  0  0  0  0
   -4.8460   22.5991  -31.3635 H   0  0  0  0  0  0  0  0  0  0  0  0
   -6.5352   21.8603  -33.7012 H   0  0  0  0  0  0  0  0  0  0  0  0
   -5.4089   20.8641  -32.6921 H   0  0  0  0  0  0  0  0  0  0  0  0
  1  2  2  0
  2  3  1  0
  3  4  2  0
  4  5  1  0
  5  6  2  0
  6  7  1  0
  6  8  1  0
  8  9  2  0
  2 10  1  0
 10 11  1  0
 11 12  1  0
 12 13  1  0
 13 14  1  0
 14 15  1  0
 15 16  1  0
 16 17  1  0
 17 18  1  0
 18 19  1  0
 19 20  1  0
 20 21  2  0
 13 22  1  0
 22 23  1  0
  9  3  1  0
 23 10  1  0
 20 16  1  0
  4 24  1  0
  5 25  1  0
  8 26  1  0
  9 27  1  0
 10 28  1  0
 11 29  1  0
 11 30  1  0
 12 31  1  0
 12 32  1  0
 14 33  1  0
 14 34  1  0
 15 35  1  0
 15 36  1  0
 17 37  1  0
 17 38  1  0
 18 39  1  0
 18 40  1  0
 19 41  1  0
 19 42  1  0
 22 43  1  0
 22 44  1  0
 23 45  1  0
 23 46  1  0
M  END
>  <UniqueID>  (1) 
1

>  <SMILES>  (1) 
O=C(c1ccc(F)cc1)C1CCN(CCN2CCCC2=O)CC1

>  <Energy>  (1) 
60.74865850786175

>  <Genealogy>  (1) 
O=C(c1ccc(F)cc1)C1CCN(CCN2CCCC2=O)CC1 (3D coordinates assigned)
O=C(c1ccc(F)cc1)C1CCN(CCN2CCCC2=O)CC1 (nonaromatic ring conformer: 60.74865850786175 kcal/mol)

>  <smiles>  (1) 
O=C(c1ccc(F)cc1)C1CCN(CCN2CCCC2=O)CC1

>  <score_type>  (1) 
oracle

>  <origin>  (1) 
adgpu

>  <m_score__min__energy>  (1) 
-8.5999999999999996

>  <m_primary>  (1) 
energy

$$$$
1:0
     RDKit          3D

 43 45  0  0  0  0  0  0  0  0999 V2000
   -6.8560   17.4350  -31.6590 C   0  0  0  0  0  0  0  0  0  0  0  0
   -7.5020   18.0270  -32.8480 N   0  0  0  0  0  0  0  0  0  0  0  0
   -6.4900   18.5840  -33.7940 C   0  0  0  0  0  0  0  0  0  0  0  0
   -6.4310   20.1240  -33.8270 C   0  0  0  0  0  0  0  0  0  0  0  0
   -6.7430   20.6860  -32.5110 N   0  0  0  0  0  0  0  0  0  0  0  0
   -5.9290   21.7260  -31.9510 C   0  0  0  0  0  0  0  0  0  0  0  0
   -4.5780   21.4710  -31.6790 C   0  0  0  0  0  0  0  0  0  0  0  0
   -3.7640   22.4700  -31.1400 C   0  0  0  0  0  0  0  0  0  0  0  0
   -4.2990   23.7350  -30.8450 C   0  0  0  0  0  0  0  0  0  0  0  0
   -3.4890   24.7860  -30.2970 N   0  0  0  0  0  0  0  0  0  0  0  0
   -2.4250   24.6270  -29.3490 C   0  0  0  0  0  0  0  0  0  0  0  0
   -1.8430   25.6570  -28.9180 O   0  0  0  0  0  0  0  0  0  0  0  0
   -2.0300   23.2970  -28.8260 C   0  0  0  0  0  0  0  0  0  0  0  0
   -0.8300   22.6880  -29.2360 C   0  0  0  0  0  0  0  0  0  0  0  0
   -0.4660   21.4340  -28.7370 C   0  0  0  0  0  0  0  0  0  0  0  0
   -1.3010   20.7690  -27.8340 C   0  0  0  0  0  0  0  0  0  0  0  0
   -0.8030   19.0560  -27.1530 Br  0  0  0  0  0  0  0  0  0  0  0  0
   -2.5040   21.3580  -27.4340 C   0  0  0  0  0  0  0  0  0  0  0  0
   -2.8700   22.6130  -27.9310 C   0  0  0  0  0  0  0  0  0  0  0  0
   -5.6430   23.9970  -31.1330 C   0  0  0  0  0  0  0  0  0  0  0  0
   -6.4620   23.0000  -31.6750 C   0  0  0  0  0  0  0  0  0  0  0  0
   -8.1600   23.3600  -31.9540 Cl  0  0  0  0  0  0  0  0  0  0  0  0
   -7.9460   20.2520  -31.8010 C   0  0  0  0  0  0  0  0  0  0  0  0
   -8.5470   19.0040  -32.4650 C   0  0  0  0  0  0  0  0  0  0  0  0
   -7.3111   17.8521  -30.7486 H   0  0  0  0  0  0  0  0  0  0  0  0
   -6.9947   16.3438  -31.6715 H   0  0  0  0  0  0  0  0  0  0  0  0
   -5.7811   17.6682  -31.6715 H   0  0  0  0  0  0  0  0  0  0  0  0
   -7.9920   17.2400  -33.3370 H   0  0  0  0  0  0  0  0  0  0  0  0
   -5.4993   18.2077  -33.4991 H   0  0  0  0  0  0  0  0  0  0  0  0
   -6.7889   18.2590  -34.8015 H   0  0  0  0  0  0  0  0  0  0  0  0
   -5.4197   20.4396  -34.1231 H   0  0  0  0  0  0  0  0  0  0  0  0
   -7.1742   20.4893  -34.5510 H   0  0  0  0  0  0  0  0  0  0  0  0
   -4.1559   20.4777  -31.8914 H   0  0  0  0  0  0  0  0  0  0  0  0
   -2.7007   22.2655  -30.9459 H   0  0  0  0  0  0  0  0  0  0  0  0
   -0.1739   23.2019  -29.9539 H   0  0  0  0  0  0  0  0  0  0  0  0
    0.4790   20.9696  -29.0553 H   0  0  0  0  0  0  0  0  0  0  0  0
   -3.1638   20.8335  -26.7272 H   0  0  0  0  0  0  0  0  0  0  0  0
   -3.8219   23.0677  -27.6192 H   0  0  0  0  0  0  0  0  0  0  0  0
   -6.0593   24.9951  -30.9317 H   0  0  0  0  0  0  0  0  0  0  0  0
   -7.6851   20.0164  -30.7587 H   0  0  0  0  0  0  0  0  0  0  0  0
   -8.6885   21.0629  -31.8342 H   0  0  0  0  0  0  0  0  0  0  0  0
   -9.2410   18.5245  -31.7590 H   0  0  0  0  0  0  0  0  0  0  0  0
   -9.0695   19.3216  -33.3794 H   0  0  0  0  0  0  0  0  0  0  0  0
  1  2  1  0
  2  3  1  0
  3  4  1  0
  4  5  1  0
  5  6  1  0
  6  7  2  0
  7  8  1  0
  8  9  2  0
  9 10  1  0
 10 11  1  0
 11 12  2  0
 11 13  1  0
 13 14  2  0
 14 15  1  0
 15 16  2  0
 16 17  1  0
 16 18  1  0
 18 19  2  0
  9 20  1  0
 20 21  2  0
 21 22  1  0
  5 23  1  0
 23 24  1  0
 24  2  1  0
 21  6  1  0
 19 13  1  0
  1 25  1  0
  1 26  1  0
  1 27  1  0
  2 28  1  0
  3 29  1  0
  3 30  1  0
  4 31  1  0
  4 32  1  0
  7 33  1  0
  8 34  1  0
 14 35  1  0
 15 36  1  0
 18 37  1  0
 19 38  1  0
 20 39  1  0
 23 40  1  0
 23 41  1  0
 24 42  1  0
 24 43  1  0
M  CHG  2   2   1  10  -1
M  END
>  <UniqueID>  (2) 
2

>  <SMILES>  (2) 
C[NH+]1CCN(c2ccc([N-]C(=O)c3ccc(Br)cc3)cc2Cl)CC1

>  <Energy>  (2) 
64.15116602477765

>  <Genealogy>  (2) 
C[NH+]1CCN(c2ccc([N-]C(=O)c3ccc(Br)cc3)cc2Cl)CC1 (protonated)
C[NH+]1CCN(c2ccc([N-]C(=O)c3ccc(Br)cc3)cc2Cl)CC1 (3D coordinates assigned)
C[NH+]1CCN(c2ccc([N-]C(=O)c3ccc(Br)cc3)cc2Cl)CC1 (nonaromatic ring conformer: 64.15116602477765 kcal/mol)

>  <smiles>  (2) 
CN1CCN(c2ccc(NC(=O)c3ccc(Br)cc3)cc2Cl)CC1

>  <score_type>  (2) 
oracle

>  <origin>  (2) 
adgpu

>  <m_score__min__energy>  (2) 
-10.609999999999999

>  <m_primary>  (2) 
energy

$$$$
2:0
     RDKit          3D

 34 37  0  0  0  0  0  0  0  0999 V2000
   -4.4770   25.4580  -31.1920 O   0  0  0  0  0  0  0  0  0  0  0  0
   -5.1370   24.5760  -30.1690 S   0  0  0  0  0  0  0  0  0  0  0  0
   -5.8570   25.4380  -29.1690 O   0  0  0  0  0  0  0  0  0  0  0  0
   -3.9070   23.6040  -29.3720 C   0  0  0  0  0  0  0  0  0  0  0  0
   -2.5580   23.7520  -29.7280 C   0  0  0  0  0  0  0  0  0  0  0  0
   -1.5770   22.9750  -29.1040 C   0  0  0  0  0  0  0  0  0  0  0  0
   -1.9390   22.0510  -28.1180 C   0  0  0  0  0  0  0  0  0  0  0  0
   -3.2810   21.9040  -27.7560 C   0  0  0  0  0  0  0  0  0  0  0  0
   -4.2630   22.6790  -28.3800 C   0  0  0  0  0  0  0  0  0  0  0  0
   -6.2900   23.5360  -30.9420 N   0  0  0  0  0  0  0  0  0  0  0  0
   -7.6060   23.7970  -31.1190 C   0  0  0  0  0  0  0  0  0  0  0  0
   -8.2170   22.7520  -31.8020 C   0  0  0  0  0  0  0  0  0  0  0  0
   -7.2140   21.8350  -32.0410 C   0  0  0  0  0  0  0  0  0  0  0  0
   -7.2510   20.6060  -32.6930 C   0  0  0  0  0  0  0  0  0  0  0  0
   -6.0500   19.8650  -32.8060 C   0  0  0  0  0  0  0  0  0  0  0  0
   -6.0630   18.5500  -33.5000 C   0  0  0  0  0  0  0  0  0  0  0  0
   -6.8610   17.4630  -33.1180 C   0  0  0  0  0  0  0  0  0  0  0  0
   -6.4820   16.2620  -34.2100 S   0  0  0  0  0  0  0  0  0  0  0  0
   -5.3680   17.0920  -35.1100 N   0  0  0  0  0  0  0  0  0  0  0  0
   -5.2640   18.3100  -34.5870 N   0  0  0  0  0  0  0  0  0  0  0  0
   -4.8550   20.3970  -32.2460 C   0  0  0  0  0  0  0  0  0  0  0  0
   -4.8530   21.6420  -31.5920 C   0  0  0  0  0  0  0  0  0  0  0  0
   -6.0580   22.3380  -31.5080 C   0  0  0  0  0  0  0  0  0  0  0  0
   -2.2713   24.4812  -30.5000 H   0  0  0  0  0  0  0  0  0  0  0  0
   -0.5207   23.0903  -29.3884 H   0  0  0  0  0  0  0  0  0  0  0  0
   -1.1671   21.4399  -27.6274 H   0  0  0  0  0  0  0  0  0  0  0  0
   -3.5646   21.1781  -26.9797 H   0  0  0  0  0  0  0  0  0  0  0  0
   -5.3182   22.5629  -28.0919 H   0  0  0  0  0  0  0  0  0  0  0  0
   -8.1188   24.7062  -30.7720 H   0  0  0  0  0  0  0  0  0  0  0  0
   -9.2755   22.6728  -32.0907 H   0  0  0  0  0  0  0  0  0  0  0  0
   -8.1921   20.2192  -33.1110 H   0  0  0  0  0  0  0  0  0  0  0  0
   -7.5770   17.4135  -32.2844 H   0  0  0  0  0  0  0  0  0  0  0  0
   -3.9184   19.8257  -32.3258 H   0  0  0  0  0  0  0  0  0  0  0  0
   -3.9291   22.0540  -31.1600 H   0  0  0  0  0  0  0  0  0  0  0  0
  1  2  2  0
  2  3  2  0
  2  4  1  0
  4  5  2  0
  5  6  1  0
  6  7  2  0
  7  8  1  0
  8  9  2  0
  2 10  1  0
 10 11  1  0
 11 12  2  0
 12 13  1  0
 13 14  2  0
 14 15  1  0
 15 16  1  0
 16 17  2  0
 17 18  1  0
 18 19  1  0
 19 20  2  0
 15 21  2  0
 21 22  1  0
 22 23  2  0
  9  4  1  0
 23 10  1  0
 23 13  1  0
 20 16  1  0
  5 24  1  0
  6 25  1  0
  7 26  1  0
  8 27  1  0
  9 28  1  0
 11 29  1  0
 12 30  1  0
 14 31  1  0
 17 32  1  0
 21 33  1  0
 22 34  1  0
M  END
>  <UniqueID>  (3) 
3

>  <SMILES>  (3) 
O=S(=O)(c1ccccc1)n1ccc2cc(-c3csnn3)ccc21

>  <Energy>  (3) 
112.4166373325299

>  <Genealogy>  (3) 
O=S(=O)(c1ccccc1)n1ccc2cc(-c3csnn3)ccc21 (3D coordinates assigned)
O=S(=O)(c1ccccc1)n1ccc2cc(-c3csnn3)ccc21 (optimized conformer: 112.4166373325299 kcal/mol)

>  <smiles>  (3) 
O=S(=O)(c1ccccc1)n1ccc2cc(-c3csnn3)ccc21

>  <score_type>  (3) 
oracle

>  <origin>  (3) 
adgpu

>  <m_score__min__energy>  (3) 
-9.4900000000000002

>  <m_primary>  (3) 
energy

$$$$
3:0
     RDKit          3D

 39 41  0  0  0  0  0  0  0  0999 V2000
   -5.8879   25.5394  -30.0025 H   0  0  0  0  0  0  0  0  0  0  0  0
   -5.3970   24.6420  -30.4070 C   0  0  0  0  0  0  0  0  0  0  0  0
   -6.1630   23.3230  -31.1010 S   0  0  0  0  0  0  0  0  0  0  0  0
   -4.7340   22.5140  -31.4500 C   0  0  0  0  0  0  0  0  0  0  0  0
   -4.7450   21.3880  -32.1100 N   0  0  0  0  0  0  0  0  0  0  0  0
   -3.6680   20.7040  -32.7550 C   0  0  0  0  0  0  0  0  0  0  0  0
   -3.5290   19.3120  -32.6180 C   0  0  0  0  0  0  0  0  0  0  0  0
   -4.2809   18.7367  -32.0580 H   0  0  0  0  0  0  0  0  0  0  0  0
   -2.4360   18.6590  -33.1930 C   0  0  0  0  0  0  0  0  0  0  0  0
   -2.3411   17.5666  -33.1053 H   0  0  0  0  0  0  0  0  0  0  0  0
   -1.4620   19.3910  -33.8800 C   0  0  0  0  0  0  0  0  0  0  0  0
   -0.6082   18.8721  -34.3403 H   0  0  0  0  0  0  0  0  0  0  0  0
   -1.5720   20.7850  -33.9830 C   0  0  0  0  0  0  0  0  0  0  0  0
   -0.5670   21.5370  -34.6710 N   0  0  0  0  0  0  0  0  0  0  0  0
    0.4440   21.3010  -34.5630 H   0  0  0  0  0  0  0  0  0  0  0  0
   -0.8290   22.3330  -35.2940 H   0  0  0  0  0  0  0  0  0  0  0  0
   -2.6700   21.4390  -33.4040 C   0  0  0  0  0  0  0  0  0  0  0  0
   -2.7465   22.5349  -33.4606 H   0  0  0  0  0  0  0  0  0  0  0  0
   -3.6410   23.2110  -30.9990 N   0  0  0  0  0  0  0  0  0  0  0  0
   -2.2720   22.7070  -30.7790 C   0  0  0  0  0  0  0  0  0  0  0  0
   -1.6003   23.5556  -30.5820 H   0  0  0  0  0  0  0  0  0  0  0  0
   -1.9418   22.1652  -31.6776 H   0  0  0  0  0  0  0  0  0  0  0  0
   -2.2430   21.7660  -29.6010 C   0  0  0  0  0  0  0  0  0  0  0  0
   -1.3280   20.7040  -29.5680 C   0  0  0  0  0  0  0  0  0  0  0  0
   -0.6188   20.5680  -30.3978 H   0  0  0  0  0  0  0  0  0  0  0  0
   -1.3110   19.8170  -28.4880 C   0  0  0  0  0  0  0  0  0  0  0  0
   -0.5867   18.9893  -28.4707 H   0  0  0  0  0  0  0  0  0  0  0  0
   -2.2160   19.9780  -27.4230 C   0  0  0  0  0  0  0  0  0  0  0  0
   -2.2390   19.1150  -26.3180 O   0  0  0  0  0  0  0  0  0  0  0  0
   -3.4250   18.5620  -25.7550 C   0  0  0  0  0  0  0  0  0  0  0  0
   -3.3588   18.5929  -24.6574 H   0  0  0  0  0  0  0  0  0  0  0  0
   -4.2956   19.1471  -26.0864 H   0  0  0  0  0  0  0  0  0  0  0  0
   -3.5365   17.5191  -26.0864 H   0  0  0  0  0  0  0  0  0  0  0  0
   -3.1330   21.0360  -27.4610 C   0  0  0  0  0  0  0  0  0  0  0  0
   -3.8458   21.1699  -26.6339 H   0  0  0  0  0  0  0  0  0  0  0  0
   -3.1500   21.9230  -28.5410 C   0  0  0  0  0  0  0  0  0  0  0  0
   -3.8774   22.7479  -28.5605 H   0  0  0  0  0  0  0  0  0  0  0  0
   -4.0300   24.3970  -30.4350 C   0  0  0  0  0  0  0  0  0  0  0  0
   -3.1220   25.2940  -29.8820 O   0  0  0  0  0  0  0  0  0  0  0  0
  1  2  1  0
  2  3  1  0
  3  4  1  0
  4  5  2  0
  5  6  1  0
  6  7  2  0
  7  8  1  0
  7  9  1  0
  9 10  1  0
  9 11  2  0
 11 12  1  0
 11 13  1  0
 13 14  1  0
 14 15  1  0
 14 16  1  0
 13 17  2  0
 17 18  1  0
  4 19  1  0
 19 20  1  0
 20 21  1  0
 20 22  1  0
 20 23  1  0
 23 24  2  0
 24 25  1  0
 24 26  1  0
 26 27  1  0
 26 28  2  0
 28 29  1  0
 29 30  1  0
 30 31  1  0
 30 32  1  0
 30 33  1  0
 28 34  1  0
 34 35  1  0
 34 36  2  0
 36 37  1  0
 19 38  1  0
 38 39  1  0
 38  2  2  0
 17  6  1  0
 36 23  1  0
M  CHG  1  39  -1
M  END
>  <UniqueID>  (4) 
4

>  <SMILES>  (4) 
COc1ccc(Cn2c([O-])cs/c2=N/c2cccc(N)c2)cc1

>  <Energy>  (4) 
87.31954145058548

>  <Genealogy>  (4) 
COc1ccc(Cn2c([O-])csc2=Nc2cccc(N)c2)cc1 (protonated)
COc1ccc(Cn2c([O-])cs/c2=N/c2cccc(N)c2)cc1 (cis-trans isomerization)
COc1ccc(Cn2c([O-])cs/c2=N/c2cccc(N)c2)cc1 (3D coordinates assigned)
COc1ccc(Cn2c([O-])cs/c2=N/c2cccc(N)c2)cc1 (optimized conformer: 87.31954145058548 kcal/mol)

>  <smiles>  (4) 
COc1ccc(Cn2c(O)csc2=Nc2cccc(N)c2)cc1

>  <score_type>  (4) 
oracle

>  <origin>  (4) 
adgpu

>  <m_score__min__energy>  (4) 
-9.7100000000000009

>  <m_primary>  (4) 
energy

$$$$
4:0
     RDKit          3D

 29 30  0  0  0  0  0  0  0  0999 V2000
   -3.8260   22.5170  -32.1890 C   0  0  0  0  0  0  0  0  0  0  0  0
   -5.2010   22.7410  -31.7430 N   0  0  0  0  0  0  0  0  0  0  0  0
   -5.6850   23.8370  -31.1050 C   0  0  0  0  0  0  0  0  0  0  0  0
   -4.9080   25.0380  -30.7300 C   0  0  0  0  0  0  0  0  0  0  0  0
   -5.4670   26.1640  -30.6380 O   0  0  0  0  0  0  0  0  0  0  0  0
   -3.5060   24.9170  -30.4710 N   0  0  0  0  0  0  0  0  0  0  0  0
   -2.9550   23.9380  -29.5440 C   0  0  0  0  0  0  0  0  0  0  0  0
   -2.4600   24.6420  -28.3140 C   0  0  0  0  0  0  0  0  0  0  0  0
   -3.2080   24.6030  -27.1260 C   0  0  0  0  0  0  0  0  0  0  0  0
   -2.7630   25.2900  -25.9910 C   0  0  0  0  0  0  0  0  0  0  0  0
   -1.5770   26.0270  -26.0390 C   0  0  0  0  0  0  0  0  0  0  0  0
   -0.8350   26.0830  -27.2230 C   0  0  0  0  0  0  0  0  0  0  0  0
   -1.2770   25.3970  -28.3600 C   0  0  0  0  0  0  0  0  0  0  0  0
   -7.0350   23.6770  -30.8470 C   0  0  0  0  0  0  0  0  0  0  0  0
   -7.3820   22.4400  -31.3450 C   0  0  0  0  0  0  0  0  0  0  0  0
   -9.1240   21.6600  -31.2820 Br  0  0  0  0  0  0  0  0  0  0  0  0
   -6.2420   21.8870  -31.8890 C   0  0  0  0  0  0  0  0  0  0  0  0
   -6.1550   20.1640  -32.7240 Br  0  0  0  0  0  0  0  0  0  0  0  0
   -3.1692   22.4100  -31.3131 H   0  0  0  0  0  0  0  0  0  0  0  0
   -3.7818   21.5998  -32.7947 H   0  0  0  0  0  0  0  0  0  0  0  0
   -3.4930   23.3727  -32.7947 H   0  0  0  0  0  0  0  0  0  0  0  0
   -3.7366   23.2162  -29.2646 H   0  0  0  0  0  0  0  0  0  0  0  0
   -2.1209   23.4052  -30.0240 H   0  0  0  0  0  0  0  0  0  0  0  0
   -4.1466   24.0306  -27.0876 H   0  0  0  0  0  0  0  0  0  0  0  0
   -3.3476   25.2497  -25.0600 H   0  0  0  0  0  0  0  0  0  0  0  0
   -1.2267   26.5635  -25.1449 H   0  0  0  0  0  0  0  0  0  0  0  0
    0.0967   26.6666  -27.2607 H   0  0  0  0  0  0  0  0  0  0  0  0
   -0.6959   25.4494  -29.2925 H   0  0  0  0  0  0  0  0  0  0  0  0
   -7.6995   24.3950  -30.3440 H   0  0  0  0  0  0  0  0  0  0  0  0
  1  2  1  0
  2  3  1  0
  3  4  1  0
  4  5  2  0
  4  6  1  0
  6  7  1  0
  7  8  1  0
  8  9  2  0
  9 10  1  0
 10 11  2  0
 11 12  1  0
 12 13  2  0
  3 14  2  0
 14 15  1  0
 15 16  1  0
 15 17  2  0
 17 18  1  0
 17  2  1  0
 13  8  1  0
  1 19  1  0
  1 20  1  0
  1 21  1  0
  7 22  1  0
  7 23  1  0
  9 24  1  0
 10 25  1  0
 11 26  1  0
 12 27  1  0
 13 28  1  0
 14 29  1  0
M  CHG  1   6  -1
M  END
>  <UniqueID>  (5) 
5

>  <SMILES>  (5) 
Cn1c(C(=O)[N-]Cc2ccccc2)cc(Br)c1Br

>  <Energy>  (5) 
54.082570887297294

>  <Genealogy>  (5) 
Cn1c(C(=O)[N-]Cc2ccccc2)cc(Br)c1Br (protonated)
Cn1c(C(=O)[N-]Cc2ccccc2)cc(Br)c1Br (3D coordinates assigned)
Cn1c(C(=O)[N-]Cc2ccccc2)cc(Br)c1Br (optimized conformer: 54.082570887297294 kcal/mol)

>  <smiles>  (5) 
Cn1c(C(=O)NCc2ccccc2)cc(Br)c1Br

>  <score_type>  (5) 
oracle

>  <origin>  (5) 
adgpu

>  <m_score__min__energy>  (5) 
-9.3599999999999994

>  <m_primary>  (5) 
energy

$$$$
5:0
     RDKit          3D

 29 31  0  0  0  0  0  0  0  0999 V2000
   -4.7250   25.8770  -29.8260 H   0  0  0  0  0  0  0  0  0  0  0  0
   -3.9370   25.2860  -30.1730 N   0  0  0  0  0  0  0  0  0  0  0  0
   -4.1530   24.1660  -30.7840 C   0  0  0  0  0  0  0  0  0  0  0  0
   -3.1030   23.4250  -31.2220 N   0  0  0  0  0  0  0  0  0  0  0  0
   -3.2910   22.2450  -31.8710 C   0  0  0  0  0  0  0  0  0  0  0  0
   -2.1170   21.4780  -32.3360 C   0  0  0  0  0  0  0  0  0  0  0  0
   -0.6790   21.2390  -31.4890 S   0  0  0  0  0  0  0  0  0  0  0  0
    0.0840   20.3110  -32.6640 C   0  0  0  0  0  0  0  0  0  0  0  0
    1.0953   19.8842  -32.5926 H   0  0  0  0  0  0  0  0  0  0  0  0
   -0.7820   20.1760  -33.7400 C   0  0  0  0  0  0  0  0  0  0  0  0
   -0.5278   19.6111  -34.6490 H   0  0  0  0  0  0  0  0  0  0  0  0
   -2.0100   20.8260  -33.5610 C   0  0  0  0  0  0  0  0  0  0  0  0
   -2.8112   20.8215  -34.3147 H   0  0  0  0  0  0  0  0  0  0  0  0
   -4.5990   21.7860  -32.0920 C   0  0  0  0  0  0  0  0  0  0  0  0
   -4.7761   20.8382  -32.6215 H   0  0  0  0  0  0  0  0  0  0  0  0
   -5.6780   22.5550  -31.6270 C   0  0  0  0  0  0  0  0  0  0  0  0
   -7.0860   22.1290  -31.8300 C   0  0  0  0  0  0  0  0  0  0  0  0
   -8.1520   23.0440  -31.7170 C   0  0  0  0  0  0  0  0  0  0  0  0
   -7.9457   24.0953  -31.4675 H   0  0  0  0  0  0  0  0  0  0  0  0
   -9.4700   22.6240  -31.9200 C   0  0  0  0  0  0  0  0  0  0  0  0
  -10.2959   23.3443  -31.8250 H   0  0  0  0  0  0  0  0  0  0  0  0
   -9.7410   21.2930  -32.2430 C   0  0  0  0  0  0  0  0  0  0  0  0
  -10.7800   20.9665  -32.3978 H   0  0  0  0  0  0  0  0  0  0  0  0
   -8.6960   20.3750  -32.3700 C   0  0  0  0  0  0  0  0  0  0  0  0
   -8.9810   19.0510  -32.6970 O   0  0  0  0  0  0  0  0  0  0  0  0
   -9.1150   18.7600  -33.6590 H   0  0  0  0  0  0  0  0  0  0  0  0
   -7.3730   20.7930  -32.1680 C   0  0  0  0  0  0  0  0  0  0  0  0
   -6.5511   20.0697  -32.2747 H   0  0  0  0  0  0  0  0  0  0  0  0
   -5.4230   23.7300  -30.9910 N   0  0  0  0  0  0  0  0  0  0  0  0
  1  2  1  0
  2  3  2  0
  3  4  1  0
  4  5  2  0
  5  6  1  0
  6  7  1  0
  7  8  1  0
  8  9  1  0
  8 10  2  0
 10 11  1  0
 10 12  1  0
 12 13  1  0
  5 14  1  0
 14 15  1  0
 14 16  2  0
 16 17  1  0
 17 18  2  0
 18 19  1  0
 18 20  1  0
 20 21  1  0
 20 22  2  0
 22 23  1  0
 22 24  1  0
 24 25  1  0
 25 26  1  0
 24 27  2  0
 27 28  1  0
 16 29  1  0
 29  3  1  0
 12  6  2  0
 27 17  1  0
M  CHG  1  29  -1
M  END
>  <UniqueID>  (6) 
6

>  <SMILES>  (6) 
[H]/N=c1/nc(-c2cccs2)cc(-c2cccc(O)c2)[n-]1

>  <Energy>  (6) 
62.29590342299669

>  <Genealogy>  (6) 
N=c1nc(-c2cccs2)cc(-c2cccc(O)c2)[n-]1 (protonated)
[H]/N=c1/nc(-c2cccs2)cc(-c2cccc(O)c2)[n-]1 (cis-trans isomerization)
[H]/N=c1/nc(-c2cccs2)cc(-c2cccc(O)c2)[n-]1 (3D coordinates assigned)
[H]/N=c1/nc(-c2cccs2)cc(-c2cccc(O)c2)[n-]1 (optimized conformer: 62.29590342299669 kcal/mol)

>  <smiles>  (6) 
N=c1nc(-c2cccs2)cc(-c2cccc(O)c2)[nH]1

>  <score_type>  (6) 
oracle

>  <origin>  (6) 
adgpu

>  <m_score__min__energy>  (6) 
-8.4100000000000001

>  <m_primary>  (6) 
energy

$$$$
6:0
     RDKit          3D

 47 50  0  0  0  0  0  0  0  0999 V2000
   -0.5000   26.8150  -23.3010 C   0  0  0  0  0  0  0  0  0  0  0  0
   -1.2150   27.2170  -24.4640 O   0  0  0  0  0  0  0  0  0  0  0  0
   -1.2400   26.4980  -25.6680 C   0  0  0  0  0  0  0  0  0  0  0  0
   -1.7390   25.1910  -25.6530 C   0  0  0  0  0  0  0  0  0  0  0  0
   -1.7850   24.4340  -26.8270 C   0  0  0  0  0  0  0  0  0  0  0  0
   -1.3170   24.9730  -28.0350 C   0  0  0  0  0  0  0  0  0  0  0  0
   -1.4070   24.1780  -29.3070 C   0  0  0  0  0  0  0  0  0  0  0  0
   -2.7130   23.5300  -29.3970 N   0  0  0  0  0  0  0  0  0  0  0  0
   -3.0200   22.2420  -29.0980 C   0  0  0  0  0  0  0  0  0  0  0  0
   -4.3130   21.9180  -29.3760 N   0  0  0  0  0  0  0  0  0  0  0  0
   -4.8060   23.0680  -29.8790 C   0  0  0  0  0  0  0  0  0  0  0  0
   -6.0820   23.3490  -30.3600 C   0  0  0  0  0  0  0  0  0  0  0  0
   -7.1830   22.3380  -30.3310 C   0  0  0  0  0  0  0  0  0  0  0  0
   -7.9870   22.2700  -31.9650 S   0  0  0  0  0  0  0  0  0  0  0  0
   -7.0880   20.7990  -32.4840 C   0  0  0  0  0  0  0  0  0  0  0  0
   -5.7450   20.9310  -32.8590 C   0  0  0  0  0  0  0  0  0  0  0  0
   -5.0140   19.8150  -33.2740 C   0  0  0  0  0  0  0  0  0  0  0  0
   -5.6190   18.5590  -33.3120 C   0  0  0  0  0  0  0  0  0  0  0  0
   -6.9560   18.4130  -32.9330 C   0  0  0  0  0  0  0  0  0  0  0  0
   -7.7020   19.5270  -32.5090 C   0  0  0  0  0  0  0  0  0  0  0  0
   -9.1380   19.3490  -32.0960 C   0  0  0  0  0  0  0  0  0  0  0  0
   -6.3140   24.6150  -30.8230 N   0  0  0  0  0  0  0  0  0  0  0  0
   -5.3260   25.5670  -30.8340 C   0  0  0  0  0  0  0  0  0  0  0  0
   -4.0760   25.2750  -30.3670 N   0  0  0  0  0  0  0  0  0  0  0  0
   -3.8510   24.0250  -29.8960 C   0  0  0  0  0  0  0  0  0  0  0  0
   -0.8270   26.2870  -28.0580 C   0  0  0  0  0  0  0  0  0  0  0  0
   -0.7820   27.0450  -26.8830 C   0  0  0  0  0  0  0  0  0  0  0  0
   -1.0545   27.1268  -22.4036 H   0  0  0  0  0  0  0  0  0  0  0  0
   -0.3866   25.7209  -23.3002 H   0  0  0  0  0  0  0  0  0  0  0  0
    0.4938   27.2866  -23.3002 H   0  0  0  0  0  0  0  0  0  0  0  0
   -2.0983   24.7554  -24.7090 H   0  0  0  0  0  0  0  0  0  0  0  0
   -2.1898   23.4114  -26.8039 H   0  0  0  0  0  0  0  0  0  0  0  0
   -1.2733   24.8502  -30.1674 H   0  0  0  0  0  0  0  0  0  0  0  0
   -0.6203   23.4092  -29.3099 H   0  0  0  0  0  0  0  0  0  0  0  0
   -2.2962   21.5308  -28.6734 H   0  0  0  0  0  0  0  0  0  0  0  0
   -6.7671   21.3497  -30.0854 H   0  0  0  0  0  0  0  0  0  0  0  0
   -7.9234   22.6234  -29.5692 H   0  0  0  0  0  0  0  0  0  0  0  0
   -5.2629   21.9192  -32.8266 H   0  0  0  0  0  0  0  0  0  0  0  0
   -3.9608   19.9271  -33.5709 H   0  0  0  0  0  0  0  0  0  0  0  0
   -5.0426   17.6817  -33.6409 H   0  0  0  0  0  0  0  0  0  0  0  0
   -7.4281   17.4200  -32.9665 H   0  0  0  0  0  0  0  0  0  0  0  0
   -9.2054   19.3406  -30.9981 H   0  0  0  0  0  0  0  0  0  0  0  0
   -9.7396   20.1794  -32.4940 H   0  0  0  0  0  0  0  0  0  0  0  0
   -9.5187   18.3968  -32.4940 H   0  0  0  0  0  0  0  0  0  0  0  0
   -5.5422   26.5733  -31.2220 H   0  0  0  0  0  0  0  0  0  0  0  0
   -0.4763   26.7238  -29.0047 H   0  0  0  0  0  0  0  0  0  0  0  0
   -0.3877   28.0716  -26.9078 H   0  0  0  0  0  0  0  0  0  0  0  0
  1  2  1  0
  2  3  1  0
  3  4  2  0
  4  5  1  0
  5  6  2  0
  6  7  1  0
  7  8  1  0
  8  9  1  0
  9 10  2  0
 10 11  1  0
 11 12  2  0
 12 13  1  0
 13 14  1  0
 14 15  1  0
 15 16  2  0
 16 17  1  0
 17 18  2  0
 18 19  1  0
 19 20  2  0
 20 21  1  0
 12 22  1  0
 22 23  2  0
 23 24  1  0
 24 25  2  0
  6 26  1  0
 26 27  2  0
 27  3  1  0
 25  8  1  0
 25 11  1  0
 20 15  1  0
  1 28  1  0
  1 29  1  0
  1 30  1  0
  4 31  1  0
  5 32  1  0
  7 33  1  0
  7 34  1  0
  9 35  1  0
 13 36  1  0
 13 37  1  0
 16 38  1  0
 17 39  1  0
 18 40  1  0
 19 41  1  0
 21 42  1  0
 21 43  1  0
 21 44  1  0
 23 45  1  0
 26 46  1  0
 27 47  1  0
M  END
>  <UniqueID>  (7) 
7

>  <SMILES>  (7) 
COc1ccc(Cn2cnc3c(CSc4ccccc4C)ncnc32)cc1

>  <Energy>  (7) 
85.09887521697497

>  <Genealogy>  (7) 
COc1ccc(Cn2cnc3c(CSc4ccccc4C)ncnc32)cc1 (3D coordinates assigned)
COc1ccc(Cn2cnc3c(CSc4ccccc4C)ncnc32)cc1 (optimized conformer: 85.09887521697497 kcal/mol)

>  <smiles>  (7) 
COc1ccc(Cn2cnc3c(CSc4ccccc4C)ncnc32)cc1

>  <score_type>  (7) 
oracle

>  <origin>  (7) 
adgpu

>  <m_score__min__energy>  (7) 
-8.7100000000000009

>  <m_primary>  (7) 
energy

$$$$
7:0
     RDKit          3D

 46 48  0  0  0  0  0  0  0  0999 V2000
   -7.2590   18.1290  -31.6710 C   0  0  0  0  0  0  0  0  0  0  0  0
   -8.6310   18.6090  -32.1310 C   0  0  0  0  0  0  0  0  0  0  0  0
   -8.5460   19.9220  -32.6880 O   0  0  0  0  0  0  0  0  0  0  0  0
   -7.9420   21.0330  -32.0750 C   0  0  0  0  0  0  0  0  0  0  0  0
   -8.3860   21.5640  -30.8480 C   0  0  0  0  0  0  0  0  0  0  0  0
   -7.7430   22.6700  -30.2860 C   0  0  0  0  0  0  0  0  0  0  0  0
   -6.6490   23.2560  -30.9320 C   0  0  0  0  0  0  0  0  0  0  0  0
   -5.8370   24.6430  -30.2110 S   0  0  0  0  0  0  0  0  0  0  0  0
   -4.8930   25.2770  -31.1930 O   0  0  0  0  0  0  0  0  0  0  0  0
   -6.8740   25.6520  -29.8060 O   0  0  0  0  0  0  0  0  0  0  0  0
   -4.9460   24.1460  -28.8060 N   0  0  0  0  0  0  0  0  0  0  0  0
   -3.7030   23.4220  -28.8550 C   0  0  0  0  0  0  0  0  0  0  0  0
   -3.6470   22.0590  -29.1970 C   0  0  0  0  0  0  0  0  0  0  0  0
   -2.4230   21.3870  -29.2300 C   0  0  0  0  0  0  0  0  0  0  0  0
   -1.2330   22.0620  -28.9400 C   0  0  0  0  0  0  0  0  0  0  0  0
   -0.0290   21.3460  -28.9900 O   0  0  0  0  0  0  0  0  0  0  0  0
    0.1210   20.0060  -28.6030 C   0  0  0  0  0  0  0  0  0  0  0  0
   -0.6580   19.5220  -27.5440 C   0  0  0  0  0  0  0  0  0  0  0  0
   -0.5420   18.1910  -27.1320 C   0  0  0  0  0  0  0  0  0  0  0  0
    0.3470   17.3310  -27.7830 C   0  0  0  0  0  0  0  0  0  0  0  0
    1.1180   17.8000  -28.8500 C   0  0  0  0  0  0  0  0  0  0  0  0
    1.0050   19.1300  -29.2640 C   0  0  0  0  0  0  0  0  0  0  0  0
   -1.2800   23.4230  -28.5740 C   0  0  0  0  0  0  0  0  0  0  0  0
   -0.0870   24.1310  -28.1790 C   0  0  0  0  0  0  0  0  0  0  0  0
    0.8690   24.6990  -27.8620 N   0  0  0  0  0  0  0  0  0  0  0  0
   -2.5100   24.0940  -28.5430 C   0  0  0  0  0  0  0  0  0  0  0  0
   -6.2050   22.7310  -32.1520 C   0  0  0  0  0  0  0  0  0  0  0  0
   -6.8470   21.6250  -32.7160 C   0  0  0  0  0  0  0  0  0  0  0  0
   -7.2244   18.1169  -30.5716 H   0  0  0  0  0  0  0  0  0  0  0  0
   -7.0779   17.1141  -32.0547 H   0  0  0  0  0  0  0  0  0  0  0  0
   -6.4848   18.8097  -32.0547 H   0  0  0  0  0  0  0  0  0  0  0  0
   -9.0184   17.9176  -32.8938 H   0  0  0  0  0  0  0  0  0  0  0  0
   -9.3057   18.6362  -31.2626 H   0  0  0  0  0  0  0  0  0  0  0  0
   -9.2420   21.1063  -30.3305 H   0  0  0  0  0  0  0  0  0  0  0  0
   -8.0989   23.0823  -29.3303 H   0  0  0  0  0  0  0  0  0  0  0  0
   -5.3830   24.3400  -27.8780 H   0  0  0  0  0  0  0  0  0  0  0  0
   -4.5736   21.5184  -29.4402 H   0  0  0  0  0  0  0  0  0  0  0  0
   -2.3948   20.3176  -29.4863 H   0  0  0  0  0  0  0  0  0  0  0  0
   -1.3648   20.1929  -27.0338 H   0  0  0  0  0  0  0  0  0  0  0  0
   -1.1511   17.8201  -26.2945 H   0  0  0  0  0  0  0  0  0  0  0  0
    0.4397   16.2850  -27.4554 H   0  0  0  0  0  0  0  0  0  0  0  0
    1.8145   17.1217  -29.3645 H   0  0  0  0  0  0  0  0  0  0  0  0
    1.6081   19.4943  -30.1087 H   0  0  0  0  0  0  0  0  0  0  0  0
   -2.5413   25.1594  -28.2711 H   0  0  0  0  0  0  0  0  0  0  0  0
   -5.3488   23.1902  -32.6677 H   0  0  0  0  0  0  0  0  0  0  0  0
   -6.4887   21.2159  -33.6722 H   0  0  0  0  0  0  0  0  0  0  0  0
  1  2  1  0
  2  3  1  0
  3  4  1  0
  4  5  2  0
  5  6  1  0
  6  7  2  0
  7  8  1  0
  8  9  2  0
  8 10  2  0
  8 11  1  0
 11 12  1  0
 12 13  2  0
 13 14  1  0
 14 15  2  0
 15 16  1  0
 16 17  1  0
 17 18  2  0
 18 19  1  0
 19 20  2  0
 20 21  1  0
 21 22  2  0
 15 23  1  0
 23 24  1  0
 24 25  3  0
 23 26  2  0
  7 27  1  0
 27 28  2  0
 28  4  1  0
 26 12  1  0
 22 17  1  0
  1 29  1  0
  1 30  1  0
  1 31  1  0
  2 32  1  0
  2 33  1  0
  5 34  1  0
  6 35  1  0
 11 36  1  0
 13 37  1  0
 14 38  1  0
 18 39  1  0
 19 40  1  0
 20 41  1  0
 21 42  1  0
 22 43  1  0
 26 44  1  0
 27 45  1  0
 28 46  1  0
M  END
>  <UniqueID>  (8) 
8

>  <SMILES>  (8) 
CCOc1ccc(S(=O)(=O)Nc2ccc(Oc3ccccc3)c(C#N)c2)cc1

>  <Energy>  (8) 
56.79750572793166

>  <Genealogy>  (8) 
CCOc1ccc(S(=O)(=O)Nc2ccc(Oc3ccccc3)c(C#N)c2)cc1 (3D coordinates assigned)
CCOc1ccc(S(=O)(=O)Nc2ccc(Oc3ccccc3)c(C#N)c2)cc1 (optimized conformer: 56.79750572793166 kcal/mol)

>  <smiles>  (8) 
CCOc1ccc(S(=O)(=O)Nc2ccc(Oc3ccccc3)c(C#N)c2)cc1

>  <score_type>  (8) 
oracle

>  <origin>  (8) 
adgpu

>  <m_score__min__energy>  (8) 
-9.3499999999999996

>  <m_primary>  (8) 
energy

$$$$
8:0
     RDKit          3D

 43 46  0  0  0  0  0  0  0  0999 V2000
   -4.2460   24.6380  -31.2160 O   0  0  0  0  0  0  0  0  0  0  0  0
   -4.8490   23.9540  -30.0200 S   0  0  0  0  0  0  0  0  0  0  0  0
   -5.5090   24.9990  -29.1670 O   0  0  0  0  0  0  0  0  0  0  0  0
   -3.5560   23.1580  -29.1320 C   0  0  0  0  0  0  0  0  0  0  0  0
   -3.8640   22.1340  -28.2250 C   0  0  0  0  0  0  0  0  0  0  0  0
   -2.8460   21.5150  -27.4930 C   0  0  0  0  0  0  0  0  0  0  0  0
   -1.5160   21.9120  -27.6660 C   0  0  0  0  0  0  0  0  0  0  0  0
   -0.5320   21.3120  -26.9530 F   0  0  0  0  0  0  0  0  0  0  0  0
   -1.2040   22.9270  -28.5780 C   0  0  0  0  0  0  0  0  0  0  0  0
    0.0840   23.3140  -28.7490 F   0  0  0  0  0  0  0  0  0  0  0  0
   -2.2200   23.5450  -29.3130 C   0  0  0  0  0  0  0  0  0  0  0  0
   -6.0590   22.7660  -30.5390 C   0  0  0  0  0  0  0  0  0  0  0  0
   -7.4030   22.9840  -30.2140 C   0  0  0  0  0  0  0  0  0  0  0  0
   -8.3590   22.0980  -30.5890 N   0  0  0  0  0  0  0  0  0  0  0  0
   -8.0630   20.9730  -31.2870 C   0  0  0  0  0  0  0  0  0  0  0  0
   -9.0890   20.0890  -31.6400 C   0  0  0  0  0  0  0  0  0  0  0  0
   -8.7960   18.9250  -32.3530 C   0  0  0  0  0  0  0  0  0  0  0  0
   -7.4790   18.6380  -32.7140 C   0  0  0  0  0  0  0  0  0  0  0  0
   -6.4460   19.5130  -32.3660 C   0  0  0  0  0  0  0  0  0  0  0  0
   -6.7240   20.6960  -31.6510 C   0  0  0  0  0  0  0  0  0  0  0  0
   -5.7110   21.6130  -31.2820 C   0  0  0  0  0  0  0  0  0  0  0  0
   -4.3430   21.3800  -31.6600 N   0  0  0  0  0  0  0  0  0  0  0  0
   -3.8680   21.8790  -32.9560 C   0  0  0  0  0  0  0  0  0  0  0  0
   -2.3630   21.6480  -33.0990 C   0  0  0  0  0  0  0  0  0  0  0  0
   -1.7350   21.8310  -31.8480 O   0  0  0  0  0  0  0  0  0  0  0  0
   -2.0260   20.7340  -31.0010 C   0  0  0  0  0  0  0  0  0  0  0  0
   -3.5370   20.4280  -30.8870 C   0  0  0  0  0  0  0  0  0  0  0  0
   -4.9085   21.8170  -28.0890 H   0  0  0  0  0  0  0  0  0  0  0  0
   -3.0916   20.7144  -26.7798 H   0  0  0  0  0  0  0  0  0  0  0  0
   -1.9711   24.3367  -30.0350 H   0  0  0  0  0  0  0  0  0  0  0  0
   -7.6869   23.8837  -29.6483 H   0  0  0  0  0  0  0  0  0  0  0  0
  -10.1279   20.3117  -31.3552 H   0  0  0  0  0  0  0  0  0  0  0  0
   -9.6047   18.2330  -32.6307 H   0  0  0  0  0  0  0  0  0  0  0  0
   -7.2528   17.7192  -33.2749 H   0  0  0  0  0  0  0  0  0  0  0  0
   -5.4102   19.2773  -32.6516 H   0  0  0  0  0  0  0  0  0  0  0  0
   -4.3941   21.3484  -33.7633 H   0  0  0  0  0  0  0  0  0  0  0  0
   -4.0700   22.9585  -33.0177 H   0  0  0  0  0  0  0  0  0  0  0  0
   -2.1820   20.6223  -33.4530 H   0  0  0  0  0  0  0  0  0  0  0  0
   -1.9504   22.3656  -33.8234 H   0  0  0  0  0  0  0  0  0  0  0  0
   -1.5191   19.8426  -31.3990 H   0  0  0  0  0  0  0  0  0  0  0  0
   -1.6724   20.9996  -29.9938 H   0  0  0  0  0  0  0  0  0  0  0  0
   -3.7246   19.4123  -31.2654 H   0  0  0  0  0  0  0  0  0  0  0  0
   -3.8256   20.5139  -29.8290 H   0  0  0  0  0  0  0  0  0  0  0  0
  1  2  2  0
  2  3  2  0
  2  4  1  0
  4  5  2  0
  5  6  1  0
  6  7  2  0
  7  8  1  0
  7  9  1  0
  9 10  1  0
  9 11  2  0
  2 12  1  0
 12 13  2  0
 13 14  1  0
 14 15  2  0
 15 16  1  0
 16 17  2  0
 17 18  1  0
 18 19  2  0
 19 20  1  0
 20 21  2  0
 21 22  1  0
 22 23  1  0
 23 24  1  0
 24 25  1  0
 25 26  1  0
 26 27  1  0
 11  4  1  0
 21 12  1  0
 27 22  1  0
 20 15  1  0
  5 28  1  0
  6 29  1  0
 11 30  1  0
 13 31  1  0
 16 32  1  0
 17 33  1  0
 18 34  1  0
 19 35  1  0
 23 36  1  0
 23 37  1  0
 24 38  1  0
 24 39  1  0
 26 40  1  0
 26 41  1  0
 27 42  1  0
 27 43  1  0
M  END
>  <UniqueID>  (9) 
9

>  <SMILES>  (9) 
O=S(=O)(c1ccc(F)c(F)c1)c1cnc2ccccc2c1N1CCOCC1

>  <Energy>  (9) 
63.305298274601995

>  <Genealogy>  (9) 
O=S(=O)(c1ccc(F)c(F)c1)c1cnc2ccccc2c1N1CCOCC1 (3D coordinates assigned)
O=S(=O)(c1ccc(F)c(F)c1)c1cnc2ccccc2c1N1CCOCC1 (nonaromatic ring conformer: 63.305298274601995 kcal/mol)

>  <smiles>  (9) 
O=S(=O)(c1ccc(F)c(F)c1)c1cnc2ccccc2c1N1CCOCC1

>  <score_type>  (9) 
oracle

>  <origin>  (9) 
adgpu

>  <m_score__min__energy>  (9) 
-8.6400000000000006

>  <m_primary>  (9) 
energy

$$$$
9:0
     RDKit          3D

 43 45  0  0  0  0  0  0  0  0999 V2000
   -9.4830   21.9130  -31.1870 C   0  0  0  0  0  0  0  0  0  0  0  0
   -9.0890   20.4450  -31.3270 C   0  0  0  0  0  0  0  0  0  0  0  0
   -8.5340   20.1190  -32.7200 C   0  0  0  0  0  0  0  0  0  0  0  0
   -7.0720   19.9580  -32.6890 N   0  0  0  0  0  0  0  0  0  0  0  0
   -6.4840   18.7900  -33.2860 C   0  0  0  0  0  0  0  0  0  0  0  0
   -5.4580   18.9170  -34.2350 C   0  0  0  0  0  0  0  0  0  0  0  0
   -4.8810   17.7780  -34.8060 C   0  0  0  0  0  0  0  0  0  0  0  0
   -5.3230   16.5070  -34.4300 C   0  0  0  0  0  0  0  0  0  0  0  0
   -6.3420   16.3720  -33.4830 C   0  0  0  0  0  0  0  0  0  0  0  0
   -6.9200   17.5090  -32.9110 C   0  0  0  0  0  0  0  0  0  0  0  0
   -6.2310   20.9980  -32.1480 C   0  0  0  0  0  0  0  0  0  0  0  0
   -6.5490   22.3100  -32.1840 N   0  0  0  0  0  0  0  0  0  0  0  0
   -5.6000   23.0850  -31.5920 C   0  0  0  0  0  0  0  0  0  0  0  0
   -4.5070   22.3890  -31.0670 C   0  0  0  0  0  0  0  0  0  0  0  0
   -3.3300   22.9680  -30.3670 C   0  0  0  0  0  0  0  0  0  0  0  0
   -3.4480   24.1360  -29.5910 C   0  0  0  0  0  0  0  0  0  0  0  0
   -2.3340   24.6720  -28.9370 C   0  0  0  0  0  0  0  0  0  0  0  0
   -1.0780   24.0500  -29.0470 C   0  0  0  0  0  0  0  0  0  0  0  0
    0.0680   24.5480  -28.4090 O   0  0  0  0  0  0  0  0  0  0  0  0
    0.1740   24.7750  -27.0080 C   0  0  0  0  0  0  0  0  0  0  0  0
   -0.9580   22.8920  -29.8190 C   0  0  0  0  0  0  0  0  0  0  0  0
   -2.0700   22.3540  -30.4750 C   0  0  0  0  0  0  0  0  0  0  0  0
   -4.7610   20.7470  -31.3650 S   0  0  0  0  0  0  0  0  0  0  0  0
   -9.5530   22.1738  -30.1207 H   0  0  0  0  0  0  0  0  0  0  0  0
   -8.7225   22.5444  -31.6697 H   0  0  0  0  0  0  0  0  0  0  0  0
  -10.4574   22.0788  -31.6697 H   0  0  0  0  0  0  0  0  0  0  0  0
   -8.3190   20.2127  -30.5766 H   0  0  0  0  0  0  0  0  0  0  0  0
   -9.9944   19.8387  -31.1762 H   0  0  0  0  0  0  0  0  0  0  0  0
   -8.9899   19.1839  -33.0775 H   0  0  0  0  0  0  0  0  0  0  0  0
   -8.7771   20.9533  -33.3944 H   0  0  0  0  0  0  0  0  0  0  0  0
   -5.1062   19.9163  -34.5310 H   0  0  0  0  0  0  0  0  0  0  0  0
   -4.0789   17.8829  -35.5514 H   0  0  0  0  0  0  0  0  0  0  0  0
   -4.8686   15.6118  -34.8797 H   0  0  0  0  0  0  0  0  0  0  0  0
   -6.6892   15.3709  -33.1877 H   0  0  0  0  0  0  0  0  0  0  0  0
   -7.7199   17.3997  -32.1638 H   0  0  0  0  0  0  0  0  0  0  0  0
   -5.6866   24.1799  -31.5309 H   0  0  0  0  0  0  0  0  0  0  0  0
   -4.4254   24.6320  -29.4979 H   0  0  0  0  0  0  0  0  0  0  0  0
   -2.4411   25.5852  -28.3332 H   0  0  0  0  0  0  0  0  0  0  0  0
   -0.2306   23.9085  -26.4645 H   0  0  0  0  0  0  0  0  0  0  0  0
    1.2311   24.9160  -26.7383 H   0  0  0  0  0  0  0  0  0  0  0  0
   -0.3965   25.6760  -26.7383 H   0  0  0  0  0  0  0  0  0  0  0  0
    0.0206   22.3984  -29.9119 H   0  0  0  0  0  0  0  0  0  0  0  0
   -1.9577   21.4426  -31.0806 H   0  0  0  0  0  0  0  0  0  0  0  0
  1  2  1  0
  2  3  1  0
  3  4  1  0
  4  5  1  0
  5  6  2  0
  6  7  1  0
  7  8  2  0
  8  9  1  0
  9 10  2  0
  4 11  1  0
 11 12  2  0
 12 13  1  0
 13 14  2  0
 14 15  1  0
 15 16  2  0
 16 17  1  0
 17 18  2  0
 18 19  1  0
 19 20  1  0
 18 21  1  0
 21 22  2  0
 14 23  1  0
 10  5  1  0
 23 11  1  0
 22 15  1  0
  1 24  1  0
  1 25  1  0
  1 26  1  0
  2 27  1  0
  2 28  1  0
  3 29  1  0
  3 30  1  0
  6 31  1  0
  7 32  1  0
  8 33  1  0
  9 34  1  0
 10 35  1  0
 13 36  1  0
 16 37  1  0
 17 38  1  0
 20 39  1  0
 20 40  1  0
 20 41  1  0
 21 42  1  0
 22 43  1  0
M  END
>  <UniqueID>  (10) 
10

>  <SMILES>  (10) 
CCCN(c1ccccc1)c1ncc(-c2ccc(OC)cc2)s1

>  <Energy>  (10) 
77.79699852637214

>  <Genealogy>  (10) 
CCCN(c1ccccc1)c1ncc(-c2ccc(OC)cc2)s1 (3D coordinates assigned)
CCCN(c1ccccc1)c1ncc(-c2ccc(OC)cc2)s1 (optimized conformer: 77.79699852637214 kcal/mol)

>  <smiles>  (10) 
CCCN(c1ccccc1)c1ncc(-c2ccc(OC)cc2)s1

>  <score_type>  (10) 
oracle

>  <origin>  (10) 
adgpu

>  <m_score__min__energy>  (10) 
-7.2999999999999998

>  <m_primary>  (10) 
energy

$$$$
10:0
     RDKit          3D

 40 43  0  0  0  0  0  0  0  0999 V2000
   -1.1440   20.6840  -29.1800 O   0  0  0  0  0  0  0  0  0  0  0  0
   -1.2340   21.9390  -29.1110 C   0  0  0  0  0  0  0  0  0  0  0  0
   -2.2590   22.6070  -29.8130 C   0  0  0  0  0  0  0  0  0  0  0  0
   -2.3390   24.0120  -29.7300 C   0  0  0  0  0  0  0  0  0  0  0  0
   -3.3720   24.7610  -30.3920 N   0  0  0  0  0  0  0  0  0  0  0  0
   -4.7420   24.3350  -30.4960 C   0  0  0  0  0  0  0  0  0  0  0  0
   -5.7560   25.1350  -29.9560 C   0  0  0  0  0  0  0  0  0  0  0  0
   -7.0890   24.7430  -30.0890 C   0  0  0  0  0  0  0  0  0  0  0  0
   -7.3990   23.5940  -30.7430 N   0  0  0  0  0  0  0  0  0  0  0  0
   -6.4420   22.7890  -31.2860 C   0  0  0  0  0  0  0  0  0  0  0  0
   -6.8310   21.5950  -31.9880 N   0  0  0  0  0  0  0  0  0  0  0  0
   -5.8360   20.9000  -32.8180 C   0  0  0  0  0  0  0  0  0  0  0  0
   -6.3710   19.5580  -33.3410 C   0  0  0  0  0  0  0  0  0  0  0  0
   -7.1070   18.8070  -32.2240 C   0  0  0  0  0  0  0  0  0  0  0  0
   -8.2720   19.6230  -31.6200 C   0  0  0  0  0  0  0  0  0  0  0  0
   -8.2220   21.1160  -31.9780 C   0  0  0  0  0  0  0  0  0  0  0  0
   -5.0930   23.1670  -31.1910 C   0  0  0  0  0  0  0  0  0  0  0  0
   -1.4310   24.6380  -28.9390 N   0  0  0  0  0  0  0  0  0  0  0  0
   -1.3140   25.9280  -28.6950 N   0  0  0  0  0  0  0  0  0  0  0  0
   -0.2470   26.0250  -27.8650 C   0  0  0  0  0  0  0  0  0  0  0  0
    0.3190   24.8220  -27.5760 N   0  0  0  0  0  0  0  0  0  0  0  0
   -0.4690   23.9920  -28.2820 C   0  0  0  0  0  0  0  0  0  0  0  0
   -0.3420   22.6450  -28.3500 N   0  0  0  0  0  0  0  0  0  0  0  0
   -2.9843   22.0406  -30.4156 H   0  0  0  0  0  0  0  0  0  0  0  0
   -3.1100   25.6780  -30.8190 H   0  0  0  0  0  0  0  0  0  0  0  0
   -5.5036   26.0674  -29.4298 H   0  0  0  0  0  0  0  0  0  0  0  0
   -7.8896   25.3658  -29.6634 H   0  0  0  0  0  0  0  0  0  0  0  0
   -5.5774   21.5392  -33.6751 H   0  0  0  0  0  0  0  0  0  0  0  0
   -4.9513   20.6980  -32.1963 H   0  0  0  0  0  0  0  0  0  0  0  0
   -7.0665   19.7439  -34.1727 H   0  0  0  0  0  0  0  0  0  0  0  0
   -5.5251   18.9458  -33.6869 H   0  0  0  0  0  0  0  0  0  0  0  0
   -7.5108   17.8708  -32.6369 H   0  0  0  0  0  0  0  0  0  0  0  0
   -6.3821   18.6188  -31.4183 H   0  0  0  0  0  0  0  0  0  0  0  0
   -9.2194   19.2067  -31.9931 H   0  0  0  0  0  0  0  0  0  0  0  0
   -8.1870   19.5487  -30.5258 H   0  0  0  0  0  0  0  0  0  0  0  0
   -8.6637   21.2647  -32.9744 H   0  0  0  0  0  0  0  0  0  0  0  0
   -8.7889   21.6826  -31.2247 H   0  0  0  0  0  0  0  0  0  0  0  0
   -4.3131   22.5493  -31.6601 H   0  0  0  0  0  0  0  0  0  0  0  0
    0.1241   26.9802  -27.4652 H   0  0  0  0  0  0  0  0  0  0  0  0
    0.4190   22.1570  -27.8270 H   0  0  0  0  0  0  0  0  0  0  0  0
  1  2  2  0
  2  3  1  0
  3  4  2  0
  4  5  1  0
  5  6  1  0
  6  7  2  0
  7  8  1  0
  8  9  2  0
  9 10  1  0
 10 11  1  0
 11 12  1  0
 12 13  1  0
 13 14  1  0
 14 15  1  0
 15 16  1  0
 10 17  2  0
  4 18  1  0
 18 19  1  0
 19 20  2  0
 20 21  1  0
 21 22  2  0
 22 23  1  0
 23  2  1  0
 17  6  1  0
 22 18  1  0
 16 11  1  0
  3 24  1  0
  5 25  1  0
  7 26  1  0
  8 27  1  0
 12 28  1  0
 12 29  1  0
 13 30  1  0
 13 31  1  0
 14 32  1  0
 14 33  1  0
 15 34  1  0
 15 35  1  0
 16 36  1  0
 16 37  1  0
 17 38  1  0
 20 39  1  0
 23 40  1  0
M  END
>  <UniqueID>  (11) 
11

>  <SMILES>  (11) 
O=c1cc(Nc2ccnc(N3CCCCC3)c2)n2ncnc2[nH]1

>  <Energy>  (11) 
92.29668718280477

>  <Genealogy>  (11) 
O=c1cc(Nc2ccnc(N3CCCCC3)c2)n2ncnc2[nH]1 (3D coordinates assigned)
O=c1cc(Nc2ccnc(N3CCCCC3)c2)n2ncnc2[nH]1 (nonaromatic ring conformer: 92.29668718280477 kcal/mol)

>  <smiles>  (11) 
O=c1cc(Nc2ccnc(N3CCCCC3)c2)n2ncnc2[nH]1

>  <score_type>  (11) 
oracle

>  <origin>  (11) 
adgpu

>  <m_score__min__energy>  (11) 
-8.2799999999999994

>  <m_primary>  (11) 
energy

$$$$
11:0
     RDKit          3D

 48 51  0  0  0  0  0  0  0  0999 V2000
   -4.6100   25.6220  -31.1720 O   0  0  0  0  0  0  0  0  0  0  0  0
   -5.3760   24.3600  -30.8830 S   0  0  0  0  0  0  0  0  0  0  0  0
   -6.4250   24.6620  -29.8500 O   0  0  0  0  0  0  0  0  0  0  0  0
   -6.1220   23.7960  -32.3370 N   0  0  0  0  0  0  0  0  0  0  0  0
   -7.1340   22.7920  -32.2700 C   0  0  0  0  0  0  0  0  0  0  0  0
   -8.4530   23.1610  -31.9680 C   0  0  0  0  0  0  0  0  0  0  0  0
   -9.4490   22.1890  -31.8520 C   0  0  0  0  0  0  0  0  0  0  0  0
   -9.1300   20.8390  -32.0160 C   0  0  0  0  0  0  0  0  0  0  0  0
   -7.8170   20.4600  -32.3000 C   0  0  0  0  0  0  0  0  0  0  0  0
   -6.8150   21.4310  -32.4410 C   0  0  0  0  0  0  0  0  0  0  0  0
   -5.1220   20.8920  -32.7270 S   0  0  0  0  0  0  0  0  0  0  0  0
   -5.5820   19.1880  -33.0470 C   0  0  0  0  0  0  0  0  0  0  0  0
   -5.7000   18.2820  -31.9840 C   0  0  0  0  0  0  0  0  0  0  0  0
   -6.0470   16.9500  -32.2330 C   0  0  0  0  0  0  0  0  0  0  0  0
   -6.2590   16.5160  -33.5460 C   0  0  0  0  0  0  0  0  0  0  0  0
   -6.1190   17.4120  -34.6110 C   0  0  0  0  0  0  0  0  0  0  0  0
   -5.7780   18.7460  -34.3630 C   0  0  0  0  0  0  0  0  0  0  0  0
   -4.2760   23.1180  -30.3010 C   0  0  0  0  0  0  0  0  0  0  0  0
   -4.4000   22.6280  -28.9960 C   0  0  0  0  0  0  0  0  0  0  0  0
   -3.4830   21.6920  -28.5050 C   0  0  0  0  0  0  0  0  0  0  0  0
   -2.4260   21.2340  -29.3140 C   0  0  0  0  0  0  0  0  0  0  0  0
   -1.4540   20.2370  -28.7930 C   0  0  0  0  0  0  0  0  0  0  0  0
   -1.7430   19.4930  -27.6330 C   0  0  0  0  0  0  0  0  0  0  0  0
   -0.8210   18.5650  -27.1350 C   0  0  0  0  0  0  0  0  0  0  0  0
    0.3980   18.3660  -27.7880 C   0  0  0  0  0  0  0  0  0  0  0  0
    1.2930   17.4690  -27.3020 F   0  0  0  0  0  0  0  0  0  0  0  0
    0.6950   19.0970  -28.9430 C   0  0  0  0  0  0  0  0  0  0  0  0
   -0.2220   20.0270  -29.4440 C   0  0  0  0  0  0  0  0  0  0  0  0
   -2.3030   21.7400  -30.6220 C   0  0  0  0  0  0  0  0  0  0  0  0
   -3.2190   22.6770  -31.1090 C   0  0  0  0  0  0  0  0  0  0  0  0
   -5.6110   23.9440  -33.2350 H   0  0  0  0  0  0  0  0  0  0  0  0
   -8.7043   24.2219  -31.8217 H   0  0  0  0  0  0  0  0  0  0  0  0
  -10.4848   22.4865  -31.6315 H   0  0  0  0  0  0  0  0  0  0  0  0
   -9.9144   20.0737  -31.9212 H   0  0  0  0  0  0  0  0  0  0  0  0
   -7.5671   19.3948  -32.4137 H   0  0  0  0  0  0  0  0  0  0  0  0
   -5.5195   18.6189  -30.9526 H   0  0  0  0  0  0  0  0  0  0  0  0
   -6.1532   16.2437  -31.3964 H   0  0  0  0  0  0  0  0  0  0  0  0
   -6.5360   15.4695  -33.7410 H   0  0  0  0  0  0  0  0  0  0  0  0
   -6.2770   17.0677  -35.6437 H   0  0  0  0  0  0  0  0  0  0  0  0
   -5.6635   19.4488  -35.2014 H   0  0  0  0  0  0  0  0  0  0  0  0
   -5.2211   22.9798  -28.3541 H   0  0  0  0  0  0  0  0  0  0  0  0
   -3.5890   21.3110  -27.4785 H   0  0  0  0  0  0  0  0  0  0  0  0
   -2.7012   19.6423  -27.1139 H   0  0  0  0  0  0  0  0  0  0  0  0
   -1.0569   17.9908  -26.2269 H   0  0  0  0  0  0  0  0  0  0  0  0
    1.6535   18.9399  -29.4594 H   0  0  0  0  0  0  0  0  0  0  0  0
    0.0203   20.5983  -30.3523 H   0  0  0  0  0  0  0  0  0  0  0  0
   -1.4801   21.3955  -31.2655 H   0  0  0  0  0  0  0  0  0  0  0  0
   -3.1098   23.0699  -32.1306 H   0  0  0  0  0  0  0  0  0  0  0  0
  1  2  2  0
  2  3  2  0
  2  4  1  0
  4  5  1  0
  5  6  2  0
  6  7  1  0
  7  8  2  0
  8  9  1  0
  9 10  2  0
 10 11  1  0
 11 12  1  0
 12 13  2  0
 13 14  1  0
 14 15  2  0
 15 16  1  0
 16 17  2  0
  2 18  1  0
 18 19  2  0
 19 20  1  0
 20 21  2  0
 21 22  1  0
 22 23  2  0
 23 24  1  0
 24 25  2  0
 25 26  1  0
 25 27  1  0
 27 28  2  0
 21 29  1  0
 29 30  2  0
 10  5  1  0
 17 12  1  0
 30 18  1  0
 28 22  1  0
  4 31  1  0
  6 32  1  0
  7 33  1  0
  8 34  1  0
  9 35  1  0
 13 36  1  0
 14 37  1  0
 15 38  1  0
 16 39  1  0
 17 40  1  0
 19 41  1  0
 20 42  1  0
 23 43  1  0
 24 44  1  0
 27 45  1  0
 28 46  1  0
 29 47  1  0
 30 48  1  0
M  END
>  <UniqueID>  (12) 
12

>  <SMILES>  (12) 
O=S(=O)(Nc1ccccc1Sc1ccccc1)c1ccc(-c2ccc(F)cc2)cc1

>  <Energy>  (12) 
60.24804335819794

>  <Genealogy>  (12) 
O=S(=O)(Nc1ccccc1Sc1ccccc1)c1ccc(-c2ccc(F)cc2)cc1 (3D coordinates assigned)
O=S(=O)(Nc1ccccc1Sc1ccccc1)c1ccc(-c2ccc(F)cc2)cc1 (optimized conformer: 60.24804335819794 kcal/mol)

>  <smiles>  (12) 
O=S(=O)(Nc1ccccc1Sc1ccccc1)c1ccc(-c2ccc(F)cc2)cc1

>  <score_type>  (12) 
oracle

>  <origin>  (12) 
adgpu

>  <m_score__min__energy>  (12) 
-10.92

>  <m_primary>  (12) 
energy

$$$$
12:0
     RDKit          3D

 31 33  0  0  0  0  0  0  0  0999 V2000
   -9.9552   17.8436  -31.5336 H   0  0  0  0  0  0  0  0  0  0  0  0
   -9.1220   18.4070  -31.9790 C   0  0  0  0  0  0  0  0  0  0  0  0
   -9.2580   19.5800  -32.6350 N   0  0  0  0  0  0  0  0  0  0  0  0
   -8.0680   20.0580  -33.0890 C   0  0  0  0  0  0  0  0  0  0  0  0
   -7.9806   21.0037  -33.6440 H   0  0  0  0  0  0  0  0  0  0  0  0
   -6.9730   19.2570  -32.7960 C   0  0  0  0  0  0  0  0  0  0  0  0
   -5.5440   19.5530  -33.1290 C   0  0  0  0  0  0  0  0  0  0  0  0
   -5.5072   20.2401  -33.9872 H   0  0  0  0  0  0  0  0  0  0  0  0
   -5.0337   18.6103  -33.3756 H   0  0  0  0  0  0  0  0  0  0  0  0
   -4.8700   20.1710  -31.9890 N   0  0  0  0  0  0  0  0  0  0  0  0
   -5.1490   21.3450  -31.5060 C   0  0  0  0  0  0  0  0  0  0  0  0
   -6.1260   22.1160  -32.0590 N   0  0  0  0  0  0  0  0  0  0  0  0
   -6.4250   23.3380  -31.5490 C   0  0  0  0  0  0  0  0  0  0  0  0
   -7.2199   23.9455  -32.0063 H   0  0  0  0  0  0  0  0  0  0  0  0
   -5.7240   23.8230  -30.4450 C   0  0  0  0  0  0  0  0  0  0  0  0
   -6.1590   25.5410  -29.7200 Br  0  0  0  0  0  0  0  0  0  0  0  0
   -4.7060   23.0320  -29.8960 C   0  0  0  0  0  0  0  0  0  0  0  0
   -4.0050   23.4880  -28.7300 N   0  0  0  0  0  0  0  0  0  0  0  0
   -2.9710   24.2790  -28.6720 C   0  0  0  0  0  0  0  0  0  0  0  0
   -2.3270   24.6190  -27.5050 C   0  0  0  0  0  0  0  0  0  0  0  0
   -2.5486   24.2814  -26.4818 H   0  0  0  0  0  0  0  0  0  0  0  0
   -1.3350   25.4860  -27.9240 C   0  0  0  0  0  0  0  0  0  0  0  0
   -0.3800   26.2110  -27.0350 C   0  0  0  0  0  0  0  0  0  0  0  0
   -0.6374   26.0156  -25.9835 H   0  0  0  0  0  0  0  0  0  0  0  0
    0.6437   25.8605  -27.2332 H   0  0  0  0  0  0  0  0  0  0  0  0
   -0.4425   27.2912  -27.2332 H   0  0  0  0  0  0  0  0  0  0  0  0
   -1.4120   25.6730  -29.2560 N   0  0  0  0  0  0  0  0  0  0  0  0
   -2.4070   24.9280  -29.7120 N   0  0  0  0  0  0  0  0  0  0  0  0
   -2.6990   24.9240  -30.7120 H   0  0  0  0  0  0  0  0  0  0  0  0
   -4.4570   21.8050  -30.4320 N   0  0  0  0  0  0  0  0  0  0  0  0
   -7.5120   17.9200  -31.9320 S   0  0  0  0  0  0  0  0  0  0  0  0
  1  2  1  0
  2  3  2  0
  3  4  1  0
  4  5  1  0
  4  6  2  0
  6  7  1  0
  7  8  1  0
  7  9  1  0
  7 10  1  0
 10 11  2  0
 11 12  1  0
 12 13  2  0
 13 14  1  0
 13 15  1  0
 15 16  1  0
 15 17  2  0
 17 18  1  0
 18 19  2  0
 19 20  1  0
 20 21  1  0
 20 22  2  0
 22 23  1  0
 23 24  1  0
 23 25  1  0
 23 26  1  0
 22 27  1  0
 27 28  1  0
 28 29  1  0
 17 30  1  0
  6 31  1  0
 31  2  1  0
 30 11  1  0
 28 19  1  0
M  CHG  2  27  -1  30  -1
M  END
>  <UniqueID>  (13) 
13

>  <SMILES>  (13) 
Cc1c/c(=N/c2[n-]/c(=N/Cc3cncs3)ncc2Br)[nH][n-]1

>  <Energy>  (13) 
97.18697053017976

>  <Genealogy>  (13) 
Cc1cc(=Nc2[n-]c(=NCc3cncs3)ncc2Br)[nH][n-]1 (protonated)
Cc1c/c(=N/c2[n-]/c(=N/Cc3cncs3)ncc2Br)[nH][n-]1 (cis-trans isomerization)
Cc1c/c(=N/c2[n-]/c(=N/Cc3cncs3)ncc2Br)[nH][n-]1 (3D coordinates assigned)
Cc1c/c(=N/c2[n-]/c(=N/Cc3cncs3)ncc2Br)[nH][n-]1 (optimized conformer: 97.18697053017976 kcal/mol)

>  <smiles>  (13) 
Cc1cc(=Nc2[nH]c(=NCc3cncs3)ncc2Br)[nH][nH]1

>  <score_type>  (13) 
oracle

>  <origin>  (13) 
adgpu

>  <m_score__min__energy>  (13) 
-9.8100000000000005

>  <m_primary>  (13) 
energy

$$$$
13:0
     RDKit          3D

 38 40  0  0  0  0  0  0  0  0999 V2000
   -9.3988   18.2337  -33.2968 H   0  0  0  0  0  0  0  0  0  0  0  0
   -8.9920   19.1290  -32.8040 C   0  0  0  0  0  0  0  0  0  0  0  0
   -9.8220   20.1300  -32.4100 N   0  0  0  0  0  0  0  0  0  0  0  0
   -9.3490   21.2510  -31.8070 C   0  0  0  0  0  0  0  0  0  0  0  0
  -10.0421   22.0419  -31.4844 H   0  0  0  0  0  0  0  0  0  0  0  0
   -7.9750   21.3910  -31.6000 C   0  0  0  0  0  0  0  0  0  0  0  0
   -7.5140   22.4600  -31.0170 N   0  0  0  0  0  0  0  0  0  0  0  0
   -6.1290   22.7760  -30.7870 C   0  0  0  0  0  0  0  0  0  0  0  0
   -5.2320   21.7280  -30.5420 C   0  0  0  0  0  0  0  0  0  0  0  0
   -5.5918   20.6885  -30.5421 H   0  0  0  0  0  0  0  0  0  0  0  0
   -3.8800   21.9970  -30.2970 C   0  0  0  0  0  0  0  0  0  0  0  0
   -3.1780   21.1686  -30.1209 H   0  0  0  0  0  0  0  0  0  0  0  0
   -3.4220   23.3160  -30.2760 C   0  0  0  0  0  0  0  0  0  0  0  0
   -2.3574   23.5254  -30.0950 H   0  0  0  0  0  0  0  0  0  0  0  0
   -4.3160   24.3710  -30.4850 C   0  0  0  0  0  0  0  0  0  0  0  0
   -3.8630   25.6840  -30.4450 O   0  0  0  0  0  0  0  0  0  0  0  0
   -5.6670   24.1050  -30.7280 C   0  0  0  0  0  0  0  0  0  0  0  0
   -6.3717   24.9370  -30.8736 H   0  0  0  0  0  0  0  0  0  0  0  0
   -7.1480   20.3800  -31.9810 N   0  0  0  0  0  0  0  0  0  0  0  0
   -7.6080   19.2460  -32.5770 C   0  0  0  0  0  0  0  0  0  0  0  0
   -6.6370   18.1940  -32.9840 C   0  0  0  0  0  0  0  0  0  0  0  0
   -6.1200   18.1310  -34.2930 C   0  0  0  0  0  0  0  0  0  0  0  0
   -6.4201   18.8845  -35.0361 H   0  0  0  0  0  0  0  0  0  0  0  0
   -5.2290   17.1180  -34.6530 C   0  0  0  0  0  0  0  0  0  0  0  0
   -4.8315   17.0777  -35.6779 H   0  0  0  0  0  0  0  0  0  0  0  0
   -4.8400   16.1560  -33.7190 C   0  0  0  0  0  0  0  0  0  0  0  0
   -4.1427   15.3578  -34.0136 H   0  0  0  0  0  0  0  0  0  0  0  0
   -5.3330   16.2020  -32.4090 C   0  0  0  0  0  0  0  0  0  0  0  0
   -4.9470   15.1790  -31.4750 N   0  0  0  0  0  0  0  0  0  0  0  0
   -5.0380   15.3840  -30.4540 H   0  0  0  0  0  0  0  0  0  0  0  0
   -4.5250   13.8580  -31.8530 C   0  0  0  0  0  0  0  0  0  0  0  0
   -4.7540   13.4170  -33.0120 O   0  0  0  0  0  0  0  0  0  0  0  0
   -3.8960   12.9590  -30.8400 C   0  0  0  0  0  0  0  0  0  0  0  0
   -4.1449   13.3147  -29.8293 H   0  0  0  0  0  0  0  0  0  0  0  0
   -4.2758   11.9352  -30.9723 H   0  0  0  0  0  0  0  0  0  0  0  0
   -2.8040   12.9649  -30.9723 H   0  0  0  0  0  0  0  0  0  0  0  0
   -6.2480   17.2100  -32.0550 C   0  0  0  0  0  0  0  0  0  0  0  0
   -6.6657   17.2298  -31.0376 H   0  0  0  0  0  0  0  0  0  0  0  0
  1  2  1  0
  2  3  1  0
  3  4  2  0
  4  5  1  0
  4  6  1  0
  6  7  2  0
  7  8  1  0
  8  9  2  0
  9 10  1  0
  9 11  1  0
 11 12  1  0
 11 13  2  0
 13 14  1  0
 13 15  1  0
 15 16  1  0
 15 17  2  0
 17 18  1  0
  6 19  1  0
 19 20  1  0
 20 21  1  0
 21 22  2  0
 22 23  1  0
 22 24  1  0
 24 25  1  0
 24 26  2  0
 26 27  1  0
 26 28  1  0
 28 29  1  0
 29 30  1  0
 29 31  1  0
 31 32  2  0
 31 33  1  0
 33 34  1  0
 33 35  1  0
 33 36  1  0
 28 37  2  0
 37 38  1  0
 20  2  2  0
 37 21  1  0
 17  8  1  0
M  CHG  2  16  -1  19  -1
M  END
>  <UniqueID>  (14) 
14

>  <SMILES>  (14) 
CC(=O)Nc1cccc(-c2cnc/c(=N/c3cccc([O-])c3)[n-]2)c1

>  <Energy>  (14) 
53.09904261386113

>  <Genealogy>  (14) 
CC(=O)Nc1cccc(-c2cncc(=Nc3cccc([O-])c3)[n-]2)c1 (protonated)
CC(=O)Nc1cccc(-c2cnc/c(=N/c3cccc([O-])c3)[n-]2)c1 (cis-trans isomerization)
CC(=O)Nc1cccc(-c2cnc/c(=N/c3cccc([O-])c3)[n-]2)c1 (3D coordinates assigned)
CC(=O)Nc1cccc(-c2cnc/c(=N/c3cccc([O-])c3)[n-]2)c1 (optimized conformer: 53.09904261386113 kcal/mol)

>  <smiles>  (14) 
CC(=O)Nc1cccc(-c2cncc(=Nc3cccc(O)c3)[nH]2)c1

>  <score_type>  (14) 
oracle

>  <origin>  (14) 
adgpu

>  <m_score__min__energy>  (14) 
-11.4

>  <m_primary>  (14) 
energy

$$$$
14:0
     RDKit          3D

 52 55  0  0  0  0  0  0  0  0999 V2000
    1.1980   24.1640  -25.2660 C   0  0  0  0  0  0  0  0  0  0  0  0
    0.9400   23.4780  -26.4860 O   0  0  0  0  0  0  0  0  0  0  0  0
   -0.3400   23.2560  -27.0150 C   0  0  0  0  0  0  0  0  0  0  0  0
   -1.1340   22.1570  -26.6310 C   0  0  0  0  0  0  0  0  0  0  0  0
   -2.4040   21.9770  -27.1850 C   0  0  0  0  0  0  0  0  0  0  0  0
   -2.8990   22.8890  -28.1280 C   0  0  0  0  0  0  0  0  0  0  0  0
   -4.1690   22.7250  -28.6920 C   0  0  0  0  0  0  0  0  0  0  0  0
   -4.6470   23.6490  -29.6300 C   0  0  0  0  0  0  0  0  0  0  0  0
   -6.0290   23.4920  -30.2140 C   0  0  0  0  0  0  0  0  0  0  0  0
   -6.0090   22.4880  -31.2990 N   0  0  0  0  0  0  0  0  0  0  0  0
   -7.3740   22.2150  -31.7990 C   0  0  0  0  0  0  0  0  0  0  0  0
   -7.5650   20.7340  -31.9780 C   0  0  0  0  0  0  0  0  0  0  0  0
   -8.5920   20.0720  -31.2830 C   0  0  0  0  0  0  0  0  0  0  0  0
   -8.7950   18.7010  -31.4630 C   0  0  0  0  0  0  0  0  0  0  0  0
   -7.9770   17.9820  -32.3390 C   0  0  0  0  0  0  0  0  0  0  0  0
   -6.9540   18.6330  -33.0350 C   0  0  0  0  0  0  0  0  0  0  0  0
   -6.7480   20.0050  -32.8580 C   0  0  0  0  0  0  0  0  0  0  0  0
   -5.1110   22.9030  -32.3980 C   0  0  0  0  0  0  0  0  0  0  0  0
   -3.9290   21.9760  -32.4660 C   0  0  0  0  0  0  0  0  0  0  0  0
   -2.8180   22.1570  -31.6310 C   0  0  0  0  0  0  0  0  0  0  0  0
   -1.7230   21.2960  -31.7300 C   0  0  0  0  0  0  0  0  0  0  0  0
   -1.7490   20.2620  -32.6690 C   0  0  0  0  0  0  0  0  0  0  0  0
   -2.8310   20.1000  -33.4760 N   0  0  0  0  0  0  0  0  0  0  0  0
   -3.9100   20.9250  -33.3960 C   0  0  0  0  0  0  0  0  0  0  0  0
   -3.8280   24.7380  -29.9900 C   0  0  0  0  0  0  0  0  0  0  0  0
   -4.2330   25.5870  -30.8300 O   0  0  0  0  0  0  0  0  0  0  0  0
   -2.5930   24.8820  -29.4330 N   0  0  0  0  0  0  0  0  0  0  0  0
   -2.1110   23.9930  -28.5170 C   0  0  0  0  0  0  0  0  0  0  0  0
   -0.8360   24.1660  -27.9560 C   0  0  0  0  0  0  0  0  0  0  0  0
    0.9515   23.5086  -24.4176 H   0  0  0  0  0  0  0  0  0  0  0  0
    2.2616   24.4406  -25.2187 H   0  0  0  0  0  0  0  0  0  0  0  0
    0.5803   25.0730  -25.2187 H   0  0  0  0  0  0  0  0  0  0  0  0
   -0.7522   21.4375  -25.8917 H   0  0  0  0  0  0  0  0  0  0  0  0
   -3.0178   21.1166  -26.8802 H   0  0  0  0  0  0  0  0  0  0  0  0
   -4.7935   21.8685  -28.3981 H   0  0  0  0  0  0  0  0  0  0  0  0
   -6.7221   23.1627  -29.4259 H   0  0  0  0  0  0  0  0  0  0  0  0
   -6.3600   24.4582  -30.6225 H   0  0  0  0  0  0  0  0  0  0  0  0
   -8.1105   22.5932  -31.0747 H   0  0  0  0  0  0  0  0  0  0  0  0
   -7.5133   22.7185  -32.7670 H   0  0  0  0  0  0  0  0  0  0  0  0
   -9.2387   20.6355  -30.5944 H   0  0  0  0  0  0  0  0  0  0  0  0
   -9.5989   18.1876  -30.9150 H   0  0  0  0  0  0  0  0  0  0  0  0
   -8.1382   16.9032  -32.4809 H   0  0  0  0  0  0  0  0  0  0  0  0
   -6.3102   18.0653  -33.7229 H   0  0  0  0  0  0  0  0  0  0  0  0
   -5.9441   20.5146  -33.4094 H   0  0  0  0  0  0  0  0  0  0  0  0
   -5.6590   22.8668  -33.3511 H   0  0  0  0  0  0  0  0  0  0  0  0
   -4.7588   23.9284  -32.2123 H   0  0  0  0  0  0  0  0  0  0  0  0
   -2.8086   22.9770  -30.8979 H   0  0  0  0  0  0  0  0  0  0  0  0
   -0.8492   21.4306  -31.0755 H   0  0  0  0  0  0  0  0  0  0  0  0
   -0.8923   19.5775  -32.7556 H   0  0  0  0  0  0  0  0  0  0  0  0
   -4.7707   20.7677  -34.0627 H   0  0  0  0  0  0  0  0  0  0  0  0
   -2.0060   25.7000  -29.7190 H   0  0  0  0  0  0  0  0  0  0  0  0
   -0.2202   25.0256  -28.2590 H   0  0  0  0  0  0  0  0  0  0  0  0
  1  2  1  0
  2  3  1  0
  3  4  2  0
  4  5  1  0
  5  6  2  0
  6  7  1  0
  7  8  2  0
  8  9  1  0
  9 10  1  0
 10 11  1  0
 11 12  1  0
 12 13  2  0
 13 14  1  0
 14 15  2  0
 15 16  1  0
 16 17  2  0
 10 18  1  0
 18 19  1  0
 19 20  2  0
 20 21  1  0
 21 22  2  0
 22 23  1  0
 23 24  2  0
  8 25  1  0
 25 26  2  0
 25 27  1  0
 27 28  1  0
 28 29  2  0
 29  3  1  0
 28  6  1  0
 17 12  1  0
 24 19  1  0
  1 30  1  0
  1 31  1  0
  1 32  1  0
  4 33  1  0
  5 34  1  0
  7 35  1  0
  9 36  1  0
  9 37  1  0
 11 38  1  0
 11 39  1  0
 13 40  1  0
 14 41  1  0
 15 42  1  0
 16 43  1  0
 17 44  1  0
 18 45  1  0
 18 46  1  0
 20 47  1  0
 21 48  1  0
 22 49  1  0
 24 50  1  0
 27 51  1  0
 29 52  1  0
M  END
>  <UniqueID>  (15) 
15

>  <SMILES>  (15) 
COc1ccc2cc(CN(Cc3ccccc3)Cc3cccnc3)c(=O)[nH]c2c1

>  <Energy>  (15) 
60.349931972460105

>  <Genealogy>  (15) 
COc1ccc2cc(CN(Cc3ccccc3)Cc3cccnc3)c(=O)[nH]c2c1 (3D coordinates assigned)
COc1ccc2cc(CN(Cc3ccccc3)Cc3cccnc3)c(=O)[nH]c2c1 (optimized conformer: 60.349931972460105 kcal/mol)

>  <smiles>  (15) 
COc1ccc2cc(CN(Cc3ccccc3)Cc3cccnc3)c(=O)[nH]c2c1

>  <score_type>  (15) 
oracle

>  <origin>  (15) 
adgpu

>  <m_score__min__energy>  (15) 
-9.7100000000000009

>  <m_primary>  (15) 
energy

$$$$
15:0
     RDKit          3D

 44 47  0  0  0  0  0  0  0  0999 V2000
   -4.6850   25.5420  -30.1510 O   0  0  0  0  0  0  0  0  0  0  0  0
   -3.9120   24.5810  -30.4070 C   0  0  0  0  0  0  0  0  0  0  0  0
   -4.2220   23.7180  -31.5110 N   0  0  0  0  0  0  0  0  0  0  0  0
   -5.4770   23.0560  -31.7260 C   0  0  0  0  0  0  0  0  0  0  0  0
   -6.6440   23.7040  -31.2970 C   0  0  0  0  0  0  0  0  0  0  0  0
   -7.8990   23.1530  -31.5590 C   0  0  0  0  0  0  0  0  0  0  0  0
   -7.9990   21.9350  -32.2290 C   0  0  0  0  0  0  0  0  0  0  0  0
   -6.8440   21.2500  -32.6130 C   0  0  0  0  0  0  0  0  0  0  0  0
   -5.5680   21.7850  -32.3490 C   0  0  0  0  0  0  0  0  0  0  0  0
   -4.3940   20.9920  -32.6220 N   0  0  0  0  0  0  0  0  0  0  0  0
   -4.3100   19.6030  -32.1470 C   0  0  0  0  0  0  0  0  0  0  0  0
   -3.1050   18.8950  -32.7770 C   0  0  0  0  0  0  0  0  0  0  0  0
   -1.8390   19.6080  -32.5140 N   0  0  0  0  0  0  0  0  0  0  0  0
   -1.9470   21.0850  -32.4670 C   0  0  0  0  0  0  0  0  0  0  0  0
   -3.1920   21.6170  -33.1870 C   0  0  0  0  0  0  0  0  0  0  0  0
   -2.7420   24.3600  -29.5380 C   0  0  0  0  0  0  0  0  0  0  0  0
   -1.8150   25.3120  -29.3440 N   0  0  0  0  0  0  0  0  0  0  0  0
   -0.9470   24.8760  -28.4490 N   0  0  0  0  0  0  0  0  0  0  0  0
   -1.3010   23.6340  -28.0640 C   0  0  0  0  0  0  0  0  0  0  0  0
   -0.5700   22.9510  -27.1040 C   0  0  0  0  0  0  0  0  0  0  0  0
   -0.8420   21.6950  -26.5770 C   0  0  0  0  0  0  0  0  0  0  0  0
   -1.8400   20.8010  -26.9480 C   0  0  0  0  0  0  0  0  0  0  0  0
   -2.7880   20.9100  -27.9640 C   0  0  0  0  0  0  0  0  0  0  0  0
   -3.0570   21.9840  -28.8140 C   0  0  0  0  0  0  0  0  0  0  0  0
   -3.9260   21.7850  -29.7050 O   0  0  0  0  0  0  0  0  0  0  0  0
   -2.4330   23.2390  -28.7620 C   0  0  0  0  0  0  0  0  0  0  0  0
   -6.5696   24.6550  -30.7492 H   0  0  0  0  0  0  0  0  0  0  0  0
   -8.8092   23.6799  -31.2368 H   0  0  0  0  0  0  0  0  0  0  0  0
   -8.9890   21.5126  -32.4557 H   0  0  0  0  0  0  0  0  0  0  0  0
   -6.9318   20.2817  -33.1275 H   0  0  0  0  0  0  0  0  0  0  0  0
   -4.2006   19.6002  -31.0525 H   0  0  0  0  0  0  0  0  0  0  0  0
   -5.2281   19.0707  -32.4363 H   0  0  0  0  0  0  0  0  0  0  0  0
   -3.0329   17.8796  -32.3601 H   0  0  0  0  0  0  0  0  0  0  0  0
   -3.2590   18.8707  -33.8659 H   0  0  0  0  0  0  0  0  0  0  0  0
   -1.1520   19.3420  -33.2600 H   0  0  0  0  0  0  0  0  0  0  0  0
   -1.4480   19.2730  -31.6020 H   0  0  0  0  0  0  0  0  0  0  0  0
   -1.9893   21.4002  -31.4140 H   0  0  0  0  0  0  0  0  0  0  0  0
   -1.0670   21.4963  -32.9832 H   0  0  0  0  0  0  0  0  0  0  0  0
   -3.2515   22.7077  -33.0574 H   0  0  0  0  0  0  0  0  0  0  0  0
   -3.1248   21.3759  -34.2581 H   0  0  0  0  0  0  0  0  0  0  0  0
    0.3247   23.4604  -26.7167 H   0  0  0  0  0  0  0  0  0  0  0  0
   -0.1826   21.3650  -25.7607 H   0  0  0  0  0  0  0  0  0  0  0  0
   -1.8884   19.8757  -26.3552 H   0  0  0  0  0  0  0  0  0  0  0  0
   -3.4156   20.0199  -28.1185 H   0  0  0  0  0  0  0  0  0  0  0  0
  1  2  2  0
  2  3  1  0
  3  4  1  0
  4  5  2  0
  5  6  1  0
  6  7  2  0
  7  8  1  0
  8  9  2  0
  9 10  1  0
 10 11  1  0
 11 12  1  0
 12 13  1  0
 13 14  1  0
 14 15  1  0
  2 16  1  0
 16 17  1  0
 17 18  1  0
 18 19  2  0
 19 20  1  0
 20 21  2  0
 21 22  1  0
 22 23  2  0
 23 24  1  0
 24 25  2  0
 24 26  1  0
  9  4  1  0
 15 10  1  0
 26 16  2  0
 26 19  1  0
  5 27  1  0
  6 28  1  0
  7 29  1  0
  8 30  1  0
 11 31  1  0
 11 32  1  0
 12 33  1  0
 12 34  1  0
 13 35  1  0
 13 36  1  0
 14 37  1  0
 14 38  1  0
 15 39  1  0
 15 40  1  0
 20 41  1  0
 21 42  1  0
 22 43  1  0
 23 44  1  0
M  CHG  3   3  -1  13   1  17  -1
M  END
>  <UniqueID>  (16) 
16

>  <SMILES>  (16) 
O=C([N-]c1ccccc1N1CC[NH2+]CC1)c1[n-]nc2ccccc(=O)c12

>  <Energy>  (16) 
111.58477033139793

>  <Genealogy>  (16) 
O=C([N-]c1ccccc1N1CC[NH2+]CC1)c1[n-]nc2ccccc(=O)c12 (protonated)
O=C([N-]c1ccccc1N1CC[NH2+]CC1)c1[n-]nc2ccccc(=O)c12 (3D coordinates assigned)
O=C([N-]c1ccccc1N1CC[NH2+]CC1)c1[n-]nc2ccccc(=O)c12 (nonaromatic ring conformer: 111.58477033139793 kcal/mol)

>  <smiles>  (16) 
O=C(Nc1ccccc1N1CCNCC1)c1[nH]nc2ccccc(=O)c12

>  <score_type>  (16) 
oracle

>  <origin>  (16) 
adgpu

>  <m_score__min__energy>  (16) 
-9.6799999999999997

>  <m_primary>  (16) 
energy

$$$$
16:0
     RDKit          3D

 28 29  0  0  0  0  0  0  0  0999 V2000
   -3.8750   25.2460  -30.8210 N   0  0  0  0  0  0  0  0  0  0  0  0
   -5.2800   24.9590  -29.8590 S   0  0  0  0  0  0  0  0  0  0  0  0
   -6.0850   26.2250  -29.7590 O   0  0  0  0  0  0  0  0  0  0  0  0
   -4.8660   24.5420  -28.4760 O   0  0  0  0  0  0  0  0  0  0  0  0
   -6.2510   23.6910  -30.5990 C   0  0  0  0  0  0  0  0  0  0  0  0
   -6.0300   23.3190  -31.9320 C   0  0  0  0  0  0  0  0  0  0  0  0
   -6.7920   22.3020  -32.5150 C   0  0  0  0  0  0  0  0  0  0  0  0
   -7.7740   21.6320  -31.7620 C   0  0  0  0  0  0  0  0  0  0  0  0
   -8.5820   20.5940  -32.3320 N   0  0  0  0  0  0  0  0  0  0  0  0
   -8.2380   19.2050  -32.4020 C   0  0  0  0  0  0  0  0  0  0  0  0
   -9.0940   18.3470  -32.0620 O   0  0  0  0  0  0  0  0  0  0  0  0
   -6.9350   18.7750  -32.8260 N   0  0  0  0  0  0  0  0  0  0  0  0
   -6.2910   19.1720  -34.0710 C   0  0  0  0  0  0  0  0  0  0  0  0
   -4.9630   18.3800  -34.1220 C   0  0  0  0  0  0  0  0  0  0  0  0
   -4.9740   17.4760  -32.9770 N   0  0  0  0  0  0  0  0  0  0  0  0
   -6.1520   17.7470  -32.2510 C   0  0  0  0  0  0  0  0  0  0  0  0
   -6.4900   17.0960  -31.2290 O   0  0  0  0  0  0  0  0  0  0  0  0
   -8.0010   22.0170  -30.4360 C   0  0  0  0  0  0  0  0  0  0  0  0
   -7.2390   23.0340  -29.8540 C   0  0  0  0  0  0  0  0  0  0  0  0
   -3.9660   26.2090  -31.2140 H   0  0  0  0  0  0  0  0  0  0  0  0
   -5.2541   23.8291  -32.5218 H   0  0  0  0  0  0  0  0  0  0  0  0
   -6.6233   22.0246  -33.5660 H   0  0  0  0  0  0  0  0  0  0  0  0
   -6.9258   18.9135  -34.9313 H   0  0  0  0  0  0  0  0  0  0  0  0
   -6.1198   20.2578  -34.1131 H   0  0  0  0  0  0  0  0  0  0  0  0
   -4.8988   17.8062  -35.0583 H   0  0  0  0  0  0  0  0  0  0  0  0
   -4.0958   19.0558  -34.0862 H   0  0  0  0  0  0  0  0  0  0  0  0
   -8.7841   21.5161  -29.8479 H   0  0  0  0  0  0  0  0  0  0  0  0
   -7.4158   23.3197  -28.8066 H   0  0  0  0  0  0  0  0  0  0  0  0
  1  2  1  0
  2  3  2  0
  2  4  2  0
  2  5  1  0
  5  6  2  0
  6  7  1  0
  7  8  2  0
  8  9  1  0
  9 10  1  0
 10 11  2  0
 10 12  1  0
 12 13  1  0
 13 14  1  0
 14 15  1  0
 15 16  1  0
 16 17  2  0
  8 18  1  0
 18 19  2  0
 19  5  1  0
 16 12  1  0
  1 20  1  0
  6 21  1  0
  7 22  1  0
 13 23  1  0
 13 24  1  0
 14 25  1  0
 14 26  1  0
 18 27  1  0
 19 28  1  0
M  CHG  3   1  -1   9  -1  15  -1
M  END
>  <UniqueID>  (17) 
17

>  <SMILES>  (17) 
[NH-]S(=O)(=O)c1ccc([N-]C(=O)N2CC[N-]C2=O)cc1

>  <Energy>  (17) 
46.70913502384

>  <Genealogy>  (17) 
[NH-]S(=O)(=O)c1ccc([N-]C(=O)N2CC[N-]C2=O)cc1 (protonated)
[NH-]S(=O)(=O)c1ccc([N-]C(=O)N2CC[N-]C2=O)cc1 (3D coordinates assigned)
[NH-]S(=O)(=O)c1ccc([N-]C(=O)N2CC[N-]C2=O)cc1 (nonaromatic ring conformer: 46.70913502384 kcal/mol)

>  <smiles>  (17) 
NS(=O)(=O)c1ccc(NC(=O)N2CCNC2=O)cc1

>  <score_type>  (17) 
oracle

>  <origin>  (17) 
adgpu

>  <m_score__min__energy>  (17) 
-9.5999999999999996

>  <m_primary>  (17) 
energy

$$$$
17:0
     RDKit          3D

 54 58  0  0  0  0  0  0  0  0999 V2000
   -5.3360   26.3980  -30.4660 O   0  0  0  0  0  0  0  0  0  0  0  0
   -5.0340   25.1810  -30.5820 C   0  0  0  0  0  0  0  0  0  0  0  0
   -3.6550   24.8010  -30.4590 N   0  0  0  0  0  0  0  0  0  0  0  0
   -3.0900   23.5050  -30.7190 C   0  0  0  0  0  0  0  0  0  0  0  0
   -1.9790   23.0940  -29.9810 C   0  0  0  0  0  0  0  0  0  0  0  0
   -1.3950   21.8490  -30.2170 C   0  0  0  0  0  0  0  0  0  0  0  0
   -1.9200   20.9850  -31.1950 C   0  0  0  0  0  0  0  0  0  0  0  0
   -1.3160   19.7450  -31.4600 O   0  0  0  0  0  0  0  0  0  0  0  0
   -0.8100   19.3340  -32.7020 C   0  0  0  0  0  0  0  0  0  0  0  0
   -0.1120   20.2140  -33.5480 C   0  0  0  0  0  0  0  0  0  0  0  0
    0.3950   19.7600  -34.7700 C   0  0  0  0  0  0  0  0  0  0  0  0
    0.2170   18.4260  -35.1490 C   0  0  0  0  0  0  0  0  0  0  0  0
    0.7240   17.9810  -36.3280 F   0  0  0  0  0  0  0  0  0  0  0  0
   -0.4630   17.5430  -34.3040 C   0  0  0  0  0  0  0  0  0  0  0  0
   -0.9680   17.9960  -33.0820 C   0  0  0  0  0  0  0  0  0  0  0  0
   -3.0260   21.4030  -31.9670 C   0  0  0  0  0  0  0  0  0  0  0  0
   -3.6460   20.5080  -32.9800 C   0  0  0  0  0  0  0  0  0  0  0  0
   -3.1390   20.4170  -34.1320 O   0  0  0  0  0  0  0  0  0  0  0  0
   -4.7560   19.6610  -32.6470 N   0  0  0  0  0  0  0  0  0  0  0  0
   -5.8830   20.0930  -31.8190 C   0  0  0  0  0  0  0  0  0  0  0  0
   -6.9620   18.9910  -31.9570 C   0  0  0  0  0  0  0  0  0  0  0  0
   -6.3190   17.9870  -32.8510 C   0  0  0  0  0  0  0  0  0  0  0  0
   -6.8400   16.7710  -33.2970 C   0  0  0  0  0  0  0  0  0  0  0  0
   -6.0480   15.9680  -34.1350 C   0  0  0  0  0  0  0  0  0  0  0  0
   -4.7560   16.3910  -34.5060 C   0  0  0  0  0  0  0  0  0  0  0  0
   -4.2520   17.6160  -34.0410 C   0  0  0  0  0  0  0  0  0  0  0  0
   -5.0680   18.4020  -33.2210 C   0  0  0  0  0  0  0  0  0  0  0  0
   -3.5880   22.6690  -31.7300 C   0  0  0  0  0  0  0  0  0  0  0  0
   -6.1100   24.1890  -30.8110 C   0  0  0  0  0  0  0  0  0  0  0  0
   -6.6290   23.4290  -29.7470 C   0  0  0  0  0  0  0  0  0  0  0  0
   -7.6100   22.4610  -29.9850 C   0  0  0  0  0  0  0  0  0  0  0  0
   -8.0870   22.2490  -31.2800 C   0  0  0  0  0  0  0  0  0  0  0  0
   -7.5900   23.0100  -32.3410 C   0  0  0  0  0  0  0  0  0  0  0  0
   -6.6110   23.9800  -32.1090 C   0  0  0  0  0  0  0  0  0  0  0  0
   -1.5610   23.7559  -29.2082 H   0  0  0  0  0  0  0  0  0  0  0  0
   -0.5157   21.5402  -29.6327 H   0  0  0  0  0  0  0  0  0  0  0  0
    0.0357   21.2620  -33.2481 H   0  0  0  0  0  0  0  0  0  0  0  0
    0.9339   20.4527  -35.4331 H   0  0  0  0  0  0  0  0  0  0  0  0
   -0.6003   16.4928  -34.6009 H   0  0  0  0  0  0  0  0  0  0  0  0
   -1.4929   17.2967  -32.4146 H   0  0  0  0  0  0  0  0  0  0  0  0
   -5.5700   20.1919  -30.7691 H   0  0  0  0  0  0  0  0  0  0  0  0
   -6.2655   21.0734  -32.1393 H   0  0  0  0  0  0  0  0  0  0  0  0
   -7.2015   18.5500  -30.9781 H   0  0  0  0  0  0  0  0  0  0  0  0
   -7.9150   19.3709  -32.3538 H   0  0  0  0  0  0  0  0  0  0  0  0
   -7.8485   16.4486  -32.9989 H   0  0  0  0  0  0  0  0  0  0  0  0
   -6.4374   15.0070  -34.5023 H   0  0  0  0  0  0  0  0  0  0  0  0
   -4.1400   15.7589  -35.1625 H   0  0  0  0  0  0  0  0  0  0  0  0
   -3.2402   17.9495  -34.3149 H   0  0  0  0  0  0  0  0  0  0  0  0
   -4.4322   23.0102  -32.3472 H   0  0  0  0  0  0  0  0  0  0  0  0
   -6.2618   23.5968  -28.7238 H   0  0  0  0  0  0  0  0  0  0  0  0
   -8.0068   21.8652  -29.1498 H   0  0  0  0  0  0  0  0  0  0  0  0
   -8.8542   21.4827  -31.4649 H   0  0  0  0  0  0  0  0  0  0  0  0
   -7.9697   22.8455  -33.3602 H   0  0  0  0  0  0  0  0  0  0  0  0
   -6.2300   24.5835  -32.9460 H   0  0  0  0  0  0  0  0  0  0  0  0
  1  2  2  0
  2  3  1  0
  3  4  1  0
  4  5  2  0
  5  6  1  0
  6  7  2  0
  7  8  1  0
  8  9  1  0
  9 10  2  0
 10 11  1  0
 11 12  2  0
 12 13  1  0
 12 14  1  0
 14 15  2  0
  7 16  1  0
 16 17  1  0
 17 18  2  0
 17 19  1  0
 19 20  1  0
 20 21  1  0
 21 22  1  0
 22 23  2  0
 23 24  1  0
 24 25  2  0
 25 26  1  0
 26 27  2  0
 16 28  2  0
  2 29  1  0
 29 30  2  0
 30 31  1  0
 31 32  2  0
 32 33  1  0
 33 34  2  0
 28  4  1  0
 34 29  1  0
 15  9  1  0
 27 19  1  0
 27 22  1  0
  5 35  1  0
  6 36  1  0
 10 37  1  0
 11 38  1  0
 14 39  1  0
 15 40  1  0
 20 41  1  0
 20 42  1  0
 21 43  1  0
 21 44  1  0
 23 45  1  0
 24 46  1  0
 25 47  1  0
 26 48  1  0
 28 49  1  0
 30 50  1  0
 31 51  1  0
 32 52  1  0
 33 53  1  0
 34 54  1  0
M  CHG  1   3  -1
M  END
>  <UniqueID>  (18) 
18

>  <SMILES>  (18) 
O=C([N-]c1ccc(Oc2ccc(F)cc2)c(C(=O)N2CCc3ccccc32)c1)c1ccccc1

>  <Energy>  (18) 
93.25146477244643

>  <Genealogy>  (18) 
O=C([N-]c1ccc(Oc2ccc(F)cc2)c(C(=O)N2CCc3ccccc32)c1)c1ccccc1 (protonated)
O=C([N-]c1ccc(Oc2ccc(F)cc2)c(C(=O)N2CCc3ccccc32)c1)c1ccccc1 (3D coordinates assigned)
O=C([N-]c1ccc(Oc2ccc(F)cc2)c(C(=O)N2CCc3ccccc32)c1)c1ccccc1 (nonaromatic ring conformer: 93.25146477244643 kcal/mol)

>  <smiles>  (18) 
O=C(Nc1ccc(Oc2ccc(F)cc2)c(C(=O)N2CCc3ccccc32)c1)c1ccccc1

>  <score_type>  (18) 
oracle

>  <origin>  (18) 
adgpu

>  <m_score__min__energy>  (18) 
-11.58

>  <m_primary>  (18) 
energy

$$$$
18:0
     RDKit          3D

 37 39  0  0  0  0  0  0  0  0999 V2000
   -0.1480   25.2680  -28.1000 O   0  0  0  0  0  0  0  0  0  0  0  0
   -1.1400   24.6490  -28.5620 C   0  0  0  0  0  0  0  0  0  0  0  0
   -1.3100   23.3330  -28.2800 N   0  0  0  0  0  0  0  0  0  0  0  0
   -2.3750   22.6450  -28.7680 C   0  0  0  0  0  0  0  0  0  0  0  0
   -3.3210   23.2890  -29.5760 C   0  0  0  0  0  0  0  0  0  0  0  0
   -4.4950   22.5140  -30.1210 C   0  0  0  0  0  0  0  0  0  0  0  0
   -5.6640   23.4060  -30.2940 N   0  0  0  0  0  0  0  0  0  0  0  0
   -6.9080   22.8290  -29.7150 C   0  0  0  0  0  0  0  0  0  0  0  0
   -7.8430   22.1870  -30.7590 C   0  0  0  0  0  0  0  0  0  0  0  0
   -7.0710   21.6930  -31.9020 N   0  0  0  0  0  0  0  0  0  0  0  0
   -7.1380   20.3130  -32.3110 C   0  0  0  0  0  0  0  0  0  0  0  0
   -6.2280   19.8060  -33.2550 C   0  0  0  0  0  0  0  0  0  0  0  0
   -6.2820   18.4620  -33.6400 C   0  0  0  0  0  0  0  0  0  0  0  0
   -7.2380   17.6110  -33.0780 C   0  0  0  0  0  0  0  0  0  0  0  0
   -7.2880   16.3090  -33.4510 F   0  0  0  0  0  0  0  0  0  0  0  0
   -8.1390   18.1030  -32.1300 C   0  0  0  0  0  0  0  0  0  0  0  0
   -8.0900   19.4460  -31.7450 C   0  0  0  0  0  0  0  0  0  0  0  0
   -6.1890   22.6300  -32.6070 C   0  0  0  0  0  0  0  0  0  0  0  0
   -5.8360   23.8240  -31.7020 C   0  0  0  0  0  0  0  0  0  0  0  0
   -3.1220   24.6550  -29.8570 C   0  0  0  0  0  0  0  0  0  0  0  0
   -3.9340   25.2920  -30.5780 O   0  0  0  0  0  0  0  0  0  0  0  0
   -2.0410   25.2990  -29.3440 N   0  0  0  0  0  0  0  0  0  0  0  0
   -2.4949   21.5783  -28.5278 H   0  0  0  0  0  0  0  0  0  0  0  0
   -4.2228   22.0797  -31.0943 H   0  0  0  0  0  0  0  0  0  0  0  0
   -4.7565   21.7150  -29.4117 H   0  0  0  0  0  0  0  0  0  0  0  0
   -6.6244   22.0581  -28.9834 H   0  0  0  0  0  0  0  0  0  0  0  0
   -7.4633   23.6611  -29.2576 H   0  0  0  0  0  0  0  0  0  0  0  0
   -8.3814   21.3473  -30.2954 H   0  0  0  0  0  0  0  0  0  0  0  0
   -8.5571   22.9455  -31.1122 H   0  0  0  0  0  0  0  0  0  0  0  0
   -5.4687   20.4701  -33.6937 H   0  0  0  0  0  0  0  0  0  0  0  0
   -5.5717   18.0748  -34.3854 H   0  0  0  0  0  0  0  0  0  0  0  0
   -8.8887   17.4319  -31.6856 H   0  0  0  0  0  0  0  0  0  0  0  0
   -8.7996   19.8266  -30.9956 H   0  0  0  0  0  0  0  0  0  0  0  0
   -5.2643   22.1089  -32.8957 H   0  0  0  0  0  0  0  0  0  0  0  0
   -6.7093   23.0035  -33.5013 H   0  0  0  0  0  0  0  0  0  0  0  0
   -4.8985   24.2767  -32.0573 H   0  0  0  0  0  0  0  0  0  0  0  0
   -6.6631   24.5477  -31.7481 H   0  0  0  0  0  0  0  0  0  0  0  0
  1  2  2  0
  2  3  1  0
  3  4  1  0
  4  5  2  0
  5  6  1  0
  6  7  1  0
  7  8  1  0
  8  9  1  0
  9 10  1  0
 10 11  1  0
 11 12  2  0
 12 13  1  0
 13 14  2  0
 14 15  1  0
 14 16  1  0
 16 17  2  0
 10 18  1  0
 18 19  1  0
  5 20  1  0
 20 21  2  0
 20 22  1  0
 22  2  1  0
 19  7  1  0
 17 11  1  0
  4 23  1  0
  6 24  1  0
  6 25  1  0
  8 26  1  0
  8 27  1  0
  9 28  1  0
  9 29  1  0
 12 30  1  0
 13 31  1  0
 16 32  1  0
 17 33  1  0
 18 34  1  0
 18 35  1  0
 19 36  1  0
 19 37  1  0
M  CHG  2   3  -1  22  -1
M  END
>  <UniqueID>  (19) 
19

>  <SMILES>  (19) 
O=c1[n-]cc(CN2CCN(c3ccc(F)cc3)CC2)c(=O)[n-]1

>  <Energy>  (19) 
52.6155965079455

>  <Genealogy>  (19) 
O=c1[n-]cc(CN2CCN(c3ccc(F)cc3)CC2)c(=O)[n-]1 (protonated)
O=c1[n-]cc(CN2CCN(c3ccc(F)cc3)CC2)c(=O)[n-]1 (3D coordinates assigned)
O=c1[n-]cc(CN2CCN(c3ccc(F)cc3)CC2)c(=O)[n-]1 (nonaromatic ring conformer: 52.6155965079455 kcal/mol)

>  <smiles>  (19) 
O=c1[nH]cc(CN2CCN(c3ccc(F)cc3)CC2)c(=O)[nH]1

>  <score_type>  (19) 
oracle

>  <origin>  (19) 
adgpu

>  <m_score__min__energy>  (19) 
-10.5

>  <m_primary>  (19) 
energy

$$$$
19:0
     RDKit          3D

 38 40  0  0  0  0  0  0  0  0999 V2000
   -1.7320   25.2910  -29.3310 O   0  0  0  0  0  0  0  0  0  0  0  0
   -2.7760   24.2330  -29.5570 S   0  0  0  0  0  0  0  0  0  0  0  0
   -3.2460   23.7130  -28.2270 O   0  0  0  0  0  0  0  0  0  0  0  0
   -4.1250   24.9440  -30.3860 N   0  0  0  0  0  0  0  0  0  0  0  0
   -5.3380   24.2630  -30.7380 C   0  0  0  0  0  0  0  0  0  0  0  0
   -6.0910   23.6670  -29.7160 C   0  0  0  0  0  0  0  0  0  0  0  0
   -7.2640   22.9680  -30.0170 C   0  0  0  0  0  0  0  0  0  0  0  0
   -7.6960   22.8630  -31.3410 C   0  0  0  0  0  0  0  0  0  0  0  0
   -8.8290   22.1760  -31.6310 F   0  0  0  0  0  0  0  0  0  0  0  0
   -6.9560   23.4580  -32.3660 C   0  0  0  0  0  0  0  0  0  0  0  0
   -5.7820   24.1590  -32.0700 C   0  0  0  0  0  0  0  0  0  0  0  0
   -2.1040   22.8910  -30.4840 C   0  0  0  0  0  0  0  0  0  0  0  0
   -2.7950   22.3880  -31.5960 C   0  0  0  0  0  0  0  0  0  0  0  0
   -2.2650   21.3220  -32.3440 C   0  0  0  0  0  0  0  0  0  0  0  0
   -2.9390   20.8250  -33.5130 N   0  0  0  0  0  0  0  0  0  0  0  0
   -4.1070   19.9860  -33.4800 C   0  0  0  0  0  0  0  0  0  0  0  0
   -5.3230   20.5150  -33.0200 C   0  0  0  0  0  0  0  0  0  0  0  0
   -6.4780   19.7260  -33.0050 C   0  0  0  0  0  0  0  0  0  0  0  0
   -6.4300   18.4060  -33.4660 C   0  0  0  0  0  0  0  0  0  0  0  0
   -7.5510   17.6430  -33.4550 F   0  0  0  0  0  0  0  0  0  0  0  0
   -5.2290   17.8780  -33.9450 C   0  0  0  0  0  0  0  0  0  0  0  0
   -4.0730   18.6640  -33.9600 C   0  0  0  0  0  0  0  0  0  0  0  0
   -1.0240   20.7800  -31.9800 C   0  0  0  0  0  0  0  0  0  0  0  0
   -0.3410   21.2670  -30.8640 C   0  0  0  0  0  0  0  0  0  0  0  0
   -0.8770   22.3160  -30.1140 C   0  0  0  0  0  0  0  0  0  0  0  0
   -0.1990   22.7690  -29.0290 F   0  0  0  0  0  0  0  0  0  0  0  0
   -5.7568   23.7499  -28.6713 H   0  0  0  0  0  0  0  0  0  0  0  0
   -7.8472   22.5003  -29.2101 H   0  0  0  0  0  0  0  0  0  0  0  0
   -7.2974   23.3750  -33.4084 H   0  0  0  0  0  0  0  0  0  0  0  0
   -5.2048   24.6298  -32.8794 H   0  0  0  0  0  0  0  0  0  0  0  0
   -3.7594   22.8311  -31.8853 H   0  0  0  0  0  0  0  0  0  0  0  0
   -2.5520   21.0880  -34.4470 H   0  0  0  0  0  0  0  0  0  0  0  0
   -5.3680   21.5566  -32.6691 H   0  0  0  0  0  0  0  0  0  0  0  0
   -7.4243   20.1436  -32.6306 H   0  0  0  0  0  0  0  0  0  0  0  0
   -5.1926   16.8414  -34.3113 H   0  0  0  0  0  0  0  0  0  0  0  0
   -3.1324   18.2469  -34.3489 H   0  0  0  0  0  0  0  0  0  0  0  0
   -0.5862   19.9665  -32.5771 H   0  0  0  0  0  0  0  0  0  0  0  0
    0.6228   20.8228  -30.5744 H   0  0  0  0  0  0  0  0  0  0  0  0
  1  2  2  0
  2  3  2  0
  2  4  1  0
  4  5  1  0
  5  6  2  0
  6  7  1  0
  7  8  2  0
  8  9  1  0
  8 10  1  0
 10 11  2  0
  2 12  1  0
 12 13  2  0
 13 14  1  0
 14 15  1  0
 15 16  1  0
 16 17  2  0
 17 18  1  0
 18 19  2  0
 19 20  1  0
 19 21  1  0
 21 22  2  0
 14 23  2  0
 23 24  1  0
 24 25  2  0
 25 26  1  0
 11  5  1  0
 25 12  1  0
 22 16  1  0
  6 27  1  0
  7 28  1  0
 10 29  1  0
 11 30  1  0
 13 31  1  0
 15 32  1  0
 17 33  1  0
 18 34  1  0
 21 35  1  0
 22 36  1  0
 23 37  1  0
 24 38  1  0
M  CHG  1   4  -1
M  END
>  <UniqueID>  (20) 
20

>  <SMILES>  (20) 
O=S(=O)([N-]c1ccc(F)cc1)c1cc(Nc2ccc(F)cc2)ccc1F

>  <Energy>  (20) 
49.448626788830026

>  <Genealogy>  (20) 
O=S(=O)([N-]c1ccc(F)cc1)c1cc(Nc2ccc(F)cc2)ccc1F (protonated)
O=S(=O)([N-]c1ccc(F)cc1)c1cc(Nc2ccc(F)cc2)ccc1F (3D coordinates assigned)
O=S(=O)([N-]c1ccc(F)cc1)c1cc(Nc2ccc(F)cc2)ccc1F (optimized conformer: 49.448626788830026 kcal/mol)

>  <smiles>  (20) 
O=S(=O)(Nc1ccc(F)cc1)c1cc(Nc2ccc(F)cc2)ccc1F

>  <score_type>  (20) 
oracle

>  <origin>  (20) 
adgpu

>  <m_score__min__energy>  (20) 
-10.33

>  <m_primary>  (20) 
energy

$$$$
20:0
     RDKit          3D

 45 47  0  0  0  0  0  0  0  0999 V2000
   -4.5144   21.6737  -34.2440 H   0  0  0  0  0  0  0  0  0  0  0  0
   -3.7860   21.5380  -33.4310 C   0  0  0  0  0  0  0  0  0  0  0  0
   -3.8420   22.3320  -32.3280 N   0  0  0  0  0  0  0  0  0  0  0  0
   -2.9580   22.1980  -31.2970 C   0  0  0  0  0  0  0  0  0  0  0  0
   -3.0390   22.9590  -30.2470 N   0  0  0  0  0  0  0  0  0  0  0  0
   -4.2520   24.1830  -30.0340 S   0  0  0  0  0  0  0  0  0  0  0  0
   -4.3410   24.5500  -28.5800 O   0  0  0  0  0  0  0  0  0  0  0  0
   -3.8650   25.4000  -30.8270 O   0  0  0  0  0  0  0  0  0  0  0  0
   -5.8110   23.5610  -30.5660 C   0  0  0  0  0  0  0  0  0  0  0  0
   -6.3030   23.8550  -31.8450 C   0  0  0  0  0  0  0  0  0  0  0  0
   -5.7505   24.5440  -32.5008 H   0  0  0  0  0  0  0  0  0  0  0  0
   -7.4950   23.2740  -32.2890 C   0  0  0  0  0  0  0  0  0  0  0  0
   -7.8872   23.5220  -33.2863 H   0  0  0  0  0  0  0  0  0  0  0  0
   -8.1910   22.3780  -31.4690 C   0  0  0  0  0  0  0  0  0  0  0  0
   -9.3870   21.7560  -31.9630 N   0  0  0  0  0  0  0  0  0  0  0  0
   -9.4670   20.5590  -32.4110 N   0  0  0  0  0  0  0  0  0  0  0  0
   -8.3550   19.6790  -32.6470 C   0  0  0  0  0  0  0  0  0  0  0  0
   -8.3820   18.3890  -32.1150 C   0  0  0  0  0  0  0  0  0  0  0  0
   -9.2476   18.0622  -31.5201 H   0  0  0  0  0  0  0  0  0  0  0  0
   -7.3180   17.5090  -32.3320 C   0  0  0  0  0  0  0  0  0  0  0  0
   -7.3494   16.5012  -31.8924 H   0  0  0  0  0  0  0  0  0  0  0  0
   -6.2030   17.8960  -33.1080 C   0  0  0  0  0  0  0  0  0  0  0  0
   -5.0850   16.9900  -33.3200 N   0  0  0  0  0  0  0  0  0  0  0  0
   -4.9480   15.7680  -32.5160 C   0  0  0  0  0  0  0  0  0  0  0  0
   -4.9770   16.0270  -31.4473 H   0  0  0  0  0  0  0  0  0  0  0  0
   -5.7747   15.0809  -32.7493 H   0  0  0  0  0  0  0  0  0  0  0  0
   -3.9896   15.2811  -32.7493 H   0  0  0  0  0  0  0  0  0  0  0  0
   -4.0800   17.2710  -34.3530 C   0  0  0  0  0  0  0  0  0  0  0  0
   -3.1264   17.5376  -33.8739 H   0  0  0  0  0  0  0  0  0  0  0  0
   -3.9385   16.3780  -34.9795 H   0  0  0  0  0  0  0  0  0  0  0  0
   -4.4222   18.1079  -34.9795 H   0  0  0  0  0  0  0  0  0  0  0  0
   -6.2100   19.1890  -33.6780 C   0  0  0  0  0  0  0  0  0  0  0  0
   -5.3633   19.5117  -34.3017 H   0  0  0  0  0  0  0  0  0  0  0  0
   -7.2780   20.0630  -33.4600 C   0  0  0  0  0  0  0  0  0  0  0  0
   -7.2744   21.0582  -33.9286 H   0  0  0  0  0  0  0  0  0  0  0  0
   -7.7300   22.1350  -30.1640 C   0  0  0  0  0  0  0  0  0  0  0  0
   -8.3084   21.4859  -29.4901 H   0  0  0  0  0  0  0  0  0  0  0  0
   -6.5400   22.7150  -29.7200 C   0  0  0  0  0  0  0  0  0  0  0  0
   -6.1741   22.5072  -28.7037 H   0  0  0  0  0  0  0  0  0  0  0  0
   -1.9590   21.2210  -31.3670 C   0  0  0  0  0  0  0  0  0  0  0  0
   -1.2368   21.1058  -30.5453 H   0  0  0  0  0  0  0  0  0  0  0  0
   -1.8870   20.3930  -32.4900 C   0  0  0  0  0  0  0  0  0  0  0  0
   -1.1091   19.6179  -32.5540 H   0  0  0  0  0  0  0  0  0  0  0  0
   -2.8040   20.5510  -33.5310 C   0  0  0  0  0  0  0  0  0  0  0  0
   -2.7532   19.9050  -34.4199 H   0  0  0  0  0  0  0  0  0  0  0  0
  1  2  1  0
  2  3  1  0
  3  4  1  0
  4  5  2  0
  5  6  1  0
  6  7  2  0
  6  8  2  0
  6  9  1  0
  9 10  2  0
 10 11  1  0
 10 12  1  0
 12 13  1  0
 12 14  2  0
 14 15  1  0
 15 16  2  3
 16 17  1  0
 17 18  2  0
 18 19  1  0
 18 20  1  0
 20 21  1  0
 20 22  2  0
 22 23  1  0
 23 24  1  0
 24 25  1  0
 24 26  1  0
 24 27  1  0
 23 28  1  0
 28 29  1  0
 28 30  1  0
 28 31  1  0
 22 32  1  0
 32 33  1  0
 32 34  2  0
 34 35  1  0
 14 36  1  0
 36 37  1  0
 36 38  2  0
 38 39  1  0
  4 40  1  0
 40 41  1  0
 40 42  2  0
 42 43  1  0
 42 44  1  0
 44 45  1  0
 44  2  2  0
 38  9  1  0
 34 17  1  0
M  CHG  1   3  -1
M  END
>  <UniqueID>  (21) 
21

>  <SMILES>  (21) 
CN(C)c1ccc(N=Nc2ccc(S(=O)(=O)/N=c3/cccc[n-]3)cc2)cc1

>  <Energy>  (21) 
63.26567865895508

>  <Genealogy>  (21) 
CN(C)c1ccc(N=Nc2ccc(S(=O)(=O)N=c3cccc[n-]3)cc2)cc1 (protonated)
CN(C)c1ccc(N=Nc2ccc(S(=O)(=O)/N=c3/cccc[n-]3)cc2)cc1 (cis-trans isomerization)
CN(C)c1ccc(N=Nc2ccc(S(=O)(=O)/N=c3/cccc[n-]3)cc2)cc1 (3D coordinates assigned)
CN(C)c1ccc(N=Nc2ccc(S(=O)(=O)/N=c3/cccc[n-]3)cc2)cc1 (optimized conformer: 63.26567865895508 kcal/mol)

>  <smiles>  (21) 
CN(C)c1ccc(N=Nc2ccc(S(=O)(=O)N=c3cccc[nH]3)cc2)cc1

>  <score_type>  (21) 
oracle

>  <origin>  (21) 
adgpu

>  <m_score__min__energy>  (21) 
-11.94

>  <m_primary>  (21) 
energy

$$$$
21:0
     RDKit          3D

 61 66  0  0  0  0  0  0  0  0999 V2000
   -2.5130   14.6750  -35.5990 C   0  0  0  0  0  0  0  0  0  0  0  0
   -1.3080   15.3650  -35.7220 C   0  0  0  0  0  0  0  0  0  0  0  0
   -1.1870   16.6610  -35.2140 C   0  0  0  0  0  0  0  0  0  0  0  0
   -2.2720   17.2850  -34.5720 C   0  0  0  0  0  0  0  0  0  0  0  0
   -2.0610   18.6250  -33.9710 C   0  0  0  0  0  0  0  0  0  0  0  0
   -1.3570   19.6230  -34.5410 N   0  0  0  0  0  0  0  0  0  0  0  0
   -1.4740   20.6420  -33.7040 N   0  0  0  0  0  0  0  0  0  0  0  0
   -2.2210   20.2880  -32.6710 N   0  0  0  0  0  0  0  0  0  0  0  0
   -2.6110   19.0310  -32.8110 N   0  0  0  0  0  0  0  0  0  0  0  0
   -3.5110   16.5930  -34.4810 C   0  0  0  0  0  0  0  0  0  0  0  0
   -4.7300   17.2210  -33.9230 C   0  0  0  0  0  0  0  0  0  0  0  0
   -5.2940   16.7390  -32.7310 C   0  0  0  0  0  0  0  0  0  0  0  0
   -6.4390   17.3400  -32.2000 C   0  0  0  0  0  0  0  0  0  0  0  0
   -7.0400   18.4250  -32.8570 C   0  0  0  0  0  0  0  0  0  0  0  0
   -8.2520   19.0930  -32.2600 C   0  0  0  0  0  0  0  0  0  0  0  0
   -7.8590   20.2900  -31.4880 N   0  0  0  0  0  0  0  0  0  0  0  0
   -6.3810   20.4440  -31.4000 C   0  0  0  0  0  0  0  0  0  0  0  0
   -5.8260   21.4580  -32.4110 C   0  0  0  0  0  0  0  0  0  0  0  0
   -6.4530   22.8560  -32.2120 C   0  0  0  0  0  0  0  0  0  0  0  0
   -5.5720   23.7010  -31.4020 N   0  0  0  0  0  0  0  0  0  0  0  0
   -4.8600   23.3160  -30.3280 C   0  0  0  0  0  0  0  0  0  0  0  0
   -4.2380   24.4510  -29.8500 C   0  0  0  0  0  0  0  0  0  0  0  0
   -3.2820   24.5450  -28.6860 C   0  0  1  0  0  0  0  0  0  0  0  0
   -2.8740   23.1710  -28.1730 C   0  0  0  0  0  0  0  0  0  0  0  0
   -1.6080   22.8950  -28.9220 C   0  0  0  0  0  0  0  0  0  0  0  0
   -1.0860   24.2830  -29.2530 C   0  0  0  0  0  0  0  0  0  0  0  0
   -2.1110   25.2350  -29.0720 O   0  0  0  0  0  0  0  0  0  0  0  0
   -4.5790   25.4840  -30.6480 N   0  0  0  0  0  0  0  0  0  0  0  0
   -5.3980   25.0020  -31.5730 N   0  0  0  0  0  0  0  0  0  0  0  0
   -7.8620   22.7850  -31.5830 C   0  0  0  0  0  0  0  0  0  0  0  0
   -8.5680   21.4900  -31.9950 C   0  0  0  0  0  0  0  0  0  0  0  0
   -6.4930   18.8890  -34.0630 C   0  0  0  0  0  0  0  0  0  0  0  0
   -5.3480   18.2870  -34.5950 C   0  0  0  0  0  0  0  0  0  0  0  0
   -3.6080   15.2840  -34.9860 C   0  0  0  0  0  0  0  0  0  0  0  0
   -2.6004   13.6490  -35.9858 H   0  0  0  0  0  0  0  0  0  0  0  0
   -0.4508   14.8883  -36.2199 H   0  0  0  0  0  0  0  0  0  0  0  0
   -0.2331   17.1991  -35.3172 H   0  0  0  0  0  0  0  0  0  0  0  0
   -4.8331   15.8851  -32.2129 H   0  0  0  0  0  0  0  0  0  0  0  0
   -6.8713   16.9606  -31.2623 H   0  0  0  0  0  0  0  0  0  0  0  0
   -8.9348   19.3926  -33.0688 H   0  0  0  0  0  0  0  0  0  0  0  0
   -8.7511   18.3832  -31.5839 H   0  0  0  0  0  0  0  0  0  0  0  0
   -6.1229   20.7822  -30.3856 H   0  0  0  0  0  0  0  0  0  0  0  0
   -5.9323   19.4667  -31.6315 H   0  0  0  0  0  0  0  0  0  0  0  0
   -4.7363   21.5330  -32.2807 H   0  0  0  0  0  0  0  0  0  0  0  0
   -6.0758   21.1083  -33.4236 H   0  0  0  0  0  0  0  0  0  0  0  0
   -6.5670   23.3049  -33.2097 H   0  0  0  0  0  0  0  0  0  0  0  0
   -4.7880   22.2996  -29.9136 H   0  0  0  0  0  0  0  0  0  0  0  0
   -3.8071   25.0850  -27.8843 H   0  0  0  0  0  0  0  0  0  0  0  0
   -2.6951   23.1911  -27.0878 H   0  0  0  0  0  0  0  0  0  0  0  0
   -3.6461   22.4031  -28.3284 H   0  0  0  0  0  0  0  0  0  0  0  0
   -0.8916   22.3441  -28.2949 H   0  0  0  0  0  0  0  0  0  0  0  0
   -1.7638   22.2704  -29.8140 H   0  0  0  0  0  0  0  0  0  0  0  0
   -0.2426   24.5238  -28.5891 H   0  0  0  0  0  0  0  0  0  0  0  0
   -0.7512   24.3047  -30.3006 H   0  0  0  0  0  0  0  0  0  0  0  0
   -7.7713   22.8151  -30.4872 H   0  0  0  0  0  0  0  0  0  0  0  0
   -8.4539   23.6416  -31.9379 H   0  0  0  0  0  0  0  0  0  0  0  0
   -9.5904   21.4973  -31.5891 H   0  0  0  0  0  0  0  0  0  0  0  0
   -8.5788   21.4415  -33.0939 H   0  0  0  0  0  0  0  0  0  0  0  0
   -6.9664   19.7293  -34.5920 H   0  0  0  0  0  0  0  0  0  0  0  0
   -4.9297   18.6510  -35.5450 H   0  0  0  0  0  0  0  0  0  0  0  0
   -4.5569   14.7349  -34.8967 H   0  0  0  0  0  0  0  0  0  0  0  0
  1  2  2  0
  2  3  1  0
  3  4  2  0
  4  5  1  0
  5  6  1  0
  6  7  2  0
  7  8  1  0
  8  9  1  0
  4 10  1  0
 10 11  1  0
 11 12  2  0
 12 13  1  0
 13 14  2  0
 14 15  1  0
 15 16  1  0
 16 17  1  0
 17 18  1  0
 18 19  1  0
 19 20  1  0
 20 21  1  0
 21 22  2  0
 22 23  1  0
 23 24  1  0
 24 25  1  0
 25 26  1  0
 26 27  1  0
 22 28  1  0
 28 29  2  0
 19 30  1  0
 30 31  1  0
 14 32  1  0
 32 33  2  0
 10 34  2  0
 34  1  1  0
  9  5  2  0
 33 11  1  0
 31 16  1  0
 29 20  1  0
 27 23  1  0
  1 35  1  0
  2 36  1  0
  3 37  1  0
 12 38  1  0
 13 39  1  0
 15 40  1  0
 15 41  1  0
 17 42  1  0
 17 43  1  0
 18 44  1  0
 18 45  1  0
 19 46  1  0
 21 47  1  0
 23 48  1  1
 24 49  1  0
 24 50  1  0
 25 51  1  0
 25 52  1  0
 26 53  1  0
 26 54  1  0
 30 55  1  0
 30 56  1  0
 31 57  1  0
 31 58  1  0
 32 59  1  0
 33 60  1  0
 34 61  1  0
M  CHG  1   8  -1
M  END
>  <UniqueID>  (22) 
22

>  <SMILES>  (22) 
c1ccc(-c2nn[n-]n2)c(-c2ccc(CN3CCC(n4cc([C@H]5CCCO5)nn4)CC3)cc2)c1

>  <Energy>  (22) 
158.90850488332413

>  <Genealogy>  (22) 
c1ccc(-c2nn[n-]n2)c(-c2ccc(CN3CCC(n4cc(C5CCCO5)nn4)CC3)cc2)c1 (protonated)
c1ccc(-c2nn[n-]n2)c(-c2ccc(CN3CCC(n4cc([C@H]5CCCO5)nn4)CC3)cc2)c1 (chirality)
c1ccc(-c2nn[n-]n2)c(-c2ccc(CN3CCC(n4cc([C@H]5CCCO5)nn4)CC3)cc2)c1 (3D coordinates assigned)
c1ccc(-c2nn[n-]n2)c(-c2ccc(CN3CCC(n4cc([C@H]5CCCO5)nn4)CC3)cc2)c1 (nonaromatic ring conformer: 158.90850488332413 kcal/mol)

>  <smiles>  (22) 
c1ccc(-c2nn[nH]n2)c(-c2ccc(CN3CCC(n4cc(C5CCCO5)nn4)CC3)cc2)c1

>  <score_type>  (22) 
oracle

>  <origin>  (22) 
adgpu

>  <m_score__min__energy>  (22) 
-11.91

>  <m_primary>  (22) 
energy

$$$$
22:0
     RDKit          3D

 41 44  0  0  0  0  0  0  0  0999 V2000
   -3.1620   24.7100  -28.9100 N   0  0  0  0  0  0  0  0  0  0  0  0
   -4.0800   24.4130  -29.7710 C   0  0  0  0  0  0  0  0  0  0  0  0
   -5.1600   25.1820  -29.9510 N   0  0  0  0  0  0  0  0  0  0  0  0
   -6.0970   24.8440  -30.8570 C   0  0  0  0  0  0  0  0  0  0  0  0
   -6.0210   23.7430  -31.6240 N   0  0  0  0  0  0  0  0  0  0  0  0
   -4.9520   22.9330  -31.4830 C   0  0  0  0  0  0  0  0  0  0  0  0
   -3.9890   23.2730  -30.5570 C   0  0  0  0  0  0  0  0  0  0  0  0
   -3.0560   22.3310  -30.6080 N   0  0  0  0  0  0  0  0  0  0  0  0
   -3.3630   21.3970  -31.5180 C   0  0  0  0  0  0  0  0  0  0  0  0
   -2.5160   19.9250  -32.0230 S   0  0  0  0  0  0  0  0  0  0  0  0
   -1.0070   20.2670  -32.8510 C   0  0  0  0  0  0  0  0  0  0  0  0
    0.2090   19.6810  -32.5920 C   0  0  0  0  0  0  0  0  0  0  0  0
    1.3670   19.9960  -33.2830 C   0  0  0  0  0  0  0  0  0  0  0  0
    1.3220   20.9400  -34.2830 C   0  0  0  0  0  0  0  0  0  0  0  0
    0.1200   21.5520  -34.5750 C   0  0  0  0  0  0  0  0  0  0  0  0
    0.0630   22.5310  -35.6080 N   0  0  0  0  0  0  0  0  0  0  0  0
   -1.0200   21.2200  -33.8710 C   0  0  0  0  0  0  0  0  0  0  0  0
   -4.5550   21.7790  -32.0660 N   0  0  0  0  0  0  0  0  0  0  0  0
   -5.3270   21.1230  -33.0930 C   0  0  0  0  0  0  0  0  0  0  0  0
   -6.4590   20.3240  -32.5730 C   0  0  0  0  0  0  0  0  0  0  0  0
   -6.4140   18.9580  -32.3920 C   0  0  0  0  0  0  0  0  0  0  0  0
   -7.5140   18.2770  -31.8990 C   0  0  0  0  0  0  0  0  0  0  0  0
   -8.6890   18.9340  -31.5730 C   0  0  0  0  0  0  0  0  0  0  0  0
   -8.7440   20.3080  -31.7520 C   0  0  0  0  0  0  0  0  0  0  0  0
   -7.6320   20.9710  -32.2460 C   0  0  0  0  0  0  0  0  0  0  0  0
   -3.3130   25.5890  -28.3590 H   0  0  0  0  0  0  0  0  0  0  0  0
   -5.2260   26.0440  -29.3550 H   0  0  0  0  0  0  0  0  0  0  0  0
   -6.9697   25.5030  -30.9755 H   0  0  0  0  0  0  0  0  0  0  0  0
    0.2652   18.9239  -31.7960 H   0  0  0  0  0  0  0  0  0  0  0  0
    2.3147   19.4958  -33.0346 H   0  0  0  0  0  0  0  0  0  0  0  0
    2.2319   21.2034  -34.8422 H   0  0  0  0  0  0  0  0  0  0  0  0
    0.9310   22.7480  -36.1580 H   0  0  0  0  0  0  0  0  0  0  0  0
   -0.8090   23.0330  -35.8310 H   0  0  0  0  0  0  0  0  0  0  0  0
   -1.9667   21.7212  -34.1211 H   0  0  0  0  0  0  0  0  0  0  0  0
   -5.7277   21.8921  -33.7697 H   0  0  0  0  0  0  0  0  0  0  0  0
   -4.6497   20.4229  -33.6039 H   0  0  0  0  0  0  0  0  0  0  0  0
   -5.4966   18.4046  -32.6413 H   0  0  0  0  0  0  0  0  0  0  0  0
   -7.4533   17.1871  -31.7628 H   0  0  0  0  0  0  0  0  0  0  0  0
   -9.5556   18.3805  -31.1824 H   0  0  0  0  0  0  0  0  0  0  0  0
   -9.6597   20.8651  -31.5047 H   0  0  0  0  0  0  0  0  0  0  0  0
   -7.6874   22.0610  -32.3833 H   0  0  0  0  0  0  0  0  0  0  0  0
  1  2  2  3
  2  3  1  0
  3  4  1  0
  4  5  2  0
  5  6  1  0
  6  7  2  0
  7  8  1  0
  8  9  2  0
  9 10  1  0
 10 11  1  0
 11 12  2  0
 12 13  1  0
 13 14  2  0
 14 15  1  0
 15 16  1  0
 15 17  2  0
  9 18  1  0
 18 19  1  0
 19 20  1  0
 20 21  2  0
 21 22  1  0
 22 23  2  0
 23 24  1  0
 24 25  2  0
  7  2  1  0
 17 11  1  0
 25 20  1  0
 18  6  1  0
  1 26  1  0
  3 27  1  0
  4 28  1  0
 12 29  1  0
 13 30  1  0
 14 31  1  0
 16 32  1  0
 16 33  1  0
 17 34  1  0
 19 35  1  0
 19 36  1  0
 21 37  1  0
 22 38  1  0
 23 39  1  0
 24 40  1  0
 25 41  1  0
M  END
>  <smiles>  (23) 
N=c1[nH]cnc2c1nc(Sc1cccc(N)c1)n2Cc1ccccc1

>  <score_type>  (23) 
oracle

>  <origin>  (23) 
adgpu

>  <m_score__min__energy>  (23) 
-8.3000000000000007

>  <m_primary>  (23) 
energy

$$$$
23:0
     RDKit          3D

 36 38  0  0  0  0  0  0  0  0999 V2000
   -5.0160   15.5070  -31.9340 C   0  0  0  0  0  0  0  0  0  0  0  0
   -5.1780   16.4560  -33.0930 C   0  0  0  0  0  0  0  0  0  0  0  0
   -4.3480   16.3000  -34.2170 C   0  0  0  0  0  0  0  0  0  0  0  0
   -4.4430   17.1760  -35.3000 C   0  0  0  0  0  0  0  0  0  0  0  0
   -5.3600   18.2240  -35.2720 C   0  0  0  0  0  0  0  0  0  0  0  0
   -6.1870   18.4010  -34.1620 C   0  0  0  0  0  0  0  0  0  0  0  0
   -6.1140   17.5250  -33.0630 C   0  0  0  0  0  0  0  0  0  0  0  0
   -7.0120   17.7830  -31.8720 C   0  0  0  0  0  0  0  0  0  0  0  0
   -7.4770   19.2160  -31.8430 C   0  0  0  0  0  0  0  0  0  0  0  0
   -8.8190   19.5240  -32.0920 C   0  0  0  0  0  0  0  0  0  0  0  0
   -9.2160   20.8580  -32.0590 C   0  0  0  0  0  0  0  0  0  0  0  0
  -10.4160   21.1680  -32.2740 O   0  0  0  0  0  0  0  0  0  0  0  0
   -8.3050   21.8280  -31.7950 N   0  0  0  0  0  0  0  0  0  0  0  0
   -6.9980   21.5280  -31.5580 C   0  0  0  0  0  0  0  0  0  0  0  0
   -6.0400   22.6270  -31.2840 C   0  0  0  0  0  0  0  0  0  0  0  0
   -6.4760   23.9560  -31.1360 C   0  0  0  0  0  0  0  0  0  0  0  0
   -5.5460   24.9640  -30.8690 C   0  0  0  0  0  0  0  0  0  0  0  0
   -4.2270   24.6610  -30.7450 N   0  0  0  0  0  0  0  0  0  0  0  0
   -3.7760   23.3850  -30.8710 C   0  0  0  0  0  0  0  0  0  0  0  0
   -4.6710   22.3460  -31.1370 C   0  0  0  0  0  0  0  0  0  0  0  0
   -6.5960   20.2220  -31.5690 N   0  0  0  0  0  0  0  0  0  0  0  0
   -5.1108   16.0624  -30.9893 H   0  0  0  0  0  0  0  0  0  0  0  0
   -5.7948   14.7317  -31.9833 H   0  0  0  0  0  0  0  0  0  0  0  0
   -4.0241   15.0340  -31.9833 H   0  0  0  0  0  0  0  0  0  0  0  0
   -3.6161   15.4792  -34.2434 H   0  0  0  0  0  0  0  0  0  0  0  0
   -3.7928   17.0383  -36.1765 H   0  0  0  0  0  0  0  0  0  0  0  0
   -5.4324   18.9132  -36.1262 H   0  0  0  0  0  0  0  0  0  0  0  0
   -6.9042   19.2349  -34.1459 H   0  0  0  0  0  0  0  0  0  0  0  0
   -7.8891   17.1220  -31.9336 H   0  0  0  0  0  0  0  0  0  0  0  0
   -6.4404   17.5827  -30.9538 H   0  0  0  0  0  0  0  0  0  0  0  0
   -9.5461   18.7277  -32.3096 H   0  0  0  0  0  0  0  0  0  0  0  0
   -7.5443   24.2007  -31.2300 H   0  0  0  0  0  0  0  0  0  0  0  0
   -5.8823   26.0055  -30.7589 H   0  0  0  0  0  0  0  0  0  0  0  0
   -2.7027   23.1698  -30.7631 H   0  0  0  0  0  0  0  0  0  0  0  0
   -4.3058   21.3126  -31.2310 H   0  0  0  0  0  0  0  0  0  0  0  0
   -5.6060   19.9790  -31.3410 H   0  0  0  0  0  0  0  0  0  0  0  0
  1  2  1  0
  2  3  2  0
  3  4  1  0
  4  5  2  0
  5  6  1  0
  6  7  2  0
  7  8  1  0
  8  9  1  0
  9 10  2  0
 10 11  1  0
 11 12  2  0
 11 13  1  0
 13 14  2  0
 14 15  1  0
 15 16  2  0
 16 17  1  0
 17 18  2  0
 18 19  1  0
 19 20  2  0
 14 21  1  0
  7  2  1  0
 21  9  1  0
 20 15  1  0
  1 22  1  0
  1 23  1  0
  1 24  1  0
  3 25  1  0
  4 26  1  0
  5 27  1  0
  6 28  1  0
  8 29  1  0
  8 30  1  0
 10 31  1  0
 16 32  1  0
 17 33  1  0
 19 34  1  0
 20 35  1  0
 21 36  1  0
M  END
>  <UniqueID>  (24) 
23

>  <SMILES>  (24) 
Cc1ccccc1Cc1cc(=O)nc(-c2ccncc2)[nH]1

>  <Energy>  (24) 
43.43338975890705

>  <Genealogy>  (24) 
Cc1ccccc1Cc1cc(=O)nc(-c2ccncc2)[nH]1 (3D coordinates assigned)
Cc1ccccc1Cc1cc(=O)nc(-c2ccncc2)[nH]1 (optimized conformer: 43.43338975890705 kcal/mol)

>  <smiles>  (24) 
Cc1ccccc1Cc1cc(=O)nc(-c2ccncc2)[nH]1

>  <score_type>  (24) 
oracle

>  <origin>  (24) 
adgpu

>  <m_score__min__energy>  (24) 
-7.8700000000000001

>  <m_primary>  (24) 
energy

$$$$
24:0
     RDKit          3D

 51 55  0  0  0  0  0  0  0  0999 V2000
   -0.0099   20.1978  -28.5902 H   0  0  0  0  0  0  0  0  0  0  0  0
   -0.3230   20.0790  -29.6380 C   0  0  0  0  0  0  0  0  0  0  0  0
   -0.7780   21.1810  -30.3760 C   0  0  0  0  0  0  0  0  0  0  0  0
   -0.8960   22.4850  -29.7900 N   0  0  0  0  0  0  0  0  0  0  0  0
   -1.8930   23.3120  -29.9190 C   0  0  0  0  0  0  0  0  0  0  0  0
   -1.9500   24.8400  -29.2730 S   0  0  0  0  0  0  0  0  0  0  0  0
   -3.4760   25.2920  -29.7490 N   0  0  0  0  0  0  0  0  0  0  0  0
   -3.9710   24.2250  -30.4330 C   0  0  0  0  0  0  0  0  0  0  0  0
   -5.3570   24.2330  -30.9890 C   0  0  0  0  0  0  0  0  0  0  0  0
   -6.0834   24.2372  -30.1630 H   0  0  0  0  0  0  0  0  0  0  0  0
   -5.4991   25.1320  -31.6068 H   0  0  0  0  0  0  0  0  0  0  0  0
   -5.5094   23.3357  -31.6068 H   0  0  0  0  0  0  0  0  0  0  0  0
   -3.1250   23.0970  -30.5290 C   0  0  0  0  0  0  0  0  0  0  0  0
   -3.4076   22.1583  -31.0279 H   0  0  0  0  0  0  0  0  0  0  0  0
   -1.2090   20.9950  -31.6510 N   0  0  0  0  0  0  0  0  0  0  0  0
   -1.1560   19.7740  -32.2420 C   0  0  0  0  0  0  0  0  0  0  0  0
   -1.7330   19.5660  -33.9210 S   0  0  0  0  0  0  0  0  0  0  0  0
   -3.4370   19.7830  -33.4280 C   0  0  0  0  0  0  0  0  0  0  0  0
   -4.3280   18.7640  -33.3680 N   0  0  0  0  0  0  0  0  0  0  0  0
   -5.5550   19.2210  -33.0080 C   0  0  0  0  0  0  0  0  0  0  0  0
   -6.6860   18.4170  -32.8650 C   0  0  0  0  0  0  0  0  0  0  0  0
   -6.6278   17.3321  -33.0368 H   0  0  0  0  0  0  0  0  0  0  0  0
   -7.9020   19.0200  -32.4970 C   0  0  0  0  0  0  0  0  0  0  0  0
   -8.8034   18.4017  -32.3738 H   0  0  0  0  0  0  0  0  0  0  0  0
   -7.9730   20.4120  -32.2850 C   0  0  0  0  0  0  0  0  0  0  0  0
   -8.9308   20.8745  -32.0044 H   0  0  0  0  0  0  0  0  0  0  0  0
   -6.8280   21.2110  -32.4300 C   0  0  0  0  0  0  0  0  0  0  0  0
   -6.8719   22.2976  -32.2647 H   0  0  0  0  0  0  0  0  0  0  0  0
   -5.6350   20.5890  -32.7890 C   0  0  0  0  0  0  0  0  0  0  0  0
   -4.1290   21.2810  -33.0520 S   0  0  0  0  0  0  0  0  0  0  0  0
   -0.6800   18.7060  -31.5530 N   0  0  0  0  0  0  0  0  0  0  0  0
   -0.2740   18.8210  -30.2600 C   0  0  0  0  0  0  0  0  0  0  0  0
    0.2530   17.6680  -29.5770 N   0  0  0  0  0  0  0  0  0  0  0  0
    0.3130   17.5840  -28.1120 C   0  0  0  0  0  0  0  0  0  0  0  0
    0.0845   18.5712  -27.6840 H   0  0  0  0  0  0  0  0  0  0  0  0
   -0.4220   16.8405  -27.7698 H   0  0  0  0  0  0  0  0  0  0  0  0
    1.7190   17.1430  -27.6480 C   0  0  0  0  0  0  0  0  0  0  0  0
    2.2869   18.0375  -27.3525 H   0  0  0  0  0  0  0  0  0  0  0  0
    1.5838   16.4454  -26.8083 H   0  0  0  0  0  0  0  0  0  0  0  0
    2.4820   16.4250  -28.7030 N   0  0  0  0  0  0  0  0  0  0  0  0
    2.9540   17.1350  -29.3150 H   0  0  0  0  0  0  0  0  0  0  0  0
    3.5420   15.5990  -28.0990 C   0  0  0  0  0  0  0  0  0  0  0  0
    3.4704   15.6548  -27.0027 H   0  0  0  0  0  0  0  0  0  0  0  0
    3.4214   14.5543  -28.4217 H   0  0  0  0  0  0  0  0  0  0  0  0
    4.5255   15.9712  -28.4217 H   0  0  0  0  0  0  0  0  0  0  0  0
    1.5980   15.5930  -29.5480 C   0  0  0  0  0  0  0  0  0  0  0  0
    2.2112   14.9949  -30.2382 H   0  0  0  0  0  0  0  0  0  0  0  0
    1.0046   14.9275  -28.9038 H   0  0  0  0  0  0  0  0  0  0  0  0
    0.6480   16.4900  -30.3580 C   0  0  0  0  0  0  0  0  0  0  0  0
    1.1575   16.8196  -31.2755 H   0  0  0  0  0  0  0  0  0  0  0  0
   -0.2547   15.9133  -30.6081 H   0  0  0  0  0  0  0  0  0  0  0  0
  1  2  1  0
  2  3  2  0
  3  4  1  0
  4  5  2  0
  5  6  1  0
  6  7  1  0
  7  8  1  0
  8  9  1  0
  9 10  1  0
  9 11  1  0
  9 12  1  0
  8 13  2  0
 13 14  1  0
  3 15  1  0
 15 16  2  0
 16 17  1  0
 17 18  1  0
 18 19  2  0
 19 20  1  0
 20 21  2  0
 21 22  1  0
 21 23  1  0
 23 24  1  0
 23 25  2  0
 25 26  1  0
 25 27  1  0
 27 28  1  0
 27 29  2  0
 29 30  1  0
 16 31  1  0
 31 32  2  0
 32 33  1  0
 33 34  1  0
 34 35  1  0
 34 36  1  0
 34 37  1  0
 37 38  1  0
 37 39  1  0
 37 40  1  0
 40 41  1  0
 40 42  1  0
 42 43  1  0
 42 44  1  0
 42 45  1  0
 40 46  1  0
 46 47  1  0
 46 48  1  0
 46 49  1  0
 49 50  1  0
 49 51  1  0
 32  2  1  0
 49 33  1  0
 13  5  1  0
 30 18  1  0
 29 20  1  0
M  CHG  2   7  -1  40   1
M  END
>  <UniqueID>  (25) 
24

>  <SMILES>  (25) 
Cc1c/c(=N\c2cc(N3CC[NH+](C)CC3)nc(Sc3nc4ccccc4s3)n2)s[n-]1

>  <Energy>  (25) 
134.9804080834877

>  <Genealogy>  (25) 
Cc1cc(=Nc2cc(N3CC[NH+](C)CC3)nc(Sc3nc4ccccc4s3)n2)s[n-]1 (protonated)
Cc1c/c(=N\c2cc(N3CC[NH+](C)CC3)nc(Sc3nc4ccccc4s3)n2)s[n-]1 (cis-trans isomerization)
Cc1c/c(=N\c2cc(N3CC[NH+](C)CC3)nc(Sc3nc4ccccc4s3)n2)s[n-]1 (3D coordinates assigned)
Cc1c/c(=N\c2cc(N3CC[NH+](C)CC3)nc(Sc3nc4ccccc4s3)n2)s[n-]1 (nonaromatic ring conformer: 134.9804080834877 kcal/mol)

>  <smiles>  (25) 
Cc1cc(=Nc2cc(N3CCN(C)CC3)nc(Sc3nc4ccccc4s3)n2)s[nH]1

>  <score_type>  (25) 
oracle

>  <origin>  (25) 
adgpu

>  <m_score__min__energy>  (25) 
-9.5199999999999996

>  <m_primary>  (25) 
energy

$$$$
25:0
     RDKit          3D

 45 47  0  0  0  0  0  0  0  0999 V2000
   -6.1250   25.2730  -29.7170 C   0  0  0  0  0  0  0  0  0  0  0  0
   -5.0380   24.8590  -30.6610 C   0  0  0  0  0  0  0  0  0  0  0  0
   -5.3530   24.3040  -31.7460 O   0  0  0  0  0  0  0  0  0  0  0  0
   -3.6480   25.0320  -30.3480 N   0  0  0  0  0  0  0  0  0  0  0  0
   -2.7390   24.0240  -29.8810 C   0  0  0  0  0  0  0  0  0  0  0  0
   -2.3870   24.0110  -28.5280 C   0  0  0  0  0  0  0  0  0  0  0  0
   -1.5240   23.0320  -28.0330 C   0  0  0  0  0  0  0  0  0  0  0  0
   -1.0160   22.0480  -28.8830 C   0  0  0  0  0  0  0  0  0  0  0  0
   -1.3790   22.0250  -30.2430 C   0  0  0  0  0  0  0  0  0  0  0  0
   -0.8540   20.9740  -31.1460 C   0  0  0  0  0  0  0  0  0  0  0  0
    0.1920   20.3420  -30.8330 O   0  0  0  0  0  0  0  0  0  0  0  0
   -1.5050   20.7080  -32.3970 N   0  0  0  0  0  0  0  0  0  0  0  0
   -2.2570   19.5320  -32.7290 C   0  0  0  0  0  0  0  0  0  0  0  0
   -1.5930   18.3000  -32.7790 C   0  0  0  0  0  0  0  0  0  0  0  0
   -2.2910   17.1350  -33.1060 C   0  0  0  0  0  0  0  0  0  0  0  0
   -3.6550   17.1920  -33.3980 C   0  0  0  0  0  0  0  0  0  0  0  0
   -4.3270   18.4210  -33.3770 C   0  0  0  0  0  0  0  0  0  0  0  0
   -6.0460   18.4790  -33.7530 S   0  0  0  0  0  0  0  0  0  0  0  0
   -6.3280   19.5720  -34.7460 O   0  0  0  0  0  0  0  0  0  0  0  0
   -6.4710   17.1670  -34.3520 O   0  0  0  0  0  0  0  0  0  0  0  0
   -6.9540   18.7690  -32.3050 N   0  0  0  0  0  0  0  0  0  0  0  0
   -7.7060   19.9650  -32.0750 C   0  0  0  0  0  0  0  0  0  0  0  0
   -9.0920   19.9310  -32.2740 C   0  0  0  0  0  0  0  0  0  0  0  0
   -9.8660   21.0770  -32.0690 C   0  0  0  0  0  0  0  0  0  0  0  0
   -9.2590   22.2610  -31.6450 C   0  0  0  0  0  0  0  0  0  0  0  0
   -7.8820   22.2980  -31.4140 C   0  0  0  0  0  0  0  0  0  0  0  0
   -7.0990   21.1550  -31.6170 C   0  0  0  0  0  0  0  0  0  0  0  0
   -5.3920   21.2340  -31.2060 Cl  0  0  0  0  0  0  0  0  0  0  0  0
   -3.6240   19.5920  -33.0570 C   0  0  0  0  0  0  0  0  0  0  0  0
   -2.2540   23.0150  -30.7300 C   0  0  0  0  0  0  0  0  0  0  0  0
   -5.7803   25.1417  -28.6807 H   0  0  0  0  0  0  0  0  0  0  0  0
   -6.3768   26.3300  -29.8886 H   0  0  0  0  0  0  0  0  0  0  0  0
   -7.0161   24.6513  -29.8886 H   0  0  0  0  0  0  0  0  0  0  0  0
   -2.7924   24.7764  -27.8499 H   0  0  0  0  0  0  0  0  0  0  0  0
   -1.2432   23.0358  -26.9695 H   0  0  0  0  0  0  0  0  0  0  0  0
   -0.3280   21.2861  -28.4878 H   0  0  0  0  0  0  0  0  0  0  0  0
   -0.5163   18.2494  -32.5596 H   0  0  0  0  0  0  0  0  0  0  0  0
   -1.7643   16.1697  -33.1335 H   0  0  0  0  0  0  0  0  0  0  0  0
   -4.2028   16.2706  -33.6449 H   0  0  0  0  0  0  0  0  0  0  0  0
   -9.5750   18.9959  -32.5939 H   0  0  0  0  0  0  0  0  0  0  0  0
  -10.9520   21.0461  -32.2415 H   0  0  0  0  0  0  0  0  0  0  0  0
   -9.8661   23.1656  -31.4928 H   0  0  0  0  0  0  0  0  0  0  0  0
   -7.4099   23.2304  -31.0706 H   0  0  0  0  0  0  0  0  0  0  0  0
   -4.1437   20.5615  -33.0625 H   0  0  0  0  0  0  0  0  0  0  0  0
   -2.5610   22.9982  -31.7862 H   0  0  0  0  0  0  0  0  0  0  0  0
  1  2  1  0
  2  3  2  0
  2  4  1  0
  4  5  1  0
  5  6  2  0
  6  7  1  0
  7  8  2  0
  8  9  1  0
  9 10  1  0
 10 11  2  0
 10 12  1  0
 12 13  1  0
 13 14  2  0
 14 15  1  0
 15 16  2  0
 16 17  1  0
 17 18  1  0
 18 19  2  0
 18 20  2  0
 18 21  1  0
 21 22  1  0
 22 23  2  0
 23 24  1  0
 24 25  2  0
 25 26  1  0
 26 27  2  0
 27 28  1  0
 17 29  2  0
  9 30  2  0
 30  5  1  0
 29 13  1  0
 27 22  1  0
  1 31  1  0
  1 32  1  0
  1 33  1  0
  6 34  1  0
  7 35  1  0
  8 36  1  0
 14 37  1  0
 15 38  1  0
 16 39  1  0
 23 40  1  0
 24 41  1  0
 25 42  1  0
 26 43  1  0
 29 44  1  0
 30 45  1  0
M  CHG  3   4  -1  12  -1  21  -1
M  END
>  <UniqueID>  (26) 
25

>  <SMILES>  (26) 
CC(=O)[N-]c1cccc(C(=O)[N-]c2cccc(S(=O)(=O)[N-]c3ccccc3Cl)c2)c1

>  <Energy>  (26) 
65.11826784803485

>  <Genealogy>  (26) 
CC(=O)[N-]c1cccc(C(=O)[N-]c2cccc(S(=O)(=O)[N-]c3ccccc3Cl)c2)c1 (protonated)
CC(=O)[N-]c1cccc(C(=O)[N-]c2cccc(S(=O)(=O)[N-]c3ccccc3Cl)c2)c1 (3D coordinates assigned)
CC(=O)[N-]c1cccc(C(=O)[N-]c2cccc(S(=O)(=O)[N-]c3ccccc3Cl)c2)c1 (optimized conformer: 65.11826784803485 kcal/mol)

>  <smiles>  (26) 
CC(=O)Nc1cccc(C(=O)Nc2cccc(S(=O)(=O)Nc3ccccc3Cl)c2)c1

>  <score_type>  (26) 
oracle

>  <origin>  (26) 
adgpu

>  <m_score__min__energy>  (26) 
-11.68

>  <m_primary>  (26) 
energy

$$$$
26:0
     RDKit          3D

 30 31  0  0  0  0  0  0  0  0999 V2000
   -4.2470   24.9290  -26.3780 C   0  0  0  0  0  0  0  0  0  0  0  0
   -3.5050   23.8750  -27.1990 C   0  0  0  0  0  0  0  0  0  0  0  0
   -2.2230   24.4130  -27.8620 C   0  0  0  0  0  0  0  0  0  0  0  0
   -2.0210   23.9330  -29.3100 C   0  0  0  0  0  0  0  0  0  0  0  0
   -3.3050   23.8520  -30.0790 C   0  0  0  0  0  0  0  0  0  0  0  0
   -4.1010   22.7410  -30.2500 C   0  0  0  0  0  0  0  0  0  0  0  0
   -5.1570   23.1420  -30.9840 N   0  0  0  0  0  0  0  0  0  0  0  0
   -6.2770   22.3530  -31.4380 C   0  0  0  0  0  0  0  0  0  0  0  0
   -7.5810   22.6750  -31.0170 C   0  0  0  0  0  0  0  0  0  0  0  0
   -8.6750   21.9190  -31.4500 C   0  0  0  0  0  0  0  0  0  0  0  0
   -8.4830   20.8350  -32.3080 C   0  0  0  0  0  0  0  0  0  0  0  0
   -9.5450   20.1050  -32.7270 F   0  0  0  0  0  0  0  0  0  0  0  0
   -7.1950   20.5060  -32.7380 C   0  0  0  0  0  0  0  0  0  0  0  0
   -6.0960   21.2590  -32.3080 C   0  0  0  0  0  0  0  0  0  0  0  0
   -5.0110   24.4360  -31.2340 N   0  0  0  0  0  0  0  0  0  0  0  0
   -3.8930   24.8970  -30.6930 N   0  0  0  0  0  0  0  0  0  0  0  0
   -4.1043   24.7263  -25.3063 H   0  0  0  0  0  0  0  0  0  0  0  0
   -3.8510   25.9267  -26.6184 H   0  0  0  0  0  0  0  0  0  0  0  0
   -5.3198   24.8927  -26.6184 H   0  0  0  0  0  0  0  0  0  0  0  0
   -3.2316   23.0427  -26.5338 H   0  0  0  0  0  0  0  0  0  0  0  0
   -4.1803   23.5548  -28.0061 H   0  0  0  0  0  0  0  0  0  0  0  0
   -2.2696   25.5120  -27.8648 H   0  0  0  0  0  0  0  0  0  0  0  0
   -1.3751   24.0276  -27.2767 H   0  0  0  0  0  0  0  0  0  0  0  0
   -1.3479   24.6359  -29.8227 H   0  0  0  0  0  0  0  0  0  0  0  0
   -1.5960   22.9193  -29.2669 H   0  0  0  0  0  0  0  0  0  0  0  0
   -3.9121   21.7283  -29.8642 H   0  0  0  0  0  0  0  0  0  0  0  0
   -7.7409   23.5285  -30.3417 H   0  0  0  0  0  0  0  0  0  0  0  0
   -9.6894   22.1794  -31.1135 H   0  0  0  0  0  0  0  0  0  0  0  0
   -7.0441   19.6531  -33.4161 H   0  0  0  0  0  0  0  0  0  0  0  0
   -5.0848   20.9952  -32.6513 H   0  0  0  0  0  0  0  0  0  0  0  0
  1  2  1  0
  2  3  1  0
  3  4  1  0
  4  5  1  0
  5  6  2  0
  6  7  1  0
  7  8  1  0
  8  9  2  0
  9 10  1  0
 10 11  2  0
 11 12  1  0
 11 13  1  0
 13 14  2  0
  7 15  1  0
 15 16  2  0
 16  5  1  0
 14  8  1  0
  1 17  1  0
  1 18  1  0
  1 19  1  0
  2 20  1  0
  2 21  1  0
  3 22  1  0
  3 23  1  0
  4 24  1  0
  4 25  1  0
  6 26  1  0
  9 27  1  0
 10 28  1  0
 13 29  1  0
 14 30  1  0
M  END
>  <UniqueID>  (27) 
26

>  <SMILES>  (27) 
CCCCc1cn(-c2ccc(F)cc2)nn1

>  <Energy>  (27) 
61.841568148113836

>  <Genealogy>  (27) 
CCCCc1cn(-c2ccc(F)cc2)nn1 (3D coordinates assigned)
CCCCc1cn(-c2ccc(F)cc2)nn1 (optimized conformer: 61.841568148113836 kcal/mol)

>  <smiles>  (27) 
CCCCc1cn(-c2ccc(F)cc2)nn1

>  <score_type>  (27) 
oracle

>  <origin>  (27) 
adgpu

>  <m_score__min__energy>  (27) 
-6.7400000000000002

>  <m_primary>  (27) 
energy

$$$$
27:0
     RDKit          3D

 22 23  0  0  0  0  0  0  0  0999 V2000
   -4.4520   13.9500  -31.3530 C   0  0  0  0  0  0  0  0  0  0  0  0
   -4.9880   15.1060  -32.0670 N   0  0  0  0  0  0  0  0  0  0  0  0
   -5.6280   16.1110  -31.5020 N   0  0  0  0  0  0  0  0  0  0  0  0
   -6.0020   16.9460  -32.4970 C   0  0  0  0  0  0  0  0  0  0  0  0
   -6.7530   18.2130  -32.3110 C   0  0  0  0  0  0  0  0  0  0  0  0
   -8.0520   18.1830  -31.7700 C   0  0  0  0  0  0  0  0  0  0  0  0
   -8.7740   19.3660  -31.5890 C   0  0  0  0  0  0  0  0  0  0  0  0
   -8.2120   20.5940  -31.9450 C   0  0  0  0  0  0  0  0  0  0  0  0
   -9.1190   22.0770  -31.7160 Cl  0  0  0  0  0  0  0  0  0  0  0  0
   -6.9230   20.6380  -32.4850 C   0  0  0  0  0  0  0  0  0  0  0  0
   -6.1970   19.4570  -32.6680 C   0  0  0  0  0  0  0  0  0  0  0  0
   -5.6160   16.4820  -33.7100 N   0  0  0  0  0  0  0  0  0  0  0  0
   -4.9880   15.3310  -33.3950 C   0  0  0  0  0  0  0  0  0  0  0  0
   -4.3280   14.3320  -34.5130 S   0  0  0  0  0  0  0  0  0  0  0  0
   -4.5307   14.1197  -30.2690 H   0  0  0  0  0  0  0  0  0  0  0  0
   -5.0256   13.0520  -31.6261 H   0  0  0  0  0  0  0  0  0  0  0  0
   -3.3960   13.8076  -31.6261 H   0  0  0  0  0  0  0  0  0  0  0  0
   -5.8040   16.2030  -30.4780 H   0  0  0  0  0  0  0  0  0  0  0  0
   -8.5028   17.2203  -31.4872 H   0  0  0  0  0  0  0  0  0  0  0  0
   -9.7882   19.3297  -31.1647 H   0  0  0  0  0  0  0  0  0  0  0  0
   -6.4789   21.6042  -32.7666 H   0  0  0  0  0  0  0  0  0  0  0  0
   -5.1838   19.4998  -33.0941 H   0  0  0  0  0  0  0  0  0  0  0  0
  1  2  1  0
  2  3  1  0
  3  4  1  0
  4  5  1  0
  5  6  2  0
  6  7  1  0
  7  8  2  0
  8  9  1  0
  8 10  1  0
 10 11  2  0
  4 12  2  0
 12 13  1  0
 13 14  2  0
 13  2  1  0
 11  5  1  0
  1 15  1  0
  1 16  1  0
  1 17  1  0
  3 18  1  0
  6 19  1  0
  7 20  1  0
 10 21  1  0
 11 22  1  0
M  END
>  <UniqueID>  (28) 
27

>  <SMILES>  (28) 
Cn1[nH]c(-c2ccc(Cl)cc2)nc1=S

>  <Energy>  (28) 
58.318589426115075

>  <Genealogy>  (28) 
Cn1[nH]c(-c2ccc(Cl)cc2)nc1=S (3D coordinates assigned)
Cn1[nH]c(-c2ccc(Cl)cc2)nc1=S (optimized conformer: 58.318589426115075 kcal/mol)

>  <smiles>  (28) 
Cn1[nH]c(-c2ccc(Cl)cc2)nc1=S

>  <score_type>  (28) 
oracle

>  <origin>  (28) 
adgpu

>  <m_score__min__energy>  (28) 
-5.7999999999999998

>  <m_primary>  (28) 
energy

$$$$
28:0
     RDKit          3D

 63 66  0  0  0  0  0  0  0  0999 V2000
   -2.0220   25.3590  -28.9210 O   0  0  0  0  0  0  0  0  0  0  0  0
   -2.6820   24.5420  -29.6160 C   0  0  0  0  0  0  0  0  0  0  0  0
   -3.6850   25.0550  -30.5020 N   0  0  0  0  0  0  0  0  0  0  0  0
   -5.0900   25.2680  -30.1630 C   0  0  0  0  0  0  0  0  0  0  0  0
   -5.9890   24.6000  -31.2050 C   0  0  0  0  0  0  0  0  0  0  0  0
   -6.9580   23.6020  -30.5500 C   0  0  0  0  0  0  0  0  0  0  0  0
   -8.0570   23.1190  -31.5080 C   0  0  0  0  0  0  0  0  0  0  0  0
   -8.2640   21.6010  -31.4510 C   0  0  0  0  0  0  0  0  0  0  0  0
   -7.6460   20.9210  -32.6780 C   0  0  0  0  0  0  0  0  0  0  0  0
   -6.3930   20.2370  -32.3200 N   0  0  0  0  0  0  0  0  0  0  0  0
   -5.3440   20.9880  -31.6170 C   0  0  0  0  0  0  0  0  0  0  0  0
   -3.9980   20.7030  -32.2130 C   0  0  0  0  0  0  0  0  0  0  0  0
   -3.2190   21.6710  -32.7680 N   0  0  0  0  0  0  0  0  0  0  0  0
   -2.1520   20.9760  -33.1990 C   0  0  0  0  0  0  0  0  0  0  0  0
   -1.0290   21.4660  -33.8630 C   0  0  0  0  0  0  0  0  0  0  0  0
   -0.0350   20.5410  -34.2370 C   0  0  0  0  0  0  0  0  0  0  0  0
   -0.1870   19.1670  -33.9400 C   0  0  0  0  0  0  0  0  0  0  0  0
   -1.3360   18.7060  -33.2690 C   0  0  0  0  0  0  0  0  0  0  0  0
   -2.2960   19.6520  -32.9150 C   0  0  0  0  0  0  0  0  0  0  0  0
   -3.4620   19.4590  -32.2890 N   0  0  0  0  0  0  0  0  0  0  0  0
   -6.1290   18.8890  -32.7710 C   0  0  0  0  0  0  0  0  0  0  0  0
   -6.0920   18.5700  -34.1380 C   0  0  0  0  0  0  0  0  0  0  0  0
   -5.8410   17.2550  -34.5330 C   0  0  0  0  0  0  0  0  0  0  0  0
   -5.6370   16.2540  -33.5710 C   0  0  0  0  0  0  0  0  0  0  0  0
   -5.3290   14.8450  -34.0090 C   0  0  0  0  0  0  0  0  0  0  0  0
   -4.3180   14.8570  -34.9550 F   0  0  0  0  0  0  0  0  0  0  0  0
   -4.9140   14.1090  -32.9140 F   0  0  0  0  0  0  0  0  0  0  0  0
   -6.4400   14.2310  -34.5620 F   0  0  0  0  0  0  0  0  0  0  0  0
   -5.6810   16.6120  -32.2150 C   0  0  0  0  0  0  0  0  0  0  0  0
   -5.9280   17.9010  -31.8550 N   0  0  0  0  0  0  0  0  0  0  0  0
   -2.4370   23.0930  -29.4460 C   0  0  0  0  0  0  0  0  0  0  0  0
   -3.3380   22.2830  -28.7350 C   0  0  0  0  0  0  0  0  0  0  0  0
   -3.0930   20.9120  -28.5940 C   0  0  0  0  0  0  0  0  0  0  0  0
   -1.9570   20.3390  -29.1720 C   0  0  0  0  0  0  0  0  0  0  0  0
   -1.0690   21.1340  -29.9010 C   0  0  0  0  0  0  0  0  0  0  0  0
   -1.3100   22.5040  -30.0440 C   0  0  0  0  0  0  0  0  0  0  0  0
   -5.2954   24.8339  -29.1733 H   0  0  0  0  0  0  0  0  0  0  0  0
   -5.2971   26.3482  -30.1481 H   0  0  0  0  0  0  0  0  0  0  0  0
   -6.5707   25.3749  -31.7258 H   0  0  0  0  0  0  0  0  0  0  0  0
   -5.3509   24.0505  -31.9127 H   0  0  0  0  0  0  0  0  0  0  0  0
   -6.3835   22.7291  -30.2064 H   0  0  0  0  0  0  0  0  0  0  0  0
   -7.4523   24.1212  -29.7157 H   0  0  0  0  0  0  0  0  0  0  0  0
   -9.0017   23.6137  -31.2383 H   0  0  0  0  0  0  0  0  0  0  0  0
   -7.7428   23.3741  -32.5309 H   0  0  0  0  0  0  0  0  0  0  0  0
   -7.7877   21.2060  -30.5416 H   0  0  0  0  0  0  0  0  0  0  0  0
   -9.3440   21.3926  -31.4389 H   0  0  0  0  0  0  0  0  0  0  0  0
   -8.3576   20.1840  -33.0786 H   0  0  0  0  0  0  0  0  0  0  0  0
   -7.4251   21.6894  -33.4334 H   0  0  0  0  0  0  0  0  0  0  0  0
   -5.5544   22.0646  -31.6986 H   0  0  0  0  0  0  0  0  0  0  0  0
   -5.3356   20.6796  -30.5611 H   0  0  0  0  0  0  0  0  0  0  0  0
   -0.9227   22.5377  -34.0871 H   0  0  0  0  0  0  0  0  0  0  0  0
    0.8656   20.8898  -34.7636 H   0  0  0  0  0  0  0  0  0  0  0  0
    0.5970   18.4539  -34.2348 H   0  0  0  0  0  0  0  0  0  0  0  0
   -1.4706   17.6400  -33.0333 H   0  0  0  0  0  0  0  0  0  0  0  0
   -3.8650   18.5580  -31.9520 H   0  0  0  0  0  0  0  0  0  0  0  0
   -6.2599   19.3520  -34.8932 H   0  0  0  0  0  0  0  0  0  0  0  0
   -5.8029   17.0023  -35.6029 H   0  0  0  0  0  0  0  0  0  0  0  0
   -5.5154   15.8485  -31.4406 H   0  0  0  0  0  0  0  0  0  0  0  0
   -4.2392   22.7276  -28.2875 H   0  0  0  0  0  0  0  0  0  0  0  0
   -3.7962   20.2843  -28.0270 H   0  0  0  0  0  0  0  0  0  0  0  0
   -1.7621   19.2630  -29.0531 H   0  0  0  0  0  0  0  0  0  0  0  0
   -0.1791   20.6816  -30.3631 H   0  0  0  0  0  0  0  0  0  0  0  0
   -0.6136   23.1239  -30.6277 H   0  0  0  0  0  0  0  0  0  0  0  0
  1  2  2  0
  2  3  1  0
  3  4  1  0
  4  5  1  0
  5  6  1  0
  6  7  1  0
  7  8  1  0
  8  9  1  0
  9 10  1  0
 10 11  1  0
 11 12  1  0
 12 13  2  0
 13 14  1  0
 14 15  2  0
 15 16  1  0
 16 17  2  0
 17 18  1  0
 18 19  2  0
 19 20  1  0
 10 21  1  0
 21 22  2  0
 22 23  1  0
 23 24  2  0
 24 25  1  0
 25 26  1  0
 25 27  1  0
 25 28  1  0
 24 29  1  0
 29 30  2  0
  2 31  1  0
 31 32  2  0
 32 33  1  0
 33 34  2  0
 34 35  1  0
 35 36  2  0
 20 12  1  0
 30 21  1  0
 36 31  1  0
 19 14  1  0
  4 37  1  0
  4 38  1  0
  5 39  1  0
  5 40  1  0
  6 41  1  0
  6 42  1  0
  7 43  1  0
  7 44  1  0
  8 45  1  0
  8 46  1  0
  9 47  1  0
  9 48  1  0
 11 49  1  0
 11 50  1  0
 15 51  1  0
 16 52  1  0
 17 53  1  0
 18 54  1  0
 20 55  1  0
 22 56  1  0
 23 57  1  0
 29 58  1  0
 32 59  1  0
 33 60  1  0
 34 61  1  0
 35 62  1  0
 36 63  1  0
M  CHG  1   3  -1
M  END
>  <UniqueID>  (29) 
28

>  <SMILES>  (29) 
O=C([N-]CCCCCCN(Cc1nc2ccccc2[nH]1)c1ccc(C(F)(F)F)cn1)c1ccccc1

>  <Energy>  (29) 
98.95380364759812

>  <Genealogy>  (29) 
O=C([N-]CCCCCCN(Cc1nc2ccccc2[nH]1)c1ccc(C(F)(F)F)cn1)c1ccccc1 (protonated)
O=C([N-]CCCCCCN(Cc1nc2ccccc2[nH]1)c1ccc(C(F)(F)F)cn1)c1ccccc1 (3D coordinates assigned)
O=C([N-]CCCCCCN(Cc1nc2ccccc2[nH]1)c1ccc(C(F)(F)F)cn1)c1ccccc1 (optimized conformer: 98.95380364759812 kcal/mol)

>  <smiles>  (29) 
O=C(NCCCCCCN(Cc1nc2ccccc2[nH]1)c1ccc(C(F)(F)F)cn1)c1ccccc1

>  <score_type>  (29) 
oracle

>  <origin>  (29) 
adgpu

>  <m_score__min__energy>  (29) 
-10.98

>  <m_primary>  (29) 
energy

$$$$
29:0
     RDKit          3D

 47 50  0  0  0  0  0  0  0  0999 V2000
   -0.8010   16.9150  -32.3490 C   0  0  0  0  0  0  0  0  0  0  0  0
   -1.4140   17.6440  -33.4070 O   0  0  0  0  0  0  0  0  0  0  0  0
   -1.0640   18.9500  -33.7870 C   0  0  0  0  0  0  0  0  0  0  0  0
   -0.3720   19.2100  -34.9880 C   0  0  0  0  0  0  0  0  0  0  0  0
    0.0260   20.5100  -35.3080 C   0  0  0  0  0  0  0  0  0  0  0  0
   -0.2520   21.5620  -34.4350 C   0  0  0  0  0  0  0  0  0  0  0  0
   -0.9460   21.3200  -33.2480 C   0  0  0  0  0  0  0  0  0  0  0  0
   -1.3830   20.0270  -32.9310 C   0  0  0  0  0  0  0  0  0  0  0  0
   -2.0870   19.8310  -31.6980 N   0  0  0  0  0  0  0  0  0  0  0  0
   -3.2450   20.5610  -31.2820 C   0  0  0  0  0  0  0  0  0  0  0  0
   -3.1960   21.2620  -30.2350 O   0  0  0  0  0  0  0  0  0  0  0  0
   -4.5210   20.4170  -32.0170 C   0  0  0  0  0  0  0  0  0  0  0  0
   -5.5510   21.3430  -32.1570 C   0  0  0  0  0  0  0  0  0  0  0  0
   -5.7530   22.5940  -31.4010 C   0  0  0  0  0  0  0  0  0  0  0  0
   -6.9940   22.8800  -30.8050 C   0  0  0  0  0  0  0  0  0  0  0  0
   -7.1820   24.0780  -30.1100 C   0  0  0  0  0  0  0  0  0  0  0  0
   -6.1420   25.0080  -30.0220 C   0  0  0  0  0  0  0  0  0  0  0  0
   -4.9140   24.7430  -30.6360 C   0  0  0  0  0  0  0  0  0  0  0  0
   -3.8840   25.6730  -30.5560 O   0  0  0  0  0  0  0  0  0  0  0  0
   -4.7210   23.5440  -31.3310 C   0  0  0  0  0  0  0  0  0  0  0  0
   -6.4200   20.9110  -33.0940 N   0  0  0  0  0  0  0  0  0  0  0  0
   -5.9880   19.7610  -33.5230 O   0  0  0  0  0  0  0  0  0  0  0  0
   -4.8830   19.4160  -32.9080 C   0  0  0  0  0  0  0  0  0  0  0  0
   -4.1840   18.1950  -33.1740 N   0  0  0  0  0  0  0  0  0  0  0  0
   -4.8370   16.9600  -33.5210 C   0  0  0  0  0  0  0  0  0  0  0  0
   -6.2160   16.9630  -33.7880 C   0  0  0  0  0  0  0  0  0  0  0  0
   -6.8750   15.7770  -34.1240 C   0  0  0  0  0  0  0  0  0  0  0  0
   -6.1650   14.5740  -34.1840 C   0  0  0  0  0  0  0  0  0  0  0  0
   -4.7960   14.5560  -33.9040 C   0  0  0  0  0  0  0  0  0  0  0  0
   -4.1330   15.7400  -33.5720 C   0  0  0  0  0  0  0  0  0  0  0  0
   -1.1392   17.3172  -31.3826 H   0  0  0  0  0  0  0  0  0  0  0  0
   -1.0825   15.8542  -32.4234 H   0  0  0  0  0  0  0  0  0  0  0  0
    0.2923   17.0103  -32.4234 H   0  0  0  0  0  0  0  0  0  0  0  0
   -0.1442   18.3835  -35.6773 H   0  0  0  0  0  0  0  0  0  0  0  0
    0.5596   20.7047  -36.2500 H   0  0  0  0  0  0  0  0  0  0  0  0
    0.0757   22.5826  -34.6820 H   0  0  0  0  0  0  0  0  0  0  0  0
   -1.1512   22.1505  -32.5565 H   0  0  0  0  0  0  0  0  0  0  0  0
   -7.8201   22.1581  -30.8860 H   0  0  0  0  0  0  0  0  0  0  0  0
   -8.1497   24.2893  -29.6316 H   0  0  0  0  0  0  0  0  0  0  0  0
   -6.2896   25.9479  -29.4699 H   0  0  0  0  0  0  0  0  0  0  0  0
   -3.7581   23.3449  -31.8240 H   0  0  0  0  0  0  0  0  0  0  0  0
   -3.1450   18.2500  -33.2670 H   0  0  0  0  0  0  0  0  0  0  0  0
   -6.7812   17.9051  -33.7323 H   0  0  0  0  0  0  0  0  0  0  0  0
   -7.9532   15.7901  -34.3414 H   0  0  0  0  0  0  0  0  0  0  0  0
   -6.6840   13.6418  -34.4516 H   0  0  0  0  0  0  0  0  0  0  0  0
   -4.2395   13.6080  -33.9451 H   0  0  0  0  0  0  0  0  0  0  0  0
   -3.0560   15.7200  -33.3492 H   0  0  0  0  0  0  0  0  0  0  0  0
  1  2  1  0
  2  3  1  0
  3  4  2  0
  4  5  1  0
  5  6  2  0
  6  7  1  0
  7  8  2  0
  8  9  1  0
  9 10  1  0
 10 11  2  0
 10 12  1  0
 12 13  1  0
 13 14  1  0
 14 15  2  0
 15 16  1  0
 16 17  2  0
 17 18  1  0
 18 19  1  0
 18 20  2  0
 13 21  2  0
 21 22  1  0
 22 23  1  0
 23 24  1  0
 24 25  1  0
 25 26  2  0
 26 27  1  0
 27 28  2  0
 28 29  1  0
 29 30  2  0
  8  3  1  0
 23 12  2  0
 30 25  1  0
 20 14  1  0
  1 31  1  0
  1 32  1  0
  1 33  1  0
  4 34  1  0
  5 35  1  0
  6 36  1  0
  7 37  1  0
 15 38  1  0
 16 39  1  0
 17 40  1  0
 20 41  1  0
 24 42  1  0
 26 43  1  0
 27 44  1  0
 28 45  1  0
 29 46  1  0
 30 47  1  0
M  CHG  2   9  -1  19  -1
M  END
>  <UniqueID>  (30) 
29

>  <SMILES>  (30) 
COc1ccccc1[N-]C(=O)c1c(-c2cccc([O-])c2)noc1Nc1ccccc1

>  <Energy>  (30) 
99.41486014857037

>  <Genealogy>  (30) 
COc1ccccc1[N-]C(=O)c1c(-c2cccc([O-])c2)noc1Nc1ccccc1 (protonated)
COc1ccccc1[N-]C(=O)c1c(-c2cccc([O-])c2)noc1Nc1ccccc1 (3D coordinates assigned)
COc1ccccc1[N-]C(=O)c1c(-c2cccc([O-])c2)noc1Nc1ccccc1 (optimized conformer: 99.41486014857037 kcal/mol)

>  <smiles>  (30) 
COc1ccccc1NC(=O)c1c(-c2cccc(O)c2)noc1Nc1ccccc1

>  <score_type>  (30) 
oracle

>  <origin>  (30) 
adgpu

>  <m_score__min__energy>  (30) 
-11.82

>  <m_primary>  (30) 
energy

$$$$
30:0
     RDKit          3D

 43 45  0  0  0  0  0  0  0  0999 V2000
   -0.7110   27.0460  -27.8470 C   0  0  0  0  0  0  0  0  0  0  0  0
   -1.2980   26.2860  -28.8970 O   0  0  0  0  0  0  0  0  0  0  0  0
   -1.6570   24.9320  -28.8020 C   0  0  0  0  0  0  0  0  0  0  0  0
   -0.9620   24.0440  -27.9550 C   0  0  0  0  0  0  0  0  0  0  0  0
   -1.3000   22.6890  -27.9220 C   0  0  0  0  0  0  0  0  0  0  0  0
   -2.3250   22.2010  -28.7340 C   0  0  0  0  0  0  0  0  0  0  0  0
   -2.7350   20.4970  -28.7010 Cl  0  0  0  0  0  0  0  0  0  0  0  0
   -3.0270   23.0740  -29.5690 C   0  0  0  0  0  0  0  0  0  0  0  0
   -2.7220   24.4400  -29.5890 C   0  0  0  0  0  0  0  0  0  0  0  0
   -3.4910   25.2950  -30.4490 N   0  0  0  0  0  0  0  0  0  0  0  0
   -4.9220   25.3310  -30.5600 C   0  0  0  0  0  0  0  0  0  0  0  0
   -5.5070   26.4400  -30.4500 O   0  0  0  0  0  0  0  0  0  0  0  0
   -5.7200   24.1130  -30.8360 C   0  0  0  0  0  0  0  0  0  0  0  0
   -5.8540   23.6450  -32.1540 C   0  0  0  0  0  0  0  0  0  0  0  0
   -6.6260   22.5130  -32.4280 C   0  0  0  0  0  0  0  0  0  0  0  0
   -7.2620   21.8240  -31.3880 C   0  0  0  0  0  0  0  0  0  0  0  0
   -8.2290   20.3950  -31.7400 S   0  0  0  0  0  0  0  0  0  0  0  0
   -9.4440   20.3450  -30.8570 O   0  0  0  0  0  0  0  0  0  0  0  0
   -8.6670   20.4490  -33.1760 O   0  0  0  0  0  0  0  0  0  0  0  0
   -7.2860   18.9620  -31.4880 N   0  0  0  0  0  0  0  0  0  0  0  0
   -6.5970   18.2310  -32.5140 C   0  0  0  0  0  0  0  0  0  0  0  0
   -7.1850   17.1280  -33.1620 C   0  0  0  0  0  0  0  0  0  0  0  0
   -6.4830   16.4340  -34.1510 C   0  0  0  0  0  0  0  0  0  0  0  0
   -5.1930   16.8330  -34.5060 C   0  0  0  0  0  0  0  0  0  0  0  0
   -4.6010   17.9270  -33.8730 C   0  0  0  0  0  0  0  0  0  0  0  0
   -5.2970   18.6270  -32.8800 C   0  0  0  0  0  0  0  0  0  0  0  0
   -4.5210   19.9970  -32.0970 Cl  0  0  0  0  0  0  0  0  0  0  0  0
   -7.1200   22.2770  -30.0700 C   0  0  0  0  0  0  0  0  0  0  0  0
   -6.3500   23.4100  -29.7950 C   0  0  0  0  0  0  0  0  0  0  0  0
   -1.0275   26.6362  -26.8765 H   0  0  0  0  0  0  0  0  0  0  0  0
    0.3850   26.9957  -27.9264 H   0  0  0  0  0  0  0  0  0  0  0  0
   -1.0366   28.0937  -27.9264 H   0  0  0  0  0  0  0  0  0  0  0  0
   -0.1491   24.4205  -27.3167 H   0  0  0  0  0  0  0  0  0  0  0  0
   -0.7567   22.0045  -27.2540 H   0  0  0  0  0  0  0  0  0  0  0  0
   -3.8264   22.6844  -30.2164 H   0  0  0  0  0  0  0  0  0  0  0  0
   -5.3479   24.1732  -32.9755 H   0  0  0  0  0  0  0  0  0  0  0  0
   -6.7346   22.1617  -33.4647 H   0  0  0  0  0  0  0  0  0  0  0  0
   -8.2022   16.8110  -32.8883 H   0  0  0  0  0  0  0  0  0  0  0  0
   -6.9477   15.5714  -34.6510 H   0  0  0  0  0  0  0  0  0  0  0  0
   -4.6429   16.2848  -35.2850 H   0  0  0  0  0  0  0  0  0  0  0  0
   -3.5849   18.2401  -34.1550 H   0  0  0  0  0  0  0  0  0  0  0  0
   -7.6163   21.7390  -29.2489 H   0  0  0  0  0  0  0  0  0  0  0  0
   -6.2361   23.7541  -28.7564 H   0  0  0  0  0  0  0  0  0  0  0  0
  1  2  1  0
  2  3  1  0
  3  4  2  0
  4  5  1  0
  5  6  2  0
  6  7  1  0
  6  8  1  0
  8  9  2  0
  9 10  1  0
 10 11  1  0
 11 12  2  0
 11 13  1  0
 13 14  2  0
 14 15  1  0
 15 16  2  0
 16 17  1  0
 17 18  2  0
 17 19  2  0
 17 20  1  0
 20 21  1  0
 21 22  2  0
 22 23  1  0
 23 24  2  0
 24 25  1  0
 25 26  2  0
 26 27  1  0
 16 28  1  0
 28 29  2  0
  9  3  1  0
 29 13  1  0
 26 21  1  0
  1 30  1  0
  1 31  1  0
  1 32  1  0
  4 33  1  0
  5 34  1  0
  8 35  1  0
 14 36  1  0
 15 37  1  0
 22 38  1  0
 23 39  1  0
 24 40  1  0
 25 41  1  0
 28 42  1  0
 29 43  1  0
M  CHG  2  10  -1  20  -1
M  END
>  <UniqueID>  (31) 
30

>  <SMILES>  (31) 
COc1ccc(Cl)cc1[N-]C(=O)c1ccc(S(=O)(=O)[N-]c2ccccc2Cl)cc1

>  <Energy>  (31) 
56.22673296333223

>  <Genealogy>  (31) 
COc1ccc(Cl)cc1[N-]C(=O)c1ccc(S(=O)(=O)[N-]c2ccccc2Cl)cc1 (protonated)
COc1ccc(Cl)cc1[N-]C(=O)c1ccc(S(=O)(=O)[N-]c2ccccc2Cl)cc1 (3D coordinates assigned)
COc1ccc(Cl)cc1[N-]C(=O)c1ccc(S(=O)(=O)[N-]c2ccccc2Cl)cc1 (optimized conformer: 56.22673296333223 kcal/mol)

>  <smiles>  (31) 
COc1ccc(Cl)cc1NC(=O)c1ccc(S(=O)(=O)Nc2ccccc2Cl)cc1

>  <score_type>  (31) 
oracle

>  <origin>  (31) 
adgpu

>  <m_score__min__energy>  (31) 
-11.92

>  <m_primary>  (31) 
energy

$$$$
31:0
     RDKit          3D

 40 42  0  0  0  0  0  0  0  0999 V2000
   -7.0320   18.7210  -32.8200 C   0  0  0  0  0  0  0  0  0  0  0  0
   -6.5370   19.9120  -33.4250 O   0  0  0  0  0  0  0  0  0  0  0  0
   -6.1560   21.0630  -32.7190 C   0  0  0  0  0  0  0  0  0  0  0  0
   -4.8210   21.5090  -32.6780 C   0  0  0  0  0  0  0  0  0  0  0  0
   -4.4810   22.6590  -31.9660 C   0  0  0  0  0  0  0  0  0  0  0  0
   -5.4660   23.3840  -31.2870 C   0  0  0  0  0  0  0  0  0  0  0  0
   -5.0290   24.8470  -30.4090 S   0  0  0  0  0  0  0  0  0  0  0  0
   -5.7610   24.8630  -29.0970 O   0  0  0  0  0  0  0  0  0  0  0  0
   -5.4040   26.0720  -31.1950 O   0  0  0  0  0  0  0  0  0  0  0  0
   -3.3210   24.8700  -30.1080 N   0  0  0  0  0  0  0  0  0  0  0  0
   -2.5980   23.8680  -29.3800 C   0  0  0  0  0  0  0  0  0  0  0  0
   -1.2520   24.1080  -29.0660 C   0  0  0  0  0  0  0  0  0  0  0  0
   -0.5090   23.1610  -28.3550 C   0  0  0  0  0  0  0  0  0  0  0  0
   -1.1080   21.9650  -27.9530 C   0  0  0  0  0  0  0  0  0  0  0  0
   -2.4580   21.7270  -28.2400 C   0  0  0  0  0  0  0  0  0  0  0  0
   -3.1990   22.6640  -28.9650 C   0  0  0  0  0  0  0  0  0  0  0  0
   -3.0490   20.5410  -27.7910 O   0  0  0  0  0  0  0  0  0  0  0  0
   -2.3970   19.7110  -26.8250 C   0  0  0  0  0  0  0  0  0  0  0  0
   -0.8870   19.6680  -27.0940 C   0  0  0  0  0  0  0  0  0  0  0  0
   -0.3760   20.9920  -27.2660 O   0  0  0  0  0  0  0  0  0  0  0  0
   -6.7950   22.9450  -31.3180 C   0  0  0  0  0  0  0  0  0  0  0  0
   -7.1470   21.7840  -32.0340 C   0  0  0  0  0  0  0  0  0  0  0  0
   -8.4700   21.3170  -32.0920 O   0  0  0  0  0  0  0  0  0  0  0  0
   -9.4540   21.5530  -31.0890 C   0  0  0  0  0  0  0  0  0  0  0  0
   -6.9904   18.8212  -31.7254 H   0  0  0  0  0  0  0  0  0  0  0  0
   -8.0733   18.5558  -33.1337 H   0  0  0  0  0  0  0  0  0  0  0  0
   -6.4146   17.8664  -33.1337 H   0  0  0  0  0  0  0  0  0  0  0  0
   -4.0407   20.9463  -33.2114 H   0  0  0  0  0  0  0  0  0  0  0  0
   -3.4346   22.9971  -31.9382 H   0  0  0  0  0  0  0  0  0  0  0  0
   -0.7774   25.0488  -29.3817 H   0  0  0  0  0  0  0  0  0  0  0  0
    0.5458   23.3575  -28.1125 H   0  0  0  0  0  0  0  0  0  0  0  0
   -4.2517   22.4611  -29.2115 H   0  0  0  0  0  0  0  0  0  0  0  0
   -2.5750   20.1170  -25.8183 H   0  0  0  0  0  0  0  0  0  0  0  0
   -2.8029   18.6911  -26.8967 H   0  0  0  0  0  0  0  0  0  0  0  0
   -0.3801   19.1912  -26.2422 H   0  0  0  0  0  0  0  0  0  0  0  0
   -0.7034   19.0913  -28.0126 H   0  0  0  0  0  0  0  0  0  0  0  0
   -7.5697   23.5105  -30.7795 H   0  0  0  0  0  0  0  0  0  0  0  0
   -8.9973   21.4435  -30.0943 H   0  0  0  0  0  0  0  0  0  0  0  0
   -9.8527   22.5722  -31.1992 H   0  0  0  0  0  0  0  0  0  0  0  0
  -10.2717   20.8255  -31.1992 H   0  0  0  0  0  0  0  0  0  0  0  0
  1  2  1  0
  2  3  1  0
  3  4  2  0
  4  5  1  0
  5  6  2  0
  6  7  1  0
  7  8  2  0
  7  9  2  0
  7 10  1  0
 10 11  1  0
 11 12  2  0
 12 13  1  0
 13 14  2  0
 14 15  1  0
 15 16  2  0
 15 17  1  0
 17 18  1  0
 18 19  1  0
 19 20  1  0
  6 21  1  0
 21 22  2  0
 22 23  1  0
 23 24  1  0
 22  3  1  0
 16 11  1  0
 20 14  1  0
  1 25  1  0
  1 26  1  0
  1 27  1  0
  4 28  1  0
  5 29  1  0
 12 30  1  0
 13 31  1  0
 16 32  1  0
 18 33  1  0
 18 34  1  0
 19 35  1  0
 19 36  1  0
 21 37  1  0
 24 38  1  0
 24 39  1  0
 24 40  1  0
M  CHG  1  10  -1
M  END
>  <UniqueID>  (32) 
31

>  <SMILES>  (32) 
COc1ccc(S(=O)(=O)[N-]c2ccc3c(c2)OCCO3)cc1OC

>  <Energy>  (32) 
44.36043657403201

>  <Genealogy>  (32) 
COc1ccc(S(=O)(=O)[N-]c2ccc3c(c2)OCCO3)cc1OC (protonated)
COc1ccc(S(=O)(=O)[N-]c2ccc3c(c2)OCCO3)cc1OC (3D coordinates assigned)
COc1ccc(S(=O)(=O)[N-]c2ccc3c(c2)OCCO3)cc1OC (nonaromatic ring conformer: 44.36043657403201 kcal/mol)

>  <smiles>  (32) 
COc1ccc(S(=O)(=O)Nc2ccc3c(c2)OCCO3)cc1OC

>  <score_type>  (32) 
oracle

>  <origin>  (32) 
adgpu

>  <m_score__min__energy>  (32) 
-8.4399999999999995

>  <m_primary>  (32) 
energy

$$$$
32:0
     RDKit          3D

 56 60  0  0  0  0  0  0  0  0999 V2000
   -4.2840   25.5950  -30.8880 O   0  0  0  0  0  0  0  0  0  0  0  0
   -3.8580   24.7680  -30.0390 C   0  0  0  0  0  0  0  0  0  0  0  0
   -2.6140   24.9310  -29.5180 N   0  0  0  0  0  0  0  0  0  0  0  0
   -2.1010   24.0750  -28.5950 C   0  0  0  0  0  0  0  0  0  0  0  0
   -0.8200   24.2870  -28.0730 C   0  0  0  0  0  0  0  0  0  0  0  0
   -0.2990   23.4100  -27.1170 C   0  0  0  0  0  0  0  0  0  0  0  0
   -1.0560   22.3170  -26.6790 C   0  0  0  0  0  0  0  0  0  0  0  0
   -2.3370   22.0960  -27.1970 C   0  0  0  0  0  0  0  0  0  0  0  0
   -2.8650   22.9710  -28.1570 C   0  0  0  0  0  0  0  0  0  0  0  0
   -4.1460   22.7810  -28.6870 C   0  0  0  0  0  0  0  0  0  0  0  0
   -4.6610   23.6860  -29.6270 C   0  0  0  0  0  0  0  0  0  0  0  0
   -6.0650   23.5090  -30.1570 C   0  0  0  0  0  0  0  0  0  0  0  0
   -6.1030   22.5610  -31.2930 N   0  0  0  0  0  0  0  0  0  0  0  0
   -7.4690   22.4160  -31.8390 C   0  0  0  0  0  0  0  0  0  0  0  0
   -7.8540   20.9610  -31.9080 C   0  0  0  0  0  0  0  0  0  0  0  0
   -9.1430   20.5790  -32.3150 C   0  0  0  0  0  0  0  0  0  0  0  0
   -9.4830   19.2250  -32.3940 C   0  0  0  0  0  0  0  0  0  0  0  0
   -8.5400   18.2450  -32.0710 C   0  0  0  0  0  0  0  0  0  0  0  0
   -7.2540   18.6180  -31.6690 C   0  0  0  0  0  0  0  0  0  0  0  0
   -6.9100   19.9710  -31.5880 C   0  0  0  0  0  0  0  0  0  0  0  0
   -5.0830   22.8180  -32.3430 C   0  0  0  0  0  0  0  0  0  0  0  0
   -4.3370   21.5880  -32.8080 C   0  0  0  0  0  0  0  0  0  0  0  0
   -4.8750   20.6110  -33.5640 N   0  0  0  0  0  0  0  0  0  0  0  0
   -3.9260   19.6900  -33.6700 N   0  0  0  0  0  0  0  0  0  0  0  0
   -2.8510   20.0660  -32.9970 N   0  0  0  0  0  0  0  0  0  0  0  0
   -3.0830   21.2470  -32.4510 N   0  0  0  0  0  0  0  0  0  0  0  0
   -2.1550   21.9340  -31.5530 C   0  0  0  0  0  0  0  0  0  0  0  0
   -1.2030   20.9490  -30.9330 C   0  0  0  0  0  0  0  0  0  0  0  0
   -0.0130   20.5910  -31.5900 C   0  0  0  0  0  0  0  0  0  0  0  0
    0.8750   19.6880  -30.9960 C   0  0  0  0  0  0  0  0  0  0  0  0
    0.5800   19.1350  -29.7470 C   0  0  0  0  0  0  0  0  0  0  0  0
   -0.6030   19.4820  -29.0900 C   0  0  0  0  0  0  0  0  0  0  0  0
   -1.4930   20.3850  -29.6800 C   0  0  0  0  0  0  0  0  0  0  0  0
   -0.2223   25.1447  -28.4153 H   0  0  0  0  0  0  0  0  0  0  0  0
    0.7080   23.5792  -26.7081 H   0  0  0  0  0  0  0  0  0  0  0  0
   -0.6428   21.6301  -25.9257 H   0  0  0  0  0  0  0  0  0  0  0  0
   -2.9295   21.2362  -26.8512 H   0  0  0  0  0  0  0  0  0  0  0  0
   -4.7506   21.9200  -28.3658 H   0  0  0  0  0  0  0  0  0  0  0  0
   -6.7055   23.1245  -29.3496 H   0  0  0  0  0  0  0  0  0  0  0  0
   -6.4245   24.4861  -30.5121 H   0  0  0  0  0  0  0  0  0  0  0  0
   -8.1782   22.9483  -31.1881 H   0  0  0  0  0  0  0  0  0  0  0  0
   -7.4954   22.8411  -32.8532 H   0  0  0  0  0  0  0  0  0  0  0  0
   -9.8871   21.3472  -32.5723 H   0  0  0  0  0  0  0  0  0  0  0  0
  -10.4944   18.9305  -32.7109 H   0  0  0  0  0  0  0  0  0  0  0  0
   -8.8098   17.1804  -32.1331 H   0  0  0  0  0  0  0  0  0  0  0  0
   -6.5120   17.8464  -31.4161 H   0  0  0  0  0  0  0  0  0  0  0  0
   -5.8969   20.2611  -31.2727 H   0  0  0  0  0  0  0  0  0  0  0  0
   -5.5897   23.2616  -33.2128 H   0  0  0  0  0  0  0  0  0  0  0  0
   -4.3338   23.4866  -31.8939 H   0  0  0  0  0  0  0  0  0  0  0  0
   -1.5836   22.6808  -32.1238 H   0  0  0  0  0  0  0  0  0  0  0  0
   -2.7289   22.4278  -30.7550 H   0  0  0  0  0  0  0  0  0  0  0  0
    0.2207   21.0224  -32.5745 H   0  0  0  0  0  0  0  0  0  0  0  0
    1.8064   19.4129  -31.5126 H   0  0  0  0  0  0  0  0  0  0  0  0
    1.2799   18.4259  -29.2808 H   0  0  0  0  0  0  0  0  0  0  0  0
   -0.8347   19.0445  -28.1077 H   0  0  0  0  0  0  0  0  0  0  0  0
   -2.4243   20.6547  -29.1604 H   0  0  0  0  0  0  0  0  0  0  0  0
  1  2  2  0
  2  3  1  0
  3  4  1  0
  4  5  2  0
  5  6  1  0
  6  7  2  0
  7  8  1  0
  8  9  2  0
  9 10  1  0
 10 11  2  0
 11 12  1  0
 12 13  1  0
 13 14  1  0
 14 15  1  0
 15 16  2  0
 16 17  1  0
 17 18  2  0
 18 19  1  0
 19 20  2  0
 13 21  1  0
 21 22  1  0
 22 23  2  0
 23 24  1  0
 24 25  2  0
 25 26  1  0
 26 27  1  0
 27 28  1  0
 28 29  2  0
 29 30  1  0
 30 31  2  0
 31 32  1  0
 32 33  2  0
 11  2  1  0
 20 15  1  0
 26 22  1  0
 33 28  1  0
  9  4  1  0
  5 34  1  0
  6 35  1  0
  7 36  1  0
  8 37  1  0
 10 38  1  0
 12 39  1  0
 12 40  1  0
 14 41  1  0
 14 42  1  0
 16 43  1  0
 17 44  1  0
 18 45  1  0
 19 46  1  0
 20 47  1  0
 21 48  1  0
 21 49  1  0
 27 50  1  0
 27 51  1  0
 29 52  1  0
 30 53  1  0
 31 54  1  0
 32 55  1  0
 33 56  1  0
M  CHG  1   3  -1
M  END
>  <UniqueID>  (33) 
32

>  <SMILES>  (33) 
O=c1[n-]c2ccccc2cc1CN(Cc1ccccc1)Cc1nnnn1Cc1ccccc1

>  <Energy>  (33) 
107.9457993829054

>  <Genealogy>  (33) 
O=c1[n-]c2ccccc2cc1CN(Cc1ccccc1)Cc1nnnn1Cc1ccccc1 (protonated)
O=c1[n-]c2ccccc2cc1CN(Cc1ccccc1)Cc1nnnn1Cc1ccccc1 (3D coordinates assigned)
O=c1[n-]c2ccccc2cc1CN(Cc1ccccc1)Cc1nnnn1Cc1ccccc1 (optimized conformer: 107.9457993829054 kcal/mol)

>  <smiles>  (33) 
O=c1[nH]c2ccccc2cc1CN(Cc1ccccc1)Cc1nnnn1Cc1ccccc1

>  <score_type>  (33) 
oracle

>  <origin>  (33) 
adgpu

>  <m_score__min__energy>  (33) 
-12.65

>  <m_primary>  (33) 
energy

$$$$
33:0
     RDKit          3D

 41 43  0  0  0  0  0  0  0  0999 V2000
    0.1095   25.9342  -27.9109 H   0  0  0  0  0  0  0  0  0  0  0  0
   -0.7770   25.2920  -28.0190 C   0  0  0  0  0  0  0  0  0  0  0  0
   -1.6150   25.4630  -29.0760 N   0  0  0  0  0  0  0  0  0  0  0  0
   -2.7250   24.6950  -29.2570 C   0  0  0  0  0  0  0  0  0  0  0  0
   -3.4670   24.9200  -30.3030 N   0  0  0  0  0  0  0  0  0  0  0  0
   -4.9140   24.0660  -30.7500 S   0  0  0  0  0  0  0  0  0  0  0  0
   -5.6480   23.6520  -29.5050 O   0  0  0  0  0  0  0  0  0  0  0  0
   -5.7910   24.9860  -31.5510 O   0  0  0  0  0  0  0  0  0  0  0  0
   -4.5260   22.6570  -31.7350 C   0  0  0  0  0  0  0  0  0  0  0  0
   -5.5440   21.9670  -32.4040 C   0  0  0  0  0  0  0  0  0  0  0  0
   -6.5874   22.3027  -32.3106 H   0  0  0  0  0  0  0  0  0  0  0  0
   -5.2380   20.8530  -33.1900 C   0  0  0  0  0  0  0  0  0  0  0  0
   -6.0440   20.3120  -33.7074 H   0  0  0  0  0  0  0  0  0  0  0  0
   -3.9130   20.4200  -33.3240 C   0  0  0  0  0  0  0  0  0  0  0  0
   -3.6430   19.2860  -34.1590 N   0  0  0  0  0  0  0  0  0  0  0  0
   -4.7790   18.0290  -34.5310 S   0  0  0  0  0  0  0  0  0  0  0  0
   -6.0110   18.6470  -35.1310 O   0  0  0  0  0  0  0  0  0  0  0  0
   -4.1670   17.0920  -35.5320 O   0  0  0  0  0  0  0  0  0  0  0  0
   -5.1730   17.1230  -33.0720 C   0  0  0  0  0  0  0  0  0  0  0  0
   -6.1200   17.4120  -32.1080 C   0  0  0  0  0  0  0  0  0  0  0  0
   -7.0380   18.5900  -32.0740 C   0  0  0  0  0  0  0  0  0  0  0  0
   -7.2488   18.8605  -31.0288 H   0  0  0  0  0  0  0  0  0  0  0  0
   -6.5621   19.4405  -32.5841 H   0  0  0  0  0  0  0  0  0  0  0  0
   -7.9790   18.3364  -32.5841 H   0  0  0  0  0  0  0  0  0  0  0  0
   -6.0660   16.4770  -31.1390 N   0  0  0  0  0  0  0  0  0  0  0  0
   -5.1360   15.6300  -31.4760 O   0  0  0  0  0  0  0  0  0  0  0  0
   -4.5750   15.9660  -32.6160 C   0  0  0  0  0  0  0  0  0  0  0  0
   -3.4570   15.2140  -33.2570 C   0  0  0  0  0  0  0  0  0  0  0  0
   -2.8126   14.7805  -32.4780 H   0  0  0  0  0  0  0  0  0  0  0  0
   -3.8684   14.4083  -33.8828 H   0  0  0  0  0  0  0  0  0  0  0  0
   -2.8658   15.8988  -33.8828 H   0  0  0  0  0  0  0  0  0  0  0  0
   -2.8930   21.1120  -32.6460 C   0  0  0  0  0  0  0  0  0  0  0  0
   -1.8500   20.7734  -32.7325 H   0  0  0  0  0  0  0  0  0  0  0  0
   -3.2000   22.2280  -31.8630 C   0  0  0  0  0  0  0  0  0  0  0  0
   -2.3961   22.7716  -31.3451 H   0  0  0  0  0  0  0  0  0  0  0  0
   -3.0200   23.6870  -28.3160 C   0  0  0  0  0  0  0  0  0  0  0  0
   -3.9117   23.0551  -28.4409 H   0  0  0  0  0  0  0  0  0  0  0  0
   -2.1700   23.4980  -27.2240 C   0  0  0  0  0  0  0  0  0  0  0  0
   -2.3913   22.7145  -26.4843 H   0  0  0  0  0  0  0  0  0  0  0  0
   -1.0410   24.3020  -27.0710 C   0  0  0  0  0  0  0  0  0  0  0  0
   -0.3668   24.1579  -26.2139 H   0  0  0  0  0  0  0  0  0  0  0  0
  1  2  1  0
  2  3  1  0
  3  4  1  0
  4  5  2  0
  5  6  1  0
  6  7  2  0
  6  8  2  0
  6  9  1  0
  9 10  2  0
 10 11  1  0
 10 12  1  0
 12 13  1  0
 12 14  2  0
 14 15  1  0
 15 16  1  0
 16 17  2  0
 16 18  2  0
 16 19  1  0
 19 20  1  0
 20 21  1  0
 21 22  1  0
 21 23  1  0
 21 24  1  0
 20 25  2  0
 25 26  1  0
 26 27  1  0
 27 28  1  0
 28 29  1  0
 28 30  1  0
 28 31  1  0
 14 32  1  0
 32 33  1  0
 32 34  2  0
 34 35  1  0
  4 36  1  0
 36 37  1  0
 36 38  2  0
 38 39  1  0
 38 40  1  0
 40 41  1  0
 40  2  2  0
 34  9  1  0
 27 19  2  0
M  CHG  2   3  -1  15  -1
M  END
>  <UniqueID>  (34) 
33

>  <SMILES>  (34) 
Cc1noc(C)c1S(=O)(=O)[N-]c1ccc(S(=O)(=O)/N=c2\cccc[n-]2)cc1

>  <Energy>  (34) 
80.78825367553827

>  <Genealogy>  (34) 
Cc1noc(C)c1S(=O)(=O)[N-]c1ccc(S(=O)(=O)N=c2cccc[n-]2)cc1 (protonated)
Cc1noc(C)c1S(=O)(=O)[N-]c1ccc(S(=O)(=O)/N=c2\cccc[n-]2)cc1 (cis-trans isomerization)
Cc1noc(C)c1S(=O)(=O)[N-]c1ccc(S(=O)(=O)/N=c2\cccc[n-]2)cc1 (3D coordinates assigned)
Cc1noc(C)c1S(=O)(=O)[N-]c1ccc(S(=O)(=O)/N=c2\cccc[n-]2)cc1 (optimized conformer: 80.78825367553827 kcal/mol)

>  <smiles>  (34) 
Cc1noc(C)c1S(=O)(=O)Nc1ccc(S(=O)(=O)N=c2cccc[nH]2)cc1

>  <score_type>  (34) 
oracle

>  <origin>  (34) 
adgpu

>  <m_score__min__energy>  (34) 
-10.609999999999999

>  <m_primary>  (34) 
energy

$$$$
34:0
     RDKit          3D

 37 39  0  0  0  0  0  0  0  0999 V2000
   -2.1440   15.4940  -33.0010 C   0  0  0  0  0  0  0  0  0  0  0  0
   -3.5270   15.0630  -33.4030 C   0  0  0  0  0  0  0  0  0  0  0  0
   -4.5630   15.9970  -33.5140 C   0  0  0  0  0  0  0  0  0  0  0  0
   -5.8180   15.6110  -33.8980 N   0  0  0  0  0  0  0  0  0  0  0  0
   -6.8740   16.6270  -34.0280 C   0  0  0  0  0  0  0  0  0  0  0  0
   -6.3970   17.9480  -33.4810 C   0  0  0  0  0  0  0  0  0  0  0  0
   -5.8050   18.8960  -34.3260 C   0  0  0  0  0  0  0  0  0  0  0  0
   -5.3300   20.1060  -33.8110 C   0  0  0  0  0  0  0  0  0  0  0  0
   -5.4340   20.3850  -32.4360 C   0  0  0  0  0  0  0  0  0  0  0  0
   -4.9290   21.6690  -31.8870 C   0  0  0  0  0  0  0  0  0  0  0  0
   -3.5910   21.7920  -31.4680 C   0  0  0  0  0  0  0  0  0  0  0  0
   -3.1180   23.0010  -30.9500 C   0  0  0  0  0  0  0  0  0  0  0  0
   -3.9730   24.1010  -30.8450 C   0  0  0  0  0  0  0  0  0  0  0  0
   -3.5010   25.3030  -30.3300 O   0  0  0  0  0  0  0  0  0  0  0  0
   -5.3040   23.9920  -31.2570 C   0  0  0  0  0  0  0  0  0  0  0  0
   -5.7810   22.7840  -31.7750 C   0  0  0  0  0  0  0  0  0  0  0  0
   -6.0210   19.4270  -31.5900 C   0  0  0  0  0  0  0  0  0  0  0  0
   -6.4950   18.2180  -32.1090 C   0  0  0  0  0  0  0  0  0  0  0  0
   -6.0580   14.2950  -34.2000 C   0  0  0  0  0  0  0  0  0  0  0  0
   -7.2030   13.9160  -34.5680 O   0  0  0  0  0  0  0  0  0  0  0  0
   -5.0610   13.3790  -34.1090 N   0  0  0  0  0  0  0  0  0  0  0  0
   -3.8090   13.7290  -33.7220 C   0  0  0  0  0  0  0  0  0  0  0  0
   -2.9120   12.8480  -33.6580 O   0  0  0  0  0  0  0  0  0  0  0  0
   -2.0715   15.5166  -31.9036 H   0  0  0  0  0  0  0  0  0  0  0  0
   -1.4071   14.7829  -33.4026 H   0  0  0  0  0  0  0  0  0  0  0  0
   -1.9415   16.4978  -33.4026 H   0  0  0  0  0  0  0  0  0  0  0  0
   -4.3657   17.0556  -33.2895 H   0  0  0  0  0  0  0  0  0  0  0  0
   -7.1343   16.7464  -35.0901 H   0  0  0  0  0  0  0  0  0  0  0  0
   -7.7570   16.3011  -33.4587 H   0  0  0  0  0  0  0  0  0  0  0  0
   -5.7133   18.6869  -35.4020 H   0  0  0  0  0  0  0  0  0  0  0  0
   -4.8720   20.8446  -34.4853 H   0  0  0  0  0  0  0  0  0  0  0  0
   -2.9123   20.9301  -31.5488 H   0  0  0  0  0  0  0  0  0  0  0  0
   -2.0708   23.0866  -30.6244 H   0  0  0  0  0  0  0  0  0  0  0  0
   -5.9774   24.8578  -31.1736 H   0  0  0  0  0  0  0  0  0  0  0  0
   -6.8297   22.7044  -32.0973 H   0  0  0  0  0  0  0  0  0  0  0  0
   -6.1079   19.6301  -30.5124 H   0  0  0  0  0  0  0  0  0  0  0  0
   -6.9475   17.4744  -31.4365 H   0  0  0  0  0  0  0  0  0  0  0  0
  1  2  1  0
  2  3  2  0
  3  4  1  0
  4  5  1  0
  5  6  1  0
  6  7  2  0
  7  8  1  0
  8  9  2  0
  9 10  1  0
 10 11  2  0
 11 12  1  0
 12 13  2  0
 13 14  1  0
 13 15  1  0
 15 16  2  0
  9 17  1  0
 17 18  2  0
  4 19  1  0
 19 20  2  0
 19 21  1  0
 21 22  1  0
 22 23  2  0
 22  2  1  0
 18  6  1  0
 16 10  1  0
  1 24  1  0
  1 25  1  0
  1 26  1  0
  3 27  1  0
  5 28  1  0
  5 29  1  0
  7 30  1  0
  8 31  1  0
 11 32  1  0
 12 33  1  0
 15 34  1  0
 16 35  1  0
 17 36  1  0
 18 37  1  0
M  CHG  2  14  -1  21  -1
M  END
>  <UniqueID>  (35) 
34

>  <SMILES>  (35) 
Cc1cn(Cc2ccc(-c3ccc([O-])cc3)cc2)c(=O)[n-]c1=O

>  <Energy>  (35) 
46.88508449448476

>  <Genealogy>  (35) 
Cc1cn(Cc2ccc(-c3ccc([O-])cc3)cc2)c(=O)[n-]c1=O (protonated)
Cc1cn(Cc2ccc(-c3ccc([O-])cc3)cc2)c(=O)[n-]c1=O (3D coordinates assigned)
Cc1cn(Cc2ccc(-c3ccc([O-])cc3)cc2)c(=O)[n-]c1=O (optimized conformer: 46.88508449448476 kcal/mol)

>  <smiles>  (35) 
Cc1cn(Cc2ccc(-c3ccc(O)cc3)cc2)c(=O)[nH]c1=O

>  <score_type>  (35) 
oracle

>  <origin>  (35) 
adgpu

>  <m_score__min__energy>  (35) 
-9.8399999999999999

>  <m_primary>  (35) 
energy

$$$$
35:0
     RDKit          3D

 30 31  0  0  0  0  0  0  0  0999 V2000
   -4.1040   24.5810  -28.2490 N   0  0  0  0  0  0  0  0  0  0  0  0
   -4.6740   24.4190  -29.3980 C   0  0  0  0  0  0  0  0  0  0  0  0
   -4.2630   25.0390  -30.5250 N   0  0  0  0  0  0  0  0  0  0  0  0
   -5.0020   24.7180  -31.5850 N   0  0  0  0  0  0  0  0  0  0  0  0
   -5.9950   23.8480  -31.2950 C   0  0  0  0  0  0  0  0  0  0  0  0
   -7.1560   23.2320  -32.5110 S   0  0  0  0  0  0  0  0  0  0  0  0
   -6.4230   21.5610  -32.5870 C   0  0  0  0  0  0  0  0  0  0  0  0
   -4.9310   21.6320  -32.4720 C   0  0  0  0  0  0  0  0  0  0  0  0
   -4.2550   22.0520  -33.4490 O   0  0  0  0  0  0  0  0  0  0  0  0
   -4.2830   21.1940  -31.2680 N   0  0  0  0  0  0  0  0  0  0  0  0
   -2.9140   21.4820  -30.9390 C   0  0  0  0  0  0  0  0  0  0  0  0
   -1.8530   20.7720  -31.5320 C   0  0  0  0  0  0  0  0  0  0  0  0
   -0.5290   21.0930  -31.2180 C   0  0  0  0  0  0  0  0  0  0  0  0
   -0.2510   22.1280  -30.3220 C   0  0  0  0  0  0  0  0  0  0  0  0
   -1.2980   22.8530  -29.7370 C   0  0  0  0  0  0  0  0  0  0  0  0
   -0.9510   24.1770  -28.6310 S   0  0  0  0  0  0  0  0  0  0  0  0
   -1.4900   25.6650  -29.3230 N   0  0  0  0  0  0  0  0  0  0  0  0
   -1.6550   23.9450  -27.3230 O   0  0  0  0  0  0  0  0  0  0  0  0
    0.5290   24.2540  -28.3730 O   0  0  0  0  0  0  0  0  0  0  0  0
   -2.6250   22.5360  -30.0590 C   0  0  0  0  0  0  0  0  0  0  0  0
   -6.0000   23.4200  -29.6640 S   0  0  0  0  0  0  0  0  0  0  0  0
   -3.2810   25.2140  -28.1390 H   0  0  0  0  0  0  0  0  0  0  0  0
   -6.8205   20.9543  -31.7600 H   0  0  0  0  0  0  0  0  0  0  0  0
   -6.6821   21.1046  -33.5537 H   0  0  0  0  0  0  0  0  0  0  0  0
   -4.8270   20.5800  -30.6200 H   0  0  0  0  0  0  0  0  0  0  0  0
   -2.0663   19.9619  -32.2449 H   0  0  0  0  0  0  0  0  0  0  0  0
    0.2960   20.5290  -31.6777 H   0  0  0  0  0  0  0  0  0  0  0  0
    0.7922   22.3745  -30.0750 H   0  0  0  0  0  0  0  0  0  0  0  0
   -2.5340   25.6310  -29.3430 H   0  0  0  0  0  0  0  0  0  0  0  0
   -3.4471   23.1187  -29.6179 H   0  0  0  0  0  0  0  0  0  0  0  0
  1  2  2  3
  2  3  1  0
  3  4  1  0
  4  5  2  0
  5  6  1  0
  6  7  1  0
  7  8  1  0
  8  9  2  0
  8 10  1  0
 10 11  1  0
 11 12  2  0
 12 13  1  0
 13 14  2  0
 14 15  1  0
 15 16  1  0
 16 17  1  0
 16 18  2  0
 16 19  2  0
 15 20  2  0
  5 21  1  0
 21  2  1  0
 20 11  1  0
  1 22  1  0
  7 23  1  0
  7 24  1  0
 10 25  1  0
 12 26  1  0
 13 27  1  0
 14 28  1  0
 17 29  1  0
 20 30  1  0
M  CHG  2   3  -1  17  -1
M  END
>  <UniqueID>  (36) 
35

>  <SMILES>  (36) 
N=c1[n-]nc(SCC(=O)Nc2cccc(S([NH-])(=O)=O)c2)s1

>  <Energy>  (36) 
62.481306197448134

>  <Genealogy>  (36) 
N=c1[n-]nc(SCC(=O)Nc2cccc(S([NH-])(=O)=O)c2)s1 (protonated)
N=c1[n-]nc(SCC(=O)Nc2cccc(S([NH-])(=O)=O)c2)s1 (3D coordinates assigned)
N=c1[n-]nc(SCC(=O)Nc2cccc(S([NH-])(=O)=O)c2)s1 (optimized conformer: 62.481306197448134 kcal/mol)

>  <smiles>  (36) 
N=c1[nH]nc(SCC(=O)Nc2cccc(S(N)(=O)=O)c2)s1

>  <score_type>  (36) 
oracle

>  <origin>  (36) 
adgpu

>  <m_score__min__energy>  (36) 
-10.75

>  <m_primary>  (36) 
energy

$$$$
36:0
     RDKit          3D

 59 62  0  0  0  0  0  0  0  0999 V2000
   -1.9050   17.0540  -34.8620 O   0  0  0  0  0  0  0  0  0  0  0  0
   -2.7530   17.9490  -34.6000 C   0  0  0  0  0  0  0  0  0  0  0  0
   -4.1170   17.7940  -35.0160 N   0  0  0  0  0  0  0  0  0  0  0  0
   -5.2870   17.8550  -34.1850 C   0  0  0  0  0  0  0  0  0  0  0  0
   -5.7460   16.6730  -33.5920 C   0  0  0  0  0  0  0  0  0  0  0  0
   -6.8670   16.6890  -32.7570 C   0  0  0  0  0  0  0  0  0  0  0  0
   -7.5330   17.8890  -32.5030 C   0  0  0  0  0  0  0  0  0  0  0  0
   -7.0810   19.0870  -33.0860 C   0  0  0  0  0  0  0  0  0  0  0  0
   -7.7040   20.3170  -32.8280 O   0  0  0  0  0  0  0  0  0  0  0  0
   -7.1020   21.4110  -32.1880 C   0  0  0  0  0  0  0  0  0  0  0  0
   -7.7920   22.0480  -31.1510 C   0  0  0  0  0  0  0  0  0  0  0  0
   -7.2190   23.1340  -30.4820 C   0  0  0  0  0  0  0  0  0  0  0  0
   -5.9420   23.5870  -30.8370 C   0  0  0  0  0  0  0  0  0  0  0  0
   -5.2070   24.9410  -29.9810 S   0  0  0  0  0  0  0  0  0  0  0  0
   -3.8760   25.2560  -30.6070 O   0  0  0  0  0  0  0  0  0  0  0  0
   -6.0830   26.1560  -30.0960 O   0  0  0  0  0  0  0  0  0  0  0  0
   -4.9660   24.5420  -28.3070 N   0  0  0  0  0  0  0  0  0  0  0  0
   -4.1860   23.3070  -28.1990 C   0  0  0  0  0  0  0  0  0  0  0  0
   -2.7010   23.6040  -28.4320 C   0  0  0  0  0  0  0  0  0  0  0  0
   -2.3570   24.9580  -27.9520 N   0  0  0  0  0  0  0  0  0  0  0  0
   -2.4800   25.0560  -26.4950 C   0  0  0  0  0  0  0  0  0  0  0  0
   -1.5590   26.1820  -26.0540 C   0  0  0  0  0  0  0  0  0  0  0  0
   -0.5320   26.3140  -27.1680 C   0  0  0  0  0  0  0  0  0  0  0  0
   -0.9680   25.3310  -28.2460 C   0  0  0  0  0  0  0  0  0  0  0  0
   -5.2360   22.9340  -31.8550 C   0  0  0  0  0  0  0  0  0  0  0  0
   -5.8100   21.8510  -32.5260 C   0  0  0  0  0  0  0  0  0  0  0  0
   -5.9470   19.0670  -33.9070 C   0  0  0  0  0  0  0  0  0  0  0  0
   -2.3510   19.1380  -33.8110 C   0  0  0  0  0  0  0  0  0  0  0  0
   -1.3920   20.0380  -34.3140 C   0  0  0  0  0  0  0  0  0  0  0  0
   -1.0080   21.1550  -33.5640 C   0  0  0  0  0  0  0  0  0  0  0  0
   -1.5780   21.3900  -32.3110 C   0  0  0  0  0  0  0  0  0  0  0  0
   -2.5350   20.5060  -31.8020 C   0  0  0  0  0  0  0  0  0  0  0  0
   -3.2520   20.8020  -30.2280 Cl  0  0  0  0  0  0  0  0  0  0  0  0
   -2.9200   19.3860  -32.5470 C   0  0  0  0  0  0  0  0  0  0  0  0
   -5.2212   15.7255  -33.7843 H   0  0  0  0  0  0  0  0  0  0  0  0
   -7.2247   15.7547  -32.2996 H   0  0  0  0  0  0  0  0  0  0  0  0
   -8.4143   17.8981  -31.8448 H   0  0  0  0  0  0  0  0  0  0  0  0
   -8.7914   21.6923  -30.8601 H   0  0  0  0  0  0  0  0  0  0  0  0
   -7.7730   23.6343  -29.6741 H   0  0  0  0  0  0  0  0  0  0  0  0
   -4.4050   25.3210  -27.8890 H   0  0  0  0  0  0  0  0  0  0  0  0
   -4.3188   22.8788  -27.1945 H   0  0  0  0  0  0  0  0  0  0  0  0
   -4.5350   22.5916  -28.9582 H   0  0  0  0  0  0  0  0  0  0  0  0
   -2.0953   22.8637  -27.8888 H   0  0  0  0  0  0  0  0  0  0  0  0
   -2.4947   23.5486  -29.5111 H   0  0  0  0  0  0  0  0  0  0  0  0
   -3.5193   25.2852  -26.2168 H   0  0  0  0  0  0  0  0  0  0  0  0
   -2.2059   24.1075  -26.0100 H   0  0  0  0  0  0  0  0  0  0  0  0
   -2.1235   27.1188  -25.9363 H   0  0  0  0  0  0  0  0  0  0  0  0
   -1.0880   25.9722  -25.0823 H   0  0  0  0  0  0  0  0  0  0  0  0
   -0.5251   27.3401  -27.5642 H   0  0  0  0  0  0  0  0  0  0  0  0
    0.4860   26.1004  -26.8103 H   0  0  0  0  0  0  0  0  0  0  0  0
   -0.9060   25.8051  -29.2367 H   0  0  0  0  0  0  0  0  0  0  0  0
   -0.3173   24.4442  -28.2543 H   0  0  0  0  0  0  0  0  0  0  0  0
   -4.2262   23.2748  -32.1273 H   0  0  0  0  0  0  0  0  0  0  0  0
   -5.2486   21.3404  -33.3223 H   0  0  0  0  0  0  0  0  0  0  0  0
   -5.5688   20.0057  -34.3382 H   0  0  0  0  0  0  0  0  0  0  0  0
   -0.9421   19.8619  -35.3022 H   0  0  0  0  0  0  0  0  0  0  0  0
   -0.2546   21.8504  -33.9627 H   0  0  0  0  0  0  0  0  0  0  0  0
   -1.2745   22.2698  -31.7246 H   0  0  0  0  0  0  0  0  0  0  0  0
   -3.6730   18.6938  -32.1422 H   0  0  0  0  0  0  0  0  0  0  0  0
  1  2  2  0
  2  3  1  0
  3  4  1  0
  4  5  2  0
  5  6  1  0
  6  7  2  0
  7  8  1  0
  8  9  1  0
  9 10  1  0
 10 11  2  0
 11 12  1  0
 12 13  2  0
 13 14  1  0
 14 15  2  0
 14 16  2  0
 14 17  1  0
 17 18  1  0
 18 19  1  0
 19 20  1  0
 20 21  1  0
 21 22  1  0
 22 23  1  0
 23 24  1  0
 13 25  1  0
 25 26  2  0
  8 27  2  0
  2 28  1  0
 28 29  2  0
 29 30  1  0
 30 31  2  0
 31 32  1  0
 32 33  1  0
 32 34  2  0
 27  4  1  0
 34 28  1  0
 26 10  1  0
 24 20  1  0
  5 35  1  0
  6 36  1  0
  7 37  1  0
 11 38  1  0
 12 39  1  0
 17 40  1  0
 18 41  1  0
 18 42  1  0
 19 43  1  0
 19 44  1  0
 21 45  1  0
 21 46  1  0
 22 47  1  0
 22 48  1  0
 23 49  1  0
 23 50  1  0
 24 51  1  0
 24 52  1  0
 25 53  1  0
 26 54  1  0
 27 55  1  0
 29 56  1  0
 30 57  1  0
 31 58  1  0
 34 59  1  0
M  CHG  1   3  -1
M  END
>  <UniqueID>  (37) 
36

>  <SMILES>  (37) 
O=C([N-]c1cccc(Oc2ccc(S(=O)(=O)NCCN3CCCC3)cc2)c1)c1cccc(Cl)c1

>  <Energy>  (37) 
70.78090025340536

>  <Genealogy>  (37) 
O=C([N-]c1cccc(Oc2ccc(S(=O)(=O)NCCN3CCCC3)cc2)c1)c1cccc(Cl)c1 (protonated)
O=C([N-]c1cccc(Oc2ccc(S(=O)(=O)NCCN3CCCC3)cc2)c1)c1cccc(Cl)c1 (3D coordinates assigned)
O=C([N-]c1cccc(Oc2ccc(S(=O)(=O)NCCN3CCCC3)cc2)c1)c1cccc(Cl)c1 (nonaromatic ring conformer: 70.78090025340536 kcal/mol)

>  <smiles>  (37) 
O=C(Nc1cccc(Oc2ccc(S(=O)(=O)NCCN3CCCC3)cc2)c1)c1cccc(Cl)c1

>  <score_type>  (37) 
oracle

>  <origin>  (37) 
adgpu

>  <m_score__min__energy>  (37) 
-12.199999999999999

>  <m_primary>  (37) 
energy

$$$$
37:0
     RDKit          3D

 31 32  0  0  0  0  0  0  0  0999 V2000
   -4.2630   25.3000  -30.8530 O   0  0  0  0  0  0  0  0  0  0  0  0
   -4.2360   24.0440  -30.0290 S   0  0  0  0  0  0  0  0  0  0  0  0
   -3.5440   24.3240  -28.7230 O   0  0  0  0  0  0  0  0  0  0  0  0
   -5.8640   23.5170  -29.7280 N   0  0  0  0  0  0  0  0  0  0  0  0
   -6.8090   24.3730  -30.4530 C   0  0  0  0  0  0  0  0  0  0  0  0
   -7.6470   23.5520  -31.4350 C   0  0  0  0  0  0  0  0  0  0  0  0
   -6.8650   22.5380  -32.0720 O   0  0  0  0  0  0  0  0  0  0  0  0
   -7.2130   21.1830  -32.2050 C   0  0  0  0  0  0  0  0  0  0  0  0
   -8.3420   20.7250  -31.5150 C   0  0  0  0  0  0  0  0  0  0  0  0
   -8.7410   19.3880  -31.6100 C   0  0  0  0  0  0  0  0  0  0  0  0
   -8.0110   18.4950  -32.3960 C   0  0  0  0  0  0  0  0  0  0  0  0
   -6.8800   18.9360  -33.0880 C   0  0  0  0  0  0  0  0  0  0  0  0
   -5.9670   17.8130  -34.0790 Cl  0  0  0  0  0  0  0  0  0  0  0  0
   -6.4770   20.2730  -32.9940 C   0  0  0  0  0  0  0  0  0  0  0  0
   -3.3660   22.8010  -30.9070 C   0  0  0  0  0  0  0  0  0  0  0  0
   -2.1860   22.1930  -30.5010 C   0  0  0  0  0  0  0  0  0  0  0  0
   -1.7270   21.2340  -31.4100 C   0  0  0  0  0  0  0  0  0  0  0  0
   -2.5500   21.0970  -32.5190 C   0  0  0  0  0  0  0  0  0  0  0  0
   -2.2880   19.9940  -33.8540 Cl  0  0  0  0  0  0  0  0  0  0  0  0
   -3.8470   22.1580  -32.3860 S   0  0  0  0  0  0  0  0  0  0  0  0
   -5.9380   22.5490  -30.1180 H   0  0  0  0  0  0  0  0  0  0  0  0
   -7.4783   24.8631  -29.7306 H   0  0  0  0  0  0  0  0  0  0  0  0
   -6.2392   25.1241  -31.0198 H   0  0  0  0  0  0  0  0  0  0  0  0
   -8.4733   23.0749  -30.8877 H   0  0  0  0  0  0  0  0  0  0  0  0
   -8.0311   24.2300  -32.2114 H   0  0  0  0  0  0  0  0  0  0  0  0
   -8.9205   21.4233  -30.8924 H   0  0  0  0  0  0  0  0  0  0  0  0
   -9.6308   19.0399  -31.0649 H   0  0  0  0  0  0  0  0  0  0  0  0
   -8.3261   17.4438  -32.4707 H   0  0  0  0  0  0  0  0  0  0  0  0
   -5.5837   20.6158  -33.5368 H   0  0  0  0  0  0  0  0  0  0  0  0
   -1.6666   22.4394  -29.5632 H   0  0  0  0  0  0  0  0  0  0  0  0
   -0.8078   20.6484  -31.2611 H   0  0  0  0  0  0  0  0  0  0  0  0
  1  2  2  0
  2  3  2  0
  2  4  1  0
  4  5  1  0
  5  6  1  0
  6  7  1  0
  7  8  1  0
  8  9  2  0
  9 10  1  0
 10 11  2  0
 11 12  1  0
 12 13  1  0
 12 14  2  0
  2 15  1  0
 15 16  2  0
 16 17  1  0
 17 18  2  0
 18 19  1  0
 18 20  1  0
 14  8  1  0
 20 15  1  0
  4 21  1  0
  5 22  1  0
  5 23  1  0
  6 24  1  0
  6 25  1  0
  9 26  1  0
 10 27  1  0
 11 28  1  0
 14 29  1  0
 16 30  1  0
 17 31  1  0
M  END
>  <UniqueID>  (38) 
37

>  <SMILES>  (38) 
O=S(=O)(NCCOc1cccc(Cl)c1)c1ccc(Cl)s1

>  <Energy>  (38) 
54.98535017265892

>  <Genealogy>  (38) 
O=S(=O)(NCCOc1cccc(Cl)c1)c1ccc(Cl)s1 (3D coordinates assigned)
O=S(=O)(NCCOc1cccc(Cl)c1)c1ccc(Cl)s1 (optimized conformer: 54.98535017265892 kcal/mol)

>  <smiles>  (38) 
O=S(=O)(NCCOc1cccc(Cl)c1)c1ccc(Cl)s1

>  <score_type>  (38) 
oracle

>  <origin>  (38) 
adgpu

>  <m_score__min__energy>  (38) 
-8.4399999999999995

>  <m_primary>  (38) 
energy

$$$$
38:0
     RDKit          3D

 68 70  0  0  0  0  0  0  0  0999 V2000
   -7.6210   22.9450  -31.5570 C   0  0  0  0  0  0  0  0  0  0  0  0
   -6.3670   23.7880  -31.7930 C   0  0  0  0  0  0  0  0  0  0  0  0
   -6.1160   24.8230  -30.6780 C   0  0  0  0  0  0  0  0  0  0  0  0
   -4.6940   24.8010  -30.0760 C   0  0  0  0  0  0  0  0  0  0  0  0
   -4.6220   24.4740  -28.5690 C   0  0  0  0  0  0  0  0  0  0  0  0
   -4.1790   23.0360  -28.2740 C   0  0  0  0  0  0  0  0  0  0  0  0
   -4.4260   22.2000  -29.4090 O   0  0  0  0  0  0  0  0  0  0  0  0
   -3.4130   21.7300  -30.2600 C   0  0  0  0  0  0  0  0  0  0  0  0
   -3.3830   22.0810  -31.6240 C   0  0  0  0  0  0  0  0  0  0  0  0
   -2.3680   21.5950  -32.4580 C   0  0  0  0  0  0  0  0  0  0  0  0
   -1.3630   20.7840  -31.9340 C   0  0  0  0  0  0  0  0  0  0  0  0
   -1.3870   20.4240  -30.5840 C   0  0  0  0  0  0  0  0  0  0  0  0
   -2.4130   20.8830  -29.7470 C   0  0  0  0  0  0  0  0  0  0  0  0
   -2.4170   20.3640  -28.0270 S   0  0  0  0  0  0  0  0  0  0  0  0
   -0.7220   19.7570  -28.0430 C   0  0  0  0  0  0  0  0  0  0  0  0
   -0.4960   18.4340  -28.4490 C   0  0  0  0  0  0  0  0  0  0  0  0
    0.8030   17.9340  -28.5390 C   0  0  0  0  0  0  0  0  0  0  0  0
    1.8890   18.7590  -28.2350 C   0  0  0  0  0  0  0  0  0  0  0  0
    1.6780   20.0830  -27.8410 C   0  0  0  0  0  0  0  0  0  0  0  0
    0.3680   20.5940  -27.7260 C   0  0  0  0  0  0  0  0  0  0  0  0
    0.1210   21.9070  -27.2920 O   0  0  0  0  0  0  0  0  0  0  0  0
   -0.6890   22.2430  -26.1700 C   0  0  0  0  0  0  0  0  0  0  0  0
   -0.8270   23.7370  -26.0730 C   0  0  0  0  0  0  0  0  0  0  0  0
   -1.2170   24.4710  -27.2020 C   0  0  0  0  0  0  0  0  0  0  0  0
   -1.3290   25.8600  -27.1370 C   0  0  0  0  0  0  0  0  0  0  0  0
   -1.0770   26.5290  -25.9380 C   0  0  0  0  0  0  0  0  0  0  0  0
   -0.7290   25.8070  -24.7850 C   0  0  0  0  0  0  0  0  0  0  0  0
   -0.5240   26.5310  -23.4680 C   0  0  0  0  0  0  0  0  0  0  0  0
    0.8950   26.8410  -23.1670 N   0  0  0  0  0  0  0  0  0  0  0  0
    1.8260   26.2080  -24.1250 C   0  0  0  0  0  0  0  0  0  0  0  0
    1.1470   28.2900  -23.0850 C   0  0  0  0  0  0  0  0  0  0  0  0
   -0.5810   24.4100  -24.8650 C   0  0  0  0  0  0  0  0  0  0  0  0
   -7.7888   22.8322  -30.4757 H   0  0  0  0  0  0  0  0  0  0  0  0
   -8.4891   23.4436  -32.0128 H   0  0  0  0  0  0  0  0  0  0  0  0
   -7.4870   21.9529  -32.0128 H   0  0  0  0  0  0  0  0  0  0  0  0
   -5.4983   23.1155  -31.8486 H   0  0  0  0  0  0  0  0  0  0  0  0
   -6.5172   24.3446  -32.7298 H   0  0  0  0  0  0  0  0  0  0  0  0
   -6.2944   25.8248  -31.0958 H   0  0  0  0  0  0  0  0  0  0  0  0
   -6.8015   24.5639  -29.8576 H   0  0  0  0  0  0  0  0  0  0  0  0
   -4.1075   24.0437  -30.6167 H   0  0  0  0  0  0  0  0  0  0  0  0
   -4.3010   25.8226  -30.1853 H   0  0  0  0  0  0  0  0  0  0  0  0
   -3.9053   25.1625  -28.0975 H   0  0  0  0  0  0  0  0  0  0  0  0
   -5.6388   24.5879  -28.1650 H   0  0  0  0  0  0  0  0  0  0  0  0
   -3.1035   23.0272  -28.0434 H   0  0  0  0  0  0  0  0  0  0  0  0
   -4.7503   22.6535  -27.4154 H   0  0  0  0  0  0  0  0  0  0  0  0
   -4.1609   22.7404  -32.0364 H   0  0  0  0  0  0  0  0  0  0  0  0
   -2.3641   21.8536  -33.5272 H   0  0  0  0  0  0  0  0  0  0  0  0
   -0.5503   20.4270  -32.5836 H   0  0  0  0  0  0  0  0  0  0  0  0
   -0.5964   19.7770  -30.1762 H   0  0  0  0  0  0  0  0  0  0  0  0
   -1.3491   17.7859  -28.6983 H   0  0  0  0  0  0  0  0  0  0  0  0
    0.9722   16.8922  -28.8487 H   0  0  0  0  0  0  0  0  0  0  0  0
    2.9135   18.3649  -28.3061 H   0  0  0  0  0  0  0  0  0  0  0  0
    2.5388   20.7309  -27.6191 H   0  0  0  0  0  0  0  0  0  0  0  0
   -1.6847   21.7909  -26.2895 H   0  0  0  0  0  0  0  0  0  0  0  0
   -0.2171   21.8607  -25.2529 H   0  0  0  0  0  0  0  0  0  0  0  0
   -1.4360   23.9485  -28.1449 H   0  0  0  0  0  0  0  0  0  0  0  0
   -1.6167   26.4296  -28.0330 H   0  0  0  0  0  0  0  0  0  0  0  0
   -1.1513   27.6257  -25.8963 H   0  0  0  0  0  0  0  0  0  0  0  0
   -1.0855   27.4763  -23.5014 H   0  0  0  0  0  0  0  0  0  0  0  0
   -0.8788   25.8569  -22.6745 H   0  0  0  0  0  0  0  0  0  0  0  0
    1.1080   26.4380  -22.2190 H   0  0  0  0  0  0  0  0  0  0  0  0
    2.6127   25.6731  -23.5728 H   0  0  0  0  0  0  0  0  0  0  0  0
    1.2740   25.4972  -24.7575 H   0  0  0  0  0  0  0  0  0  0  0  0
    2.2840   26.9827  -24.7575 H   0  0  0  0  0  0  0  0  0  0  0  0
    1.1998   28.5938  -22.0291 H   0  0  0  0  0  0  0  0  0  0  0  0
    2.0995   28.5252  -23.5823 H   0  0  0  0  0  0  0  0  0  0  0  0
    0.3298   28.8330  -23.5823 H   0  0  0  0  0  0  0  0  0  0  0  0
   -0.2707   23.8414  -23.9759 H   0  0  0  0  0  0  0  0  0  0  0  0
  1  2  1  0
  2  3  1  0
  3  4  1  0
  4  5  1  0
  5  6  1  0
  6  7  1  0
  7  8  1  0
  8  9  2  0
  9 10  1  0
 10 11  2  0
 11 12  1  0
 12 13  2  0
 13 14  1  0
 14 15  1  0
 15 16  2  0
 16 17  1  0
 17 18  2  0
 18 19  1  0
 19 20  2  0
 20 21  1  0
 21 22  1  0
 22 23  1  0
 23 24  2  0
 24 25  1  0
 25 26  2  0
 26 27  1  0
 27 28  1  0
 28 29  1  0
 29 30  1  0
 29 31  1  0
 27 32  2  0
 13  8  1  0
 20 15  1  0
 32 23  1  0
  1 33  1  0
  1 34  1  0
  1 35  1  0
  2 36  1  0
  2 37  1  0
  3 38  1  0
  3 39  1  0
  4 40  1  0
  4 41  1  0
  5 42  1  0
  5 43  1  0
  6 44  1  0
  6 45  1  0
  9 46  1  0
 10 47  1  0
 11 48  1  0
 12 49  1  0
 16 50  1  0
 17 51  1  0
 18 52  1  0
 19 53  1  0
 22 54  1  0
 22 55  1  0
 24 56  1  0
 25 57  1  0
 26 58  1  0
 28 59  1  0
 28 60  1  0
 29 61  1  0
 30 62  1  0
 30 63  1  0
 30 64  1  0
 31 65  1  0
 31 66  1  0
 31 67  1  0
 32 68  1  0
M  CHG  1  29   1
M  END
>  <UniqueID>  (39) 
38

>  <SMILES>  (39) 
CCCCCCOc1ccccc1Sc1ccccc1OCc1cccc(C[NH+](C)C)c1

>  <Energy>  (39) 
60.183564770452755

>  <Genealogy>  (39) 
CCCCCCOc1ccccc1Sc1ccccc1OCc1cccc(C[NH+](C)C)c1 (protonated)
CCCCCCOc1ccccc1Sc1ccccc1OCc1cccc(C[NH+](C)C)c1 (3D coordinates assigned)
CCCCCCOc1ccccc1Sc1ccccc1OCc1cccc(C[NH+](C)C)c1 (optimized conformer: 60.183564770452755 kcal/mol)

>  <smiles>  (39) 
CCCCCCOc1ccccc1Sc1ccccc1OCc1cccc(CN(C)C)c1

>  <score_type>  (39) 
oracle

>  <origin>  (39) 
adgpu

>  <m_score__min__energy>  (39) 
-8.6400000000000006

>  <m_primary>  (39) 
energy

$$$$
39:0
     RDKit          3D

 35 36  0  0  1  0  0  0  0  0999 V2000
   -1.6560   18.8950  -26.7710 C   0  0  0  0  0  0  0  0  0  0  0  0
   -3.1210   19.8800  -27.1810 S   0  0  0  0  0  0  0  0  0  0  0  0
   -2.5320   21.4520  -27.7940 C   0  0  0  0  0  0  0  0  0  0  0  0
   -3.2750   22.0810  -28.7260 N   0  0  0  0  0  0  0  0  0  0  0  0
   -2.8990   23.2670  -29.2370 C   0  0  0  0  0  0  0  0  0  0  0  0
   -3.5780   23.9060  -30.1290 N   0  0  0  0  0  0  0  0  0  0  0  0
   -4.7880   23.3210  -30.5960 C   0  0  0  0  0  0  0  0  0  0  0  0
   -4.7700   22.1980  -31.3990 C   0  0  0  0  0  0  0  0  0  0  0  0
   -3.5160   21.5520  -31.8120 C   0  0  0  0  0  0  0  0  0  0  0  0
   -5.9620   21.6460  -31.8410 C   0  0  0  0  0  0  0  0  0  0  0  0
   -7.1780   22.2250  -31.4750 C   0  0  0  0  0  0  0  0  0  0  0  0
   -8.4280   21.6470  -31.9380 C   0  0  0  0  0  0  0  0  0  0  0  0
   -9.4480   21.1850  -32.2990 N   0  0  0  0  0  0  0  0  0  0  0  0
   -7.1800   23.3570  -30.6650 C   0  0  0  0  0  0  0  0  0  0  0  0
   -5.9900   23.9200  -30.2150 C   0  0  0  0  0  0  0  0  0  0  0  0
   -5.9850   25.1320  -29.3470 C   0  0  0  0  0  0  0  0  0  0  0  0
   -1.7170   23.8700  -28.8010 C   0  0  0  0  0  0  0  0  0  0  0  0
   -1.3070   25.1270  -29.3330 N   0  0  0  0  0  0  0  0  0  0  0  0
   -0.9620   23.2140  -27.8430 C   0  0  0  0  0  0  0  0  0  0  0  0
    0.5470   23.9250  -27.2500 Cl  0  0  0  0  0  0  0  0  0  0  0  0
   -1.3890   22.0200  -27.3630 N   0  0  0  0  0  0  0  0  0  0  0  0
   -1.5543   18.8266  -25.6778 H   0  0  0  0  0  0  0  0  0  0  0  0
   -1.7634   17.8849  -27.1932 H   0  0  0  0  0  0  0  0  0  0  0  0
   -0.7611   19.3756  -27.1932 H   0  0  0  0  0  0  0  0  0  0  0  0
   -2.9441   21.2574  -30.9197 H   0  0  0  0  0  0  0  0  0  0  0  0
   -3.7440   20.6591  -32.4127 H   0  0  0  0  0  0  0  0  0  0  0  0
   -2.9214   22.2560  -32.4127 H   0  0  0  0  0  0  0  0  0  0  0  0
   -5.9496   20.7511  -32.4806 H   0  0  0  0  0  0  0  0  0  0  0  0
   -8.1380   23.8138  -30.3760 H   0  0  0  0  0  0  0  0  0  0  0  0
   -5.9863   24.8263  -28.2903 H   0  0  0  0  0  0  0  0  0  0  0  0
   -5.0844   25.7283  -29.5551 H   0  0  0  0  0  0  0  0  0  0  0  0
   -6.8807   25.7357  -29.5551 H   0  0  0  0  0  0  0  0  0  0  0  0
   -0.3560   25.5310  -29.1620 H   0  0  0  0  0  0  0  0  0  0  0  0
   -1.9790   25.6690  -29.9180 H   0  0  0  0  0  0  0  0  0  0  0  0
   -0.8130   21.5210  -26.6330 H   0  0  0  0  0  0  0  0  0  0  0  0
  1  2  1  0
  2  3  1  0
  3  4  2  0
  4  5  1  0
  5  6  2  0
  6  7  1  0
  7  8  2  0
  8  9  1  0
  8 10  1  0
 10 11  2  0
 11 12  1  0
 12 13  3  0
 11 14  1  0
 14 15  2  0
 15 16  1  0
  5 17  1  0
 17 18  1  0
 17 19  2  0
 19 20  1  0
 19 21  1  0
 21  3  1  0
 15  7  1  0
  1 22  1  0
  1 23  1  0
  1 24  1  0
  9 25  1  0
  9 26  1  0
  9 27  1  0
 10 28  1  0
 14 29  1  0
 16 30  1  0
 16 31  1  0
 16 32  1  0
 18 33  1  0
 18 34  1  0
 21 35  1  0
M  END
>  <smiles>  (40) 
CSc1nc(=Nc2c(C)cc(C#N)cc2C)c(N)c(Cl)[nH]1

>  <score_type>  (40) 
oracle

>  <origin>  (40) 
adgpu

>  <m_score__min__energy>  (40) 
-7.7999999999999998

>  <m_primary>  (40) 
energy

$$$$
40:0
     RDKit          3D

 29 30  0  0  0  0  0  0  0  0999 V2000
   -9.4530   21.8740  -31.6770 C   0  0  0  0  0  0  0  0  0  0  0  0
   -9.1160   20.3960  -31.4860 C   0  0  0  0  0  0  0  0  0  0  0  0
   -8.4920   19.7780  -32.7390 C   0  0  0  0  0  0  0  0  0  0  0  0
   -7.0400   18.7540  -32.3140 S   0  0  0  0  0  0  0  0  0  0  0  0
   -5.8880   20.1250  -32.4290 C   0  0  0  0  0  0  0  0  0  0  0  0
   -4.7230   19.9960  -33.1900 C   0  0  0  0  0  0  0  0  0  0  0  0
   -3.8280   21.0640  -33.2810 C   0  0  0  0  0  0  0  0  0  0  0  0
   -4.0920   22.2620  -32.6130 C   0  0  0  0  0  0  0  0  0  0  0  0
   -5.2620   22.4070  -31.8400 C   0  0  0  0  0  0  0  0  0  0  0  0
   -5.5550   23.6380  -31.1450 N   0  0  0  0  0  0  0  0  0  0  0  0
   -6.6170   23.8960  -30.3510 C   0  0  0  0  0  0  0  0  0  0  0  0
   -6.5210   25.1920  -29.8960 C   0  0  0  0  0  0  0  0  0  0  0  0
   -5.3590   25.6780  -30.4600 C   0  0  0  0  0  0  0  0  0  0  0  0
   -4.7920   24.7180  -31.2160 N   0  0  0  0  0  0  0  0  0  0  0  0
   -6.1590   21.3260  -31.7620 C   0  0  0  0  0  0  0  0  0  0  0  0
   -9.5627   22.3551  -30.6939 H   0  0  0  0  0  0  0  0  0  0  0  0
   -8.6438   22.3652  -32.2373 H   0  0  0  0  0  0  0  0  0  0  0  0
  -10.3951   21.9658  -32.2373 H   0  0  0  0  0  0  0  0  0  0  0  0
   -8.4051   20.2998  -30.6521 H   0  0  0  0  0  0  0  0  0  0  0  0
  -10.0538   19.8605  -31.2769 H   0  0  0  0  0  0  0  0  0  0  0  0
   -9.2416   19.1480  -33.2403 H   0  0  0  0  0  0  0  0  0  0  0  0
   -8.1638   20.5911  -33.4032 H   0  0  0  0  0  0  0  0  0  0  0  0
   -4.5112   19.0539  -33.7169 H   0  0  0  0  0  0  0  0  0  0  0  0
   -2.9117   20.9615  -33.8809 H   0  0  0  0  0  0  0  0  0  0  0  0
   -3.3818   23.0984  -32.6907 H   0  0  0  0  0  0  0  0  0  0  0  0
   -7.4238   23.1888  -30.1084 H   0  0  0  0  0  0  0  0  0  0  0  0
   -7.2170   25.7229  -29.2299 H   0  0  0  0  0  0  0  0  0  0  0  0
   -4.9580   26.6920  -30.3147 H   0  0  0  0  0  0  0  0  0  0  0  0
   -7.0818   21.4252  -31.1716 H   0  0  0  0  0  0  0  0  0  0  0  0
  1  2  1  0
  2  3  1  0
  3  4  1  0
  4  5  1  0
  5  6  2  0
  6  7  1  0
  7  8  2  0
  8  9  1  0
  9 10  1  0
 10 11  1  0
 11 12  2  0
 12 13  1  0
 13 14  2  0
  9 15  2  0
 15  5  1  0
 14 10  1  0
  1 16  1  0
  1 17  1  0
  1 18  1  0
  2 19  1  0
  2 20  1  0
  3 21  1  0
  3 22  1  0
  6 23  1  0
  7 24  1  0
  8 25  1  0
 11 26  1  0
 12 27  1  0
 13 28  1  0
 15 29  1  0
M  END
>  <UniqueID>  (41) 
39

>  <SMILES>  (41) 
CCCSc1cccc(-n2cccn2)c1

>  <Energy>  (41) 
52.57423976042962

>  <Genealogy>  (41) 
CCCSc1cccc(-n2cccn2)c1 (3D coordinates assigned)
CCCSc1cccc(-n2cccn2)c1 (optimized conformer: 52.57423976042962 kcal/mol)

>  <smiles>  (41) 
CCCSc1cccc(-n2cccn2)c1

>  <score_type>  (41) 
oracle

>  <origin>  (41) 
adgpu

>  <m_score__min__energy>  (41) 
-6.5999999999999996

>  <m_primary>  (41) 
energy

$$$$
41:0
     RDKit          3D

 60 63  0  0  0  0  0  0  0  0999 V2000
   -9.8670   21.7400  -30.5740 C   0  0  0  0  0  0  0  0  0  0  0  0
   -8.5500   21.7710  -31.1120 O   0  0  0  0  0  0  0  0  0  0  0  0
   -7.9050   20.6770  -31.7130 C   0  0  0  0  0  0  0  0  0  0  0  0
   -8.6120   19.5200  -32.0910 C   0  0  0  0  0  0  0  0  0  0  0  0
   -7.9580   18.4630  -32.7270 C   0  0  0  0  0  0  0  0  0  0  0  0
   -6.5870   18.5410  -33.0100 C   0  0  0  0  0  0  0  0  0  0  0  0
   -5.9070   17.4160  -33.6950 C   0  0  0  0  0  0  0  0  0  0  0  0
   -6.1920   16.2300  -33.3680 O   0  0  0  0  0  0  0  0  0  0  0  0
   -4.9430   17.6580  -34.7320 N   0  0  0  0  0  0  0  0  0  0  0  0
   -4.1180   16.5930  -35.2990 C   0  0  0  0  0  0  0  0  0  0  0  0
   -3.0570   16.1650  -34.3180 C   0  0  0  0  0  0  0  0  0  0  0  0
   -3.2490   15.0260  -33.5220 C   0  0  0  0  0  0  0  0  0  0  0  0
   -2.2720   14.6270  -32.6050 C   0  0  0  0  0  0  0  0  0  0  0  0
   -2.5070   13.5440  -31.8220 F   0  0  0  0  0  0  0  0  0  0  0  0
   -1.0830   15.3680  -32.4700 C   0  0  0  0  0  0  0  0  0  0  0  0
   -0.0850   14.9870  -31.5050 N   0  0  0  0  0  0  0  0  0  0  0  0
    0.6040   16.0090  -30.7040 C   0  0  0  0  0  0  0  0  0  0  0  0
    1.1430   15.3970  -29.4030 C   0  0  0  0  0  0  0  0  0  0  0  0
    2.0010   14.2070  -29.6340 N   0  0  0  0  0  0  0  0  0  0  0  0
    3.4230   14.5750  -29.6710 C   0  0  0  0  0  0  0  0  0  0  0  0
    1.6380   13.3950  -30.8230 C   0  0  0  0  0  0  0  0  0  0  0  0
    0.1730   13.5700  -31.2330 C   0  0  0  0  0  0  0  0  0  0  0  0
   -0.8900   16.5030  -33.2730 C   0  0  0  0  0  0  0  0  0  0  0  0
   -1.8630   16.8950  -34.1960 C   0  0  0  0  0  0  0  0  0  0  0  0
   -1.6450   17.9930  -34.9640 F   0  0  0  0  0  0  0  0  0  0  0  0
   -5.8720   19.6830  -32.6120 C   0  0  0  0  0  0  0  0  0  0  0  0
   -6.5160   20.7490  -31.9600 C   0  0  0  0  0  0  0  0  0  0  0  0
   -5.7220   21.9300  -31.5380 C   0  0  0  0  0  0  0  0  0  0  0  0
   -4.3330   21.9720  -31.7490 C   0  0  0  0  0  0  0  0  0  0  0  0
   -3.5940   23.0940  -31.3670 C   0  0  0  0  0  0  0  0  0  0  0  0
   -4.2330   24.1890  -30.7770 C   0  0  0  0  0  0  0  0  0  0  0  0
   -3.4860   25.3000  -30.4030 O   0  0  0  0  0  0  0  0  0  0  0  0
   -5.6170   24.1600  -30.5680 C   0  0  0  0  0  0  0  0  0  0  0  0
   -6.4380   25.5270  -29.8310 Cl  0  0  0  0  0  0  0  0  0  0  0  0
   -6.3590   23.0370  -30.9500 C   0  0  0  0  0  0  0  0  0  0  0  0
   -9.8144   21.7412  -29.4753 H   0  0  0  0  0  0  0  0  0  0  0  0
  -10.4235   22.6253  -30.9154 H   0  0  0  0  0  0  0  0  0  0  0  0
  -10.3812   20.8295  -30.9154 H   0  0  0  0  0  0  0  0  0  0  0  0
   -9.6898   19.4479  -31.8834 H   0  0  0  0  0  0  0  0  0  0  0  0
   -8.5228   17.5620  -33.0083 H   0  0  0  0  0  0  0  0  0  0  0  0
   -4.8160   18.6250  -35.1070 H   0  0  0  0  0  0  0  0  0  0  0  0
   -4.7566   15.7304  -35.5401 H   0  0  0  0  0  0  0  0  0  0  0  0
   -3.6284   16.9699  -36.2091 H   0  0  0  0  0  0  0  0  0  0  0  0
   -4.1760   14.4419  -33.6201 H   0  0  0  0  0  0  0  0  0  0  0  0
    1.4423   16.4206  -31.2853 H   0  0  0  0  0  0  0  0  0  0  0  0
   -0.1105   16.8069  -30.4534 H   0  0  0  0  0  0  0  0  0  0  0  0
    1.7354   16.1594  -28.8760 H   0  0  0  0  0  0  0  0  0  0  0  0
    0.2767   15.0683  -28.8101 H   0  0  0  0  0  0  0  0  0  0  0  0
    3.8031   14.6734  -28.6435 H   0  0  0  0  0  0  0  0  0  0  0  0
    3.9902   13.7941  -30.1986 H   0  0  0  0  0  0  0  0  0  0  0  0
    3.5402   15.5331  -30.1986 H   0  0  0  0  0  0  0  0  0  0  0  0
    2.2777   13.6982  -31.6649 H   0  0  0  0  0  0  0  0  0  0  0  0
    1.7856   12.3370  -30.5606 H   0  0  0  0  0  0  0  0  0  0  0  0
   -0.0289   12.9788  -32.1384 H   0  0  0  0  0  0  0  0  0  0  0  0
   -0.4823   13.2243  -30.4199 H   0  0  0  0  0  0  0  0  0  0  0  0
    0.0356   17.0892  -33.1747 H   0  0  0  0  0  0  0  0  0  0  0  0
   -4.7923   19.7439  -32.8135 H   0  0  0  0  0  0  0  0  0  0  0  0
   -3.8250   21.1163  -32.2177 H   0  0  0  0  0  0  0  0  0  0  0  0
   -2.5065   23.1163  -31.5307 H   0  0  0  0  0  0  0  0  0  0  0  0
   -7.4471   23.0201  -30.7894 H   0  0  0  0  0  0  0  0  0  0  0  0
  1  2  1  0
  2  3  1  0
  3  4  2  0
  4  5  1  0
  5  6  2  0
  6  7  1  0
  7  8  2  0
  7  9  1  0
  9 10  1  0
 10 11  1  0
 11 12  2  0
 12 13  1  0
 13 14  1  0
 13 15  2  0
 15 16  1  0
 16 17  1  0
 17 18  1  0
 18 19  1  0
 19 20  1  0
 19 21  1  0
 21 22  1  0
 15 23  1  0
 23 24  2  0
 24 25  1  0
  6 26  1  0
 26 27  2  0
 27 28  1  0
 28 29  2  0
 29 30  1  0
 30 31  2  0
 31 32  1  0
 31 33  1  0
 33 34  1  0
 33 35  2  0
 27  3  1  0
 35 28  1  0
 24 11  1  0
 22 16  1  0
  1 36  1  0
  1 37  1  0
  1 38  1  0
  4 39  1  0
  5 40  1  0
  9 41  1  0
 10 42  1  0
 10 43  1  0
 12 44  1  0
 17 45  1  0
 17 46  1  0
 18 47  1  0
 18 48  1  0
 20 49  1  0
 20 50  1  0
 20 51  1  0
 21 52  1  0
 21 53  1  0
 22 54  1  0
 22 55  1  0
 23 56  1  0
 26 57  1  0
 29 58  1  0
 30 59  1  0
 35 60  1  0
M  CHG  1  32  -1
M  END
>  <UniqueID>  (42) 
40

>  <SMILES>  (42) 
COc1ccc(C(=O)NCc2cc(F)c(N3CCN(C)CC3)cc2F)cc1-c1ccc([O-])c(Cl)c1

>  <Energy>  (42) 
81.36562018433925

>  <Genealogy>  (42) 
COc1ccc(C(=O)NCc2cc(F)c(N3CCN(C)CC3)cc2F)cc1-c1ccc([O-])c(Cl)c1 (protonated)
COc1ccc(C(=O)NCc2cc(F)c(N3CCN(C)CC3)cc2F)cc1-c1ccc([O-])c(Cl)c1 (3D coordinates assigned)
COc1ccc(C(=O)NCc2cc(F)c(N3CCN(C)CC3)cc2F)cc1-c1ccc([O-])c(Cl)c1 (nonaromatic ring conformer: 81.36562018433925 kcal/mol)

>  <smiles>  (42) 
COc1ccc(C(=O)NCc2cc(F)c(N3CCN(C)CC3)cc2F)cc1-c1ccc(O)c(Cl)c1

>  <score_type>  (42) 
oracle

>  <origin>  (42) 
adgpu

>  <m_score__min__energy>  (42) 
-11.67

>  <m_primary>  (42) 
energy

$$$$
42:0
     RDKit          3D

 35 38  0  0  0  0  0  0  0  0999 V2000
   -9.6790   21.5070  -32.2910 O   0  0  0  0  0  0  0  0  0  0  0  0
   -8.6240   20.8490  -32.0850 C   0  0  0  0  0  0  0  0  0  0  0  0
   -7.8590   21.0610  -30.8250 C   0  0  0  0  0  0  0  0  0  0  0  0
   -6.5030   21.6000  -31.1680 C   0  0  0  0  0  0  0  0  0  0  0  0
   -6.1290   22.9680  -30.7700 C   0  0  0  0  0  0  0  0  0  0  0  0
   -7.1040   23.9860  -30.7390 C   0  0  0  0  0  0  0  0  0  0  0  0
   -6.7520   25.3010  -30.3790 C   0  0  0  0  0  0  0  0  0  0  0  0
   -5.4210   25.6170  -30.0660 C   0  0  0  0  0  0  0  0  0  0  0  0
   -4.4710   24.5990  -30.1230 C   0  0  0  0  0  0  0  0  0  0  0  0
   -4.8060   23.3140  -30.4480 C   0  0  0  0  0  0  0  0  0  0  0  0
   -3.5710   22.4770  -30.4810 C   0  0  0  0  0  0  0  0  0  0  0  0
   -2.4590   23.4860  -30.1040 C   0  0  0  0  0  0  0  0  0  0  0  0
   -3.1190   24.7340  -29.9010 O   0  0  0  0  0  0  0  0  0  0  0  0
   -5.6350   20.8890  -31.8270 N   0  0  0  0  0  0  0  0  0  0  0  0
   -5.8040   19.5530  -32.3320 C   0  0  0  0  0  0  0  0  0  0  0  0
   -4.6770   18.7180  -32.3210 C   0  0  0  0  0  0  0  0  0  0  0  0
   -4.7370   17.4270  -32.8470 C   0  0  0  0  0  0  0  0  0  0  0  0
   -5.9210   16.9600  -33.4170 C   0  0  0  0  0  0  0  0  0  0  0  0
   -5.9920   15.3420  -34.0900 Cl  0  0  0  0  0  0  0  0  0  0  0  0
   -7.0460   17.7870  -33.4630 C   0  0  0  0  0  0  0  0  0  0  0  0
   -7.0100   19.0830  -32.9220 C   0  0  0  0  0  0  0  0  0  0  0  0
   -8.1780   19.9090  -33.0670 N   0  0  0  0  0  0  0  0  0  0  0  0
   -8.3918   21.7802  -30.1856 H   0  0  0  0  0  0  0  0  0  0  0  0
   -7.7568   20.1081  -30.2850 H   0  0  0  0  0  0  0  0  0  0  0  0
   -8.1470   23.7513  -30.9979 H   0  0  0  0  0  0  0  0  0  0  0  0
   -7.5237   26.0840  -30.3430 H   0  0  0  0  0  0  0  0  0  0  0  0
   -5.1352   26.6409  -29.7832 H   0  0  0  0  0  0  0  0  0  0  0  0
   -3.6279   21.6587  -29.7481 H   0  0  0  0  0  0  0  0  0  0  0  0
   -3.4032   21.9885  -31.4522 H   0  0  0  0  0  0  0  0  0  0  0  0
   -1.9495   23.1678  -29.1825 H   0  0  0  0  0  0  0  0  0  0  0  0
   -1.6928   23.5564  -30.8901 H   0  0  0  0  0  0  0  0  0  0  0  0
   -3.7333   19.0858  -31.8920 H   0  0  0  0  0  0  0  0  0  0  0  0
   -3.8500   16.7773  -32.8121 H   0  0  0  0  0  0  0  0  0  0  0  0
   -7.9719   17.4187  -33.9288 H   0  0  0  0  0  0  0  0  0  0  0  0
   -8.8230   19.7130  -33.8670 H   0  0  0  0  0  0  0  0  0  0  0  0
  1  2  2  0
  2  3  1  0
  3  4  1  0
  4  5  1  0
  5  6  2  0
  6  7  1  0
  7  8  2  0
  8  9  1  0
  9 10  2  0
 10 11  1  0
 11 12  1  0
 12 13  1  0
  4 14  2  0
 14 15  1  0
 15 16  2  0
 16 17  1  0
 17 18  2  0
 18 19  1  0
 18 20  1  0
 20 21  2  0
 21 22  1  0
 22  2  1  0
 10  5  1  0
 21 15  1  0
 13  9  1  0
  3 23  1  0
  3 24  1  0
  6 25  1  0
  7 26  1  0
  8 27  1  0
 11 28  1  0
 11 29  1  0
 12 30  1  0
 12 31  1  0
 16 32  1  0
 17 33  1  0
 20 34  1  0
 22 35  1  0
M  END
>  <UniqueID>  (43) 
41

>  <SMILES>  (43) 
O=C1CC(c2cccc3c2CCO3)=Nc2ccc(Cl)cc2N1

>  <Energy>  (43) 
69.97608535149965

>  <Genealogy>  (43) 
O=C1CC(c2cccc3c2CCO3)=Nc2ccc(Cl)cc2N1 (3D coordinates assigned)
O=C1CC(c2cccc3c2CCO3)=Nc2ccc(Cl)cc2N1 (nonaromatic ring conformer: 69.97608535149965 kcal/mol)

>  <smiles>  (43) 
O=C1CC(c2cccc3c2CCO3)=Nc2ccc(Cl)cc2N1

>  <score_type>  (43) 
oracle

>  <origin>  (43) 
adgpu

>  <m_score__min__energy>  (43) 
-8.1300000000000008

>  <m_primary>  (43) 
energy

$$$$
43:0
     RDKit          3D

 43 45  0  0  0  0  0  0  0  0999 V2000
   -1.1430   23.3490  -27.0030 C   0  0  0  0  0  0  0  0  0  0  0  0
   -2.1120   24.0910  -27.9470 C   0  0  0  0  0  0  0  0  0  0  0  0
   -3.3200   24.5780  -27.1230 C   0  0  0  0  0  0  0  0  0  0  0  0
   -1.3670   25.2900  -28.5670 C   0  0  0  0  0  0  0  0  0  0  0  0
   -2.5560   23.1630  -29.0060 N   0  0  0  0  0  0  0  0  0  0  0  0
   -3.2590   23.5480  -30.2020 C   0  0  0  0  0  0  0  0  0  0  0  0
   -3.4970   24.7620  -30.4450 O   0  0  0  0  0  0  0  0  0  0  0  0
   -3.7460   22.5110  -31.1400 C   0  0  0  0  0  0  0  0  0  0  0  0
   -5.1260   22.2670  -31.2000 C   0  0  0  0  0  0  0  0  0  0  0  0
   -5.6440   21.3320  -32.1120 C   0  0  0  0  0  0  0  0  0  0  0  0
   -7.1000   21.0570  -32.2050 C   0  0  0  0  0  0  0  0  0  0  0  0
   -7.5860   19.8050  -32.6340 C   0  0  0  0  0  0  0  0  0  0  0  0
   -8.9620   19.5650  -32.7060 C   0  0  0  0  0  0  0  0  0  0  0  0
   -9.8680   20.5650  -32.3450 C   0  0  0  0  0  0  0  0  0  0  0  0
   -9.3990   21.8060  -31.9070 C   0  0  0  0  0  0  0  0  0  0  0  0
   -8.0250   22.0510  -31.8320 C   0  0  0  0  0  0  0  0  0  0  0  0
   -4.7870   20.6530  -32.9210 N   0  0  0  0  0  0  0  0  0  0  0  0
   -3.4440   20.8450  -32.8890 C   0  0  0  0  0  0  0  0  0  0  0  0
   -2.6220   20.1020  -33.7450 C   0  0  0  0  0  0  0  0  0  0  0  0
   -1.2380   20.2670  -33.7070 C   0  0  0  0  0  0  0  0  0  0  0  0
   -0.6640   21.1690  -32.8090 C   0  0  0  0  0  0  0  0  0  0  0  0
   -1.4730   21.9180  -31.9500 C   0  0  0  0  0  0  0  0  0  0  0  0
   -2.8780   21.7810  -31.9890 C   0  0  0  0  0  0  0  0  0  0  0  0
   -1.4165   23.5584  -25.9583 H   0  0  0  0  0  0  0  0  0  0  0  0
   -1.2069   22.2667  -27.1888 H   0  0  0  0  0  0  0  0  0  0  0  0
   -0.1148   23.6929  -27.1888 H   0  0  0  0  0  0  0  0  0  0  0  0
   -3.0931   24.4865  -26.0505 H   0  0  0  0  0  0  0  0  0  0  0  0
   -3.5287   25.6305  -27.3652 H   0  0  0  0  0  0  0  0  0  0  0  0
   -4.2003   23.9645  -27.3652 H   0  0  0  0  0  0  0  0  0  0  0  0
   -0.9697   25.9294  -27.7649 H   0  0  0  0  0  0  0  0  0  0  0  0
   -0.5370   24.9240  -29.1892 H   0  0  0  0  0  0  0  0  0  0  0  0
   -2.0627   25.8720  -29.1892 H   0  0  0  0  0  0  0  0  0  0  0  0
   -2.3410   22.1450  -28.8950 H   0  0  0  0  0  0  0  0  0  0  0  0
   -5.8069   22.8110  -30.5289 H   0  0  0  0  0  0  0  0  0  0  0  0
   -6.8779   19.0112  -32.9141 H   0  0  0  0  0  0  0  0  0  0  0  0
   -9.3315   18.5868  -33.0476 H   0  0  0  0  0  0  0  0  0  0  0  0
  -10.9499   20.3755  -32.4055 H   0  0  0  0  0  0  0  0  0  0  0  0
  -10.1129   22.5923  -31.6204 H   0  0  0  0  0  0  0  0  0  0  0  0
   -7.6634   23.0280  -31.4788 H   0  0  0  0  0  0  0  0  0  0  0  0
   -3.0695   19.3858  -34.4498 H   0  0  0  0  0  0  0  0  0  0  0  0
   -0.5970   19.6854  -34.3859 H   0  0  0  0  0  0  0  0  0  0  0  0
    0.4288   21.2906  -32.7775 H   0  0  0  0  0  0  0  0  0  0  0  0
   -1.0121   22.6191  -31.2386 H   0  0  0  0  0  0  0  0  0  0  0  0
  1  2  1  0
  2  3  1  0
  2  4  1  0
  2  5  1  0
  5  6  1  0
  6  7  2  0
  6  8  1  0
  8  9  2  0
  9 10  1  0
 10 11  1  0
 11 12  2  0
 12 13  1  0
 13 14  2  0
 14 15  1  0
 15 16  2  0
 10 17  2  0
 17 18  1  0
 18 19  2  0
 19 20  1  0
 20 21  2  0
 21 22  1  0
 22 23  2  0
 23  8  1  0
 16 11  1  0
 23 18  1  0
  1 24  1  0
  1 25  1  0
  1 26  1  0
  3 27  1  0
  3 28  1  0
  3 29  1  0
  4 30  1  0
  4 31  1  0
  4 32  1  0
  5 33  1  0
  9 34  1  0
 12 35  1  0
 13 36  1  0
 14 37  1  0
 15 38  1  0
 16 39  1  0
 19 40  1  0
 20 41  1  0
 21 42  1  0
 22 43  1  0
M  END
>  <UniqueID>  (44) 
42

>  <SMILES>  (44) 
CC(C)(C)NC(=O)c1cc(-c2ccccc2)nc2ccccc12

>  <Energy>  (44) 
54.734923038515596

>  <Genealogy>  (44) 
CC(C)(C)NC(=O)c1cc(-c2ccccc2)nc2ccccc12 (3D coordinates assigned)
CC(C)(C)NC(=O)c1cc(-c2ccccc2)nc2ccccc12 (optimized conformer: 54.734923038515596 kcal/mol)

>  <smiles>  (44) 
CC(C)(C)NC(=O)c1cc(-c2ccccc2)nc2ccccc12

>  <score_type>  (44) 
oracle

>  <origin>  (44) 
adgpu

>  <m_score__min__energy>  (44) 
-8.4700000000000006

>  <m_primary>  (44) 
energy

$$$$
44:0
     RDKit          3D

 43 44  0  0  0  0  0  0  0  0999 V2000
   -3.4030   24.1250  -27.7540 C   0  0  0  0  0  0  0  0  0  0  0  0
   -2.4550   24.5350  -29.2000 S   0  0  0  0  0  0  0  0  0  0  0  0
   -1.5380   25.6780  -28.8710 O   0  0  0  0  0  0  0  0  0  0  0  0
   -1.6560   23.3310  -29.6180 O   0  0  0  0  0  0  0  0  0  0  0  0
   -3.5470   24.9930  -30.4680 N   0  0  0  0  0  0  0  0  0  0  0  0
   -4.8220   24.4070  -30.7750 C   0  0  0  0  0  0  0  0  0  0  0  0
   -5.9600   24.9930  -30.2050 C   0  0  0  0  0  0  0  0  0  0  0  0
   -7.2330   24.4810  -30.4630 C   0  0  0  0  0  0  0  0  0  0  0  0
   -7.3910   23.3710  -31.3030 C   0  0  0  0  0  0  0  0  0  0  0  0
   -8.7620   22.8350  -31.6150 C   0  0  0  0  0  0  0  0  0  0  0  0
   -8.9420   21.4880  -31.0500 N   0  0  0  0  0  0  0  0  0  0  0  0
   -9.3230   20.4870  -32.0630 C   0  0  0  0  0  0  0  0  0  0  0  0
   -8.1040   19.9950  -32.8560 C   0  0  0  0  0  0  0  0  0  0  0  0
   -7.0030   19.4410  -31.9420 C   0  0  0  0  0  0  0  0  0  0  0  0
   -6.2760   18.3120  -32.6220 C   0  0  0  0  0  0  0  0  0  0  0  0
   -6.0240   17.1140  -31.9310 C   0  0  0  0  0  0  0  0  0  0  0  0
   -5.3750   16.0550  -32.5740 C   0  0  0  0  0  0  0  0  0  0  0  0
   -4.9830   16.1800  -33.9090 C   0  0  0  0  0  0  0  0  0  0  0  0
   -5.2430   17.3630  -34.6080 C   0  0  0  0  0  0  0  0  0  0  0  0
   -4.8670   17.4800  -35.9040 F   0  0  0  0  0  0  0  0  0  0  0  0
   -5.8910   18.4250  -33.9690 C   0  0  0  0  0  0  0  0  0  0  0  0
   -6.2570   22.7760  -31.8740 C   0  0  0  0  0  0  0  0  0  0  0  0
   -4.9790   23.2830  -31.6150 C   0  0  0  0  0  0  0  0  0  0  0  0
   -3.9200   22.6640  -32.1920 F   0  0  0  0  0  0  0  0  0  0  0  0
   -2.8240   24.3754  -26.8528 H   0  0  0  0  0  0  0  0  0  0  0  0
   -4.3424   24.6973  -27.7570 H   0  0  0  0  0  0  0  0  0  0  0  0
   -3.6294   23.0486  -27.7570 H   0  0  0  0  0  0  0  0  0  0  0  0
   -5.8491   25.8670  -29.5463 H   0  0  0  0  0  0  0  0  0  0  0  0
   -8.1156   24.9511  -30.0048 H   0  0  0  0  0  0  0  0  0  0  0  0
   -9.5181   23.5091  -31.1862 H   0  0  0  0  0  0  0  0  0  0  0  0
   -8.8750   22.7751  -32.7075 H   0  0  0  0  0  0  0  0  0  0  0  0
   -9.7240   21.5500  -30.3560 H   0  0  0  0  0  0  0  0  0  0  0  0
   -9.7912   19.6288  -31.5587 H   0  0  0  0  0  0  0  0  0  0  0  0
  -10.0244   20.9588  -32.7669 H   0  0  0  0  0  0  0  0  0  0  0  0
   -8.4265   19.1998  -33.5442 H   0  0  0  0  0  0  0  0  0  0  0  0
   -7.6881   20.8538  -33.4033 H   0  0  0  0  0  0  0  0  0  0  0  0
   -6.2882   20.2436  -31.7079 H   0  0  0  0  0  0  0  0  0  0  0  0
   -7.4633   19.0635  -31.0170 H   0  0  0  0  0  0  0  0  0  0  0  0
   -6.3380   17.0092  -30.8820 H   0  0  0  0  0  0  0  0  0  0  0  0
   -5.1729   15.1220  -32.0275 H   0  0  0  0  0  0  0  0  0  0  0  0
   -4.4692   15.3469  -34.4110 H   0  0  0  0  0  0  0  0  0  0  0  0
   -6.1001   19.3522  -34.5227 H   0  0  0  0  0  0  0  0  0  0  0  0
   -6.3733   21.9022  -32.5319 H   0  0  0  0  0  0  0  0  0  0  0  0
  1  2  1  0
  2  3  2  0
  2  4  2  0
  2  5  1  0
  5  6  1  0
  6  7  2  0
  7  8  1  0
  8  9  2  0
  9 10  1  0
 10 11  1  0
 11 12  1  0
 12 13  1  0
 13 14  1  0
 14 15  1  0
 15 16  2  0
 16 17  1  0
 17 18  2  0
 18 19  1  0
 19 20  1  0
 19 21  2  0
  9 22  1  0
 22 23  2  0
 23 24  1  0
 23  6  1  0
 21 15  1  0
  1 25  1  0
  1 26  1  0
  1 27  1  0
  7 28  1  0
  8 29  1  0
 10 30  1  0
 10 31  1  0
 11 32  1  0
 12 33  1  0
 12 34  1  0
 13 35  1  0
 13 36  1  0
 14 37  1  0
 14 38  1  0
 16 39  1  0
 17 40  1  0
 18 41  1  0
 21 42  1  0
 22 43  1  0
M  CHG  1   5  -1
M  END
>  <UniqueID>  (45) 
43

>  <SMILES>  (45) 
CS(=O)(=O)[N-]c1ccc(CNCCCc2cccc(F)c2)cc1F

>  <Energy>  (45) 
37.989456273544626

>  <Genealogy>  (45) 
CS(=O)(=O)[N-]c1ccc(CNCCCc2cccc(F)c2)cc1F (protonated)
CS(=O)(=O)[N-]c1ccc(CNCCCc2cccc(F)c2)cc1F (3D coordinates assigned)
CS(=O)(=O)[N-]c1ccc(CNCCCc2cccc(F)c2)cc1F (optimized conformer: 37.989456273544626 kcal/mol)

>  <smiles>  (45) 
CS(=O)(=O)Nc1ccc(CNCCCc2cccc(F)c2)cc1F

>  <score_type>  (45) 
oracle

>  <origin>  (45) 
adgpu

>  <m_score__min__energy>  (45) 
-10.369999999999999

>  <m_primary>  (45) 
energy

$$$$
45:0
     RDKit          3D

 60 63  0  0  0  0  0  0  0  0999 V2000
    1.0120   15.6600  -27.1780 C   0  0  0  0  0  0  0  0  0  0  0  0
    1.5500   16.9110  -27.5910 O   0  0  0  0  0  0  0  0  0  0  0  0
    0.7860   17.9760  -28.0920 C   0  0  0  0  0  0  0  0  0  0  0  0
   -0.4400   18.2600  -27.4810 C   0  0  0  0  0  0  0  0  0  0  0  0
   -1.2390   19.3090  -27.9430 C   0  0  0  0  0  0  0  0  0  0  0  0
   -0.8190   20.0890  -29.0320 C   0  0  0  0  0  0  0  0  0  0  0  0
   -1.6640   21.2070  -29.5190 C   0  0  0  0  0  0  0  0  0  0  0  0
   -2.3240   21.1580  -30.7660 C   0  0  0  0  0  0  0  0  0  0  0  0
   -2.2240   19.8970  -31.6090 C   0  0  0  0  0  0  0  0  0  0  0  0
   -3.0200   22.2650  -31.2110 N   0  0  0  0  0  0  0  0  0  0  0  0
   -3.6060   22.3000  -32.5760 C   0  0  0  0  0  0  0  0  0  0  0  0
   -4.9430   21.5900  -32.6280 C   0  0  0  0  0  0  0  0  0  0  0  0
   -6.0770   22.1570  -32.0130 C   0  0  0  0  0  0  0  0  0  0  0  0
   -5.9950   23.3450  -31.3630 F   0  0  0  0  0  0  0  0  0  0  0  0
   -7.3080   21.4950  -32.0570 C   0  0  0  0  0  0  0  0  0  0  0  0
   -7.4200   20.2600  -32.6980 C   0  0  0  0  0  0  0  0  0  0  0  0
   -6.2980   19.6780  -33.2900 C   0  0  0  0  0  0  0  0  0  0  0  0
   -5.0620   20.3300  -33.2510 C   0  0  0  0  0  0  0  0  0  0  0  0
   -3.9870   19.7310  -33.8240 F   0  0  0  0  0  0  0  0  0  0  0  0
   -3.1790   23.3530  -30.3810 C   0  0  0  0  0  0  0  0  0  0  0  0
   -3.8750   24.3380  -30.7600 O   0  0  0  0  0  0  0  0  0  0  0  0
   -2.5940   23.3880  -29.1420 N   0  0  0  0  0  0  0  0  0  0  0  0
   -2.8530   24.5330  -28.2380 C   0  0  0  0  0  0  0  0  0  0  0  0
   -1.6240   25.4690  -28.1690 C   0  0  2  0  0  0  0  0  0  0  0  0
   -0.5150   24.9500  -28.9760 N   0  0  0  0  0  0  0  0  0  0  0  0
   -1.1800   25.6930  -26.7370 C   0  0  0  0  0  0  0  0  0  0  0  0
   -1.1580   26.9960  -26.2070 C   0  0  0  0  0  0  0  0  0  0  0  0
   -0.8210   27.2120  -24.8670 C   0  0  0  0  0  0  0  0  0  0  0  0
   -0.5100   26.1290  -24.0410 C   0  0  0  0  0  0  0  0  0  0  0  0
   -0.5380   24.8300  -24.5520 C   0  0  0  0  0  0  0  0  0  0  0  0
   -0.8750   24.6090  -25.8910 C   0  0  0  0  0  0  0  0  0  0  0  0
   -1.8160   22.3450  -28.7210 C   0  0  0  0  0  0  0  0  0  0  0  0
   -1.2270   22.4010  -27.6050 O   0  0  0  0  0  0  0  0  0  0  0  0
    0.4120   19.8120  -29.6440 C   0  0  0  0  0  0  0  0  0  0  0  0
    1.2100   18.7620  -29.1810 C   0  0  0  0  0  0  0  0  0  0  0  0
    0.9923   15.6142  -26.0791 H   0  0  0  0  0  0  0  0  0  0  0  0
   -0.0112   15.5542  -27.5678 H   0  0  0  0  0  0  0  0  0  0  0  0
    1.6390   14.8446  -27.5678 H   0  0  0  0  0  0  0  0  0  0  0  0
   -0.7781   17.6519  -26.6290 H   0  0  0  0  0  0  0  0  0  0  0  0
   -2.1996   19.5242  -27.4521 H   0  0  0  0  0  0  0  0  0  0  0  0
   -2.1544   19.0195  -30.9493 H   0  0  0  0  0  0  0  0  0  0  0  0
   -3.1179   19.8085  -32.2438 H   0  0  0  0  0  0  0  0  0  0  0  0
   -1.3273   19.9505  -32.2438 H   0  0  0  0  0  0  0  0  0  0  0  0
   -3.7469   23.3486  -32.8771 H   0  0  0  0  0  0  0  0  0  0  0  0
   -2.9159   21.7839  -33.2597 H   0  0  0  0  0  0  0  0  0  0  0  0
   -8.1915   21.9492  -31.5847 H   0  0  0  0  0  0  0  0  0  0  0  0
   -8.3917   19.7459  -32.7365 H   0  0  0  0  0  0  0  0  0  0  0  0
   -6.3867   18.7020  -33.7895 H   0  0  0  0  0  0  0  0  0  0  0  0
   -3.7174   25.1003  -28.6135 H   0  0  0  0  0  0  0  0  0  0  0  0
   -3.0574   24.1456  -27.2290 H   0  0  0  0  0  0  0  0  0  0  0  0
   -1.9283   26.4397  -28.5874 H   0  0  0  0  0  0  0  0  0  0  0  0
   -0.8560   24.8080  -29.9540 H   0  0  0  0  0  0  0  0  0  0  0  0
   -0.2240   24.0090  -28.6220 H   0  0  0  0  0  0  0  0  0  0  0  0
   -1.4078   27.8516  -26.8516 H   0  0  0  0  0  0  0  0  0  0  0  0
   -0.8008   28.2350  -24.4632 H   0  0  0  0  0  0  0  0  0  0  0  0
   -0.2430   26.2998  -22.9877 H   0  0  0  0  0  0  0  0  0  0  0  0
   -0.2944   23.9784  -23.8997 H   0  0  0  0  0  0  0  0  0  0  0  0
   -0.9021   23.5827  -26.2859 H   0  0  0  0  0  0  0  0  0  0  0  0
    0.7513   20.4241  -30.4927 H   0  0  0  0  0  0  0  0  0  0  0  0
    2.1726   18.5488  -29.6689 H   0  0  0  0  0  0  0  0  0  0  0  0
  1  2  1  0
  2  3  1  0
  3  4  2  0
  4  5  1  0
  5  6  2  0
  6  7  1  0
  7  8  2  0
  8  9  1  0
  8 10  1  0
 10 11  1  0
 11 12  1  0
 12 13  2  0
 13 14  1  0
 13 15  1  0
 15 16  2  0
 16 17  1  0
 17 18  2  0
 18 19  1  0
 10 20  1  0
 20 21  2  0
 20 22  1  0
 22 23  1  0
 23 24  1  0
 24 25  1  0
 24 26  1  0
 26 27  2  0
 27 28  1  0
 28 29  2  0
 29 30  1  0
 30 31  2  0
 22 32  1  0
 32 33  2  0
  6 34  1  0
 34 35  2  0
 35  3  1  0
 32  7  1  0
 18 12  1  0
 31 26  1  0
  1 36  1  0
  1 37  1  0
  1 38  1  0
  4 39  1  0
  5 40  1  0
  9 41  1  0
  9 42  1  0
  9 43  1  0
 11 44  1  0
 11 45  1  0
 15 46  1  0
 16 47  1  0
 17 48  1  0
 23 49  1  0
 23 50  1  0
 24 51  1  6
 25 52  1  0
 25 53  1  0
 27 54  1  0
 28 55  1  0
 29 56  1  0
 30 57  1  0
 31 58  1  0
 34 59  1  0
 35 60  1  0
M  END
>  <UniqueID>  (46) 
44

>  <SMILES>  (46) 
COc1ccc(-c2c(C)n(Cc3c(F)cccc3F)c(=O)n(C[C@H](N)c3ccccc3)c2=O)cc1

>  <Energy>  (46) 
81.70492110842802

>  <Genealogy>  (46) 
COc1ccc(-c2c(C)n(Cc3c(F)cccc3F)c(=O)n(C[C@H](N)c3ccccc3)c2=O)cc1 (chirality)
COc1ccc(-c2c(C)n(Cc3c(F)cccc3F)c(=O)n(C[C@H](N)c3ccccc3)c2=O)cc1 (3D coordinates assigned)
COc1ccc(-c2c(C)n(Cc3c(F)cccc3F)c(=O)n(C[C@H](N)c3ccccc3)c2=O)cc1 (optimized conformer: 81.70492110842802 kcal/mol)

>  <smiles>  (46) 
COc1ccc(-c2c(C)n(Cc3c(F)cccc3F)c(=O)n(CC(N)c3ccccc3)c2=O)cc1

>  <score_type>  (46) 
oracle

>  <origin>  (46) 
adgpu

>  <m_score__min__energy>  (46) 
-8.8800000000000008

>  <m_primary>  (46) 
energy

$$$$
46:0
     RDKit          3D

 47 49  0  0  0  0  0  0  0  0999 V2000
   -1.4093   23.3821  -30.7155 H   0  0  0  0  0  0  0  0  0  0  0  0
   -1.6990   23.6270  -29.6830 C   0  0  0  0  0  0  0  0  0  0  0  0
   -0.8290   23.3320  -28.6280 C   0  0  0  0  0  0  0  0  0  0  0  0
    0.1501   22.8762  -28.8367 H   0  0  0  0  0  0  0  0  0  0  0  0
   -1.2000   23.6150  -27.3050 C   0  0  0  0  0  0  0  0  0  0  0  0
   -0.2620   23.3230  -26.1720 C   0  0  0  0  0  0  0  0  0  0  0  0
   -0.7808   23.4845  -25.2156 H   0  0  0  0  0  0  0  0  0  0  0  0
    0.0745   22.2776  -26.2347 H   0  0  0  0  0  0  0  0  0  0  0  0
    0.6084   23.9927  -26.2347 H   0  0  0  0  0  0  0  0  0  0  0  0
   -2.4450   24.2100  -27.0520 C   0  0  0  0  0  0  0  0  0  0  0  0
   -2.7386   24.4485  -26.0191 H   0  0  0  0  0  0  0  0  0  0  0  0
   -3.3140   24.5010  -28.1080 C   0  0  0  0  0  0  0  0  0  0  0  0
   -4.2990   24.9430  -27.8972 H   0  0  0  0  0  0  0  0  0  0  0  0
   -2.9420   24.2350  -29.4310 C   0  0  0  0  0  0  0  0  0  0  0  0
   -3.8720   24.5360  -30.4870 N   0  0  0  0  0  0  0  0  0  0  0  0
   -5.0770   24.0610  -30.6060 C   0  0  0  0  0  0  0  0  0  0  0  0
   -5.6140   23.1280  -29.7880 N   0  0  0  0  0  0  0  0  0  0  0  0
   -6.8450   22.7680  -30.1490 N   0  0  0  0  0  0  0  0  0  0  0  0
   -7.2800   23.4090  -31.2560 C   0  0  0  0  0  0  0  0  0  0  0  0
   -8.8940   23.1310  -31.9820 S   0  0  0  0  0  0  0  0  0  0  0  0
   -9.1280   21.4910  -31.2160 C   0  0  0  0  0  0  0  0  0  0  0  0
  -10.1883   21.2054  -31.2814 H   0  0  0  0  0  0  0  0  0  0  0  0
   -8.8204   21.5360  -30.1608 H   0  0  0  0  0  0  0  0  0  0  0  0
   -8.2940   20.4730  -31.9310 C   0  0  0  0  0  0  0  0  0  0  0  0
   -8.8450   19.4430  -32.4020 O   0  0  0  0  0  0  0  0  0  0  0  0
   -6.8670   20.6400  -31.9990 N   0  0  0  0  0  0  0  0  0  0  0  0
   -6.4410   21.3910  -31.4100 H   0  0  0  0  0  0  0  0  0  0  0  0
   -5.9870   19.7840  -32.7490 C   0  0  0  0  0  0  0  0  0  0  0  0
   -6.4820   18.6430  -33.4080 C   0  0  0  0  0  0  0  0  0  0  0  0
   -7.5470   18.3835  -33.3164 H   0  0  0  0  0  0  0  0  0  0  0  0
   -5.6400   17.8350  -34.1770 C   0  0  0  0  0  0  0  0  0  0  0  0
   -6.1910   16.7100  -34.8100 O   0  0  0  0  0  0  0  0  0  0  0  0
   -6.6950   15.5690  -34.1270 C   0  0  0  0  0  0  0  0  0  0  0  0
   -6.6237   15.7304  -33.0412 H   0  0  0  0  0  0  0  0  0  0  0  0
   -7.7471   15.4099  -34.4057 H   0  0  0  0  0  0  0  0  0  0  0  0
   -6.1040   14.6841  -34.4057 H   0  0  0  0  0  0  0  0  0  0  0  0
   -4.2820   18.1770  -34.2950 C   0  0  0  0  0  0  0  0  0  0  0  0
   -3.6097   17.5469  -34.8958 H   0  0  0  0  0  0  0  0  0  0  0  0
   -3.7810   19.3120  -33.6540 C   0  0  0  0  0  0  0  0  0  0  0  0
   -2.7164   19.5702  -33.7540 H   0  0  0  0  0  0  0  0  0  0  0  0
   -4.6280   20.1280  -32.8810 C   0  0  0  0  0  0  0  0  0  0  0  0
   -4.1540   21.2760  -32.2250 O   0  0  0  0  0  0  0  0  0  0  0  0
   -2.7940   21.7050  -32.2200 C   0  0  0  0  0  0  0  0  0  0  0  0
   -2.4478   21.8142  -31.1816 H   0  0  0  0  0  0  0  0  0  0  0  0
   -2.1724   20.9593  -32.7373 H   0  0  0  0  0  0  0  0  0  0  0  0
   -2.7128   22.6724  -32.7373 H   0  0  0  0  0  0  0  0  0  0  0  0
   -6.1260   24.4820  -31.8520 S   0  0  0  0  0  0  0  0  0  0  0  0
  1  2  1  0
  2  3  2  0
  3  4  1  0
  3  5  1  0
  5  6  1  0
  6  7  1  0
  6  8  1  0
  6  9  1  0
  5 10  2  0
 10 11  1  0
 10 12  1  0
 12 13  1  0
 12 14  2  0
 14 15  1  0
 15 16  2  0
 16 17  1  0
 17 18  1  0
 18 19  2  0
 19 20  1  0
 20 21  1  0
 21 22  1  0
 21 23  1  0
 21 24  1  0
 24 25  2  0
 24 26  1  0
 26 27  1  0
 26 28  1  0
 28 29  2  0
 29 30  1  0
 29 31  1  0
 31 32  1  0
 32 33  1  0
 33 34  1  0
 33 35  1  0
 33 36  1  0
 31 37  2  0
 37 38  1  0
 37 39  1  0
 39 40  1  0
 39 41  2  0
 41 42  1  0
 42 43  1  0
 43 44  1  0
 43 45  1  0
 43 46  1  0
 19 47  1  0
 14  2  1  0
 47 16  1  0
 41 28  1  0
M  CHG  1  17  -1
M  END
>  <UniqueID>  (47) 
45

>  <SMILES>  (47) 
COc1ccc(OC)c(NC(=O)CSc2n[n-]/c(=N\c3ccc(C)cc3)s2)c1

>  <Energy>  (47) 
86.87359749903467

>  <Genealogy>  (47) 
COc1ccc(OC)c(NC(=O)CSc2n[n-]c(=Nc3ccc(C)cc3)s2)c1 (protonated)
COc1ccc(OC)c(NC(=O)CSc2n[n-]/c(=N\c3ccc(C)cc3)s2)c1 (cis-trans isomerization)
COc1ccc(OC)c(NC(=O)CSc2n[n-]/c(=N\c3ccc(C)cc3)s2)c1 (3D coordinates assigned)
COc1ccc(OC)c(NC(=O)CSc2n[n-]/c(=N\c3ccc(C)cc3)s2)c1 (optimized conformer: 86.87359749903467 kcal/mol)

>  <smiles>  (47) 
COc1ccc(OC)c(NC(=O)CSc2n[nH]c(=Nc3ccc(C)cc3)s2)c1

>  <score_type>  (47) 
oracle

>  <origin>  (47) 
adgpu

>  <m_score__min__energy>  (47) 
-9.4900000000000002

>  <m_primary>  (47) 
energy

$$$$
47:0
     RDKit          3D

 45 48  0  0  0  0  0  0  0  0999 V2000
    1.5350   18.2640  -33.1520 C   0  0  0  0  0  0  0  0  0  0  0  0
    0.0960   18.6040  -33.3370 C   0  0  0  0  0  0  0  0  0  0  0  0
   -0.5450   19.5630  -32.6420 N   0  0  0  0  0  0  0  0  0  0  0  0
   -1.7820   19.5000  -33.1840 C   0  0  0  0  0  0  0  0  0  0  0  0
   -2.9070   20.3640  -32.7660 C   0  0  0  0  0  0  0  0  0  0  0  0
   -3.6980   20.0180  -31.6570 C   0  0  0  0  0  0  0  0  0  0  0  0
   -4.7620   20.8340  -31.2630 C   0  0  0  0  0  0  0  0  0  0  0  0
   -5.0500   22.0110  -31.9690 C   0  0  0  0  0  0  0  0  0  0  0  0
   -6.1550   22.8470  -31.5750 N   0  0  0  0  0  0  0  0  0  0  0  0
   -7.4560   22.6420  -32.2320 C   0  0  0  0  0  0  0  0  0  0  0  0
   -7.8740   21.2010  -32.1420 C   0  0  0  0  0  0  0  0  0  0  0  0
   -7.4080   20.2070  -33.0150 C   0  0  0  0  0  0  0  0  0  0  0  0
   -7.9430   18.9520  -32.7640 C   0  0  0  0  0  0  0  0  0  0  0  0
   -8.9860   19.0840  -31.4510 S   0  0  0  0  0  0  0  0  0  0  0  0
   -8.7710   20.7300  -31.1880 C   0  0  0  0  0  0  0  0  0  0  0  0
   -5.9920   23.7840  -30.4830 C   0  0  0  0  0  0  0  0  0  0  0  0
   -6.8830   24.6450  -30.2520 O   0  0  0  0  0  0  0  0  0  0  0  0
   -4.7930   23.7760  -29.6240 C   0  0  0  0  0  0  0  0  0  0  0  0
   -4.6720   22.8290  -28.5950 C   0  0  0  0  0  0  0  0  0  0  0  0
   -3.5320   22.8110  -27.7860 C   0  0  0  0  0  0  0  0  0  0  0  0
   -2.5100   23.7460  -27.9910 C   0  0  0  0  0  0  0  0  0  0  0  0
   -1.3680   23.7360  -27.1920 O   0  0  0  0  0  0  0  0  0  0  0  0
   -2.6350   24.7020  -29.0040 C   0  0  0  0  0  0  0  0  0  0  0  0
   -3.7730   24.7230  -29.8180 C   0  0  0  0  0  0  0  0  0  0  0  0
   -3.8740   25.6750  -30.8270 O   0  0  0  0  0  0  0  0  0  0  0  0
   -4.2680   22.3570  -33.0790 C   0  0  0  0  0  0  0  0  0  0  0  0
   -3.2030   21.5420  -33.4740 C   0  0  0  0  0  0  0  0  0  0  0  0
   -1.8730   18.5620  -34.1490 N   0  0  0  0  0  0  0  0  0  0  0  0
   -0.6890   18.0330  -34.2150 O   0  0  0  0  0  0  0  0  0  0  0  0
    1.7638   18.2099  -32.0774 H   0  0  0  0  0  0  0  0  0  0  0  0
    1.7452   17.2915  -33.6210 H   0  0  0  0  0  0  0  0  0  0  0  0
    2.1583   19.0396  -33.6210 H   0  0  0  0  0  0  0  0  0  0  0  0
   -3.4780   19.0983  -31.0951 H   0  0  0  0  0  0  0  0  0  0  0  0
   -5.3763   20.5518  -30.3952 H   0  0  0  0  0  0  0  0  0  0  0  0
   -8.2129   23.2693  -31.7384 H   0  0  0  0  0  0  0  0  0  0  0  0
   -7.3647   22.9187  -33.2927 H   0  0  0  0  0  0  0  0  0  0  0  0
   -6.6869   20.4039  -33.8220 H   0  0  0  0  0  0  0  0  0  0  0  0
   -7.7236   18.0318  -33.3253 H   0  0  0  0  0  0  0  0  0  0  0  0
   -9.2536   21.3287  -30.4014 H   0  0  0  0  0  0  0  0  0  0  0  0
   -5.4768   22.0987  -28.4246 H   0  0  0  0  0  0  0  0  0  0  0  0
   -3.4377   22.0609  -26.9869 H   0  0  0  0  0  0  0  0  0  0  0  0
   -1.4230   23.8560  -26.1880 H   0  0  0  0  0  0  0  0  0  0  0  0
   -1.8353   25.4407  -29.1616 H   0  0  0  0  0  0  0  0  0  0  0  0
   -4.4932   23.2745  -33.6424 H   0  0  0  0  0  0  0  0  0  0  0  0
   -2.5926   21.8243  -34.3445 H   0  0  0  0  0  0  0  0  0  0  0  0
  1  2  1  0
  2  3  2  0
  3  4  1  0
  4  5  1  0
  5  6  2  0
  6  7  1  0
  7  8  2  0
  8  9  1  0
  9 10  1  0
 10 11  1  0
 11 12  1  0
 12 13  2  0
 13 14  1  0
 14 15  1  0
  9 16  1  0
 16 17  2  0
 16 18  1  0
 18 19  2  0
 19 20  1  0
 20 21  2  0
 21 22  1  0
 21 23  1  0
 23 24  2  0
 24 25  1  0
  8 26  1  0
 26 27  2  0
  4 28  2  0
 28 29  1  0
 29  2  1  0
 27  5  1  0
 15 11  2  0
 24 18  1  0
  1 30  1  0
  1 31  1  0
  1 32  1  0
  6 33  1  0
  7 34  1  0
 10 35  1  0
 10 36  1  0
 12 37  1  0
 13 38  1  0
 15 39  1  0
 19 40  1  0
 20 41  1  0
 22 42  1  0
 23 43  1  0
 26 44  1  0
 27 45  1  0
M  CHG  1  25  -1
M  END
>  <UniqueID>  (48) 
46

>  <SMILES>  (48) 
Cc1nc(-c2ccc(N(Cc3ccsc3)C(=O)c3ccc(O)cc3[O-])cc2)no1

>  <Energy>  (48) 
116.81701063613524

>  <Genealogy>  (48) 
Cc1nc(-c2ccc(N(Cc3ccsc3)C(=O)c3ccc(O)cc3[O-])cc2)no1 (protonated)
Cc1nc(-c2ccc(N(Cc3ccsc3)C(=O)c3ccc(O)cc3[O-])cc2)no1 (3D coordinates assigned)
Cc1nc(-c2ccc(N(Cc3ccsc3)C(=O)c3ccc(O)cc3[O-])cc2)no1 (optimized conformer: 116.81701063613524 kcal/mol)

>  <smiles>  (48) 
Cc1nc(-c2ccc(N(Cc3ccsc3)C(=O)c3ccc(O)cc3O)cc2)no1

>  <score_type>  (48) 
oracle

>  <origin>  (48) 
adgpu

>  <m_score__min__energy>  (48) 
-11.08

>  <m_primary>  (48) 
energy

$$$$
48:0
     RDKit          3D

 56 59  0  0  0  0  0  0  0  0999 V2000
   -2.3700   27.5620  -39.3860 C   0  0  0  0  0  0  0  0  0  0  0  0
   -1.5920   27.3040  -38.1330 C   0  0  0  0  0  0  0  0  0  0  0  0
   -1.9550   27.9280  -36.9320 C   0  0  0  0  0  0  0  0  0  0  0  0
   -1.2170   27.6660  -35.7760 C   0  0  0  0  0  0  0  0  0  0  0  0
   -0.1300   26.7910  -35.8290 C   0  0  0  0  0  0  0  0  0  0  0  0
    0.2080   26.1830  -37.0430 C   0  0  0  0  0  0  0  0  0  0  0  0
    1.3350   25.2920  -37.0880 N   0  0  0  0  0  0  0  0  0  0  0  0
    1.4190   24.0970  -36.5770 C   0  0  0  0  0  0  0  0  0  0  0  0
    0.3780   23.5390  -35.9000 N   0  0  0  0  0  0  0  0  0  0  0  0
    0.4650   22.2880  -35.3800 C   0  0  0  0  0  0  0  0  0  0  0  0
    1.6400   21.5410  -35.5480 C   0  0  0  0  0  0  0  0  0  0  0  0
    1.7950   20.2480  -35.0240 O   0  0  0  0  0  0  0  0  0  0  0  0
    1.6090   19.8840  -33.6810 C   0  0  0  0  0  0  0  0  0  0  0  0
    2.5970   19.1200  -33.0510 C   0  0  0  0  0  0  0  0  0  0  0  0
    2.4530   18.7450  -31.7120 C   0  0  0  0  0  0  0  0  0  0  0  0
    3.4270   18.0270  -31.1020 F   0  0  0  0  0  0  0  0  0  0  0  0
    1.3080   19.1130  -31.0000 C   0  0  0  0  0  0  0  0  0  0  0  0
    0.2850   19.8360  -31.6300 C   0  0  0  0  0  0  0  0  0  0  0  0
   -0.8710   20.2310  -30.8700 N   0  0  0  0  0  0  0  0  0  0  0  0
   -2.1640   20.5120  -31.4300 C   0  0  0  0  0  0  0  0  0  0  0  0
   -2.6490   19.7810  -32.8240 S   0  0  0  0  0  0  0  0  0  0  0  0
   -3.0210   21.4420  -30.7490 N   0  0  0  0  0  0  0  0  0  0  0  0
   -4.4460   21.5160  -30.9160 C   0  0  0  0  0  0  0  0  0  0  0  0
   -5.1530   22.6920  -30.6140 C   0  0  0  0  0  0  0  0  0  0  0  0
   -6.5350   22.7540  -30.8140 C   0  0  0  0  0  0  0  0  0  0  0  0
   -7.2240   21.6510  -31.3350 C   0  0  0  0  0  0  0  0  0  0  0  0
   -8.9680   21.7300  -31.5650 S   0  0  0  0  0  0  0  0  0  0  0  0
   -9.5070   20.2970  -32.4710 C   0  0  0  0  0  0  0  0  0  0  0  0
   -9.6540   21.7690  -30.2290 O   0  0  0  0  0  0  0  0  0  0  0  0
   -9.3280   22.9710  -32.3300 O   0  0  0  0  0  0  0  0  0  0  0  0
   -6.5180   20.4840  -31.6560 C   0  0  0  0  0  0  0  0  0  0  0  0
   -5.1350   20.4220  -31.4580 C   0  0  0  0  0  0  0  0  0  0  0  0
    0.4450   20.2290  -32.9700 C   0  0  0  0  0  0  0  0  0  0  0  0
    2.7030   22.1400  -36.2210 C   0  0  0  0  0  0  0  0  0  0  0  0
    2.5730   23.3950  -36.7250 N   0  0  0  0  0  0  0  0  0  0  0  0
   -0.5310   26.4540  -38.1570 N   0  0  0  0  0  0  0  0  0  0  0  0
   -3.3843   27.8984  -39.1251 H   0  0  0  0  0  0  0  0  0  0  0  0
   -1.8659   28.3411  -39.9767 H   0  0  0  0  0  0  0  0  0  0  0  0
   -2.4313   26.6361  -39.9767 H   0  0  0  0  0  0  0  0  0  0  0  0
   -2.8121   28.6168  -36.9003 H   0  0  0  0  0  0  0  0  0  0  0  0
   -1.4912   28.1477  -34.8258 H   0  0  0  0  0  0  0  0  0  0  0  0
    0.4566   26.5811  -34.9224 H   0  0  0  0  0  0  0  0  0  0  0  0
   -0.3850   21.8608  -34.8276 H   0  0  0  0  0  0  0  0  0  0  0  0
    3.4918   18.8127  -33.6121 H   0  0  0  0  0  0  0  0  0  0  0  0
    1.2089   18.8342  -29.9405 H   0  0  0  0  0  0  0  0  0  0  0  0
   -0.7680   20.3150  -29.8340 H   0  0  0  0  0  0  0  0  0  0  0  0
   -2.5640   22.1530  -30.1330 H   0  0  0  0  0  0  0  0  0  0  0  0
   -4.6168   23.5673  -30.2186 H   0  0  0  0  0  0  0  0  0  0  0  0
   -7.0841   23.6730  -30.5612 H   0  0  0  0  0  0  0  0  0  0  0  0
   -9.8040   19.5073  -31.7652 H   0  0  0  0  0  0  0  0  0  0  0  0
  -10.3658   20.5650  -33.1040 H   0  0  0  0  0  0  0  0  0  0  0  0
   -8.6845   19.9326  -33.1040 H   0  0  0  0  0  0  0  0  0  0  0  0
   -7.0531   19.6142  -32.0649 H   0  0  0  0  0  0  0  0  0  0  0  0
   -4.5844   19.5092  -31.7292 H   0  0  0  0  0  0  0  0  0  0  0  0
   -0.3457   20.8106  -33.4665 H   0  0  0  0  0  0  0  0  0  0  0  0
    3.6505   21.5950  -36.3446 H   0  0  0  0  0  0  0  0  0  0  0  0
  1  2  1  0
  2  3  2  0
  3  4  1  0
  4  5  2  0
  5  6  1  0
  6  7  1  0
  7  8  2  3
  8  9  1  0
  9 10  2  0
 10 11  1  0
 11 12  1  0
 12 13  1  0
 13 14  2  0
 14 15  1  0
 15 16  1  0
 15 17  2  0
 17 18  1  0
 18 19  1  0
 19 20  1  0
 20 21  2  0
 20 22  1  0
 22 23  1  0
 23 24  2  0
 24 25  1  0
 25 26  2  0
 26 27  1  0
 27 28  1  0
 27 29  2  0
 27 30  2  0
 26 31  1  0
 31 32  2  0
 18 33  2  0
 11 34  2  0
 34 35  1  0
  6 36  2  0
 36  2  1  0
 35  8  1  0
 33 13  1  0
 32 23  1  0
  1 37  1  0
  1 38  1  0
  1 39  1  0
  3 40  1  0
  4 41  1  0
  5 42  1  0
 10 43  1  0
 14 44  1  0
 17 45  1  0
 19 46  1  0
 22 47  1  0
 24 48  1  0
 25 49  1  0
 28 50  1  0
 28 51  1  0
 28 52  1  0
 31 53  1  0
 32 54  1  0
 33 55  1  0
 34 56  1  0
M  CHG  1  35  -1
M  END
>  <UniqueID>  (49) 
47

>  <SMILES>  (49) 
Cc1cccc(N=c2ncc(Oc3cc(F)cc(NC(=S)Nc4ccc(S(C)(=O)=O)cc4)c3)c[n-]2)n1

>  <Energy>  (49) 
78.06328212601017

>  <Genealogy>  (49) 
Cc1cccc(N=c2ncc(Oc3cc(F)cc(NC(=S)Nc4ccc(S(C)(=O)=O)cc4)c3)c[n-]2)n1 (protonated)
Cc1cccc(N=c2ncc(Oc3cc(F)cc(NC(=S)Nc4ccc(S(C)(=O)=O)cc4)c3)c[n-]2)n1 (3D coordinates assigned)
Cc1cccc(N=c2ncc(Oc3cc(F)cc(NC(=S)Nc4ccc(S(C)(=O)=O)cc4)c3)c[n-]2)n1 (optimized conformer: 78.06328212601017 kcal/mol)

>  <smiles>  (49) 
Cc1cccc(N=c2ncc(Oc3cc(F)cc(NC(=S)Nc4ccc(S(C)(=O)=O)cc4)c3)c[nH]2)n1

>  <score_type>  (49) 
oracle

>  <origin>  (49) 
adgpu

>  <m_score__min__energy>  (49) 
-10.859999999999999

>  <m_primary>  (49) 
energy

$$$$
49:0
     RDKit          3D

 31 33  0  0  0  0  0  0  0  0999 V2000
   -2.1500   22.8610  -30.7940 O   0  0  0  0  0  0  0  0  0  0  0  0
   -3.0780   22.6900  -31.6110 N   0  0  0  0  0  0  0  0  0  0  0  0
   -2.8150   21.9760  -32.7570 O   0  0  0  0  0  0  0  0  0  0  0  0
   -4.3980   23.2100  -31.3380 C   0  0  0  0  0  0  0  0  0  0  0  0
   -5.5320   22.4310  -31.6410 C   0  0  0  0  0  0  0  0  0  0  0  0
   -6.8260   22.9030  -31.3790 C   0  0  0  0  0  0  0  0  0  0  0  0
   -7.9960   22.0680  -31.7210 C   0  0  0  0  0  0  0  0  0  0  0  0
   -9.2670   22.4960  -31.5800 N   0  0  0  0  0  0  0  0  0  0  0  0
  -10.0870   21.5060  -31.8960 N   0  0  0  0  0  0  0  0  0  0  0  0
   -9.3530   20.4320  -32.2410 C   0  0  0  0  0  0  0  0  0  0  0  0
   -8.0120   20.7470  -32.1530 C   0  0  0  0  0  0  0  0  0  0  0  0
   -6.8850   19.8760  -32.5510 C   0  0  0  0  0  0  0  0  0  0  0  0
   -6.2510   20.0420  -33.7950 C   0  0  0  0  0  0  0  0  0  0  0  0
   -5.1940   19.2060  -34.1670 C   0  0  0  0  0  0  0  0  0  0  0  0
   -4.7710   18.1880  -33.3080 C   0  0  0  0  0  0  0  0  0  0  0  0
   -3.7200   17.3580  -33.6780 O   0  0  0  0  0  0  0  0  0  0  0  0
   -5.4080   18.0030  -32.0770 C   0  0  0  0  0  0  0  0  0  0  0  0
   -6.4650   18.8390  -31.7020 C   0  0  0  0  0  0  0  0  0  0  0  0
   -6.9910   24.1860  -30.8380 C   0  0  0  0  0  0  0  0  0  0  0  0
   -5.8820   24.9730  -30.5260 C   0  0  0  0  0  0  0  0  0  0  0  0
   -6.0880   26.2390  -29.9760 O   0  0  0  0  0  0  0  0  0  0  0  0
   -4.5840   24.4890  -30.7680 C   0  0  0  0  0  0  0  0  0  0  0  0
   -3.4930   25.2850  -30.4350 O   0  0  0  0  0  0  0  0  0  0  0  0
   -5.4001   21.4358  -32.0907 H   0  0  0  0  0  0  0  0  0  0  0  0
   -9.7584   19.4558  -32.5455 H   0  0  0  0  0  0  0  0  0  0  0  0
   -6.5886   20.8342  -34.4794 H   0  0  0  0  0  0  0  0  0  0  0  0
   -4.6948   19.3496  -35.1367 H   0  0  0  0  0  0  0  0  0  0  0  0
   -5.0775   17.1991  -31.4027 H   0  0  0  0  0  0  0  0  0  0  0  0
   -6.9699   18.6834  -30.7372 H   0  0  0  0  0  0  0  0  0  0  0  0
   -8.0038   24.5755  -30.6580 H   0  0  0  0  0  0  0  0  0  0  0  0
   -5.3820   26.7080  -29.4210 H   0  0  0  0  0  0  0  0  0  0  0  0
  1  2  2  0
  2  3  1  0
  2  4  1  0
  4  5  2  0
  5  6  1  0
  6  7  1  0
  7  8  2  0
  8  9  1  0
  9 10  1  0
 10 11  2  0
 11 12  1  0
 12 13  2  0
 13 14  1  0
 14 15  2  0
 15 16  1  0
 15 17  1  0
 17 18  2  0
  6 19  2  0
 19 20  1  0
 20 21  1  0
 20 22  2  0
 22 23  1  0
 22  4  1  0
 11  7  1  0
 18 12  1  0
  5 24  1  0
 10 25  1  0
 13 26  1  0
 14 27  1  0
 17 28  1  0
 18 29  1  0
 19 30  1  0
 21 31  1  0
M  CHG  5   2   1   3  -1   9  -1  16  -1  23  -1
M  END
>  <UniqueID>  (50) 
48

>  <SMILES>  (50) 
O=[N+]([O-])c1cc(-c2n[n-]cc2-c2ccc([O-])cc2)cc(O)c1[O-]

>  <Energy>  (50) 
75.08982549822922

>  <Genealogy>  (50) 
O=[N+]([O-])c1cc(-c2n[n-]cc2-c2ccc([O-])cc2)cc(O)c1[O-] (protonated)
O=[N+]([O-])c1cc(-c2n[n-]cc2-c2ccc([O-])cc2)cc(O)c1[O-] (3D coordinates assigned)
O=[N+]([O-])c1cc(-c2n[n-]cc2-c2ccc([O-])cc2)cc(O)c1[O-] (optimized conformer: 75.08982549822922 kcal/mol)

>  <smiles>  (50) 
O=[N+]([O-])c1cc(-c2n[nH]cc2-c2ccc(O)cc2)cc(O)c1O

>  <score_type>  (50) 
oracle

>  <origin>  (50) 
adgpu

>  <m_score__min__energy>  (50) 
-10.380000000000001

>  <m_primary>  (50) 
energy

$$$$
