0:0
     RDKit          3D

 61 64  0  0  0  0  0  0  0  0999 V2000
   -7.5930   22.3470  -30.2400 C   0  0  0  0  0  0  0  0  0  0  0  0
   -7.4730   21.1490  -31.0860 N   0  0  0  0  0  0  0  0  0  0  0  0
   -6.9370   21.5050  -32.4170 C   0  0  0  0  0  0  0  0  0  0  0  0
   -7.2390   20.4260  -33.4810 C   0  0  0  0  0  0  0  0  0  0  0  0
   -7.4850   19.0970  -32.8940 N   0  0  0  0  0  0  0  0  0  0  0  0
   -6.0240   18.3690  -32.2560 S   0  0  0  0  0  0  0  0  0  0  0  0
   -5.7380   17.0970  -33.0050 O   0  0  0  0  0  0  0  0  0  0  0  0
   -6.1920   18.0320  -30.8000 O   0  0  0  0  0  0  0  0  0  0  0  0
   -4.6490   19.4530  -32.4610 C   0  0  0  0  0  0  0  0  0  0  0  0
   -3.9860   19.5390  -33.6920 C   0  0  0  0  0  0  0  0  0  0  0  0
   -2.8720   20.3720  -33.8320 C   0  0  0  0  0  0  0  0  0  0  0  0
   -2.4210   21.1260  -32.7470 C   0  0  0  0  0  0  0  0  0  0  0  0
   -3.0860   21.0660  -31.5130 C   0  0  0  0  0  0  0  0  0  0  0  0
   -2.5850   21.8320  -30.4050 N   0  0  0  0  0  0  0  0  0  0  0  0
   -2.9610   23.1970  -30.1370 C   0  0  0  0  0  0  0  0  0  0  0  0
   -3.7130   23.8130  -30.9420 O   0  0  0  0  0  0  0  0  0  0  0  0
   -2.4710   23.9070  -28.9310 C   0  0  0  0  0  0  0  0  0  0  0  0
   -1.1060   24.2350  -28.8210 C   0  0  0  0  0  0  0  0  0  0  0  0
   -0.6240   24.8990  -27.6900 C   0  0  0  0  0  0  0  0  0  0  0  0
   -1.4920   25.2350  -26.6460 C   0  0  0  0  0  0  0  0  0  0  0  0
   -0.8850   26.0920  -25.2330 S   0  0  0  0  0  0  0  0  0  0  0  0
   -2.0300   26.4390  -24.3200 O   0  0  0  0  0  0  0  0  0  0  0  0
    0.0690   25.2010  -24.4870 O   0  0  0  0  0  0  0  0  0  0  0  0
   -0.0500   27.5370  -25.7470 N   0  0  0  0  0  0  0  0  0  0  0  0
   -0.5030   27.9670  -27.0680 C   0  0  0  0  0  0  0  0  0  0  0  0
   -0.2580   29.4640  -27.1360 C   0  0  0  0  0  0  0  0  0  0  0  0
   -0.2340   29.9290  -25.6900 C   0  0  0  0  0  0  0  0  0  0  0  0
   -0.3260   28.6600  -24.8500 C   0  0  0  0  0  0  0  0  0  0  0  0
   -2.8500   24.9070  -26.7440 C   0  0  0  0  0  0  0  0  0  0  0  0
   -3.3370   24.2430  -27.8740 C   0  0  0  0  0  0  0  0  0  0  0  0
   -4.1910   20.2060  -31.3710 C   0  0  0  0  0  0  0  0  0  0  0  0
   -8.5810   19.1030  -31.8990 C   0  0  0  0  0  0  0  0  0  0  0  0
   -8.7690   20.4650  -31.2030 C   0  0  0  0  0  0  0  0  0  0  0  0
   -7.5635   22.0522  -29.1806 H   0  0  0  0  0  0  0  0  0  0  0  0
   -6.7589   23.0317  -30.4535 H   0  0  0  0  0  0  0  0  0  0  0  0
   -8.5463   22.8526  -30.4535 H   0  0  0  0  0  0  0  0  0  0  0  0
   -7.3903   22.4544  -32.7381 H   0  0  0  0  0  0  0  0  0  0  0  0
   -5.8441   21.5906  -32.3267 H   0  0  0  0  0  0  0  0  0  0  0  0
   -8.1317   20.7308  -34.0468 H   0  0  0  0  0  0  0  0  0  0  0  0
   -6.3536   20.3429  -34.1284 H   0  0  0  0  0  0  0  0  0  0  0  0
   -4.3425   18.9501  -34.5500 H   0  0  0  0  0  0  0  0  0  0  0  0
   -2.3501   20.4334  -34.7984 H   0  0  0  0  0  0  0  0  0  0  0  0
   -1.5378   21.7719  -32.8604 H   0  0  0  0  0  0  0  0  0  0  0  0
   -1.8660   21.3730  -29.8030 H   0  0  0  0  0  0  0  0  0  0  0  0
   -0.4134   23.9662  -29.6322 H   0  0  0  0  0  0  0  0  0  0  0  0
    0.4427   25.1586  -27.6204 H   0  0  0  0  0  0  0  0  0  0  0  0
    0.0691   27.4513  -27.8534 H   0  0  0  0  0  0  0  0  0  0  0  0
   -1.5654   27.7282  -27.2237 H   0  0  0  0  0  0  0  0  0  0  0  0
    0.7041   29.6757  -27.6254 H   0  0  0  0  0  0  0  0  0  0  0  0
   -1.0321   29.9814  -27.7218 H   0  0  0  0  0  0  0  0  0  0  0  0
    0.7020   30.4652  -25.4745 H   0  0  0  0  0  0  0  0  0  0  0  0
   -1.0594   30.6226  -25.4716 H   0  0  0  0  0  0  0  0  0  0  0  0
    0.4168   28.6881  -24.0391 H   0  0  0  0  0  0  0  0  0  0  0  0
   -1.3207   28.5625  -24.3907 H   0  0  0  0  0  0  0  0  0  0  0  0
   -3.5373   25.1732  -25.9275 H   0  0  0  0  0  0  0  0  0  0  0  0
   -4.4036   23.9817  -27.9371 H   0  0  0  0  0  0  0  0  0  0  0  0
   -4.6985   20.1242  -30.3985 H   0  0  0  0  0  0  0  0  0  0  0  0
   -9.5184   18.8411  -32.4114 H   0  0  0  0  0  0  0  0  0  0  0  0
   -8.3154   18.3740  -31.1192 H   0  0  0  0  0  0  0  0  0  0  0  0
   -9.4571   21.0858  -31.7956 H   0  0  0  0  0  0  0  0  0  0  0  0
   -9.1862   20.3041  -30.1980 H   0  0  0  0  0  0  0  0  0  0  0  0
  1  2  1  0
  2  3  1  0
  3  4  1  0
  4  5  1  0
  5  6  1  0
  6  7  2  0
  6  8  2  0
  6  9  1  0
  9 10  2  0
 10 11  1  0
 11 12  2  0
 12 13  1  0
 13 14  1  0
 14 15  1  0
 15 16  2  0
 15 17  1  0
 17 18  2  0
 18 19  1  0
 19 20  2  0
 20 21  1  0
 21 22  2  0
 21 23  2  0
 21 24  1  0
 24 25  1  0
 25 26  1  0
 26 27  1  0
 27 28  1  0
 20 29  1  0
 29 30  2  0
 13 31  2  0
  5 32  1  0
 32 33  1  0
 33  2  1  0
 31  9  1  0
 30 17  1  0
 28 24  1  0
  1 34  1  0
  1 35  1  0
  1 36  1  0
  3 37  1  0
  3 38  1  0
  4 39  1  0
  4 40  1  0
 10 41  1  0
 11 42  1  0
 12 43  1  0
 14 44  1  0
 18 45  1  0
 19 46  1  0
 25 47  1  0
 25 48  1  0
 26 49  1  0
 26 50  1  0
 27 51  1  0
 27 52  1  0
 28 53  1  0
 28 54  1  0
 29 55  1  0
 30 56  1  0
 31 57  1  0
 32 58  1  0
 32 59  1  0
 33 60  1  0
 33 61  1  0
M  END
>  <UniqueID>  (1) 
1

>  <SMILES>  (1) 
CN1CCN(S(=O)(=O)c2cccc(NC(=O)c3ccc(S(=O)(=O)N4CCCC4)cc3)c2)CC1

>  <Energy>  (1) 
79.57911995255695

>  <Genealogy>  (1) 
CN1CCN(S(=O)(=O)c2cccc(NC(=O)c3ccc(S(=O)(=O)N4CCCC4)cc3)c2)CC1 (3D coordinates assigned)
CN1CCN(S(=O)(=O)c2cccc(NC(=O)c3ccc(S(=O)(=O)N4CCCC4)cc3)c2)CC1 (nonaromatic ring conformer: 79.57911995255695 kcal/mol)

>  <smiles>  (1) 
CN1CCN(S(=O)(=O)c2cccc(NC(=O)c3ccc(S(=O)(=O)N4CCCC4)cc3)c2)CC1

>  <score_type>  (1) 
oracle

>  <origin>  (1) 
adgpu

>  <m_score__min__energy>  (1) 
-10.32

>  <m_primary>  (1) 
energy

$$$$
1:0
     RDKit          3D

 51 53  0  0  0  0  0  0  0  0999 V2000
   -9.5370   21.3220  -32.1270 C   0  0  0  0  0  0  0  0  0  0  0  0
   -8.0350   21.2210  -31.8760 C   0  0  0  0  0  0  0  0  0  0  0  0
   -7.4990   19.8370  -32.2040 C   0  0  0  0  0  0  0  0  0  0  0  0
   -6.3720   19.6110  -33.0470 C   0  0  0  0  0  0  0  0  0  0  0  0
   -5.4720   20.7740  -33.4670 C   0  0  0  0  0  0  0  0  0  0  0  0
   -4.9650   21.5700  -32.2840 C   0  0  0  0  0  0  0  0  0  0  0  0
   -4.1270   20.9520  -31.3410 C   0  0  0  0  0  0  0  0  0  0  0  0
   -3.6230   21.6770  -30.2570 C   0  0  0  0  0  0  0  0  0  0  0  0
   -3.9320   23.0350  -30.1110 C   0  0  0  0  0  0  0  0  0  0  0  0
   -3.3090   23.9410  -28.7370 S   0  0  0  0  0  0  0  0  0  0  0  0
   -2.3690   25.2740  -29.3040 N   0  0  0  0  0  0  0  0  0  0  0  0
   -4.4510   24.4490  -27.9020 O   0  0  0  0  0  0  0  0  0  0  0  0
   -2.4500   23.0490  -27.8850 O   0  0  0  0  0  0  0  0  0  0  0  0
   -4.7560   23.6610  -31.0550 C   0  0  0  0  0  0  0  0  0  0  0  0
   -5.2610   22.9380  -32.1380 C   0  0  0  0  0  0  0  0  0  0  0  0
   -6.0630   18.3170  -33.4350 N   0  0  0  0  0  0  0  0  0  0  0  0
   -5.0520   18.0500  -34.4890 C   0  0  0  0  0  0  0  0  0  0  0  0
   -3.8480   17.5460  -33.9370 O   0  0  0  0  0  0  0  0  0  0  0  0
   -2.7100   18.0900  -34.5820 C   0  0  0  0  0  0  0  0  0  0  0  0
   -2.0690   19.1460  -33.7180 C   0  0  0  0  0  0  0  0  0  0  0  0
   -1.9630   20.4690  -34.1810 C   0  0  0  0  0  0  0  0  0  0  0  0
   -1.3160   21.4370  -33.4080 C   0  0  0  0  0  0  0  0  0  0  0  0
   -0.7810   21.0960  -32.1630 C   0  0  0  0  0  0  0  0  0  0  0  0
   -0.9030   19.7890  -31.6840 C   0  0  0  0  0  0  0  0  0  0  0  0
   -1.5480   18.8170  -32.4540 C   0  0  0  0  0  0  0  0  0  0  0  0
   -6.7430   17.2590  -32.8790 C   0  0  0  0  0  0  0  0  0  0  0  0
   -6.4500   16.0700  -33.1770 O   0  0  0  0  0  0  0  0  0  0  0  0
   -7.7510   17.4720  -32.0050 N   0  0  0  0  0  0  0  0  0  0  0  0
   -8.1500   18.7150  -31.6660 C   0  0  0  0  0  0  0  0  0  0  0  0
   -9.1120   18.8470  -30.8630 O   0  0  0  0  0  0  0  0  0  0  0  0
  -10.0680   21.3577  -31.1643 H   0  0  0  0  0  0  0  0  0  0  0  0
   -9.7525   22.2367  -32.6988 H   0  0  0  0  0  0  0  0  0  0  0  0
   -9.8730   20.4444  -32.6988 H   0  0  0  0  0  0  0  0  0  0  0  0
   -7.5185   21.9610  -32.5050 H   0  0  0  0  0  0  0  0  0  0  0  0
   -7.8534   21.4135  -30.8083 H   0  0  0  0  0  0  0  0  0  0  0  0
   -4.6089   20.3714  -34.0174 H   0  0  0  0  0  0  0  0  0  0  0  0
   -6.0709   21.4510  -34.0938 H   0  0  0  0  0  0  0  0  0  0  0  0
   -3.8654   19.8898  -31.4563 H   0  0  0  0  0  0  0  0  0  0  0  0
   -2.9811   21.1786  -29.5157 H   0  0  0  0  0  0  0  0  0  0  0  0
   -2.4720   25.2990  -30.3430 H   0  0  0  0  0  0  0  0  0  0  0  0
   -5.0064   24.7263  -30.9429 H   0  0  0  0  0  0  0  0  0  0  0  0
   -5.8950   23.4417  -32.8825 H   0  0  0  0  0  0  0  0  0  0  0  0
   -5.4584   17.3111  -35.1953 H   0  0  0  0  0  0  0  0  0  0  0  0
   -4.8275   18.9977  -35.0004 H   0  0  0  0  0  0  0  0  0  0  0  0
   -1.9828   17.2868  -34.7718 H   0  0  0  0  0  0  0  0  0  0  0  0
   -3.0239   18.5487  -35.5312 H   0  0  0  0  0  0  0  0  0  0  0  0
   -2.3913   20.7437  -35.1563 H   0  0  0  0  0  0  0  0  0  0  0  0
   -1.2278   22.4684  -33.7801 H   0  0  0  0  0  0  0  0  0  0  0  0
   -0.2637   21.8566  -31.5598 H   0  0  0  0  0  0  0  0  0  0  0  0
   -0.4907   19.5246  -30.6991 H   0  0  0  0  0  0  0  0  0  0  0  0
   -1.6484   17.7911  -32.0699 H   0  0  0  0  0  0  0  0  0  0  0  0
  1  2  1  0
  2  3  1  0
  3  4  2  0
  4  5  1  0
  5  6  1  0
  6  7  2  0
  7  8  1  0
  8  9  2  0
  9 10  1  0
 10 11  1  0
 10 12  2  0
 10 13  2  0
  9 14  1  0
 14 15  2  0
  4 16  1  0
 16 17  1  0
 17 18  1  0
 18 19  1  0
 19 20  1  0
 20 21  2  0
 21 22  1  0
 22 23  2  0
 23 24  1  0
 24 25  2  0
 16 26  1  0
 26 27  2  0
 26 28  1  0
 28 29  1  0
 29 30  2  0
 29  3  1  0
 15  6  1  0
 25 20  1  0
  1 31  1  0
  1 32  1  0
  1 33  1  0
  2 34  1  0
  2 35  1  0
  5 36  1  0
  5 37  1  0
  7 38  1  0
  8 39  1  0
 11 40  1  0
 14 41  1  0
 15 42  1  0
 17 43  1  0
 17 44  1  0
 19 45  1  0
 19 46  1  0
 21 47  1  0
 22 48  1  0
 23 49  1  0
 24 50  1  0
 25 51  1  0
M  CHG  2  11  -1  28  -1
M  END
>  <UniqueID>  (2) 
2

>  <SMILES>  (2) 
CCc1c(Cc2ccc(S([NH-])(=O)=O)cc2)n(COCc2ccccc2)c(=O)[n-]c1=O

>  <Energy>  (2) 
61.796186338971765

>  <Genealogy>  (2) 
CCc1c(Cc2ccc(S([NH-])(=O)=O)cc2)n(COCc2ccccc2)c(=O)[n-]c1=O (protonated)
CCc1c(Cc2ccc(S([NH-])(=O)=O)cc2)n(COCc2ccccc2)c(=O)[n-]c1=O (3D coordinates assigned)
CCc1c(Cc2ccc(S([NH-])(=O)=O)cc2)n(COCc2ccccc2)c(=O)[n-]c1=O (optimized conformer: 61.796186338971765 kcal/mol)

>  <smiles>  (2) 
CCc1c(Cc2ccc(S(N)(=O)=O)cc2)n(COCc2ccccc2)c(=O)[nH]c1=O

>  <score_type>  (2) 
oracle

>  <origin>  (2) 
adgpu

>  <m_score__min__energy>  (2) 
-10.460000000000001

>  <m_primary>  (2) 
energy

$$$$
2:0
     RDKit          3D

 73 77  0  0  0  0  0  0  0  0999 V2000
    0.3490   22.7540  -35.7770 C   0  0  0  0  0  0  0  0  0  0  0  0
    0.8770   21.5060  -35.1340 C   0  0  0  0  0  0  0  0  0  0  0  0
    2.2360   21.4070  -34.8090 C   0  0  0  0  0  0  0  0  0  0  0  0
    2.7290   20.2550  -34.1960 C   0  0  0  0  0  0  0  0  0  0  0  0
    1.8690   19.1950  -33.8950 C   0  0  0  0  0  0  0  0  0  0  0  0
    0.4990   19.2790  -34.1980 C   0  0  0  0  0  0  0  0  0  0  0  0
   -0.4150   18.1510  -33.8850 C   0  0  0  0  0  0  0  0  0  0  0  0
   -1.6510   18.0170  -34.5360 C   0  0  0  0  0  0  0  0  0  0  0  0
   -2.4750   16.9850  -34.2280 N   0  0  0  0  0  0  0  0  0  0  0  0
   -2.1310   16.0600  -33.2910 C   0  0  0  0  0  0  0  0  0  0  0  0
   -2.9420   15.0940  -32.9760 N   0  0  0  0  0  0  0  0  0  0  0  0
   -4.2790   14.9100  -33.5430 C   0  0  0  0  0  0  0  0  0  0  0  0
   -5.1800   16.0460  -33.1360 C   0  0  0  0  0  0  0  0  0  0  0  0
   -5.4600   16.2890  -31.7800 C   0  0  0  0  0  0  0  0  0  0  0  0
   -6.3930   17.2650  -31.4180 C   0  0  0  0  0  0  0  0  0  0  0  0
   -7.0510   18.0120  -32.4040 C   0  0  0  0  0  0  0  0  0  0  0  0
   -8.3470   19.1220  -31.9670 S   0  0  0  0  0  0  0  0  0  0  0  0
   -9.0300   18.6040  -30.7320 O   0  0  0  0  0  0  0  0  0  0  0  0
   -9.3590   19.1960  -33.0760 O   0  0  0  0  0  0  0  0  0  0  0  0
   -7.6350   20.6920  -31.6660 N   0  0  0  0  0  0  0  0  0  0  0  0
   -8.6770   21.6940  -31.3570 C   0  0  0  0  0  0  0  0  0  0  0  0
   -8.2270   23.1520  -31.6150 C   0  0  0  0  0  0  0  0  0  0  0  0
   -6.7580   23.3280  -31.6090 N   0  0  0  0  0  0  0  0  0  0  0  0
   -6.1600   23.7430  -30.3120 C   0  0  0  0  0  0  0  0  0  0  0  0
   -5.3290   22.6330  -29.6330 C   0  0  0  0  0  0  0  0  0  0  0  0
   -4.6030   23.1950  -28.4040 C   0  0  0  0  0  0  0  0  0  0  0  0
   -3.7400   24.3700  -28.7050 N   0  0  0  0  0  0  0  0  0  0  0  0
   -2.3250   24.0810  -28.4260 C   0  0  0  0  0  0  0  0  0  0  0  0
   -3.8840   24.9080  -30.0760 C   0  0  0  0  0  0  0  0  0  0  0  0
   -5.3580   25.0630  -30.4660 C   0  0  0  0  0  0  0  0  0  0  0  0
   -5.9930   22.3710  -32.4420 C   0  0  0  0  0  0  0  0  0  0  0  0
   -6.7990   21.1110  -32.8020 C   0  0  0  0  0  0  0  0  0  0  0  0
   -6.7540   17.7910  -33.7540 C   0  0  0  0  0  0  0  0  0  0  0  0
   -5.8200   16.8180  -34.1180 C   0  0  0  0  0  0  0  0  0  0  0  0
   -0.9350   16.1630  -32.6570 N   0  0  0  0  0  0  0  0  0  0  0  0
   -0.0770   17.1800  -32.9310 C   0  0  0  0  0  0  0  0  0  0  0  0
    0.0100   20.4480  -34.8120 C   0  0  0  0  0  0  0  0  0  0  0  0
    0.0467   23.4685  -34.9972 H   0  0  0  0  0  0  0  0  0  0  0  0
    1.1337   23.2043  -36.4027 H   0  0  0  0  0  0  0  0  0  0  0  0
   -0.5206   22.5044  -36.4027 H   0  0  0  0  0  0  0  0  0  0  0  0
    2.9166   22.2403  -35.0379 H   0  0  0  0  0  0  0  0  0  0  0  0
    3.7982   20.1805  -33.9486 H   0  0  0  0  0  0  0  0  0  0  0  0
    2.2675   18.2879  -33.4172 H   0  0  0  0  0  0  0  0  0  0  0  0
   -1.9521   18.7509  -35.2980 H   0  0  0  0  0  0  0  0  0  0  0  0
   -4.2068   14.8793  -34.6402 H   0  0  0  0  0  0  0  0  0  0  0  0
   -4.7006   13.9663  -33.1666 H   0  0  0  0  0  0  0  0  0  0  0  0
   -4.9432   15.7091  -31.0011 H   0  0  0  0  0  0  0  0  0  0  0  0
   -6.6113   17.4472  -30.3554 H   0  0  0  0  0  0  0  0  0  0  0  0
   -7.0250   20.5690  -30.8270 H   0  0  0  0  0  0  0  0  0  0  0  0
   -9.5572   21.4853  -31.9828 H   0  0  0  0  0  0  0  0  0  0  0  0
   -8.8992   21.6091  -30.2830 H   0  0  0  0  0  0  0  0  0  0  0  0
   -8.6109   23.4659  -32.5969 H   0  0  0  0  0  0  0  0  0  0  0  0
   -8.6287   23.7638  -30.7938 H   0  0  0  0  0  0  0  0  0  0  0  0
   -7.0002   23.9329  -29.6280 H   0  0  0  0  0  0  0  0  0  0  0  0
   -5.9979   21.8181  -29.3193 H   0  0  0  0  0  0  0  0  0  0  0  0
   -4.5847   22.2522  -30.3479 H   0  0  0  0  0  0  0  0  0  0  0  0
   -5.3576   23.4988  -27.6635 H   0  0  0  0  0  0  0  0  0  0  0  0
   -3.9433   22.3991  -28.0281 H   0  0  0  0  0  0  0  0  0  0  0  0
   -2.1650   24.0483  -27.3382 H   0  0  0  0  0  0  0  0  0  0  0  0
   -2.0556   23.1093  -28.8656 H   0  0  0  0  0  0  0  0  0  0  0  0
   -1.6962   24.8693  -28.8656 H   0  0  0  0  0  0  0  0  0  0  0  0
   -3.3953   25.8921  -30.1271 H   0  0  0  0  0  0  0  0  0  0  0  0
   -3.4142   24.2010  -30.7756 H   0  0  0  0  0  0  0  0  0  0  0  0
   -5.8139   25.8291  -29.8216 H   0  0  0  0  0  0  0  0  0  0  0  0
   -5.3926   25.3511  -31.5270 H   0  0  0  0  0  0  0  0  0  0  0  0
   -5.6966   22.8757  -33.3734 H   0  0  0  0  0  0  0  0  0  0  0  0
   -5.1206   22.0476  -31.8552 H   0  0  0  0  0  0  0  0  0  0  0  0
   -7.4446   21.3287  -33.6656 H   0  0  0  0  0  0  0  0  0  0  0  0
   -6.0988   20.2988  -33.0471 H   0  0  0  0  0  0  0  0  0  0  0  0
   -7.2576   18.3853  -34.5306 H   0  0  0  0  0  0  0  0  0  0  0  0
   -5.5848   16.6560  -35.1803 H   0  0  0  0  0  0  0  0  0  0  0  0
    0.8860   17.2422  -32.4029 H   0  0  0  0  0  0  0  0  0  0  0  0
   -1.0622   20.5340  -35.0421 H   0  0  0  0  0  0  0  0  0  0  0  0
  1  2  1  0
  2  3  2  0
  3  4  1  0
  4  5  2  0
  5  6  1  0
  6  7  1  0
  7  8  1  0
  8  9  2  0
  9 10  1  0
 10 11  2  3
 11 12  1  0
 12 13  1  0
 13 14  2  0
 14 15  1  0
 15 16  2  0
 16 17  1  0
 17 18  2  0
 17 19  2  0
 17 20  1  0
 20 21  1  0
 21 22  1  0
 22 23  1  0
 23 24  1  0
 24 25  1  0
 25 26  1  0
 26 27  1  0
 27 28  1  0
 27 29  1  0
 29 30  1  0
 23 31  1  0
 31 32  1  0
 16 33  1  0
 33 34  2  0
 10 35  1  0
 35 36  1  0
  6 37  2  0
 37  2  1  0
 36  7  2  0
 34 13  1  0
 32 20  1  0
 30 24  1  0
  1 38  1  0
  1 39  1  0
  1 40  1  0
  3 41  1  0
  4 42  1  0
  5 43  1  0
  8 44  1  0
 12 45  1  0
 12 46  1  0
 14 47  1  0
 15 48  1  0
 20 49  1  0
 21 50  1  0
 21 51  1  0
 22 52  1  0
 22 53  1  0
 24 54  1  0
 25 55  1  0
 25 56  1  0
 26 57  1  0
 26 58  1  0
 28 59  1  0
 28 60  1  0
 28 61  1  0
 29 62  1  0
 29 63  1  0
 30 64  1  0
 30 65  1  0
 31 66  1  0
 31 67  1  0
 32 68  1  0
 32 69  1  0
 33 70  1  0
 34 71  1  0
 36 72  1  0
 37 73  1  0
M  CHG  2  20   1  35  -1
M  END
>  <UniqueID>  (3) 
3

>  <SMILES>  (3) 
Cc1cccc(-c2cnc(=NCc3ccc(S(=O)(=O)[NH+]4CCN(C5CCN(C)CC5)CC4)cc3)[n-]c2)c1

>  <Energy>  (3) 
102.38090589504878

>  <Genealogy>  (3) 
Cc1cccc(-c2cnc(=NCc3ccc(S(=O)(=O)[NH+]4CCN(C5CCN(C)CC5)CC4)cc3)[n-]c2)c1 (protonated)
Cc1cccc(-c2cnc(=NCc3ccc(S(=O)(=O)[NH+]4CCN(C5CCN(C)CC5)CC4)cc3)[n-]c2)c1 (3D coordinates assigned)
Cc1cccc(-c2cnc(=NCc3ccc(S(=O)(=O)[NH+]4CCN(C5CCN(C)CC5)CC4)cc3)[n-]c2)c1 (nonaromatic ring conformer: 102.38090589504878 kcal/mol)

>  <smiles>  (3) 
Cc1cccc(-c2cnc(=NCc3ccc(S(=O)(=O)N4CCN(C5CCN(C)CC5)CC4)cc3)[nH]c2)c1

>  <score_type>  (3) 
oracle

>  <origin>  (3) 
adgpu

>  <m_score__min__energy>  (3) 
-12.48

>  <m_primary>  (3) 
energy

$$$$
3:0
     RDKit          3D

 71 74  0  0  0  0  0  0  0  0999 V2000
   -6.8150   18.0690  -31.1740 C   0  0  0  0  0  0  0  0  0  0  0  0
   -6.5910   19.0570  -32.3400 C   0  0  0  0  0  0  0  0  0  0  0  0
   -7.9080   19.2090  -33.1410 C   0  0  0  0  0  0  0  0  0  0  0  0
   -5.5360   18.4880  -33.3210 C   0  0  0  0  0  0  0  0  0  0  0  0
   -4.1240   18.5680  -32.7540 C   0  0  0  0  0  0  0  0  0  0  0  0
   -3.6770   20.0270  -32.4850 C   0  0  0  0  0  0  0  0  0  0  0  0
   -2.4200   19.9500  -31.5900 C   0  0  0  0  0  0  0  0  0  0  0  0
   -3.2890   20.7130  -33.8160 C   0  0  0  0  0  0  0  0  0  0  0  0
   -4.7860   20.8460  -31.8040 C   0  0  0  0  0  0  0  0  0  0  0  0
   -4.4650   22.1140  -31.2650 C   0  0  0  0  0  0  0  0  0  0  0  0
   -5.4320   22.9090  -30.6450 C   0  0  0  0  0  0  0  0  0  0  0  0
   -4.9910   24.4710  -29.9560 S   0  0  0  0  0  0  0  0  0  0  0  0
   -5.8310   25.5410  -30.5950 O   0  0  0  0  0  0  0  0  0  0  0  0
   -5.2720   24.4690  -28.4790 O   0  0  0  0  0  0  0  0  0  0  0  0
   -3.3160   24.8340  -30.2170 N   0  0  0  0  0  0  0  0  0  0  0  0
   -2.3090   24.3350  -29.3290 C   0  0  0  0  0  0  0  0  0  0  0  0
   -2.3500   23.0020  -28.8910 C   0  0  0  0  0  0  0  0  0  0  0  0
   -1.3890   22.5220  -27.9860 C   0  0  0  0  0  0  0  0  0  0  0  0
   -1.4610   21.1310  -27.5110 C   0  0  0  0  0  0  0  0  0  0  0  0
   -2.4180   20.7910  -26.7520 O   0  0  0  0  0  0  0  0  0  0  0  0
   -0.4890   20.1580  -27.9400 N   0  0  0  0  0  0  0  0  0  0  0  0
   -0.8260   18.7320  -27.9610 C   0  0  0  0  0  0  0  0  0  0  0  0
   -0.1080   18.0740  -29.1420 C   0  0  0  0  0  0  0  0  0  0  0  0
    1.3630   18.1930  -29.0180 N   0  0  0  0  0  0  0  0  0  0  0  0
    2.1270   17.9860  -30.5770 S   0  0  0  0  0  0  0  0  0  0  0  0
    3.2060   16.5660  -30.5970 C   0  0  0  0  0  0  0  0  0  0  0  0
    2.9210   19.2140  -30.9220 O   0  0  0  0  0  0  0  0  0  0  0  0
    1.0650   17.7900  -31.6220 O   0  0  0  0  0  0  0  0  0  0  0  0
    1.8470   19.4130  -28.3270 C   0  0  0  0  0  0  0  0  0  0  0  0
    0.8510   20.5820  -28.3790 C   0  0  0  0  0  0  0  0  0  0  0  0
   -0.3670   23.3760  -27.5400 C   0  0  0  0  0  0  0  0  0  0  0  0
   -0.2890   24.6890  -28.0180 C   0  0  0  0  0  0  0  0  0  0  0  0
   -1.2560   25.1700  -28.9060 C   0  0  0  0  0  0  0  0  0  0  0  0
   -1.1730   26.4850  -29.3570 O   0  0  0  0  0  0  0  0  0  0  0  0
   -6.7400   22.4450  -30.5400 C   0  0  0  0  0  0  0  0  0  0  0  0
   -7.0910   21.2100  -31.0810 C   0  0  0  0  0  0  0  0  0  0  0  0
   -6.1450   20.4100  -31.7630 C   0  0  0  0  0  0  0  0  0  0  0  0
   -6.6951   18.5980  -30.2170 H   0  0  0  0  0  0  0  0  0  0  0  0
   -7.8306   17.6513  -31.2373 H   0  0  0  0  0  0  0  0  0  0  0  0
   -6.0788   17.2541  -31.2373 H   0  0  0  0  0  0  0  0  0  0  0  0
   -8.7525   19.3065  -32.4430 H   0  0  0  0  0  0  0  0  0  0  0  0
   -7.8504   20.1065  -33.7744 H   0  0  0  0  0  0  0  0  0  0  0  0
   -8.0564   18.3220  -33.7744 H   0  0  0  0  0  0  0  0  0  0  0  0
   -5.7759   17.4346  -33.5280 H   0  0  0  0  0  0  0  0  0  0  0  0
   -5.5669   19.0924  -34.2396 H   0  0  0  0  0  0  0  0  0  0  0  0
   -4.0912   18.0083  -31.8076 H   0  0  0  0  0  0  0  0  0  0  0  0
   -3.4384   18.1394  -33.4999 H   0  0  0  0  0  0  0  0  0  0  0  0
   -2.7213   19.9685  -30.5322 H   0  0  0  0  0  0  0  0  0  0  0  0
   -1.8768   19.0169  -31.8003 H   0  0  0  0  0  0  0  0  0  0  0  0
   -1.7669   20.8098  -31.8003 H   0  0  0  0  0  0  0  0  0  0  0  0
   -2.7577   21.6524  -33.6031 H   0  0  0  0  0  0  0  0  0  0  0  0
   -2.6349   20.0451  -34.3957 H   0  0  0  0  0  0  0  0  0  0  0  0
   -4.1985   20.9294  -34.3957 H   0  0  0  0  0  0  0  0  0  0  0  0
   -3.4309   22.4822  -31.3357 H   0  0  0  0  0  0  0  0  0  0  0  0
   -3.1030   25.6790  -30.7960 H   0  0  0  0  0  0  0  0  0  0  0  0
   -3.1391   22.3296  -29.2586 H   0  0  0  0  0  0  0  0  0  0  0  0
   -0.5008   18.2612  -27.0215 H   0  0  0  0  0  0  0  0  0  0  0  0
   -1.9136   18.6060  -28.0669 H   0  0  0  0  0  0  0  0  0  0  0  0
   -0.3787   17.0084  -29.1761 H   0  0  0  0  0  0  0  0  0  0  0  0
   -0.4191   18.5869  -30.0640 H   0  0  0  0  0  0  0  0  0  0  0  0
    3.4349   16.2648  -29.5641 H   0  0  0  0  0  0  0  0  0  0  0  0
    2.7092   15.7353  -31.1196 H   0  0  0  0  0  0  0  0  0  0  0  0
    4.1394   16.8221  -31.1196 H   0  0  0  0  0  0  0  0  0  0  0  0
    2.0369   19.1639  -27.2725 H   0  0  0  0  0  0  0  0  0  0  0  0
    2.7584   19.7406  -28.8486 H   0  0  0  0  0  0  0  0  0  0  0  0
    1.2071   21.3868  -27.7190 H   0  0  0  0  0  0  0  0  0  0  0  0
    0.7820   20.9356  -29.4183 H   0  0  0  0  0  0  0  0  0  0  0  0
    0.3740   23.0119  -26.8131 H   0  0  0  0  0  0  0  0  0  0  0  0
    0.5340   25.3434  -27.6947 H   0  0  0  0  0  0  0  0  0  0  0  0
   -7.4989   23.0552  -30.0284 H   0  0  0  0  0  0  0  0  0  0  0  0
   -8.1250   20.8498  -30.9755 H   0  0  0  0  0  0  0  0  0  0  0  0
  1  2  1  0
  2  3  1  0
  2  4  1  0
  4  5  1  0
  5  6  1  0
  6  7  1  0
  6  8  1  0
  6  9  1  0
  9 10  2  0
 10 11  1  0
 11 12  1  0
 12 13  2  0
 12 14  2  0
 12 15  1  0
 15 16  1  0
 16 17  2  0
 17 18  1  0
 18 19  1  0
 19 20  2  0
 19 21  1  0
 21 22  1  0
 22 23  1  0
 23 24  1  0
 24 25  1  0
 25 26  1  0
 25 27  2  0
 25 28  2  0
 24 29  1  0
 29 30  1  0
 18 31  2  0
 31 32  1  0
 32 33  2  0
 33 34  1  0
 11 35  2  0
 35 36  1  0
 36 37  2  0
 37  2  1  0
 37  9  1  0
 33 16  1  0
 30 21  1  0
  1 38  1  0
  1 39  1  0
  1 40  1  0
  3 41  1  0
  3 42  1  0
  3 43  1  0
  4 44  1  0
  4 45  1  0
  5 46  1  0
  5 47  1  0
  7 48  1  0
  7 49  1  0
  7 50  1  0
  8 51  1  0
  8 52  1  0
  8 53  1  0
 10 54  1  0
 15 55  1  0
 17 56  1  0
 22 57  1  0
 22 58  1  0
 23 59  1  0
 23 60  1  0
 26 61  1  0
 26 62  1  0
 26 63  1  0
 29 64  1  0
 29 65  1  0
 30 66  1  0
 30 67  1  0
 31 68  1  0
 32 69  1  0
 35 70  1  0
 36 71  1  0
M  CHG  1  34  -1
M  END
>  <UniqueID>  (4) 
4

>  <SMILES>  (4) 
CC1(C)CCC(C)(C)c2cc(S(=O)(=O)Nc3cc(C(=O)N4CCN(S(C)(=O)=O)CC4)ccc3[O-])ccc21

>  <Energy>  (4) 
85.19077111862882

>  <Genealogy>  (4) 
CC1(C)CCC(C)(C)c2cc(S(=O)(=O)Nc3cc(C(=O)N4CCN(S(C)(=O)=O)CC4)ccc3[O-])ccc21 (protonated)
CC1(C)CCC(C)(C)c2cc(S(=O)(=O)Nc3cc(C(=O)N4CCN(S(C)(=O)=O)CC4)ccc3[O-])ccc21 (3D coordinates assigned)
CC1(C)CCC(C)(C)c2cc(S(=O)(=O)Nc3cc(C(=O)N4CCN(S(C)(=O)=O)CC4)ccc3[O-])ccc21 (nonaromatic ring conformer: 85.19077111862882 kcal/mol)

>  <smiles>  (4) 
CC1(C)CCC(C)(C)c2cc(S(=O)(=O)Nc3cc(C(=O)N4CCN(S(C)(=O)=O)CC4)ccc3O)ccc21

>  <score_type>  (4) 
oracle

>  <origin>  (4) 
adgpu

>  <m_score__min__energy>  (4) 
-15.789999999999999

>  <m_primary>  (4) 
energy

$$$$
4:0
     RDKit          3D

 49 51  0  0  0  0  0  0  0  0999 V2000
   -0.7320   24.7180  -28.7190 O   0  0  0  0  0  0  0  0  0  0  0  0
   -1.7300   23.9600  -28.8590 C   0  0  0  0  0  0  0  0  0  0  0  0
   -2.6350   23.7060  -27.6970 C   0  0  0  0  0  0  0  0  0  0  0  0
   -2.6910   24.9370  -26.7830 C   0  0  0  0  0  0  0  0  0  0  0  0
   -1.5800   24.9300  -25.7230 C   0  0  0  0  0  0  0  0  0  0  0  0
   -0.9860   26.2990  -25.5160 C   0  0  0  0  0  0  0  0  0  0  0  0
   -0.5910   26.7170  -24.2330 C   0  0  0  0  0  0  0  0  0  0  0  0
   -0.0100   27.9770  -24.0500 C   0  0  0  0  0  0  0  0  0  0  0  0
    0.1830   28.8250  -25.1430 C   0  0  0  0  0  0  0  0  0  0  0  0
   -0.2040   28.4160  -26.4220 C   0  0  0  0  0  0  0  0  0  0  0  0
   -0.7850   27.1570  -26.6100 C   0  0  0  0  0  0  0  0  0  0  0  0
   -2.0620   23.4240  -30.1450 N   0  0  0  0  0  0  0  0  0  0  0  0
   -3.3860   23.2920  -30.6790 C   0  0  0  0  0  0  0  0  0  0  0  0
   -3.7890   22.0400  -31.1630 C   0  0  0  0  0  0  0  0  0  0  0  0
   -5.0700   21.8610  -31.7060 C   0  0  0  0  0  0  0  0  0  0  0  0
   -5.5750   20.2710  -32.2910 S   0  0  0  0  0  0  0  0  0  0  0  0
   -4.5830   19.2420  -31.8240 O   0  0  0  0  0  0  0  0  0  0  0  0
   -5.5630   20.2760  -33.7950 O   0  0  0  0  0  0  0  0  0  0  0  0
   -7.1680   19.8190  -31.7350 N   0  0  0  0  0  0  0  0  0  0  0  0
   -7.6020   18.5370  -32.2850 C   0  0  0  0  0  0  0  0  0  0  0  0
   -9.1260   18.5690  -32.3180 C   0  0  0  0  0  0  0  0  0  0  0  0
   -9.5050   20.0330  -32.1530 C   0  0  0  0  0  0  0  0  0  0  0  0
   -8.1860   20.7850  -32.1420 C   0  0  0  0  0  0  0  0  0  0  0  0
   -5.9530   22.9480  -31.7600 C   0  0  0  0  0  0  0  0  0  0  0  0
   -5.5490   24.2070  -31.3100 C   0  0  0  0  0  0  0  0  0  0  0  0
   -4.2660   24.3910  -30.7870 C   0  0  0  0  0  0  0  0  0  0  0  0
   -3.8670   25.6680  -30.4100 O   0  0  0  0  0  0  0  0  0  0  0  0
   -3.6466   23.4834  -28.0674 H   0  0  0  0  0  0  0  0  0  0  0  0
   -2.2463   22.8524  -27.1222 H   0  0  0  0  0  0  0  0  0  0  0  0
   -2.5842   25.8408  -27.4008 H   0  0  0  0  0  0  0  0  0  0  0  0
   -3.6568   24.9204  -26.2567 H   0  0  0  0  0  0  0  0  0  0  0  0
   -2.0014   24.5783  -24.7697 H   0  0  0  0  0  0  0  0  0  0  0  0
   -0.7795   24.2630  -26.0755 H   0  0  0  0  0  0  0  0  0  0  0  0
   -0.7392   26.0513  -23.3699 H   0  0  0  0  0  0  0  0  0  0  0  0
    0.2952   28.3000  -23.0438 H   0  0  0  0  0  0  0  0  0  0  0  0
    0.6397   29.8150  -24.9970 H   0  0  0  0  0  0  0  0  0  0  0  0
   -0.0517   29.0846  -27.2821 H   0  0  0  0  0  0  0  0  0  0  0  0
   -1.0856   26.8377  -27.6188 H   0  0  0  0  0  0  0  0  0  0  0  0
   -3.0936   21.1889  -31.1166 H   0  0  0  0  0  0  0  0  0  0  0  0
   -7.2033   18.4060  -33.3018 H   0  0  0  0  0  0  0  0  0  0  0  0
   -7.2366   17.6993  -31.6729 H   0  0  0  0  0  0  0  0  0  0  0  0
   -9.4980   18.1813  -33.2778 H   0  0  0  0  0  0  0  0  0  0  0  0
   -9.5647   17.9421  -31.5277 H   0  0  0  0  0  0  0  0  0  0  0  0
  -10.1324   20.3664  -32.9928 H   0  0  0  0  0  0  0  0  0  0  0  0
  -10.0860   20.2071  -31.2353 H   0  0  0  0  0  0  0  0  0  0  0  0
   -7.9614   21.1753  -33.1456 H   0  0  0  0  0  0  0  0  0  0  0  0
   -8.2204   21.6436  -31.4553 H   0  0  0  0  0  0  0  0  0  0  0  0
   -6.9688   22.8090  -32.1586 H   0  0  0  0  0  0  0  0  0  0  0  0
   -6.2439   25.0578  -31.3675 H   0  0  0  0  0  0  0  0  0  0  0  0
  1  2  2  0
  2  3  1  0
  3  4  1  0
  4  5  1  0
  5  6  1  0
  6  7  2  0
  7  8  1  0
  8  9  2  0
  9 10  1  0
 10 11  2  0
  2 12  1  0
 12 13  1  0
 13 14  2  0
 14 15  1  0
 15 16  1  0
 16 17  2  0
 16 18  2  0
 16 19  1  0
 19 20  1  0
 20 21  1  0
 21 22  1  0
 22 23  1  0
 15 24  2  0
 24 25  1  0
 25 26  2  0
 26 27  1  0
 11  6  1  0
 26 13  1  0
 23 19  1  0
  3 28  1  0
  3 29  1  0
  4 30  1  0
  4 31  1  0
  5 32  1  0
  5 33  1  0
  7 34  1  0
  8 35  1  0
  9 36  1  0
 10 37  1  0
 11 38  1  0
 14 39  1  0
 20 40  1  0
 20 41  1  0
 21 42  1  0
 21 43  1  0
 22 44  1  0
 22 45  1  0
 23 46  1  0
 23 47  1  0
 24 48  1  0
 25 49  1  0
M  CHG  2  12  -1  27  -1
M  END
>  <UniqueID>  (5) 
5

>  <SMILES>  (5) 
O=C(CCCc1ccccc1)[N-]c1cc(S(=O)(=O)N2CCCC2)ccc1[O-]

>  <Energy>  (5) 
51.014960858386466

>  <Genealogy>  (5) 
O=C(CCCc1ccccc1)[N-]c1cc(S(=O)(=O)N2CCCC2)ccc1[O-] (protonated)
O=C(CCCc1ccccc1)[N-]c1cc(S(=O)(=O)N2CCCC2)ccc1[O-] (3D coordinates assigned)
O=C(CCCc1ccccc1)[N-]c1cc(S(=O)(=O)N2CCCC2)ccc1[O-] (nonaromatic ring conformer: 51.014960858386466 kcal/mol)

>  <smiles>  (5) 
O=C(CCCc1ccccc1)Nc1cc(S(=O)(=O)N2CCCC2)ccc1O

>  <score_type>  (5) 
oracle

>  <origin>  (5) 
adgpu

>  <m_score__min__energy>  (5) 
-14.220000000000001

>  <m_primary>  (5) 
energy

$$$$
5:0
     RDKit          3D

 53 56  0  0  0  0  0  0  0  0999 V2000
   -0.8820   26.1240  -27.7830 C   0  0  0  0  0  0  0  0  0  0  0  0
   -1.5490   25.7620  -28.9880 O   0  0  0  0  0  0  0  0  0  0  0  0
   -2.1660   24.5200  -29.2140 C   0  0  0  0  0  0  0  0  0  0  0  0
   -1.6490   23.3210  -28.6880 C   0  0  0  0  0  0  0  0  0  0  0  0
   -2.2760   22.0890  -28.9530 C   0  0  0  0  0  0  0  0  0  0  0  0
   -1.7020   20.8200  -28.4280 C   0  0  0  0  0  0  0  0  0  0  0  0
   -2.1060   20.3080  -27.1830 C   0  0  0  0  0  0  0  0  0  0  0  0
   -1.5880   19.1020  -26.7080 C   0  0  0  0  0  0  0  0  0  0  0  0
   -0.6530   18.3890  -27.4630 C   0  0  0  0  0  0  0  0  0  0  0  0
   -0.1870   17.2340  -26.9980 O   0  0  0  0  0  0  0  0  0  0  0  0
    0.6960   16.4990  -27.6620 C   0  0  0  0  0  0  0  0  0  0  0  0
    1.0930   15.4100  -27.1710 O   0  0  0  0  0  0  0  0  0  0  0  0
    1.1880   16.9260  -28.8970 C   0  0  0  0  0  0  0  0  0  0  0  0
    0.7490   18.1450  -29.4320 C   0  0  0  0  0  0  0  0  0  0  0  0
    1.3090   18.6030  -30.7640 C   0  0  0  0  0  0  0  0  0  0  0  0
    0.3850   18.1760  -31.9280 C   0  0  0  0  0  0  0  0  0  0  0  0
   -0.7340   19.1090  -32.2200 N   0  0  0  0  0  0  0  0  0  0  0  0
   -1.6730   18.5880  -33.2470 C   0  0  0  0  0  0  0  0  0  0  0  0
   -2.6750   19.6570  -33.7480 C   0  0  0  0  0  0  0  0  0  0  0  0
   -2.8010   20.8340  -32.7790 C   0  0  0  0  0  0  0  0  0  0  0  0
   -1.4340   21.4880  -32.5090 C   0  0  0  0  0  0  0  0  0  0  0  0
   -0.2690   20.4760  -32.5500 C   0  0  0  0  0  0  0  0  0  0  0  0
   -0.2140   18.8930  -28.7090 C   0  0  0  0  0  0  0  0  0  0  0  0
   -0.7540   20.1050  -29.1820 C   0  0  0  0  0  0  0  0  0  0  0  0
   -3.4400   22.0750  -29.7410 C   0  0  0  0  0  0  0  0  0  0  0  0
   -3.9670   23.2640  -30.2510 C   0  0  0  0  0  0  0  0  0  0  0  0
   -5.4220   23.2100  -31.2360 Cl  0  0  0  0  0  0  0  0  0  0  0  0
   -3.3300   24.4840  -29.9910 C   0  0  0  0  0  0  0  0  0  0  0  0
   -3.8520   25.6650  -30.5080 O   0  0  0  0  0  0  0  0  0  0  0  0
   -1.4815   25.7986  -26.9201 H   0  0  0  0  0  0  0  0  0  0  0  0
    0.1038   25.6371  -27.7491 H   0  0  0  0  0  0  0  0  0  0  0  0
   -0.7530   27.2159  -27.7491 H   0  0  0  0  0  0  0  0  0  0  0  0
   -0.7445   23.3472  -28.0626 H   0  0  0  0  0  0  0  0  0  0  0  0
   -2.8374   20.8630  -26.5771 H   0  0  0  0  0  0  0  0  0  0  0  0
   -1.9176   18.7108  -25.7342 H   0  0  0  0  0  0  0  0  0  0  0  0
    1.9151   16.3100  -29.4464 H   0  0  0  0  0  0  0  0  0  0  0  0
    1.3986   19.6993  -30.7591 H   0  0  0  0  0  0  0  0  0  0  0  0
    2.2949   18.1372  -30.9093 H   0  0  0  0  0  0  0  0  0  0  0  0
    0.9998   18.0867  -32.8358 H   0  0  0  0  0  0  0  0  0  0  0  0
   -0.0796   17.2283  -31.6182 H   0  0  0  0  0  0  0  0  0  0  0  0
   -1.2680   19.1770  -31.3180 H   0  0  0  0  0  0  0  0  0  0  0  0
   -1.0881   18.2261  -34.1054 H   0  0  0  0  0  0  0  0  0  0  0  0
   -2.2578   17.7820  -32.7797 H   0  0  0  0  0  0  0  0  0  0  0  0
   -2.3308   20.0357  -34.7217 H   0  0  0  0  0  0  0  0  0  0  0  0
   -3.6631   19.1804  -33.8288 H   0  0  0  0  0  0  0  0  0  0  0  0
   -3.4773   21.5847  -33.2138 H   0  0  0  0  0  0  0  0  0  0  0  0
   -3.1985   20.4563  -31.8254 H   0  0  0  0  0  0  0  0  0  0  0  0
   -1.2565   22.2596  -33.2726 H   0  0  0  0  0  0  0  0  0  0  0  0
   -1.4656   21.9163  -31.4963 H   0  0  0  0  0  0  0  0  0  0  0  0
    0.1675   20.4724  -33.5597 H   0  0  0  0  0  0  0  0  0  0  0  0
    0.4807   20.7781  -31.8039 H   0  0  0  0  0  0  0  0  0  0  0  0
   -0.4292   20.4985  -30.1565 H   0  0  0  0  0  0  0  0  0  0  0  0
   -3.9402   21.1196  -29.9579 H   0  0  0  0  0  0  0  0  0  0  0  0
  1  2  1  0
  2  3  1  0
  3  4  2  0
  4  5  1  0
  5  6  1  0
  6  7  2  0
  7  8  1  0
  8  9  2  0
  9 10  1  0
 10 11  1  0
 11 12  2  0
 11 13  1  0
 13 14  2  0
 14 15  1  0
 15 16  1  0
 16 17  1  0
 17 18  1  0
 18 19  1  0
 19 20  1  0
 20 21  1  0
 21 22  1  0
 14 23  1  0
 23 24  2  0
  5 25  2  0
 25 26  1  0
 26 27  1  0
 26 28  2  0
 28 29  1  0
 28  3  1  0
 24  6  1  0
 23  9  1  0
 22 17  1  0
  1 30  1  0
  1 31  1  0
  1 32  1  0
  4 33  1  0
  7 34  1  0
  8 35  1  0
 13 36  1  0
 15 37  1  0
 15 38  1  0
 16 39  1  0
 16 40  1  0
 17 41  1  0
 18 42  1  0
 18 43  1  0
 19 44  1  0
 19 45  1  0
 20 46  1  0
 20 47  1  0
 21 48  1  0
 21 49  1  0
 22 50  1  0
 22 51  1  0
 24 52  1  0
 25 53  1  0
M  CHG  2  17   1  29  -1
M  END
>  <UniqueID>  (6) 
6

>  <SMILES>  (6) 
COc1cc(-c2ccc3oc(=O)cc(CC[NH+]4CCCCC4)c3c2)cc(Cl)c1[O-]

>  <Energy>  (6) 
74.47419260631118

>  <Genealogy>  (6) 
COc1cc(-c2ccc3oc(=O)cc(CC[NH+]4CCCCC4)c3c2)cc(Cl)c1[O-] (protonated)
COc1cc(-c2ccc3oc(=O)cc(CC[NH+]4CCCCC4)c3c2)cc(Cl)c1[O-] (3D coordinates assigned)
COc1cc(-c2ccc3oc(=O)cc(CC[NH+]4CCCCC4)c3c2)cc(Cl)c1[O-] (nonaromatic ring conformer: 74.47419260631118 kcal/mol)

>  <smiles>  (6) 
COc1cc(-c2ccc3oc(=O)cc(CCN4CCCCC4)c3c2)cc(Cl)c1O

>  <score_type>  (6) 
oracle

>  <origin>  (6) 
adgpu

>  <m_score__min__energy>  (6) 
-11.98

>  <m_primary>  (6) 
energy

$$$$
6:0
     RDKit          3D

 30 31  0  0  0  0  0  0  0  0999 V2000
   -4.7560   16.6150  -33.0000 N   0  0  0  0  0  0  0  0  0  0  0  0
   -5.9430   17.4180  -33.9640 S   0  0  0  0  0  0  0  0  0  0  0  0
   -7.2440   16.6690  -33.8880 O   0  0  0  0  0  0  0  0  0  0  0  0
   -5.4880   17.4480  -35.3950 O   0  0  0  0  0  0  0  0  0  0  0  0
   -6.1660   19.0610  -33.3730 C   0  0  0  0  0  0  0  0  0  0  0  0
   -7.3930   19.4490  -32.8190 C   0  0  0  0  0  0  0  0  0  0  0  0
   -7.5680   20.7510  -32.3360 C   0  0  0  0  0  0  0  0  0  0  0  0
   -6.5180   21.6790  -32.4090 C   0  0  0  0  0  0  0  0  0  0  0  0
   -6.6920   23.0630  -31.8540 C   0  0  0  0  0  0  0  0  0  0  0  0
   -5.4430   23.4940  -31.2390 N   0  0  0  0  0  0  0  0  0  0  0  0
   -5.1530   23.2400  -30.0010 C   0  0  0  0  0  0  0  0  0  0  0  0
   -3.8750   23.6900  -29.3940 C   0  0  0  0  0  0  0  0  0  0  0  0
   -3.2740   24.8840  -29.8360 C   0  0  0  0  0  0  0  0  0  0  0  0
   -3.8610   25.6500  -30.8370 O   0  0  0  0  0  0  0  0  0  0  0  0
   -2.1050   25.3030  -29.2870 N   0  0  0  0  0  0  0  0  0  0  0  0
   -1.4920   24.5910  -28.3090 C   0  0  0  0  0  0  0  0  0  0  0  0
   -0.0880   25.1230  -27.6710 S   0  0  0  0  0  0  0  0  0  0  0  0
   -2.0470   23.4370  -27.8610 N   0  0  0  0  0  0  0  0  0  0  0  0
   -3.2140   22.9690  -28.3740 C   0  0  0  0  0  0  0  0  0  0  0  0
   -3.6890   21.8930  -27.9230 O   0  0  0  0  0  0  0  0  0  0  0  0
   -5.2830   21.2820  -32.9440 C   0  0  0  0  0  0  0  0  0  0  0  0
   -5.1090   19.9800  -33.4260 C   0  0  0  0  0  0  0  0  0  0  0  0
   -4.5210   15.7210  -33.4890 H   0  0  0  0  0  0  0  0  0  0  0  0
   -8.2218   18.7278  -32.7634 H   0  0  0  0  0  0  0  0  0  0  0  0
   -8.5322   21.0478  -31.8976 H   0  0  0  0  0  0  0  0  0  0  0  0
   -6.9594   23.7542  -32.6668 H   0  0  0  0  0  0  0  0  0  0  0  0
   -7.4931   23.0605  -31.1002 H   0  0  0  0  0  0  0  0  0  0  0  0
   -5.8709   22.6777  -29.3858 H   0  0  0  0  0  0  0  0  0  0  0  0
   -4.4483   21.9973  -32.9846 H   0  0  0  0  0  0  0  0  0  0  0  0
   -4.1395   19.6766  -33.8479 H   0  0  0  0  0  0  0  0  0  0  0  0
  1  2  1  0
  2  3  2  0
  2  4  2  0
  2  5  1  0
  5  6  2  0
  6  7  1  0
  7  8  2  0
  8  9  1  0
  9 10  1  0
 10 11  2  3
 11 12  1  0
 12 13  2  0
 13 14  1  0
 13 15  1  0
 15 16  1  0
 16 17  2  0
 16 18  1  0
 18 19  1  0
 19 20  2  0
  8 21  1  0
 21 22  2  0
 22  5  1  0
 19 12  1  0
  1 23  1  0
  6 24  1  0
  7 25  1  0
  9 26  1  0
  9 27  1  0
 11 28  1  0
 21 29  1  0
 22 30  1  0
M  CHG  4   1  -1  14  -1  15  -1  18  -1
M  END
>  <UniqueID>  (7) 
7

>  <SMILES>  (7) 
[NH-]S(=O)(=O)c1ccc(CN=Cc2c([O-])[n-]c(=S)[n-]c2=O)cc1

>  <Energy>  (7) 
31.16961246877687

>  <Genealogy>  (7) 
[NH-]S(=O)(=O)c1ccc(CN=Cc2c([O-])[n-]c(=S)[n-]c2=O)cc1 (protonated)
[NH-]S(=O)(=O)c1ccc(CN=Cc2c([O-])[n-]c(=S)[n-]c2=O)cc1 (3D coordinates assigned)
[NH-]S(=O)(=O)c1ccc(CN=Cc2c([O-])[n-]c(=S)[n-]c2=O)cc1 (optimized conformer: 31.16961246877687 kcal/mol)

>  <smiles>  (7) 
NS(=O)(=O)c1ccc(CN=Cc2c(O)[nH]c(=S)[nH]c2=O)cc1

>  <score_type>  (7) 
oracle

>  <origin>  (7) 
adgpu

>  <m_score__min__energy>  (7) 
-12.83

>  <m_primary>  (7) 
energy

$$$$
7:0
     RDKit          3D

 57 60  0  0  0  0  0  0  0  0999 V2000
   -5.6910   26.0300  -29.8170 O   0  0  0  0  0  0  0  0  0  0  0  0
   -5.0230   25.0730  -30.2930 C   0  0  0  0  0  0  0  0  0  0  0  0
   -5.3570   24.5560  -31.5820 N   0  0  0  0  0  0  0  0  0  0  0  0
   -6.0570   23.3180  -31.7640 C   0  0  0  0  0  0  0  0  0  0  0  0
   -5.3300   22.1540  -32.0430 C   0  0  0  0  0  0  0  0  0  0  0  0
   -5.9910   20.9360  -32.2330 C   0  0  0  0  0  0  0  0  0  0  0  0
   -7.3910   20.8730  -32.1530 C   0  0  0  0  0  0  0  0  0  0  0  0
   -8.2320   19.3380  -32.3880 S   0  0  0  0  0  0  0  0  0  0  0  0
   -8.5240   18.7240  -31.0450 O   0  0  0  0  0  0  0  0  0  0  0  0
   -9.5450   19.6010  -33.0760 O   0  0  0  0  0  0  0  0  0  0  0  0
   -7.2860   18.2220  -33.3490 N   0  0  0  0  0  0  0  0  0  0  0  0
   -6.4430   18.9780  -34.3050 C   0  0  0  0  0  0  0  0  0  0  0  0
   -5.3090   18.1120  -34.8570 C   0  0  0  0  0  0  0  0  0  0  0  0
   -4.3620   17.6610  -33.7330 C   0  0  0  0  0  0  0  0  0  0  0  0
   -5.0460   17.6300  -32.3590 C   0  0  0  0  0  0  0  0  0  0  0  0
   -6.5330   17.2690  -32.4930 C   0  0  0  0  0  0  0  0  0  0  0  0
   -8.1220   22.0420  -31.8940 C   0  0  0  0  0  0  0  0  0  0  0  0
   -7.4610   23.2550  -31.6930 C   0  0  0  0  0  0  0  0  0  0  0  0
   -3.9770   24.4630  -29.5190 N   0  0  0  0  0  0  0  0  0  0  0  0
   -2.8360   23.8110  -30.1640 C   0  0  0  0  0  0  0  0  0  0  0  0
   -2.8950   22.3030  -29.9120 C   0  0  0  0  0  0  0  0  0  0  0  0
   -3.1350   22.0220  -28.4840 N   0  0  0  0  0  0  0  0  0  0  0  0
   -2.6060   20.8250  -27.8700 C   0  0  0  0  0  0  0  0  0  0  0  0
   -1.2750   20.4130  -28.0800 C   0  0  0  0  0  0  0  0  0  0  0  0
   -0.8180   19.2300  -27.4910 C   0  0  0  0  0  0  0  0  0  0  0  0
   -1.6770   18.4740  -26.6930 C   0  0  0  0  0  0  0  0  0  0  0  0
   -2.9870   18.9120  -26.4960 C   0  0  0  0  0  0  0  0  0  0  0  0
   -3.4180   20.0600  -27.0850 N   0  0  0  0  0  0  0  0  0  0  0  0
   -4.2220   22.7440  -27.8030 C   0  0  0  0  0  0  0  0  0  0  0  0
   -4.1370   24.2470  -28.0820 C   0  0  0  0  0  0  0  0  0  0  0  0
   -4.2331   22.1978  -32.1131 H   0  0  0  0  0  0  0  0  0  0  0  0
   -5.4122   20.0251  -32.4457 H   0  0  0  0  0  0  0  0  0  0  0  0
   -7.9740   17.6680  -33.9120 H   0  0  0  0  0  0  0  0  0  0  0  0
   -7.0702   19.3214  -35.1409 H   0  0  0  0  0  0  0  0  0  0  0  0
   -5.9983   19.8321  -33.7733 H   0  0  0  0  0  0  0  0  0  0  0  0
   -5.7388   17.2238  -35.3431 H   0  0  0  0  0  0  0  0  0  0  0  0
   -4.7341   18.7078  -35.5812 H   0  0  0  0  0  0  0  0  0  0  0  0
   -3.9949   16.6506  -33.9663 H   0  0  0  0  0  0  0  0  0  0  0  0
   -3.5399   18.3899  -33.6786 H   0  0  0  0  0  0  0  0  0  0  0  0
   -4.5491   16.8796  -31.7266 H   0  0  0  0  0  0  0  0  0  0  0  0
   -4.9671   18.6290  -31.9054 H   0  0  0  0  0  0  0  0  0  0  0  0
   -6.6116   16.2642  -32.9337 H   0  0  0  0  0  0  0  0  0  0  0  0
   -6.9742   17.3110  -31.4862 H   0  0  0  0  0  0  0  0  0  0  0  0
   -9.2204   22.0026  -31.8491 H   0  0  0  0  0  0  0  0  0  0  0  0
   -8.0400   24.1653  -31.4782 H   0  0  0  0  0  0  0  0  0  0  0  0
   -2.8692   24.0026  -31.2467 H   0  0  0  0  0  0  0  0  0  0  0  0
   -1.9016   24.2143  -29.7465 H   0  0  0  0  0  0  0  0  0  0  0  0
   -3.7117   21.8691  -30.5076 H   0  0  0  0  0  0  0  0  0  0  0  0
   -1.9321   21.8579  -30.2031 H   0  0  0  0  0  0  0  0  0  0  0  0
   -0.5999   21.0180  -28.7031 H   0  0  0  0  0  0  0  0  0  0  0  0
    0.2169   18.8961  -27.6566 H   0  0  0  0  0  0  0  0  0  0  0  0
   -1.3255   17.5430  -26.2243 H   0  0  0  0  0  0  0  0  0  0  0  0
   -3.6721   18.3283  -25.8636 H   0  0  0  0  0  0  0  0  0  0  0  0
   -5.1889   22.3644  -28.1651 H   0  0  0  0  0  0  0  0  0  0  0  0
   -4.1275   22.5814  -26.7192 H   0  0  0  0  0  0  0  0  0  0  0  0
   -5.0592   24.7376  -27.7370 H   0  0  0  0  0  0  0  0  0  0  0  0
   -3.2755   24.6731  -27.5470 H   0  0  0  0  0  0  0  0  0  0  0  0
  1  2  2  0
  2  3  1  0
  3  4  1  0
  4  5  2  0
  5  6  1  0
  6  7  2  0
  7  8  1  0
  8  9  2  0
  8 10  2  0
  8 11  1  0
 11 12  1  0
 12 13  1  0
 13 14  1  0
 14 15  1  0
 15 16  1  0
  7 17  1  0
 17 18  2  0
  2 19  1  0
 19 20  1  0
 20 21  1  0
 21 22  1  0
 22 23  1  0
 23 24  2  0
 24 25  1  0
 25 26  2  0
 26 27  1  0
 27 28  2  0
 22 29  1  0
 29 30  1  0
 18  4  1  0
 30 19  1  0
 16 11  1  0
 28 23  1  0
  5 31  1  0
  6 32  1  0
 11 33  1  0
 12 34  1  0
 12 35  1  0
 13 36  1  0
 13 37  1  0
 14 38  1  0
 14 39  1  0
 15 40  1  0
 15 41  1  0
 16 42  1  0
 16 43  1  0
 17 44  1  0
 18 45  1  0
 20 46  1  0
 20 47  1  0
 21 48  1  0
 21 49  1  0
 24 50  1  0
 25 51  1  0
 26 52  1  0
 27 53  1  0
 29 54  1  0
 29 55  1  0
 30 56  1  0
 30 57  1  0
M  CHG  2   3  -1  11   1
M  END
>  <UniqueID>  (8) 
8

>  <SMILES>  (8) 
O=C([N-]c1ccc(S(=O)(=O)[NH+]2CCCCC2)cc1)N1CCN(c2ccccn2)CC1

>  <Energy>  (8) 
72.74950878997444

>  <Genealogy>  (8) 
O=C([N-]c1ccc(S(=O)(=O)[NH+]2CCCCC2)cc1)N1CCN(c2ccccn2)CC1 (protonated)
O=C([N-]c1ccc(S(=O)(=O)[NH+]2CCCCC2)cc1)N1CCN(c2ccccn2)CC1 (3D coordinates assigned)
O=C([N-]c1ccc(S(=O)(=O)[NH+]2CCCCC2)cc1)N1CCN(c2ccccn2)CC1 (nonaromatic ring conformer: 72.74950878997444 kcal/mol)

>  <smiles>  (8) 
O=C(Nc1ccc(S(=O)(=O)N2CCCCC2)cc1)N1CCN(c2ccccn2)CC1

>  <score_type>  (8) 
oracle

>  <origin>  (8) 
adgpu

>  <m_score__min__energy>  (8) 
-10.890000000000001

>  <m_primary>  (8) 
energy

$$$$
8:0
     RDKit          3D

 55 58  0  0  0  0  0  0  0  0999 V2000
   -2.6340   18.4310  -34.0300 C   0  0  0  0  0  0  0  0  0  0  0  0
   -3.7840   19.2580  -33.6690 N   0  0  0  0  0  0  0  0  0  0  0  0
   -5.0840   19.0320  -33.9730 C   0  0  0  0  0  0  0  0  0  0  0  0
   -5.5280   17.9570  -34.7320 O   0  0  0  0  0  0  0  0  0  0  0  0
   -5.9140   20.0030  -33.4270 C   0  0  0  0  0  0  0  0  0  0  0  0
   -5.0580   20.8490  -32.7530 C   0  0  0  0  0  0  0  0  0  0  0  0
   -5.3290   21.9890  -32.0050 C   0  0  0  0  0  0  0  0  0  0  0  0
   -4.2500   22.6680  -31.4060 C   0  0  0  0  0  0  0  0  0  0  0  0
   -4.5630   24.0980  -30.4270 S   0  0  0  0  0  0  0  0  0  0  0  0
   -5.2800   23.7230  -29.1630 O   0  0  0  0  0  0  0  0  0  0  0  0
   -5.4340   25.0480  -31.1960 O   0  0  0  0  0  0  0  0  0  0  0  0
   -3.0620   24.8890  -30.0740 N   0  0  0  0  0  0  0  0  0  0  0  0
   -2.1100   24.4390  -29.0990 C   0  0  0  0  0  0  0  0  0  0  0  0
   -2.0780   23.1050  -28.6560 C   0  0  0  0  0  0  0  0  0  0  0  0
   -1.1400   22.6930  -27.6910 C   0  0  0  0  0  0  0  0  0  0  0  0
   -1.1280   21.3070  -27.1570 C   0  0  0  0  0  0  0  0  0  0  0  0
   -0.9950   21.1470  -25.9130 O   0  0  0  0  0  0  0  0  0  0  0  0
   -1.2360   20.1460  -28.0110 N   0  0  0  0  0  0  0  0  0  0  0  0
   -1.6380   18.8540  -27.4480 C   0  0  0  0  0  0  0  0  0  0  0  0
   -0.4300   17.9010  -27.4150 C   0  0  0  0  0  0  0  0  0  0  0  0
    0.4700   18.0330  -28.5900 N   0  0  0  0  0  0  0  0  0  0  0  0
    2.0160   18.7310  -28.1560 S   0  0  0  0  0  0  0  0  0  0  0  0
    3.0670   18.7900  -29.5920 C   0  0  0  0  0  0  0  0  0  0  0  0
    2.6890   17.9110  -27.0910 O   0  0  0  0  0  0  0  0  0  0  0  0
    1.8280   20.1340  -27.6510 O   0  0  0  0  0  0  0  0  0  0  0  0
   -0.1420   18.7370  -29.7370 C   0  0  0  0  0  0  0  0  0  0  0  0
   -0.6420   20.1430  -29.3550 C   0  0  0  0  0  0  0  0  0  0  0  0
   -0.2420   23.6400  -27.1660 C   0  0  0  0  0  0  0  0  0  0  0  0
   -0.2830   24.9680  -27.5940 C   0  0  0  0  0  0  0  0  0  0  0  0
   -1.2190   25.3710  -28.5490 C   0  0  0  0  0  0  0  0  0  0  0  0
   -1.2480   26.6990  -28.9630 O   0  0  0  0  0  0  0  0  0  0  0  0
   -2.9310   22.1750  -31.5670 C   0  0  0  0  0  0  0  0  0  0  0  0
   -2.6860   21.0150  -32.3270 C   0  0  0  0  0  0  0  0  0  0  0  0
   -3.7800   20.3740  -32.9140 C   0  0  0  0  0  0  0  0  0  0  0  0
   -2.1376   18.0740  -33.1156 H   0  0  0  0  0  0  0  0  0  0  0  0
   -2.9739   17.5691  -34.6230 H   0  0  0  0  0  0  0  0  0  0  0  0
   -1.9251   19.0275  -34.6230 H   0  0  0  0  0  0  0  0  0  0  0  0
   -7.0079   20.0799  -33.5128 H   0  0  0  0  0  0  0  0  0  0  0  0
   -6.3604   22.3518  -31.8839 H   0  0  0  0  0  0  0  0  0  0  0  0
   -2.7925   22.3768  -29.0673 H   0  0  0  0  0  0  0  0  0  0  0  0
   -2.0140   19.0026  -26.4250 H   0  0  0  0  0  0  0  0  0  0  0  0
   -2.4294   18.4156  -28.0738 H   0  0  0  0  0  0  0  0  0  0  0  0
    0.1530   18.1113  -26.5062 H   0  0  0  0  0  0  0  0  0  0  0  0
   -0.8297   16.8763  -27.4310 H   0  0  0  0  0  0  0  0  0  0  0  0
    4.1186   18.8490  -29.2746 H   0  0  0  0  0  0  0  0  0  0  0  0
    2.9162   17.8820  -30.1943 H   0  0  0  0  0  0  0  0  0  0  0  0
    2.8155   19.6754  -30.1943 H   0  0  0  0  0  0  0  0  0  0  0  0
    0.6082   18.8324  -30.5358 H   0  0  0  0  0  0  0  0  0  0  0  0
   -1.0092   18.1487  -30.0716 H   0  0  0  0  0  0  0  0  0  0  0  0
    0.2059   20.8435  -29.3746 H   0  0  0  0  0  0  0  0  0  0  0  0
   -1.4125   20.4483  -30.0783 H   0  0  0  0  0  0  0  0  0  0  0  0
    0.4979   23.3317  -26.4127 H   0  0  0  0  0  0  0  0  0  0  0  0
    0.4246   25.6999  -27.1775 H   0  0  0  0  0  0  0  0  0  0  0  0
   -2.0904   22.7036  -31.0937 H   0  0  0  0  0  0  0  0  0  0  0  0
   -1.6651   20.6257  -32.4545 H   0  0  0  0  0  0  0  0  0  0  0  0
  1  2  1  0
  2  3  1  0
  3  4  1  0
  3  5  2  0
  5  6  1  0
  6  7  2  0
  7  8  1  0
  8  9  1  0
  9 10  2  0
  9 11  2  0
  9 12  1  0
 12 13  1  0
 13 14  2  0
 14 15  1  0
 15 16  1  0
 16 17  2  0
 16 18  1  0
 18 19  1  0
 19 20  1  0
 20 21  1  0
 21 22  1  0
 22 23  1  0
 22 24  2  0
 22 25  2  0
 21 26  1  0
 26 27  1  0
 15 28  2  0
 28 29  1  0
 29 30  2  0
 30 31  1  0
  8 32  2  0
 32 33  1  0
 33 34  2  0
 34  2  1  0
 34  6  1  0
 30 13  1  0
 27 18  1  0
  1 35  1  0
  1 36  1  0
  1 37  1  0
  5 38  1  0
  7 39  1  0
 14 40  1  0
 19 41  1  0
 19 42  1  0
 20 43  1  0
 20 44  1  0
 23 45  1  0
 23 46  1  0
 23 47  1  0
 26 48  1  0
 26 49  1  0
 27 50  1  0
 27 51  1  0
 28 52  1  0
 29 53  1  0
 32 54  1  0
 33 55  1  0
M  CHG  3   4  -1  12  -1  31  -1
M  END
>  <UniqueID>  (9) 
9

>  <SMILES>  (9) 
Cn1c([O-])cc2cc(S(=O)(=O)[N-]c3cc(C(=O)N4CCN(S(C)(=O)=O)CC4)ccc3[O-])ccc21

>  <Energy>  (9) 
105.1114500405985

>  <Genealogy>  (9) 
Cn1c([O-])cc2cc(S(=O)(=O)[N-]c3cc(C(=O)N4CCN(S(C)(=O)=O)CC4)ccc3[O-])ccc21 (protonated)
Cn1c([O-])cc2cc(S(=O)(=O)[N-]c3cc(C(=O)N4CCN(S(C)(=O)=O)CC4)ccc3[O-])ccc21 (3D coordinates assigned)
Cn1c([O-])cc2cc(S(=O)(=O)[N-]c3cc(C(=O)N4CCN(S(C)(=O)=O)CC4)ccc3[O-])ccc21 (nonaromatic ring conformer: 105.1114500405985 kcal/mol)

>  <smiles>  (9) 
Cn1c(O)cc2cc(S(=O)(=O)Nc3cc(C(=O)N4CCN(S(C)(=O)=O)CC4)ccc3O)ccc21

>  <score_type>  (9) 
oracle

>  <origin>  (9) 
adgpu

>  <m_score__min__energy>  (9) 
-14.19

>  <m_primary>  (9) 
energy

$$$$
9:0
     RDKit          3D

 49 51  0  0  0  0  0  0  0  0999 V2000
   -1.2900   21.6520  -26.6080 C   0  0  0  0  0  0  0  0  0  0  0  0
   -1.9310   22.6620  -27.5260 C   0  0  0  0  0  0  0  0  0  0  0  0
   -3.2200   22.3810  -28.0060 C   0  0  0  0  0  0  0  0  0  0  0  0
   -3.8580   23.2420  -28.8940 C   0  0  0  0  0  0  0  0  0  0  0  0
   -3.2060   24.3920  -29.3520 C   0  0  0  0  0  0  0  0  0  0  0  0
   -3.8460   25.3050  -30.2580 N   0  0  0  0  0  0  0  0  0  0  0  0
   -4.9680   25.0150  -31.0980 C   0  0  0  0  0  0  0  0  0  0  0  0
   -5.9010   25.8570  -31.1820 O   0  0  0  0  0  0  0  0  0  0  0  0
   -5.0280   23.7900  -31.8390 N   0  0  0  0  0  0  0  0  0  0  0  0
   -6.0110   22.7600  -31.6630 C   0  0  0  0  0  0  0  0  0  0  0  0
   -7.0160   22.9570  -30.7090 C   0  0  0  0  0  0  0  0  0  0  0  0
   -7.9930   21.9840  -30.4980 C   0  0  0  0  0  0  0  0  0  0  0  0
   -7.9650   20.7940  -31.2280 C   0  0  0  0  0  0  0  0  0  0  0  0
   -6.9470   20.5630  -32.1620 C   0  0  0  0  0  0  0  0  0  0  0  0
   -6.9330   19.3120  -32.8800 C   0  0  0  0  0  0  0  0  0  0  0  0
   -6.9230   18.3090  -33.4560 N   0  0  0  0  0  0  0  0  0  0  0  0
   -5.9500   21.5410  -32.3730 C   0  0  0  0  0  0  0  0  0  0  0  0
   -4.8850   21.3070  -33.2480 O   0  0  0  0  0  0  0  0  0  0  0  0
   -1.9260   24.6990  -28.8710 C   0  0  0  0  0  0  0  0  0  0  0  0
   -1.3070   25.8580  -29.3300 O   0  0  0  0  0  0  0  0  0  0  0  0
   -1.2700   23.8500  -27.9520 C   0  0  0  0  0  0  0  0  0  0  0  0
    0.3540   24.3110  -27.3580 S   0  0  0  0  0  0  0  0  0  0  0  0
    0.9690   23.1950  -26.5630 O   0  0  0  0  0  0  0  0  0  0  0  0
    1.2570   24.5490  -28.5360 O   0  0  0  0  0  0  0  0  0  0  0  0
    0.3090   25.7500  -26.3580 N   0  0  0  0  0  0  0  0  0  0  0  0
    0.7170   25.4400  -24.9710 C   0  0  0  0  0  0  0  0  0  0  0  0
    0.3510   26.5790  -24.0160 C   0  0  0  0  0  0  0  0  0  0  0  0
   -1.1730   26.7910  -23.9670 C   0  0  0  0  0  0  0  0  0  0  0  0
   -1.8800   26.3180  -25.2500 C   0  0  0  0  0  0  0  0  0  0  0  0
   -0.9720   26.4900  -26.4770 C   0  0  0  0  0  0  0  0  0  0  0  0
   -1.4725   21.9395  -25.5620 H   0  0  0  0  0  0  0  0  0  0  0  0
   -1.7233   20.6586  -26.7961 H   0  0  0  0  0  0  0  0  0  0  0  0
   -0.2066   21.6211  -26.7961 H   0  0  0  0  0  0  0  0  0  0  0  0
   -3.7336   21.4663  -27.6752 H   0  0  0  0  0  0  0  0  0  0  0  0
   -4.8787   23.0175  -29.2371 H   0  0  0  0  0  0  0  0  0  0  0  0
   -7.0356   23.8864  -30.1210 H   0  0  0  0  0  0  0  0  0  0  0  0
   -8.7866   22.1544  -29.7555 H   0  0  0  0  0  0  0  0  0  0  0  0
   -8.7453   20.0351  -31.0690 H   0  0  0  0  0  0  0  0  0  0  0  0
   -4.5110   22.0190  -33.8630 H   0  0  0  0  0  0  0  0  0  0  0  0
    0.2079   24.5211  -24.6446 H   0  0  0  0  0  0  0  0  0  0  0  0
    1.8089   25.3078  -24.9515 H   0  0  0  0  0  0  0  0  0  0  0  0
    0.7123   26.3321  -23.0068 H   0  0  0  0  0  0  0  0  0  0  0  0
    0.8217   27.5047  -24.3786 H   0  0  0  0  0  0  0  0  0  0  0  0
   -1.5793   26.2285  -23.1135 H   0  0  0  0  0  0  0  0  0  0  0  0
   -1.3552   27.8711  -23.8661 H   0  0  0  0  0  0  0  0  0  0  0  0
   -2.1435   25.2553  -25.1441 H   0  0  0  0  0  0  0  0  0  0  0  0
   -2.7839   26.9276  -25.3959 H   0  0  0  0  0  0  0  0  0  0  0  0
   -1.5082   26.1224  -27.3643 H   0  0  0  0  0  0  0  0  0  0  0  0
   -0.7281   27.5595  -26.5589 H   0  0  0  0  0  0  0  0  0  0  0  0
  1  2  1  0
  2  3  2  0
  3  4  1  0
  4  5  2  0
  5  6  1  0
  6  7  1  0
  7  8  2  0
  7  9  1  0
  9 10  1  0
 10 11  2  0
 11 12  1  0
 12 13  2  0
 13 14  1  0
 14 15  1  0
 15 16  3  0
 14 17  2  0
 17 18  1  0
  5 19  1  0
 19 20  1  0
 19 21  2  0
 21 22  1  0
 22 23  2  0
 22 24  2  0
 22 25  1  0
 25 26  1  0
 26 27  1  0
 27 28  1  0
 28 29  1  0
 29 30  1  0
 21  2  1  0
 30 25  1  0
 17 10  1  0
  1 31  1  0
  1 32  1  0
  1 33  1  0
  3 34  1  0
  4 35  1  0
 11 36  1  0
 12 37  1  0
 13 38  1  0
 18 39  1  0
 26 40  1  0
 26 41  1  0
 27 42  1  0
 27 43  1  0
 28 44  1  0
 28 45  1  0
 29 46  1  0
 29 47  1  0
 30 48  1  0
 30 49  1  0
M  CHG  3   6  -1   9  -1  20  -1
M  END
>  <UniqueID>  (10) 
10

>  <SMILES>  (10) 
Cc1ccc([N-]C(=O)[N-]c2cccc(C#N)c2O)c([O-])c1S(=O)(=O)N1CCCCC1

>  <Energy>  (10) 
70.29506222724636

>  <Genealogy>  (10) 
Cc1ccc([N-]C(=O)[N-]c2cccc(C#N)c2O)c([O-])c1S(=O)(=O)N1CCCCC1 (protonated)
Cc1ccc([N-]C(=O)[N-]c2cccc(C#N)c2O)c([O-])c1S(=O)(=O)N1CCCCC1 (3D coordinates assigned)
Cc1ccc([N-]C(=O)[N-]c2cccc(C#N)c2O)c([O-])c1S(=O)(=O)N1CCCCC1 (nonaromatic ring conformer: 70.29506222724636 kcal/mol)

>  <smiles>  (10) 
Cc1ccc(NC(=O)Nc2cccc(C#N)c2O)c(O)c1S(=O)(=O)N1CCCCC1

>  <score_type>  (10) 
oracle

>  <origin>  (10) 
adgpu

>  <m_score__min__energy>  (10) 
-15.720000000000001

>  <m_primary>  (10) 
energy

$$$$
10:0
     RDKit          3D

 31 33  0  0  1  0  0  0  0  0999 V2000
   -5.0190   23.7520  -31.9660 O   0  0  0  0  0  0  0  0  0  0  0  0
   -5.9010   23.7450  -31.0730 C   0  0  0  0  0  0  0  0  0  0  0  0
   -7.2910   23.9010  -31.3390 N   0  0  0  0  0  0  0  0  0  0  0  0
   -7.9520   22.8340  -31.6130 C   0  0  0  0  0  0  0  0  0  0  0  0
   -9.1990   22.6450  -31.8940 N   0  0  0  0  0  0  0  0  0  0  0  0
   -9.6600   21.4670  -32.1400 N   0  0  0  0  0  0  0  0  0  0  0  0
   -8.8530   20.4270  -32.1070 C   0  0  0  0  0  0  0  0  0  0  0  0
   -9.0390   18.8470  -32.3490 S   0  0  0  0  0  0  0  0  0  0  0  0
   -7.1690   21.1660  -31.6660 S   0  0  0  0  0  0  0  0  0  0  0  0
   -5.5520   23.5740  -29.6820 N   0  0  0  0  0  0  0  0  0  0  0  0
   -4.1920   23.4100  -29.2980 C   0  0  0  0  0  0  0  0  0  0  0  0
   -3.9050   22.3460  -28.4520 C   0  0  0  0  0  0  0  0  0  0  0  0
   -2.6360   22.0880  -28.0140 C   0  0  0  0  0  0  0  0  0  0  0  0
   -2.4030   21.0160  -27.1720 C   0  0  0  0  0  0  0  0  0  0  0  0
   -1.1200   20.7350  -26.7160 C   0  0  0  0  0  0  0  0  0  0  0  0
   -0.1090   21.5550  -27.1310 C   0  0  0  0  0  0  0  0  0  0  0  0
   -0.3520   22.6390  -27.9820 C   0  0  0  0  0  0  0  0  0  0  0  0
   -1.6190   22.9110  -28.4300 C   0  0  0  0  0  0  0  0  0  0  0  0
   -1.9010   23.9790  -29.2780 C   0  0  0  0  0  0  0  0  0  0  0  0
   -3.1800   24.2460  -29.7230 C   0  0  0  0  0  0  0  0  0  0  0  0
   -3.4930   25.2980  -30.5660 O   0  0  0  0  0  0  0  0  0  0  0  0
   -9.8800   23.5040  -31.9230 H   0  0  0  0  0  0  0  0  0  0  0  0
  -10.7060   21.3140  -32.3750 H   0  0  0  0  0  0  0  0  0  0  0  0
   -6.2760   23.5670  -28.9330 H   0  0  0  0  0  0  0  0  0  0  0  0
   -4.7251   21.6902  -28.1241 H   0  0  0  0  0  0  0  0  0  0  0  0
   -3.2428   20.3780  -26.8593 H   0  0  0  0  0  0  0  0  0  0  0  0
   -0.9261   19.8843  -26.0461 H   0  0  0  0  0  0  0  0  0  0  0  0
    0.9179   21.3589  -26.7889 H   0  0  0  0  0  0  0  0  0  0  0  0
    0.4842   23.2812  -28.2956 H   0  0  0  0  0  0  0  0  0  0  0  0
   -1.0774   24.6313  -29.6039 H   0  0  0  0  0  0  0  0  0  0  0  0
   -3.4460   25.1790  -31.5660 H   0  0  0  0  0  0  0  0  0  0  0  0
  1  2  2  0
  2  3  1  0
  3  4  2  0
  4  5  1  0
  5  6  1  0
  6  7  1  0
  7  8  2  0
  7  9  1  0
  2 10  1  0
 10 11  1  0
 11 12  2  0
 12 13  1  0
 13 14  2  0
 14 15  1  0
 15 16  2  0
 16 17  1  0
 17 18  2  0
 18 19  1  0
 19 20  2  0
 20 21  1  0
  9  4  1  0
 20 11  1  0
 18 13  1  0
  5 22  1  0
  6 23  1  0
 10 24  1  0
 12 25  1  0
 14 26  1  0
 15 27  1  0
 16 28  1  0
 17 29  1  0
 19 30  1  0
 21 31  1  0
M  END
>  <smiles>  (11) 
O=C(N=c1[nH][nH]c(=S)s1)Nc1cc2ccccc2cc1O

>  <score_type>  (11) 
oracle

>  <origin>  (11) 
adgpu

>  <m_score__min__energy>  (11) 
-8.8000000000000007

>  <m_primary>  (11) 
energy

$$$$
11:0
     RDKit          3D

 58 61  0  0  0  0  0  0  0  0999 V2000
    0.9650   28.6620  -24.1560 C   0  0  0  0  0  0  0  0  0  0  0  0
   -0.0970   27.8950  -24.8260 N   0  0  0  0  0  0  0  0  0  0  0  0
   -0.7790   27.0210  -23.8530 C   0  0  0  0  0  0  0  0  0  0  0  0
   -2.0290   26.4190  -24.4980 C   0  0  0  0  0  0  0  0  0  0  0  0
   -1.7230   25.8260  -25.8510 C   0  0  0  0  0  0  0  0  0  0  0  0
   -2.6560   24.9680  -26.4500 C   0  0  0  0  0  0  0  0  0  0  0  0
   -2.4150   24.4310  -27.7230 C   0  0  0  0  0  0  0  0  0  0  0  0
   -3.3820   23.5840  -28.3450 N   0  0  0  0  0  0  0  0  0  0  0  0
   -4.4090   24.1850  -29.6020 S   0  0  0  0  0  0  0  0  0  0  0  0
   -5.3570   25.2060  -29.0390 O   0  0  0  0  0  0  0  0  0  0  0  0
   -3.5790   24.8600  -30.6600 O   0  0  0  0  0  0  0  0  0  0  0  0
   -5.2930   22.8100  -30.2880 C   0  0  0  0  0  0  0  0  0  0  0  0
   -6.6940   22.9060  -30.3520 C   0  0  0  0  0  0  0  0  0  0  0  0
   -7.4530   21.9040  -30.9570 C   0  0  0  0  0  0  0  0  0  0  0  0
   -6.8280   20.7830  -31.5040 C   0  0  0  0  0  0  0  0  0  0  0  0
   -7.7640   19.5330  -32.3180 S   0  0  0  0  0  0  0  0  0  0  0  0
   -6.7080   18.6670  -33.4600 C   0  0  0  0  0  0  0  0  0  0  0  0
   -8.3100   18.5700  -31.3000 O   0  0  0  0  0  0  0  0  0  0  0  0
   -8.9100   20.1480  -33.0750 O   0  0  0  0  0  0  0  0  0  0  0  0
   -5.4360   20.6710  -31.4450 C   0  0  0  0  0  0  0  0  0  0  0  0
   -4.6480   21.6800  -30.8630 C   0  0  0  0  0  0  0  0  0  0  0  0
   -2.8820   21.4790  -30.8770 S   0  0  0  0  0  0  0  0  0  0  0  0
   -2.4820   20.3460  -31.7800 O   0  0  0  0  0  0  0  0  0  0  0  0
   -2.2410   22.7460  -31.3700 O   0  0  0  0  0  0  0  0  0  0  0  0
   -2.2690   21.1120  -29.2630 C   0  0  0  0  0  0  0  0  0  0  0  0
   -3.0850   20.4660  -28.3220 C   0  0  0  0  0  0  0  0  0  0  0  0
   -2.5780   20.1440  -27.0590 C   0  0  0  0  0  0  0  0  0  0  0  0
   -1.2550   20.4620  -26.7310 C   0  0  0  0  0  0  0  0  0  0  0  0
   -0.4370   21.1000  -27.6680 C   0  0  0  0  0  0  0  0  0  0  0  0
   -0.9400   21.4230  -28.9320 C   0  0  0  0  0  0  0  0  0  0  0  0
   -1.2340   24.7590  -28.4080 C   0  0  0  0  0  0  0  0  0  0  0  0
   -0.9970   24.2280  -29.6770 O   0  0  0  0  0  0  0  0  0  0  0  0
   -0.3100   25.6350  -27.8250 C   0  0  0  0  0  0  0  0  0  0  0  0
   -0.5560   26.1910  -26.5580 C   0  0  0  0  0  0  0  0  0  0  0  0
    0.4810   27.0870  -25.9250 C   0  0  0  0  0  0  0  0  0  0  0  0
    0.8468   28.5766  -23.0657 H   0  0  0  0  0  0  0  0  0  0  0  0
    1.9469   28.2633  -24.4507 H   0  0  0  0  0  0  0  0  0  0  0  0
    0.8952   29.7195  -24.4507 H   0  0  0  0  0  0  0  0  0  0  0  0
   -0.0989   26.2126  -23.5464 H   0  0  0  0  0  0  0  0  0  0  0  0
   -1.0689   27.6102  -22.9705 H   0  0  0  0  0  0  0  0  0  0  0  0
   -2.4239   25.6288  -23.8426 H   0  0  0  0  0  0  0  0  0  0  0  0
   -2.7683   27.2223  -24.6328 H   0  0  0  0  0  0  0  0  0  0  0  0
   -3.5843   24.7140  -25.9174 H   0  0  0  0  0  0  0  0  0  0  0  0
   -7.1984   23.7826  -29.9194 H   0  0  0  0  0  0  0  0  0  0  0  0
   -8.5480   21.9981  -31.0029 H   0  0  0  0  0  0  0  0  0  0  0  0
   -5.9761   18.0668  -32.8996 H   0  0  0  0  0  0  0  0  0  0  0  0
   -7.3172   18.0051  -34.0930 H   0  0  0  0  0  0  0  0  0  0  0  0
   -6.1782   19.3940  -34.0930 H   0  0  0  0  0  0  0  0  0  0  0  0
   -4.9480   19.7774  -31.8614 H   0  0  0  0  0  0  0  0  0  0  0  0
   -4.1244   20.2126  -28.5779 H   0  0  0  0  0  0  0  0  0  0  0  0
   -3.2203   19.6398  -26.3219 H   0  0  0  0  0  0  0  0  0  0  0  0
   -0.8590   20.2099  -25.7362 H   0  0  0  0  0  0  0  0  0  0  0  0
    0.6033   21.3481  -27.4107 H   0  0  0  0  0  0  0  0  0  0  0  0
   -0.2933   21.9218  -29.6689 H   0  0  0  0  0  0  0  0  0  0  0  0
   -1.7430   23.8240  -30.2400 H   0  0  0  0  0  0  0  0  0  0  0  0
    0.6152   25.8898  -28.3627 H   0  0  0  0  0  0  0  0  0  0  0  0
    1.2931   26.4642  -25.5217 H   0  0  0  0  0  0  0  0  0  0  0  0
    0.8600   27.7741  -26.6959 H   0  0  0  0  0  0  0  0  0  0  0  0
  1  2  1  0
  2  3  1  0
  3  4  1  0
  4  5  1  0
  5  6  2  0
  6  7  1  0
  7  8  1  0
  8  9  1  0
  9 10  2  0
  9 11  2  0
  9 12  1  0
 12 13  2  0
 13 14  1  0
 14 15  2  0
 15 16  1  0
 16 17  1  0
 16 18  2  0
 16 19  2  0
 15 20  1  0
 20 21  2  0
 21 22  1  0
 22 23  2  0
 22 24  2  0
 22 25  1  0
 25 26  2  0
 26 27  1  0
 27 28  2  0
 28 29  1  0
 29 30  2  0
  7 31  2  0
 31 32  1  0
 31 33  1  0
 33 34  2  0
 34 35  1  0
 35  2  1  0
 34  5  1  0
 21 12  1  0
 30 25  1  0
  1 36  1  0
  1 37  1  0
  1 38  1  0
  3 39  1  0
  3 40  1  0
  4 41  1  0
  4 42  1  0
  6 43  1  0
 13 44  1  0
 14 45  1  0
 17 46  1  0
 17 47  1  0
 17 48  1  0
 20 49  1  0
 26 50  1  0
 27 51  1  0
 28 52  1  0
 29 53  1  0
 30 54  1  0
 32 55  1  0
 33 56  1  0
 35 57  1  0
 35 58  1  0
M  CHG  1   8  -1
M  END
>  <UniqueID>  (12) 
11

>  <SMILES>  (12) 
CN1CCc2cc([N-]S(=O)(=O)c3ccc(S(C)(=O)=O)cc3S(=O)(=O)c3ccccc3)c(O)cc2C1

>  <Energy>  (12) 
73.47039483143226

>  <Genealogy>  (12) 
CN1CCc2cc([N-]S(=O)(=O)c3ccc(S(C)(=O)=O)cc3S(=O)(=O)c3ccccc3)c(O)cc2C1 (protonated)
CN1CCc2cc([N-]S(=O)(=O)c3ccc(S(C)(=O)=O)cc3S(=O)(=O)c3ccccc3)c(O)cc2C1 (3D coordinates assigned)
CN1CCc2cc([N-]S(=O)(=O)c3ccc(S(C)(=O)=O)cc3S(=O)(=O)c3ccccc3)c(O)cc2C1 (nonaromatic ring conformer: 73.47039483143226 kcal/mol)

>  <smiles>  (12) 
CN1CCc2cc(NS(=O)(=O)c3ccc(S(C)(=O)=O)cc3S(=O)(=O)c3ccccc3)c(O)cc2C1

>  <score_type>  (12) 
oracle

>  <origin>  (12) 
adgpu

>  <m_score__min__energy>  (12) 
-11.66

>  <m_primary>  (12) 
energy

$$$$
12:0
     RDKit          3D

 47 50  0  0  0  0  0  0  0  0999 V2000
    3.1220   15.8960  -31.9230 C   0  0  0  0  0  0  0  0  0  0  0  0
    2.1520   16.6930  -31.1010 C   0  0  0  0  0  0  0  0  0  0  0  0
    2.0910   16.5120  -29.7130 C   0  0  0  0  0  0  0  0  0  0  0  0
    1.2150   17.2760  -28.9330 C   0  0  0  0  0  0  0  0  0  0  0  0
    1.1820   17.0530  -27.5590 O   0  0  0  0  0  0  0  0  0  0  0  0
    0.3900   18.2500  -29.5420 C   0  0  0  0  0  0  0  0  0  0  0  0
   -0.5150   19.0540  -28.8210 C   0  0  0  0  0  0  0  0  0  0  0  0
   -0.6210   18.9300  -27.5690 O   0  0  0  0  0  0  0  0  0  0  0  0
   -1.3070   20.0050  -29.4960 C   0  0  0  0  0  0  0  0  0  0  0  0
   -2.3000   20.8400  -28.7070 C   0  0  0  0  0  0  0  0  0  0  0  0
   -2.0190   22.3140  -28.8660 C   0  0  0  0  0  0  0  0  0  0  0  0
   -2.9290   23.1430  -29.5430 C   0  0  0  0  0  0  0  0  0  0  0  0
   -2.6640   24.5060  -29.6970 C   0  0  0  0  0  0  0  0  0  0  0  0
   -3.5730   25.3140  -30.3700 O   0  0  0  0  0  0  0  0  0  0  0  0
   -1.4870   25.0560  -29.1750 C   0  0  0  0  0  0  0  0  0  0  0  0
   -1.2320   26.4150  -29.3330 O   0  0  0  0  0  0  0  0  0  0  0  0
   -0.5720   24.2370  -28.4950 C   0  0  0  0  0  0  0  0  0  0  0  0
    0.6090   24.7580  -27.9660 O   0  0  0  0  0  0  0  0  0  0  0  0
   -0.8410   22.8720  -28.3440 C   0  0  0  0  0  0  0  0  0  0  0  0
   -1.1480   20.1290  -30.9010 C   0  0  0  0  0  0  0  0  0  0  0  0
   -1.8920   21.1420  -31.7350 C   0  0  0  0  0  0  0  0  0  0  0  0
   -3.0830   20.5200  -32.4190 C   0  0  0  0  0  0  0  0  0  0  0  0
   -2.9440   19.3150  -33.1320 C   0  0  0  0  0  0  0  0  0  0  0  0
   -4.0510   18.7310  -33.7550 C   0  0  0  0  0  0  0  0  0  0  0  0
   -5.3070   19.3370  -33.6620 C   0  0  0  0  0  0  0  0  0  0  0  0
   -5.4590   20.5240  -32.9420 C   0  0  0  0  0  0  0  0  0  0  0  0
   -4.3540   21.1120  -32.3160 C   0  0  0  0  0  0  0  0  0  0  0  0
   -0.2800   19.3510  -31.5400 O   0  0  0  0  0  0  0  0  0  0  0  0
    0.4710   18.4390  -30.9380 C   0  0  0  0  0  0  0  0  0  0  0  0
    1.3510   17.6690  -31.7050 C   0  0  0  0  0  0  0  0  0  0  0  0
    3.7980   15.3406  -31.2562 H   0  0  0  0  0  0  0  0  0  0  0  0
    2.5694   15.1876  -32.5577 H   0  0  0  0  0  0  0  0  0  0  0  0
    3.7097   16.5755  -32.5577 H   0  0  0  0  0  0  0  0  0  0  0  0
    2.7372   15.7629  -29.2320 H   0  0  0  0  0  0  0  0  0  0  0  0
   -3.3164   20.6270  -29.0697 H   0  0  0  0  0  0  0  0  0  0  0  0
   -2.2065   20.5798  -27.6423 H   0  0  0  0  0  0  0  0  0  0  0  0
   -3.8557   22.7163  -29.9543 H   0  0  0  0  0  0  0  0  0  0  0  0
    0.9370   25.6880  -28.1980 H   0  0  0  0  0  0  0  0  0  0  0  0
   -0.1233   22.2305  -27.8117 H   0  0  0  0  0  0  0  0  0  0  0  0
   -2.2386   21.9575  -31.0833 H   0  0  0  0  0  0  0  0  0  0  0  0
   -1.2088   21.5247  -32.5075 H   0  0  0  0  0  0  0  0  0  0  0  0
   -1.9591   18.8298  -33.1996 H   0  0  0  0  0  0  0  0  0  0  0  0
   -3.9334   17.7938  -34.3188 H   0  0  0  0  0  0  0  0  0  0  0  0
   -6.1763   18.8787  -34.1562 H   0  0  0  0  0  0  0  0  0  0  0  0
   -6.4490   20.9976  -32.8668 H   0  0  0  0  0  0  0  0  0  0  0  0
   -4.4805   22.0412  -31.7410 H   0  0  0  0  0  0  0  0  0  0  0  0
    1.4142   17.8316  -32.7911 H   0  0  0  0  0  0  0  0  0  0  0  0
  1  2  1  0
  2  3  2  0
  3  4  1  0
  4  5  1  0
  4  6  2  0
  6  7  1  0
  7  8  2  0
  7  9  1  0
  9 10  1  0
 10 11  1  0
 11 12  2  0
 12 13  1  0
 13 14  1  0
 13 15  2  0
 15 16  1  0
 15 17  1  0
 17 18  1  0
 17 19  2  0
  9 20  2  0
 20 21  1  0
 21 22  1  0
 22 23  2  0
 23 24  1  0
 24 25  2  0
 25 26  1  0
 26 27  2  0
 20 28  1  0
 28 29  1  0
 29 30  2  0
 30  2  1  0
 29  6  1  0
 19 11  1  0
 27 22  1  0
  1 31  1  0
  1 32  1  0
  1 33  1  0
  3 34  1  0
 10 35  1  0
 10 36  1  0
 12 37  1  0
 18 38  1  0
 19 39  1  0
 21 40  1  0
 21 41  1  0
 23 42  1  0
 24 43  1  0
 25 44  1  0
 26 45  1  0
 27 46  1  0
 30 47  1  0
M  CHG  3   5  -1  14  -1  16  -1
M  END
>  <UniqueID>  (13) 
12

>  <SMILES>  (13) 
Cc1cc([O-])c2c(=O)c(Cc3cc([O-])c([O-])c(O)c3)c(Cc3ccccc3)oc2c1

>  <Energy>  (13) 
59.708780056774756

>  <Genealogy>  (13) 
Cc1cc([O-])c2c(=O)c(Cc3cc([O-])c([O-])c(O)c3)c(Cc3ccccc3)oc2c1 (protonated)
Cc1cc([O-])c2c(=O)c(Cc3cc([O-])c([O-])c(O)c3)c(Cc3ccccc3)oc2c1 (3D coordinates assigned)
Cc1cc([O-])c2c(=O)c(Cc3cc([O-])c([O-])c(O)c3)c(Cc3ccccc3)oc2c1 (optimized conformer: 59.708780056774756 kcal/mol)

>  <smiles>  (13) 
Cc1cc(O)c2c(=O)c(Cc3cc(O)c(O)c(O)c3)c(Cc3ccccc3)oc2c1

>  <score_type>  (13) 
oracle

>  <origin>  (13) 
adgpu

>  <m_score__min__energy>  (13) 
-13.51

>  <m_primary>  (13) 
energy

$$$$
13:0
     RDKit          3D

 58 61  0  0  0  0  0  0  0  0999 V2000
   -4.6480   24.3370  -29.0200 O   0  0  0  0  0  0  0  0  0  0  0  0
   -4.6030   24.2640  -30.5200 S   0  0  0  0  0  0  0  0  0  0  0  0
   -4.6430   25.6630  -31.0680 O   0  0  0  0  0  0  0  0  0  0  0  0
   -3.1430   23.4750  -31.0090 N   0  0  0  0  0  0  0  0  0  0  0  0
   -2.1100   23.1610  -30.0730 C   0  0  0  0  0  0  0  0  0  0  0  0
   -1.6560   21.8410  -29.9740 C   0  0  0  0  0  0  0  0  0  0  0  0
   -0.6730   21.4950  -29.0360 C   0  0  0  0  0  0  0  0  0  0  0  0
   -0.1190   19.8230  -28.8990 S   0  0  0  0  0  0  0  0  0  0  0  0
    1.1190   19.7850  -28.0450 O   0  0  0  0  0  0  0  0  0  0  0  0
   -1.1800   19.0050  -28.2160 O   0  0  0  0  0  0  0  0  0  0  0  0
    0.2240   19.1180  -30.4620 N   0  0  0  0  0  0  0  0  0  0  0  0
   -0.9280   19.2320  -31.3840 C   0  0  0  0  0  0  0  0  0  0  0  0
   -0.6850   20.2710  -32.4950 C   0  0  0  0  0  0  0  0  0  0  0  0
    0.4790   20.0150  -33.2680 O   0  0  0  0  0  0  0  0  0  0  0  0
    1.5400   19.4160  -32.5330 C   0  0  0  0  0  0  0  0  0  0  0  0
    1.4710   19.6720  -31.0190 C   0  0  0  0  0  0  0  0  0  0  0  0
   -0.1540   22.4830  -28.1870 C   0  0  0  0  0  0  0  0  0  0  0  0
   -0.6040   23.8020  -28.2830 C   0  0  0  0  0  0  0  0  0  0  0  0
   -1.5900   24.1460  -29.2160 C   0  0  0  0  0  0  0  0  0  0  0  0
   -2.0680   25.4540  -29.2810 O   0  0  0  0  0  0  0  0  0  0  0  0
   -5.9800   23.3300  -31.0890 C   0  0  0  0  0  0  0  0  0  0  0  0
   -7.2390   23.9370  -31.1770 C   0  0  0  0  0  0  0  0  0  0  0  0
   -8.3400   23.2060  -31.6310 C   0  0  0  0  0  0  0  0  0  0  0  0
   -8.1910   21.8660  -31.9930 C   0  0  0  0  0  0  0  0  0  0  0  0
   -6.9390   21.2430  -31.8850 C   0  0  0  0  0  0  0  0  0  0  0  0
   -6.7460   19.5480  -32.3220 S   0  0  0  0  0  0  0  0  0  0  0  0
   -6.2240   18.7900  -31.1340 O   0  0  0  0  0  0  0  0  0  0  0  0
   -8.0800   18.9700  -32.7090 O   0  0  0  0  0  0  0  0  0  0  0  0
   -5.6140   19.4170  -33.6430 N   0  0  0  0  0  0  0  0  0  0  0  0
   -5.7080   18.1120  -34.2930 C   0  0  0  0  0  0  0  0  0  0  0  0
   -4.3490   17.8430  -34.9160 C   0  0  0  0  0  0  0  0  0  0  0  0
   -3.3780   18.7390  -34.1600 C   0  0  0  0  0  0  0  0  0  0  0  0
   -4.2320   19.5190  -33.1730 C   0  0  0  0  0  0  0  0  0  0  0  0
   -5.8340   21.9800  -31.4360 C   0  0  0  0  0  0  0  0  0  0  0  0
   -2.0735   21.0690  -30.6371 H   0  0  0  0  0  0  0  0  0  0  0  0
   -1.1074   18.2515  -31.8493 H   0  0  0  0  0  0  0  0  0  0  0  0
   -1.7979   19.5627  -30.7975 H   0  0  0  0  0  0  0  0  0  0  0  0
   -1.5557   20.2715  -33.1672 H   0  0  0  0  0  0  0  0  0  0  0  0
   -0.5372   21.2428  -32.0013 H   0  0  0  0  0  0  0  0  0  0  0  0
    1.5084   18.3296  -32.7023 H   0  0  0  0  0  0  0  0  0  0  0  0
    2.4744   19.8724  -32.8917 H   0  0  0  0  0  0  0  0  0  0  0  0
    2.3314   19.1915  -30.5303 H   0  0  0  0  0  0  0  0  0  0  0  0
    1.4920   20.7569  -30.8386 H   0  0  0  0  0  0  0  0  0  0  0  0
    0.6109   22.2182  -27.4421 H   0  0  0  0  0  0  0  0  0  0  0  0
   -0.1819   24.5739  -27.6227 H   0  0  0  0  0  0  0  0  0  0  0  0
   -2.9560   25.6740  -29.7170 H   0  0  0  0  0  0  0  0  0  0  0  0
   -7.3614   24.9913  -30.8882 H   0  0  0  0  0  0  0  0  0  0  0  0
   -9.3264   23.6875  -31.7033 H   0  0  0  0  0  0  0  0  0  0  0  0
   -9.0569   21.2978  -32.3636 H   0  0  0  0  0  0  0  0  0  0  0  0
   -5.9473   17.3347  -33.5524 H   0  0  0  0  0  0  0  0  0  0  0  0
   -6.5035   18.1018  -35.0527 H   0  0  0  0  0  0  0  0  0  0  0  0
   -4.0718   16.7854  -34.7949 H   0  0  0  0  0  0  0  0  0  0  0  0
   -4.3439   18.0509  -35.9962 H   0  0  0  0  0  0  0  0  0  0  0  0
   -2.6306   18.1329  -33.6270 H   0  0  0  0  0  0  0  0  0  0  0  0
   -2.8247   19.4057  -34.8378 H   0  0  0  0  0  0  0  0  0  0  0  0
   -4.1406   19.0850  -32.1664 H   0  0  0  0  0  0  0  0  0  0  0  0
   -3.9100   20.5691  -33.1136 H   0  0  0  0  0  0  0  0  0  0  0  0
   -4.8490   21.4969  -31.3558 H   0  0  0  0  0  0  0  0  0  0  0  0
  1  2  2  0
  2  3  2  0
  2  4  1  0
  4  5  1  0
  5  6  2  0
  6  7  1  0
  7  8  1  0
  8  9  2  0
  8 10  2  0
  8 11  1  0
 11 12  1  0
 12 13  1  0
 13 14  1  0
 14 15  1  0
 15 16  1  0
  7 17  2  0
 17 18  1  0
 18 19  2  0
 19 20  1  0
  2 21  1  0
 21 22  2  0
 22 23  1  0
 23 24  2  0
 24 25  1  0
 25 26  1  0
 26 27  2  0
 26 28  2  0
 26 29  1  0
 29 30  1  0
 30 31  1  0
 31 32  1  0
 32 33  1  0
 25 34  2  0
 19  5  1  0
 34 21  1  0
 16 11  1  0
 33 29  1  0
  6 35  1  0
 12 36  1  0
 12 37  1  0
 13 38  1  0
 13 39  1  0
 15 40  1  0
 15 41  1  0
 16 42  1  0
 16 43  1  0
 17 44  1  0
 18 45  1  0
 20 46  1  0
 22 47  1  0
 23 48  1  0
 24 49  1  0
 30 50  1  0
 30 51  1  0
 31 52  1  0
 31 53  1  0
 32 54  1  0
 32 55  1  0
 33 56  1  0
 33 57  1  0
 34 58  1  0
M  CHG  1   4  -1
M  END
>  <UniqueID>  (14) 
13

>  <SMILES>  (14) 
O=S(=O)([N-]c1cc(S(=O)(=O)N2CCOCC2)ccc1O)c1cccc(S(=O)(=O)N2CCCC2)c1

>  <Energy>  (14) 
78.21477749694029

>  <Genealogy>  (14) 
O=S(=O)([N-]c1cc(S(=O)(=O)N2CCOCC2)ccc1O)c1cccc(S(=O)(=O)N2CCCC2)c1 (protonated)
O=S(=O)([N-]c1cc(S(=O)(=O)N2CCOCC2)ccc1O)c1cccc(S(=O)(=O)N2CCCC2)c1 (3D coordinates assigned)
O=S(=O)([N-]c1cc(S(=O)(=O)N2CCOCC2)ccc1O)c1cccc(S(=O)(=O)N2CCCC2)c1 (nonaromatic ring conformer: 78.21477749694029 kcal/mol)

>  <smiles>  (14) 
O=S(=O)(Nc1cc(S(=O)(=O)N2CCOCC2)ccc1O)c1cccc(S(=O)(=O)N2CCCC2)c1

>  <score_type>  (14) 
oracle

>  <origin>  (14) 
adgpu

>  <m_score__min__energy>  (14) 
-12.529999999999999

>  <m_primary>  (14) 
energy

$$$$
14:0
     RDKit          3D

 59 60  0  0  0  0  0  0  0  0999 V2000
   -7.8376   24.3096  -31.9110 H   0  0  0  0  0  0  0  0  0  0  0  0
   -7.6290   23.3630  -31.3910 C   0  0  0  0  0  0  0  0  0  0  0  0
   -8.6810   22.3300  -31.3040 C   0  0  0  0  0  0  0  0  0  0  0  0
   -9.5807   22.5693  -30.7182 H   0  0  0  0  0  0  0  0  0  0  0  0
   -8.6230   21.1220  -31.8850 C   0  0  0  0  0  0  0  0  0  0  0  0
   -9.4907   20.4567  -31.7643 H   0  0  0  0  0  0  0  0  0  0  0  0
   -7.4800   20.6190  -32.6750 C   0  0  0  0  0  0  0  0  0  0  0  0
   -7.4280   20.8299  -33.7533 H   0  0  0  0  0  0  0  0  0  0  0  0
   -6.5100   19.9110  -32.0920 C   0  0  0  0  0  0  0  0  0  0  0  0
   -6.5826   19.6991  -31.0151 H   0  0  0  0  0  0  0  0  0  0  0  0
   -5.3340   19.3980  -32.8460 C   0  0  0  0  0  0  0  0  0  0  0  0
   -4.3390   20.2590  -33.1750 C   0  0  0  0  0  0  0  0  0  0  0  0
   -4.4210   21.7310  -32.8480 C   0  0  0  0  0  0  0  0  0  0  0  0
   -4.4284   21.8642  -31.7561 H   0  0  0  0  0  0  0  0  0  0  0  0
   -3.5504   22.2505  -33.2748 H   0  0  0  0  0  0  0  0  0  0  0  0
   -5.3439   22.1506  -33.2748 H   0  0  0  0  0  0  0  0  0  0  0  0
   -3.0970   19.7360  -33.8500 C   0  0  0  0  0  0  0  0  0  0  0  0
   -2.3015   20.4937  -33.7945 H   0  0  0  0  0  0  0  0  0  0  0  0
   -3.3156   19.5147  -34.9051 H   0  0  0  0  0  0  0  0  0  0  0  0
   -2.6400   18.4650  -33.1450 C   0  0  0  0  0  0  0  0  0  0  0  0
   -2.3483   18.7188  -32.1152 H   0  0  0  0  0  0  0  0  0  0  0  0
   -1.7950   18.0527  -33.7160 H   0  0  0  0  0  0  0  0  0  0  0  0
   -3.7410   17.3860  -33.0950 C   0  0  0  0  0  0  0  0  0  0  0  0
   -3.6525   16.8587  -32.1337 H   0  0  0  0  0  0  0  0  0  0  0  0
   -3.5719   16.7476  -33.9747 H   0  0  0  0  0  0  0  0  0  0  0  0
   -5.2200   17.9060  -33.2250 C   0  0  0  0  0  0  0  0  0  0  0  0
   -5.7070   17.7100  -34.6810 C   0  0  0  0  0  0  0  0  0  0  0  0
   -6.7274   17.2993  -34.6742 H   0  0  0  0  0  0  0  0  0  0  0  0
   -5.7052   18.6789  -35.2018 H   0  0  0  0  0  0  0  0  0  0  0  0
   -5.0345   17.0125  -35.2018 H   0  0  0  0  0  0  0  0  0  0  0  0
   -6.1080   17.0250  -32.3090 C   0  0  0  0  0  0  0  0  0  0  0  0
   -5.8830   17.2482  -31.2556 H   0  0  0  0  0  0  0  0  0  0  0  0
   -7.1681   17.2385  -32.5107 H   0  0  0  0  0  0  0  0  0  0  0  0
   -5.9029   15.9633  -32.5107 H   0  0  0  0  0  0  0  0  0  0  0  0
   -6.4270   23.1600  -30.8450 C   0  0  0  0  0  0  0  0  0  0  0  0
   -6.2103   22.2026  -30.3485 H   0  0  0  0  0  0  0  0  0  0  0  0
   -5.3850   24.2060  -30.9000 C   0  0  0  0  0  0  0  0  0  0  0  0
   -5.5972   25.1132  -31.4848 H   0  0  0  0  0  0  0  0  0  0  0  0
   -4.1970   24.1210  -30.2830 C   0  0  0  0  0  0  0  0  0  0  0  0
   -3.5475   25.0084  -30.3095 H   0  0  0  0  0  0  0  0  0  0  0  0
   -3.6920   22.9280  -29.5700 C   0  0  0  0  0  0  0  0  0  0  0  0
   -3.9990   22.7610  -28.2150 C   0  0  0  0  0  0  0  0  0  0  0  0
   -4.6415   23.4951  -27.7068 H   0  0  0  0  0  0  0  0  0  0  0  0
   -3.4960   21.6690  -27.5020 C   0  0  0  0  0  0  0  0  0  0  0  0
   -3.7629   21.5440  -26.4422 H   0  0  0  0  0  0  0  0  0  0  0  0
   -2.6500   20.7240  -28.1230 C   0  0  0  0  0  0  0  0  0  0  0  0
   -2.1240   19.5860  -27.3840 N   0  0  0  0  0  0  0  0  0  0  0  0
   -2.9420   18.9090  -26.3670 C   0  0  0  0  0  0  0  0  0  0  0  0
   -2.5934   19.1975  -25.3644 H   0  0  0  0  0  0  0  0  0  0  0  0
   -3.9950   19.2034  -26.4879 H   0  0  0  0  0  0  0  0  0  0  0  0
   -2.8497   17.8196  -26.4879 H   0  0  0  0  0  0  0  0  0  0  0  0
   -0.7650   19.0880  -27.6400 C   0  0  0  0  0  0  0  0  0  0  0  0
   -0.2564   18.9016  -26.6826 H   0  0  0  0  0  0  0  0  0  0  0  0
   -0.8198   18.1515  -28.2145 H   0  0  0  0  0  0  0  0  0  0  0  0
   -0.2018   19.8381  -28.2145 H   0  0  0  0  0  0  0  0  0  0  0  0
   -2.3220   20.9230  -29.4840 C   0  0  0  0  0  0  0  0  0  0  0  0
   -1.6592   20.2073  -29.9924 H   0  0  0  0  0  0  0  0  0  0  0  0
   -2.8280   22.0160  -30.1920 C   0  0  0  0  0  0  0  0  0  0  0  0
   -2.5463   22.1620  -31.2453 H   0  0  0  0  0  0  0  0  0  0  0  0
  1  2  1  0
  2  3  1  0
  3  4  1  0
  3  5  2  0
  5  6  1  0
  5  7  1  0
  7  8  1  0
  7  9  2  0
  9 10  1  0
  9 11  1  0
 11 12  2  0
 12 13  1  0
 13 14  1  0
 13 15  1  0
 13 16  1  0
 12 17  1  0
 17 18  1  0
 17 19  1  0
 17 20  1  0
 20 21  1  0
 20 22  1  0
 20 23  1  0
 23 24  1  0
 23 25  1  0
 23 26  1  0
 26 27  1  0
 27 28  1  0
 27 29  1  0
 27 30  1  0
 26 31  1  0
 31 32  1  0
 31 33  1  0
 31 34  1  0
  2 35  2  0
 35 36  1  0
 35 37  1  0
 37 38  1  0
 37 39  2  0
 39 40  1  0
 39 41  1  0
 41 42  2  0
 42 43  1  0
 42 44  1  0
 44 45  1  0
 44 46  2  0
 46 47  1  0
 47 48  1  0
 48 49  1  0
 48 50  1  0
 48 51  1  0
 47 52  1  0
 52 53  1  0
 52 54  1  0
 52 55  1  0
 46 56  1  0
 56 57  1  0
 56 58  2  0
 58 59  1  0
 26 11  1  0
 58 41  1  0
M  END
>  <UniqueID>  (15) 
14

>  <SMILES>  (15) 
CC1=C(/C=C/C=CC=C/C=C\c2ccc(N(C)C)cc2)C(C)(C)CCC1

>  <Energy>  (15) 
72.92170898242456

>  <Genealogy>  (15) 
CC1=C(/C=C/C=CC=C/C=C\c2ccc(N(C)C)cc2)C(C)(C)CCC1 (cis-trans isomerization)
CC1=C(/C=C/C=CC=C/C=C\c2ccc(N(C)C)cc2)C(C)(C)CCC1 (3D coordinates assigned)
CC1=C(/C=C/C=CC=C/C=C\c2ccc(N(C)C)cc2)C(C)(C)CCC1 (nonaromatic ring conformer: 72.92170898242456 kcal/mol)

>  <smiles>  (15) 
CC1=C(C=CC=CC=CC=Cc2ccc(N(C)C)cc2)C(C)(C)CCC1

>  <score_type>  (15) 
oracle

>  <origin>  (15) 
adgpu

>  <m_score__min__energy>  (15) 
-9.6400000000000006

>  <m_primary>  (15) 
energy

$$$$
15:0
     RDKit          3D

 40 41  0  0  0  0  0  0  0  0999 V2000
   -4.7980   16.3810  -31.6030 H   0  0  0  0  0  0  0  0  0  0  0  0
   -5.8070   16.6500  -31.6140 N   0  0  0  0  0  0  0  0  0  0  0  0
   -6.2090   17.8110  -32.0240 C   0  0  0  0  0  0  0  0  0  0  0  0
   -7.5750   18.1090  -32.0170 C   0  0  0  0  0  0  0  0  0  0  0  0
   -8.3022   17.3605  -31.6691 H   0  0  0  0  0  0  0  0  0  0  0  0
   -8.0130   19.3650  -32.4550 C   0  0  0  0  0  0  0  0  0  0  0  0
   -9.4780   19.6850  -32.4990 C   0  0  0  0  0  0  0  0  0  0  0  0
   -9.8658   19.7697  -31.4731 H   0  0  0  0  0  0  0  0  0  0  0  0
   -9.6295   20.6374  -33.0281 H   0  0  0  0  0  0  0  0  0  0  0  0
  -10.0129   18.8825  -33.0281 H   0  0  0  0  0  0  0  0  0  0  0  0
   -7.0740   20.2930  -32.9210 C   0  0  0  0  0  0  0  0  0  0  0  0
   -7.4050   21.2731  -33.2951 H   0  0  0  0  0  0  0  0  0  0  0  0
   -5.7090   19.9680  -32.9090 C   0  0  0  0  0  0  0  0  0  0  0  0
   -4.6990   20.9500  -33.4400 C   0  0  0  0  0  0  0  0  0  0  0  0
   -4.1283   20.4793  -34.2541 H   0  0  0  0  0  0  0  0  0  0  0  0
   -5.2269   21.8390  -33.8154 H   0  0  0  0  0  0  0  0  0  0  0  0
   -3.7510   21.3680  -32.3450 C   0  0  0  0  0  0  0  0  0  0  0  0
   -3.9870   22.5650  -31.6480 C   0  0  0  0  0  0  0  0  0  0  0  0
   -4.8738   23.1688  -31.8910 H   0  0  0  0  0  0  0  0  0  0  0  0
   -3.1090   22.9990  -30.6490 C   0  0  0  0  0  0  0  0  0  0  0  0
   -3.4320   24.5110  -29.7970 S   0  0  0  0  0  0  0  0  0  0  0  0
   -4.2330   24.2090  -28.5620 O   0  0  0  0  0  0  0  0  0  0  0  0
   -4.2160   25.4460  -30.6750 O   0  0  0  0  0  0  0  0  0  0  0  0
   -1.9430   25.2760  -29.3300 N   0  0  0  0  0  0  0  0  0  0  0  0
   -1.7840   25.2080  -27.8810 C   0  0  0  0  0  0  0  0  0  0  0  0
   -2.6909   25.5958  -27.3940 H   0  0  0  0  0  0  0  0  0  0  0  0
   -1.6238   24.1627  -27.5784 H   0  0  0  0  0  0  0  0  0  0  0  0
   -0.9175   25.8142  -27.5784 H   0  0  0  0  0  0  0  0  0  0  0  0
   -1.9640   22.2430  -30.3610 C   0  0  0  0  0  0  0  0  0  0  0  0
   -1.0800   22.6550  -29.4180 F   0  0  0  0  0  0  0  0  0  0  0  0
   -1.7130   21.0570  -31.0560 C   0  0  0  0  0  0  0  0  0  0  0  0
   -0.8145   20.4677  -30.8205 H   0  0  0  0  0  0  0  0  0  0  0  0
   -2.5980   20.6090  -32.0540 C   0  0  0  0  0  0  0  0  0  0  0  0
   -2.3630   19.4260  -32.7740 O   0  0  0  0  0  0  0  0  0  0  0  0
   -1.5580   19.3360  -33.9440 C   0  0  0  0  0  0  0  0  0  0  0  0
   -0.5032   19.2181  -33.6551 H   0  0  0  0  0  0  0  0  0  0  0  0
   -1.8741   18.4676  -34.5406 H   0  0  0  0  0  0  0  0  0  0  0  0
   -1.6745   20.2528  -34.5406 H   0  0  0  0  0  0  0  0  0  0  0  0
   -5.3100   18.7400  -32.4660 N   0  0  0  0  0  0  0  0  0  0  0  0
   -4.2900   18.5050  -32.4690 H   0  0  0  0  0  0  0  0  0  0  0  0
  1  2  1  0
  2  3  2  0
  3  4  1  0
  4  5  1  0
  4  6  2  0
  6  7  1  0
  7  8  1  0
  7  9  1  0
  7 10  1  0
  6 11  1  0
 11 12  1  0
 11 13  2  0
 13 14  1  0
 14 15  1  0
 14 16  1  0
 14 17  1  0
 17 18  2  0
 18 19  1  0
 18 20  1  0
 20 21  1  0
 21 22  2  0
 21 23  2  0
 21 24  1  0
 24 25  1  0
 25 26  1  0
 25 27  1  0
 25 28  1  0
 20 29  2  0
 29 30  1  0
 29 31  1  0
 31 32  1  0
 31 33  2  0
 33 34  1  0
 34 35  1  0
 35 36  1  0
 35 37  1  0
 35 38  1  0
 13 39  1  0
 39 40  1  0
 39  3  1  0
 33 17  1  0
M  CHG  1  24  -1
M  END
>  <UniqueID>  (16) 
15

>  <SMILES>  (16) 
[H]/N=c1/cc(C)cc(Cc2cc(S(=O)(=O)[N-]C)c(F)cc2OC)[nH]1

>  <Energy>  (16) 
36.494077698221034

>  <Genealogy>  (16) 
C[N-]S(=O)(=O)c1cc(Cc2cc(C)cc(=N)[nH]2)c(OC)cc1F (protonated)
[H]/N=c1/cc(C)cc(Cc2cc(S(=O)(=O)[N-]C)c(F)cc2OC)[nH]1 (cis-trans isomerization)
[H]/N=c1/cc(C)cc(Cc2cc(S(=O)(=O)[N-]C)c(F)cc2OC)[nH]1 (3D coordinates assigned)
[H]/N=c1/cc(C)cc(Cc2cc(S(=O)(=O)[N-]C)c(F)cc2OC)[nH]1 (optimized conformer: 36.494077698221034 kcal/mol)

>  <smiles>  (16) 
CNS(=O)(=O)c1cc(Cc2cc(C)cc(=N)[nH]2)c(OC)cc1F

>  <score_type>  (16) 
oracle

>  <origin>  (16) 
adgpu

>  <m_score__min__energy>  (16) 
-8.8000000000000007

>  <m_primary>  (16) 
energy

$$$$
16:0
     RDKit          3D

 46 49  0  0  0  0  0  0  0  0999 V2000
   -4.9680   16.2910  -32.3630 C   0  0  0  0  0  0  0  0  0  0  0  0
   -5.4750   16.6660  -33.6940 N   0  0  0  0  0  0  0  0  0  0  0  0
   -4.4720   17.3860  -34.5030 C   0  0  0  0  0  0  0  0  0  0  0  0
   -4.1030   18.7500  -33.9000 C   0  0  0  0  0  0  0  0  0  0  0  0
   -5.3100   19.5100  -33.4170 C   0  0  0  0  0  0  0  0  0  0  0  0
   -5.1710   20.8620  -33.0710 C   0  0  0  0  0  0  0  0  0  0  0  0
   -6.2600   21.5910  -32.5610 C   0  0  0  0  0  0  0  0  0  0  0  0
   -6.1430   22.9770  -32.2050 N   0  0  0  0  0  0  0  0  0  0  0  0
   -6.2110   23.6100  -30.5930 S   0  0  0  0  0  0  0  0  0  0  0  0
   -7.2330   22.8480  -29.7970 O   0  0  0  0  0  0  0  0  0  0  0  0
   -6.6270   25.0520  -30.6480 O   0  0  0  0  0  0  0  0  0  0  0  0
   -4.6170   23.5060  -29.8500 C   0  0  0  0  0  0  0  0  0  0  0  0
   -3.7750   24.6220  -29.8730 C   0  0  0  0  0  0  0  0  0  0  0  0
   -2.4960   24.5500  -29.3140 C   0  0  0  0  0  0  0  0  0  0  0  0
   -1.6690   25.6650  -29.3320 O   0  0  0  0  0  0  0  0  0  0  0  0
   -2.0500   23.3570  -28.7350 C   0  0  0  0  0  0  0  0  0  0  0  0
   -2.8830   22.2220  -28.7050 C   0  0  0  0  0  0  0  0  0  0  0  0
   -2.4070   20.9530  -28.0990 C   0  0  0  0  0  0  0  0  0  0  0  0
   -1.1720   20.3530  -28.4140 C   0  0  0  0  0  0  0  0  0  0  0  0
   -0.9350   19.1680  -27.7330 C   0  0  0  0  0  0  0  0  0  0  0  0
   -2.2510   18.8640  -26.7380 S   0  0  0  0  0  0  0  0  0  0  0  0
   -3.1390   20.2260  -27.1580 C   0  0  0  0  0  0  0  0  0  0  0  0
   -4.1730   22.3100  -29.2630 C   0  0  0  0  0  0  0  0  0  0  0  0
   -7.4930   20.9500  -32.3910 C   0  0  0  0  0  0  0  0  0  0  0  0
   -8.5820   21.6680  -31.8980 O   0  0  0  0  0  0  0  0  0  0  0  0
   -7.6350   19.5960  -32.7210 C   0  0  0  0  0  0  0  0  0  0  0  0
   -6.5450   18.8650  -33.2160 C   0  0  0  0  0  0  0  0  0  0  0  0
   -6.7420   17.4190  -33.6120 C   0  0  0  0  0  0  0  0  0  0  0  0
   -5.5953   16.7550  -31.5876 H   0  0  0  0  0  0  0  0  0  0  0  0
   -4.9991   15.1969  -32.2537 H   0  0  0  0  0  0  0  0  0  0  0  0
   -3.9309   16.6411  -32.2537 H   0  0  0  0  0  0  0  0  0  0  0  0
   -3.5625   16.7706  -34.5677 H   0  0  0  0  0  0  0  0  0  0  0  0
   -4.9086   17.5655  -35.4965 H   0  0  0  0  0  0  0  0  0  0  0  0
   -3.4240   18.5883  -33.0498 H   0  0  0  0  0  0  0  0  0  0  0  0
   -3.6247   19.3475  -34.6901 H   0  0  0  0  0  0  0  0  0  0  0  0
   -4.1979   21.3584  -33.2002 H   0  0  0  0  0  0  0  0  0  0  0  0
   -4.1203   25.5598  -30.3326 H   0  0  0  0  0  0  0  0  0  0  0  0
   -1.0410   23.3052  -28.2999 H   0  0  0  0  0  0  0  0  0  0  0  0
   -0.4609   20.7845  -29.1338 H   0  0  0  0  0  0  0  0  0  0  0  0
   -0.0392   18.5369  -27.8288 H   0  0  0  0  0  0  0  0  0  0  0  0
   -4.1276   20.4987  -26.7601 H   0  0  0  0  0  0  0  0  0  0  0  0
   -4.8385   21.4345  -29.2389 H   0  0  0  0  0  0  0  0  0  0  0  0
   -8.4770   22.6120  -31.5410 H   0  0  0  0  0  0  0  0  0  0  0  0
   -8.6092   19.1020  -32.5909 H   0  0  0  0  0  0  0  0  0  0  0  0
   -7.3892   16.9360  -32.8651 H   0  0  0  0  0  0  0  0  0  0  0  0
   -7.1951   17.4110  -34.6143 H   0  0  0  0  0  0  0  0  0  0  0  0
  1  2  1  0
  2  3  1  0
  3  4  1  0
  4  5  1  0
  5  6  2  0
  6  7  1  0
  7  8  1  0
  8  9  1  0
  9 10  2  0
  9 11  2  0
  9 12  1  0
 12 13  2  0
 13 14  1  0
 14 15  1  0
 14 16  2  0
 16 17  1  0
 17 18  1  0
 18 19  1  0
 19 20  2  0
 20 21  1  0
 21 22  1  0
 17 23  2  0
  7 24  2  0
 24 25  1  0
 24 26  1  0
 26 27  2  0
 27 28  1  0
 28  2  1  0
 27  5  1  0
 23 12  1  0
 22 18  2  0
  1 29  1  0
  1 30  1  0
  1 31  1  0
  3 32  1  0
  3 33  1  0
  4 34  1  0
  4 35  1  0
  6 36  1  0
 13 37  1  0
 16 38  1  0
 19 39  1  0
 20 40  1  0
 22 41  1  0
 23 42  1  0
 25 43  1  0
 26 44  1  0
 28 45  1  0
 28 46  1  0
M  CHG  2   8  -1  15  -1
M  END
>  <UniqueID>  (17) 
16

>  <SMILES>  (17) 
CN1CCc2cc([N-]S(=O)(=O)c3cc([O-])cc(-c4ccsc4)c3)c(O)cc2C1

>  <Energy>  (17) 
86.66524089952382

>  <Genealogy>  (17) 
CN1CCc2cc([N-]S(=O)(=O)c3cc([O-])cc(-c4ccsc4)c3)c(O)cc2C1 (protonated)
CN1CCc2cc([N-]S(=O)(=O)c3cc([O-])cc(-c4ccsc4)c3)c(O)cc2C1 (3D coordinates assigned)
CN1CCc2cc([N-]S(=O)(=O)c3cc([O-])cc(-c4ccsc4)c3)c(O)cc2C1 (nonaromatic ring conformer: 86.66524089952382 kcal/mol)

>  <smiles>  (17) 
CN1CCc2cc(NS(=O)(=O)c3cc(O)cc(-c4ccsc4)c3)c(O)cc2C1

>  <score_type>  (17) 
oracle

>  <origin>  (17) 
adgpu

>  <m_score__min__energy>  (17) 
-12.24

>  <m_primary>  (17) 
energy

$$$$
17:0
     RDKit          3D

 41 43  0  0  0  0  0  0  0  0999 V2000
   -5.2150   17.7160  -34.9710 C   0  0  0  0  0  0  0  0  0  0  0  0
   -5.3490   18.7720  -33.9200 C   0  0  0  0  0  0  0  0  0  0  0  0
   -4.4080   19.5960  -33.7700 O   0  0  0  0  0  0  0  0  0  0  0  0
   -6.4970   18.8500  -33.0570 N   0  0  0  0  0  0  0  0  0  0  0  0
   -7.2860   17.6760  -32.6770 C   0  0  0  0  0  0  0  0  0  0  0  0
   -8.5370   18.2140  -31.9450 C   0  0  0  0  0  0  0  0  0  0  0  0
   -8.3020   19.6820  -31.8960 C   0  0  0  0  0  0  0  0  0  0  0  0
   -9.0930   20.6510  -31.2790 C   0  0  0  0  0  0  0  0  0  0  0  0
   -8.6620   21.9860  -31.3030 C   0  0  0  0  0  0  0  0  0  0  0  0
   -7.4340   22.3270  -31.9110 C   0  0  0  0  0  0  0  0  0  0  0  0
   -6.9830   23.7570  -31.9630 C   0  0  0  0  0  0  0  0  0  0  0  0
   -5.5180   23.7960  -32.0040 N   0  0  0  0  0  0  0  0  0  0  0  0
   -4.8940   24.4540  -30.5220 S   0  0  0  0  0  0  0  0  0  0  0  0
   -6.0180   25.0630  -29.7300 O   0  0  0  0  0  0  0  0  0  0  0  0
   -3.8780   25.5160  -30.8370 O   0  0  0  0  0  0  0  0  0  0  0  0
   -4.1200   23.1740  -29.5940 C   0  0  0  0  0  0  0  0  0  0  0  0
   -3.7480   21.9710  -30.2110 C   0  0  0  0  0  0  0  0  0  0  0  0
   -3.1260   20.9620  -29.4680 C   0  0  0  0  0  0  0  0  0  0  0  0
   -2.8760   21.1490  -28.1040 C   0  0  0  0  0  0  0  0  0  0  0  0
   -2.0260   19.7730  -27.0910 Br  0  0  0  0  0  0  0  0  0  0  0  0
   -3.2520   22.3450  -27.4820 C   0  0  0  0  0  0  0  0  0  0  0  0
   -3.8730   23.3540  -28.2240 C   0  0  0  0  0  0  0  0  0  0  0  0
   -6.6580   21.3260  -32.5300 C   0  0  0  0  0  0  0  0  0  0  0  0
   -7.1340   20.0090  -32.5310 C   0  0  0  0  0  0  0  0  0  0  0  0
   -5.0904   16.7343  -34.4906 H   0  0  0  0  0  0  0  0  0  0  0  0
   -6.1190   17.7055  -35.5976 H   0  0  0  0  0  0  0  0  0  0  0  0
   -4.3370   17.9316  -35.5976 H   0  0  0  0  0  0  0  0  0  0  0  0
   -7.5824   17.1099  -33.5724 H   0  0  0  0  0  0  0  0  0  0  0  0
   -6.7077   16.9959  -32.0343 H   0  0  0  0  0  0  0  0  0  0  0  0
   -9.4531   17.9804  -32.5073 H   0  0  0  0  0  0  0  0  0  0  0  0
   -8.6775   17.7678  -30.9494 H   0  0  0  0  0  0  0  0  0  0  0  0
  -10.0354   20.3743  -30.7837 H   0  0  0  0  0  0  0  0  0  0  0  0
   -9.2834   22.7704  -30.8462 H   0  0  0  0  0  0  0  0  0  0  0  0
   -7.3898   24.2391  -32.8641 H   0  0  0  0  0  0  0  0  0  0  0  0
   -7.3435   24.2922  -31.0722 H   0  0  0  0  0  0  0  0  0  0  0  0
   -5.2280   24.4360  -32.7780 H   0  0  0  0  0  0  0  0  0  0  0  0
   -3.9459   21.8202  -31.2825 H   0  0  0  0  0  0  0  0  0  0  0  0
   -2.8332   20.0209  -29.9564 H   0  0  0  0  0  0  0  0  0  0  0  0
   -3.0588   22.4911  -26.4090 H   0  0  0  0  0  0  0  0  0  0  0  0
   -4.1692   24.2924  -27.7324 H   0  0  0  0  0  0  0  0  0  0  0  0
   -5.6967   21.5747  -33.0033 H   0  0  0  0  0  0  0  0  0  0  0  0
  1  2  1  0
  2  3  2  0
  2  4  1  0
  4  5  1  0
  5  6  1  0
  6  7  1  0
  7  8  2  0
  8  9  1  0
  9 10  2  0
 10 11  1  0
 11 12  1  0
 12 13  1  0
 13 14  2  0
 13 15  2  0
 13 16  1  0
 16 17  2  0
 17 18  1  0
 18 19  2  0
 19 20  1  0
 19 21  1  0
 21 22  2  0
 10 23  1  0
 23 24  2  0
 24  4  1  0
 24  7  1  0
 22 16  1  0
  1 25  1  0
  1 26  1  0
  1 27  1  0
  5 28  1  0
  5 29  1  0
  6 30  1  0
  6 31  1  0
  8 32  1  0
  9 33  1  0
 11 34  1  0
 11 35  1  0
 12 36  1  0
 17 37  1  0
 18 38  1  0
 21 39  1  0
 22 40  1  0
 23 41  1  0
M  END
>  <UniqueID>  (18) 
17

>  <SMILES>  (18) 
CC(=O)N1CCc2ccc(CNS(=O)(=O)c3ccc(Br)cc3)cc21

>  <Energy>  (18) 
55.149234150641384

>  <Genealogy>  (18) 
CC(=O)N1CCc2ccc(CNS(=O)(=O)c3ccc(Br)cc3)cc21 (3D coordinates assigned)
CC(=O)N1CCc2ccc(CNS(=O)(=O)c3ccc(Br)cc3)cc21 (nonaromatic ring conformer: 55.149234150641384 kcal/mol)

>  <smiles>  (18) 
CC(=O)N1CCc2ccc(CNS(=O)(=O)c3ccc(Br)cc3)cc21

>  <score_type>  (18) 
oracle

>  <origin>  (18) 
adgpu

>  <m_score__min__energy>  (18) 
-10.01

>  <m_primary>  (18) 
energy

$$$$
18:0
     RDKit          3D

 42 44  0  0  0  0  0  0  0  0999 V2000
   -2.1870   19.3370  -26.8430 C   0  0  0  0  0  0  0  0  0  0  0  0
   -1.8040   20.0890  -27.9910 O   0  0  0  0  0  0  0  0  0  0  0  0
   -2.5410   21.1600  -28.5190 C   0  0  0  0  0  0  0  0  0  0  0  0
   -3.4860   21.8740  -27.7550 C   0  0  0  0  0  0  0  0  0  0  0  0
   -4.1960   22.9350  -28.3240 C   0  0  0  0  0  0  0  0  0  0  0  0
   -3.9740   23.2950  -29.6600 C   0  0  0  0  0  0  0  0  0  0  0  0
   -4.8650   24.6260  -30.3890 S   0  0  0  0  0  0  0  0  0  0  0  0
   -5.8160   25.2440  -29.4010 O   0  0  0  0  0  0  0  0  0  0  0  0
   -3.8870   25.6720  -30.8430 O   0  0  0  0  0  0  0  0  0  0  0  0
   -5.7600   24.0550  -31.7600 N   0  0  0  0  0  0  0  0  0  0  0  0
   -6.2810   22.7270  -31.9150 C   0  0  0  0  0  0  0  0  0  0  0  0
   -7.5800   22.3880  -31.5250 C   0  0  0  0  0  0  0  0  0  0  0  0
   -8.0510   21.0890  -31.6910 C   0  0  0  0  0  0  0  0  0  0  0  0
   -7.2350   20.0810  -32.2600 C   0  0  0  0  0  0  0  0  0  0  0  0
   -5.9100   20.4180  -32.6590 C   0  0  0  0  0  0  0  0  0  0  0  0
   -5.4590   21.7490  -32.4750 C   0  0  0  0  0  0  0  0  0  0  0  0
   -5.0980   19.4510  -33.2160 N   0  0  0  0  0  0  0  0  0  0  0  0
   -3.7170   19.7740  -33.6330 C   0  0  0  0  0  0  0  0  0  0  0  0
   -5.5800   18.1810  -33.3930 C   0  0  0  0  0  0  0  0  0  0  0  0
   -4.8580   17.2840  -33.9130 O   0  0  0  0  0  0  0  0  0  0  0  0
   -6.8800   17.8510  -33.0000 C   0  0  0  0  0  0  0  0  0  0  0  0
   -7.2850   16.6670  -33.1750 O   0  0  0  0  0  0  0  0  0  0  0  0
   -7.6980   18.7940  -32.4350 N   0  0  0  0  0  0  0  0  0  0  0  0
   -9.0680   18.4220  -32.0240 C   0  0  0  0  0  0  0  0  0  0  0  0
   -3.0350   22.5890  -30.4200 C   0  0  0  0  0  0  0  0  0  0  0  0
   -2.3230   21.5280  -29.8530 C   0  0  0  0  0  0  0  0  0  0  0  0
   -1.4140   20.8550  -30.6020 F   0  0  0  0  0  0  0  0  0  0  0  0
   -1.9063   19.8881  -25.9333 H   0  0  0  0  0  0  0  0  0  0  0  0
   -3.2755   19.1788  -26.8547 H   0  0  0  0  0  0  0  0  0  0  0  0
   -1.6749   18.3636  -26.8547 H   0  0  0  0  0  0  0  0  0  0  0  0
   -3.6656   21.5950  -26.7062 H   0  0  0  0  0  0  0  0  0  0  0  0
   -4.9310   23.4889  -27.7215 H   0  0  0  0  0  0  0  0  0  0  0  0
   -8.2348   23.1538  -31.0836 H   0  0  0  0  0  0  0  0  0  0  0  0
   -9.0749   20.8409  -31.3747 H   0  0  0  0  0  0  0  0  0  0  0  0
   -4.4370   22.0170  -32.7809 H   0  0  0  0  0  0  0  0  0  0  0  0
   -3.0896   19.9207  -32.7415 H   0  0  0  0  0  0  0  0  0  0  0  0
   -3.3123   18.9463  -34.2339 H   0  0  0  0  0  0  0  0  0  0  0  0
   -3.7214   20.6953  -34.2339 H   0  0  0  0  0  0  0  0  0  0  0  0
   -9.1296   18.4053  -30.9258 H   0  0  0  0  0  0  0  0  0  0  0  0
   -9.7824   19.1587  -32.4201 H   0  0  0  0  0  0  0  0  0  0  0  0
   -9.3117   17.4252  -32.4201 H   0  0  0  0  0  0  0  0  0  0  0  0
   -2.8563   22.8701  -31.4683 H   0  0  0  0  0  0  0  0  0  0  0  0
  1  2  1  0
  2  3  1  0
  3  4  2  0
  4  5  1  0
  5  6  2  0
  6  7  1  0
  7  8  2  0
  7  9  2  0
  7 10  1  0
 10 11  1  0
 11 12  2  0
 12 13  1  0
 13 14  2  0
 14 15  1  0
 15 16  2  0
 15 17  1  0
 17 18  1  0
 17 19  1  0
 19 20  2  0
 19 21  1  0
 21 22  2  0
 21 23  1  0
 23 24  1  0
  6 25  1  0
 25 26  2  0
 26 27  1  0
 26  3  1  0
 16 11  1  0
 23 14  1  0
  1 28  1  0
  1 29  1  0
  1 30  1  0
  4 31  1  0
  5 32  1  0
 12 33  1  0
 13 34  1  0
 16 35  1  0
 18 36  1  0
 18 37  1  0
 18 38  1  0
 24 39  1  0
 24 40  1  0
 24 41  1  0
 25 42  1  0
M  CHG  1  10  -1
M  END
>  <UniqueID>  (19) 
18

>  <SMILES>  (19) 
COc1ccc(S(=O)(=O)[N-]c2ccc3c(c2)n(C)c(=O)c(=O)n3C)cc1F

>  <Energy>  (19) 
64.49667676441594

>  <Genealogy>  (19) 
COc1ccc(S(=O)(=O)[N-]c2ccc3c(c2)n(C)c(=O)c(=O)n3C)cc1F (protonated)
COc1ccc(S(=O)(=O)[N-]c2ccc3c(c2)n(C)c(=O)c(=O)n3C)cc1F (3D coordinates assigned)
COc1ccc(S(=O)(=O)[N-]c2ccc3c(c2)n(C)c(=O)c(=O)n3C)cc1F (optimized conformer: 64.49667676441594 kcal/mol)

>  <smiles>  (19) 
COc1ccc(S(=O)(=O)Nc2ccc3c(c2)n(C)c(=O)c(=O)n3C)cc1F

>  <score_type>  (19) 
oracle

>  <origin>  (19) 
adgpu

>  <m_score__min__energy>  (19) 
-9.7400000000000002

>  <m_primary>  (19) 
energy

$$$$
19:0
     RDKit          3D

 65 68  0  0  0  0  0  0  0  0999 V2000
   -8.3400   18.7690  -32.1340 C   0  0  0  0  0  0  0  0  0  0  0  0
   -7.8950   20.1060  -32.3430 O   0  0  0  0  0  0  0  0  0  0  0  0
   -6.5500   20.4940  -32.4450 C   0  0  0  0  0  0  0  0  0  0  0  0
   -5.6080   19.7060  -33.1320 C   0  0  0  0  0  0  0  0  0  0  0  0
   -4.2720   20.1030  -33.2130 C   0  0  0  0  0  0  0  0  0  0  0  0
   -3.8530   21.2970  -32.6140 C   0  0  0  0  0  0  0  0  0  0  0  0
   -2.4040   21.7010  -32.6610 C   0  0  0  0  0  0  0  0  0  0  0  0
   -1.5790   20.7670  -31.8890 N   0  0  0  0  0  0  0  0  0  0  0  0
   -1.0220   21.0860  -30.5930 C   0  0  0  0  0  0  0  0  0  0  0  0
   -1.0200   22.4150  -30.1200 C   0  0  0  0  0  0  0  0  0  0  0  0
   -0.5010   22.7330  -28.8600 C   0  0  0  0  0  0  0  0  0  0  0  0
   -0.5170   24.4060  -28.2870 S   0  0  0  0  0  0  0  0  0  0  0  0
    0.8970   24.9110  -28.2120 O   0  0  0  0  0  0  0  0  0  0  0  0
   -1.2600   25.2560  -29.2790 O   0  0  0  0  0  0  0  0  0  0  0  0
   -1.2650   24.5780  -26.7170 N   0  0  0  0  0  0  0  0  0  0  0  0
   -1.5740   25.9720  -26.4040 C   0  0  0  0  0  0  0  0  0  0  0  0
   -1.5910   26.0790  -24.8870 C   0  0  0  0  0  0  0  0  0  0  0  0
   -0.8390   24.8550  -24.3860 C   0  0  0  0  0  0  0  0  0  0  0  0
   -0.3920   24.1190  -25.6390 C   0  0  0  0  0  0  0  0  0  0  0  0
    0.0460   21.7230  -28.0650 C   0  0  0  0  0  0  0  0  0  0  0  0
    0.0600   20.4040  -28.5150 C   0  0  0  0  0  0  0  0  0  0  0  0
   -0.4700   20.0680  -29.7710 C   0  0  0  0  0  0  0  0  0  0  0  0
   -0.4390   18.6280  -30.2120 C   0  0  0  0  0  0  0  0  0  0  0  0
   -4.7810   22.0770  -31.9130 C   0  0  0  0  0  0  0  0  0  0  0  0
   -6.1300   21.6980  -31.8390 C   0  0  0  0  0  0  0  0  0  0  0  0
   -7.2700   22.7490  -30.9760 S   0  0  0  0  0  0  0  0  0  0  0  0
   -8.0600   23.5650  -31.9600 O   0  0  0  0  0  0  0  0  0  0  0  0
   -8.2410   21.8900  -30.2130 O   0  0  0  0  0  0  0  0  0  0  0  0
   -6.4570   23.8210  -29.8560 N   0  0  0  0  0  0  0  0  0  0  0  0
   -6.1580   25.1350  -30.4650 C   0  0  0  0  0  0  0  0  0  0  0  0
   -4.6730   25.2660  -30.8490 C   0  0  0  0  0  0  0  0  0  0  0  0
   -3.7880   25.1020  -29.7490 O   0  0  0  0  0  0  0  0  0  0  0  0
   -4.2730   24.2130  -28.7490 C   0  0  0  0  0  0  0  0  0  0  0  0
   -5.2660   23.1660  -29.2790 C   0  0  0  0  0  0  0  0  0  0  0  0
   -8.4065   18.5692  -31.0543 H   0  0  0  0  0  0  0  0  0  0  0  0
   -9.3308   18.6363  -32.5931 H   0  0  0  0  0  0  0  0  0  0  0  0
   -7.6264   18.0690  -32.5931 H   0  0  0  0  0  0  0  0  0  0  0  0
   -5.9274   18.7681  -33.6098 H   0  0  0  0  0  0  0  0  0  0  0  0
   -3.5456   19.4751  -33.7497 H   0  0  0  0  0  0  0  0  0  0  0  0
   -2.0638   21.7032  -33.7071 H   0  0  0  0  0  0  0  0  0  0  0  0
   -2.3032   22.7054  -32.2240 H   0  0  0  0  0  0  0  0  0  0  0  0
   -1.4000   19.8260  -32.3050 H   0  0  0  0  0  0  0  0  0  0  0  0
   -1.4333   23.2147  -30.7522 H   0  0  0  0  0  0  0  0  0  0  0  0
   -0.8035   26.6357  -26.8234 H   0  0  0  0  0  0  0  0  0  0  0  0
   -2.5403   26.2724  -26.8354 H   0  0  0  0  0  0  0  0  0  0  0  0
   -1.0867   27.0005  -24.5607 H   0  0  0  0  0  0  0  0  0  0  0  0
   -2.6167   26.1185  -24.4916 H   0  0  0  0  0  0  0  0  0  0  0  0
    0.0315   25.1567  -23.7850 H   0  0  0  0  0  0  0  0  0  0  0  0
   -1.4671   24.2231  -23.7409 H   0  0  0  0  0  0  0  0  0  0  0  0
    0.6563   24.3601  -25.8689 H   0  0  0  0  0  0  0  0  0  0  0  0
   -0.4579   23.0289  -25.5076 H   0  0  0  0  0  0  0  0  0  0  0  0
    0.4676   21.9698  -27.0794 H   0  0  0  0  0  0  0  0  0  0  0  0
    0.4913   19.6171  -27.8788 H   0  0  0  0  0  0  0  0  0  0  0  0
   -0.4249   17.9739  -29.3277 H   0  0  0  0  0  0  0  0  0  0  0  0
   -1.3327   18.4099  -30.8152 H   0  0  0  0  0  0  0  0  0  0  0  0
    0.4632   18.4486  -30.8152 H   0  0  0  0  0  0  0  0  0  0  0  0
   -4.4481   22.9989  -31.4138 H   0  0  0  0  0  0  0  0  0  0  0  0
   -6.7712   25.2550  -31.3703 H   0  0  0  0  0  0  0  0  0  0  0  0
   -6.3881   25.9143  -29.7235 H   0  0  0  0  0  0  0  0  0  0  0  0
   -4.4388   24.4991  -31.6020 H   0  0  0  0  0  0  0  0  0  0  0  0
   -4.5263   26.2859  -31.2340 H   0  0  0  0  0  0  0  0  0  0  0  0
   -3.4145   23.6850  -28.3083 H   0  0  0  0  0  0  0  0  0  0  0  0
   -4.8146   24.8242  -28.0120 H   0  0  0  0  0  0  0  0  0  0  0  0
   -4.7739   22.5625  -30.0559 H   0  0  0  0  0  0  0  0  0  0  0  0
   -5.5846   22.5259  -28.4431 H   0  0  0  0  0  0  0  0  0  0  0  0
  1  2  1  0
  2  3  1  0
  3  4  2  0
  4  5  1  0
  5  6  2  0
  6  7  1  0
  7  8  1  0
  8  9  1  0
  9 10  2  0
 10 11  1  0
 11 12  1  0
 12 13  2  0
 12 14  2  0
 12 15  1  0
 15 16  1  0
 16 17  1  0
 17 18  1  0
 18 19  1  0
 11 20  2  0
 20 21  1  0
 21 22  2  0
 22 23  1  0
  6 24  1  0
 24 25  2  0
 25 26  1  0
 26 27  2  0
 26 28  2  0
 26 29  1  0
 29 30  1  0
 30 31  1  0
 31 32  1  0
 32 33  1  0
 33 34  1  0
 25  3  1  0
 34 29  1  0
 22  9  1  0
 19 15  1  0
  1 35  1  0
  1 36  1  0
  1 37  1  0
  4 38  1  0
  5 39  1  0
  7 40  1  0
  7 41  1  0
  8 42  1  0
 10 43  1  0
 16 44  1  0
 16 45  1  0
 17 46  1  0
 17 47  1  0
 18 48  1  0
 18 49  1  0
 19 50  1  0
 19 51  1  0
 20 52  1  0
 21 53  1  0
 23 54  1  0
 23 55  1  0
 23 56  1  0
 24 57  1  0
 30 58  1  0
 30 59  1  0
 31 60  1  0
 31 61  1  0
 33 62  1  0
 33 63  1  0
 34 64  1  0
 34 65  1  0
M  END
>  <UniqueID>  (20) 
19

>  <SMILES>  (20) 
COc1ccc(CNc2cc(S(=O)(=O)N3CCCC3)ccc2C)cc1S(=O)(=O)N1CCOCC1

>  <Energy>  (20) 
80.37629611686374

>  <Genealogy>  (20) 
COc1ccc(CNc2cc(S(=O)(=O)N3CCCC3)ccc2C)cc1S(=O)(=O)N1CCOCC1 (3D coordinates assigned)
COc1ccc(CNc2cc(S(=O)(=O)N3CCCC3)ccc2C)cc1S(=O)(=O)N1CCOCC1 (nonaromatic ring conformer: 80.37629611686374 kcal/mol)

>  <smiles>  (20) 
COc1ccc(CNc2cc(S(=O)(=O)N3CCCC3)ccc2C)cc1S(=O)(=O)N1CCOCC1

>  <score_type>  (20) 
oracle

>  <origin>  (20) 
adgpu

>  <m_score__min__energy>  (20) 
-11.050000000000001

>  <m_primary>  (20) 
energy

$$$$
20:0
     RDKit          3D

 94 99  0  0  0  0  0  0  0  0999 V2000
   -5.7280   26.0780  -30.4510 C   0  0  0  0  0  0  0  0  0  0  0  0
   -5.1660   24.7420  -30.6920 N   0  0  0  0  0  0  0  0  0  0  0  0
   -5.3380   23.8600  -29.5110 C   0  0  0  0  0  0  0  0  0  0  0  0
   -6.4480   22.8200  -29.7150 C   0  0  0  0  0  0  0  0  0  0  0  0
   -6.1550   21.9420  -30.8760 N   0  0  0  0  0  0  0  0  0  0  0  0
   -7.3630   21.2180  -31.3240 C   0  0  0  0  0  0  0  0  0  0  0  0
   -7.0030   19.8800  -31.9180 C   0  0  0  0  0  0  0  0  0  0  0  0
   -7.9990   18.9160  -32.1360 C   0  0  0  0  0  0  0  0  0  0  0  0
   -7.6790   17.7030  -32.7530 C   0  0  0  0  0  0  0  0  0  0  0  0
   -6.3670   17.4450  -33.1610 C   0  0  0  0  0  0  0  0  0  0  0  0
   -5.3580   18.4010  -32.9490 C   0  0  0  0  0  0  0  0  0  0  0  0
   -3.9690   18.1500  -33.4000 C   0  0  0  0  0  0  0  0  0  0  0  0
   -3.4400   16.8500  -33.3910 C   0  0  0  0  0  0  0  0  0  0  0  0
   -2.1640   16.6010  -33.8950 C   0  0  0  0  0  0  0  0  0  0  0  0
   -1.3840   17.6390  -34.4250 C   0  0  0  0  0  0  0  0  0  0  0  0
   -0.1560   17.2780  -35.0100 O   0  0  0  0  0  0  0  0  0  0  0  0
    1.0370   18.0040  -34.9400 C   0  0  0  0  0  0  0  0  0  0  0  0
    1.3780   18.7980  -36.0460 C   0  0  0  0  0  0  0  0  0  0  0  0
    2.5820   19.5020  -36.0720 C   0  0  0  0  0  0  0  0  0  0  0  0
    3.4480   19.4440  -34.9860 C   0  0  0  0  0  0  0  0  0  0  0  0
    3.1020   18.7000  -33.8580 C   0  0  0  0  0  0  0  0  0  0  0  0
    1.8700   17.9900  -33.7750 C   0  0  0  0  0  0  0  0  0  0  0  0
    1.4970   17.2030  -32.4830 C   0  0  0  0  0  0  0  0  0  0  0  0
    2.6830   17.1300  -31.4800 C   0  0  0  0  0  0  0  0  0  0  0  0
    0.3210   17.8750  -31.7240 C   0  0  0  0  0  0  0  0  0  0  0  0
    1.1140   15.7570  -32.8490 C   0  0  0  0  0  0  0  0  0  0  0  0
   -1.8760   18.9700  -34.3580 C   0  0  0  0  0  0  0  0  0  0  0  0
   -1.0690   20.0820  -34.7650 N   0  0  0  0  0  0  0  0  0  0  0  0
   -0.4230   20.9780  -33.8510 C   0  0  0  0  0  0  0  0  0  0  0  0
    0.1600   21.9940  -34.3050 O   0  0  0  0  0  0  0  0  0  0  0  0
   -0.3900   20.6570  -32.4470 N   0  0  0  0  0  0  0  0  0  0  0  0
   -1.1710   21.1410  -31.3420 C   0  0  0  0  0  0  0  0  0  0  0  0
   -2.3190   20.4150  -30.9990 C   0  0  0  0  0  0  0  0  0  0  0  0
   -3.1400   20.8290  -29.9480 C   0  0  0  0  0  0  0  0  0  0  0  0
   -2.8170   21.9740  -29.2210 C   0  0  0  0  0  0  0  0  0  0  0  0
   -1.6680   22.7100  -29.5370 C   0  0  0  0  0  0  0  0  0  0  0  0
   -1.2570   24.1350  -28.5850 S   0  0  0  0  0  0  0  0  0  0  0  0
    0.1940   24.4720  -28.7990 O   0  0  0  0  0  0  0  0  0  0  0  0
   -2.0910   25.2970  -29.0490 O   0  0  0  0  0  0  0  0  0  0  0  0
   -1.5380   23.8130  -26.8910 N   0  0  0  0  0  0  0  0  0  0  0  0
   -1.1930   24.9720  -26.0650 C   0  0  0  0  0  0  0  0  0  0  0  0
   -0.8520   24.4270  -24.6880 C   0  0  0  0  0  0  0  0  0  0  0  0
   -0.4540   22.9810  -24.9220 C   0  0  0  0  0  0  0  0  0  0  0  0
   -0.6840   22.7290  -26.4080 C   0  0  0  0  0  0  0  0  0  0  0  0
   -0.8410   22.2920  -30.5960 C   0  0  0  0  0  0  0  0  0  0  0  0
   -3.1720   19.2060  -33.8680 C   0  0  0  0  0  0  0  0  0  0  0  0
   -5.6890   19.6180  -32.3290 C   0  0  0  0  0  0  0  0  0  0  0  0
   -5.5000   22.6550  -32.0030 C   0  0  0  0  0  0  0  0  0  0  0  0
   -5.7140   24.1740  -31.9450 C   0  0  0  0  0  0  0  0  0  0  0  0
   -5.8023   26.2546  -29.3678 H   0  0  0  0  0  0  0  0  0  0  0  0
   -5.0734   26.8381  -30.9024 H   0  0  0  0  0  0  0  0  0  0  0  0
   -6.7291   26.1415  -30.9024 H   0  0  0  0  0  0  0  0  0  0  0  0
   -4.3908   23.3335  -29.3222 H   0  0  0  0  0  0  0  0  0  0  0  0
   -5.6238   24.4931  -28.6581 H   0  0  0  0  0  0  0  0  0  0  0  0
   -6.5308   22.2013  -28.8092 H   0  0  0  0  0  0  0  0  0  0  0  0
   -7.3913   23.3513  -29.9096 H   0  0  0  0  0  0  0  0  0  0  0  0
   -8.0286   21.0615  -30.4623 H   0  0  0  0  0  0  0  0  0  0  0  0
   -7.8656   21.8197  -32.0956 H   0  0  0  0  0  0  0  0  0  0  0  0
   -9.0339   19.1151  -31.8207 H   0  0  0  0  0  0  0  0  0  0  0  0
   -8.4625   16.9488  -32.9181 H   0  0  0  0  0  0  0  0  0  0  0  0
   -6.1231   16.4903  -33.6498 H   0  0  0  0  0  0  0  0  0  0  0  0
   -4.0368   16.0209  -32.9831 H   0  0  0  0  0  0  0  0  0  0  0  0
   -1.7638   15.5766  -33.8766 H   0  0  0  0  0  0  0  0  0  0  0  0
    0.6890   18.8658  -36.9008 H   0  0  0  0  0  0  0  0  0  0  0  0
    2.8467   20.1043  -36.9536 H   0  0  0  0  0  0  0  0  0  0  0  0
    4.4056   19.9845  -35.0162 H   0  0  0  0  0  0  0  0  0  0  0  0
    3.8001   18.6605  -33.0088 H   0  0  0  0  0  0  0  0  0  0  0  0
    2.2950   17.1539  -30.4510 H   0  0  0  0  0  0  0  0  0  0  0  0
    3.2413   16.1958  -31.6397 H   0  0  0  0  0  0  0  0  0  0  0  0
    3.3517   17.9887  -31.6397 H   0  0  0  0  0  0  0  0  0  0  0  0
    0.4835   17.7822  -30.6400 H   0  0  0  0  0  0  0  0  0  0  0  0
    0.2688   18.9393  -31.9971 H   0  0  0  0  0  0  0  0  0  0  0  0
   -0.6224   17.3797  -31.9971 H   0  0  0  0  0  0  0  0  0  0  0  0
    0.9597   15.1745  -31.9288 H   0  0  0  0  0  0  0  0  0  0  0  0
    0.1862   15.7618  -33.4398 H   0  0  0  0  0  0  0  0  0  0  0  0
    1.9226   15.3019  -33.4398 H   0  0  0  0  0  0  0  0  0  0  0  0
   -2.5769   19.5075  -31.5646 H   0  0  0  0  0  0  0  0  0  0  0  0
   -4.0413   20.2519  -29.6938 H   0  0  0  0  0  0  0  0  0  0  0  0
   -3.4671   22.3006  -28.3960 H   0  0  0  0  0  0  0  0  0  0  0  0
   -0.3269   25.4994  -26.4913 H   0  0  0  0  0  0  0  0  0  0  0  0
   -2.0246   25.6904  -26.0163 H   0  0  0  0  0  0  0  0  0  0  0  0
   -0.0173   24.9905  -24.2456 H   0  0  0  0  0  0  0  0  0  0  0  0
   -1.6974   24.5138  -23.9896 H   0  0  0  0  0  0  0  0  0  0  0  0
    0.6047   22.8276  -24.6657 H   0  0  0  0  0  0  0  0  0  0  0  0
   -1.0391   22.2909  -24.2963 H   0  0  0  0  0  0  0  0  0  0  0  0
    0.2753   22.7337  -26.9462 H   0  0  0  0  0  0  0  0  0  0  0  0
   -1.1559   21.7494  -26.5747 H   0  0  0  0  0  0  0  0  0  0  0  0
    0.0654   22.8643  -30.8429 H   0  0  0  0  0  0  0  0  0  0  0  0
   -3.5670   20.2325  -33.8511 H   0  0  0  0  0  0  0  0  0  0  0  0
   -4.9072   20.3741  -32.1643 H   0  0  0  0  0  0  0  0  0  0  0  0
   -4.4198   22.4499  -31.9693 H   0  0  0  0  0  0  0  0  0  0  0  0
   -5.9535   22.2902  -32.9364 H   0  0  0  0  0  0  0  0  0  0  0  0
   -5.2079   24.6411  -32.8027 H   0  0  0  0  0  0  0  0  0  0  0  0
   -6.7948   24.3761  -31.9769 H   0  0  0  0  0  0  0  0  0  0  0  0
  1  2  1  0
  2  3  1  0
  3  4  1  0
  4  5  1  0
  5  6  1  0
  6  7  1  0
  7  8  2  0
  8  9  1  0
  9 10  2  0
 10 11  1  0
 11 12  1  0
 12 13  2  0
 13 14  1  0
 14 15  2  0
 15 16  1  0
 16 17  1  0
 17 18  2  0
 18 19  1  0
 19 20  2  0
 20 21  1  0
 21 22  2  0
 22 23  1  0
 23 24  1  0
 23 25  1  0
 23 26  1  0
 15 27  1  0
 27 28  1  0
 28 29  1  0
 29 30  2  0
 29 31  1  0
 31 32  1  0
 32 33  2  0
 33 34  1  0
 34 35  2  0
 35 36  1  0
 36 37  1  0
 37 38  2  0
 37 39  2  0
 37 40  1  0
 40 41  1  0
 41 42  1  0
 42 43  1  0
 43 44  1  0
 36 45  2  0
 27 46  2  0
 11 47  2  0
  5 48  1  0
 48 49  1  0
 49  2  1  0
 47  7  1  0
 46 12  1  0
 22 17  1  0
 45 32  1  0
 44 40  1  0
  1 50  1  0
  1 51  1  0
  1 52  1  0
  3 53  1  0
  3 54  1  0
  4 55  1  0
  4 56  1  0
  6 57  1  0
  6 58  1  0
  8 59  1  0
  9 60  1  0
 10 61  1  0
 13 62  1  0
 14 63  1  0
 18 64  1  0
 19 65  1  0
 20 66  1  0
 21 67  1  0
 24 68  1  0
 24 69  1  0
 24 70  1  0
 25 71  1  0
 25 72  1  0
 25 73  1  0
 26 74  1  0
 26 75  1  0
 26 76  1  0
 33 77  1  0
 34 78  1  0
 35 79  1  0
 41 80  1  0
 41 81  1  0
 42 82  1  0
 42 83  1  0
 43 84  1  0
 43 85  1  0
 44 86  1  0
 44 87  1  0
 45 88  1  0
 46 89  1  0
 47 90  1  0
 48 91  1  0
 48 92  1  0
 49 93  1  0
 49 94  1  0
M  CHG  2  28  -1  31  -1
M  END
>  <UniqueID>  (21) 
20

>  <SMILES>  (21) 
CN1CCN(Cc2cccc(-c3ccc(Oc4ccccc4C(C)(C)C)c([N-]C(=O)[N-]c4cccc(S(=O)(=O)N5CCCC5)c4)c3)c2)CC1

>  <Energy>  (21) 
143.89826534671198

>  <Genealogy>  (21) 
CN1CCN(Cc2cccc(-c3ccc(Oc4ccccc4C(C)(C)C)c([N-]C(=O)[N-]c4cccc(S(=O)(=O)N5CCCC5)c4)c3)c2)CC1 (protonated)
CN1CCN(Cc2cccc(-c3ccc(Oc4ccccc4C(C)(C)C)c([N-]C(=O)[N-]c4cccc(S(=O)(=O)N5CCCC5)c4)c3)c2)CC1 (3D coordinates assigned)
CN1CCN(Cc2cccc(-c3ccc(Oc4ccccc4C(C)(C)C)c([N-]C(=O)[N-]c4cccc(S(=O)(=O)N5CCCC5)c4)c3)c2)CC1 (nonaromatic ring conformer: 143.89826534671198 kcal/mol)

>  <smiles>  (21) 
CN1CCN(Cc2cccc(-c3ccc(Oc4ccccc4C(C)(C)C)c(NC(=O)Nc4cccc(S(=O)(=O)N5CCCC5)c4)c3)c2)CC1

>  <score_type>  (21) 
oracle

>  <origin>  (21) 
adgpu

>  <m_score__min__energy>  (21) 
-15.109999999999999

>  <m_primary>  (21) 
energy

$$$$
21:0
     RDKit          3D

 59 62  0  0  0  0  0  0  0  0999 V2000
   -5.6500   18.8470  -34.1050 C   0  0  0  0  0  0  0  0  0  0  0  0
   -6.7080   19.1700  -33.0910 C   0  0  0  0  0  0  0  0  0  0  0  0
   -7.6410   18.1950  -32.7080 C   0  0  0  0  0  0  0  0  0  0  0  0
   -8.6450   18.5060  -31.7870 C   0  0  0  0  0  0  0  0  0  0  0  0
   -8.7340   19.7940  -31.2540 C   0  0  0  0  0  0  0  0  0  0  0  0
   -7.8190   20.7860  -31.6440 C   0  0  0  0  0  0  0  0  0  0  0  0
   -7.8980   22.1680  -31.0570 C   0  0  0  0  0  0  0  0  0  0  0  0
   -7.3410   23.4240  -32.2610 S   0  0  0  0  0  0  0  0  0  0  0  0
   -5.7780   23.7200  -31.4420 C   0  0  0  0  0  0  0  0  0  0  0  0
   -5.2640   24.9430  -31.2190 N   0  0  0  0  0  0  0  0  0  0  0  0
   -4.1000   24.7460  -30.6190 N   0  0  0  0  0  0  0  0  0  0  0  0
   -3.9540   23.4120  -30.4980 C   0  0  0  0  0  0  0  0  0  0  0  0
   -2.7680   22.7470  -29.9040 C   0  0  0  0  0  0  0  0  0  0  0  0
   -1.9990   21.8620  -30.6980 C   0  0  0  0  0  0  0  0  0  0  0  0
   -2.3670   21.5480  -32.1280 C   0  0  0  0  0  0  0  0  0  0  0  0
   -0.8580   21.2680  -30.1560 C   0  0  0  0  0  0  0  0  0  0  0  0
   -0.4440   21.5670  -28.8650 C   0  0  0  0  0  0  0  0  0  0  0  0
   -1.1690   22.4500  -28.0520 C   0  0  0  0  0  0  0  0  0  0  0  0
   -0.5780   22.8500  -26.4070 S   0  0  0  0  0  0  0  0  0  0  0  0
   -1.1740   21.8520  -25.4530 O   0  0  0  0  0  0  0  0  0  0  0  0
    0.9180   22.6820  -26.3980 O   0  0  0  0  0  0  0  0  0  0  0  0
   -0.9620   24.4420  -25.7800 N   0  0  0  0  0  0  0  0  0  0  0  0
   -0.3270   24.6800  -24.4640 C   0  0  0  0  0  0  0  0  0  0  0  0
   -0.8050   26.0040  -23.8350 C   0  0  0  0  0  0  0  0  0  0  0  0
   -1.0910   27.0990  -24.8780 C   0  0  0  0  0  0  0  0  0  0  0  0
   -0.3180   26.8560  -26.1730 C   0  0  0  0  0  0  0  0  0  0  0  0
   -0.7180   25.5040  -26.7920 C   0  0  0  0  0  0  0  0  0  0  0  0
   -2.3790   23.0090  -28.5570 C   0  0  0  0  0  0  0  0  0  0  0  0
   -3.2480   23.8930  -27.6830 C   0  0  0  0  0  0  0  0  0  0  0  0
   -4.9850   22.7760  -31.0020 O   0  0  0  0  0  0  0  0  0  0  0  0
   -6.8090   20.4670  -32.5660 C   0  0  0  0  0  0  0  0  0  0  0  0
   -4.7212   18.5635  -33.5883 H   0  0  0  0  0  0  0  0  0  0  0  0
   -5.9889   18.0114  -34.7350 H   0  0  0  0  0  0  0  0  0  0  0  0
   -5.4644   19.7294  -34.7350 H   0  0  0  0  0  0  0  0  0  0  0  0
   -7.5822   17.1825  -33.1339 H   0  0  0  0  0  0  0  0  0  0  0  0
   -9.3670   17.7345  -31.4811 H   0  0  0  0  0  0  0  0  0  0  0  0
   -9.5235   20.0325  -30.5261 H   0  0  0  0  0  0  0  0  0  0  0  0
   -8.9395   22.3791  -30.7729 H   0  0  0  0  0  0  0  0  0  0  0  0
   -7.2414   22.2123  -30.1756 H   0  0  0  0  0  0  0  0  0  0  0  0
   -3.2037   20.8341  -32.1430 H   0  0  0  0  0  0  0  0  0  0  0  0
   -2.6657   22.4738  -32.6415 H   0  0  0  0  0  0  0  0  0  0  0  0
   -1.4997   21.1073  -32.6415 H   0  0  0  0  0  0  0  0  0  0  0  0
   -0.2792   20.5535  -30.7598 H   0  0  0  0  0  0  0  0  0  0  0  0
    0.4718   21.1015  -28.4717 H   0  0  0  0  0  0  0  0  0  0  0  0
   -1.9950   24.4190  -25.6010 H   0  0  0  0  0  0  0  0  0  0  0  0
   -0.5836   23.8506  -23.7885 H   0  0  0  0  0  0  0  0  0  0  0  0
    0.7611   24.7427  -24.6130 H   0  0  0  0  0  0  0  0  0  0  0  0
   -1.7281   25.8097  -23.2692 H   0  0  0  0  0  0  0  0  0  0  0  0
    0.0051   26.3710  -23.1877 H   0  0  0  0  0  0  0  0  0  0  0  0
   -2.1681   27.1072  -25.1011 H   0  0  0  0  0  0  0  0  0  0  0  0
   -0.7695   28.0647  -24.4608 H   0  0  0  0  0  0  0  0  0  0  0  0
   -0.5439   27.6622  -26.8865 H   0  0  0  0  0  0  0  0  0  0  0  0
    0.7586   26.8406  -25.9480 H   0  0  0  0  0  0  0  0  0  0  0  0
   -1.6385   25.6467  -27.3770 H   0  0  0  0  0  0  0  0  0  0  0  0
    0.1234   25.1706  -27.4172 H   0  0  0  0  0  0  0  0  0  0  0  0
   -3.0391   23.6805  -26.6241 H   0  0  0  0  0  0  0  0  0  0  0  0
   -3.0271   24.9494  -27.8955 H   0  0  0  0  0  0  0  0  0  0  0  0
   -4.3080   23.6902  -27.8955 H   0  0  0  0  0  0  0  0  0  0  0  0
   -6.0916   21.2399  -32.8789 H   0  0  0  0  0  0  0  0  0  0  0  0
  1  2  1  0
  2  3  2  0
  3  4  1  0
  4  5  2  0
  5  6  1  0
  6  7  1  0
  7  8  1  0
  8  9  1  0
  9 10  2  0
 10 11  1  0
 11 12  2  0
 12 13  1  0
 13 14  2  0
 14 15  1  0
 14 16  1  0
 16 17  2  0
 17 18  1  0
 18 19  1  0
 19 20  2  0
 19 21  2  0
 19 22  1  0
 22 23  1  0
 23 24  1  0
 24 25  1  0
 25 26  1  0
 26 27  1  0
 18 28  2  0
 28 29  1  0
 12 30  1  0
  6 31  2  0
 31  2  1  0
 30  9  1  0
 28 13  1  0
 27 22  1  0
  1 32  1  0
  1 33  1  0
  1 34  1  0
  3 35  1  0
  4 36  1  0
  5 37  1  0
  7 38  1  0
  7 39  1  0
 15 40  1  0
 15 41  1  0
 15 42  1  0
 16 43  1  0
 17 44  1  0
 22 45  1  0
 23 46  1  0
 23 47  1  0
 24 48  1  0
 24 49  1  0
 25 50  1  0
 25 51  1  0
 26 52  1  0
 26 53  1  0
 27 54  1  0
 27 55  1  0
 29 56  1  0
 29 57  1  0
 29 58  1  0
 31 59  1  0
M  CHG  1  22   1
M  END
>  <UniqueID>  (22) 
21

>  <SMILES>  (22) 
Cc1cccc(CSc2nnc(-c3c(C)ccc(S(=O)(=O)[NH+]4CCCCC4)c3C)o2)c1

>  <Energy>  (22) 
111.26991280515566

>  <Genealogy>  (22) 
Cc1cccc(CSc2nnc(-c3c(C)ccc(S(=O)(=O)[NH+]4CCCCC4)c3C)o2)c1 (protonated)
Cc1cccc(CSc2nnc(-c3c(C)ccc(S(=O)(=O)[NH+]4CCCCC4)c3C)o2)c1 (3D coordinates assigned)
Cc1cccc(CSc2nnc(-c3c(C)ccc(S(=O)(=O)[NH+]4CCCCC4)c3C)o2)c1 (nonaromatic ring conformer: 111.26991280515566 kcal/mol)

>  <smiles>  (22) 
Cc1cccc(CSc2nnc(-c3c(C)ccc(S(=O)(=O)N4CCCCC4)c3C)o2)c1

>  <score_type>  (22) 
oracle

>  <origin>  (22) 
adgpu

>  <m_score__min__energy>  (22) 
-10.630000000000001

>  <m_primary>  (22) 
energy

$$$$
22:0
     RDKit          3D

 52 55  0  0  0  0  0  0  0  0999 V2000
   -3.5720   21.6520  -27.4090 O   0  0  0  0  0  0  0  0  0  0  0  0
   -2.8440   22.2150  -28.2690 C   0  0  0  0  0  0  0  0  0  0  0  0
   -2.0050   23.3570  -27.8620 C   0  0  0  0  0  0  0  0  0  0  0  0
   -1.1940   23.2720  -26.7170 C   0  0  0  0  0  0  0  0  0  0  0  0
   -0.4170   24.3640  -26.3220 C   0  0  0  0  0  0  0  0  0  0  0  0
   -0.4350   25.5440  -27.0720 C   0  0  0  0  0  0  0  0  0  0  0  0
   -1.2240   25.6300  -28.2220 C   0  0  0  0  0  0  0  0  0  0  0  0
   -1.2380   26.8020  -28.9690 O   0  0  0  0  0  0  0  0  0  0  0  0
   -2.0000   24.5370  -28.6220 C   0  0  0  0  0  0  0  0  0  0  0  0
   -2.8220   21.6940  -29.6530 C   0  0  0  0  0  0  0  0  0  0  0  0
   -1.7970   20.9780  -30.2490 C   0  0  0  0  0  0  0  0  0  0  0  0
   -0.6560   20.4660  -29.6360 O   0  0  0  0  0  0  0  0  0  0  0  0
   -2.1060   20.8660  -31.5820 C   0  0  0  0  0  0  0  0  0  0  0  0
   -1.3140   20.2360  -32.5350 O   0  0  0  0  0  0  0  0  0  0  0  0
   -3.2730   21.4840  -31.8540 N   0  0  0  0  0  0  0  0  0  0  0  0
   -3.8320   21.6900  -33.1960 C   0  0  0  0  0  0  0  0  0  0  0  0
   -5.2500   21.1100  -33.3020 C   0  0  0  0  0  0  0  0  0  0  0  0
   -5.2960   19.7070  -32.8330 N   0  0  0  0  0  0  0  0  0  0  0  0
   -4.6960   18.7680  -33.8140 C   0  0  0  0  0  0  0  0  0  0  0  0
   -5.7670   17.9840  -34.5920 C   0  0  0  0  0  0  0  0  0  0  0  0
   -6.6180   17.2090  -33.7580 O   0  0  0  0  0  0  0  0  0  0  0  0
   -6.8310   17.7790  -32.4730 C   0  0  0  0  0  0  0  0  0  0  0  0
   -6.6690   19.3090  -32.4380 C   0  0  0  0  0  0  0  0  0  0  0  0
   -3.7280   21.9800  -30.6760 C   0  0  0  0  0  0  0  0  0  0  0  0
   -4.9090   22.8510  -30.5420 C   0  0  0  0  0  0  0  0  0  0  0  0
   -6.1780   22.2770  -30.3820 C   0  0  0  0  0  0  0  0  0  0  0  0
   -7.3110   23.0900  -30.2840 C   0  0  0  0  0  0  0  0  0  0  0  0
   -7.1820   24.4800  -30.3480 C   0  0  0  0  0  0  0  0  0  0  0  0
   -5.9210   25.0590  -30.5120 C   0  0  0  0  0  0  0  0  0  0  0  0
   -4.7850   24.2510  -30.6130 C   0  0  0  0  0  0  0  0  0  0  0  0
   -3.5400   24.8430  -30.7970 O   0  0  0  0  0  0  0  0  0  0  0  0
   -1.1710   22.3422  -26.1297 H   0  0  0  0  0  0  0  0  0  0  0  0
    0.2093   24.2954  -25.4203 H   0  0  0  0  0  0  0  0  0  0  0  0
    0.1724   26.4051  -26.7565 H   0  0  0  0  0  0  0  0  0  0  0  0
   -2.6087   24.6026  -29.5359 H   0  0  0  0  0  0  0  0  0  0  0  0
    0.0310   19.9350  -30.1550 H   0  0  0  0  0  0  0  0  0  0  0  0
   -3.8689   22.7688  -33.4076 H   0  0  0  0  0  0  0  0  0  0  0  0
   -3.1892   21.1737  -33.9241 H   0  0  0  0  0  0  0  0  0  0  0  0
   -5.9313   21.7157  -32.6864 H   0  0  0  0  0  0  0  0  0  0  0  0
   -5.5549   21.1320  -34.3587 H   0  0  0  0  0  0  0  0  0  0  0  0
   -4.0873   19.3419  -34.5282 H   0  0  0  0  0  0  0  0  0  0  0  0
   -4.0816   18.0439  -33.2588 H   0  0  0  0  0  0  0  0  0  0  0  0
   -6.3860   18.7009  -35.1513 H   0  0  0  0  0  0  0  0  0  0  0  0
   -5.2382   17.2839  -35.2556 H   0  0  0  0  0  0  0  0  0  0  0  0
   -7.8523   17.5308  -32.1484 H   0  0  0  0  0  0  0  0  0  0  0  0
   -6.0637   17.3601  -31.8053 H   0  0  0  0  0  0  0  0  0  0  0  0
   -7.3895   19.7631  -33.1342 H   0  0  0  0  0  0  0  0  0  0  0  0
   -6.8533   19.6576  -31.4111 H   0  0  0  0  0  0  0  0  0  0  0  0
   -6.2825   21.1831  -30.3334 H   0  0  0  0  0  0  0  0  0  0  0  0
   -8.3045   22.6354  -30.1565 H   0  0  0  0  0  0  0  0  0  0  0  0
   -8.0740   25.1189  -30.2692 H   0  0  0  0  0  0  0  0  0  0  0  0
   -5.8221   26.1534  -30.5617 H   0  0  0  0  0  0  0  0  0  0  0  0
  1  2  2  0
  2  3  1  0
  3  4  2  0
  4  5  1  0
  5  6  2  0
  6  7  1  0
  7  8  1  0
  7  9  2  0
  2 10  1  0
 10 11  1  0
 11 12  1  0
 11 13  2  0
 13 14  1  0
 13 15  1  0
 15 16  1  0
 16 17  1  0
 17 18  1  0
 18 19  1  0
 19 20  1  0
 20 21  1  0
 21 22  1  0
 22 23  1  0
 15 24  1  0
 24 25  1  0
 25 26  2  0
 26 27  1  0
 27 28  2  0
 28 29  1  0
 29 30  2  0
 30 31  1  0
  9  3  1  0
 24 10  2  0
 30 25  1  0
 23 18  1  0
  4 32  1  0
  5 33  1  0
  6 34  1  0
  9 35  1  0
 12 36  1  0
 16 37  1  0
 16 38  1  0
 17 39  1  0
 17 40  1  0
 19 41  1  0
 19 42  1  0
 20 43  1  0
 20 44  1  0
 22 45  1  0
 22 46  1  0
 23 47  1  0
 23 48  1  0
 26 49  1  0
 27 50  1  0
 28 51  1  0
 29 52  1  0
M  CHG  3   8  -1  14  -1  31  -1
M  END
>  <UniqueID>  (23) 
22

>  <SMILES>  (23) 
O=C(c1cccc([O-])c1)c1c(O)c([O-])n(CCN2CCOCC2)c1-c1ccccc1[O-]

>  <Energy>  (23) 
109.61001846933671

>  <Genealogy>  (23) 
O=C(c1cccc([O-])c1)c1c(O)c([O-])n(CCN2CCOCC2)c1-c1ccccc1[O-] (protonated)
O=C(c1cccc([O-])c1)c1c(O)c([O-])n(CCN2CCOCC2)c1-c1ccccc1[O-] (3D coordinates assigned)
O=C(c1cccc([O-])c1)c1c(O)c([O-])n(CCN2CCOCC2)c1-c1ccccc1[O-] (nonaromatic ring conformer: 109.61001846933671 kcal/mol)

>  <smiles>  (23) 
O=C(c1cccc(O)c1)c1c(O)c(O)n(CCN2CCOCC2)c1-c1ccccc1O

>  <score_type>  (23) 
oracle

>  <origin>  (23) 
adgpu

>  <m_score__min__energy>  (23) 
-13.07

>  <m_primary>  (23) 
energy

$$$$
23:0
     RDKit          3D

 66 69  0  0  0  0  0  0  0  0999 V2000
   -8.8770   20.0800  -32.3310 C   0  0  0  0  0  0  0  0  0  0  0  0
   -7.3960   20.1320  -32.6050 C   0  0  0  0  0  0  0  0  0  0  0  0
   -6.7720   18.9670  -33.0840 C   0  0  0  0  0  0  0  0  0  0  0  0
   -5.4070   18.9480  -33.3540 C   0  0  0  0  0  0  0  0  0  0  0  0
   -4.6290   20.0970  -33.1570 C   0  0  0  0  0  0  0  0  0  0  0  0
   -3.2130   20.0910  -33.3910 N   0  0  0  0  0  0  0  0  0  0  0  0
   -2.3140   19.0170  -33.0990 C   0  0  0  0  0  0  0  0  0  0  0  0
   -2.3220   17.9680  -33.7990 O   0  0  0  0  0  0  0  0  0  0  0  0
   -1.4060   19.1510  -32.0000 N   0  0  0  0  0  0  0  0  0  0  0  0
   -1.2230   20.3230  -31.1930 C   0  0  0  0  0  0  0  0  0  0  0  0
   -0.6970   20.1810  -29.9040 C   0  0  0  0  0  0  0  0  0  0  0  0
   -0.5170   21.2980  -29.0850 C   0  0  0  0  0  0  0  0  0  0  0  0
   -0.8800   22.5730  -29.5400 C   0  0  0  0  0  0  0  0  0  0  0  0
   -0.6390   23.9850  -28.5120 S   0  0  0  0  0  0  0  0  0  0  0  0
    0.8350   24.1910  -28.2930 O   0  0  0  0  0  0  0  0  0  0  0  0
   -1.1700   25.1980  -29.2240 O   0  0  0  0  0  0  0  0  0  0  0  0
   -1.4400   23.8340  -26.9600 N   0  0  0  0  0  0  0  0  0  0  0  0
   -1.5580   25.1250  -26.2550 C   0  0  0  0  0  0  0  0  0  0  0  0
   -0.2720   25.5130  -25.4840 C   0  0  0  0  0  0  0  0  0  0  0  0
    0.6790   24.4670  -25.4160 O   0  0  0  0  0  0  0  0  0  0  0  0
    0.0450   23.2770  -25.0100 C   0  0  0  0  0  0  0  0  0  0  0  0
   -0.8730   22.7530  -26.1260 C   0  0  0  0  0  0  0  0  0  0  0  0
   -1.4420   22.7150  -30.8160 C   0  0  0  0  0  0  0  0  0  0  0  0
   -1.6140   21.5980  -31.6400 C   0  0  0  0  0  0  0  0  0  0  0  0
   -5.2320   21.2610  -32.6630 C   0  0  0  0  0  0  0  0  0  0  0  0
   -4.4390   22.3810  -32.4290 O   0  0  0  0  0  0  0  0  0  0  0  0
   -6.6210   21.3070  -32.4080 C   0  0  0  0  0  0  0  0  0  0  0  0
   -7.3140   22.8370  -31.8120 S   0  0  0  0  0  0  0  0  0  0  0  0
   -7.4220   23.7990  -32.9620 O   0  0  0  0  0  0  0  0  0  0  0  0
   -8.6930   22.6520  -31.2420 O   0  0  0  0  0  0  0  0  0  0  0  0
   -6.2350   23.5390  -30.5610 C   0  0  0  0  0  0  0  0  0  0  0  0
   -5.4370   22.4320  -29.8360 C   0  0  0  0  0  0  0  0  0  0  0  0
   -4.0180   22.8800  -29.4320 C   0  0  0  0  0  0  0  0  0  0  0  0
   -3.9590   24.2990  -29.0260 N   0  0  0  0  0  0  0  0  0  0  0  0
   -4.6180   24.5290  -27.7290 C   0  0  0  0  0  0  0  0  0  0  0  0
   -4.4270   25.2420  -30.0770 C   0  0  0  0  0  0  0  0  0  0  0  0
   -5.3010   24.5890  -31.1690 C   0  0  0  0  0  0  0  0  0  0  0  0
   -9.0489   20.0740  -31.2445 H   0  0  0  0  0  0  0  0  0  0  0  0
   -9.3631   20.9616  -32.7742 H   0  0  0  0  0  0  0  0  0  0  0  0
   -9.3000   19.1664  -32.7742 H   0  0  0  0  0  0  0  0  0  0  0  0
   -7.3704   18.0586  -33.2475 H   0  0  0  0  0  0  0  0  0  0  0  0
   -4.9358   18.0256  -33.7243 H   0  0  0  0  0  0  0  0  0  0  0  0
   -0.4233   19.1823  -29.5330 H   0  0  0  0  0  0  0  0  0  0  0  0
   -0.0887   21.1766  -28.0791 H   0  0  0  0  0  0  0  0  0  0  0  0
   -1.7735   25.9100  -26.9948 H   0  0  0  0  0  0  0  0  0  0  0  0
   -2.3668   25.0239  -25.5163 H   0  0  0  0  0  0  0  0  0  0  0  0
    0.1913   26.3734  -25.9891 H   0  0  0  0  0  0  0  0  0  0  0  0
   -0.5705   25.7485  -24.4518 H   0  0  0  0  0  0  0  0  0  0  0  0
    0.8086   22.5186  -24.7824 H   0  0  0  0  0  0  0  0  0  0  0  0
   -0.5612   23.4823  -24.1154 H   0  0  0  0  0  0  0  0  0  0  0  0
   -0.2906   22.0799  -26.7723 H   0  0  0  0  0  0  0  0  0  0  0  0
   -1.7138   22.2323  -25.6444 H   0  0  0  0  0  0  0  0  0  0  0  0
   -1.7493   23.7097  -31.1712 H   0  0  0  0  0  0  0  0  0  0  0  0
   -2.0562   21.7170  -32.6402 H   0  0  0  0  0  0  0  0  0  0  0  0
   -6.8639   24.0439  -29.8129 H   0  0  0  0  0  0  0  0  0  0  0  0
   -5.9853   22.1422  -28.9275 H   0  0  0  0  0  0  0  0  0  0  0  0
   -5.3300   21.5905  -30.5363 H   0  0  0  0  0  0  0  0  0  0  0  0
   -3.6801   22.2591  -28.5892 H   0  0  0  0  0  0  0  0  0  0  0  0
   -3.3699   22.7606  -30.3128 H   0  0  0  0  0  0  0  0  0  0  0  0
   -3.9198   24.2853  -26.9147 H   0  0  0  0  0  0  0  0  0  0  0  0
   -4.9172   25.5847  -27.6519 H   0  0  0  0  0  0  0  0  0  0  0  0
   -5.5091   23.8887  -27.6519 H   0  0  0  0  0  0  0  0  0  0  0  0
   -5.0158   26.0346  -29.5920 H   0  0  0  0  0  0  0  0  0  0  0  0
   -3.5275   25.6266  -30.5800 H   0  0  0  0  0  0  0  0  0  0  0  0
   -5.9039   25.3663  -31.6613 H   0  0  0  0  0  0  0  0  0  0  0  0
   -4.6430   24.0955  -31.8994 H   0  0  0  0  0  0  0  0  0  0  0  0
  1  2  1  0
  2  3  2  0
  3  4  1  0
  4  5  2  0
  5  6  1  0
  6  7  1  0
  7  8  2  0
  7  9  1  0
  9 10  1  0
 10 11  2  0
 11 12  1  0
 12 13  2  0
 13 14  1  0
 14 15  2  0
 14 16  2  0
 14 17  1  0
 17 18  1  0
 18 19  1  0
 19 20  1  0
 20 21  1  0
 21 22  1  0
 13 23  1  0
 23 24  2  0
  5 25  1  0
 25 26  1  0
 25 27  2  0
 27 28  1  0
 28 29  2  0
 28 30  2  0
 28 31  1  0
 31 32  1  0
 32 33  1  0
 33 34  1  0
 34 35  1  0
 34 36  1  0
 36 37  1  0
 27  2  1  0
 37 31  1  0
 24 10  1  0
 22 17  1  0
  1 38  1  0
  1 39  1  0
  1 40  1  0
  3 41  1  0
  4 42  1  0
 11 43  1  0
 12 44  1  0
 18 45  1  0
 18 46  1  0
 19 47  1  0
 19 48  1  0
 21 49  1  0
 21 50  1  0
 22 51  1  0
 22 52  1  0
 23 53  1  0
 24 54  1  0
 31 55  1  0
 32 56  1  0
 32 57  1  0
 33 58  1  0
 33 59  1  0
 35 60  1  0
 35 61  1  0
 35 62  1  0
 36 63  1  0
 36 64  1  0
 37 65  1  0
 37 66  1  0
M  CHG  3   6  -1   9  -1  26  -1
M  END
>  <UniqueID>  (24) 
23

>  <SMILES>  (24) 
Cc1ccc([N-]C(=O)[N-]c2ccc(S(=O)(=O)N3CCOCC3)cc2)c([O-])c1S(=O)(=O)C1CCN(C)CC1

>  <Energy>  (24) 
95.32963322841684

>  <Genealogy>  (24) 
Cc1ccc([N-]C(=O)[N-]c2ccc(S(=O)(=O)N3CCOCC3)cc2)c([O-])c1S(=O)(=O)C1CCN(C)CC1 (protonated)
Cc1ccc([N-]C(=O)[N-]c2ccc(S(=O)(=O)N3CCOCC3)cc2)c([O-])c1S(=O)(=O)C1CCN(C)CC1 (3D coordinates assigned)
Cc1ccc([N-]C(=O)[N-]c2ccc(S(=O)(=O)N3CCOCC3)cc2)c([O-])c1S(=O)(=O)C1CCN(C)CC1 (nonaromatic ring conformer: 95.32963322841684 kcal/mol)

>  <smiles>  (24) 
Cc1ccc(NC(=O)Nc2ccc(S(=O)(=O)N3CCOCC3)cc2)c(O)c1S(=O)(=O)C1CCN(C)CC1

>  <score_type>  (24) 
oracle

>  <origin>  (24) 
adgpu

>  <m_score__min__energy>  (24) 
-17.440000000000001

>  <m_primary>  (24) 
energy

$$$$
24:0
     RDKit          3D

 51 54  0  0  0  0  0  0  0  0999 V2000
   -0.7756   24.0287  -30.2461 H   0  0  0  0  0  0  0  0  0  0  0  0
   -1.0720   24.0790  -29.1880 C   0  0  0  0  0  0  0  0  0  0  0  0
   -0.0960   24.0320  -28.1920 C   0  0  0  0  0  0  0  0  0  0  0  0
    0.9651   23.9496  -28.4698 H   0  0  0  0  0  0  0  0  0  0  0  0
   -0.4590   24.0890  -26.8420 C   0  0  0  0  0  0  0  0  0  0  0  0
    0.6010   24.0660  -25.7800 C   0  0  0  0  0  0  0  0  0  0  0  0
    0.1262   24.0763  -24.7878 H   0  0  0  0  0  0  0  0  0  0  0  0
    1.2074   23.1545  -25.8869 H   0  0  0  0  0  0  0  0  0  0  0  0
    1.2464   24.9504  -25.8869 H   0  0  0  0  0  0  0  0  0  0  0  0
   -1.8100   24.2360  -26.4960 C   0  0  0  0  0  0  0  0  0  0  0  0
   -2.0963   24.2995  -25.4358 H   0  0  0  0  0  0  0  0  0  0  0  0
   -2.8020   24.3030  -27.4890 C   0  0  0  0  0  0  0  0  0  0  0  0
   -4.2390   24.4990  -27.0760 C   0  0  0  0  0  0  0  0  0  0  0  0
   -4.3070   24.5083  -25.9781 H   0  0  0  0  0  0  0  0  0  0  0  0
   -4.6077   25.4558  -27.4743 H   0  0  0  0  0  0  0  0  0  0  0  0
   -4.8505   23.6759  -27.4743 H   0  0  0  0  0  0  0  0  0  0  0  0
   -2.4290   24.1900  -28.8490 C   0  0  0  0  0  0  0  0  0  0  0  0
   -3.4300   24.2020  -29.9330 C   0  0  0  0  0  0  0  0  0  0  0  0
   -3.7380   25.3000  -30.4670 O   0  0  0  0  0  0  0  0  0  0  0  0
   -4.0320   22.9800  -30.4000 N   0  0  0  0  0  0  0  0  0  0  0  0
   -5.4020   22.9820  -30.9320 C   0  0  0  0  0  0  0  0  0  0  0  0
   -6.0468   22.3866  -30.2689 H   0  0  0  0  0  0  0  0  0  0  0  0
   -5.7582   24.0215  -30.9820 H   0  0  0  0  0  0  0  0  0  0  0  0
   -5.4420   22.3800  -32.3470 C   0  0  0  0  0  0  0  0  0  0  0  0
   -6.4625   22.0193  -32.5431 H   0  0  0  0  0  0  0  0  0  0  0  0
   -5.1387   23.1742  -33.0450 H   0  0  0  0  0  0  0  0  0  0  0  0
   -4.4570   21.1980  -32.5450 C   0  0  0  0  0  0  0  0  0  0  0  0
   -3.5825   21.5901  -33.0849 H   0  0  0  0  0  0  0  0  0  0  0  0
   -5.0840   20.1410  -33.3450 N   0  0  0  0  0  0  0  0  0  0  0  0
   -4.4400   19.2920  -34.1320 N   0  0  0  0  0  0  0  0  0  0  0  0
   -5.3060   18.4120  -34.6200 N   0  0  0  0  0  0  0  0  0  0  0  0
   -6.5150   18.6710  -34.1440 N   0  0  0  0  0  0  0  0  0  0  0  0
   -7.3600   18.0990  -34.3530 H   0  0  0  0  0  0  0  0  0  0  0  0
   -6.3680   19.7450  -33.3450 C   0  0  0  0  0  0  0  0  0  0  0  0
   -7.3010   20.3110  -32.6320 N   0  0  0  0  0  0  0  0  0  0  0  0
   -8.6970   19.9880  -32.5860 C   0  0  0  0  0  0  0  0  0  0  0  0
   -9.1360   18.9160  -33.0860 O   0  0  0  0  0  0  0  0  0  0  0  0
   -9.6350   20.9830  -31.9580 C   0  0  0  0  0  0  0  0  0  0  0  0
  -10.5515   20.4622  -32.2722 H   0  0  0  0  0  0  0  0  0  0  0  0
   -9.1280   22.4170  -31.9660 C   0  0  0  0  0  0  0  0  0  0  0  0
   -8.1565   22.6541  -32.4242 H   0  0  0  0  0  0  0  0  0  0  0  0
   -9.5277   23.3809  -32.3140 H   0  0  0  0  0  0  0  0  0  0  0  0
   -9.1830   21.6390  -30.6600 C   0  0  0  0  0  0  0  0  0  0  0  0
   -8.2515   21.3131  -30.1742 H   0  0  0  0  0  0  0  0  0  0  0  0
   -9.6389   21.8067  -29.6730 H   0  0  0  0  0  0  0  0  0  0  0  0
   -3.9440   20.6320  -31.2100 C   0  0  0  0  0  0  0  0  0  0  0  0
   -4.7927   20.2432  -30.6281 H   0  0  0  0  0  0  0  0  0  0  0  0
   -3.2290   19.8205  -31.4107 H   0  0  0  0  0  0  0  0  0  0  0  0
   -3.2430   21.7380  -30.4110 C   0  0  0  0  0  0  0  0  0  0  0  0
   -3.1016   21.3955  -29.3753 H   0  0  0  0  0  0  0  0  0  0  0  0
   -2.2755   21.9487  -30.8901 H   0  0  0  0  0  0  0  0  0  0  0  0
  1  2  1  0
  2  3  2  0
  3  4  1  0
  3  5  1  0
  5  6  1  0
  6  7  1  0
  6  8  1  0
  6  9  1  0
  5 10  2  0
 10 11  1  0
 10 12  1  0
 12 13  1  0
 13 14  1  0
 13 15  1  0
 13 16  1  0
 12 17  2  0
 17 18  1  0
 18 19  2  0
 18 20  1  0
 20 21  1  0
 21 22  1  0
 21 23  1  0
 21 24  1  0
 24 25  1  0
 24 26  1  0
 24 27  1  0
 27 28  1  0
 27 29  1  0
 29 30  1  0
 30 31  2  0
 31 32  1  0
 32 33  1  0
 32 34  1  0
 34 35  2  0
 35 36  1  0
 36 37  2  0
 36 38  1  0
 38 39  1  0
 38 40  1  0
 40 41  1  0
 40 42  1  0
 40 43  1  0
 43 44  1  0
 43 45  1  0
 27 46  1  0
 46 47  1  0
 46 48  1  0
 46 49  1  0
 49 50  1  0
 49 51  1  0
 17  2  1  0
 49 20  1  0
 34 29  1  0
 43 38  1  0
M  END
>  <UniqueID>  (25) 
24

>  <SMILES>  (25) 
Cc1ccc(C(=O)N2CCC(n3nn[nH]/c3=N\C(=O)C3CC3)CC2)c(C)c1

>  <Energy>  (25) 
372.5461670985678

>  <Genealogy>  (25) 
Cc1ccc(C(=O)N2CCC(n3nn[nH]/c3=N\C(=O)C3CC3)CC2)c(C)c1 (cis-trans isomerization)
Cc1ccc(C(=O)N2CCC(n3nn[nH]/c3=N\C(=O)C3CC3)CC2)c(C)c1 (3D coordinates assigned)
Cc1ccc(C(=O)N2CCC(n3nn[nH]/c3=N\C(=O)C3CC3)CC2)c(C)c1 (nonaromatic ring conformer: 372.5461670985678 kcal/mol)

>  <smiles>  (25) 
Cc1ccc(C(=O)N2CCC(n3nn[nH]c3=NC(=O)C3CC3)CC2)c(C)c1

>  <score_type>  (25) 
oracle

>  <origin>  (25) 
adgpu

>  <m_score__min__energy>  (25) 
-9.7899999999999991

>  <m_primary>  (25) 
energy

$$$$
25:0
     RDKit          3D

 68 72  0  0  0  0  0  0  0  0999 V2000
   -0.6610   19.4170  -35.2010 O   0  0  0  0  0  0  0  0  0  0  0  0
   -1.5490   18.9950  -34.0620 S   0  0  0  0  0  0  0  0  0  0  0  0
   -0.9020   17.8500  -33.3330 O   0  0  0  0  0  0  0  0  0  0  0  0
   -3.0840   18.4920  -34.6810 N   0  0  0  0  0  0  0  0  0  0  0  0
   -4.1980   18.3520  -33.7960 C   0  0  0  0  0  0  0  0  0  0  0  0
   -5.2910   19.2150  -33.9200 C   0  0  0  0  0  0  0  0  0  0  0  0
   -6.4270   19.0460  -33.1180 C   0  0  0  0  0  0  0  0  0  0  0  0
   -6.4640   17.9920  -32.1780 C   0  0  0  0  0  0  0  0  0  0  0  0
   -5.3480   17.1530  -32.0330 C   0  0  0  0  0  0  0  0  0  0  0  0
   -4.2190   17.3250  -32.8430 C   0  0  0  0  0  0  0  0  0  0  0  0
   -3.1160   16.4810  -32.7070 O   0  0  0  0  0  0  0  0  0  0  0  0
   -7.6490   17.8100  -31.2660 C   0  0  0  0  0  0  0  0  0  0  0  0
   -8.8770   18.5800  -31.7540 C   0  0  0  0  0  0  0  0  0  0  0  0
   -8.4870   19.9530  -32.1270 N   0  0  0  0  0  0  0  0  0  0  0  0
   -9.6730   20.8140  -32.3300 C   0  0  0  0  0  0  0  0  0  0  0  0
   -9.6890   21.9240  -31.2750 C   0  0  0  0  0  0  0  0  0  0  0  0
   -8.3340   22.5770  -31.1670 C   0  0  0  0  0  0  0  0  0  0  0  0
   -7.7490   23.1860  -32.2910 C   0  0  0  0  0  0  0  0  0  0  0  0
   -6.4640   23.7350  -32.2090 C   0  0  0  0  0  0  0  0  0  0  0  0
   -5.7500   23.6690  -31.0090 C   0  0  0  0  0  0  0  0  0  0  0  0
   -6.3200   23.0600  -29.8880 C   0  0  0  0  0  0  0  0  0  0  0  0
   -7.6070   22.5160  -29.9660 C   0  0  0  0  0  0  0  0  0  0  0  0
   -7.6290   19.9290  -33.3290 C   0  0  0  0  0  0  0  0  0  0  0  0
   -1.7900   20.3290  -32.9370 C   0  0  0  0  0  0  0  0  0  0  0  0
   -2.9180   21.1550  -33.0370 C   0  0  0  0  0  0  0  0  0  0  0  0
   -3.1390   22.1620  -32.0920 C   0  0  0  0  0  0  0  0  0  0  0  0
   -2.2360   22.3480  -31.0380 C   0  0  0  0  0  0  0  0  0  0  0  0
   -2.5290   23.5780  -29.8100 S   0  0  0  0  0  0  0  0  0  0  0  0
   -3.3440   24.6990  -30.3930 O   0  0  0  0  0  0  0  0  0  0  0  0
   -1.2020   24.1350  -29.3740 O   0  0  0  0  0  0  0  0  0  0  0  0
   -3.3430   22.8810  -28.4260 N   0  0  0  0  0  0  0  0  0  0  0  0
   -2.9020   23.4880  -27.1570 C   0  0  0  0  0  0  0  0  0  0  0  0
   -1.4940   23.0110  -26.7310 C   0  0  0  0  0  0  0  0  0  0  0  0
   -1.0590   21.8540  -27.4240 O   0  0  0  0  0  0  0  0  0  0  0  0
   -2.1000   20.9070  -27.4840 C   0  0  0  0  0  0  0  0  0  0  0  0
   -3.2280   21.4060  -28.4070 C   0  0  0  0  0  0  0  0  0  0  0  0
   -1.1110   21.5220  -30.9380 C   0  0  0  0  0  0  0  0  0  0  0  0
   -0.8850   20.5200  -31.8860 C   0  0  0  0  0  0  0  0  0  0  0  0
   -5.2586   20.0339  -34.6538 H   0  0  0  0  0  0  0  0  0  0  0  0
   -5.3606   16.3541  -31.2770 H   0  0  0  0  0  0  0  0  0  0  0  0
   -2.2700   16.6230  -33.2470 H   0  0  0  0  0  0  0  0  0  0  0  0
   -7.8980   16.7396  -31.2180 H   0  0  0  0  0  0  0  0  0  0  0  0
   -7.3761   18.2023  -30.2752 H   0  0  0  0  0  0  0  0  0  0  0  0
   -9.3038   18.0703  -32.6304 H   0  0  0  0  0  0  0  0  0  0  0  0
   -9.6256   18.6199  -30.9490 H   0  0  0  0  0  0  0  0  0  0  0  0
   -9.6318   21.2631  -33.3333 H   0  0  0  0  0  0  0  0  0  0  0  0
  -10.5855   20.2070  -32.2353 H   0  0  0  0  0  0  0  0  0  0  0  0
  -10.4334   22.6821  -31.5599 H   0  0  0  0  0  0  0  0  0  0  0  0
   -9.9471   21.4823  -30.3012 H   0  0  0  0  0  0  0  0  0  0  0  0
   -8.3039   23.2313  -33.2397 H   0  0  0  0  0  0  0  0  0  0  0  0
   -6.0157   24.2187  -33.0894 H   0  0  0  0  0  0  0  0  0  0  0  0
   -4.7385   24.0969  -30.9472 H   0  0  0  0  0  0  0  0  0  0  0  0
   -5.7572   23.0082  -28.9443 H   0  0  0  0  0  0  0  0  0  0  0  0
   -8.0525   22.0375  -29.0814 H   0  0  0  0  0  0  0  0  0  0  0  0
   -8.2120   19.5455  -34.1793 H   0  0  0  0  0  0  0  0  0  0  0  0
   -7.2803   20.9526  -33.5306 H   0  0  0  0  0  0  0  0  0  0  0  0
   -3.6318   21.0107  -33.8615 H   0  0  0  0  0  0  0  0  0  0  0  0
   -4.0242   22.8094  -32.1769 H   0  0  0  0  0  0  0  0  0  0  0  0
   -2.8830   24.5813  -27.2766 H   0  0  0  0  0  0  0  0  0  0  0  0
   -3.6108   23.1794  -26.3744 H   0  0  0  0  0  0  0  0  0  0  0  0
   -0.7775   23.8231  -26.9237 H   0  0  0  0  0  0  0  0  0  0  0  0
   -1.5484   22.7496  -25.6639 H   0  0  0  0  0  0  0  0  0  0  0  0
   -1.7046   19.9581  -27.8755 H   0  0  0  0  0  0  0  0  0  0  0  0
   -2.5061   20.7589  -26.4725 H   0  0  0  0  0  0  0  0  0  0  0  0
   -3.0257   21.0560  -29.4300 H   0  0  0  0  0  0  0  0  0  0  0  0
   -4.1757   21.0049  -28.0184 H   0  0  0  0  0  0  0  0  0  0  0  0
   -0.4011   21.6618  -30.1094 H   0  0  0  0  0  0  0  0  0  0  0  0
    0.0061   19.8800  -31.8061 H   0  0  0  0  0  0  0  0  0  0  0  0
  1  2  2  0
  2  3  2  0
  2  4  1  0
  4  5  1  0
  5  6  2  0
  6  7  1  0
  7  8  2  0
  8  9  1  0
  9 10  2  0
 10 11  1  0
  8 12  1  0
 12 13  1  0
 13 14  1  0
 14 15  1  0
 15 16  1  0
 16 17  1  0
 17 18  2  0
 18 19  1  0
 19 20  2  0
 20 21  1  0
 21 22  2  0
 14 23  1  0
  2 24  1  0
 24 25  2  0
 25 26  1  0
 26 27  2  0
 27 28  1  0
 28 29  2  0
 28 30  2  0
 28 31  1  0
 31 32  1  0
 32 33  1  0
 33 34  1  0
 34 35  1  0
 35 36  1  0
 27 37  1  0
 37 38  2  0
 10  5  1  0
 22 17  1  0
 38 24  1  0
 23  7  1  0
 36 31  1  0
  6 39  1  0
  9 40  1  0
 11 41  1  0
 12 42  1  0
 12 43  1  0
 13 44  1  0
 13 45  1  0
 15 46  1  0
 15 47  1  0
 16 48  1  0
 16 49  1  0
 18 50  1  0
 19 51  1  0
 20 52  1  0
 21 53  1  0
 22 54  1  0
 23 55  1  0
 23 56  1  0
 25 57  1  0
 26 58  1  0
 32 59  1  0
 32 60  1  0
 33 61  1  0
 33 62  1  0
 35 63  1  0
 35 64  1  0
 36 65  1  0
 36 66  1  0
 37 67  1  0
 38 68  1  0
M  CHG  1   4  -1
M  END
>  <UniqueID>  (26) 
25

>  <SMILES>  (26) 
O=S(=O)([N-]c1cc2c(cc1O)CCN(CCc1ccccc1)C2)c1ccc(S(=O)(=O)N2CCOCC2)cc1

>  <Energy>  (26) 
90.67826653776935

>  <Genealogy>  (26) 
O=S(=O)([N-]c1cc2c(cc1O)CCN(CCc1ccccc1)C2)c1ccc(S(=O)(=O)N2CCOCC2)cc1 (protonated)
O=S(=O)([N-]c1cc2c(cc1O)CCN(CCc1ccccc1)C2)c1ccc(S(=O)(=O)N2CCOCC2)cc1 (3D coordinates assigned)
O=S(=O)([N-]c1cc2c(cc1O)CCN(CCc1ccccc1)C2)c1ccc(S(=O)(=O)N2CCOCC2)cc1 (nonaromatic ring conformer: 90.67826653776935 kcal/mol)

>  <smiles>  (26) 
O=S(=O)(Nc1cc2c(cc1O)CCN(CCc1ccccc1)C2)c1ccc(S(=O)(=O)N2CCOCC2)cc1

>  <score_type>  (26) 
oracle

>  <origin>  (26) 
adgpu

>  <m_score__min__energy>  (26) 
-12.779999999999999

>  <m_primary>  (26) 
energy

$$$$
26:0
     RDKit          3D

 62 65  0  0  0  0  0  0  0  0999 V2000
   -6.8850   17.7310  -32.9610 C   0  0  0  0  0  0  0  0  0  0  0  0
   -6.5460   19.1430  -32.5410 C   0  0  0  0  0  0  0  0  0  0  0  0
   -7.5820   19.9950  -32.0700 C   0  0  0  0  0  0  0  0  0  0  0  0
   -8.9620   19.5880  -32.0860 N   0  0  0  0  0  0  0  0  0  0  0  0
   -9.8060   20.2550  -32.7190 O   0  0  0  0  0  0  0  0  0  0  0  0
   -9.3310   18.3690  -31.5700 O   0  0  0  0  0  0  0  0  0  0  0  0
   -7.2650   21.2790  -31.6040 C   0  0  0  0  0  0  0  0  0  0  0  0
   -5.9530   21.7500  -31.6390 C   0  0  0  0  0  0  0  0  0  0  0  0
   -5.6070   23.4190  -31.1900 S   0  0  0  0  0  0  0  0  0  0  0  0
   -5.9600   24.3350  -32.3290 O   0  0  0  0  0  0  0  0  0  0  0  0
   -6.4230   23.7980  -29.9840 O   0  0  0  0  0  0  0  0  0  0  0  0
   -3.9220   23.5690  -30.8220 N   0  0  0  0  0  0  0  0  0  0  0  0
   -3.3410   22.7640  -29.7950 C   0  0  0  0  0  0  0  0  0  0  0  0
   -3.9570   22.7390  -28.5400 C   0  0  0  0  0  0  0  0  0  0  0  0
   -3.5250   21.8490  -27.5630 C   0  0  0  0  0  0  0  0  0  0  0  0
   -2.4670   20.9660  -27.8190 C   0  0  0  0  0  0  0  0  0  0  0  0
   -1.7870   21.0150  -29.0690 C   0  0  0  0  0  0  0  0  0  0  0  0
   -2.2550   21.9030  -30.0790 C   0  0  0  0  0  0  0  0  0  0  0  0
   -1.6420   21.9330  -31.4360 C   0  0  0  0  0  0  0  0  0  0  0  0
   -0.3960   21.8010  -31.5870 O   0  0  0  0  0  0  0  0  0  0  0  0
   -2.4490   22.0640  -32.5640 O   0  0  0  0  0  0  0  0  0  0  0  0
   -0.6140   20.0830  -29.3420 C   0  0  0  0  0  0  0  0  0  0  0  0
   -0.0140   19.4720  -28.0730 C   0  0  0  0  0  0  0  0  0  0  0  0
   -1.1230   18.9130  -27.1810 C   0  0  0  0  0  0  0  0  0  0  0  0
   -2.0280   20.0480  -26.6990 C   0  0  0  0  0  0  0  0  0  0  0  0
   -4.9440   20.9460  -32.1640 C   0  0  0  0  0  0  0  0  0  0  0  0
   -5.2180   19.6480  -32.6240 C   0  0  0  0  0  0  0  0  0  0  0  0
   -3.8800   18.7360  -33.3650 S   0  0  0  0  0  0  0  0  0  0  0  0
   -4.1490   18.5630  -34.8330 O   0  0  0  0  0  0  0  0  0  0  0  0
   -3.7950   17.3670  -32.7450 O   0  0  0  0  0  0  0  0  0  0  0  0
   -2.3490   19.5560  -33.1290 N   0  0  0  0  0  0  0  0  0  0  0  0
   -1.4250   18.7360  -32.2960 C   0  0  0  0  0  0  0  0  0  0  0  0
   -0.3820   17.9750  -33.1280 C   0  0  0  0  0  0  0  0  0  0  0  0
    0.4750   18.9370  -33.9710 C   0  0  0  0  0  0  0  0  0  0  0  0
   -0.2810   20.2210  -34.3590 C   0  0  0  0  0  0  0  0  0  0  0  0
   -1.7900   19.9590  -34.4440 C   0  0  0  0  0  0  0  0  0  0  0  0
   -7.0345   17.1083  -32.0666 H   0  0  0  0  0  0  0  0  0  0  0  0
   -7.8069   17.7383  -33.5610 H   0  0  0  0  0  0  0  0  0  0  0  0
   -6.0603   17.3189  -33.5610 H   0  0  0  0  0  0  0  0  0  0  0  0
   -8.0623   21.9235  -31.2054 H   0  0  0  0  0  0  0  0  0  0  0  0
   -4.7877   23.4271  -28.3245 H   0  0  0  0  0  0  0  0  0  0  0  0
   -4.0182   21.8378  -26.5798 H   0  0  0  0  0  0  0  0  0  0  0  0
   -0.9617   19.2661  -29.9914 H   0  0  0  0  0  0  0  0  0  0  0  0
    0.1750   20.6849  -29.8167 H   0  0  0  0  0  0  0  0  0  0  0  0
    0.6732   18.6593  -28.3509 H   0  0  0  0  0  0  0  0  0  0  0  0
    0.5310   20.2525  -27.5218 H   0  0  0  0  0  0  0  0  0  0  0  0
   -1.7207   18.1885  -27.7536 H   0  0  0  0  0  0  0  0  0  0  0  0
   -0.6704   18.4170  -26.3097 H   0  0  0  0  0  0  0  0  0  0  0  0
   -2.9229   19.6098  -26.2330 H   0  0  0  0  0  0  0  0  0  0  0  0
   -1.4490   20.6517  -25.9846 H   0  0  0  0  0  0  0  0  0  0  0  0
   -3.9162   21.3341  -32.2191 H   0  0  0  0  0  0  0  0  0  0  0  0
   -2.5520   20.4350  -32.5990 H   0  0  0  0  0  0  0  0  0  0  0  0
   -0.8977   19.4027  -31.5978 H   0  0  0  0  0  0  0  0  0  0  0  0
   -2.0345   17.9876  -31.7684 H   0  0  0  0  0  0  0  0  0  0  0  0
    0.2752   17.4115  -32.4494 H   0  0  0  0  0  0  0  0  0  0  0  0
   -0.9129   17.2955  -33.8110 H   0  0  0  0  0  0  0  0  0  0  0  0
    1.3665   19.2154  -33.3898 H   0  0  0  0  0  0  0  0  0  0  0  0
    0.7429   18.4150  -34.9014 H   0  0  0  0  0  0  0  0  0  0  0  0
   -0.0913   20.9946  -33.6003 H   0  0  0  0  0  0  0  0  0  0  0  0
    0.0751   20.5562  -35.3443 H   0  0  0  0  0  0  0  0  0  0  0  0
   -2.2936   20.8775  -34.7797 H   0  0  0  0  0  0  0  0  0  0  0  0
   -1.9572   19.1371  -35.1557 H   0  0  0  0  0  0  0  0  0  0  0  0
  1  2  1  0
  2  3  2  0
  3  4  1  0
  4  5  2  0
  4  6  1  0
  3  7  1  0
  7  8  2  0
  8  9  1  0
  9 10  2  0
  9 11  2  0
  9 12  1  0
 12 13  1  0
 13 14  2  0
 14 15  1  0
 15 16  2  0
 16 17  1  0
 17 18  2  0
 18 19  1  0
 19 20  2  0
 19 21  1  0
 17 22  1  0
 22 23  1  0
 23 24  1  0
 24 25  1  0
  8 26  1  0
 26 27  2  0
 27 28  1  0
 28 29  2  0
 28 30  2  0
 28 31  1  0
 31 32  1  0
 32 33  1  0
 33 34  1  0
 34 35  1  0
 35 36  1  0
 27  2  1  0
 36 31  1  0
 18 13  1  0
 25 16  1  0
  1 37  1  0
  1 38  1  0
  1 39  1  0
  7 40  1  0
 14 41  1  0
 15 42  1  0
 22 43  1  0
 22 44  1  0
 23 45  1  0
 23 46  1  0
 24 47  1  0
 24 48  1  0
 25 49  1  0
 25 50  1  0
 26 51  1  0
 31 52  1  0
 32 53  1  0
 32 54  1  0
 33 55  1  0
 33 56  1  0
 34 57  1  0
 34 58  1  0
 35 59  1  0
 35 60  1  0
 36 61  1  0
 36 62  1  0
M  CHG  5   4   1   6  -1  12  -1  21  -1  31   1
M  END
>  <UniqueID>  (27) 
26

>  <SMILES>  (27) 
Cc1c([N+](=O)[O-])cc(S(=O)(=O)[N-]c2ccc3c(c2C(=O)[O-])CCCC3)cc1S(=O)(=O)[NH+]1CCCCC1

>  <Energy>  (27) 
90.67944668189622

>  <Genealogy>  (27) 
Cc1c([N+](=O)[O-])cc(S(=O)(=O)[N-]c2ccc3c(c2C(=O)[O-])CCCC3)cc1S(=O)(=O)[NH+]1CCCCC1 (protonated)
Cc1c([N+](=O)[O-])cc(S(=O)(=O)[N-]c2ccc3c(c2C(=O)[O-])CCCC3)cc1S(=O)(=O)[NH+]1CCCCC1 (3D coordinates assigned)
Cc1c([N+](=O)[O-])cc(S(=O)(=O)[N-]c2ccc3c(c2C(=O)[O-])CCCC3)cc1S(=O)(=O)[NH+]1CCCCC1 (nonaromatic ring conformer: 90.67944668189622 kcal/mol)

>  <smiles>  (27) 
Cc1c([N+](=O)[O-])cc(S(=O)(=O)Nc2ccc3c(c2C(=O)O)CCCC3)cc1S(=O)(=O)N1CCCCC1

>  <score_type>  (27) 
oracle

>  <origin>  (27) 
adgpu

>  <m_score__min__energy>  (27) 
-13.73

>  <m_primary>  (27) 
energy

$$$$
27:0
     RDKit          3D

 53 56  0  0  0  0  0  0  0  0999 V2000
    2.6870   16.4980  -28.8970 C   0  0  0  0  0  0  0  0  0  0  0  0
    1.3830   16.5430  -28.1560 C   0  0  0  0  0  0  0  0  0  0  0  0
    0.9420   15.4670  -27.6650 O   0  0  0  0  0  0  0  0  0  0  0  0
    0.6200   17.7660  -28.0210 N   0  0  0  0  0  0  0  0  0  0  0  0
    1.1520   19.0530  -28.5110 C   0  0  0  0  0  0  0  0  0  0  0  0
    0.0230   19.9520  -29.0200 C   0  0  0  0  0  0  0  0  0  0  0  0
   -1.0480   20.0050  -28.0220 N   0  0  0  0  0  0  0  0  0  0  0  0
   -1.2140   21.1620  -27.1780 C   0  0  0  0  0  0  0  0  0  0  0  0
   -1.3620   21.0040  -25.9340 O   0  0  0  0  0  0  0  0  0  0  0  0
   -1.2170   22.5330  -27.7410 C   0  0  0  0  0  0  0  0  0  0  0  0
   -0.2470   23.4690  -27.3490 C   0  0  0  0  0  0  0  0  0  0  0  0
   -0.2630   24.7620  -27.8730 C   0  0  0  0  0  0  0  0  0  0  0  0
   -1.2330   25.1290  -28.8090 C   0  0  0  0  0  0  0  0  0  0  0  0
   -1.2340   26.4230  -29.3190 O   0  0  0  0  0  0  0  0  0  0  0  0
   -2.1950   24.2030  -29.2380 C   0  0  0  0  0  0  0  0  0  0  0  0
   -3.1630   24.6260  -30.2100 N   0  0  0  0  0  0  0  0  0  0  0  0
   -4.8910   24.6840  -30.0400 S   0  0  0  0  0  0  0  0  0  0  0  0
   -5.2940   24.7180  -28.5930 O   0  0  0  0  0  0  0  0  0  0  0  0
   -5.3710   25.9570  -30.6780 O   0  0  0  0  0  0  0  0  0  0  0  0
   -5.6330   23.3040  -30.8550 C   0  0  0  0  0  0  0  0  0  0  0  0
   -4.8370   22.3770  -31.5450 C   0  0  0  0  0  0  0  0  0  0  0  0
   -5.4180   21.2760  -32.1790 C   0  0  0  0  0  0  0  0  0  0  0  0
   -6.8050   21.0870  -32.1330 C   0  0  0  0  0  0  0  0  0  0  0  0
   -7.4000   19.9820  -32.7660 C   0  0  0  0  0  0  0  0  0  0  0  0
   -8.7860   19.8060  -32.7120 C   0  0  0  0  0  0  0  0  0  0  0  0
   -9.5870   20.7270  -32.0300 C   0  0  0  0  0  0  0  0  0  0  0  0
   -9.0070   21.8320  -31.3970 C   0  0  0  0  0  0  0  0  0  0  0  0
   -7.6160   22.0200  -31.4430 C   0  0  0  0  0  0  0  0  0  0  0  0
   -7.0220   23.1220  -30.8100 C   0  0  0  0  0  0  0  0  0  0  0  0
   -2.1820   22.9050  -28.6940 C   0  0  0  0  0  0  0  0  0  0  0  0
   -1.6290   18.7170  -27.6350 C   0  0  0  0  0  0  0  0  0  0  0  0
   -0.5260   17.8050  -27.0910 C   0  0  0  0  0  0  0  0  0  0  0  0
    3.5175   16.4693  -28.1763 H   0  0  0  0  0  0  0  0  0  0  0  0
    2.7188   15.5982  -29.5290 H   0  0  0  0  0  0  0  0  0  0  0  0
    2.7807   17.3934  -29.5290 H   0  0  0  0  0  0  0  0  0  0  0  0
    1.6755   19.5628  -27.6888 H   0  0  0  0  0  0  0  0  0  0  0  0
    1.8445   18.8536  -29.3421 H   0  0  0  0  0  0  0  0  0  0  0  0
    0.4122   20.9660  -29.1941 H   0  0  0  0  0  0  0  0  0  0  0  0
   -0.3736   19.5442  -29.9615 H   0  0  0  0  0  0  0  0  0  0  0  0
    0.5297   23.1816  -26.6250 H   0  0  0  0  0  0  0  0  0  0  0  0
    0.4904   25.4947  -27.5481 H   0  0  0  0  0  0  0  0  0  0  0  0
   -3.7469   22.5183  -31.5870 H   0  0  0  0  0  0  0  0  0  0  0  0
   -4.7840   20.5552  -32.7161 H   0  0  0  0  0  0  0  0  0  0  0  0
   -6.7745   19.2549  -33.3045 H   0  0  0  0  0  0  0  0  0  0  0  0
   -9.2480   18.9397  -33.2080 H   0  0  0  0  0  0  0  0  0  0  0  0
  -10.6768   20.5825  -31.9909 H   0  0  0  0  0  0  0  0  0  0  0  0
   -9.6415   22.5544  -30.8626 H   0  0  0  0  0  0  0  0  0  0  0  0
   -7.6508   23.8485  -30.2745 H   0  0  0  0  0  0  0  0  0  0  0  0
   -2.9359   22.1725  -29.0182 H   0  0  0  0  0  0  0  0  0  0  0  0
   -2.3902   18.8766  -26.8572 H   0  0  0  0  0  0  0  0  0  0  0  0
   -2.0961   18.2459  -28.5124 H   0  0  0  0  0  0  0  0  0  0  0  0
   -0.1882   18.1875  -26.1165 H   0  0  0  0  0  0  0  0  0  0  0  0
   -0.9288   16.7873  -26.9808 H   0  0  0  0  0  0  0  0  0  0  0  0
  1  2  1  0
  2  3  2  0
  2  4  1  0
  4  5  1  0
  5  6  1  0
  6  7  1  0
  7  8  1  0
  8  9  2  0
  8 10  1  0
 10 11  2  0
 11 12  1  0
 12 13  2  0
 13 14  1  0
 13 15  1  0
 15 16  1  0
 16 17  1  0
 17 18  2  0
 17 19  2  0
 17 20  1  0
 20 21  2  0
 21 22  1  0
 22 23  2  0
 23 24  1  0
 24 25  2  0
 25 26  1  0
 26 27  2  0
 27 28  1  0
 28 29  2  0
 15 30  2  0
  7 31  1  0
 31 32  1  0
 32  4  1  0
 30 10  1  0
 29 20  1  0
 28 23  1  0
  1 33  1  0
  1 34  1  0
  1 35  1  0
  5 36  1  0
  5 37  1  0
  6 38  1  0
  6 39  1  0
 11 40  1  0
 12 41  1  0
 21 42  1  0
 22 43  1  0
 24 44  1  0
 25 45  1  0
 26 46  1  0
 27 47  1  0
 29 48  1  0
 30 49  1  0
 31 50  1  0
 31 51  1  0
 32 52  1  0
 32 53  1  0
M  CHG  2  14  -1  16  -1
M  END
>  <UniqueID>  (28) 
27

>  <SMILES>  (28) 
CC(=O)N1CCN(C(=O)c2ccc([O-])c([N-]S(=O)(=O)c3ccc4ccccc4c3)c2)CC1

>  <Energy>  (28) 
69.81003439907062

>  <Genealogy>  (28) 
CC(=O)N1CCN(C(=O)c2ccc([O-])c([N-]S(=O)(=O)c3ccc4ccccc4c3)c2)CC1 (protonated)
CC(=O)N1CCN(C(=O)c2ccc([O-])c([N-]S(=O)(=O)c3ccc4ccccc4c3)c2)CC1 (3D coordinates assigned)
CC(=O)N1CCN(C(=O)c2ccc([O-])c([N-]S(=O)(=O)c3ccc4ccccc4c3)c2)CC1 (nonaromatic ring conformer: 69.81003439907062 kcal/mol)

>  <smiles>  (28) 
CC(=O)N1CCN(C(=O)c2ccc(O)c(NS(=O)(=O)c3ccc4ccccc4c3)c2)CC1

>  <score_type>  (28) 
oracle

>  <origin>  (28) 
adgpu

>  <m_score__min__energy>  (28) 
-15.029999999999999

>  <m_primary>  (28) 
energy

$$$$
28:0
     RDKit          3D

 45 48  0  0  0  0  0  0  0  0999 V2000
   -6.2180   17.0720  -32.7640 C   0  0  0  0  0  0  0  0  0  0  0  0
   -7.0900   18.2320  -32.4090 C   0  0  0  0  0  0  0  0  0  0  0  0
   -8.4320   18.1600  -32.3210 N   0  0  0  0  0  0  0  0  0  0  0  0
   -8.8120   19.4210  -32.0260 C   0  0  0  0  0  0  0  0  0  0  0  0
   -7.7740   20.2830  -31.9390 N   0  0  0  0  0  0  0  0  0  0  0  0
   -7.9070   21.7140  -31.6030 C   0  0  0  0  0  0  0  0  0  0  0  0
   -7.7220   21.9450  -30.0870 C   0  0  0  0  0  0  0  0  0  0  0  0
   -7.1790   23.3360  -29.8060 C   0  0  0  0  0  0  0  0  0  0  0  0
   -5.8800   23.4630  -30.4660 N   0  0  0  0  0  0  0  0  0  0  0  0
   -4.6690   23.6730  -29.7140 C   0  0  0  0  0  0  0  0  0  0  0  0
   -4.2900   22.9760  -28.5870 C   0  0  0  0  0  0  0  0  0  0  0  0
   -3.1300   23.5870  -28.1570 C   0  0  0  0  0  0  0  0  0  0  0  0
   -2.4020   23.1890  -27.0410 O   0  0  0  0  0  0  0  0  0  0  0  0
   -2.7810   24.6310  -28.9370 N   0  0  0  0  0  0  0  0  0  0  0  0
   -3.7370   24.6830  -29.8840 C   0  0  0  0  0  0  0  0  0  0  0  0
   -3.7780   25.6710  -30.8580 O   0  0  0  0  0  0  0  0  0  0  0  0
   -5.7830   23.2450  -31.9150 C   0  0  0  0  0  0  0  0  0  0  0  0
   -7.0640   22.6370  -32.5320 C   0  0  0  0  0  0  0  0  0  0  0  0
   -6.6770   19.5270  -32.1710 C   0  0  0  0  0  0  0  0  0  0  0  0
   -5.2810   19.9890  -32.2350 C   0  0  0  0  0  0  0  0  0  0  0  0
   -4.6630   20.2250  -33.4710 C   0  0  0  0  0  0  0  0  0  0  0  0
   -3.3470   20.6940  -33.5200 C   0  0  0  0  0  0  0  0  0  0  0  0
   -2.6510   20.9550  -32.3360 C   0  0  0  0  0  0  0  0  0  0  0  0
   -1.3390   21.4120  -32.3870 O   0  0  0  0  0  0  0  0  0  0  0  0
   -3.2780   20.7620  -31.1010 C   0  0  0  0  0  0  0  0  0  0  0  0
   -4.5930   20.2890  -31.0490 C   0  0  0  0  0  0  0  0  0  0  0  0
   -5.8559   16.5903  -31.8437 H   0  0  0  0  0  0  0  0  0  0  0  0
   -6.7959   16.3461  -33.3548 H   0  0  0  0  0  0  0  0  0  0  0  0
   -5.3601   17.4255  -33.3548 H   0  0  0  0  0  0  0  0  0  0  0  0
   -9.8600   19.7174  -31.8720 H   0  0  0  0  0  0  0  0  0  0  0  0
   -8.9393   22.0265  -31.8192 H   0  0  0  0  0  0  0  0  0  0  0  0
   -8.6943   21.8311  -29.5853 H   0  0  0  0  0  0  0  0  0  0  0  0
   -7.0011   21.2061  -29.7072 H   0  0  0  0  0  0  0  0  0  0  0  0
   -7.8726   24.0930  -30.2009 H   0  0  0  0  0  0  0  0  0  0  0  0
   -7.0704   23.4890  -28.7221 H   0  0  0  0  0  0  0  0  0  0  0  0
   -4.8022   22.1171  -28.1288 H   0  0  0  0  0  0  0  0  0  0  0  0
   -2.1730   23.8520  -26.3110 H   0  0  0  0  0  0  0  0  0  0  0  0
   -5.5873   24.2123  -32.4008 H   0  0  0  0  0  0  0  0  0  0  0  0
   -4.9690   22.5240  -32.0810 H   0  0  0  0  0  0  0  0  0  0  0  0
   -7.7088   23.4686  -32.8525 H   0  0  0  0  0  0  0  0  0  0  0  0
   -6.7163   21.9899  -33.3507 H   0  0  0  0  0  0  0  0  0  0  0  0
   -5.2149   20.0407  -34.4045 H   0  0  0  0  0  0  0  0  0  0  0  0
   -2.8583   20.8579  -34.4918 H   0  0  0  0  0  0  0  0  0  0  0  0
   -2.7362   20.9825  -30.1694 H   0  0  0  0  0  0  0  0  0  0  0  0
   -5.0891   20.1518  -30.0768 H   0  0  0  0  0  0  0  0  0  0  0  0
  1  2  1  0
  2  3  1  0
  3  4  2  0
  4  5  1  0
  5  6  1  0
  6  7  1  0
  7  8  1  0
  8  9  1  0
  9 10  1  0
 10 11  1  0
 11 12  2  0
 12 13  1  0
 12 14  1  0
 14 15  1  0
 15 16  1  0
  9 17  1  0
 17 18  1  0
  5 19  1  0
 19 20  1  0
 20 21  2  0
 21 22  1  0
 22 23  2  0
 23 24  1  0
 23 25  1  0
 25 26  2  0
 19  2  2  0
 26 20  1  0
 18  6  1  0
 15 10  2  0
  1 27  1  0
  1 28  1  0
  1 29  1  0
  4 30  1  0
  6 31  1  0
  7 32  1  0
  7 33  1  0
  8 34  1  0
  8 35  1  0
 11 36  1  0
 13 37  1  0
 17 38  1  0
 17 39  1  0
 18 40  1  0
 18 41  1  0
 21 42  1  0
 22 43  1  0
 25 44  1  0
 26 45  1  0
M  CHG  3  14  -1  16  -1  24  -1
M  END
>  <UniqueID>  (29) 
28

>  <SMILES>  (29) 
Cc1ncn(C2CCN(c3cc(O)[n-]c3[O-])CC2)c1-c1ccc([O-])cc1

>  <Energy>  (29) 
117.53267993693281

>  <Genealogy>  (29) 
Cc1ncn(C2CCN(c3cc(O)[n-]c3[O-])CC2)c1-c1ccc([O-])cc1 (protonated)
Cc1ncn(C2CCN(c3cc(O)[n-]c3[O-])CC2)c1-c1ccc([O-])cc1 (3D coordinates assigned)
Cc1ncn(C2CCN(c3cc(O)[n-]c3[O-])CC2)c1-c1ccc([O-])cc1 (nonaromatic ring conformer: 117.53267993693281 kcal/mol)

>  <smiles>  (29) 
Cc1ncn(C2CCN(c3cc(O)[nH]c3O)CC2)c1-c1ccc(O)cc1

>  <score_type>  (29) 
oracle

>  <origin>  (29) 
adgpu

>  <m_score__min__energy>  (29) 
-12.289999999999999

>  <m_primary>  (29) 
energy

$$$$
29:0
     RDKit          3D

 66 70  0  0  0  0  0  0  0  0999 V2000
   -0.5410   17.0550  -35.0410 O   0  0  0  0  0  0  0  0  0  0  0  0
   -1.1020   16.7120  -33.6890 S   0  0  0  0  0  0  0  0  0  0  0  0
   -0.4030   15.4750  -33.1960 O   0  0  0  0  0  0  0  0  0  0  0  0
   -0.7810   18.0400  -32.5700 C   0  0  0  0  0  0  0  0  0  0  0  0
   -0.3470   17.7720  -31.2650 C   0  0  0  0  0  0  0  0  0  0  0  0
   -0.1010   18.8210  -30.3750 C   0  0  0  0  0  0  0  0  0  0  0  0
   -0.2710   20.1540  -30.7850 C   0  0  0  0  0  0  0  0  0  0  0  0
   -0.0510   21.2480  -29.8780 N   0  0  0  0  0  0  0  0  0  0  0  0
   -0.9630   22.3410  -29.7030 C   0  0  0  0  0  0  0  0  0  0  0  0
   -0.6600   23.6230  -29.2750 C   0  0  0  0  0  0  0  0  0  0  0  0
   -1.8450   24.3270  -29.3660 C   0  0  0  0  0  0  0  0  0  0  0  0
   -1.9960   25.6620  -29.0070 O   0  0  0  0  0  0  0  0  0  0  0  0
   -2.8460   23.5480  -29.8350 N   0  0  0  0  0  0  0  0  0  0  0  0
   -4.2110   23.9370  -30.0760 C   0  0  0  0  0  0  0  0  0  0  0  0
   -4.5800   25.2920  -30.0640 C   0  0  0  0  0  0  0  0  0  0  0  0
   -5.9030   25.6650  -30.3090 C   0  0  0  0  0  0  0  0  0  0  0  0
   -6.8690   24.6910  -30.5720 C   0  0  0  0  0  0  0  0  0  0  0  0
   -6.5160   23.3350  -30.5940 C   0  0  0  0  0  0  0  0  0  0  0  0
   -7.7320   22.1050  -30.9500 S   0  0  0  0  0  0  0  0  0  0  0  0
   -8.6790   21.9930  -29.7870 O   0  0  0  0  0  0  0  0  0  0  0  0
   -8.5240   22.5250  -32.1560 O   0  0  0  0  0  0  0  0  0  0  0  0
   -6.9990   20.5460  -31.2580 N   0  0  0  0  0  0  0  0  0  0  0  0
   -6.1780   20.5940  -32.4830 C   0  0  0  0  0  0  0  0  0  0  0  0
   -5.9600   19.1800  -33.0440 C   0  0  0  0  0  0  0  0  0  0  0  0
   -7.1620   18.5030  -33.3950 O   0  0  0  0  0  0  0  0  0  0  0  0
   -8.3110   18.9820  -32.7090 C   0  0  0  0  0  0  0  0  0  0  0  0
   -8.0080   19.4640  -31.2780 C   0  0  0  0  0  0  0  0  0  0  0  0
   -5.1900   22.9630  -30.3360 C   0  0  0  0  0  0  0  0  0  0  0  0
   -2.2980   22.3350  -30.0510 C   0  0  0  0  0  0  0  0  0  0  0  0
   -2.9820   21.2470  -30.5830 O   0  0  0  0  0  0  0  0  0  0  0  0
   -0.7260   20.4180  -32.0850 C   0  0  0  0  0  0  0  0  0  0  0  0
   -0.9720   19.3690  -32.9750 C   0  0  0  0  0  0  0  0  0  0  0  0
   -2.8120   16.3900  -33.8320 N   0  0  0  0  0  0  0  0  0  0  0  0
   -3.3680   17.0810  -35.0060 C   0  0  0  0  0  0  0  0  0  0  0  0
   -4.9070   17.0050  -34.9940 C   0  0  0  0  0  0  0  0  0  0  0  0
   -5.4290   15.8080  -34.1820 C   0  0  0  0  0  0  0  0  0  0  0  0
   -4.5030   14.5970  -34.3270 C   0  0  0  0  0  0  0  0  0  0  0  0
   -3.0510   14.9340  -33.9150 C   0  0  0  0  0  0  0  0  0  0  0  0
   -0.1993   16.7316  -30.9397 H   0  0  0  0  0  0  0  0  0  0  0  0
    0.2274   18.6019  -29.3483 H   0  0  0  0  0  0  0  0  0  0  0  0
    0.7940   21.2150  -29.2640 H   0  0  0  0  0  0  0  0  0  0  0  0
    0.3159   24.0000  -28.9352 H   0  0  0  0  0  0  0  0  0  0  0  0
   -3.8228   26.0635  -29.8605 H   0  0  0  0  0  0  0  0  0  0  0  0
   -6.1851   26.7281  -30.2949 H   0  0  0  0  0  0  0  0  0  0  0  0
   -7.9105   24.9894  -30.7625 H   0  0  0  0  0  0  0  0  0  0  0  0
   -6.6912   21.2074  -33.2383 H   0  0  0  0  0  0  0  0  0  0  0  0
   -5.1997   21.0326  -32.2372 H   0  0  0  0  0  0  0  0  0  0  0  0
   -5.3321   19.2582  -33.9438 H   0  0  0  0  0  0  0  0  0  0  0  0
   -5.4856   18.5911  -32.2451 H   0  0  0  0  0  0  0  0  0  0  0  0
   -8.7328   19.8230  -33.2789 H   0  0  0  0  0  0  0  0  0  0  0  0
   -9.0163   18.1418  -32.6278 H   0  0  0  0  0  0  0  0  0  0  0  0
   -8.9381   19.8377  -30.8250 H   0  0  0  0  0  0  0  0  0  0  0  0
   -7.6031   18.6122  -30.7119 H   0  0  0  0  0  0  0  0  0  0  0  0
   -4.9127   21.8985  -30.3370 H   0  0  0  0  0  0  0  0  0  0  0  0
   -0.8903   21.4572  -32.4061 H   0  0  0  0  0  0  0  0  0  0  0  0
   -1.3166   19.5865  -33.9967 H   0  0  0  0  0  0  0  0  0  0  0  0
   -3.0569   18.1359  -34.9869 H   0  0  0  0  0  0  0  0  0  0  0  0
   -2.9934   16.5934  -35.9181 H   0  0  0  0  0  0  0  0  0  0  0  0
   -5.3029   17.9312  -34.5520 H   0  0  0  0  0  0  0  0  0  0  0  0
   -5.2444   16.8777  -36.0332 H   0  0  0  0  0  0  0  0  0  0  0  0
   -5.4861   16.0914  -33.1207 H   0  0  0  0  0  0  0  0  0  0  0  0
   -6.4238   15.5345  -34.5634 H   0  0  0  0  0  0  0  0  0  0  0  0
   -4.8759   13.7845  -33.6861 H   0  0  0  0  0  0  0  0  0  0  0  0
   -4.4977   14.2944  -35.3845 H   0  0  0  0  0  0  0  0  0  0  0  0
   -2.8504   14.4865  -32.9304 H   0  0  0  0  0  0  0  0  0  0  0  0
   -2.3807   14.5278  -34.6868 H   0  0  0  0  0  0  0  0  0  0  0  0
  1  2  2  0
  2  3  2  0
  2  4  1  0
  4  5  2  0
  5  6  1  0
  6  7  2  0
  7  8  1  0
  8  9  1  0
  9 10  1  0
 10 11  2  0
 11 12  1  0
 11 13  1  0
 13 14  1  0
 14 15  2  0
 15 16  1  0
 16 17  2  0
 17 18  1  0
 18 19  1  0
 19 20  2  0
 19 21  2  0
 19 22  1  0
 22 23  1  0
 23 24  1  0
 24 25  1  0
 25 26  1  0
 26 27  1  0
 18 28  2  0
 13 29  1  0
 29 30  1  0
  7 31  1  0
 31 32  2  0
  2 33  1  0
 33 34  1  0
 34 35  1  0
 35 36  1  0
 36 37  1  0
 37 38  1  0
 32  4  1  0
 38 33  1  0
 29  9  2  0
 28 14  1  0
 27 22  1  0
  5 39  1  0
  6 40  1  0
  8 41  1  0
 10 42  1  0
 15 43  1  0
 16 44  1  0
 17 45  1  0
 23 46  1  0
 23 47  1  0
 24 48  1  0
 24 49  1  0
 26 50  1  0
 26 51  1  0
 27 52  1  0
 27 53  1  0
 28 54  1  0
 31 55  1  0
 32 56  1  0
 34 57  1  0
 34 58  1  0
 35 59  1  0
 35 60  1  0
 36 61  1  0
 36 62  1  0
 37 63  1  0
 37 64  1  0
 38 65  1  0
 38 66  1  0
M  CHG  2  12  -1  30  -1
M  END
>  <UniqueID>  (30) 
29

>  <SMILES>  (30) 
O=S(=O)(c1ccc(Nc2cc([O-])n(-c3cccc(S(=O)(=O)N4CCOCC4)c3)c2[O-])cc1)N1CCCCC1

>  <Energy>  (30) 
122.58951204476477

>  <Genealogy>  (30) 
O=S(=O)(c1ccc(Nc2cc([O-])n(-c3cccc(S(=O)(=O)N4CCOCC4)c3)c2[O-])cc1)N1CCCCC1 (protonated)
O=S(=O)(c1ccc(Nc2cc([O-])n(-c3cccc(S(=O)(=O)N4CCOCC4)c3)c2[O-])cc1)N1CCCCC1 (3D coordinates assigned)
O=S(=O)(c1ccc(Nc2cc([O-])n(-c3cccc(S(=O)(=O)N4CCOCC4)c3)c2[O-])cc1)N1CCCCC1 (nonaromatic ring conformer: 122.58951204476477 kcal/mol)

>  <smiles>  (30) 
O=S(=O)(c1ccc(Nc2cc(O)n(-c3cccc(S(=O)(=O)N4CCOCC4)c3)c2O)cc1)N1CCCCC1

>  <score_type>  (30) 
oracle

>  <origin>  (30) 
adgpu

>  <m_score__min__energy>  (30) 
-12.539999999999999

>  <m_primary>  (30) 
energy

$$$$
30:0
     RDKit          3D

 40 43  0  0  0  0  0  0  0  0999 V2000
   -4.3470   14.0420  -34.6290 O   0  0  0  0  0  0  0  0  0  0  0  0
   -4.6750   15.1870  -34.2230 C   0  0  0  0  0  0  0  0  0  0  0  0
   -5.9960   15.4780  -34.0040 N   0  0  0  0  0  0  0  0  0  0  0  0
   -6.3880   16.7080  -33.5600 C   0  0  0  0  0  0  0  0  0  0  0  0
   -7.6080   16.9590  -33.3790 O   0  0  0  0  0  0  0  0  0  0  0  0
   -5.4030   17.6670  -33.3320 C   0  0  0  0  0  0  0  0  0  0  0  0
   -5.4300   18.9780  -32.8890 C   0  0  0  0  0  0  0  0  0  0  0  0
   -6.6000   19.7400  -32.4110 C   0  0  0  0  0  0  0  0  0  0  0  0
   -7.6110   19.1010  -31.6760 C   0  0  0  0  0  0  0  0  0  0  0  0
   -8.7340   19.8200  -31.2540 C   0  0  0  0  0  0  0  0  0  0  0  0
   -8.8540   21.1780  -31.5620 C   0  0  0  0  0  0  0  0  0  0  0  0
   -9.9440   21.8730  -31.1540 F   0  0  0  0  0  0  0  0  0  0  0  0
   -7.8470   21.8210  -32.2910 C   0  0  0  0  0  0  0  0  0  0  0  0
   -6.7240   21.1040  -32.7140 C   0  0  0  0  0  0  0  0  0  0  0  0
   -4.0920   19.3920  -32.8870 C   0  0  0  0  0  0  0  0  0  0  0  0
   -3.5720   20.7000  -32.3610 C   0  0  0  0  0  0  0  0  0  0  0  0
   -3.6840   20.7510  -30.8350 C   0  0  0  0  0  0  0  0  0  0  0  0
   -3.2100   22.0810  -30.3160 C   0  0  0  0  0  0  0  0  0  0  0  0
   -2.1640   22.1500  -29.3830 C   0  0  0  0  0  0  0  0  0  0  0  0
   -1.7050   23.3900  -28.9290 C   0  0  0  0  0  0  0  0  0  0  0  0
   -2.2780   24.5700  -29.4120 C   0  0  0  0  0  0  0  0  0  0  0  0
   -1.8170   25.8000  -28.9580 O   0  0  0  0  0  0  0  0  0  0  0  0
   -3.3120   24.5110  -30.3560 C   0  0  0  0  0  0  0  0  0  0  0  0
   -3.8810   25.6810  -30.8440 O   0  0  0  0  0  0  0  0  0  0  0  0
   -3.7730   23.2710  -30.8090 C   0  0  0  0  0  0  0  0  0  0  0  0
   -3.2810   18.3880  -33.3000 N   0  0  0  0  0  0  0  0  0  0  0  0
   -4.0960   17.3560  -33.5700 C   0  0  0  0  0  0  0  0  0  0  0  0
   -3.7130   16.1320  -34.0070 N   0  0  0  0  0  0  0  0  0  0  0  0
   -7.5198   18.0324  -31.4314 H   0  0  0  0  0  0  0  0  0  0  0  0
   -9.5243   19.3157  -30.6786 H   0  0  0  0  0  0  0  0  0  0  0  0
   -7.9392   22.8905  -32.5311 H   0  0  0  0  0  0  0  0  0  0  0  0
   -5.9341   21.6117  -33.2870 H   0  0  0  0  0  0  0  0  0  0  0  0
   -2.5165   20.8116  -32.6498 H   0  0  0  0  0  0  0  0  0  0  0  0
   -4.1722   21.5171  -32.7877 H   0  0  0  0  0  0  0  0  0  0  0  0
   -4.7343   20.6024  -30.5440 H   0  0  0  0  0  0  0  0  0  0  0  0
   -3.0554   19.9570  -30.4055 H   0  0  0  0  0  0  0  0  0  0  0  0
   -1.7033   21.2245  -29.0073 H   0  0  0  0  0  0  0  0  0  0  0  0
   -0.8914   23.4372  -28.1903 H   0  0  0  0  0  0  0  0  0  0  0  0
   -4.5803   23.2265  -31.5549 H   0  0  0  0  0  0  0  0  0  0  0  0
   -2.2380   18.4020  -33.3680 H   0  0  0  0  0  0  0  0  0  0  0  0
  1  2  2  0
  2  3  1  0
  3  4  1  0
  4  5  2  0
  4  6  1  0
  6  7  1  0
  7  8  1  0
  8  9  2  0
  9 10  1  0
 10 11  2  0
 11 12  1  0
 11 13  1  0
 13 14  2  0
  7 15  2  0
 15 16  1  0
 16 17  1  0
 17 18  1  0
 18 19  2  0
 19 20  1  0
 20 21  2  0
 21 22  1  0
 21 23  1  0
 23 24  1  0
 23 25  2  0
 15 26  1  0
 26 27  1  0
 27 28  1  0
 28  2  1  0
 27  6  2  0
 14  8  1  0
 25 18  1  0
  9 29  1  0
 10 30  1  0
 13 31  1  0
 14 32  1  0
 16 33  1  0
 16 34  1  0
 17 35  1  0
 17 36  1  0
 19 37  1  0
 20 38  1  0
 25 39  1  0
 26 40  1  0
M  CHG  4   3  -1  22  -1  24  -1  28  -1
M  END
>  <UniqueID>  (31) 
30

>  <SMILES>  (31) 
O=c1[n-]c(=O)c2c(-c3ccc(F)cc3)c(CCc3ccc([O-])c([O-])c3)[nH]c2[n-]1

>  <Energy>  (31) 
83.55842357747338

>  <Genealogy>  (31) 
O=c1[n-]c(=O)c2c(-c3ccc(F)cc3)c(CCc3ccc([O-])c([O-])c3)[nH]c2[n-]1 (protonated)
O=c1[n-]c(=O)c2c(-c3ccc(F)cc3)c(CCc3ccc([O-])c([O-])c3)[nH]c2[n-]1 (3D coordinates assigned)
O=c1[n-]c(=O)c2c(-c3ccc(F)cc3)c(CCc3ccc([O-])c([O-])c3)[nH]c2[n-]1 (optimized conformer: 83.55842357747338 kcal/mol)

>  <smiles>  (31) 
O=c1[nH]c(=O)c2c(-c3ccc(F)cc3)c(CCc3ccc(O)c(O)c3)[nH]c2[nH]1

>  <score_type>  (31) 
oracle

>  <origin>  (31) 
adgpu

>  <m_score__min__energy>  (31) 
-14.08

>  <m_primary>  (31) 
energy

$$$$
31:0
     RDKit          3D

 55 58  0  0  0  0  0  0  0  0999 V2000
    0.2740   24.3460  -27.0000 C   0  0  0  0  0  0  0  0  0  0  0  0
   -0.9760   24.5420  -27.7940 C   0  0  0  0  0  0  0  0  0  0  0  0
   -2.1950   23.9420  -27.5550 C   0  0  0  0  0  0  0  0  0  0  0  0
   -2.9840   24.4540  -28.5570 C   0  0  0  0  0  0  0  0  0  0  0  0
   -4.2380   24.1690  -28.7250 N   0  0  0  0  0  0  0  0  0  0  0  0
   -5.1930   24.8340  -30.0100 S   0  0  0  0  0  0  0  0  0  0  0  0
   -4.2780   25.3120  -31.1020 O   0  0  0  0  0  0  0  0  0  0  0  0
   -5.9800   25.9990  -29.4850 O   0  0  0  0  0  0  0  0  0  0  0  0
   -6.2980   23.6120  -30.6280 C   0  0  0  0  0  0  0  0  0  0  0  0
   -6.2460   23.2230  -31.9720 C   0  0  0  0  0  0  0  0  0  0  0  0
   -7.1040   22.2260  -32.4510 C   0  0  0  0  0  0  0  0  0  0  0  0
   -8.0170   21.6010  -31.5810 C   0  0  0  0  0  0  0  0  0  0  0  0
   -8.9050   20.5610  -32.0190 N   0  0  0  0  0  0  0  0  0  0  0  0
   -8.6090   19.1610  -32.1280 C   0  0  0  0  0  0  0  0  0  0  0  0
   -9.4960   18.3030  -31.8730 O   0  0  0  0  0  0  0  0  0  0  0  0
   -7.2770   18.7260  -32.6090 C   0  0  0  0  0  0  0  0  0  0  0  0
   -6.5280   17.7800  -31.8860 C   0  0  0  0  0  0  0  0  0  0  0  0
   -5.2790   17.3580  -32.3520 C   0  0  0  0  0  0  0  0  0  0  0  0
   -4.7580   17.8790  -33.5440 C   0  0  0  0  0  0  0  0  0  0  0  0
   -3.1680   17.3880  -34.1170 S   0  0  0  0  0  0  0  0  0  0  0  0
   -2.7120   16.1620  -33.3760 O   0  0  0  0  0  0  0  0  0  0  0  0
   -3.2620   17.0500  -35.5800 O   0  0  0  0  0  0  0  0  0  0  0  0
   -2.0440   18.7010  -33.8820 N   0  0  0  0  0  0  0  0  0  0  0  0
   -2.7610   19.9930  -33.8150 C   0  0  0  0  0  0  0  0  0  0  0  0
   -1.8900   21.0890  -33.1650 C   0  0  0  0  0  0  0  0  0  0  0  0
   -0.5190   20.7660  -33.2780 O   0  0  0  0  0  0  0  0  0  0  0  0
   -0.2160   19.6230  -32.4950 C   0  0  0  0  0  0  0  0  0  0  0  0
   -1.2460   18.4820  -32.6660 C   0  0  0  0  0  0  0  0  0  0  0  0
   -5.4920   18.8300  -34.2600 C   0  0  0  0  0  0  0  0  0  0  0  0
   -6.7420   19.2490  -33.7990 C   0  0  0  0  0  0  0  0  0  0  0  0
   -8.1020   22.0350  -30.2520 C   0  0  0  0  0  0  0  0  0  0  0  0
   -7.2420   23.0260  -29.7740 C   0  0  0  0  0  0  0  0  0  0  0  0
   -2.2780   25.2970  -29.3380 N   0  0  0  0  0  0  0  0  0  0  0  0
   -1.0740   25.3250  -28.8450 O   0  0  0  0  0  0  0  0  0  0  0  0
    0.0362   24.3833  -25.9267 H   0  0  0  0  0  0  0  0  0  0  0  0
    0.7140   23.3679  -27.2443 H   0  0  0  0  0  0  0  0  0  0  0  0
    0.9923   25.1425  -27.2443 H   0  0  0  0  0  0  0  0  0  0  0  0
   -2.4674   23.2313  -26.7608 H   0  0  0  0  0  0  0  0  0  0  0  0
   -5.5284   23.7025  -32.6539 H   0  0  0  0  0  0  0  0  0  0  0  0
   -7.0646   21.9303  -33.5098 H   0  0  0  0  0  0  0  0  0  0  0  0
   -6.9278   17.3692  -30.9472 H   0  0  0  0  0  0  0  0  0  0  0  0
   -4.7035   16.6146  -31.7810 H   0  0  0  0  0  0  0  0  0  0  0  0
   -1.4010   18.7100  -34.7100 H   0  0  0  0  0  0  0  0  0  0  0  0
   -3.0286   20.3068  -34.8348 H   0  0  0  0  0  0  0  0  0  0  0  0
   -3.6619   19.8567  -33.1987 H   0  0  0  0  0  0  0  0  0  0  0  0
   -2.0785   22.0477  -33.6703 H   0  0  0  0  0  0  0  0  0  0  0  0
   -2.1504   21.1635  -32.0989 H   0  0  0  0  0  0  0  0  0  0  0  0
    0.7748   19.2480  -32.7912 H   0  0  0  0  0  0  0  0  0  0  0  0
   -0.2399   19.9319  -31.4395 H   0  0  0  0  0  0  0  0  0  0  0  0
   -0.7155   17.5218  -32.7467 H   0  0  0  0  0  0  0  0  0  0  0  0
   -1.9155   18.4669  -31.7933 H   0  0  0  0  0  0  0  0  0  0  0  0
   -5.0829   19.2500  -35.1907 H   0  0  0  0  0  0  0  0  0  0  0  0
   -7.3127   19.9946  -34.3720 H   0  0  0  0  0  0  0  0  0  0  0  0
   -8.8517   21.5920  -29.5799 H   0  0  0  0  0  0  0  0  0  0  0  0
   -7.3058   23.3476  -28.7240 H   0  0  0  0  0  0  0  0  0  0  0  0
  1  2  1  0
  2  3  2  0
  3  4  1  0
  4  5  2  3
  5  6  1  0
  6  7  2  0
  6  8  2  0
  6  9  1  0
  9 10  2  0
 10 11  1  0
 11 12  2  0
 12 13  1  0
 13 14  1  0
 14 15  2  0
 14 16  1  0
 16 17  2  0
 17 18  1  0
 18 19  2  0
 19 20  1  0
 20 21  2  0
 20 22  2  0
 20 23  1  0
 23 24  1  0
 24 25  1  0
 25 26  1  0
 26 27  1  0
 27 28  1  0
 19 29  1  0
 29 30  2  0
 12 31  1  0
 31 32  2  0
  4 33  1  0
 33 34  1  0
 34  2  1  0
 32  9  1  0
 30 16  1  0
 28 23  1  0
  1 35  1  0
  1 36  1  0
  1 37  1  0
  3 38  1  0
 10 39  1  0
 11 40  1  0
 17 41  1  0
 18 42  1  0
 23 43  1  0
 24 44  1  0
 24 45  1  0
 25 46  1  0
 25 47  1  0
 27 48  1  0
 27 49  1  0
 28 50  1  0
 28 51  1  0
 29 52  1  0
 30 53  1  0
 31 54  1  0
 32 55  1  0
M  CHG  3  13  -1  23   1  33  -1
M  END
>  <UniqueID>  (32) 
31

>  <SMILES>  (32) 
Cc1cc(=NS(=O)(=O)c2ccc([N-]C(=O)c3ccc(S(=O)(=O)[NH+]4CCOCC4)cc3)cc2)[n-]o1

>  <Energy>  (32) 
103.09281113205046

>  <Genealogy>  (32) 
Cc1cc(=NS(=O)(=O)c2ccc([N-]C(=O)c3ccc(S(=O)(=O)[NH+]4CCOCC4)cc3)cc2)[n-]o1 (protonated)
Cc1cc(=NS(=O)(=O)c2ccc([N-]C(=O)c3ccc(S(=O)(=O)[NH+]4CCOCC4)cc3)cc2)[n-]o1 (3D coordinates assigned)
Cc1cc(=NS(=O)(=O)c2ccc([N-]C(=O)c3ccc(S(=O)(=O)[NH+]4CCOCC4)cc3)cc2)[n-]o1 (nonaromatic ring conformer: 103.09281113205046 kcal/mol)

>  <smiles>  (32) 
Cc1cc(=NS(=O)(=O)c2ccc(NC(=O)c3ccc(S(=O)(=O)N4CCOCC4)cc3)cc2)[nH]o1

>  <score_type>  (32) 
oracle

>  <origin>  (32) 
adgpu

>  <m_score__min__energy>  (32) 
-12.74

>  <m_primary>  (32) 
energy

$$$$
32:0
     RDKit          3D

 51 54  0  0  0  0  0  0  0  0999 V2000
   -0.4250   19.1030  -29.3950 C   0  0  0  0  0  0  0  0  0  0  0  0
   -0.0700   19.6950  -28.0920 N   0  0  0  0  0  0  0  0  0  0  0  0
   -1.0700   19.4060  -27.0460 C   0  0  0  0  0  0  0  0  0  0  0  0
   -2.4310   20.0560  -27.3370 C   0  0  0  0  0  0  0  0  0  0  0  0
   -2.2960   21.4740  -27.8270 C   0  0  0  0  0  0  0  0  0  0  0  0
   -3.4410   22.2800  -27.8990 C   0  0  0  0  0  0  0  0  0  0  0  0
   -3.3660   23.5820  -28.4080 C   0  0  0  0  0  0  0  0  0  0  0  0
   -4.5540   24.3680  -28.4880 N   0  0  0  0  0  0  0  0  0  0  0  0
   -5.2410   24.7980  -30.0200 S   0  0  0  0  0  0  0  0  0  0  0  0
   -6.4150   25.7110  -29.7970 O   0  0  0  0  0  0  0  0  0  0  0  0
   -4.2070   25.5180  -30.8410 O   0  0  0  0  0  0  0  0  0  0  0  0
   -5.7790   23.3470  -30.8610 C   0  0  0  0  0  0  0  0  0  0  0  0
   -7.1180   22.9680  -30.8190 C   0  0  0  0  0  0  0  0  0  0  0  0
   -7.5480   21.8210  -31.4810 C   0  0  0  0  0  0  0  0  0  0  0  0
   -6.6420   21.0160  -32.2140 C   0  0  0  0  0  0  0  0  0  0  0  0
   -5.2710   21.4000  -32.2630 C   0  0  0  0  0  0  0  0  0  0  0  0
   -4.8620   22.5650  -31.5650 C   0  0  0  0  0  0  0  0  0  0  0  0
   -4.3730   20.6380  -32.9810 N   0  0  0  0  0  0  0  0  0  0  0  0
   -2.9490   21.0280  -33.0650 C   0  0  0  0  0  0  0  0  0  0  0  0
   -4.8050   19.5090  -33.6270 C   0  0  0  0  0  0  0  0  0  0  0  0
   -4.0000   18.7940  -34.2860 O   0  0  0  0  0  0  0  0  0  0  0  0
   -6.1490   19.1270  -33.5700 C   0  0  0  0  0  0  0  0  0  0  0  0
   -6.5090   18.0800  -34.1780 O   0  0  0  0  0  0  0  0  0  0  0  0
   -7.0580   19.8760  -32.8690 N   0  0  0  0  0  0  0  0  0  0  0  0
   -8.4770   19.4580  -32.8300 C   0  0  0  0  0  0  0  0  0  0  0  0
   -2.1250   24.0990  -28.8230 C   0  0  0  0  0  0  0  0  0  0  0  0
   -1.9960   25.4130  -29.2730 O   0  0  0  0  0  0  0  0  0  0  0  0
   -0.9850   23.2890  -28.7700 C   0  0  0  0  0  0  0  0  0  0  0  0
   -1.0640   21.9710  -28.2970 C   0  0  0  0  0  0  0  0  0  0  0  0
    0.1980   21.1430  -28.1960 C   0  0  0  0  0  0  0  0  0  0  0  0
   -0.9846   18.1698  -29.2335 H   0  0  0  0  0  0  0  0  0  0  0  0
   -1.0479   19.8107  -29.9618 H   0  0  0  0  0  0  0  0  0  0  0  0
    0.4926   18.8869  -29.9618 H   0  0  0  0  0  0  0  0  0  0  0  0
   -1.2064   18.3165  -26.9799 H   0  0  0  0  0  0  0  0  0  0  0  0
   -0.6951   19.8250  -26.1006 H   0  0  0  0  0  0  0  0  0  0  0  0
   -2.9482   19.4639  -28.1064 H   0  0  0  0  0  0  0  0  0  0  0  0
   -3.0004   20.0786  -26.3961 H   0  0  0  0  0  0  0  0  0  0  0  0
   -4.4075   21.8855  -27.5522 H   0  0  0  0  0  0  0  0  0  0  0  0
   -7.8413   23.5789  -30.2589 H   0  0  0  0  0  0  0  0  0  0  0  0
   -8.6092   21.5352  -31.4339 H   0  0  0  0  0  0  0  0  0  0  0  0
   -3.8018   22.8578  -31.5788 H   0  0  0  0  0  0  0  0  0  0  0  0
   -2.5391   21.1403  -32.0504 H   0  0  0  0  0  0  0  0  0  0  0  0
   -2.3871   20.2507  -33.6035 H   0  0  0  0  0  0  0  0  0  0  0  0
   -2.8616   21.9832  -33.6035 H   0  0  0  0  0  0  0  0  0  0  0  0
   -8.8024   19.3622  -31.7836 H   0  0  0  0  0  0  0  0  0  0  0  0
   -9.0955   20.2121  -33.3387 H   0  0  0  0  0  0  0  0  0  0  0  0
   -8.5879   18.4890  -33.3387 H   0  0  0  0  0  0  0  0  0  0  0  0
   -2.7880   26.0420  -29.3430 H   0  0  0  0  0  0  0  0  0  0  0  0
   -0.0165   23.6904  -29.1029 H   0  0  0  0  0  0  0  0  0  0  0  0
    0.8084   21.3231  -29.0932 H   0  0  0  0  0  0  0  0  0  0  0  0
    0.7197   21.4483  -27.2770 H   0  0  0  0  0  0  0  0  0  0  0  0
  1  2  1  0
  2  3  1  0
  3  4  1  0
  4  5  1  0
  5  6  2  0
  6  7  1  0
  7  8  1  0
  8  9  1  0
  9 10  2  0
  9 11  2  0
  9 12  1  0
 12 13  2  0
 13 14  1  0
 14 15  2  0
 15 16  1  0
 16 17  2  0
 16 18  1  0
 18 19  1  0
 18 20  1  0
 20 21  2  0
 20 22  1  0
 22 23  2  0
 22 24  1  0
 24 25  1  0
  7 26  2  0
 26 27  1  0
 26 28  1  0
 28 29  2  0
 29 30  1  0
 30  2  1  0
 29  5  1  0
 17 12  1  0
 24 15  1  0
  1 31  1  0
  1 32  1  0
  1 33  1  0
  3 34  1  0
  3 35  1  0
  4 36  1  0
  4 37  1  0
  6 38  1  0
 13 39  1  0
 14 40  1  0
 17 41  1  0
 19 42  1  0
 19 43  1  0
 19 44  1  0
 25 45  1  0
 25 46  1  0
 25 47  1  0
 27 48  1  0
 28 49  1  0
 30 50  1  0
 30 51  1  0
M  CHG  1   8  -1
M  END
>  <UniqueID>  (33) 
32

>  <SMILES>  (33) 
CN1CCc2cc([N-]S(=O)(=O)c3ccc4c(c3)n(C)c(=O)c(=O)n4C)c(O)cc2C1

>  <Energy>  (33) 
86.38529232547734

>  <Genealogy>  (33) 
CN1CCc2cc([N-]S(=O)(=O)c3ccc4c(c3)n(C)c(=O)c(=O)n4C)c(O)cc2C1 (protonated)
CN1CCc2cc([N-]S(=O)(=O)c3ccc4c(c3)n(C)c(=O)c(=O)n4C)c(O)cc2C1 (3D coordinates assigned)
CN1CCc2cc([N-]S(=O)(=O)c3ccc4c(c3)n(C)c(=O)c(=O)n4C)c(O)cc2C1 (nonaromatic ring conformer: 86.38529232547734 kcal/mol)

>  <smiles>  (33) 
CN1CCc2cc(NS(=O)(=O)c3ccc4c(c3)n(C)c(=O)c(=O)n4C)c(O)cc2C1

>  <score_type>  (33) 
oracle

>  <origin>  (33) 
adgpu

>  <m_score__min__energy>  (33) 
-12.710000000000001

>  <m_primary>  (33) 
energy

$$$$
33:0
     RDKit          3D

 44 47  0  0  0  0  0  0  0  0999 V2000
   -5.7430   18.2410  -34.7930 C   0  0  0  0  0  0  0  0  0  0  0  0
   -5.4030   19.4420  -34.1060 O   0  0  0  0  0  0  0  0  0  0  0  0
   -4.1300   19.7270  -33.5890 C   0  0  0  0  0  0  0  0  0  0  0  0
   -3.0170   19.1610  -34.2200 C   0  0  0  0  0  0  0  0  0  0  0  0
   -1.7280   19.4140  -33.7450 C   0  0  0  0  0  0  0  0  0  0  0  0
   -1.5400   20.2360  -32.6320 C   0  0  0  0  0  0  0  0  0  0  0  0
   -2.6450   20.8140  -31.9830 C   0  0  0  0  0  0  0  0  0  0  0  0
   -2.4490   21.6910  -30.8120 C   0  0  0  0  0  0  0  0  0  0  0  0
   -3.1450   21.5860  -29.6630 N   0  0  0  0  0  0  0  0  0  0  0  0
   -2.5920   22.5730  -28.9280 C   0  0  0  0  0  0  0  0  0  0  0  0
   -2.9570   22.8420  -27.5040 C   0  0  0  0  0  0  0  0  0  0  0  0
   -3.9120   24.3930  -27.3610 S   0  0  0  0  0  0  0  0  0  0  0  0
   -4.5420   24.3440  -29.0370 C   0  0  0  0  0  0  0  0  0  0  0  0
   -4.0270   25.0710  -30.0520 N   0  0  0  0  0  0  0  0  0  0  0  0
   -4.6490   24.8620  -31.2110 N   0  0  0  0  0  0  0  0  0  0  0  0
   -5.6610   23.9720  -31.1160 C   0  0  0  0  0  0  0  0  0  0  0  0
   -6.6810   23.4800  -32.5030 S   0  0  0  0  0  0  0  0  0  0  0  0
   -8.0000   22.7480  -31.4710 C   0  0  0  0  0  0  0  0  0  0  0  0
   -8.1510   21.2790  -31.7550 C   0  0  0  0  0  0  0  0  0  0  0  0
   -7.0900   20.3970  -31.4890 C   0  0  0  0  0  0  0  0  0  0  0  0
   -7.2190   19.0350  -31.7780 C   0  0  0  0  0  0  0  0  0  0  0  0
   -8.4030   18.5450  -32.3360 C   0  0  0  0  0  0  0  0  0  0  0  0
   -9.4610   19.4170  -32.6080 C   0  0  0  0  0  0  0  0  0  0  0  0
   -9.3370   20.7800  -32.3200 C   0  0  0  0  0  0  0  0  0  0  0  0
   -5.8330   23.3900  -29.5470 S   0  0  0  0  0  0  0  0  0  0  0  0
   -1.6190   23.2300  -29.5870 N   0  0  0  0  0  0  0  0  0  0  0  0
   -1.5650   22.6580  -30.7510 O   0  0  0  0  0  0  0  0  0  0  0  0
   -3.9390   20.5570  -32.4670 C   0  0  0  0  0  0  0  0  0  0  0  0
   -5.9667   17.4508  -34.0612 H   0  0  0  0  0  0  0  0  0  0  0  0
   -6.6266   18.4171  -35.4241 H   0  0  0  0  0  0  0  0  0  0  0  0
   -4.8982   17.9278  -35.4241 H   0  0  0  0  0  0  0  0  0  0  0  0
   -3.1580   18.5119  -35.0968 H   0  0  0  0  0  0  0  0  0  0  0  0
   -0.8594   18.9648  -34.2487 H   0  0  0  0  0  0  0  0  0  0  0  0
   -0.5230   20.4321  -32.2615 H   0  0  0  0  0  0  0  0  0  0  0  0
   -3.5649   22.0078  -27.1237 H   0  0  0  0  0  0  0  0  0  0  0  0
   -2.0328   22.9415  -26.9158 H   0  0  0  0  0  0  0  0  0  0  0  0
   -7.7449   22.8852  -30.4098 H   0  0  0  0  0  0  0  0  0  0  0  0
   -8.9497   23.2507  -31.7061 H   0  0  0  0  0  0  0  0  0  0  0  0
   -6.1555   20.7790  -31.0523 H   0  0  0  0  0  0  0  0  0  0  0  0
   -6.3868   18.3477  -31.5657 H   0  0  0  0  0  0  0  0  0  0  0  0
   -8.5023   17.4729  -32.5612 H   0  0  0  0  0  0  0  0  0  0  0  0
  -10.3919   19.0309  -33.0489 H   0  0  0  0  0  0  0  0  0  0  0  0
  -10.1709   21.4639  -32.5365 H   0  0  0  0  0  0  0  0  0  0  0  0
   -4.8088   21.0071  -31.9662 H   0  0  0  0  0  0  0  0  0  0  0  0
  1  2  1  0
  2  3  1  0
  3  4  2  0
  4  5  1  0
  5  6  2  0
  6  7  1  0
  7  8  1  0
  8  9  2  0
  9 10  1  0
 10 11  1  0
 11 12  1  0
 12 13  1  0
 13 14  2  0
 14 15  1  0
 15 16  2  0
 16 17  1  0
 17 18  1  0
 18 19  1  0
 19 20  2  0
 20 21  1  0
 21 22  2  0
 22 23  1  0
 23 24  2  0
 16 25  1  0
 10 26  2  0
 26 27  1  0
  7 28  2  0
 28  3  1  0
 27  8  1  0
 25 13  1  0
 24 19  1  0
  1 29  1  0
  1 30  1  0
  1 31  1  0
  4 32  1  0
  5 33  1  0
  6 34  1  0
 11 35  1  0
 11 36  1  0
 18 37  1  0
 18 38  1  0
 20 39  1  0
 21 40  1  0
 22 41  1  0
 23 42  1  0
 24 43  1  0
 28 44  1  0
M  END
>  <UniqueID>  (34) 
33

>  <SMILES>  (34) 
COc1cccc(-c2nc(CSc3nnc(SCc4ccccc4)s3)no2)c1

>  <Energy>  (34) 
104.72859507753317

>  <Genealogy>  (34) 
COc1cccc(-c2nc(CSc3nnc(SCc4ccccc4)s3)no2)c1 (3D coordinates assigned)
COc1cccc(-c2nc(CSc3nnc(SCc4ccccc4)s3)no2)c1 (optimized conformer: 104.72859507753317 kcal/mol)

>  <smiles>  (34) 
COc1cccc(-c2nc(CSc3nnc(SCc4ccccc4)s3)no2)c1

>  <score_type>  (34) 
oracle

>  <origin>  (34) 
adgpu

>  <m_score__min__energy>  (34) 
-10.67

>  <m_primary>  (34) 
energy

$$$$
34:0
     RDKit          3D

 60 63  0  0  0  0  0  0  0  0999 V2000
   -4.4820   23.3350  -31.6880 O   0  0  0  0  0  0  0  0  0  0  0  0
   -5.2310   22.8360  -30.8020 C   0  0  0  0  0  0  0  0  0  0  0  0
   -4.8670   22.9480  -29.4170 N   0  0  0  0  0  0  0  0  0  0  0  0
   -3.5390   23.2680  -28.9730 C   0  0  0  0  0  0  0  0  0  0  0  0
   -2.8640   22.3670  -28.1350 C   0  0  0  0  0  0  0  0  0  0  0  0
   -1.5560   22.6310  -27.7100 C   0  0  0  0  0  0  0  0  0  0  0  0
   -0.7110   21.4800  -26.6710 S   0  0  0  0  0  0  0  0  0  0  0  0
    0.5220   22.1310  -26.1080 O   0  0  0  0  0  0  0  0  0  0  0  0
   -1.6030   21.1030  -25.5200 O   0  0  0  0  0  0  0  0  0  0  0  0
   -0.2570   20.0370  -27.5480 N   0  0  0  0  0  0  0  0  0  0  0  0
    1.1130   20.1750  -28.0900 C   0  0  0  0  0  0  0  0  0  0  0  0
    1.3870   19.1420  -29.1880 C   0  0  0  0  0  0  0  0  0  0  0  0
    0.4370   19.3400  -30.3840 C   0  0  0  0  0  0  0  0  0  0  0  0
   -0.8850   20.0200  -29.9870 C   0  0  0  0  0  0  0  0  0  0  0  0
   -1.2860   19.6580  -28.5490 C   0  0  0  0  0  0  0  0  0  0  0  0
   -0.9180   23.8070  -28.1250 C   0  0  0  0  0  0  0  0  0  0  0  0
   -1.5740   24.6990  -28.9750 C   0  0  0  0  0  0  0  0  0  0  0  0
   -2.8740   24.4290  -29.4140 C   0  0  0  0  0  0  0  0  0  0  0  0
   -3.4830   25.3040  -30.3080 O   0  0  0  0  0  0  0  0  0  0  0  0
   -6.5000   22.1830  -31.2000 C   0  0  0  0  0  0  0  0  0  0  0  0
   -7.6620   22.9510  -31.3980 C   0  0  0  0  0  0  0  0  0  0  0  0
   -8.8650   22.3350  -31.7540 C   0  0  0  0  0  0  0  0  0  0  0  0
   -8.9220   20.9500  -31.9220 C   0  0  0  0  0  0  0  0  0  0  0  0
   -7.7690   20.1730  -31.7510 C   0  0  0  0  0  0  0  0  0  0  0  0
   -7.8460   18.4230  -31.9500 S   0  0  0  0  0  0  0  0  0  0  0  0
   -9.2750   17.9680  -31.8370 O   0  0  0  0  0  0  0  0  0  0  0  0
   -7.0610   17.7840  -30.8370 O   0  0  0  0  0  0  0  0  0  0  0  0
   -7.1600   17.9380  -33.4870 N   0  0  0  0  0  0  0  0  0  0  0  0
   -6.4820   16.6320  -33.4080 C   0  0  0  0  0  0  0  0  0  0  0  0
   -5.1300   16.7160  -32.6600 C   0  0  0  0  0  0  0  0  0  0  0  0
   -4.6250   18.0360  -32.5540 O   0  0  0  0  0  0  0  0  0  0  0  0
   -4.7870   18.7210  -33.7750 C   0  0  0  0  0  0  0  0  0  0  0  0
   -6.2800   18.9870  -34.0470 C   0  0  0  0  0  0  0  0  0  0  0  0
   -6.5630   20.7910  -31.3920 C   0  0  0  0  0  0  0  0  0  0  0  0
   -5.6340   22.9670  -28.7070 H   0  0  0  0  0  0  0  0  0  0  0  0
   -3.3671   21.4447  -27.8089 H   0  0  0  0  0  0  0  0  0  0  0  0
    1.2313   21.1844  -28.5108 H   0  0  0  0  0  0  0  0  0  0  0  0
    1.8277   20.0071  -27.2709 H   0  0  0  0  0  0  0  0  0  0  0  0
    2.4260   19.2507  -29.5325 H   0  0  0  0  0  0  0  0  0  0  0  0
    1.2210   18.1372  -28.7722 H   0  0  0  0  0  0  0  0  0  0  0  0
    0.9424   19.9650  -31.1350 H   0  0  0  0  0  0  0  0  0  0  0  0
    0.1917   18.3441  -30.7815 H   0  0  0  0  0  0  0  0  0  0  0  0
   -0.7641   21.1108  -30.0620 H   0  0  0  0  0  0  0  0  0  0  0  0
   -1.6750   19.6696  -30.6676 H   0  0  0  0  0  0  0  0  0  0  0  0
   -2.2227   20.1802  -28.3041 H   0  0  0  0  0  0  0  0  0  0  0  0
   -1.4021   18.5651  -28.5045 H   0  0  0  0  0  0  0  0  0  0  0  0
    0.1028   24.0282  -27.7801 H   0  0  0  0  0  0  0  0  0  0  0  0
   -1.0660   25.6186  -29.3010 H   0  0  0  0  0  0  0  0  0  0  0  0
   -7.6235   24.0431  -31.2718 H   0  0  0  0  0  0  0  0  0  0  0  0
   -9.7696   22.9431  -31.9023 H   0  0  0  0  0  0  0  0  0  0  0  0
   -9.8741   20.4681  -32.1891 H   0  0  0  0  0  0  0  0  0  0  0  0
   -7.1366   15.9252  -32.8770 H   0  0  0  0  0  0  0  0  0  0  0  0
   -6.2776   16.2964  -34.4354 H   0  0  0  0  0  0  0  0  0  0  0  0
   -5.2673   16.3130  -31.6457 H   0  0  0  0  0  0  0  0  0  0  0  0
   -4.4001   16.1356  -33.2435 H   0  0  0  0  0  0  0  0  0  0  0  0
   -4.2508   19.6802  -33.7265 H   0  0  0  0  0  0  0  0  0  0  0  0
   -4.3807   18.1019  -34.5884 H   0  0  0  0  0  0  0  0  0  0  0  0
   -6.5529   19.9525  -33.5960 H   0  0  0  0  0  0  0  0  0  0  0  0
   -6.4225   18.9916  -35.1377 H   0  0  0  0  0  0  0  0  0  0  0  0
   -5.6571   20.1814  -31.2592 H   0  0  0  0  0  0  0  0  0  0  0  0
  1  2  2  0
  2  3  1  0
  3  4  1  0
  4  5  2  0
  5  6  1  0
  6  7  1  0
  7  8  2  0
  7  9  2  0
  7 10  1  0
 10 11  1  0
 11 12  1  0
 12 13  1  0
 13 14  1  0
 14 15  1  0
  6 16  2  0
 16 17  1  0
 17 18  2  0
 18 19  1  0
  2 20  1  0
 20 21  2  0
 21 22  1  0
 22 23  2  0
 23 24  1  0
 24 25  1  0
 25 26  2  0
 25 27  2  0
 25 28  1  0
 28 29  1  0
 29 30  1  0
 30 31  1  0
 31 32  1  0
 32 33  1  0
 24 34  2  0
 18  4  1  0
 34 20  1  0
 15 10  1  0
 33 28  1  0
  3 35  1  0
  5 36  1  0
 11 37  1  0
 11 38  1  0
 12 39  1  0
 12 40  1  0
 13 41  1  0
 13 42  1  0
 14 43  1  0
 14 44  1  0
 15 45  1  0
 15 46  1  0
 16 47  1  0
 17 48  1  0
 21 49  1  0
 22 50  1  0
 23 51  1  0
 29 52  1  0
 29 53  1  0
 30 54  1  0
 30 55  1  0
 32 56  1  0
 32 57  1  0
 33 58  1  0
 33 59  1  0
 34 60  1  0
M  CHG  1  19  -1
M  END
>  <UniqueID>  (35) 
34

>  <SMILES>  (35) 
O=C(Nc1cc(S(=O)(=O)N2CCCCC2)ccc1[O-])c1cccc(S(=O)(=O)N2CCOCC2)c1

>  <Energy>  (35) 
83.97098900670494

>  <Genealogy>  (35) 
O=C(Nc1cc(S(=O)(=O)N2CCCCC2)ccc1[O-])c1cccc(S(=O)(=O)N2CCOCC2)c1 (protonated)
O=C(Nc1cc(S(=O)(=O)N2CCCCC2)ccc1[O-])c1cccc(S(=O)(=O)N2CCOCC2)c1 (3D coordinates assigned)
O=C(Nc1cc(S(=O)(=O)N2CCCCC2)ccc1[O-])c1cccc(S(=O)(=O)N2CCOCC2)c1 (nonaromatic ring conformer: 83.97098900670494 kcal/mol)

>  <smiles>  (35) 
O=C(Nc1cc(S(=O)(=O)N2CCCCC2)ccc1O)c1cccc(S(=O)(=O)N2CCOCC2)c1

>  <score_type>  (35) 
oracle

>  <origin>  (35) 
adgpu

>  <m_score__min__energy>  (35) 
-14.050000000000001

>  <m_primary>  (35) 
energy

$$$$
35:0
     RDKit          3D

 47 50  0  0  0  0  0  0  0  0999 V2000
   -0.7800   26.4230  -23.7310 O   0  0  0  0  0  0  0  0  0  0  0  0
   -0.1660   26.4270  -25.1030 S   0  0  0  0  0  0  0  0  0  0  0  0
    1.1100   25.6290  -25.0710 O   0  0  0  0  0  0  0  0  0  0  0  0
   -1.3000   25.7000  -26.2370 C   0  0  0  0  0  0  0  0  0  0  0  0
   -2.6220   25.4620  -25.8400 C   0  0  0  0  0  0  0  0  0  0  0  0
   -3.5330   24.8880  -26.7320 C   0  0  0  0  0  0  0  0  0  0  0  0
   -3.1320   24.5410  -28.0340 C   0  0  0  0  0  0  0  0  0  0  0  0
   -4.0950   23.9370  -28.9800 C   0  0  0  0  0  0  0  0  0  0  0  0
   -4.9110   22.9090  -28.6650 N   0  0  0  0  0  0  0  0  0  0  0  0
   -5.6130   22.6590  -29.7540 N   0  0  0  0  0  0  0  0  0  0  0  0
   -5.2220   23.5280  -30.6980 C   0  0  0  0  0  0  0  0  0  0  0  0
   -5.9000   23.5830  -32.3530 S   0  0  0  0  0  0  0  0  0  0  0  0
   -5.5290   21.8290  -32.6840 C   0  0  0  0  0  0  0  0  0  0  0  0
   -6.7780   21.0070  -32.5090 C   0  0  0  0  0  0  0  0  0  0  0  0
   -7.9070   21.5910  -31.9060 C   0  0  0  0  0  0  0  0  0  0  0  0
   -9.0710   20.8450  -31.7090 C   0  0  0  0  0  0  0  0  0  0  0  0
   -9.1200   19.5060  -32.1010 C   0  0  0  0  0  0  0  0  0  0  0  0
   -8.0000   18.9080  -32.6870 C   0  0  0  0  0  0  0  0  0  0  0  0
   -6.8280   19.6470  -32.8890 C   0  0  0  0  0  0  0  0  0  0  0  0
   -5.4420   18.8330  -33.6100 Cl  0  0  0  0  0  0  0  0  0  0  0  0
   -4.2600   24.3580  -30.2550 N   0  0  0  0  0  0  0  0  0  0  0  0
   -1.8020   24.7770  -28.4240 C   0  0  0  0  0  0  0  0  0  0  0  0
   -0.8930   25.3510  -27.5310 C   0  0  0  0  0  0  0  0  0  0  0  0
    0.1700   28.0700  -25.5890 N   0  0  0  0  0  0  0  0  0  0  0  0
   -0.7050   29.0180  -24.8980 C   0  0  0  0  0  0  0  0  0  0  0  0
   -0.8430   30.2250  -25.8130 C   0  0  0  0  0  0  0  0  0  0  0  0
   -0.4310   29.7360  -27.1930 C   0  0  0  0  0  0  0  0  0  0  0  0
   -0.0880   28.2660  -27.0140 C   0  0  0  0  0  0  0  0  0  0  0  0
   -2.9448   25.7277  -24.8225 H   0  0  0  0  0  0  0  0  0  0  0  0
   -4.5700   24.7068  -26.4130 H   0  0  0  0  0  0  0  0  0  0  0  0
   -6.3410   21.9160  -29.8410 H   0  0  0  0  0  0  0  0  0  0  0  0
   -5.1610   21.7209  -33.7150 H   0  0  0  0  0  0  0  0  0  0  0  0
   -4.7597   21.4791  -31.9799 H   0  0  0  0  0  0  0  0  0  0  0  0
   -7.8726   22.6433  -31.5873 H   0  0  0  0  0  0  0  0  0  0  0  0
   -9.9510   21.3134  -31.2440 H   0  0  0  0  0  0  0  0  0  0  0  0
  -10.0394   18.9215  -31.9489 H   0  0  0  0  0  0  0  0  0  0  0  0
   -8.0399   17.8516  -32.9908 H   0  0  0  0  0  0  0  0  0  0  0  0
   -1.4746   24.5080  -29.4391 H   0  0  0  0  0  0  0  0  0  0  0  0
    0.1459   25.5294  -27.8455 H   0  0  0  0  0  0  0  0  0  0  0  0
   -1.6903   28.5635  -24.7175 H   0  0  0  0  0  0  0  0  0  0  0  0
   -0.2878   29.3050  -23.9215 H   0  0  0  0  0  0  0  0  0  0  0  0
   -1.8837   30.5810  -25.8259 H   0  0  0  0  0  0  0  0  0  0  0  0
   -0.2211   31.0671  -25.4753 H   0  0  0  0  0  0  0  0  0  0  0  0
   -1.2599   29.8538  -27.9065 H   0  0  0  0  0  0  0  0  0  0  0  0
    0.4185   30.3087  -27.5934 H   0  0  0  0  0  0  0  0  0  0  0  0
   -0.9306   27.6372  -27.3375 H   0  0  0  0  0  0  0  0  0  0  0  0
    0.7870   27.9855  -27.6187 H   0  0  0  0  0  0  0  0  0  0  0  0
  1  2  2  0
  2  3  2  0
  2  4  1  0
  4  5  2  0
  5  6  1  0
  6  7  2  0
  7  8  1  0
  8  9  2  0
  9 10  1  0
 10 11  1  0
 11 12  1  0
 12 13  1  0
 13 14  1  0
 14 15  2  0
 15 16  1  0
 16 17  2  0
 17 18  1  0
 18 19  2  0
 19 20  1  0
 11 21  2  0
  7 22  1  0
 22 23  2  0
  2 24  1  0
 24 25  1  0
 25 26  1  0
 26 27  1  0
 27 28  1  0
 23  4  1  0
 28 24  1  0
 21  8  1  0
 19 14  1  0
  5 29  1  0
  6 30  1  0
 10 31  1  0
 13 32  1  0
 13 33  1  0
 15 34  1  0
 16 35  1  0
 17 36  1  0
 18 37  1  0
 22 38  1  0
 23 39  1  0
 25 40  1  0
 25 41  1  0
 26 42  1  0
 26 43  1  0
 27 44  1  0
 27 45  1  0
 28 46  1  0
 28 47  1  0
M  END
>  <UniqueID>  (36) 
35

>  <SMILES>  (36) 
O=S(=O)(c1ccc(-c2n[nH]c(SCc3ccccc3Cl)n2)cc1)N1CCCC1

>  <Energy>  (36) 
80.69429956927864

>  <Genealogy>  (36) 
O=S(=O)(c1ccc(-c2n[nH]c(SCc3ccccc3Cl)n2)cc1)N1CCCC1 (3D coordinates assigned)
O=S(=O)(c1ccc(-c2n[nH]c(SCc3ccccc3Cl)n2)cc1)N1CCCC1 (nonaromatic ring conformer: 80.69429956927864 kcal/mol)

>  <smiles>  (36) 
O=S(=O)(c1ccc(-c2n[nH]c(SCc3ccccc3Cl)n2)cc1)N1CCCC1

>  <score_type>  (36) 
oracle

>  <origin>  (36) 
adgpu

>  <m_score__min__energy>  (36) 
-10.24

>  <m_primary>  (36) 
energy

$$$$
36:0
     RDKit          3D

 69 73  0  0  0  0  0  0  0  0999 V2000
   -0.0900   21.2400  -33.1790 O   0  0  0  0  0  0  0  0  0  0  0  0
   -1.1450   21.3180  -32.4960 C   0  0  0  0  0  0  0  0  0  0  0  0
   -2.4080   21.1860  -33.1680 N   0  0  0  0  0  0  0  0  0  0  0  0
   -3.1310   19.9780  -33.4480 C   0  0  0  0  0  0  0  0  0  0  0  0
   -2.5040   18.9840  -34.2090 C   0  0  0  0  0  0  0  0  0  0  0  0
   -3.1790   17.8010  -34.5220 C   0  0  0  0  0  0  0  0  0  0  0  0
   -4.4840   17.6000  -34.0700 C   0  0  0  0  0  0  0  0  0  0  0  0
   -5.1170   18.5750  -33.2900 C   0  0  0  0  0  0  0  0  0  0  0  0
   -6.7680   18.3240  -32.7270 S   0  0  0  0  0  0  0  0  0  0  0  0
   -7.3060   17.0400  -33.2990 O   0  0  0  0  0  0  0  0  0  0  0  0
   -6.7490   18.2060  -31.2280 O   0  0  0  0  0  0  0  0  0  0  0  0
   -7.7760   19.6750  -33.2020 N   0  0  0  0  0  0  0  0  0  0  0  0
   -7.2310   20.9430  -32.6990 C   0  0  0  0  0  0  0  0  0  0  0  0
   -7.8870   21.2260  -31.3540 C   0  0  0  0  0  0  0  0  0  0  0  0
   -9.1130   20.3290  -31.3010 C   0  0  0  0  0  0  0  0  0  0  0  0
   -9.1210   19.5690  -32.6200 C   0  0  0  0  0  0  0  0  0  0  0  0
   -4.4290   19.7500  -32.9570 C   0  0  0  0  0  0  0  0  0  0  0  0
   -1.0380   21.5540  -31.0400 C   0  0  0  0  0  0  0  0  0  0  0  0
   -1.7100   22.6600  -30.4950 C   0  0  0  0  0  0  0  0  0  0  0  0
   -1.5800   22.9830  -29.1390 C   0  0  0  0  0  0  0  0  0  0  0  0
   -2.3970   24.4040  -28.4780 S   0  0  0  0  0  0  0  0  0  0  0  0
   -1.6970   25.6410  -28.9650 O   0  0  0  0  0  0  0  0  0  0  0  0
   -2.2960   24.3730  -26.9790 O   0  0  0  0  0  0  0  0  0  0  0  0
   -4.0830   24.4870  -28.9330 N   0  0  0  0  0  0  0  0  0  0  0  0
   -4.2560   24.9050  -30.3210 C   0  0  0  0  0  0  0  0  0  0  0  0
   -5.6100   24.3720  -30.7580 C   0  0  0  0  0  0  0  0  0  0  0  0
   -5.8990   23.2060  -29.8230 C   0  0  0  0  0  0  0  0  0  0  0  0
   -4.7470   23.1890  -28.8270 C   0  0  0  0  0  0  0  0  0  0  0  0
   -0.7690   22.1920  -28.3180 C   0  0  0  0  0  0  0  0  0  0  0  0
   -0.1160   21.0760  -28.8400 C   0  0  0  0  0  0  0  0  0  0  0  0
   -0.2420   20.7410  -30.1970 C   0  0  0  0  0  0  0  0  0  0  0  0
    0.3970   19.5450  -30.6850 N   0  0  0  0  0  0  0  0  0  0  0  0
   -0.2800   18.2470  -30.5960 C   0  0  0  0  0  0  0  0  0  0  0  0
   -0.4470   17.6290  -32.0040 C   0  0  0  0  0  0  0  0  0  0  0  0
    0.3780   18.2210  -32.9980 O   0  0  0  0  0  0  0  0  0  0  0  0
    1.6720   18.4750  -32.4900 C   0  0  0  0  0  0  0  0  0  0  0  0
    1.6100   19.6470  -31.5060 C   0  0  0  0  0  0  0  0  0  0  0  0
   -1.4735   19.1352  -34.5628 H   0  0  0  0  0  0  0  0  0  0  0  0
   -2.6812   17.0275  -35.1252 H   0  0  0  0  0  0  0  0  0  0  0  0
   -5.0168   16.6727  -34.3274 H   0  0  0  0  0  0  0  0  0  0  0  0
   -7.8340   19.6940  -34.2470 H   0  0  0  0  0  0  0  0  0  0  0  0
   -6.1413   20.8596  -32.5745 H   0  0  0  0  0  0  0  0  0  0  0  0
   -7.4357   21.7591  -33.4075 H   0  0  0  0  0  0  0  0  0  0  0  0
   -7.1977   20.9833  -30.5318 H   0  0  0  0  0  0  0  0  0  0  0  0
   -8.1542   22.2876  -31.2466 H   0  0  0  0  0  0  0  0  0  0  0  0
   -9.0408   19.6295  -30.4551 H   0  0  0  0  0  0  0  0  0  0  0  0
  -10.0366   20.9096  -31.1600 H   0  0  0  0  0  0  0  0  0  0  0  0
   -9.3708   18.5125  -32.4426 H   0  0  0  0  0  0  0  0  0  0  0  0
   -9.8723   19.9904  -33.3041 H   0  0  0  0  0  0  0  0  0  0  0  0
   -4.9072   20.4982  -32.3078 H   0  0  0  0  0  0  0  0  0  0  0  0
   -2.3470   23.2808  -31.1421 H   0  0  0  0  0  0  0  0  0  0  0  0
   -4.2364   26.0024  -30.3941 H   0  0  0  0  0  0  0  0  0  0  0  0
   -3.4479   24.5191  -30.9598 H   0  0  0  0  0  0  0  0  0  0  0  0
   -6.3819   25.1490  -30.6560 H   0  0  0  0  0  0  0  0  0  0  0  0
   -5.6096   24.0629  -31.8137 H   0  0  0  0  0  0  0  0  0  0  0  0
   -6.8556   23.3588  -29.3020 H   0  0  0  0  0  0  0  0  0  0  0  0
   -5.9805   22.2548  -30.3694 H   0  0  0  0  0  0  0  0  0  0  0  0
   -5.1299   23.0410  -27.8065 H   0  0  0  0  0  0  0  0  0  0  0  0
   -4.0482   22.3675  -29.0432 H   0  0  0  0  0  0  0  0  0  0  0  0
   -0.6460   22.4516  -27.2562 H   0  0  0  0  0  0  0  0  0  0  0  0
    0.5047   20.4513  -28.1809 H   0  0  0  0  0  0  0  0  0  0  0  0
    0.3184   17.5681  -29.9707 H   0  0  0  0  0  0  0  0  0  0  0  0
   -1.2748   18.3930  -30.1499 H   0  0  0  0  0  0  0  0  0  0  0  0
   -0.2008   16.5586  -31.9431 H   0  0  0  0  0  0  0  0  0  0  0  0
   -1.4889   17.8081  -32.3080 H   0  0  0  0  0  0  0  0  0  0  0  0
    2.0452   17.5795  -31.9715 H   0  0  0  0  0  0  0  0  0  0  0  0
    2.3499   18.7262  -33.3191 H   0  0  0  0  0  0  0  0  0  0  0  0
    2.4953   19.6230  -30.8536 H   0  0  0  0  0  0  0  0  0  0  0  0
    1.5888   20.5921  -32.0685 H   0  0  0  0  0  0  0  0  0  0  0  0
  1  2  2  0
  2  3  1  0
  3  4  1  0
  4  5  2  0
  5  6  1  0
  6  7  2  0
  7  8  1  0
  8  9  1  0
  9 10  2  0
  9 11  2  0
  9 12  1  0
 12 13  1  0
 13 14  1  0
 14 15  1  0
 15 16  1  0
  8 17  2  0
  2 18  1  0
 18 19  2  0
 19 20  1  0
 20 21  1  0
 21 22  2  0
 21 23  2  0
 21 24  1  0
 24 25  1  0
 25 26  1  0
 26 27  1  0
 27 28  1  0
 20 29  2  0
 29 30  1  0
 30 31  2  0
 31 32  1  0
 32 33  1  0
 33 34  1  0
 34 35  1  0
 35 36  1  0
 36 37  1  0
 17  4  1  0
 31 18  1  0
 37 32  1  0
 16 12  1  0
 28 24  1  0
  5 38  1  0
  6 39  1  0
  7 40  1  0
 12 41  1  0
 13 42  1  0
 13 43  1  0
 14 44  1  0
 14 45  1  0
 15 46  1  0
 15 47  1  0
 16 48  1  0
 16 49  1  0
 17 50  1  0
 19 51  1  0
 25 52  1  0
 25 53  1  0
 26 54  1  0
 26 55  1  0
 27 56  1  0
 27 57  1  0
 28 58  1  0
 28 59  1  0
 29 60  1  0
 30 61  1  0
 33 62  1  0
 33 63  1  0
 34 64  1  0
 34 65  1  0
 36 66  1  0
 36 67  1  0
 37 68  1  0
 37 69  1  0
M  CHG  2   3  -1  12   1
M  END
>  <UniqueID>  (37) 
36

>  <SMILES>  (37) 
O=C([N-]c1cccc(S(=O)(=O)[NH+]2CCCC2)c1)c1cc(S(=O)(=O)N2CCCC2)ccc1N1CCOCC1

>  <Energy>  (37) 
91.16926412467683

>  <Genealogy>  (37) 
O=C([N-]c1cccc(S(=O)(=O)[NH+]2CCCC2)c1)c1cc(S(=O)(=O)N2CCCC2)ccc1N1CCOCC1 (protonated)
O=C([N-]c1cccc(S(=O)(=O)[NH+]2CCCC2)c1)c1cc(S(=O)(=O)N2CCCC2)ccc1N1CCOCC1 (3D coordinates assigned)
O=C([N-]c1cccc(S(=O)(=O)[NH+]2CCCC2)c1)c1cc(S(=O)(=O)N2CCCC2)ccc1N1CCOCC1 (nonaromatic ring conformer: 91.16926412467683 kcal/mol)

>  <smiles>  (37) 
O=C(Nc1cccc(S(=O)(=O)N2CCCC2)c1)c1cc(S(=O)(=O)N2CCCC2)ccc1N1CCOCC1

>  <score_type>  (37) 
oracle

>  <origin>  (37) 
adgpu

>  <m_score__min__energy>  (37) 
-11.699999999999999

>  <m_primary>  (37) 
energy

$$$$
37:0
     RDKit          3D

 43 45  0  0  0  0  0  0  0  0999 V2000
   -2.0030   25.8760  -25.7090 C   0  0  0  0  0  0  0  0  0  0  0  0
   -1.7100   25.3890  -27.0880 C   0  0  0  0  0  0  0  0  0  0  0  0
   -2.4860   24.5180  -27.8200 C   0  0  0  0  0  0  0  0  0  0  0  0
   -1.7940   24.4150  -29.0150 C   0  0  0  0  0  0  0  0  0  0  0  0
   -2.1300   23.7270  -30.0680 N   0  0  0  0  0  0  0  0  0  0  0  0
   -3.2440   22.8280  -30.2070 C   0  0  0  0  0  0  0  0  0  0  0  0
   -3.0730   21.6110  -29.9260 O   0  0  0  0  0  0  0  0  0  0  0  0
   -4.5880   23.2760  -30.6340 C   0  0  0  0  0  0  0  0  0  0  0  0
   -5.5670   22.3050  -30.9070 C   0  0  0  0  0  0  0  0  0  0  0  0
   -6.8290   22.6750  -31.3910 C   0  0  0  0  0  0  0  0  0  0  0  0
   -8.0470   21.4440  -31.7370 S   0  0  0  0  0  0  0  0  0  0  0  0
   -9.2990   22.1280  -32.2140 O   0  0  0  0  0  0  0  0  0  0  0  0
   -8.3820   20.7130  -30.4670 O   0  0  0  0  0  0  0  0  0  0  0  0
   -7.5320   20.2920  -32.9520 N   0  0  0  0  0  0  0  0  0  0  0  0
   -6.0990   20.4200  -33.3110 C   0  0  0  0  0  0  0  0  0  0  0  0
   -5.2950   19.1240  -33.1350 C   0  0  0  0  0  0  0  0  0  0  0  0
   -5.6430   18.4700  -31.8030 C   0  0  0  0  0  0  0  0  0  0  0  0
   -7.1350   18.1170  -31.7230 C   0  0  0  0  0  0  0  0  0  0  0  0
   -8.0160   18.9190  -32.7000 C   0  0  0  0  0  0  0  0  0  0  0  0
   -7.1280   24.0310  -31.5660 C   0  0  0  0  0  0  0  0  0  0  0  0
   -6.1750   25.0070  -31.2700 C   0  0  0  0  0  0  0  0  0  0  0  0
   -4.9110   24.6450  -30.7910 C   0  0  0  0  0  0  0  0  0  0  0  0
   -4.0190   25.6650  -30.4560 O   0  0  0  0  0  0  0  0  0  0  0  0
   -0.6940   25.1910  -28.9800 N   0  0  0  0  0  0  0  0  0  0  0  0
   -0.6760   25.7580  -27.8090 O   0  0  0  0  0  0  0  0  0  0  0  0
   -1.5807   25.1741  -24.9748 H   0  0  0  0  0  0  0  0  0  0  0  0
   -1.5526   26.8695  -25.5676 H   0  0  0  0  0  0  0  0  0  0  0  0
   -3.0918   25.9435  -25.5676 H   0  0  0  0  0  0  0  0  0  0  0  0
   -3.4249   24.0252  -27.5273 H   0  0  0  0  0  0  0  0  0  0  0  0
   -5.3398   21.2420  -30.7387 H   0  0  0  0  0  0  0  0  0  0  0  0
   -6.0322   20.7285  -34.3647 H   0  0  0  0  0  0  0  0  0  0  0  0
   -5.6632   21.1615  -32.6252 H   0  0  0  0  0  0  0  0  0  0  0  0
   -5.5367   18.4315  -33.9547 H   0  0  0  0  0  0  0  0  0  0  0  0
   -4.2210   19.3611  -33.1505 H   0  0  0  0  0  0  0  0  0  0  0  0
   -5.0513   17.5495  -31.6913 H   0  0  0  0  0  0  0  0  0  0  0  0
   -5.4131   19.1831  -30.9976 H   0  0  0  0  0  0  0  0  0  0  0  0
   -7.2510   17.0469  -31.9496 H   0  0  0  0  0  0  0  0  0  0  0  0
   -7.4706   18.3704  -30.7065 H   0  0  0  0  0  0  0  0  0  0  0  0
   -8.0479   18.3813  -33.6591 H   0  0  0  0  0  0  0  0  0  0  0  0
   -9.0084   19.0103  -32.2344 H   0  0  0  0  0  0  0  0  0  0  0  0
   -8.1191   24.3291  -31.9387 H   0  0  0  0  0  0  0  0  0  0  0  0
   -6.4197   26.0697  -31.4145 H   0  0  0  0  0  0  0  0  0  0  0  0
   -3.0520   25.6700  -30.7480 H   0  0  0  0  0  0  0  0  0  0  0  0
  1  2  1  0
  2  3  2  0
  3  4  1  0
  4  5  2  3
  5  6  1  0
  6  7  2  0
  6  8  1  0
  8  9  2  0
  9 10  1  0
 10 11  1  0
 11 12  2  0
 11 13  2  0
 11 14  1  0
 14 15  1  0
 15 16  1  0
 16 17  1  0
 17 18  1  0
 18 19  1  0
 10 20  2  0
 20 21  1  0
 21 22  2  0
 22 23  1  0
  4 24  1  0
 24 25  1  0
 25  2  1  0
 22  8  1  0
 19 14  1  0
  1 26  1  0
  1 27  1  0
  1 28  1  0
  3 29  1  0
  9 30  1  0
 15 31  1  0
 15 32  1  0
 16 33  1  0
 16 34  1  0
 17 35  1  0
 17 36  1  0
 18 37  1  0
 18 38  1  0
 19 39  1  0
 19 40  1  0
 20 41  1  0
 21 42  1  0
 23 43  1  0
M  CHG  1  24  -1
M  END
>  <UniqueID>  (38) 
37

>  <SMILES>  (38) 
Cc1cc(=NC(=O)c2cc(S(=O)(=O)N3CCCCC3)ccc2O)[n-]o1

>  <Energy>  (38) 
90.59986584466715

>  <Genealogy>  (38) 
Cc1cc(=NC(=O)c2cc(S(=O)(=O)N3CCCCC3)ccc2O)[n-]o1 (protonated)
Cc1cc(=NC(=O)c2cc(S(=O)(=O)N3CCCCC3)ccc2O)[n-]o1 (3D coordinates assigned)
Cc1cc(=NC(=O)c2cc(S(=O)(=O)N3CCCCC3)ccc2O)[n-]o1 (nonaromatic ring conformer: 90.59986584466715 kcal/mol)

>  <smiles>  (38) 
Cc1cc(=NC(=O)c2cc(S(=O)(=O)N3CCCCC3)ccc2O)[nH]o1

>  <score_type>  (38) 
oracle

>  <origin>  (38) 
adgpu

>  <m_score__min__energy>  (38) 
-11.17

>  <m_primary>  (38) 
energy

$$$$
38:0
     RDKit          3D

 50 52  0  0  0  0  0  0  0  0999 V2000
   -0.6410   21.9640  -26.6570 C   0  0  0  0  0  0  0  0  0  0  0  0
   -1.4270   22.7660  -27.6590 C   0  0  0  0  0  0  0  0  0  0  0  0
   -1.1580   24.1370  -27.8090 C   0  0  0  0  0  0  0  0  0  0  0  0
   -1.8690   24.9040  -28.7330 C   0  0  0  0  0  0  0  0  0  0  0  0
   -2.8680   24.3240  -29.5150 C   0  0  0  0  0  0  0  0  0  0  0  0
   -3.5720   25.1400  -30.4620 N   0  0  0  0  0  0  0  0  0  0  0  0
   -4.9810   25.4020  -30.4590 C   0  0  0  0  0  0  0  0  0  0  0  0
   -5.3760   26.5980  -30.4700 O   0  0  0  0  0  0  0  0  0  0  0  0
   -5.9750   24.3140  -30.3890 C   0  0  0  0  0  0  0  0  0  0  0  0
   -6.8590   23.9780  -31.3970 C   0  0  0  0  0  0  0  0  0  0  0  0
   -7.6120   22.9350  -30.9000 C   0  0  0  0  0  0  0  0  0  0  0  0
   -8.8980   22.0910  -31.7470 S   0  0  0  0  0  0  0  0  0  0  0  0
   -9.5890   23.0550  -32.6700 O   0  0  0  0  0  0  0  0  0  0  0  0
   -9.9040   21.5950  -30.7440 O   0  0  0  0  0  0  0  0  0  0  0  0
   -8.2730   20.7520  -32.6800 N   0  0  0  0  0  0  0  0  0  0  0  0
   -6.7970   20.8300  -32.8180 C   0  0  0  0  0  0  0  0  0  0  0  0
   -6.0560   19.7940  -31.9580 C   0  0  0  0  0  0  0  0  0  0  0  0
   -6.4950   18.3600  -32.3280 C   0  0  0  0  0  0  0  0  0  0  0  0
   -6.1550   17.3870  -31.1920 C   0  0  0  0  0  0  0  0  0  0  0  0
   -7.9960   18.2850  -32.7040 C   0  0  0  0  0  0  0  0  0  0  0  0
   -8.7770   19.4740  -32.1350 C   0  0  0  0  0  0  0  0  0  0  0  0
   -7.1740   22.6830  -29.6170 C   0  0  0  0  0  0  0  0  0  0  0  0
   -6.1740   23.5290  -29.3090 N   0  0  0  0  0  0  0  0  0  0  0  0
   -3.1240   22.9470  -29.3990 C   0  0  0  0  0  0  0  0  0  0  0  0
   -2.4120   22.1600  -28.4770 C   0  0  0  0  0  0  0  0  0  0  0  0
   -2.7210   20.6910  -28.3700 C   0  0  0  0  0  0  0  0  0  0  0  0
   -0.9328   22.2617  -25.6391 H   0  0  0  0  0  0  0  0  0  0  0  0
   -0.8493   20.8934  -26.7998 H   0  0  0  0  0  0  0  0  0  0  0  0
    0.4336   22.1507  -26.7998 H   0  0  0  0  0  0  0  0  0  0  0  0
   -0.3797   24.6101  -27.1923 H   0  0  0  0  0  0  0  0  0  0  0  0
   -1.6399   25.9740  -28.8455 H   0  0  0  0  0  0  0  0  0  0  0  0
   -6.9442   24.4453  -32.3892 H   0  0  0  0  0  0  0  0  0  0  0  0
   -6.5345   20.6615  -33.8729 H   0  0  0  0  0  0  0  0  0  0  0  0
   -6.4871   21.8267  -32.4708 H   0  0  0  0  0  0  0  0  0  0  0  0
   -4.9734   19.8943  -32.1253 H   0  0  0  0  0  0  0  0  0  0  0  0
   -6.2982   19.9753  -30.9004 H   0  0  0  0  0  0  0  0  0  0  0  0
   -5.9320   18.0614  -33.2246 H   0  0  0  0  0  0  0  0  0  0  0  0
   -6.3271   17.8795  -30.2236 H   0  0  0  0  0  0  0  0  0  0  0  0
   -6.7949   16.4956  -31.2689 H   0  0  0  0  0  0  0  0  0  0  0  0
   -5.0992   17.0881  -31.2689 H   0  0  0  0  0  0  0  0  0  0  0  0
   -8.0906   18.2867  -33.7999 H   0  0  0  0  0  0  0  0  0  0  0  0
   -8.4133   17.3613  -32.2766 H   0  0  0  0  0  0  0  0  0  0  0  0
   -9.8394   19.3652  -32.3986 H   0  0  0  0  0  0  0  0  0  0  0  0
   -8.6487   19.4854  -31.0426 H   0  0  0  0  0  0  0  0  0  0  0  0
   -7.5796   21.9095  -28.9483 H   0  0  0  0  0  0  0  0  0  0  0  0
   -5.6770   23.5760  -28.3930 H   0  0  0  0  0  0  0  0  0  0  0  0
   -3.8895   22.4801  -30.0363 H   0  0  0  0  0  0  0  0  0  0  0  0
   -2.7811   20.4053  -27.3095 H   0  0  0  0  0  0  0  0  0  0  0  0
   -3.6828   20.4819  -28.8612 H   0  0  0  0  0  0  0  0  0  0  0  0
   -1.9250   20.1121  -28.8612 H   0  0  0  0  0  0  0  0  0  0  0  0
  1  2  1  0
  2  3  2  0
  3  4  1  0
  4  5  2  0
  5  6  1  0
  6  7  1  0
  7  8  2  0
  7  9  1  0
  9 10  2  0
 10 11  1  0
 11 12  1  0
 12 13  2  0
 12 14  2  0
 12 15  1  0
 15 16  1  0
 16 17  1  0
 17 18  1  0
 18 19  1  0
 18 20  1  0
 20 21  1  0
 11 22  2  0
 22 23  1  0
  5 24  1  0
 24 25  2  0
 25 26  1  0
 25  2  1  0
 23  9  1  0
 21 15  1  0
  1 27  1  0
  1 28  1  0
  1 29  1  0
  3 30  1  0
  4 31  1  0
 10 32  1  0
 16 33  1  0
 16 34  1  0
 17 35  1  0
 17 36  1  0
 18 37  1  0
 19 38  1  0
 19 39  1  0
 19 40  1  0
 20 41  1  0
 20 42  1  0
 21 43  1  0
 21 44  1  0
 22 45  1  0
 23 46  1  0
 24 47  1  0
 26 48  1  0
 26 49  1  0
 26 50  1  0
M  CHG  1   6  -1
M  END
>  <UniqueID>  (39) 
38

>  <SMILES>  (39) 
Cc1ccc([N-]C(=O)c2cc(S(=O)(=O)N3CCC(C)CC3)c[nH]2)cc1C

>  <Energy>  (39) 
82.45207645274834

>  <Genealogy>  (39) 
Cc1ccc([N-]C(=O)c2cc(S(=O)(=O)N3CCC(C)CC3)c[nH]2)cc1C (protonated)
Cc1ccc([N-]C(=O)c2cc(S(=O)(=O)N3CCC(C)CC3)c[nH]2)cc1C (3D coordinates assigned)
Cc1ccc([N-]C(=O)c2cc(S(=O)(=O)N3CCC(C)CC3)c[nH]2)cc1C (nonaromatic ring conformer: 82.45207645274834 kcal/mol)

>  <smiles>  (39) 
Cc1ccc(NC(=O)c2cc(S(=O)(=O)N3CCC(C)CC3)c[nH]2)cc1C

>  <score_type>  (39) 
oracle

>  <origin>  (39) 
adgpu

>  <m_score__min__energy>  (39) 
-11.48

>  <m_primary>  (39) 
energy

$$$$
39:0
     RDKit          3D

 59 62  0  0  0  0  0  0  0  0999 V2000
   -2.1740   20.4500  -30.9370 O   0  0  0  0  0  0  0  0  0  0  0  0
   -2.4020   21.6050  -30.4860 C   0  0  0  0  0  0  0  0  0  0  0  0
   -3.1120   22.5580  -31.2890 N   0  0  0  0  0  0  0  0  0  0  0  0
   -4.4080   23.0950  -30.9870 C   0  0  0  0  0  0  0  0  0  0  0  0
   -5.5290   22.2770  -31.1740 C   0  0  0  0  0  0  0  0  0  0  0  0
   -6.8170   22.7590  -30.9020 C   0  0  0  0  0  0  0  0  0  0  0  0
   -8.2230   21.7250  -31.1420 S   0  0  0  0  0  0  0  0  0  0  0  0
   -8.9950   22.1890  -32.3500 O   0  0  0  0  0  0  0  0  0  0  0  0
   -9.1030   21.8190  -29.9270 O   0  0  0  0  0  0  0  0  0  0  0  0
   -7.7090   20.0700  -31.3640 N   0  0  0  0  0  0  0  0  0  0  0  0
   -8.8570   19.1770  -31.5290 C   0  0  0  0  0  0  0  0  0  0  0  0
   -8.3630   17.9860  -32.3340 C   0  0  0  0  0  0  0  0  0  0  0  0
   -7.1330   18.4870  -33.0760 C   0  0  0  0  0  0  0  0  0  0  0  0
   -6.9110   19.9130  -32.5840 C   0  0  0  0  0  0  0  0  0  0  0  0
   -6.9830   24.0780  -30.4620 C   0  0  0  0  0  0  0  0  0  0  0  0
   -5.8720   24.9090  -30.2990 C   0  0  0  0  0  0  0  0  0  0  0  0
   -4.5870   24.4310  -30.5740 C   0  0  0  0  0  0  0  0  0  0  0  0
   -3.5060   25.3010  -30.4670 O   0  0  0  0  0  0  0  0  0  0  0  0
   -1.8510   22.0150  -29.1760 C   0  0  0  0  0  0  0  0  0  0  0  0
   -1.4290   23.3480  -29.0110 C   0  0  0  0  0  0  0  0  0  0  0  0
   -0.8420   23.7710  -27.8110 C   0  0  0  0  0  0  0  0  0  0  0  0
   -0.2970   25.4410  -27.6260 S   0  0  0  0  0  0  0  0  0  0  0  0
    1.1940   25.5020  -27.8140 O   0  0  0  0  0  0  0  0  0  0  0  0
   -0.9350   26.2890  -28.6920 O   0  0  0  0  0  0  0  0  0  0  0  0
   -0.7120   26.0830  -26.0550 N   0  0  0  0  0  0  0  0  0  0  0  0
    0.0590   25.3980  -25.0020 C   0  0  0  0  0  0  0  0  0  0  0  0
   -0.4730   25.7870  -23.6100 C   0  0  0  0  0  0  0  0  0  0  0  0
   -1.2190   27.1320  -23.6180 C   0  0  0  0  0  0  0  0  0  0  0  0
   -0.5630   28.1190  -24.5880 C   0  0  0  0  0  0  0  0  0  0  0  0
   -0.4700   27.5410  -26.0200 C   0  0  0  0  0  0  0  0  0  0  0  0
   -0.6760   22.8590  -26.7640 C   0  0  0  0  0  0  0  0  0  0  0  0
   -1.1050   21.5400  -26.9060 C   0  0  0  0  0  0  0  0  0  0  0  0
   -1.7110   21.1100  -28.0930 C   0  0  0  0  0  0  0  0  0  0  0  0
   -2.1850   19.7980  -28.1410 O   0  0  0  0  0  0  0  0  0  0  0  0
   -5.3978   21.2471  -31.5375 H   0  0  0  0  0  0  0  0  0  0  0  0
   -9.2254   18.8458  -30.5469 H   0  0  0  0  0  0  0  0  0  0  0  0
   -9.6877   19.6861  -32.0396 H   0  0  0  0  0  0  0  0  0  0  0  0
   -8.0978   17.1528  -31.6665 H   0  0  0  0  0  0  0  0  0  0  0  0
   -9.1328   17.6084  -33.0231 H   0  0  0  0  0  0  0  0  0  0  0  0
   -6.2606   17.8594  -32.8412 H   0  0  0  0  0  0  0  0  0  0  0  0
   -7.2716   18.4493  -34.1666 H   0  0  0  0  0  0  0  0  0  0  0  0
   -5.8458   20.0757  -32.3631 H   0  0  0  0  0  0  0  0  0  0  0  0
   -7.2108   20.6451  -33.3483 H   0  0  0  0  0  0  0  0  0  0  0  0
   -7.9910   24.4608  -30.2441 H   0  0  0  0  0  0  0  0  0  0  0  0
   -6.0086   25.9441  -29.9527 H   0  0  0  0  0  0  0  0  0  0  0  0
   -1.5617   24.0659  -29.8338 H   0  0  0  0  0  0  0  0  0  0  0  0
   -0.0333   24.3099  -25.1345 H   0  0  0  0  0  0  0  0  0  0  0  0
    1.1142   25.6992  -25.0784 H   0  0  0  0  0  0  0  0  0  0  0  0
   -1.1631   25.0031  -23.2646 H   0  0  0  0  0  0  0  0  0  0  0  0
    0.3923   25.8893  -22.9386 H   0  0  0  0  0  0  0  0  0  0  0  0
   -2.2612   26.9632  -23.9269 H   0  0  0  0  0  0  0  0  0  0  0  0
   -1.1811   27.5593  -22.6051 H   0  0  0  0  0  0  0  0  0  0  0  0
   -1.1604   29.0423  -24.6148 H   0  0  0  0  0  0  0  0  0  0  0  0
    0.4587   28.3194  -24.2331 H   0  0  0  0  0  0  0  0  0  0  0  0
   -1.2203   28.0391  -26.6516 H   0  0  0  0  0  0  0  0  0  0  0  0
    0.5504   27.7210  -26.3892 H   0  0  0  0  0  0  0  0  0  0  0  0
   -0.2050   23.1836  -25.8244 H   0  0  0  0  0  0  0  0  0  0  0  0
   -0.9661   20.8300  -26.0774 H   0  0  0  0  0  0  0  0  0  0  0  0
   -2.4360   19.3280  -29.0000 H   0  0  0  0  0  0  0  0  0  0  0  0
  1  2  2  0
  2  3  1  0
  3  4  1  0
  4  5  2  0
  5  6  1  0
  6  7  1  0
  7  8  2  0
  7  9  2  0
  7 10  1  0
 10 11  1  0
 11 12  1  0
 12 13  1  0
 13 14  1  0
  6 15  2  0
 15 16  1  0
 16 17  2  0
 17 18  1  0
  2 19  1  0
 19 20  2  0
 20 21  1  0
 21 22  1  0
 22 23  2  0
 22 24  2  0
 22 25  1  0
 25 26  1  0
 26 27  1  0
 27 28  1  0
 28 29  1  0
 29 30  1  0
 21 31  2  0
 31 32  1  0
 32 33  2  0
 33 34  1  0
 17  4  1  0
 33 19  1  0
 14 10  1  0
 30 25  1  0
  5 35  1  0
 11 36  1  0
 11 37  1  0
 12 38  1  0
 12 39  1  0
 13 40  1  0
 13 41  1  0
 14 42  1  0
 14 43  1  0
 15 44  1  0
 16 45  1  0
 20 46  1  0
 26 47  1  0
 26 48  1  0
 27 49  1  0
 27 50  1  0
 28 51  1  0
 28 52  1  0
 29 53  1  0
 29 54  1  0
 30 55  1  0
 30 56  1  0
 31 57  1  0
 32 58  1  0
 34 59  1  0
M  CHG  2   3  -1  18  -1
M  END
>  <UniqueID>  (40) 
39

>  <SMILES>  (40) 
O=C([N-]c1cc(S(=O)(=O)N2CCCC2)ccc1[O-])c1cc(S(=O)(=O)N2CCCCC2)ccc1O

>  <Energy>  (40) 
74.95548737046406

>  <Genealogy>  (40) 
O=C([N-]c1cc(S(=O)(=O)N2CCCC2)ccc1[O-])c1cc(S(=O)(=O)N2CCCCC2)ccc1O (protonated)
O=C([N-]c1cc(S(=O)(=O)N2CCCC2)ccc1[O-])c1cc(S(=O)(=O)N2CCCCC2)ccc1O (3D coordinates assigned)
O=C([N-]c1cc(S(=O)(=O)N2CCCC2)ccc1[O-])c1cc(S(=O)(=O)N2CCCCC2)ccc1O (nonaromatic ring conformer: 74.95548737046406 kcal/mol)

>  <smiles>  (40) 
O=C(Nc1cc(S(=O)(=O)N2CCCC2)ccc1O)c1cc(S(=O)(=O)N2CCCCC2)ccc1O

>  <score_type>  (40) 
oracle

>  <origin>  (40) 
adgpu

>  <m_score__min__energy>  (40) 
-14.75

>  <m_primary>  (40) 
energy

$$$$
40:0
     RDKit          3D

 52 56  0  0  0  0  0  0  0  0999 V2000
   -4.3700   16.2420  -34.7110 O   0  0  0  0  0  0  0  0  0  0  0  0
   -4.7710   15.8270  -33.5890 C   0  0  0  0  0  0  0  0  0  0  0  0
   -5.9970   16.3380  -33.0400 N   0  0  0  0  0  0  0  0  0  0  0  0
   -6.8450   17.2780  -33.7700 C   0  0  0  0  0  0  0  0  0  0  0  0
   -6.7680   18.6440  -33.1410 C   0  0  0  0  0  0  0  0  0  0  0  0
   -7.9050   19.2290  -32.5610 C   0  0  0  0  0  0  0  0  0  0  0  0
   -7.8340   20.5140  -32.0130 C   0  0  0  0  0  0  0  0  0  0  0  0
   -6.6260   21.2240  -32.0360 C   0  0  0  0  0  0  0  0  0  0  0  0
   -6.5400   22.8580  -31.3900 S   0  0  0  0  0  0  0  0  0  0  0  0
   -6.6490   23.8680  -32.4990 O   0  0  0  0  0  0  0  0  0  0  0  0
   -7.6810   23.0820  -30.4360 O   0  0  0  0  0  0  0  0  0  0  0  0
   -5.0000   23.0580  -30.5630 C   0  0  0  0  0  0  0  0  0  0  0  0
   -4.9750   23.5290  -29.2440 C   0  0  0  0  0  0  0  0  0  0  0  0
   -3.7560   23.7230  -28.5880 C   0  0  0  0  0  0  0  0  0  0  0  0
   -2.5450   23.4390  -29.2400 C   0  0  0  0  0  0  0  0  0  0  0  0
   -1.2940   23.6670  -28.5630 N   0  0  0  0  0  0  0  0  0  0  0  0
   -0.6820   22.6250  -27.9920 N   0  0  0  0  0  0  0  0  0  0  0  0
    0.4950   22.7600  -27.3320 C   0  0  0  0  0  0  0  0  0  0  0  0
    1.0770   24.0220  -27.2550 C   0  0  0  0  0  0  0  0  0  0  0  0
    2.1670   24.1870  -26.6470 O   0  0  0  0  0  0  0  0  0  0  0  0
    0.4600   25.0730  -27.8470 N   0  0  0  0  0  0  0  0  0  0  0  0
   -0.7160   24.9100  -28.5050 C   0  0  0  0  0  0  0  0  0  0  0  0
   -1.2470   25.9030  -29.0720 O   0  0  0  0  0  0  0  0  0  0  0  0
   -2.5740   22.9860  -30.5710 C   0  0  0  0  0  0  0  0  0  0  0  0
   -3.7940   22.7960  -31.2260 C   0  0  0  0  0  0  0  0  0  0  0  0
   -5.4920   20.6440  -32.6170 C   0  0  0  0  0  0  0  0  0  0  0  0
   -5.5620   19.3610  -33.1680 C   0  0  0  0  0  0  0  0  0  0  0  0
   -3.9560   14.8300  -32.8540 C   0  0  0  0  0  0  0  0  0  0  0  0
   -4.5870   13.8750  -32.0160 C   0  0  0  0  0  0  0  0  0  0  0  0
   -3.8280   12.9290  -31.3070 C   0  0  0  0  0  0  0  0  0  0  0  0
   -2.4470   12.9730  -31.4550 C   0  0  0  0  0  0  0  0  0  0  0  0
   -1.5470   12.1700  -30.8610 N   0  0  0  0  0  0  0  0  0  0  0  0
   -0.3810   12.6680  -31.3490 C   0  0  0  0  0  0  0  0  0  0  0  0
   -0.5590   13.7150  -32.1910 N   0  0  0  0  0  0  0  0  0  0  0  0
   -1.8650   13.8830  -32.2390 N   0  0  0  0  0  0  0  0  0  0  0  0
   -2.5470   14.8180  -32.9470 C   0  0  0  0  0  0  0  0  0  0  0  0
   -6.2750   16.0930  -32.0640 H   0  0  0  0  0  0  0  0  0  0  0  0
   -6.5046   17.3391  -34.8142 H   0  0  0  0  0  0  0  0  0  0  0  0
   -7.8861   16.9246  -33.7345 H   0  0  0  0  0  0  0  0  0  0  0  0
   -8.8549   18.6748  -32.5375 H   0  0  0  0  0  0  0  0  0  0  0  0
   -8.7288   20.9685  -31.5628 H   0  0  0  0  0  0  0  0  0  0  0  0
   -5.9185   23.7471  -28.7223 H   0  0  0  0  0  0  0  0  0  0  0  0
   -3.7452   24.1004  -27.5548 H   0  0  0  0  0  0  0  0  0  0  0  0
    0.9802   21.8893  -26.8667 H   0  0  0  0  0  0  0  0  0  0  0  0
   -1.6315   22.7801  -31.0995 H   0  0  0  0  0  0  0  0  0  0  0  0
   -3.8073   22.4392  -32.2665 H   0  0  0  0  0  0  0  0  0  0  0  0
   -4.5429   21.1995  -32.6401 H   0  0  0  0  0  0  0  0  0  0  0  0
   -4.6679   18.9116  -33.6247 H   0  0  0  0  0  0  0  0  0  0  0  0
   -5.6828   13.8752  -31.9203 H   0  0  0  0  0  0  0  0  0  0  0  0
   -4.3089   12.1815  -30.6590 H   0  0  0  0  0  0  0  0  0  0  0  0
    0.6075   12.2625  -31.0872 H   0  0  0  0  0  0  0  0  0  0  0  0
   -2.0165   15.5474  -33.5768 H   0  0  0  0  0  0  0  0  0  0  0  0
  1  2  2  0
  2  3  1  0
  3  4  1  0
  4  5  1  0
  5  6  2  0
  6  7  1  0
  7  8  2  0
  8  9  1  0
  9 10  2  0
  9 11  2  0
  9 12  1  0
 12 13  2  0
 13 14  1  0
 14 15  2  0
 15 16  1  0
 16 17  1  0
 17 18  2  0
 18 19  1  0
 19 20  2  0
 19 21  1  0
 21 22  1  0
 22 23  2  0
 15 24  1  0
 24 25  2  0
  8 26  1  0
 26 27  2  0
  2 28  1  0
 28 29  1  0
 29 30  2  0
 30 31  1  0
 31 32  2  0
 32 33  1  0
 33 34  2  0
 34 35  1  0
 35 36  1  0
 27  5  1  0
 36 28  2  0
 25 12  1  0
 35 31  1  0
 22 16  1  0
  3 37  1  0
  4 38  1  0
  4 39  1  0
  6 40  1  0
  7 41  1  0
 13 42  1  0
 14 43  1  0
 18 44  1  0
 24 45  1  0
 25 46  1  0
 26 47  1  0
 27 48  1  0
 29 49  1  0
 30 50  1  0
 33 51  1  0
 36 52  1  0
M  CHG  1  21  -1
M  END
>  <UniqueID>  (41) 
40

>  <SMILES>  (41) 
O=C(NCc1ccc(S(=O)(=O)c2ccc(-n3ncc(=O)[n-]c3=O)cc2)cc1)c1ccc2ncnn2c1

>  <Energy>  (41) 
107.80062923314047

>  <Genealogy>  (41) 
O=C(NCc1ccc(S(=O)(=O)c2ccc(-n3ncc(=O)[n-]c3=O)cc2)cc1)c1ccc2ncnn2c1 (protonated)
O=C(NCc1ccc(S(=O)(=O)c2ccc(-n3ncc(=O)[n-]c3=O)cc2)cc1)c1ccc2ncnn2c1 (3D coordinates assigned)
O=C(NCc1ccc(S(=O)(=O)c2ccc(-n3ncc(=O)[n-]c3=O)cc2)cc1)c1ccc2ncnn2c1 (optimized conformer: 107.80062923314047 kcal/mol)

>  <smiles>  (41) 
O=C(NCc1ccc(S(=O)(=O)c2ccc(-n3ncc(=O)[nH]c3=O)cc2)cc1)c1ccc2ncnn2c1

>  <score_type>  (41) 
oracle

>  <origin>  (41) 
adgpu

>  <m_score__min__energy>  (41) 
-10.859999999999999

>  <m_primary>  (41) 
energy

$$$$
41:0
     RDKit          3D

 50 52  0  0  0  0  0  0  0  0999 V2000
   -1.8050   19.4180  -33.6220 C   0  0  0  0  0  0  0  0  0  0  0  0
   -1.5310   20.1820  -32.3600 C   0  0  0  0  0  0  0  0  0  0  0  0
   -1.7670   21.5580  -32.3060 C   0  0  0  0  0  0  0  0  0  0  0  0
   -1.4840   22.2750  -31.1430 C   0  0  0  0  0  0  0  0  0  0  0  0
   -0.9490   21.6360  -30.0150 C   0  0  0  0  0  0  0  0  0  0  0  0
   -0.6260   22.6420  -28.5860 S   0  0  0  0  0  0  0  0  0  0  0  0
   -0.3600   24.0680  -28.9760 O   0  0  0  0  0  0  0  0  0  0  0  0
    0.6230   22.1170  -27.9320 O   0  0  0  0  0  0  0  0  0  0  0  0
   -1.9430   22.5340  -27.4290 N   0  0  0  0  0  0  0  0  0  0  0  0
   -3.0340   21.6280  -27.8500 C   0  0  0  0  0  0  0  0  0  0  0  0
   -4.1730   22.3450  -28.5960 C   0  0  0  0  0  0  0  0  0  0  0  0
   -3.6880   23.6080  -29.1630 N   0  0  0  0  0  0  0  0  0  0  0  0
   -4.9070   24.3160  -30.1880 S   0  0  0  0  0  0  0  0  0  0  0  0
   -5.9320   25.0380  -29.3550 O   0  0  0  0  0  0  0  0  0  0  0  0
   -4.2780   25.2970  -31.1370 O   0  0  0  0  0  0  0  0  0  0  0  0
   -5.6700   23.0350  -31.1250 C   0  0  0  0  0  0  0  0  0  0  0  0
   -7.0620   22.8880  -31.0880 C   0  0  0  0  0  0  0  0  0  0  0  0
   -7.6880   21.9060  -31.8590 C   0  0  0  0  0  0  0  0  0  0  0  0
   -6.9250   21.0590  -32.6760 C   0  0  0  0  0  0  0  0  0  0  0  0
   -7.5650   20.0550  -33.4680 N   0  0  0  0  0  0  0  0  0  0  0  0
   -5.5320   21.2060  -32.7130 C   0  0  0  0  0  0  0  0  0  0  0  0
   -4.9050   22.1920  -31.9430 C   0  0  0  0  0  0  0  0  0  0  0  0
   -3.3170   24.5430  -28.0880 C   0  0  0  0  0  0  0  0  0  0  0  0
   -2.4290   23.8650  -27.0190 C   0  0  0  0  0  0  0  0  0  0  0  0
   -0.6650   20.2460  -30.0760 C   0  0  0  0  0  0  0  0  0  0  0  0
   -0.0680   19.4900  -28.9180 C   0  0  0  0  0  0  0  0  0  0  0  0
   -0.9690   19.5350  -31.2520 C   0  0  0  0  0  0  0  0  0  0  0  0
   -2.1664   18.4102  -33.3694 H   0  0  0  0  0  0  0  0  0  0  0  0
   -2.5701   19.9450  -34.2109 H   0  0  0  0  0  0  0  0  0  0  0  0
   -0.8793   19.3386  -34.2109 H   0  0  0  0  0  0  0  0  0  0  0  0
   -2.1776   22.0782  -33.1840 H   0  0  0  0  0  0  0  0  0  0  0  0
   -1.6832   23.3563  -31.1104 H   0  0  0  0  0  0  0  0  0  0  0  0
   -2.6118   20.8597  -28.5145 H   0  0  0  0  0  0  0  0  0  0  0  0
   -3.4672   21.1961  -26.9358 H   0  0  0  0  0  0  0  0  0  0  0  0
   -4.5397   21.6991  -29.4074 H   0  0  0  0  0  0  0  0  0  0  0  0
   -4.9885   22.5575  -27.8890 H   0  0  0  0  0  0  0  0  0  0  0  0
   -7.6654   23.5491  -30.4486 H   0  0  0  0  0  0  0  0  0  0  0  0
   -8.7820   21.7966  -31.8254 H   0  0  0  0  0  0  0  0  0  0  0  0
   -8.0850   19.2690  -33.0170 H   0  0  0  0  0  0  0  0  0  0  0  0
   -7.5220   20.0890  -34.5110 H   0  0  0  0  0  0  0  0  0  0  0  0
   -4.9284   20.5431  -33.3504 H   0  0  0  0  0  0  0  0  0  0  0  0
   -3.8115   22.3056  -31.9796 H   0  0  0  0  0  0  0  0  0  0  0  0
   -2.7652   25.3880  -28.5256 H   0  0  0  0  0  0  0  0  0  0  0  0
   -4.2407   24.8854  -27.5985 H   0  0  0  0  0  0  0  0  0  0  0  0
   -1.5597   24.5106  -26.8254 H   0  0  0  0  0  0  0  0  0  0  0  0
   -3.0472   23.7255  -26.1199 H   0  0  0  0  0  0  0  0  0  0  0  0
   -0.4168   19.9317  -27.9729 H   0  0  0  0  0  0  0  0  0  0  0  0
   -0.3805   18.4365  -28.9677 H   0  0  0  0  0  0  0  0  0  0  0  0
    1.0293   19.5497  -28.9677 H   0  0  0  0  0  0  0  0  0  0  0  0
   -0.7623   18.4557  -31.3017 H   0  0  0  0  0  0  0  0  0  0  0  0
  1  2  1  0
  2  3  2  0
  3  4  1  0
  4  5  2  0
  5  6  1  0
  6  7  2  0
  6  8  2  0
  6  9  1  0
  9 10  1  0
 10 11  1  0
 11 12  1  0
 12 13  1  0
 13 14  2  0
 13 15  2  0
 13 16  1  0
 16 17  2  0
 17 18  1  0
 18 19  2  0
 19 20  1  0
 19 21  1  0
 21 22  2  0
 12 23  1  0
 23 24  1  0
  5 25  1  0
 25 26  1  0
 25 27  2  0
 27  2  1  0
 24  9  1  0
 22 16  1  0
  1 28  1  0
  1 29  1  0
  1 30  1  0
  3 31  1  0
  4 32  1  0
 10 33  1  0
 10 34  1  0
 11 35  1  0
 11 36  1  0
 17 37  1  0
 18 38  1  0
 20 39  1  0
 20 40  1  0
 21 41  1  0
 22 42  1  0
 23 43  1  0
 23 44  1  0
 24 45  1  0
 24 46  1  0
 26 47  1  0
 26 48  1  0
 26 49  1  0
 27 50  1  0
M  END
>  <UniqueID>  (42) 
41

>  <SMILES>  (42) 
Cc1ccc(S(=O)(=O)N2CCN(S(=O)(=O)c3ccc(N)cc3)CC2)c(C)c1

>  <Energy>  (42) 
59.03746052483293

>  <Genealogy>  (42) 
Cc1ccc(S(=O)(=O)N2CCN(S(=O)(=O)c3ccc(N)cc3)CC2)c(C)c1 (3D coordinates assigned)
Cc1ccc(S(=O)(=O)N2CCN(S(=O)(=O)c3ccc(N)cc3)CC2)c(C)c1 (nonaromatic ring conformer: 59.03746052483293 kcal/mol)

>  <smiles>  (42) 
Cc1ccc(S(=O)(=O)N2CCN(S(=O)(=O)c3ccc(N)cc3)CC2)c(C)c1

>  <score_type>  (42) 
oracle

>  <origin>  (42) 
adgpu

>  <m_score__min__energy>  (42) 
-10.26

>  <m_primary>  (42) 
energy

$$$$
42:0
     RDKit          3D

 50 53  0  0  0  0  0  0  0  0999 V2000
   -1.6000   25.5840  -28.9320 N   0  0  0  0  0  0  0  0  0  0  0  0
   -0.5660   24.6270  -27.9290 S   0  0  0  0  0  0  0  0  0  0  0  0
   -0.4480   25.2840  -26.5830 O   0  0  0  0  0  0  0  0  0  0  0  0
    0.7910   24.5510  -28.5710 O   0  0  0  0  0  0  0  0  0  0  0  0
   -1.2170   22.9970  -27.7270 C   0  0  0  0  0  0  0  0  0  0  0  0
   -1.0670   22.3320  -26.4990 C   0  0  0  0  0  0  0  0  0  0  0  0
   -1.5640   21.0380  -26.3300 C   0  0  0  0  0  0  0  0  0  0  0  0
   -2.2030   20.3910  -27.3890 C   0  0  0  0  0  0  0  0  0  0  0  0
   -2.3530   21.0390  -28.6170 C   0  0  0  0  0  0  0  0  0  0  0  0
   -1.8800   22.3530  -28.7920 C   0  0  0  0  0  0  0  0  0  0  0  0
   -1.9940   23.0250  -30.0570 N   0  0  0  0  0  0  0  0  0  0  0  0
   -3.2020   23.4070  -30.7260 C   0  0  0  0  0  0  0  0  0  0  0  0
   -3.5000   24.6250  -30.8570 O   0  0  0  0  0  0  0  0  0  0  0  0
   -4.0800   22.3510  -31.2740 C   0  0  0  0  0  0  0  0  0  0  0  0
   -3.7050   21.3080  -32.0140 C   0  0  0  0  0  0  0  0  0  0  0  0
   -2.3180   20.8900  -32.3150 C   0  0  0  0  0  0  0  0  0  0  0  0
   -1.6990   19.9050  -31.5350 C   0  0  0  0  0  0  0  0  0  0  0  0
   -0.3770   19.5340  -31.7890 C   0  0  0  0  0  0  0  0  0  0  0  0
    0.3450   20.1470  -32.8170 C   0  0  0  0  0  0  0  0  0  0  0  0
    1.6740   19.7850  -33.0110 O   0  0  0  0  0  0  0  0  0  0  0  0
   -0.2630   21.1380  -33.6150 C   0  0  0  0  0  0  0  0  0  0  0  0
    0.4660   21.8070  -34.7170 C   0  0  0  0  0  0  0  0  0  0  0  0
    1.7770   21.3860  -35.1010 N   0  0  0  0  0  0  0  0  0  0  0  0
   -0.0890   22.7410  -35.3550 O   0  0  0  0  0  0  0  0  0  0  0  0
   -1.5880   21.5190  -33.3370 C   0  0  0  0  0  0  0  0  0  0  0  0
   -4.9030   20.5500  -32.5000 C   0  0  0  0  0  0  0  0  0  0  0  0
   -6.0750   21.2380  -31.7740 C   0  0  2  0  0  0  0  0  0  0  0  0
   -7.1720   21.8030  -32.6780 C   0  0  0  0  0  0  0  0  0  0  0  0
   -7.5370   23.1470  -32.0480 C   0  0  0  0  0  0  0  0  0  0  0  0
   -6.2920   23.5930  -31.2850 C   0  0  0  0  0  0  0  0  0  0  0  0
   -5.4940   22.3890  -31.1200 N   0  0  0  0  0  0  0  0  0  0  0  0
   -1.6060   25.1390  -29.8770 H   0  0  0  0  0  0  0  0  0  0  0  0
   -0.5547   22.8338  -25.6649 H   0  0  0  0  0  0  0  0  0  0  0  0
   -1.4519   20.5282  -25.3617 H   0  0  0  0  0  0  0  0  0  0  0  0
   -2.5889   19.3695  -27.2562 H   0  0  0  0  0  0  0  0  0  0  0  0
   -2.8440   20.5191  -29.4528 H   0  0  0  0  0  0  0  0  0  0  0  0
   -2.2565   19.4218  -30.7191 H   0  0  0  0  0  0  0  0  0  0  0  0
    0.0992   18.7544  -31.1762 H   0  0  0  0  0  0  0  0  0  0  0  0
    2.1960   20.5090  -34.7220 H   0  0  0  0  0  0  0  0  0  0  0  0
    2.2950   21.9030  -35.8450 H   0  0  0  0  0  0  0  0  0  0  0  0
   -2.0584   22.3193  -33.9271 H   0  0  0  0  0  0  0  0  0  0  0  0
   -5.0091   20.6380  -33.5913 H   0  0  0  0  0  0  0  0  0  0  0  0
   -4.8427   19.4711  -32.2945 H   0  0  0  0  0  0  0  0  0  0  0  0
   -6.5449   20.4795  -31.1307 H   0  0  0  0  0  0  0  0  0  0  0  0
   -6.7968   21.9435  -33.7025 H   0  0  0  0  0  0  0  0  0  0  0  0
   -8.0381   21.1291  -32.7539 H   0  0  0  0  0  0  0  0  0  0  0  0
   -7.7930   23.8798  -32.8274 H   0  0  0  0  0  0  0  0  0  0  0  0
   -8.4119   23.0628  -31.3866 H   0  0  0  0  0  0  0  0  0  0  0  0
   -5.7366   24.3479  -31.8608 H   0  0  0  0  0  0  0  0  0  0  0  0
   -6.5452   24.0539  -30.3188 H   0  0  0  0  0  0  0  0  0  0  0  0
  1  2  1  0
  2  3  2  0
  2  4  2  0
  2  5  1  0
  5  6  2  0
  6  7  1  0
  7  8  2  0
  8  9  1  0
  9 10  2  0
 10 11  1  0
 11 12  1  0
 12 13  2  0
 12 14  1  0
 14 15  2  0
 15 16  1  0
 16 17  2  0
 17 18  1  0
 18 19  2  0
 19 20  1  0
 19 21  1  0
 21 22  1  0
 22 23  1  0
 22 24  2  0
 21 25  2  0
 15 26  1  0
 26 27  1  0
 27 28  1  0
 28 29  1  0
 29 30  1  0
 30 31  1  0
 10  5  1  0
 31 14  1  0
 25 16  1  0
 31 27  1  0
  1 32  1  0
  6 33  1  0
  7 34  1  0
  8 35  1  0
  9 36  1  0
 17 37  1  0
 18 38  1  0
 23 39  1  0
 23 40  1  0
 25 41  1  0
 26 42  1  0
 26 43  1  0
 27 44  1  1
 28 45  1  0
 28 46  1  0
 29 47  1  0
 29 48  1  0
 30 49  1  0
 30 50  1  0
M  CHG  3   1  -1  11  -1  20  -1
M  END
>  <UniqueID>  (43) 
42

>  <SMILES>  (43) 
[NH-]S(=O)(=O)c1ccccc1[N-]C(=O)C1=C(c2ccc([O-])c(C(N)=O)c2)C[C@@H]2CCCN12

>  <Energy>  (43) 
83.50228424650633

>  <Genealogy>  (43) 
[NH-]S(=O)(=O)c1ccccc1[N-]C(=O)C1=C(c2ccc([O-])c(C(N)=O)c2)CC2CCCN12 (protonated)
[NH-]S(=O)(=O)c1ccccc1[N-]C(=O)C1=C(c2ccc([O-])c(C(N)=O)c2)C[C@@H]2CCCN12 (chirality)
[NH-]S(=O)(=O)c1ccccc1[N-]C(=O)C1=C(c2ccc([O-])c(C(N)=O)c2)C[C@@H]2CCCN12 (3D coordinates assigned)
[NH-]S(=O)(=O)c1ccccc1[N-]C(=O)C1=C(c2ccc([O-])c(C(N)=O)c2)C[C@@H]2CCCN12 (nonaromatic ring conformer: 83.50228424650633 kcal/mol)

>  <smiles>  (43) 
NC(=O)c1cc(C2=C(C(=O)Nc3ccccc3S(N)(=O)=O)N3CCCC3C2)ccc1O

>  <score_type>  (43) 
oracle

>  <origin>  (43) 
adgpu

>  <m_score__min__energy>  (43) 
-12.43

>  <m_primary>  (43) 
energy

$$$$
43:0
     RDKit          3D

 48 50  0  0  0  0  0  0  0  0999 V2000
   -6.2380   20.5980  -31.6380 C   0  0  0  0  0  0  0  0  0  0  0  0
   -7.6300   21.0960  -31.8810 C   0  0  0  0  0  0  0  0  0  0  0  0
   -8.0810   22.3950  -31.7300 C   0  0  0  0  0  0  0  0  0  0  0  0
   -7.2920   23.6090  -31.3440 C   0  0  0  0  0  0  0  0  0  0  0  0
   -6.0040   23.6040  -32.0400 N   0  0  0  0  0  0  0  0  0  0  0  0
   -4.7070   23.7290  -30.8870 S   0  0  0  0  0  0  0  0  0  0  0  0
   -4.2210   25.1490  -30.8500 O   0  0  0  0  0  0  0  0  0  0  0  0
   -5.2580   23.3690  -29.5360 O   0  0  0  0  0  0  0  0  0  0  0  0
   -3.3500   22.6720  -31.3390 C   0  0  0  0  0  0  0  0  0  0  0  0
   -3.4490   21.9500  -32.5400 C   0  0  0  0  0  0  0  0  0  0  0  0
   -2.4490   21.0530  -32.9190 C   0  0  0  0  0  0  0  0  0  0  0  0
   -1.3340   20.8650  -32.1060 C   0  0  0  0  0  0  0  0  0  0  0  0
   -1.2020   21.5920  -30.9220 C   0  0  0  0  0  0  0  0  0  0  0  0
   -2.1880   22.5150  -30.5370 C   0  0  0  0  0  0  0  0  0  0  0  0
   -1.9470   23.3080  -29.3160 C   0  0  0  0  0  0  0  0  0  0  0  0
   -2.0310   24.5630  -29.3870 O   0  0  0  0  0  0  0  0  0  0  0  0
   -1.6620   22.6760  -28.0510 N   0  0  0  0  0  0  0  0  0  0  0  0
   -1.1620   23.4970  -26.9420 C   0  0  0  0  0  0  0  0  0  0  0  0
   -0.4320   22.6200  -25.9220 C   0  0  0  0  0  0  0  0  0  0  0  0
   -1.2430   21.5320  -25.5270 O   0  0  0  0  0  0  0  0  0  0  0  0
   -1.4510   20.6720  -26.6310 C   0  0  0  0  0  0  0  0  0  0  0  0
   -2.2610   21.3750  -27.7260 C   0  0  0  0  0  0  0  0  0  0  0  0
   -9.4430   22.3310  -31.9550 C   0  0  0  0  0  0  0  0  0  0  0  0
   -9.7920   21.0560  -32.2190 N   0  0  0  0  0  0  0  0  0  0  0  0
   -8.6930   20.3170  -32.1690 N   0  0  0  0  0  0  0  0  0  0  0  0
   -8.6870   18.8710  -32.3630 C   0  0  0  0  0  0  0  0  0  0  0  0
   -6.0557   20.5328  -30.5552 H   0  0  0  0  0  0  0  0  0  0  0  0
   -6.1207   19.6021  -32.0902 H   0  0  0  0  0  0  0  0  0  0  0  0
   -5.5156   21.2934  -32.0902 H   0  0  0  0  0  0  0  0  0  0  0  0
   -7.8537   24.5132  -31.6213 H   0  0  0  0  0  0  0  0  0  0  0  0
   -7.1185   23.5997  -30.2578 H   0  0  0  0  0  0  0  0  0  0  0  0
   -5.8990   22.6970  -32.5480 H   0  0  0  0  0  0  0  0  0  0  0  0
   -4.3251   22.0933  -33.1895 H   0  0  0  0  0  0  0  0  0  0  0  0
   -2.5418   20.4936  -33.8616 H   0  0  0  0  0  0  0  0  0  0  0  0
   -0.5569   20.1430  -32.3972 H   0  0  0  0  0  0  0  0  0  0  0  0
   -0.3181   21.4408  -30.2849 H   0  0  0  0  0  0  0  0  0  0  0  0
   -0.4664   24.2533  -27.3347 H   0  0  0  0  0  0  0  0  0  0  0  0
   -2.0127   23.9894  -26.4482 H   0  0  0  0  0  0  0  0  0  0  0  0
    0.4938   22.2347  -26.3741 H   0  0  0  0  0  0  0  0  0  0  0  0
   -0.1996   23.2279  -25.0352 H   0  0  0  0  0  0  0  0  0  0  0  0
   -0.4760   20.3705  -27.0415 H   0  0  0  0  0  0  0  0  0  0  0  0
   -2.0128   19.7903  -26.2891 H   0  0  0  0  0  0  0  0  0  0  0  0
   -2.2729   20.7460  -28.6283 H   0  0  0  0  0  0  0  0  0  0  0  0
   -3.2870   21.5354  -27.3633 H   0  0  0  0  0  0  0  0  0  0  0  0
  -10.1340   23.1863  -31.9236 H   0  0  0  0  0  0  0  0  0  0  0  0
   -8.6849   18.3697  -31.3839 H   0  0  0  0  0  0  0  0  0  0  0  0
   -9.5839   18.5728  -32.9257 H   0  0  0  0  0  0  0  0  0  0  0  0
   -7.7876   18.5803  -32.9257 H   0  0  0  0  0  0  0  0  0  0  0  0
  1  2  1  0
  2  3  2  0
  3  4  1  0
  4  5  1  0
  5  6  1  0
  6  7  2  0
  6  8  2  0
  6  9  1  0
  9 10  2  0
 10 11  1  0
 11 12  2  0
 12 13  1  0
 13 14  2  0
 14 15  1  0
 15 16  2  0
 15 17  1  0
 17 18  1  0
 18 19  1  0
 19 20  1  0
 20 21  1  0
 21 22  1  0
  3 23  1  0
 23 24  2  0
 24 25  1  0
 25 26  1  0
 25  2  1  0
 14  9  1  0
 22 17  1  0
  1 27  1  0
  1 28  1  0
  1 29  1  0
  4 30  1  0
  4 31  1  0
  5 32  1  0
 10 33  1  0
 11 34  1  0
 12 35  1  0
 13 36  1  0
 18 37  1  0
 18 38  1  0
 19 39  1  0
 19 40  1  0
 21 41  1  0
 21 42  1  0
 22 43  1  0
 22 44  1  0
 23 45  1  0
 26 46  1  0
 26 47  1  0
 26 48  1  0
M  END
>  <UniqueID>  (44) 
43

>  <SMILES>  (44) 
Cc1c(CNS(=O)(=O)c2ccccc2C(=O)N2CCOCC2)cnn1C

>  <Energy>  (44) 
83.98702359415763

>  <Genealogy>  (44) 
Cc1c(CNS(=O)(=O)c2ccccc2C(=O)N2CCOCC2)cnn1C (3D coordinates assigned)
Cc1c(CNS(=O)(=O)c2ccccc2C(=O)N2CCOCC2)cnn1C (nonaromatic ring conformer: 83.98702359415763 kcal/mol)

>  <smiles>  (44) 
Cc1c(CNS(=O)(=O)c2ccccc2C(=O)N2CCOCC2)cnn1C

>  <score_type>  (44) 
oracle

>  <origin>  (44) 
adgpu

>  <m_score__min__energy>  (44) 
-9.1699999999999999

>  <m_primary>  (44) 
energy

$$$$
44:0
     RDKit          3D

 66 69  0  0  0  0  0  0  0  0999 V2000
   -2.9760   17.6610  -34.2210 C   0  0  0  0  0  0  0  0  0  0  0  0
   -4.3230   17.8300  -33.5830 C   0  0  0  0  0  0  0  0  0  0  0  0
   -4.8500   16.8190  -32.7710 C   0  0  0  0  0  0  0  0  0  0  0  0
   -6.1140   16.9640  -32.1990 C   0  0  0  0  0  0  0  0  0  0  0  0
   -6.8850   18.1130  -32.4400 C   0  0  0  0  0  0  0  0  0  0  0  0
   -8.2350   18.2350  -31.7820 C   0  0  0  0  0  0  0  0  0  0  0  0
   -6.3670   19.1350  -33.2780 C   0  0  0  0  0  0  0  0  0  0  0  0
   -7.1230   20.4180  -33.5530 C   0  0  0  0  0  0  0  0  0  0  0  0
   -7.1820   21.2910  -32.3240 C   0  0  0  0  0  0  0  0  0  0  0  0
   -8.3910   21.4720  -31.6380 C   0  0  0  0  0  0  0  0  0  0  0  0
   -8.4370   22.2650  -30.4900 C   0  0  0  0  0  0  0  0  0  0  0  0
   -7.2810   22.8960  -30.0230 C   0  0  0  0  0  0  0  0  0  0  0  0
   -6.0620   22.7490  -30.7110 C   0  0  0  0  0  0  0  0  0  0  0  0
   -4.8250   23.4080  -30.2230 C   0  0  0  0  0  0  0  0  0  0  0  0
   -4.2210   24.2240  -30.9720 O   0  0  0  0  0  0  0  0  0  0  0  0
   -4.3330   23.1670  -28.8940 N   0  0  0  0  0  0  0  0  0  0  0  0
   -2.9720   23.4040  -28.4940 C   0  0  0  0  0  0  0  0  0  0  0  0
   -2.0700   24.0800  -29.3340 C   0  0  0  0  0  0  0  0  0  0  0  0
   -0.7500   24.2930  -28.9280 C   0  0  0  0  0  0  0  0  0  0  0  0
   -0.3080   23.8320  -27.6770 C   0  0  0  0  0  0  0  0  0  0  0  0
    1.1090   24.0730  -27.2290 C   0  0  0  0  0  0  0  0  0  0  0  0
    1.3020   25.4440  -26.5600 C   0  0  0  0  0  0  0  0  0  0  0  0
    0.0420   25.9360  -25.9570 N   0  0  0  0  0  0  0  0  0  0  0  0
   -0.3020   27.2940  -26.3920 C   0  0  0  0  0  0  0  0  0  0  0  0
   -1.2370   27.8780  -25.3370 C   0  0  0  0  0  0  0  0  0  0  0  0
   -1.2420   26.8740  -24.1950 C   0  0  0  0  0  0  0  0  0  0  0  0
   -0.0720   25.9390  -24.4860 C   0  0  2  0  0  0  0  0  0  0  0  0
    1.1940   26.4260  -23.7480 C   0  0  0  0  0  0  0  0  0  0  0  0
   -1.1970   23.1170  -26.8590 C   0  0  0  0  0  0  0  0  0  0  0  0
   -2.5170   22.9050  -27.2650 C   0  0  0  0  0  0  0  0  0  0  0  0
   -6.0240   21.9400  -31.8620 C   0  0  0  0  0  0  0  0  0  0  0  0
   -5.0880   18.9740  -33.8440 C   0  0  0  0  0  0  0  0  0  0  0  0
   -2.2091   17.5648  -33.4383 H   0  0  0  0  0  0  0  0  0  0  0  0
   -2.9774   16.7560  -34.8463 H   0  0  0  0  0  0  0  0  0  0  0  0
   -2.7538   18.5383  -34.8463 H   0  0  0  0  0  0  0  0  0  0  0  0
   -4.2651   15.9065  -32.5832 H   0  0  0  0  0  0  0  0  0  0  0  0
   -6.5117   16.1688  -31.5513 H   0  0  0  0  0  0  0  0  0  0  0  0
   -8.1125   18.2239  -30.6889 H   0  0  0  0  0  0  0  0  0  0  0  0
   -8.7082   19.1796  -32.0884 H   0  0  0  0  0  0  0  0  0  0  0  0
   -8.8699   17.3906  -32.0884 H   0  0  0  0  0  0  0  0  0  0  0  0
   -6.6155   20.9676  -34.3594 H   0  0  0  0  0  0  0  0  0  0  0  0
   -8.1513   20.1601  -33.8466 H   0  0  0  0  0  0  0  0  0  0  0  0
   -9.3073   20.9871  -32.0058 H   0  0  0  0  0  0  0  0  0  0  0  0
   -9.3871   22.3936  -29.9508 H   0  0  0  0  0  0  0  0  0  0  0  0
   -7.3240   23.5113  -29.1122 H   0  0  0  0  0  0  0  0  0  0  0  0
   -5.0240   22.9120  -28.1510 H   0  0  0  0  0  0  0  0  0  0  0  0
   -2.4053   24.4434  -30.3166 H   0  0  0  0  0  0  0  0  0  0  0  0
   -0.0528   24.8249  -29.5921 H   0  0  0  0  0  0  0  0  0  0  0  0
    1.3872   23.2892  -26.5091 H   0  0  0  0  0  0  0  0  0  0  0  0
    1.7460   24.0515  -28.1255 H   0  0  0  0  0  0  0  0  0  0  0  0
    2.0638   25.3530  -25.7717 H   0  0  0  0  0  0  0  0  0  0  0  0
    1.6194   26.1622  -27.3303 H   0  0  0  0  0  0  0  0  0  0  0  0
    0.6079   27.9070  -26.4711 H   0  0  0  0  0  0  0  0  0  0  0  0
   -0.7860   27.2786  -27.3797 H   0  0  0  0  0  0  0  0  0  0  0  0
   -0.8634   28.8526  -24.9899 H   0  0  0  0  0  0  0  0  0  0  0  0
   -2.2481   28.0452  -25.7367 H   0  0  0  0  0  0  0  0  0  0  0  0
   -1.0987   27.3842  -23.2311 H   0  0  0  0  0  0  0  0  0  0  0  0
   -2.1967   26.3320  -24.1256 H   0  0  0  0  0  0  0  0  0  0  0  0
   -0.2165   24.9112  -24.1216 H   0  0  0  0  0  0  0  0  0  0  0  0
    1.0320   26.3637  -22.6618 H   0  0  0  0  0  0  0  0  0  0  0  0
    2.0484   25.7924  -24.0283 H   0  0  0  0  0  0  0  0  0  0  0  0
    1.4034   27.4689  -24.0283 H   0  0  0  0  0  0  0  0  0  0  0  0
   -0.8522   22.7212  -25.8923 H   0  0  0  0  0  0  0  0  0  0  0  0
   -3.2043   22.3426  -26.6159 H   0  0  0  0  0  0  0  0  0  0  0  0
   -5.0766   21.8141  -32.4066 H   0  0  0  0  0  0  0  0  0  0  0  0
   -4.6835   19.7581  -34.5009 H   0  0  0  0  0  0  0  0  0  0  0  0
  1  2  1  0
  2  3  2  0
  3  4  1  0
  4  5  2  0
  5  6  1  0
  5  7  1  0
  7  8  1  0
  8  9  1  0
  9 10  2  0
 10 11  1  0
 11 12  2  0
 12 13  1  0
 13 14  1  0
 14 15  2  0
 14 16  1  0
 16 17  1  0
 17 18  2  0
 18 19  1  0
 19 20  2  0
 20 21  1  0
 21 22  1  0
 22 23  1  0
 23 24  1  0
 24 25  1  0
 25 26  1  0
 26 27  1  0
 27 28  1  0
 20 29  1  0
 29 30  2  0
 13 31  2  0
  7 32  2  0
 32  2  1  0
 31  9  1  0
 30 17  1  0
 27 23  1  0
  1 33  1  0
  1 34  1  0
  1 35  1  0
  3 36  1  0
  4 37  1  0
  6 38  1  0
  6 39  1  0
  6 40  1  0
  8 41  1  0
  8 42  1  0
 10 43  1  0
 11 44  1  0
 12 45  1  0
 16 46  1  0
 18 47  1  0
 19 48  1  0
 21 49  1  0
 21 50  1  0
 22 51  1  0
 22 52  1  0
 24 53  1  0
 24 54  1  0
 25 55  1  0
 25 56  1  0
 26 57  1  0
 26 58  1  0
 27 59  1  1
 28 60  1  0
 28 61  1  0
 28 62  1  0
 29 63  1  0
 30 64  1  0
 31 65  1  0
 32 66  1  0
M  END
>  <UniqueID>  (45) 
44

>  <SMILES>  (45) 
Cc1ccc(C)c(Cc2cccc(C(=O)Nc3ccc(CCN4CCC[C@@H]4C)cc3)c2)c1

>  <Energy>  (45) 
78.83852907221244

>  <Genealogy>  (45) 
Cc1ccc(C)c(Cc2cccc(C(=O)Nc3ccc(CCN4CCC[C@@H]4C)cc3)c2)c1 (chirality)
Cc1ccc(C)c(Cc2cccc(C(=O)Nc3ccc(CCN4CCC[C@@H]4C)cc3)c2)c1 (3D coordinates assigned)
Cc1ccc(C)c(Cc2cccc(C(=O)Nc3ccc(CCN4CCC[C@@H]4C)cc3)c2)c1 (nonaromatic ring conformer: 78.83852907221244 kcal/mol)

>  <smiles>  (45) 
Cc1ccc(C)c(Cc2cccc(C(=O)Nc3ccc(CCN4CCCC4C)cc3)c2)c1

>  <score_type>  (45) 
oracle

>  <origin>  (45) 
adgpu

>  <m_score__min__energy>  (45) 
-10.779999999999999

>  <m_primary>  (45) 
energy

$$$$
45:0
     RDKit          3D

 45 47  0  0  0  0  0  0  0  0999 V2000
   -1.4320   21.2560  -26.5080 C   0  0  0  0  0  0  0  0  0  0  0  0
   -1.8880   22.2800  -27.5050 C   0  0  0  0  0  0  0  0  0  0  0  0
   -1.0060   23.2720  -27.9530 C   0  0  0  0  0  0  0  0  0  0  0  0
   -1.4360   24.2310  -28.8720 C   0  0  0  0  0  0  0  0  0  0  0  0
   -2.7470   24.2090  -29.3590 C   0  0  0  0  0  0  0  0  0  0  0  0
   -3.1290   25.1720  -30.2940 O   0  0  0  0  0  0  0  0  0  0  0  0
   -3.6490   23.2270  -28.9080 C   0  0  0  0  0  0  0  0  0  0  0  0
   -4.9830   23.2040  -29.4370 N   0  0  0  0  0  0  0  0  0  0  0  0
   -5.4240   23.6030  -31.0660 S   0  0  0  0  0  0  0  0  0  0  0  0
   -4.3900   23.0530  -32.0070 O   0  0  0  0  0  0  0  0  0  0  0  0
   -5.4710   25.0990  -31.2110 O   0  0  0  0  0  0  0  0  0  0  0  0
   -6.9850   22.8880  -31.4560 C   0  0  0  0  0  0  0  0  0  0  0  0
   -8.1010   23.7130  -31.6440 C   0  0  0  0  0  0  0  0  0  0  0  0
   -9.3320   23.1570  -32.0000 C   0  0  0  0  0  0  0  0  0  0  0  0
   -9.4540   21.7770  -32.1730 C   0  0  0  0  0  0  0  0  0  0  0  0
   -8.3430   20.9410  -31.9880 C   0  0  0  0  0  0  0  0  0  0  0  0
   -8.5000   19.1930  -32.1930 S   0  0  0  0  0  0  0  0  0  0  0  0
   -9.7430   18.9050  -32.9880 O   0  0  0  0  0  0  0  0  0  0  0  0
   -8.6580   18.5560  -30.8410 O   0  0  0  0  0  0  0  0  0  0  0  0
   -7.1320   18.4760  -33.0070 N   0  0  0  0  0  0  0  0  0  0  0  0
   -6.4030   19.4400  -33.8270 C   0  0  0  0  0  0  0  0  0  0  0  0
   -4.9800   18.9100  -33.9480 C   0  0  0  0  0  0  0  0  0  0  0  0
   -4.8380   17.8790  -32.8360 C   0  0  0  0  0  0  0  0  0  0  0  0
   -6.1470   17.9470  -32.0680 C   0  0  0  0  0  0  0  0  0  0  0  0
   -7.1110   21.5000  -31.6180 C   0  0  0  0  0  0  0  0  0  0  0  0
   -3.2150   22.2790  -27.9600 C   0  0  0  0  0  0  0  0  0  0  0  0
   -1.6009   21.6354  -25.4894 H   0  0  0  0  0  0  0  0  0  0  0  0
   -2.0008   20.3255  -26.6518 H   0  0  0  0  0  0  0  0  0  0  0  0
   -0.3599   21.0563  -26.6518 H   0  0  0  0  0  0  0  0  0  0  0  0
    0.0284   23.2954  -27.5796 H   0  0  0  0  0  0  0  0  0  0  0  0
   -0.7388   25.0094  -29.2155 H   0  0  0  0  0  0  0  0  0  0  0  0
   -3.5090   24.9290  -31.1990 H   0  0  0  0  0  0  0  0  0  0  0  0
   -8.0080   24.8010  -31.5111 H   0  0  0  0  0  0  0  0  0  0  0  0
  -10.2070   23.8078  -32.1443 H   0  0  0  0  0  0  0  0  0  0  0  0
  -10.4249   21.3438  -32.4554 H   0  0  0  0  0  0  0  0  0  0  0  0
   -6.8653   19.5202  -34.8219 H   0  0  0  0  0  0  0  0  0  0  0  0
   -6.4188   20.4423  -33.3742 H   0  0  0  0  0  0  0  0  0  0  0  0
   -4.8263   18.4402  -34.9307 H   0  0  0  0  0  0  0  0  0  0  0  0
   -4.2345   19.7139  -33.8589 H   0  0  0  0  0  0  0  0  0  0  0  0
   -4.6886   16.8739  -33.2573 H   0  0  0  0  0  0  0  0  0  0  0  0
   -3.9698   18.0825  -32.1920 H   0  0  0  0  0  0  0  0  0  0  0  0
   -6.4433   16.9442  -31.7265 H   0  0  0  0  0  0  0  0  0  0  0  0
   -6.0591   18.5810  -31.1734 H   0  0  0  0  0  0  0  0  0  0  0  0
   -6.2404   20.8479  -31.4542 H   0  0  0  0  0  0  0  0  0  0  0  0
   -3.9232   21.5314  -27.5732 H   0  0  0  0  0  0  0  0  0  0  0  0
  1  2  1  0
  2  3  2  0
  3  4  1  0
  4  5  2  0
  5  6  1  0
  5  7  1  0
  7  8  1  0
  8  9  1  0
  9 10  2  0
  9 11  2  0
  9 12  1  0
 12 13  2  0
 13 14  1  0
 14 15  2  0
 15 16  1  0
 16 17  1  0
 17 18  2  0
 17 19  2  0
 17 20  1  0
 20 21  1  0
 21 22  1  0
 22 23  1  0
 23 24  1  0
 16 25  2  0
  7 26  2  0
 26  2  1  0
 25 12  1  0
 24 20  1  0
  1 27  1  0
  1 28  1  0
  1 29  1  0
  3 30  1  0
  4 31  1  0
  6 32  1  0
 13 33  1  0
 14 34  1  0
 15 35  1  0
 21 36  1  0
 21 37  1  0
 22 38  1  0
 22 39  1  0
 23 40  1  0
 23 41  1  0
 24 42  1  0
 24 43  1  0
 25 44  1  0
 26 45  1  0
M  CHG  1   8  -1
M  END
>  <UniqueID>  (46) 
45

>  <SMILES>  (46) 
Cc1ccc(O)c([N-]S(=O)(=O)c2cccc(S(=O)(=O)N3CCCC3)c2)c1

>  <Energy>  (46) 
47.82029696446636

>  <Genealogy>  (46) 
Cc1ccc(O)c([N-]S(=O)(=O)c2cccc(S(=O)(=O)N3CCCC3)c2)c1 (protonated)
Cc1ccc(O)c([N-]S(=O)(=O)c2cccc(S(=O)(=O)N3CCCC3)c2)c1 (3D coordinates assigned)
Cc1ccc(O)c([N-]S(=O)(=O)c2cccc(S(=O)(=O)N3CCCC3)c2)c1 (nonaromatic ring conformer: 47.82029696446636 kcal/mol)

>  <smiles>  (46) 
Cc1ccc(O)c(NS(=O)(=O)c2cccc(S(=O)(=O)N3CCCC3)c2)c1

>  <score_type>  (46) 
oracle

>  <origin>  (46) 
adgpu

>  <m_score__min__energy>  (46) 
-12.06

>  <m_primary>  (46) 
energy

$$$$
46:0
     RDKit          3D

 75 80  0  0  0  0  0  0  0  0999 V2000
    2.8130   28.1850  -22.6580 C   0  0  0  0  0  0  0  0  0  0  0  0
    1.7420   27.2710  -23.0920 N   0  0  0  0  0  0  0  0  0  0  0  0
    0.6300   28.0270  -23.6960 C   0  0  0  0  0  0  0  0  0  0  0  0
   -0.5550   27.0910  -24.0130 C   0  0  0  0  0  0  0  0  0  0  0  0
   -0.1410   25.6730  -24.1520 N   0  0  0  0  0  0  0  0  0  0  0  0
   -1.1650   24.8740  -24.8660 C   0  0  0  0  0  0  0  0  0  0  0  0
   -1.9810   25.7180  -25.8750 C   0  0  0  0  0  0  0  0  0  0  0  0
   -3.4560   25.2980  -25.9780 C   0  0  0  0  0  0  0  0  0  0  0  0
   -3.7220   24.6580  -27.2270 O   0  0  0  0  0  0  0  0  0  0  0  0
   -2.8650   23.7570  -27.8770 C   0  0  0  0  0  0  0  0  0  0  0  0
   -2.8420   23.7700  -29.2750 C   0  0  0  0  0  0  0  0  0  0  0  0
   -2.0260   22.8840  -29.9830 C   0  0  0  0  0  0  0  0  0  0  0  0
   -1.2380   21.9460  -29.2940 C   0  0  0  0  0  0  0  0  0  0  0  0
   -0.4610   20.9980  -29.9790 C   0  0  0  0  0  0  0  0  0  0  0  0
   -0.4060   21.0100  -31.3790 O   0  0  0  0  0  0  0  0  0  0  0  0
   -1.2350   20.2430  -32.2070 C   0  0  0  0  0  0  0  0  0  0  0  0
   -0.9330   18.8890  -32.3990 C   0  0  0  0  0  0  0  0  0  0  0  0
   -1.7240   18.0960  -33.2340 C   0  0  0  0  0  0  0  0  0  0  0  0
   -2.8060   18.6610  -33.9320 C   0  0  0  0  0  0  0  0  0  0  0  0
   -3.6430   17.9030  -34.8220 N   0  0  0  0  0  0  0  0  0  0  0  0
   -4.7810   17.0900  -34.5060 C   0  0  0  0  0  0  0  0  0  0  0  0
   -4.8840   15.9140  -34.9470 O   0  0  0  0  0  0  0  0  0  0  0  0
   -5.8560   17.6650  -33.6880 C   0  0  0  0  0  0  0  0  0  0  0  0
   -6.8740   16.9110  -33.1050 C   0  0  0  0  0  0  0  0  0  0  0  0
   -7.8910   17.9700  -32.2890 S   0  0  0  0  0  0  0  0  0  0  0  0
   -7.0020   19.3380  -32.7090 C   0  0  0  0  0  0  0  0  0  0  0  0
   -7.3320   20.7270  -32.3380 C   0  0  0  0  0  0  0  0  0  0  0  0
   -6.3440   21.7270  -32.3440 C   0  0  0  0  0  0  0  0  0  0  0  0
   -6.6690   23.0420  -31.9990 C   0  0  0  0  0  0  0  0  0  0  0  0
   -7.9780   23.3670  -31.6280 C   0  0  0  0  0  0  0  0  0  0  0  0
   -8.9670   22.3790  -31.6130 C   0  0  0  0  0  0  0  0  0  0  0  0
   -8.6470   21.0660  -31.9700 C   0  0  0  0  0  0  0  0  0  0  0  0
   -5.9400   19.0040  -33.4730 N   0  0  0  0  0  0  0  0  0  0  0  0
   -3.1140   20.0120  -33.7290 C   0  0  0  0  0  0  0  0  0  0  0  0
   -2.3390   20.8030  -32.8760 C   0  0  0  0  0  0  0  0  0  0  0  0
   -2.6230   22.1230  -32.7670 F   0  0  0  0  0  0  0  0  0  0  0  0
    0.2620   20.0460  -29.2460 C   0  0  0  0  0  0  0  0  0  0  0  0
    0.2080   20.0590  -27.8500 C   0  0  0  0  0  0  0  0  0  0  0  0
   -0.5430   20.9870  -27.2050 N   0  0  0  0  0  0  0  0  0  0  0  0
   -1.2650   21.9210  -27.8820 C   0  0  0  0  0  0  0  0  0  0  0  0
   -2.0580   22.8350  -27.1800 C   0  0  0  0  0  0  0  0  0  0  0  0
    1.1530   25.5790  -24.8560 C   0  0  0  0  0  0  0  0  0  0  0  0
    2.2710   26.2660  -24.0430 C   0  0  0  0  0  0  0  0  0  0  0  0
    2.8472   28.2141  -21.5589 H   0  0  0  0  0  0  0  0  0  0  0  0
    3.7788   27.8284  -23.0455 H   0  0  0  0  0  0  0  0  0  0  0  0
    2.6127   29.1948  -23.0455 H   0  0  0  0  0  0  0  0  0  0  0  0
    1.3840   26.7790  -22.2370 H   0  0  0  0  0  0  0  0  0  0  0  0
    0.2979   28.8050  -22.9928 H   0  0  0  0  0  0  0  0  0  0  0  0
    0.9804   28.4848  -24.6328 H   0  0  0  0  0  0  0  0  0  0  0  0
   -1.2902   27.1651  -23.1981 H   0  0  0  0  0  0  0  0  0  0  0  0
   -0.9824   27.4090  -24.9754 H   0  0  0  0  0  0  0  0  0  0  0  0
   -0.6614   24.0624  -25.4116 H   0  0  0  0  0  0  0  0  0  0  0  0
   -1.8665   24.4830  -24.1143 H   0  0  0  0  0  0  0  0  0  0  0  0
   -1.9406   26.7712  -25.5602 H   0  0  0  0  0  0  0  0  0  0  0  0
   -1.5307   25.5598  -26.8661 H   0  0  0  0  0  0  0  0  0  0  0  0
   -3.6890   24.6004  -25.1600 H   0  0  0  0  0  0  0  0  0  0  0  0
   -4.0820   26.1997  -25.9069 H   0  0  0  0  0  0  0  0  0  0  0  0
   -3.4729   24.4852  -29.8231 H   0  0  0  0  0  0  0  0  0  0  0  0
   -2.0002   22.9206  -31.0821 H   0  0  0  0  0  0  0  0  0  0  0  0
   -0.0655   18.4461  -31.8879 H   0  0  0  0  0  0  0  0  0  0  0  0
   -1.4994   17.0250  -33.3459 H   0  0  0  0  0  0  0  0  0  0  0  0
   -6.9901   15.8190  -33.1681 H   0  0  0  0  0  0  0  0  0  0  0  0
   -5.3102   21.4735  -32.6215 H   0  0  0  0  0  0  0  0  0  0  0  0
   -5.8942   23.8225  -32.0193 H   0  0  0  0  0  0  0  0  0  0  0  0
   -8.2294   24.4006  -31.3479 H   0  0  0  0  0  0  0  0  0  0  0  0
   -9.9961   22.6347  -31.3205 H   0  0  0  0  0  0  0  0  0  0  0  0
   -9.4288   20.2923  -31.9632 H   0  0  0  0  0  0  0  0  0  0  0  0
   -3.9766   20.4562  -34.2473 H   0  0  0  0  0  0  0  0  0  0  0  0
    0.8693   19.2919  -29.7681 H   0  0  0  0  0  0  0  0  0  0  0  0
    0.7758   19.3149  -27.2722 H   0  0  0  0  0  0  0  0  0  0  0  0
   -2.0518   22.8342  -26.0800 H   0  0  0  0  0  0  0  0  0  0  0  0
    1.4100   24.5189  -24.9982 H   0  0  0  0  0  0  0  0  0  0  0  0
    1.0627   26.0850  -25.8285 H   0  0  0  0  0  0  0  0  0  0  0  0
    2.8189   25.4982  -23.4770 H   0  0  0  0  0  0  0  0  0  0  0  0
    2.9283   26.7895  -24.7528 H   0  0  0  0  0  0  0  0  0  0  0  0
  1  2  1  0
  2  3  1  0
  3  4  1  0
  4  5  1  0
  5  6  1  0
  6  7  1  0
  7  8  1  0
  8  9  1  0
  9 10  1  0
 10 11  2  0
 11 12  1  0
 12 13  2  0
 13 14  1  0
 14 15  1  0
 15 16  1  0
 16 17  2  0
 17 18  1  0
 18 19  2  0
 19 20  1  0
 20 21  1  0
 21 22  2  0
 21 23  1  0
 23 24  2  0
 24 25  1  0
 25 26  1  0
 26 27  1  0
 27 28  2  0
 28 29  1  0
 29 30  2  0
 30 31  1  0
 31 32  2  0
 26 33  2  0
 19 34  1  0
 34 35  2  0
 35 36  1  0
 14 37  2  0
 37 38  1  0
 38 39  2  0
 39 40  1  0
 40 41  2  0
  5 42  1  0
 42 43  1  0
 43  2  1  0
 41 10  1  0
 40 13  1  0
 35 16  1  0
 33 23  1  0
 32 27  1  0
  1 44  1  0
  1 45  1  0
  1 46  1  0
  2 47  1  0
  3 48  1  0
  3 49  1  0
  4 50  1  0
  4 51  1  0
  6 52  1  0
  6 53  1  0
  7 54  1  0
  7 55  1  0
  8 56  1  0
  8 57  1  0
 11 58  1  0
 12 59  1  0
 17 60  1  0
 18 61  1  0
 24 62  1  0
 28 63  1  0
 29 64  1  0
 30 65  1  0
 31 66  1  0
 32 67  1  0
 34 68  1  0
 37 69  1  0
 38 70  1  0
 41 71  1  0
 42 72  1  0
 42 73  1  0
 43 74  1  0
 43 75  1  0
M  CHG  2   2   1  20  -1
M  END
>  <UniqueID>  (47) 
46

>  <SMILES>  (47) 
C[NH+]1CCN(CCCOc2ccc3c(Oc4ccc([N-]C(=O)c5csc(-c6ccccc6)n5)cc4F)ccnc3c2)CC1

>  <Energy>  (47) 
138.5351226010619

>  <Genealogy>  (47) 
C[NH+]1CCN(CCCOc2ccc3c(Oc4ccc([N-]C(=O)c5csc(-c6ccccc6)n5)cc4F)ccnc3c2)CC1 (protonated)
C[NH+]1CCN(CCCOc2ccc3c(Oc4ccc([N-]C(=O)c5csc(-c6ccccc6)n5)cc4F)ccnc3c2)CC1 (3D coordinates assigned)
C[NH+]1CCN(CCCOc2ccc3c(Oc4ccc([N-]C(=O)c5csc(-c6ccccc6)n5)cc4F)ccnc3c2)CC1 (nonaromatic ring conformer: 138.5351226010619 kcal/mol)

>  <smiles>  (47) 
CN1CCN(CCCOc2ccc3c(Oc4ccc(NC(=O)c5csc(-c6ccccc6)n5)cc4F)ccnc3c2)CC1

>  <score_type>  (47) 
oracle

>  <origin>  (47) 
adgpu

>  <m_score__min__energy>  (47) 
-11.84

>  <m_primary>  (47) 
energy

$$$$
47:0
     RDKit          3D

 45 47  0  0  0  0  0  0  0  0999 V2000
   -0.2110   26.8210  -23.0060 C   0  0  0  0  0  0  0  0  0  0  0  0
   -1.0210   25.9260  -23.7610 O   0  0  0  0  0  0  0  0  0  0  0  0
   -1.0970   25.9150  -25.1630 C   0  0  0  0  0  0  0  0  0  0  0  0
   -0.1070   26.5890  -25.8850 C   0  0  0  0  0  0  0  0  0  0  0  0
   -0.1430   26.6170  -27.2800 C   0  0  0  0  0  0  0  0  0  0  0  0
   -1.1680   25.9670  -27.9730 C   0  0  0  0  0  0  0  0  0  0  0  0
   -1.2060   26.0580  -29.3600 O   0  0  0  0  0  0  0  0  0  0  0  0
   -2.1590   25.2590  -27.2640 C   0  0  0  0  0  0  0  0  0  0  0  0
   -3.2520   24.5480  -27.9630 C   0  0  0  0  0  0  0  0  0  0  0  0
   -3.8820   23.6450  -27.3470 O   0  0  0  0  0  0  0  0  0  0  0  0
   -3.5900   24.8720  -29.3230 N   0  0  0  0  0  0  0  0  0  0  0  0
   -4.6120   24.2000  -30.0770 C   0  0  0  0  0  0  0  0  0  0  0  0
   -5.9120   24.7250  -30.0920 C   0  0  0  0  0  0  0  0  0  0  0  0
   -6.9200   24.0970  -30.8270 C   0  0  0  0  0  0  0  0  0  0  0  0
   -6.6360   22.9460  -31.5650 C   0  0  0  0  0  0  0  0  0  0  0  0
   -5.3370   22.4210  -31.5790 C   0  0  0  0  0  0  0  0  0  0  0  0
   -4.9750   20.9650  -32.5090 S   0  0  0  0  0  0  0  0  0  0  0  0
   -4.5120   19.8830  -31.5730 O   0  0  0  0  0  0  0  0  0  0  0  0
   -3.8550   21.2560  -33.4690 O   0  0  0  0  0  0  0  0  0  0  0  0
   -6.3690   20.3980  -33.4050 N   0  0  0  0  0  0  0  0  0  0  0  0
   -6.0440   19.2070  -34.1980 C   0  0  0  0  0  0  0  0  0  0  0  0
   -6.5180   17.9760  -33.4370 C   0  0  0  0  0  0  0  0  0  0  0  0
   -7.4040   18.4940  -32.3210 C   0  0  0  0  0  0  0  0  0  0  0  0
   -7.4540   20.0030  -32.5010 C   0  0  0  0  0  0  0  0  0  0  0  0
   -4.3240   23.0600  -30.8480 C   0  0  0  0  0  0  0  0  0  0  0  0
   -2.1270   25.2550  -25.8590 C   0  0  0  0  0  0  0  0  0  0  0  0
   -0.3714   26.6437  -21.9323 H   0  0  0  0  0  0  0  0  0  0  0  0
    0.8480   26.6527  -23.2512 H   0  0  0  0  0  0  0  0  0  0  0  0
   -0.4838   27.8580  -23.2512 H   0  0  0  0  0  0  0  0  0  0  0  0
    0.7061   27.1009  -25.3495 H   0  0  0  0  0  0  0  0  0  0  0  0
    0.6394   27.1534  -27.8369 H   0  0  0  0  0  0  0  0  0  0  0  0
   -3.1060   25.6740  -29.7840 H   0  0  0  0  0  0  0  0  0  0  0  0
   -6.1395   25.6374  -29.5212 H   0  0  0  0  0  0  0  0  0  0  0  0
   -7.9396   24.5098  -30.8245 H   0  0  0  0  0  0  0  0  0  0  0  0
   -7.4342   22.4502  -32.1369 H   0  0  0  0  0  0  0  0  0  0  0  0
   -6.5523   19.2597  -35.1721 H   0  0  0  0  0  0  0  0  0  0  0  0
   -4.9585   19.1511  -34.3667 H   0  0  0  0  0  0  0  0  0  0  0  0
   -7.0891   17.3113  -34.1019 H   0  0  0  0  0  0  0  0  0  0  0  0
   -5.6719   17.3932  -33.0439 H   0  0  0  0  0  0  0  0  0  0  0  0
   -8.4134   18.0645  -32.4022 H   0  0  0  0  0  0  0  0  0  0  0  0
   -7.0134   18.2163  -31.3309 H   0  0  0  0  0  0  0  0  0  0  0  0
   -8.4225   20.2935  -32.9340 H   0  0  0  0  0  0  0  0  0  0  0  0
   -7.3365   20.5035  -31.5285 H   0  0  0  0  0  0  0  0  0  0  0  0
   -3.2973   22.6663  -30.8783 H   0  0  0  0  0  0  0  0  0  0  0  0
   -2.9146   24.7309  -25.2978 H   0  0  0  0  0  0  0  0  0  0  0  0
  1  2  1  0
  2  3  1  0
  3  4  2  0
  4  5  1  0
  5  6  2  0
  6  7  1  0
  6  8  1  0
  8  9  1  0
  9 10  2  0
  9 11  1  0
 11 12  1  0
 12 13  2  0
 13 14  1  0
 14 15  2  0
 15 16  1  0
 16 17  1  0
 17 18  2  0
 17 19  2  0
 17 20  1  0
 20 21  1  0
 21 22  1  0
 22 23  1  0
 23 24  1  0
 16 25  2  0
  8 26  2  0
 26  3  1  0
 25 12  1  0
 24 20  1  0
  1 27  1  0
  1 28  1  0
  1 29  1  0
  4 30  1  0
  5 31  1  0
 11 32  1  0
 13 33  1  0
 14 34  1  0
 15 35  1  0
 21 36  1  0
 21 37  1  0
 22 38  1  0
 22 39  1  0
 23 40  1  0
 23 41  1  0
 24 42  1  0
 24 43  1  0
 25 44  1  0
 26 45  1  0
M  CHG  1   7  -1
M  END
>  <UniqueID>  (48) 
47

>  <SMILES>  (48) 
COc1ccc([O-])c(C(=O)Nc2cccc(S(=O)(=O)N3CCCC3)c2)c1

>  <Energy>  (48) 
54.04995143397006

>  <Genealogy>  (48) 
COc1ccc([O-])c(C(=O)Nc2cccc(S(=O)(=O)N3CCCC3)c2)c1 (protonated)
COc1ccc([O-])c(C(=O)Nc2cccc(S(=O)(=O)N3CCCC3)c2)c1 (3D coordinates assigned)
COc1ccc([O-])c(C(=O)Nc2cccc(S(=O)(=O)N3CCCC3)c2)c1 (nonaromatic ring conformer: 54.04995143397006 kcal/mol)

>  <smiles>  (48) 
COc1ccc(O)c(C(=O)Nc2cccc(S(=O)(=O)N3CCCC3)c2)c1

>  <score_type>  (48) 
oracle

>  <origin>  (48) 
adgpu

>  <m_score__min__energy>  (48) 
-12.19

>  <m_primary>  (48) 
energy

$$$$
48:0
     RDKit          3D

 42 45  0  0  0  0  0  0  0  0999 V2000
   -1.5900   25.6640  -29.3180 N   0  0  0  0  0  0  0  0  0  0  0  0
   -1.0490   24.7980  -27.9220 S   0  0  0  0  0  0  0  0  0  0  0  0
    0.4510   24.7160  -27.9510 O   0  0  0  0  0  0  0  0  0  0  0  0
   -1.4910   25.5390  -26.6900 O   0  0  0  0  0  0  0  0  0  0  0  0
   -1.7230   23.1660  -27.8980 C   0  0  0  0  0  0  0  0  0  0  0  0
   -0.8870   22.0690  -27.6350 C   0  0  0  0  0  0  0  0  0  0  0  0
   -1.4080   20.7750  -27.6010 C   0  0  0  0  0  0  0  0  0  0  0  0
   -2.7680   20.5620  -27.8300 C   0  0  0  0  0  0  0  0  0  0  0  0
   -3.6120   21.6440  -28.0920 C   0  0  0  0  0  0  0  0  0  0  0  0
   -3.0990   22.9560  -28.1270 C   0  0  0  0  0  0  0  0  0  0  0  0
   -3.9480   24.0830  -28.3930 N   0  0  0  0  0  0  0  0  0  0  0  0
   -4.6520   24.4680  -29.9300 S   0  0  0  0  0  0  0  0  0  0  0  0
   -3.5760   24.9710  -30.8520 O   0  0  0  0  0  0  0  0  0  0  0  0
   -5.6800   25.5480  -29.7450 O   0  0  0  0  0  0  0  0  0  0  0  0
   -5.4380   23.0410  -30.5970 C   0  0  0  0  0  0  0  0  0  0  0  0
   -6.7970   22.8200  -30.3500 C   0  0  0  0  0  0  0  0  0  0  0  0
   -7.4290   21.6840  -30.8590 C   0  0  0  0  0  0  0  0  0  0  0  0
   -6.7090   20.7510  -31.6250 C   0  0  0  0  0  0  0  0  0  0  0  0
   -5.3370   20.9710  -31.8790 C   0  0  0  0  0  0  0  0  0  0  0  0
   -4.7130   22.1200  -31.3630 C   0  0  0  0  0  0  0  0  0  0  0  0
   -4.5680   19.9910  -32.6830 C   0  0  0  0  0  0  0  0  0  0  0  0
   -3.3420   20.1840  -32.9070 O   0  0  0  0  0  0  0  0  0  0  0  0
   -5.2370   18.7830  -33.2230 C   0  0  0  0  0  0  0  0  0  0  0  0
   -4.5160   17.8460  -33.9860 C   0  0  0  0  0  0  0  0  0  0  0  0
   -5.1490   16.7090  -34.4910 C   0  0  0  0  0  0  0  0  0  0  0  0
   -6.5050   16.4930  -34.2420 C   0  0  0  0  0  0  0  0  0  0  0  0
   -7.2340   17.4150  -33.4860 C   0  0  0  0  0  0  0  0  0  0  0  0
   -6.6090   18.5650  -32.9690 C   0  0  0  0  0  0  0  0  0  0  0  0
   -7.3770   19.5430  -32.1650 C   0  0  0  0  0  0  0  0  0  0  0  0
   -8.6030   19.3490  -31.9390 O   0  0  0  0  0  0  0  0  0  0  0  0
   -2.6340   25.6530  -29.2980 H   0  0  0  0  0  0  0  0  0  0  0  0
    0.1860   22.2308  -27.4545 H   0  0  0  0  0  0  0  0  0  0  0  0
   -0.7458   19.9216  -27.3934 H   0  0  0  0  0  0  0  0  0  0  0  0
   -3.1760   19.5408  -27.8042 H   0  0  0  0  0  0  0  0  0  0  0  0
   -4.6833   21.4708  -28.2720 H   0  0  0  0  0  0  0  0  0  0  0  0
   -7.3700   23.5442  -29.7523 H   0  0  0  0  0  0  0  0  0  0  0  0
   -8.4979   21.5179  -30.6592 H   0  0  0  0  0  0  0  0  0  0  0  0
   -3.6459   22.2972  -31.5627 H   0  0  0  0  0  0  0  0  0  0  0  0
   -3.4469   18.0105  -34.1858 H   0  0  0  0  0  0  0  0  0  0  0  0
   -4.5777   15.9817  -35.0865 H   0  0  0  0  0  0  0  0  0  0  0  0
   -7.0007   15.5959  -34.6413 H   0  0  0  0  0  0  0  0  0  0  0  0
   -8.3030   17.2407  -33.2939 H   0  0  0  0  0  0  0  0  0  0  0  0
  1  2  1  0
  2  3  2  0
  2  4  2  0
  2  5  1  0
  5  6  2  0
  6  7  1  0
  7  8  2  0
  8  9  1  0
  9 10  2  0
 10 11  1  0
 11 12  1  0
 12 13  2  0
 12 14  2  0
 12 15  1  0
 15 16  2  0
 16 17  1  0
 17 18  2  0
 18 19  1  0
 19 20  2  0
 19 21  1  0
 21 22  2  0
 21 23  1  0
 23 24  2  0
 24 25  1  0
 25 26  2  0
 26 27  1  0
 27 28  2  0
 28 29  1  0
 29 30  2  0
 10  5  1  0
 20 15  1  0
 28 23  1  0
 29 18  1  0
  1 31  1  0
  6 32  1  0
  7 33  1  0
  8 34  1  0
  9 35  1  0
 16 36  1  0
 17 37  1  0
 20 38  1  0
 24 39  1  0
 25 40  1  0
 26 41  1  0
 27 42  1  0
M  CHG  2   1  -1  11  -1
M  END
>  <UniqueID>  (49) 
48

>  <SMILES>  (49) 
[NH-]S(=O)(=O)c1ccccc1[N-]S(=O)(=O)c1ccc2c(c1)C(=O)c1ccccc1C2=O

>  <Energy>  (49) 
55.37592345455507

>  <Genealogy>  (49) 
[NH-]S(=O)(=O)c1ccccc1[N-]S(=O)(=O)c1ccc2c(c1)C(=O)c1ccccc1C2=O (protonated)
[NH-]S(=O)(=O)c1ccccc1[N-]S(=O)(=O)c1ccc2c(c1)C(=O)c1ccccc1C2=O (3D coordinates assigned)
[NH-]S(=O)(=O)c1ccccc1[N-]S(=O)(=O)c1ccc2c(c1)C(=O)c1ccccc1C2=O (nonaromatic ring conformer: 55.37592345455507 kcal/mol)

>  <smiles>  (49) 
NS(=O)(=O)c1ccccc1NS(=O)(=O)c1ccc2c(c1)C(=O)c1ccccc1C2=O

>  <score_type>  (49) 
oracle

>  <origin>  (49) 
adgpu

>  <m_score__min__energy>  (49) 
-14.529999999999999

>  <m_primary>  (49) 
energy

$$$$
