0:0
     RDKit          3D

 67 71  0  0  0  0  0  0  0  0999 V2000
   -0.4550   18.2730  -27.4720 C   0  0  0  0  0  0  0  0  0  0  0  0
   -0.6380   19.5560  -26.8820 O   0  0  0  0  0  0  0  0  0  0  0  0
   -1.4100   20.5850  -27.4420 C   0  0  0  0  0  0  0  0  0  0  0  0
   -2.6900   20.2760  -27.9030 C   0  0  0  0  0  0  0  0  0  0  0  0
   -3.4900   21.2590  -28.4800 C   0  0  0  0  0  0  0  0  0  0  0  0
   -3.0290   22.5790  -28.6140 C   0  0  0  0  0  0  0  0  0  0  0  0
   -4.0960   23.7480  -29.4180 S   0  0  0  0  0  0  0  0  0  0  0  0
   -4.5990   24.7340  -28.4000 O   0  0  0  0  0  0  0  0  0  0  0  0
   -3.3720   24.4840  -30.5090 O   0  0  0  0  0  0  0  0  0  0  0  0
   -5.4460   22.9280  -30.1370 N   0  0  0  0  0  0  0  0  0  0  0  0
   -6.7530   23.2290  -29.9600 C   0  0  0  0  0  0  0  0  0  0  0  0
   -7.5530   22.3560  -30.6910 C   0  0  0  0  0  0  0  0  0  0  0  0
   -6.6760   21.5010  -31.3250 C   0  0  0  0  0  0  0  0  0  0  0  0
   -6.9190   20.4280  -32.1780 C   0  0  0  0  0  0  0  0  0  0  0  0
   -5.8090   19.7150  -32.6760 C   0  0  0  0  0  0  0  0  0  0  0  0
   -6.0660   18.3680  -33.7830 S   0  0  0  0  0  0  0  0  0  0  0  0
   -7.3760   17.6970  -33.4750 O   0  0  0  0  0  0  0  0  0  0  0  0
   -6.1190   18.9010  -35.1890 O   0  0  0  0  0  0  0  0  0  0  0  0
   -4.7550   17.2230  -33.6370 N   0  0  0  0  0  0  0  0  0  0  0  0
   -4.0760   17.0510  -34.9430 C   0  0  0  0  0  0  0  0  0  0  0  0
   -3.4640   15.6440  -35.1320 C   0  0  0  0  0  0  0  0  0  0  0  0
   -3.0210   15.0390  -33.8620 N   0  0  0  0  0  0  0  0  0  0  0  0
   -1.7900   15.6690  -33.3540 C   0  0  0  0  0  0  0  0  0  0  0  0
   -4.0940   14.9740  -32.8390 C   0  0  0  0  0  0  0  0  0  0  0  0
   -5.2590   15.9460  -33.1070 C   0  0  0  0  0  0  0  0  0  0  0  0
   -4.4970   20.1000  -32.3120 C   0  0  0  0  0  0  0  0  0  0  0  0
   -4.2850   21.1910  -31.4500 C   0  0  0  0  0  0  0  0  0  0  0  0
   -5.4050   21.8740  -30.9730 C   0  0  0  0  0  0  0  0  0  0  0  0
   -1.7460   22.9160  -28.1090 C   0  0  0  0  0  0  0  0  0  0  0  0
   -1.0940   24.5690  -28.1580 S   0  0  0  0  0  0  0  0  0  0  0  0
    0.2440   24.5490  -28.8430 O   0  0  0  0  0  0  0  0  0  0  0  0
   -2.0190   25.4840  -28.9110 O   0  0  0  0  0  0  0  0  0  0  0  0
   -0.9140   25.2270  -26.5290 C   0  0  0  0  0  0  0  0  0  0  0  0
   -1.7710   26.2410  -26.0750 C   0  0  0  0  0  0  0  0  0  0  0  0
   -1.6100   26.7790  -24.7940 C   0  0  0  0  0  0  0  0  0  0  0  0
   -0.5900   26.3090  -23.9610 C   0  0  0  0  0  0  0  0  0  0  0  0
    0.2700   25.3030  -24.4080 C   0  0  0  0  0  0  0  0  0  0  0  0
    0.1120   24.7610  -25.6890 C   0  0  0  0  0  0  0  0  0  0  0  0
    0.9660   23.7950  -26.1110 F   0  0  0  0  0  0  0  0  0  0  0  0
   -0.9430   21.9060  -27.5510 C   0  0  0  0  0  0  0  0  0  0  0  0
   -0.3472   17.5172  -26.6800 H   0  0  0  0  0  0  0  0  0  0  0  0
   -1.3274   18.0285  -28.0959 H   0  0  0  0  0  0  0  0  0  0  0  0
    0.4509   18.2822  -28.0959 H   0  0  0  0  0  0  0  0  0  0  0  0
   -3.0702   19.2480  -27.8100 H   0  0  0  0  0  0  0  0  0  0  0  0
   -4.4975   20.9980  -28.8360 H   0  0  0  0  0  0  0  0  0  0  0  0
   -7.1296   24.0471  -29.3284 H   0  0  0  0  0  0  0  0  0  0  0  0
   -8.6514   22.3493  -30.7505 H   0  0  0  0  0  0  0  0  0  0  0  0
   -7.9453   20.1451  -32.4550 H   0  0  0  0  0  0  0  0  0  0  0  0
   -4.0820   17.6280  -32.9450 H   0  0  0  0  0  0  0  0  0  0  0  0
   -4.8102   17.2231  -35.7438 H   0  0  0  0  0  0  0  0  0  0  0  0
   -3.2481   17.7744  -34.9781 H   0  0  0  0  0  0  0  0  0  0  0  0
   -4.2214   14.9895  -35.5879 H   0  0  0  0  0  0  0  0  0  0  0  0
   -2.5779   15.7515  -35.7749 H   0  0  0  0  0  0  0  0  0  0  0  0
   -1.8020   15.6629  -32.2541 H   0  0  0  0  0  0  0  0  0  0  0  0
   -0.9153   15.1077  -33.7143 H   0  0  0  0  0  0  0  0  0  0  0  0
   -1.7336   16.7068  -33.7143 H   0  0  0  0  0  0  0  0  0  0  0  0
   -4.4934   13.9493  -32.8181 H   0  0  0  0  0  0  0  0  0  0  0  0
   -3.6435   15.2661  -31.8789 H   0  0  0  0  0  0  0  0  0  0  0  0
   -5.9446   15.4956  -33.8398 H   0  0  0  0  0  0  0  0  0  0  0  0
   -5.7865   16.1376  -32.1609 H   0  0  0  0  0  0  0  0  0  0  0  0
   -3.6355   19.5413  -32.7065 H   0  0  0  0  0  0  0  0  0  0  0  0
   -3.2686   21.4964  -31.1608 H   0  0  0  0  0  0  0  0  0  0  0  0
   -2.5727   26.6143  -26.7292 H   0  0  0  0  0  0  0  0  0  0  0  0
   -2.2860   27.5721  -24.4418 H   0  0  0  0  0  0  0  0  0  0  0  0
   -0.4647   26.7316  -22.9532 H   0  0  0  0  0  0  0  0  0  0  0  0
    1.0731   24.9359  -23.7520 H   0  0  0  0  0  0  0  0  0  0  0  0
    0.0675   22.1538  -27.1938 H   0  0  0  0  0  0  0  0  0  0  0  0
  1  2  1  0
  2  3  1  0
  3  4  2  0
  4  5  1  0
  5  6  2  0
  6  7  1  0
  7  8  2  0
  7  9  2  0
  7 10  1  0
 10 11  1  0
 11 12  2  0
 12 13  1  0
 13 14  2  0
 14 15  1  0
 15 16  1  0
 16 17  2  0
 16 18  2  0
 16 19  1  0
 19 20  1  0
 20 21  1  0
 21 22  1  0
 22 23  1  0
 22 24  1  0
 24 25  1  0
 15 26  2  0
 26 27  1  0
 27 28  2  0
  6 29  1  0
 29 30  1  0
 30 31  2  0
 30 32  2  0
 30 33  1  0
 33 34  2  0
 34 35  1  0
 35 36  2  0
 36 37  1  0
 37 38  2  0
 38 39  1  0
 29 40  2  0
 40  3  1  0
 28 10  1  0
 38 33  1  0
 28 13  1  0
 25 19  1  0
  1 41  1  0
  1 42  1  0
  1 43  1  0
  4 44  1  0
  5 45  1  0
 11 46  1  0
 12 47  1  0
 14 48  1  0
 19 49  1  0
 20 50  1  0
 20 51  1  0
 21 52  1  0
 21 53  1  0
 23 54  1  0
 23 55  1  0
 23 56  1  0
 24 57  1  0
 24 58  1  0
 25 59  1  0
 25 60  1  0
 26 61  1  0
 27 62  1  0
 34 63  1  0
 35 64  1  0
 36 65  1  0
 37 66  1  0
 40 67  1  0
M  CHG  1  19   1
M  END
>  <UniqueID>  (1) 
1

>  <SMILES>  (1) 
COc1ccc(S(=O)(=O)n2ccc3cc(S(=O)(=O)[NH+]4CCN(C)CC4)ccc32)c(S(=O)(=O)c2ccccc2F)c1

>  <Energy>  (1) 
122.61037849523132

>  <Genealogy>  (1) 
COc1ccc(S(=O)(=O)n2ccc3cc(S(=O)(=O)[NH+]4CCN(C)CC4)ccc32)c(S(=O)(=O)c2ccccc2F)c1 (protonated)
COc1ccc(S(=O)(=O)n2ccc3cc(S(=O)(=O)[NH+]4CCN(C)CC4)ccc32)c(S(=O)(=O)c2ccccc2F)c1 (3D coordinates assigned)
COc1ccc(S(=O)(=O)n2ccc3cc(S(=O)(=O)[NH+]4CCN(C)CC4)ccc32)c(S(=O)(=O)c2ccccc2F)c1 (nonaromatic ring conformer: 122.61037849523132 kcal/mol)

>  <smiles>  (1) 
COc1ccc(S(=O)(=O)n2ccc3cc(S(=O)(=O)N4CCN(C)CC4)ccc32)c(S(=O)(=O)c2ccccc2F)c1

>  <score_type>  (1) 
oracle

>  <origin>  (1) 
adgpu

>  <m_score__min__energy>  (1) 
-11.220000000000001

>  <m_primary>  (1) 
energy

$$$$
1:0
     RDKit          3D

 55 59  0  0  0  0  0  0  0  0999 V2000
   -3.8690   20.3210  -32.5460 O   0  0  0  0  0  0  0  0  0  0  0  0
   -2.9970   19.4340  -32.7350 C   0  0  0  0  0  0  0  0  0  0  0  0
   -3.0900   18.3640  -33.6960 C   0  0  0  0  0  0  0  0  0  0  0  0
   -4.1280   18.0040  -34.5520 C   0  0  0  0  0  0  0  0  0  0  0  0
   -3.9360   16.8980  -35.3940 C   0  0  0  0  0  0  0  0  0  0  0  0
   -2.7210   16.1800  -35.3660 C   0  0  0  0  0  0  0  0  0  0  0  0
   -2.5530   15.0880  -36.2130 O   0  0  0  0  0  0  0  0  0  0  0  0
   -1.6890   16.5720  -34.4890 C   0  0  0  0  0  0  0  0  0  0  0  0
   -1.9010   17.6730  -33.6570 C   0  0  0  0  0  0  0  0  0  0  0  0
   -0.9560   18.2730  -32.6560 C   0  0  0  0  0  0  0  0  0  0  0  0
   -1.7270   19.3840  -32.0780 N   0  0  0  0  0  0  0  0  0  0  0  0
   -1.2920   20.2000  -30.9730 C   0  0  0  0  0  0  0  0  0  0  0  0
   -1.1490   19.6580  -29.6880 C   0  0  0  0  0  0  0  0  0  0  0  0
   -0.7210   20.4530  -28.6220 C   0  0  0  0  0  0  0  0  0  0  0  0
   -0.4160   21.8210  -28.8060 C   0  0  0  0  0  0  0  0  0  0  0  0
   -0.0050   22.6600  -27.6840 N   0  0  0  0  0  0  0  0  0  0  0  0
   -0.4960   22.3220  -26.3300 C   0  0  0  0  0  0  0  0  0  0  0  0
   -0.2340   23.3760  -25.2310 C   0  0  0  0  0  0  0  0  0  0  0  0
    0.1390   24.6990  -25.7370 N   0  0  0  0  0  0  0  0  0  0  0  0
   -1.2190   25.6660  -26.2960 S   0  0  0  0  0  0  0  0  0  0  0  0
   -0.7170   26.9520  -26.8940 O   0  0  0  0  0  0  0  0  0  0  0  0
   -2.0640   26.0240  -25.1060 O   0  0  0  0  0  0  0  0  0  0  0  0
   -2.2440   24.8440  -27.4910 C   0  0  0  0  0  0  0  0  0  0  0  0
   -3.1580   23.8640  -27.0700 C   0  0  0  0  0  0  0  0  0  0  0  0
   -4.0080   23.2430  -27.9900 C   0  0  0  0  0  0  0  0  0  0  0  0
   -4.9060   22.3200  -27.5630 F   0  0  0  0  0  0  0  0  0  0  0  0
   -3.9330   23.5740  -29.3460 C   0  0  0  0  0  0  0  0  0  0  0  0
   -4.7820   22.9630  -30.2610 O   0  0  0  0  0  0  0  0  0  0  0  0
   -2.9990   24.5180  -29.7830 C   0  0  0  0  0  0  0  0  0  0  0  0
   -2.1510   25.1490  -28.8650 C   0  0  0  0  0  0  0  0  0  0  0  0
   -1.2260   26.0780  -29.3310 O   0  0  0  0  0  0  0  0  0  0  0  0
    1.2480   24.6000  -26.6880 C   0  0  0  0  0  0  0  0  0  0  0  0
    0.8570   23.8310  -27.9460 C   0  0  0  0  0  0  0  0  0  0  0  0
   -0.5390   22.3480  -30.1120 C   0  0  0  0  0  0  0  0  0  0  0  0
   -0.9690   21.5490  -31.1750 C   0  0  0  0  0  0  0  0  0  0  0  0
   -5.0709   18.5702  -34.5676 H   0  0  0  0  0  0  0  0  0  0  0  0
   -4.7378   16.5884  -36.0805 H   0  0  0  0  0  0  0  0  0  0  0  0
   -1.9310   15.1290  -37.0120 H   0  0  0  0  0  0  0  0  0  0  0  0
   -0.7368   16.0220  -34.4608 H   0  0  0  0  0  0  0  0  0  0  0  0
   -0.6843   17.5391  -31.8830 H   0  0  0  0  0  0  0  0  0  0  0  0
   -0.0065   18.5991  -33.1055 H   0  0  0  0  0  0  0  0  0  0  0  0
   -1.3762   18.5954  -29.5173 H   0  0  0  0  0  0  0  0  0  0  0  0
   -0.6195   20.0066  -27.6218 H   0  0  0  0  0  0  0  0  0  0  0  0
   -1.5831   22.1672  -26.3953 H   0  0  0  0  0  0  0  0  0  0  0  0
    0.0688   21.4288  -26.0245 H   0  0  0  0  0  0  0  0  0  0  0  0
   -1.1501   23.4828  -24.6316 H   0  0  0  0  0  0  0  0  0  0  0  0
    0.6225   23.0116  -24.6448 H   0  0  0  0  0  0  0  0  0  0  0  0
   -3.2054   23.5828  -26.0076 H   0  0  0  0  0  0  0  0  0  0  0  0
   -2.9301   24.7660  -30.8525 H   0  0  0  0  0  0  0  0  0  0  0  0
    1.5608   25.6147  -26.9752 H   0  0  0  0  0  0  0  0  0  0  0  0
    2.0675   24.0540  -26.1977 H   0  0  0  0  0  0  0  0  0  0  0  0
    0.3179   24.5154  -28.6176 H   0  0  0  0  0  0  0  0  0  0  0  0
    1.7879   23.4508  -28.3920 H   0  0  0  0  0  0  0  0  0  0  0  0
   -0.2922   23.4043  -30.2946 H   0  0  0  0  0  0  0  0  0  0  0  0
   -1.0550   21.9837  -32.1818 H   0  0  0  0  0  0  0  0  0  0  0  0
  1  2  2  0
  2  3  1  0
  3  4  2  0
  4  5  1  0
  5  6  2  0
  6  7  1  0
  6  8  1  0
  8  9  2  0
  9 10  1  0
 10 11  1  0
 11 12  1  0
 12 13  2  0
 13 14  1  0
 14 15  2  0
 15 16  1  0
 16 17  1  0
 17 18  1  0
 18 19  1  0
 19 20  1  0
 20 21  2  0
 20 22  2  0
 20 23  1  0
 23 24  2  0
 24 25  1  0
 25 26  1  0
 25 27  2  0
 27 28  1  0
 27 29  1  0
 29 30  2  0
 30 31  1  0
 19 32  1  0
 32 33  1  0
 15 34  1  0
 34 35  2  0
 11  2  1  0
 35 12  1  0
  9  3  1  0
 33 16  1  0
 30 23  1  0
  4 36  1  0
  5 37  1  0
  7 38  1  0
  8 39  1  0
 10 40  1  0
 10 41  1  0
 13 42  1  0
 14 43  1  0
 17 44  1  0
 17 45  1  0
 18 46  1  0
 18 47  1  0
 24 48  1  0
 29 49  1  0
 32 50  1  0
 32 51  1  0
 33 52  1  0
 33 53  1  0
 34 54  1  0
 35 55  1  0
M  CHG  2  28  -1  31  -1
M  END
>  <UniqueID>  (2) 
2

>  <SMILES>  (2) 
O=C1c2ccc(O)cc2CN1c1ccc(N2CCN(S(=O)(=O)c3cc(F)c([O-])cc3[O-])CC2)cc1

>  <Energy>  (2) 
97.80179583167248

>  <Genealogy>  (2) 
O=C1c2ccc(O)cc2CN1c1ccc(N2CCN(S(=O)(=O)c3cc(F)c([O-])cc3[O-])CC2)cc1 (protonated)
O=C1c2ccc(O)cc2CN1c1ccc(N2CCN(S(=O)(=O)c3cc(F)c([O-])cc3[O-])CC2)cc1 (3D coordinates assigned)
O=C1c2ccc(O)cc2CN1c1ccc(N2CCN(S(=O)(=O)c3cc(F)c([O-])cc3[O-])CC2)cc1 (nonaromatic ring conformer: 97.80179583167248 kcal/mol)

>  <smiles>  (2) 
O=C1c2ccc(O)cc2CN1c1ccc(N2CCN(S(=O)(=O)c3cc(F)c(O)cc3O)CC2)cc1

>  <score_type>  (2) 
oracle

>  <origin>  (2) 
adgpu

>  <m_score__min__energy>  (2) 
-10.33

>  <m_primary>  (2) 
energy

$$$$
2:0
     RDKit          3D

 71 75  0  0  0  0  0  0  0  0999 V2000
   -3.1500   20.7930  -33.9660 O   0  0  0  0  0  0  0  0  0  0  0  0
   -3.5820   19.7680  -33.3700 C   0  0  0  0  0  0  0  0  0  0  0  0
   -2.7200   18.6310  -33.1950 N   0  0  0  0  0  0  0  0  0  0  0  0
   -1.3850   18.5870  -33.7170 C   0  0  0  0  0  0  0  0  0  0  0  0
   -0.9220   19.6540  -34.4980 C   0  0  0  0  0  0  0  0  0  0  0  0
    0.3700   19.6270  -35.0420 C   0  0  0  0  0  0  0  0  0  0  0  0
    0.9230   20.9450  -36.0740 S   0  0  0  0  0  0  0  0  0  0  0  0
    2.2000   20.5300  -36.7480 O   0  0  0  0  0  0  0  0  0  0  0  0
   -0.1000   21.1930  -37.1480 O   0  0  0  0  0  0  0  0  0  0  0  0
    1.1950   22.4290  -35.1820 N   0  0  0  0  0  0  0  0  0  0  0  0
    0.4450   23.5770  -35.7360 C   0  0  0  0  0  0  0  0  0  0  0  0
    1.3250   24.5230  -36.5690 C   0  0  0  0  0  0  0  0  0  0  0  0
    2.3760   23.8090  -37.1770 O   0  0  0  0  0  0  0  0  0  0  0  0
    3.2990   23.3870  -36.1920 C   0  0  0  0  0  0  0  0  0  0  0  0
    2.6290   22.7070  -34.9730 C   0  0  0  0  0  0  0  0  0  0  0  0
    1.2140   18.5410  -34.7670 C   0  0  0  0  0  0  0  0  0  0  0  0
    0.7680   17.4930  -33.9590 C   0  0  0  0  0  0  0  0  0  0  0  0
   -0.5240   17.5150  -33.4270 C   0  0  0  0  0  0  0  0  0  0  0  0
   -0.9350   16.4820  -32.5920 O   0  0  0  0  0  0  0  0  0  0  0  0
   -4.9670   19.7660  -32.8350 C   0  0  0  0  0  0  0  0  0  0  0  0
   -5.5090   20.9490  -32.2980 C   0  0  0  0  0  0  0  0  0  0  0  0
   -6.8320   20.9880  -31.8410 C   0  0  0  0  0  0  0  0  0  0  0  0
   -7.5030   22.4870  -31.1890 S   0  0  0  0  0  0  0  0  0  0  0  0
   -8.1070   22.2120  -29.8390 O   0  0  0  0  0  0  0  0  0  0  0  0
   -8.5980   22.9740  -32.0980 O   0  0  0  0  0  0  0  0  0  0  0  0
   -6.2880   23.7340  -31.0390 N   0  0  0  0  0  0  0  0  0  0  0  0
   -6.8510   24.9270  -30.3860 C   0  0  0  0  0  0  0  0  0  0  0  0
   -5.7410   25.9580  -30.0950 C   0  0  0  0  0  0  0  0  0  0  0  0
   -4.5170   25.5790  -30.6940 O   0  0  0  0  0  0  0  0  0  0  0  0
   -4.0740   24.3520  -30.1400 C   0  0  0  0  0  0  0  0  0  0  0  0
   -5.1320   23.2380  -30.2780 C   0  0  0  0  0  0  0  0  0  0  0  0
   -7.6260   19.8390  -31.9170 C   0  0  0  0  0  0  0  0  0  0  0  0
   -7.1040   18.6600  -32.4440 C   0  0  0  0  0  0  0  0  0  0  0  0
   -5.7790   18.6090  -32.9050 C   0  0  0  0  0  0  0  0  0  0  0  0
   -5.2580   17.3680  -33.4100 N   0  0  0  0  0  0  0  0  0  0  0  0
   -5.0190   17.2140  -34.8480 C   0  0  0  0  0  0  0  0  0  0  0  0
   -3.9680   16.1240  -35.0770 C   0  0  0  0  0  0  0  0  0  0  0  0
   -4.3310   14.9300  -34.4090 O   0  0  0  0  0  0  0  0  0  0  0  0
   -4.3220   15.1400  -33.0090 C   0  0  0  0  0  0  0  0  0  0  0  0
   -5.3980   16.1530  -32.6040 C   0  0  0  0  0  0  0  0  0  0  0  0
   -3.0250   17.8350  -32.5930 H   0  0  0  0  0  0  0  0  0  0  0  0
   -1.5761   20.5183  -34.6856 H   0  0  0  0  0  0  0  0  0  0  0  0
   -0.3614   23.1923  -36.3777 H   0  0  0  0  0  0  0  0  0  0  0  0
    0.0527   24.1550  -34.8863 H   0  0  0  0  0  0  0  0  0  0  0  0
    0.7105   24.9970  -37.3485 H   0  0  0  0  0  0  0  0  0  0  0  0
    1.7518   25.2895  -35.9055 H   0  0  0  0  0  0  0  0  0  0  0  0
    3.9961   22.6707  -36.6514 H   0  0  0  0  0  0  0  0  0  0  0  0
    3.8120   24.2865  -35.8209 H   0  0  0  0  0  0  0  0  0  0  0  0
    3.1449   21.7559  -34.7752 H   0  0  0  0  0  0  0  0  0  0  0  0
    2.7084   23.4024  -34.1244 H   0  0  0  0  0  0  0  0  0  0  0  0
    2.2296   18.5148  -35.1888 H   0  0  0  0  0  0  0  0  0  0  0  0
    1.4362   16.6470  -33.7405 H   0  0  0  0  0  0  0  0  0  0  0  0
   -4.8859   21.8534  -32.2367 H   0  0  0  0  0  0  0  0  0  0  0  0
   -7.6026   25.3814  -31.0482 H   0  0  0  0  0  0  0  0  0  0  0  0
   -7.3155   24.6264  -29.4353 H   0  0  0  0  0  0  0  0  0  0  0  0
   -6.0473   26.9363  -30.4939 H   0  0  0  0  0  0  0  0  0  0  0  0
   -5.5929   26.0104  -29.0063 H   0  0  0  0  0  0  0  0  0  0  0  0
   -3.1578   24.0377  -30.6613 H   0  0  0  0  0  0  0  0  0  0  0  0
   -3.8880   24.5118  -29.0677 H   0  0  0  0  0  0  0  0  0  0  0  0
   -4.6903   22.3793  -30.8049 H   0  0  0  0  0  0  0  0  0  0  0  0
   -5.4647   22.9298  -29.2758 H   0  0  0  0  0  0  0  0  0  0  0  0
   -8.6659   19.8665  -31.5595 H   0  0  0  0  0  0  0  0  0  0  0  0
   -7.7355   17.7611  -32.4994 H   0  0  0  0  0  0  0  0  0  0  0  0
   -5.9570   16.9295  -35.3472 H   0  0  0  0  0  0  0  0  0  0  0  0
   -4.6566   18.1659  -35.2634 H   0  0  0  0  0  0  0  0  0  0  0  0
   -3.8850   15.9234  -36.1554 H   0  0  0  0  0  0  0  0  0  0  0  0
   -3.0041   16.4731  -34.6782 H   0  0  0  0  0  0  0  0  0  0  0  0
   -4.5162   14.1845  -32.4997 H   0  0  0  0  0  0  0  0  0  0  0  0
   -3.3377   15.5357  -32.7181 H   0  0  0  0  0  0  0  0  0  0  0  0
   -6.3935   15.7158  -32.7708 H   0  0  0  0  0  0  0  0  0  0  0  0
   -5.2799   16.4052  -31.5398 H   0  0  0  0  0  0  0  0  0  0  0  0
  1  2  2  0
  2  3  1  0
  3  4  1  0
  4  5  2  0
  5  6  1  0
  6  7  1  0
  7  8  2  0
  7  9  2  0
  7 10  1  0
 10 11  1  0
 11 12  1  0
 12 13  1  0
 13 14  1  0
 14 15  1  0
  6 16  2  0
 16 17  1  0
 17 18  2  0
 18 19  1  0
  2 20  1  0
 20 21  2  0
 21 22  1  0
 22 23  1  0
 23 24  2  0
 23 25  2  0
 23 26  1  0
 26 27  1  0
 27 28  1  0
 28 29  1  0
 29 30  1  0
 30 31  1  0
 22 32  2  0
 32 33  1  0
 33 34  2  0
 34 35  1  0
 35 36  1  0
 36 37  1  0
 37 38  1  0
 38 39  1  0
 39 40  1  0
 18  4  1  0
 34 20  1  0
 40 35  1  0
 15 10  1  0
 31 26  1  0
  3 41  1  0
  5 42  1  0
 11 43  1  0
 11 44  1  0
 12 45  1  0
 12 46  1  0
 14 47  1  0
 14 48  1  0
 15 49  1  0
 15 50  1  0
 16 51  1  0
 17 52  1  0
 21 53  1  0
 27 54  1  0
 27 55  1  0
 28 56  1  0
 28 57  1  0
 30 58  1  0
 30 59  1  0
 31 60  1  0
 31 61  1  0
 32 62  1  0
 33 63  1  0
 36 64  1  0
 36 65  1  0
 37 66  1  0
 37 67  1  0
 39 68  1  0
 39 69  1  0
 40 70  1  0
 40 71  1  0
M  CHG  1  19  -1
M  END
>  <UniqueID>  (3) 
3

>  <SMILES>  (3) 
O=C(Nc1cc(S(=O)(=O)N2CCOCC2)ccc1[O-])c1cc(S(=O)(=O)N2CCOCC2)ccc1N1CCOCC1

>  <Energy>  (3) 
105.78914708317987

>  <Genealogy>  (3) 
O=C(Nc1cc(S(=O)(=O)N2CCOCC2)ccc1[O-])c1cc(S(=O)(=O)N2CCOCC2)ccc1N1CCOCC1 (protonated)
O=C(Nc1cc(S(=O)(=O)N2CCOCC2)ccc1[O-])c1cc(S(=O)(=O)N2CCOCC2)ccc1N1CCOCC1 (3D coordinates assigned)
O=C(Nc1cc(S(=O)(=O)N2CCOCC2)ccc1[O-])c1cc(S(=O)(=O)N2CCOCC2)ccc1N1CCOCC1 (nonaromatic ring conformer: 105.78914708317987 kcal/mol)

>  <smiles>  (3) 
O=C(Nc1cc(S(=O)(=O)N2CCOCC2)ccc1O)c1cc(S(=O)(=O)N2CCOCC2)ccc1N1CCOCC1

>  <score_type>  (3) 
oracle

>  <origin>  (3) 
adgpu

>  <m_score__min__energy>  (3) 
-14.17

>  <m_primary>  (3) 
energy

$$$$
3:0
     RDKit          3D

 55 58  0  0  0  0  0  0  0  0999 V2000
   -8.1010   22.7630  -31.9690 C   0  0  0  0  0  0  0  0  0  0  0  0
   -6.6450   22.3440  -31.9830 C   0  0  0  0  0  0  0  0  0  0  0  0
   -6.2220   21.1830  -32.6920 C   0  0  0  0  0  0  0  0  0  0  0  0
   -7.1890   20.2390  -33.3820 C   0  0  0  0  0  0  0  0  0  0  0  0
   -7.1340   18.8430  -32.8100 C   0  0  0  0  0  0  0  0  0  0  0  0
   -8.0230   18.4780  -31.9950 O   0  0  0  0  0  0  0  0  0  0  0  0
   -6.0770   17.9210  -33.1650 N   0  0  0  0  0  0  0  0  0  0  0  0
   -5.0330   18.3090  -34.1300 C   0  0  0  0  0  0  0  0  0  0  0  0
   -4.9160   17.2570  -35.2310 C   0  0  0  0  0  0  0  0  0  0  0  0
   -4.2200   16.0080  -34.7090 C   0  0  0  0  0  0  0  0  0  0  0  0
   -4.9930   15.4130  -33.2150 S   0  0  0  0  0  0  0  0  0  0  0  0
   -5.9140   14.2720  -33.5600 O   0  0  0  0  0  0  0  0  0  0  0  0
   -3.9160   14.9070  -32.2900 O   0  0  0  0  0  0  0  0  0  0  0  0
   -5.9280   16.6930  -32.3620 C   0  0  0  0  0  0  0  0  0  0  0  0
   -4.8570   20.8810  -32.7730 C   0  0  0  0  0  0  0  0  0  0  0  0
   -3.9100   21.6590  -32.1160 C   0  0  0  0  0  0  0  0  0  0  0  0
   -4.3080   22.7570  -31.3470 C   0  0  0  0  0  0  0  0  0  0  0  0
   -3.3450   23.5040  -30.6510 C   0  0  0  0  0  0  0  0  0  0  0  0
   -3.7160   24.6010  -29.8710 C   0  0  0  0  0  0  0  0  0  0  0  0
   -2.7020   25.3000  -29.1360 N   0  0  0  0  0  0  0  0  0  0  0  0
   -1.3960   24.8070  -28.8120 C   0  0  0  0  0  0  0  0  0  0  0  0
   -0.7090   24.2110  -29.6850 O   0  0  0  0  0  0  0  0  0  0  0  0
   -0.8550   25.0070  -27.4500 C   0  0  0  0  0  0  0  0  0  0  0  0
   -1.7530   25.3300  -26.4130 C   0  0  0  0  0  0  0  0  0  0  0  0
   -1.2800   25.6440  -25.1360 C   0  0  0  0  0  0  0  0  0  0  0  0
    0.0920   25.6330  -24.8780 C   0  0  0  0  0  0  0  0  0  0  0  0
    0.9920   25.2860  -25.8890 C   0  0  0  0  0  0  0  0  0  0  0  0
    0.5330   24.9500  -27.1680 C   0  0  0  0  0  0  0  0  0  0  0  0
    1.4760   24.5420  -28.1120 O   0  0  0  0  0  0  0  0  0  0  0  0
   -5.0740   24.9330  -29.7590 C   0  0  0  0  0  0  0  0  0  0  0  0
   -6.0420   24.2050  -30.4530 C   0  0  0  0  0  0  0  0  0  0  0  0
   -5.6790   23.1080  -31.2680 C   0  0  0  0  0  0  0  0  0  0  0  0
   -8.4441   22.8617  -30.9286 H   0  0  0  0  0  0  0  0  0  0  0  0
   -8.2096   23.7288  -32.4841 H   0  0  0  0  0  0  0  0  0  0  0  0
   -8.7063   22.0026  -32.4841 H   0  0  0  0  0  0  0  0  0  0  0  0
   -8.2103   20.6299  -33.2632 H   0  0  0  0  0  0  0  0  0  0  0  0
   -6.9022   20.1796  -34.4423 H   0  0  0  0  0  0  0  0  0  0  0  0
   -5.2956   19.2780  -34.5796 H   0  0  0  0  0  0  0  0  0  0  0  0
   -4.0697   18.3878  -33.6047 H   0  0  0  0  0  0  0  0  0  0  0  0
   -5.9231   16.9889  -35.5829 H   0  0  0  0  0  0  0  0  0  0  0  0
   -4.3218   17.6741  -36.0574 H   0  0  0  0  0  0  0  0  0  0  0  0
   -4.2710   15.2218  -35.4767 H   0  0  0  0  0  0  0  0  0  0  0  0
   -3.1741   16.2621  -34.4818 H   0  0  0  0  0  0  0  0  0  0  0  0
   -6.9292   16.3012  -32.1293 H   0  0  0  0  0  0  0  0  0  0  0  0
   -5.3724   16.9580  -31.4504 H   0  0  0  0  0  0  0  0  0  0  0  0
   -4.5286   20.0145  -33.3658 H   0  0  0  0  0  0  0  0  0  0  0  0
   -2.8421   21.4094  -32.2017 H   0  0  0  0  0  0  0  0  0  0  0  0
   -2.2842   23.2215  -30.7209 H   0  0  0  0  0  0  0  0  0  0  0  0
   -2.8351   25.3350  -26.6104 H   0  0  0  0  0  0  0  0  0  0  0  0
   -1.9885   25.8997  -24.3344 H   0  0  0  0  0  0  0  0  0  0  0  0
    0.4650   25.8978  -23.8776 H   0  0  0  0  0  0  0  0  0  0  0  0
    2.0715   25.2768  -25.6778 H   0  0  0  0  0  0  0  0  0  0  0  0
    1.2300   24.0600  -28.9650 H   0  0  0  0  0  0  0  0  0  0  0  0
   -5.3789   25.7741  -29.1190 H   0  0  0  0  0  0  0  0  0  0  0  0
   -7.1012   24.4885  -30.3647 H   0  0  0  0  0  0  0  0  0  0  0  0
  1  2  1  0
  2  3  2  0
  3  4  1  0
  4  5  1  0
  5  6  2  0
  5  7  1  0
  7  8  1  0
  8  9  1  0
  9 10  1  0
 10 11  1  0
 11 12  2  0
 11 13  2  0
 11 14  1  0
  3 15  1  0
 15 16  2  0
 16 17  1  0
 17 18  2  0
 18 19  1  0
 19 20  1  0
 20 21  1  0
 21 22  2  0
 21 23  1  0
 23 24  2  0
 24 25  1  0
 25 26  2  0
 26 27  1  0
 27 28  2  0
 28 29  1  0
 19 30  2  0
 30 31  1  0
 31 32  2  0
 32  2  1  0
 14  7  1  0
 32 17  1  0
 28 23  1  0
  1 33  1  0
  1 34  1  0
  1 35  1  0
  4 36  1  0
  4 37  1  0
  8 38  1  0
  8 39  1  0
  9 40  1  0
  9 41  1  0
 10 42  1  0
 10 43  1  0
 14 44  1  0
 14 45  1  0
 15 46  1  0
 16 47  1  0
 18 48  1  0
 24 49  1  0
 25 50  1  0
 26 51  1  0
 27 52  1  0
 29 53  1  0
 30 54  1  0
 31 55  1  0
M  CHG  1  20  -1
M  END
>  <UniqueID>  (4) 
4

>  <SMILES>  (4) 
Cc1c(CC(=O)N2CCCS(=O)(=O)C2)ccc2cc([N-]C(=O)c3ccccc3O)ccc12

>  <Energy>  (4) 
74.82087788174385

>  <Genealogy>  (4) 
Cc1c(CC(=O)N2CCCS(=O)(=O)C2)ccc2cc([N-]C(=O)c3ccccc3O)ccc12 (protonated)
Cc1c(CC(=O)N2CCCS(=O)(=O)C2)ccc2cc([N-]C(=O)c3ccccc3O)ccc12 (3D coordinates assigned)
Cc1c(CC(=O)N2CCCS(=O)(=O)C2)ccc2cc([N-]C(=O)c3ccccc3O)ccc12 (nonaromatic ring conformer: 74.82087788174385 kcal/mol)

>  <smiles>  (4) 
Cc1c(CC(=O)N2CCCS(=O)(=O)C2)ccc2cc(NC(=O)c3ccccc3O)ccc12

>  <score_type>  (4) 
oracle

>  <origin>  (4) 
adgpu

>  <m_score__min__energy>  (4) 
-12.33

>  <m_primary>  (4) 
energy

$$$$
4:0
     RDKit          3D

 42 44  0  0  0  0  0  0  0  0999 V2000
   -5.4430   26.2020  -30.3960 O   0  0  0  0  0  0  0  0  0  0  0  0
   -4.9090   25.0980  -30.6830 C   0  0  0  0  0  0  0  0  0  0  0  0
   -3.4970   24.9460  -30.4790 N   0  0  0  0  0  0  0  0  0  0  0  0
   -2.8540   24.3220  -29.3570 C   0  0  0  0  0  0  0  0  0  0  0  0
   -3.3060   23.0960  -28.8340 C   0  0  0  0  0  0  0  0  0  0  0  0
   -2.6410   22.5010  -27.7580 C   0  0  0  0  0  0  0  0  0  0  0  0
   -1.5100   23.1090  -27.2090 C   0  0  0  0  0  0  0  0  0  0  0  0
   -1.0380   24.3130  -27.7400 C   0  0  0  0  0  0  0  0  0  0  0  0
   -1.7050   24.9180  -28.8120 C   0  0  0  0  0  0  0  0  0  0  0  0
   -1.2250   26.1160  -29.3290 O   0  0  0  0  0  0  0  0  0  0  0  0
   -5.7600   23.9870  -31.1690 C   0  0  0  0  0  0  0  0  0  0  0  0
   -7.1490   24.1620  -31.2780 C   0  0  0  0  0  0  0  0  0  0  0  0
   -7.9580   23.1220  -31.7430 C   0  0  0  0  0  0  0  0  0  0  0  0
   -7.3900   21.8950  -32.0930 C   0  0  0  0  0  0  0  0  0  0  0  0
   -6.0100   21.6970  -31.9670 C   0  0  0  0  0  0  0  0  0  0  0  0
   -5.3060   20.1450  -32.4190 S   0  0  0  0  0  0  0  0  0  0  0  0
   -3.8490   20.3120  -32.7530 O   0  0  0  0  0  0  0  0  0  0  0  0
   -5.4150   19.2050  -31.2510 O   0  0  0  0  0  0  0  0  0  0  0  0
   -6.1550   19.4600  -33.7750 N   0  0  0  0  0  0  0  0  0  0  0  0
   -6.6290   18.1070  -33.4790 C   0  0  0  0  0  0  0  0  0  0  0  0
   -5.5640   17.0890  -33.7920 C   0  0  0  0  0  0  0  0  0  0  0  0
   -4.2080   17.4540  -33.7560 C   0  0  0  0  0  0  0  0  0  0  0  0
   -3.2140   16.5180  -34.0480 C   0  0  0  0  0  0  0  0  0  0  0  0
   -3.5640   15.2040  -34.3710 C   0  0  0  0  0  0  0  0  0  0  0  0
   -4.9090   14.8250  -34.4000 C   0  0  0  0  0  0  0  0  0  0  0  0
   -5.9090   15.7600  -34.1100 C   0  0  0  0  0  0  0  0  0  0  0  0
   -7.2420   15.3630  -34.1420 O   0  0  0  0  0  0  0  0  0  0  0  0
   -5.1970   22.7420  -31.5020 C   0  0  0  0  0  0  0  0  0  0  0  0
   -4.1861   22.6040  -29.2737 H   0  0  0  0  0  0  0  0  0  0  0  0
   -3.0095   21.5514  -27.3426 H   0  0  0  0  0  0  0  0  0  0  0  0
   -0.9910   22.6410  -26.3595 H   0  0  0  0  0  0  0  0  0  0  0  0
   -0.1406   24.7860  -27.3146 H   0  0  0  0  0  0  0  0  0  0  0  0
   -7.6028   25.1234  -30.9957 H   0  0  0  0  0  0  0  0  0  0  0  0
   -9.0442   23.2699  -31.8336 H   0  0  0  0  0  0  0  0  0  0  0  0
   -8.0288   21.0821  -32.4687 H   0  0  0  0  0  0  0  0  0  0  0  0
   -6.8892   18.0409  -32.4123 H   0  0  0  0  0  0  0  0  0  0  0  0
   -7.5118   17.8977  -34.1010 H   0  0  0  0  0  0  0  0  0  0  0  0
   -3.9271   18.4852  -33.4958 H   0  0  0  0  0  0  0  0  0  0  0  0
   -2.1551   16.8148  -34.0238 H   0  0  0  0  0  0  0  0  0  0  0  0
   -2.7804   14.4676  -34.6025 H   0  0  0  0  0  0  0  0  0  0  0  0
   -5.1821   13.7895  -34.6513 H   0  0  0  0  0  0  0  0  0  0  0  0
   -4.1131   22.5865  -31.3974 H   0  0  0  0  0  0  0  0  0  0  0  0
  1  2  2  0
  2  3  1  0
  3  4  1  0
  4  5  2  0
  5  6  1  0
  6  7  2  0
  7  8  1  0
  8  9  2  0
  9 10  1  0
  2 11  1  0
 11 12  2  0
 12 13  1  0
 13 14  2  0
 14 15  1  0
 15 16  1  0
 16 17  2  0
 16 18  2  0
 16 19  1  0
 19 20  1  0
 20 21  1  0
 21 22  2  0
 22 23  1  0
 23 24  2  0
 24 25  1  0
 25 26  2  0
 26 27  1  0
 15 28  2  0
  9  4  1  0
 28 11  1  0
 26 21  1  0
  5 29  1  0
  6 30  1  0
  7 31  1  0
  8 32  1  0
 12 33  1  0
 13 34  1  0
 14 35  1  0
 20 36  1  0
 20 37  1  0
 22 38  1  0
 23 39  1  0
 24 40  1  0
 25 41  1  0
 28 42  1  0
M  CHG  4   3  -1  10  -1  19  -1  27  -1
M  END
>  <UniqueID>  (5) 
5

>  <SMILES>  (5) 
O=C([N-]c1ccccc1[O-])c1cccc(S(=O)(=O)[N-]Cc2ccccc2[O-])c1

>  <Energy>  (5) 
47.52573910987555

>  <Genealogy>  (5) 
O=C([N-]c1ccccc1[O-])c1cccc(S(=O)(=O)[N-]Cc2ccccc2[O-])c1 (protonated)
O=C([N-]c1ccccc1[O-])c1cccc(S(=O)(=O)[N-]Cc2ccccc2[O-])c1 (3D coordinates assigned)
O=C([N-]c1ccccc1[O-])c1cccc(S(=O)(=O)[N-]Cc2ccccc2[O-])c1 (optimized conformer: 47.52573910987555 kcal/mol)

>  <smiles>  (5) 
O=C(Nc1ccccc1O)c1cccc(S(=O)(=O)NCc2ccccc2O)c1

>  <score_type>  (5) 
oracle

>  <origin>  (5) 
adgpu

>  <m_score__min__energy>  (5) 
-14.01

>  <m_primary>  (5) 
energy

$$$$
5:0
     RDKit          3D

 49 51  0  0  0  0  0  0  0  0999 V2000
   -9.0870   22.3280  -31.6180 C   0  0  0  0  0  0  0  0  0  0  0  0
   -7.5990   22.2540  -31.7950 C   0  0  0  0  0  0  0  0  0  0  0  0
   -7.0390   21.3300  -32.6910 C   0  0  0  0  0  0  0  0  0  0  0  0
   -5.6520   21.2320  -32.8250 C   0  0  0  0  0  0  0  0  0  0  0  0
   -4.8120   22.0460  -32.0600 C   0  0  0  0  0  0  0  0  0  0  0  0
   -3.4670   21.9280  -32.1970 F   0  0  0  0  0  0  0  0  0  0  0  0
   -5.3600   22.9670  -31.1510 C   0  0  0  0  0  0  0  0  0  0  0  0
   -4.3010   23.9780  -30.1690 S   0  0  0  0  0  0  0  0  0  0  0  0
   -4.0640   25.2760  -30.8900 O   0  0  0  0  0  0  0  0  0  0  0  0
   -4.9480   24.2560  -28.8420 O   0  0  0  0  0  0  0  0  0  0  0  0
   -2.7890   23.1730  -29.8930 N   0  0  0  0  0  0  0  0  0  0  0  0
   -2.0420   23.3360  -28.6860 C   0  0  0  0  0  0  0  0  0  0  0  0
   -1.9040   22.2440  -27.8280 C   0  0  0  0  0  0  0  0  0  0  0  0
   -1.1620   22.3500  -26.6980 N   0  0  0  0  0  0  0  0  0  0  0  0
   -0.5410   23.5070  -26.3410 C   0  0  0  0  0  0  0  0  0  0  0  0
    0.2050   23.5420  -25.1130 N   0  0  0  0  0  0  0  0  0  0  0  0
    1.5700   24.0700  -25.0770 C   0  0  0  0  0  0  0  0  0  0  0  0
   -0.4550   23.1560  -23.8670 C   0  0  0  0  0  0  0  0  0  0  0  0
   -0.6600   24.6480  -27.1670 C   0  0  0  0  0  0  0  0  0  0  0  0
    0.0630   25.8970  -26.8370 C   0  0  0  0  0  0  0  0  0  0  0  0
   -0.5320   26.8910  -26.0490 C   0  0  0  0  0  0  0  0  0  0  0  0
    0.2030   28.0430  -25.7530 C   0  0  0  0  0  0  0  0  0  0  0  0
   -0.3890   29.1210  -24.9040 C   0  0  0  0  0  0  0  0  0  0  0  0
    1.4750   28.1670  -26.2190 N   0  0  0  0  0  0  0  0  0  0  0  0
    2.0430   27.1940  -26.9760 C   0  0  0  0  0  0  0  0  0  0  0  0
    3.2550   27.3360  -27.4040 N   0  0  0  0  0  0  0  0  0  0  0  0
    1.3370   26.0710  -27.2780 N   0  0  0  0  0  0  0  0  0  0  0  0
   -1.4340   24.5600  -28.3430 C   0  0  0  0  0  0  0  0  0  0  0  0
   -1.5900   25.6910  -29.1480 O   0  0  0  0  0  0  0  0  0  0  0  0
   -6.7530   23.0570  -31.0150 C   0  0  0  0  0  0  0  0  0  0  0  0
   -9.3285   22.3400  -30.5449 H   0  0  0  0  0  0  0  0  0  0  0  0
   -9.4671   23.2462  -32.0897 H   0  0  0  0  0  0  0  0  0  0  0  0
   -9.5564   21.4521  -32.0897 H   0  0  0  0  0  0  0  0  0  0  0  0
   -7.6947   20.6807  -33.2898 H   0  0  0  0  0  0  0  0  0  0  0  0
   -5.2194   20.5117  -33.5350 H   0  0  0  0  0  0  0  0  0  0  0  0
   -2.3998   21.2923  -28.0697 H   0  0  0  0  0  0  0  0  0  0  0  0
    1.8881   24.1930  -24.0312 H   0  0  0  0  0  0  0  0  0  0  0  0
    2.2478   23.3692  -25.5864 H   0  0  0  0  0  0  0  0  0  0  0  0
    1.5997   25.0445  -25.5864 H   0  0  0  0  0  0  0  0  0  0  0  0
    0.1425   23.5054  -23.0121 H   0  0  0  0  0  0  0  0  0  0  0  0
   -1.4555   23.6113  -23.8257 H   0  0  0  0  0  0  0  0  0  0  0  0
   -0.5486   22.0608  -23.8257 H   0  0  0  0  0  0  0  0  0  0  0  0
   -1.5574   26.7675  -25.6706 H   0  0  0  0  0  0  0  0  0  0  0  0
   -0.2506   28.8691  -23.8422 H   0  0  0  0  0  0  0  0  0  0  0  0
    0.1112   30.0760  -25.1224 H   0  0  0  0  0  0  0  0  0  0  0  0
   -1.4633   29.2114  -25.1224 H   0  0  0  0  0  0  0  0  0  0  0  0
    3.7180   26.6030  -27.9860 H   0  0  0  0  0  0  0  0  0  0  0  0
   -2.0840   25.6720  -30.0290 H   0  0  0  0  0  0  0  0  0  0  0  0
   -7.1859   23.7629  -30.2909 H   0  0  0  0  0  0  0  0  0  0  0  0
  1  2  1  0
  2  3  2  0
  3  4  1  0
  4  5  2  0
  5  6  1  0
  5  7  1  0
  7  8  1  0
  8  9  2  0
  8 10  2  0
  8 11  1  0
 11 12  1  0
 12 13  2  0
 13 14  1  0
 14 15  2  0
 15 16  1  0
 16 17  1  0
 16 18  1  0
 15 19  1  0
 19 20  1  0
 20 21  2  0
 21 22  1  0
 22 23  1  0
 22 24  2  0
 24 25  1  0
 25 26  2  3
 25 27  1  0
 19 28  2  0
 28 29  1  0
  7 30  2  0
 30  2  1  0
 28 12  1  0
 27 20  1  0
  1 31  1  0
  1 32  1  0
  1 33  1  0
  3 34  1  0
  4 35  1  0
 13 36  1  0
 17 37  1  0
 17 38  1  0
 17 39  1  0
 18 40  1  0
 18 41  1  0
 18 42  1  0
 21 43  1  0
 23 44  1  0
 23 45  1  0
 23 46  1  0
 26 47  1  0
 29 48  1  0
 30 49  1  0
M  CHG  2  11  -1  27  -1
M  END
>  <UniqueID>  (6) 
6

>  <SMILES>  (6) 
Cc1ccc(F)c(S(=O)(=O)[N-]c2cnc(N(C)C)c(-c3cc(C)nc(=N)[n-]3)c2O)c1

>  <Energy>  (6) 
70.19414152315247

>  <Genealogy>  (6) 
Cc1ccc(F)c(S(=O)(=O)[N-]c2cnc(N(C)C)c(-c3cc(C)nc(=N)[n-]3)c2O)c1 (protonated)
Cc1ccc(F)c(S(=O)(=O)[N-]c2cnc(N(C)C)c(-c3cc(C)nc(=N)[n-]3)c2O)c1 (3D coordinates assigned)
Cc1ccc(F)c(S(=O)(=O)[N-]c2cnc(N(C)C)c(-c3cc(C)nc(=N)[n-]3)c2O)c1 (optimized conformer: 70.19414152315247 kcal/mol)

>  <smiles>  (6) 
Cc1ccc(F)c(S(=O)(=O)Nc2cnc(N(C)C)c(-c3cc(C)nc(=N)[nH]3)c2O)c1

>  <score_type>  (6) 
oracle

>  <origin>  (6) 
adgpu

>  <m_score__min__energy>  (6) 
-10.710000000000001

>  <m_primary>  (6) 
energy

$$$$
6:0
     RDKit          3D

 34 35  0  0  0  0  0  0  0  0999 V2000
   -8.8497   17.2607  -32.7651 H   0  0  0  0  0  0  0  0  0  0  0  0
   -8.4710   18.2170  -32.3750 C   0  0  0  0  0  0  0  0  0  0  0  0
   -9.3480   19.2860  -32.1770 C   0  0  0  0  0  0  0  0  0  0  0  0
  -10.4164   19.1709  -32.4121 H   0  0  0  0  0  0  0  0  0  0  0  0
   -8.8690   20.5030  -31.6800 C   0  0  0  0  0  0  0  0  0  0  0  0
   -9.5628   21.3417  -31.5214 H   0  0  0  0  0  0  0  0  0  0  0  0
   -7.5050   20.6570  -31.3830 C   0  0  0  0  0  0  0  0  0  0  0  0
   -7.0010   21.9470  -30.7970 C   0  0  0  0  0  0  0  0  0  0  0  0
   -6.3372   21.7241  -29.9487 H   0  0  0  0  0  0  0  0  0  0  0  0
   -7.8610   22.5440  -30.4593 H   0  0  0  0  0  0  0  0  0  0  0  0
   -6.0930   22.8830  -32.0260 S   0  0  0  0  0  0  0  0  0  0  0  0
   -7.0900   23.7230  -32.7720 O   0  0  0  0  0  0  0  0  0  0  0  0
   -5.4170   21.9830  -33.0210 O   0  0  0  0  0  0  0  0  0  0  0  0
   -4.9470   23.9670  -31.2910 N   0  0  0  0  0  0  0  0  0  0  0  0
   -3.8480   23.7950  -30.6010 C   0  0  0  0  0  0  0  0  0  0  0  0
   -3.2510   22.5370  -30.3090 C   0  0  0  0  0  0  0  0  0  0  0  0
   -3.7840   20.9720  -30.9010 Cl  0  0  0  0  0  0  0  0  0  0  0  0
   -2.1020   22.5040  -29.5120 C   0  0  0  0  0  0  0  0  0  0  0  0
   -1.6412   21.5339  -29.2744 H   0  0  0  0  0  0  0  0  0  0  0  0
   -1.5240   23.6770  -29.0090 C   0  0  0  0  0  0  0  0  0  0  0  0
   -0.3050   23.6200  -28.1520 C   0  0  0  0  0  0  0  0  0  0  0  0
    0.7520   24.2040  -28.5140 O   0  0  0  0  0  0  0  0  0  0  0  0
   -0.2990   22.9030  -26.8340 C   0  0  0  0  0  0  0  0  0  0  0  0
   -0.3052   23.6388  -26.0163 H   0  0  0  0  0  0  0  0  0  0  0  0
   -1.1918   22.2648  -26.7597 H   0  0  0  0  0  0  0  0  0  0  0  0
    0.6044   22.2798  -26.7597 H   0  0  0  0  0  0  0  0  0  0  0  0
   -2.1310   24.9000  -29.3430 C   0  0  0  0  0  0  0  0  0  0  0  0
   -1.5990   26.1060  -28.9010 O   0  0  0  0  0  0  0  0  0  0  0  0
   -3.2500   24.9220  -30.1160 N   0  0  0  0  0  0  0  0  0  0  0  0
   -3.6740   25.8540  -30.3320 H   0  0  0  0  0  0  0  0  0  0  0  0
   -6.6300   19.5760  -31.5830 C   0  0  0  0  0  0  0  0  0  0  0  0
   -5.5608   19.6861  -31.3492 H   0  0  0  0  0  0  0  0  0  0  0  0
   -7.1130   18.3610  -32.0780 C   0  0  0  0  0  0  0  0  0  0  0  0
   -6.4238   17.5179  -32.2338 H   0  0  0  0  0  0  0  0  0  0  0  0
  1  2  1  0
  2  3  2  0
  3  4  1  0
  3  5  1  0
  5  6  1  0
  5  7  2  0
  7  8  1  0
  8  9  1  0
  8 10  1  0
  8 11  1  0
 11 12  2  0
 11 13  2  0
 11 14  1  0
 14 15  2  0
 15 16  1  0
 16 17  1  0
 16 18  2  0
 18 19  1  0
 18 20  1  0
 20 21  1  0
 21 22  2  0
 21 23  1  0
 23 24  1  0
 23 25  1  0
 23 26  1  0
 20 27  2  0
 27 28  1  0
 27 29  1  0
 29 30  1  0
  7 31  1  0
 31 32  1  0
 31 33  2  0
 33 34  1  0
 33  2  1  0
 29 15  1  0
M  CHG  1  28  -1
M  END
>  <UniqueID>  (7) 
7

>  <SMILES>  (7) 
CC(=O)c1cc(Cl)/c(=N\S(=O)(=O)Cc2ccccc2)[nH]c1[O-]

>  <Energy>  (7) 
48.3750528366974

>  <Genealogy>  (7) 
CC(=O)c1cc(Cl)c(=NS(=O)(=O)Cc2ccccc2)[nH]c1[O-] (protonated)
CC(=O)c1cc(Cl)/c(=N\S(=O)(=O)Cc2ccccc2)[nH]c1[O-] (cis-trans isomerization)
CC(=O)c1cc(Cl)/c(=N\S(=O)(=O)Cc2ccccc2)[nH]c1[O-] (3D coordinates assigned)
CC(=O)c1cc(Cl)/c(=N\S(=O)(=O)Cc2ccccc2)[nH]c1[O-] (optimized conformer: 48.3750528366974 kcal/mol)

>  <smiles>  (7) 
CC(=O)c1cc(Cl)c(=NS(=O)(=O)Cc2ccccc2)[nH]c1O

>  <score_type>  (7) 
oracle

>  <origin>  (7) 
adgpu

>  <m_score__min__energy>  (7) 
-11.07

>  <m_primary>  (7) 
energy

$$$$
7:0
     RDKit          3D

 40 41  0  0  0  0  0  0  0  0999 V2000
   -6.4400   16.6730  -33.8150 C   0  0  0  0  0  0  0  0  0  0  0  0
   -7.5720   17.2470  -33.1680 O   0  0  0  0  0  0  0  0  0  0  0  0
   -7.6570   18.5870  -32.7640 C   0  0  0  0  0  0  0  0  0  0  0  0
   -6.9310   19.6140  -33.3950 C   0  0  0  0  0  0  0  0  0  0  0  0
   -7.0450   20.9330  -32.9500 C   0  0  0  0  0  0  0  0  0  0  0  0
   -7.8820   21.2490  -31.8680 C   0  0  0  0  0  0  0  0  0  0  0  0
   -7.9850   22.6680  -31.3730 C   0  0  0  0  0  0  0  0  0  0  0  0
   -7.2950   22.8400  -30.0150 C   0  0  0  0  0  0  0  0  0  0  0  0
   -6.5750   24.1150  -29.9670 N   0  0  0  0  0  0  0  0  0  0  0  0
   -5.0850   23.9930  -30.8520 S   0  0  0  0  0  0  0  0  0  0  0  0
   -4.3100   25.2760  -30.7390 O   0  0  0  0  0  0  0  0  0  0  0  0
   -5.3980   23.7420  -32.3000 O   0  0  0  0  0  0  0  0  0  0  0  0
   -4.0880   22.6450  -30.2310 C   0  0  0  0  0  0  0  0  0  0  0  0
   -3.7950   21.6420  -31.3140 C   0  0  0  0  0  0  0  0  0  0  0  0
   -2.9880   21.9930  -32.4100 C   0  0  0  0  0  0  0  0  0  0  0  0
   -2.7370   21.0660  -33.4260 C   0  0  0  0  0  0  0  0  0  0  0  0
   -3.2690   19.7770  -33.3460 C   0  0  0  0  0  0  0  0  0  0  0  0
   -4.0660   19.4160  -32.2570 C   0  0  0  0  0  0  0  0  0  0  0  0
   -4.3360   20.3460  -31.2470 C   0  0  0  0  0  0  0  0  0  0  0  0
   -8.5940   20.2210  -31.2300 C   0  0  0  0  0  0  0  0  0  0  0  0
   -8.4890   18.9040  -31.6840 C   0  0  0  0  0  0  0  0  0  0  0  0
   -5.7286   16.3123  -33.0576 H   0  0  0  0  0  0  0  0  0  0  0  0
   -6.7649   15.8307  -34.4435 H   0  0  0  0  0  0  0  0  0  0  0  0
   -5.9525   17.4328  -34.4435 H   0  0  0  0  0  0  0  0  0  0  0  0
   -6.2708   19.3770  -34.2424 H   0  0  0  0  0  0  0  0  0  0  0  0
   -6.4751   21.7296  -33.4507 H   0  0  0  0  0  0  0  0  0  0  0  0
   -7.5076   23.3372  -32.1039 H   0  0  0  0  0  0  0  0  0  0  0  0
   -9.0501   22.9156  -31.2531 H   0  0  0  0  0  0  0  0  0  0  0  0
   -8.0531   22.8214  -29.2181 H   0  0  0  0  0  0  0  0  0  0  0  0
   -6.5772   22.0188  -29.8724 H   0  0  0  0  0  0  0  0  0  0  0  0
   -6.3190   24.3070  -28.9710 H   0  0  0  0  0  0  0  0  0  0  0  0
   -3.1386   23.0475  -29.8481 H   0  0  0  0  0  0  0  0  0  0  0  0
   -4.6459   22.1393  -29.4291 H   0  0  0  0  0  0  0  0  0  0  0  0
   -2.5521   23.0013  -32.4686 H   0  0  0  0  0  0  0  0  0  0  0  0
   -2.1194   21.3523  -34.2900 H   0  0  0  0  0  0  0  0  0  0  0  0
   -3.0603   19.0458  -34.1409 H   0  0  0  0  0  0  0  0  0  0  0  0
   -4.4818   18.3996  -32.1934 H   0  0  0  0  0  0  0  0  0  0  0  0
   -4.9741   20.0620  -30.3972 H   0  0  0  0  0  0  0  0  0  0  0  0
   -9.2375   20.4536  -30.3687 H   0  0  0  0  0  0  0  0  0  0  0  0
   -9.0654   18.1090  -31.1883 H   0  0  0  0  0  0  0  0  0  0  0  0
  1  2  1  0
  2  3  1  0
  3  4  2  0
  4  5  1  0
  5  6  2  0
  6  7  1  0
  7  8  1  0
  8  9  1  0
  9 10  1  0
 10 11  2  0
 10 12  2  0
 10 13  1  0
 13 14  1  0
 14 15  2  0
 15 16  1  0
 16 17  2  0
 17 18  1  0
 18 19  2  0
  6 20  1  0
 20 21  2  0
 21  3  1  0
 19 14  1  0
  1 22  1  0
  1 23  1  0
  1 24  1  0
  4 25  1  0
  5 26  1  0
  7 27  1  0
  7 28  1  0
  8 29  1  0
  8 30  1  0
  9 31  1  0
 13 32  1  0
 13 33  1  0
 15 34  1  0
 16 35  1  0
 17 36  1  0
 18 37  1  0
 19 38  1  0
 20 39  1  0
 21 40  1  0
M  END
>  <UniqueID>  (8) 
8

>  <SMILES>  (8) 
COc1ccc(CCNS(=O)(=O)Cc2ccccc2)cc1

>  <Energy>  (8) 
24.912395415607413

>  <Genealogy>  (8) 
COc1ccc(CCNS(=O)(=O)Cc2ccccc2)cc1 (3D coordinates assigned)
COc1ccc(CCNS(=O)(=O)Cc2ccccc2)cc1 (optimized conformer: 24.912395415607413 kcal/mol)

>  <smiles>  (8) 
COc1ccc(CCNS(=O)(=O)Cc2ccccc2)cc1

>  <score_type>  (8) 
oracle

>  <origin>  (8) 
adgpu

>  <m_score__min__energy>  (8) 
-8.5600000000000005

>  <m_primary>  (8) 
energy

$$$$
8:0
     RDKit          3D

 44 47  0  0  0  0  0  0  0  0999 V2000
   -2.1110   25.1530  -29.3350 O   0  0  0  0  0  0  0  0  0  0  0  0
   -3.2150   24.6990  -29.7320 C   0  0  0  0  0  0  0  0  0  0  0  0
   -3.8770   25.2240  -30.7960 N   0  0  0  0  0  0  0  0  0  0  0  0
   -4.9690   24.4480  -30.8560 C   0  0  0  0  0  0  0  0  0  0  0  0
   -6.0180   24.5250  -31.7640 C   0  0  0  0  0  0  0  0  0  0  0  0
   -7.0660   23.5960  -31.6370 C   0  0  0  0  0  0  0  0  0  0  0  0
   -7.0350   22.6050  -30.6170 C   0  0  0  0  0  0  0  0  0  0  0  0
   -8.0790   21.6310  -30.4750 N   0  0  0  0  0  0  0  0  0  0  0  0
   -8.3590   20.3060  -31.5590 S   0  0  0  0  0  0  0  0  0  0  0  0
   -9.1070   19.2300  -30.8240 O   0  0  0  0  0  0  0  0  0  0  0  0
   -9.1940   20.7410  -32.7300 O   0  0  0  0  0  0  0  0  0  0  0  0
   -6.8080   19.6690  -32.1020 C   0  0  0  0  0  0  0  0  0  0  0  0
   -6.6070   18.2860  -32.2180 C   0  0  0  0  0  0  0  0  0  0  0  0
   -5.3460   17.7860  -32.5540 C   0  0  0  0  0  0  0  0  0  0  0  0
   -4.2710   18.6600  -32.7470 C   0  0  0  0  0  0  0  0  0  0  0  0
   -4.4630   20.0430  -32.6260 C   0  0  0  0  0  0  0  0  0  0  0  0
   -3.1070   21.1610  -32.7370 S   0  0  0  0  0  0  0  0  0  0  0  0
   -3.4820   22.3040  -33.6390 O   0  0  0  0  0  0  0  0  0  0  0  0
   -1.9050   20.4580  -33.3090 O   0  0  0  0  0  0  0  0  0  0  0  0
   -2.7410   21.7640  -31.1390 N   0  0  0  0  0  0  0  0  0  0  0  0
   -1.3100   22.0140  -30.9620 C   0  0  0  0  0  0  0  0  0  0  0  0
   -1.0450   21.9010  -29.4730 C   0  0  0  0  0  0  0  0  0  0  0  0
   -2.0970   20.9290  -28.9670 C   0  0  0  0  0  0  0  0  0  0  0  0
   -3.1230   20.8090  -30.0900 C   0  0  0  0  0  0  0  0  0  0  0  0
   -5.7370   20.5420  -32.3310 C   0  0  0  0  0  0  0  0  0  0  0  0
   -5.9610   22.5790  -29.7040 C   0  0  0  0  0  0  0  0  0  0  0  0
   -4.9410   23.5140  -29.8650 C   0  0  0  0  0  0  0  0  0  0  0  0
   -3.8290   23.6490  -29.1290 N   0  0  0  0  0  0  0  0  0  0  0  0
   -6.0283   25.2879  -32.5564 H   0  0  0  0  0  0  0  0  0  0  0  0
   -7.9172   23.6360  -32.3325 H   0  0  0  0  0  0  0  0  0  0  0  0
   -7.4436   17.5933  -32.0442 H   0  0  0  0  0  0  0  0  0  0  0  0
   -5.1983   16.7018  -32.6671 H   0  0  0  0  0  0  0  0  0  0  0  0
   -3.2756   18.2621  -32.9936 H   0  0  0  0  0  0  0  0  0  0  0  0
   -3.2610   22.6620  -30.9940 H   0  0  0  0  0  0  0  0  0  0  0  0
   -0.7207   21.2660  -31.5126 H   0  0  0  0  0  0  0  0  0  0  0  0
   -1.0240   23.0038  -31.3474 H   0  0  0  0  0  0  0  0  0  0  0  0
   -0.0339   21.5095  -29.2875 H   0  0  0  0  0  0  0  0  0  0  0  0
   -1.0999   22.8753  -28.9653 H   0  0  0  0  0  0  0  0  0  0  0  0
   -1.6437   19.9493  -28.7554 H   0  0  0  0  0  0  0  0  0  0  0  0
   -2.5579   21.2803  -28.0320 H   0  0  0  0  0  0  0  0  0  0  0  0
   -3.1201   19.7859  -30.4940 H   0  0  0  0  0  0  0  0  0  0  0  0
   -4.1344   21.0269  -29.7165 H   0  0  0  0  0  0  0  0  0  0  0  0
   -5.8984   21.6288  -32.2786 H   0  0  0  0  0  0  0  0  0  0  0  0
   -5.9294   21.8418  -28.8882 H   0  0  0  0  0  0  0  0  0  0  0  0
  1  2  2  0
  2  3  1  0
  3  4  1  0
  4  5  2  0
  5  6  1  0
  6  7  2  0
  7  8  1  0
  8  9  1  0
  9 10  2  0
  9 11  2  0
  9 12  1  0
 12 13  2  0
 13 14  1  0
 14 15  2  0
 15 16  1  0
 16 17  1  0
 17 18  2  0
 17 19  2  0
 17 20  1  0
 20 21  1  0
 21 22  1  0
 22 23  1  0
 23 24  1  0
 16 25  2  0
  7 26  1  0
 26 27  2  0
 27 28  1  0
 28  2  1  0
 27  4  1  0
 25 12  1  0
 24 20  1  0
  5 29  1  0
  6 30  1  0
 13 31  1  0
 14 32  1  0
 15 33  1  0
 20 34  1  0
 21 35  1  0
 21 36  1  0
 22 37  1  0
 22 38  1  0
 23 39  1  0
 23 40  1  0
 24 41  1  0
 24 42  1  0
 25 43  1  0
 26 44  1  0
M  CHG  4   3  -1   8  -1  20   1  28  -1
M  END
>  <UniqueID>  (9) 
9

>  <SMILES>  (9) 
O=c1[n-]c2ccc([N-]S(=O)(=O)c3cccc(S(=O)(=O)[NH+]4CCCC4)c3)cc2[n-]1

>  <Energy>  (9) 
84.97823007276332

>  <Genealogy>  (9) 
O=c1[n-]c2ccc([N-]S(=O)(=O)c3cccc(S(=O)(=O)[NH+]4CCCC4)c3)cc2[n-]1 (protonated)
O=c1[n-]c2ccc([N-]S(=O)(=O)c3cccc(S(=O)(=O)[NH+]4CCCC4)c3)cc2[n-]1 (3D coordinates assigned)
O=c1[n-]c2ccc([N-]S(=O)(=O)c3cccc(S(=O)(=O)[NH+]4CCCC4)c3)cc2[n-]1 (nonaromatic ring conformer: 84.97823007276332 kcal/mol)

>  <smiles>  (9) 
O=c1[nH]c2ccc(NS(=O)(=O)c3cccc(S(=O)(=O)N4CCCC4)c3)cc2[nH]1

>  <score_type>  (9) 
oracle

>  <origin>  (9) 
adgpu

>  <m_score__min__energy>  (9) 
-11.66

>  <m_primary>  (9) 
energy

$$$$
9:0
     RDKit          3D

 52 54  0  0  0  0  0  0  0  0999 V2000
   -8.5580   19.1560  -31.1110 O   0  0  0  0  0  0  0  0  0  0  0  0
   -8.7360   19.7680  -32.1990 C   0  0  0  0  0  0  0  0  0  0  0  0
   -9.9200   20.6760  -32.3430 C   0  0  0  0  0  0  0  0  0  0  0  0
   -9.6990   21.8990  -31.6390 O   0  0  0  0  0  0  0  0  0  0  0  0
   -8.4430   22.4740  -31.3860 C   0  0  0  0  0  0  0  0  0  0  0  0
   -7.8560   22.2570  -30.1350 C   0  0  0  0  0  0  0  0  0  0  0  0
   -6.6030   22.7980  -29.8340 C   0  0  0  0  0  0  0  0  0  0  0  0
   -5.9230   23.5720  -30.7810 C   0  0  0  0  0  0  0  0  0  0  0  0
   -4.3360   24.2280  -30.3910 S   0  0  0  0  0  0  0  0  0  0  0  0
   -4.2380   25.6580  -30.8450 O   0  0  0  0  0  0  0  0  0  0  0  0
   -4.1470   24.1780  -28.9000 O   0  0  0  0  0  0  0  0  0  0  0  0
   -3.1050   23.2720  -31.1810 N   0  0  0  0  0  0  0  0  0  0  0  0
   -2.2080   22.6310  -30.1920 C   0  0  0  0  0  0  0  0  0  0  0  0
   -2.4740   21.1210  -30.0580 C   0  0  0  0  0  0  0  0  0  0  0  0
   -2.3320   20.4190  -31.2850 O   0  0  0  0  0  0  0  0  0  0  0  0
   -2.7650   21.1570  -32.4220 C   0  0  0  0  0  0  0  0  0  0  0  0
   -3.7350   22.3060  -32.1000 C   0  0  0  0  0  0  0  0  0  0  0  0
   -6.5070   23.7980  -32.0350 C   0  0  0  0  0  0  0  0  0  0  0  0
   -7.7590   23.2570  -32.3370 C   0  0  0  0  0  0  0  0  0  0  0  0
   -7.8160   19.5930  -33.2870 N   0  0  0  0  0  0  0  0  0  0  0  0
   -6.6000   18.7830  -33.1590 C   0  0  0  0  0  0  0  0  0  0  0  0
   -5.6900   18.9820  -34.3840 C   0  0  0  0  0  0  0  0  0  0  0  0
   -4.3600   18.2140  -34.2360 C   0  0  0  0  0  0  0  0  0  0  0  0
   -4.4820   16.9320  -33.3870 C   0  0  0  0  0  0  0  0  0  0  0  0
   -5.8820   16.3190  -33.4880 C   0  0  0  0  0  0  0  0  0  0  0  0
   -6.9680   17.2900  -32.9770 C   0  0  0  0  0  0  0  0  0  0  0  0
  -10.0808   20.8954  -33.4088 H   0  0  0  0  0  0  0  0  0  0  0  0
  -10.8052   20.1771  -31.9217 H   0  0  0  0  0  0  0  0  0  0  0  0
   -8.3853   21.6552  -29.3815 H   0  0  0  0  0  0  0  0  0  0  0  0
   -6.1495   22.6147  -28.8487 H   0  0  0  0  0  0  0  0  0  0  0  0
   -1.1657   22.7801  -30.5104 H   0  0  0  0  0  0  0  0  0  0  0  0
   -2.3982   23.0953  -29.2131 H   0  0  0  0  0  0  0  0  0  0  0  0
   -1.7618   20.7032  -29.3312 H   0  0  0  0  0  0  0  0  0  0  0  0
   -3.5167   20.9995  -29.7294 H   0  0  0  0  0  0  0  0  0  0  0  0
   -1.8782   21.5828  -32.9143 H   0  0  0  0  0  0  0  0  0  0  0  0
   -3.3140   20.4524  -33.0640 H   0  0  0  0  0  0  0  0  0  0  0  0
   -4.0095   22.8201  -33.0329 H   0  0  0  0  0  0  0  0  0  0  0  0
   -4.6319   21.8897  -31.6181 H   0  0  0  0  0  0  0  0  0  0  0  0
   -5.9771   24.4040  -32.7846 H   0  0  0  0  0  0  0  0  0  0  0  0
   -8.2129   23.4431  -33.3216 H   0  0  0  0  0  0  0  0  0  0  0  0
   -8.0000   20.1020  -34.1820 H   0  0  0  0  0  0  0  0  0  0  0  0
   -6.0464   19.1121  -32.2673 H   0  0  0  0  0  0  0  0  0  0  0  0
   -6.2139   18.6186  -35.2804 H   0  0  0  0  0  0  0  0  0  0  0  0
   -5.4597   20.0542  -34.4703 H   0  0  0  0  0  0  0  0  0  0  0  0
   -4.0054   17.9350  -35.2392 H   0  0  0  0  0  0  0  0  0  0  0  0
   -3.6568   18.8812  -33.7160 H   0  0  0  0  0  0  0  0  0  0  0  0
   -3.7443   16.1973  -33.7421 H   0  0  0  0  0  0  0  0  0  0  0  0
   -4.2980   17.1973  -32.3355 H   0  0  0  0  0  0  0  0  0  0  0  0
   -6.0890   16.0742  -34.5402 H   0  0  0  0  0  0  0  0  0  0  0  0
   -5.9071   15.4154  -32.8611 H   0  0  0  0  0  0  0  0  0  0  0  0
   -7.8990   17.0916  -33.5282 H   0  0  0  0  0  0  0  0  0  0  0  0
   -7.0758   17.1137  -31.8966 H   0  0  0  0  0  0  0  0  0  0  0  0
  1  2  2  0
  2  3  1  0
  3  4  1  0
  4  5  1  0
  5  6  2  0
  6  7  1  0
  7  8  2  0
  8  9  1  0
  9 10  2  0
  9 11  2  0
  9 12  1  0
 12 13  1  0
 13 14  1  0
 14 15  1  0
 15 16  1  0
 16 17  1  0
  8 18  1  0
 18 19  2  0
  2 20  1  0
 20 21  1  0
 21 22  1  0
 22 23  1  0
 23 24  1  0
 24 25  1  0
 25 26  1  0
 19  5  1  0
 26 21  1  0
 17 12  1  0
  3 27  1  0
  3 28  1  0
  6 29  1  0
  7 30  1  0
 13 31  1  0
 13 32  1  0
 14 33  1  0
 14 34  1  0
 16 35  1  0
 16 36  1  0
 17 37  1  0
 17 38  1  0
 18 39  1  0
 19 40  1  0
 20 41  1  0
 21 42  1  0
 22 43  1  0
 22 44  1  0
 23 45  1  0
 23 46  1  0
 24 47  1  0
 24 48  1  0
 25 49  1  0
 25 50  1  0
 26 51  1  0
 26 52  1  0
M  END
>  <UniqueID>  (10) 
10

>  <SMILES>  (10) 
O=C(COc1ccc(S(=O)(=O)N2CCOCC2)cc1)NC1CCCCC1

>  <Energy>  (10) 
62.550258854647794

>  <Genealogy>  (10) 
O=C(COc1ccc(S(=O)(=O)N2CCOCC2)cc1)NC1CCCCC1 (3D coordinates assigned)
O=C(COc1ccc(S(=O)(=O)N2CCOCC2)cc1)NC1CCCCC1 (nonaromatic ring conformer: 62.550258854647794 kcal/mol)

>  <smiles>  (10) 
O=C(COc1ccc(S(=O)(=O)N2CCOCC2)cc1)NC1CCCCC1

>  <score_type>  (10) 
oracle

>  <origin>  (10) 
adgpu

>  <m_score__min__energy>  (10) 
-9.6199999999999992

>  <m_primary>  (10) 
energy

$$$$
10:0
     RDKit          3D

 57 61  0  0  0  0  0  0  0  0999 V2000
   -0.6390   22.8760  -29.2600 C   0  0  0  0  0  0  0  0  0  0  0  0
   -1.3150   23.0360  -30.5010 O   0  0  0  0  0  0  0  0  0  0  0  0
   -2.6950   23.2590  -30.6810 C   0  0  0  0  0  0  0  0  0  0  0  0
   -3.3870   24.3520  -30.1010 C   0  0  0  0  0  0  0  0  0  0  0  0
   -2.7360   25.2950  -29.3170 O   0  0  0  0  0  0  0  0  0  0  0  0
   -4.7610   24.5050  -30.3050 C   0  0  0  0  0  0  0  0  0  0  0  0
   -5.4700   23.5870  -31.0850 C   0  0  0  0  0  0  0  0  0  0  0  0
   -6.8460   23.7380  -31.3040 C   0  0  0  0  0  0  0  0  0  0  0  0
   -7.5290   22.8160  -32.0990 C   0  0  0  0  0  0  0  0  0  0  0  0
   -6.8290   21.7540  -32.6710 C   0  0  0  0  0  0  0  0  0  0  0  0
   -5.4940   21.6190  -32.4500 N   0  0  0  0  0  0  0  0  0  0  0  0
   -4.7960   22.4960  -31.6730 C   0  0  0  0  0  0  0  0  0  0  0  0
   -3.4100   22.3310  -31.4700 C   0  0  0  0  0  0  0  0  0  0  0  0
   -2.7010   21.1860  -32.0900 C   0  0  0  0  0  0  0  0  0  0  0  0
   -2.5060   19.9990  -31.3680 C   0  0  0  0  0  0  0  0  0  0  0  0
   -1.8670   18.9080  -31.9640 C   0  0  0  0  0  0  0  0  0  0  0  0
   -1.4250   18.9890  -33.2910 C   0  0  0  0  0  0  0  0  0  0  0  0
   -0.6680   17.5900  -34.0420 S   0  0  0  0  0  0  0  0  0  0  0  0
    0.8120   17.7040  -33.8090 O   0  0  0  0  0  0  0  0  0  0  0  0
   -0.9070   17.5750  -35.5270 O   0  0  0  0  0  0  0  0  0  0  0  0
   -1.2860   16.0800  -33.3380 C   0  0  0  0  0  0  0  0  0  0  0  0
   -0.3820   15.2890  -32.6070 C   0  0  0  0  0  0  0  0  0  0  0  0
   -0.7960   14.1080  -31.9920 C   0  0  0  0  0  0  0  0  0  0  0  0
   -2.1210   13.6990  -32.0940 C   0  0  0  0  0  0  0  0  0  0  0  0
   -3.0350   14.4630  -32.8180 C   0  0  0  0  0  0  0  0  0  0  0  0
   -2.6380   15.6480  -33.4640 C   0  0  0  0  0  0  0  0  0  0  0  0
   -3.8780   16.5450  -34.3690 S   0  0  0  0  0  0  0  0  0  0  0  0
   -4.5830   15.6600  -35.3570 O   0  0  0  0  0  0  0  0  0  0  0  0
   -3.2330   17.6850  -35.1060 O   0  0  0  0  0  0  0  0  0  0  0  0
   -5.1090   17.1800  -33.2780 C   0  0  0  0  0  0  0  0  0  0  0  0
   -5.9840   18.1820  -33.7240 C   0  0  0  0  0  0  0  0  0  0  0  0
   -6.9730   18.6820  -32.8710 C   0  0  0  0  0  0  0  0  0  0  0  0
   -7.0940   18.1830  -31.5710 C   0  0  0  0  0  0  0  0  0  0  0  0
   -6.2270   17.1820  -31.1230 C   0  0  0  0  0  0  0  0  0  0  0  0
   -5.2370   16.6800  -31.9730 C   0  0  0  0  0  0  0  0  0  0  0  0
   -1.5980   20.1820  -34.0080 C   0  0  0  0  0  0  0  0  0  0  0  0
   -2.2350   21.2730  -33.4110 C   0  0  0  0  0  0  0  0  0  0  0  0
   -1.3453   23.0432  -28.4335 H   0  0  0  0  0  0  0  0  0  0  0  0
   -0.2313   21.8565  -29.1933 H   0  0  0  0  0  0  0  0  0  0  0  0
    0.1825   23.6045  -29.1933 H   0  0  0  0  0  0  0  0  0  0  0  0
   -5.2890   25.3549  -29.8480 H   0  0  0  0  0  0  0  0  0  0  0  0
   -7.3868   24.5816  -30.8502 H   0  0  0  0  0  0  0  0  0  0  0  0
   -8.6096   22.9261  -32.2727 H   0  0  0  0  0  0  0  0  0  0  0  0
   -7.3576   21.0243  -33.3020 H   0  0  0  0  0  0  0  0  0  0  0  0
   -2.8576   19.9266  -30.3282 H   0  0  0  0  0  0  0  0  0  0  0  0
   -1.7107   17.9831  -31.3894 H   0  0  0  0  0  0  0  0  0  0  0  0
    0.6675   15.6066  -32.5190 H   0  0  0  0  0  0  0  0  0  0  0  0
   -0.0746   13.5001  -31.4263 H   0  0  0  0  0  0  0  0  0  0  0  0
   -2.4486   12.7710  -31.6026 H   0  0  0  0  0  0  0  0  0  0  0  0
   -4.0826   14.1343  -32.8852 H   0  0  0  0  0  0  0  0  0  0  0  0
   -5.8919   18.5753  -34.7472 H   0  0  0  0  0  0  0  0  0  0  0  0
   -7.6563   19.4687  -33.2235 H   0  0  0  0  0  0  0  0  0  0  0  0
   -7.8714   18.5779  -30.9004 H   0  0  0  0  0  0  0  0  0  0  0  0
   -6.3239   16.7888  -30.1003 H   0  0  0  0  0  0  0  0  0  0  0  0
   -4.5570   15.8915  -31.6182 H   0  0  0  0  0  0  0  0  0  0  0  0
   -1.2315   20.2589  -35.0423 H   0  0  0  0  0  0  0  0  0  0  0  0
   -2.3719   22.2048  -33.9793 H   0  0  0  0  0  0  0  0  0  0  0  0
  1  2  1  0
  2  3  1  0
  3  4  2  0
  4  5  1  0
  4  6  1  0
  6  7  2  0
  7  8  1  0
  8  9  2  0
  9 10  1  0
 10 11  2  0
 11 12  1  0
 12 13  2  0
 13 14  1  0
 14 15  2  0
 15 16  1  0
 16 17  2  0
 17 18  1  0
 18 19  2  0
 18 20  2  0
 18 21  1  0
 21 22  2  0
 22 23  1  0
 23 24  2  0
 24 25  1  0
 25 26  2  0
 26 27  1  0
 27 28  2  0
 27 29  2  0
 27 30  1  0
 30 31  2  0
 31 32  1  0
 32 33  2  0
 33 34  1  0
 34 35  2  0
 17 36  1  0
 36 37  2  0
 13  3  1  0
 37 14  1  0
 12  7  1  0
 26 21  1  0
 35 30  1  0
  1 38  1  0
  1 39  1  0
  1 40  1  0
  6 41  1  0
  8 42  1  0
  9 43  1  0
 10 44  1  0
 15 45  1  0
 16 46  1  0
 22 47  1  0
 23 48  1  0
 24 49  1  0
 25 50  1  0
 31 51  1  0
 32 52  1  0
 33 53  1  0
 34 54  1  0
 35 55  1  0
 36 56  1  0
 37 57  1  0
M  CHG  1   5  -1
M  END
>  <UniqueID>  (11) 
11

>  <SMILES>  (11) 
COc1c([O-])cc2cccnc2c1-c1ccc(S(=O)(=O)c2ccccc2S(=O)(=O)c2ccccc2)cc1

>  <Energy>  (11) 
85.1369530441894

>  <Genealogy>  (11) 
COc1c([O-])cc2cccnc2c1-c1ccc(S(=O)(=O)c2ccccc2S(=O)(=O)c2ccccc2)cc1 (protonated)
COc1c([O-])cc2cccnc2c1-c1ccc(S(=O)(=O)c2ccccc2S(=O)(=O)c2ccccc2)cc1 (3D coordinates assigned)
COc1c([O-])cc2cccnc2c1-c1ccc(S(=O)(=O)c2ccccc2S(=O)(=O)c2ccccc2)cc1 (optimized conformer: 85.1369530441894 kcal/mol)

>  <smiles>  (11) 
COc1c(O)cc2cccnc2c1-c1ccc(S(=O)(=O)c2ccccc2S(=O)(=O)c2ccccc2)cc1

>  <score_type>  (11) 
oracle

>  <origin>  (11) 
adgpu

>  <m_score__min__energy>  (11) 
-12.27

>  <m_primary>  (11) 
energy

$$$$
11:0
     RDKit          3D

 53 56  0  0  0  0  0  0  0  0999 V2000
   -8.7400   19.5310  -32.5220 C   0  0  0  0  0  0  0  0  0  0  0  0
   -7.7390   20.3870  -33.0640 O   0  0  0  0  0  0  0  0  0  0  0  0
   -7.1710   21.4790  -32.3880 C   0  0  0  0  0  0  0  0  0  0  0  0
   -7.9700   22.4860  -31.8110 C   0  0  0  0  0  0  0  0  0  0  0  0
   -7.3820   23.5840  -31.1820 C   0  0  0  0  0  0  0  0  0  0  0  0
   -5.9910   23.6940  -31.1100 C   0  0  0  0  0  0  0  0  0  0  0  0
   -5.2730   25.1150  -30.3580 S   0  0  0  0  0  0  0  0  0  0  0  0
   -5.7050   26.3370  -31.1180 O   0  0  0  0  0  0  0  0  0  0  0  0
   -5.7120   25.2540  -28.9270 O   0  0  0  0  0  0  0  0  0  0  0  0
   -3.5450   24.9820  -30.4210 N   0  0  0  0  0  0  0  0  0  0  0  0
   -2.7440   24.2450  -29.4880 C   0  0  0  0  0  0  0  0  0  0  0  0
   -3.0840   22.9390  -29.0850 C   0  0  0  0  0  0  0  0  0  0  0  0
   -2.2730   22.2490  -28.1790 C   0  0  0  0  0  0  0  0  0  0  0  0
   -1.1220   22.8510  -27.6670 C   0  0  0  0  0  0  0  0  0  0  0  0
   -0.7790   24.1460  -28.0580 C   0  0  0  0  0  0  0  0  0  0  0  0
   -1.5870   24.8440  -28.9630 C   0  0  0  0  0  0  0  0  0  0  0  0
   -1.2320   26.1320  -29.3460 O   0  0  0  0  0  0  0  0  0  0  0  0
   -5.1860   22.6920  -31.6640 C   0  0  0  0  0  0  0  0  0  0  0  0
   -5.7640   21.5810  -32.3040 C   0  0  0  0  0  0  0  0  0  0  0  0
   -4.8840   20.5480  -32.9020 C   0  0  0  0  0  0  0  0  0  0  0  0
   -5.3500   19.2400  -33.1020 C   0  0  0  0  0  0  0  0  0  0  0  0
   -4.5030   18.2880  -33.6640 C   0  0  0  0  0  0  0  0  0  0  0  0
   -3.2330   18.6240  -34.0090 N   0  0  0  0  0  0  0  0  0  0  0  0
   -2.7330   19.8780  -33.8260 C   0  0  0  0  0  0  0  0  0  0  0  0
   -1.3690   20.1710  -34.2100 N   0  0  0  0  0  0  0  0  0  0  0  0
   -0.4810   19.1090  -34.7090 C   0  0  0  0  0  0  0  0  0  0  0  0
    0.9780   19.5810  -34.7380 C   0  0  0  0  0  0  0  0  0  0  0  0
    1.1220   20.8410  -35.4830 N   0  0  0  0  0  0  0  0  0  0  0  0
    0.1470   21.8920  -35.1160 C   0  0  0  0  0  0  0  0  0  0  0  0
   -0.8020   21.5040  -33.9700 C   0  0  0  0  0  0  0  0  0  0  0  0
   -3.5640   20.8640  -33.2600 C   0  0  0  0  0  0  0  0  0  0  0  0
   -8.6978   19.5671  -31.4234 H   0  0  0  0  0  0  0  0  0  0  0  0
   -9.7314   19.8650  -32.8620 H   0  0  0  0  0  0  0  0  0  0  0  0
   -8.5640   18.4998  -32.8620 H   0  0  0  0  0  0  0  0  0  0  0  0
   -9.0661   22.4059  -31.8568 H   0  0  0  0  0  0  0  0  0  0  0  0
   -8.0166   24.3667  -30.7407 H   0  0  0  0  0  0  0  0  0  0  0  0
   -3.9904   22.4604  -29.4843 H   0  0  0  0  0  0  0  0  0  0  0  0
   -2.5426   21.2287  -27.8686 H   0  0  0  0  0  0  0  0  0  0  0  0
   -0.4855   22.3046  -26.9554 H   0  0  0  0  0  0  0  0  0  0  0  0
    0.1282   24.6192  -27.6541 H   0  0  0  0  0  0  0  0  0  0  0  0
   -4.0911   22.7742  -31.5982 H   0  0  0  0  0  0  0  0  0  0  0  0
   -6.3771   18.9682  -32.8170 H   0  0  0  0  0  0  0  0  0  0  0  0
   -4.8633   17.2618  -33.8288 H   0  0  0  0  0  0  0  0  0  0  0  0
   -0.5625   18.2325  -34.0494 H   0  0  0  0  0  0  0  0  0  0  0  0
   -0.7859   18.8499  -35.7336 H   0  0  0  0  0  0  0  0  0  0  0  0
    1.3246   19.7346  -33.7054 H   0  0  0  0  0  0  0  0  0  0  0  0
    1.5800   18.8109  -35.2425 H   0  0  0  0  0  0  0  0  0  0  0  0
    1.0160   20.6280  -36.5030 H   0  0  0  0  0  0  0  0  0  0  0  0
    0.7061   22.7890  -34.8113 H   0  0  0  0  0  0  0  0  0  0  0  0
   -0.4825   22.0604  -36.0022 H   0  0  0  0  0  0  0  0  0  0  0  0
   -0.2432   21.4959  -33.0225 H   0  0  0  0  0  0  0  0  0  0  0  0
   -1.6199   22.2377  -33.9175 H   0  0  0  0  0  0  0  0  0  0  0  0
   -3.1788   21.8816  -33.0985 H   0  0  0  0  0  0  0  0  0  0  0  0
  1  2  1  0
  2  3  1  0
  3  4  2  0
  4  5  1  0
  5  6  2  0
  6  7  1  0
  7  8  2  0
  7  9  2  0
  7 10  1  0
 10 11  1  0
 11 12  2  0
 12 13  1  0
 13 14  2  0
 14 15  1  0
 15 16  2  0
 16 17  1  0
  6 18  1  0
 18 19  2  0
 19 20  1  0
 20 21  2  0
 21 22  1  0
 22 23  2  0
 23 24  1  0
 24 25  1  0
 25 26  1  0
 26 27  1  0
 27 28  1  0
 28 29  1  0
 29 30  1  0
 24 31  2  0
 19  3  1  0
 31 20  1  0
 16 11  1  0
 30 25  1  0
  1 32  1  0
  1 33  1  0
  1 34  1  0
  4 35  1  0
  5 36  1  0
 12 37  1  0
 13 38  1  0
 14 39  1  0
 15 40  1  0
 18 41  1  0
 21 42  1  0
 22 43  1  0
 26 44  1  0
 26 45  1  0
 27 46  1  0
 27 47  1  0
 28 48  1  0
 29 49  1  0
 29 50  1  0
 30 51  1  0
 30 52  1  0
 31 53  1  0
M  CHG  2  10  -1  17  -1
M  END
>  <UniqueID>  (12) 
12

>  <SMILES>  (12) 
COc1ccc(S(=O)(=O)[N-]c2ccccc2[O-])cc1-c1ccnc(N2CCNCC2)c1

>  <Energy>  (12) 
72.49293725967523

>  <Genealogy>  (12) 
COc1ccc(S(=O)(=O)[N-]c2ccccc2[O-])cc1-c1ccnc(N2CCNCC2)c1 (protonated)
COc1ccc(S(=O)(=O)[N-]c2ccccc2[O-])cc1-c1ccnc(N2CCNCC2)c1 (3D coordinates assigned)
COc1ccc(S(=O)(=O)[N-]c2ccccc2[O-])cc1-c1ccnc(N2CCNCC2)c1 (nonaromatic ring conformer: 72.49293725967523 kcal/mol)

>  <smiles>  (12) 
COc1ccc(S(=O)(=O)Nc2ccccc2O)cc1-c1ccnc(N2CCNCC2)c1

>  <score_type>  (12) 
oracle

>  <origin>  (12) 
adgpu

>  <m_score__min__energy>  (12) 
-14.210000000000001

>  <m_primary>  (12) 
energy

$$$$
12:0
     RDKit          3D

 60 64  0  0  0  0  0  0  0  0999 V2000
   -1.1680   18.2400  -34.6670 O   0  0  0  0  0  0  0  0  0  0  0  0
   -1.4020   19.1940  -33.8760 C   0  0  0  0  0  0  0  0  0  0  0  0
   -0.2490   20.0070  -33.3530 C   0  0  0  0  0  0  0  0  0  0  0  0
    1.0810   19.7120  -34.0310 C   0  0  0  0  0  0  0  0  0  0  0  0
    0.3510   21.0070  -34.3340 C   0  0  0  0  0  0  0  0  0  0  0  0
   -2.7560   19.5390  -33.5220 N   0  0  0  0  0  0  0  0  0  0  0  0
   -3.9190   18.7070  -33.8440 C   0  0  0  0  0  0  0  0  0  0  0  0
   -5.1450   19.4040  -33.2110 C   0  0  0  0  0  0  0  0  0  0  0  0
   -4.5630   20.6220  -32.5890 C   0  0  0  0  0  0  0  0  0  0  0  0
   -5.2390   21.6150  -31.8810 C   0  0  0  0  0  0  0  0  0  0  0  0
   -4.4990   22.6850  -31.3460 C   0  0  0  0  0  0  0  0  0  0  0  0
   -5.2920   23.9230  -30.3750 S   0  0  0  0  0  0  0  0  0  0  0  0
   -6.5320   23.3800  -29.7230 O   0  0  0  0  0  0  0  0  0  0  0  0
   -5.6730   25.0680  -31.2710 O   0  0  0  0  0  0  0  0  0  0  0  0
   -4.2030   24.4880  -29.1470 N   0  0  0  0  0  0  0  0  0  0  0  0
   -3.0200   23.7720  -28.7450 C   0  0  0  0  0  0  0  0  0  0  0  0
   -3.0970   22.4640  -28.2320 C   0  0  0  0  0  0  0  0  0  0  0  0
   -1.9380   21.7670  -27.8690 C   0  0  0  0  0  0  0  0  0  0  0  0
   -2.0610   20.1190  -27.2450 S   0  0  0  0  0  0  0  0  0  0  0  0
   -3.5090   19.7160  -27.1790 O   0  0  0  0  0  0  0  0  0  0  0  0
   -1.5020   20.0790  -25.8490 O   0  0  0  0  0  0  0  0  0  0  0  0
   -1.1890   18.9870  -28.2500 N   0  0  0  0  0  0  0  0  0  0  0  0
   -0.0370   18.4350  -27.5180 C   0  0  0  0  0  0  0  0  0  0  0  0
    0.5940   17.2710  -28.3070 C   0  0  0  0  0  0  0  0  0  0  0  0
    0.2720   17.3350  -29.8090 C   0  0  0  0  0  0  0  0  0  0  0  0
    0.2460   18.7840  -30.3040 C   0  0  0  0  0  0  0  0  0  0  0  0
   -0.7520   19.6480  -29.4990 C   0  0  0  0  0  0  0  0  0  0  0  0
   -0.6900   22.3870  -27.9940 C   0  0  0  0  0  0  0  0  0  0  0  0
   -0.6020   23.6930  -28.4800 C   0  0  0  0  0  0  0  0  0  0  0  0
   -1.7580   24.3850  -28.8560 C   0  0  0  0  0  0  0  0  0  0  0  0
   -1.6420   25.6810  -29.3470 O   0  0  0  0  0  0  0  0  0  0  0  0
   -3.1050   22.7360  -31.5390 C   0  0  0  0  0  0  0  0  0  0  0  0
   -2.4470   21.7270  -32.2590 C   0  0  0  0  0  0  0  0  0  0  0  0
   -3.2060   20.6650  -32.7740 C   0  0  0  0  0  0  0  0  0  0  0  0
   -0.6110   20.0633  -32.3158 H   0  0  0  0  0  0  0  0  0  0  0  0
    2.0121   19.7301  -33.4456 H   0  0  0  0  0  0  0  0  0  0  0  0
    1.4771   18.8836  -34.6368 H   0  0  0  0  0  0  0  0  0  0  0  0
    0.7526   21.9633  -33.9677 H   0  0  0  0  0  0  0  0  0  0  0  0
   -0.0011   21.5053  -35.2493 H   0  0  0  0  0  0  0  0  0  0  0  0
   -4.0441   18.6342  -34.9344 H   0  0  0  0  0  0  0  0  0  0  0  0
   -3.7973   17.6851  -33.4554 H   0  0  0  0  0  0  0  0  0  0  0  0
   -5.8870   19.6697  -33.9784 H   0  0  0  0  0  0  0  0  0  0  0  0
   -5.6784   18.7661  -32.4909 H   0  0  0  0  0  0  0  0  0  0  0  0
   -6.3291   21.5627  -31.7436 H   0  0  0  0  0  0  0  0  0  0  0  0
   -4.3780   25.4480  -28.7720 H   0  0  0  0  0  0  0  0  0  0  0  0
   -4.0794   21.9832  -28.1147 H   0  0  0  0  0  0  0  0  0  0  0  0
    0.7144   19.2256  -27.3756 H   0  0  0  0  0  0  0  0  0  0  0  0
   -0.3808   18.0598  -26.5428 H   0  0  0  0  0  0  0  0  0  0  0  0
    1.6858   17.3086  -28.1784 H   0  0  0  0  0  0  0  0  0  0  0  0
    0.1725   16.3338  -27.9144 H   0  0  0  0  0  0  0  0  0  0  0  0
    1.0405   16.7786  -30.3656 H   0  0  0  0  0  0  0  0  0  0  0  0
   -0.7208   16.8908  -29.9736 H   0  0  0  0  0  0  0  0  0  0  0  0
    1.2533   19.2138  -30.2004 H   0  0  0  0  0  0  0  0  0  0  0  0
   -0.0760   18.7802  -31.3558 H   0  0  0  0  0  0  0  0  0  0  0  0
   -0.2675   20.6018  -29.2432 H   0  0  0  0  0  0  0  0  0  0  0  0
   -1.6425   19.8041  -30.1256 H   0  0  0  0  0  0  0  0  0  0  0  0
    0.2235   21.8446  -27.7089 H   0  0  0  0  0  0  0  0  0  0  0  0
    0.3806   24.1797  -28.5676 H   0  0  0  0  0  0  0  0  0  0  0  0
   -2.5270   23.5738  -31.1219 H   0  0  0  0  0  0  0  0  0  0  0  0
   -1.3591   21.7677  -32.4164 H   0  0  0  0  0  0  0  0  0  0  0  0
  1  2  2  0
  2  3  1  0
  3  4  1  0
  4  5  1  0
  2  6  1  0
  6  7  1  0
  7  8  1  0
  8  9  1  0
  9 10  2  0
 10 11  1  0
 11 12  1  0
 12 13  2  0
 12 14  2  0
 12 15  1  0
 15 16  1  0
 16 17  2  0
 17 18  1  0
 18 19  1  0
 19 20  2  0
 19 21  2  0
 19 22  1  0
 22 23  1  0
 23 24  1  0
 24 25  1  0
 25 26  1  0
 26 27  1  0
 18 28  2  0
 28 29  1  0
 29 30  2  0
 30 31  1  0
 11 32  2  0
 32 33  1  0
 33 34  2  0
  5  3  1  0
 34  6  1  0
 34  9  1  0
 30 16  1  0
 27 22  1  0
  3 35  1  0
  4 36  1  0
  4 37  1  0
  5 38  1  0
  5 39  1  0
  7 40  1  0
  7 41  1  0
  8 42  1  0
  8 43  1  0
 10 44  1  0
 15 45  1  0
 17 46  1  0
 23 47  1  0
 23 48  1  0
 24 49  1  0
 24 50  1  0
 25 51  1  0
 25 52  1  0
 26 53  1  0
 26 54  1  0
 27 55  1  0
 27 56  1  0
 28 57  1  0
 29 58  1  0
 32 59  1  0
 33 60  1  0
M  CHG  1  31  -1
M  END
>  <UniqueID>  (13) 
13

>  <SMILES>  (13) 
O=C(C1CC1)N1CCc2cc(S(=O)(=O)Nc3cc(S(=O)(=O)N4CCCCC4)ccc3[O-])ccc21

>  <Energy>  (13) 
346.8078686527313

>  <Genealogy>  (13) 
O=C(C1CC1)N1CCc2cc(S(=O)(=O)Nc3cc(S(=O)(=O)N4CCCCC4)ccc3[O-])ccc21 (protonated)
O=C(C1CC1)N1CCc2cc(S(=O)(=O)Nc3cc(S(=O)(=O)N4CCCCC4)ccc3[O-])ccc21 (3D coordinates assigned)
O=C(C1CC1)N1CCc2cc(S(=O)(=O)Nc3cc(S(=O)(=O)N4CCCCC4)ccc3[O-])ccc21 (nonaromatic ring conformer: 346.8078686527313 kcal/mol)

>  <smiles>  (13) 
O=C(C1CC1)N1CCc2cc(S(=O)(=O)Nc3cc(S(=O)(=O)N4CCCCC4)ccc3O)ccc21

>  <score_type>  (13) 
oracle

>  <origin>  (13) 
adgpu

>  <m_score__min__energy>  (13) 
-15.49

>  <m_primary>  (13) 
energy

$$$$
13:0
     RDKit          3D

 75 80  0  0  0  0  0  0  0  0999 V2000
   -0.7690   13.6240  -34.8730 C   0  0  0  0  0  0  0  0  0  0  0  0
   -0.1620   14.9410  -35.2430 C   0  0  0  0  0  0  0  0  0  0  0  0
    1.4290   15.1190  -35.7740 S   0  0  0  0  0  0  0  0  0  0  0  0
    1.3410   16.7770  -35.9990 C   0  0  0  0  0  0  0  0  0  0  0  0
    2.4320   17.5770  -36.4440 N   0  0  0  0  0  0  0  0  0  0  0  0
    2.8430   18.7340  -35.7170 C   0  0  0  0  0  0  0  0  0  0  0  0
    3.9680   18.7380  -35.1360 O   0  0  0  0  0  0  0  0  0  0  0  0
    1.9380   19.9070  -35.6270 C   0  0  0  0  0  0  0  0  0  0  0  0
    2.1300   21.0170  -36.4600 C   0  0  0  0  0  0  0  0  0  0  0  0
    1.3180   22.1430  -36.3250 C   0  0  0  0  0  0  0  0  0  0  0  0
    0.3110   22.1810  -35.3530 C   0  0  0  0  0  0  0  0  0  0  0  0
    0.0880   21.0810  -34.4950 C   0  0  0  0  0  0  0  0  0  0  0  0
   -0.9380   21.1270  -33.4520 N   0  0  0  0  0  0  0  0  0  0  0  0
   -2.3540   20.9040  -33.8220 C   0  0  0  0  0  0  0  0  0  0  0  0
   -3.3230   21.0810  -32.6520 C   0  0  0  0  0  0  0  0  0  0  0  0
   -2.7920   20.5220  -31.4740 O   0  0  0  0  0  0  0  0  0  0  0  0
   -1.7100   21.3200  -31.0540 C   0  0  0  0  0  0  0  0  0  0  0  0
   -0.5310   21.2160  -32.0320 C   0  0  0  0  0  0  0  0  0  0  0  0
    0.9180   19.9420  -34.6580 C   0  0  0  0  0  0  0  0  0  0  0  0
    0.0740   17.2360  -35.6620 C   0  0  0  0  0  0  0  0  0  0  0  0
   -0.7780   16.2000  -35.2150 C   0  0  0  0  0  0  0  0  0  0  0  0
   -2.1680   16.4320  -34.7600 C   0  0  0  0  0  0  0  0  0  0  0  0
   -2.4370   17.3450  -33.7260 C   0  0  0  0  0  0  0  0  0  0  0  0
   -3.7560   17.6120  -33.3460 C   0  0  0  0  0  0  0  0  0  0  0  0
   -4.8230   16.9680  -33.9840 C   0  0  0  0  0  0  0  0  0  0  0  0
   -6.1360   17.2690  -33.5920 O   0  0  0  0  0  0  0  0  0  0  0  0
   -6.5640   18.5130  -33.0960 C   0  0  0  0  0  0  0  0  0  0  0  0
   -7.4500   18.5400  -32.0110 C   0  0  0  0  0  0  0  0  0  0  0  0
   -7.8850   19.7590  -31.4830 C   0  0  0  0  0  0  0  0  0  0  0  0
   -7.4310   20.9690  -32.0270 C   0  0  0  0  0  0  0  0  0  0  0  0
   -7.9500   22.5120  -31.3500 S   0  0  0  0  0  0  0  0  0  0  0  0
   -8.5310   22.2960  -29.9780 O   0  0  0  0  0  0  0  0  0  0  0  0
   -9.0160   23.0940  -32.2370 O   0  0  0  0  0  0  0  0  0  0  0  0
   -6.5910   23.6090  -31.2670 N   0  0  0  0  0  0  0  0  0  0  0  0
   -5.3770   22.8780  -30.8530 C   0  0  0  0  0  0  0  0  0  0  0  0
   -4.2810   23.8460  -30.3640 C   0  0  0  0  0  0  0  0  0  0  0  0
   -4.5110   25.1500  -30.8630 O   0  0  0  0  0  0  0  0  0  0  0  0
   -5.6920   25.6870  -30.2850 C   0  0  0  0  0  0  0  0  0  0  0  0
   -6.8800   24.6990  -30.3230 C   0  0  0  0  0  0  0  0  0  0  0  0
   -6.5180   20.9480  -33.0910 C   0  0  0  0  0  0  0  0  0  0  0  0
   -6.0830   19.7300  -33.6200 C   0  0  0  0  0  0  0  0  0  0  0  0
   -4.5520   16.0070  -34.9720 C   0  0  0  0  0  0  0  0  0  0  0  0
   -3.2350   15.7490  -35.3640 C   0  0  0  0  0  0  0  0  0  0  0  0
   -0.8104   13.5342  -33.7775 H   0  0  0  0  0  0  0  0  0  0  0  0
   -1.7871   13.5609  -35.2848 H   0  0  0  0  0  0  0  0  0  0  0  0
   -0.1557   12.8090  -35.2848 H   0  0  0  0  0  0  0  0  0  0  0  0
    2.9229   21.0005  -37.2222 H   0  0  0  0  0  0  0  0  0  0  0  0
    1.4700   23.0080  -36.9874 H   0  0  0  0  0  0  0  0  0  0  0  0
   -0.3154   23.0800  -35.2560 H   0  0  0  0  0  0  0  0  0  0  0  0
   -2.6253   21.6210  -34.6109 H   0  0  0  0  0  0  0  0  0  0  0  0
   -2.4407   19.8609  -34.1603 H   0  0  0  0  0  0  0  0  0  0  0  0
   -3.5034   22.1543  -32.4924 H   0  0  0  0  0  0  0  0  0  0  0  0
   -4.2647   20.5661  -32.8932 H   0  0  0  0  0  0  0  0  0  0  0  0
   -2.0380   22.3684  -30.9976 H   0  0  0  0  0  0  0  0  0  0  0  0
   -1.3770   20.9643  -30.0678 H   0  0  0  0  0  0  0  0  0  0  0  0
    0.1019   22.1071  -31.9080 H   0  0  0  0  0  0  0  0  0  0  0  0
    0.0020   20.2839  -31.7928 H   0  0  0  0  0  0  0  0  0  0  0  0
    0.7606   19.0658  -34.0119 H   0  0  0  0  0  0  0  0  0  0  0  0
   -0.2328   18.2898  -35.7349 H   0  0  0  0  0  0  0  0  0  0  0  0
   -1.6062   17.8519  -33.2133 H   0  0  0  0  0  0  0  0  0  0  0  0
   -3.9567   18.3332  -32.5400 H   0  0  0  0  0  0  0  0  0  0  0  0
   -7.8055   17.5961  -31.5719 H   0  0  0  0  0  0  0  0  0  0  0  0
   -8.5871   19.7691  -30.6363 H   0  0  0  0  0  0  0  0  0  0  0  0
   -5.6353   22.1871  -30.0369 H   0  0  0  0  0  0  0  0  0  0  0  0
   -4.9904   22.3256  -31.7221 H   0  0  0  0  0  0  0  0  0  0  0  0
   -4.2868   23.8732  -29.2644 H   0  0  0  0  0  0  0  0  0  0  0  0
   -3.3058   23.4925  -30.7301 H   0  0  0  0  0  0  0  0  0  0  0  0
   -5.4837   25.9461  -29.2364 H   0  0  0  0  0  0  0  0  0  0  0  0
   -5.9771   26.5707  -30.8747 H   0  0  0  0  0  0  0  0  0  0  0  0
   -7.0386   24.2797  -29.3185 H   0  0  0  0  0  0  0  0  0  0  0  0
   -7.7854   25.2318  -30.6493 H   0  0  0  0  0  0  0  0  0  0  0  0
   -6.1431   21.8932  -33.5105 H   0  0  0  0  0  0  0  0  0  0  0  0
   -5.3612   19.7208  -34.4500 H   0  0  0  0  0  0  0  0  0  0  0  0
   -5.3803   15.4546  -35.4397 H   0  0  0  0  0  0  0  0  0  0  0  0
   -3.0339   15.0065  -36.1503 H   0  0  0  0  0  0  0  0  0  0  0  0
  1  2  1  0
  2  3  1  0
  3  4  1  0
  4  5  1  0
  5  6  1  0
  6  7  2  0
  6  8  1  0
  8  9  2  0
  9 10  1  0
 10 11  2  0
 11 12  1  0
 12 13  1  0
 13 14  1  0
 14 15  1  0
 15 16  1  0
 16 17  1  0
 17 18  1  0
 12 19  2  0
  4 20  2  0
 20 21  1  0
 21 22  1  0
 22 23  2  0
 23 24  1  0
 24 25  2  0
 25 26  1  0
 26 27  1  0
 27 28  2  0
 28 29  1  0
 29 30  2  0
 30 31  1  0
 31 32  2  0
 31 33  2  0
 31 34  1  0
 34 35  1  0
 35 36  1  0
 36 37  1  0
 37 38  1  0
 38 39  1  0
 30 40  1  0
 40 41  2  0
 25 42  1  0
 42 43  2  0
 21  2  2  0
 43 22  1  0
 19  8  1  0
 41 27  1  0
 18 13  1  0
 39 34  1  0
  1 44  1  0
  1 45  1  0
  1 46  1  0
  9 47  1  0
 10 48  1  0
 11 49  1  0
 14 50  1  0
 14 51  1  0
 15 52  1  0
 15 53  1  0
 17 54  1  0
 17 55  1  0
 18 56  1  0
 18 57  1  0
 19 58  1  0
 20 59  1  0
 23 60  1  0
 24 61  1  0
 28 62  1  0
 29 63  1  0
 35 64  1  0
 35 65  1  0
 36 66  1  0
 36 67  1  0
 38 68  1  0
 38 69  1  0
 39 70  1  0
 39 71  1  0
 40 72  1  0
 41 73  1  0
 42 74  1  0
 43 75  1  0
M  CHG  1   5  -1
M  END
>  <UniqueID>  (14) 
14

>  <SMILES>  (14) 
Cc1sc([N-]C(=O)c2cccc(N3CCOCC3)c2)cc1-c1ccc(Oc2ccc(S(=O)(=O)N3CCOCC3)cc2)cc1

>  <Energy>  (14) 
148.97988515673947

>  <Genealogy>  (14) 
Cc1sc([N-]C(=O)c2cccc(N3CCOCC3)c2)cc1-c1ccc(Oc2ccc(S(=O)(=O)N3CCOCC3)cc2)cc1 (protonated)
Cc1sc([N-]C(=O)c2cccc(N3CCOCC3)c2)cc1-c1ccc(Oc2ccc(S(=O)(=O)N3CCOCC3)cc2)cc1 (3D coordinates assigned)
Cc1sc([N-]C(=O)c2cccc(N3CCOCC3)c2)cc1-c1ccc(Oc2ccc(S(=O)(=O)N3CCOCC3)cc2)cc1 (nonaromatic ring conformer: 148.97988515673947 kcal/mol)

>  <smiles>  (14) 
Cc1sc(NC(=O)c2cccc(N3CCOCC3)c2)cc1-c1ccc(Oc2ccc(S(=O)(=O)N3CCOCC3)cc2)cc1

>  <score_type>  (14) 
oracle

>  <origin>  (14) 
adgpu

>  <m_score__min__energy>  (14) 
-12.449999999999999

>  <m_primary>  (14) 
energy

$$$$
14:0
     RDKit          3D

 42 44  0  0  0  0  0  0  0  0999 V2000
   -4.4170   24.7750  -30.8950 O   0  0  0  0  0  0  0  0  0  0  0  0
   -3.9520   23.9480  -30.0630 C   0  0  0  0  0  0  0  0  0  0  0  0
   -4.0070   22.5410  -30.3400 N   0  0  0  0  0  0  0  0  0  0  0  0
   -3.4050   21.8570  -31.4510 C   0  0  0  0  0  0  0  0  0  0  0  0
   -2.0100   21.8540  -31.6330 C   0  0  0  0  0  0  0  0  0  0  0  0
   -1.4400   21.1800  -32.7150 C   0  0  0  0  0  0  0  0  0  0  0  0
   -2.2520   20.4980  -33.6190 C   0  0  0  0  0  0  0  0  0  0  0  0
   -3.6350   20.4700  -33.4370 C   0  0  0  0  0  0  0  0  0  0  0  0
   -4.2240   21.1310  -32.3440 C   0  0  0  0  0  0  0  0  0  0  0  0
   -5.9840   21.1000  -32.1080 S   0  0  0  0  0  0  0  0  0  0  0  0
   -6.3110   19.9190  -31.2380 O   0  0  0  0  0  0  0  0  0  0  0  0
   -6.6410   20.9180  -33.4490 O   0  0  0  0  0  0  0  0  0  0  0  0
   -6.5870   22.5660  -31.3520 N   0  0  0  0  0  0  0  0  0  0  0  0
   -7.4850   22.2540  -30.2210 C   0  0  0  0  0  0  0  0  0  0  0  0
   -8.8680   21.7410  -30.6890 C   0  0  0  0  0  0  0  0  0  0  0  0
   -9.1730   22.0630  -32.0350 O   0  0  0  0  0  0  0  0  0  0  0  0
   -8.7650   23.3810  -32.3240 C   0  0  0  0  0  0  0  0  0  0  0  0
   -7.2280   23.4710  -32.3400 C   0  0  0  0  0  0  0  0  0  0  0  0
   -3.4020   24.4260  -28.7750 C   0  0  0  0  0  0  0  0  0  0  0  0
   -4.2100   24.4720  -27.6220 C   0  0  0  0  0  0  0  0  0  0  0  0
   -3.6870   24.9250  -26.4060 C   0  0  0  0  0  0  0  0  0  0  0  0
   -2.3550   25.3370  -26.3270 C   0  0  0  0  0  0  0  0  0  0  0  0
   -1.5420   25.2970  -27.4620 C   0  0  0  0  0  0  0  0  0  0  0  0
   -2.0600   24.8450  -28.6810 C   0  0  0  0  0  0  0  0  0  0  0  0
   -1.3644   22.3858  -30.9186 H   0  0  0  0  0  0  0  0  0  0  0  0
   -0.3488   21.1874  -32.8539 H   0  0  0  0  0  0  0  0  0  0  0  0
   -1.8013   19.9802  -34.4786 H   0  0  0  0  0  0  0  0  0  0  0  0
   -4.2692   19.9272  -34.1533 H   0  0  0  0  0  0  0  0  0  0  0  0
   -5.7560   23.0540  -30.9450 H   0  0  0  0  0  0  0  0  0  0  0  0
   -7.0131   21.4794  -29.5987 H   0  0  0  0  0  0  0  0  0  0  0  0
   -7.6463   23.1833  -29.6550 H   0  0  0  0  0  0  0  0  0  0  0  0
   -8.8861   20.6464  -30.5818 H   0  0  0  0  0  0  0  0  0  0  0  0
   -9.6227   22.2385  -30.0621 H   0  0  0  0  0  0  0  0  0  0  0  0
   -9.1563   23.6746  -33.3092 H   0  0  0  0  0  0  0  0  0  0  0  0
   -9.1558   24.0557  -31.5481 H   0  0  0  0  0  0  0  0  0  0  0  0
   -6.8709   23.2029  -33.3453 H   0  0  0  0  0  0  0  0  0  0  0  0
   -6.9543   24.5018  -32.0705 H   0  0  0  0  0  0  0  0  0  0  0  0
   -5.2601   24.1493  -27.6781 H   0  0  0  0  0  0  0  0  0  0  0  0
   -4.3258   24.9567  -25.5110 H   0  0  0  0  0  0  0  0  0  0  0  0
   -1.9458   25.6933  -25.3701 H   0  0  0  0  0  0  0  0  0  0  0  0
   -0.4929   25.6213  -27.3977 H   0  0  0  0  0  0  0  0  0  0  0  0
   -1.4152   24.8166  -29.5717 H   0  0  0  0  0  0  0  0  0  0  0  0
  1  2  2  0
  2  3  1  0
  3  4  1  0
  4  5  2  0
  5  6  1  0
  6  7  2  0
  7  8  1  0
  8  9  2  0
  9 10  1  0
 10 11  2  0
 10 12  2  0
 10 13  1  0
 13 14  1  0
 14 15  1  0
 15 16  1  0
 16 17  1  0
 17 18  1  0
  2 19  1  0
 19 20  2  0
 20 21  1  0
 21 22  2  0
 22 23  1  0
 23 24  2  0
  9  4  1  0
 18 13  1  0
 24 19  1  0
  5 25  1  0
  6 26  1  0
  7 27  1  0
  8 28  1  0
 13 29  1  0
 14 30  1  0
 14 31  1  0
 15 32  1  0
 15 33  1  0
 17 34  1  0
 17 35  1  0
 18 36  1  0
 18 37  1  0
 20 38  1  0
 21 39  1  0
 22 40  1  0
 23 41  1  0
 24 42  1  0
M  CHG  2   3  -1  13   1
M  END
>  <UniqueID>  (15) 
15

>  <SMILES>  (15) 
O=C([N-]c1ccccc1S(=O)(=O)[NH+]1CCOCC1)c1ccccc1

>  <Energy>  (15) 
60.560745419219394

>  <Genealogy>  (15) 
O=C([N-]c1ccccc1S(=O)(=O)[NH+]1CCOCC1)c1ccccc1 (protonated)
O=C([N-]c1ccccc1S(=O)(=O)[NH+]1CCOCC1)c1ccccc1 (3D coordinates assigned)
O=C([N-]c1ccccc1S(=O)(=O)[NH+]1CCOCC1)c1ccccc1 (nonaromatic ring conformer: 60.560745419219394 kcal/mol)

>  <smiles>  (15) 
O=C(Nc1ccccc1S(=O)(=O)N1CCOCC1)c1ccccc1

>  <score_type>  (15) 
oracle

>  <origin>  (15) 
adgpu

>  <m_score__min__energy>  (15) 
-7.5499999999999998

>  <m_primary>  (15) 
energy

$$$$
15:0
     RDKit          3D

 59 62  0  0  0  0  0  0  0  0999 V2000
   -5.1240   14.6040  -32.8340 C   0  0  0  0  0  0  0  0  0  0  0  0
   -5.0830   15.8740  -33.6350 C   0  0  0  0  0  0  0  0  0  0  0  0
   -4.9450   15.7920  -34.8850 O   0  0  0  0  0  0  0  0  0  0  0  0
   -5.2600   17.1650  -33.0150 N   0  0  0  0  0  0  0  0  0  0  0  0
   -5.8650   17.2910  -31.6780 C   0  0  0  0  0  0  0  0  0  0  0  0
   -6.7440   18.5450  -31.6020 C   0  0  0  0  0  0  0  0  0  0  0  0
   -6.0510   19.7260  -32.1320 N   0  0  0  0  0  0  0  0  0  0  0  0
   -6.6970   21.0090  -32.0430 C   0  0  0  0  0  0  0  0  0  0  0  0
   -7.9220   21.0980  -32.3260 O   0  0  0  0  0  0  0  0  0  0  0  0
   -5.9650   22.2210  -31.6060 C   0  0  0  0  0  0  0  0  0  0  0  0
   -6.6080   23.4720  -31.5730 C   0  0  0  0  0  0  0  0  0  0  0  0
   -5.9080   24.6140  -31.1820 C   0  0  0  0  0  0  0  0  0  0  0  0
   -4.5530   24.5300  -30.8450 C   0  0  0  0  0  0  0  0  0  0  0  0
   -3.8680   25.6790  -30.4620 O   0  0  0  0  0  0  0  0  0  0  0  0
   -3.8850   23.3000  -30.9100 C   0  0  0  0  0  0  0  0  0  0  0  0
   -2.4850   23.2610  -30.5970 N   0  0  0  0  0  0  0  0  0  0  0  0
   -1.6860   22.0440  -29.6530 S   0  0  0  0  0  0  0  0  0  0  0  0
   -2.6860   21.0350  -29.1620 O   0  0  0  0  0  0  0  0  0  0  0  0
   -0.6380   21.3340  -30.4670 O   0  0  0  0  0  0  0  0  0  0  0  0
   -0.8980   22.8390  -28.2920 C   0  0  0  0  0  0  0  0  0  0  0  0
    0.4450   22.5880  -28.0260 C   0  0  0  0  0  0  0  0  0  0  0  0
    1.0990   23.2680  -27.0050 C   0  0  0  0  0  0  0  0  0  0  0  0
    0.4250   24.2330  -26.2160 C   0  0  0  0  0  0  0  0  0  0  0  0
   -0.9550   24.4810  -26.4680 C   0  0  0  0  0  0  0  0  0  0  0  0
   -1.5940   23.7740  -27.5180 C   0  0  0  0  0  0  0  0  0  0  0  0
   -1.6350   25.4050  -25.7010 N   0  0  0  0  0  0  0  0  0  0  0  0
   -3.0730   25.6620  -25.9280 C   0  0  0  0  0  0  0  0  0  0  0  0
   -0.9680   26.0950  -24.7220 C   0  0  0  0  0  0  0  0  0  0  0  0
   -1.5680   26.9550  -24.0170 O   0  0  0  0  0  0  0  0  0  0  0  0
    0.3890   25.8640  -24.4860 C   0  0  0  0  0  0  0  0  0  0  0  0
    0.9700   26.5270  -23.5810 O   0  0  0  0  0  0  0  0  0  0  0  0
    1.0770   24.9370  -25.2250 N   0  0  0  0  0  0  0  0  0  0  0  0
    2.5130   24.7050  -24.9510 C   0  0  0  0  0  0  0  0  0  0  0  0
   -4.5990   22.1430  -31.2690 C   0  0  0  0  0  0  0  0  0  0  0  0
   -4.7510   19.5870  -32.8020 C   0  0  0  0  0  0  0  0  0  0  0  0
   -4.7610   18.3580  -33.7170 C   0  0  0  0  0  0  0  0  0  0  0  0
   -5.1162   14.8467  -31.7611 H   0  0  0  0  0  0  0  0  0  0  0  0
   -6.0406   14.0466  -33.0771 H   0  0  0  0  0  0  0  0  0  0  0  0
   -4.2453   13.9886  -33.0771 H   0  0  0  0  0  0  0  0  0  0  0  0
   -6.4823   16.4035  -31.4750 H   0  0  0  0  0  0  0  0  0  0  0  0
   -5.0621   17.3737  -30.9307 H   0  0  0  0  0  0  0  0  0  0  0  0
   -7.6589   18.3753  -32.1886 H   0  0  0  0  0  0  0  0  0  0  0  0
   -6.9831   18.7330  -30.5449 H   0  0  0  0  0  0  0  0  0  0  0  0
   -7.6679   23.5502  -31.8569 H   0  0  0  0  0  0  0  0  0  0  0  0
   -6.4240   25.5845  -31.1386 H   0  0  0  0  0  0  0  0  0  0  0  0
    0.9922   21.8471  -28.6273 H   0  0  0  0  0  0  0  0  0  0  0  0
    2.1593   23.0530  -26.8059 H   0  0  0  0  0  0  0  0  0  0  0  0
   -2.6569   23.9642  -27.7280 H   0  0  0  0  0  0  0  0  0  0  0  0
   -3.5864   25.7538  -24.9595 H   0  0  0  0  0  0  0  0  0  0  0  0
   -3.1933   26.5959  -26.4967 H   0  0  0  0  0  0  0  0  0  0  0  0
   -3.5093   24.8276  -26.4967 H   0  0  0  0  0  0  0  0  0  0  0  0
    2.6792   24.6781  -23.8640 H   0  0  0  0  0  0  0  0  0  0  0  0
    2.8202   23.7456  -25.3927 H   0  0  0  0  0  0  0  0  0  0  0  0
    3.1067   25.5189  -25.3927 H   0  0  0  0  0  0  0  0  0  0  0  0
   -4.0872   21.1695  -31.2869 H   0  0  0  0  0  0  0  0  0  0  0  0
   -4.5530   20.4868  -33.4030 H   0  0  0  0  0  0  0  0  0  0  0  0
   -3.9648   19.4649  -32.0424 H   0  0  0  0  0  0  0  0  0  0  0  0
   -5.4104   18.5615  -34.5812 H   0  0  0  0  0  0  0  0  0  0  0  0
   -3.7282   18.1607  -34.0399 H   0  0  0  0  0  0  0  0  0  0  0  0
  1  2  1  0
  2  3  2  0
  2  4  1  0
  4  5  1  0
  5  6  1  0
  6  7  1  0
  7  8  1  0
  8  9  2  0
  8 10  1  0
 10 11  2  0
 11 12  1  0
 12 13  2  0
 13 14  1  0
 13 15  1  0
 15 16  1  0
 16 17  1  0
 17 18  2  0
 17 19  2  0
 17 20  1  0
 20 21  2  0
 21 22  1  0
 22 23  2  0
 23 24  1  0
 24 25  2  0
 24 26  1  0
 26 27  1  0
 26 28  1  0
 28 29  2  0
 28 30  1  0
 30 31  2  0
 30 32  1  0
 32 33  1  0
 15 34  2  0
  7 35  1  0
 35 36  1  0
 36  4  1  0
 34 10  1  0
 25 20  1  0
 32 23  1  0
  1 37  1  0
  1 38  1  0
  1 39  1  0
  5 40  1  0
  5 41  1  0
  6 42  1  0
  6 43  1  0
 11 44  1  0
 12 45  1  0
 21 46  1  0
 22 47  1  0
 25 48  1  0
 27 49  1  0
 27 50  1  0
 27 51  1  0
 33 52  1  0
 33 53  1  0
 33 54  1  0
 34 55  1  0
 35 56  1  0
 35 57  1  0
 36 58  1  0
 36 59  1  0
M  CHG  2  14  -1  16  -1
M  END
>  <UniqueID>  (16) 
16

>  <SMILES>  (16) 
CC(=O)N1CCN(C(=O)c2ccc([O-])c([N-]S(=O)(=O)c3ccc4c(c3)n(C)c(=O)c(=O)n4C)c2)CC1

>  <Energy>  (16) 
91.26743301473408

>  <Genealogy>  (16) 
CC(=O)N1CCN(C(=O)c2ccc([O-])c([N-]S(=O)(=O)c3ccc4c(c3)n(C)c(=O)c(=O)n4C)c2)CC1 (protonated)
CC(=O)N1CCN(C(=O)c2ccc([O-])c([N-]S(=O)(=O)c3ccc4c(c3)n(C)c(=O)c(=O)n4C)c2)CC1 (3D coordinates assigned)
CC(=O)N1CCN(C(=O)c2ccc([O-])c([N-]S(=O)(=O)c3ccc4c(c3)n(C)c(=O)c(=O)n4C)c2)CC1 (nonaromatic ring conformer: 91.26743301473408 kcal/mol)

>  <smiles>  (16) 
CC(=O)N1CCN(C(=O)c2ccc(O)c(NS(=O)(=O)c3ccc4c(c3)n(C)c(=O)c(=O)n4C)c2)CC1

>  <score_type>  (16) 
oracle

>  <origin>  (16) 
adgpu

>  <m_score__min__energy>  (16) 
-15.49

>  <m_primary>  (16) 
energy

$$$$
16:0
     RDKit          3D

 49 52  0  0  0  0  0  0  0  0999 V2000
   -3.6200   20.4390  -32.9810 O   0  0  0  0  0  0  0  0  0  0  0  0
   -4.0450   20.5860  -31.8050 C   0  0  0  0  0  0  0  0  0  0  0  0
   -5.0790   19.7180  -31.3200 N   0  0  0  0  0  0  0  0  0  0  0  0
   -6.3080   19.3850  -32.0450 C   0  0  0  0  0  0  0  0  0  0  0  0
   -7.2560   20.5560  -32.0880 C   0  0  0  0  0  0  0  0  0  0  0  0
   -8.6310   20.3690  -31.8670 C   0  0  0  0  0  0  0  0  0  0  0  0
   -9.4970   21.4680  -31.8580 C   0  0  0  0  0  0  0  0  0  0  0  0
   -8.9970   22.7600  -32.0840 C   0  0  0  0  0  0  0  0  0  0  0  0
   -9.8460   23.8660  -32.0740 O   0  0  0  0  0  0  0  0  0  0  0  0
   -7.6330   22.9450  -32.3240 C   0  0  0  0  0  0  0  0  0  0  0  0
   -6.7660   21.8510  -32.3320 C   0  0  0  0  0  0  0  0  0  0  0  0
   -3.4500   21.6280  -30.9520 C   0  0  0  0  0  0  0  0  0  0  0  0
   -2.6540   21.2590  -29.8600 C   0  0  0  0  0  0  0  0  0  0  0  0
   -2.1660   22.2060  -29.0180 N   0  0  0  0  0  0  0  0  0  0  0  0
   -2.4040   23.5340  -29.2010 C   0  0  0  0  0  0  0  0  0  0  0  0
   -1.8520   24.5010  -28.2280 C   0  0  0  0  0  0  0  0  0  0  0  0
   -2.3190   24.5190  -26.9080 C   0  0  0  0  0  0  0  0  0  0  0  0
   -1.8110   25.4500  -25.9990 C   0  0  0  0  0  0  0  0  0  0  0  0
   -0.8170   26.3540  -26.4110 C   0  0  0  0  0  0  0  0  0  0  0  0
   -0.2770   27.3430  -25.5130 N   0  0  0  0  0  0  0  0  0  0  0  0
    0.1710   27.0780  -24.1570 C   0  0  0  0  0  0  0  0  0  0  0  0
    0.8000   28.3770  -23.6660 C   0  0  0  0  0  0  0  0  0  0  0  0
    0.2870   29.4650  -24.6050 C   0  0  0  0  0  0  0  0  0  0  0  0
   -0.1540   28.7460  -25.8740 C   0  0  0  0  0  0  0  0  0  0  0  0
   -0.3610   26.2960  -27.6940 N   0  0  0  0  0  0  0  0  0  0  0  0
   -0.8440   25.4040  -28.5980 C   0  0  0  0  0  0  0  0  0  0  0  0
   -3.1960   23.9480  -30.2890 C   0  0  0  0  0  0  0  0  0  0  0  0
   -3.4970   25.2940  -30.4810 O   0  0  0  0  0  0  0  0  0  0  0  0
   -3.7160   22.9870  -31.1690 C   0  0  0  0  0  0  0  0  0  0  0  0
   -4.4360   23.3520  -32.1410 O   0  0  0  0  0  0  0  0  0  0  0  0
   -6.0491   19.0962  -33.0744 H   0  0  0  0  0  0  0  0  0  0  0  0
   -6.8055   18.5561  -31.5202 H   0  0  0  0  0  0  0  0  0  0  0  0
   -9.0274   19.3565  -31.7007 H   0  0  0  0  0  0  0  0  0  0  0  0
  -10.5712   21.3193  -31.6736 H   0  0  0  0  0  0  0  0  0  0  0  0
   -9.8050   24.5710  -32.7980 H   0  0  0  0  0  0  0  0  0  0  0  0
   -7.2410   23.9563  -32.5073 H   0  0  0  0  0  0  0  0  0  0  0  0
   -5.6947   22.0028  -32.5301 H   0  0  0  0  0  0  0  0  0  0  0  0
   -2.4233   20.1980  -29.6839 H   0  0  0  0  0  0  0  0  0  0  0  0
   -3.0865   23.7994  -26.5867 H   0  0  0  0  0  0  0  0  0  0  0  0
   -2.1872   25.4755  -24.9656 H   0  0  0  0  0  0  0  0  0  0  0  0
   -0.6812   26.8002  -23.5194 H   0  0  0  0  0  0  0  0  0  0  0  0
    0.8868   26.2434  -24.1229 H   0  0  0  0  0  0  0  0  0  0  0  0
    0.4903   28.5860  -22.6314 H   0  0  0  0  0  0  0  0  0  0  0  0
    1.8987   28.3227  -23.6694 H   0  0  0  0  0  0  0  0  0  0  0  0
   -0.5632   29.9941  -24.1497 H   0  0  0  0  0  0  0  0  0  0  0  0
    1.0623   30.2166  -24.8148 H   0  0  0  0  0  0  0  0  0  0  0  0
   -1.1216   29.1386  -26.2199 H   0  0  0  0  0  0  0  0  0  0  0  0
    0.5664   28.8914  -26.6924 H   0  0  0  0  0  0  0  0  0  0  0  0
   -0.4437   25.3898  -29.6225 H   0  0  0  0  0  0  0  0  0  0  0  0
  1  2  2  0
  2  3  1  0
  3  4  1  0
  4  5  1  0
  5  6  2  0
  6  7  1  0
  7  8  2  0
  8  9  1  0
  8 10  1  0
 10 11  2  0
  2 12  1  0
 12 13  2  0
 13 14  1  0
 14 15  1  0
 15 16  1  0
 16 17  2  0
 17 18  1  0
 18 19  2  0
 19 20  1  0
 20 21  1  0
 21 22  1  0
 22 23  1  0
 23 24  1  0
 19 25  1  0
 25 26  2  0
 15 27  2  0
 27 28  1  0
 27 29  1  0
 29 30  2  0
 11  5  1  0
 29 12  1  0
 26 16  1  0
 24 20  1  0
  4 31  1  0
  4 32  1  0
  6 33  1  0
  7 34  1  0
  9 35  1  0
 10 36  1  0
 11 37  1  0
 13 38  1  0
 17 39  1  0
 18 40  1  0
 21 41  1  0
 21 42  1  0
 22 43  1  0
 22 44  1  0
 23 45  1  0
 23 46  1  0
 24 47  1  0
 24 48  1  0
 26 49  1  0
M  CHG  3   3  -1  14  -1  28  -1
M  END
>  <UniqueID>  (17) 
17

>  <SMILES>  (17) 
O=C([N-]Cc1ccc(O)cc1)c1c[n-]c(-c2ccc(N3CCCC3)nc2)c([O-])c1=O

>  <Energy>  (17) 
63.49233568877963

>  <Genealogy>  (17) 
O=C([N-]Cc1ccc(O)cc1)c1c[n-]c(-c2ccc(N3CCCC3)nc2)c([O-])c1=O (protonated)
O=C([N-]Cc1ccc(O)cc1)c1c[n-]c(-c2ccc(N3CCCC3)nc2)c([O-])c1=O (3D coordinates assigned)
O=C([N-]Cc1ccc(O)cc1)c1c[n-]c(-c2ccc(N3CCCC3)nc2)c([O-])c1=O (nonaromatic ring conformer: 63.49233568877963 kcal/mol)

>  <smiles>  (17) 
O=C(NCc1ccc(O)cc1)c1c[nH]c(-c2ccc(N3CCCC3)nc2)c(O)c1=O

>  <score_type>  (17) 
oracle

>  <origin>  (17) 
adgpu

>  <m_score__min__energy>  (17) 
-10.970000000000001

>  <m_primary>  (17) 
energy

$$$$
17:0
     RDKit          3D

 49 52  0  0  0  0  0  0  0  0999 V2000
   -1.0820   17.3990  -32.5400 C   0  0  0  0  0  0  0  0  0  0  0  0
   -1.0750   17.9780  -33.8990 N   0  0  2  0  0  0  0  0  0  0  0  0
   -1.0550   19.4560  -33.8830 C   0  0  0  0  0  0  0  0  0  0  0  0
   -2.3290   20.0550  -33.2670 C   0  0  0  0  0  0  0  0  0  0  0  0
   -3.5800   19.3620  -33.7390 C   0  0  0  0  0  0  0  0  0  0  0  0
   -4.8270   19.9430  -33.4680 C   0  0  0  0  0  0  0  0  0  0  0  0
   -6.0200   19.3010  -33.8380 C   0  0  0  0  0  0  0  0  0  0  0  0
   -7.2790   19.9370  -33.5460 N   0  0  0  0  0  0  0  0  0  0  0  0
   -7.6580   20.4300  -32.2120 C   0  0  1  0  0  0  0  0  0  0  0  0
   -7.3170   19.4940  -31.2190 O   0  0  0  0  0  0  0  0  0  0  0  0
   -7.0110   21.7610  -31.9180 C   0  0  0  0  0  0  0  0  0  0  0  0
   -7.6100   22.9670  -32.3140 C   0  0  0  0  0  0  0  0  0  0  0  0
   -6.9680   24.1730  -32.0350 C   0  0  0  0  0  0  0  0  0  0  0  0
   -5.7490   24.1750  -31.3580 C   0  0  0  0  0  0  0  0  0  0  0  0
   -5.1830   22.9560  -30.9490 C   0  0  0  0  0  0  0  0  0  0  0  0
   -3.8820   22.8920  -30.2490 C   0  0  0  0  0  0  0  0  0  0  0  0
   -3.4690   21.6880  -29.7620 N   0  0  0  0  0  0  0  0  0  0  0  0
   -2.2910   21.5370  -29.1010 C   0  0  0  0  0  0  0  0  0  0  0  0
   -1.4610   22.6380  -28.8950 C   0  0  0  0  0  0  0  0  0  0  0  0
   -1.8600   23.8900  -29.3600 C   0  0  0  0  0  0  0  0  0  0  0  0
   -3.0790   24.0320  -30.0300 C   0  0  0  0  0  0  0  0  0  0  0  0
   -3.4880   25.2980  -30.4330 O   0  0  0  0  0  0  0  0  0  0  0  0
   -5.8210   21.7920  -31.2560 N   0  0  0  0  0  0  0  0  0  0  0  0
   -5.9480   18.0540  -34.4850 C   0  0  0  0  0  0  0  0  0  0  0  0
   -4.7100   17.4640  -34.7480 C   0  0  0  0  0  0  0  0  0  0  0  0
   -3.5210   18.0990  -34.3620 C   0  0  0  0  0  0  0  0  0  0  0  0
   -2.1950   17.4670  -34.7190 C   0  0  0  0  0  0  0  0  0  0  0  0
   -1.0722   18.2093  -31.7962 H   0  0  0  0  0  0  0  0  0  0  0  0
   -1.9876   16.7891  -32.4059 H   0  0  0  0  0  0  0  0  0  0  0  0
   -0.1914   16.7674  -32.4059 H   0  0  0  0  0  0  0  0  0  0  0  0
   -0.1860   17.6630  -34.3560 H   0  0  0  0  0  0  0  0  0  0  0  0
   -0.1878   19.7907  -33.2949 H   0  0  0  0  0  0  0  0  0  0  0  0
   -0.9939   19.8008  -34.9258 H   0  0  0  0  0  0  0  0  0  0  0  0
   -2.2675   19.9646  -32.1724 H   0  0  0  0  0  0  0  0  0  0  0  0
   -2.3903   21.1066  -33.5838 H   0  0  0  0  0  0  0  0  0  0  0  0
   -4.8715   20.9165  -32.9578 H   0  0  0  0  0  0  0  0  0  0  0  0
   -7.9610   20.0500  -34.3320 H   0  0  0  0  0  0  0  0  0  0  0  0
   -8.7492   20.5690  -32.2055 H   0  0  0  0  0  0  0  0  0  0  0  0
   -6.4430   19.7660  -30.8360 H   0  0  0  0  0  0  0  0  0  0  0  0
   -8.5764   22.9609  -32.8393 H   0  0  0  0  0  0  0  0  0  0  0  0
   -7.4236   25.1236  -32.3493 H   0  0  0  0  0  0  0  0  0  0  0  0
   -5.2345   25.1238  -31.1458 H   0  0  0  0  0  0  0  0  0  0  0  0
   -1.9925   20.5460  -28.7285 H   0  0  0  0  0  0  0  0  0  0  0  0
   -0.5011   22.5199  -28.3709 H   0  0  0  0  0  0  0  0  0  0  0  0
   -1.2155   24.7669  -29.1998 H   0  0  0  0  0  0  0  0  0  0  0  0
   -6.8730   17.5403  -34.7857 H   0  0  0  0  0  0  0  0  0  0  0  0
   -4.6672   16.4927  -35.2625 H   0  0  0  0  0  0  0  0  0  0  0  0
   -2.2725   16.3800  -34.5691 H   0  0  0  0  0  0  0  0  0  0  0  0
   -1.9796   17.7211  -35.7674 H   0  0  0  0  0  0  0  0  0  0  0  0
  1  2  1  0
  2  3  1  0
  3  4  1  0
  4  5  1  0
  5  6  2  0
  6  7  1  0
  7  8  1  0
  8  9  1  0
  9 10  1  0
  9 11  1  0
 11 12  2  0
 12 13  1  0
 13 14  2  0
 14 15  1  0
 15 16  1  0
 16 17  2  0
 17 18  1  0
 18 19  2  0
 19 20  1  0
 20 21  2  0
 21 22  1  0
 15 23  2  0
  7 24  2  0
 24 25  1  0
 25 26  2  0
 26 27  1  0
 27  2  1  0
 26  5  1  0
 23 11  1  0
 21 16  1  0
  1 28  1  0
  1 29  1  0
  1 30  1  0
  2 31  1  6
  3 32  1  0
  3 33  1  0
  4 34  1  0
  4 35  1  0
  6 36  1  0
  8 37  1  0
  9 38  1  6
 10 39  1  0
 12 40  1  0
 13 41  1  0
 14 42  1  0
 18 43  1  0
 19 44  1  0
 20 45  1  0
 24 46  1  0
 25 47  1  0
 27 48  1  0
 27 49  1  0
M  CHG  2   2   1  22  -1
M  END
>  <UniqueID>  (18) 
18

>  <SMILES>  (18) 
C[N@@H+]1CCc2cc(N[C@@H](O)c3cccc(-c4ncccc4[O-])n3)ccc2C1

>  <Energy>  (18) 
65.55152227167156

>  <Genealogy>  (18) 
C[NH+]1CCc2cc(NC(O)c3cccc(-c4ncccc4[O-])n3)ccc2C1 (protonated)
C[N@@H+]1CCc2cc(N[C@@H](O)c3cccc(-c4ncccc4[O-])n3)ccc2C1 (chirality)
C[N@@H+]1CCc2cc(N[C@@H](O)c3cccc(-c4ncccc4[O-])n3)ccc2C1 (3D coordinates assigned)
C[N@@H+]1CCc2cc(N[C@@H](O)c3cccc(-c4ncccc4[O-])n3)ccc2C1 (nonaromatic ring conformer: 65.55152227167156 kcal/mol)

>  <smiles>  (18) 
CN1CCc2cc(NC(O)c3cccc(-c4ncccc4O)n3)ccc2C1

>  <score_type>  (18) 
oracle

>  <origin>  (18) 
adgpu

>  <m_score__min__energy>  (18) 
-11.779999999999999

>  <m_primary>  (18) 
energy

$$$$
18:0
     RDKit          3D

 46 49  0  0  0  0  0  0  0  0999 V2000
   -4.3380   17.3870  -34.9760 C   0  0  0  0  0  0  0  0  0  0  0  0
   -5.4910   17.8410  -34.1290 C   0  0  0  0  0  0  0  0  0  0  0  0
   -5.9380   19.1690  -34.1970 C   0  0  0  0  0  0  0  0  0  0  0  0
   -6.9880   19.6010  -33.3840 C   0  0  0  0  0  0  0  0  0  0  0  0
   -7.5980   18.7150  -32.4810 C   0  0  0  0  0  0  0  0  0  0  0  0
   -8.7580   19.1640  -31.6360 C   0  0  0  0  0  0  0  0  0  0  0  0
   -9.5370   20.6620  -32.3350 S   0  0  0  0  0  0  0  0  0  0  0  0
   -8.3110   21.7840  -31.6710 C   0  0  0  0  0  0  0  0  0  0  0  0
   -7.7210   21.6080  -30.4600 N   0  0  0  0  0  0  0  0  0  0  0  0
   -6.8800   22.6540  -30.4110 C   0  0  0  0  0  0  0  0  0  0  0  0
   -5.9960   22.9930  -29.3920 C   0  0  0  0  0  0  0  0  0  0  0  0
   -5.1940   24.1470  -29.5580 C   0  0  0  0  0  0  0  0  0  0  0  0
   -4.2810   24.5140  -28.5090 N   0  0  0  0  0  0  0  0  0  0  0  0
   -2.7490   23.7440  -28.2350 S   0  0  0  0  0  0  0  0  0  0  0  0
   -2.1520   23.3650  -29.5620 O   0  0  0  0  0  0  0  0  0  0  0  0
   -2.9660   22.5000  -27.4220 O   0  0  0  0  0  0  0  0  0  0  0  0
   -1.6650   24.8190  -27.3460 C   0  0  0  0  0  0  0  0  0  0  0  0
   -1.4200   24.5880  -25.9830 C   0  0  0  0  0  0  0  0  0  0  0  0
   -0.5690   25.4340  -25.2670 C   0  0  0  0  0  0  0  0  0  0  0  0
    0.0490   26.5120  -25.9060 C   0  0  0  0  0  0  0  0  0  0  0  0
   -0.1790   26.7410  -27.2650 C   0  0  0  0  0  0  0  0  0  0  0  0
   -1.0300   25.8980  -27.9890 C   0  0  0  0  0  0  0  0  0  0  0  0
   -1.2330   26.1370  -29.3430 O   0  0  0  0  0  0  0  0  0  0  0  0
   -5.3160   24.9150  -30.7530 C   0  0  0  0  0  0  0  0  0  0  0  0
   -6.2240   24.5380  -31.7600 C   0  0  0  0  0  0  0  0  0  0  0  0
   -6.9870   23.3980  -31.5450 C   0  0  0  0  0  0  0  0  0  0  0  0
   -7.8810   22.8520  -32.3220 O   0  0  0  0  0  0  0  0  0  0  0  0
   -7.1400   17.3910  -32.4030 C   0  0  0  0  0  0  0  0  0  0  0  0
   -6.0870   16.9600  -33.2150 C   0  0  0  0  0  0  0  0  0  0  0  0
   -3.5118   17.0617  -34.3267 H   0  0  0  0  0  0  0  0  0  0  0  0
   -4.6577   16.5476  -35.6110 H   0  0  0  0  0  0  0  0  0  0  0  0
   -3.9995   18.2190  -35.6110 H   0  0  0  0  0  0  0  0  0  0  0  0
   -5.4594   19.8730  -34.8937 H   0  0  0  0  0  0  0  0  0  0  0  0
   -7.3394   20.6412  -33.4512 H   0  0  0  0  0  0  0  0  0  0  0  0
   -9.5046   18.3574  -31.5924 H   0  0  0  0  0  0  0  0  0  0  0  0
   -8.3863   19.4003  -30.6280 H   0  0  0  0  0  0  0  0  0  0  0  0
   -5.9223   22.3804  -28.4814 H   0  0  0  0  0  0  0  0  0  0  0  0
   -4.5320   25.3050  -27.8730 H   0  0  0  0  0  0  0  0  0  0  0  0
   -1.8999   23.7375  -25.4767 H   0  0  0  0  0  0  0  0  0  0  0  0
   -0.3852   25.2509  -24.1980 H   0  0  0  0  0  0  0  0  0  0  0  0
    0.7145   27.1798  -25.3393 H   0  0  0  0  0  0  0  0  0  0  0  0
    0.3121   27.5870  -27.7680 H   0  0  0  0  0  0  0  0  0  0  0  0
   -4.6938   25.8118  -30.8894 H   0  0  0  0  0  0  0  0  0  0  0  0
   -6.3256   25.1255  -32.6844 H   0  0  0  0  0  0  0  0  0  0  0  0
   -7.6117   16.6890  -31.6997 H   0  0  0  0  0  0  0  0  0  0  0  0
   -5.7240   15.9246  -33.1367 H   0  0  0  0  0  0  0  0  0  0  0  0
  1  2  1  0
  2  3  2  0
  3  4  1  0
  4  5  2  0
  5  6  1  0
  6  7  1  0
  7  8  1  0
  8  9  2  0
  9 10  1  0
 10 11  2  0
 11 12  1  0
 12 13  1  0
 13 14  1  0
 14 15  2  0
 14 16  2  0
 14 17  1  0
 17 18  2  0
 18 19  1  0
 19 20  2  0
 20 21  1  0
 21 22  2  0
 22 23  1  0
 12 24  2  0
 24 25  1  0
 25 26  2  0
 26 27  1  0
  5 28  1  0
 28 29  2  0
 29  2  1  0
 27  8  1  0
 26 10  1  0
 22 17  1  0
  1 30  1  0
  1 31  1  0
  1 32  1  0
  3 33  1  0
  4 34  1  0
  6 35  1  0
  6 36  1  0
 11 37  1  0
 13 38  1  0
 18 39  1  0
 19 40  1  0
 20 41  1  0
 21 42  1  0
 24 43  1  0
 25 44  1  0
 28 45  1  0
 29 46  1  0
M  CHG  1  23  -1
M  END
>  <UniqueID>  (19) 
19

>  <SMILES>  (19) 
Cc1ccc(CSc2nc3cc(NS(=O)(=O)c4ccccc4[O-])ccc3o2)cc1

>  <Energy>  (19) 
85.71930382774954

>  <Genealogy>  (19) 
Cc1ccc(CSc2nc3cc(NS(=O)(=O)c4ccccc4[O-])ccc3o2)cc1 (protonated)
Cc1ccc(CSc2nc3cc(NS(=O)(=O)c4ccccc4[O-])ccc3o2)cc1 (3D coordinates assigned)
Cc1ccc(CSc2nc3cc(NS(=O)(=O)c4ccccc4[O-])ccc3o2)cc1 (optimized conformer: 85.71930382774954 kcal/mol)

>  <smiles>  (19) 
Cc1ccc(CSc2nc3cc(NS(=O)(=O)c4ccccc4O)ccc3o2)cc1

>  <score_type>  (19) 
oracle

>  <origin>  (19) 
adgpu

>  <m_score__min__energy>  (19) 
-13.19

>  <m_primary>  (19) 
energy

$$$$
19:0
     RDKit          3D

 60 63  0  0  0  0  0  0  0  0999 V2000
    2.9550   17.6630  -36.6880 C   0  0  0  0  0  0  0  0  0  0  0  0
    4.3290   18.1220  -36.4020 N   0  0  0  0  0  0  0  0  0  0  0  0
    4.6410   19.3500  -37.1590 C   0  0  0  0  0  0  0  0  0  0  0  0
    4.5960   18.2750  -34.9490 C   0  0  0  0  0  0  0  0  0  0  0  0
    4.3350   19.6930  -34.3990 C   0  0  0  0  0  0  0  0  0  0  0  0
    2.8610   19.9670  -34.3410 C   0  0  0  0  0  0  0  0  0  0  0  0
    1.9270   19.3010  -33.5540 C   0  0  0  0  0  0  0  0  0  0  0  0
    0.7080   19.8690  -33.7000 N   0  0  0  0  0  0  0  0  0  0  0  0
   -0.7400   19.4050  -32.8630 S   0  0  0  0  0  0  0  0  0  0  0  0
   -0.4520   18.2510  -31.9420 O   0  0  0  0  0  0  0  0  0  0  0  0
   -1.7700   18.9820  -33.8720 O   0  0  0  0  0  0  0  0  0  0  0  0
   -1.3330   20.7620  -31.9130 C   0  0  0  0  0  0  0  0  0  0  0  0
   -2.5390   21.3900  -32.2510 C   0  0  0  0  0  0  0  0  0  0  0  0
   -2.9970   22.4800  -31.5060 C   0  0  0  0  0  0  0  0  0  0  0  0
   -2.2520   22.9540  -30.4180 C   0  0  0  0  0  0  0  0  0  0  0  0
   -2.8380   24.3400  -29.5050 S   0  0  0  0  0  0  0  0  0  0  0  0
   -3.6080   23.8790  -28.2980 O   0  0  0  0  0  0  0  0  0  0  0  0
   -1.6720   25.1670  -29.0440 O   0  0  0  0  0  0  0  0  0  0  0  0
   -3.8530   25.3000  -30.5330 N   0  0  0  0  0  0  0  0  0  0  0  0
   -5.2840   25.3380  -30.4530 C   0  0  0  0  0  0  0  0  0  0  0  0
   -5.8650   26.3980  -30.0980 O   0  0  0  0  0  0  0  0  0  0  0  0
   -6.0780   24.1310  -30.7780 C   0  0  0  0  0  0  0  0  0  0  0  0
   -6.1230   23.6370  -32.0950 C   0  0  0  0  0  0  0  0  0  0  0  0
   -6.9000   22.5180  -32.4070 C   0  0  0  0  0  0  0  0  0  0  0  0
   -7.6390   21.8800  -31.4090 C   0  0  0  0  0  0  0  0  0  0  0  0
   -7.5980   22.3560  -30.0980 C   0  0  0  0  0  0  0  0  0  0  0  0
   -6.8200   23.4730  -29.7780 C   0  0  0  0  0  0  0  0  0  0  0  0
   -1.0470   22.3220  -30.0760 C   0  0  0  0  0  0  0  0  0  0  0  0
   -0.5930   21.2270  -30.8180 C   0  0  0  0  0  0  0  0  0  0  0  0
    0.8580   20.8920  -34.5610 C   0  0  0  0  0  0  0  0  0  0  0  0
   -0.1140   21.7890  -35.0120 C   0  0  0  0  0  0  0  0  0  0  0  0
    0.2870   22.8000  -35.9040 C   0  0  0  0  0  0  0  0  0  0  0  0
    1.6350   22.8990  -36.3150 C   0  0  0  0  0  0  0  0  0  0  0  0
    2.0150   23.9040  -37.1970 O   0  0  0  0  0  0  0  0  0  0  0  0
    2.5940   21.9850  -35.8390 C   0  0  0  0  0  0  0  0  0  0  0  0
    2.1660   20.9860  -34.9670 C   0  0  0  0  0  0  0  0  0  0  0  0
    2.4233   17.4854  -35.7416 H   0  0  0  0  0  0  0  0  0  0  0  0
    2.4245   18.4327  -37.2677 H   0  0  0  0  0  0  0  0  0  0  0  0
    2.9936   16.7290  -37.2677 H   0  0  0  0  0  0  0  0  0  0  0  0
    4.9790   17.3760  -36.7510 H   0  0  0  0  0  0  0  0  0  0  0  0
    4.8495   20.1706  -36.4568 H   0  0  0  0  0  0  0  0  0  0  0  0
    5.5235   19.1761  -37.7922 H   0  0  0  0  0  0  0  0  0  0  0  0
    3.7825   19.6185  -37.7922 H   0  0  0  0  0  0  0  0  0  0  0  0
    3.9502   17.5705  -34.4044 H   0  0  0  0  0  0  0  0  0  0  0  0
    5.6677   18.0742  -34.8038 H   0  0  0  0  0  0  0  0  0  0  0  0
    4.7589   19.7732  -33.3871 H   0  0  0  0  0  0  0  0  0  0  0  0
    4.8091   20.4279  -35.0661 H   0  0  0  0  0  0  0  0  0  0  0  0
    2.1475   18.4387  -32.9076 H   0  0  0  0  0  0  0  0  0  0  0  0
   -3.1271   21.0239  -33.1054 H   0  0  0  0  0  0  0  0  0  0  0  0
   -3.9457   22.9676  -31.7746 H   0  0  0  0  0  0  0  0  0  0  0  0
   -5.5421   24.1355  -32.8850 H   0  0  0  0  0  0  0  0  0  0  0  0
   -6.9293   22.1397  -33.4395 H   0  0  0  0  0  0  0  0  0  0  0  0
   -8.2537   21.0019  -31.6562 H   0  0  0  0  0  0  0  0  0  0  0  0
   -8.1799   21.8506  -29.3132 H   0  0  0  0  0  0  0  0  0  0  0  0
   -6.7874   23.8392  -28.7412 H   0  0  0  0  0  0  0  0  0  0  0  0
   -0.4580   22.6886  -29.2223 H   0  0  0  0  0  0  0  0  0  0  0  0
    0.3480   20.7292  -30.5410 H   0  0  0  0  0  0  0  0  0  0  0  0
   -1.1595   21.7071  -34.6800 H   0  0  0  0  0  0  0  0  0  0  0  0
   -0.4541   23.5185  -36.2842 H   0  0  0  0  0  0  0  0  0  0  0  0
    3.6479   22.0572  -36.1457 H   0  0  0  0  0  0  0  0  0  0  0  0
  1  2  1  0
  2  3  1  0
  2  4  1  0
  4  5  1  0
  5  6  1  0
  6  7  2  0
  7  8  1  0
  8  9  1  0
  9 10  2  0
  9 11  2  0
  9 12  1  0
 12 13  2  0
 13 14  1  0
 14 15  2  0
 15 16  1  0
 16 17  2  0
 16 18  2  0
 16 19  1  0
 19 20  1  0
 20 21  2  0
 20 22  1  0
 22 23  2  0
 23 24  1  0
 24 25  2  0
 25 26  1  0
 26 27  2  0
 15 28  1  0
 28 29  2  0
  8 30  1  0
 30 31  2  0
 31 32  1  0
 32 33  2  0
 33 34  1  0
 33 35  1  0
 35 36  2  0
 36  6  1  0
 29 12  1  0
 36 30  1  0
 27 22  1  0
  1 37  1  0
  1 38  1  0
  1 39  1  0
  2 40  1  0
  3 41  1  0
  3 42  1  0
  3 43  1  0
  4 44  1  0
  4 45  1  0
  5 46  1  0
  5 47  1  0
  7 48  1  0
 13 49  1  0
 14 50  1  0
 23 51  1  0
 24 52  1  0
 25 53  1  0
 26 54  1  0
 27 55  1  0
 28 56  1  0
 29 57  1  0
 31 58  1  0
 32 59  1  0
 35 60  1  0
M  CHG  3   2   1  19  -1  34  -1
M  END
>  <UniqueID>  (20) 
20

>  <SMILES>  (20) 
C[NH+](C)CCc1cn(S(=O)(=O)c2ccc(S(=O)(=O)[N-]C(=O)c3ccccc3)cc2)c2ccc([O-])cc12

>  <Energy>  (20) 
103.92183568071988

>  <Genealogy>  (20) 
C[NH+](C)CCc1cn(S(=O)(=O)c2ccc(S(=O)(=O)[N-]C(=O)c3ccccc3)cc2)c2ccc([O-])cc12 (protonated)
C[NH+](C)CCc1cn(S(=O)(=O)c2ccc(S(=O)(=O)[N-]C(=O)c3ccccc3)cc2)c2ccc([O-])cc12 (3D coordinates assigned)
C[NH+](C)CCc1cn(S(=O)(=O)c2ccc(S(=O)(=O)[N-]C(=O)c3ccccc3)cc2)c2ccc([O-])cc12 (optimized conformer: 103.92183568071988 kcal/mol)

>  <smiles>  (20) 
CN(C)CCc1cn(S(=O)(=O)c2ccc(S(=O)(=O)NC(=O)c3ccccc3)cc2)c2ccc(O)cc12

>  <score_type>  (20) 
oracle

>  <origin>  (20) 
adgpu

>  <m_score__min__energy>  (20) 
-12.529999999999999

>  <m_primary>  (20) 
energy

$$$$
20:0
     RDKit          3D

 51 53  0  0  0  0  0  0  0  0999 V2000
   -6.0370   17.2630  -34.6610 C   0  0  0  0  0  0  0  0  0  0  0  0
   -4.5410   17.2620  -34.5480 C   0  0  0  0  0  0  0  0  0  0  0  0
   -3.9120   16.2380  -34.9330 O   0  0  0  0  0  0  0  0  0  0  0  0
   -3.8160   18.3840  -33.9980 N   0  0  0  0  0  0  0  0  0  0  0  0
   -2.3560   18.4350  -34.1870 C   0  0  0  0  0  0  0  0  0  0  0  0
   -1.7800   19.7940  -33.7790 C   0  0  0  0  0  0  0  0  0  0  0  0
   -2.2910   20.1740  -32.4580 N   0  0  0  0  0  0  0  0  0  0  0  0
   -1.3740   20.5190  -31.4050 C   0  0  0  0  0  0  0  0  0  0  0  0
   -0.3260   19.8350  -31.2460 O   0  0  0  0  0  0  0  0  0  0  0  0
   -1.6360   21.6620  -30.5020 C   0  0  0  0  0  0  0  0  0  0  0  0
   -1.1200   21.6720  -29.1980 C   0  0  0  0  0  0  0  0  0  0  0  0
   -1.3890   22.7400  -28.3420 C   0  0  0  0  0  0  0  0  0  0  0  0
   -2.1870   23.8070  -28.7670 C   0  0  0  0  0  0  0  0  0  0  0  0
   -2.4340   24.8540  -27.8790 O   0  0  0  0  0  0  0  0  0  0  0  0
   -2.7270   23.8050  -30.0670 C   0  0  0  0  0  0  0  0  0  0  0  0
   -3.5590   24.9000  -30.4810 N   0  0  0  0  0  0  0  0  0  0  0  0
   -5.2380   25.0900  -30.0890 S   0  0  0  0  0  0  0  0  0  0  0  0
   -5.3960   25.1070  -28.5950 O   0  0  0  0  0  0  0  0  0  0  0  0
   -5.7250   26.3970  -30.6490 O   0  0  0  0  0  0  0  0  0  0  0  0
   -6.1690   23.7470  -30.7440 C   0  0  0  0  0  0  0  0  0  0  0  0
   -5.8540   23.2120  -32.0010 C   0  0  0  0  0  0  0  0  0  0  0  0
   -6.5860   22.1350  -32.5110 C   0  0  0  0  0  0  0  0  0  0  0  0
   -7.6340   21.5770  -31.7640 C   0  0  0  0  0  0  0  0  0  0  0  0
   -8.4450   20.4480  -32.3280 C   0  0  0  0  0  0  0  0  0  0  0  0
   -7.9610   22.1270  -30.5150 C   0  0  0  0  0  0  0  0  0  0  0  0
   -7.2290   23.2030  -30.0070 C   0  0  0  0  0  0  0  0  0  0  0  0
   -2.4450   22.7280  -30.9280 C   0  0  0  0  0  0  0  0  0  0  0  0
   -3.7230   20.0350  -32.1570 C   0  0  0  0  0  0  0  0  0  0  0  0
   -4.5130   19.5180  -33.3670 C   0  0  0  0  0  0  0  0  0  0  0  0
   -6.4807   17.2633  -33.6545 H   0  0  0  0  0  0  0  0  0  0  0  0
   -6.3630   18.1614  -35.2057 H   0  0  0  0  0  0  0  0  0  0  0  0
   -6.3642   16.3651  -35.2057 H   0  0  0  0  0  0  0  0  0  0  0  0
   -1.8893   17.6509  -33.5727 H   0  0  0  0  0  0  0  0  0  0  0  0
   -2.1424   18.2782  -35.2546 H   0  0  0  0  0  0  0  0  0  0  0  0
   -0.6826   19.7289  -33.7411 H   0  0  0  0  0  0  0  0  0  0  0  0
   -2.0812   20.5523  -34.5167 H   0  0  0  0  0  0  0  0  0  0  0  0
   -0.5000   20.8333  -28.8484 H   0  0  0  0  0  0  0  0  0  0  0  0
   -0.9702   22.7430  -27.3248 H   0  0  0  0  0  0  0  0  0  0  0  0
   -3.3130   25.3560  -27.8620 H   0  0  0  0  0  0  0  0  0  0  0  0
   -5.0284   23.6407  -32.5880 H   0  0  0  0  0  0  0  0  0  0  0  0
   -6.3391   21.7242  -33.5011 H   0  0  0  0  0  0  0  0  0  0  0  0
   -8.8707   19.8554  -31.5048 H   0  0  0  0  0  0  0  0  0  0  0  0
   -9.2589   20.8544  -32.9464 H   0  0  0  0  0  0  0  0  0  0  0  0
   -7.8000   19.8064  -32.9464 H   0  0  0  0  0  0  0  0  0  0  0  0
   -8.7965   21.7095  -29.9340 H   0  0  0  0  0  0  0  0  0  0  0  0
   -7.4860   23.6249  -29.0242 H   0  0  0  0  0  0  0  0  0  0  0  0
   -2.8627   22.7211  -31.9456 H   0  0  0  0  0  0  0  0  0  0  0  0
   -3.8445   19.3272  -31.3238 H   0  0  0  0  0  0  0  0  0  0  0  0
   -4.1145   21.0284  -31.8926 H   0  0  0  0  0  0  0  0  0  0  0  0
   -5.5089   19.1899  -33.0346 H   0  0  0  0  0  0  0  0  0  0  0  0
   -4.6047   20.3305  -34.1028 H   0  0  0  0  0  0  0  0  0  0  0  0
  1  2  1  0
  2  3  2  0
  2  4  1  0
  4  5  1  0
  5  6  1  0
  6  7  1  0
  7  8  1  0
  8  9  2  0
  8 10  1  0
 10 11  2  0
 11 12  1  0
 12 13  2  0
 13 14  1  0
 13 15  1  0
 15 16  1  0
 16 17  1  0
 17 18  2  0
 17 19  2  0
 17 20  1  0
 20 21  2  0
 21 22  1  0
 22 23  2  0
 23 24  1  0
 23 25  1  0
 25 26  2  0
 15 27  2  0
  7 28  1  0
 28 29  1  0
 29  4  1  0
 27 10  1  0
 26 20  1  0
  1 30  1  0
  1 31  1  0
  1 32  1  0
  5 33  1  0
  5 34  1  0
  6 35  1  0
  6 36  1  0
 11 37  1  0
 12 38  1  0
 14 39  1  0
 21 40  1  0
 22 41  1  0
 24 42  1  0
 24 43  1  0
 24 44  1  0
 25 45  1  0
 26 46  1  0
 27 47  1  0
 28 48  1  0
 28 49  1  0
 29 50  1  0
 29 51  1  0
M  CHG  1  16  -1
M  END
>  <UniqueID>  (21) 
21

>  <SMILES>  (21) 
CC(=O)N1CCN(C(=O)c2ccc(O)c([N-]S(=O)(=O)c3ccc(C)cc3)c2)CC1

>  <Energy>  (21) 
59.686039994615015

>  <Genealogy>  (21) 
CC(=O)N1CCN(C(=O)c2ccc(O)c([N-]S(=O)(=O)c3ccc(C)cc3)c2)CC1 (protonated)
CC(=O)N1CCN(C(=O)c2ccc(O)c([N-]S(=O)(=O)c3ccc(C)cc3)c2)CC1 (3D coordinates assigned)
CC(=O)N1CCN(C(=O)c2ccc(O)c([N-]S(=O)(=O)c3ccc(C)cc3)c2)CC1 (nonaromatic ring conformer: 59.686039994615015 kcal/mol)

>  <smiles>  (21) 
CC(=O)N1CCN(C(=O)c2ccc(O)c(NS(=O)(=O)c3ccc(C)cc3)c2)CC1

>  <score_type>  (21) 
oracle

>  <origin>  (21) 
adgpu

>  <m_score__min__energy>  (21) 
-10.800000000000001

>  <m_primary>  (21) 
energy

$$$$
21:0
     RDKit          3D

 60 63  0  0  0  0  0  0  0  0999 V2000
  -10.8878   20.6294  -31.9738 H   0  0  0  0  0  0  0  0  0  0  0  0
   -9.8230   20.9040  -31.9450 C   0  0  0  0  0  0  0  0  0  0  0  0
   -9.5140   22.1030  -31.5370 N   0  0  0  0  0  0  0  0  0  0  0  0
   -8.1980   22.6090  -31.2620 C   0  0  0  0  0  0  0  0  0  0  0  0
   -7.5660   23.4180  -32.2140 C   0  0  0  0  0  0  0  0  0  0  0  0
   -8.0782   23.6542  -33.1584 H   0  0  0  0  0  0  0  0  0  0  0  0
   -6.2870   23.9270  -31.9700 C   0  0  0  0  0  0  0  0  0  0  0  0
   -5.7868   24.5419  -32.7327 H   0  0  0  0  0  0  0  0  0  0  0  0
   -5.6400   23.6560  -30.7560 C   0  0  0  0  0  0  0  0  0  0  0  0
   -4.0120   24.2600  -30.4640 S   0  0  0  0  0  0  0  0  0  0  0  0
   -3.0170   23.4130  -31.2040 O   0  0  0  0  0  0  0  0  0  0  0  0
   -3.8860   25.6740  -30.9600 O   0  0  0  0  0  0  0  0  0  0  0  0
   -3.6630   24.1900  -28.7670 N   0  0  0  0  0  0  0  0  0  0  0  0
   -2.6390   24.7710  -28.2230 C   0  0  0  0  0  0  0  0  0  0  0  0
   -1.7200   25.4880  -28.9070 N   0  0  0  0  0  0  0  0  0  0  0  0
   -0.7610   25.9800  -28.1260 N   0  0  0  0  0  0  0  0  0  0  0  0
   -0.9110   25.6500  -26.8240 C   0  0  0  0  0  0  0  0  0  0  0  0
    0.0080   26.1190  -25.7420 C   0  0  0  0  0  0  0  0  0  0  0  0
    0.5370   27.0212  -26.0828 H   0  0  0  0  0  0  0  0  0  0  0  0
    0.7278   25.3184  -25.5162 H   0  0  0  0  0  0  0  0  0  0  0  0
   -0.7760   26.4460  -24.4770 C   0  0  0  0  0  0  0  0  0  0  0  0
   -0.1700   26.1933  -23.5944 H   0  0  0  0  0  0  0  0  0  0  0  0
   -1.0162   27.5193  -24.4617 H   0  0  0  0  0  0  0  0  0  0  0  0
   -1.7077   25.8615  -24.4617 H   0  0  0  0  0  0  0  0  0  0  0  0
   -2.2980   24.7190  -26.5770 S   0  0  0  0  0  0  0  0  0  0  0  0
   -6.2860   22.8790  -29.7860 C   0  0  0  0  0  0  0  0  0  0  0  0
   -5.7877   22.6728  -28.8273 H   0  0  0  0  0  0  0  0  0  0  0  0
   -7.5620   22.3650  -30.0330 C   0  0  0  0  0  0  0  0  0  0  0  0
   -8.0704   21.7671  -29.2623 H   0  0  0  0  0  0  0  0  0  0  0  0
   -8.8350   19.8880  -32.3720 C   0  0  0  0  0  0  0  0  0  0  0  0
   -8.9170   18.5550  -31.9350 C   0  0  0  0  0  0  0  0  0  0  0  0
   -9.7473   18.2425  -31.2846 H   0  0  0  0  0  0  0  0  0  0  0  0
   -7.9500   17.6250  -32.3220 C   0  0  0  0  0  0  0  0  0  0  0  0
   -8.0352   16.5782  -31.9951 H   0  0  0  0  0  0  0  0  0  0  0  0
   -6.8730   18.0190  -33.1240 C   0  0  0  0  0  0  0  0  0  0  0  0
   -5.6130   16.8610  -33.5550 S   0  0  0  0  0  0  0  0  0  0  0  0
   -6.2640   15.6310  -34.1220 O   0  0  0  0  0  0  0  0  0  0  0  0
   -4.8740   16.4540  -32.3100 O   0  0  0  0  0  0  0  0  0  0  0  0
   -4.4720   17.4950  -34.7260 N   0  0  0  0  0  0  0  0  0  0  0  0
   -3.6920   18.6440  -34.2160 C   0  0  0  0  0  0  0  0  0  0  0  0
   -3.6091   19.3919  -35.0183 H   0  0  0  0  0  0  0  0  0  0  0  0
   -4.2264   19.0325  -33.3365 H   0  0  0  0  0  0  0  0  0  0  0  0
   -2.2730   18.2670  -33.7530 C   0  0  0  0  0  0  0  0  0  0  0  0
   -1.5682   18.4106  -34.5853 H   0  0  0  0  0  0  0  0  0  0  0  0
   -1.9873   18.9089  -32.9067 H   0  0  0  0  0  0  0  0  0  0  0  0
   -2.2400   16.8630  -33.3250 N   0  0  0  0  0  0  0  0  0  0  0  0
   -0.9630   16.5440  -32.6720 C   0  0  0  0  0  0  0  0  0  0  0  0
   -1.0915   16.5761  -31.5800 H   0  0  0  0  0  0  0  0  0  0  0  0
   -0.6384   15.5372  -32.9736 H   0  0  0  0  0  0  0  0  0  0  0  0
   -0.2031   17.2799  -32.9736 H   0  0  0  0  0  0  0  0  0  0  0  0
   -2.4720   15.9710  -34.4770 C   0  0  0  0  0  0  0  0  0  0  0  0
   -1.5598   15.9408  -35.0909 H   0  0  0  0  0  0  0  0  0  0  0  0
   -2.7252   14.9743  -34.0865 H   0  0  0  0  0  0  0  0  0  0  0  0
   -3.6480   16.4480  -35.3570 C   0  0  0  0  0  0  0  0  0  0  0  0
   -3.2391   16.8470  -36.2970 H   0  0  0  0  0  0  0  0  0  0  0  0
   -4.3016   15.5784  -35.5201 H   0  0  0  0  0  0  0  0  0  0  0  0
   -6.7820   19.3500  -33.5530 C   0  0  0  0  0  0  0  0  0  0  0  0
   -5.9453   19.6628  -34.1949 H   0  0  0  0  0  0  0  0  0  0  0  0
   -7.7510   20.2820  -33.1680 C   0  0  0  0  0  0  0  0  0  0  0  0
   -7.6619   21.3295  -33.4916 H   0  0  0  0  0  0  0  0  0  0  0  0
  1  2  1  0
  2  3  2  0
  3  4  1  0
  4  5  2  0
  5  6  1  0
  5  7  1  0
  7  8  1  0
  7  9  2  0
  9 10  1  0
 10 11  2  0
 10 12  2  0
 10 13  1  0
 13 14  2  0
 14 15  1  0
 15 16  1  0
 16 17  2  0
 17 18  1  0
 18 19  1  0
 18 20  1  0
 18 21  1  0
 21 22  1  0
 21 23  1  0
 21 24  1  0
 17 25  1  0
  9 26  1  0
 26 27  1  0
 26 28  2  0
 28 29  1  0
  2 30  1  0
 30 31  2  0
 31 32  1  0
 31 33  1  0
 33 34  1  0
 33 35  2  0
 35 36  1  0
 36 37  2  0
 36 38  2  0
 36 39  1  0
 39 40  1  0
 40 41  1  0
 40 42  1  0
 40 43  1  0
 43 44  1  0
 43 45  1  0
 43 46  1  0
 46 47  1  0
 47 48  1  0
 47 49  1  0
 47 50  1  0
 46 51  1  0
 51 52  1  0
 51 53  1  0
 51 54  1  0
 54 55  1  0
 54 56  1  0
 35 57  1  0
 57 58  1  0
 57 59  2  0
 59 60  1  0
 28  4  1  0
 59 30  1  0
 25 14  1  0
 54 39  1  0
M  CHG  1  15  -1
M  END
>  <UniqueID>  (22) 
22

>  <SMILES>  (22) 
CCc1n[n-]/c(=N\S(=O)(=O)c2ccc(/N=C\c3ccc(S(=O)(=O)N4CCN(C)CC4)cc3)cc2)s1

>  <Energy>  (22) 
114.17414674093399

>  <Genealogy>  (22) 
CCc1n[n-]c(=NS(=O)(=O)c2ccc(N=Cc3ccc(S(=O)(=O)N4CCN(C)CC4)cc3)cc2)s1 (protonated)
CCc1n[n-]/c(=N\S(=O)(=O)c2ccc(/N=C\c3ccc(S(=O)(=O)N4CCN(C)CC4)cc3)cc2)s1 (cis-trans isomerization)
CCc1n[n-]/c(=N\S(=O)(=O)c2ccc(/N=C\c3ccc(S(=O)(=O)N4CCN(C)CC4)cc3)cc2)s1 (3D coordinates assigned)
CCc1n[n-]/c(=N\S(=O)(=O)c2ccc(/N=C\c3ccc(S(=O)(=O)N4CCN(C)CC4)cc3)cc2)s1 (nonaromatic ring conformer: 114.17414674093399 kcal/mol)

>  <smiles>  (22) 
CCc1n[nH]c(=NS(=O)(=O)c2ccc(N=Cc3ccc(S(=O)(=O)N4CCN(C)CC4)cc3)cc2)s1

>  <score_type>  (22) 
oracle

>  <origin>  (22) 
adgpu

>  <m_score__min__energy>  (22) 
-13.199999999999999

>  <m_primary>  (22) 
energy

$$$$
22:0
     RDKit          3D

 48 50  0  0  0  0  0  0  0  0999 V2000
   -1.2260   26.0490  -30.0440 H   0  0  0  0  0  0  0  0  0  0  0  0
   -1.2030   26.1110  -29.0020 N   0  0  0  0  0  0  0  0  0  0  0  0
   -1.5790   24.5380  -28.3920 S   0  0  0  0  0  0  0  0  0  0  0  0
   -0.6170   23.5320  -28.9560 O   0  0  0  0  0  0  0  0  0  0  0  0
   -1.4490   24.5470  -26.8940 O   0  0  0  0  0  0  0  0  0  0  0  0
   -3.2210   24.1050  -28.8580 C   0  0  0  0  0  0  0  0  0  0  0  0
   -3.9050   24.8860  -29.7960 C   0  0  0  0  0  0  0  0  0  0  0  0
   -3.4126   25.7637  -30.2401 H   0  0  0  0  0  0  0  0  0  0  0  0
   -5.2110   24.5570  -30.1720 C   0  0  0  0  0  0  0  0  0  0  0  0
   -5.7420   25.1803  -30.9066 H   0  0  0  0  0  0  0  0  0  0  0  0
   -5.8500   23.4330  -29.6160 C   0  0  0  0  0  0  0  0  0  0  0  0
   -7.1890   23.0590  -29.9880 N   0  0  0  0  0  0  0  0  0  0  0  0
   -7.9760   23.2770  -29.3360 H   0  0  0  0  0  0  0  0  0  0  0  0
   -7.5720   22.1130  -31.3920 S   0  0  0  0  0  0  0  0  0  0  0  0
   -8.3850   20.9190  -30.9810 O   0  0  0  0  0  0  0  0  0  0  0  0
   -8.3810   22.9500  -32.3450 O   0  0  0  0  0  0  0  0  0  0  0  0
   -6.0860   21.5520  -32.1520 C   0  0  0  0  0  0  0  0  0  0  0  0
   -5.0780   22.4710  -32.4650 C   0  0  0  0  0  0  0  0  0  0  0  0
   -5.2108   23.5351  -32.2199 H   0  0  0  0  0  0  0  0  0  0  0  0
   -3.9030   22.0410  -33.0880 C   0  0  0  0  0  0  0  0  0  0  0  0
   -3.1115   22.7685  -33.3210 H   0  0  0  0  0  0  0  0  0  0  0  0
   -3.7250   20.6920  -33.4180 C   0  0  0  0  0  0  0  0  0  0  0  0
   -2.4960   20.3020  -34.0550 N   0  0  0  0  0  0  0  0  0  0  0  0
   -1.3820   20.9720  -34.0400 C   0  0  0  0  0  0  0  0  0  0  0  0
   -1.3286   21.9262  -33.4953 H   0  0  0  0  0  0  0  0  0  0  0  0
   -0.1840   20.4650  -34.7480 C   0  0  0  0  0  0  0  0  0  0  0  0
    0.0810   19.0850  -34.8130 C   0  0  0  0  0  0  0  0  0  0  0  0
   -0.6072   18.3736  -34.3332 H   0  0  0  0  0  0  0  0  0  0  0  0
    1.2110   18.6120  -35.4820 C   0  0  0  0  0  0  0  0  0  0  0  0
    1.4087   17.5309  -35.5271 H   0  0  0  0  0  0  0  0  0  0  0  0
    2.0910   19.5060  -36.0940 C   0  0  0  0  0  0  0  0  0  0  0  0
    2.9796   19.1267  -36.6198 H   0  0  0  0  0  0  0  0  0  0  0  0
    1.8460   20.8900  -36.0410 C   0  0  0  0  0  0  0  0  0  0  0  0
    2.7060   21.8240  -36.6400 O   0  0  0  0  0  0  0  0  0  0  0  0
    3.3570   22.8820  -35.9450 C   0  0  0  0  0  0  0  0  0  0  0  0
    3.2593   22.7233  -34.8609 H   0  0  0  0  0  0  0  0  0  0  0  0
    4.4223   22.8995  -36.2185 H   0  0  0  0  0  0  0  0  0  0  0  0
    2.8924   23.8408  -36.2185 H   0  0  0  0  0  0  0  0  0  0  0  0
    0.7090   21.3640  -35.3690 C   0  0  0  0  0  0  0  0  0  0  0  0
    0.4750   22.7350  -35.3180 O   0  0  0  0  0  0  0  0  0  0  0  0
   -4.7320   19.7650  -33.0830 C   0  0  0  0  0  0  0  0  0  0  0  0
   -4.5948   18.6987  -33.3160 H   0  0  0  0  0  0  0  0  0  0  0  0
   -5.9060   20.1960  -32.4550 C   0  0  0  0  0  0  0  0  0  0  0  0
   -6.6898   19.4680  -32.1985 H   0  0  0  0  0  0  0  0  0  0  0  0
   -5.1620   22.6620  -28.6660 C   0  0  0  0  0  0  0  0  0  0  0  0
   -5.6540   21.7884  -28.2134 H   0  0  0  0  0  0  0  0  0  0  0  0
   -3.8580   22.9940  -28.2900 C   0  0  0  0  0  0  0  0  0  0  0  0
   -3.3295   22.3808  -27.5452 H   0  0  0  0  0  0  0  0  0  0  0  0
  1  2  1  0
  2  3  1  0
  3  4  2  0
  3  5  2  0
  3  6  1  0
  6  7  2  0
  7  8  1  0
  7  9  1  0
  9 10  1  0
  9 11  2  0
 11 12  1  0
 12 13  1  0
 12 14  1  0
 14 15  2  0
 14 16  2  0
 14 17  1  0
 17 18  2  0
 18 19  1  0
 18 20  1  0
 20 21  1  0
 20 22  2  0
 22 23  1  0
 23 24  2  0
 24 25  1  0
 24 26  1  0
 26 27  2  0
 27 28  1  0
 27 29  1  0
 29 30  1  0
 29 31  2  0
 31 32  1  0
 31 33  1  0
 33 34  1  0
 34 35  1  0
 35 36  1  0
 35 37  1  0
 35 38  1  0
 33 39  2  0
 39 40  1  0
 22 41  1  0
 41 42  1  0
 41 43  2  0
 43 44  1  0
 11 45  1  0
 45 46  1  0
 45 47  2  0
 47 48  1  0
 47  6  1  0
 43 17  1  0
 39 26  1  0
M  CHG  2   2  -1  40  -1
M  END
>  <UniqueID>  (23) 
23

>  <SMILES>  (23) 
COc1cccc(/C=N/c2ccc(S(=O)(=O)Nc3ccc(S([NH-])(=O)=O)cc3)cc2)c1[O-]

>  <Energy>  (23) 
56.52465636707043

>  <Genealogy>  (23) 
COc1cccc(C=Nc2ccc(S(=O)(=O)Nc3ccc(S([NH-])(=O)=O)cc3)cc2)c1[O-] (protonated)
COc1cccc(/C=N/c2ccc(S(=O)(=O)Nc3ccc(S([NH-])(=O)=O)cc3)cc2)c1[O-] (cis-trans isomerization)
COc1cccc(/C=N/c2ccc(S(=O)(=O)Nc3ccc(S([NH-])(=O)=O)cc3)cc2)c1[O-] (3D coordinates assigned)
COc1cccc(/C=N/c2ccc(S(=O)(=O)Nc3ccc(S([NH-])(=O)=O)cc3)cc2)c1[O-] (optimized conformer: 56.52465636707043 kcal/mol)

>  <smiles>  (23) 
COc1cccc(C=Nc2ccc(S(=O)(=O)Nc3ccc(S(N)(=O)=O)cc3)cc2)c1O

>  <score_type>  (23) 
oracle

>  <origin>  (23) 
adgpu

>  <m_score__min__energy>  (23) 
-11.85

>  <m_primary>  (23) 
energy

$$$$
23:0
     RDKit          3D

 43 46  0  0  0  0  0  0  0  0999 V2000
   -4.2730   11.9060  -32.3500 C   0  0  0  0  0  0  0  0  0  0  0  0
   -4.7990   12.6630  -33.8710 S   0  0  0  0  0  0  0  0  0  0  0  0
   -3.6640   12.6570  -34.8560 O   0  0  0  0  0  0  0  0  0  0  0  0
   -5.9440   11.8820  -34.4510 O   0  0  0  0  0  0  0  0  0  0  0  0
   -5.3070   14.3190  -33.5540 C   0  0  0  0  0  0  0  0  0  0  0  0
   -4.6400   15.0890  -32.5940 C   0  0  0  0  0  0  0  0  0  0  0  0
   -5.0510   16.3980  -32.3310 C   0  0  0  0  0  0  0  0  0  0  0  0
   -6.1400   16.9570  -33.0240 C   0  0  0  0  0  0  0  0  0  0  0  0
   -6.5790   18.3490  -32.7440 C   0  0  0  0  0  0  0  0  0  0  0  0
   -5.9340   19.4460  -33.3720 C   0  0  0  0  0  0  0  0  0  0  0  0
   -6.3550   20.7560  -33.1020 C   0  0  0  0  0  0  0  0  0  0  0  0
   -7.3830   20.9270  -32.2330 N   0  0  0  0  0  0  0  0  0  0  0  0
   -8.0120   22.0230  -31.7740 C   0  0  0  0  0  0  0  0  0  0  0  0
   -7.7400   23.4320  -32.2090 C   0  0  0  0  0  0  0  0  0  0  0  0
   -6.4750   23.9370  -31.5710 C   0  0  0  0  0  0  0  0  0  0  0  0
   -5.2850   23.2000  -31.6870 C   0  0  0  0  0  0  0  0  0  0  0  0
   -4.1130   23.6510  -31.0720 C   0  0  0  0  0  0  0  0  0  0  0  0
   -4.1210   24.8370  -30.3320 C   0  0  0  0  0  0  0  0  0  0  0  0
   -2.9570   25.2830  -29.7210 O   0  0  0  0  0  0  0  0  0  0  0  0
   -5.3040   25.5730  -30.2080 C   0  0  0  0  0  0  0  0  0  0  0  0
   -6.4770   25.1250  -30.8230 C   0  0  0  0  0  0  0  0  0  0  0  0
   -9.0040   21.6790  -30.9210 N   0  0  0  0  0  0  0  0  0  0  0  0
   -9.0020   20.3520  -30.8210 N   0  0  0  0  0  0  0  0  0  0  0  0
   -8.0140   19.9170  -31.6240 C   0  0  0  0  0  0  0  0  0  0  0  0
   -7.6450   18.5940  -31.8490 C   0  0  0  0  0  0  0  0  0  0  0  0
   -6.8100   16.1750  -33.9810 C   0  0  0  0  0  0  0  0  0  0  0  0
   -6.3970   14.8650  -34.2420 C   0  0  0  0  0  0  0  0  0  0  0  0
   -4.6707   12.4783  -31.4989 H   0  0  0  0  0  0  0  0  0  0  0  0
   -4.6491   10.8733  -32.3052 H   0  0  0  0  0  0  0  0  0  0  0  0
   -3.1739   11.8983  -32.3052 H   0  0  0  0  0  0  0  0  0  0  0  0
   -3.7885   14.6615  -32.0443 H   0  0  0  0  0  0  0  0  0  0  0  0
   -4.5191   16.9960  -31.5764 H   0  0  0  0  0  0  0  0  0  0  0  0
   -5.1033   19.2686  -34.0710 H   0  0  0  0  0  0  0  0  0  0  0  0
   -5.8670   21.6183  -33.5798 H   0  0  0  0  0  0  0  0  0  0  0  0
   -7.6314   23.4600  -33.3033 H   0  0  0  0  0  0  0  0  0  0  0  0
   -8.5791   24.0720  -31.8986 H   0  0  0  0  0  0  0  0  0  0  0  0
   -5.2750   22.2637  -32.2643 H   0  0  0  0  0  0  0  0  0  0  0  0
   -3.1832   23.0716  -31.1706 H   0  0  0  0  0  0  0  0  0  0  0  0
   -5.3115   26.5061  -29.6255 H   0  0  0  0  0  0  0  0  0  0  0  0
   -7.4054   25.7059  -30.7203 H   0  0  0  0  0  0  0  0  0  0  0  0
   -8.1662   17.7659  -31.3465 H   0  0  0  0  0  0  0  0  0  0  0  0
   -7.6656   16.5969  -34.5286 H   0  0  0  0  0  0  0  0  0  0  0  0
   -6.9306   14.2611  -34.9908 H   0  0  0  0  0  0  0  0  0  0  0  0
  1  2  1  0
  2  3  2  0
  2  4  2  0
  2  5  1  0
  5  6  2  0
  6  7  1  0
  7  8  2  0
  8  9  1  0
  9 10  1  0
 10 11  2  0
 11 12  1  0
 12 13  1  0
 13 14  1  0
 14 15  1  0
 15 16  2  0
 16 17  1  0
 17 18  2  0
 18 19  1  0
 18 20  1  0
 20 21  2  0
 13 22  2  0
 22 23  1  0
 23 24  2  0
 24 25  1  0
  8 26  1  0
 26 27  2  0
 27  5  1  0
 25  9  2  0
 24 12  1  0
 21 15  1  0
  1 28  1  0
  1 29  1  0
  1 30  1  0
  6 31  1  0
  7 32  1  0
 10 33  1  0
 11 34  1  0
 14 35  1  0
 14 36  1  0
 16 37  1  0
 17 38  1  0
 20 39  1  0
 21 40  1  0
 25 41  1  0
 26 42  1  0
 27 43  1  0
M  CHG  1  19  -1
M  END
>  <UniqueID>  (24) 
24

>  <SMILES>  (24) 
CS(=O)(=O)c1ccc(-c2ccn3c(Cc4ccc([O-])cc4)nnc3c2)cc1

>  <Energy>  (24) 
89.3673677099818

>  <Genealogy>  (24) 
CS(=O)(=O)c1ccc(-c2ccn3c(Cc4ccc([O-])cc4)nnc3c2)cc1 (protonated)
CS(=O)(=O)c1ccc(-c2ccn3c(Cc4ccc([O-])cc4)nnc3c2)cc1 (3D coordinates assigned)
CS(=O)(=O)c1ccc(-c2ccn3c(Cc4ccc([O-])cc4)nnc3c2)cc1 (optimized conformer: 89.3673677099818 kcal/mol)

>  <smiles>  (24) 
CS(=O)(=O)c1ccc(-c2ccn3c(Cc4ccc(O)cc4)nnc3c2)cc1

>  <score_type>  (24) 
oracle

>  <origin>  (24) 
adgpu

>  <m_score__min__energy>  (24) 
-11.970000000000001

>  <m_primary>  (24) 
energy

$$$$
24:0
     RDKit          3D

 50 53  0  0  0  0  0  0  0  0999 V2000
   -1.6010   23.5080  -27.6160 O   0  0  0  0  0  0  0  0  0  0  0  0
   -1.3220   22.8540  -28.9420 S   0  0  0  0  0  0  0  0  0  0  0  0
   -0.2360   23.6140  -29.6520 O   0  0  0  0  0  0  0  0  0  0  0  0
   -2.7750   22.8920  -29.9460 C   0  0  0  0  0  0  0  0  0  0  0  0
   -3.2110   21.7200  -30.5810 C   0  0  0  0  0  0  0  0  0  0  0  0
   -4.3660   21.7230  -31.3790 C   0  0  0  0  0  0  0  0  0  0  0  0
   -4.8160   20.5110  -32.0130 N   0  0  0  0  0  0  0  0  0  0  0  0
   -6.0590   19.9790  -31.9610 C   0  0  0  0  0  0  0  0  0  0  0  0
   -7.1240   20.5310  -31.2570 O   0  0  0  0  0  0  0  0  0  0  0  0
   -6.1090   18.8000  -32.6770 C   0  0  0  0  0  0  0  0  0  0  0  0
   -4.8520   18.5940  -33.1820 C   0  0  0  0  0  0  0  0  0  0  0  0
   -4.0770   19.6600  -32.7620 C   0  0  0  0  0  0  0  0  0  0  0  0
   -2.7330   19.8560  -33.0730 O   0  0  0  0  0  0  0  0  0  0  0  0
   -4.4680   17.4180  -34.0220 C   0  0  0  0  0  0  0  0  0  0  0  0
   -5.6380   16.4800  -34.2440 C   0  0  0  0  0  0  0  0  0  0  0  0
   -6.8770   16.6810  -33.7400 C   0  0  0  0  0  0  0  0  0  0  0  0
   -7.2610   17.8680  -32.8800 C   0  0  0  0  0  0  0  0  0  0  0  0
   -5.0780   22.9210  -31.5470 C   0  0  0  0  0  0  0  0  0  0  0  0
   -4.6380   24.0950  -30.9310 C   0  0  0  0  0  0  0  0  0  0  0  0
   -3.4890   24.0870  -30.1350 C   0  0  0  0  0  0  0  0  0  0  0  0
   -3.0650   25.2700  -29.5410 O   0  0  0  0  0  0  0  0  0  0  0  0
   -0.8170   21.2020  -28.6740 N   0  0  0  0  0  0  0  0  0  0  0  0
   -1.9260   20.4170  -28.0930 C   0  0  0  0  0  0  0  0  0  0  0  0
   -1.4090   19.2290  -27.2430 C   0  0  0  0  0  0  0  0  0  0  0  0
   -0.4240   18.3020  -27.9830 C   0  0  0  0  0  0  0  0  0  0  0  0
    1.0620   18.6890  -27.8250 C   0  0  0  0  0  0  0  0  0  0  0  0
    1.4260   20.1240  -28.2460 C   0  0  0  0  0  0  0  0  0  0  0  0
    0.3940   21.1890  -27.8300 C   0  0  0  0  0  0  0  0  0  0  0  0
   -2.6415   20.7878  -30.4523 H   0  0  0  0  0  0  0  0  0  0  0  0
   -2.2760   19.3100  -33.7930 H   0  0  0  0  0  0  0  0  0  0  0  0
   -4.1105   17.7787  -34.9977 H   0  0  0  0  0  0  0  0  0  0  0  0
   -3.6794   16.8625  -33.4933 H   0  0  0  0  0  0  0  0  0  0  0  0
   -5.4688   15.5797  -34.8530 H   0  0  0  0  0  0  0  0  0  0  0  0
   -7.6540   15.9367  -33.9686 H   0  0  0  0  0  0  0  0  0  0  0  0
   -8.0793   18.4145  -33.3717 H   0  0  0  0  0  0  0  0  0  0  0  0
   -7.5745   17.4908  -31.8954 H   0  0  0  0  0  0  0  0  0  0  0  0
   -5.9867   22.9354  -32.1667 H   0  0  0  0  0  0  0  0  0  0  0  0
   -5.1987   25.0307  -31.0731 H   0  0  0  0  0  0  0  0  0  0  0  0
   -2.5309   21.0759  -27.4527 H   0  0  0  0  0  0  0  0  0  0  0  0
   -2.5253   20.0092  -28.9203 H   0  0  0  0  0  0  0  0  0  0  0  0
   -0.9002   19.6352  -26.3564 H   0  0  0  0  0  0  0  0  0  0  0  0
   -2.2872   18.6174  -26.9885 H   0  0  0  0  0  0  0  0  0  0  0  0
   -0.5561   17.2810  -27.5954 H   0  0  0  0  0  0  0  0  0  0  0  0
   -0.6575   18.3893  -29.0544 H   0  0  0  0  0  0  0  0  0  0  0  0
    1.3318   18.5689  -26.7654 H   0  0  0  0  0  0  0  0  0  0  0  0
    1.6184   18.0267  -28.5046 H   0  0  0  0  0  0  0  0  0  0  0  0
    2.3918   20.3828  -27.7874 H   0  0  0  0  0  0  0  0  0  0  0  0
    1.4587   20.1304  -29.3455 H   0  0  0  0  0  0  0  0  0  0  0  0
    0.0913   20.9923  -26.7909 H   0  0  0  0  0  0  0  0  0  0  0  0
    0.8784   22.1696  -27.9470 H   0  0  0  0  0  0  0  0  0  0  0  0
  1  2  2  0
  2  3  2  0
  2  4  1  0
  4  5  2  0
  5  6  1  0
  6  7  1  0
  7  8  1  0
  8  9  1  0
  8 10  2  0
 10 11  1  0
 11 12  2  0
 12 13  1  0
 11 14  1  0
 14 15  1  0
 15 16  2  0
 16 17  1  0
  6 18  2  0
 18 19  1  0
 19 20  2  0
 20 21  1  0
  2 22  1  0
 22 23  1  0
 23 24  1  0
 24 25  1  0
 25 26  1  0
 26 27  1  0
 27 28  1  0
 20  4  1  0
 28 22  1  0
 12  7  1  0
 17 10  1  0
  5 29  1  0
 13 30  1  0
 14 31  1  0
 14 32  1  0
 15 33  1  0
 16 34  1  0
 17 35  1  0
 17 36  1  0
 18 37  1  0
 19 38  1  0
 23 39  1  0
 23 40  1  0
 24 41  1  0
 24 42  1  0
 25 43  1  0
 25 44  1  0
 26 45  1  0
 26 46  1  0
 27 47  1  0
 27 48  1  0
 28 49  1  0
 28 50  1  0
M  CHG  2   9  -1  21  -1
M  END
>  <UniqueID>  (25) 
25

>  <SMILES>  (25) 
O=S(=O)(c1cc(-n2c([O-])c3c(c2O)CC=CC3)ccc1[O-])N1CCCCCC1

>  <Energy>  (25) 
96.99115211651466

>  <Genealogy>  (25) 
O=S(=O)(c1cc(-n2c([O-])c3c(c2O)CC=CC3)ccc1[O-])N1CCCCCC1 (protonated)
O=S(=O)(c1cc(-n2c([O-])c3c(c2O)CC=CC3)ccc1[O-])N1CCCCCC1 (3D coordinates assigned)
O=S(=O)(c1cc(-n2c([O-])c3c(c2O)CC=CC3)ccc1[O-])N1CCCCCC1 (nonaromatic ring conformer: 96.99115211651466 kcal/mol)

>  <smiles>  (25) 
O=S(=O)(c1cc(-n2c(O)c3c(c2O)CC=CC3)ccc1O)N1CCCCCC1

>  <score_type>  (25) 
oracle

>  <origin>  (25) 
adgpu

>  <m_score__min__energy>  (25) 
-9.5899999999999999

>  <m_primary>  (25) 
energy

$$$$
25:0
     RDKit          3D

 54 56  0  0  0  0  0  0  0  0999 V2000
   -8.4740   18.1650  -32.3470 C   0  0  0  0  0  0  0  0  0  0  0  0
   -7.8430   19.5320  -32.2660 C   0  0  0  0  0  0  0  0  0  0  0  0
   -8.5810   20.5440  -31.6330 C   0  0  0  0  0  0  0  0  0  0  0  0
   -8.0890   21.8410  -31.5480 C   0  0  0  0  0  0  0  0  0  0  0  0
   -6.8520   22.1650  -32.0990 C   0  0  0  0  0  0  0  0  0  0  0  0
   -6.3760   23.5160  -31.9870 N   0  0  0  0  0  0  0  0  0  0  0  0
   -5.2820   23.8980  -31.1400 C   0  0  0  0  0  0  0  0  0  0  0  0
   -5.0580   25.4890  -30.8050 S   0  0  0  0  0  0  0  0  0  0  0  0
   -4.3350   22.9140  -30.6900 N   0  0  0  0  0  0  0  0  0  0  0  0
   -3.3570   23.1780  -29.6320 C   0  0  0  0  0  0  0  0  0  0  0  0
   -2.3160   22.0540  -29.5430 C   0  0  0  0  0  0  0  0  0  0  0  0
   -2.8580   20.7340  -30.1090 C   0  0  0  0  0  0  0  0  0  0  0  0
   -2.6310   20.6670  -31.5690 N   0  0  0  0  0  0  0  0  0  0  0  0
   -1.6990   21.7270  -32.0040 C   0  0  0  0  0  0  0  0  0  0  0  0
   -1.2280   21.4940  -33.4530 C   0  0  0  0  0  0  0  0  0  0  0  0
   -2.0670   20.5660  -34.1100 O   0  0  0  0  0  0  0  0  0  0  0  0
   -1.9420   19.2910  -33.5050 C   0  0  0  0  0  0  0  0  0  0  0  0
   -2.1080   19.3470  -31.9720 C   0  0  0  0  0  0  0  0  0  0  0  0
   -6.0660   21.1620  -32.7030 C   0  0  0  0  0  0  0  0  0  0  0  0
   -4.7810   21.5160  -33.1260 O   0  0  0  0  0  0  0  0  0  0  0  0
   -6.5720   19.8380  -32.8340 C   0  0  0  0  0  0  0  0  0  0  0  0
   -5.6260   18.6030  -33.7260 S   0  0  0  0  0  0  0  0  0  0  0  0
   -6.4880   17.8920  -34.7310 O   0  0  0  0  0  0  0  0  0  0  0  0
   -4.5370   19.2790  -34.5080 O   0  0  0  0  0  0  0  0  0  0  0  0
   -4.8740   17.3540  -32.6740 C   0  0  0  0  0  0  0  0  0  0  0  0
   -5.3820   15.9370  -32.8910 C   0  0  0  0  0  0  0  0  0  0  0  0
   -5.7720   16.7000  -31.6350 C   0  0  0  0  0  0  0  0  0  0  0  0
   -8.6508   17.7820  -31.3311 H   0  0  0  0  0  0  0  0  0  0  0  0
   -9.4312   18.2343  -32.8845 H   0  0  0  0  0  0  0  0  0  0  0  0
   -7.8003   17.4814  -32.8845 H   0  0  0  0  0  0  0  0  0  0  0  0
   -9.5631   20.3072  -31.1978 H   0  0  0  0  0  0  0  0  0  0  0  0
   -8.6813   22.6174  -31.0416 H   0  0  0  0  0  0  0  0  0  0  0  0
   -6.7880   24.2360  -32.6230 H   0  0  0  0  0  0  0  0  0  0  0  0
   -4.3650   21.9650  -31.1270 H   0  0  0  0  0  0  0  0  0  0  0  0
   -2.8430   24.1264  -29.8475 H   0  0  0  0  0  0  0  0  0  0  0  0
   -3.8905   23.2344  -28.6717 H   0  0  0  0  0  0  0  0  0  0  0  0
   -1.4238   22.3479  -30.1153 H   0  0  0  0  0  0  0  0  0  0  0  0
   -2.0693   21.8975  -28.4825 H   0  0  0  0  0  0  0  0  0  0  0  0
   -2.3425   19.8925  -29.6231 H   0  0  0  0  0  0  0  0  0  0  0  0
   -3.9390   20.6790  -29.9132 H   0  0  0  0  0  0  0  0  0  0  0  0
   -2.2089   22.6999  -31.9444 H   0  0  0  0  0  0  0  0  0  0  0  0
   -0.8189   21.7096  -31.3443 H   0  0  0  0  0  0  0  0  0  0  0  0
   -1.2508   22.4494  -33.9977 H   0  0  0  0  0  0  0  0  0  0  0  0
   -0.2050   21.0904  -33.4307 H   0  0  0  0  0  0  0  0  0  0  0  0
   -2.7142   18.6263  -33.9196 H   0  0  0  0  0  0  0  0  0  0  0  0
   -0.9299   18.9168  -33.7187 H   0  0  0  0  0  0  0  0  0  0  0  0
   -2.8112   18.5636  -31.6528 H   0  0  0  0  0  0  0  0  0  0  0  0
   -1.1292   19.1858  -31.4966 H   0  0  0  0  0  0  0  0  0  0  0  0
   -4.0110   20.8700  -33.2150 H   0  0  0  0  0  0  0  0  0  0  0  0
   -3.8893   17.8431  -32.6412 H   0  0  0  0  0  0  0  0  0  0  0  0
   -6.1342   15.7354  -33.6678 H   0  0  0  0  0  0  0  0  0  0  0  0
   -4.9103   14.9645  -33.0952 H   0  0  0  0  0  0  0  0  0  0  0  0
   -6.8063   17.0504  -31.5032 H   0  0  0  0  0  0  0  0  0  0  0  0
   -5.6993   16.5081  -30.5543 H   0  0  0  0  0  0  0  0  0  0  0  0
  1  2  1  0
  2  3  2  0
  3  4  1  0
  4  5  2  0
  5  6  1  0
  6  7  1  0
  7  8  2  0
  7  9  1  0
  9 10  1  0
 10 11  1  0
 11 12  1  0
 12 13  1  0
 13 14  1  0
 14 15  1  0
 15 16  1  0
 16 17  1  0
 17 18  1  0
  5 19  1  0
 19 20  1  0
 19 21  2  0
 21 22  1  0
 22 23  2  0
 22 24  2  0
 22 25  1  0
 25 26  1  0
 26 27  1  0
 21  2  1  0
 27 25  1  0
 18 13  1  0
  1 28  1  0
  1 29  1  0
  1 30  1  0
  3 31  1  0
  4 32  1  0
  6 33  1  0
  9 34  1  0
 10 35  1  0
 10 36  1  0
 11 37  1  0
 11 38  1  0
 12 39  1  0
 12 40  1  0
 14 41  1  0
 14 42  1  0
 15 43  1  0
 15 44  1  0
 17 45  1  0
 17 46  1  0
 18 47  1  0
 18 48  1  0
 20 49  1  0
 25 50  1  0
 26 51  1  0
 26 52  1  0
 27 53  1  0
 27 54  1  0
M  END
>  <UniqueID>  (26) 
26

>  <SMILES>  (26) 
Cc1ccc(NC(=S)NCCCN2CCOCC2)c(O)c1S(=O)(=O)C1CC1

>  <Energy>  (26) 
331.5624038459838

>  <Genealogy>  (26) 
Cc1ccc(NC(=S)NCCCN2CCOCC2)c(O)c1S(=O)(=O)C1CC1 (3D coordinates assigned)
Cc1ccc(NC(=S)NCCCN2CCOCC2)c(O)c1S(=O)(=O)C1CC1 (nonaromatic ring conformer: 331.5624038459838 kcal/mol)

>  <smiles>  (26) 
Cc1ccc(NC(=S)NCCCN2CCOCC2)c(O)c1S(=O)(=O)C1CC1

>  <score_type>  (26) 
oracle

>  <origin>  (26) 
adgpu

>  <m_score__min__energy>  (26) 
-9

>  <m_primary>  (26) 
energy

$$$$
26:0
     RDKit          3D

 60 64  0  0  0  0  0  0  0  0999 V2000
    0.2710   20.7610  -32.1950 C   0  0  0  0  0  0  0  0  0  0  0  0
    0.2670   20.0490  -33.4820 N   0  0  0  0  0  0  0  0  0  0  0  0
   -0.1050   18.7300  -33.5250 C   0  0  0  0  0  0  0  0  0  0  0  0
   -0.1430   18.0310  -34.7430 C   0  0  0  0  0  0  0  0  0  0  0  0
   -0.6720   16.6210  -34.7970 C   0  0  0  0  0  0  0  0  0  0  0  0
   -2.1780   16.6650  -34.7990 C   0  0  0  0  0  0  0  0  0  0  0  0
   -2.8310   17.8750  -34.5470 C   0  0  0  0  0  0  0  0  0  0  0  0
   -4.1770   17.9140  -34.3090 N   0  0  0  0  0  0  0  0  0  0  0  0
   -4.8160   19.2210  -34.0860 C   0  0  0  0  0  0  0  0  0  0  0  0
   -4.1180   20.0080  -33.0030 C   0  0  0  0  0  0  0  0  0  0  0  0
   -3.2030   19.3730  -32.1480 C   0  0  0  0  0  0  0  0  0  0  0  0
   -2.6220   20.0700  -31.0840 C   0  0  0  0  0  0  0  0  0  0  0  0
   -2.9420   21.4180  -30.8650 C   0  0  0  0  0  0  0  0  0  0  0  0
   -2.3530   22.1320  -29.8090 C   0  0  0  0  0  0  0  0  0  0  0  0
   -2.6640   23.4820  -29.6150 C   0  0  0  0  0  0  0  0  0  0  0  0
   -3.5610   24.1290  -30.4710 C   0  0  0  0  0  0  0  0  0  0  0  0
   -3.8600   25.4720  -30.2770 O   0  0  0  0  0  0  0  0  0  0  0  0
   -4.1570   23.4250  -31.5240 C   0  0  0  0  0  0  0  0  0  0  0  0
   -3.8540   22.0710  -31.7290 C   0  0  0  0  0  0  0  0  0  0  0  0
   -4.4400   21.3590  -32.7860 C   0  0  0  0  0  0  0  0  0  0  0  0
   -4.8970   16.7440  -34.3200 C   0  0  0  0  0  0  0  0  0  0  0  0
   -6.6310   16.6910  -33.8340 S   0  0  0  0  0  0  0  0  0  0  0  0
   -6.4060   17.5470  -32.2290 C   0  0  0  0  0  0  0  0  0  0  0  0
   -7.2880   18.7590  -32.0790 C   0  0  0  0  0  0  0  0  0  0  0  0
   -8.6120   18.7330  -32.5450 C   0  0  0  0  0  0  0  0  0  0  0  0
   -9.4600   19.8240  -32.3250 C   0  0  0  0  0  0  0  0  0  0  0  0
   -8.9850   20.9580  -31.6610 C   0  0  0  0  0  0  0  0  0  0  0  0
   -9.8070   22.0150  -31.4520 F   0  0  0  0  0  0  0  0  0  0  0  0
   -7.6610   21.0020  -31.2150 C   0  0  0  0  0  0  0  0  0  0  0  0
   -6.8180   19.9060  -31.4130 C   0  0  0  0  0  0  0  0  0  0  0  0
   -4.2910   15.5750  -34.6560 N   0  0  0  0  0  0  0  0  0  0  0  0
   -2.9570   15.5050  -34.8870 C   0  0  0  0  0  0  0  0  0  0  0  0
   -2.4330   14.3910  -35.1490 O   0  0  0  0  0  0  0  0  0  0  0  0
    0.1910   18.7100  -35.9200 C   0  0  0  0  0  0  0  0  0  0  0  0
    0.5670   20.0510  -35.8670 C   0  0  0  0  0  0  0  0  0  0  0  0
    0.6010   20.7140  -34.6350 C   0  0  0  0  0  0  0  0  0  0  0  0
    0.9330   21.9320  -34.6000 O   0  0  0  0  0  0  0  0  0  0  0  0
    0.2669   20.0310  -31.3721 H   0  0  0  0  0  0  0  0  0  0  0  0
    1.1727   21.3872  -32.1252 H   0  0  0  0  0  0  0  0  0  0  0  0
   -0.6236   21.3973  -32.1252 H   0  0  0  0  0  0  0  0  0  0  0  0
   -0.3773   18.2123  -32.5934 H   0  0  0  0  0  0  0  0  0  0  0  0
   -0.3157   16.1277  -35.7134 H   0  0  0  0  0  0  0  0  0  0  0  0
   -0.3166   16.0557  -33.9229 H   0  0  0  0  0  0  0  0  0  0  0  0
   -2.2528   18.8108  -34.5400 H   0  0  0  0  0  0  0  0  0  0  0  0
   -4.7839   19.7976  -35.0222 H   0  0  0  0  0  0  0  0  0  0  0  0
   -5.8536   19.0446  -33.7662 H   0  0  0  0  0  0  0  0  0  0  0  0
   -2.9409   18.3181  -32.3166 H   0  0  0  0  0  0  0  0  0  0  0  0
   -1.9119   19.5596  -30.4168 H   0  0  0  0  0  0  0  0  0  0  0  0
   -1.6458   21.6289  -29.1332 H   0  0  0  0  0  0  0  0  0  0  0  0
   -2.2011   24.0370  -28.7857 H   0  0  0  0  0  0  0  0  0  0  0  0
   -4.8654   23.9355  -32.1930 H   0  0  0  0  0  0  0  0  0  0  0  0
   -5.1576   21.8621  -33.4507 H   0  0  0  0  0  0  0  0  0  0  0  0
   -6.6406   16.8405  -31.4191 H   0  0  0  0  0  0  0  0  0  0  0  0
   -5.3625   17.8921  -32.1838 H   0  0  0  0  0  0  0  0  0  0  0  0
   -8.9846   17.8505  -33.0858 H   0  0  0  0  0  0  0  0  0  0  0  0
  -10.5021   19.7889  -32.6753 H   0  0  0  0  0  0  0  0  0  0  0  0
   -7.2823   21.9013  -30.7072 H   0  0  0  0  0  0  0  0  0  0  0  0
   -5.7814   19.9397  -31.0464 H   0  0  0  0  0  0  0  0  0  0  0  0
    0.1568   18.1858  -36.8864 H   0  0  0  0  0  0  0  0  0  0  0  0
    0.8359   20.5861  -36.7897 H   0  0  0  0  0  0  0  0  0  0  0  0
  1  2  1  0
  2  3  1  0
  3  4  2  0
  4  5  1  0
  5  6  1  0
  6  7  2  0
  7  8  1  0
  8  9  1  0
  9 10  1  0
 10 11  2  0
 11 12  1  0
 12 13  2  0
 13 14  1  0
 14 15  2  0
 15 16  1  0
 16 17  1  0
 16 18  2  0
 18 19  1  0
 19 20  2  0
  8 21  1  0
 21 22  1  0
 22 23  1  0
 23 24  1  0
 24 25  2  0
 25 26  1  0
 26 27  2  0
 27 28  1  0
 27 29  1  0
 29 30  2  0
 21 31  2  0
 31 32  1  0
 32 33  2  0
  4 34  1  0
 34 35  2  0
 35 36  1  0
 36 37  2  0
 36  2  1  0
 32  6  1  0
 20 10  1  0
 30 24  1  0
 19 13  1  0
  1 38  1  0
  1 39  1  0
  1 40  1  0
  3 41  1  0
  5 42  1  0
  5 43  1  0
  7 44  1  0
  9 45  1  0
  9 46  1  0
 11 47  1  0
 12 48  1  0
 14 49  1  0
 15 50  1  0
 18 51  1  0
 20 52  1  0
 23 53  1  0
 23 54  1  0
 25 55  1  0
 26 56  1  0
 29 57  1  0
 30 58  1  0
 34 59  1  0
 35 60  1  0
M  CHG  1  17  -1
M  END
>  <UniqueID>  (27) 
27

>  <SMILES>  (27) 
Cn1cc(Cc2cn(Cc3ccc4ccc([O-])cc4c3)c(SCc3ccc(F)cc3)nc2=O)ccc1=O

>  <Energy>  (27) 
63.48745208723382

>  <Genealogy>  (27) 
Cn1cc(Cc2cn(Cc3ccc4ccc([O-])cc4c3)c(SCc3ccc(F)cc3)nc2=O)ccc1=O (protonated)
Cn1cc(Cc2cn(Cc3ccc4ccc([O-])cc4c3)c(SCc3ccc(F)cc3)nc2=O)ccc1=O (3D coordinates assigned)
Cn1cc(Cc2cn(Cc3ccc4ccc([O-])cc4c3)c(SCc3ccc(F)cc3)nc2=O)ccc1=O (optimized conformer: 63.48745208723382 kcal/mol)

>  <smiles>  (27) 
Cn1cc(Cc2cn(Cc3ccc4ccc(O)cc4c3)c(SCc3ccc(F)cc3)nc2=O)ccc1=O

>  <score_type>  (27) 
oracle

>  <origin>  (27) 
adgpu

>  <m_score__min__energy>  (27) 
-12.17

>  <m_primary>  (27) 
energy

$$$$
27:0
     RDKit          3D

 60 63  0  0  0  0  0  0  0  0999 V2000
   -1.6360   21.5660  -26.8420 C   0  0  0  0  0  0  0  0  0  0  0  0
   -2.1480   22.5840  -27.8240 C   0  0  0  0  0  0  0  0  0  0  0  0
   -3.2520   22.2390  -28.6190 C   0  0  0  0  0  0  0  0  0  0  0  0
   -3.7750   23.1380  -29.5440 C   0  0  0  0  0  0  0  0  0  0  0  0
   -3.2080   24.4010  -29.7080 C   0  0  0  0  0  0  0  0  0  0  0  0
   -3.8340   25.2970  -30.6380 N   0  0  0  0  0  0  0  0  0  0  0  0
   -5.2350   25.5620  -30.7940 C   0  0  0  0  0  0  0  0  0  0  0  0
   -5.8100   26.4230  -30.0750 O   0  0  0  0  0  0  0  0  0  0  0  0
   -5.9790   24.9000  -31.8240 N   0  0  0  0  0  0  0  0  0  0  0  0
   -6.3800   23.5260  -31.7530 C   0  0  0  0  0  0  0  0  0  0  0  0
   -7.6970   23.2070  -31.3990 C   0  0  0  0  0  0  0  0  0  0  0  0
   -8.1010   21.8720  -31.3300 C   0  0  0  0  0  0  0  0  0  0  0  0
   -7.2000   20.8490  -31.6390 C   0  0  0  0  0  0  0  0  0  0  0  0
   -5.8880   21.1580  -32.0220 C   0  0  0  0  0  0  0  0  0  0  0  0
   -4.7690   19.8730  -32.4620 S   0  0  0  0  0  0  0  0  0  0  0  0
   -4.2340   20.1300  -33.8440 O   0  0  0  0  0  0  0  0  0  0  0  0
   -3.6090   19.8610  -31.5020 O   0  0  0  0  0  0  0  0  0  0  0  0
   -5.6110   18.3450  -32.4350 N   0  0  0  0  0  0  0  0  0  0  0  0
   -4.7170   17.2360  -32.7670 C   0  0  0  0  0  0  0  0  0  0  0  0
   -5.5920   16.1380  -33.3500 C   0  0  0  0  0  0  0  0  0  0  0  0
   -6.8700   16.8360  -33.7900 C   0  0  0  0  0  0  0  0  0  0  0  0
   -6.6670   18.3030  -33.4440 C   0  0  0  0  0  0  0  0  0  0  0  0
   -5.4820   22.4970  -32.0850 C   0  0  0  0  0  0  0  0  0  0  0  0
   -2.1230   24.7830  -28.8930 C   0  0  0  0  0  0  0  0  0  0  0  0
   -1.6140   26.0780  -28.9720 O   0  0  0  0  0  0  0  0  0  0  0  0
   -1.5630   23.8730  -27.9690 C   0  0  0  0  0  0  0  0  0  0  0  0
   -0.1500   24.4230  -27.0300 S   0  0  0  0  0  0  0  0  0  0  0  0
    0.8640   24.9630  -27.9990 O   0  0  0  0  0  0  0  0  0  0  0  0
    0.4960   23.3250  -26.2350 O   0  0  0  0  0  0  0  0  0  0  0  0
   -0.6550   25.6970  -25.9480 N   0  0  0  0  0  0  0  0  0  0  0  0
   -0.3490   25.3300  -24.5510 C   0  0  0  0  0  0  0  0  0  0  0  0
   -0.3620   26.5710  -23.6350 C   0  0  0  0  0  0  0  0  0  0  0  0
   -1.1380   27.6030  -24.2100 O   0  0  0  0  0  0  0  0  0  0  0  0
   -0.5220   28.0890  -25.3920 C   0  0  0  0  0  0  0  0  0  0  0  0
    0.0050   26.9600  -26.3050 C   0  0  0  0  0  0  0  0  0  0  0  0
   -1.8154   21.9227  -25.8170 H   0  0  0  0  0  0  0  0  0  0  0  0
   -2.1615   20.6119  -26.9954 H   0  0  0  0  0  0  0  0  0  0  0  0
   -0.5567   21.4190  -26.9954 H   0  0  0  0  0  0  0  0  0  0  0  0
   -3.7100   21.2449  -28.5096 H   0  0  0  0  0  0  0  0  0  0  0  0
   -4.6449   22.8489  -30.1520 H   0  0  0  0  0  0  0  0  0  0  0  0
   -8.4148   24.0098  -31.1748 H   0  0  0  0  0  0  0  0  0  0  0  0
   -9.1306   21.6249  -31.0318 H   0  0  0  0  0  0  0  0  0  0  0  0
   -7.5217   19.7987  -31.5814 H   0  0  0  0  0  0  0  0  0  0  0  0
   -3.9689   17.5588  -33.5060 H   0  0  0  0  0  0  0  0  0  0  0  0
   -4.1734   16.8827  -31.8784 H   0  0  0  0  0  0  0  0  0  0  0  0
   -5.0953   15.6651  -34.2100 H   0  0  0  0  0  0  0  0  0  0  0  0
   -5.7906   15.3399  -32.6195 H   0  0  0  0  0  0  0  0  0  0  0  0
   -7.0228   16.7132  -34.8724 H   0  0  0  0  0  0  0  0  0  0  0  0
   -7.7575   16.4170  -33.2932 H   0  0  0  0  0  0  0  0  0  0  0  0
   -6.3618   18.8663  -34.3382 H   0  0  0  0  0  0  0  0  0  0  0  0
   -7.5960   18.7572  -33.0690 H   0  0  0  0  0  0  0  0  0  0  0  0
   -4.4561   22.7443  -32.3956 H   0  0  0  0  0  0  0  0  0  0  0  0
   -1.1029   24.6126  -24.1947 H   0  0  0  0  0  0  0  0  0  0  0  0
    0.6556   24.8830  -24.5193 H   0  0  0  0  0  0  0  0  0  0  0  0
   -0.7904   26.2965  -22.6598 H   0  0  0  0  0  0  0  0  0  0  0  0
    0.6699   26.9304  -23.5085 H   0  0  0  0  0  0  0  0  0  0  0  0
   -1.2600   28.6794  -25.9548 H   0  0  0  0  0  0  0  0  0  0  0  0
    0.3427   28.6966  -25.0869 H   0  0  0  0  0  0  0  0  0  0  0  0
   -0.2137   27.2046  -27.3549 H   0  0  0  0  0  0  0  0  0  0  0  0
    1.0922   26.8572  -26.1727 H   0  0  0  0  0  0  0  0  0  0  0  0
  1  2  1  0
  2  3  2  0
  3  4  1  0
  4  5  2  0
  5  6  1  0
  6  7  1  0
  7  8  2  0
  7  9  1  0
  9 10  1  0
 10 11  2  0
 11 12  1  0
 12 13  2  0
 13 14  1  0
 14 15  1  0
 15 16  2  0
 15 17  2  0
 15 18  1  0
 18 19  1  0
 19 20  1  0
 20 21  1  0
 21 22  1  0
 14 23  2  0
  5 24  1  0
 24 25  1  0
 24 26  2  0
 26 27  1  0
 27 28  2  0
 27 29  2  0
 27 30  1  0
 30 31  1  0
 31 32  1  0
 32 33  1  0
 33 34  1  0
 34 35  1  0
 26  2  1  0
 35 30  1  0
 23 10  1  0
 22 18  1  0
  1 36  1  0
  1 37  1  0
  1 38  1  0
  3 39  1  0
  4 40  1  0
 11 41  1  0
 12 42  1  0
 13 43  1  0
 19 44  1  0
 19 45  1  0
 20 46  1  0
 20 47  1  0
 21 48  1  0
 21 49  1  0
 22 50  1  0
 22 51  1  0
 23 52  1  0
 31 53  1  0
 31 54  1  0
 32 55  1  0
 32 56  1  0
 34 57  1  0
 34 58  1  0
 35 59  1  0
 35 60  1  0
M  CHG  3   6  -1   9  -1  25  -1
M  END
>  <UniqueID>  (28) 
28

>  <SMILES>  (28) 
Cc1ccc([N-]C(=O)[N-]c2cccc(S(=O)(=O)N3CCCC3)c2)c([O-])c1S(=O)(=O)N1CCOCC1

>  <Energy>  (28) 
84.50589894176531

>  <Genealogy>  (28) 
Cc1ccc([N-]C(=O)[N-]c2cccc(S(=O)(=O)N3CCCC3)c2)c([O-])c1S(=O)(=O)N1CCOCC1 (protonated)
Cc1ccc([N-]C(=O)[N-]c2cccc(S(=O)(=O)N3CCCC3)c2)c([O-])c1S(=O)(=O)N1CCOCC1 (3D coordinates assigned)
Cc1ccc([N-]C(=O)[N-]c2cccc(S(=O)(=O)N3CCCC3)c2)c([O-])c1S(=O)(=O)N1CCOCC1 (nonaromatic ring conformer: 84.50589894176531 kcal/mol)

>  <smiles>  (28) 
Cc1ccc(NC(=O)Nc2cccc(S(=O)(=O)N3CCCC3)c2)c(O)c1S(=O)(=O)N1CCOCC1

>  <score_type>  (28) 
oracle

>  <origin>  (28) 
adgpu

>  <m_score__min__energy>  (28) 
-17

>  <m_primary>  (28) 
energy

$$$$
28:0
     RDKit          3D

 58 61  0  0  0  0  0  0  0  0999 V2000
    0.5600   21.1660  -33.8860 C   0  0  0  0  0  0  0  0  0  0  0  0
   -0.6090   21.0100  -32.9600 C   0  0  0  0  0  0  0  0  0  0  0  0
   -1.9120   21.2550  -33.4150 C   0  0  0  0  0  0  0  0  0  0  0  0
   -3.0020   21.0680  -32.5630 C   0  0  0  0  0  0  0  0  0  0  0  0
   -2.8080   20.6250  -31.2500 C   0  0  0  0  0  0  0  0  0  0  0  0
   -3.9270   20.3990  -30.4470 O   0  0  0  0  0  0  0  0  0  0  0  0
   -1.4990   20.3930  -30.7790 C   0  0  0  0  0  0  0  0  0  0  0  0
   -1.2510   19.9740  -29.4370 N   0  0  0  0  0  0  0  0  0  0  0  0
   -1.9820   20.7580  -28.0760 S   0  0  0  0  0  0  0  0  0  0  0  0
   -1.2300   20.3740  -26.8320 O   0  0  0  0  0  0  0  0  0  0  0  0
   -3.4140   20.3240  -27.9300 O   0  0  0  0  0  0  0  0  0  0  0  0
   -1.9320   22.4990  -28.3230 C   0  0  0  0  0  0  0  0  0  0  0  0
   -1.0720   23.2820  -27.5420 C   0  0  0  0  0  0  0  0  0  0  0  0
   -1.0320   24.6670  -27.7170 C   0  0  0  0  0  0  0  0  0  0  0  0
   -1.8410   25.2770  -28.6790 C   0  0  0  0  0  0  0  0  0  0  0  0
   -2.6880   24.4980  -29.4880 C   0  0  0  0  0  0  0  0  0  0  0  0
   -3.5530   25.0850  -30.4720 N   0  0  0  0  0  0  0  0  0  0  0  0
   -4.9870   25.0890  -30.4580 C   0  0  0  0  0  0  0  0  0  0  0  0
   -5.6140   26.1420  -30.1620 O   0  0  0  0  0  0  0  0  0  0  0  0
   -5.7350   23.8690  -30.8450 C   0  0  0  0  0  0  0  0  0  0  0  0
   -5.4030   23.1660  -32.0180 C   0  0  0  0  0  0  0  0  0  0  0  0
   -6.1110   22.0170  -32.3800 C   0  0  0  0  0  0  0  0  0  0  0  0
   -7.1660   21.5550  -31.5830 C   0  0  0  0  0  0  0  0  0  0  0  0
   -8.0580   20.0990  -32.0430 S   0  0  0  0  0  0  0  0  0  0  0  0
   -8.7430   19.5400  -30.8270 O   0  0  0  0  0  0  0  0  0  0  0  0
   -9.1180   20.4700  -33.0430 O   0  0  0  0  0  0  0  0  0  0  0  0
   -7.0330   18.8650  -32.7350 N   0  0  0  0  0  0  0  0  0  0  0  0
   -6.3790   19.3160  -33.9630 C   0  0  0  0  0  0  0  0  0  0  0  0
   -5.1070   18.4920  -34.1000 C   0  0  0  0  0  0  0  0  0  0  0  0
   -4.8360   17.9340  -32.7110 C   0  0  0  0  0  0  0  0  0  0  0  0
   -5.9480   18.4830  -31.8330 C   0  0  0  0  0  0  0  0  0  0  0  0
   -7.4950   22.2430  -30.4080 C   0  0  0  0  0  0  0  0  0  0  0  0
   -6.7880   23.3930  -30.0430 C   0  0  0  0  0  0  0  0  0  0  0  0
   -2.7410   23.1120  -29.2900 C   0  0  0  0  0  0  0  0  0  0  0  0
   -0.4120   20.5590  -31.6450 C   0  0  0  0  0  0  0  0  0  0  0  0
    1.4807   21.2889  -33.2967 H   0  0  0  0  0  0  0  0  0  0  0  0
    0.6472   20.2715  -34.5203 H   0  0  0  0  0  0  0  0  0  0  0  0
    0.4096   22.0520  -34.5203 H   0  0  0  0  0  0  0  0  0  0  0  0
   -2.0764   21.5961  -34.4478 H   0  0  0  0  0  0  0  0  0  0  0  0
   -4.0203   21.2703  -32.9264 H   0  0  0  0  0  0  0  0  0  0  0  0
   -3.8550   20.0970  -29.4850 H   0  0  0  0  0  0  0  0  0  0  0  0
   -0.4270   22.8050  -26.7894 H   0  0  0  0  0  0  0  0  0  0  0  0
   -0.3618   25.2793  -27.0958 H   0  0  0  0  0  0  0  0  0  0  0  0
   -1.8155   26.3696  -28.8041 H   0  0  0  0  0  0  0  0  0  0  0  0
   -4.5802   23.5236  -32.6545 H   0  0  0  0  0  0  0  0  0  0  0  0
   -5.8383   21.4723  -33.2960 H   0  0  0  0  0  0  0  0  0  0  0  0
   -7.0367   19.1471  -34.8284 H   0  0  0  0  0  0  0  0  0  0  0  0
   -6.1546   20.3921  -33.9232 H   0  0  0  0  0  0  0  0  0  0  0  0
   -5.2537   17.6746  -34.8213 H   0  0  0  0  0  0  0  0  0  0  0  0
   -4.2656   19.0966  -34.4695 H   0  0  0  0  0  0  0  0  0  0  0  0
   -4.8641   16.8345  -32.7255 H   0  0  0  0  0  0  0  0  0  0  0  0
   -3.8413   18.2226  -32.3405 H   0  0  0  0  0  0  0  0  0  0  0  0
   -6.2924   17.7119  -31.1281 H   0  0  0  0  0  0  0  0  0  0  0  0
   -5.6012   19.3415  -31.2391 H   0  0  0  0  0  0  0  0  0  0  0  0
   -8.3128   21.8772  -29.7698 H   0  0  0  0  0  0  0  0  0  0  0  0
   -7.0575   23.9296  -29.1214 H   0  0  0  0  0  0  0  0  0  0  0  0
   -3.4230   22.4998  -29.8983 H   0  0  0  0  0  0  0  0  0  0  0  0
    0.6054   20.3342  -31.2923 H   0  0  0  0  0  0  0  0  0  0  0  0
  1  2  1  0
  2  3  2  0
  3  4  1  0
  4  5  2  0
  5  6  1  0
  5  7  1  0
  7  8  1  0
  8  9  1  0
  9 10  2  0
  9 11  2  0
  9 12  1  0
 12 13  2  0
 13 14  1  0
 14 15  2  0
 15 16  1  0
 16 17  1  0
 17 18  1  0
 18 19  2  0
 18 20  1  0
 20 21  2  0
 21 22  1  0
 22 23  2  0
 23 24  1  0
 24 25  2  0
 24 26  2  0
 24 27  1  0
 27 28  1  0
 28 29  1  0
 29 30  1  0
 30 31  1  0
 23 32  1  0
 32 33  2  0
 16 34  2  0
  7 35  2  0
 35  2  1  0
 34 12  1  0
 33 20  1  0
 31 27  1  0
  1 36  1  0
  1 37  1  0
  1 38  1  0
  3 39  1  0
  4 40  1  0
  6 41  1  0
 13 42  1  0
 14 43  1  0
 15 44  1  0
 21 45  1  0
 22 46  1  0
 28 47  1  0
 28 48  1  0
 29 49  1  0
 29 50  1  0
 30 51  1  0
 30 52  1  0
 31 53  1  0
 31 54  1  0
 32 55  1  0
 33 56  1  0
 34 57  1  0
 35 58  1  0
M  CHG  2   8  -1  17  -1
M  END
>  <UniqueID>  (29) 
29

>  <SMILES>  (29) 
Cc1ccc(O)c([N-]S(=O)(=O)c2cccc([N-]C(=O)c3ccc(S(=O)(=O)N4CCCC4)cc3)c2)c1

>  <Energy>  (29) 
76.13014922123276

>  <Genealogy>  (29) 
Cc1ccc(O)c([N-]S(=O)(=O)c2cccc([N-]C(=O)c3ccc(S(=O)(=O)N4CCCC4)cc3)c2)c1 (protonated)
Cc1ccc(O)c([N-]S(=O)(=O)c2cccc([N-]C(=O)c3ccc(S(=O)(=O)N4CCCC4)cc3)c2)c1 (3D coordinates assigned)
Cc1ccc(O)c([N-]S(=O)(=O)c2cccc([N-]C(=O)c3ccc(S(=O)(=O)N4CCCC4)cc3)c2)c1 (nonaromatic ring conformer: 76.13014922123276 kcal/mol)

>  <smiles>  (29) 
Cc1ccc(O)c(NS(=O)(=O)c2cccc(NC(=O)c3ccc(S(=O)(=O)N4CCCC4)cc3)c2)c1

>  <score_type>  (29) 
oracle

>  <origin>  (29) 
adgpu

>  <m_score__min__energy>  (29) 
-12.27

>  <m_primary>  (29) 
energy

$$$$
29:0
     RDKit          3D

 58 61  0  0  0  0  0  0  0  0999 V2000
   -4.5280   13.2050  -33.6820 C   0  0  0  0  0  0  0  0  0  0  0  0
   -4.3110   14.5990  -32.5910 S   0  0  0  0  0  0  0  0  0  0  0  0
   -2.8360   14.7750  -32.3620 O   0  0  0  0  0  0  0  0  0  0  0  0
   -4.9830   14.3000  -31.2800 O   0  0  0  0  0  0  0  0  0  0  0  0
   -4.9980   16.0830  -33.2700 C   0  0  0  0  0  0  0  0  0  0  0  0
   -6.3300   16.4280  -32.9820 C   0  0  0  0  0  0  0  0  0  0  0  0
   -6.8800   17.6090  -33.4850 C   0  0  0  0  0  0  0  0  0  0  0  0
   -6.1030   18.4670  -34.2620 C   0  0  0  0  0  0  0  0  0  0  0  0
   -4.7750   18.1450  -34.5440 C   0  0  0  0  0  0  0  0  0  0  0  0
   -4.2160   16.9420  -34.0730 C   0  0  0  0  0  0  0  0  0  0  0  0
   -2.8480   16.6050  -34.3600 N   0  0  0  0  0  0  0  0  0  0  0  0
   -1.7300   17.5040  -34.4260 C   0  0  0  0  0  0  0  0  0  0  0  0
   -0.7660   17.2050  -35.1800 O   0  0  0  0  0  0  0  0  0  0  0  0
   -1.6940   18.7860  -33.6800 C   0  0  0  0  0  0  0  0  0  0  0  0
   -2.0560   19.9840  -34.3180 C   0  0  0  0  0  0  0  0  0  0  0  0
   -1.9790   21.2000  -33.6330 C   0  0  0  0  0  0  0  0  0  0  0  0
   -1.5500   21.2340  -32.3040 C   0  0  0  0  0  0  0  0  0  0  0  0
   -1.2240   20.0390  -31.6370 C   0  0  0  0  0  0  0  0  0  0  0  0
   -0.7280   20.0070  -30.2920 N   0  0  0  0  0  0  0  0  0  0  0  0
   -1.2620   20.6220  -29.1100 C   0  0  0  0  0  0  0  0  0  0  0  0
   -1.6270   19.9140  -28.1330 O   0  0  0  0  0  0  0  0  0  0  0  0
   -1.3330   22.1060  -29.0380 C   0  0  0  0  0  0  0  0  0  0  0  0
   -2.3630   22.7770  -29.7230 C   0  0  0  0  0  0  0  0  0  0  0  0
   -2.4500   24.1780  -29.7190 C   0  0  0  0  0  0  0  0  0  0  0  0
   -3.4670   24.8740  -30.4570 N   0  0  0  0  0  0  0  0  0  0  0  0
   -5.1740   24.7420  -30.1670 S   0  0  0  0  0  0  0  0  0  0  0  0
   -5.8520   26.0010  -30.6320 O   0  0  0  0  0  0  0  0  0  0  0  0
   -5.4240   24.5810  -28.6930 O   0  0  0  0  0  0  0  0  0  0  0  0
   -5.8290   23.3780  -31.0730 C   0  0  0  0  0  0  0  0  0  0  0  0
   -4.9600   22.5450  -31.7900 C   0  0  0  0  0  0  0  0  0  0  0  0
   -5.4600   21.4370  -32.4820 C   0  0  0  0  0  0  0  0  0  0  0  0
   -6.8280   21.1540  -32.4540 C   0  0  0  0  0  0  0  0  0  0  0  0
   -7.6970   21.9780  -31.7350 C   0  0  0  0  0  0  0  0  0  0  0  0
   -7.2020   23.0930  -31.0530 C   0  0  0  0  0  0  0  0  0  0  0  0
   -1.5140   24.9180  -28.9860 C   0  0  0  0  0  0  0  0  0  0  0  0
   -1.5830   26.3060  -28.9620 O   0  0  0  0  0  0  0  0  0  0  0  0
   -0.4980   24.2660  -28.2820 C   0  0  0  0  0  0  0  0  0  0  0  0
   -0.3960   22.8710  -28.3090 C   0  0  0  0  0  0  0  0  0  0  0  0
    0.6410   22.2630  -27.6080 O   0  0  0  0  0  0  0  0  0  0  0  0
   -1.3070   18.8250  -32.3300 C   0  0  0  0  0  0  0  0  0  0  0  0
   -4.6702   12.2915  -33.0859 H   0  0  0  0  0  0  0  0  0  0  0  0
   -5.4113   13.3700  -34.3165 H   0  0  0  0  0  0  0  0  0  0  0  0
   -3.6364   13.0937  -34.3165 H   0  0  0  0  0  0  0  0  0  0  0  0
   -6.9433   15.7631  -32.3561 H   0  0  0  0  0  0  0  0  0  0  0  0
   -7.9281   17.8627  -33.2678 H   0  0  0  0  0  0  0  0  0  0  0  0
   -6.5374   19.3988  -34.6532 H   0  0  0  0  0  0  0  0  0  0  0  0
   -4.1602   18.8365  -35.1389 H   0  0  0  0  0  0  0  0  0  0  0  0
   -2.4018   19.9651  -35.3620 H   0  0  0  0  0  0  0  0  0  0  0  0
   -2.2574   22.1342  -34.1426 H   0  0  0  0  0  0  0  0  0  0  0  0
   -1.4670   22.1966  -31.7782 H   0  0  0  0  0  0  0  0  0  0  0  0
   -3.1150   22.1919  -30.2726 H   0  0  0  0  0  0  0  0  0  0  0  0
   -3.8820   22.7629  -31.8088 H   0  0  0  0  0  0  0  0  0  0  0  0
   -4.7759   20.7881  -33.0485 H   0  0  0  0  0  0  0  0  0  0  0  0
   -7.2206   20.2824  -32.9981 H   0  0  0  0  0  0  0  0  0  0  0  0
   -8.7725   21.7490  -31.7055 H   0  0  0  0  0  0  0  0  0  0  0  0
   -7.8907   23.7483  -30.4995 H   0  0  0  0  0  0  0  0  0  0  0  0
    0.2277   24.8547  -27.7017 H   0  0  0  0  0  0  0  0  0  0  0  0
   -1.0653   17.8868  -31.8090 H   0  0  0  0  0  0  0  0  0  0  0  0
  1  2  1  0
  2  3  2  0
  2  4  2  0
  2  5  1  0
  5  6  2  0
  6  7  1  0
  7  8  2  0
  8  9  1  0
  9 10  2  0
 10 11  1  0
 11 12  1  0
 12 13  2  0
 12 14  1  0
 14 15  2  0
 15 16  1  0
 16 17  2  0
 17 18  1  0
 18 19  1  0
 19 20  1  0
 20 21  2  0
 20 22  1  0
 22 23  2  0
 23 24  1  0
 24 25  1  0
 25 26  1  0
 26 27  2  0
 26 28  2  0
 26 29  1  0
 29 30  2  0
 30 31  1  0
 31 32  2  0
 32 33  1  0
 33 34  2  0
 24 35  2  0
 35 36  1  0
 35 37  1  0
 37 38  2  0
 38 39  1  0
 18 40  2  0
 10  5  1  0
 40 14  1  0
 38 22  1  0
 34 29  1  0
  1 41  1  0
  1 42  1  0
  1 43  1  0
  6 44  1  0
  7 45  1  0
  8 46  1  0
  9 47  1  0
 15 48  1  0
 16 49  1  0
 17 50  1  0
 23 51  1  0
 30 52  1  0
 31 53  1  0
 32 54  1  0
 33 55  1  0
 34 56  1  0
 37 57  1  0
 40 58  1  0
M  CHG  5  11  -1  19  -1  25  -1  36  -1  39  -1
M  END
>  <UniqueID>  (30) 
30

>  <SMILES>  (30) 
CS(=O)(=O)c1ccccc1[N-]C(=O)c1cccc([N-]C(=O)c2cc([N-]S(=O)(=O)c3ccccc3)c([O-])cc2[O-])c1

>  <Energy>  (30) 
72.57724454623359

>  <Genealogy>  (30) 
CS(=O)(=O)c1ccccc1[N-]C(=O)c1cccc([N-]C(=O)c2cc([N-]S(=O)(=O)c3ccccc3)c([O-])cc2[O-])c1 (protonated)
CS(=O)(=O)c1ccccc1[N-]C(=O)c1cccc([N-]C(=O)c2cc([N-]S(=O)(=O)c3ccccc3)c([O-])cc2[O-])c1 (3D coordinates assigned)
CS(=O)(=O)c1ccccc1[N-]C(=O)c1cccc([N-]C(=O)c2cc([N-]S(=O)(=O)c3ccccc3)c([O-])cc2[O-])c1 (optimized conformer: 72.57724454623359 kcal/mol)

>  <smiles>  (30) 
CS(=O)(=O)c1ccccc1NC(=O)c1cccc(NC(=O)c2cc(NS(=O)(=O)c3ccccc3)c(O)cc2O)c1

>  <score_type>  (30) 
oracle

>  <origin>  (30) 
adgpu

>  <m_score__min__energy>  (30) 
-15.130000000000001

>  <m_primary>  (30) 
energy

$$$$
30:0
     RDKit          3D

 45 47  0  0  0  0  0  0  0  0999 V2000
   -4.1080   22.4540  -32.9840 O   0  0  0  0  0  0  0  0  0  0  0  0
   -4.8200   22.9680  -31.7630 S   0  0  0  0  0  0  0  0  0  0  0  0
   -5.1110   24.4300  -31.9530 O   0  0  0  0  0  0  0  0  0  0  0  0
   -3.7980   22.7660  -30.3740 N   0  0  0  0  0  0  0  0  0  0  0  0
   -3.6580   24.0390  -29.6710 C   0  0  0  0  0  0  0  0  0  0  0  0
   -2.6040   23.9030  -28.6070 C   0  0  0  0  0  0  0  0  0  0  0  0
   -2.6050   22.7820  -27.7600 C   0  0  0  0  0  0  0  0  0  0  0  0
   -1.6100   22.6280  -26.7900 C   0  0  0  0  0  0  0  0  0  0  0  0
   -0.6060   23.5880  -26.6600 C   0  0  0  0  0  0  0  0  0  0  0  0
   -0.5900   24.7000  -27.5050 C   0  0  0  0  0  0  0  0  0  0  0  0
   -1.5780   24.8570  -28.4830 C   0  0  0  0  0  0  0  0  0  0  0  0
   -1.5330   25.9610  -29.3250 O   0  0  0  0  0  0  0  0  0  0  0  0
   -6.3420   22.1100  -31.5350 C   0  0  0  0  0  0  0  0  0  0  0  0
   -7.5030   22.7970  -31.1580 C   0  0  0  0  0  0  0  0  0  0  0  0
   -8.7060   22.1050  -30.9980 C   0  0  0  0  0  0  0  0  0  0  0  0
   -8.7550   20.7240  -31.2130 C   0  0  0  0  0  0  0  0  0  0  0  0
   -7.5970   20.0280  -31.5830 C   0  0  0  0  0  0  0  0  0  0  0  0
   -7.6770   18.2910  -31.8660 S   0  0  0  0  0  0  0  0  0  0  0  0
   -6.7810   17.5760  -30.8910 O   0  0  0  0  0  0  0  0  0  0  0  0
   -9.0920   17.8360  -31.6350 O   0  0  0  0  0  0  0  0  0  0  0  0
   -7.1940   17.9530  -33.5140 N   0  0  0  0  0  0  0  0  0  0  0  0
   -6.1540   18.8910  -33.9890 C   0  0  0  0  0  0  0  0  0  0  0  0
   -4.7340   18.2990  -33.9100 C   0  0  0  0  0  0  0  0  0  0  0  0
   -4.6370   17.4030  -32.8260 O   0  0  0  0  0  0  0  0  0  0  0  0
   -5.4060   16.2420  -33.0840 C   0  0  0  0  0  0  0  0  0  0  0  0
   -6.8000   16.5430  -33.6860 C   0  0  0  0  0  0  0  0  0  0  0  0
   -6.3930   20.7250  -31.7470 C   0  0  0  0  0  0  0  0  0  0  0  0
   -3.3620   24.8225  -30.3841 H   0  0  0  0  0  0  0  0  0  0  0  0
   -4.6174   24.3129  -29.2079 H   0  0  0  0  0  0  0  0  0  0  0  0
   -3.3931   22.0212  -27.8606 H   0  0  0  0  0  0  0  0  0  0  0  0
   -1.6187   21.7491  -26.1286 H   0  0  0  0  0  0  0  0  0  0  0  0
    0.1727   23.4692  -25.8923 H   0  0  0  0  0  0  0  0  0  0  0  0
    0.2027   25.4555  -27.4011 H   0  0  0  0  0  0  0  0  0  0  0  0
   -7.4675   23.8831  -30.9876 H   0  0  0  0  0  0  0  0  0  0  0  0
   -9.6162   22.6473  -30.7024 H   0  0  0  0  0  0  0  0  0  0  0  0
   -9.7050   20.1831  -31.0913 H   0  0  0  0  0  0  0  0  0  0  0  0
   -6.3680   19.1520  -35.0359 H   0  0  0  0  0  0  0  0  0  0  0  0
   -6.1811   19.7743  -33.3340 H   0  0  0  0  0  0  0  0  0  0  0  0
   -4.5117   17.7632  -34.8446 H   0  0  0  0  0  0  0  0  0  0  0  0
   -4.0130   19.1168  -33.7638 H   0  0  0  0  0  0  0  0  0  0  0  0
   -4.8514   15.6076  -33.7911 H   0  0  0  0  0  0  0  0  0  0  0  0
   -5.5728   15.7442  -32.1174 H   0  0  0  0  0  0  0  0  0  0  0  0
   -6.7781   16.3110  -34.7610 H   0  0  0  0  0  0  0  0  0  0  0  0
   -7.5360   15.9219  -33.1544 H   0  0  0  0  0  0  0  0  0  0  0  0
   -5.4829   20.1829  -32.0436 H   0  0  0  0  0  0  0  0  0  0  0  0
  1  2  2  0
  2  3  2  0
  2  4  1  0
  4  5  1  0
  5  6  1  0
  6  7  2  0
  7  8  1  0
  8  9  2  0
  9 10  1  0
 10 11  2  0
 11 12  1  0
  2 13  1  0
 13 14  2  0
 14 15  1  0
 15 16  2  0
 16 17  1  0
 17 18  1  0
 18 19  2  0
 18 20  2  0
 18 21  1  0
 21 22  1  0
 22 23  1  0
 23 24  1  0
 24 25  1  0
 25 26  1  0
 17 27  2  0
 11  6  1  0
 27 13  1  0
 26 21  1  0
  5 28  1  0
  5 29  1  0
  7 30  1  0
  8 31  1  0
  9 32  1  0
 10 33  1  0
 14 34  1  0
 15 35  1  0
 16 36  1  0
 22 37  1  0
 22 38  1  0
 23 39  1  0
 23 40  1  0
 25 41  1  0
 25 42  1  0
 26 43  1  0
 26 44  1  0
 27 45  1  0
M  CHG  2   4  -1  12  -1
M  END
>  <UniqueID>  (31) 
31

>  <SMILES>  (31) 
O=S(=O)([N-]Cc1ccccc1[O-])c1cccc(S(=O)(=O)N2CCOCC2)c1

>  <Energy>  (31) 
54.49412950506206

>  <Genealogy>  (31) 
O=S(=O)([N-]Cc1ccccc1[O-])c1cccc(S(=O)(=O)N2CCOCC2)c1 (protonated)
O=S(=O)([N-]Cc1ccccc1[O-])c1cccc(S(=O)(=O)N2CCOCC2)c1 (3D coordinates assigned)
O=S(=O)([N-]Cc1ccccc1[O-])c1cccc(S(=O)(=O)N2CCOCC2)c1 (nonaromatic ring conformer: 54.49412950506206 kcal/mol)

>  <smiles>  (31) 
O=S(=O)(NCc1ccccc1O)c1cccc(S(=O)(=O)N2CCOCC2)c1

>  <score_type>  (31) 
oracle

>  <origin>  (31) 
adgpu

>  <m_score__min__energy>  (31) 
-13.710000000000001

>  <m_primary>  (31) 
energy

$$$$
31:0
     RDKit          3D

 52 55  0  0  0  0  0  0  0  0999 V2000
   -6.9880   16.9590  -32.7340 C   0  0  0  0  0  0  0  0  0  0  0  0
   -7.4740   18.4680  -31.9100 S   0  0  0  0  0  0  0  0  0  0  0  0
   -6.2770   19.0180  -31.1790 O   0  0  0  0  0  0  0  0  0  0  0  0
   -8.5650   18.1600  -30.9170 O   0  0  0  0  0  0  0  0  0  0  0  0
   -8.0330   19.6300  -33.0960 N   0  0  0  0  0  0  0  0  0  0  0  0
   -9.1610   20.4510  -32.5830 C   0  0  0  0  0  0  0  0  0  0  0  0
   -8.7920   21.9200  -32.2940 C   0  0  0  0  0  0  0  0  0  0  0  0
   -7.4150   22.0100  -31.7980 N   0  0  0  0  0  0  0  0  0  0  0  0
   -7.1500   22.4870  -30.4600 C   0  0  0  0  0  0  0  0  0  0  0  0
   -7.9950   22.2660  -29.5530 O   0  0  0  0  0  0  0  0  0  0  0  0
   -5.9120   23.2330  -30.1160 C   0  0  0  0  0  0  0  0  0  0  0  0
   -5.6950   24.5100  -30.6550 C   0  0  0  0  0  0  0  0  0  0  0  0
   -4.5030   25.1960  -30.4020 C   0  0  0  0  0  0  0  0  0  0  0  0
   -3.5100   24.6120  -29.6110 C   0  0  0  0  0  0  0  0  0  0  0  0
   -2.3230   25.3040  -29.3780 O   0  0  0  0  0  0  0  0  0  0  0  0
   -3.7100   23.3410  -29.0540 C   0  0  0  0  0  0  0  0  0  0  0  0
   -2.6760   22.7740  -28.2380 N   0  0  0  0  0  0  0  0  0  0  0  0
   -1.7830   21.3380  -28.6360 S   0  0  0  0  0  0  0  0  0  0  0  0
   -0.3450   21.4850  -28.2020 O   0  0  0  0  0  0  0  0  0  0  0  0
   -2.3890   20.1680  -27.9100 O   0  0  0  0  0  0  0  0  0  0  0  0
   -1.9040   21.0490  -30.3700 C   0  0  0  0  0  0  0  0  0  0  0  0
   -3.1180   20.5880  -30.9510 C   0  0  0  0  0  0  0  0  0  0  0  0
   -3.1780   20.3070  -32.3280 C   0  0  0  0  0  0  0  0  0  0  0  0
   -2.0220   20.5250  -33.0980 C   0  0  0  0  0  0  0  0  0  0  0  0
   -1.9080   20.3600  -34.4320 N   0  0  0  0  0  0  0  0  0  0  0  0
   -0.6300   20.7550  -34.6970 C   0  0  0  0  0  0  0  0  0  0  0  0
   -0.0880   20.7670  -35.9790 O   0  0  0  0  0  0  0  0  0  0  0  0
    0.0660   21.1540  -33.5560 C   0  0  0  0  0  0  0  0  0  0  0  0
   -0.8560   21.0010  -32.5390 C   0  0  0  0  0  0  0  0  0  0  0  0
   -0.7590   21.2720  -31.1790 C   0  0  0  0  0  0  0  0  0  0  0  0
   -4.9080   22.6500  -29.3210 C   0  0  0  0  0  0  0  0  0  0  0  0
   -6.3440   21.4070  -32.6050 C   0  0  0  0  0  0  0  0  0  0  0  0
   -6.9190   20.4280  -33.6440 C   0  0  0  0  0  0  0  0  0  0  0  0
   -6.7416   16.1941  -31.9829 H   0  0  0  0  0  0  0  0  0  0  0  0
   -7.8165   16.6016  -33.3632 H   0  0  0  0  0  0  0  0  0  0  0  0
   -6.1067   17.1523  -33.3632 H   0  0  0  0  0  0  0  0  0  0  0  0
   -9.9659   20.4384  -33.3326 H   0  0  0  0  0  0  0  0  0  0  0  0
   -9.4654   20.0065  -31.6240 H   0  0  0  0  0  0  0  0  0  0  0  0
   -8.8832   22.5062  -33.2203 H   0  0  0  0  0  0  0  0  0  0  0  0
   -9.4750   22.3169  -31.5285 H   0  0  0  0  0  0  0  0  0  0  0  0
   -6.4694   24.9757  -31.2822 H   0  0  0  0  0  0  0  0  0  0  0  0
   -4.3465   26.1985  -30.8270 H   0  0  0  0  0  0  0  0  0  0  0  0
   -4.0106   20.4512  -30.3229 H   0  0  0  0  0  0  0  0  0  0  0  0
   -4.1021   19.9279  -32.7888 H   0  0  0  0  0  0  0  0  0  0  0  0
   -0.4270   21.4060  -36.6760 H   0  0  0  0  0  0  0  0  0  0  0  0
    1.1051   21.5075  -33.4832 H   0  0  0  0  0  0  0  0  0  0  0  0
    0.1779   21.6483  -30.7424 H   0  0  0  0  0  0  0  0  0  0  0  0
   -5.0603   21.6438  -28.9035 H   0  0  0  0  0  0  0  0  0  0  0  0
   -5.7953   22.2044  -33.1276 H   0  0  0  0  0  0  0  0  0  0  0  0
   -5.6718   20.8510  -31.9349 H   0  0  0  0  0  0  0  0  0  0  0  0
   -7.2850   21.0020  -34.5081 H   0  0  0  0  0  0  0  0  0  0  0  0
   -6.1170   19.7346  -33.9371 H   0  0  0  0  0  0  0  0  0  0  0  0
  1  2  1  0
  2  3  2  0
  2  4  2  0
  2  5  1  0
  5  6  1  0
  6  7  1  0
  7  8  1  0
  8  9  1  0
  9 10  2  0
  9 11  1  0
 11 12  2  0
 12 13  1  0
 13 14  2  0
 14 15  1  0
 14 16  1  0
 16 17  1  0
 17 18  1  0
 18 19  2  0
 18 20  2  0
 18 21  1  0
 21 22  2  0
 22 23  1  0
 23 24  2  0
 24 25  1  0
 25 26  1  0
 26 27  1  0
 26 28  2  0
 28 29  1  0
 29 30  2  0
 16 31  2  0
  8 32  1  0
 32 33  1  0
 33  5  1  0
 31 11  1  0
 30 21  1  0
 29 24  1  0
  1 34  1  0
  1 35  1  0
  1 36  1  0
  6 37  1  0
  6 38  1  0
  7 39  1  0
  7 40  1  0
 12 41  1  0
 13 42  1  0
 22 43  1  0
 23 44  1  0
 27 45  1  0
 28 46  1  0
 30 47  1  0
 31 48  1  0
 32 49  1  0
 32 50  1  0
 33 51  1  0
 33 52  1  0
M  CHG  3  15  -1  17  -1  25  -1
M  END
>  <UniqueID>  (32) 
32

>  <SMILES>  (32) 
CS(=O)(=O)N1CCN(C(=O)c2ccc([O-])c([N-]S(=O)(=O)c3ccc4[n-]c(O)cc4c3)c2)CC1

>  <Energy>  (32) 
98.37480121972618

>  <Genealogy>  (32) 
CS(=O)(=O)N1CCN(C(=O)c2ccc([O-])c([N-]S(=O)(=O)c3ccc4[n-]c(O)cc4c3)c2)CC1 (protonated)
CS(=O)(=O)N1CCN(C(=O)c2ccc([O-])c([N-]S(=O)(=O)c3ccc4[n-]c(O)cc4c3)c2)CC1 (3D coordinates assigned)
CS(=O)(=O)N1CCN(C(=O)c2ccc([O-])c([N-]S(=O)(=O)c3ccc4[n-]c(O)cc4c3)c2)CC1 (nonaromatic ring conformer: 98.37480121972618 kcal/mol)

>  <smiles>  (32) 
CS(=O)(=O)N1CCN(C(=O)c2ccc(O)c(NS(=O)(=O)c3ccc4[nH]c(O)cc4c3)c2)CC1

>  <score_type>  (32) 
oracle

>  <origin>  (32) 
adgpu

>  <m_score__min__energy>  (32) 
-13.140000000000001

>  <m_primary>  (32) 
energy

$$$$
32:0
     RDKit          3D

 73 76  0  0  0  0  0  0  0  0999 V2000
   -4.6190   24.9620  -26.1160 C   0  0  0  0  0  0  0  0  0  0  0  0
   -3.3780   24.5470  -26.6840 O   0  0  0  0  0  0  0  0  0  0  0  0
   -2.1670   25.2430  -26.5420 C   0  0  0  0  0  0  0  0  0  0  0  0
   -1.6560   25.5990  -25.2780 C   0  0  0  0  0  0  0  0  0  0  0  0
   -0.4450   26.3010  -25.1630 C   0  0  0  0  0  0  0  0  0  0  0  0
    0.0410   26.7290  -23.8290 C   0  0  0  0  0  0  0  0  0  0  0  0
    1.3170   26.2790  -23.3620 N   0  0  0  0  0  0  0  0  0  0  0  0
   -0.6770   27.5110  -23.0800 N   0  0  0  0  0  0  0  0  0  0  0  0
    0.2670   26.6300  -26.3270 C   0  0  0  0  0  0  0  0  0  0  0  0
   -0.2390   26.2890  -27.5850 C   0  0  0  0  0  0  0  0  0  0  0  0
   -1.4580   25.5960  -27.7010 C   0  0  0  0  0  0  0  0  0  0  0  0
   -2.0260   25.2930  -28.9520 O   0  0  0  0  0  0  0  0  0  0  0  0
   -2.1090   24.0090  -29.5040 C   0  0  0  0  0  0  0  0  0  0  0  0
   -0.9610   23.3310  -29.9380 C   0  0  0  0  0  0  0  0  0  0  0  0
   -1.0690   22.0680  -30.5250 C   0  0  0  0  0  0  0  0  0  0  0  0
   -2.3270   21.4660  -30.6890 C   0  0  0  0  0  0  0  0  0  0  0  0
   -2.4530   20.1830  -31.4160 C   0  0  0  0  0  0  0  0  0  0  0  0
   -3.5930   19.6720  -31.5940 O   0  0  0  0  0  0  0  0  0  0  0  0
   -1.2850   19.5370  -31.9400 N   0  0  0  0  0  0  0  0  0  0  0  0
   -1.1020   19.1780  -33.3460 C   0  0  0  0  0  0  0  0  0  0  0  0
   -2.0120   18.0180  -33.7730 C   0  0  0  0  0  0  0  0  0  0  0  0
   -3.3040   18.5000  -34.4460 C   0  0  0  0  0  0  0  0  0  0  0  0
   -4.4540   17.8190  -33.8520 N   0  0  0  0  0  0  0  0  0  0  0  0
   -4.3730   16.6310  -33.0210 C   0  0  0  0  0  0  0  0  0  0  0  0
   -5.8290   16.2170  -32.7220 C   0  0  0  0  0  0  0  0  0  0  0  0
   -6.7520   17.2630  -33.3730 C   0  0  0  0  0  0  0  0  0  0  0  0
   -5.8070   18.1860  -34.0340 C   0  0  0  0  0  0  0  0  0  0  0  0
   -6.1630   19.2010  -34.6900 O   0  0  0  0  0  0  0  0  0  0  0  0
   -3.4690   22.1230  -30.2010 C   0  0  0  0  0  0  0  0  0  0  0  0
   -3.3590   23.3810  -29.5970 C   0  0  0  0  0  0  0  0  0  0  0  0
   -4.5290   24.0360  -29.1000 N   0  0  0  0  0  0  0  0  0  0  0  0
   -5.6990   24.6770  -30.2040 S   0  0  0  0  0  0  0  0  0  0  0  0
   -6.7060   25.4900  -29.4390 O   0  0  0  0  0  0  0  0  0  0  0  0
   -5.0320   25.5570  -31.2240 O   0  0  0  0  0  0  0  0  0  0  0  0
   -6.4740   23.3280  -31.0260 C   0  0  0  0  0  0  0  0  0  0  0  0
   -7.6990   22.8180  -30.5720 C   0  0  0  0  0  0  0  0  0  0  0  0
   -8.2580   21.6930  -31.1850 C   0  0  0  0  0  0  0  0  0  0  0  0
   -7.6020   21.0700  -32.2560 C   0  0  0  0  0  0  0  0  0  0  0  0
   -8.1580   19.9010  -32.8600 N   0  0  0  0  0  0  0  0  0  0  0  0
   -6.3900   21.5990  -32.7240 C   0  0  0  0  0  0  0  0  0  0  0  0
   -5.8280   22.7190  -32.1080 C   0  0  0  0  0  0  0  0  0  0  0  0
   -4.5464   24.9377  -25.0187 H   0  0  0  0  0  0  0  0  0  0  0  0
   -4.8490   25.9859  -26.4457 H   0  0  0  0  0  0  0  0  0  0  0  0
   -5.4186   24.2824  -26.4457 H   0  0  0  0  0  0  0  0  0  0  0  0
   -2.2125   25.3237  -24.3700 H   0  0  0  0  0  0  0  0  0  0  0  0
    1.8790   25.5880  -23.9100 H   0  0  0  0  0  0  0  0  0  0  0  0
    1.6870   26.5880  -22.4380 H   0  0  0  0  0  0  0  0  0  0  0  0
   -1.5960   27.8860  -23.3980 H   0  0  0  0  0  0  0  0  0  0  0  0
   -0.3350   27.8110  -22.1400 H   0  0  0  0  0  0  0  0  0  0  0  0
    1.2283   27.1590  -26.2491 H   0  0  0  0  0  0  0  0  0  0  0  0
    0.3203   26.5647  -28.4912 H   0  0  0  0  0  0  0  0  0  0  0  0
    0.0286   23.7955  -29.8158 H   0  0  0  0  0  0  0  0  0  0  0  0
   -0.1632   21.5419  -30.8608 H   0  0  0  0  0  0  0  0  0  0  0  0
   -1.3317   20.0556  -33.9682 H   0  0  0  0  0  0  0  0  0  0  0  0
   -0.0590   18.8544  -33.4782 H   0  0  0  0  0  0  0  0  0  0  0  0
   -1.4621   17.3809  -34.4813 H   0  0  0  0  0  0  0  0  0  0  0  0
   -2.2949   17.4644  -32.8655 H   0  0  0  0  0  0  0  0  0  0  0  0
   -3.4079   19.5856  -34.3024 H   0  0  0  0  0  0  0  0  0  0  0  0
   -3.2613   18.2716  -35.5212 H   0  0  0  0  0  0  0  0  0  0  0  0
   -3.8495   15.8254  -33.5568 H   0  0  0  0  0  0  0  0  0  0  0  0
   -3.8127   16.8263  -32.0947 H   0  0  0  0  0  0  0  0  0  0  0  0
   -6.0310   15.2224  -33.1462 H   0  0  0  0  0  0  0  0  0  0  0  0
   -6.0027   16.1698  -31.6368 H   0  0  0  0  0  0  0  0  0  0  0  0
   -7.4231   16.7936  -34.1074 H   0  0  0  0  0  0  0  0  0  0  0  0
   -7.4099   17.7663  -32.6492 H   0  0  0  0  0  0  0  0  0  0  0  0
   -4.4557   21.6458  -30.2941 H   0  0  0  0  0  0  0  0  0  0  0  0
   -4.8680   23.7940  -28.1430 H   0  0  0  0  0  0  0  0  0  0  0  0
   -8.2199   23.3033  -29.7335 H   0  0  0  0  0  0  0  0  0  0  0  0
   -9.2179   21.2943  -30.8251 H   0  0  0  0  0  0  0  0  0  0  0  0
   -8.0470   19.7210  -33.8800 H   0  0  0  0  0  0  0  0  0  0  0  0
   -8.6450   19.1810  -32.2800 H   0  0  0  0  0  0  0  0  0  0  0  0
   -5.8808   21.1301  -33.5789 H   0  0  0  0  0  0  0  0  0  0  0  0
   -4.8734   23.1244  -32.4747 H   0  0  0  0  0  0  0  0  0  0  0  0
  1  2  1  0
  2  3  1  0
  3  4  2  0
  4  5  1  0
  5  6  1  0
  6  7  1  0
  6  8  2  0
  5  9  2  0
  9 10  1  0
 10 11  2  0
 11 12  1  0
 12 13  1  0
 13 14  2  0
 14 15  1  0
 15 16  2  0
 16 17  1  0
 17 18  2  0
 17 19  1  0
 19 20  1  0
 20 21  1  0
 21 22  1  0
 22 23  1  0
 23 24  1  0
 24 25  1  0
 25 26  1  0
 26 27  1  0
 27 28  2  0
 16 29  1  0
 29 30  2  0
 30 31  1  0
 31 32  1  0
 32 33  2  0
 32 34  2  0
 32 35  1  0
 35 36  2  0
 36 37  1  0
 37 38  2  0
 38 39  1  0
 38 40  1  0
 40 41  2  0
 11  3  1  0
 30 13  1  0
 41 35  1  0
 27 23  1  0
  1 42  1  0
  1 43  1  0
  1 44  1  0
  4 45  1  0
  7 46  1  0
  7 47  1  0
  8 48  1  0
  8 49  1  0
  9 50  1  0
 10 51  1  0
 14 52  1  0
 15 53  1  0
 20 54  1  0
 20 55  1  0
 21 56  1  0
 21 57  1  0
 22 58  1  0
 22 59  1  0
 24 60  1  0
 24 61  1  0
 25 62  1  0
 25 63  1  0
 26 64  1  0
 26 65  1  0
 29 66  1  0
 31 67  1  0
 36 68  1  0
 37 69  1  0
 39 70  1  0
 39 71  1  0
 40 72  1  0
 41 73  1  0
M  CHG  2   8   1  19  -1
M  END
>  <UniqueID>  (33) 
33

>  <SMILES>  (33) 
COc1cc(C(N)=[NH2+])ccc1Oc1ccc(C(=O)[N-]CCCN2CCCC2=O)cc1NS(=O)(=O)c1ccc(N)cc1

>  <Energy>  (33) 
91.0665776648898

>  <Genealogy>  (33) 
COc1cc(C(N)=[NH2+])ccc1Oc1ccc(C(=O)[N-]CCCN2CCCC2=O)cc1NS(=O)(=O)c1ccc(N)cc1 (protonated)
COc1cc(C(N)=[NH2+])ccc1Oc1ccc(C(=O)[N-]CCCN2CCCC2=O)cc1NS(=O)(=O)c1ccc(N)cc1 (3D coordinates assigned)
COc1cc(C(N)=[NH2+])ccc1Oc1ccc(C(=O)[N-]CCCN2CCCC2=O)cc1NS(=O)(=O)c1ccc(N)cc1 (nonaromatic ring conformer: 91.0665776648898 kcal/mol)

>  <smiles>  (33) 
COc1cc(C(=N)N)ccc1Oc1ccc(C(=O)NCCCN2CCCC2=O)cc1NS(=O)(=O)c1ccc(N)cc1

>  <score_type>  (33) 
oracle

>  <origin>  (33) 
adgpu

>  <m_score__min__energy>  (33) 
-11.640000000000001

>  <m_primary>  (33) 
energy

$$$$
33:0
     RDKit          3D

 49 52  0  0  0  0  0  0  0  0999 V2000
   -5.3380   22.5560  -29.8730 O   0  0  0  0  0  0  0  0  0  0  0  0
   -4.8750   23.1910  -31.1540 S   0  0  0  0  0  0  0  0  0  0  0  0
   -4.6180   24.6520  -30.9150 O   0  0  0  0  0  0  0  0  0  0  0  0
   -6.1060   23.0190  -32.3620 N   0  0  0  0  0  0  0  0  0  0  0  0
   -7.2400   22.1580  -32.1710 C   0  0  0  0  0  0  0  0  0  0  0  0
   -8.4370   22.6970  -31.6670 C   0  0  0  0  0  0  0  0  0  0  0  0
   -9.5490   21.8840  -31.4470 C   0  0  0  0  0  0  0  0  0  0  0  0
   -9.4880   20.5200  -31.7220 C   0  0  0  0  0  0  0  0  0  0  0  0
   -8.3110   19.9540  -32.2310 C   0  0  0  0  0  0  0  0  0  0  0  0
   -8.2600   18.5810  -32.5190 C   0  0  0  0  0  0  0  0  0  0  0  0
   -7.0990   18.0170  -33.0510 C   0  0  0  0  0  0  0  0  0  0  0  0
   -5.9850   18.8160  -33.3040 C   0  0  0  0  0  0  0  0  0  0  0  0
   -6.0180   20.1850  -33.0210 C   0  0  0  0  0  0  0  0  0  0  0  0
   -7.1730   20.7730  -32.4650 C   0  0  0  0  0  0  0  0  0  0  0  0
   -3.4080   22.3780  -31.6900 C   0  0  0  0  0  0  0  0  0  0  0  0
   -3.3560   21.8200  -32.9740 C   0  0  0  0  0  0  0  0  0  0  0  0
   -2.1870   21.2020  -33.4260 C   0  0  0  0  0  0  0  0  0  0  0  0
   -1.0590   21.1330  -32.5960 C   0  0  0  0  0  0  0  0  0  0  0  0
    0.4180   20.3520  -33.1650 S   0  0  0  0  0  0  0  0  0  0  0  0
    1.2640   19.9710  -31.9830 O   0  0  0  0  0  0  0  0  0  0  0  0
    0.0550   19.0930  -33.9030 O   0  0  0  0  0  0  0  0  0  0  0  0
    1.3380   21.3940  -34.2240 N   0  0  0  0  0  0  0  0  0  0  0  0
    2.4740   20.6660  -34.8050 C   0  0  0  0  0  0  0  0  0  0  0  0
    3.2890   21.6070  -35.7160 C   0  0  0  0  0  0  0  0  0  0  0  0
    2.6500   22.8570  -35.9100 O   0  0  0  0  0  0  0  0  0  0  0  0
    1.3240   22.6530  -36.3620 C   0  0  0  0  0  0  0  0  0  0  0  0
    0.4780   21.9310  -35.2920 C   0  0  0  0  0  0  0  0  0  0  0  0
   -1.1120   21.6910  -31.3110 C   0  0  0  0  0  0  0  0  0  0  0  0
   -2.2810   22.3110  -30.8590 C   0  0  0  0  0  0  0  0  0  0  0  0
   -6.0400   23.6230  -33.2110 H   0  0  0  0  0  0  0  0  0  0  0  0
   -8.4972   23.7724  -31.4436 H   0  0  0  0  0  0  0  0  0  0  0  0
  -10.4784   22.3222  -31.0545 H   0  0  0  0  0  0  0  0  0  0  0  0
  -10.3669   19.8844  -31.5390 H   0  0  0  0  0  0  0  0  0  0  0  0
   -9.1379   17.9473  -32.3248 H   0  0  0  0  0  0  0  0  0  0  0  0
   -7.0632   16.9398  -33.2710 H   0  0  0  0  0  0  0  0  0  0  0  0
   -5.0750   18.3670  -33.7286 H   0  0  0  0  0  0  0  0  0  0  0  0
   -5.1366   20.8079  -33.2336 H   0  0  0  0  0  0  0  0  0  0  0  0
   -4.2386   21.8685  -33.6287 H   0  0  0  0  0  0  0  0  0  0  0  0
   -2.1516   20.7682  -34.4362 H   0  0  0  0  0  0  0  0  0  0  0  0
    3.1193   20.2915  -33.9967 H   0  0  0  0  0  0  0  0  0  0  0  0
    2.0970   19.8216  -35.4007 H   0  0  0  0  0  0  0  0  0  0  0  0
    4.2726   21.7807  -35.2551 H   0  0  0  0  0  0  0  0  0  0  0  0
    3.3848   21.1228  -36.6990 H   0  0  0  0  0  0  0  0  0  0  0  0
    0.8661   23.6281  -36.5845 H   0  0  0  0  0  0  0  0  0  0  0  0
    1.3550   22.0258  -37.2651 H   0  0  0  0  0  0  0  0  0  0  0  0
   -0.2372   22.6438  -34.8556 H   0  0  0  0  0  0  0  0  0  0  0  0
   -0.0575   21.0965  -35.7682 H   0  0  0  0  0  0  0  0  0  0  0  0
   -0.2301   21.6409  -30.6554 H   0  0  0  0  0  0  0  0  0  0  0  0
   -2.3163   22.7469  -29.8497 H   0  0  0  0  0  0  0  0  0  0  0  0
  1  2  2  0
  2  3  2  0
  2  4  1  0
  4  5  1  0
  5  6  2  0
  6  7  1  0
  7  8  2  0
  8  9  1  0
  9 10  2  0
 10 11  1  0
 11 12  2  0
 12 13  1  0
 13 14  2  0
  2 15  1  0
 15 16  2  0
 16 17  1  0
 17 18  2  0
 18 19  1  0
 19 20  2  0
 19 21  2  0
 19 22  1  0
 22 23  1  0
 23 24  1  0
 24 25  1  0
 25 26  1  0
 26 27  1  0
 18 28  1  0
 28 29  2  0
 14  5  1  0
 29 15  1  0
 14  9  1  0
 27 22  1  0
  4 30  1  0
  6 31  1  0
  7 32  1  0
  8 33  1  0
 10 34  1  0
 11 35  1  0
 12 36  1  0
 13 37  1  0
 16 38  1  0
 17 39  1  0
 23 40  1  0
 23 41  1  0
 24 42  1  0
 24 43  1  0
 26 44  1  0
 26 45  1  0
 27 46  1  0
 27 47  1  0
 28 48  1  0
 29 49  1  0
M  END
>  <UniqueID>  (34) 
34

>  <SMILES>  (34) 
O=S(=O)(Nc1cccc2ccccc12)c1ccc(S(=O)(=O)N2CCOCC2)cc1

>  <Energy>  (34) 
68.40349156348846

>  <Genealogy>  (34) 
O=S(=O)(Nc1cccc2ccccc12)c1ccc(S(=O)(=O)N2CCOCC2)cc1 (3D coordinates assigned)
O=S(=O)(Nc1cccc2ccccc12)c1ccc(S(=O)(=O)N2CCOCC2)cc1 (nonaromatic ring conformer: 68.40349156348846 kcal/mol)

>  <smiles>  (34) 
O=S(=O)(Nc1cccc2ccccc12)c1ccc(S(=O)(=O)N2CCOCC2)cc1

>  <score_type>  (34) 
oracle

>  <origin>  (34) 
adgpu

>  <m_score__min__energy>  (34) 
-11.130000000000001

>  <m_primary>  (34) 
energy

$$$$
34:0
     RDKit          3D

 61 65  0  0  0  0  0  0  0  0999 V2000
    0.0600   23.5000  -29.2950 O   0  0  0  0  0  0  0  0  0  0  0  0
   -0.2780   22.7340  -28.0480 S   0  0  0  0  0  0  0  0  0  0  0  0
    0.9680   22.0980  -27.4960 O   0  0  0  0  0  0  0  0  0  0  0  0
   -1.4600   21.5170  -28.4210 N   0  0  0  0  0  0  0  0  0  0  0  0
   -1.6130   20.8500  -29.6810 C   0  0  0  0  0  0  0  0  0  0  0  0
   -0.6640   19.8880  -30.0420 C   0  0  0  0  0  0  0  0  0  0  0  0
   -0.8070   19.1690  -31.2240 C   0  0  0  0  0  0  0  0  0  0  0  0
   -1.8890   19.4170  -32.0710 C   0  0  0  0  0  0  0  0  0  0  0  0
   -2.8250   20.4060  -31.7470 C   0  0  0  0  0  0  0  0  0  0  0  0
   -4.1920   20.7030  -32.8250 S   0  0  0  0  0  0  0  0  0  0  0  0
   -3.9950   19.9710  -34.1260 O   0  0  0  0  0  0  0  0  0  0  0  0
   -4.2650   22.1800  -33.1020 O   0  0  0  0  0  0  0  0  0  0  0  0
   -5.6780   20.1640  -32.0790 N   0  0  0  0  0  0  0  0  0  0  0  0
   -5.4560   18.9160  -31.2930 C   0  0  0  0  0  0  0  0  0  0  0  0
   -6.0390   17.6660  -31.9670 C   0  0  0  0  0  0  0  0  0  0  0  0
   -7.5470   17.8260  -32.2090 C   0  0  0  0  0  0  0  0  0  0  0  0
   -7.9440   19.2640  -32.6010 C   0  0  0  0  0  0  0  0  0  0  0  0
   -6.7400   20.0630  -33.1100 C   0  0  0  0  0  0  0  0  0  0  0  0
   -2.6820   21.1280  -30.5510 C   0  0  0  0  0  0  0  0  0  0  0  0
   -0.9690   23.8480  -26.8610 C   0  0  0  0  0  0  0  0  0  0  0  0
   -0.2300   24.1590  -25.7070 C   0  0  0  0  0  0  0  0  0  0  0  0
   -0.7000   25.1130  -24.7990 C   0  0  0  0  0  0  0  0  0  0  0  0
   -1.9150   25.7600  -25.0280 C   0  0  0  0  0  0  0  0  0  0  0  0
   -2.6690   25.4500  -26.1610 C   0  0  0  0  0  0  0  0  0  0  0  0
   -2.2110   24.4900  -27.0790 C   0  0  0  0  0  0  0  0  0  0  0  0
   -3.0520   24.1870  -28.2450 C   0  0  0  0  0  0  0  0  0  0  0  0
   -2.7610   24.5230  -29.5590 C   0  0  0  0  0  0  0  0  0  0  0  0
   -3.7890   24.2010  -30.4520 C   0  0  0  0  0  0  0  0  0  0  0  0
   -4.9010   23.6290  -29.8370 C   0  0  0  0  0  0  0  0  0  0  0  0
   -6.1510   23.2370  -30.5190 C   0  0  0  0  0  0  0  0  0  0  0  0
   -6.5330   23.8110  -31.7420 C   0  0  0  0  0  0  0  0  0  0  0  0
   -7.6950   23.3640  -32.3740 C   0  0  0  0  0  0  0  0  0  0  0  0
   -8.4670   22.3590  -31.7900 C   0  0  0  0  0  0  0  0  0  0  0  0
   -8.0730   21.8240  -30.5660 C   0  0  0  0  0  0  0  0  0  0  0  0
   -6.9310   22.2610  -29.9690 N   0  0  0  0  0  0  0  0  0  0  0  0
   -4.5940   23.5190  -28.1830 S   0  0  0  0  0  0  0  0  0  0  0  0
    0.1999   19.6991  -29.3877 H   0  0  0  0  0  0  0  0  0  0  0  0
   -0.0652   18.4024  -31.4924 H   0  0  0  0  0  0  0  0  0  0  0  0
   -2.0062   18.8332  -32.9959 H   0  0  0  0  0  0  0  0  0  0  0  0
   -5.9650   20.9140  -31.4090 H   0  0  0  0  0  0  0  0  0  0  0  0
   -4.3731   18.7714  -31.1648 H   0  0  0  0  0  0  0  0  0  0  0  0
   -5.9728   19.0396  -30.3299 H   0  0  0  0  0  0  0  0  0  0  0  0
   -5.5343   17.5086  -32.9316 H   0  0  0  0  0  0  0  0  0  0  0  0
   -5.8794   16.8028  -31.3041 H   0  0  0  0  0  0  0  0  0  0  0  0
   -7.8461   17.1460  -33.0203 H   0  0  0  0  0  0  0  0  0  0  0  0
   -8.0593   17.5884  -31.2650 H   0  0  0  0  0  0  0  0  0  0  0  0
   -8.7047   19.2205  -33.3944 H   0  0  0  0  0  0  0  0  0  0  0  0
   -8.3378   19.7681  -31.7061 H   0  0  0  0  0  0  0  0  0  0  0  0
   -6.3286   19.5620  -33.9987 H   0  0  0  0  0  0  0  0  0  0  0  0
   -7.0800   21.0800  -33.3553 H   0  0  0  0  0  0  0  0  0  0  0  0
   -3.4083   21.9132  -30.2941 H   0  0  0  0  0  0  0  0  0  0  0  0
    0.7254   23.6482  -25.5165 H   0  0  0  0  0  0  0  0  0  0  0  0
   -0.1105   25.3540  -23.9021 H   0  0  0  0  0  0  0  0  0  0  0  0
   -2.2788   26.5147  -24.3152 H   0  0  0  0  0  0  0  0  0  0  0  0
   -3.6276   25.9604  -26.3362 H   0  0  0  0  0  0  0  0  0  0  0  0
   -1.8168   24.9952  -29.8680 H   0  0  0  0  0  0  0  0  0  0  0  0
   -3.7255   24.3820  -31.5352 H   0  0  0  0  0  0  0  0  0  0  0  0
   -5.9230   24.6049  -32.1977 H   0  0  0  0  0  0  0  0  0  0  0  0
   -8.0024   23.8048  -33.3338 H   0  0  0  0  0  0  0  0  0  0  0  0
   -9.3759   21.9937  -32.2904 H   0  0  0  0  0  0  0  0  0  0  0  0
   -8.6848   21.0484  -30.0820 H   0  0  0  0  0  0  0  0  0  0  0  0
  1  2  2  0
  2  3  2  0
  2  4  1  0
  4  5  1  0
  5  6  2  0
  6  7  1  0
  7  8  2  0
  8  9  1  0
  9 10  1  0
 10 11  2  0
 10 12  2  0
 10 13  1  0
 13 14  1  0
 14 15  1  0
 15 16  1  0
 16 17  1  0
 17 18  1  0
  9 19  2  0
  2 20  1  0
 20 21  2  0
 21 22  1  0
 22 23  2  0
 23 24  1  0
 24 25  2  0
 25 26  1  0
 26 27  2  0
 27 28  1  0
 28 29  2  0
 29 30  1  0
 30 31  2  0
 31 32  1  0
 32 33  2  0
 33 34  1  0
 34 35  2  0
 29 36  1  0
 19  5  1  0
 25 20  1  0
 36 26  1  0
 18 13  1  0
 35 30  1  0
  6 37  1  0
  7 38  1  0
  8 39  1  0
 13 40  1  0
 14 41  1  0
 14 42  1  0
 15 43  1  0
 15 44  1  0
 16 45  1  0
 16 46  1  0
 17 47  1  0
 17 48  1  0
 18 49  1  0
 18 50  1  0
 19 51  1  0
 21 52  1  0
 22 53  1  0
 23 54  1  0
 24 55  1  0
 27 56  1  0
 28 57  1  0
 31 58  1  0
 32 59  1  0
 33 60  1  0
 34 61  1  0
M  CHG  2   4  -1  13   1
M  END
>  <UniqueID>  (35) 
35

>  <SMILES>  (35) 
O=S(=O)([N-]c1cccc(S(=O)(=O)[NH+]2CCCCC2)c1)c1ccccc1-c1ccc(-c2ccccn2)s1

>  <Energy>  (35) 
112.48757364287233

>  <Genealogy>  (35) 
O=S(=O)([N-]c1cccc(S(=O)(=O)[NH+]2CCCCC2)c1)c1ccccc1-c1ccc(-c2ccccn2)s1 (protonated)
O=S(=O)([N-]c1cccc(S(=O)(=O)[NH+]2CCCCC2)c1)c1ccccc1-c1ccc(-c2ccccn2)s1 (3D coordinates assigned)
O=S(=O)([N-]c1cccc(S(=O)(=O)[NH+]2CCCCC2)c1)c1ccccc1-c1ccc(-c2ccccn2)s1 (nonaromatic ring conformer: 112.48757364287233 kcal/mol)

>  <smiles>  (35) 
O=S(=O)(Nc1cccc(S(=O)(=O)N2CCCCC2)c1)c1ccccc1-c1ccc(-c2ccccn2)s1

>  <score_type>  (35) 
oracle

>  <origin>  (35) 
adgpu

>  <m_score__min__energy>  (35) 
-12.91

>  <m_primary>  (35) 
energy

$$$$
35:0
     RDKit          3D

 56 59  0  0  0  0  0  0  0  0999 V2000
   -3.5180   24.7280  -30.4770 O   0  0  0  0  0  0  0  0  0  0  0  0
   -3.7440   23.9900  -29.1860 S   0  0  0  0  0  0  0  0  0  0  0  0
   -3.4450   24.9200  -28.0440 O   0  0  0  0  0  0  0  0  0  0  0  0
   -5.3970   23.4560  -29.0800 N   0  0  0  0  0  0  0  0  0  0  0  0
   -6.1190   23.6760  -30.3470 C   0  0  2  0  0  0  0  0  0  0  0  0
   -6.4960   25.1650  -30.5180 C   0  0  0  0  0  0  0  0  0  0  0  0
   -6.0760   25.9050  -29.4040 O   0  0  0  0  0  0  0  0  0  0  0  0
   -7.3600   22.7610  -30.3550 C   0  0  0  0  0  0  0  0  0  0  0  0
   -7.2980   21.7220  -31.4380 C   0  0  0  0  0  0  0  0  0  0  0  0
   -8.3710   21.2140  -32.1660 C   0  0  0  0  0  0  0  0  0  0  0  0
   -7.9340   20.3470  -33.1070 N   0  0  0  0  0  0  0  0  0  0  0  0
   -6.5950   20.3080  -32.9840 C   0  0  0  0  0  0  0  0  0  0  0  0
   -5.6960   19.5710  -33.7540 C   0  0  0  0  0  0  0  0  0  0  0  0
   -4.3250   19.6990  -33.4660 C   0  0  0  0  0  0  0  0  0  0  0  0
   -3.8880   20.5480  -32.4250 C   0  0  0  0  0  0  0  0  0  0  0  0
   -4.8180   21.2740  -31.6610 C   0  0  0  0  0  0  0  0  0  0  0  0
   -6.1700   21.1320  -31.9730 C   0  0  0  0  0  0  0  0  0  0  0  0
   -2.6790   22.5920  -29.0850 C   0  0  0  0  0  0  0  0  0  0  0  0
   -1.7370   22.3350  -30.0910 C   0  0  0  0  0  0  0  0  0  0  0  0
   -0.9310   21.1950  -30.0260 C   0  0  0  0  0  0  0  0  0  0  0  0
   -1.0520   20.3000  -28.9490 C   0  0  0  0  0  0  0  0  0  0  0  0
   -0.2330   19.1190  -28.8850 N   0  0  0  0  0  0  0  0  0  0  0  0
   -0.3960   18.1820  -27.7630 C   0  0  0  0  0  0  0  0  0  0  0  0
    0.7310   17.1410  -27.7300 C   0  0  0  0  0  0  0  0  0  0  0  0
    2.0910   17.8210  -27.9370 C   0  0  0  0  0  0  0  0  0  0  0  0
    2.1620   18.6440  -29.2430 C   0  0  0  0  0  0  0  0  0  0  0  0
    0.7930   18.8660  -29.9030 C   0  0  0  0  0  0  0  0  0  0  0  0
   -2.0000   20.5610  -27.9460 C   0  0  0  0  0  0  0  0  0  0  0  0
   -2.8100   21.6960  -28.0170 C   0  0  0  0  0  0  0  0  0  0  0  0
   -5.8560   23.9600  -28.2870 H   0  0  0  0  0  0  0  0  0  0  0  0
   -5.4755   23.4219  -31.2022 H   0  0  0  0  0  0  0  0  0  0  0  0
   -6.0089   25.5611  -31.4212 H   0  0  0  0  0  0  0  0  0  0  0  0
   -7.5888   25.2486  -30.6113 H   0  0  0  0  0  0  0  0  0  0  0  0
   -5.1410   25.6270  -29.2250 H   0  0  0  0  0  0  0  0  0  0  0  0
   -7.4308   22.2532  -29.3818 H   0  0  0  0  0  0  0  0  0  0  0  0
   -8.2408   23.3919  -30.5453 H   0  0  0  0  0  0  0  0  0  0  0  0
   -9.4251   21.4804  -31.9991 H   0  0  0  0  0  0  0  0  0  0  0  0
   -8.5180   19.8290  -33.8000 H   0  0  0  0  0  0  0  0  0  0  0  0
   -6.0475   18.9108  -34.5606 H   0  0  0  0  0  0  0  0  0  0  0  0
   -3.5880   19.1340  -34.0556 H   0  0  0  0  0  0  0  0  0  0  0  0
   -2.8131   20.6416  -32.2109 H   0  0  0  0  0  0  0  0  0  0  0  0
   -4.4901   21.9329  -30.8434 H   0  0  0  0  0  0  0  0  0  0  0  0
   -1.6318   23.0331  -30.9346 H   0  0  0  0  0  0  0  0  0  0  0  0
   -0.1980   20.9972  -30.8220 H   0  0  0  0  0  0  0  0  0  0  0  0
   -0.3867   18.7486  -26.8202 H   0  0  0  0  0  0  0  0  0  0  0  0
   -1.3511   17.6520  -27.8926 H   0  0  0  0  0  0  0  0  0  0  0  0
    0.7251   16.6307  -26.7555 H   0  0  0  0  0  0  0  0  0  0  0  0
    0.5687   16.4125  -28.5381 H   0  0  0  0  0  0  0  0  0  0  0  0
    2.2791   18.4943  -27.0877 H   0  0  0  0  0  0  0  0  0  0  0  0
    2.8488   17.0267  -28.0070 H   0  0  0  0  0  0  0  0  0  0  0  0
    2.6005   19.6261  -29.0122 H   0  0  0  0  0  0  0  0  0  0  0  0
    2.7745   18.0701  -29.9540 H   0  0  0  0  0  0  0  0  0  0  0  0
    0.8532   19.7315  -30.5793 H   0  0  0  0  0  0  0  0  0  0  0  0
    0.5192   17.9623  -30.4673 H   0  0  0  0  0  0  0  0  0  0  0  0
   -2.1049   19.8668  -27.0992 H   0  0  0  0  0  0  0  0  0  0  0  0
   -3.5546   21.8872  -27.2302 H   0  0  0  0  0  0  0  0  0  0  0  0
  1  2  2  0
  2  3  2  0
  2  4  1  0
  4  5  1  0
  5  6  1  0
  6  7  1  0
  5  8  1  0
  8  9  1  0
  9 10  2  0
 10 11  1  0
 11 12  1  0
 12 13  2  0
 13 14  1  0
 14 15  2  0
 15 16  1  0
 16 17  2  0
  2 18  1  0
 18 19  2  0
 19 20  1  0
 20 21  2  0
 21 22  1  0
 22 23  1  0
 23 24  1  0
 24 25  1  0
 25 26  1  0
 26 27  1  0
 21 28  1  0
 28 29  2  0
 17  9  1  0
 29 18  1  0
 17 12  1  0
 27 22  1  0
  4 30  1  0
  5 31  1  6
  6 32  1  0
  6 33  1  0
  7 34  1  0
  8 35  1  0
  8 36  1  0
 10 37  1  0
 11 38  1  0
 13 39  1  0
 14 40  1  0
 15 41  1  0
 16 42  1  0
 19 43  1  0
 20 44  1  0
 23 45  1  0
 23 46  1  0
 24 47  1  0
 24 48  1  0
 25 49  1  0
 25 50  1  0
 26 51  1  0
 26 52  1  0
 27 53  1  0
 27 54  1  0
 28 55  1  0
 29 56  1  0
M  END
>  <UniqueID>  (36) 
36

>  <SMILES>  (36) 
O=S(=O)(N[C@H](CO)Cc1c[nH]c2ccccc12)c1ccc(N2CCCCC2)cc1

>  <Energy>  (36) 
90.6659569701254

>  <Genealogy>  (36) 
O=S(=O)(N[C@H](CO)Cc1c[nH]c2ccccc12)c1ccc(N2CCCCC2)cc1 (chirality)
O=S(=O)(N[C@H](CO)Cc1c[nH]c2ccccc12)c1ccc(N2CCCCC2)cc1 (3D coordinates assigned)
O=S(=O)(N[C@H](CO)Cc1c[nH]c2ccccc12)c1ccc(N2CCCCC2)cc1 (nonaromatic ring conformer: 90.6659569701254 kcal/mol)

>  <smiles>  (36) 
O=S(=O)(NC(CO)Cc1c[nH]c2ccccc12)c1ccc(N2CCCCC2)cc1

>  <score_type>  (36) 
oracle

>  <origin>  (36) 
adgpu

>  <m_score__min__energy>  (36) 
-10.27

>  <m_primary>  (36) 
energy

$$$$
36:0
     RDKit          3D

 58 61  0  0  0  0  0  0  0  0999 V2000
   -6.7880   16.1470  -33.7950 C   0  0  0  0  0  0  0  0  0  0  0  0
   -6.0140   17.4840  -33.8210 C   0  0  0  0  0  0  0  0  0  0  0  0
   -5.7100   17.8600  -35.2900 C   0  0  0  0  0  0  0  0  0  0  0  0
   -4.6950   17.3270  -33.0270 C   0  0  0  0  0  0  0  0  0  0  0  0
   -4.0110   18.5800  -32.9330 O   0  0  0  0  0  0  0  0  0  0  0  0
   -4.6830   19.7930  -32.7110 C   0  0  0  0  0  0  0  0  0  0  0  0
   -6.0870   19.8420  -32.8480 C   0  0  0  0  0  0  0  0  0  0  0  0
   -6.7650   21.0510  -32.6490 C   0  0  0  0  0  0  0  0  0  0  0  0
   -6.0570   22.2080  -32.3280 C   0  0  0  0  0  0  0  0  0  0  0  0
   -4.6630   22.1740  -32.1760 C   0  0  0  0  0  0  0  0  0  0  0  0
   -3.9610   23.3630  -31.7870 N   0  0  0  0  0  0  0  0  0  0  0  0
   -4.1330   24.1190  -30.2320 S   0  0  0  0  0  0  0  0  0  0  0  0
   -5.4990   23.8110  -29.6780 O   0  0  0  0  0  0  0  0  0  0  0  0
   -4.0030   25.6100  -30.3990 O   0  0  0  0  0  0  0  0  0  0  0  0
   -2.8860   23.5660  -29.1040 C   0  0  0  0  0  0  0  0  0  0  0  0
   -2.9640   22.2790  -28.5470 C   0  0  0  0  0  0  0  0  0  0  0  0
   -1.9660   21.8180  -27.6760 C   0  0  0  0  0  0  0  0  0  0  0  0
   -2.0680   20.1880  -26.9890 S   0  0  0  0  0  0  0  0  0  0  0  0
   -1.4860   20.1990  -25.6010 O   0  0  0  0  0  0  0  0  0  0  0  0
   -3.5180   19.7900  -26.8800 O   0  0  0  0  0  0  0  0  0  0  0  0
   -1.2220   18.9950  -27.9470 N   0  0  0  0  0  0  0  0  0  0  0  0
   -0.4750   18.0480  -27.1230 C   0  0  0  0  0  0  0  0  0  0  0  0
    0.6350   17.4970  -28.0070 C   0  0  0  0  0  0  0  0  0  0  0  0
    0.8210   18.5350  -29.1040 C   0  0  0  0  0  0  0  0  0  0  0  0
   -0.2320   19.6020  -28.8340 C   0  0  0  0  0  0  0  0  0  0  0  0
   -0.8760   22.6500  -27.3710 C   0  0  0  0  0  0  0  0  0  0  0  0
   -0.7960   23.9320  -27.9190 C   0  0  0  0  0  0  0  0  0  0  0  0
   -1.7940   24.3930  -28.7850 C   0  0  0  0  0  0  0  0  0  0  0  0
   -1.6880   25.6710  -29.3270 O   0  0  0  0  0  0  0  0  0  0  0  0
   -3.9550   20.9650  -32.3950 C   0  0  0  0  0  0  0  0  0  0  0  0
   -2.4710   20.9230  -32.2700 C   0  0  0  0  0  0  0  0  0  0  0  0
   -1.6810   20.1640  -33.1840 N   0  0  0  0  0  0  0  0  0  0  0  0
   -1.8920   21.5570  -31.3470 O   0  0  0  0  0  0  0  0  0  0  0  0
   -6.8750   18.5850  -33.1480 C   0  0  0  0  0  0  0  0  0  0  0  0
   -6.9629   15.8448  -32.7519 H   0  0  0  0  0  0  0  0  0  0  0  0
   -7.7533   16.2721  -34.3073 H   0  0  0  0  0  0  0  0  0  0  0  0
   -6.1988   15.3722  -34.3073 H   0  0  0  0  0  0  0  0  0  0  0  0
   -5.0186   18.7152  -35.3140 H   0  0  0  0  0  0  0  0  0  0  0  0
   -5.2492   17.0014  -35.8004 H   0  0  0  0  0  0  0  0  0  0  0  0
   -6.6460   18.1308  -35.8004 H   0  0  0  0  0  0  0  0  0  0  0  0
   -4.9238   16.9633  -32.0144 H   0  0  0  0  0  0  0  0  0  0  0  0
   -4.0484   16.6088  -33.5525 H   0  0  0  0  0  0  0  0  0  0  0  0
   -7.8601   21.0878  -32.7463 H   0  0  0  0  0  0  0  0  0  0  0  0
   -6.5967   23.1569  -32.1926 H   0  0  0  0  0  0  0  0  0  0  0  0
   -3.8146   21.6274  -28.7959 H   0  0  0  0  0  0  0  0  0  0  0  0
   -0.0470   18.5591  -26.2480 H   0  0  0  0  0  0  0  0  0  0  0  0
   -1.1251   17.2435  -26.7487 H   0  0  0  0  0  0  0  0  0  0  0  0
    1.5634   17.3746  -27.4298 H   0  0  0  0  0  0  0  0  0  0  0  0
    0.3835   16.5069  -28.4151 H   0  0  0  0  0  0  0  0  0  0  0  0
    1.8304   18.9695  -29.0556 H   0  0  0  0  0  0  0  0  0  0  0  0
    0.7103   18.0953  -30.1062 H   0  0  0  0  0  0  0  0  0  0  0  0
    0.2281   20.4753  -28.3485 H   0  0  0  0  0  0  0  0  0  0  0  0
   -0.6960   19.9478  -29.7695 H   0  0  0  0  0  0  0  0  0  0  0  0
   -0.0831   22.2906  -26.6985 H   0  0  0  0  0  0  0  0  0  0  0  0
    0.0552   24.5823  -27.6689 H   0  0  0  0  0  0  0  0  0  0  0  0
   -2.0240   19.2450  -33.5510 H   0  0  0  0  0  0  0  0  0  0  0  0
   -7.2778   18.1887  -32.2042 H   0  0  0  0  0  0  0  0  0  0  0  0
   -7.6765   18.8556  -33.8511 H   0  0  0  0  0  0  0  0  0  0  0  0
  1  2  1  0
  2  3  1  0
  2  4  1  0
  4  5  1  0
  5  6  1  0
  6  7  2  0
  7  8  1  0
  8  9  2  0
  9 10  1  0
 10 11  1  0
 11 12  1  0
 12 13  2  0
 12 14  2  0
 12 15  1  0
 15 16  2  0
 16 17  1  0
 17 18  1  0
 18 19  2  0
 18 20  2  0
 18 21  1  0
 21 22  1  0
 22 23  1  0
 23 24  1  0
 24 25  1  0
 17 26  2  0
 26 27  1  0
 27 28  2  0
 28 29  1  0
 10 30  2  0
 30 31  1  0
 31 32  1  0
 31 33  2  0
  7 34  1  0
 34  2  1  0
 30  6  1  0
 28 15  1  0
 25 21  1  0
  1 35  1  0
  1 36  1  0
  1 37  1  0
  3 38  1  0
  3 39  1  0
  3 40  1  0
  4 41  1  0
  4 42  1  0
  8 43  1  0
  9 44  1  0
 16 45  1  0
 22 46  1  0
 22 47  1  0
 23 48  1  0
 23 49  1  0
 24 50  1  0
 24 51  1  0
 25 52  1  0
 25 53  1  0
 26 54  1  0
 27 55  1  0
 32 56  1  0
 34 57  1  0
 34 58  1  0
M  CHG  3  11  -1  29  -1  32  -1
M  END
>  <UniqueID>  (37) 
37

>  <SMILES>  (37) 
CC1(C)COc2c(ccc([N-]S(=O)(=O)c3cc(S(=O)(=O)N4CCCC4)ccc3[O-])c2C([NH-])=O)C1

>  <Energy>  (37) 
71.86294124689657

>  <Genealogy>  (37) 
CC1(C)COc2c(ccc([N-]S(=O)(=O)c3cc(S(=O)(=O)N4CCCC4)ccc3[O-])c2C([NH-])=O)C1 (protonated)
CC1(C)COc2c(ccc([N-]S(=O)(=O)c3cc(S(=O)(=O)N4CCCC4)ccc3[O-])c2C([NH-])=O)C1 (3D coordinates assigned)
CC1(C)COc2c(ccc([N-]S(=O)(=O)c3cc(S(=O)(=O)N4CCCC4)ccc3[O-])c2C([NH-])=O)C1 (nonaromatic ring conformer: 71.86294124689657 kcal/mol)

>  <smiles>  (37) 
CC1(C)COc2c(ccc(NS(=O)(=O)c3cc(S(=O)(=O)N4CCCC4)ccc3O)c2C(N)=O)C1

>  <score_type>  (37) 
oracle

>  <origin>  (37) 
adgpu

>  <m_score__min__energy>  (37) 
-14.640000000000001

>  <m_primary>  (37) 
energy

$$$$
37:0
     RDKit          3D

 70 73  0  0  0  0  0  0  0  0999 V2000
    1.7030   19.4620  -35.8710 C   0  0  0  0  0  0  0  0  0  0  0  0
    0.4540   20.2320  -35.5510 C   0  0  0  0  0  0  0  0  0  0  0  0
   -0.0440   20.9650  -36.4470 O   0  0  0  0  0  0  0  0  0  0  0  0
   -0.1750   20.1450  -34.2520 N   0  0  0  0  0  0  0  0  0  0  0  0
   -1.3430   20.9840  -33.9320 C   0  0  0  0  0  0  0  0  0  0  0  0
   -1.2290   21.5380  -32.5050 C   0  0  0  0  0  0  0  0  0  0  0  0
   -0.8020   20.5030  -31.5500 N   0  0  0  0  0  0  0  0  0  0  0  0
   -0.3640   20.8900  -30.2350 C   0  0  0  0  0  0  0  0  0  0  0  0
    0.7060   20.4100  -29.7700 O   0  0  0  0  0  0  0  0  0  0  0  0
   -1.1390   21.8510  -29.4220 C   0  0  0  0  0  0  0  0  0  0  0  0
   -1.3090   21.6340  -28.0450 C   0  0  0  0  0  0  0  0  0  0  0  0
   -2.0730   22.5200  -27.2790 C   0  0  0  0  0  0  0  0  0  0  0  0
   -2.6890   23.6250  -27.8820 C   0  0  0  0  0  0  0  0  0  0  0  0
   -3.4450   24.5100  -27.1190 O   0  0  0  0  0  0  0  0  0  0  0  0
   -2.5410   23.8350  -29.2630 C   0  0  0  0  0  0  0  0  0  0  0  0
   -3.2140   24.9120  -29.9150 N   0  0  0  0  0  0  0  0  0  0  0  0
   -4.9380   24.9270  -30.0760 S   0  0  0  0  0  0  0  0  0  0  0  0
   -5.5870   25.0960  -28.7330 O   0  0  0  0  0  0  0  0  0  0  0  0
   -5.3330   26.0830  -30.9500 O   0  0  0  0  0  0  0  0  0  0  0  0
   -5.4670   23.4140  -30.8130 C   0  0  0  0  0  0  0  0  0  0  0  0
   -4.5390   22.4590  -31.2220 C   0  0  0  0  0  0  0  0  0  0  0  0
   -4.9690   21.2380  -31.7360 C   0  0  0  0  0  0  0  0  0  0  0  0
   -6.3430   20.9270  -31.8360 C   0  0  0  0  0  0  0  0  0  0  0  0
   -7.2970   21.9360  -31.5020 C   0  0  0  0  0  0  0  0  0  0  0  0
   -6.8310   23.1550  -30.9590 C   0  0  0  0  0  0  0  0  0  0  0  0
   -8.8130   21.7130  -31.6260 C   0  0  0  0  0  0  0  0  0  0  0  0
   -9.4160   21.5660  -30.2100 C   0  0  0  0  0  0  0  0  0  0  0  0
   -9.4890   22.9150  -32.3290 C   0  0  0  0  0  0  0  0  0  0  0  0
   -9.1380   20.4560  -32.4730 C   0  0  0  0  0  0  0  0  0  0  0  0
   -8.2570   19.2680  -32.1040 C   0  0  0  0  0  0  0  0  0  0  0  0
   -6.7570   19.5460  -32.3670 C   0  0  0  0  0  0  0  0  0  0  0  0
   -6.4610   19.4820  -33.8830 C   0  0  0  0  0  0  0  0  0  0  0  0
   -5.9630   18.4210  -31.6580 C   0  0  0  0  0  0  0  0  0  0  0  0
   -1.7590   22.9560  -30.0230 C   0  0  0  0  0  0  0  0  0  0  0  0
   -0.5880   19.1290  -32.0200 C   0  0  0  0  0  0  0  0  0  0  0  0
    0.2900   19.1430  -33.2750 C   0  0  0  0  0  0  0  0  0  0  0  0
    2.1961   19.1580  -34.9359 H   0  0  0  0  0  0  0  0  0  0  0  0
    1.4426   18.5674  -36.4558 H   0  0  0  0  0  0  0  0  0  0  0  0
    2.3852   20.0965  -36.4558 H   0  0  0  0  0  0  0  0  0  0  0  0
   -1.3932   21.8217  -34.6431 H   0  0  0  0  0  0  0  0  0  0  0  0
   -2.2534   20.3710  -34.0051 H   0  0  0  0  0  0  0  0  0  0  0  0
   -0.4923   22.3549  -32.4979 H   0  0  0  0  0  0  0  0  0  0  0  0
   -2.2217   21.8985  -32.1976 H   0  0  0  0  0  0  0  0  0  0  0  0
   -0.8387   20.7624  -27.5664 H   0  0  0  0  0  0  0  0  0  0  0  0
   -2.1910   22.3490  -26.1988 H   0  0  0  0  0  0  0  0  0  0  0  0
   -3.9390   25.2860  -27.5400 H   0  0  0  0  0  0  0  0  0  0  0  0
   -3.4626   22.6700  -31.1387 H   0  0  0  0  0  0  0  0  0  0  0  0
   -4.2237   20.5014  -32.0707 H   0  0  0  0  0  0  0  0  0  0  0  0
   -7.5595   23.9167  -30.6444 H   0  0  0  0  0  0  0  0  0  0  0  0
   -8.6362   21.7561  -29.4578 H   0  0  0  0  0  0  0  0  0  0  0  0
  -10.2331   22.2912  -30.0823 H   0  0  0  0  0  0  0  0  0  0  0  0
   -9.8077   20.5461  -30.0823 H   0  0  0  0  0  0  0  0  0  0  0  0
   -9.8800   23.6103  -31.5716 H   0  0  0  0  0  0  0  0  0  0  0  0
   -8.7509   23.4347  -32.9575 H   0  0  0  0  0  0  0  0  0  0  0  0
  -10.3165   22.5542  -32.9575 H   0  0  0  0  0  0  0  0  0  0  0  0
  -10.1903   20.1809  -32.3088 H   0  0  0  0  0  0  0  0  0  0  0  0
   -8.9478   20.7020  -33.5281 H   0  0  0  0  0  0  0  0  0  0  0  0
   -8.3935   19.0445  -31.0356 H   0  0  0  0  0  0  0  0  0  0  0  0
   -8.5574   18.4174  -32.7335 H   0  0  0  0  0  0  0  0  0  0  0  0
   -5.3968   19.2519  -34.0394 H   0  0  0  0  0  0  0  0  0  0  0  0
   -7.0776   18.6964  -34.3441 H   0  0  0  0  0  0  0  0  0  0  0  0
   -6.6980   20.4521  -34.3441 H   0  0  0  0  0  0  0  0  0  0  0  0
   -6.0488   18.5425  -30.5681 H   0  0  0  0  0  0  0  0  0  0  0  0
   -6.3719   17.4428  -31.9512 H   0  0  0  0  0  0  0  0  0  0  0  0
   -4.9044   18.4786  -31.9512 H   0  0  0  0  0  0  0  0  0  0  0  0
   -1.6300   23.1340  -31.1008 H   0  0  0  0  0  0  0  0  0  0  0  0
   -0.0893   18.5464  -31.2314 H   0  0  0  0  0  0  0  0  0  0  0  0
   -1.5589   18.6709  -32.2600 H   0  0  0  0  0  0  0  0  0  0  0  0
    1.3240   19.3807  -32.9846 H   0  0  0  0  0  0  0  0  0  0  0  0
    0.2324   18.1507  -33.7461 H   0  0  0  0  0  0  0  0  0  0  0  0
  1  2  1  0
  2  3  2  0
  2  4  1  0
  4  5  1  0
  5  6  1  0
  6  7  1  0
  7  8  1  0
  8  9  2  0
  8 10  1  0
 10 11  2  0
 11 12  1  0
 12 13  2  0
 13 14  1  0
 13 15  1  0
 15 16  1  0
 16 17  1  0
 17 18  2  0
 17 19  2  0
 17 20  1  0
 20 21  2  0
 21 22  1  0
 22 23  2  0
 23 24  1  0
 24 25  2  0
 24 26  1  0
 26 27  1  0
 26 28  1  0
 26 29  1  0
 29 30  1  0
 30 31  1  0
 31 32  1  0
 31 33  1  0
 15 34  2  0
  7 35  1  0
 35 36  1  0
 36  4  1  0
 34 10  1  0
 25 20  1  0
 31 23  1  0
  1 37  1  0
  1 38  1  0
  1 39  1  0
  5 40  1  0
  5 41  1  0
  6 42  1  0
  6 43  1  0
 11 44  1  0
 12 45  1  0
 14 46  1  0
 21 47  1  0
 22 48  1  0
 25 49  1  0
 27 50  1  0
 27 51  1  0
 27 52  1  0
 28 53  1  0
 28 54  1  0
 28 55  1  0
 29 56  1  0
 29 57  1  0
 30 58  1  0
 30 59  1  0
 32 60  1  0
 32 61  1  0
 32 62  1  0
 33 63  1  0
 33 64  1  0
 33 65  1  0
 34 66  1  0
 35 67  1  0
 35 68  1  0
 36 69  1  0
 36 70  1  0
M  CHG  1  16  -1
M  END
>  <UniqueID>  (38) 
38

>  <SMILES>  (38) 
CC(=O)N1CCN(C(=O)c2ccc(O)c([N-]S(=O)(=O)c3ccc4c(c3)C(C)(C)CCC4(C)C)c2)CC1

>  <Energy>  (38) 
85.58228092899905

>  <Genealogy>  (38) 
CC(=O)N1CCN(C(=O)c2ccc(O)c([N-]S(=O)(=O)c3ccc4c(c3)C(C)(C)CCC4(C)C)c2)CC1 (protonated)
CC(=O)N1CCN(C(=O)c2ccc(O)c([N-]S(=O)(=O)c3ccc4c(c3)C(C)(C)CCC4(C)C)c2)CC1 (3D coordinates assigned)
CC(=O)N1CCN(C(=O)c2ccc(O)c([N-]S(=O)(=O)c3ccc4c(c3)C(C)(C)CCC4(C)C)c2)CC1 (nonaromatic ring conformer: 85.58228092899905 kcal/mol)

>  <smiles>  (38) 
CC(=O)N1CCN(C(=O)c2ccc(O)c(NS(=O)(=O)c3ccc4c(c3)C(C)(C)CCC4(C)C)c2)CC1

>  <score_type>  (38) 
oracle

>  <origin>  (38) 
adgpu

>  <m_score__min__energy>  (38) 
-13.06

>  <m_primary>  (38) 
energy

$$$$
38:0
     RDKit          3D

 52 55  0  0  0  0  0  0  0  0999 V2000
    0.6370   20.8370  -28.1230 C   0  0  0  0  0  0  0  0  0  0  0  0
   -0.0980   22.0890  -27.9650 N   0  0  0  0  0  0  0  0  0  0  0  0
    0.3230   23.2280  -27.3620 C   0  0  0  0  0  0  0  0  0  0  0  0
    1.4310   23.3330  -26.7700 O   0  0  0  0  0  0  0  0  0  0  0  0
   -0.5610   24.2500  -27.4820 N   0  0  0  0  0  0  0  0  0  0  0  0
   -0.3910   25.6320  -27.0380 C   0  0  0  0  0  0  0  0  0  0  0  0
   -1.5570   23.7380  -28.2330 C   0  0  0  0  0  0  0  0  0  0  0  0
   -2.6950   24.3740  -28.7260 C   0  0  0  0  0  0  0  0  0  0  0  0
   -3.5760   23.6250  -29.5340 C   0  0  0  0  0  0  0  0  0  0  0  0
   -5.0500   24.3860  -30.1490 S   0  0  0  0  0  0  0  0  0  0  0  0
   -4.6810   25.3810  -31.2150 O   0  0  0  0  0  0  0  0  0  0  0  0
   -5.7540   25.1160  -29.0370 O   0  0  0  0  0  0  0  0  0  0  0  0
   -6.0980   23.1620  -30.8220 N   0  0  0  0  0  0  0  0  0  0  0  0
   -7.0480   22.6460  -29.8300 C   0  0  0  0  0  0  0  0  0  0  0  0
   -8.3380   22.3050  -30.5720 C   0  0  0  0  0  0  0  0  0  0  0  0
   -8.1460   22.8150  -31.9890 C   0  0  0  0  0  0  0  0  0  0  0  0
   -6.9070   23.6870  -31.9220 C   0  0  0  0  0  0  0  0  0  0  0  0
   -3.2980   22.2590  -29.8250 C   0  0  0  0  0  0  0  0  0  0  0  0
   -4.2190   21.5180  -30.6380 N   0  0  0  0  0  0  0  0  0  0  0  0
   -4.0730   21.2630  -32.3430 S   0  0  0  0  0  0  0  0  0  0  0  0
   -2.6610   20.8800  -32.6880 O   0  0  0  0  0  0  0  0  0  0  0  0
   -4.4450   22.5160  -33.0850 O   0  0  0  0  0  0  0  0  0  0  0  0
   -5.1620   19.9580  -32.7970 C   0  0  0  0  0  0  0  0  0  0  0  0
   -4.7760   19.0220  -33.7680 C   0  0  0  0  0  0  0  0  0  0  0  0
   -5.6290   17.9660  -34.1050 C   0  0  0  0  0  0  0  0  0  0  0  0
   -6.8690   17.8370  -33.4720 C   0  0  0  0  0  0  0  0  0  0  0  0
   -7.2570   18.7640  -32.4980 C   0  0  0  0  0  0  0  0  0  0  0  0
   -8.8130   18.6050  -31.7060 Cl  0  0  0  0  0  0  0  0  0  0  0  0
   -6.4040   19.8210  -32.1580 C   0  0  0  0  0  0  0  0  0  0  0  0
   -2.1220   21.6570  -29.3200 C   0  0  0  0  0  0  0  0  0  0  0  0
   -1.2790   22.4290  -28.5230 C   0  0  0  0  0  0  0  0  0  0  0  0
    0.8783   20.4259  -27.1317 H   0  0  0  0  0  0  0  0  0  0  0  0
    0.0186   20.1163  -28.6782 H   0  0  0  0  0  0  0  0  0  0  0  0
    1.5677   21.0257  -28.6782 H   0  0  0  0  0  0  0  0  0  0  0  0
   -0.3868   25.6660  -25.9385 H   0  0  0  0  0  0  0  0  0  0  0  0
    0.5623   26.0254  -27.4206 H   0  0  0  0  0  0  0  0  0  0  0  0
   -1.2205   26.2447  -27.4206 H   0  0  0  0  0  0  0  0  0  0  0  0
   -2.9002   25.4290  -28.4919 H   0  0  0  0  0  0  0  0  0  0  0  0
   -5.5090   22.3750  -31.1800 H   0  0  0  0  0  0  0  0  0  0  0  0
   -6.6394   21.7440  -29.3510 H   0  0  0  0  0  0  0  0  0  0  0  0
   -7.2359   23.3933  -29.0450 H   0  0  0  0  0  0  0  0  0  0  0  0
   -8.5023   21.2173  -30.5751 H   0  0  0  0  0  0  0  0  0  0  0  0
   -9.2151   22.7632  -30.0917 H   0  0  0  0  0  0  0  0  0  0  0  0
   -7.9930   21.9771  -32.6851 H   0  0  0  0  0  0  0  0  0  0  0  0
   -9.0240   23.3682  -32.3539 H   0  0  0  0  0  0  0  0  0  0  0  0
   -6.3483   23.6291  -32.8678 H   0  0  0  0  0  0  0  0  0  0  0  0
   -7.1682   24.7431  -31.7592 H   0  0  0  0  0  0  0  0  0  0  0  0
   -3.7998   19.1188  -34.2657 H   0  0  0  0  0  0  0  0  0  0  0  0
   -5.3239   17.2359  -34.8691 H   0  0  0  0  0  0  0  0  0  0  0  0
   -7.5395   17.0070  -33.7395 H   0  0  0  0  0  0  0  0  0  0  0  0
   -6.7080   20.5457  -31.3883 H   0  0  0  0  0  0  0  0  0  0  0  0
   -1.8797   20.6089  -29.5499 H   0  0  0  0  0  0  0  0  0  0  0  0
  1  2  1  0
  2  3  1  0
  3  4  2  0
  3  5  1  0
  5  6  1  0
  5  7  1  0
  7  8  2  0
  8  9  1  0
  9 10  1  0
 10 11  2  0
 10 12  2  0
 10 13  1  0
 13 14  1  0
 14 15  1  0
 15 16  1  0
 16 17  1  0
  9 18  2  0
 18 19  1  0
 19 20  1  0
 20 21  2  0
 20 22  2  0
 20 23  1  0
 23 24  2  0
 24 25  1  0
 25 26  2  0
 26 27  1  0
 27 28  1  0
 27 29  2  0
 18 30  1  0
 30 31  2  0
 31  2  1  0
 31  7  1  0
 17 13  1  0
 29 23  1  0
  1 32  1  0
  1 33  1  0
  1 34  1  0
  6 35  1  0
  6 36  1  0
  6 37  1  0
  8 38  1  0
 13 39  1  0
 14 40  1  0
 14 41  1  0
 15 42  1  0
 15 43  1  0
 16 44  1  0
 16 45  1  0
 17 46  1  0
 17 47  1  0
 24 48  1  0
 25 49  1  0
 26 50  1  0
 29 51  1  0
 30 52  1  0
M  CHG  2  13   1  19  -1
M  END
>  <UniqueID>  (39) 
39

>  <SMILES>  (39) 
Cn1c(=O)n(C)c2cc(S(=O)(=O)[NH+]3CCCC3)c([N-]S(=O)(=O)c3cccc(Cl)c3)cc21

>  <Energy>  (39) 
99.69805805437846

>  <Genealogy>  (39) 
Cn1c(=O)n(C)c2cc(S(=O)(=O)[NH+]3CCCC3)c([N-]S(=O)(=O)c3cccc(Cl)c3)cc21 (protonated)
Cn1c(=O)n(C)c2cc(S(=O)(=O)[NH+]3CCCC3)c([N-]S(=O)(=O)c3cccc(Cl)c3)cc21 (3D coordinates assigned)
Cn1c(=O)n(C)c2cc(S(=O)(=O)[NH+]3CCCC3)c([N-]S(=O)(=O)c3cccc(Cl)c3)cc21 (nonaromatic ring conformer: 99.69805805437846 kcal/mol)

>  <smiles>  (39) 
Cn1c(=O)n(C)c2cc(S(=O)(=O)N3CCCC3)c(NS(=O)(=O)c3cccc(Cl)c3)cc21

>  <score_type>  (39) 
oracle

>  <origin>  (39) 
adgpu

>  <m_score__min__energy>  (39) 
-9.2799999999999994

>  <m_primary>  (39) 
energy

$$$$
39:0
     RDKit          3D

 46 47  0  0  0  0  0  0  0  0999 V2000
    0.2380   21.5240  -35.8960 C   0  0  0  0  0  0  0  0  0  0  0  0
    0.3760   22.0500  -34.5940 O   0  0  0  0  0  0  0  0  0  0  0  0
   -0.1800   21.1640  -33.6430 C   0  0  0  0  0  0  0  0  0  0  0  0
   -1.3510   20.3940  -34.2590 C   0  0  0  0  0  0  0  0  0  0  0  0
   -2.4410   20.2130  -33.3000 N   0  0  0  0  0  0  0  0  0  0  0  0
   -3.3440   21.2120  -32.7980 C   0  0  0  0  0  0  0  0  0  0  0  0
   -2.8590   22.2910  -32.3630 O   0  0  0  0  0  0  0  0  0  0  0  0
   -4.8130   21.0320  -32.7820 C   0  0  0  0  0  0  0  0  0  0  0  0
   -5.3770   19.8890  -33.3750 C   0  0  0  0  0  0  0  0  0  0  0  0
   -6.7540   19.6690  -33.3310 C   0  0  0  0  0  0  0  0  0  0  0  0
   -7.5850   20.5660  -32.6620 C   0  0  0  0  0  0  0  0  0  0  0  0
   -7.0380   21.6810  -32.0250 C   0  0  0  0  0  0  0  0  0  0  0  0
   -5.6590   21.9320  -32.0830 C   0  0  0  0  0  0  0  0  0  0  0  0
   -5.1400   23.0640  -31.3690 N   0  0  0  0  0  0  0  0  0  0  0  0
   -5.9500   24.1720  -30.9510 C   0  0  0  0  0  0  0  0  0  0  0  0
   -7.1990   24.1460  -31.1090 O   0  0  0  0  0  0  0  0  0  0  0  0
   -5.3110   25.3740  -30.3350 C   0  0  0  0  0  0  0  0  0  0  0  0
   -3.8610   25.2630  -30.4690 N   0  0  0  0  0  0  0  0  0  0  0  0
   -3.2530   24.0990  -29.3330 S   0  0  0  0  0  0  0  0  0  0  0  0
   -4.3780   23.2280  -28.8450 O   0  0  0  0  0  0  0  0  0  0  0  0
   -2.2360   23.2280  -30.0150 O   0  0  0  0  0  0  0  0  0  0  0  0
   -2.4850   24.9220  -27.9760 C   0  0  0  0  0  0  0  0  0  0  0  0
   -1.2730   25.5990  -28.1700 C   0  0  0  0  0  0  0  0  0  0  0  0
   -0.6670   26.2720  -27.1050 C   0  0  0  0  0  0  0  0  0  0  0  0
   -1.2680   26.2740  -25.8430 C   0  0  0  0  0  0  0  0  0  0  0  0
   -0.4400   27.1960  -24.3890 Br  0  0  0  0  0  0  0  0  0  0  0  0
   -2.4800   25.6030  -25.6460 C   0  0  0  0  0  0  0  0  0  0  0  0
   -3.0890   24.9290  -26.7100 C   0  0  0  0  0  0  0  0  0  0  0  0
   -0.0407   20.4617  -35.8346 H   0  0  0  0  0  0  0  0  0  0  0  0
   -0.5452   22.0781  -36.4342 H   0  0  0  0  0  0  0  0  0  0  0  0
    1.1923   21.6222  -36.4342 H   0  0  0  0  0  0  0  0  0  0  0  0
    0.5914   20.4514  -33.3158 H   0  0  0  0  0  0  0  0  0  0  0  0
   -0.5448   21.7440  -32.7825 H   0  0  0  0  0  0  0  0  0  0  0  0
   -1.7288   20.9537  -35.1273 H   0  0  0  0  0  0  0  0  0  0  0  0
   -0.9887   19.3998  -34.5596 H   0  0  0  0  0  0  0  0  0  0  0  0
   -4.7255   19.1601  -33.8792 H   0  0  0  0  0  0  0  0  0  0  0  0
   -7.1848   18.7858  -33.8253 H   0  0  0  0  0  0  0  0  0  0  0  0
   -8.6714   20.3953  -32.6360 H   0  0  0  0  0  0  0  0  0  0  0  0
   -7.6943   22.3693  -31.4724 H   0  0  0  0  0  0  0  0  0  0  0  0
   -4.1620   23.0050  -31.0050 H   0  0  0  0  0  0  0  0  0  0  0  0
   -5.6604   26.2816  -30.8490 H   0  0  0  0  0  0  0  0  0  0  0  0
   -5.5823   25.4347  -29.2707 H   0  0  0  0  0  0  0  0  0  0  0  0
   -0.7978   25.6007  -29.1621 H   0  0  0  0  0  0  0  0  0  0  0  0
    0.2848   26.8011  -27.2605 H   0  0  0  0  0  0  0  0  0  0  0  0
   -2.9544   25.6055  -24.6536 H   0  0  0  0  0  0  0  0  0  0  0  0
   -4.0428   24.4038  -26.5536 H   0  0  0  0  0  0  0  0  0  0  0  0
  1  2  1  0
  2  3  1  0
  3  4  1  0
  4  5  1  0
  5  6  1  0
  6  7  2  0
  6  8  1  0
  8  9  2  0
  9 10  1  0
 10 11  2  0
 11 12  1  0
 12 13  2  0
 13 14  1  0
 14 15  1  0
 15 16  2  0
 15 17  1  0
 17 18  1  0
 18 19  1  0
 19 20  2  0
 19 21  2  0
 19 22  1  0
 22 23  2  0
 23 24  1  0
 24 25  2  0
 25 26  1  0
 25 27  1  0
 27 28  2  0
 13  8  1  0
 28 22  1  0
  1 29  1  0
  1 30  1  0
  1 31  1  0
  3 32  1  0
  3 33  1  0
  4 34  1  0
  4 35  1  0
  9 36  1  0
 10 37  1  0
 11 38  1  0
 12 39  1  0
 14 40  1  0
 17 41  1  0
 17 42  1  0
 23 43  1  0
 24 44  1  0
 27 45  1  0
 28 46  1  0
M  CHG  2   5  -1  18  -1
M  END
>  <UniqueID>  (40) 
40

>  <SMILES>  (40) 
COCC[N-]C(=O)c1ccccc1NC(=O)C[N-]S(=O)(=O)c1ccc(Br)cc1

>  <Energy>  (40) 
52.78819728530762

>  <Genealogy>  (40) 
COCC[N-]C(=O)c1ccccc1NC(=O)C[N-]S(=O)(=O)c1ccc(Br)cc1 (protonated)
COCC[N-]C(=O)c1ccccc1NC(=O)C[N-]S(=O)(=O)c1ccc(Br)cc1 (3D coordinates assigned)
COCC[N-]C(=O)c1ccccc1NC(=O)C[N-]S(=O)(=O)c1ccc(Br)cc1 (optimized conformer: 52.78819728530762 kcal/mol)

>  <smiles>  (40) 
COCCNC(=O)c1ccccc1NC(=O)CNS(=O)(=O)c1ccc(Br)cc1

>  <score_type>  (40) 
oracle

>  <origin>  (40) 
adgpu

>  <m_score__min__energy>  (40) 
-11.32

>  <m_primary>  (40) 
energy

$$$$
40:0
     RDKit          3D

 55 58  0  0  0  0  0  0  0  0999 V2000
   -5.6293   26.3041  -31.3269 H   0  0  0  0  0  0  0  0  0  0  0  0
   -5.7030   25.2390  -31.0620 C   0  0  0  0  0  0  0  0  0  0  0  0
   -6.8560   24.5610  -31.2950 N   0  0  0  0  0  0  0  0  0  0  0  0
   -6.9710   23.2460  -30.9770 C   0  0  0  0  0  0  0  0  0  0  0  0
   -8.0900   22.6290  -31.2080 N   0  0  0  0  0  0  0  0  0  0  0  0
   -8.3230   21.2210  -30.9030 C   0  0  0  0  0  0  0  0  0  0  0  0
   -8.1227   21.0384  -29.8369 H   0  0  0  0  0  0  0  0  0  0  0  0
   -9.3688   20.9645  -31.1280 H   0  0  0  0  0  0  0  0  0  0  0  0
   -7.4080   20.3720  -31.7370 C   0  0  0  0  0  0  0  0  0  0  0  0
   -6.6600   20.9470  -32.7780 C   0  0  0  0  0  0  0  0  0  0  0  0
   -6.7269   22.0284  -32.9682 H   0  0  0  0  0  0  0  0  0  0  0  0
   -5.8310   20.1500  -33.5730 C   0  0  0  0  0  0  0  0  0  0  0  0
   -5.2389   20.6080  -34.3790 H   0  0  0  0  0  0  0  0  0  0  0  0
   -5.7520   18.7680  -33.3460 C   0  0  0  0  0  0  0  0  0  0  0  0
   -4.6910   17.7560  -34.3240 S   0  0  0  0  0  0  0  0  0  0  0  0
   -3.3800   18.4580  -34.5480 O   0  0  0  0  0  0  0  0  0  0  0  0
   -5.3450   17.5370  -35.6600 O   0  0  0  0  0  0  0  0  0  0  0  0
   -4.4290   16.2070  -33.5490 N   0  0  0  0  0  0  0  0  0  0  0  0
   -2.9980   15.8490  -33.4890 C   0  0  0  0  0  0  0  0  0  0  0  0
   -2.4327   16.7214  -33.1294 H   0  0  0  0  0  0  0  0  0  0  0  0
   -2.9009   14.9897  -32.8091 H   0  0  0  0  0  0  0  0  0  0  0  0
   -2.4290   15.4240  -34.8550 C   0  0  0  0  0  0  0  0  0  0  0  0
   -2.1903   16.3297  -35.4318 H   0  0  0  0  0  0  0  0  0  0  0  0
   -1.5362   14.8111  -34.6619 H   0  0  0  0  0  0  0  0  0  0  0  0
   -3.4070   14.5640  -35.6760 C   0  0  0  0  0  0  0  0  0  0  0  0
   -3.8387   15.1829  -36.4764 H   0  0  0  0  0  0  0  0  0  0  0  0
   -2.8465   13.7130  -36.0903 H   0  0  0  0  0  0  0  0  0  0  0  0
   -4.5410   14.0090  -34.8150 C   0  0  0  0  0  0  0  0  0  0  0  0
   -5.2380   13.4475  -35.4544 H   0  0  0  0  0  0  0  0  0  0  0  0
   -4.1109   13.3493  -34.0470 H   0  0  0  0  0  0  0  0  0  0  0  0
   -5.3040   15.1500  -34.1160 C   0  0  0  0  0  0  0  0  0  0  0  0
   -5.9770   15.6162  -34.8507 H   0  0  0  0  0  0  0  0  0  0  0  0
   -5.8443   14.6987  -33.2708 H   0  0  0  0  0  0  0  0  0  0  0  0
   -6.5060   18.1920  -32.3160 C   0  0  0  0  0  0  0  0  0  0  0  0
   -6.4463   17.1090  -32.1329 H   0  0  0  0  0  0  0  0  0  0  0  0
   -7.3340   18.9880  -31.5200 C   0  0  0  0  0  0  0  0  0  0  0  0
   -7.9308   18.5270  -30.7192 H   0  0  0  0  0  0  0  0  0  0  0  0
   -5.9140   22.5910  -30.4240 N   0  0  0  0  0  0  0  0  0  0  0  0
   -4.7300   23.2200  -30.1800 C   0  0  0  0  0  0  0  0  0  0  0  0
   -3.6200   22.4430  -29.5820 C   0  0  0  0  0  0  0  0  0  0  0  0
   -3.4100   22.4240  -28.1910 C   0  0  0  0  0  0  0  0  0  0  0  0
   -4.0957   22.9708  -27.5271 H   0  0  0  0  0  0  0  0  0  0  0  0
   -2.3360   21.7150  -27.6480 C   0  0  0  0  0  0  0  0  0  0  0  0
   -2.1823   21.7019  -26.5589 H   0  0  0  0  0  0  0  0  0  0  0  0
   -1.4570   21.0230  -28.4830 C   0  0  0  0  0  0  0  0  0  0  0  0
   -0.6105   20.4698  -28.0501 H   0  0  0  0  0  0  0  0  0  0  0  0
   -1.6500   21.0310  -29.8730 C   0  0  0  0  0  0  0  0  0  0  0  0
   -0.6790   20.3270  -30.7750 C   0  0  0  0  0  0  0  0  0  0  0  0
    0.0629   19.7891  -30.1665 H   0  0  0  0  0  0  0  0  0  0  0  0
   -1.2213   19.6108  -31.4098 H   0  0  0  0  0  0  0  0  0  0  0  0
   -0.1669   21.0651  -31.4098 H   0  0  0  0  0  0  0  0  0  0  0  0
   -2.7190   21.7580  -30.4180 C   0  0  0  0  0  0  0  0  0  0  0  0
   -2.8541   21.7928  -31.5091 H   0  0  0  0  0  0  0  0  0  0  0  0
   -4.6110   24.5870  -30.4870 C   0  0  0  0  0  0  0  0  0  0  0  0
   -3.4530   25.3010  -30.2080 O   0  0  0  0  0  0  0  0  0  0  0  0
  1  2  1  0
  2  3  2  0
  3  4  1  0
  4  5  2  0
  5  6  1  0
  6  7  1  0
  6  8  1  0
  6  9  1  0
  9 10  2  0
 10 11  1  0
 10 12  1  0
 12 13  1  0
 12 14  2  0
 14 15  1  0
 15 16  2  0
 15 17  2  0
 15 18  1  0
 18 19  1  0
 19 20  1  0
 19 21  1  0
 19 22  1  0
 22 23  1  0
 22 24  1  0
 22 25  1  0
 25 26  1  0
 25 27  1  0
 25 28  1  0
 28 29  1  0
 28 30  1  0
 28 31  1  0
 31 32  1  0
 31 33  1  0
 14 34  1  0
 34 35  1  0
 34 36  2  0
 36 37  1  0
  4 38  1  0
 38 39  1  0
 39 40  1  0
 40 41  2  0
 41 42  1  0
 41 43  1  0
 43 44  1  0
 43 45  2  0
 45 46  1  0
 45 47  1  0
 47 48  1  0
 48 49  1  0
 48 50  1  0
 48 51  1  0
 47 52  2  0
 52 53  1  0
 39 54  2  0
 54 55  1  0
 54  2  1  0
 36  9  1  0
 52 40  1  0
 31 18  1  0
M  CHG  2  38  -1  55  -1
M  END
>  <UniqueID>  (41) 
41

>  <SMILES>  (41) 
Cc1cccc(-c2[n-]/c(=N\Cc3ccc(S(=O)(=O)N4CCCCC4)cc3)ncc2[O-])c1

>  <Energy>  (41) 
69.66218900026153

>  <Genealogy>  (41) 
Cc1cccc(-c2[n-]c(=NCc3ccc(S(=O)(=O)N4CCCCC4)cc3)ncc2[O-])c1 (protonated)
Cc1cccc(-c2[n-]/c(=N\Cc3ccc(S(=O)(=O)N4CCCCC4)cc3)ncc2[O-])c1 (cis-trans isomerization)
Cc1cccc(-c2[n-]/c(=N\Cc3ccc(S(=O)(=O)N4CCCCC4)cc3)ncc2[O-])c1 (3D coordinates assigned)
Cc1cccc(-c2[n-]/c(=N\Cc3ccc(S(=O)(=O)N4CCCCC4)cc3)ncc2[O-])c1 (nonaromatic ring conformer: 69.66218900026153 kcal/mol)

>  <smiles>  (41) 
Cc1cccc(-c2[nH]c(=NCc3ccc(S(=O)(=O)N4CCCCC4)cc3)ncc2O)c1

>  <score_type>  (41) 
oracle

>  <origin>  (41) 
adgpu

>  <m_score__min__energy>  (41) 
-12.890000000000001

>  <m_primary>  (41) 
energy

$$$$
41:0
     RDKit          3D

 57 61  0  0  0  0  0  0  0  0999 V2000
   -9.2090   19.7790  -32.6720 C   0  0  0  0  0  0  0  0  0  0  0  0
   -8.1010   20.7530  -32.6420 N   0  0  0  0  0  0  0  0  0  0  0  0
   -6.8080   20.0390  -32.6470 C   0  0  0  0  0  0  0  0  0  0  0  0
   -5.6710   21.0410  -32.8690 C   0  0  0  0  0  0  0  0  0  0  0  0
   -5.7920   22.2220  -31.9400 C   0  0  0  0  0  0  0  0  0  0  0  0
   -4.6790   23.0480  -31.7370 C   0  0  0  0  0  0  0  0  0  0  0  0
   -4.7330   24.1180  -30.8240 C   0  0  0  0  0  0  0  0  0  0  0  0
   -3.5500   24.8510  -30.4680 N   0  0  0  0  0  0  0  0  0  0  0  0
   -2.6360   24.5830  -29.0140 S   0  0  0  0  0  0  0  0  0  0  0  0
   -1.4250   25.4760  -28.9990 O   0  0  0  0  0  0  0  0  0  0  0  0
   -3.4940   24.9230  -27.8280 O   0  0  0  0  0  0  0  0  0  0  0  0
   -2.1700   22.8840  -28.9070 C   0  0  0  0  0  0  0  0  0  0  0  0
   -2.9090   21.9810  -28.1050 C   0  0  0  0  0  0  0  0  0  0  0  0
   -2.4740   20.6570  -27.9440 C   0  0  0  0  0  0  0  0  0  0  0  0
   -1.3240   20.2540  -28.6190 C   0  0  0  0  0  0  0  0  0  0  0  0
   -0.6350   21.1050  -29.4320 C   0  0  0  0  0  0  0  0  0  0  0  0
   -1.0230   22.4350  -29.5850 C   0  0  0  0  0  0  0  0  0  0  0  0
    0.5120   20.4000  -30.0470 C   0  0  0  0  0  0  0  0  0  0  0  0
    0.3140   18.9710  -29.7150 N   0  0  0  0  0  0  0  0  0  0  0  0
   -0.1110   18.1560  -30.8830 C   0  0  0  0  0  0  0  0  0  0  0  0
   -0.6510   18.9610  -32.0580 C   0  0  0  0  0  0  0  0  0  0  0  0
   -1.9830   19.4150  -32.0620 C   0  0  0  0  0  0  0  0  0  0  0  0
   -2.4680   20.1720  -33.1310 C   0  0  0  0  0  0  0  0  0  0  0  0
   -1.6230   20.4550  -34.2070 C   0  0  0  0  0  0  0  0  0  0  0  0
   -0.3470   19.9810  -34.2130 N   0  0  0  0  0  0  0  0  0  0  0  0
    0.1510   19.2450  -33.1800 C   0  0  0  0  0  0  0  0  0  0  0  0
   -0.6530   18.9370  -28.5910 C   0  0  0  0  0  0  0  0  0  0  0  0
   -5.9590   24.4300  -30.2100 C   0  0  0  0  0  0  0  0  0  0  0  0
   -6.0710   25.4990  -29.3190 O   0  0  0  0  0  0  0  0  0  0  0  0
   -7.0920   23.6480  -30.4670 C   0  0  0  0  0  0  0  0  0  0  0  0
   -7.0150   22.5320  -31.3160 C   0  0  0  0  0  0  0  0  0  0  0  0
   -8.1970   21.6020  -31.4300 C   0  0  0  0  0  0  0  0  0  0  0  0
   -9.5002   19.5230  -31.6426 H   0  0  0  0  0  0  0  0  0  0  0  0
  -10.0694   20.2185  -33.1979 H   0  0  0  0  0  0  0  0  0  0  0  0
   -8.8834   18.8694  -33.1979 H   0  0  0  0  0  0  0  0  0  0  0  0
   -6.6659   19.5315  -31.6815 H   0  0  0  0  0  0  0  0  0  0  0  0
   -6.8037   19.2949  -33.4571 H   0  0  0  0  0  0  0  0  0  0  0  0
   -4.7098   20.5384  -32.6862 H   0  0  0  0  0  0  0  0  0  0  0  0
   -5.7282   21.4069  -33.9048 H   0  0  0  0  0  0  0  0  0  0  0  0
   -3.7518   22.8582  -32.2977 H   0  0  0  0  0  0  0  0  0  0  0  0
   -3.8289   22.3193  -27.6056 H   0  0  0  0  0  0  0  0  0  0  0  0
   -3.0265   19.9555  -27.3016 H   0  0  0  0  0  0  0  0  0  0  0  0
   -0.4440   23.1190  -30.2228 H   0  0  0  0  0  0  0  0  0  0  0  0
    0.5145   20.5457  -31.1373 H   0  0  0  0  0  0  0  0  0  0  0  0
    1.4749   20.7787  -29.6737 H   0  0  0  0  0  0  0  0  0  0  0  0
    0.7580   17.5796  -31.2331 H   0  0  0  0  0  0  0  0  0  0  0  0
   -0.9391   17.5215  -30.5343 H   0  0  0  0  0  0  0  0  0  0  0  0
   -2.6460   19.1723  -31.2185 H   0  0  0  0  0  0  0  0  0  0  0  0
   -3.5041   20.5414  -33.1257 H   0  0  0  0  0  0  0  0  0  0  0  0
   -1.9888   21.0608  -35.0492 H   0  0  0  0  0  0  0  0  0  0  0  0
    1.1845   18.8709  -33.2228 H   0  0  0  0  0  0  0  0  0  0  0  0
   -1.3843   18.1281  -28.7353 H   0  0  0  0  0  0  0  0  0  0  0  0
   -0.1577   18.7477  -27.6273 H   0  0  0  0  0  0  0  0  0  0  0  0
   -5.3340   25.7440  -28.6760 H   0  0  0  0  0  0  0  0  0  0  0  0
   -8.0522   23.9106  -29.9990 H   0  0  0  0  0  0  0  0  0  0  0  0
   -8.2305   20.9548  -30.5412 H   0  0  0  0  0  0  0  0  0  0  0  0
   -9.1107   22.2100  -31.5041 H   0  0  0  0  0  0  0  0  0  0  0  0
  1  2  1  0
  2  3  1  0
  3  4  1  0
  4  5  1  0
  5  6  2  0
  6  7  1  0
  7  8  1  0
  8  9  1  0
  9 10  2  0
  9 11  2  0
  9 12  1  0
 12 13  2  0
 13 14  1  0
 14 15  2  0
 15 16  1  0
 16 17  2  0
 16 18  1  0
 18 19  1  0
 19 20  1  0
 20 21  1  0
 21 22  2  0
 22 23  1  0
 23 24  2  0
 24 25  1  0
 25 26  2  0
 19 27  1  0
  7 28  2  0
 28 29  1  0
 28 30  1  0
 30 31  2  0
 31 32  1  0
 32  2  1  0
 31  5  1  0
 17 12  1  0
 26 21  1  0
 27 15  1  0
  1 33  1  0
  1 34  1  0
  1 35  1  0
  3 36  1  0
  3 37  1  0
  4 38  1  0
  4 39  1  0
  6 40  1  0
 13 41  1  0
 14 42  1  0
 17 43  1  0
 18 44  1  0
 18 45  1  0
 20 46  1  0
 20 47  1  0
 22 48  1  0
 23 49  1  0
 24 50  1  0
 26 51  1  0
 27 52  1  0
 27 53  1  0
 29 54  1  0
 30 55  1  0
 32 56  1  0
 32 57  1  0
M  CHG  1   8  -1
M  END
>  <UniqueID>  (42) 
42

>  <SMILES>  (42) 
CN1CCc2cc([N-]S(=O)(=O)c3ccc4c(c3)CN(Cc3cccnc3)C4)c(O)cc2C1

>  <Energy>  (42) 
86.42432683104253

>  <Genealogy>  (42) 
CN1CCc2cc([N-]S(=O)(=O)c3ccc4c(c3)CN(Cc3cccnc3)C4)c(O)cc2C1 (protonated)
CN1CCc2cc([N-]S(=O)(=O)c3ccc4c(c3)CN(Cc3cccnc3)C4)c(O)cc2C1 (3D coordinates assigned)
CN1CCc2cc([N-]S(=O)(=O)c3ccc4c(c3)CN(Cc3cccnc3)C4)c(O)cc2C1 (nonaromatic ring conformer: 86.42432683104253 kcal/mol)

>  <smiles>  (42) 
CN1CCc2cc(NS(=O)(=O)c3ccc4c(c3)CN(Cc3cccnc3)C4)c(O)cc2C1

>  <score_type>  (42) 
oracle

>  <origin>  (42) 
adgpu

>  <m_score__min__energy>  (42) 
-12.82

>  <m_primary>  (42) 
energy

$$$$
42:0
     RDKit          3D

 48 51  0  0  0  0  0  0  0  0999 V2000
   -4.6920   16.6760  -33.2910 C   0  0  0  0  0  0  0  0  0  0  0  0
   -5.7830   17.5380  -32.6290 C   0  0  0  0  0  0  0  0  0  0  0  0
   -6.0920   16.9600  -31.2310 C   0  0  0  0  0  0  0  0  0  0  0  0
   -7.0750   17.5080  -33.5100 C   0  0  0  0  0  0  0  0  0  0  0  0
   -8.0860   18.4870  -33.0800 N   0  0  0  0  0  0  0  0  0  0  0  0
   -7.7310   19.5940  -32.5040 C   0  0  0  0  0  0  0  0  0  0  0  0
   -8.5740   20.7430  -32.1910 C   0  0  0  0  0  0  0  0  0  0  0  0
   -9.8140   20.8540  -32.3710 O   0  0  0  0  0  0  0  0  0  0  0  0
   -7.6610   21.7520  -31.6630 C   0  0  0  0  0  0  0  0  0  0  0  0
   -7.9010   23.0600  -31.2520 C   0  0  0  0  0  0  0  0  0  0  0  0
   -6.8070   23.8290  -30.8220 C   0  0  0  0  0  0  0  0  0  0  0  0
   -5.5020   23.2850  -30.8110 C   0  0  0  0  0  0  0  0  0  0  0  0
   -4.1460   24.2870  -30.3020 S   0  0  0  0  0  0  0  0  0  0  0  0
   -4.3160   25.6920  -30.8100 O   0  0  0  0  0  0  0  0  0  0  0  0
   -2.8770   23.7230  -30.8740 O   0  0  0  0  0  0  0  0  0  0  0  0
   -4.0360   24.2960  -28.5690 N   0  0  0  0  0  0  0  0  0  0  0  0
   -2.7040   23.8680  -28.1540 C   0  0  0  0  0  0  0  0  0  0  0  0
   -2.0660   24.9570  -27.3380 C   0  0  0  0  0  0  0  0  0  0  0  0
   -2.2070   24.9630  -25.9400 C   0  0  0  0  0  0  0  0  0  0  0  0
   -1.6420   25.9890  -25.1770 C   0  0  0  0  0  0  0  0  0  0  0  0
   -0.9410   27.0220  -25.8030 C   0  0  0  0  0  0  0  0  0  0  0  0
   -0.8080   27.0350  -27.1930 C   0  0  0  0  0  0  0  0  0  0  0  0
   -1.3720   26.0120  -27.9640 C   0  0  0  0  0  0  0  0  0  0  0  0
   -1.2410   26.0510  -29.3480 O   0  0  0  0  0  0  0  0  0  0  0  0
   -5.2850   21.9600  -31.2410 C   0  0  0  0  0  0  0  0  0  0  0  0
   -6.3850   21.2120  -31.6610 C   0  0  0  0  0  0  0  0  0  0  0  0
   -6.3870   19.8660  -32.1370 N   0  0  0  0  0  0  0  0  0  0  0  0
   -5.2720   18.9990  -32.4950 C   0  0  0  0  0  0  0  0  0  0  0  0
   -4.0824   16.1944  -32.5122 H   0  0  0  0  0  0  0  0  0  0  0  0
   -5.1639   15.9042  -33.9168 H   0  0  0  0  0  0  0  0  0  0  0  0
   -4.0503   17.3137  -33.9168 H   0  0  0  0  0  0  0  0  0  0  0  0
   -5.7227   17.6508  -30.4588 H   0  0  0  0  0  0  0  0  0  0  0  0
   -7.1788   16.8321  -31.1191 H   0  0  0  0  0  0  0  0  0  0  0  0
   -5.5947   15.9852  -31.1191 H   0  0  0  0  0  0  0  0  0  0  0  0
   -6.7949   17.7273  -34.5509 H   0  0  0  0  0  0  0  0  0  0  0  0
   -7.5206   16.5076  -33.4073 H   0  0  0  0  0  0  0  0  0  0  0  0
   -9.0820   18.3410  -33.3590 H   0  0  0  0  0  0  0  0  0  0  0  0
   -8.9179   23.4793  -31.2636 H   0  0  0  0  0  0  0  0  0  0  0  0
   -6.9673   24.8655  -30.4903 H   0  0  0  0  0  0  0  0  0  0  0  0
   -2.7837   22.9533  -27.5483 H   0  0  0  0  0  0  0  0  0  0  0  0
   -2.0884   23.6635  -29.0424 H   0  0  0  0  0  0  0  0  0  0  0  0
   -2.7651   24.1558  -25.4432 H   0  0  0  0  0  0  0  0  0  0  0  0
   -1.7497   25.9827  -24.0823 H   0  0  0  0  0  0  0  0  0  0  0  0
   -0.4932   27.8261  -25.2006 H   0  0  0  0  0  0  0  0  0  0  0  0
   -0.2583   27.8518  -27.6836 H   0  0  0  0  0  0  0  0  0  0  0  0
   -4.2738   21.5270  -31.2452 H   0  0  0  0  0  0  0  0  0  0  0  0
   -4.8431   19.3280  -33.4530 H   0  0  0  0  0  0  0  0  0  0  0  0
   -4.4990   19.0498  -31.7140 H   0  0  0  0  0  0  0  0  0  0  0  0
  1  2  1  0
  2  3  1  0
  2  4  1  0
  4  5  1  0
  5  6  2  0
  6  7  1  0
  7  8  2  0
  7  9  1  0
  9 10  2  0
 10 11  1  0
 11 12  2  0
 12 13  1  0
 13 14  2  0
 13 15  2  0
 13 16  1  0
 16 17  1  0
 17 18  1  0
 18 19  2  0
 19 20  1  0
 20 21  2  0
 21 22  1  0
 22 23  2  0
 23 24  1  0
 12 25  1  0
 25 26  2  0
 26 27  1  0
 27 28  1  0
 28  2  1  0
 27  6  1  0
 26  9  1  0
 23 18  1  0
  1 29  1  0
  1 30  1  0
  1 31  1  0
  3 32  1  0
  3 33  1  0
  3 34  1  0
  4 35  1  0
  4 36  1  0
  5 37  1  0
 10 38  1  0
 11 39  1  0
 17 40  1  0
 17 41  1  0
 19 42  1  0
 20 43  1  0
 21 44  1  0
 22 45  1  0
 25 46  1  0
 28 47  1  0
 28 48  1  0
M  CHG  3   5   1  16  -1  24  -1
M  END
>  <UniqueID>  (43) 
43

>  <SMILES>  (43) 
CC1(C)C[NH+]=C2C(=O)c3ccc(S(=O)(=O)[N-]Cc4ccccc4[O-])cc3N2C1

>  <Energy>  (43) 
80.77621064690561

>  <Genealogy>  (43) 
CC1(C)C[NH+]=C2C(=O)c3ccc(S(=O)(=O)[N-]Cc4ccccc4[O-])cc3N2C1 (protonated)
CC1(C)C[NH+]=C2C(=O)c3ccc(S(=O)(=O)[N-]Cc4ccccc4[O-])cc3N2C1 (3D coordinates assigned)
CC1(C)C[NH+]=C2C(=O)c3ccc(S(=O)(=O)[N-]Cc4ccccc4[O-])cc3N2C1 (nonaromatic ring conformer: 80.77621064690561 kcal/mol)

>  <smiles>  (43) 
CC1(C)CN=C2C(=O)c3ccc(S(=O)(=O)NCc4ccccc4O)cc3N2C1

>  <score_type>  (43) 
oracle

>  <origin>  (43) 
adgpu

>  <m_score__min__energy>  (43) 
-14.01

>  <m_primary>  (43) 
energy

$$$$
43:0
     RDKit          3D

 48 51  0  0  0  0  0  0  0  0999 V2000
   -7.2050   19.6840  -33.1140 C   0  0  0  0  0  0  0  0  0  0  0  0
   -6.9620   20.9360  -32.3240 C   0  0  0  0  0  0  0  0  0  0  0  0
   -7.9990   21.5100  -31.5720 C   0  0  0  0  0  0  0  0  0  0  0  0
   -7.7830   22.6940  -30.8640 C   0  0  0  0  0  0  0  0  0  0  0  0
   -6.5360   23.3350  -30.9180 C   0  0  0  0  0  0  0  0  0  0  0  0
   -6.2910   24.5890  -30.1220 C   0  0  0  0  0  0  0  0  0  0  0  0
   -5.2850   24.3520  -29.0880 N   0  0  0  0  0  0  0  0  0  0  0  0
   -3.8870   24.5310  -29.3510 C   0  0  0  0  0  0  0  0  0  0  0  0
   -3.5060   24.9140  -30.4900 O   0  0  0  0  0  0  0  0  0  0  0  0
   -2.8970   24.3100  -28.2770 C   0  0  0  0  0  0  0  0  0  0  0  0
   -2.0490   25.3070  -27.8020 C   0  0  0  0  0  0  0  0  0  0  0  0
   -1.2410   24.6850  -26.8820 C   0  0  0  0  0  0  0  0  0  0  0  0
   -0.1890   25.1800  -26.1170 C   0  0  0  0  0  0  0  0  0  0  0  0
    0.4710   24.3130  -25.2950 N   0  0  0  0  0  0  0  0  0  0  0  0
    0.1300   22.9900  -25.2140 C   0  0  0  0  0  0  0  0  0  0  0  0
   -0.9280   22.4770  -25.9850 C   0  0  0  0  0  0  0  0  0  0  0  0
   -1.6110   23.3700  -26.8150 C   0  0  0  0  0  0  0  0  0  0  0  0
   -2.6480   23.1220  -27.6490 N   0  0  0  0  0  0  0  0  0  0  0  0
   -3.3700   21.8470  -27.7980 C   0  0  0  0  0  0  0  0  0  0  0  0
   -2.4230   20.6650  -27.7960 C   0  0  0  0  0  0  0  0  0  0  0  0
   -2.5150   19.7080  -26.7680 C   0  0  0  0  0  0  0  0  0  0  0  0
   -1.6580   18.6070  -26.7410 C   0  0  0  0  0  0  0  0  0  0  0  0
   -0.6860   18.4530  -27.7300 C   0  0  0  0  0  0  0  0  0  0  0  0
   -0.5620   19.4060  -28.7420 C   0  0  0  0  0  0  0  0  0  0  0  0
   -1.4160   20.5150  -28.7800 C   0  0  0  0  0  0  0  0  0  0  0  0
   -1.1650   21.7020  -30.0530 Cl  0  0  0  0  0  0  0  0  0  0  0  0
   -5.5000   22.7610  -31.6700 C   0  0  0  0  0  0  0  0  0  0  0  0
   -5.7150   21.5750  -32.3780 C   0  0  0  0  0  0  0  0  0  0  0  0
   -7.3684   18.8419  -32.4254 H   0  0  0  0  0  0  0  0  0  0  0  0
   -8.0941   19.8172  -33.7479 H   0  0  0  0  0  0  0  0  0  0  0  0
   -6.3307   19.4749  -33.7479 H   0  0  0  0  0  0  0  0  0  0  0  0
   -8.9858   21.0251  -31.5403 H   0  0  0  0  0  0  0  0  0  0  0  0
   -8.5948   23.1265  -30.2607 H   0  0  0  0  0  0  0  0  0  0  0  0
   -5.9365   25.3823  -30.7966 H   0  0  0  0  0  0  0  0  0  0  0  0
   -7.2316   24.8930  -29.6395 H   0  0  0  0  0  0  0  0  0  0  0  0
   -5.5820   24.0070  -28.1450 H   0  0  0  0  0  0  0  0  0  0  0  0
   -2.0303   26.3658  -28.0998 H   0  0  0  0  0  0  0  0  0  0  0  0
    0.1021   26.2393  -26.1732 H   0  0  0  0  0  0  0  0  0  0  0  0
    0.6880   22.3229  -24.5405 H   0  0  0  0  0  0  0  0  0  0  0  0
   -1.2072   21.4141  -25.9367 H   0  0  0  0  0  0  0  0  0  0  0  0
   -4.0780   21.7383  -26.9632 H   0  0  0  0  0  0  0  0  0  0  0  0
   -3.8984   21.8622  -28.7627 H   0  0  0  0  0  0  0  0  0  0  0  0
   -3.2704   19.8292  -25.9776 H   0  0  0  0  0  0  0  0  0  0  0  0
   -1.7489   17.8596  -25.9390 H   0  0  0  0  0  0  0  0  0  0  0  0
   -0.0170   17.5800  -27.7121 H   0  0  0  0  0  0  0  0  0  0  0  0
    0.2115   19.2852  -29.5147 H   0  0  0  0  0  0  0  0  0  0  0  0
   -4.5136   23.2467  -31.7027 H   0  0  0  0  0  0  0  0  0  0  0  0
   -4.9028   21.1413  -32.9798 H   0  0  0  0  0  0  0  0  0  0  0  0
  1  2  1  0
  2  3  2  0
  3  4  1  0
  4  5  2  0
  5  6  1  0
  6  7  1  0
  7  8  1  0
  8  9  2  0
  8 10  1  0
 10 11  2  0
 11 12  1  0
 12 13  2  0
 13 14  1  0
 14 15  2  0
 15 16  1  0
 16 17  2  0
 17 18  1  0
 18 19  1  0
 19 20  1  0
 20 21  2  0
 21 22  1  0
 22 23  2  0
 23 24  1  0
 24 25  2  0
 25 26  1  0
  5 27  1  0
 27 28  2  0
 28  2  1  0
 18 10  1  0
 25 20  1  0
 17 12  1  0
  1 29  1  0
  1 30  1  0
  1 31  1  0
  3 32  1  0
  4 33  1  0
  6 34  1  0
  6 35  1  0
  7 36  1  0
 11 37  1  0
 13 38  1  0
 15 39  1  0
 16 40  1  0
 19 41  1  0
 19 42  1  0
 21 43  1  0
 22 44  1  0
 23 45  1  0
 24 46  1  0
 27 47  1  0
 28 48  1  0
M  END
>  <UniqueID>  (44) 
44

>  <SMILES>  (44) 
Cc1ccc(CNC(=O)c2cc3cnccc3n2Cc2ccccc2Cl)cc1

>  <Energy>  (44) 
89.38108868748299

>  <Genealogy>  (44) 
Cc1ccc(CNC(=O)c2cc3cnccc3n2Cc2ccccc2Cl)cc1 (3D coordinates assigned)
Cc1ccc(CNC(=O)c2cc3cnccc3n2Cc2ccccc2Cl)cc1 (optimized conformer: 89.38108868748299 kcal/mol)

>  <smiles>  (44) 
Cc1ccc(CNC(=O)c2cc3cnccc3n2Cc2ccccc2Cl)cc1

>  <score_type>  (44) 
oracle

>  <origin>  (44) 
adgpu

>  <m_score__min__energy>  (44) 
-9.3300000000000001

>  <m_primary>  (44) 
energy

$$$$
44:0
     RDKit          3D

 58 62  0  0  0  0  0  0  0  0999 V2000
   -5.4246   25.3747  -32.2180 H   0  0  0  0  0  0  0  0  0  0  0  0
   -5.6760   24.5030  -31.5960 C   0  0  0  0  0  0  0  0  0  0  0  0
   -4.7620   24.0040  -30.7240 N   0  0  0  0  0  0  0  0  0  0  0  0
   -5.0520   22.9300  -29.9370 C   0  0  0  0  0  0  0  0  0  0  0  0
   -4.1710   22.4340  -29.1180 N   0  0  0  0  0  0  0  0  0  0  0  0
   -2.8580   22.9530  -28.8450 C   0  0  0  0  0  0  0  0  0  0  0  0
   -1.7460   22.6140  -29.6360 C   0  0  0  0  0  0  0  0  0  0  0  0
   -1.8645   21.9117  -30.4743 H   0  0  0  0  0  0  0  0  0  0  0  0
   -0.4930   23.1640  -29.3630 C   0  0  0  0  0  0  0  0  0  0  0  0
    0.3748   22.8800  -29.9764 H   0  0  0  0  0  0  0  0  0  0  0  0
   -0.3350   24.0740  -28.3140 C   0  0  0  0  0  0  0  0  0  0  0  0
    0.8910   24.6000  -28.0610 N   0  0  0  0  0  0  0  0  0  0  0  0
    1.1030   25.4920  -27.0600 C   0  0  0  0  0  0  0  0  0  0  0  0
    2.4740   26.0440  -26.8320 C   0  0  0  0  0  0  0  0  0  0  0  0
    2.6635   26.1203  -25.7511 H   0  0  0  0  0  0  0  0  0  0  0  0
    3.2189   25.3757  -27.2886 H   0  0  0  0  0  0  0  0  0  0  0  0
    2.5480   27.0420  -27.2886 H   0  0  0  0  0  0  0  0  0  0  0  0
    0.0340   25.9010  -26.2550 C   0  0  0  0  0  0  0  0  0  0  0  0
    0.2019   26.6276  -25.4464 H   0  0  0  0  0  0  0  0  0  0  0  0
   -1.2530   25.3850  -26.4780 C   0  0  0  0  0  0  0  0  0  0  0  0
   -2.3870   25.8410  -25.5950 C   0  0  0  0  0  0  0  0  0  0  0  0
   -2.0993   25.7253  -24.5396 H   0  0  0  0  0  0  0  0  0  0  0  0
   -2.6094   26.8985  -25.8006 H   0  0  0  0  0  0  0  0  0  0  0  0
   -3.2796   25.2319  -25.8006 H   0  0  0  0  0  0  0  0  0  0  0  0
   -1.4480   24.4530  -27.5250 C   0  0  0  0  0  0  0  0  0  0  0  0
   -2.7090   23.8890  -27.8130 C   0  0  0  0  0  0  0  0  0  0  0  0
   -3.5859   24.1879  -27.2200 H   0  0  0  0  0  0  0  0  0  0  0  0
   -6.2700   22.3350  -30.0380 N   0  0  0  0  0  0  0  0  0  0  0  0
   -7.2120   22.8020  -30.9000 C   0  0  0  0  0  0  0  0  0  0  0  0
   -8.8010   21.9850  -31.0050 S   0  0  0  0  0  0  0  0  0  0  0  0
   -8.1030   20.5360  -31.7980 C   0  0  0  0  0  0  0  0  0  0  0  0
   -8.7350   19.2940  -31.6670 C   0  0  0  0  0  0  0  0  0  0  0  0
   -9.6622   19.2074  -31.0815 H   0  0  0  0  0  0  0  0  0  0  0  0
   -8.1870   18.1630  -32.2810 C   0  0  0  0  0  0  0  0  0  0  0  0
   -8.6762   17.1850  -32.1622 H   0  0  0  0  0  0  0  0  0  0  0  0
   -7.0190   18.2690  -33.0460 C   0  0  0  0  0  0  0  0  0  0  0  0
   -6.4710   17.0870  -33.6460 N   0  0  0  0  0  0  0  0  0  0  0  0
   -5.3920   17.0380  -34.5900 C   0  0  0  0  0  0  0  0  0  0  0  0
   -5.3890   17.8690  -35.5370 O   0  0  0  0  0  0  0  0  0  0  0  0
   -4.2700   16.0270  -34.4740 C   0  0  2  0  0  0  0  0  0  0  0  0
   -4.0108   15.7507  -35.5067 H   0  0  0  0  0  0  0  0  0  0  0  0
   -4.7010   14.8550  -33.7010 N   0  0  0  0  0  0  0  0  0  0  0  0
   -4.8260   14.0480  -34.3560 H   0  0  0  0  0  0  0  0  0  0  0  0
   -3.6240   14.5250  -32.7640 C   0  0  0  0  0  0  0  0  0  0  0  0
   -3.3468   13.4661  -32.8731 H   0  0  0  0  0  0  0  0  0  0  0  0
   -3.9545   14.6967  -31.7290 H   0  0  0  0  0  0  0  0  0  0  0  0
   -2.4310   15.4040  -33.0860 C   0  0  0  0  0  0  0  0  0  0  0  0
   -1.7293   14.8827  -33.7538 H   0  0  0  0  0  0  0  0  0  0  0  0
   -1.8512   15.6775  -32.1921 H   0  0  0  0  0  0  0  0  0  0  0  0
   -3.0380   16.5980  -33.7730 C   0  0  0  0  0  0  0  0  0  0  0  0
   -2.3365   17.0291  -34.5024 H   0  0  0  0  0  0  0  0  0  0  0  0
   -3.2844   17.4113  -33.0745 H   0  0  0  0  0  0  0  0  0  0  0  0
   -6.3740   19.5120  -33.1530 C   0  0  0  0  0  0  0  0  0  0  0  0
   -5.4357   19.5963  -33.7210 H   0  0  0  0  0  0  0  0  0  0  0  0
   -6.9220   20.6430  -32.5390 C   0  0  0  0  0  0  0  0  0  0  0  0
   -6.4231   21.6182  -32.6392 H   0  0  0  0  0  0  0  0  0  0  0  0
   -6.9320   23.9100  -31.7020 C   0  0  0  0  0  0  0  0  0  0  0  0
   -7.6846   24.3049  -32.4003 H   0  0  0  0  0  0  0  0  0  0  0  0
  1  2  1  0
  2  3  2  0
  3  4  1  0
  4  5  2  0
  5  6  1  0
  6  7  2  0
  7  8  1  0
  7  9  1  0
  9 10  1  0
  9 11  2  0
 11 12  1  0
 12 13  2  0
 13 14  1  0
 14 15  1  0
 14 16  1  0
 14 17  1  0
 13 18  1  0
 18 19  1  0
 18 20  2  0
 20 21  1  0
 21 22  1  0
 21 23  1  0
 21 24  1  0
 20 25  1  0
 25 26  2  0
 26 27  1  0
  4 28  1  0
 28 29  1  0
 29 30  1  0
 30 31  1  0
 31 32  2  0
 32 33  1  0
 32 34  1  0
 34 35  1  0
 34 36  2  0
 36 37  1  0
 37 38  1  0
 38 39  2  0
 38 40  1  0
 40 41  1  6
 40 42  1  0
 42 43  1  0
 42 44  1  0
 44 45  1  0
 44 46  1  0
 44 47  1  0
 47 48  1  0
 47 49  1  0
 47 50  1  0
 50 51  1  0
 50 52  1  0
 36 53  1  0
 53 54  1  0
 53 55  2  0
 55 56  1  0
 29 57  2  0
 57 58  1  0
 57  2  1  0
 26  6  1  0
 55 31  1  0
 25 11  1  0
 50 40  1  0
M  CHG  2  28  -1  37  -1
M  END
>  <UniqueID>  (45) 
45

>  <SMILES>  (45) 
Cc1cc(C)c2cc(/N=c3\nccc(Sc4ccc([N-]C(=O)[C@H]5CCCN5)cc4)[n-]3)ccc2n1

>  <Energy>  (45) 
75.44219449023464

>  <Genealogy>  (45) 
Cc1cc(C)c2cc(N=c3nccc(Sc4ccc([N-]C(=O)C5CCCN5)cc4)[n-]3)ccc2n1 (protonated)
Cc1cc(C)c2cc(N=c3nccc(Sc4ccc([N-]C(=O)[C@H]5CCCN5)cc4)[n-]3)ccc2n1 (chirality)
Cc1cc(C)c2cc(/N=c3\nccc(Sc4ccc([N-]C(=O)[C@H]5CCCN5)cc4)[n-]3)ccc2n1 (cis-trans isomerization)
Cc1cc(C)c2cc(/N=c3\nccc(Sc4ccc([N-]C(=O)[C@H]5CCCN5)cc4)[n-]3)ccc2n1 (3D coordinates assigned)
Cc1cc(C)c2cc(/N=c3\nccc(Sc4ccc([N-]C(=O)[C@H]5CCCN5)cc4)[n-]3)ccc2n1 (nonaromatic ring conformer: 75.44219449023464 kcal/mol)

>  <smiles>  (45) 
Cc1cc(C)c2cc(N=c3nccc(Sc4ccc(NC(=O)C5CCCN5)cc4)[nH]3)ccc2n1

>  <score_type>  (45) 
oracle

>  <origin>  (45) 
adgpu

>  <m_score__min__energy>  (45) 
-11.75

>  <m_primary>  (45) 
energy

$$$$
45:0
     RDKit          3D

 53 56  0  0  0  0  0  0  0  0999 V2000
   -1.9680   25.4760  -28.6510 O   0  0  0  0  0  0  0  0  0  0  0  0
   -2.4740   24.5780  -29.3740 C   0  0  0  0  0  0  0  0  0  0  0  0
   -3.4950   24.9430  -30.3130 N   0  0  0  0  0  0  0  0  0  0  0  0
   -4.6530   24.1650  -30.6450 C   0  0  0  0  0  0  0  0  0  0  0  0
   -4.7310   22.7940  -30.3420 C   0  0  0  0  0  0  0  0  0  0  0  0
   -5.8850   22.0700  -30.6570 C   0  0  0  0  0  0  0  0  0  0  0  0
   -6.9690   22.7030  -31.2820 C   0  0  0  0  0  0  0  0  0  0  0  0
   -8.4580   21.8110  -31.6090 S   0  0  0  0  0  0  0  0  0  0  0  0
   -9.0000   21.2650  -30.3170 O   0  0  0  0  0  0  0  0  0  0  0  0
   -9.4800   22.7510  -32.1840 O   0  0  0  0  0  0  0  0  0  0  0  0
   -8.1840   20.4840  -32.7170 N   0  0  0  0  0  0  0  0  0  0  0  0
   -8.7530   19.2180  -32.2030 C   0  0  0  0  0  0  0  0  0  0  0  0
   -7.6690   18.2990  -31.6060 C   0  0  0  0  0  0  0  0  0  0  0  0
   -6.6360   17.9620  -32.5220 O   0  0  0  0  0  0  0  0  0  0  0  0
   -6.4000   18.9540  -33.5130 C   0  0  0  0  0  0  0  0  0  0  0  0
   -6.7530   20.3780  -33.0570 C   0  0  0  0  0  0  0  0  0  0  0  0
   -6.8690   24.0580  -31.6260 C   0  0  0  0  0  0  0  0  0  0  0  0
   -5.7150   24.7820  -31.3150 C   0  0  0  0  0  0  0  0  0  0  0  0
   -2.0410   23.1770  -29.1890 C   0  0  0  0  0  0  0  0  0  0  0  0
   -2.0390   22.4830  -27.9900 C   0  0  0  0  0  0  0  0  0  0  0  0
   -1.5530   21.2270  -28.2880 C   0  0  0  0  0  0  0  0  0  0  0  0
   -1.3520   20.2030  -27.3670 O   0  0  0  0  0  0  0  0  0  0  0  0
   -1.2810   21.1180  -29.6020 N   0  0  0  0  0  0  0  0  0  0  0  0
   -0.6570   19.9800  -30.2760 C   0  0  0  0  0  0  0  0  0  0  0  0
   -0.8510   20.0950  -31.7650 C   0  0  0  0  0  0  0  0  0  0  0  0
   -2.1040   19.8120  -32.3320 C   0  0  0  0  0  0  0  0  0  0  0  0
   -2.3010   19.9470  -33.7100 C   0  0  0  0  0  0  0  0  0  0  0  0
   -1.2490   20.3650  -34.5290 C   0  0  0  0  0  0  0  0  0  0  0  0
    0.0000   20.6520  -33.9720 C   0  0  0  0  0  0  0  0  0  0  0  0
    0.2000   20.5190  -32.5940 C   0  0  0  0  0  0  0  0  0  0  0  0
   -1.5830   22.3040  -30.1650 C   0  0  0  0  0  0  0  0  0  0  0  0
   -3.8824   22.2901  -29.8562 H   0  0  0  0  0  0  0  0  0  0  0  0
   -5.9428   20.9989  -30.4134 H   0  0  0  0  0  0  0  0  0  0  0  0
   -9.4907   19.4516  -31.4212 H   0  0  0  0  0  0  0  0  0  0  0  0
   -9.2212   18.6886  -33.0459 H   0  0  0  0  0  0  0  0  0  0  0  0
   -7.2155   18.8114  -30.7447 H   0  0  0  0  0  0  0  0  0  0  0  0
   -8.1656   17.3593  -31.3225 H   0  0  0  0  0  0  0  0  0  0  0  0
   -5.3336   18.9297  -33.7818 H   0  0  0  0  0  0  0  0  0  0  0  0
   -7.0531   18.7182  -34.3661 H   0  0  0  0  0  0  0  0  0  0  0  0
   -6.1528   20.6311  -32.1706 H   0  0  0  0  0  0  0  0  0  0  0  0
   -6.5358   21.0740  -33.8807 H   0  0  0  0  0  0  0  0  0  0  0  0
   -7.7033   24.5541  -32.1435 H   0  0  0  0  0  0  0  0  0  0  0  0
   -5.6412   25.8423  -31.5984 H   0  0  0  0  0  0  0  0  0  0  0  0
   -2.3584   22.8558  -27.0056 H   0  0  0  0  0  0  0  0  0  0  0  0
   -1.7290   20.2650  -26.4290 H   0  0  0  0  0  0  0  0  0  0  0  0
    0.4192   19.9670  -30.0486 H   0  0  0  0  0  0  0  0  0  0  0  0
   -1.1240   19.0493  -29.9214 H   0  0  0  0  0  0  0  0  0  0  0  0
   -2.9341   19.4828  -31.6897 H   0  0  0  0  0  0  0  0  0  0  0  0
   -3.2845   19.7240  -34.1492 H   0  0  0  0  0  0  0  0  0  0  0  0
   -1.4041   20.4682  -35.6131 H   0  0  0  0  0  0  0  0  0  0  0  0
    0.8267   20.9828  -34.6178 H   0  0  0  0  0  0  0  0  0  0  0  0
    1.1839   20.7473  -32.1583 H   0  0  0  0  0  0  0  0  0  0  0  0
   -1.4820   22.5433  -31.2339 H   0  0  0  0  0  0  0  0  0  0  0  0
  1  2  2  0
  2  3  1  0
  3  4  1  0
  4  5  2  0
  5  6  1  0
  6  7  2  0
  7  8  1  0
  8  9  2  0
  8 10  2  0
  8 11  1  0
 11 12  1  0
 12 13  1  0
 13 14  1  0
 14 15  1  0
 15 16  1  0
  7 17  1  0
 17 18  2  0
  2 19  1  0
 19 20  1  0
 20 21  2  0
 21 22  1  0
 21 23  1  0
 23 24  1  0
 24 25  1  0
 25 26  2  0
 26 27  1  0
 27 28  2  0
 28 29  1  0
 29 30  2  0
 23 31  1  0
 18  4  1  0
 31 19  2  0
 16 11  1  0
 30 25  1  0
  5 32  1  0
  6 33  1  0
 12 34  1  0
 12 35  1  0
 13 36  1  0
 13 37  1  0
 15 38  1  0
 15 39  1  0
 16 40  1  0
 16 41  1  0
 17 42  1  0
 18 43  1  0
 20 44  1  0
 22 45  1  0
 24 46  1  0
 24 47  1  0
 26 48  1  0
 27 49  1  0
 28 50  1  0
 29 51  1  0
 30 52  1  0
 31 53  1  0
M  CHG  1   3  -1
M  END
>  <UniqueID>  (46) 
46

>  <SMILES>  (46) 
O=C([N-]c1ccc(S(=O)(=O)N2CCOCC2)cc1)c1cc(O)n(Cc2ccccc2)c1

>  <Energy>  (46) 
93.20561820664885

>  <Genealogy>  (46) 
O=C([N-]c1ccc(S(=O)(=O)N2CCOCC2)cc1)c1cc(O)n(Cc2ccccc2)c1 (protonated)
O=C([N-]c1ccc(S(=O)(=O)N2CCOCC2)cc1)c1cc(O)n(Cc2ccccc2)c1 (3D coordinates assigned)
O=C([N-]c1ccc(S(=O)(=O)N2CCOCC2)cc1)c1cc(O)n(Cc2ccccc2)c1 (nonaromatic ring conformer: 93.20561820664885 kcal/mol)

>  <smiles>  (46) 
O=C(Nc1ccc(S(=O)(=O)N2CCOCC2)cc1)c1cc(O)n(Cc2ccccc2)c1

>  <score_type>  (46) 
oracle

>  <origin>  (46) 
adgpu

>  <m_score__min__energy>  (46) 
-10.84

>  <m_primary>  (46) 
energy

$$$$
46:0
     RDKit          3D

 66 70  0  0  0  0  0  0  0  0999 V2000
   -1.0970   19.4020  -29.0230 O   0  0  0  0  0  0  0  0  0  0  0  0
   -1.2360   20.2090  -29.9820 C   0  0  0  0  0  0  0  0  0  0  0  0
   -1.5030   21.6240  -29.6730 C   0  0  0  0  0  0  0  0  0  0  0  0
   -0.4750   22.5750  -29.7090 C   0  0  0  0  0  0  0  0  0  0  0  0
   -0.7530   23.9180  -29.4470 C   0  0  0  0  0  0  0  0  0  0  0  0
   -2.0620   24.3260  -29.1730 C   0  0  0  0  0  0  0  0  0  0  0  0
   -2.3220   25.6750  -28.9460 O   0  0  0  0  0  0  0  0  0  0  0  0
   -3.1050   23.3830  -29.1420 C   0  0  0  0  0  0  0  0  0  0  0  0
   -4.4590   23.8090  -28.9250 N   0  0  0  0  0  0  0  0  0  0  0  0
   -5.4520   24.4180  -30.2120 S   0  0  0  0  0  0  0  0  0  0  0  0
   -6.4980   25.3370  -29.6440 O   0  0  0  0  0  0  0  0  0  0  0  0
   -4.6010   25.1930  -31.1770 O   0  0  0  0  0  0  0  0  0  0  0  0
   -6.2020   23.0730  -31.0690 C   0  0  0  0  0  0  0  0  0  0  0  0
   -7.5890   22.8330  -30.9640 C   0  0  0  0  0  0  0  0  0  0  0  0
   -8.1650   21.7240  -31.6010 C   0  0  0  0  0  0  0  0  0  0  0  0
   -7.3440   20.8740  -32.3450 C   0  0  0  0  0  0  0  0  0  0  0  0
   -5.9970   21.1070  -32.4550 C   0  0  0  0  0  0  0  0  0  0  0  0
   -5.3970   22.1950  -31.8170 C   0  0  0  0  0  0  0  0  0  0  0  0
   -5.3200   20.0740  -33.2720 C   0  0  0  0  0  0  0  0  0  0  0  0
   -6.4770   19.2070  -33.8020 C   0  0  0  0  0  0  0  0  0  0  0  0
   -7.7540   19.6440  -33.0580 C   0  0  0  0  0  0  0  0  0  0  0  0
   -2.8050   22.0260  -29.3520 C   0  0  0  0  0  0  0  0  0  0  0  0
   -1.1910   19.7310  -31.3470 N   0  0  0  0  0  0  0  0  0  0  0  0
   -1.6810   20.5850  -32.4450 C   0  0  0  0  0  0  0  0  0  0  0  0
   -1.7760   19.8160  -33.7700 C   0  0  0  0  0  0  0  0  0  0  0  0
   -2.5180   18.4680  -33.5580 C   0  0  0  0  0  0  0  0  0  0  0  0
   -2.6250   17.6510  -34.7950 N   0  0  0  0  0  0  0  0  0  0  0  0
   -1.5420   16.6440  -34.9130 C   0  0  0  0  0  0  0  0  0  0  0  0
   -1.8030   15.6860  -36.0780 C   0  0  0  0  0  0  0  0  0  0  0  0
   -3.1050   14.8940  -35.8650 C   0  0  0  0  0  0  0  0  0  0  0  0
   -4.1160   15.6290  -34.9660 C   0  0  0  0  0  0  0  0  0  0  0  0
   -3.9890   17.1520  -35.1130 C   0  0  0  0  0  0  0  0  0  0  0  0
   -1.9170   17.6250  -32.3950 C   0  0  0  0  0  0  0  0  0  0  0  0
   -0.7910   18.3470  -31.6430 C   0  0  0  0  0  0  0  0  0  0  0  0
    0.5533   22.2631  -29.9442 H   0  0  0  0  0  0  0  0  0  0  0  0
    0.0609   24.6579  -29.4562 H   0  0  0  0  0  0  0  0  0  0  0  0
   -4.8050   23.9480  -27.9490 H   0  0  0  0  0  0  0  0  0  0  0  0
   -8.2208   23.5185  -30.3802 H   0  0  0  0  0  0  0  0  0  0  0  0
   -9.2439   21.5274  -31.5160 H   0  0  0  0  0  0  0  0  0  0  0  0
   -4.3129   22.3625  -31.8982 H   0  0  0  0  0  0  0  0  0  0  0  0
   -4.7631   20.5337  -34.1017 H   0  0  0  0  0  0  0  0  0  0  0  0
   -4.5826   19.4939  -32.6978 H   0  0  0  0  0  0  0  0  0  0  0  0
   -6.5995   19.3630  -34.8840 H   0  0  0  0  0  0  0  0  0  0  0  0
   -6.2733   18.1394  -33.6328 H   0  0  0  0  0  0  0  0  0  0  0  0
   -8.5679   19.8551  -33.7673 H   0  0  0  0  0  0  0  0  0  0  0  0
   -8.1380   18.8675  -32.3801 H   0  0  0  0  0  0  0  0  0  0  0  0
   -3.6013   21.2723  -29.2632 H   0  0  0  0  0  0  0  0  0  0  0  0
   -2.6793   20.9646  -32.1818 H   0  0  0  0  0  0  0  0  0  0  0  0
   -0.9659   21.4098  -32.5803 H   0  0  0  0  0  0  0  0  0  0  0  0
   -2.3278   20.4227  -34.5031 H   0  0  0  0  0  0  0  0  0  0  0  0
   -0.7601   19.6115  -34.1390 H   0  0  0  0  0  0  0  0  0  0  0  0
   -3.5402   18.7562  -33.2716 H   0  0  0  0  0  0  0  0  0  0  0  0
   -0.5866   17.1624  -35.0816 H   0  0  0  0  0  0  0  0  0  0  0  0
   -1.5064   16.0594  -33.9819 H   0  0  0  0  0  0  0  0  0  0  0  0
   -1.8841   16.2665  -37.0088 H   0  0  0  0  0  0  0  0  0  0  0  0
   -0.9671   14.9734  -36.1374 H   0  0  0  0  0  0  0  0  0  0  0  0
   -3.5717   14.7166  -36.8452 H   0  0  0  0  0  0  0  0  0  0  0  0
   -2.8392   13.9534  -35.3605 H   0  0  0  0  0  0  0  0  0  0  0  0
   -5.1345   15.3253  -35.2495 H   0  0  0  0  0  0  0  0  0  0  0  0
   -3.9076   15.3626  -33.9193 H   0  0  0  0  0  0  0  0  0  0  0  0
   -4.2302   17.4260  -36.1507 H   0  0  0  0  0  0  0  0  0  0  0  0
   -4.6850   17.6125  -34.3964 H   0  0  0  0  0  0  0  0  0  0  0  0
   -2.7206   17.3918  -31.6809 H   0  0  0  0  0  0  0  0  0  0  0  0
   -1.4828   16.7175  -32.8400 H   0  0  0  0  0  0  0  0  0  0  0  0
   -0.5845   17.8180  -30.7009 H   0  0  0  0  0  0  0  0  0  0  0  0
    0.1127   18.3585  -32.2701 H   0  0  0  0  0  0  0  0  0  0  0  0
  1  2  2  0
  2  3  1  0
  3  4  2  0
  4  5  1  0
  5  6  2  0
  6  7  1  0
  6  8  1  0
  8  9  1  0
  9 10  1  0
 10 11  2  0
 10 12  2  0
 10 13  1  0
 13 14  2  0
 14 15  1  0
 15 16  2  0
 16 17  1  0
 17 18  2  0
 17 19  1  0
 19 20  1  0
 20 21  1  0
  8 22  2  0
  2 23  1  0
 23 24  1  0
 24 25  1  0
 25 26  1  0
 26 27  1  0
 27 28  1  0
 28 29  1  0
 29 30  1  0
 30 31  1  0
 31 32  1  0
 26 33  1  0
 33 34  1  0
 22  3  1  0
 34 23  1  0
 18 13  1  0
 32 27  1  0
 21 16  1  0
  4 35  1  0
  5 36  1  0
  9 37  1  0
 14 38  1  0
 15 39  1  0
 18 40  1  0
 19 41  1  0
 19 42  1  0
 20 43  1  0
 20 44  1  0
 21 45  1  0
 21 46  1  0
 22 47  1  0
 24 48  1  0
 24 49  1  0
 25 50  1  0
 25 51  1  0
 26 52  1  0
 28 53  1  0
 28 54  1  0
 29 55  1  0
 29 56  1  0
 30 57  1  0
 30 58  1  0
 31 59  1  0
 31 60  1  0
 32 61  1  0
 32 62  1  0
 33 63  1  0
 33 64  1  0
 34 65  1  0
 34 66  1  0
M  CHG  1   7  -1
M  END
>  <UniqueID>  (47) 
47

>  <SMILES>  (47) 
O=C(c1ccc([O-])c(NS(=O)(=O)c2ccc3c(c2)CCC3)c1)N1CCC(N2CCCCC2)CC1

>  <Energy>  (47) 
95.1785315816977

>  <Genealogy>  (47) 
O=C(c1ccc([O-])c(NS(=O)(=O)c2ccc3c(c2)CCC3)c1)N1CCC(N2CCCCC2)CC1 (protonated)
O=C(c1ccc([O-])c(NS(=O)(=O)c2ccc3c(c2)CCC3)c1)N1CCC(N2CCCCC2)CC1 (3D coordinates assigned)
O=C(c1ccc([O-])c(NS(=O)(=O)c2ccc3c(c2)CCC3)c1)N1CCC(N2CCCCC2)CC1 (nonaromatic ring conformer: 95.1785315816977 kcal/mol)

>  <smiles>  (47) 
O=C(c1ccc(O)c(NS(=O)(=O)c2ccc3c(c2)CCC3)c1)N1CCC(N2CCCCC2)CC1

>  <score_type>  (47) 
oracle

>  <origin>  (47) 
adgpu

>  <m_score__min__energy>  (47) 
-14.130000000000001

>  <m_primary>  (47) 
energy

$$$$
47:0
     RDKit          3D

 57 60  0  0  0  0  0  0  0  0999 V2000
   -1.6180   19.0050  -33.7950 C   0  0  0  0  0  0  0  0  0  0  0  0
   -2.3930   20.0220  -33.0110 C   0  0  0  0  0  0  0  0  0  0  0  0
   -2.6160   19.8420  -31.6380 C   0  0  0  0  0  0  0  0  0  0  0  0
   -3.3610   20.7780  -30.9170 C   0  0  0  0  0  0  0  0  0  0  0  0
   -3.9030   21.9010  -31.5600 C   0  0  0  0  0  0  0  0  0  0  0  0
   -4.6570   22.8730  -30.8160 N   0  0  0  0  0  0  0  0  0  0  0  0
   -4.0920   23.4770  -29.6050 C   0  0  0  0  0  0  0  0  0  0  0  0
   -3.5740   24.8540  -29.8880 C   0  0  0  0  0  0  0  0  0  0  0  0
   -4.2490   25.6350  -30.6120 O   0  0  0  0  0  0  0  0  0  0  0  0
   -2.3170   25.2740  -29.3450 N   0  0  0  0  0  0  0  0  0  0  0  0
   -1.7950   24.8490  -28.0810 C   0  0  0  0  0  0  0  0  0  0  0  0
   -2.0430   25.6440  -26.9550 C   0  0  0  0  0  0  0  0  0  0  0  0
   -1.5620   25.2630  -25.7000 C   0  0  0  0  0  0  0  0  0  0  0  0
   -0.8470   24.0730  -25.5580 C   0  0  0  0  0  0  0  0  0  0  0  0
   -0.6260   23.2520  -26.6670 C   0  0  0  0  0  0  0  0  0  0  0  0
   -1.1080   23.6240  -27.9310 C   0  0  0  0  0  0  0  0  0  0  0  0
   -0.8990   22.4760  -29.3000 S   0  0  0  0  0  0  0  0  0  0  0  0
   -1.3930   21.0580  -28.3190 C   0  0  0  0  0  0  0  0  0  0  0  0
   -0.4770   20.0300  -28.0610 C   0  0  0  0  0  0  0  0  0  0  0  0
   -0.8630   18.9240  -27.2950 C   0  0  0  0  0  0  0  0  0  0  0  0
   -2.1640   18.8410  -26.7910 C   0  0  0  0  0  0  0  0  0  0  0  0
   -3.0820   19.8630  -27.0540 C   0  0  0  0  0  0  0  0  0  0  0  0
   -2.6990   20.9700  -27.8170 C   0  0  0  0  0  0  0  0  0  0  0  0
   -6.3120   23.2060  -31.2440 S   0  0  0  0  0  0  0  0  0  0  0  0
   -7.0180   23.8330  -30.0730 O   0  0  0  0  0  0  0  0  0  0  0  0
   -6.3540   24.1810  -32.3880 O   0  0  0  0  0  0  0  0  0  0  0  0
   -7.1320   21.7140  -31.7000 C   0  0  0  0  0  0  0  0  0  0  0  0
   -8.2960   21.3220  -31.0240 C   0  0  0  0  0  0  0  0  0  0  0  0
   -8.9390   20.1280  -31.3640 C   0  0  0  0  0  0  0  0  0  0  0  0
   -8.4280   19.3250  -32.3890 C   0  0  0  0  0  0  0  0  0  0  0  0
   -7.2720   19.7150  -33.0710 C   0  0  0  0  0  0  0  0  0  0  0  0
   -6.6230   20.9060  -32.7270 C   0  0  0  0  0  0  0  0  0  0  0  0
   -3.6910   22.0730  -32.9360 C   0  0  0  0  0  0  0  0  0  0  0  0
   -2.9450   21.1360  -33.6580 C   0  0  0  0  0  0  0  0  0  0  0  0
   -1.1000   18.3252  -33.1025 H   0  0  0  0  0  0  0  0  0  0  0  0
   -2.3072   18.4276  -34.4287 H   0  0  0  0  0  0  0  0  0  0  0  0
   -0.8785   19.5163  -34.4287 H   0  0  0  0  0  0  0  0  0  0  0  0
   -2.2025   18.9601  -31.1269 H   0  0  0  0  0  0  0  0  0  0  0  0
   -3.5237   20.6338  -29.8387 H   0  0  0  0  0  0  0  0  0  0  0  0
   -4.8741   23.5375  -28.8338 H   0  0  0  0  0  0  0  0  0  0  0  0
   -3.2571   22.8515  -29.2561 H   0  0  0  0  0  0  0  0  0  0  0  0
   -2.6203   26.5745  -27.0595 H   0  0  0  0  0  0  0  0  0  0  0  0
   -1.7469   25.9012  -24.8234 H   0  0  0  0  0  0  0  0  0  0  0  0
   -0.4569   23.7809  -24.5719 H   0  0  0  0  0  0  0  0  0  0  0  0
   -0.0714   22.3095  -26.5484 H   0  0  0  0  0  0  0  0  0  0  0  0
    0.5460   20.0920  -28.4606 H   0  0  0  0  0  0  0  0  0  0  0  0
   -0.1417   18.1193  -27.0894 H   0  0  0  0  0  0  0  0  0  0  0  0
   -2.4659   17.9722  -26.1877 H   0  0  0  0  0  0  0  0  0  0  0  0
   -4.1068   19.7956  -26.6599 H   0  0  0  0  0  0  0  0  0  0  0  0
   -3.4226   21.7723  -28.0236 H   0  0  0  0  0  0  0  0  0  0  0  0
   -8.7048   21.9560  -30.2234 H   0  0  0  0  0  0  0  0  0  0  0  0
   -9.8472   19.8199  -30.8252 H   0  0  0  0  0  0  0  0  0  0  0  0
   -8.9357   18.3870  -32.6582 H   0  0  0  0  0  0  0  0  0  0  0  0
   -6.8719   19.0850  -33.8791 H   0  0  0  0  0  0  0  0  0  0  0  0
   -5.7117   21.2091  -33.2633 H   0  0  0  0  0  0  0  0  0  0  0  0
   -4.1136   22.9492  -33.4496 H   0  0  0  0  0  0  0  0  0  0  0  0
   -2.7908   21.2739  -34.7384 H   0  0  0  0  0  0  0  0  0  0  0  0
  1  2  1  0
  2  3  2  0
  3  4  1  0
  4  5  2  0
  5  6  1  0
  6  7  1  0
  7  8  1  0
  8  9  2  0
  8 10  1  0
 10 11  1  0
 11 12  2  0
 12 13  1  0
 13 14  2  0
 14 15  1  0
 15 16  2  0
 16 17  1  0
 17 18  1  0
 18 19  2  0
 19 20  1  0
 20 21  2  0
 21 22  1  0
 22 23  2  0
  6 24  1  0
 24 25  2  0
 24 26  2  0
 24 27  1  0
 27 28  2  0
 28 29  1  0
 29 30  2  0
 30 31  1  0
 31 32  2  0
  5 33  1  0
 33 34  2  0
 34  2  1  0
 16 11  1  0
 23 18  1  0
 32 27  1  0
  1 35  1  0
  1 36  1  0
  1 37  1  0
  3 38  1  0
  4 39  1  0
  7 40  1  0
  7 41  1  0
 12 42  1  0
 13 43  1  0
 14 44  1  0
 15 45  1  0
 19 46  1  0
 20 47  1  0
 21 48  1  0
 22 49  1  0
 23 50  1  0
 28 51  1  0
 29 52  1  0
 30 53  1  0
 31 54  1  0
 32 55  1  0
 33 56  1  0
 34 57  1  0
M  CHG  1  10  -1
M  END
>  <UniqueID>  (48) 
48

>  <SMILES>  (48) 
Cc1ccc(N(CC(=O)[N-]c2ccccc2Sc2ccccc2)S(=O)(=O)c2ccccc2)cc1

>  <Energy>  (48) 
60.99395889593171

>  <Genealogy>  (48) 
Cc1ccc(N(CC(=O)[N-]c2ccccc2Sc2ccccc2)S(=O)(=O)c2ccccc2)cc1 (protonated)
Cc1ccc(N(CC(=O)[N-]c2ccccc2Sc2ccccc2)S(=O)(=O)c2ccccc2)cc1 (3D coordinates assigned)
Cc1ccc(N(CC(=O)[N-]c2ccccc2Sc2ccccc2)S(=O)(=O)c2ccccc2)cc1 (optimized conformer: 60.99395889593171 kcal/mol)

>  <smiles>  (48) 
Cc1ccc(N(CC(=O)Nc2ccccc2Sc2ccccc2)S(=O)(=O)c2ccccc2)cc1

>  <score_type>  (48) 
oracle

>  <origin>  (48) 
adgpu

>  <m_score__min__energy>  (48) 
-12.66

>  <m_primary>  (48) 
energy

$$$$
