0:0
     RDKit          3D

 39 41  0  0  0  0  0  0  0  0999 V2000
   -6.6110   25.2500  -29.8870 C   0  0  0  0  0  0  0  0  0  0  0  0
   -5.4950   24.4920  -30.5310 C   0  0  0  0  0  0  0  0  0  0  0  0
   -4.2090   24.8920  -30.4980 N   0  0  0  0  0  0  0  0  0  0  0  0
   -3.5150   24.0060  -31.1530 O   0  0  0  0  0  0  0  0  0  0  0  0
   -4.2800   23.0400  -31.6060 C   0  0  0  0  0  0  0  0  0  0  0  0
   -3.7740   21.8760  -32.3950 C   0  0  0  0  0  0  0  0  0  0  0  0
   -5.5870   23.2990  -31.2320 C   0  0  0  0  0  0  0  0  0  0  0  0
   -6.7980   22.4980  -31.5130 C   0  0  0  0  0  0  0  0  0  0  0  0
   -8.0430   23.1230  -31.6800 C   0  0  0  0  0  0  0  0  0  0  0  0
   -9.1880   22.3590  -31.9230 C   0  0  0  0  0  0  0  0  0  0  0  0
   -9.1010   20.9670  -31.9950 C   0  0  0  0  0  0  0  0  0  0  0  0
   -7.8650   20.3320  -31.8280 C   0  0  0  0  0  0  0  0  0  0  0  0
   -7.7530   18.5750  -31.8890 S   0  0  0  0  0  0  0  0  0  0  0  0
   -6.7740   18.0730  -30.8660 O   0  0  0  0  0  0  0  0  0  0  0  0
   -9.1090   17.9950  -31.5990 O   0  0  0  0  0  0  0  0  0  0  0  0
   -7.2380   18.0610  -33.4660 N   0  0  0  0  0  0  0  0  0  0  0  0
   -5.8590   17.8910  -33.8400 C   0  0  0  0  0  0  0  0  0  0  0  0
   -5.4120   16.6250  -34.2520 C   0  0  0  0  0  0  0  0  0  0  0  0
   -4.0830   16.4340  -34.6410 C   0  0  0  0  0  0  0  0  0  0  0  0
   -3.1860   17.5040  -34.6160 C   0  0  0  0  0  0  0  0  0  0  0  0
   -3.6150   18.7650  -34.1970 C   0  0  0  0  0  0  0  0  0  0  0  0
   -4.9430   18.9610  -33.8080 C   0  0  0  0  0  0  0  0  0  0  0  0
   -6.7150   21.1000  -31.6010 C   0  0  0  0  0  0  0  0  0  0  0  0
   -6.5151   25.1849  -28.7931 H   0  0  0  0  0  0  0  0  0  0  0  0
   -6.5649   26.3044  -30.1970 H   0  0  0  0  0  0  0  0  0  0  0  0
   -7.5742   24.8185  -30.1970 H   0  0  0  0  0  0  0  0  0  0  0  0
   -3.4316   21.0883  -31.7078 H   0  0  0  0  0  0  0  0  0  0  0  0
   -4.5827   21.4834  -33.0290 H   0  0  0  0  0  0  0  0  0  0  0  0
   -2.9353   22.1995  -33.0290 H   0  0  0  0  0  0  0  0  0  0  0  0
   -8.1183   24.2187  -31.6194 H   0  0  0  0  0  0  0  0  0  0  0  0
  -10.1603   22.8555  -32.0579 H   0  0  0  0  0  0  0  0  0  0  0  0
  -10.0049   20.3690  -32.1832 H   0  0  0  0  0  0  0  0  0  0  0  0
   -7.9760   17.9830  -34.2010 H   0  0  0  0  0  0  0  0  0  0  0  0
   -6.1129   15.7774  -34.2687 H   0  0  0  0  0  0  0  0  0  0  0  0
   -3.7434   15.4399  -34.9671 H   0  0  0  0  0  0  0  0  0  0  0  0
   -2.1415   17.3534  -34.9264 H   0  0  0  0  0  0  0  0  0  0  0  0
   -2.9063   19.6059  -34.1730 H   0  0  0  0  0  0  0  0  0  0  0  0
   -5.2747   19.9556  -33.4752 H   0  0  0  0  0  0  0  0  0  0  0  0
   -5.7398   20.6031  -31.4910 H   0  0  0  0  0  0  0  0  0  0  0  0
  1  2  1  0
  2  3  2  0
  3  4  1  0
  4  5  1  0
  5  6  1  0
  5  7  2  0
  7  8  1  0
  8  9  2  0
  9 10  1  0
 10 11  2  0
 11 12  1  0
 12 13  1  0
 13 14  2  0
 13 15  2  0
 13 16  1  0
 16 17  1  0
 17 18  2  0
 18 19  1  0
 19 20  2  0
 20 21  1  0
 21 22  2  0
 12 23  2  0
  7  2  1  0
 23  8  1  0
 22 17  1  0
  1 24  1  0
  1 25  1  0
  1 26  1  0
  6 27  1  0
  6 28  1  0
  6 29  1  0
  9 30  1  0
 10 31  1  0
 11 32  1  0
 16 33  1  0
 18 34  1  0
 19 35  1  0
 20 36  1  0
 21 37  1  0
 22 38  1  0
 23 39  1  0
M  END
>  <UniqueID>  (1) 
1

>  <SMILES>  (1) 
Cc1noc(C)c1-c1cccc(S(=O)(=O)Nc2ccccc2)c1

>  <Energy>  (1) 
75.27629613880593

>  <Genealogy>  (1) 
Cc1noc(C)c1-c1cccc(S(=O)(=O)Nc2ccccc2)c1 (3D coordinates assigned)
Cc1noc(C)c1-c1cccc(S(=O)(=O)Nc2ccccc2)c1 (optimized conformer: 75.27629613880593 kcal/mol)

>  <smiles>  (1) 
Cc1noc(C)c1-c1cccc(S(=O)(=O)Nc2ccccc2)c1

>  <score_type>  (1) 
oracle

>  <origin>  (1) 
adgpu

>  <m_score__min__energy>  (1) 
-10.06

>  <m_primary>  (1) 
energy

$$$$
1:0
     RDKit          3D

 50 53  0  0  0  0  0  0  0  0999 V2000
    1.1010   24.2830  -24.7100 C   0  0  0  0  0  0  0  0  0  0  0  0
    1.0840   24.3460  -26.1310 O   0  0  0  0  0  0  0  0  0  0  0  0
   -0.0820   24.3740  -26.9100 C   0  0  0  0  0  0  0  0  0  0  0  0
   -1.3110   24.8470  -26.4120 C   0  0  0  0  0  0  0  0  0  0  0  0
   -2.4460   24.8560  -27.2290 C   0  0  0  0  0  0  0  0  0  0  0  0
   -2.3730   24.3930  -28.5540 C   0  0  0  0  0  0  0  0  0  0  0  0
   -3.5690   24.4000  -29.4200 C   0  0  0  0  0  0  0  0  0  0  0  0
   -4.4790   23.4010  -29.4490 N   0  0  0  0  0  0  0  0  0  0  0  0
   -5.3690   23.8280  -30.3630 C   0  0  0  0  0  0  0  0  0  0  0  0
   -6.5790   23.0540  -30.7850 C   0  0  0  0  0  0  0  0  0  0  0  0
   -6.1990   21.9320  -31.6730 N   0  0  0  0  0  0  0  0  0  0  0  0
   -7.3630   21.2460  -32.2870 C   0  0  0  0  0  0  0  0  0  0  0  0
   -7.0870   19.8180  -32.7110 C   0  0  0  0  0  0  0  0  0  0  0  0
   -7.5520   18.7430  -31.9310 C   0  0  0  0  0  0  0  0  0  0  0  0
   -7.2990   17.4240  -32.3220 C   0  0  0  0  0  0  0  0  0  0  0  0
   -6.5700   17.1660  -33.4860 C   0  0  0  0  0  0  0  0  0  0  0  0
   -6.3240   15.8870  -33.8620 F   0  0  0  0  0  0  0  0  0  0  0  0
   -6.0890   18.2270  -34.2580 C   0  0  0  0  0  0  0  0  0  0  0  0
   -6.3410   19.5460  -33.8710 C   0  0  0  0  0  0  0  0  0  0  0  0
   -5.1920   22.3390  -32.6730 C   0  0  0  0  0  0  0  0  0  0  0  0
   -3.8600   21.7370  -32.3450 C   0  0  0  0  0  0  0  0  0  0  0  0
   -3.4690   20.4440  -32.6250 C   0  0  0  0  0  0  0  0  0  0  0  0
   -2.1840   20.3330  -32.1390 C   0  0  0  0  0  0  0  0  0  0  0  0
   -1.8740   21.5630  -31.5930 C   0  0  0  0  0  0  0  0  0  0  0  0
   -2.8930   22.3790  -31.7320 O   0  0  0  0  0  0  0  0  0  0  0  0
   -4.9790   25.0520  -30.8550 C   0  0  0  0  0  0  0  0  0  0  0  0
   -3.8640   25.3770  -30.2510 O   0  0  0  0  0  0  0  0  0  0  0  0
   -1.1460   23.9210  -29.0460 C   0  0  0  0  0  0  0  0  0  0  0  0
   -0.0130   23.9130  -28.2290 C   0  0  0  0  0  0  0  0  0  0  0  0
    0.8355   25.2670  -24.2961 H   0  0  0  0  0  0  0  0  0  0  0  0
    0.3732   23.5327  -24.3675 H   0  0  0  0  0  0  0  0  0  0  0  0
    2.1075   24.0006  -24.3675 H   0  0  0  0  0  0  0  0  0  0  0  0
   -1.3788   25.2109  -25.3762 H   0  0  0  0  0  0  0  0  0  0  0  0
   -3.4021   25.2279  -26.8320 H   0  0  0  0  0  0  0  0  0  0  0  0
   -7.0811   22.6536  -29.8919 H   0  0  0  0  0  0  0  0  0  0  0  0
   -7.2551   23.7261  -31.3339 H   0  0  0  0  0  0  0  0  0  0  0  0
   -8.1838   21.2363  -31.5548 H   0  0  0  0  0  0  0  0  0  0  0  0
   -7.6147   21.8049  -33.2004 H   0  0  0  0  0  0  0  0  0  0  0  0
   -8.1176   18.9410  -31.0086 H   0  0  0  0  0  0  0  0  0  0  0  0
   -7.6743   16.5888  -31.7125 H   0  0  0  0  0  0  0  0  0  0  0  0
   -5.5112   18.0236  -35.1716 H   0  0  0  0  0  0  0  0  0  0  0  0
   -5.9529   20.3771  -34.4783 H   0  0  0  0  0  0  0  0  0  0  0  0
   -5.5100   21.9958  -33.6685 H   0  0  0  0  0  0  0  0  0  0  0  0
   -5.1011   23.4352  -32.6633 H   0  0  0  0  0  0  0  0  0  0  0  0
   -4.0590   19.6650  -33.1301 H   0  0  0  0  0  0  0  0  0  0  0  0
   -1.5365   19.4446  -32.1781 H   0  0  0  0  0  0  0  0  0  0  0  0
   -0.9177   21.8202  -31.1140 H   0  0  0  0  0  0  0  0  0  0  0  0
   -5.5063   25.6473  -31.6150 H   0  0  0  0  0  0  0  0  0  0  0  0
   -1.0763   23.5552  -30.0811 H   0  0  0  0  0  0  0  0  0  0  0  0
    0.9426   23.5406  -28.6266 H   0  0  0  0  0  0  0  0  0  0  0  0
  1  2  1  0
  2  3  1  0
  3  4  2  0
  4  5  1  0
  5  6  2  0
  6  7  1  0
  7  8  2  0
  8  9  1  0
  9 10  1  0
 10 11  1  0
 11 12  1  0
 12 13  1  0
 13 14  2  0
 14 15  1  0
 15 16  2  0
 16 17  1  0
 16 18  1  0
 18 19  2  0
 11 20  1  0
 20 21  1  0
 21 22  2  0
 22 23  1  0
 23 24  2  0
 24 25  1  0
  9 26  2  0
 26 27  1  0
  6 28  1  0
 28 29  2  0
 29  3  1  0
 27  7  1  0
 19 13  1  0
 25 21  1  0
  1 30  1  0
  1 31  1  0
  1 32  1  0
  4 33  1  0
  5 34  1  0
 10 35  1  0
 10 36  1  0
 12 37  1  0
 12 38  1  0
 14 39  1  0
 15 40  1  0
 18 41  1  0
 19 42  1  0
 20 43  1  0
 20 44  1  0
 22 45  1  0
 23 46  1  0
 24 47  1  0
 26 48  1  0
 28 49  1  0
 29 50  1  0
M  END
>  <UniqueID>  (2) 
2

>  <SMILES>  (2) 
COc1ccc(-c2nc(CN(Cc3ccc(F)cc3)Cc3ccco3)co2)cc1

>  <Energy>  (2) 
111.01499814545717

>  <Genealogy>  (2) 
COc1ccc(-c2nc(CN(Cc3ccc(F)cc3)Cc3ccco3)co2)cc1 (3D coordinates assigned)
COc1ccc(-c2nc(CN(Cc3ccc(F)cc3)Cc3ccco3)co2)cc1 (optimized conformer: 111.01499814545717 kcal/mol)

>  <smiles>  (2) 
COc1ccc(-c2nc(CN(Cc3ccc(F)cc3)Cc3ccco3)co2)cc1

>  <score_type>  (2) 
oracle

>  <origin>  (2) 
adgpu

>  <m_score__min__energy>  (2) 
-8.1300000000000008

>  <m_primary>  (2) 
energy

$$$$
2:0
     RDKit          3D

 45 47  0  0  0  0  0  0  0  0999 V2000
   -9.1204   22.7309  -32.0623 H   0  0  0  0  0  0  0  0  0  0  0  0
   -8.0300   22.7110  -31.9190 C   0  0  0  0  0  0  0  0  0  0  0  0
   -7.2800   21.6480  -32.4250 C   0  0  0  0  0  0  0  0  0  0  0  0
   -7.7792   20.8404  -32.9805 H   0  0  0  0  0  0  0  0  0  0  0  0
   -5.8880   21.6060  -32.2270 C   0  0  0  0  0  0  0  0  0  0  0  0
   -5.0880   20.5590  -32.7940 N   0  0  0  0  0  0  0  0  0  0  0  0
   -5.4240   19.3090  -32.9560 C   0  0  0  0  0  0  0  0  0  0  0  0
   -4.5640   18.4860  -33.6110 N   0  0  0  0  0  0  0  0  0  0  0  0
   -4.8350   17.1680  -33.8110 C   0  0  0  0  0  0  0  0  0  0  0  0
   -3.8550   16.3260  -34.5470 C   0  0  0  0  0  0  0  0  0  0  0  0
   -4.2070   15.0200  -34.9330 C   0  0  0  0  0  0  0  0  0  0  0  0
   -5.2022   14.6257  -34.6799 H   0  0  0  0  0  0  0  0  0  0  0  0
   -3.3030   14.2200  -35.6350 C   0  0  0  0  0  0  0  0  0  0  0  0
   -3.5888   13.1997  -35.9304 H   0  0  0  0  0  0  0  0  0  0  0  0
   -2.0390   14.7100  -35.9630 C   0  0  0  0  0  0  0  0  0  0  0  0
   -1.3301   14.0751  -36.5147 H   0  0  0  0  0  0  0  0  0  0  0  0
   -1.6710   16.0090  -35.5910 C   0  0  0  0  0  0  0  0  0  0  0  0
   -0.0890   16.6430  -36.0340 S   0  0  0  0  0  0  0  0  0  0  0  0
   -0.0890   18.1420  -35.9220 O   0  0  0  0  0  0  0  0  0  0  0  0
    0.2300   16.2650  -37.4530 O   0  0  0  0  0  0  0  0  0  0  0  0
    1.1430   15.9670  -34.9450 C   0  0  0  0  0  0  0  0  0  0  0  0
    0.8402   16.1332  -33.9006 H   0  0  0  0  0  0  0  0  0  0  0  0
    1.2435   14.8874  -35.1303 H   0  0  0  0  0  0  0  0  0  0  0  0
    2.1076   16.4622  -35.1303 H   0  0  0  0  0  0  0  0  0  0  0  0
   -2.5800   16.8170  -34.8940 C   0  0  0  0  0  0  0  0  0  0  0  0
   -2.2961   17.8426  -34.6155 H   0  0  0  0  0  0  0  0  0  0  0  0
   -6.0430   16.6470  -33.3300 C   0  0  0  0  0  0  0  0  0  0  0  0
   -6.3022   15.5907  -33.4942 H   0  0  0  0  0  0  0  0  0  0  0  0
   -6.9100   17.4910  -32.6400 C   0  0  0  0  0  0  0  0  0  0  0  0
   -7.8577   17.0974  -32.2439 H   0  0  0  0  0  0  0  0  0  0  0  0
   -6.5900   18.7990  -32.4540 N   0  0  0  0  0  0  0  0  0  0  0  0
   -7.2490   19.3810  -31.8920 H   0  0  0  0  0  0  0  0  0  0  0  0
   -5.2560   22.6670  -31.5670 C   0  0  0  0  0  0  0  0  0  0  0  0
   -4.1620   22.6646  -31.4523 H   0  0  0  0  0  0  0  0  0  0  0  0
   -6.0080   23.7330  -31.0510 C   0  0  0  0  0  0  0  0  0  0  0  0
   -5.2140   25.0670  -30.2170 S   0  0  0  0  0  0  0  0  0  0  0  0
   -5.5070   25.0030  -28.7430 O   0  0  0  0  0  0  0  0  0  0  0  0
   -5.7480   26.3660  -30.7510 O   0  0  0  0  0  0  0  0  0  0  0  0
   -3.4980   25.0070  -30.4810 N   0  0  0  0  0  0  0  0  0  0  0  0
   -2.8280   24.5510  -29.2670 C   0  0  0  0  0  0  0  0  0  0  0  0
   -3.3728   24.9218  -28.3862 H   0  0  0  0  0  0  0  0  0  0  0  0
   -2.8085   23.4513  -29.2500 H   0  0  0  0  0  0  0  0  0  0  0  0
   -1.7978   24.9363  -29.2500 H   0  0  0  0  0  0  0  0  0  0  0  0
   -7.3970   23.7510  -31.2300 C   0  0  0  0  0  0  0  0  0  0  0  0
   -7.9914   24.5847  -30.8280 H   0  0  0  0  0  0  0  0  0  0  0  0
  1  2  1  0
  2  3  2  0
  3  4  1  0
  3  5  1  0
  5  6  1  0
  6  7  2  0
  7  8  1  0
  8  9  2  0
  9 10  1  0
 10 11  2  0
 11 12  1  0
 11 13  1  0
 13 14  1  0
 13 15  2  0
 15 16  1  0
 15 17  1  0
 17 18  1  0
 18 19  2  0
 18 20  2  0
 18 21  1  0
 21 22  1  0
 21 23  1  0
 21 24  1  0
 17 25  2  0
 25 26  1  0
  9 27  1  0
 27 28  1  0
 27 29  2  0
 29 30  1  0
 29 31  1  0
 31 32  1  0
  5 33  2  0
 33 34  1  0
 33 35  1  0
 35 36  1  0
 36 37  2  0
 36 38  2  0
 36 39  1  0
 39 40  1  0
 40 41  1  0
 40 42  1  0
 40 43  1  0
 35 44  2  0
 44 45  1  0
 44  2  1  0
 31  7  1  0
 25 10  1  0
M  CHG  1  39  -1
M  END
>  <UniqueID>  (3) 
3

>  <SMILES>  (3) 
C[N-]S(=O)(=O)c1cccc(/N=c2/nc(-c3cccc(S(C)(=O)=O)c3)cc[nH]2)c1

>  <Energy>  (3) 
55.85935542260364

>  <Genealogy>  (3) 
C[N-]S(=O)(=O)c1cccc(N=c2nc(-c3cccc(S(C)(=O)=O)c3)cc[nH]2)c1 (protonated)
C[N-]S(=O)(=O)c1cccc(/N=c2/nc(-c3cccc(S(C)(=O)=O)c3)cc[nH]2)c1 (cis-trans isomerization)
C[N-]S(=O)(=O)c1cccc(/N=c2/nc(-c3cccc(S(C)(=O)=O)c3)cc[nH]2)c1 (3D coordinates assigned)
C[N-]S(=O)(=O)c1cccc(/N=c2/nc(-c3cccc(S(C)(=O)=O)c3)cc[nH]2)c1 (optimized conformer: 55.85935542260364 kcal/mol)

>  <smiles>  (3) 
CNS(=O)(=O)c1cccc(N=c2nc(-c3cccc(S(C)(=O)=O)c3)cc[nH]2)c1

>  <score_type>  (3) 
oracle

>  <origin>  (3) 
adgpu

>  <m_score__min__energy>  (3) 
-10.09

>  <m_primary>  (3) 
energy

$$$$
3:0
     RDKit          3D

 52 54  0  0  0  0  0  0  0  0999 V2000
   -5.2620   25.6770  -30.4610 C   0  0  0  0  0  0  0  0  0  0  0  0
   -3.8990   25.2660  -30.5070 O   0  0  0  0  0  0  0  0  0  0  0  0
   -3.4520   23.9540  -30.2850 C   0  0  0  0  0  0  0  0  0  0  0  0
   -3.3260   23.0260  -31.3340 C   0  0  0  0  0  0  0  0  0  0  0  0
   -2.8720   21.7260  -31.0870 C   0  0  0  0  0  0  0  0  0  0  0  0
   -2.7370   20.7530  -32.1930 C   0  0  0  0  0  0  0  0  0  0  0  0
   -3.2850   19.5170  -32.1770 N   0  0  0  0  0  0  0  0  0  0  0  0
   -2.9110   19.0030  -33.3640 C   0  0  0  0  0  0  0  0  0  0  0  0
   -3.2290   17.6110  -33.8100 C   0  0  0  0  0  0  0  0  0  0  0  0
   -4.3150   17.0550  -32.9930 N   0  0  0  0  0  0  0  0  0  0  0  0
   -5.3650   16.4620  -33.8330 C   0  0  0  0  0  0  0  0  0  0  0  0
   -6.1130   17.5530  -34.5930 C   0  0  0  0  0  0  0  0  0  0  0  0
   -5.8970   18.8160  -33.9690 O   0  0  0  0  0  0  0  0  0  0  0  0
   -6.8060   19.4340  -33.0980 C   0  0  0  0  0  0  0  0  0  0  0  0
   -7.9080   18.7530  -32.5460 C   0  0  0  0  0  0  0  0  0  0  0  0
   -8.7880   19.4180  -31.6860 C   0  0  0  0  0  0  0  0  0  0  0  0
   -8.5770   20.7630  -31.3690 C   0  0  0  0  0  0  0  0  0  0  0  0
   -7.4840   21.4450  -31.9090 C   0  0  0  0  0  0  0  0  0  0  0  0
   -7.2160   23.1320  -31.5100 Cl  0  0  0  0  0  0  0  0  0  0  0  0
   -6.6010   20.7810  -32.7690 C   0  0  0  0  0  0  0  0  0  0  0  0
   -2.1520   19.9250  -34.0490 C   0  0  0  0  0  0  0  0  0  0  0  0
   -2.0660   20.9950  -33.2990 O   0  0  0  0  0  0  0  0  0  0  0  0
   -2.5480   21.3500  -29.7780 C   0  0  0  0  0  0  0  0  0  0  0  0
   -2.6710   22.2600  -28.7090 C   0  0  0  0  0  0  0  0  0  0  0  0
   -2.3490   21.8760  -27.3980 O   0  0  0  0  0  0  0  0  0  0  0  0
   -2.0020   20.5560  -26.9930 C   0  0  0  0  0  0  0  0  0  0  0  0
   -3.1270   23.5780  -28.9710 C   0  0  0  0  0  0  0  0  0  0  0  0
   -3.2780   24.5640  -27.9770 O   0  0  0  0  0  0  0  0  0  0  0  0
   -4.1760   24.5280  -26.8740 C   0  0  0  0  0  0  0  0  0  0  0  0
   -5.5808   25.7731  -29.4126 H   0  0  0  0  0  0  0  0  0  0  0  0
   -5.3696   26.6475  -30.9674 H   0  0  0  0  0  0  0  0  0  0  0  0
   -5.8882   24.9277  -30.9674 H   0  0  0  0  0  0  0  0  0  0  0  0
   -3.5872   23.3255  -32.3597 H   0  0  0  0  0  0  0  0  0  0  0  0
   -3.5400   17.6291  -34.8650 H   0  0  0  0  0  0  0  0  0  0  0  0
   -2.3336   16.9826  -33.6945 H   0  0  0  0  0  0  0  0  0  0  0  0
   -4.7450   17.8490  -32.4610 H   0  0  0  0  0  0  0  0  0  0  0  0
   -4.9057   15.7681  -34.5524 H   0  0  0  0  0  0  0  0  0  0  0  0
   -6.0756   15.9218  -33.1901 H   0  0  0  0  0  0  0  0  0  0  0  0
   -5.7471   17.5913  -35.6297 H   0  0  0  0  0  0  0  0  0  0  0  0
   -7.1892   17.3256  -34.5859 H   0  0  0  0  0  0  0  0  0  0  0  0
   -8.0773   17.6943  -32.7920 H   0  0  0  0  0  0  0  0  0  0  0  0
   -9.6478   18.8816  -31.2583 H   0  0  0  0  0  0  0  0  0  0  0  0
   -9.2718   21.2845  -30.6942 H   0  0  0  0  0  0  0  0  0  0  0  0
   -5.7397   21.3206  -33.1897 H   0  0  0  0  0  0  0  0  0  0  0  0
   -1.7010   19.7881  -35.0429 H   0  0  0  0  0  0  0  0  0  0  0  0
   -2.1918   20.3281  -29.5808 H   0  0  0  0  0  0  0  0  0  0  0  0
   -1.9876   20.5014  -25.8945 H   0  0  0  0  0  0  0  0  0  0  0  0
   -2.7438   19.8450  -27.3858 H   0  0  0  0  0  0  0  0  0  0  0  0
   -1.0065   20.3017  -27.3858 H   0  0  0  0  0  0  0  0  0  0  0  0
   -3.6041   24.5509  -25.9347 H   0  0  0  0  0  0  0  0  0  0  0  0
   -4.8451   25.4000  -26.9173 H   0  0  0  0  0  0  0  0  0  0  0  0
   -4.7731   23.6052  -26.9173 H   0  0  0  0  0  0  0  0  0  0  0  0
  1  2  1  0
  2  3  1  0
  3  4  2  0
  4  5  1  0
  5  6  1  0
  6  7  2  0
  7  8  1  0
  8  9  1  0
  9 10  1  0
 10 11  1  0
 11 12  1  0
 12 13  1  0
 13 14  1  0
 14 15  2  0
 15 16  1  0
 16 17  2  0
 17 18  1  0
 18 19  1  0
 18 20  2  0
  8 21  2  0
 21 22  1  0
  5 23  2  0
 23 24  1  0
 24 25  1  0
 25 26  1  0
 24 27  2  0
 27 28  1  0
 28 29  1  0
 27  3  1  0
 22  6  1  0
 20 14  1  0
  1 30  1  0
  1 31  1  0
  1 32  1  0
  4 33  1  0
  9 34  1  0
  9 35  1  0
 10 36  1  0
 11 37  1  0
 11 38  1  0
 12 39  1  0
 12 40  1  0
 15 41  1  0
 16 42  1  0
 17 43  1  0
 20 44  1  0
 21 45  1  0
 23 46  1  0
 26 47  1  0
 26 48  1  0
 26 49  1  0
 29 50  1  0
 29 51  1  0
 29 52  1  0
M  END
>  <UniqueID>  (4) 
4

>  <SMILES>  (4) 
COc1cc(-c2nc(CNCCOc3cccc(Cl)c3)co2)cc(OC)c1OC

>  <Energy>  (4) 
80.7303921111628

>  <Genealogy>  (4) 
COc1cc(-c2nc(CNCCOc3cccc(Cl)c3)co2)cc(OC)c1OC (3D coordinates assigned)
COc1cc(-c2nc(CNCCOc3cccc(Cl)c3)co2)cc(OC)c1OC (optimized conformer: 80.7303921111628 kcal/mol)

>  <smiles>  (4) 
COc1cc(-c2nc(CNCCOc3cccc(Cl)c3)co2)cc(OC)c1OC

>  <score_type>  (4) 
oracle

>  <origin>  (4) 
adgpu

>  <m_score__min__energy>  (4) 
-8.1199999999999992

>  <m_primary>  (4) 
energy

$$$$
4:0
     RDKit          3D

 44 46  0  0  0  0  0  0  0  0999 V2000
    3.2550   26.4930  -23.3090 C   0  0  0  0  0  0  0  0  0  0  0  0
    2.2490   27.4390  -23.6510 O   0  0  0  0  0  0  0  0  0  0  0  0
    0.8970   27.2480  -23.3470 C   0  0  0  0  0  0  0  0  0  0  0  0
    0.4400   27.6370  -22.2360 O   0  0  0  0  0  0  0  0  0  0  0  0
    0.0050   26.5910  -24.3290 C   0  0  0  0  0  0  0  0  0  0  0  0
   -0.5100   27.3170  -25.4150 C   0  0  0  0  0  0  0  0  0  0  0  0
   -1.3520   26.7000  -26.3440 C   0  0  0  0  0  0  0  0  0  0  0  0
   -1.7080   25.3510  -26.1990 C   0  0  0  0  0  0  0  0  0  0  0  0
   -2.5570   24.7350  -27.1810 N   0  0  0  0  0  0  0  0  0  0  0  0
   -2.3700   24.8720  -28.6000 C   0  0  0  0  0  0  0  0  0  0  0  0
   -1.2650   25.2700  -29.0580 O   0  0  0  0  0  0  0  0  0  0  0  0
   -3.4430   24.5130  -29.5420 C   0  0  0  0  0  0  0  0  0  0  0  0
   -4.1780   23.3440  -29.5530 C   0  0  0  0  0  0  0  0  0  0  0  0
   -5.0560   23.5080  -30.6100 C   0  0  0  0  0  0  0  0  0  0  0  0
   -6.0860   22.5470  -31.0770 C   0  0  0  0  0  0  0  0  0  0  0  0
   -7.3890   22.6140  -30.5580 C   0  0  0  0  0  0  0  0  0  0  0  0
   -8.3710   21.7180  -30.9810 C   0  0  0  0  0  0  0  0  0  0  0  0
   -8.0760   20.7300  -31.9320 C   0  0  0  0  0  0  0  0  0  0  0  0
   -9.1610   19.7800  -32.3700 C   0  0  0  0  0  0  0  0  0  0  0  0
   -6.7720   20.6560  -32.4730 C   0  0  0  0  0  0  0  0  0  0  0  0
   -6.4100   19.6120  -33.4970 C   0  0  0  0  0  0  0  0  0  0  0  0
   -5.7880   21.5610  -32.0340 C   0  0  0  0  0  0  0  0  0  0  0  0
   -4.8430   24.7110  -31.1820 N   0  0  0  0  0  0  0  0  0  0  0  0
   -3.8650   25.3230  -30.5320 N   0  0  0  0  0  0  0  0  0  0  0  0
   -1.1760   24.6170  -25.1240 C   0  0  0  0  0  0  0  0  0  0  0  0
   -0.3320   25.2330  -24.1960 C   0  0  0  0  0  0  0  0  0  0  0  0
    3.3327   26.4200  -22.2142 H   0  0  0  0  0  0  0  0  0  0  0  0
    2.9898   25.5095  -23.7242 H   0  0  0  0  0  0  0  0  0  0  0  0
    4.2204   26.8181  -23.7242 H   0  0  0  0  0  0  0  0  0  0  0  0
   -0.2488   28.3788  -25.5353 H   0  0  0  0  0  0  0  0  0  0  0  0
   -1.7391   27.2773  -27.1966 H   0  0  0  0  0  0  0  0  0  0  0  0
   -3.2880   24.0700  -26.8430 H   0  0  0  0  0  0  0  0  0  0  0  0
   -4.0866   22.4810  -28.8771 H   0  0  0  0  0  0  0  0  0  0  0  0
   -7.6381   23.3811  -29.8100 H   0  0  0  0  0  0  0  0  0  0  0  0
   -9.3868   21.7870  -30.5646 H   0  0  0  0  0  0  0  0  0  0  0  0
   -9.6517   19.3503  -31.4842 H   0  0  0  0  0  0  0  0  0  0  0  0
   -9.9032   20.3239  -32.9727 H   0  0  0  0  0  0  0  0  0  0  0  0
   -8.7199   18.9724  -32.9727 H   0  0  0  0  0  0  0  0  0  0  0  0
   -6.0910   18.6919  -32.9856 H   0  0  0  0  0  0  0  0  0  0  0  0
   -7.2859   19.3967  -34.1266 H   0  0  0  0  0  0  0  0  0  0  0  0
   -5.5888   19.9852  -34.1266 H   0  0  0  0  0  0  0  0  0  0  0  0
   -4.7701   21.4961  -32.4458 H   0  0  0  0  0  0  0  0  0  0  0  0
   -1.4257   23.5515  -25.0129 H   0  0  0  0  0  0  0  0  0  0  0  0
    0.0718   24.6504  -23.3548 H   0  0  0  0  0  0  0  0  0  0  0  0
  1  2  1  0
  2  3  1  0
  3  4  2  0
  3  5  1  0
  5  6  2  0
  6  7  1  0
  7  8  2  0
  8  9  1  0
  9 10  1  0
 10 11  2  0
 10 12  1  0
 12 13  2  0
 13 14  1  0
 14 15  1  0
 15 16  2  0
 16 17  1  0
 17 18  2  0
 18 19  1  0
 18 20  1  0
 20 21  1  0
 20 22  2  0
 14 23  2  0
 23 24  1  0
  8 25  1  0
 25 26  2  0
 26  5  1  0
 24 12  1  0
 22 15  1  0
  1 27  1  0
  1 28  1  0
  1 29  1  0
  6 30  1  0
  7 31  1  0
  9 32  1  0
 13 33  1  0
 16 34  1  0
 17 35  1  0
 19 36  1  0
 19 37  1  0
 19 38  1  0
 21 39  1  0
 21 40  1  0
 21 41  1  0
 22 42  1  0
 25 43  1  0
 26 44  1  0
M  CHG  1  24  -1
M  END
>  <UniqueID>  (5) 
5

>  <SMILES>  (5) 
COC(=O)c1ccc(NC(=O)c2cc(-c3ccc(C)c(C)c3)n[n-]2)cc1

>  <Energy>  (5) 
78.73953567821964

>  <Genealogy>  (5) 
COC(=O)c1ccc(NC(=O)c2cc(-c3ccc(C)c(C)c3)n[n-]2)cc1 (protonated)
COC(=O)c1ccc(NC(=O)c2cc(-c3ccc(C)c(C)c3)n[n-]2)cc1 (3D coordinates assigned)
COC(=O)c1ccc(NC(=O)c2cc(-c3ccc(C)c(C)c3)n[n-]2)cc1 (optimized conformer: 78.73953567821964 kcal/mol)

>  <smiles>  (5) 
COC(=O)c1ccc(NC(=O)c2cc(-c3ccc(C)c(C)c3)n[nH]2)cc1

>  <score_type>  (5) 
oracle

>  <origin>  (5) 
adgpu

>  <m_score__min__energy>  (5) 
-10.82

>  <m_primary>  (5) 
energy

$$$$
5:0
     RDKit          3D

 22 23  0  0  0  0  0  0  0  0999 V2000
   -2.9650   19.1690  -26.7570 C   0  0  0  0  0  0  0  0  0  0  0  0
   -2.3680   20.5090  -27.0750 C   0  0  0  0  0  0  0  0  0  0  0  0
   -1.1380   20.8830  -26.5140 C   0  0  0  0  0  0  0  0  0  0  0  0
   -0.5680   22.1170  -26.8330 C   0  0  0  0  0  0  0  0  0  0  0  0
   -1.2080   22.9770  -27.7290 C   0  0  0  0  0  0  0  0  0  0  0  0
   -2.4260   22.6050  -28.3280 C   0  0  0  0  0  0  0  0  0  0  0  0
   -3.1240   23.4980  -29.2840 C   0  0  0  0  0  0  0  0  0  0  0  0
   -4.1120   23.0830  -30.1000 N   0  0  0  0  0  0  0  0  0  0  0  0
   -4.4460   24.1930  -30.7910 C   0  0  0  0  0  0  0  0  0  0  0  0
   -5.3520   24.2020  -31.6640 O   0  0  0  0  0  0  0  0  0  0  0  0
   -3.7270   25.2910  -30.4770 N   0  0  0  0  0  0  0  0  0  0  0  0
   -2.8920   24.8380  -29.5260 C   0  0  0  0  0  0  0  0  0  0  0  0
   -1.9220   25.6290  -28.9200 O   0  0  0  0  0  0  0  0  0  0  0  0
   -3.0000   21.3660  -27.9880 C   0  0  0  0  0  0  0  0  0  0  0  0
   -3.0214   19.0424  -25.6658 H   0  0  0  0  0  0  0  0  0  0  0  0
   -3.9759   19.1068  -27.1861 H   0  0  0  0  0  0  0  0  0  0  0  0
   -2.3351   18.3758  -27.1861 H   0  0  0  0  0  0  0  0  0  0  0  0
   -0.6213   20.2026  -25.8212 H   0  0  0  0  0  0  0  0  0  0  0  0
    0.3883   22.4132  -26.3773 H   0  0  0  0  0  0  0  0  0  0  0  0
   -0.7569   23.9514  -27.9679 H   0  0  0  0  0  0  0  0  0  0  0  0
   -1.6200   26.4950  -29.3500 H   0  0  0  0  0  0  0  0  0  0  0  0
   -3.9553   21.0661  -28.4435 H   0  0  0  0  0  0  0  0  0  0  0  0
  1  2  1  0
  2  3  2  0
  3  4  1  0
  4  5  2  0
  5  6  1  0
  6  7  1  0
  7  8  1  0
  8  9  1  0
  9 10  2  0
  9 11  1  0
 11 12  1  0
 12 13  1  0
  6 14  2  0
 14  2  1  0
 12  7  2  0
  1 15  1  0
  1 16  1  0
  1 17  1  0
  3 18  1  0
  4 19  1  0
  5 20  1  0
 13 21  1  0
 14 22  1  0
M  CHG  2   8  -1  11  -1
M  END
>  <UniqueID>  (6) 
6

>  <SMILES>  (6) 
Cc1cccc(-c2[n-]c(=O)[n-]c2O)c1

>  <Energy>  (6) 
53.48807212199398

>  <Genealogy>  (6) 
Cc1cccc(-c2[n-]c(=O)[n-]c2O)c1 (protonated)
Cc1cccc(-c2[n-]c(=O)[n-]c2O)c1 (3D coordinates assigned)
Cc1cccc(-c2[n-]c(=O)[n-]c2O)c1 (optimized conformer: 53.48807212199398 kcal/mol)

>  <smiles>  (6) 
Cc1cccc(-c2[nH]c(=O)[nH]c2O)c1

>  <score_type>  (6) 
oracle

>  <origin>  (6) 
adgpu

>  <m_score__min__energy>  (6) 
-8.4100000000000001

>  <m_primary>  (6) 
energy

$$$$
6:0
     RDKit          3D

 57 60  0  0  0  0  0  0  0  0999 V2000
   -8.5170   18.4550  -31.6090 C   0  0  0  0  0  0  0  0  0  0  0  0
   -8.2940   19.4480  -32.7460 C   0  0  0  0  0  0  0  0  0  0  0  0
   -8.7840   20.7420  -32.3920 O   0  0  0  0  0  0  0  0  0  0  0  0
   -8.0190   21.7740  -31.8260 C   0  0  0  0  0  0  0  0  0  0  0  0
   -7.2320   22.5570  -32.6790 C   0  0  0  0  0  0  0  0  0  0  0  0
   -6.4180   23.5710  -32.1660 C   0  0  0  0  0  0  0  0  0  0  0  0
   -6.3970   23.8270  -30.7890 C   0  0  0  0  0  0  0  0  0  0  0  0
   -5.2920   25.0180  -30.1140 S   0  0  0  0  0  0  0  0  0  0  0  0
   -5.3750   25.0120  -28.6130 O   0  0  0  0  0  0  0  0  0  0  0  0
   -5.6460   26.3920  -30.6100 O   0  0  0  0  0  0  0  0  0  0  0  0
   -3.6880   24.6280  -30.6300 N   0  0  0  0  0  0  0  0  0  0  0  0
   -2.7370   24.0740  -29.7200 C   0  0  0  0  0  0  0  0  0  0  0  0
   -2.2230   24.8660  -28.6840 C   0  0  0  0  0  0  0  0  0  0  0  0
   -1.3400   24.3230  -27.7370 C   0  0  0  0  0  0  0  0  0  0  0  0
   -0.8010   25.1700  -26.6470 C   0  0  0  0  0  0  0  0  0  0  0  0
   -1.6300   25.5200  -25.5650 C   0  0  0  0  0  0  0  0  0  0  0  0
   -1.1430   26.3240  -24.5300 C   0  0  0  0  0  0  0  0  0  0  0  0
    0.1750   26.7830  -24.5620 C   0  0  0  0  0  0  0  0  0  0  0  0
    1.0110   26.4370  -25.6250 C   0  0  0  0  0  0  0  0  0  0  0  0
    0.5340   25.6270  -26.6670 C   0  0  0  0  0  0  0  0  0  0  0  0
    1.3890   25.2610  -27.7060 O   0  0  0  0  0  0  0  0  0  0  0  0
   -0.9660   22.9740  -27.8460 C   0  0  0  0  0  0  0  0  0  0  0  0
   -1.4760   22.1810  -28.8760 C   0  0  0  0  0  0  0  0  0  0  0  0
   -2.3610   22.7200  -29.8200 C   0  0  0  0  0  0  0  0  0  0  0  0
   -2.9070   21.8660  -30.8410 N   0  0  0  0  0  0  0  0  0  0  0  0
   -2.3870   21.9300  -32.2090 C   0  0  0  0  0  0  0  0  0  0  0  0
   -3.5290   21.6760  -33.1970 C   0  0  0  0  0  0  0  0  0  0  0  0
   -4.2110   20.4770  -32.8800 O   0  0  0  0  0  0  0  0  0  0  0  0
   -4.8460   20.6020  -31.6200 C   0  0  0  0  0  0  0  0  0  0  0  0
   -3.8110   20.7660  -30.5030 C   0  0  0  0  0  0  0  0  0  0  0  0
   -7.2040   23.0680  -29.9340 C   0  0  0  0  0  0  0  0  0  0  0  0
   -8.0110   22.0480  -30.4440 C   0  0  0  0  0  0  0  0  0  0  0  0
   -8.4013   18.9704  -30.6441 H   0  0  0  0  0  0  0  0  0  0  0  0
   -9.5316   18.0362  -31.6816 H   0  0  0  0  0  0  0  0  0  0  0  0
   -7.7789   17.6426  -31.6816 H   0  0  0  0  0  0  0  0  0  0  0  0
   -7.2171   19.5161  -32.9595 H   0  0  0  0  0  0  0  0  0  0  0  0
   -8.8386   19.0954  -33.6343 H   0  0  0  0  0  0  0  0  0  0  0  0
   -7.2544   22.3725  -33.7632 H   0  0  0  0  0  0  0  0  0  0  0  0
   -5.7926   24.1692  -32.8451 H   0  0  0  0  0  0  0  0  0  0  0  0
   -2.5145   25.9242  -28.6121 H   0  0  0  0  0  0  0  0  0  0  0  0
   -2.6684   25.1585  -25.5333 H   0  0  0  0  0  0  0  0  0  0  0  0
   -1.7990   26.5951  -23.6897 H   0  0  0  0  0  0  0  0  0  0  0  0
    0.5553   27.4182  -23.7484 H   0  0  0  0  0  0  0  0  0  0  0  0
    2.0488   26.8011  -25.6460 H   0  0  0  0  0  0  0  0  0  0  0  0
    2.3540   25.5690  -27.7350 H   0  0  0  0  0  0  0  0  0  0  0  0
   -0.2673   22.5394  -27.1159 H   0  0  0  0  0  0  0  0  0  0  0  0
   -1.1806   21.1238  -28.9472 H   0  0  0  0  0  0  0  0  0  0  0  0
   -1.9571   22.9257  -32.3925 H   0  0  0  0  0  0  0  0  0  0  0  0
   -1.6072   21.1658  -32.3429 H   0  0  0  0  0  0  0  0  0  0  0  0
   -4.2375   22.5163  -33.1529 H   0  0  0  0  0  0  0  0  0  0  0  0
   -3.1062   21.5841  -34.2083 H   0  0  0  0  0  0  0  0  0  0  0  0
   -5.5043   21.4831  -31.6338 H   0  0  0  0  0  0  0  0  0  0  0  0
   -5.4305   19.6902  -31.4278 H   0  0  0  0  0  0  0  0  0  0  0  0
   -4.3242   20.9895  -29.5561 H   0  0  0  0  0  0  0  0  0  0  0  0
   -3.2351   19.8352  -30.3938 H   0  0  0  0  0  0  0  0  0  0  0  0
   -7.2029   23.2758  -28.8538 H   0  0  0  0  0  0  0  0  0  0  0  0
   -8.6423   21.4568  -29.7643 H   0  0  0  0  0  0  0  0  0  0  0  0
  1  2  1  0
  2  3  1  0
  3  4  1  0
  4  5  2  0
  5  6  1  0
  6  7  2  0
  7  8  1  0
  8  9  2  0
  8 10  2  0
  8 11  1  0
 11 12  1  0
 12 13  2  0
 13 14  1  0
 14 15  1  0
 15 16  2  0
 16 17  1  0
 17 18  2  0
 18 19  1  0
 19 20  2  0
 20 21  1  0
 14 22  2  0
 22 23  1  0
 23 24  2  0
 24 25  1  0
 25 26  1  0
 26 27  1  0
 27 28  1  0
 28 29  1  0
 29 30  1  0
  7 31  1  0
 31 32  2  0
 32  4  1  0
 24 12  1  0
 30 25  1  0
 20 15  1  0
  1 33  1  0
  1 34  1  0
  1 35  1  0
  2 36  1  0
  2 37  1  0
  5 38  1  0
  6 39  1  0
 13 40  1  0
 16 41  1  0
 17 42  1  0
 18 43  1  0
 19 44  1  0
 21 45  1  0
 22 46  1  0
 23 47  1  0
 26 48  1  0
 26 49  1  0
 27 50  1  0
 27 51  1  0
 29 52  1  0
 29 53  1  0
 30 54  1  0
 30 55  1  0
 31 56  1  0
 32 57  1  0
M  CHG  1  11  -1
M  END
>  <UniqueID>  (7) 
7

>  <SMILES>  (7) 
CCOc1ccc(S(=O)(=O)[N-]c2cc(-c3ccccc3O)ccc2N2CCOCC2)cc1

>  <Energy>  (7) 
75.79686628023357

>  <Genealogy>  (7) 
CCOc1ccc(S(=O)(=O)[N-]c2cc(-c3ccccc3O)ccc2N2CCOCC2)cc1 (protonated)
CCOc1ccc(S(=O)(=O)[N-]c2cc(-c3ccccc3O)ccc2N2CCOCC2)cc1 (3D coordinates assigned)
CCOc1ccc(S(=O)(=O)[N-]c2cc(-c3ccccc3O)ccc2N2CCOCC2)cc1 (nonaromatic ring conformer: 75.79686628023357 kcal/mol)

>  <smiles>  (7) 
CCOc1ccc(S(=O)(=O)Nc2cc(-c3ccccc3O)ccc2N2CCOCC2)cc1

>  <score_type>  (7) 
oracle

>  <origin>  (7) 
adgpu

>  <m_score__min__energy>  (7) 
-10.41

>  <m_primary>  (7) 
energy

$$$$
7:0
     RDKit          3D

 28 29  0  0  0  0  0  0  0  0999 V2000
    0.1380   24.5260  -28.5800 O   0  0  0  0  0  0  0  0  0  0  0  0
   -1.0230   24.7750  -28.9990 C   0  0  0  0  0  0  0  0  0  0  0  0
   -1.4760   26.0890  -28.9680 O   0  0  0  0  0  0  0  0  0  0  0  0
   -1.8980   23.6940  -29.5210 C   0  0  0  0  0  0  0  0  0  0  0  0
   -1.5320   22.3520  -29.3120 C   0  0  0  0  0  0  0  0  0  0  0  0
   -2.3330   21.3120  -29.7890 C   0  0  0  0  0  0  0  0  0  0  0  0
   -3.5140   21.5850  -30.4830 C   0  0  0  0  0  0  0  0  0  0  0  0
   -4.3090   20.4840  -30.9450 N   0  0  0  0  0  0  0  0  0  0  0  0
   -5.0310   20.3620  -32.5170 S   0  0  0  0  0  0  0  0  0  0  0  0
   -4.4560   21.4330  -33.4010 O   0  0  0  0  0  0  0  0  0  0  0  0
   -4.7040   19.0160  -33.1000 O   0  0  0  0  0  0  0  0  0  0  0  0
   -6.7840   20.5230  -32.4050 C   0  0  0  0  0  0  0  0  0  0  0  0
   -7.3520   21.7510  -32.0320 C   0  0  0  0  0  0  0  0  0  0  0  0
   -8.7400   21.8890  -31.9450 C   0  0  0  0  0  0  0  0  0  0  0  0
   -9.5700   20.8000  -32.2230 C   0  0  0  0  0  0  0  0  0  0  0  0
   -9.0120   19.5700  -32.5860 C   0  0  0  0  0  0  0  0  0  0  0  0
   -7.6230   19.4270  -32.6740 C   0  0  0  0  0  0  0  0  0  0  0  0
   -7.1020   18.2220  -33.0170 F   0  0  0  0  0  0  0  0  0  0  0  0
   -3.8880   22.9210  -30.6990 C   0  0  0  0  0  0  0  0  0  0  0  0
   -3.0920   23.9690  -30.2230 C   0  0  0  0  0  0  0  0  0  0  0  0
   -3.5040   25.2780  -30.4590 O   0  0  0  0  0  0  0  0  0  0  0  0
   -0.6052   22.1192  -28.7672 H   0  0  0  0  0  0  0  0  0  0  0  0
   -2.0310   20.2684  -29.6166 H   0  0  0  0  0  0  0  0  0  0  0  0
   -6.7015   22.6091  -31.8070 H   0  0  0  0  0  0  0  0  0  0  0  0
   -9.1793   22.8556  -31.6575 H   0  0  0  0  0  0  0  0  0  0  0  0
  -10.6625   20.9100  -32.1564 H   0  0  0  0  0  0  0  0  0  0  0  0
   -9.6667   18.7130  -32.8028 H   0  0  0  0  0  0  0  0  0  0  0  0
   -4.8148   23.1459  -31.2472 H   0  0  0  0  0  0  0  0  0  0  0  0
  1  2  2  0
  2  3  1  0
  2  4  1  0
  4  5  2  0
  5  6  1  0
  6  7  2  0
  7  8  1  0
  8  9  1  0
  9 10  2  0
  9 11  2  0
  9 12  1  0
 12 13  2  0
 13 14  1  0
 14 15  2  0
 15 16  1  0
 16 17  2  0
 17 18  1  0
  7 19  1  0
 19 20  2  0
 20 21  1  0
 20  4  1  0
 17 12  1  0
  5 22  1  0
  6 23  1  0
 13 24  1  0
 14 25  1  0
 15 26  1  0
 16 27  1  0
 19 28  1  0
M  CHG  3   3  -1   8  -1  21  -1
M  END
>  <UniqueID>  (8) 
8

>  <SMILES>  (8) 
O=C([O-])c1ccc([N-]S(=O)(=O)c2ccccc2F)cc1[O-]

>  <Energy>  (8) 
34.980817305675565

>  <Genealogy>  (8) 
O=C([O-])c1ccc([N-]S(=O)(=O)c2ccccc2F)cc1[O-] (protonated)
O=C([O-])c1ccc([N-]S(=O)(=O)c2ccccc2F)cc1[O-] (3D coordinates assigned)
O=C([O-])c1ccc([N-]S(=O)(=O)c2ccccc2F)cc1[O-] (optimized conformer: 34.980817305675565 kcal/mol)

>  <smiles>  (8) 
O=C(O)c1ccc(NS(=O)(=O)c2ccccc2F)cc1O

>  <score_type>  (8) 
oracle

>  <origin>  (8) 
adgpu

>  <m_score__min__energy>  (8) 
-12.59

>  <m_primary>  (8) 
energy

$$$$
8:0
     RDKit          3D

 47 49  0  0  0  0  0  0  0  0999 V2000
   -1.0990   20.5930  -27.1880 C   0  0  0  0  0  0  0  0  0  0  0  0
   -2.0860   21.5070  -27.8520 C   0  0  0  0  0  0  0  0  0  0  0  0
   -2.3630   21.3720  -29.2180 C   0  0  0  0  0  0  0  0  0  0  0  0
   -3.2480   22.2480  -29.8460 C   0  0  0  0  0  0  0  0  0  0  0  0
   -3.8670   23.2810  -29.1270 C   0  0  0  0  0  0  0  0  0  0  0  0
   -4.9660   24.3770  -29.9820 S   0  0  0  0  0  0  0  0  0  0  0  0
   -4.1500   25.2950  -30.8490 O   0  0  0  0  0  0  0  0  0  0  0  0
   -5.7470   25.2110  -29.0060 O   0  0  0  0  0  0  0  0  0  0  0  0
   -6.0850   23.4590  -30.9490 N   0  0  0  0  0  0  0  0  0  0  0  0
   -7.4610   23.9380  -31.0890 C   0  0  0  0  0  0  0  0  0  0  0  0
   -5.6510   22.2830  -31.6560 C   0  0  0  0  0  0  0  0  0  0  0  0
   -6.2710   21.0460  -31.4270 C   0  0  0  0  0  0  0  0  0  0  0  0
   -5.8490   19.9030  -32.1100 C   0  0  0  0  0  0  0  0  0  0  0  0
   -4.7910   19.9720  -33.0340 C   0  0  0  0  0  0  0  0  0  0  0  0
   -4.3430   18.7570  -33.7620 C   0  0  0  0  0  0  0  0  0  0  0  0
   -2.9710   18.4980  -33.9440 C   0  0  0  0  0  0  0  0  0  0  0  0
   -2.5500   17.3540  -34.6280 C   0  0  0  0  0  0  0  0  0  0  0  0
   -3.4920   16.4550  -35.1410 C   0  0  0  0  0  0  0  0  0  0  0  0
   -3.0570   15.2780  -35.8450 C   0  0  0  0  0  0  0  0  0  0  0  0
   -2.7080   14.3320  -36.4130 N   0  0  0  0  0  0  0  0  0  0  0  0
   -4.8580   16.7030  -34.9650 C   0  0  0  0  0  0  0  0  0  0  0  0
   -5.2810   17.8470  -34.2800 C   0  0  0  0  0  0  0  0  0  0  0  0
   -4.1660   21.2120  -33.2560 C   0  0  0  0  0  0  0  0  0  0  0  0
   -4.5890   22.3540  -32.5720 C   0  0  0  0  0  0  0  0  0  0  0  0
   -3.5870   23.4310  -27.7450 C   0  0  0  0  0  0  0  0  0  0  0  0
   -4.1940   24.5390  -26.9250 C   0  0  0  0  0  0  0  0  0  0  0  0
   -2.6850   22.5470  -27.1270 C   0  0  0  0  0  0  0  0  0  0  0  0
   -1.1946   20.6815  -26.0957 H   0  0  0  0  0  0  0  0  0  0  0  0
   -1.2996   19.5547  -27.4907 H   0  0  0  0  0  0  0  0  0  0  0  0
   -0.0791   20.8726  -27.4907 H   0  0  0  0  0  0  0  0  0  0  0  0
   -1.8805   20.5716  -29.7982 H   0  0  0  0  0  0  0  0  0  0  0  0
   -3.4631   22.1273  -30.9180 H   0  0  0  0  0  0  0  0  0  0  0  0
   -7.8994   24.0906  -30.0917 H   0  0  0  0  0  0  0  0  0  0  0  0
   -7.4636   24.8899  -31.6402 H   0  0  0  0  0  0  0  0  0  0  0  0
   -8.0541   23.1935  -31.6402 H   0  0  0  0  0  0  0  0  0  0  0  0
   -7.0965   20.9753  -30.7035 H   0  0  0  0  0  0  0  0  0  0  0  0
   -6.3484   18.9408  -31.9236 H   0  0  0  0  0  0  0  0  0  0  0  0
   -2.2250   19.2011  -33.5450 H   0  0  0  0  0  0  0  0  0  0  0  0
   -1.4758   17.1599  -34.7634 H   0  0  0  0  0  0  0  0  0  0  0  0
   -5.6003   15.9972  -35.3660 H   0  0  0  0  0  0  0  0  0  0  0  0
   -6.3563   18.0360  -34.1456 H   0  0  0  0  0  0  0  0  0  0  0  0
   -3.3364   21.2832  -33.9749 H   0  0  0  0  0  0  0  0  0  0  0  0
   -4.0866   23.3159  -32.7521 H   0  0  0  0  0  0  0  0  0  0  0  0
   -4.0705   24.3135  -25.8555 H   0  0  0  0  0  0  0  0  0  0  0  0
   -3.6897   25.4879  -27.1603 H   0  0  0  0  0  0  0  0  0  0  0  0
   -5.2651   24.6248  -27.1603 H   0  0  0  0  0  0  0  0  0  0  0  0
   -2.4461   22.6730  -26.0607 H   0  0  0  0  0  0  0  0  0  0  0  0
  1  2  1  0
  2  3  2  0
  3  4  1  0
  4  5  2  0
  5  6  1  0
  6  7  2  0
  6  8  2  0
  6  9  1  0
  9 10  1  0
  9 11  1  0
 11 12  2  0
 12 13  1  0
 13 14  2  0
 14 15  1  0
 15 16  2  0
 16 17  1  0
 17 18  2  0
 18 19  1  0
 19 20  3  0
 18 21  1  0
 21 22  2  0
 14 23  1  0
 23 24  2  0
  5 25  1  0
 25 26  1  0
 25 27  2  0
 27  2  1  0
 24 11  1  0
 22 15  1  0
  1 28  1  0
  1 29  1  0
  1 30  1  0
  3 31  1  0
  4 32  1  0
 10 33  1  0
 10 34  1  0
 10 35  1  0
 12 36  1  0
 13 37  1  0
 16 38  1  0
 17 39  1  0
 21 40  1  0
 22 41  1  0
 23 42  1  0
 24 43  1  0
 26 44  1  0
 26 45  1  0
 26 46  1  0
 27 47  1  0
M  END
>  <UniqueID>  (9) 
9

>  <SMILES>  (9) 
Cc1ccc(S(=O)(=O)N(C)c2ccc(-c3ccc(C#N)cc3)cc2)c(C)c1

>  <Energy>  (9) 
58.30560346830091

>  <Genealogy>  (9) 
Cc1ccc(S(=O)(=O)N(C)c2ccc(-c3ccc(C#N)cc3)cc2)c(C)c1 (3D coordinates assigned)
Cc1ccc(S(=O)(=O)N(C)c2ccc(-c3ccc(C#N)cc3)cc2)c(C)c1 (optimized conformer: 58.30560346830091 kcal/mol)

>  <smiles>  (9) 
Cc1ccc(S(=O)(=O)N(C)c2ccc(-c3ccc(C#N)cc3)cc2)c(C)c1

>  <score_type>  (9) 
oracle

>  <origin>  (9) 
adgpu

>  <m_score__min__energy>  (9) 
-9.8699999999999992

>  <m_primary>  (9) 
energy

$$$$
9:0
     RDKit          3D

 52 54  0  0  0  0  0  0  0  0999 V2000
   -7.7230   20.2510  -32.5760 C   0  0  0  0  0  0  0  0  0  0  0  0
   -7.1560   21.5390  -32.7950 O   0  0  0  0  0  0  0  0  0  0  0  0
   -6.5610   22.3210  -31.7950 C   0  0  0  0  0  0  0  0  0  0  0  0
   -7.2150   23.4180  -31.2030 C   0  0  0  0  0  0  0  0  0  0  0  0
   -6.5820   24.1640  -30.2040 C   0  0  0  0  0  0  0  0  0  0  0  0
   -5.2910   23.8170  -29.7670 C   0  0  0  0  0  0  0  0  0  0  0  0
   -4.6100   24.5700  -28.7480 N   0  0  0  0  0  0  0  0  0  0  0  0
   -4.1820   24.0290  -27.4860 C   0  0  0  0  0  0  0  0  0  0  0  0
   -4.2870   22.7960  -27.2450 O   0  0  0  0  0  0  0  0  0  0  0  0
   -3.5700   24.9250  -26.4510 C   0  0  0  0  0  0  0  0  0  0  0  0
   -2.1790   25.2240  -26.7990 N   0  0  0  0  0  0  0  0  0  0  0  0
   -1.3970   26.1070  -25.9800 C   0  0  0  0  0  0  0  0  0  0  0  0
   -0.8310   27.2660  -26.5290 C   0  0  0  0  0  0  0  0  0  0  0  0
   -0.0750   28.1290  -25.7310 C   0  0  0  0  0  0  0  0  0  0  0  0
    0.1260   27.8510  -24.3750 C   0  0  0  0  0  0  0  0  0  0  0  0
    0.8930   28.7480  -23.6170 O   0  0  0  0  0  0  0  0  0  0  0  0
    1.7600   28.3650  -22.5540 C   0  0  0  0  0  0  0  0  0  0  0  0
   -0.4440   26.6880  -23.8210 C   0  0  0  0  0  0  0  0  0  0  0  0
   -1.1990   25.8260  -24.6200 C   0  0  0  0  0  0  0  0  0  0  0  0
   -1.4740   24.4750  -28.2030 S   0  0  0  0  0  0  0  0  0  0  0  0
   -2.2550   24.8890  -29.4190 O   0  0  0  0  0  0  0  0  0  0  0  0
   -0.0510   24.9240  -28.3780 O   0  0  0  0  0  0  0  0  0  0  0  0
   -1.4970   22.7220  -28.0280 C   0  0  0  0  0  0  0  0  0  0  0  0
   -1.2770   22.1430  -26.7690 C   0  0  0  0  0  0  0  0  0  0  0  0
   -1.3130   20.7540  -26.6180 C   0  0  0  0  0  0  0  0  0  0  0  0
   -1.5630   19.9350  -27.7220 C   0  0  0  0  0  0  0  0  0  0  0  0
   -1.7850   20.5070  -28.9790 C   0  0  0  0  0  0  0  0  0  0  0  0
   -1.7570   21.8960  -29.1330 C   0  0  0  0  0  0  0  0  0  0  0  0
   -4.6310   22.7440  -30.3840 C   0  0  0  0  0  0  0  0  0  0  0  0
   -5.2650   21.9970  -31.3800 C   0  0  0  0  0  0  0  0  0  0  0  0
   -7.8047   20.0654  -31.4949 H   0  0  0  0  0  0  0  0  0  0  0  0
   -8.7231   20.2083  -33.0320 H   0  0  0  0  0  0  0  0  0  0  0  0
   -7.0791   19.4846  -33.0320 H   0  0  0  0  0  0  0  0  0  0  0  0
   -8.2300   23.6900  -31.5282 H   0  0  0  0  0  0  0  0  0  0  0  0
   -7.0968   25.0274  -29.7573 H   0  0  0  0  0  0  0  0  0  0  0  0
   -4.3090   25.5420  -28.9860 H   0  0  0  0  0  0  0  0  0  0  0  0
   -4.1414   25.8636  -26.3993 H   0  0  0  0  0  0  0  0  0  0  0  0
   -3.5945   24.4161  -25.4761 H   0  0  0  0  0  0  0  0  0  0  0  0
   -0.9827   27.4975  -27.5936 H   0  0  0  0  0  0  0  0  0  0  0  0
    0.3658   29.0347  -26.1731 H   0  0  0  0  0  0  0  0  0  0  0  0
    1.2752   28.5792  -21.5901 H   0  0  0  0  0  0  0  0  0  0  0  0
    1.9743   27.2884  -22.6254 H   0  0  0  0  0  0  0  0  0  0  0  0
    2.7002   28.9316  -22.6254 H   0  0  0  0  0  0  0  0  0  0  0  0
   -0.2941   26.4579  -22.7558 H   0  0  0  0  0  0  0  0  0  0  0  0
   -1.6414   24.9203  -24.1795 H   0  0  0  0  0  0  0  0  0  0  0  0
   -1.0756   22.7842  -25.8982 H   0  0  0  0  0  0  0  0  0  0  0  0
   -1.1442   20.3048  -25.6282 H   0  0  0  0  0  0  0  0  0  0  0  0
   -1.5852   18.8417  -27.6028 H   0  0  0  0  0  0  0  0  0  0  0  0
   -1.9821   19.8623  -29.8482 H   0  0  0  0  0  0  0  0  0  0  0  0
   -1.9390   22.3426  -30.1216 H   0  0  0  0  0  0  0  0  0  0  0  0
   -3.6049   22.4884  -30.0809 H   0  0  0  0  0  0  0  0  0  0  0  0
   -4.7408   21.1472  -31.8416 H   0  0  0  0  0  0  0  0  0  0  0  0
  1  2  1  0
  2  3  1  0
  3  4  2  0
  4  5  1  0
  5  6  2  0
  6  7  1  0
  7  8  1  0
  8  9  2  0
  8 10  1  0
 10 11  1  0
 11 12  1  0
 12 13  2  0
 13 14  1  0
 14 15  2  0
 15 16  1  0
 16 17  1  0
 15 18  1  0
 18 19  2  0
 11 20  1  0
 20 21  2  0
 20 22  2  0
 20 23  1  0
 23 24  2  0
 24 25  1  0
 25 26  2  0
 26 27  1  0
 27 28  2  0
  6 29  1  0
 29 30  2  0
 30  3  1  0
 19 12  1  0
 28 23  1  0
  1 31  1  0
  1 32  1  0
  1 33  1  0
  4 34  1  0
  5 35  1  0
  7 36  1  0
 10 37  1  0
 10 38  1  0
 13 39  1  0
 14 40  1  0
 17 41  1  0
 17 42  1  0
 17 43  1  0
 18 44  1  0
 19 45  1  0
 24 46  1  0
 25 47  1  0
 26 48  1  0
 27 49  1  0
 28 50  1  0
 29 51  1  0
 30 52  1  0
M  END
>  <UniqueID>  (10) 
10

>  <SMILES>  (10) 
COc1ccc(NC(=O)CN(c2ccc(OC)cc2)S(=O)(=O)c2ccccc2)cc1

>  <Energy>  (10) 
58.14905428424276

>  <Genealogy>  (10) 
COc1ccc(NC(=O)CN(c2ccc(OC)cc2)S(=O)(=O)c2ccccc2)cc1 (3D coordinates assigned)
COc1ccc(NC(=O)CN(c2ccc(OC)cc2)S(=O)(=O)c2ccccc2)cc1 (optimized conformer: 58.14905428424276 kcal/mol)

>  <smiles>  (10) 
COc1ccc(NC(=O)CN(c2ccc(OC)cc2)S(=O)(=O)c2ccccc2)cc1

>  <score_type>  (10) 
oracle

>  <origin>  (10) 
adgpu

>  <m_score__min__energy>  (10) 
-9.2100000000000009

>  <m_primary>  (10) 
energy

$$$$
10:0
     RDKit          3D

 41 43  0  0  0  0  0  0  0  0999 V2000
   -5.7680   16.7070  -31.1820 C   0  0  0  0  0  0  0  0  0  0  0  0
   -5.5100   17.1040  -32.6120 C   0  0  0  0  0  0  0  0  0  0  0  0
   -4.4350   16.5070  -33.2960 C   0  0  0  0  0  0  0  0  0  0  0  0
   -4.1710   16.8300  -34.6270 C   0  0  0  0  0  0  0  0  0  0  0  0
   -4.9790   17.7460  -35.2960 C   0  0  0  0  0  0  0  0  0  0  0  0
   -6.0600   18.3370  -34.6420 C   0  0  0  0  0  0  0  0  0  0  0  0
   -6.3520   18.0170  -33.3030 C   0  0  0  0  0  0  0  0  0  0  0  0
   -7.5590   18.6540  -32.6450 C   0  0  0  0  0  0  0  0  0  0  0  0
   -7.6660   20.0690  -33.0020 N   0  0  0  0  0  0  0  0  0  0  0  0
   -7.0550   21.1350  -32.2510 C   0  0  0  0  0  0  0  0  0  0  0  0
   -7.7970   22.2950  -31.9800 C   0  0  0  0  0  0  0  0  0  0  0  0
   -7.2190   23.3600  -31.2850 C   0  0  0  0  0  0  0  0  0  0  0  0
   -5.8930   23.2760  -30.8430 C   0  0  0  0  0  0  0  0  0  0  0  0
   -5.1590   24.6470  -30.0150 S   0  0  0  0  0  0  0  0  0  0  0  0
   -4.1390   25.2740  -30.9210 O   0  0  0  0  0  0  0  0  0  0  0  0
   -6.1970   25.6760  -29.6620 O   0  0  0  0  0  0  0  0  0  0  0  0
   -4.3790   24.1060  -28.5630 N   0  0  0  0  0  0  0  0  0  0  0  0
   -3.1710   24.4300  -28.2100 C   0  0  0  0  0  0  0  0  0  0  0  0
   -2.3410   25.2270  -28.9240 N   0  0  0  0  0  0  0  0  0  0  0  0
   -1.1440   25.4010  -28.3030 C   0  0  0  0  0  0  0  0  0  0  0  0
   -1.0150   24.7360  -27.0870 C   0  0  0  0  0  0  0  0  0  0  0  0
   -2.4520   23.9080  -26.7860 S   0  0  0  0  0  0  0  0  0  0  0  0
   -5.1550   22.1120  -31.0870 C   0  0  0  0  0  0  0  0  0  0  0  0
   -5.7320   21.0460  -31.7830 C   0  0  0  0  0  0  0  0  0  0  0  0
   -5.2943   17.4359  -30.5079 H   0  0  0  0  0  0  0  0  0  0  0  0
   -6.8521   16.6870  -30.9969 H   0  0  0  0  0  0  0  0  0  0  0  0
   -5.3460   15.7082  -30.9969 H   0  0  0  0  0  0  0  0  0  0  0  0
   -3.7963   15.7781  -32.7757 H   0  0  0  0  0  0  0  0  0  0  0  0
   -3.3238   16.3608  -35.1487 H   0  0  0  0  0  0  0  0  0  0  0  0
   -4.7640   18.0042  -36.3434 H   0  0  0  0  0  0  0  0  0  0  0  0
   -6.6910   19.0609  -35.1785 H   0  0  0  0  0  0  0  0  0  0  0  0
   -8.4676   18.1299  -32.9763 H   0  0  0  0  0  0  0  0  0  0  0  0
   -7.4448   18.5759  -31.5537 H   0  0  0  0  0  0  0  0  0  0  0  0
   -8.1240   20.3010  -33.9120 H   0  0  0  0  0  0  0  0  0  0  0  0
   -8.8416   22.3661  -32.3174 H   0  0  0  0  0  0  0  0  0  0  0  0
   -7.8074   24.2675  -31.0843 H   0  0  0  0  0  0  0  0  0  0  0  0
   -2.5640   25.6650  -29.8440 H   0  0  0  0  0  0  0  0  0  0  0  0
   -0.3399   26.0193  -28.7286 H   0  0  0  0  0  0  0  0  0  0  0  0
   -0.1288   24.7486  -26.4354 H   0  0  0  0  0  0  0  0  0  0  0  0
   -4.1174   22.0359  -30.7298 H   0  0  0  0  0  0  0  0  0  0  0  0
   -5.1477   20.1321  -31.9657 H   0  0  0  0  0  0  0  0  0  0  0  0
  1  2  1  0
  2  3  2  0
  3  4  1  0
  4  5  2  0
  5  6  1  0
  6  7  2  0
  7  8  1  0
  8  9  1  0
  9 10  1  0
 10 11  2  0
 11 12  1  0
 12 13  2  0
 13 14  1  0
 14 15  2  0
 14 16  2  0
 14 17  1  0
 17 18  2  3
 18 19  1  0
 19 20  1  0
 20 21  2  0
 21 22  1  0
 13 23  1  0
 23 24  2  0
  7  2  1  0
 24 10  1  0
 22 18  1  0
  1 25  1  0
  1 26  1  0
  1 27  1  0
  3 28  1  0
  4 29  1  0
  5 30  1  0
  6 31  1  0
  8 32  1  0
  8 33  1  0
  9 34  1  0
 11 35  1  0
 12 36  1  0
 19 37  1  0
 20 38  1  0
 21 39  1  0
 23 40  1  0
 24 41  1  0
M  END
>  <UniqueID>  (11) 
11

>  <SMILES>  (11) 
Cc1ccccc1CNc1ccc(S(=O)(=O)N=c2[nH]ccs2)cc1

>  <Energy>  (11) 
76.47834895923192

>  <Genealogy>  (11) 
Cc1ccccc1CNc1ccc(S(=O)(=O)N=c2[nH]ccs2)cc1 (3D coordinates assigned)
Cc1ccccc1CNc1ccc(S(=O)(=O)N=c2[nH]ccs2)cc1 (optimized conformer: 76.47834895923192 kcal/mol)

>  <smiles>  (11) 
Cc1ccccc1CNc1ccc(S(=O)(=O)N=c2[nH]ccs2)cc1

>  <score_type>  (11) 
oracle

>  <origin>  (11) 
adgpu

>  <m_score__min__energy>  (11) 
-9.7799999999999994

>  <m_primary>  (11) 
energy

$$$$
11:0
     RDKit          3D

 49 52  0  0  0  0  0  0  0  0999 V2000
  -11.0329   21.0353  -32.1742 H   0  0  0  0  0  0  0  0  0  0  0  0
   -9.9620   20.7860  -32.2060 C   0  0  0  0  0  0  0  0  0  0  0  0
   -9.5640   19.5590  -32.6300 N   0  0  0  0  0  0  0  0  0  0  0  0
   -8.2480   19.2320  -32.6890 C   0  0  0  0  0  0  0  0  0  0  0  0
   -7.9070   18.0390  -33.0840 N   0  0  0  0  0  0  0  0  0  0  0  0
   -6.5690   17.5400  -33.2550 C   0  0  0  0  0  0  0  0  0  0  0  0
   -5.8270   17.9690  -34.3630 C   0  0  0  0  0  0  0  0  0  0  0  0
   -6.2807   18.6568  -35.0918 H   0  0  0  0  0  0  0  0  0  0  0  0
   -4.5130   17.5280  -34.5480 C   0  0  0  0  0  0  0  0  0  0  0  0
   -3.9423   17.8558  -35.4294 H   0  0  0  0  0  0  0  0  0  0  0  0
   -3.9240   16.6710  -33.6140 C   0  0  0  0  0  0  0  0  0  0  0  0
   -2.8935   16.3173  -33.7652 H   0  0  0  0  0  0  0  0  0  0  0  0
   -4.6440   16.2640  -32.4890 C   0  0  0  0  0  0  0  0  0  0  0  0
   -4.1764   15.5969  -31.7498 H   0  0  0  0  0  0  0  0  0  0  0  0
   -5.9590   16.7030  -32.3000 C   0  0  0  0  0  0  0  0  0  0  0  0
   -6.5175   16.3940  -31.4041 H   0  0  0  0  0  0  0  0  0  0  0  0
   -7.3120   20.1390  -32.2950 N   0  0  0  0  0  0  0  0  0  0  0  0
   -7.6570   21.3800  -31.8530 C   0  0  0  0  0  0  0  0  0  0  0  0
   -6.5880   22.3290  -31.4460 C   0  0  0  0  0  0  0  0  0  0  0  0
   -6.8870   23.5300  -30.7740 C   0  0  0  0  0  0  0  0  0  0  0  0
   -7.9334   23.7819  -30.5469 H   0  0  0  0  0  0  0  0  0  0  0  0
   -5.8650   24.4050  -30.3930 C   0  0  0  0  0  0  0  0  0  0  0  0
   -6.1137   25.3366  -29.8636 H   0  0  0  0  0  0  0  0  0  0  0  0
   -4.5270   24.1050  -30.6800 C   0  0  0  0  0  0  0  0  0  0  0  0
   -3.4950   25.0130  -30.2560 N   0  0  0  0  0  0  0  0  0  0  0  0
   -3.5070   25.9860  -30.6360 H   0  0  0  0  0  0  0  0  0  0  0  0
   -2.3750   24.6410  -29.4410 C   0  0  0  0  0  0  0  0  0  0  0  0
   -2.1460   23.4270  -29.1860 O   0  0  0  0  0  0  0  0  0  0  0  0
   -1.5250   25.6660  -28.9130 N   0  0  0  0  0  0  0  0  0  0  0  0
   -1.3760   26.0280  -27.5330 C   0  0  0  0  0  0  0  0  0  0  0  0
   -0.5420   27.0870  -27.1270 C   0  0  0  0  0  0  0  0  0  0  0  0
    0.0355   27.6460  -27.8780 H   0  0  0  0  0  0  0  0  0  0  0  0
   -0.4420   27.4350  -25.7700 C   0  0  0  0  0  0  0  0  0  0  0  0
    0.4800   28.5370  -25.3390 C   0  0  0  0  0  0  0  0  0  0  0  0
    0.5142   28.5778  -24.2403 H   0  0  0  0  0  0  0  0  0  0  0  0
    1.4898   28.3443  -25.7303 H   0  0  0  0  0  0  0  0  0  0  0  0
    0.1121   29.4970  -25.7303 H   0  0  0  0  0  0  0  0  0  0  0  0
   -1.1670   26.7070  -24.8160 C   0  0  0  0  0  0  0  0  0  0  0  0
   -1.0677   26.9517  -23.7482 H   0  0  0  0  0  0  0  0  0  0  0  0
   -2.0150   25.6720  -25.2170 C   0  0  0  0  0  0  0  0  0  0  0  0
   -2.5956   25.1166  -24.4657 H   0  0  0  0  0  0  0  0  0  0  0  0
   -2.1280   25.3400  -26.5700 C   0  0  0  0  0  0  0  0  0  0  0  0
   -2.9570   24.3330  -26.9440 F   0  0  0  0  0  0  0  0  0  0  0  0
   -4.2200   22.8930  -31.3180 C   0  0  0  0  0  0  0  0  0  0  0  0
   -3.1707   22.6316  -31.5194 H   0  0  0  0  0  0  0  0  0  0  0  0
   -5.2400   22.0160  -31.6990 C   0  0  0  0  0  0  0  0  0  0  0  0
   -4.9858   21.0713  -32.2019 H   0  0  0  0  0  0  0  0  0  0  0  0
   -9.0160   21.7300  -31.8110 C   0  0  0  0  0  0  0  0  0  0  0  0
   -9.3278   22.7293  -31.4731 H   0  0  0  0  0  0  0  0  0  0  0  0
  1  2  1  0
  2  3  1  0
  3  4  1  0
  4  5  2  0
  5  6  1  0
  6  7  2  0
  7  8  1  0
  7  9  1  0
  9 10  1  0
  9 11  2  0
 11 12  1  0
 11 13  1  0
 13 14  1  0
 13 15  2  0
 15 16  1  0
  4 17  1  0
 17 18  2  0
 18 19  1  0
 19 20  2  0
 20 21  1  0
 20 22  1  0
 22 23  1  0
 22 24  2  0
 24 25  1  0
 25 26  1  0
 25 27  1  0
 27 28  2  0
 27 29  1  0
 29 30  1  0
 30 31  2  0
 31 32  1  0
 31 33  1  0
 33 34  1  0
 34 35  1  0
 34 36  1  0
 34 37  1  0
 33 38  2  0
 38 39  1  0
 38 40  1  0
 40 41  1  0
 40 42  2  0
 42 43  1  0
 24 44  1  0
 44 45  1  0
 44 46  2  0
 46 47  1  0
 18 48  1  0
 48 49  1  0
 48  2  2  0
 15  6  1  0
 46 19  1  0
 42 30  1  0
M  CHG  2   3  -1  29  -1
M  END
>  <UniqueID>  (12) 
12

>  <SMILES>  (12) 
Cc1ccc(F)c([N-]C(=O)Nc2ccc(-c3cc[n-]/c(=N/c4ccccc4)n3)cc2)c1

>  <Energy>  (12) 
70.68826739353128

>  <Genealogy>  (12) 
Cc1ccc(F)c([N-]C(=O)Nc2ccc(-c3cc[n-]c(=Nc4ccccc4)n3)cc2)c1 (protonated)
Cc1ccc(F)c([N-]C(=O)Nc2ccc(-c3cc[n-]/c(=N/c4ccccc4)n3)cc2)c1 (cis-trans isomerization)
Cc1ccc(F)c([N-]C(=O)Nc2ccc(-c3cc[n-]/c(=N/c4ccccc4)n3)cc2)c1 (3D coordinates assigned)
Cc1ccc(F)c([N-]C(=O)Nc2ccc(-c3cc[n-]/c(=N/c4ccccc4)n3)cc2)c1 (optimized conformer: 70.68826739353128 kcal/mol)

>  <smiles>  (12) 
Cc1ccc(F)c(NC(=O)Nc2ccc(-c3cc[nH]c(=Nc4ccccc4)n3)cc2)c1

>  <score_type>  (12) 
oracle

>  <origin>  (12) 
adgpu

>  <m_score__min__energy>  (12) 
-11.99

>  <m_primary>  (12) 
energy

$$$$
12:0
     RDKit          3D

 35 37  0  0  0  0  0  0  0  0999 V2000
   -8.2750   21.3543  -30.9340 H   0  0  0  0  0  0  0  0  0  0  0  0
   -7.6140   22.2210  -31.0820 C   0  0  0  0  0  0  0  0  0  0  0  0
   -6.9710   23.1890  -29.8660 S   0  0  0  0  0  0  0  0  0  0  0  0
   -6.1210   24.2250  -30.8840 C   0  0  0  0  0  0  0  0  0  0  0  0
   -5.2970   25.3580  -30.4470 C   0  0  0  0  0  0  0  0  0  0  0  0
   -5.8530   26.4310  -30.0920 O   0  0  0  0  0  0  0  0  0  0  0  0
   -3.8670   25.2510  -30.4770 N   0  0  0  0  0  0  0  0  0  0  0  0
   -3.1060   24.0430  -30.3400 C   0  0  0  0  0  0  0  0  0  0  0  0
   -2.1590   23.9550  -29.3140 C   0  0  0  0  0  0  0  0  0  0  0  0
   -2.0118   24.8048  -28.6312 H   0  0  0  0  0  0  0  0  0  0  0  0
   -1.4000   22.7950  -29.1520 C   0  0  0  0  0  0  0  0  0  0  0  0
   -0.6601   22.7328  -28.3404 H   0  0  0  0  0  0  0  0  0  0  0  0
   -1.5770   21.7130  -30.0170 C   0  0  0  0  0  0  0  0  0  0  0  0
   -0.9831   20.7979  -29.8762 H   0  0  0  0  0  0  0  0  0  0  0  0
   -2.5090   21.7860  -31.0660 C   0  0  0  0  0  0  0  0  0  0  0  0
   -2.6910   20.6350  -31.9890 C   0  0  0  0  0  0  0  0  0  0  0  0
   -1.7630   19.7930  -32.1210 O   0  0  0  0  0  0  0  0  0  0  0  0
   -3.8650   20.4950  -32.8040 N   0  0  0  0  0  0  0  0  0  0  0  0
   -4.4750   19.3870  -33.1160 C   0  0  0  0  0  0  0  0  0  0  0  0
   -5.6780   19.4620  -33.8310 C   0  0  0  0  0  0  0  0  0  0  0  0
   -6.0805   20.4401  -34.1332 H   0  0  0  0  0  0  0  0  0  0  0  0
   -6.3630   18.2920  -34.1580 C   0  0  0  0  0  0  0  0  0  0  0  0
   -7.3136   18.3453  -34.7089 H   0  0  0  0  0  0  0  0  0  0  0  0
   -5.8400   17.0550  -33.7850 C   0  0  0  0  0  0  0  0  0  0  0  0
   -6.6910   15.5740  -34.1850 Cl  0  0  0  0  0  0  0  0  0  0  0  0
   -4.6260   17.0060  -33.0970 C   0  0  0  0  0  0  0  0  0  0  0  0
   -4.1998   16.0344  -32.8065 H   0  0  0  0  0  0  0  0  0  0  0  0
   -3.9670   18.1570  -32.7840 N   0  0  0  0  0  0  0  0  0  0  0  0
   -3.0460   18.0630  -32.3040 H   0  0  0  0  0  0  0  0  0  0  0  0
   -3.2540   22.9680  -31.2360 C   0  0  0  0  0  0  0  0  0  0  0  0
   -3.9583   23.0522  -32.0768 H   0  0  0  0  0  0  0  0  0  0  0  0
   -6.3320   23.8230  -32.1980 C   0  0  0  0  0  0  0  0  0  0  0  0
   -5.8879   24.3324  -33.0659 H   0  0  0  0  0  0  0  0  0  0  0  0
   -7.1670   22.7040  -32.3050 C   0  0  0  0  0  0  0  0  0  0  0  0
   -7.4432   22.2498  -33.2680 H   0  0  0  0  0  0  0  0  0  0  0  0
  1  2  1  0
  2  3  1  0
  3  4  1  0
  4  5  1  0
  5  6  2  0
  5  7  1  0
  7  8  1  0
  8  9  2  0
  9 10  1  0
  9 11  1  0
 11 12  1  0
 11 13  2  0
 13 14  1  0
 13 15  1  0
 15 16  1  0
 16 17  2  0
 16 18  1  0
 18 19  2  0
 19 20  1  0
 20 21  1  0
 20 22  2  0
 22 23  1  0
 22 24  1  0
 24 25  1  0
 24 26  2  0
 26 27  1  0
 26 28  1  0
 28 29  1  0
 15 30  2  0
 30 31  1  0
  4 32  2  0
 32 33  1  0
 32 34  1  0
 34 35  1  0
 34  2  2  0
 30  8  1  0
 28 19  1  0
M  CHG  1   7  -1
M  END
>  <UniqueID>  (13) 
13

>  <SMILES>  (13) 
O=C(/N=c1/ccc(Cl)c[nH]1)c1cccc([N-]C(=O)c2cccs2)c1

>  <Energy>  (13) 
75.61669935813039

>  <Genealogy>  (13) 
O=C(N=c1ccc(Cl)c[nH]1)c1cccc([N-]C(=O)c2cccs2)c1 (protonated)
O=C(/N=c1/ccc(Cl)c[nH]1)c1cccc([N-]C(=O)c2cccs2)c1 (cis-trans isomerization)
O=C(/N=c1/ccc(Cl)c[nH]1)c1cccc([N-]C(=O)c2cccs2)c1 (3D coordinates assigned)
O=C(/N=c1/ccc(Cl)c[nH]1)c1cccc([N-]C(=O)c2cccs2)c1 (optimized conformer: 75.61669935813039 kcal/mol)

>  <smiles>  (13) 
O=C(N=c1ccc(Cl)c[nH]1)c1cccc(NC(=O)c2cccs2)c1

>  <score_type>  (13) 
oracle

>  <origin>  (13) 
adgpu

>  <m_score__min__energy>  (13) 
-9.9800000000000004

>  <m_primary>  (13) 
energy

$$$$
13:0
     RDKit          3D

 46 48  0  0  0  0  0  0  0  0999 V2000
   -5.4990   17.1270  -34.5440 C   0  0  0  0  0  0  0  0  0  0  0  0
   -6.0870   18.1120  -33.5860 C   0  0  0  0  0  0  0  0  0  0  0  0
   -7.2740   17.8220  -32.9090 C   0  0  0  0  0  0  0  0  0  0  0  0
   -7.8080   18.7880  -32.0520 C   0  0  0  0  0  0  0  0  0  0  0  0
   -9.0920   18.5370  -31.3300 C   0  0  0  0  0  0  0  0  0  0  0  0
   -7.1850   19.9890  -31.9250 N   0  0  0  0  0  0  0  0  0  0  0  0
   -6.0350   20.2690  -32.5980 C   0  0  0  0  0  0  0  0  0  0  0  0
   -5.4200   21.5720  -32.4900 N   0  0  0  0  0  0  0  0  0  0  0  0
   -4.0380   21.7980  -32.9430 C   0  0  0  0  0  0  0  0  0  0  0  0
   -3.2380   22.6750  -31.9510 C   0  0  0  0  0  0  0  0  0  0  0  0
   -4.0880   23.4140  -30.9960 N   0  0  0  0  0  0  0  0  0  0  0  0
   -4.1210   22.8600  -29.6160 C   0  0  0  0  0  0  0  0  0  0  0  0
   -3.4630   23.7240  -28.5580 C   0  0  0  0  0  0  0  0  0  0  0  0
   -2.0970   24.0460  -28.6520 C   0  0  0  0  0  0  0  0  0  0  0  0
   -1.4850   24.8350  -27.6720 C   0  0  0  0  0  0  0  0  0  0  0  0
   -2.2210   25.2850  -26.5740 C   0  0  0  0  0  0  0  0  0  0  0  0
   -3.5660   24.9340  -26.4460 C   0  0  0  0  0  0  0  0  0  0  0  0
   -4.1840   24.1490  -27.4250 C   0  0  0  0  0  0  0  0  0  0  0  0
   -5.3510   23.8930  -31.6080 C   0  0  2  0  0  0  0  0  0  0  0  0
   -6.1120   24.8810  -30.7150 C   0  0  0  0  0  0  0  0  0  0  0  0
   -6.2360   22.7250  -32.0800 C   0  0  0  0  0  0  0  0  0  0  0  0
   -5.5020   19.3270  -33.4230 N   0  0  0  0  0  0  0  0  0  0  0  0
   -5.0140   16.3146  -33.9830 H   0  0  0  0  0  0  0  0  0  0  0  0
   -6.2963   16.7104  -35.1770 H   0  0  0  0  0  0  0  0  0  0  0  0
   -4.7539   17.6311  -35.1770 H   0  0  0  0  0  0  0  0  0  0  0  0
   -7.7776   16.8539  -33.0475 H   0  0  0  0  0  0  0  0  0  0  0  0
   -8.9153   18.5715  -30.2448 H   0  0  0  0  0  0  0  0  0  0  0  0
   -9.8253   19.3088  -31.6068 H   0  0  0  0  0  0  0  0  0  0  0  0
   -9.4806   17.5459  -31.6068 H   0  0  0  0  0  0  0  0  0  0  0  0
   -3.5338   20.8255  -33.0434 H   0  0  0  0  0  0  0  0  0  0  0  0
   -4.0790   22.3268  -33.9067 H   0  0  0  0  0  0  0  0  0  0  0  0
   -2.5593   22.0239  -31.3806 H   0  0  0  0  0  0  0  0  0  0  0  0
   -2.6967   23.4242  -32.5473 H   0  0  0  0  0  0  0  0  0  0  0  0
   -5.1740   22.7167  -29.3319 H   0  0  0  0  0  0  0  0  0  0  0  0
   -3.5436   21.9243  -29.6486 H   0  0  0  0  0  0  0  0  0  0  0  0
   -1.5057   23.6748  -29.5021 H   0  0  0  0  0  0  0  0  0  0  0  0
   -0.4219   25.1014  -27.7667 H   0  0  0  0  0  0  0  0  0  0  0  0
   -1.7414   25.9154  -25.8107 H   0  0  0  0  0  0  0  0  0  0  0  0
   -4.1414   25.2756  -25.5730 H   0  0  0  0  0  0  0  0  0  0  0  0
   -5.2395   23.8618  -27.3094 H   0  0  0  0  0  0  0  0  0  0  0  0
   -5.0654   24.4629  -32.5045 H   0  0  0  0  0  0  0  0  0  0  0  0
   -5.9255   24.6388  -29.6583 H   0  0  0  0  0  0  0  0  0  0  0  0
   -5.7666   25.9044  -30.9231 H   0  0  0  0  0  0  0  0  0  0  0  0
   -7.1897   24.8083  -30.9231 H   0  0  0  0  0  0  0  0  0  0  0  0
   -6.8985   22.4210  -31.2562 H   0  0  0  0  0  0  0  0  0  0  0  0
   -6.8242   23.0614  -32.9465 H   0  0  0  0  0  0  0  0  0  0  0  0
  1  2  1  0
  2  3  2  0
  3  4  1  0
  4  5  1  0
  4  6  2  0
  6  7  1  0
  7  8  1  0
  8  9  1  0
  9 10  1  0
 10 11  1  0
 11 12  1  0
 12 13  1  0
 13 14  2  0
 14 15  1  0
 15 16  2  0
 16 17  1  0
 17 18  2  0
 11 19  1  0
 19 20  1  0
 19 21  1  0
  7 22  2  0
 22  2  1  0
 21  8  1  0
 18 13  1  0
  1 23  1  0
  1 24  1  0
  1 25  1  0
  3 26  1  0
  5 27  1  0
  5 28  1  0
  5 29  1  0
  9 30  1  0
  9 31  1  0
 10 32  1  0
 10 33  1  0
 12 34  1  0
 12 35  1  0
 14 36  1  0
 15 37  1  0
 16 38  1  0
 17 39  1  0
 18 40  1  0
 19 41  1  6
 20 42  1  0
 20 43  1  0
 20 44  1  0
 21 45  1  0
 21 46  1  0
M  END
>  <UniqueID>  (14) 
14

>  <SMILES>  (14) 
Cc1cc(C)nc(N2CCN(Cc3ccccc3)[C@H](C)C2)n1

>  <Energy>  (14) 
56.660351953401985

>  <Genealogy>  (14) 
Cc1cc(C)nc(N2CCN(Cc3ccccc3)[C@H](C)C2)n1 (chirality)
Cc1cc(C)nc(N2CCN(Cc3ccccc3)[C@H](C)C2)n1 (3D coordinates assigned)
Cc1cc(C)nc(N2CCN(Cc3ccccc3)[C@H](C)C2)n1 (nonaromatic ring conformer: 56.660351953401985 kcal/mol)

>  <smiles>  (14) 
Cc1cc(C)nc(N2CCN(Cc3ccccc3)C(C)C2)n1

>  <score_type>  (14) 
oracle

>  <origin>  (14) 
adgpu

>  <m_score__min__energy>  (14) 
-7.9199999999999999

>  <m_primary>  (14) 
energy

$$$$
14:0
     RDKit          3D

 40 42  0  0  0  0  0  0  0  0999 V2000
   -1.2290   26.1940  -28.9880 N   0  0  0  0  0  0  0  0  0  0  0  0
   -0.9940   24.6400  -28.2710 S   0  0  0  0  0  0  0  0  0  0  0  0
   -1.4810   24.6630  -26.8480 O   0  0  0  0  0  0  0  0  0  0  0  0
    0.4710   24.3040  -28.2730 O   0  0  0  0  0  0  0  0  0  0  0  0
   -1.8860   23.4280  -29.1850 C   0  0  0  0  0  0  0  0  0  0  0  0
   -1.2120   22.3430  -29.7600 C   0  0  0  0  0  0  0  0  0  0  0  0
   -1.9200   21.3730  -30.4760 C   0  0  0  0  0  0  0  0  0  0  0  0
   -3.3140   21.4830  -30.6330 C   0  0  0  0  0  0  0  0  0  0  0  0
   -4.0720   20.4870  -31.3410 N   0  0  0  0  0  0  0  0  0  0  0  0
   -4.2070   20.4460  -32.7730 C   0  0  0  0  0  0  0  0  0  0  0  0
   -3.7810   21.4010  -33.4790 O   0  0  0  0  0  0  0  0  0  0  0  0
   -4.8820   19.3080  -33.4340 C   0  0  0  0  0  0  0  0  0  0  0  0
   -4.1420   18.4330  -34.2460 C   0  0  0  0  0  0  0  0  0  0  0  0
   -4.7470   17.3060  -34.8020 C   0  0  0  0  0  0  0  0  0  0  0  0
   -6.0920   17.0530  -34.5390 C   0  0  0  0  0  0  0  0  0  0  0  0
   -6.8040   17.9070  -33.7590 N   0  0  0  0  0  0  0  0  0  0  0  0
   -6.2490   19.0220  -33.2070 C   0  0  0  0  0  0  0  0  0  0  0  0
   -7.0810   19.9080  -32.4420 N   0  0  0  0  0  0  0  0  0  0  0  0
   -7.1260   21.3470  -32.6570 C   0  0  0  0  0  0  0  0  0  0  0  0
   -8.3250   21.8630  -31.8420 C   0  0  0  0  0  0  0  0  0  0  0  0
   -9.1500   20.6350  -31.4320 C   0  0  0  0  0  0  0  0  0  0  0  0
   -8.2740   19.5050  -31.7940 C   0  0  0  0  0  0  0  0  0  0  0  0
   -8.5570   18.3000  -31.5620 O   0  0  0  0  0  0  0  0  0  0  0  0
   -3.9860   22.5540  -30.0290 C   0  0  0  0  0  0  0  0  0  0  0  0
   -3.2780   23.5250  -29.3140 C   0  0  0  0  0  0  0  0  0  0  0  0
   -1.2490   26.0520  -30.0220 H   0  0  0  0  0  0  0  0  0  0  0  0
   -0.1214   22.2538  -29.6478 H   0  0  0  0  0  0  0  0  0  0  0  0
   -1.3848   20.5200  -30.9186 H   0  0  0  0  0  0  0  0  0  0  0  0
   -4.5920   19.7830  -30.7700 H   0  0  0  0  0  0  0  0  0  0  0  0
   -3.0796   18.6376  -34.4445 H   0  0  0  0  0  0  0  0  0  0  0  0
   -4.1682   16.6236  -35.4418 H   0  0  0  0  0  0  0  0  0  0  0  0
   -6.5770   16.1615  -34.9632 H   0  0  0  0  0  0  0  0  0  0  0  0
   -6.1950   21.8150  -32.3045 H   0  0  0  0  0  0  0  0  0  0  0  0
   -7.2310   21.5907  -33.7245 H   0  0  0  0  0  0  0  0  0  0  0  0
   -7.9721   22.3970  -30.9474 H   0  0  0  0  0  0  0  0  0  0  0  0
   -8.9312   22.5632  -32.4355 H   0  0  0  0  0  0  0  0  0  0  0  0
   -9.3584   20.6424  -30.3519 H   0  0  0  0  0  0  0  0  0  0  0  0
  -10.1338   20.5927  -31.9222 H   0  0  0  0  0  0  0  0  0  0  0  0
   -5.0796   22.6316  -30.1180 H   0  0  0  0  0  0  0  0  0  0  0  0
   -3.8148   24.3666  -28.8519 H   0  0  0  0  0  0  0  0  0  0  0  0
  1  2  1  0
  2  3  2  0
  2  4  2  0
  2  5  1  0
  5  6  2  0
  6  7  1  0
  7  8  2  0
  8  9  1  0
  9 10  1  0
 10 11  2  0
 10 12  1  0
 12 13  2  0
 13 14  1  0
 14 15  2  0
 15 16  1  0
 16 17  2  0
 17 18  1  0
 18 19  1  0
 19 20  1  0
 20 21  1  0
 21 22  1  0
 22 23  2  0
  8 24  1  0
 24 25  2  0
 25  5  1  0
 17 12  1  0
 22 18  1  0
  1 26  1  0
  6 27  1  0
  7 28  1  0
  9 29  1  0
 13 30  1  0
 14 31  1  0
 15 32  1  0
 19 33  1  0
 19 34  1  0
 20 35  1  0
 20 36  1  0
 21 37  1  0
 21 38  1  0
 24 39  1  0
 25 40  1  0
M  CHG  1   1  -1
M  END
>  <UniqueID>  (15) 
15

>  <SMILES>  (15) 
[NH-]S(=O)(=O)c1ccc(NC(=O)c2cccnc2N2CCCC2=O)cc1

>  <Energy>  (15) 
61.53982081135922

>  <Genealogy>  (15) 
[NH-]S(=O)(=O)c1ccc(NC(=O)c2cccnc2N2CCCC2=O)cc1 (protonated)
[NH-]S(=O)(=O)c1ccc(NC(=O)c2cccnc2N2CCCC2=O)cc1 (3D coordinates assigned)
[NH-]S(=O)(=O)c1ccc(NC(=O)c2cccnc2N2CCCC2=O)cc1 (nonaromatic ring conformer: 61.53982081135922 kcal/mol)

>  <smiles>  (15) 
NS(=O)(=O)c1ccc(NC(=O)c2cccnc2N2CCCC2=O)cc1

>  <score_type>  (15) 
oracle

>  <origin>  (15) 
adgpu

>  <m_score__min__energy>  (15) 
-10.699999999999999

>  <m_primary>  (15) 
energy

$$$$
15:0
     RDKit          3D

 37 39  0  0  0  0  0  0  0  0999 V2000
   -5.7110   26.4230  -30.8710 O   0  0  0  0  0  0  0  0  0  0  0  0
   -5.2440   25.1680  -30.1880 S   0  0  0  0  0  0  0  0  0  0  0  0
   -5.6850   25.2130  -28.7520 O   0  0  0  0  0  0  0  0  0  0  0  0
   -3.5120   25.0910  -30.2580 N   0  0  0  0  0  0  0  0  0  0  0  0
   -2.6780   24.3650  -29.3440 C   0  0  0  0  0  0  0  0  0  0  0  0
   -3.0430   23.1060  -28.8330 C   0  0  0  0  0  0  0  0  0  0  0  0
   -2.1960   22.4350  -27.9450 C   0  0  0  0  0  0  0  0  0  0  0  0
   -0.9870   23.0160  -27.5530 C   0  0  0  0  0  0  0  0  0  0  0  0
   -0.6220   24.2690  -28.0500 C   0  0  0  0  0  0  0  0  0  0  0  0
   -1.4620   24.9380  -28.9480 C   0  0  0  0  0  0  0  0  0  0  0  0
   -5.9380   23.7810  -31.0220 C   0  0  0  0  0  0  0  0  0  0  0  0
   -5.1060   22.9360  -31.7670 C   0  0  0  0  0  0  0  0  0  0  0  0
   -5.6400   21.8280  -32.4300 C   0  0  0  0  0  0  0  0  0  0  0  0
   -7.0080   21.5440  -32.3460 C   0  0  0  0  0  0  0  0  0  0  0  0
   -7.5090   20.4310  -33.0360 O   0  0  0  0  0  0  0  0  0  0  0  0
   -6.8330   19.2160  -33.2180 C   0  0  0  0  0  0  0  0  0  0  0  0
   -6.1140   18.9320  -34.3930 C   0  0  0  0  0  0  0  0  0  0  0  0
   -5.4650   17.7030  -34.5420 C   0  0  0  0  0  0  0  0  0  0  0  0
   -5.5420   16.7440  -33.5300 C   0  0  0  0  0  0  0  0  0  0  0  0
   -6.2720   17.0110  -32.3680 C   0  0  0  0  0  0  0  0  0  0  0  0
   -6.9200   18.2420  -32.2160 C   0  0  0  0  0  0  0  0  0  0  0  0
   -7.8470   22.4060  -31.6150 C   0  0  0  0  0  0  0  0  0  0  0  0
   -7.3120   23.5160  -30.9530 C   0  0  0  0  0  0  0  0  0  0  0  0
   -3.9972   22.6481  -29.1327 H   0  0  0  0  0  0  0  0  0  0  0  0
   -2.4822   21.4474  -27.5542 H   0  0  0  0  0  0  0  0  0  0  0  0
   -0.3233   22.4867  -26.8534 H   0  0  0  0  0  0  0  0  0  0  0  0
    0.3258   24.7304  -27.7357 H   0  0  0  0  0  0  0  0  0  0  0  0
   -1.1656   25.9199  -29.3454 H   0  0  0  0  0  0  0  0  0  0  0  0
   -4.0280   23.1454  -31.8305 H   0  0  0  0  0  0  0  0  0  0  0  0
   -4.9814   21.1750  -33.0215 H   0  0  0  0  0  0  0  0  0  0  0  0
   -6.0622   19.6800  -35.1979 H   0  0  0  0  0  0  0  0  0  0  0  0
   -4.8930   17.4911  -35.4574 H   0  0  0  0  0  0  0  0  0  0  0  0
   -5.0283   15.7784  -33.6471 H   0  0  0  0  0  0  0  0  0  0  0  0
   -6.3370   16.2534  -31.5731 H   0  0  0  0  0  0  0  0  0  0  0  0
   -7.5009   18.4455  -31.3043 H   0  0  0  0  0  0  0  0  0  0  0  0
   -8.9275   22.2060  -31.5641 H   0  0  0  0  0  0  0  0  0  0  0  0
   -7.9713   24.1821  -30.3771 H   0  0  0  0  0  0  0  0  0  0  0  0
  1  2  2  0
  2  3  2  0
  2  4  1  0
  4  5  1  0
  5  6  2  0
  6  7  1  0
  7  8  2  0
  8  9  1  0
  9 10  2  0
  2 11  1  0
 11 12  2  0
 12 13  1  0
 13 14  2  0
 14 15  1  0
 15 16  1  0
 16 17  2  0
 17 18  1  0
 18 19  2  0
 19 20  1  0
 20 21  2  0
 14 22  1  0
 22 23  2  0
 10  5  1  0
 23 11  1  0
 21 16  1  0
  6 24  1  0
  7 25  1  0
  8 26  1  0
  9 27  1  0
 10 28  1  0
 12 29  1  0
 13 30  1  0
 17 31  1  0
 18 32  1  0
 19 33  1  0
 20 34  1  0
 21 35  1  0
 22 36  1  0
 23 37  1  0
M  CHG  1   4  -1
M  END
>  <UniqueID>  (16) 
16

>  <SMILES>  (16) 
O=S(=O)([N-]c1ccccc1)c1ccc(Oc2ccccc2)cc1

>  <Energy>  (16) 
49.58845439271679

>  <Genealogy>  (16) 
O=S(=O)([N-]c1ccccc1)c1ccc(Oc2ccccc2)cc1 (protonated)
O=S(=O)([N-]c1ccccc1)c1ccc(Oc2ccccc2)cc1 (3D coordinates assigned)
O=S(=O)([N-]c1ccccc1)c1ccc(Oc2ccccc2)cc1 (optimized conformer: 49.58845439271679 kcal/mol)

>  <smiles>  (16) 
O=S(=O)(Nc1ccccc1)c1ccc(Oc2ccccc2)cc1

>  <score_type>  (16) 
oracle

>  <origin>  (16) 
adgpu

>  <m_score__min__energy>  (16) 
-9.7599999999999998

>  <m_primary>  (16) 
energy

$$$$
16:0
     RDKit          3D

 41 43  0  0  1  0  0  0  0  0999 V2000
   -9.1050   20.3730  -32.3410 C   0  0  0  0  0  0  0  0  0  0  0  0
   -8.0140   21.3430  -32.0630 C   0  0  0  0  0  0  0  0  0  0  0  0
   -8.2510   22.5000  -31.3390 C   0  0  0  0  0  0  0  0  0  0  0  0
   -7.2270   23.3860  -31.0930 C   0  0  0  0  0  0  0  0  0  0  0  0
   -5.9250   23.1570  -31.5550 C   0  0  0  0  0  0  0  0  0  0  0  0
   -4.9120   24.1150  -31.2640 N   0  0  0  0  0  0  0  0  0  0  0  0
   -4.0940   23.9230  -30.2640 C   0  0  0  0  0  0  0  0  0  0  0  0
   -4.2040   22.7850  -29.4740 C   0  0  0  0  0  0  0  0  0  0  0  0
   -3.2970   22.6540  -28.4320 C   0  0  0  0  0  0  0  0  0  0  0  0
   -3.3930   21.4310  -27.5620 C   0  0  0  0  0  0  0  0  0  0  0  0
   -2.3480   23.5780  -28.1790 N   0  0  0  0  0  0  0  0  0  0  0  0
   -2.2700   24.6670  -28.9620 C   0  0  0  0  0  0  0  0  0  0  0  0
   -1.4000   25.6040  -28.8020 N   0  0  0  0  0  0  0  0  0  0  0  0
   -0.4700   25.4700  -27.7320 C   0  0  0  0  0  0  0  0  0  0  0  0
    0.5360   24.5000  -27.8230 C   0  0  0  0  0  0  0  0  0  0  0  0
    1.4640   24.3320  -26.8080 C   0  0  0  0  0  0  0  0  0  0  0  0
    1.4040   25.1400  -25.6720 C   0  0  0  0  0  0  0  0  0  0  0  0
    2.3640   24.9780  -24.6050 C   0  0  0  0  0  0  0  0  0  0  0  0
    3.1370   24.8390  -23.7650 N   0  0  0  0  0  0  0  0  0  0  0  0
    0.4080   26.1080  -25.5720 C   0  0  0  0  0  0  0  0  0  0  0  0
   -0.5240   26.2740  -26.5970 C   0  0  0  0  0  0  0  0  0  0  0  0
   -3.1400   24.8270  -29.9900 N   0  0  0  0  0  0  0  0  0  0  0  0
   -5.6860   22.0050  -32.2770 C   0  0  0  0  0  0  0  0  0  0  0  0
   -3.9220   21.6690  -32.9190 Br  0  0  0  0  0  0  0  0  0  0  0  0
   -6.7300   21.1330  -32.5100 C   0  0  0  0  0  0  0  0  0  0  0  0
   -9.5192   20.0048  -31.3908 H   0  0  0  0  0  0  0  0  0  0  0  0
   -9.8985   20.8693  -32.9190 H   0  0  0  0  0  0  0  0  0  0  0  0
   -8.7049   19.5269  -32.9190 H   0  0  0  0  0  0  0  0  0  0  0  0
   -9.2615   22.7114  -30.9593 H   0  0  0  0  0  0  0  0  0  0  0  0
   -7.4371   24.2995  -30.5174 H   0  0  0  0  0  0  0  0  0  0  0  0
   -4.9743   22.0235  -29.6658 H   0  0  0  0  0  0  0  0  0  0  0  0
   -3.3695   21.7309  -26.5039 H   0  0  0  0  0  0  0  0  0  0  0  0
   -4.3353   20.9041  -27.7729 H   0  0  0  0  0  0  0  0  0  0  0  0
   -2.5445   20.7635  -27.7729 H   0  0  0  0  0  0  0  0  0  0  0  0
   -1.6790   23.4590  -27.3930 H   0  0  0  0  0  0  0  0  0  0  0  0
    0.5904   23.8602  -28.7161 H   0  0  0  0  0  0  0  0  0  0  0  0
    2.2460   23.5636  -26.8975 H   0  0  0  0  0  0  0  0  0  0  0  0
    0.3556   26.7468  -24.6780 H   0  0  0  0  0  0  0  0  0  0  0  0
   -1.3049   27.0436  -26.5078 H   0  0  0  0  0  0  0  0  0  0  0  0
   -3.1030   25.6740  -30.6240 H   0  0  0  0  0  0  0  0  0  0  0  0
   -6.5238   20.2185  -33.0855 H   0  0  0  0  0  0  0  0  0  0  0  0
  1  2  1  0
  2  3  2  0
  3  4  1  0
  4  5  2  0
  5  6  1  0
  6  7  2  0
  7  8  1  0
  8  9  2  0
  9 10  1  0
  9 11  1  0
 11 12  1  0
 12 13  2  0
 13 14  1  0
 14 15  2  0
 15 16  1  0
 16 17  2  0
 17 18  1  0
 18 19  3  0
 17 20  1  0
 20 21  2  0
 12 22  1  0
  5 23  1  0
 23 24  1  0
 23 25  2  0
 25  2  1  0
 22  7  1  0
 21 14  1  0
  1 26  1  0
  1 27  1  0
  1 28  1  0
  3 29  1  0
  4 30  1  0
  8 31  1  0
 10 32  1  0
 10 33  1  0
 10 34  1  0
 11 35  1  0
 15 36  1  0
 16 37  1  0
 20 38  1  0
 21 39  1  0
 22 40  1  0
 25 41  1  0
M  END
>  <smiles>  (17) 
Cc1ccc(N=c2cc(C)[nH]c(=Nc3ccc(C#N)cc3)[nH]2)c(Br)c1

>  <score_type>  (17) 
oracle

>  <origin>  (17) 
adgpu

>  <m_score__min__energy>  (17) 
-9.4299999999999997

>  <m_primary>  (17) 
energy

$$$$
17:0
     RDKit          3D

 55 58  0  0  0  0  0  0  0  0999 V2000
   -0.8270   29.6420  -25.6050 C   0  0  0  0  0  0  0  0  0  0  0  0
   -0.4900   28.1910  -25.4460 C   0  0  0  0  0  0  0  0  0  0  0  0
   -1.2060   27.3790  -24.5530 C   0  0  0  0  0  0  0  0  0  0  0  0
   -0.9220   26.0140  -24.4580 C   0  0  0  0  0  0  0  0  0  0  0  0
    0.0610   25.4380  -25.2770 C   0  0  0  0  0  0  0  0  0  0  0  0
    0.3720   23.7030  -25.2440 S   0  0  0  0  0  0  0  0  0  0  0  0
   -0.5890   22.9940  -24.3340 O   0  0  0  0  0  0  0  0  0  0  0  0
    1.7670   23.4810  -24.7350 O   0  0  0  0  0  0  0  0  0  0  0  0
    0.2430   23.0670  -26.8530 N   0  0  0  0  0  0  0  0  0  0  0  0
   -0.7990   23.3940  -27.7820 C   0  0  0  0  0  0  0  0  0  0  0  0
   -1.1530   22.4580  -28.7630 C   0  0  0  0  0  0  0  0  0  0  0  0
   -2.1410   22.7610  -29.7040 C   0  0  0  0  0  0  0  0  0  0  0  0
   -2.8070   24.0000  -29.6660 C   0  0  0  0  0  0  0  0  0  0  0  0
   -3.7690   24.3730  -30.6180 O   0  0  0  0  0  0  0  0  0  0  0  0
   -4.9490   23.6770  -30.9100 C   0  0  0  0  0  0  0  0  0  0  0  0
   -6.1850   24.0320  -30.3380 C   0  0  0  0  0  0  0  0  0  0  0  0
   -7.3340   23.2900  -30.6310 C   0  0  0  0  0  0  0  0  0  0  0  0
   -7.2650   22.2050  -31.5160 C   0  0  0  0  0  0  0  0  0  0  0  0
   -8.6960   21.2290  -31.8300 S   0  0  0  0  0  0  0  0  0  0  0  0
   -9.8150   22.1000  -32.3300 O   0  0  0  0  0  0  0  0  0  0  0  0
   -9.1290   20.5590  -30.5570 O   0  0  0  0  0  0  0  0  0  0  0  0
   -8.3450   20.0240  -33.0350 N   0  0  0  0  0  0  0  0  0  0  0  0
   -7.2810   19.0610  -32.9190 C   0  0  0  0  0  0  0  0  0  0  0  0
   -6.2770   19.0330  -33.9050 C   0  0  0  0  0  0  0  0  0  0  0  0
   -5.2210   18.1120  -33.8150 C   0  0  0  0  0  0  0  0  0  0  0  0
   -5.1650   17.2030  -32.7500 C   0  0  0  0  0  0  0  0  0  0  0  0
   -6.1630   17.2180  -31.7680 C   0  0  0  0  0  0  0  0  0  0  0  0
   -7.2150   18.1410  -31.8500 C   0  0  0  0  0  0  0  0  0  0  0  0
   -6.0470   21.8890  -32.1320 C   0  0  0  0  0  0  0  0  0  0  0  0
   -4.8970   22.6260  -31.8310 C   0  0  0  0  0  0  0  0  0  0  0  0
   -2.4640   24.9270  -28.6760 C   0  0  0  0  0  0  0  0  0  0  0  0
   -1.4720   24.6240  -27.7370 C   0  0  0  0  0  0  0  0  0  0  0  0
    0.7650   26.2460  -26.1800 C   0  0  0  0  0  0  0  0  0  0  0  0
    0.4910   27.6140  -26.2660 C   0  0  0  0  0  0  0  0  0  0  0  0
   -0.9344   30.1044  -24.6127 H   0  0  0  0  0  0  0  0  0  0  0  0
   -0.0222   30.1467  -26.1595 H   0  0  0  0  0  0  0  0  0  0  0  0
   -1.7719   29.7403  -26.1595 H   0  0  0  0  0  0  0  0  0  0  0  0
   -1.9945   27.8191  -23.9248 H   0  0  0  0  0  0  0  0  0  0  0  0
   -1.4711   25.3888  -23.7385 H   0  0  0  0  0  0  0  0  0  0  0  0
   -0.6507   21.4798  -28.7926 H   0  0  0  0  0  0  0  0  0  0  0  0
   -2.3999   22.0256  -30.4800 H   0  0  0  0  0  0  0  0  0  0  0  0
   -6.2476   24.8951  -29.6589 H   0  0  0  0  0  0  0  0  0  0  0  0
   -8.2940   23.5585  -30.1659 H   0  0  0  0  0  0  0  0  0  0  0  0
   -8.9170   20.0510  -33.9100 H   0  0  0  0  0  0  0  0  0  0  0  0
   -6.3198   19.7359  -34.7500 H   0  0  0  0  0  0  0  0  0  0  0  0
   -4.4343   18.1040  -34.5838 H   0  0  0  0  0  0  0  0  0  0  0  0
   -4.3390   16.4794  -32.6856 H   0  0  0  0  0  0  0  0  0  0  0  0
   -6.1216   16.5049  -30.9315 H   0  0  0  0  0  0  0  0  0  0  0  0
   -7.9956   18.1485  -31.0750 H   0  0  0  0  0  0  0  0  0  0  0  0
   -5.9951   21.0602  -32.8533 H   0  0  0  0  0  0  0  0  0  0  0  0
   -3.9448   22.3771  -32.3223 H   0  0  0  0  0  0  0  0  0  0  0  0
   -2.9769   25.8993  -28.6356 H   0  0  0  0  0  0  0  0  0  0  0  0
   -1.2176   25.3565  -26.9568 H   0  0  0  0  0  0  0  0  0  0  0  0
    1.5374   25.8013  -26.8246 H   0  0  0  0  0  0  0  0  0  0  0  0
    1.0467   28.2404  -26.9793 H   0  0  0  0  0  0  0  0  0  0  0  0
  1  2  1  0
  2  3  2  0
  3  4  1  0
  4  5  2  0
  5  6  1  0
  6  7  2  0
  6  8  2  0
  6  9  1  0
  9 10  1  0
 10 11  2  0
 11 12  1  0
 12 13  2  0
 13 14  1  0
 14 15  1  0
 15 16  2  0
 16 17  1  0
 17 18  2  0
 18 19  1  0
 19 20  2  0
 19 21  2  0
 19 22  1  0
 22 23  1  0
 23 24  2  0
 24 25  1  0
 25 26  2  0
 26 27  1  0
 27 28  2  0
 18 29  1  0
 29 30  2  0
 13 31  1  0
 31 32  2  0
  5 33  1  0
 33 34  2  0
 34  2  1  0
 32 10  1  0
 30 15  1  0
 28 23  1  0
  1 35  1  0
  1 36  1  0
  1 37  1  0
  3 38  1  0
  4 39  1  0
 11 40  1  0
 12 41  1  0
 16 42  1  0
 17 43  1  0
 22 44  1  0
 24 45  1  0
 25 46  1  0
 26 47  1  0
 27 48  1  0
 28 49  1  0
 29 50  1  0
 30 51  1  0
 31 52  1  0
 32 53  1  0
 33 54  1  0
 34 55  1  0
M  CHG  1   9  -1
M  END
>  <UniqueID>  (18) 
17

>  <SMILES>  (18) 
Cc1ccc(S(=O)(=O)[N-]c2ccc(Oc3ccc(S(=O)(=O)Nc4ccccc4)cc3)cc2)cc1

>  <Energy>  (18) 
72.66325075969566

>  <Genealogy>  (18) 
Cc1ccc(S(=O)(=O)[N-]c2ccc(Oc3ccc(S(=O)(=O)Nc4ccccc4)cc3)cc2)cc1 (protonated)
Cc1ccc(S(=O)(=O)[N-]c2ccc(Oc3ccc(S(=O)(=O)Nc4ccccc4)cc3)cc2)cc1 (3D coordinates assigned)
Cc1ccc(S(=O)(=O)[N-]c2ccc(Oc3ccc(S(=O)(=O)Nc4ccccc4)cc3)cc2)cc1 (optimized conformer: 72.66325075969566 kcal/mol)

>  <smiles>  (18) 
Cc1ccc(S(=O)(=O)Nc2ccc(Oc3ccc(S(=O)(=O)Nc4ccccc4)cc3)cc2)cc1

>  <score_type>  (18) 
oracle

>  <origin>  (18) 
adgpu

>  <m_score__min__energy>  (18) 
-10.99

>  <m_primary>  (18) 
energy

$$$$
18:0
     RDKit          3D

 38 40  0  0  0  0  0  0  0  0999 V2000
   -6.3990   14.7610  -34.2100 Cl  0  0  0  0  0  0  0  0  0  0  0  0
   -6.0280   16.4380  -33.8590 C   0  0  0  0  0  0  0  0  0  0  0  0
   -5.9740   17.3760  -34.8970 C   0  0  0  0  0  0  0  0  0  0  0  0
   -5.6770   18.7140  -34.6170 C   0  0  0  0  0  0  0  0  0  0  0  0
   -5.4250   19.1160  -33.2990 C   0  0  0  0  0  0  0  0  0  0  0  0
   -5.0320   20.8280  -32.9380 S   0  0  0  0  0  0  0  0  0  0  0  0
   -6.6610   21.1680  -32.2560 C   0  0  0  0  0  0  0  0  0  0  0  0
   -7.7250   20.3380  -32.6330 C   0  0  0  0  0  0  0  0  0  0  0  0
   -9.0160   20.5830  -32.1600 C   0  0  0  0  0  0  0  0  0  0  0  0
   -9.2520   21.6560  -31.3010 C   0  0  0  0  0  0  0  0  0  0  0  0
   -8.1990   22.4860  -30.9110 C   0  0  0  0  0  0  0  0  0  0  0  0
   -6.8940   22.2510  -31.3780 C   0  0  0  0  0  0  0  0  0  0  0  0
   -5.8220   23.1060  -30.9390 N   0  0  0  0  0  0  0  0  0  0  0  0
   -5.0130   22.7240  -29.7750 C   0  0  0  0  0  0  0  0  0  0  0  0
   -4.5890   23.9680  -28.9790 C   0  0  0  0  0  0  0  0  0  0  0  0
   -5.6770   24.9570  -28.9680 N   0  0  0  0  0  0  0  0  0  0  0  0
   -5.9690   25.4960  -30.3140 C   0  0  0  0  0  0  0  0  0  0  0  0
   -5.7190   24.4790  -31.4460 C   0  0  0  0  0  0  0  0  0  0  0  0
   -5.4930   18.1800  -32.2610 C   0  0  0  0  0  0  0  0  0  0  0  0
   -5.7890   16.8430  -32.5400 C   0  0  0  0  0  0  0  0  0  0  0  0
   -6.1652   17.0606  -35.9333 H   0  0  0  0  0  0  0  0  0  0  0  0
   -5.6413   19.4512  -35.4326 H   0  0  0  0  0  0  0  0  0  0  0  0
   -7.5422   19.4875  -33.3062 H   0  0  0  0  0  0  0  0  0  0  0  0
   -9.8467   19.9296  -32.4650 H   0  0  0  0  0  0  0  0  0  0  0  0
  -10.2694   21.8488  -30.9300 H   0  0  0  0  0  0  0  0  0  0  0  0
   -8.3921   23.3304  -30.2330 H   0  0  0  0  0  0  0  0  0  0  0  0
   -5.6049   22.0631  -29.1246 H   0  0  0  0  0  0  0  0  0  0  0  0
   -4.1101   22.2032  -30.1264 H   0  0  0  0  0  0  0  0  0  0  0  0
   -4.3532   23.6753  -27.9452 H   0  0  0  0  0  0  0  0  0  0  0  0
   -3.7025   24.4138  -29.4537 H   0  0  0  0  0  0  0  0  0  0  0  0
   -6.5420   24.5160  -28.5740 H   0  0  0  0  0  0  0  0  0  0  0  0
   -5.4070   25.7480  -28.3370 H   0  0  0  0  0  0  0  0  0  0  0  0
   -7.0252   25.8015  -30.3461 H   0  0  0  0  0  0  0  0  0  0  0  0
   -5.2872   26.3430  -30.4806 H   0  0  0  0  0  0  0  0  0  0  0  0
   -6.4672   24.6288  -32.2383 H   0  0  0  0  0  0  0  0  0  0  0  0
   -4.7058   24.6345  -31.8450 H   0  0  0  0  0  0  0  0  0  0  0  0
   -5.3131   18.4973  -31.2232 H   0  0  0  0  0  0  0  0  0  0  0  0
   -5.8343   16.1081  -31.7228 H   0  0  0  0  0  0  0  0  0  0  0  0
  1  2  1  0
  2  3  2  0
  3  4  1  0
  4  5  2  0
  5  6  1  0
  6  7  1  0
  7  8  2  0
  8  9  1  0
  9 10  2  0
 10 11  1  0
 11 12  2  0
 12 13  1  0
 13 14  1  0
 14 15  1  0
 15 16  1  0
 16 17  1  0
 17 18  1  0
  5 19  1  0
 19 20  2  0
 20  2  1  0
 12  7  1  0
 18 13  1  0
  3 21  1  0
  4 22  1  0
  8 23  1  0
  9 24  1  0
 10 25  1  0
 11 26  1  0
 14 27  1  0
 14 28  1  0
 15 29  1  0
 15 30  1  0
 16 31  1  0
 16 32  1  0
 17 33  1  0
 17 34  1  0
 18 35  1  0
 18 36  1  0
 19 37  1  0
 20 38  1  0
M  CHG  1  16   1
M  END
>  <UniqueID>  (19) 
18

>  <SMILES>  (19) 
Clc1ccc(Sc2ccccc2N2CC[NH2+]CC2)cc1

>  <Energy>  (19) 
44.17070337550751

>  <Genealogy>  (19) 
Clc1ccc(Sc2ccccc2N2CC[NH2+]CC2)cc1 (protonated)
Clc1ccc(Sc2ccccc2N2CC[NH2+]CC2)cc1 (3D coordinates assigned)
Clc1ccc(Sc2ccccc2N2CC[NH2+]CC2)cc1 (nonaromatic ring conformer: 44.17070337550751 kcal/mol)

>  <smiles>  (19) 
Clc1ccc(Sc2ccccc2N2CCNCC2)cc1

>  <score_type>  (19) 
oracle

>  <origin>  (19) 
adgpu

>  <m_score__min__energy>  (19) 
-7.9199999999999999

>  <m_primary>  (19) 
energy

$$$$
19:0
     RDKit          3D

 51 52  0  0  0  0  0  0  0  0999 V2000
   -1.3298   25.1933  -26.3918 H   0  0  0  0  0  0  0  0  0  0  0  0
   -1.7370   24.8550  -27.3560 C   0  0  0  0  0  0  0  0  0  0  0  0
   -0.9260   25.1060  -28.5600 C   0  0  0  0  0  0  0  0  0  0  0  0
   -1.2430   26.0450  -29.3350 O   0  0  0  0  0  0  0  0  0  0  0  0
    0.2230   24.3710  -28.8200 O   0  0  0  0  0  0  0  0  0  0  0  0
   -2.9320   24.2470  -27.3420 C   0  0  0  0  0  0  0  0  0  0  0  0
   -3.3496   23.9742  -26.3616 H   0  0  0  0  0  0  0  0  0  0  0  0
   -3.7330   23.9140  -28.5390 C   0  0  0  0  0  0  0  0  0  0  0  0
   -4.9590   24.5590  -28.7420 C   0  0  0  0  0  0  0  0  0  0  0  0
   -5.3375   25.2588  -27.9823 H   0  0  0  0  0  0  0  0  0  0  0  0
   -5.7110   24.3230  -29.9040 C   0  0  0  0  0  0  0  0  0  0  0  0
   -7.0180   25.0420  -30.0890 C   0  0  0  0  0  0  0  0  0  0  0  0
   -7.4487   25.2789  -29.1049 H   0  0  0  0  0  0  0  0  0  0  0  0
   -6.8480   25.9736  -30.6487 H   0  0  0  0  0  0  0  0  0  0  0  0
   -7.7138   24.3997  -30.6487 H   0  0  0  0  0  0  0  0  0  0  0  0
   -5.2270   23.4140  -30.8740 C   0  0  0  0  0  0  0  0  0  0  0  0
   -5.9560   23.1340  -32.0390 O   0  0  0  0  0  0  0  0  0  0  0  0
   -7.0640   22.2780  -32.1050 C   0  0  0  0  0  0  0  0  0  0  0  0
   -8.2820   22.7390  -31.5910 C   0  0  0  0  0  0  0  0  0  0  0  0
   -8.3402   23.7426  -31.1445 H   0  0  0  0  0  0  0  0  0  0  0  0
   -9.4240   21.9360  -31.6400 C   0  0  0  0  0  0  0  0  0  0  0  0
  -10.3717   22.3025  -31.2187 H   0  0  0  0  0  0  0  0  0  0  0  0
   -9.3640   20.6690  -32.2230 C   0  0  0  0  0  0  0  0  0  0  0  0
  -10.2628   20.0357  -32.2571 H   0  0  0  0  0  0  0  0  0  0  0  0
   -8.1620   20.2060  -32.7630 C   0  0  0  0  0  0  0  0  0  0  0  0
   -8.1206   19.2112  -33.2307 H   0  0  0  0  0  0  0  0  0  0  0  0
   -7.0070   21.0010  -32.7130 C   0  0  0  0  0  0  0  0  0  0  0  0
   -5.8070   20.5300  -33.3380 N   0  0  0  0  0  0  0  0  0  0  0  0
   -5.3740   21.1000  -34.0990 H   0  0  0  0  0  0  0  0  0  0  0  0
   -5.1690   19.3130  -32.9310 C   0  0  0  0  0  0  0  0  0  0  0  0
   -5.6600   18.6160  -32.0010 O   0  0  0  0  0  0  0  0  0  0  0  0
   -3.9060   18.8650  -33.5990 C   0  0  0  0  0  0  0  0  0  0  0  0
   -3.2200   18.4580  -32.8415 H   0  0  0  0  0  0  0  0  0  0  0  0
   -3.4440   19.7265  -34.1033 H   0  0  0  0  0  0  0  0  0  0  0  0
   -4.2080   17.7820  -34.6410 C   0  0  0  0  0  0  0  0  0  0  0  0
   -3.8602   16.8132  -34.2532 H   0  0  0  0  0  0  0  0  0  0  0  0
   -3.6865   18.0581  -35.5693 H   0  0  0  0  0  0  0  0  0  0  0  0
   -5.7050   17.6740  -34.9630 C   0  0  0  0  0  0  0  0  0  0  0  0
   -5.8203   17.4965  -36.0424 H   0  0  0  0  0  0  0  0  0  0  0  0
   -6.1795   18.6162  -34.6513 H   0  0  0  0  0  0  0  0  0  0  0  0
   -6.3940   16.5390  -34.2050 C   0  0  0  0  0  0  0  0  0  0  0  0
   -6.2924   16.7063  -33.1226 H   0  0  0  0  0  0  0  0  0  0  0  0
   -7.4604   16.5131  -34.4735 H   0  0  0  0  0  0  0  0  0  0  0  0
   -5.9249   15.5810  -34.4735 H   0  0  0  0  0  0  0  0  0  0  0  0
   -3.9740   22.7980  -30.6920 C   0  0  0  0  0  0  0  0  0  0  0  0
   -3.4470   21.8390  -31.7240 C   0  0  0  0  0  0  0  0  0  0  0  0
   -2.9758   20.9816  -31.2211 H   0  0  0  0  0  0  0  0  0  0  0  0
   -4.2770   21.4845  -32.3528 H   0  0  0  0  0  0  0  0  0  0  0  0
   -2.7028   22.3496  -32.3528 H   0  0  0  0  0  0  0  0  0  0  0  0
   -3.2340   23.0530  -29.5280 C   0  0  0  0  0  0  0  0  0  0  0  0
   -2.2537   22.5736  -29.3893 H   0  0  0  0  0  0  0  0  0  0  0  0
  1  2  1  0
  2  3  1  0
  3  4  2  0
  3  5  1  0
  2  6  2  0
  6  7  1  0
  6  8  1  0
  8  9  2  0
  9 10  1  0
  9 11  1  0
 11 12  1  0
 12 13  1  0
 12 14  1  0
 12 15  1  0
 11 16  2  0
 16 17  1  0
 17 18  1  0
 18 19  2  0
 19 20  1  0
 19 21  1  0
 21 22  1  0
 21 23  2  0
 23 24  1  0
 23 25  1  0
 25 26  1  0
 25 27  2  0
 27 28  1  0
 28 29  1  0
 28 30  1  0
 30 31  2  0
 30 32  1  0
 32 33  1  0
 32 34  1  0
 32 35  1  0
 35 36  1  0
 35 37  1  0
 35 38  1  0
 38 39  1  0
 38 40  1  0
 38 41  1  0
 41 42  1  0
 41 43  1  0
 41 44  1  0
 16 45  1  0
 45 46  1  0
 46 47  1  0
 46 48  1  0
 46 49  1  0
 45 50  2  0
 50 51  1  0
 50  8  1  0
 27 18  1  0
M  CHG  1   5  -1
M  END
>  <UniqueID>  (20) 
19

>  <SMILES>  (20) 
CCCCC(=O)Nc1ccccc1Oc1c(C)cc(/C=C\C(=O)[O-])cc1C

>  <Energy>  (20) 
63.78058241672909

>  <Genealogy>  (20) 
CCCCC(=O)Nc1ccccc1Oc1c(C)cc(C=CC(=O)[O-])cc1C (protonated)
CCCCC(=O)Nc1ccccc1Oc1c(C)cc(/C=C\C(=O)[O-])cc1C (cis-trans isomerization)
CCCCC(=O)Nc1ccccc1Oc1c(C)cc(/C=C\C(=O)[O-])cc1C (3D coordinates assigned)
CCCCC(=O)Nc1ccccc1Oc1c(C)cc(/C=C\C(=O)[O-])cc1C (optimized conformer: 63.78058241672909 kcal/mol)

>  <smiles>  (20) 
CCCCC(=O)Nc1ccccc1Oc1c(C)cc(C=CC(=O)O)cc1C

>  <score_type>  (20) 
oracle

>  <origin>  (20) 
adgpu

>  <m_score__min__energy>  (20) 
-11.630000000000001

>  <m_primary>  (20) 
energy

$$$$
20:0
     RDKit          3D

 55 57  0  0  0  0  0  0  0  0999 V2000
   -1.5704   23.2380  -29.5844 H   0  0  0  0  0  0  0  0  0  0  0  0
   -2.6190   22.9110  -29.5260 C   0  0  0  0  0  0  0  0  0  0  0  0
   -2.8760   21.6430  -29.1750 C   0  0  0  0  0  0  0  0  0  0  0  0
   -3.9258   21.3216  -29.1074 H   0  0  0  0  0  0  0  0  0  0  0  0
   -1.8130   20.6510  -28.8730 C   0  0  0  0  0  0  0  0  0  0  0  0
   -1.8680   19.8560  -27.7100 C   0  0  0  0  0  0  0  0  0  0  0  0
   -2.7019   19.9799  -27.0034 H   0  0  0  0  0  0  0  0  0  0  0  0
   -0.8730   18.9130  -27.4480 C   0  0  0  0  0  0  0  0  0  0  0  0
   -0.9230   18.3018  -26.5348 H   0  0  0  0  0  0  0  0  0  0  0  0
    0.1830   18.7440  -28.3400 C   0  0  0  0  0  0  0  0  0  0  0  0
    0.9682   18.0036  -28.1272 H   0  0  0  0  0  0  0  0  0  0  0  0
    0.2470   19.5120  -29.5030 C   0  0  0  0  0  0  0  0  0  0  0  0
    1.0826   19.3710  -30.2044 H   0  0  0  0  0  0  0  0  0  0  0  0
   -0.7510   20.4680  -29.7870 C   0  0  0  0  0  0  0  0  0  0  0  0
   -0.7130   21.2620  -30.9480 O   0  0  0  0  0  0  0  0  0  0  0  0
   -0.3410   20.8180  -32.2530 C   0  0  0  0  0  0  0  0  0  0  0  0
    0.5148   21.4116  -32.6068 H   0  0  0  0  0  0  0  0  0  0  0  0
   -0.0695   19.7532  -32.2020 H   0  0  0  0  0  0  0  0  0  0  0  0
   -1.5110   20.9850  -33.2330 C   0  0  0  0  0  0  0  0  0  0  0  0
   -1.3270   21.8743  -33.8538 H   0  0  0  0  0  0  0  0  0  0  0  0
   -1.5694   20.0712  -33.8425 H   0  0  0  0  0  0  0  0  0  0  0  0
   -2.8600   21.1550  -32.5160 C   0  0  0  0  0  0  0  0  0  0  0  0
   -2.7071   21.0093  -31.4365 H   0  0  0  0  0  0  0  0  0  0  0  0
   -3.2325   22.1660  -32.7375 H   0  0  0  0  0  0  0  0  0  0  0  0
   -3.9200   20.1440  -33.0080 C   0  0  0  0  0  0  0  0  0  0  0  0
   -3.6412   19.8153  -34.0201 H   0  0  0  0  0  0  0  0  0  0  0  0
   -3.9322   19.3169  -32.2829 H   0  0  0  0  0  0  0  0  0  0  0  0
   -5.2930   20.6900  -33.0580 N   0  0  0  0  0  0  0  0  0  0  0  0
   -5.4720   21.9790  -32.3470 C   0  0  0  0  0  0  0  0  0  0  0  0
   -4.4925   22.3180  -31.9787 H   0  0  0  0  0  0  0  0  0  0  0  0
   -5.9061   22.6965  -33.0589 H   0  0  0  0  0  0  0  0  0  0  0  0
   -6.4360   21.8630  -31.1520 C   0  0  0  0  0  0  0  0  0  0  0  0
   -5.9808   21.2077  -30.3948 H   0  0  0  0  0  0  0  0  0  0  0  0
   -6.6061   22.8775  -30.7623 H   0  0  0  0  0  0  0  0  0  0  0  0
   -7.7560   21.3020  -31.5340 N   0  0  0  0  0  0  0  0  0  0  0  0
   -8.7450   22.3660  -31.7680 C   0  0  0  0  0  0  0  0  0  0  0  0
   -9.1037   22.7519  -30.8024 H   0  0  0  0  0  0  0  0  0  0  0  0
   -8.2775   23.1822  -32.3383 H   0  0  0  0  0  0  0  0  0  0  0  0
   -9.5932   21.9593  -32.3383 H   0  0  0  0  0  0  0  0  0  0  0  0
   -7.7060   20.3710  -32.6870 C   0  0  0  0  0  0  0  0  0  0  0  0
   -8.4834   19.6032  -32.5600 H   0  0  0  0  0  0  0  0  0  0  0  0
   -7.8743   20.9516  -33.6060 H   0  0  0  0  0  0  0  0  0  0  0  0
   -6.3420   19.6840  -32.7970 C   0  0  0  0  0  0  0  0  0  0  0  0
   -6.1198   19.1611  -31.8551 H   0  0  0  0  0  0  0  0  0  0  0  0
   -6.3658   18.9616  -33.6262 H   0  0  0  0  0  0  0  0  0  0  0  0
   -3.6790   23.8860  -29.8370 C   0  0  0  0  0  0  0  0  0  0  0  0
   -3.5560   24.8140  -30.7590 O   0  0  0  0  0  0  0  0  0  0  0  0
   -4.6260   25.5510  -30.8350 N   0  0  0  0  0  0  0  0  0  0  0  0
   -5.4930   25.0690  -29.9240 C   0  0  0  0  0  0  0  0  0  0  0  0
   -6.8260   25.6750  -29.6380 C   0  0  0  0  0  0  0  0  0  0  0  0
   -6.9726   25.7417  -28.5499 H   0  0  0  0  0  0  0  0  0  0  0  0
   -6.8724   26.6827  -30.0766 H   0  0  0  0  0  0  0  0  0  0  0  0
   -7.6158   25.0474  -30.0766 H   0  0  0  0  0  0  0  0  0  0  0  0
   -4.9250   24.0090  -29.2500 C   0  0  0  0  0  0  0  0  0  0  0  0
   -5.3591   23.4055  -28.4392 H   0  0  0  0  0  0  0  0  0  0  0  0
  1  2  1  0
  2  3  2  0
  3  4  1  0
  3  5  1  0
  5  6  2  0
  6  7  1  0
  6  8  1  0
  8  9  1  0
  8 10  2  0
 10 11  1  0
 10 12  1  0
 12 13  1  0
 12 14  2  0
 14 15  1  0
 15 16  1  0
 16 17  1  0
 16 18  1  0
 16 19  1  0
 19 20  1  0
 19 21  1  0
 19 22  1  0
 22 23  1  0
 22 24  1  0
 22 25  1  0
 25 26  1  0
 25 27  1  0
 25 28  1  0
 28 29  1  0
 29 30  1  0
 29 31  1  0
 29 32  1  0
 32 33  1  0
 32 34  1  0
 32 35  1  0
 35 36  1  0
 36 37  1  0
 36 38  1  0
 36 39  1  0
 35 40  1  0
 40 41  1  0
 40 42  1  0
 40 43  1  0
 43 44  1  0
 43 45  1  0
  2 46  1  0
 46 47  1  0
 47 48  1  0
 48 49  2  0
 49 50  1  0
 50 51  1  0
 50 52  1  0
 50 53  1  0
 49 54  1  0
 54 55  1  0
 14  5  1  0
 43 28  1  0
 54 46  2  0
M  END
>  <UniqueID>  (21) 
20

>  <SMILES>  (21) 
Cc1cc(/C=C/c2ccccc2OCCCCN2CCN(C)CC2)on1

>  <Energy>  (21) 
98.36118784880715

>  <Genealogy>  (21) 
Cc1cc(/C=C/c2ccccc2OCCCCN2CCN(C)CC2)on1 (cis-trans isomerization)
Cc1cc(/C=C/c2ccccc2OCCCCN2CCN(C)CC2)on1 (3D coordinates assigned)
Cc1cc(/C=C/c2ccccc2OCCCCN2CCN(C)CC2)on1 (nonaromatic ring conformer: 98.36118784880715 kcal/mol)

>  <smiles>  (21) 
Cc1cc(C=Cc2ccccc2OCCCCN2CCN(C)CC2)on1

>  <score_type>  (21) 
oracle

>  <origin>  (21) 
adgpu

>  <m_score__min__energy>  (21) 
-8.8900000000000006

>  <m_primary>  (21) 
energy

$$$$
21:0
     RDKit          3D

 60 64  0  0  0  0  0  0  0  0999 V2000
   -4.8050   22.8060  -30.7330 O   0  0  0  0  0  0  0  0  0  0  0  0
   -4.4200   22.1490  -31.7400 C   0  0  0  0  0  0  0  0  0  0  0  0
   -5.3780   21.7630  -32.7400 N   0  0  0  0  0  0  0  0  0  0  0  0
   -6.7970   21.8200  -32.5260 C   0  0  0  0  0  0  0  0  0  0  0  0
   -7.4170   23.0360  -32.2030 C   0  0  0  0  0  0  0  0  0  0  0  0
   -8.7890   23.0830  -31.9430 C   0  0  0  0  0  0  0  0  0  0  0  0
   -9.5540   21.9170  -31.9950 C   0  0  0  0  0  0  0  0  0  0  0  0
   -8.9480   20.7000  -32.3120 C   0  0  0  0  0  0  0  0  0  0  0  0
   -7.5720   20.6410  -32.5750 C   0  0  0  0  0  0  0  0  0  0  0  0
   -6.9690   19.3880  -32.9180 N   0  0  0  0  0  0  0  0  0  0  0  0
   -6.1430   19.2790  -34.1270 C   0  0  0  0  0  0  0  0  0  0  0  0
   -4.9100   18.4130  -33.8450 C   0  0  0  0  0  0  0  0  0  0  0  0
   -5.2640   17.1740  -33.1290 N   0  0  0  0  0  0  0  0  0  0  0  0
   -4.2780   16.1300  -32.9950 C   0  0  0  0  0  0  0  0  0  0  0  0
   -4.6190   14.8890  -32.4320 C   0  0  0  0  0  0  0  0  0  0  0  0
   -3.6610   13.8750  -32.3180 C   0  0  0  0  0  0  0  0  0  0  0  0
   -2.3570   14.0900  -32.7710 C   0  0  0  0  0  0  0  0  0  0  0  0
   -2.0080   15.3140  -33.3320 C   0  0  0  0  0  0  0  0  0  0  0  0
   -2.9590   16.3330  -33.4430 C   0  0  0  0  0  0  0  0  0  0  0  0
   -6.6530   16.9330  -32.7060 C   0  0  0  0  0  0  0  0  0  0  0  0
   -7.2670   18.2020  -32.1030 C   0  0  0  0  0  0  0  0  0  0  0  0
   -2.9850   21.7870  -31.8800 C   0  0  0  0  0  0  0  0  0  0  0  0
   -2.5880   20.8110  -32.8080 C   0  0  0  0  0  0  0  0  0  0  0  0
   -1.2870   20.4300  -32.8920 N   0  0  0  0  0  0  0  0  0  0  0  0
   -0.3470   20.9740  -32.0830 C   0  0  0  0  0  0  0  0  0  0  0  0
   -0.6960   21.9170  -31.1750 N   0  0  0  0  0  0  0  0  0  0  0  0
   -1.9830   22.3400  -31.0520 C   0  0  0  0  0  0  0  0  0  0  0  0
   -2.2860   23.3750  -30.1090 N   0  0  0  0  0  0  0  0  0  0  0  0
   -1.6240   23.5190  -28.8370 C   0  0  0  0  0  0  0  0  0  0  0  0
   -1.2490   22.3570  -28.1300 C   0  0  0  0  0  0  0  0  0  0  0  0
   -0.5490   22.4530  -26.9270 C   0  0  0  0  0  0  0  0  0  0  0  0
   -0.2040   23.7070  -26.4170 C   0  0  0  0  0  0  0  0  0  0  0  0
    0.6870   23.8250  -24.9120 Cl  0  0  0  0  0  0  0  0  0  0  0  0
   -0.5660   24.8670  -27.1060 C   0  0  0  0  0  0  0  0  0  0  0  0
   -1.2710   24.7800  -28.3100 C   0  0  0  0  0  0  0  0  0  0  0  0
   -1.5680   25.9310  -28.9650 F   0  0  0  0  0  0  0  0  0  0  0  0
   -5.0350   21.5450  -33.6980 H   0  0  0  0  0  0  0  0  0  0  0  0
   -6.8194   23.9582  -32.1541 H   0  0  0  0  0  0  0  0  0  0  0  0
   -9.2677   24.0422  -31.6965 H   0  0  0  0  0  0  0  0  0  0  0  0
  -10.6333   21.9568  -31.7864 H   0  0  0  0  0  0  0  0  0  0  0  0
   -9.5532   19.7825  -32.3557 H   0  0  0  0  0  0  0  0  0  0  0  0
   -6.7348   18.8186  -34.9319 H   0  0  0  0  0  0  0  0  0  0  0  0
   -5.8156   20.2840  -34.4317 H   0  0  0  0  0  0  0  0  0  0  0  0
   -4.4344   18.1484  -34.8009 H   0  0  0  0  0  0  0  0  0  0  0  0
   -4.2238   18.9915  -33.2091 H   0  0  0  0  0  0  0  0  0  0  0  0
   -5.6456   14.7130  -32.0784 H   0  0  0  0  0  0  0  0  0  0  0  0
   -3.9351   12.9079  -31.8713 H   0  0  0  0  0  0  0  0  0  0  0  0
   -1.6060   13.2910  -32.6840 H   0  0  0  0  0  0  0  0  0  0  0  0
   -0.9811   15.4808  -33.6893 H   0  0  0  0  0  0  0  0  0  0  0  0
   -2.6745   17.3000  -33.8835 H   0  0  0  0  0  0  0  0  0  0  0  0
   -7.2473   16.6245  -33.5787 H   0  0  0  0  0  0  0  0  0  0  0  0
   -6.6563   16.1423  -31.9413 H   0  0  0  0  0  0  0  0  0  0  0  0
   -8.3581   18.0761  -32.0417 H   0  0  0  0  0  0  0  0  0  0  0  0
   -6.8319   18.3532  -31.1041 H   0  0  0  0  0  0  0  0  0  0  0  0
   -3.3356   20.3518  -33.4715 H   0  0  0  0  0  0  0  0  0  0  0  0
    0.7011   20.6499  -32.1632 H   0  0  0  0  0  0  0  0  0  0  0  0
   -3.0540   24.0450  -30.3610 H   0  0  0  0  0  0  0  0  0  0  0  0
   -1.5109   21.3667  -28.5308 H   0  0  0  0  0  0  0  0  0  0  0  0
   -0.2686   21.5409  -26.3798 H   0  0  0  0  0  0  0  0  0  0  0  0
   -0.2953   25.8527  -26.6996 H   0  0  0  0  0  0  0  0  0  0  0  0
  1  2  2  0
  2  3  1  0
  3  4  1  0
  4  5  2  0
  5  6  1  0
  6  7  2  0
  7  8  1  0
  8  9  2  0
  9 10  1  0
 10 11  1  0
 11 12  1  0
 12 13  1  0
 13 14  1  0
 14 15  2  0
 15 16  1  0
 16 17  2  0
 17 18  1  0
 18 19  2  0
 13 20  1  0
 20 21  1  0
  2 22  1  0
 22 23  2  0
 23 24  1  0
 24 25  2  0
 25 26  1  0
 26 27  2  0
 27 28  1  0
 28 29  1  0
 29 30  2  0
 30 31  1  0
 31 32  2  0
 32 33  1  0
 32 34  1  0
 34 35  2  0
 35 36  1  0
  9  4  1  0
 21 10  1  0
 27 22  1  0
 35 29  1  0
 19 14  1  0
  3 37  1  0
  5 38  1  0
  6 39  1  0
  7 40  1  0
  8 41  1  0
 11 42  1  0
 11 43  1  0
 12 44  1  0
 12 45  1  0
 15 46  1  0
 16 47  1  0
 17 48  1  0
 18 49  1  0
 19 50  1  0
 20 51  1  0
 20 52  1  0
 21 53  1  0
 21 54  1  0
 23 55  1  0
 25 56  1  0
 28 57  1  0
 30 58  1  0
 31 59  1  0
 34 60  1  0
M  END
>  <UniqueID>  (22) 
21

>  <SMILES>  (22) 
O=C(Nc1ccccc1N1CCN(c2ccccc2)CC1)c1cncnc1Nc1ccc(Cl)cc1F

>  <Energy>  (22) 
90.3425690715269

>  <Genealogy>  (22) 
O=C(Nc1ccccc1N1CCN(c2ccccc2)CC1)c1cncnc1Nc1ccc(Cl)cc1F (3D coordinates assigned)
O=C(Nc1ccccc1N1CCN(c2ccccc2)CC1)c1cncnc1Nc1ccc(Cl)cc1F (nonaromatic ring conformer: 90.3425690715269 kcal/mol)

>  <smiles>  (22) 
O=C(Nc1ccccc1N1CCN(c2ccccc2)CC1)c1cncnc1Nc1ccc(Cl)cc1F

>  <score_type>  (22) 
oracle

>  <origin>  (22) 
adgpu

>  <m_score__min__energy>  (22) 
-9.9100000000000001

>  <m_primary>  (22) 
energy

$$$$
22:0
     RDKit          3D

 42 45  0  0  0  0  0  0  0  0999 V2000
   -3.6200   21.3110  -33.4930 O   0  0  0  0  0  0  0  0  0  0  0  0
   -3.7370   20.0940  -32.6180 S   0  0  0  0  0  0  0  0  0  0  0  0
   -2.9280   18.9830  -33.2240 O   0  0  0  0  0  0  0  0  0  0  0  0
   -3.1090   20.4570  -31.0450 N   0  0  0  0  0  0  0  0  0  0  0  0
   -2.9230   21.7730  -30.4990 C   0  0  0  0  0  0  0  0  0  0  0  0
   -3.8190   22.8150  -30.7950 C   0  0  0  0  0  0  0  0  0  0  0  0
   -3.6180   24.1010  -30.2880 C   0  0  0  0  0  0  0  0  0  0  0  0
   -4.7680   25.4060  -30.7320 S   0  0  0  0  0  0  0  0  0  0  0  0
   -6.1280   24.2580  -30.9040 C   0  0  0  0  0  0  0  0  0  0  0  0
   -6.5920   23.5400  -29.7960 C   0  0  0  0  0  0  0  0  0  0  0  0
   -7.6400   22.6290  -29.9630 C   0  0  0  0  0  0  0  0  0  0  0  0
   -8.2130   22.4510  -31.2240 C   0  0  0  0  0  0  0  0  0  0  0  0
   -7.7250   23.1920  -32.3050 C   0  0  0  0  0  0  0  0  0  0  0  0
   -6.7030   24.0700  -32.1230 N   0  0  0  0  0  0  0  0  0  0  0  0
   -2.5210   24.3670  -29.4620 C   0  0  0  0  0  0  0  0  0  0  0  0
   -2.3370   25.6550  -28.9660 O   0  0  0  0  0  0  0  0  0  0  0  0
   -1.6130   23.3380  -29.1440 C   0  0  0  0  0  0  0  0  0  0  0  0
   -0.5010   23.5890  -28.3180 C   0  0  0  0  0  0  0  0  0  0  0  0
    0.3920   22.5640  -28.0040 C   0  0  0  0  0  0  0  0  0  0  0  0
    0.1920   21.2790  -28.5070 C   0  0  0  0  0  0  0  0  0  0  0  0
   -0.9000   21.0100  -29.3300 C   0  0  0  0  0  0  0  0  0  0  0  0
   -1.8150   22.0310  -29.6620 C   0  0  0  0  0  0  0  0  0  0  0  0
   -5.4170   19.5770  -32.4870 C   0  0  0  0  0  0  0  0  0  0  0  0
   -6.4150   20.2640  -33.1940 C   0  0  0  0  0  0  0  0  0  0  0  0
   -7.7510   19.8660  -33.0910 C   0  0  0  0  0  0  0  0  0  0  0  0
   -8.0960   18.7810  -32.2810 C   0  0  0  0  0  0  0  0  0  0  0  0
   -7.1050   18.0900  -31.5750 C   0  0  0  0  0  0  0  0  0  0  0  0
   -5.7680   18.4850  -31.6750 C   0  0  0  0  0  0  0  0  0  0  0  0
   -4.6909   22.6148  -31.4351 H   0  0  0  0  0  0  0  0  0  0  0  0
   -6.1378   23.6904  -28.8055 H   0  0  0  0  0  0  0  0  0  0  0  0
   -8.0123   22.0537  -29.1025 H   0  0  0  0  0  0  0  0  0  0  0  0
   -9.0378   21.7370  -31.3652 H   0  0  0  0  0  0  0  0  0  0  0  0
   -8.1685   23.0644  -33.3035 H   0  0  0  0  0  0  0  0  0  0  0  0
   -0.3350   24.6000  -27.9175 H   0  0  0  0  0  0  0  0  0  0  0  0
    1.2573   22.7705  -27.3570 H   0  0  0  0  0  0  0  0  0  0  0  0
    0.8985   20.4749  -28.2534 H   0  0  0  0  0  0  0  0  0  0  0  0
   -1.0496   19.9938  -29.7237 H   0  0  0  0  0  0  0  0  0  0  0  0
   -6.1453   21.1188  -33.8316 H   0  0  0  0  0  0  0  0  0  0  0  0
   -8.5306   20.4069  -33.6475 H   0  0  0  0  0  0  0  0  0  0  0  0
   -9.1478   18.4697  -32.1982 H   0  0  0  0  0  0  0  0  0  0  0  0
   -7.3787   17.2344  -30.9402 H   0  0  0  0  0  0  0  0  0  0  0  0
   -4.9906   17.9412  -31.1182 H   0  0  0  0  0  0  0  0  0  0  0  0
  1  2  2  0
  2  3  2  0
  2  4  1  0
  4  5  1  0
  5  6  2  0
  6  7  1  0
  7  8  1  0
  8  9  1  0
  9 10  2  0
 10 11  1  0
 11 12  2  0
 12 13  1  0
 13 14  2  0
  7 15  2  0
 15 16  1  0
 15 17  1  0
 17 18  2  0
 18 19  1  0
 19 20  2  0
 20 21  1  0
 21 22  2  0
  2 23  1  0
 23 24  2  0
 24 25  1  0
 25 26  2  0
 26 27  1  0
 27 28  2  0
 22  5  1  0
 28 23  1  0
 14  9  1  0
 22 17  1  0
  6 29  1  0
 10 30  1  0
 11 31  1  0
 12 32  1  0
 13 33  1  0
 18 34  1  0
 19 35  1  0
 20 36  1  0
 21 37  1  0
 24 38  1  0
 25 39  1  0
 26 40  1  0
 27 41  1  0
 28 42  1  0
M  CHG  2   4  -1  16  -1
M  END
>  <UniqueID>  (23) 
22

>  <SMILES>  (23) 
O=S(=O)([N-]c1cc(Sc2ccccn2)c([O-])c2ccccc12)c1ccccc1

>  <Energy>  (23) 
51.692752763551304

>  <Genealogy>  (23) 
O=S(=O)([N-]c1cc(Sc2ccccn2)c([O-])c2ccccc12)c1ccccc1 (protonated)
O=S(=O)([N-]c1cc(Sc2ccccn2)c([O-])c2ccccc12)c1ccccc1 (3D coordinates assigned)
O=S(=O)([N-]c1cc(Sc2ccccn2)c([O-])c2ccccc12)c1ccccc1 (optimized conformer: 51.692752763551304 kcal/mol)

>  <smiles>  (23) 
O=S(=O)(Nc1cc(Sc2ccccn2)c(O)c2ccccc12)c1ccccc1

>  <score_type>  (23) 
oracle

>  <origin>  (23) 
adgpu

>  <m_score__min__energy>  (23) 
-12.220000000000001

>  <m_primary>  (23) 
energy

$$$$
23:0
     RDKit          3D

 23 24  0  0  0  0  0  0  0  0999 V2000
   -4.1990   25.6730  -30.8440 O   0  0  0  0  0  0  0  0  0  0  0  0
   -4.6330   24.3000  -30.4150 S   0  0  0  0  0  0  0  0  0  0  0  0
   -6.0350   24.3700  -29.8790 O   0  0  0  0  0  0  0  0  0  0  0  0
   -4.5960   23.2370  -31.7840 N   0  0  0  0  0  0  0  0  0  0  0  0
   -5.5890   22.2500  -32.0920 C   0  0  0  0  0  0  0  0  0  0  0  0
   -5.2050   21.1200  -32.8250 C   0  0  0  0  0  0  0  0  0  0  0  0
   -6.1410   20.1280  -33.1410 C   0  0  0  0  0  0  0  0  0  0  0  0
   -5.6480   18.7150  -34.0540 Cl  0  0  0  0  0  0  0  0  0  0  0  0
   -7.4690   20.2630  -32.7260 C   0  0  0  0  0  0  0  0  0  0  0  0
   -7.8630   21.3900  -31.9970 C   0  0  0  0  0  0  0  0  0  0  0  0
   -9.5300   21.5590  -31.4780 Cl  0  0  0  0  0  0  0  0  0  0  0  0
   -6.9290   22.3830  -31.6830 C   0  0  0  0  0  0  0  0  0  0  0  0
   -3.5370   23.7170  -29.1770 C   0  0  0  0  0  0  0  0  0  0  0  0
   -3.6750   22.5350  -28.4650 C   0  0  0  0  0  0  0  0  0  0  0  0
   -2.6580   22.3440  -27.5240 C   0  0  0  0  0  0  0  0  0  0  0  0
   -1.7250   23.3740  -27.4950 C   0  0  0  0  0  0  0  0  0  0  0  0
   -2.1650   24.5240  -28.6420 S   0  0  0  0  0  0  0  0  0  0  0  0
   -4.1612   21.0112  -33.1546 H   0  0  0  0  0  0  0  0  0  0  0  0
   -8.2043   19.4829  -32.9727 H   0  0  0  0  0  0  0  0  0  0  0  0
   -7.2430   23.2708  -31.1145 H   0  0  0  0  0  0  0  0  0  0  0  0
   -4.4979   21.8225  -28.6236 H   0  0  0  0  0  0  0  0  0  0  0  0
   -2.6018   21.4622  -26.8689 H   0  0  0  0  0  0  0  0  0  0  0  0
   -0.8474   23.4282  -26.8340 H   0  0  0  0  0  0  0  0  0  0  0  0
  1  2  2  0
  2  3  2  0
  2  4  1  0
  4  5  1  0
  5  6  2  0
  6  7  1  0
  7  8  1  0
  7  9  2  0
  9 10  1  0
 10 11  1  0
 10 12  2  0
  2 13  1  0
 13 14  2  0
 14 15  1  0
 15 16  2  0
 16 17  1  0
 12  5  1  0
 17 13  1  0
  6 18  1  0
  9 19  1  0
 12 20  1  0
 14 21  1  0
 15 22  1  0
 16 23  1  0
M  CHG  1   4  -1
M  END
>  <UniqueID>  (24) 
23

>  <SMILES>  (24) 
O=S(=O)([N-]c1cc(Cl)cc(Cl)c1)c1cccs1

>  <Energy>  (24) 
52.23751421857385

>  <Genealogy>  (24) 
O=S(=O)([N-]c1cc(Cl)cc(Cl)c1)c1cccs1 (protonated)
O=S(=O)([N-]c1cc(Cl)cc(Cl)c1)c1cccs1 (3D coordinates assigned)
O=S(=O)([N-]c1cc(Cl)cc(Cl)c1)c1cccs1 (optimized conformer: 52.23751421857385 kcal/mol)

>  <smiles>  (24) 
O=S(=O)(Nc1cc(Cl)cc(Cl)c1)c1cccs1

>  <score_type>  (24) 
oracle

>  <origin>  (24) 
adgpu

>  <m_score__min__energy>  (24) 
-8.0999999999999996

>  <m_primary>  (24) 
energy

$$$$
24:0
     RDKit          3D

 28 29  0  0  0  0  0  0  0  0999 V2000
   -4.2360   25.6280  -30.4660 O   0  0  0  0  0  0  0  0  0  0  0  0
   -3.8820   24.4190  -30.4910 C   0  0  0  0  0  0  0  0  0  0  0  0
   -4.3050   23.6040  -31.5920 N   0  0  0  0  0  0  0  0  0  0  0  0
   -5.5680   22.9280  -31.7130 C   0  0  0  0  0  0  0  0  0  0  0  0
   -6.7450   23.5140  -31.2160 C   0  0  0  0  0  0  0  0  0  0  0  0
   -7.9670   22.8510  -31.3250 C   0  0  0  0  0  0  0  0  0  0  0  0
   -8.0280   21.5900  -31.9180 C   0  0  0  0  0  0  0  0  0  0  0  0
   -9.5680   20.7590  -32.0530 Cl  0  0  0  0  0  0  0  0  0  0  0  0
   -6.8630   20.9840  -32.3960 C   0  0  0  0  0  0  0  0  0  0  0  0
   -5.6190   21.6390  -32.2930 C   0  0  0  0  0  0  0  0  0  0  0  0
   -4.3590   20.9880  -32.8160 C   0  0  0  0  0  0  0  0  0  0  0  0
   -4.6910   19.8960  -33.5980 F   0  0  0  0  0  0  0  0  0  0  0  0
   -3.5830   20.5630  -31.7520 F   0  0  0  0  0  0  0  0  0  0  0  0
   -3.6070   21.8600  -33.5840 F   0  0  0  0  0  0  0  0  0  0  0  0
   -3.1070   23.8610  -29.3570 C   0  0  0  0  0  0  0  0  0  0  0  0
   -3.4730   22.6230  -28.7970 C   0  0  0  0  0  0  0  0  0  0  0  0
   -2.7540   22.0890  -27.7240 C   0  0  0  0  0  0  0  0  0  0  0  0
   -1.6680   22.7860  -27.1920 C   0  0  0  0  0  0  0  0  0  0  0  0
   -0.9540   22.2530  -26.1260 O   0  0  0  0  0  0  0  0  0  0  0  0
   -1.2990   24.0210  -27.7320 C   0  0  0  0  0  0  0  0  0  0  0  0
   -2.0120   24.5620  -28.8090 C   0  0  0  0  0  0  0  0  0  0  0  0
   -1.6130   25.7850  -29.3360 O   0  0  0  0  0  0  0  0  0  0  0  0
   -6.7018   24.5034  -30.7373 H   0  0  0  0  0  0  0  0  0  0  0  0
   -8.8841   23.3232  -30.9428 H   0  0  0  0  0  0  0  0  0  0  0  0
   -6.9172   19.9867  -32.8569 H   0  0  0  0  0  0  0  0  0  0  0  0
   -4.3317   22.0712  -29.2070 H   0  0  0  0  0  0  0  0  0  0  0  0
   -3.0446   21.1174  -27.2979 H   0  0  0  0  0  0  0  0  0  0  0  0
   -0.4449   24.5704  -27.3093 H   0  0  0  0  0  0  0  0  0  0  0  0
  1  2  2  0
  2  3  1  0
  3  4  1  0
  4  5  2  0
  5  6  1  0
  6  7  2  0
  7  8  1  0
  7  9  1  0
  9 10  2  0
 10 11  1  0
 11 12  1  0
 11 13  1  0
 11 14  1  0
  2 15  1  0
 15 16  2  0
 16 17  1  0
 17 18  2  0
 18 19  1  0
 18 20  1  0
 20 21  2  0
 21 22  1  0
 10  4  1  0
 21 15  1  0
  5 23  1  0
  6 24  1  0
  9 25  1  0
 16 26  1  0
 17 27  1  0
 20 28  1  0
M  CHG  3   3  -1  19  -1  22  -1
M  END
>  <UniqueID>  (25) 
24

>  <SMILES>  (25) 
O=C([N-]c1ccc(Cl)cc1C(F)(F)F)c1ccc([O-])cc1[O-]

>  <Energy>  (25) 
38.62667442296866

>  <Genealogy>  (25) 
O=C([N-]c1ccc(Cl)cc1C(F)(F)F)c1ccc([O-])cc1[O-] (protonated)
O=C([N-]c1ccc(Cl)cc1C(F)(F)F)c1ccc([O-])cc1[O-] (3D coordinates assigned)
O=C([N-]c1ccc(Cl)cc1C(F)(F)F)c1ccc([O-])cc1[O-] (optimized conformer: 38.62667442296866 kcal/mol)

>  <smiles>  (25) 
O=C(Nc1ccc(Cl)cc1C(F)(F)F)c1ccc(O)cc1O

>  <score_type>  (25) 
oracle

>  <origin>  (25) 
adgpu

>  <m_score__min__energy>  (25) 
-11.24

>  <m_primary>  (25) 
energy

$$$$
25:0
     RDKit          3D

 49 53  0  0  0  0  0  0  0  0999 V2000
   -4.4680   12.5640  -34.5740 O   0  0  0  0  0  0  0  0  0  0  0  0
   -5.3120   13.4910  -34.4620 C   0  0  0  0  0  0  0  0  0  0  0  0
   -6.5800   13.3240  -34.9340 N   0  0  0  0  0  0  0  0  0  0  0  0
   -7.5280   14.3030  -34.7960 C   0  0  0  0  0  0  0  0  0  0  0  0
   -7.2260   15.4710  -34.1590 N   0  0  0  0  0  0  0  0  0  0  0  0
   -5.9700   15.6460  -33.6790 C   0  0  0  0  0  0  0  0  0  0  0  0
   -4.9950   14.7010  -33.8430 C   0  0  0  0  0  0  0  0  0  0  0  0
   -3.8420   15.2140  -33.2660 C   0  0  0  0  0  0  0  0  0  0  0  0
   -2.4920   14.6190  -33.2100 C   0  0  0  0  0  0  0  0  0  0  0  0
   -2.1890   13.6110  -32.2790 C   0  0  0  0  0  0  0  0  0  0  0  0
   -0.9150   13.0350  -32.2520 C   0  0  0  0  0  0  0  0  0  0  0  0
    0.0610   13.4520  -33.1610 C   0  0  0  0  0  0  0  0  0  0  0  0
   -0.2370   14.4410  -34.1020 C   0  0  0  0  0  0  0  0  0  0  0  0
   -1.5100   15.0190  -34.1330 C   0  0  0  0  0  0  0  0  0  0  0  0
   -4.1980   16.4660  -32.7640 C   0  0  0  0  0  0  0  0  0  0  0  0
   -5.5040   16.7270  -33.0210 N   0  0  0  0  0  0  0  0  0  0  0  0
   -6.2190   17.9260  -32.6690 C   0  0  0  0  0  0  0  0  0  0  0  0
   -7.4300   17.8600  -31.9570 C   0  0  0  0  0  0  0  0  0  0  0  0
   -8.1180   19.0280  -31.6190 C   0  0  0  0  0  0  0  0  0  0  0  0
   -7.6060   20.2790  -31.9860 C   0  0  0  0  0  0  0  0  0  0  0  0
   -8.4780   21.7570  -31.5920 S   0  0  0  0  0  0  0  0  0  0  0  0
   -8.5930   21.8660  -30.0980 O   0  0  0  0  0  0  0  0  0  0  0  0
   -9.8570   21.7410  -32.1880 O   0  0  0  0  0  0  0  0  0  0  0  0
   -7.6090   23.1290  -32.2040 N   0  0  0  0  0  0  0  0  0  0  0  0
   -6.4540   23.6960  -31.5590 C   0  0  0  0  0  0  0  0  0  0  0  0
   -6.4930   24.9630  -30.9450 C   0  0  0  0  0  0  0  0  0  0  0  0
   -5.3500   25.4880  -30.3340 C   0  0  0  0  0  0  0  0  0  0  0  0
   -4.1590   24.7570  -30.3230 C   0  0  0  0  0  0  0  0  0  0  0  0
   -3.0290   25.2920  -29.7140 O   0  0  0  0  0  0  0  0  0  0  0  0
   -4.1120   23.4910  -30.9220 C   0  0  0  0  0  0  0  0  0  0  0  0
   -2.6250   22.5560  -30.9140 Cl  0  0  0  0  0  0  0  0  0  0  0  0
   -5.2560   22.9650  -31.5330 C   0  0  0  0  0  0  0  0  0  0  0  0
   -6.3940   20.3530  -32.6830 C   0  0  0  0  0  0  0  0  0  0  0  0
   -5.7030   19.1860  -33.0200 C   0  0  0  0  0  0  0  0  0  0  0  0
   -8.5386   14.1465  -35.2011 H   0  0  0  0  0  0  0  0  0  0  0  0
   -2.9576   13.2734  -31.5681 H   0  0  0  0  0  0  0  0  0  0  0  0
   -0.6810   12.2530  -31.5146 H   0  0  0  0  0  0  0  0  0  0  0  0
    1.0642   13.0015  -33.1357 H   0  0  0  0  0  0  0  0  0  0  0  0
    0.5310   14.7655  -34.8196 H   0  0  0  0  0  0  0  0  0  0  0  0
   -1.7438   15.7895  -34.8824 H   0  0  0  0  0  0  0  0  0  0  0  0
   -3.5152   17.1463  -32.2340 H   0  0  0  0  0  0  0  0  0  0  0  0
   -7.8385   16.8816  -31.6641 H   0  0  0  0  0  0  0  0  0  0  0  0
   -9.0649   18.9650  -31.0628 H   0  0  0  0  0  0  0  0  0  0  0  0
   -8.0180   23.6180  -33.0320 H   0  0  0  0  0  0  0  0  0  0  0  0
   -7.4278   25.5428  -30.9461 H   0  0  0  0  0  0  0  0  0  0  0  0
   -5.3885   26.4800  -29.8603 H   0  0  0  0  0  0  0  0  0  0  0  0
   -5.2159   21.9687  -31.9975 H   0  0  0  0  0  0  0  0  0  0  0  0
   -5.9841   21.3336  -32.9665 H   0  0  0  0  0  0  0  0  0  0  0  0
   -4.7490   19.2536  -33.5635 H   0  0  0  0  0  0  0  0  0  0  0  0
  1  2  2  0
  2  3  1  0
  3  4  1  0
  4  5  2  0
  5  6  1  0
  6  7  2  0
  7  8  1  0
  8  9  1  0
  9 10  2  0
 10 11  1  0
 11 12  2  0
 12 13  1  0
 13 14  2  0
  8 15  2  0
 15 16  1  0
 16 17  1  0
 17 18  2  0
 18 19  1  0
 19 20  2  0
 20 21  1  0
 21 22  2  0
 21 23  2  0
 21 24  1  0
 24 25  1  0
 25 26  2  0
 26 27  1  0
 27 28  2  0
 28 29  1  0
 28 30  1  0
 30 31  1  0
 30 32  2  0
 20 33  1  0
 33 34  2  0
  7  2  1  0
 14  9  1  0
 34 17  1  0
 16  6  1  0
 32 25  1  0
  4 35  1  0
 10 36  1  0
 11 37  1  0
 12 38  1  0
 13 39  1  0
 14 40  1  0
 15 41  1  0
 18 42  1  0
 19 43  1  0
 24 44  1  0
 26 45  1  0
 27 46  1  0
 32 47  1  0
 33 48  1  0
 34 49  1  0
M  CHG  2   3  -1  29  -1
M  END
>  <UniqueID>  (26) 
25

>  <SMILES>  (26) 
O=c1[n-]cnc2c1c(-c1ccccc1)cn2-c1ccc(S(=O)(=O)Nc2ccc([O-])c(Cl)c2)cc1

>  <Energy>  (26) 
106.983066113668

>  <Genealogy>  (26) 
O=c1[n-]cnc2c1c(-c1ccccc1)cn2-c1ccc(S(=O)(=O)Nc2ccc([O-])c(Cl)c2)cc1 (protonated)
O=c1[n-]cnc2c1c(-c1ccccc1)cn2-c1ccc(S(=O)(=O)Nc2ccc([O-])c(Cl)c2)cc1 (3D coordinates assigned)
O=c1[n-]cnc2c1c(-c1ccccc1)cn2-c1ccc(S(=O)(=O)Nc2ccc([O-])c(Cl)c2)cc1 (optimized conformer: 106.983066113668 kcal/mol)

>  <smiles>  (26) 
O=c1[nH]cnc2c1c(-c1ccccc1)cn2-c1ccc(S(=O)(=O)Nc2ccc(O)c(Cl)c2)cc1

>  <score_type>  (26) 
oracle

>  <origin>  (26) 
adgpu

>  <m_score__min__energy>  (26) 
-12.57

>  <m_primary>  (26) 
energy

$$$$
26:0
     RDKit          3D

 46 49  0  0  0  0  0  0  0  0999 V2000
   -5.8250   16.4400  -34.5551 H   0  0  0  0  0  0  0  0  0  0  0  0
   -6.0190   17.3580  -33.9810 C   0  0  0  0  0  0  0  0  0  0  0  0
   -5.0680   18.3800  -33.9600 C   0  0  0  0  0  0  0  0  0  0  0  0
   -4.1235   18.2593  -34.5108 H   0  0  0  0  0  0  0  0  0  0  0  0
   -5.3090   19.5560  -33.2430 C   0  0  0  0  0  0  0  0  0  0  0  0
   -4.3230   20.5540  -33.2350 O   0  0  0  0  0  0  0  0  0  0  0  0
   -4.3110   21.6770  -32.3950 C   0  0  0  0  0  0  0  0  0  0  0  0
   -5.4040   22.5870  -32.3450 C   0  0  0  0  0  0  0  0  0  0  0  0
   -6.2917   22.4077  -32.9693 H   0  0  0  0  0  0  0  0  0  0  0  0
   -5.3590   23.7140  -31.5040 C   0  0  0  0  0  0  0  0  0  0  0  0
   -6.2023   24.4181  -31.4495 H   0  0  0  0  0  0  0  0  0  0  0  0
   -4.2100   23.9060  -30.7440 C   0  0  0  0  0  0  0  0  0  0  0  0
   -3.1520   23.0480  -30.7990 C   0  0  0  0  0  0  0  0  0  0  0  0
   -2.1700   23.4580  -29.9750 N   0  0  0  0  0  0  0  0  0  0  0  0
   -2.6920   24.5960  -29.4400 C   0  0  0  0  0  0  0  0  0  0  0  0
   -2.0850   25.3210  -28.5450 N   0  0  0  0  0  0  0  0  0  0  0  0
   -0.7560   25.1200  -28.0360 C   0  0  0  0  0  0  0  0  0  0  0  0
   -0.2330   23.8210  -28.0260 C   0  0  0  0  0  0  0  0  0  0  0  0
   -0.8317   22.9881  -28.4234 H   0  0  0  0  0  0  0  0  0  0  0  0
    1.0460   23.5750  -27.5140 C   0  0  0  0  0  0  0  0  0  0  0  0
    1.4578   22.5552  -27.5360 H   0  0  0  0  0  0  0  0  0  0  0  0
    1.8050   24.6230  -26.9730 C   0  0  0  0  0  0  0  0  0  0  0  0
    3.1900   24.3660  -26.4580 C   0  0  0  0  0  0  0  0  0  0  0  0
    3.1785   24.3681  -25.3581 H   0  0  0  0  0  0  0  0  0  0  0  0
    3.5398   23.3876  -26.8191 H   0  0  0  0  0  0  0  0  0  0  0  0
    3.8675   25.1538  -26.8191 H   0  0  0  0  0  0  0  0  0  0  0  0
    1.2780   25.9230  -26.9680 C   0  0  0  0  0  0  0  0  0  0  0  0
    1.8721   26.7529  -26.5578 H   0  0  0  0  0  0  0  0  0  0  0  0
    0.0010   26.1690  -27.4820 C   0  0  0  0  0  0  0  0  0  0  0  0
   -0.4138   27.1874  -27.4531 H   0  0  0  0  0  0  0  0  0  0  0  0
   -3.9370   24.8930  -29.8830 N   0  0  0  0  0  0  0  0  0  0  0  0
   -4.5440   25.7000  -29.6140 H   0  0  0  0  0  0  0  0  0  0  0  0
   -3.1600   21.9230  -31.6180 C   0  0  0  0  0  0  0  0  0  0  0  0
   -2.2942   21.2456  -31.6582 H   0  0  0  0  0  0  0  0  0  0  0  0
   -6.5040   19.6860  -32.5120 C   0  0  0  0  0  0  0  0  0  0  0  0
   -6.6850   20.5969  -31.9225 H   0  0  0  0  0  0  0  0  0  0  0  0
   -7.4710   18.6620  -32.5270 C   0  0  0  0  0  0  0  0  0  0  0  0
   -8.7330   18.8080  -31.7650 C   0  0  0  0  0  0  0  0  0  0  0  0
   -9.5060   17.8210  -31.6240 O   0  0  0  0  0  0  0  0  0  0  0  0
   -9.0820   20.0690  -31.1830 N   0  0  0  0  0  0  0  0  0  0  0  0
   -9.4700   21.2240  -31.9790 C   0  0  0  0  0  0  0  0  0  0  0  0
   -9.7484   22.0527  -31.3113 H   0  0  0  0  0  0  0  0  0  0  0  0
   -8.6260   21.5322  -32.6137 H   0  0  0  0  0  0  0  0  0  0  0  0
  -10.3288   20.9601  -32.6137 H   0  0  0  0  0  0  0  0  0  0  0  0
   -7.2160   17.4980  -33.2750 C   0  0  0  0  0  0  0  0  0  0  0  0
   -7.9646   16.6925  -33.3040 H   0  0  0  0  0  0  0  0  0  0  0  0
  1  2  1  0
  2  3  2  0
  3  4  1  0
  3  5  1  0
  5  6  1  0
  6  7  1  0
  7  8  2  0
  8  9  1  0
  8 10  1  0
 10 11  1  0
 10 12  2  0
 12 13  1  0
 13 14  1  0
 14 15  1  0
 15 16  2  0
 16 17  1  0
 17 18  2  0
 18 19  1  0
 18 20  1  0
 20 21  1  0
 20 22  2  0
 22 23  1  0
 23 24  1  0
 23 25  1  0
 23 26  1  0
 22 27  1  0
 27 28  1  0
 27 29  2  0
 29 30  1  0
 15 31  1  0
 31 32  1  0
 13 33  2  0
 33 34  1  0
  5 35  2  0
 35 36  1  0
 35 37  1  0
 37 38  1  0
 38 39  2  0
 38 40  1  0
 40 41  1  0
 41 42  1  0
 41 43  1  0
 41 44  1  0
 37 45  2  0
 45 46  1  0
 45  2  1  0
 33  7  1  0
 31 12  1  0
 29 17  1  0
M  CHG  2  14  -1  40  -1
M  END
>  <UniqueID>  (27) 
26

>  <SMILES>  (27) 
C[N-]C(=O)c1cccc(Oc2ccc3[nH]/c(=N/c4ccc(C)cc4)[n-]c3c2)c1

>  <Energy>  (27) 
96.90913800789616

>  <Genealogy>  (27) 
C[N-]C(=O)c1cccc(Oc2ccc3[nH]c(=Nc4ccc(C)cc4)[n-]c3c2)c1 (protonated)
C[N-]C(=O)c1cccc(Oc2ccc3[nH]/c(=N/c4ccc(C)cc4)[n-]c3c2)c1 (cis-trans isomerization)
C[N-]C(=O)c1cccc(Oc2ccc3[nH]/c(=N/c4ccc(C)cc4)[n-]c3c2)c1 (3D coordinates assigned)
C[N-]C(=O)c1cccc(Oc2ccc3[nH]/c(=N/c4ccc(C)cc4)[n-]c3c2)c1 (optimized conformer: 96.90913800789616 kcal/mol)

>  <smiles>  (27) 
CNC(=O)c1cccc(Oc2ccc3[nH]c(=Nc4ccc(C)cc4)[nH]c3c2)c1

>  <score_type>  (27) 
oracle

>  <origin>  (27) 
adgpu

>  <m_score__min__energy>  (27) 
-10.970000000000001

>  <m_primary>  (27) 
energy

$$$$
27:0
     RDKit          3D

 38 40  0  0  0  0  0  0  0  0999 V2000
   -5.7450   26.5280  -30.4310 O   0  0  0  0  0  0  0  0  0  0  0  0
   -5.2480   25.3820  -30.5830 C   0  0  0  0  0  0  0  0  0  0  0  0
   -3.8240   25.2310  -30.4650 N   0  0  0  0  0  0  0  0  0  0  0  0
   -3.0970   24.0160  -30.2250 C   0  0  0  0  0  0  0  0  0  0  0  0
   -2.1560   23.9890  -29.1880 C   0  0  0  0  0  0  0  0  0  0  0  0
   -1.4020   22.8390  -28.9460 C   0  0  0  0  0  0  0  0  0  0  0  0
   -1.5690   21.7080  -29.7490 C   0  0  0  0  0  0  0  0  0  0  0  0
   -2.4830   21.7220  -30.8100 C   0  0  0  0  0  0  0  0  0  0  0  0
   -2.6550   20.5250  -31.5870 N   0  0  0  0  0  0  0  0  0  0  0  0
   -3.3770   20.3880  -32.8200 C   0  0  0  0  0  0  0  0  0  0  0  0
   -2.9320   20.9690  -33.8460 O   0  0  0  0  0  0  0  0  0  0  0  0
   -4.6440   19.6280  -32.9150 C   0  0  0  0  0  0  0  0  0  0  0  0
   -5.5700   19.6380  -31.8570 C   0  0  0  0  0  0  0  0  0  0  0  0
   -6.7470   18.8880  -31.9430 C   0  0  0  0  0  0  0  0  0  0  0  0
   -7.0110   18.1280  -33.0840 C   0  0  0  0  0  0  0  0  0  0  0  0
   -6.1020   18.1210  -34.1460 C   0  0  0  0  0  0  0  0  0  0  0  0
   -4.9260   18.8720  -34.0670 C   0  0  0  0  0  0  0  0  0  0  0  0
   -3.2510   22.8780  -31.0380 C   0  0  0  0  0  0  0  0  0  0  0  0
   -6.1450   24.2330  -30.8330 C   0  0  0  0  0  0  0  0  0  0  0  0
   -6.4140   23.8010  -32.1430 C   0  0  0  0  0  0  0  0  0  0  0  0
   -7.2910   22.7350  -32.3700 C   0  0  0  0  0  0  0  0  0  0  0  0
   -7.9010   22.0900  -31.2910 C   0  0  0  0  0  0  0  0  0  0  0  0
   -7.6310   22.5030  -29.9850 C   0  0  0  0  0  0  0  0  0  0  0  0
   -6.7530   23.5660  -29.7540 C   0  0  0  0  0  0  0  0  0  0  0  0
   -2.0099   24.8801  -28.5598 H   0  0  0  0  0  0  0  0  0  0  0  0
   -0.6746   22.8235  -28.1210 H   0  0  0  0  0  0  0  0  0  0  0  0
   -0.9794   20.8016  -29.5468 H   0  0  0  0  0  0  0  0  0  0  0  0
   -5.3677   20.2384  -30.9578 H   0  0  0  0  0  0  0  0  0  0  0  0
   -7.4659   18.8968  -31.1105 H   0  0  0  0  0  0  0  0  0  0  0  0
   -7.9349   17.5343  -33.1474 H   0  0  0  0  0  0  0  0  0  0  0  0
   -6.3126   17.5235  -35.0452 H   0  0  0  0  0  0  0  0  0  0  0  0
   -4.2182   18.8718  -34.9090 H   0  0  0  0  0  0  0  0  0  0  0  0
   -3.9804   22.8926  -31.8613 H   0  0  0  0  0  0  0  0  0  0  0  0
   -5.9323   24.3038  -32.9945 H   0  0  0  0  0  0  0  0  0  0  0  0
   -7.5004   22.4045  -33.3981 H   0  0  0  0  0  0  0  0  0  0  0  0
   -8.5949   21.2557  -31.4708 H   0  0  0  0  0  0  0  0  0  0  0  0
   -8.1096   21.9914  -29.1369 H   0  0  0  0  0  0  0  0  0  0  0  0
   -6.5364   23.8825  -28.7230 H   0  0  0  0  0  0  0  0  0  0  0  0
  1  2  2  0
  2  3  1  0
  3  4  1  0
  4  5  2  0
  5  6  1  0
  6  7  2  0
  7  8  1  0
  8  9  1  0
  9 10  1  0
 10 11  2  0
 10 12  1  0
 12 13  2  0
 13 14  1  0
 14 15  2  0
 15 16  1  0
 16 17  2  0
  8 18  2  0
  2 19  1  0
 19 20  2  0
 20 21  1  0
 21 22  2  0
 22 23  1  0
 23 24  2  0
 18  4  1  0
 24 19  1  0
 17 12  1  0
  5 25  1  0
  6 26  1  0
  7 27  1  0
 13 28  1  0
 14 29  1  0
 15 30  1  0
 16 31  1  0
 17 32  1  0
 18 33  1  0
 20 34  1  0
 21 35  1  0
 22 36  1  0
 23 37  1  0
 24 38  1  0
M  CHG  2   3  -1   9  -1
M  END
>  <UniqueID>  (28) 
27

>  <SMILES>  (28) 
O=C([N-]c1cccc([N-]C(=O)c2ccccc2)c1)c1ccccc1

>  <Energy>  (28) 
53.51069541065706

>  <Genealogy>  (28) 
O=C([N-]c1cccc([N-]C(=O)c2ccccc2)c1)c1ccccc1 (protonated)
O=C([N-]c1cccc([N-]C(=O)c2ccccc2)c1)c1ccccc1 (3D coordinates assigned)
O=C([N-]c1cccc([N-]C(=O)c2ccccc2)c1)c1ccccc1 (optimized conformer: 53.51069541065706 kcal/mol)

>  <smiles>  (28) 
O=C(Nc1cccc(NC(=O)c2ccccc2)c1)c1ccccc1

>  <score_type>  (28) 
oracle

>  <origin>  (28) 
adgpu

>  <m_score__min__energy>  (28) 
-10.49

>  <m_primary>  (28) 
energy

$$$$
28:0
     RDKit          3D

 55 57  0  0  0  0  0  0  0  0999 V2000
    0.3020   18.1560  -27.9370 C   0  0  0  0  0  0  0  0  0  0  0  0
   -0.6510   18.8980  -28.6910 O   0  0  0  0  0  0  0  0  0  0  0  0
   -0.9410   20.2540  -28.4880 C   0  0  0  0  0  0  0  0  0  0  0  0
   -0.5770   21.2430  -29.4220 C   0  0  0  0  0  0  0  0  0  0  0  0
   -0.9120   22.5800  -29.2030 C   0  0  0  0  0  0  0  0  0  0  0  0
   -1.6150   22.9500  -28.0510 C   0  0  0  0  0  0  0  0  0  0  0  0
   -2.1660   24.6070  -27.8200 S   0  0  0  0  0  0  0  0  0  0  0  0
   -1.0660   25.4730  -27.2700 O   0  0  0  0  0  0  0  0  0  0  0  0
   -3.3190   24.6080  -26.8570 O   0  0  0  0  0  0  0  0  0  0  0  0
   -2.6920   25.2380  -29.3480 N   0  0  0  0  0  0  0  0  0  0  0  0
   -3.7080   24.6340  -30.1590 C   0  0  0  0  0  0  0  0  0  0  0  0
   -4.9460   25.2720  -30.2780 C   0  0  0  0  0  0  0  0  0  0  0  0
   -5.9870   24.6730  -30.9930 C   0  0  0  0  0  0  0  0  0  0  0  0
   -5.7920   23.4360  -31.6290 C   0  0  0  0  0  0  0  0  0  0  0  0
   -6.9070   22.7570  -32.3150 C   0  0  0  0  0  0  0  0  0  0  0  0
   -8.0590   23.2740  -32.3100 O   0  0  0  0  0  0  0  0  0  0  0  0
   -6.6820   21.5230  -33.0080 N   0  0  0  0  0  0  0  0  0  0  0  0
   -7.2740   20.2710  -32.6390 C   0  0  0  0  0  0  0  0  0  0  0  0
   -8.4550   20.2850  -31.8850 C   0  0  0  0  0  0  0  0  0  0  0  0
   -9.1000   19.0880  -31.5560 C   0  0  0  0  0  0  0  0  0  0  0  0
   -8.5600   17.8660  -31.9600 C   0  0  0  0  0  0  0  0  0  0  0  0
   -7.3590   17.8360  -32.6750 C   0  0  0  0  0  0  0  0  0  0  0  0
   -6.6970   19.0290  -33.0090 C   0  0  0  0  0  0  0  0  0  0  0  0
   -5.4210   18.9600  -33.6710 N   0  0  0  0  0  0  0  0  0  0  0  0
   -4.3350   19.8470  -33.2500 C   0  0  0  0  0  0  0  0  0  0  0  0
   -5.3110   18.2370  -34.9410 C   0  0  0  0  0  0  0  0  0  0  0  0
   -4.5340   22.8150  -31.5430 C   0  0  0  0  0  0  0  0  0  0  0  0
   -3.5010   23.4090  -30.8130 C   0  0  0  0  0  0  0  0  0  0  0  0
   -1.9590   21.9760  -27.1070 C   0  0  0  0  0  0  0  0  0  0  0  0
   -1.6220   20.6250  -27.3170 C   0  0  0  0  0  0  0  0  0  0  0  0
   -1.9540   19.6210  -26.3950 O   0  0  0  0  0  0  0  0  0  0  0  0
   -3.1820   18.9020  -26.3900 C   0  0  0  0  0  0  0  0  0  0  0  0
    0.1141   18.3023  -26.8631 H   0  0  0  0  0  0  0  0  0  0  0  0
    0.2123   17.0875  -28.1827 H   0  0  0  0  0  0  0  0  0  0  0  0
    1.3159   18.5049  -28.1827 H   0  0  0  0  0  0  0  0  0  0  0  0
   -0.0249   20.9599  -30.3303 H   0  0  0  0  0  0  0  0  0  0  0  0
   -0.6225   23.3453  -29.9382 H   0  0  0  0  0  0  0  0  0  0  0  0
   -5.1022   26.2529  -29.8054 H   0  0  0  0  0  0  0  0  0  0  0  0
   -6.9645   25.1732  -31.0580 H   0  0  0  0  0  0  0  0  0  0  0  0
   -8.8777   21.2435  -31.5496 H   0  0  0  0  0  0  0  0  0  0  0  0
  -10.0353   19.1099  -30.9774 H   0  0  0  0  0  0  0  0  0  0  0  0
   -9.0790   16.9273  -31.7160 H   0  0  0  0  0  0  0  0  0  0  0  0
   -6.9289   16.8701  -32.9785 H   0  0  0  0  0  0  0  0  0  0  0  0
   -4.2940   19.8805  -32.1513 H   0  0  0  0  0  0  0  0  0  0  0  0
   -3.3794   19.4679  -33.6412 H   0  0  0  0  0  0  0  0  0  0  0  0
   -4.5157   20.8591  -33.6412 H   0  0  0  0  0  0  0  0  0  0  0  0
   -5.1483   17.1676  -34.7412 H   0  0  0  0  0  0  0  0  0  0  0  0
   -6.2390   18.3653  -35.5175 H   0  0  0  0  0  0  0  0  0  0  0  0
   -4.4631   18.6355  -35.5175 H   0  0  0  0  0  0  0  0  0  0  0  0
   -4.3616   21.8559  -32.0533 H   0  0  0  0  0  0  0  0  0  0  0  0
   -2.5206   22.9142  -30.7504 H   0  0  0  0  0  0  0  0  0  0  0  0
   -2.4972   22.2682  -26.1932 H   0  0  0  0  0  0  0  0  0  0  0  0
   -3.4953   18.7186  -25.3516 H   0  0  0  0  0  0  0  0  0  0  0  0
   -3.9538   19.4909  -26.9073 H   0  0  0  0  0  0  0  0  0  0  0  0
   -3.0462   17.9407  -26.9073 H   0  0  0  0  0  0  0  0  0  0  0  0
  1  2  1  0
  2  3  1  0
  3  4  2  0
  4  5  1  0
  5  6  2  0
  6  7  1  0
  7  8  2  0
  7  9  2  0
  7 10  1  0
 10 11  1  0
 11 12  2  0
 12 13  1  0
 13 14  2  0
 14 15  1  0
 15 16  2  0
 15 17  1  0
 17 18  1  0
 18 19  2  0
 19 20  1  0
 20 21  2  0
 21 22  1  0
 22 23  2  0
 23 24  1  0
 24 25  1  0
 24 26  1  0
 14 27  1  0
 27 28  2  0
  6 29  1  0
 29 30  2  0
 30 31  1  0
 31 32  1  0
 30  3  1  0
 28 11  1  0
 23 18  1  0
  1 33  1  0
  1 34  1  0
  1 35  1  0
  4 36  1  0
  5 37  1  0
 12 38  1  0
 13 39  1  0
 19 40  1  0
 20 41  1  0
 21 42  1  0
 22 43  1  0
 25 44  1  0
 25 45  1  0
 25 46  1  0
 26 47  1  0
 26 48  1  0
 26 49  1  0
 27 50  1  0
 28 51  1  0
 29 52  1  0
 32 53  1  0
 32 54  1  0
 32 55  1  0
M  CHG  2  10  -1  17  -1
M  END
>  <UniqueID>  (29) 
28

>  <SMILES>  (29) 
COc1ccc(S(=O)(=O)[N-]c2ccc(C(=O)[N-]c3ccccc3N(C)C)cc2)cc1OC

>  <Energy>  (29) 
69.55809751522052

>  <Genealogy>  (29) 
COc1ccc(S(=O)(=O)[N-]c2ccc(C(=O)[N-]c3ccccc3N(C)C)cc2)cc1OC (protonated)
COc1ccc(S(=O)(=O)[N-]c2ccc(C(=O)[N-]c3ccccc3N(C)C)cc2)cc1OC (3D coordinates assigned)
COc1ccc(S(=O)(=O)[N-]c2ccc(C(=O)[N-]c3ccccc3N(C)C)cc2)cc1OC (optimized conformer: 69.55809751522052 kcal/mol)

>  <smiles>  (29) 
COc1ccc(S(=O)(=O)Nc2ccc(C(=O)Nc3ccccc3N(C)C)cc2)cc1OC

>  <score_type>  (29) 
oracle

>  <origin>  (29) 
adgpu

>  <m_score__min__energy>  (29) 
-10.52

>  <m_primary>  (29) 
energy

$$$$
29:0
     RDKit          3D

 37 39  0  0  0  0  0  0  0  0999 V2000
   -3.6130   13.6800  -34.6800 C   0  0  0  0  0  0  0  0  0  0  0  0
   -4.1560   15.0710  -34.5840 C   0  0  0  0  0  0  0  0  0  0  0  0
   -3.5750   16.1100  -35.3220 C   0  0  0  0  0  0  0  0  0  0  0  0
   -4.0990   17.4000  -35.2270 C   0  0  0  0  0  0  0  0  0  0  0  0
   -5.2030   17.6450  -34.4000 C   0  0  0  0  0  0  0  0  0  0  0  0
   -5.7540   18.9290  -34.2830 C   0  0  0  0  0  0  0  0  0  0  0  0
   -6.8710   19.1450  -33.4530 C   0  0  0  0  0  0  0  0  0  0  0  0
   -7.4440   20.4160  -33.2990 O   0  0  0  0  0  0  0  0  0  0  0  0
   -6.9060   21.4630  -32.5370 C   0  0  0  0  0  0  0  0  0  0  0  0
   -7.7800   22.3930  -31.9610 C   0  0  0  0  0  0  0  0  0  0  0  0
   -7.2820   23.4590  -31.2040 C   0  0  0  0  0  0  0  0  0  0  0  0
   -5.9000   23.6160  -31.0330 C   0  0  0  0  0  0  0  0  0  0  0  0
   -5.2740   24.9470  -30.0670 S   0  0  0  0  0  0  0  0  0  0  0  0
   -4.5940   24.3080  -28.5530 C   0  0  0  0  0  0  0  0  0  0  0  0
   -4.2040   25.6740  -30.8310 O   0  0  0  0  0  0  0  0  0  0  0  0
   -6.3820   25.9130  -29.7520 O   0  0  0  0  0  0  0  0  0  0  0  0
   -5.0210   22.6950  -31.6200 C   0  0  0  0  0  0  0  0  0  0  0  0
   -5.5190   21.6300  -32.3750 C   0  0  0  0  0  0  0  0  0  0  0  0
   -7.4050   18.0760  -32.7220 C   0  0  0  0  0  0  0  0  0  0  0  0
   -6.8580   16.7940  -32.8350 C   0  0  0  0  0  0  0  0  0  0  0  0
   -5.7620   16.5710  -33.6730 C   0  0  0  0  0  0  0  0  0  0  0  0
   -5.2280   15.3250  -33.7850 N   0  0  0  0  0  0  0  0  0  0  0  0
   -3.4557   13.2772  -33.6686 H   0  0  0  0  0  0  0  0  0  0  0  0
   -4.3287   13.0435  -35.2210 H   0  0  0  0  0  0  0  0  0  0  0  0
   -2.6554   13.6967  -35.2210 H   0  0  0  0  0  0  0  0  0  0  0  0
   -2.7108   15.9104  -35.9726 H   0  0  0  0  0  0  0  0  0  0  0  0
   -3.6462   18.2225  -35.8001 H   0  0  0  0  0  0  0  0  0  0  0  0
   -5.3132   19.7687  -34.8403 H   0  0  0  0  0  0  0  0  0  0  0  0
   -8.8652   22.2848  -32.1046 H   0  0  0  0  0  0  0  0  0  0  0  0
   -7.9769   24.1756  -30.7419 H   0  0  0  0  0  0  0  0  0  0  0  0
   -5.0972   24.7808  -27.6967 H   0  0  0  0  0  0  0  0  0  0  0  0
   -4.7472   23.2195  -28.5129 H   0  0  0  0  0  0  0  0  0  0  0  0
   -3.5171   24.5285  -28.5129 H   0  0  0  0  0  0  0  0  0  0  0  0
   -3.9354   22.8112  -31.4857 H   0  0  0  0  0  0  0  0  0  0  0  0
   -4.8232   20.9191  -32.8447 H   0  0  0  0  0  0  0  0  0  0  0  0
   -8.2618   18.2464  -32.0535 H   0  0  0  0  0  0  0  0  0  0  0  0
   -7.2910   15.9598  -32.2635 H   0  0  0  0  0  0  0  0  0  0  0  0
  1  2  1  0
  2  3  2  0
  3  4  1  0
  4  5  2  0
  5  6  1  0
  6  7  2  0
  7  8  1  0
  8  9  1  0
  9 10  2  0
 10 11  1  0
 11 12  2  0
 12 13  1  0
 13 14  1  0
 13 15  2  0
 13 16  2  0
 12 17  1  0
 17 18  2  0
  7 19  1  0
 19 20  2  0
 20 21  1  0
 21 22  2  0
 22  2  1  0
 21  5  1  0
 18  9  1  0
  1 23  1  0
  1 24  1  0
  1 25  1  0
  3 26  1  0
  4 27  1  0
  6 28  1  0
 10 29  1  0
 11 30  1  0
 14 31  1  0
 14 32  1  0
 14 33  1  0
 17 34  1  0
 18 35  1  0
 19 36  1  0
 20 37  1  0
M  END
>  <UniqueID>  (30) 
29

>  <SMILES>  (30) 
Cc1ccc2cc(Oc3ccc(S(C)(=O)=O)cc3)ccc2n1

>  <Energy>  (30) 
45.01763762456597

>  <Genealogy>  (30) 
Cc1ccc2cc(Oc3ccc(S(C)(=O)=O)cc3)ccc2n1 (3D coordinates assigned)
Cc1ccc2cc(Oc3ccc(S(C)(=O)=O)cc3)ccc2n1 (optimized conformer: 45.01763762456597 kcal/mol)

>  <smiles>  (30) 
Cc1ccc2cc(Oc3ccc(S(C)(=O)=O)cc3)ccc2n1

>  <score_type>  (30) 
oracle

>  <origin>  (30) 
adgpu

>  <m_score__min__energy>  (30) 
-8.5899999999999999

>  <m_primary>  (30) 
energy

$$$$
30:0
     RDKit          3D

 42 44  0  0  0  0  0  0  0  0999 V2000
   -5.0350   17.6180  -35.3400 C   0  0  0  0  0  0  0  0  0  0  0  0
   -6.1080   18.3400  -34.6670 N   0  0  0  0  0  0  0  0  0  0  0  0
   -5.8380   19.2920  -33.6280 C   0  0  0  0  0  0  0  0  0  0  0  0
   -4.6460   19.5160  -33.2820 O   0  0  0  0  0  0  0  0  0  0  0  0
   -6.9450   20.0130  -32.9610 C   0  0  0  0  0  0  0  0  0  0  0  0
   -6.7190   21.2260  -32.2880 C   0  0  0  0  0  0  0  0  0  0  0  0
   -7.7930   21.8910  -31.6720 C   0  0  0  0  0  0  0  0  0  0  0  0
   -7.6200   23.0970  -30.9760 O   0  0  0  0  0  0  0  0  0  0  0  0
   -6.3860   23.6390  -30.5880 C   0  0  0  0  0  0  0  0  0  0  0  0
   -5.8510   24.7850  -31.2040 C   0  0  0  0  0  0  0  0  0  0  0  0
   -4.6220   25.3010  -30.7840 C   0  0  0  0  0  0  0  0  0  0  0  0
   -3.9100   24.6820  -29.7510 C   0  0  0  0  0  0  0  0  0  0  0  0
   -2.6520   25.2390  -29.3420 N   0  0  0  0  0  0  0  0  0  0  0  0
   -1.4780   24.4980  -28.9830 C   0  0  0  0  0  0  0  0  0  0  0  0
   -0.4560   25.1340  -28.6090 O   0  0  0  0  0  0  0  0  0  0  0  0
   -1.4160   23.0200  -29.0900 C   0  0  0  0  0  0  0  0  0  0  0  0
   -1.1000   22.4150  -30.3180 C   0  0  0  0  0  0  0  0  0  0  0  0
   -1.0380   21.0220  -30.4240 C   0  0  0  0  0  0  0  0  0  0  0  0
   -1.2980   20.2210  -29.3100 C   0  0  0  0  0  0  0  0  0  0  0  0
   -1.6300   20.8120  -28.0860 C   0  0  0  0  0  0  0  0  0  0  0  0
   -1.9660   19.8070  -26.6890 Cl  0  0  0  0  0  0  0  0  0  0  0  0
   -1.6960   22.2050  -27.9770 C   0  0  0  0  0  0  0  0  0  0  0  0
   -4.4660   23.5640  -29.1040 C   0  0  0  0  0  0  0  0  0  0  0  0
   -5.6960   23.0490  -29.5240 C   0  0  0  0  0  0  0  0  0  0  0  0
   -9.0640   21.3140  -31.7110 C   0  0  0  0  0  0  0  0  0  0  0  0
   -9.2540   20.1070  -32.3850 C   0  0  0  0  0  0  0  0  0  0  0  0
   -8.2030   19.4930  -32.9890 N   0  0  0  0  0  0  0  0  0  0  0  0
   -4.3680   17.1692  -34.5893 H   0  0  0  0  0  0  0  0  0  0  0  0
   -5.4651   16.8249  -35.9693 H   0  0  0  0  0  0  0  0  0  0  0  0
   -4.4623   18.3152  -35.9693 H   0  0  0  0  0  0  0  0  0  0  0  0
   -7.0920   18.1470  -34.9590 H   0  0  0  0  0  0  0  0  0  0  0  0
   -5.7062   21.6529  -32.2436 H   0  0  0  0  0  0  0  0  0  0  0  0
   -6.4020   25.2767  -32.0192 H   0  0  0  0  0  0  0  0  0  0  0  0
   -4.2120   26.1994  -31.2686 H   0  0  0  0  0  0  0  0  0  0  0  0
   -0.9003   23.0403  -31.2007 H   0  0  0  0  0  0  0  0  0  0  0  0
   -0.7838   20.5560  -31.3874 H   0  0  0  0  0  0  0  0  0  0  0  0
   -1.2418   19.1257  -29.3948 H   0  0  0  0  0  0  0  0  0  0  0  0
   -1.9682   22.6661  -27.0161 H   0  0  0  0  0  0  0  0  0  0  0  0
   -3.9318   23.0935  -28.2654 H   0  0  0  0  0  0  0  0  0  0  0  0
   -6.1242   22.1735  -29.0140 H   0  0  0  0  0  0  0  0  0  0  0  0
   -9.9111   21.8084  -31.2130 H   0  0  0  0  0  0  0  0  0  0  0  0
  -10.2548   19.6525  -32.4274 H   0  0  0  0  0  0  0  0  0  0  0  0
  1  2  1  0
  2  3  1  0
  3  4  2  0
  3  5  1  0
  5  6  2  0
  6  7  1  0
  7  8  1  0
  8  9  1  0
  9 10  2  0
 10 11  1  0
 11 12  2  0
 12 13  1  0
 13 14  1  0
 14 15  2  0
 14 16  1  0
 16 17  2  0
 17 18  1  0
 18 19  2  0
 19 20  1  0
 20 21  1  0
 20 22  2  0
 12 23  1  0
 23 24  2  0
  7 25  2  0
 25 26  1  0
 26 27  2  0
 27  5  1  0
 24  9  1  0
 22 16  1  0
  1 28  1  0
  1 29  1  0
  1 30  1  0
  2 31  1  0
  6 32  1  0
 10 33  1  0
 11 34  1  0
 17 35  1  0
 18 36  1  0
 19 37  1  0
 22 38  1  0
 23 39  1  0
 24 40  1  0
 25 41  1  0
 26 42  1  0
M  CHG  1  13  -1
M  END
>  <UniqueID>  (31) 
30

>  <SMILES>  (31) 
CNC(=O)c1cc(Oc2ccc([N-]C(=O)c3cccc(Cl)c3)cc2)ccn1

>  <Energy>  (31) 
55.573553236463354

>  <Genealogy>  (31) 
CNC(=O)c1cc(Oc2ccc([N-]C(=O)c3cccc(Cl)c3)cc2)ccn1 (protonated)
CNC(=O)c1cc(Oc2ccc([N-]C(=O)c3cccc(Cl)c3)cc2)ccn1 (3D coordinates assigned)
CNC(=O)c1cc(Oc2ccc([N-]C(=O)c3cccc(Cl)c3)cc2)ccn1 (optimized conformer: 55.573553236463354 kcal/mol)

>  <smiles>  (31) 
CNC(=O)c1cc(Oc2ccc(NC(=O)c3cccc(Cl)c3)cc2)ccn1

>  <score_type>  (31) 
oracle

>  <origin>  (31) 
adgpu

>  <m_score__min__energy>  (31) 
-10.83

>  <m_primary>  (31) 
energy

$$$$
31:0
     RDKit          3D

 41 43  0  0  0  0  0  0  0  0999 V2000
   -1.2430   26.0200  -29.3390 O   0  0  0  0  0  0  0  0  0  0  0  0
   -1.0950   25.0470  -28.5520 C   0  0  0  0  0  0  0  0  0  0  0  0
    0.1830   24.5920  -28.2540 O   0  0  0  0  0  0  0  0  0  0  0  0
   -2.2840   24.4200  -27.8990 C   0  0  0  0  0  0  0  0  0  0  0  0
   -3.0390   23.5830  -28.8940 C   0  0  0  0  0  0  0  0  0  0  0  0
   -2.6960   22.2390  -29.0880 C   0  0  0  0  0  0  0  0  0  0  0  0
   -3.3790   21.4680  -30.0280 C   0  0  0  0  0  0  0  0  0  0  0  0
   -4.4080   22.0260  -30.8010 C   0  0  0  0  0  0  0  0  0  0  0  0
   -5.1460   21.1700  -31.6960 N   0  0  0  0  0  0  0  0  0  0  0  0
   -6.5910   21.1410  -31.6390 C   0  0  0  0  0  0  0  0  0  0  0  0
   -7.2730   21.6820  -30.5330 C   0  0  0  0  0  0  0  0  0  0  0  0
   -8.6690   21.6430  -30.4720 C   0  0  0  0  0  0  0  0  0  0  0  0
   -9.4000   21.0620  -31.5110 C   0  0  0  0  0  0  0  0  0  0  0  0
   -8.7360   20.5180  -32.6120 C   0  0  0  0  0  0  0  0  0  0  0  0
   -7.3400   20.5540  -32.6780 C   0  0  0  0  0  0  0  0  0  0  0  0
   -4.4160   20.2670  -32.5550 C   0  0  0  0  0  0  0  0  0  0  0  0
   -3.3110   20.7280  -33.2940 C   0  0  0  0  0  0  0  0  0  0  0  0
   -2.5960   19.8530  -34.1180 C   0  0  0  0  0  0  0  0  0  0  0  0
   -2.9730   18.5110  -34.2070 C   0  0  0  0  0  0  0  0  0  0  0  0
   -4.0630   18.0390  -33.4710 C   0  0  0  0  0  0  0  0  0  0  0  0
   -4.7810   18.9100  -32.6450 C   0  0  0  0  0  0  0  0  0  0  0  0
   -4.7360   23.3960  -30.6460 C   0  0  0  0  0  0  0  0  0  0  0  0
   -5.7460   24.0650  -31.5010 C   0  0  0  0  0  0  0  0  0  0  0  0
   -5.8100   23.8000  -32.7310 O   0  0  0  0  0  0  0  0  0  0  0  0
   -6.6610   24.9570  -30.9580 O   0  0  0  0  0  0  0  0  0  0  0  0
   -4.0490   24.1570  -29.6810 C   0  0  0  0  0  0  0  0  0  0  0  0
   -1.9485   23.7825  -27.0677 H   0  0  0  0  0  0  0  0  0  0  0  0
   -2.9459   25.2125  -27.5197 H   0  0  0  0  0  0  0  0  0  0  0  0
   -1.8846   21.7898  -28.4965 H   0  0  0  0  0  0  0  0  0  0  0  0
   -3.1079   20.4107  -30.1648 H   0  0  0  0  0  0  0  0  0  0  0  0
   -6.7032   22.1389  -29.7105 H   0  0  0  0  0  0  0  0  0  0  0  0
   -9.1928   22.0706  -29.6043 H   0  0  0  0  0  0  0  0  0  0  0  0
  -10.4985   21.0331  -31.4617 H   0  0  0  0  0  0  0  0  0  0  0  0
   -9.3125   20.0601  -33.4293 H   0  0  0  0  0  0  0  0  0  0  0  0
   -6.8229   20.1211  -33.5470 H   0  0  0  0  0  0  0  0  0  0  0  0
   -3.0077   21.7830  -33.2232 H   0  0  0  0  0  0  0  0  0  0  0  0
   -1.7361   20.2219  -34.6964 H   0  0  0  0  0  0  0  0  0  0  0  0
   -2.4110   17.8247  -34.8575 H   0  0  0  0  0  0  0  0  0  0  0  0
   -4.3567   16.9813  -33.5413 H   0  0  0  0  0  0  0  0  0  0  0  0
   -5.6349   18.5331  -32.0629 H   0  0  0  0  0  0  0  0  0  0  0  0
   -4.3078   25.2170  -29.5420 H   0  0  0  0  0  0  0  0  0  0  0  0
  1  2  2  0
  2  3  1  0
  2  4  1  0
  4  5  1  0
  5  6  2  0
  6  7  1  0
  7  8  2  0
  8  9  1  0
  9 10  1  0
 10 11  2  0
 11 12  1  0
 12 13  2  0
 13 14  1  0
 14 15  2  0
  9 16  1  0
 16 17  2  0
 17 18  1  0
 18 19  2  0
 19 20  1  0
 20 21  2  0
  8 22  1  0
 22 23  1  0
 23 24  2  0
 23 25  1  0
 22 26  2  0
 26  5  1  0
 15 10  1  0
 21 16  1  0
  4 27  1  0
  4 28  1  0
  6 29  1  0
  7 30  1  0
 11 31  1  0
 12 32  1  0
 13 33  1  0
 14 34  1  0
 15 35  1  0
 17 36  1  0
 18 37  1  0
 19 38  1  0
 20 39  1  0
 21 40  1  0
 26 41  1  0
M  CHG  2   3  -1  25  -1
M  END
>  <UniqueID>  (32) 
31

>  <SMILES>  (32) 
O=C([O-])Cc1ccc(N(c2ccccc2)c2ccccc2)c(C(=O)[O-])c1

>  <Energy>  (32) 
58.68629835764772

>  <Genealogy>  (32) 
O=C([O-])Cc1ccc(N(c2ccccc2)c2ccccc2)c(C(=O)[O-])c1 (protonated)
O=C([O-])Cc1ccc(N(c2ccccc2)c2ccccc2)c(C(=O)[O-])c1 (3D coordinates assigned)
O=C([O-])Cc1ccc(N(c2ccccc2)c2ccccc2)c(C(=O)[O-])c1 (optimized conformer: 58.68629835764772 kcal/mol)

>  <smiles>  (32) 
O=C(O)Cc1ccc(N(c2ccccc2)c2ccccc2)c(C(=O)O)c1

>  <score_type>  (32) 
oracle

>  <origin>  (32) 
adgpu

>  <m_score__min__energy>  (32) 
-10.25

>  <m_primary>  (32) 
energy

$$$$
32:0
     RDKit          3D

 44 46  0  0  0  0  0  0  0  0999 V2000
    2.8330   17.7350  -31.7580 N   0  0  0  0  0  0  0  0  0  0  0  0
    1.9130   18.5270  -31.0010 C   0  0  0  0  0  0  0  0  0  0  0  0
    1.6020   19.6740  -31.4240 O   0  0  0  0  0  0  0  0  0  0  0  0
    1.3350   18.0170  -29.7400 C   0  0  0  0  0  0  0  0  0  0  0  0
    0.4420   18.7960  -28.9840 C   0  0  0  0  0  0  0  0  0  0  0  0
   -0.0910   18.2820  -27.7910 C   0  0  0  0  0  0  0  0  0  0  0  0
   -0.9700   19.0260  -26.9900 O   0  0  0  0  0  0  0  0  0  0  0  0
   -1.5410   20.2580  -27.3410 C   0  0  0  0  0  0  0  0  0  0  0  0
   -2.6570   20.3450  -28.1920 C   0  0  0  0  0  0  0  0  0  0  0  0
   -3.2110   21.5900  -28.5040 C   0  0  0  0  0  0  0  0  0  0  0  0
   -2.6710   22.7640  -27.9510 C   0  0  0  0  0  0  0  0  0  0  0  0
   -3.1940   24.0620  -28.2680 N   0  0  0  0  0  0  0  0  0  0  0  0
   -2.7440   24.9130  -29.3280 C   0  0  0  0  0  0  0  0  0  0  0  0
   -1.6160   25.4640  -29.2280 O   0  0  0  0  0  0  0  0  0  0  0  0
   -3.6090   25.2190  -30.4290 N   0  0  0  0  0  0  0  0  0  0  0  0
   -4.7640   24.4760  -30.8440 C   0  0  0  0  0  0  0  0  0  0  0  0
   -4.6600   23.2710  -31.5610 C   0  0  0  0  0  0  0  0  0  0  0  0
   -5.8110   22.5650  -31.9240 C   0  0  0  0  0  0  0  0  0  0  0  0
   -7.0800   23.0370  -31.5670 C   0  0  0  0  0  0  0  0  0  0  0  0
   -8.2010   22.2890  -31.9620 O   0  0  0  0  0  0  0  0  0  0  0  0
   -8.7150   21.1510  -31.2740 C   0  0  0  0  0  0  0  0  0  0  0  0
   -9.3780   21.5750  -30.1380 F   0  0  0  0  0  0  0  0  0  0  0  0
   -9.6080   20.4690  -32.0830 F   0  0  0  0  0  0  0  0  0  0  0  0
   -7.6810   20.3110  -30.9000 F   0  0  0  0  0  0  0  0  0  0  0  0
   -7.1820   24.2310  -30.8290 C   0  0  0  0  0  0  0  0  0  0  0  0
   -6.0310   24.9360  -30.4660 C   0  0  0  0  0  0  0  0  0  0  0  0
   -1.5550   22.6740  -27.1110 C   0  0  0  0  0  0  0  0  0  0  0  0
   -1.0050   21.4280  -26.7950 C   0  0  0  0  0  0  0  0  0  0  0  0
    0.3000   17.0120  -27.3600 C   0  0  0  0  0  0  0  0  0  0  0  0
    1.1860   16.2640  -28.1350 C   0  0  0  0  0  0  0  0  0  0  0  0
    1.6770   16.7760  -29.2940 N   0  0  0  0  0  0  0  0  0  0  0  0
    3.1110   16.7780  -31.4470 H   0  0  0  0  0  0  0  0  0  0  0  0
    3.2470   18.1140  -32.6390 H   0  0  0  0  0  0  0  0  0  0  0  0
    0.1621   19.8035  -29.3254 H   0  0  0  0  0  0  0  0  0  0  0  0
   -3.0962   19.4291  -28.6142 H   0  0  0  0  0  0  0  0  0  0  0  0
   -4.0728   21.6511  -29.1849 H   0  0  0  0  0  0  0  0  0  0  0  0
   -3.6689   22.8820  -31.8375 H   0  0  0  0  0  0  0  0  0  0  0  0
   -5.7187   21.6297  -32.4956 H   0  0  0  0  0  0  0  0  0  0  0  0
   -8.1720   24.6111  -30.5366 H   0  0  0  0  0  0  0  0  0  0  0  0
   -6.1216   25.8611  -29.8777 H   0  0  0  0  0  0  0  0  0  0  0  0
   -1.1077   23.5896  -26.6967 H   0  0  0  0  0  0  0  0  0  0  0  0
   -0.1447   21.3679  -26.1121 H   0  0  0  0  0  0  0  0  0  0  0  0
   -0.0886   16.6044  -26.4151 H   0  0  0  0  0  0  0  0  0  0  0  0
    1.4878   15.2582  -27.8076 H   0  0  0  0  0  0  0  0  0  0  0  0
  1  2  1  0
  2  3  2  0
  2  4  1  0
  4  5  2  0
  5  6  1  0
  6  7  1  0
  7  8  1  0
  8  9  2  0
  9 10  1  0
 10 11  2  0
 11 12  1  0
 12 13  1  0
 13 14  2  0
 13 15  1  0
 15 16  1  0
 16 17  2  0
 17 18  1  0
 18 19  2  0
 19 20  1  0
 20 21  1  0
 21 22  1  0
 21 23  1  0
 21 24  1  0
 19 25  1  0
 25 26  2  0
 11 27  1  0
 27 28  2  0
  6 29  2  0
 29 30  1  0
 30 31  2  0
 31  4  1  0
 28  8  1  0
 26 16  1  0
  1 32  1  0
  1 33  1  0
  5 34  1  0
  9 35  1  0
 10 36  1  0
 17 37  1  0
 18 38  1  0
 25 39  1  0
 26 40  1  0
 27 41  1  0
 28 42  1  0
 29 43  1  0
 30 44  1  0
M  CHG  2  12  -1  15  -1
M  END
>  <UniqueID>  (33) 
32

>  <SMILES>  (33) 
NC(=O)c1cc(Oc2ccc([N-]C(=O)[N-]c3ccc(OC(F)(F)F)cc3)cc2)ccn1

>  <Energy>  (33) 
59.71326745152858

>  <Genealogy>  (33) 
NC(=O)c1cc(Oc2ccc([N-]C(=O)[N-]c3ccc(OC(F)(F)F)cc3)cc2)ccn1 (protonated)
NC(=O)c1cc(Oc2ccc([N-]C(=O)[N-]c3ccc(OC(F)(F)F)cc3)cc2)ccn1 (3D coordinates assigned)
NC(=O)c1cc(Oc2ccc([N-]C(=O)[N-]c3ccc(OC(F)(F)F)cc3)cc2)ccn1 (optimized conformer: 59.71326745152858 kcal/mol)

>  <smiles>  (33) 
NC(=O)c1cc(Oc2ccc(NC(=O)Nc3ccc(OC(F)(F)F)cc3)cc2)ccn1

>  <score_type>  (33) 
oracle

>  <origin>  (33) 
adgpu

>  <m_score__min__energy>  (33) 
-10.859999999999999

>  <m_primary>  (33) 
energy

$$$$
33:0
     RDKit          3D

 38 39  0  0  0  0  0  0  0  0999 V2000
   -2.8570   21.0510  -32.5470 C   0  0  0  0  0  0  0  0  0  0  0  0
   -3.3160   21.8190  -31.4400 O   0  0  0  0  0  0  0  0  0  0  0  0
   -4.5780   22.4280  -31.3490 C   0  0  0  0  0  0  0  0  0  0  0  0
   -5.7420   21.7320  -31.7280 C   0  0  0  0  0  0  0  0  0  0  0  0
   -6.9960   22.3350  -31.6300 C   0  0  0  0  0  0  0  0  0  0  0  0
   -8.4680   21.4240  -32.1010 S   0  0  0  0  0  0  0  0  0  0  0  0
   -7.5270   19.9750  -32.5810 C   0  0  0  0  0  0  0  0  0  0  0  0
   -6.8640   19.9450  -33.8130 C   0  0  0  0  0  0  0  0  0  0  0  0
   -6.1400   18.8110  -34.1930 C   0  0  0  0  0  0  0  0  0  0  0  0
   -6.0600   17.7030  -33.3330 C   0  0  0  0  0  0  0  0  0  0  0  0
   -5.3180   16.4710  -33.7580 C   0  0  0  0  0  0  0  0  0  0  0  0
   -6.7380   17.7320  -32.1050 C   0  0  0  0  0  0  0  0  0  0  0  0
   -7.4620   18.8680  -31.7270 C   0  0  0  0  0  0  0  0  0  0  0  0
   -7.1070   23.6430  -31.1630 C   0  0  0  0  0  0  0  0  0  0  0  0
   -5.9620   24.3610  -30.7800 C   0  0  0  0  0  0  0  0  0  0  0  0
   -6.0400   25.6780  -30.2980 O   0  0  0  0  0  0  0  0  0  0  0  0
   -6.4910   26.0370  -28.9970 C   0  0  0  0  0  0  0  0  0  0  0  0
   -4.6930   23.7600  -30.8690 C   0  0  0  0  0  0  0  0  0  0  0  0
   -3.5940   24.5420  -30.4660 O   0  0  0  0  0  0  0  0  0  0  0  0
   -2.6950   24.2580  -29.4010 C   0  0  0  0  0  0  0  0  0  0  0  0
   -2.3250   20.1608  -32.1803 H   0  0  0  0  0  0  0  0  0  0  0  0
   -3.7166   20.7386  -33.1581 H   0  0  0  0  0  0  0  0  0  0  0  0
   -2.1747   21.6601  -33.1581 H   0  0  0  0  0  0  0  0  0  0  0  0
   -5.6615   20.7019  -32.1053 H   0  0  0  0  0  0  0  0  0  0  0  0
   -6.9126   20.8154  -34.4838 H   0  0  0  0  0  0  0  0  0  0  0  0
   -5.6315   18.7862  -35.1681 H   0  0  0  0  0  0  0  0  0  0  0  0
   -4.9849   15.9180  -32.8673 H   0  0  0  0  0  0  0  0  0  0  0  0
   -5.9818   15.8323  -34.3592 H   0  0  0  0  0  0  0  0  0  0  0  0
   -4.4430   16.7590  -34.3592 H   0  0  0  0  0  0  0  0  0  0  0  0
   -6.7002   16.8587  -31.4372 H   0  0  0  0  0  0  0  0  0  0  0  0
   -7.9808   18.8912  -30.7573 H   0  0  0  0  0  0  0  0  0  0  0  0
   -8.0975   24.1164  -31.0938 H   0  0  0  0  0  0  0  0  0  0  0  0
   -5.8654   25.5390  -28.2417 H   0  0  0  0  0  0  0  0  0  0  0  0
   -6.4188   27.1275  -28.8718 H   0  0  0  0  0  0  0  0  0  0  0  0
   -7.5375   25.7221  -28.8718 H   0  0  0  0  0  0  0  0  0  0  0  0
   -3.2037   24.4187  -28.4390 H   0  0  0  0  0  0  0  0  0  0  0  0
   -2.3636   23.2114  -29.4702 H   0  0  0  0  0  0  0  0  0  0  0  0
   -1.8225   24.9243  -29.4702 H   0  0  0  0  0  0  0  0  0  0  0  0
  1  2  1  0
  2  3  1  0
  3  4  2  0
  4  5  1  0
  5  6  1  0
  6  7  1  0
  7  8  2  0
  8  9  1  0
  9 10  2  0
 10 11  1  0
 10 12  1  0
 12 13  2  0
  5 14  2  0
 14 15  1  0
 15 16  1  0
 16 17  1  0
 15 18  2  0
 18 19  1  0
 19 20  1  0
 18  3  1  0
 13  7  1  0
  1 21  1  0
  1 22  1  0
  1 23  1  0
  4 24  1  0
  8 25  1  0
  9 26  1  0
 11 27  1  0
 11 28  1  0
 11 29  1  0
 12 30  1  0
 13 31  1  0
 14 32  1  0
 17 33  1  0
 17 34  1  0
 17 35  1  0
 20 36  1  0
 20 37  1  0
 20 38  1  0
M  END
>  <UniqueID>  (34) 
33

>  <SMILES>  (34) 
COc1cc(Sc2ccc(C)cc2)cc(OC)c1OC

>  <Energy>  (34) 
33.69875940103724

>  <Genealogy>  (34) 
COc1cc(Sc2ccc(C)cc2)cc(OC)c1OC (3D coordinates assigned)
COc1cc(Sc2ccc(C)cc2)cc(OC)c1OC (optimized conformer: 33.69875940103724 kcal/mol)

>  <smiles>  (34) 
COc1cc(Sc2ccc(C)cc2)cc(OC)c1OC

>  <score_type>  (34) 
oracle

>  <origin>  (34) 
adgpu

>  <m_score__min__energy>  (34) 
-7.0499999999999998

>  <m_primary>  (34) 
energy

$$$$
34:0
     RDKit          3D

 47 49  0  0  1  0  0  0  0  0999 V2000
   -0.0500   24.9930  -24.4650 C   0  0  0  0  0  0  0  0  0  0  0  0
   -0.6830   25.9470  -25.3180 O   0  0  0  0  0  0  0  0  0  0  0  0
   -1.5460   25.4860  -26.3020 C   0  0  0  0  0  0  0  0  0  0  0  0
   -2.8710   25.1890  -26.0760 C   0  0  0  0  0  0  0  0  0  0  0  0
   -3.6810   24.7300  -27.1060 C   0  0  0  0  0  0  0  0  0  0  0  0
   -3.2090   24.5510  -28.3880 C   0  0  0  0  0  0  0  0  0  0  0  0
   -4.0380   24.0700  -29.4910 C   0  0  0  0  0  0  0  0  0  0  0  0
   -3.5670   24.2080  -30.6450 O   0  0  0  0  0  0  0  0  0  0  0  0
   -5.3030   23.4800  -29.3110 N   0  0  0  0  0  0  0  0  0  0  0  0
   -6.1700   22.9900  -30.3000 C   0  0  0  0  0  0  0  0  0  0  0  0
   -7.2130   23.8130  -30.7310 C   0  0  0  0  0  0  0  0  0  0  0  0
   -8.1140   23.4270  -31.6940 C   0  0  0  0  0  0  0  0  0  0  0  0
   -8.0160   22.1800  -32.2820 C   0  0  0  0  0  0  0  0  0  0  0  0
   -7.0050   21.3680  -31.8710 C   0  0  0  0  0  0  0  0  0  0  0  0
   -6.8530   20.0320  -32.4600 C   0  0  0  0  0  0  0  0  0  0  0  0
   -7.7130   18.9430  -32.4060 C   0  0  0  0  0  0  0  0  0  0  0  0
   -7.3270   17.8350  -33.0360 C   0  0  0  0  0  0  0  0  0  0  0  0
   -6.1200   17.8370  -33.6900 C   0  0  0  0  0  0  0  0  0  0  0  0
   -5.4700   16.7830  -34.4420 C   0  0  0  0  0  0  0  0  0  0  0  0
   -4.1550   16.8070  -34.5840 C   0  0  0  0  0  0  0  0  0  0  0  0
   -3.4760   15.7580  -35.3360 C   0  0  0  0  0  0  0  0  0  0  0  0
   -2.3240   16.0210  -36.0730 O   0  0  0  0  0  0  0  0  0  0  0  0
   -3.9580   14.5440  -35.3190 N   0  0  0  0  0  0  0  0  0  0  0  0
   -3.3410   13.5330  -36.0170 O   0  0  0  0  0  0  0  0  0  0  0  0
   -5.4520   19.4650  -33.4350 S   0  0  0  0  0  0  0  0  0  0  0  0
   -6.0990   21.7590  -30.9020 C   0  0  0  0  0  0  0  0  0  0  0  0
   -1.8630   24.8600  -28.5840 C   0  0  0  0  0  0  0  0  0  0  0  0
   -1.0500   25.3140  -27.5760 C   0  0  0  0  0  0  0  0  0  0  0  0
    0.2870   25.6050  -27.8360 O   0  0  0  0  0  0  0  0  0  0  0  0
   -0.2300   25.2643  -23.4143 H   0  0  0  0  0  0  0  0  0  0  0  0
   -0.4645   23.9933  -24.6618 H   0  0  0  0  0  0  0  0  0  0  0  0
    1.0322   24.9864  -24.6618 H   0  0  0  0  0  0  0  0  0  0  0  0
   -3.2928   25.3167  -25.0681 H   0  0  0  0  0  0  0  0  0  0  0  0
   -4.7354   24.5015  -26.8912 H   0  0  0  0  0  0  0  0  0  0  0  0
   -5.6320   23.4000  -28.3040 H   0  0  0  0  0  0  0  0  0  0  0  0
   -7.3174   24.8113  -30.2810 H   0  0  0  0  0  0  0  0  0  0  0  0
   -8.9174   24.1139  -31.9985 H   0  0  0  0  0  0  0  0  0  0  0  0
   -8.7294   21.8561  -33.0541 H   0  0  0  0  0  0  0  0  0  0  0  0
   -8.6705   18.9933  -31.8668 H   0  0  0  0  0  0  0  0  0  0  0  0
   -7.9621   16.9369  -33.0324 H   0  0  0  0  0  0  0  0  0  0  0  0
   -6.0632   15.9720  -34.8898 H   0  0  0  0  0  0  0  0  0  0  0  0
   -3.5707   17.6223  -34.1326 H   0  0  0  0  0  0  0  0  0  0  0  0
   -1.9160   15.3390  -36.7060 H   0  0  0  0  0  0  0  0  0  0  0  0
   -2.4910   13.7810  -36.5150 H   0  0  0  0  0  0  0  0  0  0  0  0
   -5.2995   21.0640  -30.6057 H   0  0  0  0  0  0  0  0  0  0  0  0
   -1.4349   24.7344  -29.5895 H   0  0  0  0  0  0  0  0  0  0  0  0
    0.8800   25.9600  -27.1010 H   0  0  0  0  0  0  0  0  0  0  0  0
  1  2  1  0
  2  3  1  0
  3  4  2  0
  4  5  1  0
  5  6  2  0
  6  7  1  0
  7  8  2  0
  7  9  1  0
  9 10  1  0
 10 11  2  0
 11 12  1  0
 12 13  2  0
 13 14  1  0
 14 15  1  0
 15 16  2  0
 16 17  1  0
 17 18  2  0
 18 19  1  0
 19 20  2  0
 20 21  1  0
 21 22  1  0
 21 23  2  0
 23 24  1  0
 18 25  1  0
 14 26  2  0
  6 27  1  0
 27 28  2  0
 28 29  1  0
 28  3  1  0
 26 10  1  0
 25 15  1  0
  1 30  1  0
  1 31  1  0
  1 32  1  0
  4 33  1  0
  5 34  1  0
  9 35  1  0
 11 36  1  0
 12 37  1  0
 13 38  1  0
 16 39  1  0
 17 40  1  0
 19 41  1  0
 20 42  1  0
 22 43  1  0
 24 44  1  0
 26 45  1  0
 27 46  1  0
 29 47  1  0
M  END
>  <smiles>  (35) 
COc1ccc(C(=O)Nc2cccc(-c3ccc(C=CC(O)=NO)s3)c2)cc1O

>  <score_type>  (35) 
oracle

>  <origin>  (35) 
adgpu

>  <m_score__min__energy>  (35) 
-9.1899999999999995

>  <m_primary>  (35) 
energy

$$$$
35:0
     RDKit          3D

 48 50  0  0  0  0  0  0  0  0999 V2000
    2.9180   24.7830  -23.7760 C   0  0  0  0  0  0  0  0  0  0  0  0
    2.2810   25.2050  -24.9770 O   0  0  0  0  0  0  0  0  0  0  0  0
    1.1200   25.9940  -25.0330 C   0  0  0  0  0  0  0  0  0  0  0  0
    1.1830   27.3780  -25.2860 C   0  0  0  0  0  0  0  0  0  0  0  0
    0.0170   28.1440  -25.3300 C   0  0  0  0  0  0  0  0  0  0  0  0
   -1.2220   27.5400  -25.1220 C   0  0  0  0  0  0  0  0  0  0  0  0
   -1.3020   26.1680  -24.8770 C   0  0  0  0  0  0  0  0  0  0  0  0
   -0.1350   25.3800  -24.8250 C   0  0  0  0  0  0  0  0  0  0  0  0
   -0.2030   23.9610  -24.5730 N   0  0  0  0  0  0  0  0  0  0  0  0
   -0.4390   22.7610  -25.8050 S   0  0  0  0  0  0  0  0  0  0  0  0
    0.8990   22.2950  -26.3060 O   0  0  0  0  0  0  0  0  0  0  0  0
   -1.1670   21.5800  -25.2210 O   0  0  0  0  0  0  0  0  0  0  0  0
   -1.3390   23.4580  -27.1490 C   0  0  0  0  0  0  0  0  0  0  0  0
   -2.6140   22.9840  -27.4820 C   0  0  0  0  0  0  0  0  0  0  0  0
   -3.3150   23.5490  -28.5520 C   0  0  0  0  0  0  0  0  0  0  0  0
   -2.7420   24.5760  -29.3130 C   0  0  0  0  0  0  0  0  0  0  0  0
   -3.5000   25.1380  -30.3960 N   0  0  0  0  0  0  0  0  0  0  0  0
   -4.9190   25.0340  -30.5790 C   0  0  0  0  0  0  0  0  0  0  0  0
   -5.6600   26.0260  -30.3360 O   0  0  0  0  0  0  0  0  0  0  0  0
   -5.5070   23.7830  -31.1120 C   0  0  0  0  0  0  0  0  0  0  0  0
   -6.8900   23.5410  -31.0050 C   0  0  0  0  0  0  0  0  0  0  0  0
   -7.4420   22.3580  -31.5010 C   0  0  0  0  0  0  0  0  0  0  0  0
   -6.6230   21.3950  -32.1060 C   0  0  0  0  0  0  0  0  0  0  0  0
   -7.2990   19.8890  -32.7190 S   0  0  0  0  0  0  0  0  0  0  0  0
   -6.4150   19.3960  -34.1230 N   0  0  0  0  0  0  0  0  0  0  0  0
   -8.7450   20.0730  -33.0880 O   0  0  0  0  0  0  0  0  0  0  0  0
   -7.1950   18.8310  -31.6570 O   0  0  0  0  0  0  0  0  0  0  0  0
   -5.2480   21.6300  -32.2180 C   0  0  0  0  0  0  0  0  0  0  0  0
   -4.6930   22.8140  -31.7250 C   0  0  0  0  0  0  0  0  0  0  0  0
   -1.4710   25.0640  -28.9640 C   0  0  0  0  0  0  0  0  0  0  0  0
   -0.7740   24.5030  -27.8900 C   0  0  0  0  0  0  0  0  0  0  0  0
    2.3526   25.1576  -22.9099 H   0  0  0  0  0  0  0  0  0  0  0  0
    2.9508   23.6839  -23.7450 H   0  0  0  0  0  0  0  0  0  0  0  0
    3.9428   25.1814  -23.7450 H   0  0  0  0  0  0  0  0  0  0  0  0
    2.1585   27.8590  -25.4502 H   0  0  0  0  0  0  0  0  0  0  0  0
    0.0758   29.2243  -25.5288 H   0  0  0  0  0  0  0  0  0  0  0  0
   -2.1394   28.1463  -25.1510 H   0  0  0  0  0  0  0  0  0  0  0  0
   -2.2846   25.6980  -24.7232 H   0  0  0  0  0  0  0  0  0  0  0  0
   -0.1480   23.6080  -23.5920 H   0  0  0  0  0  0  0  0  0  0  0  0
   -3.0648   22.1660  -26.9010 H   0  0  0  0  0  0  0  0  0  0  0  0
   -4.3233   23.1844  -28.7978 H   0  0  0  0  0  0  0  0  0  0  0  0
   -7.5401   24.2889  -30.5274 H   0  0  0  0  0  0  0  0  0  0  0  0
   -8.5244   22.1812  -31.4165 H   0  0  0  0  0  0  0  0  0  0  0  0
   -6.9950   19.6580  -34.9540 H   0  0  0  0  0  0  0  0  0  0  0  0
   -4.6013   20.8795  -32.6961 H   0  0  0  0  0  0  0  0  0  0  0  0
   -3.6110   22.9893  -31.8172 H   0  0  0  0  0  0  0  0  0  0  0  0
   -1.0237   25.8893  -29.5374 H   0  0  0  0  0  0  0  0  0  0  0  0
    0.2233   24.8844  -27.6257 H   0  0  0  0  0  0  0  0  0  0  0  0
  1  2  1  0
  2  3  1  0
  3  4  2  0
  4  5  1  0
  5  6  2  0
  6  7  1  0
  7  8  2  0
  8  9  1  0
  9 10  1  0
 10 11  2  0
 10 12  2  0
 10 13  1  0
 13 14  2  0
 14 15  1  0
 15 16  2  0
 16 17  1  0
 17 18  1  0
 18 19  2  0
 18 20  1  0
 20 21  2  0
 21 22  1  0
 22 23  2  0
 23 24  1  0
 24 25  1  0
 24 26  2  0
 24 27  2  0
 23 28  1  0
 28 29  2  0
 16 30  1  0
 30 31  2  0
  8  3  1  0
 31 13  1  0
 29 20  1  0
  1 32  1  0
  1 33  1  0
  1 34  1  0
  4 35  1  0
  5 36  1  0
  6 37  1  0
  7 38  1  0
  9 39  1  0
 14 40  1  0
 15 41  1  0
 21 42  1  0
 22 43  1  0
 25 44  1  0
 28 45  1  0
 29 46  1  0
 30 47  1  0
 31 48  1  0
M  CHG  2  17  -1  25  -1
M  END
>  <UniqueID>  (36) 
34

>  <SMILES>  (36) 
COc1ccccc1NS(=O)(=O)c1ccc([N-]C(=O)c2ccc(S([NH-])(=O)=O)cc2)cc1

>  <Energy>  (36) 
58.42330473109032

>  <Genealogy>  (36) 
COc1ccccc1NS(=O)(=O)c1ccc([N-]C(=O)c2ccc(S([NH-])(=O)=O)cc2)cc1 (protonated)
COc1ccccc1NS(=O)(=O)c1ccc([N-]C(=O)c2ccc(S([NH-])(=O)=O)cc2)cc1 (3D coordinates assigned)
COc1ccccc1NS(=O)(=O)c1ccc([N-]C(=O)c2ccc(S([NH-])(=O)=O)cc2)cc1 (optimized conformer: 58.42330473109032 kcal/mol)

>  <smiles>  (36) 
COc1ccccc1NS(=O)(=O)c1ccc(NC(=O)c2ccc(S(N)(=O)=O)cc2)cc1

>  <score_type>  (36) 
oracle

>  <origin>  (36) 
adgpu

>  <m_score__min__energy>  (36) 
-11.42

>  <m_primary>  (36) 
energy

$$$$
36:0
     RDKit          3D

 32 34  0  0  0  0  0  0  0  0999 V2000
   -8.1320   22.0890  -31.2420 C   0  0  0  0  0  0  0  0  0  0  0  0
   -6.8670   22.1150  -31.8960 O   0  0  0  0  0  0  0  0  0  0  0  0
   -5.6770   22.5590  -31.3000 C   0  0  0  0  0  0  0  0  0  0  0  0
   -4.7890   21.6020  -30.7980 C   0  0  0  0  0  0  0  0  0  0  0  0
   -3.5900   21.9920  -30.1960 C   0  0  0  0  0  0  0  0  0  0  0  0
   -3.2620   23.3520  -30.0770 C   0  0  0  0  0  0  0  0  0  0  0  0
   -1.9830   23.7510  -29.4490 C   0  0  0  0  0  0  0  0  0  0  0  0
   -1.7120   24.9660  -28.8550 C   0  0  0  0  0  0  0  0  0  0  0  0
   -0.4090   25.0180  -28.5230 N   0  0  0  0  0  0  0  0  0  0  0  0
    0.1650   23.8790  -28.8790 N   0  0  0  0  0  0  0  0  0  0  0  0
   -0.7650   23.0840  -29.4440 C   0  0  0  0  0  0  0  0  0  0  0  0
   -0.4730   21.7130  -29.9160 C   0  0  0  0  0  0  0  0  0  0  0  0
   -0.4470   21.4060  -31.2890 C   0  0  0  0  0  0  0  0  0  0  0  0
   -0.1800   20.1020  -31.7160 C   0  0  0  0  0  0  0  0  0  0  0  0
    0.0480   19.0900  -30.7790 C   0  0  0  0  0  0  0  0  0  0  0  0
    0.3050   17.8260  -31.1950 F   0  0  0  0  0  0  0  0  0  0  0  0
    0.0030   19.3810  -29.4130 C   0  0  0  0  0  0  0  0  0  0  0  0
   -0.2620   20.6840  -28.9820 C   0  0  0  0  0  0  0  0  0  0  0  0
   -4.1500   24.3180  -30.5860 C   0  0  0  0  0  0  0  0  0  0  0  0
   -3.8620   25.6740  -30.4770 O   0  0  0  0  0  0  0  0  0  0  0  0
   -5.3490   23.9230  -31.1920 C   0  0  0  0  0  0  0  0  0  0  0  0
   -7.9815   22.0921  -30.1523 H   0  0  0  0  0  0  0  0  0  0  0  0
   -8.7142   22.9754  -31.5343 H   0  0  0  0  0  0  0  0  0  0  0  0
   -8.6773   21.1795  -31.5343 H   0  0  0  0  0  0  0  0  0  0  0  0
   -5.0367   20.5332  -30.8778 H   0  0  0  0  0  0  0  0  0  0  0  0
   -2.8979   21.2279  -29.8124 H   0  0  0  0  0  0  0  0  0  0  0  0
   -2.4457   25.7667  -28.6802 H   0  0  0  0  0  0  0  0  0  0  0  0
   -0.6378   22.1962  -32.0301 H   0  0  0  0  0  0  0  0  0  0  0  0
   -0.1493   19.8718  -32.7912 H   0  0  0  0  0  0  0  0  0  0  0  0
    0.1764   18.5833  -28.6757 H   0  0  0  0  0  0  0  0  0  0  0  0
   -0.3057   20.9055  -27.9054 H   0  0  0  0  0  0  0  0  0  0  0  0
   -6.0388   24.6839  -31.5861 H   0  0  0  0  0  0  0  0  0  0  0  0
  1  2  1  0
  2  3  1  0
  3  4  2  0
  4  5  1  0
  5  6  2  0
  6  7  1  0
  7  8  2  0
  8  9  1  0
  9 10  1  0
 10 11  2  0
 11 12  1  0
 12 13  2  0
 13 14  1  0
 14 15  2  0
 15 16  1  0
 15 17  1  0
 17 18  2  0
  6 19  1  0
 19 20  1  0
 19 21  2  0
 21  3  1  0
 11  7  1  0
 18 12  1  0
  1 22  1  0
  1 23  1  0
  1 24  1  0
  4 25  1  0
  5 26  1  0
  8 27  1  0
 13 28  1  0
 14 29  1  0
 17 30  1  0
 18 31  1  0
 21 32  1  0
M  CHG  2   9  -1  20  -1
M  END
>  <UniqueID>  (37) 
35

>  <SMILES>  (37) 
COc1ccc(-c2c[n-]nc2-c2ccc(F)cc2)c([O-])c1

>  <Energy>  (37) 
72.87255663437054

>  <Genealogy>  (37) 
COc1ccc(-c2c[n-]nc2-c2ccc(F)cc2)c([O-])c1 (protonated)
COc1ccc(-c2c[n-]nc2-c2ccc(F)cc2)c([O-])c1 (3D coordinates assigned)
COc1ccc(-c2c[n-]nc2-c2ccc(F)cc2)c([O-])c1 (optimized conformer: 72.87255663437054 kcal/mol)

>  <smiles>  (37) 
COc1ccc(-c2c[nH]nc2-c2ccc(F)cc2)c(O)c1

>  <score_type>  (37) 
oracle

>  <origin>  (37) 
adgpu

>  <m_score__min__energy>  (37) 
-10.199999999999999

>  <m_primary>  (37) 
energy

$$$$
37:0
     RDKit          3D

 42 44  0  0  0  0  0  0  0  0999 V2000
    0.5473   22.1414  -28.6194 H   0  0  0  0  0  0  0  0  0  0  0  0
   -0.1710   22.9540  -28.8030 C   0  0  0  0  0  0  0  0  0  0  0  0
    0.0850   24.2650  -28.5960 N   0  0  0  0  0  0  0  0  0  0  0  0
   -0.9400   25.0640  -28.8900 N   0  0  0  0  0  0  0  0  0  0  0  0
   -2.0230   24.3970  -29.3370 C   0  0  0  0  0  0  0  0  0  0  0  0
   -3.1230   25.0110  -29.6710 N   0  0  0  0  0  0  0  0  0  0  0  0
   -4.3750   24.4290  -30.1730 C   0  0  0  0  0  0  0  0  0  0  0  0
   -4.1432   23.9527  -31.1370 H   0  0  0  0  0  0  0  0  0  0  0  0
   -5.4440   25.5060  -30.4760 C   0  0  0  0  0  0  0  0  0  0  0  0
   -5.4197   25.7364  -31.5513 H   0  0  0  0  0  0  0  0  0  0  0  0
   -5.2095   26.3940  -29.8706 H   0  0  0  0  0  0  0  0  0  0  0  0
   -6.8620   25.0400  -30.1010 C   0  0  0  0  0  0  0  0  0  0  0  0
   -7.5932   25.6788  -30.6180 H   0  0  0  0  0  0  0  0  0  0  0  0
   -6.9651   25.1171  -29.0086 H   0  0  0  0  0  0  0  0  0  0  0  0
   -7.1060   23.6320  -30.4820 N   0  0  0  0  0  0  0  0  0  0  0  0
   -7.1900   23.4620  -31.9480 C   0  0  0  0  0  0  0  0  0  0  0  0
   -6.4100   24.0702  -32.4294 H   0  0  0  0  0  0  0  0  0  0  0  0
   -8.1840   23.7859  -32.2902 H   0  0  0  0  0  0  0  0  0  0  0  0
   -6.9910   22.0150  -32.3170 C   0  0  0  0  0  0  0  0  0  0  0  0
   -5.7140   21.5510  -32.6670 C   0  0  0  0  0  0  0  0  0  0  0  0
   -4.8598   22.2440  -32.6612 H   0  0  0  0  0  0  0  0  0  0  0  0
   -5.5210   20.2130  -33.0230 C   0  0  0  0  0  0  0  0  0  0  0  0
   -4.5156   19.8563  -33.2913 H   0  0  0  0  0  0  0  0  0  0  0  0
   -6.6050   19.3250  -33.0390 C   0  0  0  0  0  0  0  0  0  0  0  0
   -6.3610   17.6370  -33.4710 S   0  0  0  0  0  0  0  0  0  0  0  0
   -6.1750   17.5130  -34.9580 O   0  0  0  0  0  0  0  0  0  0  0  0
   -7.5610   16.8280  -33.0670 O   0  0  0  0  0  0  0  0  0  0  0  0
   -4.9170   17.0170  -32.6370 C   0  0  0  0  0  0  0  0  0  0  0  0
   -5.0661   17.0810  -31.5490 H   0  0  0  0  0  0  0  0  0  0  0  0
   -4.7504   15.9680  -32.9232 H   0  0  0  0  0  0  0  0  0  0  0  0
   -4.0417   17.6186  -32.9232 H   0  0  0  0  0  0  0  0  0  0  0  0
   -7.8810   19.7850  -32.6840 C   0  0  0  0  0  0  0  0  0  0  0  0
   -8.7339   19.0903  -32.6865 H   0  0  0  0  0  0  0  0  0  0  0  0
   -8.0740   21.1220  -32.3270 C   0  0  0  0  0  0  0  0  0  0  0  0
   -9.0786   21.4762  -32.0527 H   0  0  0  0  0  0  0  0  0  0  0  0
   -6.1660   22.6690  -29.8430 C   0  0  0  0  0  0  0  0  0  0  0  0
   -5.8550   21.9361  -30.6021 H   0  0  0  0  0  0  0  0  0  0  0  0
   -6.7079   22.2107  -29.0026 H   0  0  0  0  0  0  0  0  0  0  0  0
   -4.8990   23.3170  -29.2500 C   0  0  0  0  0  0  0  0  0  0  0  0
   -4.1210   22.5482  -29.1331 H   0  0  0  0  0  0  0  0  0  0  0  0
   -5.1504   23.7568  -28.2736 H   0  0  0  0  0  0  0  0  0  0  0  0
   -1.7380   22.7320  -29.3800 S   0  0  0  0  0  0  0  0  0  0  0  0
  1  2  1  0
  2  3  2  0
  3  4  1  0
  4  5  1  0
  5  6  2  0
  6  7  1  0
  7  8  1  0
  7  9  1  0
  9 10  1  0
  9 11  1  0
  9 12  1  0
 12 13  1  0
 12 14  1  0
 12 15  1  0
 15 16  1  0
 16 17  1  0
 16 18  1  0
 16 19  1  0
 19 20  2  0
 20 21  1  0
 20 22  1  0
 22 23  1  0
 22 24  2  0
 24 25  1  0
 25 26  2  0
 25 27  2  0
 25 28  1  0
 28 29  1  0
 28 30  1  0
 28 31  1  0
 24 32  1  0
 32 33  1  0
 32 34  2  0
 34 35  1  0
 15 36  1  0
 36 37  1  0
 36 38  1  0
 36 39  1  0
 39 40  1  0
 39 41  1  0
  5 42  1  0
 42  2  1  0
 39  7  1  0
 34 19  1  0
M  CHG  1   4  -1
M  END
>  <UniqueID>  (38) 
36

>  <SMILES>  (38) 
CS(=O)(=O)c1ccc(CN2CCC(/N=c3/[n-]ncs3)CC2)cc1

>  <Energy>  (38) 
86.42114079444465

>  <Genealogy>  (38) 
CS(=O)(=O)c1ccc(CN2CCC(N=c3[n-]ncs3)CC2)cc1 (protonated)
CS(=O)(=O)c1ccc(CN2CCC(/N=c3/[n-]ncs3)CC2)cc1 (cis-trans isomerization)
CS(=O)(=O)c1ccc(CN2CCC(/N=c3/[n-]ncs3)CC2)cc1 (3D coordinates assigned)
CS(=O)(=O)c1ccc(CN2CCC(/N=c3/[n-]ncs3)CC2)cc1 (nonaromatic ring conformer: 86.42114079444465 kcal/mol)

>  <smiles>  (38) 
CS(=O)(=O)c1ccc(CN2CCC(N=c3[nH]ncs3)CC2)cc1

>  <score_type>  (38) 
oracle

>  <origin>  (38) 
adgpu

>  <m_score__min__energy>  (38) 
-10.74

>  <m_primary>  (38) 
energy

$$$$
38:0
     RDKit          3D

 36 37  0  0  0  0  0  0  0  0999 V2000
   -3.8680   25.2250  -30.8370 N   0  0  0  0  0  0  0  0  0  0  0  0
   -5.2810   25.0230  -29.8610 S   0  0  0  0  0  0  0  0  0  0  0  0
   -6.0140   26.3340  -29.7950 O   0  0  0  0  0  0  0  0  0  0  0  0
   -4.8780   24.6090  -28.4740 O   0  0  0  0  0  0  0  0  0  0  0  0
   -6.3180   23.7870  -30.5640 C   0  0  0  0  0  0  0  0  0  0  0  0
   -6.3750   23.6140  -31.9540 C   0  0  0  0  0  0  0  0  0  0  0  0
   -7.2060   22.6360  -32.5070 C   0  0  0  0  0  0  0  0  0  0  0  0
   -7.9840   21.8150  -31.6760 C   0  0  0  0  0  0  0  0  0  0  0  0
   -8.9100   20.7890  -32.2740 C   0  0  0  0  0  0  0  0  0  0  0  0
   -8.1580   19.8110  -33.0590 N   0  0  0  0  0  0  0  0  0  0  0  0
   -7.7570   18.5530  -32.4950 C   0  0  0  0  0  0  0  0  0  0  0  0
   -8.0700   18.2670  -31.3080 O   0  0  0  0  0  0  0  0  0  0  0  0
   -6.9830   17.5860  -33.2890 C   0  0  0  0  0  0  0  0  0  0  0  0
   -7.2070   16.3500  -33.1690 O   0  0  0  0  0  0  0  0  0  0  0  0
   -6.0150   18.0620  -34.2320 N   0  0  0  0  0  0  0  0  0  0  0  0
   -4.9090   18.9340  -33.9570 C   0  0  0  0  0  0  0  0  0  0  0  0
   -3.5730   18.5330  -34.1540 C   0  0  0  0  0  0  0  0  0  0  0  0
   -2.5250   19.4080  -33.8510 C   0  0  0  0  0  0  0  0  0  0  0  0
   -2.7970   20.6790  -33.3390 C   0  0  0  0  0  0  0  0  0  0  0  0
   -1.7780   21.5250  -33.0440 F   0  0  0  0  0  0  0  0  0  0  0  0
   -4.1190   21.0740  -33.1180 C   0  0  0  0  0  0  0  0  0  0  0  0
   -5.1700   20.2020  -33.4200 C   0  0  0  0  0  0  0  0  0  0  0  0
   -7.9430   22.0050  -30.2860 C   0  0  0  0  0  0  0  0  0  0  0  0
   -7.1110   22.9840  -29.7330 C   0  0  0  0  0  0  0  0  0  0  0  0
   -3.8880   26.2040  -31.2020 H   0  0  0  0  0  0  0  0  0  0  0  0
   -5.7638   24.2499  -32.6113 H   0  0  0  0  0  0  0  0  0  0  0  0
   -7.2506   22.5090  -33.5987 H   0  0  0  0  0  0  0  0  0  0  0  0
   -9.4441   20.2692  -31.4650 H   0  0  0  0  0  0  0  0  0  0  0  0
   -9.6249   21.3000  -32.9357 H   0  0  0  0  0  0  0  0  0  0  0  0
   -7.9020   20.0300  -34.0490 H   0  0  0  0  0  0  0  0  0  0  0  0
   -3.3536   17.5293  -34.5471 H   0  0  0  0  0  0  0  0  0  0  0  0
   -1.4836   19.0946  -34.0163 H   0  0  0  0  0  0  0  0  0  0  0  0
   -4.3332   22.0713  -32.7063 H   0  0  0  0  0  0  0  0  0  0  0  0
   -6.2086   20.5135  -33.2348 H   0  0  0  0  0  0  0  0  0  0  0  0
   -8.5675   21.3817  -29.6291 H   0  0  0  0  0  0  0  0  0  0  0  0
   -7.0790   23.1241  -28.6424 H   0  0  0  0  0  0  0  0  0  0  0  0
  1  2  1  0
  2  3  2  0
  2  4  2  0
  2  5  1  0
  5  6  2  0
  6  7  1  0
  7  8  2  0
  8  9  1  0
  9 10  1  0
 10 11  1  0
 11 12  2  0
 11 13  1  0
 13 14  2  0
 13 15  1  0
 15 16  1  0
 16 17  2  0
 17 18  1  0
 18 19  2  0
 19 20  1  0
 19 21  1  0
 21 22  2  0
  8 23  1  0
 23 24  2  0
 24  5  1  0
 22 16  1  0
  1 25  1  0
  6 26  1  0
  7 27  1  0
  9 28  1  0
  9 29  1  0
 10 30  1  0
 17 31  1  0
 18 32  1  0
 21 33  1  0
 22 34  1  0
 23 35  1  0
 24 36  1  0
M  CHG  2   1  -1  15  -1
M  END
>  <UniqueID>  (39) 
37

>  <SMILES>  (39) 
[NH-]S(=O)(=O)c1ccc(CNC(=O)C(=O)[N-]c2ccc(F)cc2)cc1

>  <Energy>  (39) 
36.52441496395165

>  <Genealogy>  (39) 
[NH-]S(=O)(=O)c1ccc(CNC(=O)C(=O)[N-]c2ccc(F)cc2)cc1 (protonated)
[NH-]S(=O)(=O)c1ccc(CNC(=O)C(=O)[N-]c2ccc(F)cc2)cc1 (3D coordinates assigned)
[NH-]S(=O)(=O)c1ccc(CNC(=O)C(=O)[N-]c2ccc(F)cc2)cc1 (optimized conformer: 36.52441496395165 kcal/mol)

>  <smiles>  (39) 
NS(=O)(=O)c1ccc(CNC(=O)C(=O)Nc2ccc(F)cc2)cc1

>  <score_type>  (39) 
oracle

>  <origin>  (39) 
adgpu

>  <m_score__min__energy>  (39) 
-10.640000000000001

>  <m_primary>  (39) 
energy

$$$$
39:0
     RDKit          3D

 44 45  0  0  0  0  0  0  0  0999 V2000
   -6.4130   17.6660  -31.8780 C   0  0  0  0  0  0  0  0  0  0  0  0
   -6.5800   18.8210  -32.6930 O   0  0  0  0  0  0  0  0  0  0  0  0
   -7.3810   19.9250  -32.3570 C   0  0  0  0  0  0  0  0  0  0  0  0
   -8.7890   19.8510  -32.3880 C   0  0  0  0  0  0  0  0  0  0  0  0
   -9.5640   20.9620  -32.0490 C   0  0  0  0  0  0  0  0  0  0  0  0
   -8.9510   22.1580  -31.6790 C   0  0  0  0  0  0  0  0  0  0  0  0
   -7.5580   22.2460  -31.6420 C   0  0  0  0  0  0  0  0  0  0  0  0
   -6.7630   21.1360  -31.9740 C   0  0  0  0  0  0  0  0  0  0  0  0
   -5.2580   21.2610  -31.8970 C   0  0  0  0  0  0  0  0  0  0  0  0
   -4.7800   22.6790  -32.2360 C   0  0  0  0  0  0  0  0  0  0  0  0
   -5.0760   23.6220  -31.1620 N   0  0  0  0  0  0  0  0  0  0  0  0
   -4.0890   24.4460  -30.5290 C   0  0  0  0  0  0  0  0  0  0  0  0
   -3.9850   25.6650  -30.8300 O   0  0  0  0  0  0  0  0  0  0  0  0
   -3.1660   23.8490  -29.5090 C   0  0  0  0  0  0  0  0  0  0  0  0
   -2.4600   24.9280  -28.6830 C   0  0  0  0  0  0  0  0  0  0  0  0
   -1.0330   24.9730  -28.9920 N   0  0  0  0  0  0  0  0  0  0  0  0
   -0.0730   24.0690  -28.4300 C   0  0  0  0  0  0  0  0  0  0  0  0
    1.1230   24.4390  -28.2840 O   0  0  0  0  0  0  0  0  0  0  0  0
   -0.4830   22.7060  -28.0230 C   0  0  0  0  0  0  0  0  0  0  0  0
   -0.8260   22.4300  -26.6870 C   0  0  0  0  0  0  0  0  0  0  0  0
   -1.2180   21.1430  -26.3070 C   0  0  0  0  0  0  0  0  0  0  0  0
   -1.2720   20.1180  -27.2540 C   0  0  0  0  0  0  0  0  0  0  0  0
   -0.9360   20.3790  -28.5840 C   0  0  0  0  0  0  0  0  0  0  0  0
   -0.5440   21.6650  -28.9700 C   0  0  0  0  0  0  0  0  0  0  0  0
   -6.4550   17.9562  -30.8178 H   0  0  0  0  0  0  0  0  0  0  0  0
   -7.2164   16.9461  -32.0932 H   0  0  0  0  0  0  0  0  0  0  0  0
   -5.4386   17.2032  -32.0932 H   0  0  0  0  0  0  0  0  0  0  0  0
   -9.2802   18.9115  -32.6813 H   0  0  0  0  0  0  0  0  0  0  0  0
  -10.6616   20.8932  -32.0740 H   0  0  0  0  0  0  0  0  0  0  0  0
   -9.5646   23.0323  -31.4162 H   0  0  0  0  0  0  0  0  0  0  0  0
   -7.0789   23.1923  -31.3505 H   0  0  0  0  0  0  0  0  0  0  0  0
   -4.9328   21.0113  -30.8762 H   0  0  0  0  0  0  0  0  0  0  0  0
   -4.8220   20.5706  -32.6340 H   0  0  0  0  0  0  0  0  0  0  0  0
   -3.6928   22.6581  -32.4019 H   0  0  0  0  0  0  0  0  0  0  0  0
   -5.3115   23.0121  -33.1396 H   0  0  0  0  0  0  0  0  0  0  0  0
   -3.7496   23.2072  -28.8326 H   0  0  0  0  0  0  0  0  0  0  0  0
   -2.3984   23.2671  -30.0403 H   0  0  0  0  0  0  0  0  0  0  0  0
   -2.9085   25.9063  -28.9106 H   0  0  0  0  0  0  0  0  0  0  0  0
   -2.5804   24.6879  -27.6163 H   0  0  0  0  0  0  0  0  0  0  0  0
   -0.7855   23.2326  -25.9359 H   0  0  0  0  0  0  0  0  0  0  0  0
   -1.4845   20.9372  -25.2598 H   0  0  0  0  0  0  0  0  0  0  0  0
   -1.5790   19.1057  -26.9524 H   0  0  0  0  0  0  0  0  0  0  0  0
   -0.9797   19.5715  -29.3297 H   0  0  0  0  0  0  0  0  0  0  0  0
   -0.2818   21.8646  -30.0195 H   0  0  0  0  0  0  0  0  0  0  0  0
  1  2  1  0
  2  3  1  0
  3  4  2  0
  4  5  1  0
  5  6  2  0
  6  7  1  0
  7  8  2  0
  8  9  1  0
  9 10  1  0
 10 11  1  0
 11 12  1  0
 12 13  2  0
 12 14  1  0
 14 15  1  0
 15 16  1  0
 16 17  1  0
 17 18  2  0
 17 19  1  0
 19 20  2  0
 20 21  1  0
 21 22  2  0
 22 23  1  0
 23 24  2  0
  8  3  1  0
 24 19  1  0
  1 25  1  0
  1 26  1  0
  1 27  1  0
  4 28  1  0
  5 29  1  0
  6 30  1  0
  7 31  1  0
  9 32  1  0
  9 33  1  0
 10 34  1  0
 10 35  1  0
 14 36  1  0
 14 37  1  0
 15 38  1  0
 15 39  1  0
 20 40  1  0
 21 41  1  0
 22 42  1  0
 23 43  1  0
 24 44  1  0
M  CHG  2  11  -1  16  -1
M  END
>  <UniqueID>  (40) 
38

>  <SMILES>  (40) 
COc1ccccc1CC[N-]C(=O)CC[N-]C(=O)c1ccccc1

>  <Energy>  (40) 
31.712466475567147

>  <Genealogy>  (40) 
COc1ccccc1CC[N-]C(=O)CC[N-]C(=O)c1ccccc1 (protonated)
COc1ccccc1CC[N-]C(=O)CC[N-]C(=O)c1ccccc1 (3D coordinates assigned)
COc1ccccc1CC[N-]C(=O)CC[N-]C(=O)c1ccccc1 (optimized conformer: 31.712466475567147 kcal/mol)

>  <smiles>  (40) 
COc1ccccc1CCNC(=O)CCNC(=O)c1ccccc1

>  <score_type>  (40) 
oracle

>  <origin>  (40) 
adgpu

>  <m_score__min__energy>  (40) 
-10.44

>  <m_primary>  (40) 
energy

$$$$
40:0
     RDKit          3D

 47 50  0  0  0  0  0  0  0  0999 V2000
   -9.1930   22.0290  -30.6510 O   0  0  0  0  0  0  0  0  0  0  0  0
   -8.1660   21.9380  -31.3740 C   0  0  0  0  0  0  0  0  0  0  0  0
   -8.2040   21.0730  -32.5190 N   0  0  0  0  0  0  0  0  0  0  0  0
   -7.4090   19.8910  -32.6990 C   0  0  0  0  0  0  0  0  0  0  0  0
   -6.0410   19.9670  -33.0150 C   0  0  0  0  0  0  0  0  0  0  0  0
   -5.2800   18.8010  -33.1280 C   0  0  0  0  0  0  0  0  0  0  0  0
   -5.8750   17.5460  -32.9350 C   0  0  0  0  0  0  0  0  0  0  0  0
   -5.0960   16.3440  -33.0240 N   0  0  0  0  0  0  0  0  0  0  0  0
   -5.0900   15.4230  -32.0740 N   0  0  0  0  0  0  0  0  0  0  0  0
   -4.2640   14.4350  -32.4670 C   0  0  0  0  0  0  0  0  0  0  0  0
   -3.9320   13.2390  -31.6330 C   0  0  0  0  0  0  0  0  0  0  0  0
   -2.6190   13.3230  -31.2100 F   0  0  0  0  0  0  0  0  0  0  0  0
   -4.1000   12.0840  -32.3760 F   0  0  0  0  0  0  0  0  0  0  0  0
   -4.7640   13.1880  -30.5290 F   0  0  0  0  0  0  0  0  0  0  0  0
   -3.6990   14.7500  -33.6890 C   0  0  0  0  0  0  0  0  0  0  0  0
   -4.2440   15.9770  -34.0130 C   0  0  0  0  0  0  0  0  0  0  0  0
   -3.9090   16.7750  -35.2460 C   0  0  0  0  0  0  0  0  0  0  0  0
   -2.9380   17.7100  -34.9450 F   0  0  0  0  0  0  0  0  0  0  0  0
   -5.0360   17.4370  -35.7010 F   0  0  0  0  0  0  0  0  0  0  0  0
   -3.4540   15.9440  -36.2540 F   0  0  0  0  0  0  0  0  0  0  0  0
   -7.2530   17.4690  -32.6910 C   0  0  0  0  0  0  0  0  0  0  0  0
   -8.0150   18.6360  -32.5740 C   0  0  0  0  0  0  0  0  0  0  0  0
   -6.9460   22.6920  -31.0040 C   0  0  0  0  0  0  0  0  0  0  0  0
   -5.7170   22.0330  -30.8350 C   0  0  0  0  0  0  0  0  0  0  0  0
   -4.5570   22.7570  -30.5510 C   0  0  0  0  0  0  0  0  0  0  0  0
   -4.6060   24.1570  -30.4320 C   0  0  0  0  0  0  0  0  0  0  0  0
   -3.4320   24.9340  -30.1470 N   0  0  0  0  0  0  0  0  0  0  0  0
   -2.6500   24.7990  -29.1150 C   0  0  0  0  0  0  0  0  0  0  0  0
   -2.8370   23.7960  -28.2120 N   0  0  0  0  0  0  0  0  0  0  0  0
   -2.0030   23.6420  -27.1510 C   0  0  0  0  0  0  0  0  0  0  0  0
   -0.9300   24.5140  -26.9780 C   0  0  0  0  0  0  0  0  0  0  0  0
   -0.7440   25.5290  -27.9150 C   0  0  0  0  0  0  0  0  0  0  0  0
   -1.6000   25.6500  -28.9640 N   0  0  0  0  0  0  0  0  0  0  0  0
   -5.8420   24.8070  -30.5270 C   0  0  0  0  0  0  0  0  0  0  0  0
   -7.0040   24.0830  -30.8160 C   0  0  0  0  0  0  0  0  0  0  0  0
   -5.5686   20.9476  -33.1737 H   0  0  0  0  0  0  0  0  0  0  0  0
   -4.2089   18.8677  -33.3695 H   0  0  0  0  0  0  0  0  0  0  0  0
   -2.9783   14.1573  -34.2715 H   0  0  0  0  0  0  0  0  0  0  0  0
   -7.7373   16.4864  -32.5911 H   0  0  0  0  0  0  0  0  0  0  0  0
   -9.0960   18.5669  -32.3828 H   0  0  0  0  0  0  0  0  0  0  0  0
   -5.6679   20.9380  -30.9271 H   0  0  0  0  0  0  0  0  0  0  0  0
   -3.6007   22.2295  -30.4198 H   0  0  0  0  0  0  0  0  0  0  0  0
   -2.1744   22.8299  -26.4292 H   0  0  0  0  0  0  0  0  0  0  0  0
   -0.2466   24.4041  -26.1231 H   0  0  0  0  0  0  0  0  0  0  0  0
    0.0951   26.2318  -27.8056 H   0  0  0  0  0  0  0  0  0  0  0  0
   -5.9003   25.8947  -30.3734 H   0  0  0  0  0  0  0  0  0  0  0  0
   -7.9684   24.6060  -30.8964 H   0  0  0  0  0  0  0  0  0  0  0  0
  1  2  2  0
  2  3  1  0
  3  4  1  0
  4  5  2  0
  5  6  1  0
  6  7  2  0
  7  8  1  0
  8  9  1  0
  9 10  2  0
 10 11  1  0
 11 12  1  0
 11 13  1  0
 11 14  1  0
 10 15  1  0
 15 16  2  0
 16 17  1  0
 17 18  1  0
 17 19  1  0
 17 20  1  0
  7 21  1  0
 21 22  2  0
  2 23  1  0
 23 24  2  0
 24 25  1  0
 25 26  2  0
 26 27  1  0
 27 28  2  3
 28 29  1  0
 29 30  2  0
 30 31  1  0
 31 32  2  0
 32 33  1  0
 26 34  1  0
 34 35  2  0
 22  4  1  0
 35 23  1  0
 16  8  1  0
 33 28  1  0
  5 36  1  0
  6 37  1  0
 15 38  1  0
 21 39  1  0
 22 40  1  0
 24 41  1  0
 25 42  1  0
 30 43  1  0
 31 44  1  0
 32 45  1  0
 34 46  1  0
 35 47  1  0
M  CHG  2   3  -1  33  -1
M  END
>  <UniqueID>  (41) 
39

>  <SMILES>  (41) 
O=C([N-]c1ccc(-n2nc(C(F)(F)F)cc2C(F)(F)F)cc1)c1ccc(N=c2nccc[n-]2)cc1

>  <Energy>  (41) 
99.77233053997024

>  <Genealogy>  (41) 
O=C([N-]c1ccc(-n2nc(C(F)(F)F)cc2C(F)(F)F)cc1)c1ccc(N=c2nccc[n-]2)cc1 (protonated)
O=C([N-]c1ccc(-n2nc(C(F)(F)F)cc2C(F)(F)F)cc1)c1ccc(N=c2nccc[n-]2)cc1 (3D coordinates assigned)
O=C([N-]c1ccc(-n2nc(C(F)(F)F)cc2C(F)(F)F)cc1)c1ccc(N=c2nccc[n-]2)cc1 (optimized conformer: 99.77233053997024 kcal/mol)

>  <smiles>  (41) 
O=C(Nc1ccc(-n2nc(C(F)(F)F)cc2C(F)(F)F)cc1)c1ccc(N=c2nccc[nH]2)cc1

>  <score_type>  (41) 
oracle

>  <origin>  (41) 
adgpu

>  <m_score__min__energy>  (41) 
-10.800000000000001

>  <m_primary>  (41) 
energy

$$$$
41:0
     RDKit          3D

 38 40  0  0  0  0  0  0  0  0999 V2000
   -0.5310   27.2630  -27.1250 C   0  0  0  0  0  0  0  0  0  0  0  0
   -1.1350   25.9820  -27.5930 C   0  0  0  0  0  0  0  0  0  0  0  0
   -2.0770   25.2360  -26.9100 C   0  0  0  0  0  0  0  0  0  0  0  0
   -2.3600   24.1900  -27.7650 C   0  0  0  0  0  0  0  0  0  0  0  0
   -3.2830   23.0480  -27.4670 C   0  0  0  0  0  0  0  0  0  0  0  0
   -1.6200   24.3300  -28.8870 N   0  0  0  0  0  0  0  0  0  0  0  0
   -1.5620   23.4190  -30.0300 C   0  0  0  0  0  0  0  0  0  0  0  0
   -2.9520   23.0150  -30.4470 C   0  0  0  0  0  0  0  0  0  0  0  0
   -3.2430   21.6600  -30.6630 C   0  0  0  0  0  0  0  0  0  0  0  0
   -4.5290   21.2610  -31.0350 C   0  0  0  0  0  0  0  0  0  0  0  0
   -5.5530   22.2120  -31.1950 C   0  0  0  0  0  0  0  0  0  0  0  0
   -6.9220   21.7880  -31.5860 C   0  0  0  0  0  0  0  0  0  0  0  0
   -7.9910   22.7040  -31.5550 C   0  0  0  0  0  0  0  0  0  0  0  0
   -9.2790   22.3020  -31.9230 C   0  0  0  0  0  0  0  0  0  0  0  0
   -9.5150   20.9860  -32.3250 C   0  0  0  0  0  0  0  0  0  0  0  0
   -8.4630   20.0680  -32.3600 C   0  0  0  0  0  0  0  0  0  0  0  0
   -7.1740   20.4630  -31.9920 C   0  0  0  0  0  0  0  0  0  0  0  0
   -5.2590   23.5690  -30.9800 C   0  0  0  0  0  0  0  0  0  0  0  0
   -3.9710   23.9710  -30.6100 C   0  0  0  0  0  0  0  0  0  0  0  0
   -3.7240   25.2910  -30.4160 F   0  0  0  0  0  0  0  0  0  0  0  0
   -0.8750   25.4200  -28.7900 N   0  0  0  0  0  0  0  0  0  0  0  0
   -0.5213   27.2836  -26.0252 H   0  0  0  0  0  0  0  0  0  0  0  0
    0.4992   27.3420  -27.5023 H   0  0  0  0  0  0  0  0  0  0  0  0
   -1.1255   28.1081  -27.5023 H   0  0  0  0  0  0  0  0  0  0  0  0
   -2.5029   25.4309  -25.9147 H   0  0  0  0  0  0  0  0  0  0  0  0
   -3.3792   22.9290  -26.3777 H   0  0  0  0  0  0  0  0  0  0  0  0
   -4.2722   23.2529  -27.9023 H   0  0  0  0  0  0  0  0  0  0  0  0
   -2.8752   22.1237  -27.9023 H   0  0  0  0  0  0  0  0  0  0  0  0
   -1.0629   23.9229  -30.8708 H   0  0  0  0  0  0  0  0  0  0  0  0
   -0.9987   22.5190  -29.7423 H   0  0  0  0  0  0  0  0  0  0  0  0
   -2.4523   20.9055  -30.5385 H   0  0  0  0  0  0  0  0  0  0  0  0
   -4.7424   20.1952  -31.2041 H   0  0  0  0  0  0  0  0  0  0  0  0
   -7.8119   23.7424  -31.2393 H   0  0  0  0  0  0  0  0  0  0  0  0
  -10.1081   23.0244  -31.8956 H   0  0  0  0  0  0  0  0  0  0  0  0
  -10.5289   20.6723  -32.6140 H   0  0  0  0  0  0  0  0  0  0  0  0
   -8.6495   19.0316  -32.6780 H   0  0  0  0  0  0  0  0  0  0  0  0
   -6.3506   19.7342  -32.0196 H   0  0  0  0  0  0  0  0  0  0  0  0
   -6.0499   24.3234  -31.1039 H   0  0  0  0  0  0  0  0  0  0  0  0
  1  2  1  0
  2  3  1  0
  3  4  2  0
  4  5  1  0
  4  6  1  0
  6  7  1  0
  7  8  1  0
  8  9  2  0
  9 10  1  0
 10 11  2  0
 11 12  1  0
 12 13  2  0
 13 14  1  0
 14 15  2  0
 15 16  1  0
 16 17  2  0
 11 18  1  0
 18 19  2  0
 19 20  1  0
  6 21  1  0
 21  2  2  0
 19  8  1  0
 17 12  1  0
  1 22  1  0
  1 23  1  0
  1 24  1  0
  3 25  1  0
  5 26  1  0
  5 27  1  0
  5 28  1  0
  7 29  1  0
  7 30  1  0
  9 31  1  0
 10 32  1  0
 13 33  1  0
 14 34  1  0
 15 35  1  0
 16 36  1  0
 17 37  1  0
 18 38  1  0
M  END
>  <UniqueID>  (42) 
40

>  <SMILES>  (42) 
Cc1cc(C)n(Cc2ccc(-c3ccccc3)cc2F)n1

>  <Energy>  (42) 
71.93835260951846

>  <Genealogy>  (42) 
Cc1cc(C)n(Cc2ccc(-c3ccccc3)cc2F)n1 (3D coordinates assigned)
Cc1cc(C)n(Cc2ccc(-c3ccccc3)cc2F)n1 (optimized conformer: 71.93835260951846 kcal/mol)

>  <smiles>  (42) 
Cc1cc(C)n(Cc2ccc(-c3ccccc3)cc2F)n1

>  <score_type>  (42) 
oracle

>  <origin>  (42) 
adgpu

>  <m_score__min__energy>  (42) 
-7.8799999999999999

>  <m_primary>  (42) 
energy

$$$$
42:0
     RDKit          3D

 19 19  0  0  0  0  0  0  0  0999 V2000
   -8.3840   23.0360  -31.9800 C   0  0  0  0  0  0  0  0  0  0  0  0
   -7.9230   22.4020  -30.8990 C   0  0  0  0  0  0  0  0  0  0  0  0
   -6.4750   22.4620  -30.5030 C   0  0  0  0  0  0  0  0  0  0  0  0
   -5.7000   23.9770  -31.1610 S   0  0  0  0  0  0  0  0  0  0  0  0
   -4.2960   23.9140  -30.0510 C   0  0  0  0  0  0  0  0  0  0  0  0
   -4.1700   22.8830  -29.1750 N   0  0  0  0  0  0  0  0  0  0  0  0
   -3.1090   22.8120  -28.3300 C   0  0  0  0  0  0  0  0  0  0  0  0
   -3.0090   21.8480  -27.5270 O   0  0  0  0  0  0  0  0  0  0  0  0
   -2.1320   23.8100  -28.3540 C   0  0  0  0  0  0  0  0  0  0  0  0
   -2.2820   24.8630  -29.2580 C   0  0  0  0  0  0  0  0  0  0  0  0
   -1.3280   25.8760  -29.3090 O   0  0  0  0  0  0  0  0  0  0  0  0
   -3.3590   24.8960  -30.0850 N   0  0  0  0  0  0  0  0  0  0  0  0
   -9.4503   22.9718  -32.2423 H   0  0  0  0  0  0  0  0  0  0  0  0
   -7.6974   23.6225  -32.6082 H   0  0  0  0  0  0  0  0  0  0  0  0
   -8.6227   21.8198  -30.2814 H   0  0  0  0  0  0  0  0  0  0  0  0
   -6.3988   22.4628  -29.4056 H   0  0  0  0  0  0  0  0  0  0  0  0
   -5.9546   21.5856  -30.9166 H   0  0  0  0  0  0  0  0  0  0  0  0
   -1.2658   23.7672  -27.6773 H   0  0  0  0  0  0  0  0  0  0  0  0
   -1.2370   26.4610  -30.1300 H   0  0  0  0  0  0  0  0  0  0  0  0
  1  2  2  0
  2  3  1  0
  3  4  1  0
  4  5  1  0
  5  6  2  0
  6  7  1  0
  7  8  2  0
  7  9  1  0
  9 10  2  0
 10 11  1  0
 10 12  1  0
 12  5  1  0
  1 13  1  0
  1 14  1  0
  2 15  1  0
  3 16  1  0
  3 17  1  0
  9 18  1  0
 11 19  1  0
M  CHG  1  12  -1
M  END
>  <UniqueID>  (43) 
41

>  <SMILES>  (43) 
C=CCSc1nc(=O)cc(O)[n-]1

>  <Energy>  (43) 
11.634185476964273

>  <Genealogy>  (43) 
C=CCSc1nc(=O)cc(O)[n-]1 (protonated)
C=CCSc1nc(=O)cc(O)[n-]1 (3D coordinates assigned)
C=CCSc1nc(=O)cc(O)[n-]1 (optimized conformer: 11.634185476964273 kcal/mol)

>  <smiles>  (43) 
C=CCSc1nc(=O)cc(O)[nH]1

>  <score_type>  (43) 
oracle

>  <origin>  (43) 
adgpu

>  <m_score__min__energy>  (43) 
-6.2999999999999998

>  <m_primary>  (43) 
energy

$$$$
43:0
     RDKit          3D

 45 48  0  0  0  0  0  0  0  0999 V2000
   -8.7410   20.1070  -32.7280 C   0  0  0  0  0  0  0  0  0  0  0  0
   -9.0580   21.5920  -31.8020 S   0  0  0  0  0  0  0  0  0  0  0  0
   -9.8430   21.2530  -30.5660 O   0  0  0  0  0  0  0  0  0  0  0  0
   -9.8650   22.5450  -32.6390 O   0  0  0  0  0  0  0  0  0  0  0  0
   -7.5290   22.3430  -31.3570 C   0  0  0  0  0  0  0  0  0  0  0  0
   -7.2360   22.6090  -30.0140 C   0  0  0  0  0  0  0  0  0  0  0  0
   -6.0160   23.1960  -29.6620 C   0  0  0  0  0  0  0  0  0  0  0  0
   -5.0710   23.5270  -30.6520 C   0  0  0  0  0  0  0  0  0  0  0  0
   -3.7670   24.1370  -30.2890 C   0  0  0  0  0  0  0  0  0  0  0  0
   -3.4910   25.2960  -30.7030 O   0  0  0  0  0  0  0  0  0  0  0  0
   -2.7790   23.4300  -29.4410 C   0  0  0  0  0  0  0  0  0  0  0  0
   -2.3500   24.0390  -28.2490 C   0  0  0  0  0  0  0  0  0  0  0  0
   -1.3710   23.4370  -27.4550 C   0  0  0  0  0  0  0  0  0  0  0  0
   -0.7990   22.2270  -27.8470 C   0  0  0  0  0  0  0  0  0  0  0  0
   -1.2110   21.6100  -29.0300 C   0  0  0  0  0  0  0  0  0  0  0  0
   -2.2060   22.1930  -29.8350 C   0  0  0  0  0  0  0  0  0  0  0  0
   -2.6540   21.4690  -31.0490 C   0  0  0  0  0  0  0  0  0  0  0  0
   -2.0480   21.7210  -32.2890 C   0  0  0  0  0  0  0  0  0  0  0  0
   -2.4830   21.0520  -33.4330 C   0  0  0  0  0  0  0  0  0  0  0  0
   -3.5280   20.1290  -33.3520 C   0  0  0  0  0  0  0  0  0  0  0  0
   -4.1530   19.8620  -32.1220 C   0  0  0  0  0  0  0  0  0  0  0  0
   -5.2290   18.9060  -32.0540 N   0  0  0  0  0  0  0  0  0  0  0  0
   -5.3950   17.7640  -32.7500 C   0  0  0  0  0  0  0  0  0  0  0  0
   -6.5430   17.1680  -32.3800 N   0  0  0  0  0  0  0  0  0  0  0  0
   -7.0670   17.9590  -31.4540 N   0  0  0  0  0  0  0  0  0  0  0  0
   -6.2790   19.0050  -31.2570 N   0  0  0  0  0  0  0  0  0  0  0  0
   -3.7110   20.5460  -30.9720 C   0  0  0  0  0  0  0  0  0  0  0  0
   -5.3660   23.2360  -31.9950 C   0  0  0  0  0  0  0  0  0  0  0  0
   -6.5870   22.6500  -32.3440 C   0  0  0  0  0  0  0  0  0  0  0  0
   -8.5629   19.2728  -32.0335 H   0  0  0  0  0  0  0  0  0  0  0  0
   -9.6104   19.8774  -33.3616 H   0  0  0  0  0  0  0  0  0  0  0  0
   -7.8537   20.2524  -33.3616 H   0  0  0  0  0  0  0  0  0  0  0  0
   -7.9678   22.3555  -29.2328 H   0  0  0  0  0  0  0  0  0  0  0  0
   -5.7933   23.4004  -28.6044 H   0  0  0  0  0  0  0  0  0  0  0  0
   -2.7893   24.9985  -27.9386 H   0  0  0  0  0  0  0  0  0  0  0  0
   -1.0507   23.9181  -26.5191 H   0  0  0  0  0  0  0  0  0  0  0  0
   -0.0229   21.7584  -27.2240 H   0  0  0  0  0  0  0  0  0  0  0  0
   -0.7525   20.6579  -29.3355 H   0  0  0  0  0  0  0  0  0  0  0  0
   -1.2265   22.4491  -32.3593 H   0  0  0  0  0  0  0  0  0  0  0  0
   -2.0017   21.2519  -34.4017 H   0  0  0  0  0  0  0  0  0  0  0  0
   -3.8649   19.6062  -34.2593 H   0  0  0  0  0  0  0  0  0  0  0  0
   -4.6968   17.3773  -33.5069 H   0  0  0  0  0  0  0  0  0  0  0  0
   -4.1982   20.3556  -30.0043 H   0  0  0  0  0  0  0  0  0  0  0  0
   -4.6303   23.4711  -32.7783 H   0  0  0  0  0  0  0  0  0  0  0  0
   -6.8073   22.4297  -33.3990 H   0  0  0  0  0  0  0  0  0  0  0  0
  1  2  1  0
  2  3  2  0
  2  4  2  0
  2  5  1  0
  5  6  2  0
  6  7  1  0
  7  8  2  0
  8  9  1  0
  9 10  2  0
  9 11  1  0
 11 12  2  0
 12 13  1  0
 13 14  2  0
 14 15  1  0
 15 16  2  0
 16 17  1  0
 17 18  2  0
 18 19  1  0
 19 20  2  0
 20 21  1  0
 21 22  1  0
 22 23  1  0
 23 24  2  0
 24 25  1  0
 25 26  2  0
 21 27  2  0
  8 28  1  0
 28 29  2  0
 29  5  1  0
 16 11  1  0
 27 17  1  0
 26 22  1  0
  1 30  1  0
  1 31  1  0
  1 32  1  0
  6 33  1  0
  7 34  1  0
 12 35  1  0
 13 36  1  0
 14 37  1  0
 15 38  1  0
 18 39  1  0
 19 40  1  0
 20 41  1  0
 23 42  1  0
 27 43  1  0
 28 44  1  0
 29 45  1  0
M  END
>  <UniqueID>  (44) 
42

>  <SMILES>  (44) 
CS(=O)(=O)c1ccc(C(=O)c2ccccc2-c2cccc(-n3cnnn3)c2)cc1

>  <Energy>  (44) 
102.86967573298271

>  <Genealogy>  (44) 
CS(=O)(=O)c1ccc(C(=O)c2ccccc2-c2cccc(-n3cnnn3)c2)cc1 (3D coordinates assigned)
CS(=O)(=O)c1ccc(C(=O)c2ccccc2-c2cccc(-n3cnnn3)c2)cc1 (optimized conformer: 102.86967573298271 kcal/mol)

>  <smiles>  (44) 
CS(=O)(=O)c1ccc(C(=O)c2ccccc2-c2cccc(-n3cnnn3)c2)cc1

>  <score_type>  (44) 
oracle

>  <origin>  (44) 
adgpu

>  <m_score__min__energy>  (44) 
-10.5

>  <m_primary>  (44) 
energy

$$$$
44:0
     RDKit          3D

 39 42  0  0  0  0  0  0  0  0999 V2000
   -3.1870   21.3920  -27.5370 O   0  0  0  0  0  0  0  0  0  0  0  0
   -2.3550   21.3050  -28.4830 C   0  0  0  0  0  0  0  0  0  0  0  0
   -1.3630   20.2130  -28.4990 C   0  0  0  0  0  0  0  0  0  0  0  0
   -1.2760   19.2820  -27.4490 C   0  0  0  0  0  0  0  0  0  0  0  0
   -0.2940   18.2870  -27.4730 C   0  0  0  0  0  0  0  0  0  0  0  0
    0.6080   18.2170  -28.5390 C   0  0  0  0  0  0  0  0  0  0  0  0
    1.5880   17.2320  -28.5560 O   0  0  0  0  0  0  0  0  0  0  0  0
    0.5220   19.1370  -29.5890 C   0  0  0  0  0  0  0  0  0  0  0  0
   -0.4680   20.1250  -29.5780 C   0  0  0  0  0  0  0  0  0  0  0  0
   -0.5630   21.0160  -30.6540 O   0  0  0  0  0  0  0  0  0  0  0  0
   -1.6830   21.8820  -30.8670 C   0  0  1  0  0  0  0  0  0  0  0  0
   -2.7160   21.2080  -31.7580 C   0  0  0  0  0  0  0  0  0  0  0  0
   -2.7960   19.8010  -31.7830 C   0  0  0  0  0  0  0  0  0  0  0  0
   -3.6930   19.1550  -32.6380 C   0  0  0  0  0  0  0  0  0  0  0  0
   -4.5190   19.9020  -33.4810 C   0  0  0  0  0  0  0  0  0  0  0  0
   -5.4090   19.2580  -34.3320 O   0  0  0  0  0  0  0  0  0  0  0  0
   -4.4490   21.2970  -33.4690 C   0  0  0  0  0  0  0  0  0  0  0  0
   -3.5510   21.9480  -32.6170 C   0  0  0  0  0  0  0  0  0  0  0  0
   -2.2630   22.4040  -29.5200 C   0  0  1  0  0  0  0  0  0  0  0  0
   -3.5680   23.1720  -29.7210 C   0  0  0  0  0  0  0  0  0  0  0  0
   -4.7850   22.4860  -29.9200 C   0  0  0  0  0  0  0  0  0  0  0  0
   -5.9660   23.1870  -30.1820 C   0  0  0  0  0  0  0  0  0  0  0  0
   -7.5890   22.2150  -30.4620 Br  0  0  0  0  0  0  0  0  0  0  0  0
   -5.9480   24.5840  -30.2520 C   0  0  0  0  0  0  0  0  0  0  0  0
   -7.1170   25.2910  -30.5090 O   0  0  0  0  0  0  0  0  0  0  0  0
   -4.7480   25.2750  -30.0700 C   0  0  0  0  0  0  0  0  0  0  0  0
   -3.5610   24.5790  -29.8180 C   0  0  0  0  0  0  0  0  0  0  0  0
   -2.3780   25.2980  -29.6730 O   0  0  0  0  0  0  0  0  0  0  0  0
   -1.9818   19.3365  -26.6071 H   0  0  0  0  0  0  0  0  0  0  0  0
   -0.2310   17.5579  -26.6517 H   0  0  0  0  0  0  0  0  0  0  0  0
    1.2345   19.0834  -30.4253 H   0  0  0  0  0  0  0  0  0  0  0  0
   -1.3442   22.7788  -31.4064 H   0  0  0  0  0  0  0  0  0  0  0  0
   -2.1467   19.2062  -31.1237 H   0  0  0  0  0  0  0  0  0  0  0  0
   -3.7486   18.0564  -32.6471 H   0  0  0  0  0  0  0  0  0  0  0  0
   -5.1016   21.8849  -34.1312 H   0  0  0  0  0  0  0  0  0  0  0  0
   -3.4966   23.0467  -32.6180 H   0  0  0  0  0  0  0  0  0  0  0  0
   -1.5515   23.1365  -29.1110 H   0  0  0  0  0  0  0  0  0  0  0  0
   -4.8047   21.3874  -29.8684 H   0  0  0  0  0  0  0  0  0  0  0  0
   -4.7362   26.3736  -30.1252 H   0  0  0  0  0  0  0  0  0  0  0  0
  1  2  2  0
  2  3  1  0
  3  4  2  0
  4  5  1  0
  5  6  2  0
  6  7  1  0
  6  8  1  0
  8  9  2  0
  9 10  1  0
 10 11  1  0
 11 12  1  0
 12 13  2  0
 13 14  1  0
 14 15  2  0
 15 16  1  0
 15 17  1  0
 17 18  2  0
 11 19  1  0
 19 20  1  0
 20 21  2  0
 21 22  1  0
 22 23  1  0
 22 24  2  0
 24 25  1  0
 24 26  1  0
 26 27  2  0
 27 28  1  0
 19  2  1  0
 27 20  1  0
  9  3  1  0
 18 12  1  0
  4 29  1  0
  5 30  1  0
  8 31  1  0
 11 32  1  6
 13 33  1  0
 14 34  1  0
 17 35  1  0
 18 36  1  0
 19 37  1  1
 21 38  1  0
 26 39  1  0
M  CHG  4   7  -1  16  -1  25  -1  28  -1
M  END
>  <UniqueID>  (45) 
43

>  <SMILES>  (45) 
O=C1c2ccc([O-])cc2O[C@@H](c2ccc([O-])cc2)[C@H]1c1cc(Br)c([O-])cc1[O-]

>  <Energy>  (45) 
51.22111518372108

>  <Genealogy>  (45) 
O=C1c2ccc([O-])cc2OC(c2ccc([O-])cc2)C1c1cc(Br)c([O-])cc1[O-] (protonated)
O=C1c2ccc([O-])cc2O[C@@H](c2ccc([O-])cc2)[C@H]1c1cc(Br)c([O-])cc1[O-] (chirality)
O=C1c2ccc([O-])cc2O[C@@H](c2ccc([O-])cc2)[C@H]1c1cc(Br)c([O-])cc1[O-] (3D coordinates assigned)
O=C1c2ccc([O-])cc2O[C@@H](c2ccc([O-])cc2)[C@H]1c1cc(Br)c([O-])cc1[O-] (nonaromatic ring conformer: 51.22111518372108 kcal/mol)

>  <smiles>  (45) 
O=C1c2ccc(O)cc2OC(c2ccc(O)cc2)C1c1cc(Br)c(O)cc1O

>  <score_type>  (45) 
oracle

>  <origin>  (45) 
adgpu

>  <m_score__min__energy>  (45) 
-10.369999999999999

>  <m_primary>  (45) 
energy

$$$$
45:0
     RDKit          3D

 46 48  0  0  0  0  0  0  0  0999 V2000
   -2.7330   15.6930  -35.1440 C   0  0  0  0  0  0  0  0  0  0  0  0
   -3.7930   16.5390  -35.5780 O   0  0  0  0  0  0  0  0  0  0  0  0
   -4.2700   17.6440  -34.8570 C   0  0  0  0  0  0  0  0  0  0  0  0
   -5.6370   17.9640  -34.7820 C   0  0  0  0  0  0  0  0  0  0  0  0
   -6.0630   19.0770  -34.0500 C   0  0  0  0  0  0  0  0  0  0  0  0
   -5.1330   19.8900  -33.3790 C   0  0  0  0  0  0  0  0  0  0  0  0
   -5.5940   21.0660  -32.6060 C   0  0  0  0  0  0  0  0  0  0  0  0
   -6.8240   21.6140  -32.7440 N   0  0  0  0  0  0  0  0  0  0  0  0
   -7.0150   22.6810  -31.9220 C   0  0  0  0  0  0  0  0  0  0  0  0
   -8.3110   23.4270  -31.9010 C   0  0  0  0  0  0  0  0  0  0  0  0
   -5.9190   23.0030  -31.1180 C   0  0  0  0  0  0  0  0  0  0  0  0
   -5.8460   24.0680  -30.0670 C   0  0  0  0  0  0  0  0  0  0  0  0
   -4.9250   25.1610  -30.5070 C   0  0  0  0  0  0  0  0  0  0  0  0
   -5.3970   26.2860  -30.8190 O   0  0  0  0  0  0  0  0  0  0  0  0
   -3.5080   24.9410  -30.4750 N   0  0  0  0  0  0  0  0  0  0  0  0
   -2.7300   24.5530  -29.3330 C   0  0  0  0  0  0  0  0  0  0  0  0
   -3.3710   23.8890  -28.2810 C   0  0  0  0  0  0  0  0  0  0  0  0
   -2.6510   23.4770  -27.1580 C   0  0  0  0  0  0  0  0  0  0  0  0
   -1.2650   23.7110  -27.0770 C   0  0  0  0  0  0  0  0  0  0  0  0
   -0.5030   23.3160  -25.9660 O   0  0  0  0  0  0  0  0  0  0  0  0
   -0.4470   24.0270  -24.7340 C   0  0  0  0  0  0  0  0  0  0  0  0
   -0.6160   24.3530  -28.1400 C   0  0  0  0  0  0  0  0  0  0  0  0
    0.7590   24.5740  -28.0740 O   0  0  0  0  0  0  0  0  0  0  0  0
   -1.3430   24.7670  -29.2660 C   0  0  0  0  0  0  0  0  0  0  0  0
   -4.6960   21.8950  -31.4430 S   0  0  0  0  0  0  0  0  0  0  0  0
   -3.7670   19.5650  -33.4570 C   0  0  0  0  0  0  0  0  0  0  0  0
   -3.3440   18.4520  -34.1890 C   0  0  0  0  0  0  0  0  0  0  0  0
   -2.7071   15.6723  -34.0445 H   0  0  0  0  0  0  0  0  0  0  0  0
   -2.8968   14.6746  -35.5261 H   0  0  0  0  0  0  0  0  0  0  0  0
   -1.7763   16.0785  -35.5261 H   0  0  0  0  0  0  0  0  0  0  0  0
   -6.3753   17.3357  -35.3018 H   0  0  0  0  0  0  0  0  0  0  0  0
   -7.1350   19.3183  -33.9989 H   0  0  0  0  0  0  0  0  0  0  0  0
   -8.6161   23.6026  -30.8589 H   0  0  0  0  0  0  0  0  0  0  0  0
   -8.1870   24.3919  -32.4143 H   0  0  0  0  0  0  0  0  0  0  0  0
   -9.0831   22.8351  -32.4143 H   0  0  0  0  0  0  0  0  0  0  0  0
   -6.8506   24.4838  -29.8998 H   0  0  0  0  0  0  0  0  0  0  0  0
   -5.4634   23.6281  -29.1342 H   0  0  0  0  0  0  0  0  0  0  0  0
   -4.4513   23.6900  -28.3394 H   0  0  0  0  0  0  0  0  0  0  0  0
   -3.1691   22.9671  -26.3325 H   0  0  0  0  0  0  0  0  0  0  0  0
   -0.5031   23.3154  -23.8971 H   0  0  0  0  0  0  0  0  0  0  0  0
    0.4980   24.5870  -24.6765 H   0  0  0  0  0  0  0  0  0  0  0  0
   -1.2927   24.7280  -24.6765 H   0  0  0  0  0  0  0  0  0  0  0  0
    1.3080   24.2700  -27.2780 H   0  0  0  0  0  0  0  0  0  0  0  0
   -0.8246   25.2616  -30.1006 H   0  0  0  0  0  0  0  0  0  0  0  0
   -3.0262   20.1912  -32.9382 H   0  0  0  0  0  0  0  0  0  0  0  0
   -2.2724   18.2091  -34.2403 H   0  0  0  0  0  0  0  0  0  0  0  0
  1  2  1  0
  2  3  1  0
  3  4  2  0
  4  5  1  0
  5  6  2  0
  6  7  1  0
  7  8  2  0
  8  9  1  0
  9 10  1  0
  9 11  2  0
 11 12  1  0
 12 13  1  0
 13 14  2  0
 13 15  1  0
 15 16  1  0
 16 17  2  0
 17 18  1  0
 18 19  2  0
 19 20  1  0
 20 21  1  0
 19 22  1  0
 22 23  1  0
 22 24  2  0
 11 25  1  0
  6 26  1  0
 26 27  2  0
 27  3  1  0
 25  7  1  0
 24 16  1  0
  1 28  1  0
  1 29  1  0
  1 30  1  0
  4 31  1  0
  5 32  1  0
 10 33  1  0
 10 34  1  0
 10 35  1  0
 12 36  1  0
 12 37  1  0
 17 38  1  0
 18 39  1  0
 21 40  1  0
 21 41  1  0
 21 42  1  0
 23 43  1  0
 24 44  1  0
 26 45  1  0
 27 46  1  0
M  CHG  1  15  -1
M  END
>  <UniqueID>  (46) 
44

>  <SMILES>  (46) 
COc1ccc(-c2nc(C)c(CC(=O)[N-]c3ccc(OC)c(O)c3)s2)cc1

>  <Energy>  (46) 
76.98118987965118

>  <Genealogy>  (46) 
COc1ccc(-c2nc(C)c(CC(=O)[N-]c3ccc(OC)c(O)c3)s2)cc1 (protonated)
COc1ccc(-c2nc(C)c(CC(=O)[N-]c3ccc(OC)c(O)c3)s2)cc1 (3D coordinates assigned)
COc1ccc(-c2nc(C)c(CC(=O)[N-]c3ccc(OC)c(O)c3)s2)cc1 (optimized conformer: 76.98118987965118 kcal/mol)

>  <smiles>  (46) 
COc1ccc(-c2nc(C)c(CC(=O)Nc3ccc(OC)c(O)c3)s2)cc1

>  <score_type>  (46) 
oracle

>  <origin>  (46) 
adgpu

>  <m_score__min__energy>  (46) 
-9.4700000000000006

>  <m_primary>  (46) 
energy

$$$$
46:0
     RDKit          3D

 61 65  0  0  0  0  0  0  0  0999 V2000
    0.4080   21.5380  -34.0220 O   0  0  0  0  0  0  0  0  0  0  0  0
   -0.5360   21.1740  -33.2640 C   0  0  0  0  0  0  0  0  0  0  0  0
   -0.2430   20.9270  -31.8310 C   0  0  0  0  0  0  0  0  0  0  0  0
    0.3340   19.7100  -31.4350 C   0  0  0  0  0  0  0  0  0  0  0  0
    0.6100   19.4640  -30.0890 C   0  0  0  0  0  0  0  0  0  0  0  0
    0.3170   20.4290  -29.1210 C   0  0  0  0  0  0  0  0  0  0  0  0
    0.6040   20.1610  -27.8230 F   0  0  0  0  0  0  0  0  0  0  0  0
   -0.2540   21.6560  -29.5000 C   0  0  0  0  0  0  0  0  0  0  0  0
   -0.6440   22.8960  -28.2970 S   0  0  0  0  0  0  0  0  0  0  0  0
    0.1170   24.1520  -28.6230 O   0  0  0  0  0  0  0  0  0  0  0  0
   -0.2080   22.4370  -26.9340 O   0  0  0  0  0  0  0  0  0  0  0  0
   -2.3580   23.2430  -28.2700 N   0  0  0  0  0  0  0  0  0  0  0  0
   -3.1660   21.9970  -28.2140 C   0  0  0  0  0  0  0  0  0  0  0  0
   -3.8660   21.6610  -29.5380 C   0  0  0  0  0  0  0  0  0  0  0  0
   -4.6890   22.8390  -29.9550 C   0  0  0  0  0  0  0  0  0  0  0  0
   -5.9740   22.6930  -30.4990 C   0  0  0  0  0  0  0  0  0  0  0  0
   -6.7030   23.8240  -30.8770 C   0  0  0  0  0  0  0  0  0  0  0  0
   -6.1490   25.0990  -30.7250 C   0  0  0  0  0  0  0  0  0  0  0  0
   -4.8630   25.2460  -30.1930 C   0  0  0  0  0  0  0  0  0  0  0  0
   -4.1350   24.1150  -29.7940 C   0  0  0  0  0  0  0  0  0  0  0  0
   -2.7080   24.2270  -29.3250 C   0  0  0  0  0  0  0  0  0  0  0  0
   -0.5170   21.9020  -30.8570 C   0  0  0  0  0  0  0  0  0  0  0  0
   -1.8830   21.0590  -33.7920 N   0  0  0  0  0  0  0  0  0  0  0  0
   -2.8310   21.8540  -32.9690 C   0  0  0  0  0  0  0  0  0  0  0  0
   -4.2840   21.4600  -33.2470 C   0  0  0  0  0  0  0  0  0  0  0  0
   -4.4820   20.0310  -32.9660 N   0  0  0  0  0  0  0  0  0  0  0  0
   -5.7920   19.5300  -32.6150 C   0  0  0  0  0  0  0  0  0  0  0  0
   -6.9490   20.2720  -32.9240 C   0  0  0  0  0  0  0  0  0  0  0  0
   -8.2160   19.7870  -32.5820 C   0  0  0  0  0  0  0  0  0  0  0  0
   -8.3450   18.5610  -31.9280 C   0  0  0  0  0  0  0  0  0  0  0  0
   -9.5760   18.0950  -31.5960 F   0  0  0  0  0  0  0  0  0  0  0  0
   -7.2060   17.8160  -31.6150 C   0  0  0  0  0  0  0  0  0  0  0  0
   -5.9370   18.2950  -31.9540 C   0  0  0  0  0  0  0  0  0  0  0  0
   -3.3070   19.1460  -32.9440 C   0  0  0  0  0  0  0  0  0  0  0  0
   -2.2600   19.6270  -33.9590 C   0  0  0  0  0  0  0  0  0  0  0  0
    0.5700   18.9456  -32.1900 H   0  0  0  0  0  0  0  0  0  0  0  0
    1.0602   18.5063  -29.7886 H   0  0  0  0  0  0  0  0  0  0  0  0
   -2.5003   21.1619  -27.9504 H   0  0  0  0  0  0  0  0  0  0  0  0
   -3.9537   22.1558  -27.4628 H   0  0  0  0  0  0  0  0  0  0  0  0
   -3.1135   21.4427  -30.3101 H   0  0  0  0  0  0  0  0  0  0  0  0
   -4.5105   20.7789  -29.4092 H   0  0  0  0  0  0  0  0  0  0  0  0
   -6.4070   21.6901  -30.6278 H   0  0  0  0  0  0  0  0  0  0  0  0
   -7.7143   23.7110  -31.2948 H   0  0  0  0  0  0  0  0  0  0  0  0
   -6.7247   25.9874  -31.0239 H   0  0  0  0  0  0  0  0  0  0  0  0
   -4.4228   26.2486  -30.0876 H   0  0  0  0  0  0  0  0  0  0  0  0
   -2.0436   24.0662  -30.1868 H   0  0  0  0  0  0  0  0  0  0  0  0
   -2.5859   25.2295  -28.8891 H   0  0  0  0  0  0  0  0  0  0  0  0
   -0.9426   22.8696  -31.1613 H   0  0  0  0  0  0  0  0  0  0  0  0
   -1.9010   21.5020  -34.7410 H   0  0  0  0  0  0  0  0  0  0  0  0
   -2.6115   21.6819  -31.9050 H   0  0  0  0  0  0  0  0  0  0  0  0
   -2.7061   22.9156  -33.2284 H   0  0  0  0  0  0  0  0  0  0  0  0
   -4.9512   22.0531  -32.6043 H   0  0  0  0  0  0  0  0  0  0  0  0
   -4.5138   21.6543  -34.3051 H   0  0  0  0  0  0  0  0  0  0  0  0
   -6.8556   21.2400  -33.4380 H   0  0  0  0  0  0  0  0  0  0  0  0
   -9.1130   20.3737  -32.8293 H   0  0  0  0  0  0  0  0  0  0  0  0
   -7.3076   16.8493  -31.1001 H   0  0  0  0  0  0  0  0  0  0  0  0
   -5.0449   17.7026  -31.7025 H   0  0  0  0  0  0  0  0  0  0  0  0
   -2.8659   19.1531  -31.9363 H   0  0  0  0  0  0  0  0  0  0  0  0
   -3.6216   18.1260  -33.2098 H   0  0  0  0  0  0  0  0  0  0  0  0
   -1.3548   19.0130  -33.8427 H   0  0  0  0  0  0  0  0  0  0  0  0
   -2.7081   19.5252  -34.9584 H   0  0  0  0  0  0  0  0  0  0  0  0
  1  2  2  0
  2  3  1  0
  3  4  2  0
  4  5  1  0
  5  6  2  0
  6  7  1  0
  6  8  1  0
  8  9  1  0
  9 10  2  0
  9 11  2  0
  9 12  1  0
 12 13  1  0
 13 14  1  0
 14 15  1  0
 15 16  2  0
 16 17  1  0
 17 18  2  0
 18 19  1  0
 19 20  2  0
 20 21  1  0
  8 22  2  0
  2 23  1  0
 23 24  1  0
 24 25  1  0
 25 26  1  0
 26 27  1  0
 27 28  2  0
 28 29  1  0
 29 30  2  0
 30 31  1  0
 30 32  1  0
 32 33  2  0
 26 34  1  0
 34 35  1  0
 22  3  1  0
 35 23  1  0
 21 12  1  0
 33 27  1  0
 20 15  1  0
  4 36  1  0
  5 37  1  0
 13 38  1  0
 13 39  1  0
 14 40  1  0
 14 41  1  0
 16 42  1  0
 17 43  1  0
 18 44  1  0
 19 45  1  0
 21 46  1  0
 21 47  1  0
 22 48  1  0
 23 49  1  0
 24 50  1  0
 24 51  1  0
 25 52  1  0
 25 53  1  0
 28 54  1  0
 29 55  1  0
 32 56  1  0
 33 57  1  0
 34 58  1  0
 34 59  1  0
 35 60  1  0
 35 61  1  0
M  CHG  1  23   1
M  END
>  <UniqueID>  (47) 
45

>  <SMILES>  (47) 
O=C(c1ccc(F)c(S(=O)(=O)N2CCc3ccccc3C2)c1)[NH+]1CCN(c2ccc(F)cc2)CC1

>  <Energy>  (47) 
90.60043125834065

>  <Genealogy>  (47) 
O=C(c1ccc(F)c(S(=O)(=O)N2CCc3ccccc3C2)c1)[NH+]1CCN(c2ccc(F)cc2)CC1 (protonated)
O=C(c1ccc(F)c(S(=O)(=O)N2CCc3ccccc3C2)c1)[NH+]1CCN(c2ccc(F)cc2)CC1 (3D coordinates assigned)
O=C(c1ccc(F)c(S(=O)(=O)N2CCc3ccccc3C2)c1)[NH+]1CCN(c2ccc(F)cc2)CC1 (nonaromatic ring conformer: 90.60043125834065 kcal/mol)

>  <smiles>  (47) 
O=C(c1ccc(F)c(S(=O)(=O)N2CCc3ccccc3C2)c1)N1CCN(c2ccc(F)cc2)CC1

>  <score_type>  (47) 
oracle

>  <origin>  (47) 
adgpu

>  <m_score__min__energy>  (47) 
-10.029999999999999

>  <m_primary>  (47) 
energy

$$$$
47:0
     RDKit          3D

 41 43  0  0  1  0  0  0  0  0999 V2000
   -1.7680   24.2010  -28.9560 C   0  0  0  0  0  0  0  0  0  0  0  0
   -2.6560   25.0010  -29.6900 O   0  0  0  0  0  0  0  0  0  0  0  0
   -3.9290   24.5180  -29.9590 C   0  0  0  0  0  0  0  0  0  0  0  0
   -4.2000   23.2270  -29.5150 C   0  0  0  0  0  0  0  0  0  0  0  0
   -5.4350   22.6550  -29.7330 C   0  0  0  0  0  0  0  0  0  0  0  0
   -6.3980   23.3950  -30.4050 C   0  0  0  0  0  0  0  0  0  0  0  0
   -7.6960   22.8160  -30.6440 N   0  0  0  0  0  0  0  0  0  0  0  0
   -7.8860   21.7930  -31.3700 C   0  0  0  0  0  0  0  0  0  0  0  0
   -6.8230   21.2100  -31.9510 N   0  0  0  0  0  0  0  0  0  0  0  0
   -7.0490   20.1270  -32.7150 C   0  0  0  0  0  0  0  0  0  0  0  0
   -6.0790   19.5180  -33.3030 N   0  0  0  0  0  0  0  0  0  0  0  0
   -4.7270   19.9820  -33.1550 C   0  0  0  0  0  0  0  0  0  0  0  0
   -3.7760   19.0690  -32.7140 C   0  0  0  0  0  0  0  0  0  0  0  0
   -2.4580   19.4550  -32.5520 C   0  0  0  0  0  0  0  0  0  0  0  0
   -2.1130   20.7640  -32.8360 C   0  0  0  0  0  0  0  0  0  0  0  0
   -0.6950   21.1640  -32.6580 C   0  0  0  0  0  0  0  0  0  0  0  0
   -3.0750   21.6730  -33.2780 C   0  0  0  0  0  0  0  0  0  0  0  0
   -4.3970   21.3000  -33.4450 C   0  0  0  0  0  0  0  0  0  0  0  0
   -8.2910   19.6340  -32.9000 N   0  0  0  0  0  0  0  0  0  0  0  0
   -9.3710   20.2110  -32.3200 C   0  0  0  0  0  0  0  0  0  0  0  0
   -9.1800   21.3360  -31.5200 C   0  0  0  0  0  0  0  0  0  0  0  0
  -10.2380   21.9280  -30.9330 F   0  0  0  0  0  0  0  0  0  0  0  0
   -6.1530   24.6850  -30.8580 C   0  0  0  0  0  0  0  0  0  0  0  0
   -4.8920   25.2460  -30.6260 C   0  0  0  0  0  0  0  0  0  0  0  0
   -1.9391   24.3551  -27.8804 H   0  0  0  0  0  0  0  0  0  0  0  0
   -1.9354   23.1429  -29.2060 H   0  0  0  0  0  0  0  0  0  0  0  0
   -0.7331   24.4775  -29.2060 H   0  0  0  0  0  0  0  0  0  0  0  0
   -3.4216   22.6581  -28.9854 H   0  0  0  0  0  0  0  0  0  0  0  0
   -5.6524   21.6353  -29.3824 H   0  0  0  0  0  0  0  0  0  0  0  0
   -5.8390   21.5700  -31.8270 H   0  0  0  0  0  0  0  0  0  0  0  0
   -4.0736   18.0334  -32.4926 H   0  0  0  0  0  0  0  0  0  0  0  0
   -1.7006   18.7368  -32.2049 H   0  0  0  0  0  0  0  0  0  0  0  0
   -0.4644   21.2291  -31.5844 H   0  0  0  0  0  0  0  0  0  0  0  0
   -0.0410   20.4153  -33.1288 H   0  0  0  0  0  0  0  0  0  0  0  0
   -0.5286   22.1441  -33.1288 H   0  0  0  0  0  0  0  0  0  0  0  0
   -2.7760   22.7084  -33.4984 H   0  0  0  0  0  0  0  0  0  0  0  0
   -5.1551   22.0172  -33.7929 H   0  0  0  0  0  0  0  0  0  0  0  0
   -8.4750   18.7940  -33.4900 H   0  0  0  0  0  0  0  0  0  0  0  0
  -10.3789   19.7995  -32.4775 H   0  0  0  0  0  0  0  0  0  0  0  0
   -6.9325   25.2528  -31.3871 H   0  0  0  0  0  0  0  0  0  0  0  0
   -4.6694   26.2652  -30.9748 H   0  0  0  0  0  0  0  0  0  0  0  0
  1  2  1  0
  2  3  1  0
  3  4  2  0
  4  5  1  0
  5  6  2  0
  6  7  1  0
  7  8  2  0
  8  9  1  0
  9 10  1  0
 10 11  2  0
 11 12  1  0
 12 13  2  0
 13 14  1  0
 14 15  2  0
 15 16  1  0
 15 17  1  0
 17 18  2  0
 10 19  1  0
 19 20  1  0
 20 21  2  0
 21 22  1  0
  6 23  1  0
 23 24  2  0
 24  3  1  0
 21  8  1  0
 18 12  1  0
  1 25  1  0
  1 26  1  0
  1 27  1  0
  4 28  1  0
  5 29  1  0
  9 30  1  0
 13 31  1  0
 14 32  1  0
 16 33  1  0
 16 34  1  0
 16 35  1  0
 17 36  1  0
 18 37  1  0
 19 38  1  0
 20 39  1  0
 23 40  1  0
 24 41  1  0
M  END
>  <smiles>  (48) 
COc1ccc(N=c2[nH]c(=Nc3ccc(C)cc3)[nH]cc2F)cc1

>  <score_type>  (48) 
oracle

>  <origin>  (48) 
adgpu

>  <m_score__min__energy>  (48) 
-8.1799999999999997

>  <m_primary>  (48) 
energy

$$$$
