0:0
     RDKit          3D

 49 51  0  0  0  0  0  0  0  0999 V2000
   -9.7367   17.8099  -31.8331 H   0  0  0  0  0  0  0  0  0  0  0  0
   -8.8700   18.4790  -31.9380 C   0  0  0  0  0  0  0  0  0  0  0  0
   -8.8280   19.6500  -31.2490 N   0  0  0  0  0  0  0  0  0  0  0  0
   -7.7680   20.4910  -31.3580 C   0  0  0  0  0  0  0  0  0  0  0  0
   -7.7780   21.6170  -30.7050 N   0  0  0  0  0  0  0  0  0  0  0  0
   -6.7440   22.6180  -30.6820 C   0  0  0  0  0  0  0  0  0  0  0  0
   -7.1190   23.9630  -30.7720 C   0  0  0  0  0  0  0  0  0  0  0  0
   -8.1828   24.2283  -30.8615 H   0  0  0  0  0  0  0  0  0  0  0  0
   -6.1530   24.9710  -30.7490 C   0  0  0  0  0  0  0  0  0  0  0  0
   -6.4586   26.0244  -30.8319 H   0  0  0  0  0  0  0  0  0  0  0  0
   -4.7990   24.6470  -30.6210 C   0  0  0  0  0  0  0  0  0  0  0  0
   -3.8560   25.6690  -30.6050 O   0  0  0  0  0  0  0  0  0  0  0  0
   -4.4040   23.3010  -30.5070 C   0  0  0  0  0  0  0  0  0  0  0  0
   -2.9540   22.9320  -30.3290 C   0  0  0  0  0  0  0  0  0  0  0  0
   -2.8723   21.8425  -30.2009 H   0  0  0  0  0  0  0  0  0  0  0  0
   -2.3961   23.2560  -31.2199 H   0  0  0  0  0  0  0  0  0  0  0  0
   -2.2640   23.7430  -28.8960 S   0  0  0  0  0  0  0  0  0  0  0  0
   -1.7190   25.0900  -29.2830 O   0  0  0  0  0  0  0  0  0  0  0  0
   -1.1470   22.9000  -28.3480 O   0  0  0  0  0  0  0  0  0  0  0  0
   -3.5110   23.9490  -27.6440 C   0  0  0  0  0  0  0  0  0  0  0  0
   -3.0479   23.8725  -26.6492 H   0  0  0  0  0  0  0  0  0  0  0  0
   -3.9817   24.9371  -27.7544 H   0  0  0  0  0  0  0  0  0  0  0  0
   -4.2744   23.1648  -27.7544 H   0  0  0  0  0  0  0  0  0  0  0  0
   -5.3840   22.2930  -30.5130 C   0  0  0  0  0  0  0  0  0  0  0  0
   -5.0862   21.2419  -30.3847 H   0  0  0  0  0  0  0  0  0  0  0  0
   -6.7360   20.1630  -32.1830 N   0  0  0  0  0  0  0  0  0  0  0  0
   -6.7300   19.0040  -32.8930 C   0  0  0  0  0  0  0  0  0  0  0  0
   -5.5900   18.6780  -33.7080 N   0  0  0  0  0  0  0  0  0  0  0  0
   -4.3190   19.2940  -33.4080 C   0  0  0  0  0  0  0  0  0  0  0  0
   -4.1550   20.6880  -33.4700 C   0  0  0  0  0  0  0  0  0  0  0  0
   -5.0045   21.3265  -33.7540 H   0  0  0  0  0  0  0  0  0  0  0  0
   -2.9190   21.2680  -33.1730 C   0  0  0  0  0  0  0  0  0  0  0  0
   -2.8061   22.3613  -33.2170 H   0  0  0  0  0  0  0  0  0  0  0  0
   -1.8230   20.4720  -32.8200 C   0  0  0  0  0  0  0  0  0  0  0  0
   -0.6030   21.1020  -32.5370 O   0  0  0  0  0  0  0  0  0  0  0  0
   -0.0870   21.3000  -31.2240 C   0  0  0  0  0  0  0  0  0  0  0  0
   -0.8466   21.0085  -30.4837 H   0  0  0  0  0  0  0  0  0  0  0  0
    0.8138   20.6837  -31.0872 H   0  0  0  0  0  0  0  0  0  0  0  0
    0.1703   22.3607  -31.0872 H   0  0  0  0  0  0  0  0  0  0  0  0
   -1.9830   19.0750  -32.7590 C   0  0  0  0  0  0  0  0  0  0  0  0
   -1.1293   18.4374  -32.4857 H   0  0  0  0  0  0  0  0  0  0  0  0
   -3.2210   18.4950  -33.0440 C   0  0  0  0  0  0  0  0  0  0  0  0
   -3.3381   17.4029  -32.9831 H   0  0  0  0  0  0  0  0  0  0  0  0
   -5.7800   17.9460  -34.9640 C   0  0  0  0  0  0  0  0  0  0  0  0
   -6.0507   16.9030  -34.7432 H   0  0  0  0  0  0  0  0  0  0  0  0
   -6.5852   18.4186  -35.5456 H   0  0  0  0  0  0  0  0  0  0  0  0
   -4.8466   17.9673  -35.5456 H   0  0  0  0  0  0  0  0  0  0  0  0
   -7.8140   18.1260  -32.7780 C   0  0  0  0  0  0  0  0  0  0  0  0
   -7.8326   17.1791  -33.3374 H   0  0  0  0  0  0  0  0  0  0  0  0
  1  2  1  0
  2  3  1  0
  3  4  1  0
  4  5  2  0
  5  6  1  0
  6  7  2  0
  7  8  1  0
  7  9  1  0
  9 10  1  0
  9 11  2  0
 11 12  1  0
 11 13  1  0
 13 14  1  0
 14 15  1  0
 14 16  1  0
 14 17  1  0
 17 18  2  0
 17 19  2  0
 17 20  1  0
 20 21  1  0
 20 22  1  0
 20 23  1  0
 13 24  2  0
 24 25  1  0
  4 26  1  0
 26 27  2  0
 27 28  1  0
 28 29  1  0
 29 30  2  0
 30 31  1  0
 30 32  1  0
 32 33  1  0
 32 34  2  0
 34 35  1  0
 35 36  1  0
 36 37  1  0
 36 38  1  0
 36 39  1  0
 34 40  1  0
 40 41  1  0
 40 42  2  0
 42 43  1  0
 28 44  1  0
 44 45  1  0
 44 46  1  0
 44 47  1  0
 27 48  1  0
 48 49  1  0
 48  2  2  0
 24  6  1  0
 42 29  1  0
M  CHG  2   3  -1  12  -1
M  END
>  <UniqueID>  (1) 
1

>  <SMILES>  (1) 
COc1ccc(N(C)c2cc[n-]/c(=N/c3ccc([O-])c(CS(C)(=O)=O)c3)n2)cc1

>  <Energy>  (1) 
53.45673218182661

>  <Genealogy>  (1) 
COc1ccc(N(C)c2cc[n-]c(=Nc3ccc([O-])c(CS(C)(=O)=O)c3)n2)cc1 (protonated)
COc1ccc(N(C)c2cc[n-]/c(=N/c3ccc([O-])c(CS(C)(=O)=O)c3)n2)cc1 (cis-trans isomerization)
COc1ccc(N(C)c2cc[n-]/c(=N/c3ccc([O-])c(CS(C)(=O)=O)c3)n2)cc1 (3D coordinates assigned)
COc1ccc(N(C)c2cc[n-]/c(=N/c3ccc([O-])c(CS(C)(=O)=O)c3)n2)cc1 (optimized conformer: 53.45673218182661 kcal/mol)

>  <smiles>  (1) 
COc1ccc(N(C)c2cc[nH]c(=Nc3ccc(O)c(CS(C)(=O)=O)c3)n2)cc1

>  <score_type>  (1) 
oracle

>  <origin>  (1) 
adgpu

>  <m_score__min__energy>  (1) 
-12.42

>  <m_primary>  (1) 
energy

$$$$
1:0
     RDKit          3D

 59 62  0  0  0  0  0  0  0  0999 V2000
   -0.2632   27.3178  -27.8811 H   0  0  0  0  0  0  0  0  0  0  0  0
   -0.8690   26.4010  -27.9300 C   0  0  0  0  0  0  0  0  0  0  0  0
   -1.5870   26.0230  -28.9610 O   0  0  0  0  0  0  0  0  0  0  0  0
   -2.1810   24.8850  -28.6760 C   0  0  0  0  0  0  0  0  0  0  0  0
   -3.0730   24.1740  -29.6220 C   0  0  0  0  0  0  0  0  0  0  0  0
   -2.5970   23.1220  -30.4210 C   0  0  0  0  0  0  0  0  0  0  0  0
   -1.5457   22.8045  -30.3577 H   0  0  0  0  0  0  0  0  0  0  0  0
   -3.4820   22.4820  -31.3010 C   0  0  0  0  0  0  0  0  0  0  0  0
   -3.0420   21.3840  -32.1980 C   0  0  0  0  0  0  0  0  0  0  0  0
   -1.7600   21.3760  -32.7660 C   0  0  0  0  0  0  0  0  0  0  0  0
   -1.0643   22.2004  -32.5504 H   0  0  0  0  0  0  0  0  0  0  0  0
   -1.3540   20.3260  -33.6080 C   0  0  0  0  0  0  0  0  0  0  0  0
   -0.0770   20.2970  -34.1920 O   0  0  0  0  0  0  0  0  0  0  0  0
    0.2930   21.0100  -35.3680 C   0  0  0  0  0  0  0  0  0  0  0  0
    0.7827   21.9537  -35.0858 H   0  0  0  0  0  0  0  0  0  0  0  0
    0.9882   20.3998  -35.9633 H   0  0  0  0  0  0  0  0  0  0  0  0
   -0.6062   21.2272  -35.9633 H   0  0  0  0  0  0  0  0  0  0  0  0
   -2.2340   19.2660  -33.8860 C   0  0  0  0  0  0  0  0  0  0  0  0
   -1.7520   18.2540  -34.7390 O   0  0  0  0  0  0  0  0  0  0  0  0
   -1.2500   16.9810  -34.3470 C   0  0  0  0  0  0  0  0  0  0  0  0
   -1.2255   16.9188  -33.2490 H   0  0  0  0  0  0  0  0  0  0  0  0
   -1.9038   16.1908  -34.7445 H   0  0  0  0  0  0  0  0  0  0  0  0
   -0.2328   16.8497  -34.7445 H   0  0  0  0  0  0  0  0  0  0  0  0
   -3.5310   19.2600  -33.3120 C   0  0  0  0  0  0  0  0  0  0  0  0
   -4.4180   18.2060  -33.5870 O   0  0  0  0  0  0  0  0  0  0  0  0
   -5.4120   18.2200  -34.6080 C   0  0  0  0  0  0  0  0  0  0  0  0
   -6.4107   18.2341  -34.1472 H   0  0  0  0  0  0  0  0  0  0  0  0
   -5.2836   19.1164  -35.2325 H   0  0  0  0  0  0  0  0  0  0  0  0
   -5.3089   17.3203  -35.2325 H   0  0  0  0  0  0  0  0  0  0  0  0
   -3.9130   20.3210  -32.4690 C   0  0  0  0  0  0  0  0  0  0  0  0
   -4.9147   20.3150  -32.0145 H   0  0  0  0  0  0  0  0  0  0  0  0
   -4.7720   22.9070  -31.3610 N   0  0  0  0  0  0  0  0  0  0  0  0
   -5.2270   23.9330  -30.5940 C   0  0  0  0  0  0  0  0  0  0  0  0
   -6.4630   24.3300  -30.6810 N   0  0  0  0  0  0  0  0  0  0  0  0
   -7.4810   23.7680  -31.5780 C   0  0  0  0  0  0  0  0  0  0  0  0
   -8.4481   24.2456  -31.3623 H   0  0  0  0  0  0  0  0  0  0  0  0
   -7.1668   23.9607  -32.6144 H   0  0  0  0  0  0  0  0  0  0  0  0
   -7.6200   22.3080  -31.4050 N   0  0  0  0  0  0  0  0  0  0  0  0
   -8.9650   21.8990  -30.9180 C   0  0  0  0  0  0  0  0  0  0  0  0
   -8.8388   21.2672  -30.0264 H   0  0  0  0  0  0  0  0  0  0  0  0
   -9.5283   22.8163  -30.6917 H   0  0  0  0  0  0  0  0  0  0  0  0
   -9.7640   21.1130  -31.9670 C   0  0  0  0  0  0  0  0  0  0  0  0
  -10.7237   20.8032  -31.5277 H   0  0  0  0  0  0  0  0  0  0  0  0
   -9.9259   21.7643  -32.8385 H   0  0  0  0  0  0  0  0  0  0  0  0
   -8.9990   19.8610  -32.4330 C   0  0  0  0  0  0  0  0  0  0  0  0
   -9.2372   19.0302  -31.7525 H   0  0  0  0  0  0  0  0  0  0  0  0
   -9.3131   19.6464  -33.4651 H   0  0  0  0  0  0  0  0  0  0  0  0
   -7.4720   20.0640  -32.4460 C   0  0  0  0  0  0  0  0  0  0  0  0
   -7.0495   19.6671  -31.5112 H   0  0  0  0  0  0  0  0  0  0  0  0
   -7.0577   19.5328  -33.3156 H   0  0  0  0  0  0  0  0  0  0  0  0
   -7.1110   21.5460  -32.5670 C   0  0  0  0  0  0  0  0  0  0  0  0
   -6.0167   21.6479  -32.6136 H   0  0  0  0  0  0  0  0  0  0  0  0
   -7.5725   21.9476  -33.4812 H   0  0  0  0  0  0  0  0  0  0  0  0
   -4.3800   24.5530  -29.7290 N   0  0  0  0  0  0  0  0  0  0  0  0
   -4.7440   25.3400  -29.1430 H   0  0  0  0  0  0  0  0  0  0  0  0
   -1.8350   24.4950  -27.3930 C   0  0  0  0  0  0  0  0  0  0  0  0
   -2.1669   23.5901  -26.8630 H   0  0  0  0  0  0  0  0  0  0  0  0
   -0.9900   25.4730  -26.9170 C   0  0  0  0  0  0  0  0  0  0  0  0
   -0.5088   25.5070  -25.9284 H   0  0  0  0  0  0  0  0  0  0  0  0
  1  2  1  0
  2  3  1  0
  3  4  1  0
  4  5  1  0
  5  6  2  0
  6  7  1  0
  6  8  1  0
  8  9  1  0
  9 10  2  0
 10 11  1  0
 10 12  1  0
 12 13  1  0
 13 14  1  0
 14 15  1  0
 14 16  1  0
 14 17  1  0
 12 18  2  0
 18 19  1  0
 19 20  1  0
 20 21  1  0
 20 22  1  0
 20 23  1  0
 18 24  1  0
 24 25  1  0
 25 26  1  0
 26 27  1  0
 26 28  1  0
 26 29  1  0
 24 30  2  0
 30 31  1  0
  8 32  2  0
 32 33  1  0
 33 34  2  0
 34 35  1  0
 35 36  1  0
 35 37  1  0
 35 38  1  0
 38 39  1  0
 39 40  1  0
 39 41  1  0
 39 42  1  0
 42 43  1  0
 42 44  1  0
 42 45  1  0
 45 46  1  0
 45 47  1  0
 45 48  1  0
 48 49  1  0
 48 50  1  0
 48 51  1  0
 51 52  1  0
 51 53  1  0
 33 54  1  0
 54 55  1  0
  4 56  2  0
 56 57  1  0
 56 58  1  0
 58 59  1  0
 58  2  2  0
 54  5  1  0
 30  9  1  0
 51 38  1  0
M  END
>  <UniqueID>  (2) 
2

>  <SMILES>  (2) 
COc1cc(-c2cc(-c3ccco3)[nH]/c(=N/CN3CCCCC3)n2)cc(OC)c1OC

>  <Energy>  (2) 
102.56004849648133

>  <Genealogy>  (2) 
COc1cc(-c2cc(-c3ccco3)[nH]/c(=N/CN3CCCCC3)n2)cc(OC)c1OC (cis-trans isomerization)
COc1cc(-c2cc(-c3ccco3)[nH]/c(=N/CN3CCCCC3)n2)cc(OC)c1OC (3D coordinates assigned)
COc1cc(-c2cc(-c3ccco3)[nH]/c(=N/CN3CCCCC3)n2)cc(OC)c1OC (nonaromatic ring conformer: 102.56004849648133 kcal/mol)

>  <smiles>  (2) 
COc1cc(-c2cc(-c3ccco3)[nH]c(=NCN3CCCCC3)n2)cc(OC)c1OC

>  <score_type>  (2) 
oracle

>  <origin>  (2) 
adgpu

>  <m_score__min__energy>  (2) 
-9.1400000000000006

>  <m_primary>  (2) 
energy

$$$$
2:0
     RDKit          3D

 62 66  0  0  0  0  0  0  0  0999 V2000
   -2.7420   25.3010  -28.9740 O   0  0  0  0  0  0  0  0  0  0  0  0
   -2.9570   24.3360  -29.7530 C   0  0  0  0  0  0  0  0  0  0  0  0
   -3.9460   24.4880  -30.7790 N   0  0  0  0  0  0  0  0  0  0  0  0
   -4.9840   23.5430  -31.0630 C   0  0  0  0  0  0  0  0  0  0  0  0
   -6.2020   23.5640  -30.3620 C   0  0  0  0  0  0  0  0  0  0  0  0
   -7.1800   22.6030  -30.6230 C   0  0  0  0  0  0  0  0  0  0  0  0
   -6.9500   21.6080  -31.5830 C   0  0  0  0  0  0  0  0  0  0  0  0
   -8.1140   20.3090  -31.8260 S   0  0  0  0  0  0  0  0  0  0  0  0
   -9.2680   20.4380  -30.8760 O   0  0  0  0  0  0  0  0  0  0  0  0
   -8.6440   20.3860  -33.2300 O   0  0  0  0  0  0  0  0  0  0  0  0
   -7.3230   18.7860  -31.5860 N   0  0  0  0  0  0  0  0  0  0  0  0
   -6.4520   18.2020  -32.5720 C   0  0  0  0  0  0  0  0  0  0  0  0
   -5.7530   17.0220  -32.2670 C   0  0  0  0  0  0  0  0  0  0  0  0
   -4.9100   16.4310  -33.2180 C   0  0  0  0  0  0  0  0  0  0  0  0
   -4.7500   17.0190  -34.4750 C   0  0  0  0  0  0  0  0  0  0  0  0
   -5.4280   18.2030  -34.7830 C   0  0  0  0  0  0  0  0  0  0  0  0
   -6.2710   18.7950  -33.8370 C   0  0  0  0  0  0  0  0  0  0  0  0
   -5.7510   21.6090  -32.3090 C   0  0  0  0  0  0  0  0  0  0  0  0
   -4.7800   22.5820  -32.0590 C   0  0  0  0  0  0  0  0  0  0  0  0
   -2.1570   23.0950  -29.6160 C   0  0  0  0  0  0  0  0  0  0  0  0
   -2.7770   21.8400  -29.7220 C   0  0  0  0  0  0  0  0  0  0  0  0
   -2.0320   20.6660  -29.5790 C   0  0  0  0  0  0  0  0  0  0  0  0
   -0.6570   20.7300  -29.3190 C   0  0  0  0  0  0  0  0  0  0  0  0
    0.2860   19.2600  -29.0780 S   0  0  0  0  0  0  0  0  0  0  0  0
    1.2640   19.4610  -27.9540 O   0  0  0  0  0  0  0  0  0  0  0  0
   -0.6510   18.1500  -28.6930 O   0  0  0  0  0  0  0  0  0  0  0  0
    1.1250   18.8140  -30.5510 N   0  0  0  0  0  0  0  0  0  0  0  0
    0.6710   17.5280  -31.1110 C   0  0  0  0  0  0  0  0  0  0  0  0
   -0.7840   17.5770  -31.5980 C   0  0  0  0  0  0  0  0  0  0  0  0
   -1.0830   18.8300  -32.3750 C   0  0  0  0  0  0  0  0  0  0  0  0
   -2.2750   18.9110  -33.1120 C   0  0  0  0  0  0  0  0  0  0  0  0
   -2.6020   20.0800  -33.8020 C   0  0  0  0  0  0  0  0  0  0  0  0
   -1.7480   21.1810  -33.7520 C   0  0  0  0  0  0  0  0  0  0  0  0
   -0.5670   21.1190  -33.0110 C   0  0  0  0  0  0  0  0  0  0  0  0
   -0.2340   19.9550  -32.3020 C   0  0  0  0  0  0  0  0  0  0  0  0
    1.0770   19.8960  -31.5520 C   0  0  0  0  0  0  0  0  0  0  0  0
   -0.0340   21.9780  -29.2040 C   0  0  0  0  0  0  0  0  0  0  0  0
   -0.7770   23.1530  -29.3470 C   0  0  0  0  0  0  0  0  0  0  0  0
   -6.3852   24.3407  -29.6049 H   0  0  0  0  0  0  0  0  0  0  0  0
   -8.1331   22.6266  -30.0743 H   0  0  0  0  0  0  0  0  0  0  0  0
   -7.6490   18.2010  -30.7840 H   0  0  0  0  0  0  0  0  0  0  0  0
   -5.8681   16.5592  -31.2758 H   0  0  0  0  0  0  0  0  0  0  0  0
   -4.3733   15.5023  -32.9741 H   0  0  0  0  0  0  0  0  0  0  0  0
   -4.0915   16.5514  -35.2218 H   0  0  0  0  0  0  0  0  0  0  0  0
   -5.2980   18.6692  -35.7708 H   0  0  0  0  0  0  0  0  0  0  0  0
   -6.7962   19.7299  -34.0823 H   0  0  0  0  0  0  0  0  0  0  0  0
   -5.5741   20.8420  -33.0773 H   0  0  0  0  0  0  0  0  0  0  0  0
   -3.8510   22.5925  -32.6479 H   0  0  0  0  0  0  0  0  0  0  0  0
   -3.8575   21.7800  -29.9191 H   0  0  0  0  0  0  0  0  0  0  0  0
   -2.5273   19.6881  -29.6710 H   0  0  0  0  0  0  0  0  0  0  0  0
    1.3183   17.2656  -31.9608 H   0  0  0  0  0  0  0  0  0  0  0  0
    0.7290   16.7766  -30.3097 H   0  0  0  0  0  0  0  0  0  0  0  0
   -0.9704   16.7067  -32.2444 H   0  0  0  0  0  0  0  0  0  0  0  0
   -1.4363   17.5659  -30.7124 H   0  0  0  0  0  0  0  0  0  0  0  0
   -2.9560   18.0478  -33.1462 H   0  0  0  0  0  0  0  0  0  0  0  0
   -3.5333   20.1323  -34.3850 H   0  0  0  0  0  0  0  0  0  0  0  0
   -2.0057   22.1006  -34.2978 H   0  0  0  0  0  0  0  0  0  0  0  0
    0.1068   21.9880  -32.9827 H   0  0  0  0  0  0  0  0  0  0  0  0
    1.8882   19.7372  -32.2778 H   0  0  0  0  0  0  0  0  0  0  0  0
    1.1874   20.8473  -31.0109 H   0  0  0  0  0  0  0  0  0  0  0  0
    1.0455   22.0343  -29.0001 H   0  0  0  0  0  0  0  0  0  0  0  0
   -0.2799   24.1293  -29.2487 H   0  0  0  0  0  0  0  0  0  0  0  0
  1  2  2  0
  2  3  1  0
  3  4  1  0
  4  5  2  0
  5  6  1  0
  6  7  2  0
  7  8  1  0
  8  9  2  0
  8 10  2  0
  8 11  1  0
 11 12  1  0
 12 13  2  0
 13 14  1  0
 14 15  2  0
 15 16  1  0
 16 17  2  0
  7 18  1  0
 18 19  2  0
  2 20  1  0
 20 21  2  0
 21 22  1  0
 22 23  2  0
 23 24  1  0
 24 25  2  0
 24 26  2  0
 24 27  1  0
 27 28  1  0
 28 29  1  0
 29 30  1  0
 30 31  2  0
 31 32  1  0
 32 33  2  0
 33 34  1  0
 34 35  2  0
 35 36  1  0
 23 37  1  0
 37 38  2  0
 19  4  1  0
 38 20  1  0
 17 12  1  0
 36 27  1  0
 35 30  1  0
  5 39  1  0
  6 40  1  0
 11 41  1  0
 13 42  1  0
 14 43  1  0
 15 44  1  0
 16 45  1  0
 17 46  1  0
 18 47  1  0
 19 48  1  0
 21 49  1  0
 22 50  1  0
 28 51  1  0
 28 52  1  0
 29 53  1  0
 29 54  1  0
 31 55  1  0
 32 56  1  0
 33 57  1  0
 34 58  1  0
 36 59  1  0
 36 60  1  0
 37 61  1  0
 38 62  1  0
M  CHG  1   3  -1
M  END
>  <UniqueID>  (3) 
3

>  <SMILES>  (3) 
O=C([N-]c1ccc(S(=O)(=O)Nc2ccccc2)cc1)c1ccc(S(=O)(=O)N2CCc3ccccc3C2)cc1

>  <Energy>  (3) 
80.3902400405916

>  <Genealogy>  (3) 
O=C([N-]c1ccc(S(=O)(=O)Nc2ccccc2)cc1)c1ccc(S(=O)(=O)N2CCc3ccccc3C2)cc1 (protonated)
O=C([N-]c1ccc(S(=O)(=O)Nc2ccccc2)cc1)c1ccc(S(=O)(=O)N2CCc3ccccc3C2)cc1 (3D coordinates assigned)
O=C([N-]c1ccc(S(=O)(=O)Nc2ccccc2)cc1)c1ccc(S(=O)(=O)N2CCc3ccccc3C2)cc1 (nonaromatic ring conformer: 80.3902400405916 kcal/mol)

>  <smiles>  (3) 
O=C(Nc1ccc(S(=O)(=O)Nc2ccccc2)cc1)c1ccc(S(=O)(=O)N2CCc3ccccc3C2)cc1

>  <score_type>  (3) 
oracle

>  <origin>  (3) 
adgpu

>  <m_score__min__energy>  (3) 
-13.1

>  <m_primary>  (3) 
energy

$$$$
3:0
     RDKit          3D

 42 44  0  0  0  0  0  0  0  0999 V2000
    0.4380   19.1990  -28.2260 C   0  0  0  0  0  0  0  0  0  0  0  0
    0.3620   20.1670  -29.2690 O   0  0  0  0  0  0  0  0  0  0  0  0
   -0.8000   20.8770  -29.6050 C   0  0  0  0  0  0  0  0  0  0  0  0
   -1.1280   21.2050  -30.9330 C   0  0  0  0  0  0  0  0  0  0  0  0
   -2.3000   21.9140  -31.2150 C   0  0  0  0  0  0  0  0  0  0  0  0
   -3.1600   22.3130  -30.1800 C   0  0  0  0  0  0  0  0  0  0  0  0
   -4.3680   23.0390  -30.4770 N   0  0  0  0  0  0  0  0  0  0  0  0
   -5.5810   22.4980  -30.7220 C   0  0  0  0  0  0  0  0  0  0  0  0
   -6.4980   23.5020  -30.9770 C   0  0  0  0  0  0  0  0  0  0  0  0
   -7.9470   23.2960  -31.3380 C   0  0  1  0  0  0  0  0  0  0  0  0
   -8.1550   23.4220  -32.7220 O   0  0  0  0  0  0  0  0  0  0  0  0
   -8.4390   21.9930  -30.8520 N   0  0  0  0  0  0  0  0  0  0  0  0
   -8.9900   21.1070  -31.8950 C   0  0  0  0  0  0  0  0  0  0  0  0
   -8.0150   20.0390  -32.3290 C   0  0  0  0  0  0  0  0  0  0  0  0
   -8.2120   18.6990  -31.9620 C   0  0  0  0  0  0  0  0  0  0  0  0
   -7.3050   17.7210  -32.3750 C   0  0  0  0  0  0  0  0  0  0  0  0
   -6.2050   18.0920  -33.1500 C   0  0  0  0  0  0  0  0  0  0  0  0
   -6.0210   19.3940  -33.4930 N   0  0  0  0  0  0  0  0  0  0  0  0
   -6.8900   20.3650  -33.1040 C   0  0  0  0  0  0  0  0  0  0  0  0
   -5.8190   24.7060  -30.9010 C   0  0  0  0  0  0  0  0  0  0  0  0
   -4.5170   24.3770  -30.5940 C   0  0  0  0  0  0  0  0  0  0  0  0
   -3.4830   25.2970  -30.4640 O   0  0  0  0  0  0  0  0  0  0  0  0
   -2.8330   21.9780  -28.8550 C   0  0  0  0  0  0  0  0  0  0  0  0
   -1.6620   21.2680  -28.5730 C   0  0  0  0  0  0  0  0  0  0  0  0
    0.3981   19.7067  -27.2510 H   0  0  0  0  0  0  0  0  0  0  0  0
   -0.4081   18.5013  -28.3110 H   0  0  0  0  0  0  0  0  0  0  0  0
    1.3827   18.6419  -28.3110 H   0  0  0  0  0  0  0  0  0  0  0  0
   -0.4600   20.9026  -31.7529 H   0  0  0  0  0  0  0  0  0  0  0  0
   -2.5501   22.1612  -32.2573 H   0  0  0  0  0  0  0  0  0  0  0  0
   -5.8059   21.4212  -30.7192 H   0  0  0  0  0  0  0  0  0  0  0  0
   -8.5245   24.0870  -30.8372 H   0  0  0  0  0  0  0  0  0  0  0  0
   -7.2700   23.3080  -33.1580 H   0  0  0  0  0  0  0  0  0  0  0  0
   -9.1590   22.1590  -30.1100 H   0  0  0  0  0  0  0  0  0  0  0  0
   -9.8935   20.6190  -31.5006 H   0  0  0  0  0  0  0  0  0  0  0  0
   -9.2136   21.7290  -32.7743 H   0  0  0  0  0  0  0  0  0  0  0  0
   -9.0812   18.4189  -31.3488 H   0  0  0  0  0  0  0  0  0  0  0  0
   -7.4559   16.6687  -32.0924 H   0  0  0  0  0  0  0  0  0  0  0  0
   -5.4860   17.3293  -33.4836 H   0  0  0  0  0  0  0  0  0  0  0  0
   -6.7111   21.4099  -33.3975 H   0  0  0  0  0  0  0  0  0  0  0  0
   -6.2324   25.7139  -31.0537 H   0  0  0  0  0  0  0  0  0  0  0  0
   -3.5024   22.2762  -28.0347 H   0  0  0  0  0  0  0  0  0  0  0  0
   -1.4157   21.0143  -27.5314 H   0  0  0  0  0  0  0  0  0  0  0  0
  1  2  1  0
  2  3  1  0
  3  4  2  0
  4  5  1  0
  5  6  2  0
  6  7  1  0
  7  8  1  0
  8  9  2  0
  9 10  1  0
 10 11  1  0
 10 12  1  0
 12 13  1  0
 13 14  1  0
 14 15  2  0
 15 16  1  0
 16 17  2  0
 17 18  1  0
 18 19  2  0
  9 20  1  0
 20 21  2  0
 21 22  1  0
  6 23  1  0
 23 24  2  0
 24  3  1  0
 21  7  1  0
 19 14  1  0
  1 25  1  0
  1 26  1  0
  1 27  1  0
  4 28  1  0
  5 29  1  0
  8 30  1  0
 10 31  1  1
 11 32  1  0
 12 33  1  0
 13 34  1  0
 13 35  1  0
 15 36  1  0
 16 37  1  0
 17 38  1  0
 19 39  1  0
 20 40  1  0
 23 41  1  0
 24 42  1  0
M  CHG  1  22  -1
M  END
>  <UniqueID>  (4) 
4

>  <SMILES>  (4) 
COc1ccc(-n2cc([C@@H](O)NCc3cccnc3)cc2[O-])cc1

>  <Energy>  (4) 
78.72739694062727

>  <Genealogy>  (4) 
COc1ccc(-n2cc(C(O)NCc3cccnc3)cc2[O-])cc1 (protonated)
COc1ccc(-n2cc([C@@H](O)NCc3cccnc3)cc2[O-])cc1 (chirality)
COc1ccc(-n2cc([C@@H](O)NCc3cccnc3)cc2[O-])cc1 (3D coordinates assigned)
COc1ccc(-n2cc([C@@H](O)NCc3cccnc3)cc2[O-])cc1 (optimized conformer: 78.72739694062727 kcal/mol)

>  <smiles>  (4) 
COc1ccc(-n2cc(C(O)NCc3cccnc3)cc2O)cc1

>  <score_type>  (4) 
oracle

>  <origin>  (4) 
adgpu

>  <m_score__min__energy>  (4) 
-10.300000000000001

>  <m_primary>  (4) 
energy

$$$$
4:0
     RDKit          3D

 51 55  0  0  0  0  0  0  0  0999 V2000
   -2.1880   25.4270  -28.9430 O   0  0  0  0  0  0  0  0  0  0  0  0
   -2.8000   24.5450  -29.6030 C   0  0  0  0  0  0  0  0  0  0  0  0
   -3.8820   24.8650  -30.4760 N   0  0  0  0  0  0  0  0  0  0  0  0
   -4.2660   23.6050  -31.0020 C   0  0  0  0  0  0  0  0  0  0  0  0
   -5.2960   23.3920  -31.9150 C   0  0  0  0  0  0  0  0  0  0  0  0
   -5.5540   22.0800  -32.3420 C   0  0  0  0  0  0  0  0  0  0  0  0
   -4.7830   20.9950  -31.8540 C   0  0  0  0  0  0  0  0  0  0  0  0
   -5.0640   19.6100  -32.3100 C   0  0  0  0  0  0  0  0  0  0  0  0
   -4.1780   18.9500  -33.1730 C   0  0  0  0  0  0  0  0  0  0  0  0
   -4.4390   17.6470  -33.6050 C   0  0  0  0  0  0  0  0  0  0  0  0
   -5.6040   16.9560  -33.1920 C   0  0  0  0  0  0  0  0  0  0  0  0
   -5.8810   15.5910  -33.6460 N   0  0  0  0  0  0  0  0  0  0  0  0
   -4.9150   14.5190  -33.2990 C   0  0  0  0  0  0  0  0  0  0  0  0
   -5.2190   13.1420  -33.8970 C   0  0  0  0  0  0  0  0  0  0  0  0
   -6.7080   12.8590  -33.9090 C   0  0  0  0  0  0  0  0  0  0  0  0
   -7.3750   13.8820  -34.8060 C   0  0  0  0  0  0  0  0  0  0  0  0
   -7.1990   15.3040  -34.2650 C   0  0  0  0  0  0  0  0  0  0  0  0
   -6.4820   17.6330  -32.3130 C   0  0  0  0  0  0  0  0  0  0  0  0
   -6.2160   18.9360  -31.8830 C   0  0  0  0  0  0  0  0  0  0  0  0
   -3.7470   21.2460  -30.9290 C   0  0  0  0  0  0  0  0  0  0  0  0
   -3.5070   22.5610  -30.5180 C   0  0  0  0  0  0  0  0  0  0  0  0
   -2.4730   23.0720  -29.5580 C   0  0  0  0  0  0  0  0  0  0  0  0
   -1.0370   22.7850  -29.9920 C   0  0  0  0  0  0  0  0  0  0  0  0
   -0.2200   22.7640  -28.7040 C   0  0  0  0  0  0  0  0  0  0  0  0
   -1.2050   22.5800  -27.5450 C   0  0  0  0  0  0  0  0  0  0  0  0
   -2.6030   22.4930  -28.1500 C   0  0  0  0  0  0  0  0  0  0  0  0
   -5.8944   24.2339  -32.2933 H   0  0  0  0  0  0  0  0  0  0  0  0
   -6.3631   21.8917  -33.0630 H   0  0  0  0  0  0  0  0  0  0  0  0
   -3.2670   19.4637  -33.5139 H   0  0  0  0  0  0  0  0  0  0  0  0
   -3.7262   17.1487  -34.2785 H   0  0  0  0  0  0  0  0  0  0  0  0
   -3.9210   14.8305  -33.6523 H   0  0  0  0  0  0  0  0  0  0  0  0
   -4.9777   14.3961  -32.2077 H   0  0  0  0  0  0  0  0  0  0  0  0
   -4.8404   13.1089  -34.9293 H   0  0  0  0  0  0  0  0  0  0  0  0
   -4.7273   12.3792  -33.2754 H   0  0  0  0  0  0  0  0  0  0  0  0
   -6.8918   11.8464  -34.2974 H   0  0  0  0  0  0  0  0  0  0  0  0
   -7.1160   12.9228  -32.8895 H   0  0  0  0  0  0  0  0  0  0  0  0
   -6.9274   13.8234  -35.8091 H   0  0  0  0  0  0  0  0  0  0  0  0
   -8.4513   13.6581  -34.8432 H   0  0  0  0  0  0  0  0  0  0  0  0
   -7.3413   16.0050  -35.1006 H   0  0  0  0  0  0  0  0  0  0  0  0
   -7.9421   15.4168  -33.4618 H   0  0  0  0  0  0  0  0  0  0  0  0
   -7.3915   17.1240  -31.9612 H   0  0  0  0  0  0  0  0  0  0  0  0
   -6.9188   19.4380  -31.2018 H   0  0  0  0  0  0  0  0  0  0  0  0
   -3.1369   20.4189  -30.5369 H   0  0  0  0  0  0  0  0  0  0  0  0
   -0.9764   21.8122  -30.5019 H   0  0  0  0  0  0  0  0  0  0  0  0
   -0.6651   23.5407  -30.6996 H   0  0  0  0  0  0  0  0  0  0  0  0
    0.4963   21.9295  -28.7258 H   0  0  0  0  0  0  0  0  0  0  0  0
    0.3494   23.6980  -28.5877 H   0  0  0  0  0  0  0  0  0  0  0  0
   -0.9734   21.6548  -26.9969 H   0  0  0  0  0  0  0  0  0  0  0  0
   -1.1372   23.4200  -26.8381 H   0  0  0  0  0  0  0  0  0  0  0  0
   -2.9389   21.4464  -28.1938 H   0  0  0  0  0  0  0  0  0  0  0  0
   -3.3434   23.0414  -27.5491 H   0  0  0  0  0  0  0  0  0  0  0  0
  1  2  2  0
  2  3  1  0
  3  4  1  0
  4  5  2  0
  5  6  1  0
  6  7  2  0
  7  8  1  0
  8  9  2  0
  9 10  1  0
 10 11  2  0
 11 12  1  0
 12 13  1  0
 13 14  1  0
 14 15  1  0
 15 16  1  0
 16 17  1  0
 11 18  1  0
 18 19  2  0
  7 20  1  0
 20 21  2  0
 21 22  1  0
 22 23  1  0
 23 24  1  0
 24 25  1  0
 25 26  1  0
 22  2  1  0
 21  4  1  0
 26 22  1  0
 19  8  1  0
 17 12  1  0
  5 27  1  0
  6 28  1  0
  9 29  1  0
 10 30  1  0
 13 31  1  0
 13 32  1  0
 14 33  1  0
 14 34  1  0
 15 35  1  0
 15 36  1  0
 16 37  1  0
 16 38  1  0
 17 39  1  0
 17 40  1  0
 18 41  1  0
 19 42  1  0
 20 43  1  0
 23 44  1  0
 23 45  1  0
 24 46  1  0
 24 47  1  0
 25 48  1  0
 25 49  1  0
 26 50  1  0
 26 51  1  0
M  CHG  1   3  -1
M  END
>  <UniqueID>  (5) 
5

>  <SMILES>  (5) 
O=C1[N-]c2ccc(-c3ccc(N4CCCCC4)cc3)cc2C12CCCC2

>  <Energy>  (5) 
86.65609886228243

>  <Genealogy>  (5) 
O=C1[N-]c2ccc(-c3ccc(N4CCCCC4)cc3)cc2C12CCCC2 (protonated)
O=C1[N-]c2ccc(-c3ccc(N4CCCCC4)cc3)cc2C12CCCC2 (3D coordinates assigned)
O=C1[N-]c2ccc(-c3ccc(N4CCCCC4)cc3)cc2C12CCCC2 (nonaromatic ring conformer: 86.65609886228243 kcal/mol)

>  <smiles>  (5) 
O=C1Nc2ccc(-c3ccc(N4CCCCC4)cc3)cc2C12CCCC2

>  <score_type>  (5) 
oracle

>  <origin>  (5) 
adgpu

>  <m_score__min__energy>  (5) 
-10.24

>  <m_primary>  (5) 
energy

$$$$
5:0
     RDKit          3D

 36 37  0  0  0  0  0  0  0  0999 V2000
   -5.5060   25.6710  -30.5410 C   0  0  0  0  0  0  0  0  0  0  0  0
   -4.2900   24.9940  -30.8410 O   0  0  0  0  0  0  0  0  0  0  0  0
   -3.7560   23.9410  -30.0830 C   0  0  0  0  0  0  0  0  0  0  0  0
   -2.9860   24.1670  -28.9250 C   0  0  0  0  0  0  0  0  0  0  0  0
   -2.4900   23.0890  -28.1860 C   0  0  0  0  0  0  0  0  0  0  0  0
   -2.7560   21.7800  -28.5920 C   0  0  0  0  0  0  0  0  0  0  0  0
   -3.5170   21.5440  -29.7380 C   0  0  0  0  0  0  0  0  0  0  0  0
   -4.0140   22.6190  -30.4880 C   0  0  0  0  0  0  0  0  0  0  0  0
   -4.8280   22.3590  -31.6360 N   0  0  0  0  0  0  0  0  0  0  0  0
   -4.2230   22.2940  -32.9630 C   0  0  0  0  0  0  0  0  0  0  0  0
   -6.5500   22.4910  -31.4730 S   0  0  0  0  0  0  0  0  0  0  0  0
   -6.9060   22.9120  -30.0740 O   0  0  0  0  0  0  0  0  0  0  0  0
   -7.0630   23.5340  -32.4260 O   0  0  0  0  0  0  0  0  0  0  0  0
   -7.2910   20.9310  -31.8170 C   0  0  0  0  0  0  0  0  0  0  0  0
   -6.6600   19.7230  -32.0390 C   0  0  0  0  0  0  0  0  0  0  0  0
   -5.1930   19.4530  -31.9750 C   0  0  0  0  0  0  0  0  0  0  0  0
   -7.5820   18.7890  -32.3470 N   0  0  0  0  0  0  0  0  0  0  0  0
   -8.7420   19.3790  -32.3330 O   0  0  0  0  0  0  0  0  0  0  0  0
   -8.6260   20.6520  -32.0340 C   0  0  0  0  0  0  0  0  0  0  0  0
   -9.7750   21.6030  -31.9560 C   0  0  0  0  0  0  0  0  0  0  0  0
   -5.6282   25.7391  -29.4499 H   0  0  0  0  0  0  0  0  0  0  0  0
   -5.4777   26.6832  -30.9706 H   0  0  0  0  0  0  0  0  0  0  0  0
   -6.3515   25.1138  -30.9706 H   0  0  0  0  0  0  0  0  0  0  0  0
   -2.7741   25.1966  -28.6008 H   0  0  0  0  0  0  0  0  0  0  0  0
   -1.8891   23.2724  -27.2831 H   0  0  0  0  0  0  0  0  0  0  0  0
   -2.3654   20.9336  -28.0080 H   0  0  0  0  0  0  0  0  0  0  0  0
   -3.7274   20.5115  -30.0536 H   0  0  0  0  0  0  0  0  0  0  0  0
   -3.1337   22.1770  -32.8640 H   0  0  0  0  0  0  0  0  0  0  0  0
   -4.6356   21.4350  -33.5124 H   0  0  0  0  0  0  0  0  0  0  0  0
   -4.4438   23.2210  -33.5124 H   0  0  0  0  0  0  0  0  0  0  0  0
   -4.8764   19.3947  -30.9231 H   0  0  0  0  0  0  0  0  0  0  0  0
   -4.9734   18.4994  -32.4774 H   0  0  0  0  0  0  0  0  0  0  0  0
   -4.6483   20.2660  -32.4774 H   0  0  0  0  0  0  0  0  0  0  0  0
  -10.0154   21.8019  -30.9012 H   0  0  0  0  0  0  0  0  0  0  0  0
   -9.5053   22.5456  -32.4547 H   0  0  0  0  0  0  0  0  0  0  0  0
  -10.6506   21.1618  -32.4547 H   0  0  0  0  0  0  0  0  0  0  0  0
  1  2  1  0
  2  3  1  0
  3  4  2  0
  4  5  1  0
  5  6  2  0
  6  7  1  0
  7  8  2  0
  8  9  1  0
  9 10  1  0
  9 11  1  0
 11 12  2  0
 11 13  2  0
 11 14  1  0
 14 15  1  0
 15 16  1  0
 15 17  2  0
 17 18  1  0
 18 19  1  0
 19 20  1  0
  8  3  1  0
 19 14  2  0
  1 21  1  0
  1 22  1  0
  1 23  1  0
  4 24  1  0
  5 25  1  0
  6 26  1  0
  7 27  1  0
 10 28  1  0
 10 29  1  0
 10 30  1  0
 16 31  1  0
 16 32  1  0
 16 33  1  0
 20 34  1  0
 20 35  1  0
 20 36  1  0
M  END
>  <UniqueID>  (6) 
6

>  <SMILES>  (6) 
COc1ccccc1N(C)S(=O)(=O)c1c(C)noc1C

>  <Energy>  (6) 
68.03978714258633

>  <Genealogy>  (6) 
COc1ccccc1N(C)S(=O)(=O)c1c(C)noc1C (3D coordinates assigned)
COc1ccccc1N(C)S(=O)(=O)c1c(C)noc1C (optimized conformer: 68.03978714258633 kcal/mol)

>  <smiles>  (6) 
COc1ccccc1N(C)S(=O)(=O)c1c(C)noc1C

>  <score_type>  (6) 
oracle

>  <origin>  (6) 
adgpu

>  <m_score__min__energy>  (6) 
-7.2000000000000002

>  <m_primary>  (6) 
energy

$$$$
6:0
     RDKit          3D

 40 42  0  0  0  0  0  0  0  0999 V2000
   -6.0469   26.3055  -31.2836 H   0  0  0  0  0  0  0  0  0  0  0  0
   -5.5310   25.4480  -30.8270 C   0  0  0  0  0  0  0  0  0  0  0  0
   -4.2460   25.5780  -30.3990 N   0  0  0  0  0  0  0  0  0  0  0  0
   -3.5630   24.5490  -29.8270 C   0  0  0  0  0  0  0  0  0  0  0  0
   -2.3310   24.7550  -29.4570 N   0  0  0  0  0  0  0  0  0  0  0  0
   -1.2550   23.5920  -28.7430 S   0  0  0  0  0  0  0  0  0  0  0  0
    0.1210   24.1870  -28.6460 O   0  0  0  0  0  0  0  0  0  0  0  0
   -1.7330   23.2550  -27.3580 O   0  0  0  0  0  0  0  0  0  0  0  0
   -1.1830   22.1550  -29.7570 C   0  0  0  0  0  0  0  0  0  0  0  0
   -1.1590   20.8760  -29.1850 C   0  0  0  0  0  0  0  0  0  0  0  0
   -1.1054   20.7645  -28.0920 H   0  0  0  0  0  0  0  0  0  0  0  0
   -1.2030   19.7420  -30.0000 C   0  0  0  0  0  0  0  0  0  0  0  0
   -1.1789   18.7399  -29.5471 H   0  0  0  0  0  0  0  0  0  0  0  0
   -1.2780   19.8780  -31.3970 C   0  0  0  0  0  0  0  0  0  0  0  0
   -1.3870   18.7330  -32.2530 N   0  0  0  0  0  0  0  0  0  0  0  0
   -2.2650   18.6270  -33.3840 C   0  0  0  0  0  0  0  0  0  0  0  0
   -1.7900   18.2340  -34.4820 O   0  0  0  0  0  0  0  0  0  0  0  0
   -3.6960   19.0070  -33.3030 C   0  0  0  0  0  0  0  0  0  0  0  0
   -4.6950   18.0330  -33.4700 C   0  0  0  0  0  0  0  0  0  0  0  0
   -4.4128   16.9893  -33.6727 H   0  0  0  0  0  0  0  0  0  0  0  0
   -6.0460   18.3830  -33.3800 C   0  0  0  0  0  0  0  0  0  0  0  0
   -6.8208   17.6125  -33.5060 H   0  0  0  0  0  0  0  0  0  0  0  0
   -6.4170   19.7110  -33.1300 C   0  0  0  0  0  0  0  0  0  0  0  0
   -7.7990   20.0660  -33.0300 N   0  0  0  0  0  0  0  0  0  0  0  0
   -8.4300   19.9990  -33.8590 H   0  0  0  0  0  0  0  0  0  0  0  0
   -8.2010   20.4000  -32.1250 H   0  0  0  0  0  0  0  0  0  0  0  0
   -5.4270   20.6890  -32.9810 C   0  0  0  0  0  0  0  0  0  0  0  0
   -5.7130   21.7336  -32.7885 H   0  0  0  0  0  0  0  0  0  0  0  0
   -4.0760   20.3430  -33.0760 C   0  0  0  0  0  0  0  0  0  0  0  0
   -3.3045   21.1203  -32.9726 H   0  0  0  0  0  0  0  0  0  0  0  0
   -1.2430   21.1550  -31.9670 C   0  0  0  0  0  0  0  0  0  0  0  0
   -1.2430   21.2670  -33.0613 H   0  0  0  0  0  0  0  0  0  0  0  0
   -1.2080   22.2890  -31.1510 C   0  0  0  0  0  0  0  0  0  0  0  0
   -1.2001   23.2908  -31.6053 H   0  0  0  0  0  0  0  0  0  0  0  0
   -4.2100   23.3070  -29.6630 C   0  0  0  0  0  0  0  0  0  0  0  0
   -3.6812   22.4642  -29.1938 H   0  0  0  0  0  0  0  0  0  0  0  0
   -5.5280   23.1550  -30.1010 C   0  0  0  0  0  0  0  0  0  0  0  0
   -6.0392   22.1882  -29.9830 H   0  0  0  0  0  0  0  0  0  0  0  0
   -6.1950   24.2300  -30.6880 C   0  0  0  0  0  0  0  0  0  0  0  0
   -7.2322   24.1183  -31.0370 H   0  0  0  0  0  0  0  0  0  0  0  0
  1  2  1  0
  2  3  1  0
  3  4  1  0
  4  5  2  0
  5  6  1  0
  6  7  2  0
  6  8  2  0
  6  9  1  0
  9 10  2  0
 10 11  1  0
 10 12  1  0
 12 13  1  0
 12 14  2  0
 14 15  1  0
 15 16  1  0
 16 17  2  0
 16 18  1  0
 18 19  2  0
 19 20  1  0
 19 21  1  0
 21 22  1  0
 21 23  2  0
 23 24  1  0
 24 25  1  0
 24 26  1  0
 23 27  1  0
 27 28  1  0
 27 29  2  0
 29 30  1  0
 14 31  1  0
 31 32  1  0
 31 33  2  0
 33 34  1  0
  4 35  1  0
 35 36  1  0
 35 37  2  0
 37 38  1  0
 37 39  1  0
 39 40  1  0
 39  2  2  0
 33  9  1  0
 29 18  1  0
M  CHG  2   3  -1  15  -1
M  END
>  <UniqueID>  (7) 
7

>  <SMILES>  (7) 
Nc1ccc(C(=O)[N-]c2ccc(S(=O)(=O)/N=c3\cccc[n-]3)cc2)cc1

>  <Energy>  (7) 
54.24496823930858

>  <Genealogy>  (7) 
Nc1ccc(C(=O)[N-]c2ccc(S(=O)(=O)N=c3cccc[n-]3)cc2)cc1 (protonated)
Nc1ccc(C(=O)[N-]c2ccc(S(=O)(=O)/N=c3\cccc[n-]3)cc2)cc1 (cis-trans isomerization)
Nc1ccc(C(=O)[N-]c2ccc(S(=O)(=O)/N=c3\cccc[n-]3)cc2)cc1 (3D coordinates assigned)
Nc1ccc(C(=O)[N-]c2ccc(S(=O)(=O)/N=c3\cccc[n-]3)cc2)cc1 (optimized conformer: 54.24496823930858 kcal/mol)

>  <smiles>  (7) 
Nc1ccc(C(=O)Nc2ccc(S(=O)(=O)N=c3cccc[nH]3)cc2)cc1

>  <score_type>  (7) 
oracle

>  <origin>  (7) 
adgpu

>  <m_score__min__energy>  (7) 
-10.460000000000001

>  <m_primary>  (7) 
energy

$$$$
7:0
     RDKit          3D

 41 43  0  0  1  0  0  0  0  0999 V2000
   -0.4550   27.7610  -24.1570 C   0  0  0  0  0  0  0  0  0  0  0  0
   -0.1690   26.7590  -25.2290 C   0  0  0  0  0  0  0  0  0  0  0  0
    0.8880   25.8630  -25.1150 C   0  0  0  0  0  0  0  0  0  0  0  0
    1.0880   24.9650  -26.1510 C   0  0  0  0  0  0  0  0  0  0  0  0
    0.2620   24.9630  -27.2570 C   0  0  0  0  0  0  0  0  0  0  0  0
    0.5150   23.9790  -28.3470 C   0  0  0  0  0  0  0  0  0  0  0  0
   -0.7970   25.8570  -27.3760 C   0  0  0  0  0  0  0  0  0  0  0  0
   -1.6170   25.8100  -28.5410 N   0  0  0  0  0  0  0  0  0  0  0  0
   -2.5050   24.9150  -28.6990 C   0  0  0  0  0  0  0  0  0  0  0  0
   -2.7360   23.9310  -27.7620 C   0  0  0  0  0  0  0  0  0  0  0  0
   -3.7260   23.0070  -28.0350 C   0  0  0  0  0  0  0  0  0  0  0  0
   -4.4620   23.0270  -29.1600 N   0  0  0  0  0  0  0  0  0  0  0  0
   -4.1910   24.0100  -30.0400 C   0  0  0  0  0  0  0  0  0  0  0  0
   -4.8600   24.0890  -31.1400 N   0  0  0  0  0  0  0  0  0  0  0  0
   -5.8830   23.1940  -31.5040 C   0  0  0  0  0  0  0  0  0  0  0  0
   -5.5570   21.9940  -32.0710 C   0  0  0  0  0  0  0  0  0  0  0  0
   -6.4820   21.0540  -32.4610 C   0  0  0  0  0  0  0  0  0  0  0  0
   -7.8170   21.3250  -32.2740 C   0  0  0  0  0  0  0  0  0  0  0  0
   -8.7560   20.3220  -32.6920 C   0  0  0  0  0  0  0  0  0  0  0  0
   -9.5190   19.5190  -33.0130 N   0  0  0  0  0  0  0  0  0  0  0  0
   -8.2010   22.5240  -31.7050 C   0  0  0  0  0  0  0  0  0  0  0  0
   -7.2350   23.4570  -31.3190 C   0  0  0  0  0  0  0  0  0  0  0  0
   -3.2380   24.9310  -29.8150 N   0  0  0  0  0  0  0  0  0  0  0  0
   -1.0010   26.7540  -26.3470 C   0  0  0  0  0  0  0  0  0  0  0  0
   -0.3210   27.2917  -23.1712 H   0  0  0  0  0  0  0  0  0  0  0  0
    0.2365   28.6108  -24.2555 H   0  0  0  0  0  0  0  0  0  0  0  0
   -1.4909   28.1178  -24.2555 H   0  0  0  0  0  0  0  0  0  0  0  0
    1.5436   25.8669  -24.2317 H   0  0  0  0  0  0  0  0  0  0  0  0
    1.9164   24.2437  -26.0913 H   0  0  0  0  0  0  0  0  0  0  0  0
    0.7662   23.0021  -27.9081 H   0  0  0  0  0  0  0  0  0  0  0  0
   -0.3871   23.8806  -28.9688 H   0  0  0  0  0  0  0  0  0  0  0  0
    1.3527   24.3279  -28.9688 H   0  0  0  0  0  0  0  0  0  0  0  0
   -2.1531   23.8831  -26.8304 H   0  0  0  0  0  0  0  0  0  0  0  0
   -3.9217   22.2162  -27.2958 H   0  0  0  0  0  0  0  0  0  0  0  0
   -5.2120   22.3370  -29.3800 H   0  0  0  0  0  0  0  0  0  0  0  0
   -4.4918   21.7666  -32.2245 H   0  0  0  0  0  0  0  0  0  0  0  0
   -6.1603   20.1044  -32.9135 H   0  0  0  0  0  0  0  0  0  0  0  0
   -9.2683   22.7444  -31.5557 H   0  0  0  0  0  0  0  0  0  0  0  0
   -7.5477   24.4086  -30.8644 H   0  0  0  0  0  0  0  0  0  0  0  0
   -3.0690   25.6740  -30.5310 H   0  0  0  0  0  0  0  0  0  0  0  0
   -1.8304   27.4737  -26.4102 H   0  0  0  0  0  0  0  0  0  0  0  0
  1  2  1  0
  2  3  2  0
  3  4  1  0
  4  5  2  0
  5  6  1  0
  5  7  1  0
  7  8  1  0
  8  9  2  0
  9 10  1  0
 10 11  2  0
 11 12  1  0
 12 13  1  0
 13 14  2  0
 14 15  1  0
 15 16  2  0
 16 17  1  0
 17 18  2  0
 18 19  1  0
 19 20  3  0
 18 21  1  0
 21 22  2  0
 13 23  1  0
  7 24  2  0
 24  2  1  0
 23  9  1  0
 22 15  1  0
  1 25  1  0
  1 26  1  0
  1 27  1  0
  3 28  1  0
  4 29  1  0
  6 30  1  0
  6 31  1  0
  6 32  1  0
 10 33  1  0
 11 34  1  0
 12 35  1  0
 16 36  1  0
 17 37  1  0
 21 38  1  0
 22 39  1  0
 23 40  1  0
 24 41  1  0
M  END
>  <smiles>  (8) 
Cc1ccc(C)c(N=c2cc[nH]c(=Nc3ccc(C#N)cc3)[nH]2)c1

>  <score_type>  (8) 
oracle

>  <origin>  (8) 
adgpu

>  <m_score__min__energy>  (8) 
-9.1699999999999999

>  <m_primary>  (8) 
energy

$$$$
8:0
     RDKit          3D

 39 41  0  0  0  0  0  0  0  0999 V2000
   -3.2544   21.9939  -29.5585 H   0  0  0  0  0  0  0  0  0  0  0  0
   -3.8140   22.9320  -29.4290 C   0  0  0  0  0  0  0  0  0  0  0  0
   -4.8370   23.1740  -30.2600 C   0  0  0  0  0  0  0  0  0  0  0  0
   -5.3947   24.1172  -30.1636 H   0  0  0  0  0  0  0  0  0  0  0  0
   -5.2350   22.2040  -31.3040 C   0  0  0  0  0  0  0  0  0  0  0  0
   -4.2300   21.7150  -32.1500 C   0  0  0  0  0  0  0  0  0  0  0  0
   -3.1852   22.0238  -31.9983 H   0  0  0  0  0  0  0  0  0  0  0  0
   -4.5540   20.8380  -33.1830 C   0  0  0  0  0  0  0  0  0  0  0  0
   -3.7652   20.4667  -33.8538 H   0  0  0  0  0  0  0  0  0  0  0  0
   -5.8380   20.4400  -33.3650 N   0  0  0  0  0  0  0  0  0  0  0  0
   -6.8420   20.8630  -32.5530 C   0  0  0  0  0  0  0  0  0  0  0  0
   -8.1460   20.4010  -32.7710 C   0  0  0  0  0  0  0  0  0  0  0  0
   -8.3547   19.7248  -33.6132 H   0  0  0  0  0  0  0  0  0  0  0  0
   -9.1810   20.7960  -31.9230 C   0  0  0  0  0  0  0  0  0  0  0  0
  -10.2057   20.4393  -32.1041 H   0  0  0  0  0  0  0  0  0  0  0  0
   -8.9180   21.6440  -30.8440 C   0  0  0  0  0  0  0  0  0  0  0  0
   -9.7348   21.9422  -30.1702 H   0  0  0  0  0  0  0  0  0  0  0  0
   -7.6220   22.1150  -30.6170 C   0  0  0  0  0  0  0  0  0  0  0  0
   -7.4222   22.7735  -29.7588 H   0  0  0  0  0  0  0  0  0  0  0  0
   -6.5680   21.7510  -31.4820 C   0  0  0  0  0  0  0  0  0  0  0  0
   -3.3900   23.8520  -28.3450 C   0  0  0  0  0  0  0  0  0  0  0  0
   -4.2250   24.1900  -27.2640 C   0  0  0  0  0  0  0  0  0  0  0  0
   -5.2396   23.7689  -27.2063 H   0  0  0  0  0  0  0  0  0  0  0  0
   -3.7760   25.0570  -26.2620 C   0  0  0  0  0  0  0  0  0  0  0  0
   -4.4414   25.3154  -25.4251 H   0  0  0  0  0  0  0  0  0  0  0  0
   -2.4790   25.6010  -26.3170 C   0  0  0  0  0  0  0  0  0  0  0  0
   -1.9790   26.4940  -25.3010 N   0  0  0  0  0  0  0  0  0  0  0  0
   -2.6510   27.1530  -24.8460 H   0  0  0  0  0  0  0  0  0  0  0  0
   -0.5850   26.5590  -24.8600 C   0  0  0  0  0  0  0  0  0  0  0  0
   -0.0839   27.3956  -25.3689 H   0  0  0  0  0  0  0  0  0  0  0  0
   -0.0903   25.6088  -25.1100 H   0  0  0  0  0  0  0  0  0  0  0  0
   -0.5060   26.7710  -23.3510 C   0  0  0  0  0  0  0  0  0  0  0  0
   -0.8452   25.8609  -22.8346 H   0  0  0  0  0  0  0  0  0  0  0  0
    0.5337   26.9889  -23.0653 H   0  0  0  0  0  0  0  0  0  0  0  0
   -1.1496   27.6161  -23.0653 H   0  0  0  0  0  0  0  0  0  0  0  0
   -1.6420   25.2450  -27.3840 C   0  0  0  0  0  0  0  0  0  0  0  0
   -0.6215   25.6524  -27.4341 H   0  0  0  0  0  0  0  0  0  0  0  0
   -2.0900   24.3780  -28.3850 C   0  0  0  0  0  0  0  0  0  0  0  0
   -1.4171   24.1058  -29.2115 H   0  0  0  0  0  0  0  0  0  0  0  0
  1  2  1  0
  2  3  2  0
  3  4  1  0
  3  5  1  0
  5  6  2  0
  6  7  1  0
  6  8  1  0
  8  9  1  0
  8 10  2  0
 10 11  1  0
 11 12  2  0
 12 13  1  0
 12 14  1  0
 14 15  1  0
 14 16  2  0
 16 17  1  0
 16 18  1  0
 18 19  1  0
 18 20  2  0
  2 21  1  0
 21 22  2  0
 22 23  1  0
 22 24  1  0
 24 25  1  0
 24 26  2  0
 26 27  1  0
 27 28  1  0
 27 29  1  0
 29 30  1  0
 29 31  1  0
 29 32  1  0
 32 33  1  0
 32 34  1  0
 32 35  1  0
 26 36  1  0
 36 37  1  0
 36 38  2  0
 38 39  1  0
 20  5  1  0
 38 21  1  0
 20 11  1  0
M  END
>  <UniqueID>  (9) 
8

>  <SMILES>  (9) 
CCNc1ccc(/C=C/c2ccnc3ccccc23)cc1

>  <Energy>  (9) 
51.81905571874826

>  <Genealogy>  (9) 
CCNc1ccc(/C=C/c2ccnc3ccccc23)cc1 (cis-trans isomerization)
CCNc1ccc(/C=C/c2ccnc3ccccc23)cc1 (3D coordinates assigned)
CCNc1ccc(/C=C/c2ccnc3ccccc23)cc1 (optimized conformer: 51.81905571874826 kcal/mol)

>  <smiles>  (9) 
CCNc1ccc(C=Cc2ccnc3ccccc23)cc1

>  <score_type>  (9) 
oracle

>  <origin>  (9) 
adgpu

>  <m_score__min__energy>  (9) 
-7.8200000000000003

>  <m_primary>  (9) 
energy

$$$$
9:0
     RDKit          3D

 29 30  0  0  0  0  0  0  0  0999 V2000
   -3.8580   25.6750  -30.7540 O   0  0  0  0  0  0  0  0  0  0  0  0
   -3.6030   24.5250  -30.0140 C   0  0  0  0  0  0  0  0  0  0  0  0
   -2.3800   24.3980  -29.3470 C   0  0  0  0  0  0  0  0  0  0  0  0
   -2.1070   23.2590  -28.5870 C   0  0  0  0  0  0  0  0  0  0  0  0
   -3.0610   22.2380  -28.4850 C   0  0  0  0  0  0  0  0  0  0  0  0
   -2.8030   21.1000  -27.7240 O   0  0  0  0  0  0  0  0  0  0  0  0
   -4.2840   22.3600  -29.1520 C   0  0  0  0  0  0  0  0  0  0  0  0
   -4.5610   23.4960  -29.9320 C   0  0  0  0  0  0  0  0  0  0  0  0
   -5.8990   23.6240  -30.6150 C   0  0  0  0  0  0  0  0  0  0  0  0
   -5.8820   22.9090  -31.9700 C   0  0  0  0  0  0  0  0  0  0  0  0
   -7.0140   21.9210  -32.0610 C   0  0  0  0  0  0  0  0  0  0  0  0
   -8.3050   22.2810  -31.6430 C   0  0  0  0  0  0  0  0  0  0  0  0
   -9.3620   21.3720  -31.7580 C   0  0  0  0  0  0  0  0  0  0  0  0
   -9.1390   20.1030  -32.3000 C   0  0  0  0  0  0  0  0  0  0  0  0
   -7.8590   19.7420  -32.7300 C   0  0  0  0  0  0  0  0  0  0  0  0
   -6.7990   20.6480  -32.6160 C   0  0  0  0  0  0  0  0  0  0  0  0
   -1.6299   25.1991  -29.4216 H   0  0  0  0  0  0  0  0  0  0  0  0
   -1.1420   23.1632  -28.0678 H   0  0  0  0  0  0  0  0  0  0  0  0
   -2.4300   20.2550  -28.1430 H   0  0  0  0  0  0  0  0  0  0  0  0
   -5.0349   21.5609  -29.0656 H   0  0  0  0  0  0  0  0  0  0  0  0
   -6.6748   23.1738  -29.9782 H   0  0  0  0  0  0  0  0  0  0  0  0
   -6.1136   24.6904  -30.7788 H   0  0  0  0  0  0  0  0  0  0  0  0
   -5.9863   23.6534  -32.7731 H   0  0  0  0  0  0  0  0  0  0  0  0
   -4.9297   22.3684  -32.0742 H   0  0  0  0  0  0  0  0  0  0  0  0
   -8.4860   23.2816  -31.2235 H   0  0  0  0  0  0  0  0  0  0  0  0
  -10.3700   21.6562  -31.4215 H   0  0  0  0  0  0  0  0  0  0  0  0
   -9.9708   19.3886  -32.3881 H   0  0  0  0  0  0  0  0  0  0  0  0
   -7.6848   18.7441  -33.1587 H   0  0  0  0  0  0  0  0  0  0  0  0
   -5.7944   20.3630  -32.9618 H   0  0  0  0  0  0  0  0  0  0  0  0
  1  2  1  0
  2  3  2  0
  3  4  1  0
  4  5  2  0
  5  6  1  0
  5  7  1  0
  7  8  2  0
  8  9  1  0
  9 10  1  0
 10 11  1  0
 11 12  2  0
 12 13  1  0
 13 14  2  0
 14 15  1  0
 15 16  2  0
  8  2  1  0
 16 11  1  0
  3 17  1  0
  4 18  1  0
  6 19  1  0
  7 20  1  0
  9 21  1  0
  9 22  1  0
 10 23  1  0
 10 24  1  0
 12 25  1  0
 13 26  1  0
 14 27  1  0
 15 28  1  0
 16 29  1  0
M  CHG  1   1  -1
M  END
>  <UniqueID>  (10) 
9

>  <SMILES>  (10) 
[O-]c1ccc(O)cc1CCc1ccccc1

>  <Energy>  (10) 
26.54333663926096

>  <Genealogy>  (10) 
[O-]c1ccc(O)cc1CCc1ccccc1 (protonated)
[O-]c1ccc(O)cc1CCc1ccccc1 (3D coordinates assigned)
[O-]c1ccc(O)cc1CCc1ccccc1 (optimized conformer: 26.54333663926096 kcal/mol)

>  <smiles>  (10) 
Oc1ccc(O)c(CCc2ccccc2)c1

>  <score_type>  (10) 
oracle

>  <origin>  (10) 
adgpu

>  <m_score__min__energy>  (10) 
-9.1400000000000006

>  <m_primary>  (10) 
energy

$$$$
10:0
     RDKit          3D

 45 48  0  0  0  0  0  0  0  0999 V2000
   -6.1640   25.7020  -29.5590 C   0  0  0  0  0  0  0  0  0  0  0  0
   -5.9050   24.4790  -30.3930 C   0  0  0  0  0  0  0  0  0  0  0  0
   -6.9780   23.6600  -30.7830 C   0  0  0  0  0  0  0  0  0  0  0  0
   -6.7540   22.5320  -31.5770 C   0  0  0  0  0  0  0  0  0  0  0  0
   -5.4630   22.2220  -32.0050 C   0  0  0  0  0  0  0  0  0  0  0  0
   -4.3900   23.0340  -31.6360 C   0  0  0  0  0  0  0  0  0  0  0  0
   -4.5960   24.1580  -30.8140 C   0  0  0  0  0  0  0  0  0  0  0  0
   -3.4960   24.9920  -30.4170 N   0  0  0  0  0  0  0  0  0  0  0  0
   -2.6080   24.7540  -29.3160 C   0  0  0  0  0  0  0  0  0  0  0  0
   -1.7720   25.6420  -29.0070 O   0  0  0  0  0  0  0  0  0  0  0  0
   -2.6420   23.5390  -28.5550 N   0  0  0  0  0  0  0  0  0  0  0  0
   -2.1050   22.2700  -28.9580 C   0  0  0  0  0  0  0  0  0  0  0  0
   -1.9260   21.2750  -27.9920 C   0  0  0  0  0  0  0  0  0  0  0  0
   -1.3760   20.0420  -28.3430 C   0  0  0  0  0  0  0  0  0  0  0  0
   -1.0070   19.7900  -29.6660 C   0  0  0  0  0  0  0  0  0  0  0  0
   -1.2030   20.7650  -30.6590 C   0  0  0  0  0  0  0  0  0  0  0  0
   -0.8010   20.4920  -32.0570 C   0  0  0  0  0  0  0  0  0  0  0  0
    0.1990   21.1480  -32.6880 N   0  0  0  0  0  0  0  0  0  0  0  0
    0.3760   20.7360  -33.9750 C   0  0  0  0  0  0  0  0  0  0  0  0
    1.4220   21.3400  -34.8420 C   0  0  0  0  0  0  0  0  0  0  0  0
    2.7300   20.8160  -34.8960 C   0  0  0  0  0  0  0  0  0  0  0  0
    3.6960   21.4030  -35.7180 C   0  0  0  0  0  0  0  0  0  0  0  0
    3.3750   22.5180  -36.4950 C   0  0  0  0  0  0  0  0  0  0  0  0
    2.0850   23.0520  -36.4480 C   0  0  0  0  0  0  0  0  0  0  0  0
    1.7660   24.1630  -37.2190 O   0  0  0  0  0  0  0  0  0  0  0  0
    1.1140   22.4690  -35.6260 C   0  0  0  0  0  0  0  0  0  0  0  0
   -0.5050   19.7300  -34.3830 C   0  0  0  0  0  0  0  0  0  0  0  0
   -1.5130   19.3680  -33.0890 S   0  0  0  0  0  0  0  0  0  0  0  0
   -1.7750   22.0000  -30.2980 C   0  0  0  0  0  0  0  0  0  0  0  0
   -6.1080   25.4373  -28.4928 H   0  0  0  0  0  0  0  0  0  0  0  0
   -5.4082   26.4680  -29.7869 H   0  0  0  0  0  0  0  0  0  0  0  0
   -7.1655   26.0959  -29.7869 H   0  0  0  0  0  0  0  0  0  0  0  0
   -8.0003   23.9081  -30.4615 H   0  0  0  0  0  0  0  0  0  0  0  0
   -7.5974   21.8873  -31.8651 H   0  0  0  0  0  0  0  0  0  0  0  0
   -5.2907   21.3363  -32.6342 H   0  0  0  0  0  0  0  0  0  0  0  0
   -3.3764   22.7942  -31.9898 H   0  0  0  0  0  0  0  0  0  0  0  0
   -2.2205   21.4656  -26.9494 H   0  0  0  0  0  0  0  0  0  0  0  0
   -1.2327   19.2666  -27.5760 H   0  0  0  0  0  0  0  0  0  0  0  0
   -0.5596   18.8212  -29.9329 H   0  0  0  0  0  0  0  0  0  0  0  0
    2.9921   19.9386  -34.2865 H   0  0  0  0  0  0  0  0  0  0  0  0
    4.7129   20.9851  -35.7530 H   0  0  0  0  0  0  0  0  0  0  0  0
    4.1370   22.9753  -37.1433 H   0  0  0  0  0  0  0  0  0  0  0  0
    0.1010   22.8963  -35.5918 H   0  0  0  0  0  0  0  0  0  0  0  0
   -0.5331   19.2586  -35.3765 H   0  0  0  0  0  0  0  0  0  0  0  0
   -1.9652   22.7597  -31.0704 H   0  0  0  0  0  0  0  0  0  0  0  0
  1  2  1  0
  2  3  2  0
  3  4  1  0
  4  5  2  0
  5  6  1  0
  6  7  2  0
  7  8  1  0
  8  9  1  0
  9 10  2  0
  9 11  1  0
 11 12  1  0
 12 13  2  0
 13 14  1  0
 14 15  2  0
 15 16  1  0
 16 17  1  0
 17 18  2  0
 18 19  1  0
 19 20  1  0
 20 21  2  0
 21 22  1  0
 22 23  2  0
 23 24  1  0
 24 25  1  0
 24 26  2  0
 19 27  2  0
 27 28  1  0
 16 29  2  0
  7  2  1  0
 29 12  1  0
 28 17  1  0
 26 20  1  0
  1 30  1  0
  1 31  1  0
  1 32  1  0
  3 33  1  0
  4 34  1  0
  5 35  1  0
  6 36  1  0
 13 37  1  0
 14 38  1  0
 15 39  1  0
 21 40  1  0
 22 41  1  0
 23 42  1  0
 26 43  1  0
 27 44  1  0
 29 45  1  0
M  CHG  3   8  -1  11  -1  25  -1
M  END
>  <UniqueID>  (11) 
10

>  <SMILES>  (11) 
Cc1ccccc1[N-]C(=O)[N-]c1cccc(-c2nc(-c3cccc([O-])c3)cs2)c1

>  <Energy>  (11) 
88.24685768623792

>  <Genealogy>  (11) 
Cc1ccccc1[N-]C(=O)[N-]c1cccc(-c2nc(-c3cccc([O-])c3)cs2)c1 (protonated)
Cc1ccccc1[N-]C(=O)[N-]c1cccc(-c2nc(-c3cccc([O-])c3)cs2)c1 (3D coordinates assigned)
Cc1ccccc1[N-]C(=O)[N-]c1cccc(-c2nc(-c3cccc([O-])c3)cs2)c1 (optimized conformer: 88.24685768623792 kcal/mol)

>  <smiles>  (11) 
Cc1ccccc1NC(=O)Nc1cccc(-c2nc(-c3cccc(O)c3)cs2)c1

>  <score_type>  (11) 
oracle

>  <origin>  (11) 
adgpu

>  <m_score__min__energy>  (11) 
-13.43

>  <m_primary>  (11) 
energy

$$$$
11:0
     RDKit          3D

 48 50  0  0  0  0  0  0  0  0999 V2000
   -0.1500   20.3980  -34.9680 C   0  0  0  0  0  0  0  0  0  0  0  0
   -1.3160   20.1320  -34.1920 O   0  0  0  0  0  0  0  0  0  0  0  0
   -1.6730   20.8400  -33.0320 C   0  0  0  0  0  0  0  0  0  0  0  0
   -3.0060   21.1750  -32.7330 C   0  0  0  0  0  0  0  0  0  0  0  0
   -3.3130   21.8820  -31.5650 C   0  0  0  0  0  0  0  0  0  0  0  0
   -2.2930   22.2670  -30.6800 C   0  0  0  0  0  0  0  0  0  0  0  0
   -2.6350   23.0020  -29.4100 C   0  0  0  0  0  0  0  0  0  0  0  0
   -2.8460   24.4690  -29.6850 C   0  0  0  0  0  0  0  0  0  0  0  0
   -1.9710   25.2930  -29.3110 O   0  0  0  0  0  0  0  0  0  0  0  0
   -3.9670   24.9450  -30.4420 N   0  0  0  0  0  0  0  0  0  0  0  0
   -5.1500   24.1930  -30.7310 C   0  0  0  0  0  0  0  0  0  0  0  0
   -5.6850   24.1510  -32.0280 C   0  0  0  0  0  0  0  0  0  0  0  0
   -6.8400   23.4090  -32.2880 C   0  0  0  0  0  0  0  0  0  0  0  0
   -7.4670   22.6950  -31.2570 C   0  0  0  0  0  0  0  0  0  0  0  0
   -8.9110   21.7420  -31.5880 S   0  0  0  0  0  0  0  0  0  0  0  0
   -9.5840   21.3910  -30.2880 O   0  0  0  0  0  0  0  0  0  0  0  0
   -9.8680   22.5530  -32.4200 O   0  0  0  0  0  0  0  0  0  0  0  0
   -8.4610   20.2790  -32.4290 N   0  0  0  0  0  0  0  0  0  0  0  0
   -8.7200   19.0860  -31.6200 C   0  0  0  0  0  0  0  0  0  0  0  0
   -7.7460   18.0220  -32.0970 C   0  0  0  0  0  0  0  0  0  0  0  0
   -6.6050   18.7850  -32.7540 C   0  0  0  0  0  0  0  0  0  0  0  0
   -7.0290   20.2500  -32.7450 C   0  0  0  0  0  0  0  0  0  0  0  0
   -6.9100   22.7040  -29.9710 C   0  0  0  0  0  0  0  0  0  0  0  0
   -5.7510   23.4440  -29.7130 C   0  0  0  0  0  0  0  0  0  0  0  0
   -0.9630   21.9310  -30.9790 C   0  0  0  0  0  0  0  0  0  0  0  0
   -0.6580   21.2220  -32.1460 C   0  0  0  0  0  0  0  0  0  0  0  0
    0.7002   20.5920  -34.2976 H   0  0  0  0  0  0  0  0  0  0  0  0
    0.0745   19.5280  -35.6026 H   0  0  0  0  0  0  0  0  0  0  0  0
   -0.3251   21.2793  -35.6026 H   0  0  0  0  0  0  0  0  0  0  0  0
   -3.8117   20.8796  -33.4212 H   0  0  0  0  0  0  0  0  0  0  0  0
   -4.3588   22.1375  -31.3390 H   0  0  0  0  0  0  0  0  0  0  0  0
   -3.5564   22.5781  -28.9842 H   0  0  0  0  0  0  0  0  0  0  0  0
   -1.8013   22.8909  -28.7011 H   0  0  0  0  0  0  0  0  0  0  0  0
   -5.1935   24.7039  -32.8421 H   0  0  0  0  0  0  0  0  0  0  0  0
   -7.2588   23.3849  -33.3049 H   0  0  0  0  0  0  0  0  0  0  0  0
   -9.0150   20.2210  -33.3180 H   0  0  0  0  0  0  0  0  0  0  0  0
   -8.5521   19.3050  -30.5552 H   0  0  0  0  0  0  0  0  0  0  0  0
   -9.7616   18.7496  -31.7291 H   0  0  0  0  0  0  0  0  0  0  0  0
   -7.3747   17.4310  -31.2468 H   0  0  0  0  0  0  0  0  0  0  0  0
   -8.2206   17.3154  -32.7937 H   0  0  0  0  0  0  0  0  0  0  0  0
   -5.6749   18.6514  -32.1821 H   0  0  0  0  0  0  0  0  0  0  0  0
   -6.4107   18.4249  -33.7751 H   0  0  0  0  0  0  0  0  0  0  0  0
   -6.4622   20.8028  -31.9814 H   0  0  0  0  0  0  0  0  0  0  0  0
   -6.8318   20.7222  -33.7187 H   0  0  0  0  0  0  0  0  0  0  0  0
   -7.3849   22.1282  -29.1630 H   0  0  0  0  0  0  0  0  0  0  0  0
   -5.3101   23.4371  -28.7053 H   0  0  0  0  0  0  0  0  0  0  0  0
   -0.1564   22.2268  -30.2920 H   0  0  0  0  0  0  0  0  0  0  0  0
    0.3874   20.9626  -32.3693 H   0  0  0  0  0  0  0  0  0  0  0  0
  1  2  1  0
  2  3  1  0
  3  4  2  0
  4  5  1  0
  5  6  2  0
  6  7  1  0
  7  8  1  0
  8  9  2  0
  8 10  1  0
 10 11  1  0
 11 12  2  0
 12 13  1  0
 13 14  2  0
 14 15  1  0
 15 16  2  0
 15 17  2  0
 15 18  1  0
 18 19  1  0
 19 20  1  0
 20 21  1  0
 21 22  1  0
 14 23  1  0
 23 24  2  0
  6 25  1  0
 25 26  2  0
 26  3  1  0
 24 11  1  0
 22 18  1  0
  1 27  1  0
  1 28  1  0
  1 29  1  0
  4 30  1  0
  5 31  1  0
  7 32  1  0
  7 33  1  0
 12 34  1  0
 13 35  1  0
 18 36  1  0
 19 37  1  0
 19 38  1  0
 20 39  1  0
 20 40  1  0
 21 41  1  0
 21 42  1  0
 22 43  1  0
 22 44  1  0
 23 45  1  0
 24 46  1  0
 25 47  1  0
 26 48  1  0
M  CHG  2  10  -1  18   1
M  END
>  <UniqueID>  (12) 
11

>  <SMILES>  (12) 
COc1ccc(CC(=O)[N-]c2ccc(S(=O)(=O)[NH+]3CCCC3)cc2)cc1

>  <Energy>  (12) 
51.716786072663716

>  <Genealogy>  (12) 
COc1ccc(CC(=O)[N-]c2ccc(S(=O)(=O)[NH+]3CCCC3)cc2)cc1 (protonated)
COc1ccc(CC(=O)[N-]c2ccc(S(=O)(=O)[NH+]3CCCC3)cc2)cc1 (3D coordinates assigned)
COc1ccc(CC(=O)[N-]c2ccc(S(=O)(=O)[NH+]3CCCC3)cc2)cc1 (nonaromatic ring conformer: 51.716786072663716 kcal/mol)

>  <smiles>  (12) 
COc1ccc(CC(=O)Nc2ccc(S(=O)(=O)N3CCCC3)cc2)cc1

>  <score_type>  (12) 
oracle

>  <origin>  (12) 
adgpu

>  <m_score__min__energy>  (12) 
-10.58

>  <m_primary>  (12) 
energy

$$$$
12:0
     RDKit          3D

 40 44  0  0  0  0  0  0  0  0999 V2000
   -0.4890   25.8480  -25.8110 C   0  0  0  0  0  0  0  0  0  0  0  0
   -1.8220   25.4700  -25.6320 C   0  0  0  0  0  0  0  0  0  0  0  0
   -2.5760   25.0210  -26.7210 C   0  0  0  0  0  0  0  0  0  0  0  0
   -1.9980   24.9350  -27.9990 C   0  0  0  0  0  0  0  0  0  0  0  0
   -2.8130   24.4650  -29.1410 C   0  0  0  0  0  0  0  0  0  0  0  0
   -3.5080   25.2990  -29.9400 N   0  0  0  0  0  0  0  0  0  0  0  0
   -4.1200   24.5860  -30.8720 N   0  0  0  0  0  0  0  0  0  0  0  0
   -3.8280   23.2850  -30.6820 C   0  0  0  0  0  0  0  0  0  0  0  0
   -4.4220   22.2140  -31.4950 C   0  0  0  0  0  0  0  0  0  0  0  0
   -3.8880   21.7160  -32.6280 N   0  0  0  0  0  0  0  0  0  0  0  0
   -4.7120   20.7680  -33.0440 N   0  0  0  0  0  0  0  0  0  0  0  0
   -5.7170   20.7230  -32.1480 C   0  0  0  0  0  0  0  0  0  0  0  0
   -6.8550   19.8040  -32.2270 C   0  0  0  0  0  0  0  0  0  0  0  0
   -6.7860   18.4190  -32.3050 C   0  0  0  0  0  0  0  0  0  0  0  0
   -8.0450   17.8090  -32.3690 C   0  0  0  0  0  0  0  0  0  0  0  0
   -9.1030   18.7080  -32.3410 C   0  0  0  0  0  0  0  0  0  0  0  0
   -8.4730   20.2640  -32.2360 S   0  0  0  0  0  0  0  0  0  0  0  0
   -5.5440   21.6060  -31.1940 O   0  0  0  0  0  0  0  0  0  0  0  0
   -2.9900   23.1590  -29.5830 C   0  0  0  0  0  0  0  0  0  0  0  0
   -2.4870   21.9180  -28.9640 C   0  0  0  0  0  0  0  0  0  0  0  0
   -3.1350   21.3750  -27.8440 C   0  0  0  0  0  0  0  0  0  0  0  0
   -2.6440   20.2120  -27.2420 C   0  0  0  0  0  0  0  0  0  0  0  0
   -1.5010   19.5890  -27.7520 C   0  0  0  0  0  0  0  0  0  0  0  0
   -0.8470   20.1290  -28.8630 C   0  0  0  0  0  0  0  0  0  0  0  0
   -1.3350   21.2920  -29.4660 C   0  0  0  0  0  0  0  0  0  0  0  0
   -0.6600   25.3370  -28.1720 C   0  0  0  0  0  0  0  0  0  0  0  0
    0.0900   25.7850  -27.0800 C   0  0  0  0  0  0  0  0  0  0  0  0
    0.1043   26.1952  -24.9523 H   0  0  0  0  0  0  0  0  0  0  0  0
   -2.2792   25.5256  -24.6331 H   0  0  0  0  0  0  0  0  0  0  0  0
   -3.6278   24.7334  -26.5763 H   0  0  0  0  0  0  0  0  0  0  0  0
   -5.8395   17.8587  -32.3154 H   0  0  0  0  0  0  0  0  0  0  0  0
   -8.1829   16.7197  -32.4352 H   0  0  0  0  0  0  0  0  0  0  0  0
  -10.1709   18.4471  -32.3807 H   0  0  0  0  0  0  0  0  0  0  0  0
   -4.0320   21.8656  -27.4382 H   0  0  0  0  0  0  0  0  0  0  0  0
   -3.1574   19.7872  -26.3668 H   0  0  0  0  0  0  0  0  0  0  0  0
   -1.1163   18.6736  -27.2788 H   0  0  0  0  0  0  0  0  0  0  0  0
    0.0525   19.6384  -29.2632 H   0  0  0  0  0  0  0  0  0  0  0  0
   -0.8147   21.7180  -30.3366 H   0  0  0  0  0  0  0  0  0  0  0  0
   -0.2020   25.2985  -29.1714 H   0  0  0  0  0  0  0  0  0  0  0  0
    1.1379   26.0883  -27.2210 H   0  0  0  0  0  0  0  0  0  0  0  0
  1  2  2  0
  2  3  1  0
  3  4  2  0
  4  5  1  0
  5  6  1  0
  6  7  1  0
  7  8  2  0
  8  9  1  0
  9 10  2  0
 10 11  1  0
 11 12  2  0
 12 13  1  0
 13 14  2  0
 14 15  1  0
 15 16  2  0
 16 17  1  0
 12 18  1  0
  8 19  1  0
 19 20  1  0
 20 21  2  0
 21 22  1  0
 22 23  2  0
 23 24  1  0
 24 25  2  0
  4 26  1  0
 26 27  2  0
 27  1  1  0
 19  5  2  0
 25 20  1  0
 18  9  1  0
 17 13  1  0
  1 28  1  0
  2 29  1  0
  3 30  1  0
 14 31  1  0
 15 32  1  0
 16 33  1  0
 21 34  1  0
 22 35  1  0
 23 36  1  0
 24 37  1  0
 25 38  1  0
 26 39  1  0
 27 40  1  0
M  CHG  1   6  -1
M  END
>  <UniqueID>  (13) 
12

>  <SMILES>  (13) 
c1ccc(-c2[n-]nc(-c3nnc(-c4cccs4)o3)c2-c2ccccc2)cc1

>  <Energy>  (13) 
145.52139094143922

>  <Genealogy>  (13) 
c1ccc(-c2[n-]nc(-c3nnc(-c4cccs4)o3)c2-c2ccccc2)cc1 (protonated)
c1ccc(-c2[n-]nc(-c3nnc(-c4cccs4)o3)c2-c2ccccc2)cc1 (3D coordinates assigned)
c1ccc(-c2[n-]nc(-c3nnc(-c4cccs4)o3)c2-c2ccccc2)cc1 (optimized conformer: 145.52139094143922 kcal/mol)

>  <smiles>  (13) 
c1ccc(-c2[nH]nc(-c3nnc(-c4cccs4)o3)c2-c2ccccc2)cc1

>  <score_type>  (13) 
oracle

>  <origin>  (13) 
adgpu

>  <m_score__min__energy>  (13) 
-10.970000000000001

>  <m_primary>  (13) 
energy

$$$$
13:0
     RDKit          3D

 29 30  0  0  0  0  0  0  0  0999 V2000
   -9.1210   22.0700  -31.4800 C   0  0  0  0  0  0  0  0  0  0  0  0
   -7.6690   22.4210  -31.6170 C   0  0  0  0  0  0  0  0  0  0  0  0
   -6.8060   21.5850  -32.3340 C   0  0  0  0  0  0  0  0  0  0  0  0
   -5.4470   21.8890  -32.4250 C   0  0  0  0  0  0  0  0  0  0  0  0
   -4.9240   23.0210  -31.7900 C   0  0  0  0  0  0  0  0  0  0  0  0
   -3.5450   23.2290  -31.8610 O   0  0  0  0  0  0  0  0  0  0  0  0
   -5.7900   23.8890  -31.0770 C   0  0  0  0  0  0  0  0  0  0  0  0
   -5.3160   25.1420  -30.4530 C   0  0  0  0  0  0  0  0  0  0  0  0
   -6.1430   26.0210  -30.0880 O   0  0  0  0  0  0  0  0  0  0  0  0
   -3.9210   25.3100  -30.1680 N   0  0  0  0  0  0  0  0  0  0  0  0
   -3.1730   24.5600  -29.2020 C   0  0  0  0  0  0  0  0  0  0  0  0
   -3.7340   23.3830  -28.6890 C   0  0  0  0  0  0  0  0  0  0  0  0
   -3.0370   22.6170  -27.7520 C   0  0  0  0  0  0  0  0  0  0  0  0
   -1.7640   23.0110  -27.3330 C   0  0  0  0  0  0  0  0  0  0  0  0
   -1.1820   24.1660  -27.8620 C   0  0  0  0  0  0  0  0  0  0  0  0
   -1.8720   24.9340  -28.8060 C   0  0  0  0  0  0  0  0  0  0  0  0
   -1.2430   26.0410  -29.3650 O   0  0  0  0  0  0  0  0  0  0  0  0
   -7.1550   23.5590  -30.9790 C   0  0  0  0  0  0  0  0  0  0  0  0
   -9.3838   22.0065  -30.4138 H   0  0  0  0  0  0  0  0  0  0  0  0
   -9.7330   22.8461  -31.9629 H   0  0  0  0  0  0  0  0  0  0  0  0
   -9.3109   21.1001  -31.9629 H   0  0  0  0  0  0  0  0  0  0  0  0
   -7.2003   20.6846  -32.8279 H   0  0  0  0  0  0  0  0  0  0  0  0
   -4.7798   21.2318  -33.0020 H   0  0  0  0  0  0  0  0  0  0  0  0
   -3.1000   24.1030  -31.6180 H   0  0  0  0  0  0  0  0  0  0  0  0
   -4.7299   23.0602  -29.0265 H   0  0  0  0  0  0  0  0  0  0  0  0
   -3.4911   21.7022  -27.3434 H   0  0  0  0  0  0  0  0  0  0  0  0
   -1.2202   22.4126  -26.5873 H   0  0  0  0  0  0  0  0  0  0  0  0
   -0.1775   24.4725  -27.5349 H   0  0  0  0  0  0  0  0  0  0  0  0
   -7.8279   24.2029  -30.3937 H   0  0  0  0  0  0  0  0  0  0  0  0
  1  2  1  0
  2  3  2  0
  3  4  1  0
  4  5  2  0
  5  6  1  0
  5  7  1  0
  7  8  1  0
  8  9  2  0
  8 10  1  0
 10 11  1  0
 11 12  2  0
 12 13  1  0
 13 14  2  0
 14 15  1  0
 15 16  2  0
 16 17  1  0
  7 18  2  0
 18  2  1  0
 16 11  1  0
  1 19  1  0
  1 20  1  0
  1 21  1  0
  3 22  1  0
  4 23  1  0
  6 24  1  0
 12 25  1  0
 13 26  1  0
 14 27  1  0
 15 28  1  0
 18 29  1  0
M  CHG  2  10  -1  17  -1
M  END
>  <UniqueID>  (14) 
13

>  <SMILES>  (14) 
Cc1ccc(O)c(C(=O)[N-]c2ccccc2[O-])c1

>  <Energy>  (14) 
40.01139451930081

>  <Genealogy>  (14) 
Cc1ccc(O)c(C(=O)[N-]c2ccccc2[O-])c1 (protonated)
Cc1ccc(O)c(C(=O)[N-]c2ccccc2[O-])c1 (3D coordinates assigned)
Cc1ccc(O)c(C(=O)[N-]c2ccccc2[O-])c1 (optimized conformer: 40.01139451930081 kcal/mol)

>  <smiles>  (14) 
Cc1ccc(O)c(C(=O)Nc2ccccc2O)c1

>  <score_type>  (14) 
oracle

>  <origin>  (14) 
adgpu

>  <m_score__min__energy>  (14) 
-11.77

>  <m_primary>  (14) 
energy

$$$$
14:0
     RDKit          3D

 38 39  0  0  0  0  0  0  0  0999 V2000
   -4.4360   17.4610  -34.7300 C   0  0  0  0  0  0  0  0  0  0  0  0
   -5.7330   18.2250  -34.9620 C   0  0  0  0  0  0  0  0  0  0  0  0
   -6.4110   18.4710  -33.6820 N   0  0  0  0  0  0  0  0  0  0  0  0
   -6.9000   17.3410  -32.8790 C   0  0  0  0  0  0  0  0  0  0  0  0
   -6.4590   17.4500  -31.4190 C   0  0  0  0  0  0  0  0  0  0  0  0
   -6.2510   19.7610  -33.0600 C   0  0  0  0  0  0  0  0  0  0  0  0
   -5.0300   20.3200  -32.8560 N   0  0  0  0  0  0  0  0  0  0  0  0
   -5.3340   21.4720  -32.2260 C   0  0  0  0  0  0  0  0  0  0  0  0
   -6.6730   21.5960  -32.0660 C   0  0  0  0  0  0  0  0  0  0  0  0
   -7.2010   22.7170  -31.4330 C   0  0  0  0  0  0  0  0  0  0  0  0
   -8.4470   22.8380  -31.2770 O   0  0  0  0  0  0  0  0  0  0  0  0
   -6.3310   23.6840  -30.9850 N   0  0  0  0  0  0  0  0  0  0  0  0
   -6.8550   24.9040  -30.3490 C   0  0  0  0  0  0  0  0  0  0  0  0
   -4.9690   23.5490  -31.1970 C   0  0  0  0  0  0  0  0  0  0  0  0
   -4.1840   24.4750  -30.8440 O   0  0  0  0  0  0  0  0  0  0  0  0
   -4.4570   22.4190  -31.7950 N   0  0  0  0  0  0  0  0  0  0  0  0
   -3.0150   22.2730  -32.0390 C   0  0  0  0  0  0  0  0  0  0  0  0
   -7.2830   20.5230  -32.6050 N   0  0  0  0  0  0  0  0  0  0  0  0
   -8.7170   20.2620  -32.7120 C   0  0  0  0  0  0  0  0  0  0  0  0
   -4.2599   17.3573  -33.6492 H   0  0  0  0  0  0  0  0  0  0  0  0
   -4.5115   16.4631  -35.1866 H   0  0  0  0  0  0  0  0  0  0  0  0
   -3.5999   18.0108  -35.1866 H   0  0  0  0  0  0  0  0  0  0  0  0
   -5.5069   19.1873  -35.4446 H   0  0  0  0  0  0  0  0  0  0  0  0
   -6.3918   17.6271  -35.6088 H   0  0  0  0  0  0  0  0  0  0  0  0
   -7.9992   17.3250  -32.9188 H   0  0  0  0  0  0  0  0  0  0  0  0
   -6.4761   16.4157  -33.2964 H   0  0  0  0  0  0  0  0  0  0  0  0
   -7.3146   17.2385  -30.7608 H   0  0  0  0  0  0  0  0  0  0  0  0
   -5.6571   16.7230  -31.2229 H   0  0  0  0  0  0  0  0  0  0  0  0
   -6.0881   18.4669  -31.2229 H   0  0  0  0  0  0  0  0  0  0  0  0
   -6.8087   24.7962  -29.2553 H   0  0  0  0  0  0  0  0  0  0  0  0
   -6.2487   25.7681  -30.6583 H   0  0  0  0  0  0  0  0  0  0  0  0
   -7.8992   25.0592  -30.6583 H   0  0  0  0  0  0  0  0  0  0  0  0
   -2.4840   22.2192  -31.0772 H   0  0  0  0  0  0  0  0  0  0  0  0
   -2.8314   21.3517  -32.6112 H   0  0  0  0  0  0  0  0  0  0  0  0
   -2.6504   23.1388  -32.6112 H   0  0  0  0  0  0  0  0  0  0  0  0
   -9.1515   20.1829  -31.7045 H   0  0  0  0  0  0  0  0  0  0  0  0
   -9.2003   21.0869  -33.2560 H   0  0  0  0  0  0  0  0  0  0  0  0
   -8.8786   19.3197  -33.2560 H   0  0  0  0  0  0  0  0  0  0  0  0
  1  2  1  0
  2  3  1  0
  3  4  1  0
  4  5  1  0
  3  6  1  0
  6  7  2  0
  7  8  1  0
  8  9  2  0
  9 10  1  0
 10 11  2  0
 10 12  1  0
 12 13  1  0
 12 14  1  0
 14 15  2  0
 14 16  1  0
 16 17  1  0
  9 18  1  0
 18 19  1  0
 18  6  1  0
 16  8  1  0
  1 20  1  0
  1 21  1  0
  1 22  1  0
  2 23  1  0
  2 24  1  0
  4 25  1  0
  4 26  1  0
  5 27  1  0
  5 28  1  0
  5 29  1  0
 13 30  1  0
 13 31  1  0
 13 32  1  0
 17 33  1  0
 17 34  1  0
 17 35  1  0
 19 36  1  0
 19 37  1  0
 19 38  1  0
M  END
>  <UniqueID>  (15) 
14

>  <SMILES>  (15) 
CCN(CC)c1nc2c(c(=O)n(C)c(=O)n2C)n1C

>  <Energy>  (15) 
81.17262616886995

>  <Genealogy>  (15) 
CCN(CC)c1nc2c(c(=O)n(C)c(=O)n2C)n1C (3D coordinates assigned)
CCN(CC)c1nc2c(c(=O)n(C)c(=O)n2C)n1C (optimized conformer: 81.17262616886995 kcal/mol)

>  <smiles>  (15) 
CCN(CC)c1nc2c(c(=O)n(C)c(=O)n2C)n1C

>  <score_type>  (15) 
oracle

>  <origin>  (15) 
adgpu

>  <m_score__min__energy>  (15) 
-6.4100000000000001

>  <m_primary>  (15) 
energy

$$$$
15:0
     RDKit          3D

 43 45  0  0  0  0  0  0  0  0999 V2000
   -4.9920   15.3350  -32.7600 C   0  0  0  0  0  0  0  0  0  0  0  0
   -5.9550   15.2420  -33.9400 C   0  0  0  0  0  0  0  0  0  0  0  0
   -7.0020   16.2060  -33.8190 O   0  0  0  0  0  0  0  0  0  0  0  0
   -6.8500   17.5280  -33.3660 C   0  0  0  0  0  0  0  0  0  0  0  0
   -7.6030   18.0620  -32.3020 C   0  0  0  0  0  0  0  0  0  0  0  0
   -7.4030   19.3830  -31.8880 C   0  0  0  0  0  0  0  0  0  0  0  0
   -6.4520   20.1970  -32.5300 C   0  0  0  0  0  0  0  0  0  0  0  0
   -6.2020   21.5930  -32.0910 C   0  0  0  0  0  0  0  0  0  0  0  0
   -6.7390   22.1250  -30.9730 N   0  0  0  0  0  0  0  0  0  0  0  0
   -6.2590   23.3830  -31.0000 C   0  0  0  0  0  0  0  0  0  0  0  0
   -6.6480   24.6150  -29.7590 S   0  0  0  0  0  0  0  0  0  0  0  0
   -5.0340   24.4750  -28.9190 C   0  0  0  0  0  0  0  0  0  0  0  0
   -3.9210   24.9330  -29.8250 C   0  0  0  0  0  0  0  0  0  0  0  0
   -4.2070   25.6260  -30.8380 O   0  0  0  0  0  0  0  0  0  0  0  0
   -2.5610   24.5250  -29.6270 N   0  0  0  0  0  0  0  0  0  0  0  0
   -2.0660   23.6890  -28.5690 C   0  0  0  0  0  0  0  0  0  0  0  0
   -2.4610   22.3430  -28.4650 C   0  0  0  0  0  0  0  0  0  0  0  0
   -1.9800   21.5430  -27.4250 C   0  0  0  0  0  0  0  0  0  0  0  0
   -1.1200   22.0830  -26.4680 C   0  0  0  0  0  0  0  0  0  0  0  0
   -0.7500   23.4280  -26.5390 C   0  0  0  0  0  0  0  0  0  0  0  0
   -1.2290   24.2370  -27.5780 C   0  0  0  0  0  0  0  0  0  0  0  0
   -0.8580   25.6310  -27.6110 C   0  0  0  0  0  0  0  0  0  0  0  0
   -0.5630   26.7500  -27.6320 N   0  0  0  0  0  0  0  0  0  0  0  0
   -5.4750   23.6240  -32.0660 N   0  0  0  0  0  0  0  0  0  0  0  0
   -5.4440   22.4930  -32.7480 N   0  0  0  0  0  0  0  0  0  0  0  0
   -5.7150   19.6620  -33.6010 C   0  0  0  0  0  0  0  0  0  0  0  0
   -5.9130   18.3410  -34.0100 C   0  0  0  0  0  0  0  0  0  0  0  0
   -5.5589   15.2803  -31.8189 H   0  0  0  0  0  0  0  0  0  0  0  0
   -4.2751   14.5019  -32.8052 H   0  0  0  0  0  0  0  0  0  0  0  0
   -4.4478   16.2899  -32.8052 H   0  0  0  0  0  0  0  0  0  0  0  0
   -5.4013   15.4264  -34.8724 H   0  0  0  0  0  0  0  0  0  0  0  0
   -6.4016   14.2368  -33.9515 H   0  0  0  0  0  0  0  0  0  0  0  0
   -8.3522   17.4369  -31.7941 H   0  0  0  0  0  0  0  0  0  0  0  0
   -7.9941   19.7887  -31.0537 H   0  0  0  0  0  0  0  0  0  0  0  0
   -5.0427   25.0996  -28.0135 H   0  0  0  0  0  0  0  0  0  0  0  0
   -4.8634   23.4211  -28.6539 H   0  0  0  0  0  0  0  0  0  0  0  0
   -3.1528   21.9175  -29.2069 H   0  0  0  0  0  0  0  0  0  0  0  0
   -2.2796   20.4866  -27.3607 H   0  0  0  0  0  0  0  0  0  0  0  0
   -0.7330   21.4488  -25.6568 H   0  0  0  0  0  0  0  0  0  0  0  0
   -0.0805   23.8535  -25.7769 H   0  0  0  0  0  0  0  0  0  0  0  0
   -4.9130   22.3660  -33.6360 H   0  0  0  0  0  0  0  0  0  0  0  0
   -4.9761   20.2890  -34.1214 H   0  0  0  0  0  0  0  0  0  0  0  0
   -5.3255   17.9365  -34.8474 H   0  0  0  0  0  0  0  0  0  0  0  0
  1  2  1  0
  2  3  1  0
  3  4  1  0
  4  5  2  0
  5  6  1  0
  6  7  2  0
  7  8  1  0
  8  9  2  0
  9 10  1  0
 10 11  1  0
 11 12  1  0
 12 13  1  0
 13 14  2  0
 13 15  1  0
 15 16  1  0
 16 17  2  0
 17 18  1  0
 18 19  2  0
 19 20  1  0
 20 21  2  0
 21 22  1  0
 22 23  3  0
 10 24  2  0
 24 25  1  0
  7 26  1  0
 26 27  2  0
 27  4  1  0
 25  8  1  0
 21 16  1  0
  1 28  1  0
  1 29  1  0
  1 30  1  0
  2 31  1  0
  2 32  1  0
  5 33  1  0
  6 34  1  0
 12 35  1  0
 12 36  1  0
 17 37  1  0
 18 38  1  0
 19 39  1  0
 20 40  1  0
 25 41  1  0
 26 42  1  0
 27 43  1  0
M  CHG  1  15  -1
M  END
>  <UniqueID>  (16) 
15

>  <SMILES>  (16) 
CCOc1ccc(-c2nc(SCC(=O)[N-]c3ccccc3C#N)n[nH]2)cc1

>  <Energy>  (16) 
75.5128960014334

>  <Genealogy>  (16) 
CCOc1ccc(-c2nc(SCC(=O)[N-]c3ccccc3C#N)n[nH]2)cc1 (protonated)
CCOc1ccc(-c2nc(SCC(=O)[N-]c3ccccc3C#N)n[nH]2)cc1 (3D coordinates assigned)
CCOc1ccc(-c2nc(SCC(=O)[N-]c3ccccc3C#N)n[nH]2)cc1 (optimized conformer: 75.5128960014334 kcal/mol)

>  <smiles>  (16) 
CCOc1ccc(-c2nc(SCC(=O)Nc3ccccc3C#N)n[nH]2)cc1

>  <score_type>  (16) 
oracle

>  <origin>  (16) 
adgpu

>  <m_score__min__energy>  (16) 
-10.48

>  <m_primary>  (16) 
energy

$$$$
16:0
     RDKit          3D

 30 32  0  0  0  0  0  0  0  0999 V2000
   -4.8920   21.8050  -32.5030 C   0  0  0  0  0  0  0  0  0  0  0  0
   -6.3840   21.8590  -32.3630 C   0  0  0  0  0  0  0  0  0  0  0  0
   -7.1420   22.9030  -31.8680 C   0  0  0  0  0  0  0  0  0  0  0  0
   -6.6560   24.2130  -31.3290 C   0  0  0  0  0  0  0  0  0  0  0  0
   -5.4570   24.0090  -30.5250 N   0  0  0  0  0  0  0  0  0  0  0  0
   -5.3520   23.2760  -29.4050 C   0  0  0  0  0  0  0  0  0  0  0  0
   -4.0830   23.2550  -28.9560 N   0  0  0  0  0  0  0  0  0  0  0  0
   -3.4370   24.0100  -29.8720 C   0  0  0  0  0  0  0  0  0  0  0  0
   -4.2600   24.4690  -30.8360 N   0  0  0  0  0  0  0  0  0  0  0  0
   -8.4350   22.5190  -31.8690 N   0  0  0  0  0  0  0  0  0  0  0  0
   -8.4690   21.2840  -32.3510 N   0  0  0  0  0  0  0  0  0  0  0  0
   -7.2490   20.8650  -32.6510 N   0  0  0  0  0  0  0  0  0  0  0  0
   -6.9530   19.5480  -33.1390 C   0  0  0  0  0  0  0  0  0  0  0  0
   -6.0300   19.3790  -34.1870 C   0  0  0  0  0  0  0  0  0  0  0  0
   -5.7170   18.1000  -34.6550 C   0  0  0  0  0  0  0  0  0  0  0  0
   -6.3180   16.9790  -34.0810 C   0  0  0  0  0  0  0  0  0  0  0  0
   -7.2330   17.1330  -33.0360 C   0  0  0  0  0  0  0  0  0  0  0  0
   -7.5510   18.4100  -32.5590 C   0  0  0  0  0  0  0  0  0  0  0  0
   -8.7390   18.5560  -31.2710 Cl  0  0  0  0  0  0  0  0  0  0  0  0
   -4.4304   21.7883  -31.5047 H   0  0  0  0  0  0  0  0  0  0  0  0
   -4.6080   20.8960  -33.0535 H   0  0  0  0  0  0  0  0  0  0  0  0
   -4.5431   22.6911  -33.0535 H   0  0  0  0  0  0  0  0  0  0  0  0
   -6.4225   24.8870  -32.1663 H   0  0  0  0  0  0  0  0  0  0  0  0
   -7.4410   24.6572  -30.6993 H   0  0  0  0  0  0  0  0  0  0  0  0
   -6.1927   22.7602  -28.9181 H   0  0  0  0  0  0  0  0  0  0  0  0
   -2.3591   24.2261  -29.8351 H   0  0  0  0  0  0  0  0  0  0  0  0
   -5.5515   20.2593  -34.6410 H   0  0  0  0  0  0  0  0  0  0  0  0
   -4.9961   17.9768  -35.4767 H   0  0  0  0  0  0  0  0  0  0  0  0
   -6.0713   15.9731  -34.4515 H   0  0  0  0  0  0  0  0  0  0  0  0
   -7.7053   16.2471  -32.5865 H   0  0  0  0  0  0  0  0  0  0  0  0
  1  2  1  0
  2  3  2  0
  3  4  1  0
  4  5  1  0
  5  6  1  0
  6  7  2  0
  7  8  1  0
  8  9  2  0
  3 10  1  0
 10 11  2  0
 11 12  1  0
 12 13  1  0
 13 14  2  0
 14 15  1  0
 15 16  2  0
 16 17  1  0
 17 18  2  0
 18 19  1  0
 12  2  1  0
 18 13  1  0
  9  5  1  0
  1 20  1  0
  1 21  1  0
  1 22  1  0
  4 23  1  0
  4 24  1  0
  6 25  1  0
  8 26  1  0
 14 27  1  0
 15 28  1  0
 16 29  1  0
 17 30  1  0
M  END
>  <UniqueID>  (17) 
16

>  <SMILES>  (17) 
Cc1c(Cn2cncn2)nnn1-c1ccccc1Cl

>  <Energy>  (17) 
103.98029510995329

>  <Genealogy>  (17) 
Cc1c(Cn2cncn2)nnn1-c1ccccc1Cl (3D coordinates assigned)
Cc1c(Cn2cncn2)nnn1-c1ccccc1Cl (optimized conformer: 103.98029510995329 kcal/mol)

>  <smiles>  (17) 
Cc1c(Cn2cncn2)nnn1-c1ccccc1Cl

>  <score_type>  (17) 
oracle

>  <origin>  (17) 
adgpu

>  <m_score__min__energy>  (17) 
-7.6299999999999999

>  <m_primary>  (17) 
energy

$$$$
17:0
     RDKit          3D

 47 49  0  0  0  0  0  0  0  0999 V2000
   -1.6510   18.3240  -32.7580 C   0  0  0  0  0  0  0  0  0  0  0  0
   -2.6220   17.4780  -33.4750 N   0  0  0  0  0  0  0  0  0  0  0  0
   -1.9320   16.2920  -34.0080 C   0  0  0  0  0  0  0  0  0  0  0  0
   -3.2690   18.2270  -34.5740 C   0  0  0  0  0  0  0  0  0  0  0  0
   -4.3610   17.3770  -35.2410 C   0  0  0  0  0  0  0  0  0  0  0  0
   -5.7130   18.1030  -35.3030 C   0  0  0  0  0  0  0  0  0  0  0  0
   -6.3070   18.2420  -33.9650 N   0  0  0  0  0  0  0  0  0  0  0  0
   -6.8300   17.0750  -33.3130 C   0  0  0  0  0  0  0  0  0  0  0  0
   -7.9160   17.1510  -32.6790 O   0  0  0  0  0  0  0  0  0  0  0  0
   -6.1160   15.7910  -33.3790 C   0  0  0  0  0  0  0  0  0  0  0  0
   -6.3960   14.7380  -34.2450 C   0  0  0  0  0  0  0  0  0  0  0  0
   -5.5620   13.6290  -34.0520 C   0  0  0  0  0  0  0  0  0  0  0  0
   -4.6320   13.8000  -33.0350 C   0  0  0  0  0  0  0  0  0  0  0  0
   -4.8480   15.3310  -32.3740 S   0  0  0  0  0  0  0  0  0  0  0  0
   -6.2290   19.4890  -33.2480 C   0  0  0  0  0  0  0  0  0  0  0  0
   -7.3180   20.2380  -32.9390 N   0  0  0  0  0  0  0  0  0  0  0  0
   -6.9630   21.3580  -32.2600 C   0  0  0  0  0  0  0  0  0  0  0  0
   -7.8620   22.3250  -31.8120 C   0  0  0  0  0  0  0  0  0  0  0  0
   -7.3640   23.4440  -31.1240 C   0  0  0  0  0  0  0  0  0  0  0  0
   -5.9790   23.5860  -30.8880 C   0  0  0  0  0  0  0  0  0  0  0  0
   -5.3820   25.0080  -30.0390 S   0  0  0  0  0  0  0  0  0  0  0  0
   -4.8740   24.5650  -28.4480 N   0  0  0  0  0  0  0  0  0  0  0  0
   -6.4650   26.0460  -29.9390 O   0  0  0  0  0  0  0  0  0  0  0  0
   -4.2230   25.5930  -30.7960 O   0  0  0  0  0  0  0  0  0  0  0  0
   -5.0840   22.6000  -31.3480 C   0  0  0  0  0  0  0  0  0  0  0  0
   -5.6050   21.5020  -32.0260 C   0  0  0  0  0  0  0  0  0  0  0  0
   -4.7900   20.1910  -32.6800 S   0  0  0  0  0  0  0  0  0  0  0  0
   -1.7898   18.2031  -31.6735 H   0  0  0  0  0  0  0  0  0  0  0  0
   -0.6293   18.0230  -33.0327 H   0  0  0  0  0  0  0  0  0  0  0  0
   -1.8093   19.3773  -33.0327 H   0  0  0  0  0  0  0  0  0  0  0  0
   -1.5713   15.6720  -33.1740 H   0  0  0  0  0  0  0  0  0  0  0  0
   -2.6309   15.7072  -34.6241 H   0  0  0  0  0  0  0  0  0  0  0  0
   -1.0782   16.6105  -34.6241 H   0  0  0  0  0  0  0  0  0  0  0  0
   -3.7222   19.1436  -34.1685 H   0  0  0  0  0  0  0  0  0  0  0  0
   -2.5075   18.4786  -35.3268 H   0  0  0  0  0  0  0  0  0  0  0  0
   -4.0431   17.1345  -36.2658 H   0  0  0  0  0  0  0  0  0  0  0  0
   -4.4958   16.4690  -34.6349 H   0  0  0  0  0  0  0  0  0  0  0  0
   -5.5628   19.1038  -35.7340 H   0  0  0  0  0  0  0  0  0  0  0  0
   -6.3975   17.5092  -35.9266 H   0  0  0  0  0  0  0  0  0  0  0  0
   -7.1914   14.7730  -35.0040 H   0  0  0  0  0  0  0  0  0  0  0  0
   -5.6368   12.7089  -34.6501 H   0  0  0  0  0  0  0  0  0  0  0  0
   -3.8825   13.0606  -32.7164 H   0  0  0  0  0  0  0  0  0  0  0  0
   -8.9411   22.2138  -31.9939 H   0  0  0  0  0  0  0  0  0  0  0  0
   -8.0597   24.2171  -30.7657 H   0  0  0  0  0  0  0  0  0  0  0  0
   -4.6390   25.4500  -27.9440 H   0  0  0  0  0  0  0  0  0  0  0  0
   -5.7030   24.1540  -27.9640 H   0  0  0  0  0  0  0  0  0  0  0  0
   -4.0018   22.6955  -31.1758 H   0  0  0  0  0  0  0  0  0  0  0  0
  1  2  1  0
  2  3  1  0
  2  4  1  0
  4  5  1  0
  5  6  1  0
  6  7  1  0
  7  8  1  0
  8  9  2  0
  8 10  1  0
 10 11  2  0
 11 12  1  0
 12 13  2  0
 13 14  1  0
  7 15  1  0
 15 16  2  0
 16 17  1  0
 17 18  2  0
 18 19  1  0
 19 20  2  0
 20 21  1  0
 21 22  1  0
 21 23  2  0
 21 24  2  0
 20 25  1  0
 25 26  2  0
 26 27  1  0
 14 10  1  0
 27 15  1  0
 26 17  1  0
  1 28  1  0
  1 29  1  0
  1 30  1  0
  3 31  1  0
  3 32  1  0
  3 33  1  0
  4 34  1  0
  4 35  1  0
  5 36  1  0
  5 37  1  0
  6 38  1  0
  6 39  1  0
 11 40  1  0
 12 41  1  0
 13 42  1  0
 18 43  1  0
 19 44  1  0
 22 45  1  0
 22 46  1  0
 25 47  1  0
M  END
>  <UniqueID>  (18) 
17

>  <SMILES>  (18) 
CN(C)CCCN(C(=O)c1cccs1)c1nc2ccc(S(N)(=O)=O)cc2s1

>  <Energy>  (18) 
108.96552781082971

>  <Genealogy>  (18) 
CN(C)CCCN(C(=O)c1cccs1)c1nc2ccc(S(N)(=O)=O)cc2s1 (3D coordinates assigned)
CN(C)CCCN(C(=O)c1cccs1)c1nc2ccc(S(N)(=O)=O)cc2s1 (optimized conformer: 108.96552781082971 kcal/mol)

>  <smiles>  (18) 
CN(C)CCCN(C(=O)c1cccs1)c1nc2ccc(S(N)(=O)=O)cc2s1

>  <score_type>  (18) 
oracle

>  <origin>  (18) 
adgpu

>  <m_score__min__energy>  (18) 
-8.9600000000000009

>  <m_primary>  (18) 
energy

$$$$
18:0
     RDKit          3D

 47 50  0  0  0  0  0  0  0  0999 V2000
   -3.0960   25.6070  -29.7870 H   0  0  0  0  0  0  0  0  0  0  0  0
   -3.8860   25.6740  -30.4180 O   0  0  0  0  0  0  0  0  0  0  0  0
   -4.6290   24.5510  -30.7840 C   0  0  0  0  0  0  0  0  0  0  0  0
   -5.9550   24.7070  -31.2050 C   0  0  0  0  0  0  0  0  0  0  0  0
   -6.3872   25.7157  -31.2807 H   0  0  0  0  0  0  0  0  0  0  0  0
   -6.7350   23.5940  -31.5300 C   0  0  0  0  0  0  0  0  0  0  0  0
   -8.0390   23.7900  -31.9720 O   0  0  0  0  0  0  0  0  0  0  0  0
   -6.1960   22.2990  -31.4250 C   0  0  0  0  0  0  0  0  0  0  0  0
   -7.0090   21.0980  -31.7410 C   0  0  0  0  0  0  0  0  0  0  0  0
   -6.4540   20.0410  -32.4840 C   0  0  0  0  0  0  0  0  0  0  0  0
   -5.4156   20.1087  -32.8405 H   0  0  0  0  0  0  0  0  0  0  0  0
   -7.2160   18.9040  -32.7720 C   0  0  0  0  0  0  0  0  0  0  0  0
   -6.7772   18.0826  -33.3575 H   0  0  0  0  0  0  0  0  0  0  0  0
   -8.5340   18.8100  -32.3170 C   0  0  0  0  0  0  0  0  0  0  0  0
   -9.1323   17.9159  -32.5464 H   0  0  0  0  0  0  0  0  0  0  0  0
   -9.0920   19.8510  -31.5710 C   0  0  0  0  0  0  0  0  0  0  0  0
  -10.1285   19.7747  -31.2106 H   0  0  0  0  0  0  0  0  0  0  0  0
   -8.3340   20.9900  -31.2820 C   0  0  0  0  0  0  0  0  0  0  0  0
   -8.7766   21.8062  -30.6922 H   0  0  0  0  0  0  0  0  0  0  0  0
   -4.8600   22.1450  -31.0190 C   0  0  0  0  0  0  0  0  0  0  0  0
   -4.4312   21.1350  -30.9408 H   0  0  0  0  0  0  0  0  0  0  0  0
   -4.0620   23.2610  -30.7110 C   0  0  0  0  0  0  0  0  0  0  0  0
   -2.6620   23.0460  -30.2790 C   0  0  0  0  0  0  0  0  0  0  0  0
   -2.0490   23.9900  -29.5170 N   0  0  0  0  0  0  0  0  0  0  0  0
   -0.7760   23.8350  -29.0710 C   0  0  0  0  0  0  0  0  0  0  0  0
   -0.1900   24.7430  -28.3450 N   0  0  0  0  0  0  0  0  0  0  0  0
   -0.7120   25.9990  -27.8720 C   0  0  0  0  0  0  0  0  0  0  0  0
   -1.5500   26.6050  -28.5890 O   0  0  0  0  0  0  0  0  0  0  0  0
   -0.3000   26.6250  -26.5710 C   0  0  0  0  0  0  0  0  0  0  0  0
   -0.6934   26.0272  -25.7356 H   0  0  0  0  0  0  0  0  0  0  0  0
    0.7979   26.6594  -26.5121 H   0  0  0  0  0  0  0  0  0  0  0  0
   -0.7026   27.6470  -26.5121 H   0  0  0  0  0  0  0  0  0  0  0  0
   -0.0910   22.7070  -29.3920 N   0  0  0  0  0  0  0  0  0  0  0  0
   -0.6470   21.7190  -30.1460 C   0  0  0  0  0  0  0  0  0  0  0  0
    0.1480   20.5020  -30.4500 C   0  0  0  0  0  0  0  0  0  0  0  0
    0.5500   19.6150  -29.4310 C   0  0  0  0  0  0  0  0  0  0  0  0
    0.2771   19.8244  -28.3862 H   0  0  0  0  0  0  0  0  0  0  0  0
    1.2930   18.4710  -29.7380 C   0  0  0  0  0  0  0  0  0  0  0  0
    1.6074   17.7886  -28.9346 H   0  0  0  0  0  0  0  0  0  0  0  0
    1.6370   18.1930  -31.0640 C   0  0  0  0  0  0  0  0  0  0  0  0
    2.3740   17.0550  -31.3670 O   0  0  0  0  0  0  0  0  0  0  0  0
    1.2350   19.0580  -32.0840 C   0  0  0  0  0  0  0  0  0  0  0  0
    1.5031   18.8375  -33.1278 H   0  0  0  0  0  0  0  0  0  0  0  0
    0.4930   20.2030  -31.7820 C   0  0  0  0  0  0  0  0  0  0  0  0
    0.1757   20.8765  -32.5918 H   0  0  0  0  0  0  0  0  0  0  0  0
   -1.9690   21.8690  -30.5930 C   0  0  0  0  0  0  0  0  0  0  0  0
   -2.4535   21.0752  -31.1805 H   0  0  0  0  0  0  0  0  0  0  0  0
  1  2  1  0
  2  3  1  0
  3  4  2  0
  4  5  1  0
  4  6  1  0
  6  7  1  0
  6  8  2  0
  8  9  1  0
  9 10  2  0
 10 11  1  0
 10 12  1  0
 12 13  1  0
 12 14  2  0
 14 15  1  0
 14 16  1  0
 16 17  1  0
 16 18  2  0
 18 19  1  0
  8 20  1  0
 20 21  1  0
 20 22  2  0
 22 23  1  0
 23 24  2  0
 24 25  1  0
 25 26  2  0
 26 27  1  0
 27 28  2  0
 27 29  1  0
 29 30  1  0
 29 31  1  0
 29 32  1  0
 25 33  1  0
 33 34  1  0
 34 35  1  0
 35 36  2  0
 36 37  1  0
 36 38  1  0
 38 39  1  0
 38 40  2  0
 40 41  1  0
 40 42  1  0
 42 43  1  0
 42 44  2  0
 44 45  1  0
 34 46  2  0
 46 47  1  0
 22  3  1  0
 46 23  1  0
 18  9  1  0
 44 35  1  0
M  CHG  3   7  -1  33  -1  41  -1
M  END
>  <UniqueID>  (19) 
18

>  <SMILES>  (19) 
CC(=O)/N=c1\nc(-c2cc(-c3ccccc3)c([O-])cc2O)cc(-c2ccc([O-])cc2)[n-]1

>  <Energy>  (19) 
70.76772390564825

>  <Genealogy>  (19) 
CC(=O)N=c1nc(-c2cc(-c3ccccc3)c([O-])cc2O)cc(-c2ccc([O-])cc2)[n-]1 (protonated)
CC(=O)/N=c1\nc(-c2cc(-c3ccccc3)c([O-])cc2O)cc(-c2ccc([O-])cc2)[n-]1 (cis-trans isomerization)
CC(=O)/N=c1\nc(-c2cc(-c3ccccc3)c([O-])cc2O)cc(-c2ccc([O-])cc2)[n-]1 (3D coordinates assigned)
CC(=O)/N=c1\nc(-c2cc(-c3ccccc3)c([O-])cc2O)cc(-c2ccc([O-])cc2)[n-]1 (optimized conformer: 70.76772390564825 kcal/mol)

>  <smiles>  (19) 
CC(=O)N=c1nc(-c2cc(-c3ccccc3)c(O)cc2O)cc(-c2ccc(O)cc2)[nH]1

>  <score_type>  (19) 
oracle

>  <origin>  (19) 
adgpu

>  <m_score__min__energy>  (19) 
-11.640000000000001

>  <m_primary>  (19) 
energy

$$$$
19:0
     RDKit          3D

 36 38  0  0  0  0  0  0  0  0999 V2000
   -9.3990   18.2990  -32.2820 O   0  0  0  0  0  0  0  0  0  0  0  0
   -9.1830   19.5390  -32.3170 C   0  0  0  0  0  0  0  0  0  0  0  0
  -10.2650   20.4090  -32.3700 O   0  0  0  0  0  0  0  0  0  0  0  0
   -7.7950   20.0630  -32.2790 C   0  0  0  0  0  0  0  0  0  0  0  0
   -6.7230   19.3470  -32.8650 C   0  0  0  0  0  0  0  0  0  0  0  0
   -6.8970   18.0290  -33.4080 N   0  0  0  0  0  0  0  0  0  0  0  0
   -5.8120   17.1010  -33.6140 C   0  0  0  0  0  0  0  0  0  0  0  0
   -5.5350   16.0800  -32.6840 C   0  0  0  0  0  0  0  0  0  0  0  0
   -4.4760   15.1920  -32.9020 C   0  0  0  0  0  0  0  0  0  0  0  0
   -4.1440   13.9210  -31.7400 Cl  0  0  0  0  0  0  0  0  0  0  0  0
   -3.6810   15.3200  -34.0440 C   0  0  0  0  0  0  0  0  0  0  0  0
   -3.9400   16.3360  -34.9660 C   0  0  0  0  0  0  0  0  0  0  0  0
   -4.9980   17.2260  -34.7530 C   0  0  0  0  0  0  0  0  0  0  0  0
   -5.2370   18.2010  -35.6660 F   0  0  0  0  0  0  0  0  0  0  0  0
   -5.4460   19.9180  -32.9070 C   0  0  0  0  0  0  0  0  0  0  0  0
   -5.2030   21.1640  -32.3330 C   0  0  0  0  0  0  0  0  0  0  0  0
   -3.9400   21.6620  -32.3520 F   0  0  0  0  0  0  0  0  0  0  0  0
   -6.2440   21.8720  -31.7090 C   0  0  0  0  0  0  0  0  0  0  0  0
   -5.9840   23.1930  -31.0900 C   0  0  0  0  0  0  0  0  0  0  0  0
   -7.0510   24.0310  -30.7220 C   0  0  0  0  0  0  0  0  0  0  0  0
   -6.8010   25.2770  -30.1370 C   0  0  0  0  0  0  0  0  0  0  0  0
   -5.4880   25.6960  -29.9170 C   0  0  0  0  0  0  0  0  0  0  0  0
   -4.4190   24.8710  -30.2790 C   0  0  0  0  0  0  0  0  0  0  0  0
   -3.1120   25.2910  -30.0610 O   0  0  0  0  0  0  0  0  0  0  0  0
   -4.6650   23.6240  -30.8630 C   0  0  0  0  0  0  0  0  0  0  0  0
   -7.5380   21.3190  -31.6890 C   0  0  0  0  0  0  0  0  0  0  0  0
   -8.5600   22.0380  -31.1520 F   0  0  0  0  0  0  0  0  0  0  0  0
   -7.8360   17.7920  -33.8000 H   0  0  0  0  0  0  0  0  0  0  0  0
   -6.1550   15.9802  -31.7809 H   0  0  0  0  0  0  0  0  0  0  0  0
   -2.8505   14.6198  -34.2167 H   0  0  0  0  0  0  0  0  0  0  0  0
   -3.3104   16.4369  -35.8623 H   0  0  0  0  0  0  0  0  0  0  0  0
   -4.6245   19.3767  -33.3990 H   0  0  0  0  0  0  0  0  0  0  0  0
   -8.0874   23.7055  -30.8948 H   0  0  0  0  0  0  0  0  0  0  0  0
   -7.6404   25.9274  -29.8500 H   0  0  0  0  0  0  0  0  0  0  0  0
   -5.2940   26.6767  -29.4581 H   0  0  0  0  0  0  0  0  0  0  0  0
   -3.8218   22.9769  -31.1463 H   0  0  0  0  0  0  0  0  0  0  0  0
  1  2  2  0
  2  3  1  0
  2  4  1  0
  4  5  2  0
  5  6  1  0
  6  7  1  0
  7  8  2  0
  8  9  1  0
  9 10  1  0
  9 11  2  0
 11 12  1  0
 12 13  2  0
 13 14  1  0
  5 15  1  0
 15 16  2  0
 16 17  1  0
 16 18  1  0
 18 19  1  0
 19 20  2  0
 20 21  1  0
 21 22  2  0
 22 23  1  0
 23 24  1  0
 23 25  2  0
 18 26  2  0
 26 27  1  0
 26  4  1  0
 13  7  1  0
 25 19  1  0
  6 28  1  0
  8 29  1  0
 11 30  1  0
 12 31  1  0
 15 32  1  0
 20 33  1  0
 21 34  1  0
 22 35  1  0
 25 36  1  0
M  CHG  2   3  -1  24  -1
M  END
>  <UniqueID>  (20) 
19

>  <SMILES>  (20) 
O=C([O-])c1c(Nc2cc(Cl)ccc2F)cc(F)c(-c2cccc([O-])c2)c1F

>  <Energy>  (20) 
57.91352144564292

>  <Genealogy>  (20) 
O=C([O-])c1c(Nc2cc(Cl)ccc2F)cc(F)c(-c2cccc([O-])c2)c1F (protonated)
O=C([O-])c1c(Nc2cc(Cl)ccc2F)cc(F)c(-c2cccc([O-])c2)c1F (3D coordinates assigned)
O=C([O-])c1c(Nc2cc(Cl)ccc2F)cc(F)c(-c2cccc([O-])c2)c1F (optimized conformer: 57.91352144564292 kcal/mol)

>  <smiles>  (20) 
O=C(O)c1c(Nc2cc(Cl)ccc2F)cc(F)c(-c2cccc(O)c2)c1F

>  <score_type>  (20) 
oracle

>  <origin>  (20) 
adgpu

>  <m_score__min__energy>  (20) 
-11.800000000000001

>  <m_primary>  (20) 
energy

$$$$
20:0
     RDKit          3D

 41 43  0  0  0  0  0  0  0  0999 V2000
   -4.7830   25.5890  -30.4380 N   0  0  0  0  0  0  0  0  0  0  0  0
   -5.5370   24.3880  -30.6520 C   0  0  0  0  0  0  0  0  0  0  0  0
   -6.9200   24.4930  -30.8660 C   0  0  0  0  0  0  0  0  0  0  0  0
   -7.6830   23.3650  -31.1630 C   0  0  0  0  0  0  0  0  0  0  0  0
   -7.0790   22.1070  -31.2480 C   0  0  0  0  0  0  0  0  0  0  0  0
   -8.0450   20.6790  -31.6390 S   0  0  0  0  0  0  0  0  0  0  0  0
   -8.9190   20.3430  -30.4620 O   0  0  0  0  0  0  0  0  0  0  0  0
   -8.9400   20.9990  -32.8050 O   0  0  0  0  0  0  0  0  0  0  0  0
   -7.0700   19.2860  -32.0390 N   0  0  0  0  0  0  0  0  0  0  0  0
   -6.3820   19.4460  -33.3190 C   0  0  0  0  0  0  0  0  0  0  0  0
   -6.1210   18.0420  -33.8440 C   0  0  0  0  0  0  0  0  0  0  0  0
   -7.0900   17.1430  -33.0900 C   0  0  0  0  0  0  0  0  0  0  0  0
   -7.8720   18.0720  -32.1760 C   0  0  0  0  0  0  0  0  0  0  0  0
   -5.7010   21.9880  -31.0320 C   0  0  0  0  0  0  0  0  0  0  0  0
   -4.9190   23.1130  -30.7110 C   0  0  0  0  0  0  0  0  0  0  0  0
   -3.4860   22.9040  -30.4020 C   0  0  0  0  0  0  0  0  0  0  0  0
   -3.0110   21.7370  -30.3660 O   0  0  0  0  0  0  0  0  0  0  0  0
   -2.6580   24.0430  -30.1100 N   0  0  0  0  0  0  0  0  0  0  0  0
   -2.3390   24.5550  -28.9540 C   0  0  0  0  0  0  0  0  0  0  0  0
   -2.6800   23.9550  -27.7220 C   0  0  0  0  0  0  0  0  0  0  0  0
   -2.2910   24.5660  -26.5280 C   0  0  0  0  0  0  0  0  0  0  0  0
   -1.5600   25.7540  -26.5570 C   0  0  0  0  0  0  0  0  0  0  0  0
   -1.0170   26.5950  -24.9310 Br  0  0  0  0  0  0  0  0  0  0  0  0
   -1.2210   26.3120  -27.7890 C   0  0  0  0  0  0  0  0  0  0  0  0
   -1.6100   25.7050  -28.9420 N   0  0  0  0  0  0  0  0  0  0  0  0
   -4.0840   25.6430  -29.6630 H   0  0  0  0  0  0  0  0  0  0  0  0
   -4.9940   26.4730  -30.9470 H   0  0  0  0  0  0  0  0  0  0  0  0
   -7.4075   25.4768  -30.7986 H   0  0  0  0  0  0  0  0  0  0  0  0
   -8.7654   23.4650  -31.3313 H   0  0  0  0  0  0  0  0  0  0  0  0
   -7.0152   20.0044  -34.0242 H   0  0  0  0  0  0  0  0  0  0  0  0
   -5.4442   20.0085  -33.2004 H   0  0  0  0  0  0  0  0  0  0  0  0
   -6.3134   17.9936  -34.9260 H   0  0  0  0  0  0  0  0  0  0  0  0
   -5.0755   17.7358  -33.6919 H   0  0  0  0  0  0  0  0  0  0  0  0
   -7.7669   16.6328  -33.7910 H   0  0  0  0  0  0  0  0  0  0  0  0
   -6.5657   16.3582  -32.5250 H   0  0  0  0  0  0  0  0  0  0  0  0
   -8.8494   18.3098  -32.6211 H   0  0  0  0  0  0  0  0  0  0  0  0
   -8.0594   17.6049  -31.1979 H   0  0  0  0  0  0  0  0  0  0  0  0
   -5.2226   21.0009  -31.1144 H   0  0  0  0  0  0  0  0  0  0  0  0
   -3.2479   23.0131  -27.7029 H   0  0  0  0  0  0  0  0  0  0  0  0
   -2.5611   24.1103  -25.5640 H   0  0  0  0  0  0  0  0  0  0  0  0
   -0.6383   27.2442  -27.8283 H   0  0  0  0  0  0  0  0  0  0  0  0
  1  2  1  0
  2  3  2  0
  3  4  1  0
  4  5  2  0
  5  6  1  0
  6  7  2  0
  6  8  2  0
  6  9  1  0
  9 10  1  0
 10 11  1  0
 11 12  1  0
 12 13  1  0
  5 14  1  0
 14 15  2  0
 15 16  1  0
 16 17  2  0
 16 18  1  0
 18 19  2  3
 19 20  1  0
 20 21  2  0
 21 22  1  0
 22 23  1  0
 22 24  2  0
 24 25  1  0
 15  2  1  0
 25 19  1  0
 13  9  1  0
  1 26  1  0
  1 27  1  0
  3 28  1  0
  4 29  1  0
 10 30  1  0
 10 31  1  0
 11 32  1  0
 11 33  1  0
 12 34  1  0
 12 35  1  0
 13 36  1  0
 13 37  1  0
 14 38  1  0
 20 39  1  0
 21 40  1  0
 24 41  1  0
M  CHG  1  25  -1
M  END
>  <UniqueID>  (21) 
20

>  <SMILES>  (21) 
Nc1ccc(S(=O)(=O)N2CCCC2)cc1C(=O)N=c1ccc(Br)c[n-]1

>  <Energy>  (21) 
56.818148014936845

>  <Genealogy>  (21) 
Nc1ccc(S(=O)(=O)N2CCCC2)cc1C(=O)N=c1ccc(Br)c[n-]1 (protonated)
Nc1ccc(S(=O)(=O)N2CCCC2)cc1C(=O)N=c1ccc(Br)c[n-]1 (3D coordinates assigned)
Nc1ccc(S(=O)(=O)N2CCCC2)cc1C(=O)N=c1ccc(Br)c[n-]1 (nonaromatic ring conformer: 56.818148014936845 kcal/mol)

>  <smiles>  (21) 
Nc1ccc(S(=O)(=O)N2CCCC2)cc1C(=O)N=c1ccc(Br)c[nH]1

>  <score_type>  (21) 
oracle

>  <origin>  (21) 
adgpu

>  <m_score__min__energy>  (21) 
-10.890000000000001

>  <m_primary>  (21) 
energy

$$$$
21:0
     RDKit          3D

 32 34  0  0  0  0  0  0  0  0999 V2000
   -9.1150   23.3680  -32.0470 C   0  0  0  0  0  0  0  0  0  0  0  0
   -7.8850   22.6080  -31.8060 N   0  0  0  0  0  0  0  0  0  0  0  0
   -6.7010   23.2890  -31.3520 C   0  0  0  0  0  0  0  0  0  0  0  0
   -6.8030   24.5210  -30.6840 C   0  0  0  0  0  0  0  0  0  0  0  0
   -5.6530   25.1880  -30.2520 C   0  0  0  0  0  0  0  0  0  0  0  0
   -4.3910   24.6340  -30.4880 C   0  0  0  0  0  0  0  0  0  0  0  0
   -3.2490   25.2970  -30.0570 O   0  0  0  0  0  0  0  0  0  0  0  0
   -4.2800   23.4120  -31.1580 C   0  0  0  0  0  0  0  0  0  0  0  0
   -5.4280   22.7430  -31.5920 C   0  0  0  0  0  0  0  0  0  0  0  0
   -7.8560   21.2010  -32.1210 C   0  0  0  0  0  0  0  0  0  0  0  0
   -6.8380   20.6050  -32.7730 N   0  0  0  0  0  0  0  0  0  0  0  0
   -7.2460   19.3160  -32.8080 C   0  0  0  0  0  0  0  0  0  0  0  0
   -6.4700   18.2260  -33.4370 C   0  0  0  0  0  0  0  0  0  0  0  0
   -6.8100   16.8820  -33.2120 C   0  0  0  0  0  0  0  0  0  0  0  0
   -6.0630   15.8690  -33.8180 C   0  0  0  0  0  0  0  0  0  0  0  0
   -5.0120   16.1830  -34.6210 N   0  0  0  0  0  0  0  0  0  0  0  0
   -4.6580   17.4740  -34.8570 C   0  0  0  0  0  0  0  0  0  0  0  0
   -5.3780   18.5180  -34.2700 C   0  0  0  0  0  0  0  0  0  0  0  0
   -8.4390   19.1340  -32.2040 N   0  0  0  0  0  0  0  0  0  0  0  0
   -8.8130   20.3240  -31.7730 N   0  0  0  0  0  0  0  0  0  0  0  0
   -9.5677   23.6477  -31.0843 H   0  0  0  0  0  0  0  0  0  0  0  0
   -8.8781   24.2774  -32.6188 H   0  0  0  0  0  0  0  0  0  0  0  0
   -9.8223   22.7492  -32.6188 H   0  0  0  0  0  0  0  0  0  0  0  0
   -7.7933   24.9630  -30.5000 H   0  0  0  0  0  0  0  0  0  0  0  0
   -5.7409   26.1499  -29.7257 H   0  0  0  0  0  0  0  0  0  0  0  0
   -3.2873   22.9761  -31.3440 H   0  0  0  0  0  0  0  0  0  0  0  0
   -5.3349   21.7847  -32.1239 H   0  0  0  0  0  0  0  0  0  0  0  0
   -7.6603   16.6283  -32.5618 H   0  0  0  0  0  0  0  0  0  0  0  0
   -6.3258   14.8149  -33.6450 H   0  0  0  0  0  0  0  0  0  0  0  0
   -3.8027   17.6975  -35.5116 H   0  0  0  0  0  0  0  0  0  0  0  0
   -5.0908   19.5628  -34.4595 H   0  0  0  0  0  0  0  0  0  0  0  0
   -9.6920   20.5090  -31.2410 H   0  0  0  0  0  0  0  0  0  0  0  0
  1  2  1  0
  2  3  1  0
  3  4  2  0
  4  5  1  0
  5  6  2  0
  6  7  1  0
  6  8  1  0
  8  9  2  0
  2 10  1  0
 10 11  2  0
 11 12  1  0
 12 13  1  0
 13 14  2  0
 14 15  1  0
 15 16  2  0
 16 17  1  0
 17 18  2  0
 12 19  2  0
 19 20  1  0
  9  3  1  0
 20 10  1  0
 18 13  1  0
  1 21  1  0
  1 22  1  0
  1 23  1  0
  4 24  1  0
  5 25  1  0
  8 26  1  0
  9 27  1  0
 14 28  1  0
 15 29  1  0
 17 30  1  0
 18 31  1  0
 20 32  1  0
M  CHG  1   7  -1
M  END
>  <UniqueID>  (22) 
21

>  <SMILES>  (22) 
CN(c1ccc([O-])cc1)c1nc(-c2ccncc2)n[nH]1

>  <Energy>  (22) 
74.01370172272976

>  <Genealogy>  (22) 
CN(c1ccc([O-])cc1)c1nc(-c2ccncc2)n[nH]1 (protonated)
CN(c1ccc([O-])cc1)c1nc(-c2ccncc2)n[nH]1 (3D coordinates assigned)
CN(c1ccc([O-])cc1)c1nc(-c2ccncc2)n[nH]1 (optimized conformer: 74.01370172272976 kcal/mol)

>  <smiles>  (22) 
CN(c1ccc(O)cc1)c1nc(-c2ccncc2)n[nH]1

>  <score_type>  (22) 
oracle

>  <origin>  (22) 
adgpu

>  <m_score__min__energy>  (22) 
-10.5

>  <m_primary>  (22) 
energy

$$$$
22:0
     RDKit          3D

 60 64  0  0  0  0  0  0  0  0999 V2000
    1.4530   27.9890  -26.6590 C   0  0  0  0  0  0  0  0  0  0  0  0
    0.2630   27.4950  -25.9590 N   0  0  0  0  0  0  0  0  0  0  0  0
   -0.0150   27.9900  -24.6000 C   0  0  0  0  0  0  0  0  0  0  0  0
   -0.6910   26.9070  -23.7610 C   0  0  0  0  0  0  0  0  0  0  0  0
   -1.9850   26.4470  -24.4350 C   0  0  0  0  0  0  0  0  0  0  0  0
   -1.7470   26.0410  -25.8660 C   0  0  0  0  0  0  0  0  0  0  0  0
   -2.6510   25.1640  -26.4860 C   0  0  0  0  0  0  0  0  0  0  0  0
   -2.4830   24.7900  -27.8290 C   0  0  0  0  0  0  0  0  0  0  0  0
   -3.4010   23.8910  -28.4760 N   0  0  0  0  0  0  0  0  0  0  0  0
   -3.8010   24.0230  -29.8500 C   0  0  0  0  0  0  0  0  0  0  0  0
   -3.6440   25.1280  -30.4430 O   0  0  0  0  0  0  0  0  0  0  0  0
   -4.4700   22.9060  -30.5590 C   0  0  0  0  0  0  0  0  0  0  0  0
   -5.7070   23.1140  -31.1980 C   0  0  0  0  0  0  0  0  0  0  0  0
   -6.3480   22.0650  -31.8640 C   0  0  0  0  0  0  0  0  0  0  0  0
   -5.7620   20.7940  -31.9080 C   0  0  0  0  0  0  0  0  0  0  0  0
   -6.5950   19.4910  -32.7530 S   0  0  0  0  0  0  0  0  0  0  0  0
   -7.9620   19.9830  -33.1430 O   0  0  0  0  0  0  0  0  0  0  0  0
   -6.7520   18.2960  -31.8540 O   0  0  0  0  0  0  0  0  0  0  0  0
   -5.6810   19.0770  -34.1860 N   0  0  0  0  0  0  0  0  0  0  0  0
   -4.2210   19.1350  -33.9790 C   0  0  0  0  0  0  0  0  0  0  0  0
   -3.6820   17.9940  -33.0930 C   0  0  0  0  0  0  0  0  0  0  0  0
   -4.3860   16.6780  -33.3120 C   0  0  0  0  0  0  0  0  0  0  0  0
   -3.8730   15.5210  -32.7030 C   0  0  0  0  0  0  0  0  0  0  0  0
   -4.5190   14.2880  -32.8530 C   0  0  0  0  0  0  0  0  0  0  0  0
   -3.8350   12.8660  -32.0800 Cl  0  0  0  0  0  0  0  0  0  0  0  0
   -5.6970   14.2070  -33.6150 C   0  0  0  0  0  0  0  0  0  0  0  0
   -6.5310   12.6730  -33.8430 Cl  0  0  0  0  0  0  0  0  0  0  0  0
   -6.2170   15.3590  -34.2170 C   0  0  0  0  0  0  0  0  0  0  0  0
   -5.5800   16.6000  -34.0560 C   0  0  0  0  0  0  0  0  0  0  0  0
   -6.1130   17.8040  -34.7890 C   0  0  0  0  0  0  0  0  0  0  0  0
   -4.5240   20.5800  -31.2870 C   0  0  0  0  0  0  0  0  0  0  0  0
   -3.8810   21.6290  -30.6180 C   0  0  0  0  0  0  0  0  0  0  0  0
   -1.4260   25.3430  -28.5620 C   0  0  0  0  0  0  0  0  0  0  0  0
   -0.5260   26.2250  -27.9590 C   0  0  0  0  0  0  0  0  0  0  0  0
   -0.6730   26.5900  -26.6050 C   0  0  0  0  0  0  0  0  0  0  0  0
    2.2078   28.3023  -25.9228 H   0  0  0  0  0  0  0  0  0  0  0  0
    1.8663   27.1881  -27.2897 H   0  0  0  0  0  0  0  0  0  0  0  0
    1.1776   28.8471  -27.2897 H   0  0  0  0  0  0  0  0  0  0  0  0
    0.9314   28.2807  -24.1205 H   0  0  0  0  0  0  0  0  0  0  0  0
   -0.6885   28.8569  -24.6693 H   0  0  0  0  0  0  0  0  0  0  0  0
   -0.0101   26.0492  -23.6581 H   0  0  0  0  0  0  0  0  0  0  0  0
   -0.9296   27.3182  -22.7691 H   0  0  0  0  0  0  0  0  0  0  0  0
   -2.3901   25.5868  -23.8819 H   0  0  0  0  0  0  0  0  0  0  0  0
   -2.6957   27.2866  -24.4277 H   0  0  0  0  0  0  0  0  0  0  0  0
   -3.5010   24.7651  -25.9130 H   0  0  0  0  0  0  0  0  0  0  0  0
   -3.9180   23.2070  -27.8800 H   0  0  0  0  0  0  0  0  0  0  0  0
   -6.1731   24.1101  -31.1731 H   0  0  0  0  0  0  0  0  0  0  0  0
   -7.3166   22.2389  -32.3554 H   0  0  0  0  0  0  0  0  0  0  0  0
   -3.7272   19.0774  -34.9603 H   0  0  0  0  0  0  0  0  0  0  0  0
   -4.0042   20.0798  -33.4590 H   0  0  0  0  0  0  0  0  0  0  0  0
   -2.6129   17.8577  -33.3130 H   0  0  0  0  0  0  0  0  0  0  0  0
   -3.8590   18.2854  -32.0472 H   0  0  0  0  0  0  0  0  0  0  0  0
   -2.9540   15.5843  -32.1018 H   0  0  0  0  0  0  0  0  0  0  0  0
   -7.1333   15.2914  -34.8219 H   0  0  0  0  0  0  0  0  0  0  0  0
   -5.7562   17.7687  -35.8289 H   0  0  0  0  0  0  0  0  0  0  0  0
   -7.2109   17.7667  -34.7328 H   0  0  0  0  0  0  0  0  0  0  0  0
   -4.0560   19.5853  -31.3251 H   0  0  0  0  0  0  0  0  0  0  0  0
   -2.9084   21.4536  -30.1350 H   0  0  0  0  0  0  0  0  0  0  0  0
   -1.3030   25.0804  -29.6231 H   0  0  0  0  0  0  0  0  0  0  0  0
    0.3064   26.6392  -28.5469 H   0  0  0  0  0  0  0  0  0  0  0  0
  1  2  1  0
  2  3  1  0
  3  4  1  0
  4  5  1  0
  5  6  1  0
  6  7  2  0
  7  8  1  0
  8  9  1  0
  9 10  1  0
 10 11  2  0
 10 12  1  0
 12 13  2  0
 13 14  1  0
 14 15  2  0
 15 16  1  0
 16 17  2  0
 16 18  2  0
 16 19  1  0
 19 20  1  0
 20 21  1  0
 21 22  1  0
 22 23  2  0
 23 24  1  0
 24 25  1  0
 24 26  2  0
 26 27  1  0
 26 28  1  0
 28 29  2  0
 29 30  1  0
 15 31  1  0
 31 32  2  0
  8 33  2  0
 33 34  1  0
 34 35  2  0
 35  2  1  0
 35  6  1  0
 32 12  1  0
 30 19  1  0
 29 22  1  0
  1 36  1  0
  1 37  1  0
  1 38  1  0
  3 39  1  0
  3 40  1  0
  4 41  1  0
  4 42  1  0
  5 43  1  0
  5 44  1  0
  7 45  1  0
  9 46  1  0
 13 47  1  0
 14 48  1  0
 20 49  1  0
 20 50  1  0
 21 51  1  0
 21 52  1  0
 23 53  1  0
 28 54  1  0
 30 55  1  0
 30 56  1  0
 31 57  1  0
 32 58  1  0
 33 59  1  0
 34 60  1  0
M  END
>  <UniqueID>  (23) 
22

>  <SMILES>  (23) 
CN1CCCc2cc(NC(=O)c3ccc(S(=O)(=O)N4CCc5cc(Cl)c(Cl)cc5C4)cc3)ccc21

>  <Energy>  (23) 
76.97985690331289

>  <Genealogy>  (23) 
CN1CCCc2cc(NC(=O)c3ccc(S(=O)(=O)N4CCc5cc(Cl)c(Cl)cc5C4)cc3)ccc21 (3D coordinates assigned)
CN1CCCc2cc(NC(=O)c3ccc(S(=O)(=O)N4CCc5cc(Cl)c(Cl)cc5C4)cc3)ccc21 (nonaromatic ring conformer: 76.97985690331289 kcal/mol)

>  <smiles>  (23) 
CN1CCCc2cc(NC(=O)c3ccc(S(=O)(=O)N4CCc5cc(Cl)c(Cl)cc5C4)cc3)ccc21

>  <score_type>  (23) 
oracle

>  <origin>  (23) 
adgpu

>  <m_score__min__energy>  (23) 
-10.630000000000001

>  <m_primary>  (23) 
energy

$$$$
23:0
     RDKit          3D

 31 32  0  0  0  0  0  0  0  0999 V2000
   -5.5430   24.3420  -29.0740 N   0  0  0  0  0  0  0  0  0  0  0  0
   -4.0490   24.4940  -29.9300 S   0  0  0  0  0  0  0  0  0  0  0  0
   -4.1160   25.6620  -30.8730 O   0  0  0  0  0  0  0  0  0  0  0  0
   -2.9460   24.7540  -28.9420 O   0  0  0  0  0  0  0  0  0  0  0  0
   -3.7180   22.9980  -30.8200 C   0  0  0  0  0  0  0  0  0  0  0  0
   -2.3970   22.5160  -30.8300 C   0  0  0  0  0  0  0  0  0  0  0  0
   -2.0650   21.3550  -31.5260 C   0  0  0  0  0  0  0  0  0  0  0  0
   -3.0440   20.6570  -32.2270 C   0  0  0  0  0  0  0  0  0  0  0  0
   -4.3630   21.1120  -32.2230 C   0  0  0  0  0  0  0  0  0  0  0  0
   -4.7240   22.2670  -31.5100 C   0  0  0  0  0  0  0  0  0  0  0  0
   -6.4310   22.7500  -31.5380 S   0  0  0  0  0  0  0  0  0  0  0  0
   -7.0830   22.5270  -30.2030 O   0  0  0  0  0  0  0  0  0  0  0  0
   -6.5240   24.2050  -31.9020 O   0  0  0  0  0  0  0  0  0  0  0  0
   -7.2880   21.8390  -32.7070 O   0  0  0  0  0  0  0  0  0  0  0  0
   -7.4920   20.4520  -32.6490 C   0  0  0  0  0  0  0  0  0  0  0  0
   -8.4970   19.9670  -31.8030 C   0  0  0  0  0  0  0  0  0  0  0  0
   -8.7480   18.5950  -31.7130 C   0  0  0  0  0  0  0  0  0  0  0  0
   -7.9950   17.6940  -32.4690 C   0  0  0  0  0  0  0  0  0  0  0  0
   -6.9880   18.1650  -33.3180 C   0  0  0  0  0  0  0  0  0  0  0  0
   -6.0460   17.0340  -34.2700 Cl  0  0  0  0  0  0  0  0  0  0  0  0
   -6.7340   19.5380  -33.4080 C   0  0  0  0  0  0  0  0  0  0  0  0
   -6.3090   24.5160  -29.7630 H   0  0  0  0  0  0  0  0  0  0  0  0
   -5.6250   23.3430  -28.7760 H   0  0  0  0  0  0  0  0  0  0  0  0
   -1.6156   23.0623  -30.2814 H   0  0  0  0  0  0  0  0  0  0  0  0
   -1.0274   20.9897  -31.5213 H   0  0  0  0  0  0  0  0  0  0  0  0
   -2.7779   19.7466  -32.7842 H   0  0  0  0  0  0  0  0  0  0  0  0
   -5.1299   20.5591  -32.7854 H   0  0  0  0  0  0  0  0  0  0  0  0
   -9.0936   20.6713  -31.2046 H   0  0  0  0  0  0  0  0  0  0  0  0
   -9.5399   18.2243  -31.0456 H   0  0  0  0  0  0  0  0  0  0  0  0
   -8.1937   16.6145  -32.3969 H   0  0  0  0  0  0  0  0  0  0  0  0
   -5.9394   19.9055  -34.0740 H   0  0  0  0  0  0  0  0  0  0  0  0
  1  2  1  0
  2  3  2  0
  2  4  2  0
  2  5  1  0
  5  6  2  0
  6  7  1  0
  7  8  2  0
  8  9  1  0
  9 10  2  0
 10 11  1  0
 11 12  2  0
 11 13  2  0
 11 14  1  0
 14 15  1  0
 15 16  2  0
 16 17  1  0
 17 18  2  0
 18 19  1  0
 19 20  1  0
 19 21  2  0
 10  5  1  0
 21 15  1  0
  1 22  1  0
  1 23  1  0
  6 24  1  0
  7 25  1  0
  8 26  1  0
  9 27  1  0
 16 28  1  0
 17 29  1  0
 18 30  1  0
 21 31  1  0
M  END
>  <UniqueID>  (24) 
23

>  <SMILES>  (24) 
NS(=O)(=O)c1ccccc1S(=O)(=O)Oc1cccc(Cl)c1

>  <Energy>  (24) 
33.702659794535016

>  <Genealogy>  (24) 
NS(=O)(=O)c1ccccc1S(=O)(=O)Oc1cccc(Cl)c1 (3D coordinates assigned)
NS(=O)(=O)c1ccccc1S(=O)(=O)Oc1cccc(Cl)c1 (optimized conformer: 33.702659794535016 kcal/mol)

>  <smiles>  (24) 
NS(=O)(=O)c1ccccc1S(=O)(=O)Oc1cccc(Cl)c1

>  <score_type>  (24) 
oracle

>  <origin>  (24) 
adgpu

>  <m_score__min__energy>  (24) 
-8.3399999999999999

>  <m_primary>  (24) 
energy

$$$$
24:0
     RDKit          3D

 49 52  0  0  0  0  0  0  0  0999 V2000
   -9.5530   19.4860  -33.0520 C   0  0  0  0  0  0  0  0  0  0  0  0
   -8.1530   19.3330  -32.4300 C   0  0  1  0  0  0  0  0  0  0  0  0
   -8.1730   18.1980  -31.3780 C   0  0  0  0  0  0  0  0  0  0  0  0
   -6.8640   17.7340  -31.1450 O   0  0  0  0  0  0  0  0  0  0  0  0
   -6.4040   17.0070  -32.2700 C   0  0  0  0  0  0  0  0  0  0  0  0
   -6.7230   17.6910  -33.6260 C   0  0  0  0  0  0  0  0  0  0  0  0
   -7.1090   19.1160  -33.4800 N   0  0  2  0  0  0  0  0  0  0  0  0
   -5.9420   19.9530  -33.2450 C   0  0  0  0  0  0  0  0  0  0  0  0
   -6.0530   21.1560  -32.5290 C   0  0  0  0  0  0  0  0  0  0  0  0
   -4.8980   21.9200  -32.2940 C   0  0  0  0  0  0  0  0  0  0  0  0
   -4.9470   23.2060  -31.5530 C   0  0  0  0  0  0  0  0  0  0  0  0
   -6.1210   23.9870  -31.5110 C   0  0  0  0  0  0  0  0  0  0  0  0
   -6.1460   25.1910  -30.8000 C   0  0  0  0  0  0  0  0  0  0  0  0
   -5.0070   25.6300  -30.1200 C   0  0  0  0  0  0  0  0  0  0  0  0
   -3.8400   24.8620  -30.1450 C   0  0  0  0  0  0  0  0  0  0  0  0
   -2.7090   25.2970  -29.4660 O   0  0  0  0  0  0  0  0  0  0  0  0
   -3.8100   23.6550  -30.8530 C   0  0  0  0  0  0  0  0  0  0  0  0
   -3.7040   21.4740  -32.7740 N   0  0  0  0  0  0  0  0  0  0  0  0
   -3.6030   20.3050  -33.4600 C   0  0  0  0  0  0  0  0  0  0  0  0
   -2.3270   19.8610  -33.9460 N   0  0  0  0  0  0  0  0  0  0  0  0
   -2.0060   18.4700  -34.1980 C   0  0  0  0  0  0  0  0  0  0  0  0
   -0.5210   18.4490  -34.5380 C   0  0  0  0  0  0  0  0  0  0  0  0
   -0.1370   19.8940  -34.8500 C   0  0  0  0  0  0  0  0  0  0  0  0
   -1.2250   20.7620  -34.2300 C   0  0  0  0  0  0  0  0  0  0  0  0
   -4.7140   19.5570  -33.6800 N   0  0  0  0  0  0  0  0  0  0  0  0
  -10.3029   19.5680  -32.2514 H   0  0  0  0  0  0  0  0  0  0  0  0
   -9.5806   20.3925  -33.6745 H   0  0  0  0  0  0  0  0  0  0  0  0
   -9.7757   18.6069  -33.6745 H   0  0  0  0  0  0  0  0  0  0  0  0
   -7.8832   20.2687  -31.9184 H   0  0  0  0  0  0  0  0  0  0  0  0
   -8.5967   18.5804  -30.4376 H   0  0  0  0  0  0  0  0  0  0  0  0
   -8.7887   17.3678  -31.7543 H   0  0  0  0  0  0  0  0  0  0  0  0
   -5.3132   16.8917  -32.1870 H   0  0  0  0  0  0  0  0  0  0  0  0
   -6.9290   16.0404  -32.2655 H   0  0  0  0  0  0  0  0  0  0  0  0
   -5.8303   17.6335  -34.2661 H   0  0  0  0  0  0  0  0  0  0  0  0
   -7.5801   17.1616  -34.0679 H   0  0  0  0  0  0  0  0  0  0  0  0
   -7.5040   19.3900  -34.4110 H   0  0  0  0  0  0  0  0  0  0  0  0
   -7.0311   21.4953  -32.1573 H   0  0  0  0  0  0  0  0  0  0  0  0
   -7.0228   23.6467  -32.0410 H   0  0  0  0  0  0  0  0  0  0  0  0
   -7.0654   25.7944  -30.7760 H   0  0  0  0  0  0  0  0  0  0  0  0
   -5.0291   26.5797  -29.5653 H   0  0  0  0  0  0  0  0  0  0  0  0
   -2.8903   23.0516  -30.8629 H   0  0  0  0  0  0  0  0  0  0  0  0
   -2.2039   17.8617  -33.3031 H   0  0  0  0  0  0  0  0  0  0  0  0
   -2.6165   18.0517  -35.0118 H   0  0  0  0  0  0  0  0  0  0  0  0
    0.0612   18.0755  -33.6826 H   0  0  0  0  0  0  0  0  0  0  0  0
   -0.3134   17.7852  -35.3902 H   0  0  0  0  0  0  0  0  0  0  0  0
    0.8412   20.1334  -34.4075 H   0  0  0  0  0  0  0  0  0  0  0  0
   -0.0555   20.0638  -35.9338 H   0  0  0  0  0  0  0  0  0  0  0  0
   -0.8619   21.2291  -33.3027 H   0  0  0  0  0  0  0  0  0  0  0  0
   -1.5285   21.5776  -34.9029 H   0  0  0  0  0  0  0  0  0  0  0  0
  1  2  1  0
  2  3  1  0
  3  4  1  0
  4  5  1  0
  5  6  1  0
  6  7  1  0
  7  8  1  0
  8  9  2  0
  9 10  1  0
 10 11  1  0
 11 12  2  0
 12 13  1  0
 13 14  2  0
 14 15  1  0
 15 16  1  0
 15 17  2  0
 10 18  2  0
 18 19  1  0
 19 20  1  0
 20 21  1  0
 21 22  1  0
 22 23  1  0
 23 24  1  0
 19 25  2  0
  7  2  1  0
 25  8  1  0
 17 11  1  0
 24 20  1  0
  1 26  1  0
  1 27  1  0
  1 28  1  0
  2 29  1  1
  3 30  1  0
  3 31  1  0
  5 32  1  0
  5 33  1  0
  6 34  1  0
  6 35  1  0
  7 36  1  6
  9 37  1  0
 12 38  1  0
 13 39  1  0
 14 40  1  0
 17 41  1  0
 21 42  1  0
 21 43  1  0
 22 44  1  0
 22 45  1  0
 23 46  1  0
 23 47  1  0
 24 48  1  0
 24 49  1  0
M  CHG  2   7   1  16  -1
M  END
>  <UniqueID>  (25) 
24

>  <SMILES>  (25) 
C[C@H]1COCC[N@@H+]1c1cc(-c2cccc([O-])c2)nc(N2CCCC2)n1

>  <Energy>  (25) 
68.11111871254086

>  <Genealogy>  (25) 
CC1COCC[NH+]1c1cc(-c2cccc([O-])c2)nc(N2CCCC2)n1 (protonated)
C[C@H]1COCC[N@@H+]1c1cc(-c2cccc([O-])c2)nc(N2CCCC2)n1 (chirality)
C[C@H]1COCC[N@@H+]1c1cc(-c2cccc([O-])c2)nc(N2CCCC2)n1 (3D coordinates assigned)
C[C@H]1COCC[N@@H+]1c1cc(-c2cccc([O-])c2)nc(N2CCCC2)n1 (nonaromatic ring conformer: 68.11111871254086 kcal/mol)

>  <smiles>  (25) 
CC1COCCN1c1cc(-c2cccc(O)c2)nc(N2CCCC2)n1

>  <score_type>  (25) 
oracle

>  <origin>  (25) 
adgpu

>  <m_score__min__energy>  (25) 
-11.119999999999999

>  <m_primary>  (25) 
energy

$$$$
25:0
     RDKit          3D

 45 48  0  0  0  0  0  0  0  0999 V2000
   -1.1780   17.2940  -35.8000 H   0  0  0  0  0  0  0  0  0  0  0  0
   -0.4260   18.0070  -35.6940 N   0  0  0  0  0  0  0  0  0  0  0  0
   -0.4930   19.0920  -34.9850 C   0  0  0  0  0  0  0  0  0  0  0  0
    0.6010   19.9010  -34.9660 N   0  0  0  0  0  0  0  0  0  0  0  0
    0.6480   21.0570  -34.2580 C   0  0  0  0  0  0  0  0  0  0  0  0
    1.5574   21.6756  -34.2771 H   0  0  0  0  0  0  0  0  0  0  0  0
   -0.4510   21.4620  -33.5080 C   0  0  0  0  0  0  0  0  0  0  0  0
   -0.4140   22.3989  -32.9328 H   0  0  0  0  0  0  0  0  0  0  0  0
   -1.6050   20.6690  -33.4900 C   0  0  0  0  0  0  0  0  0  0  0  0
   -2.7150   21.0730  -32.7330 C   0  0  0  0  0  0  0  0  0  0  0  0
   -2.6746   22.0158  -32.1677 H   0  0  0  0  0  0  0  0  0  0  0  0
   -3.8710   20.2900  -32.6900 C   0  0  0  0  0  0  0  0  0  0  0  0
   -4.9820   20.7260  -31.8990 N   0  0  0  0  0  0  0  0  0  0  0  0
   -5.3920   20.0270  -31.2370 H   0  0  0  0  0  0  0  0  0  0  0  0
   -5.8810   21.7660  -32.3960 C   0  0  0  0  0  0  0  0  0  0  0  0
   -5.5929   22.0357  -33.4228 H   0  0  0  0  0  0  0  0  0  0  0  0
   -6.9130   21.3855  -32.3845 H   0  0  0  0  0  0  0  0  0  0  0  0
   -5.7960   22.9850  -31.5190 C   0  0  0  0  0  0  0  0  0  0  0  0
   -6.9510   23.7200  -31.2050 C   0  0  0  0  0  0  0  0  0  0  0  0
   -7.9308   23.3866  -31.5775 H   0  0  0  0  0  0  0  0  0  0  0  0
   -6.8600   24.8720  -30.4220 C   0  0  0  0  0  0  0  0  0  0  0  0
   -7.7680   25.4434  -30.1792 H   0  0  0  0  0  0  0  0  0  0  0  0
   -5.6190   25.3010  -29.9460 C   0  0  0  0  0  0  0  0  0  0  0  0
   -5.5515   26.2148  -29.3374 H   0  0  0  0  0  0  0  0  0  0  0  0
   -4.4560   24.5690  -30.2420 C   0  0  0  0  0  0  0  0  0  0  0  0
   -3.1640   24.9860  -29.7780 N   0  0  0  0  0  0  0  0  0  0  0  0
   -2.5600   24.6210  -28.5320 C   0  0  0  0  0  0  0  0  0  0  0  0
   -3.3010   24.2330  -27.5900 O   0  0  0  0  0  0  0  0  0  0  0  0
   -1.1040   24.7110  -28.3070 C   0  0  0  0  0  0  0  0  0  0  0  0
   -0.1550   23.8100  -28.7460 C   0  0  0  0  0  0  0  0  0  0  0  0
   -0.3587   22.9081  -29.3419 H   0  0  0  0  0  0  0  0  0  0  0  0
    1.0600   24.2120  -28.3280 N   0  0  0  0  0  0  0  0  0  0  0  0
    0.8910   25.3060  -27.6420 O   0  0  0  0  0  0  0  0  0  0  0  0
   -0.3760   25.6420  -27.5840 C   0  0  0  0  0  0  0  0  0  0  0  0
   -0.8830   26.8330  -26.8380 C   0  0  0  0  0  0  0  0  0  0  0  0
   -0.8046   26.6488  -25.7564 H   0  0  0  0  0  0  0  0  0  0  0  0
   -0.2825   27.7153  -27.1042 H   0  0  0  0  0  0  0  0  0  0  0  0
   -1.9352   27.0118  -27.1042 H   0  0  0  0  0  0  0  0  0  0  0  0
   -4.5500   23.4270  -31.0470 C   0  0  0  0  0  0  0  0  0  0  0  0
   -3.6387   22.8709  -31.3120 H   0  0  0  0  0  0  0  0  0  0  0  0
   -3.9340   19.1050  -33.4420 C   0  0  0  0  0  0  0  0  0  0  0  0
   -5.5380   18.0570  -33.5240 Br  0  0  0  0  0  0  0  0  0  0  0  0
   -2.8330   18.6940  -34.2010 C   0  0  0  0  0  0  0  0  0  0  0  0
   -2.8909   17.7604  -34.7798 H   0  0  0  0  0  0  0  0  0  0  0  0
   -1.6480   19.4620  -34.2340 C   0  0  0  0  0  0  0  0  0  0  0  0
  1  2  1  0
  2  3  2  0
  3  4  1  0
  4  5  1  0
  5  6  1  0
  5  7  2  0
  7  8  1  0
  7  9  1  0
  9 10  2  0
 10 11  1  0
 10 12  1  0
 12 13  1  0
 13 14  1  0
 13 15  1  0
 15 16  1  0
 15 17  1  0
 15 18  1  0
 18 19  2  0
 19 20  1  0
 19 21  1  0
 21 22  1  0
 21 23  2  0
 23 24  1  0
 23 25  1  0
 25 26  1  0
 26 27  1  0
 27 28  2  0
 27 29  1  0
 29 30  1  0
 30 31  1  0
 30 32  2  0
 32 33  1  0
 33 34  1  0
 34 35  1  0
 35 36  1  0
 35 37  1  0
 35 38  1  0
 25 39  2  0
 39 40  1  0
 12 41  2  0
 41 42  1  0
 41 43  1  0
 43 44  1  0
 43 45  2  0
 45  3  1  0
 45  9  1  0
 39 18  1  0
 34 29  2  0
M  CHG  2   4  -1  26  -1
M  END
>  <UniqueID>  (26) 
25

>  <SMILES>  (26) 
[H]/N=c1/[n-]ccc2cc(NCc3cccc([N-]C(=O)c4cnoc4C)c3)c(Br)cc12

>  <Energy>  (26) 
98.59003496864088

>  <Genealogy>  (26) 
Cc1oncc1C(=O)[N-]c1cccc(CNc2cc3cc[n-]c(=N)c3cc2Br)c1 (protonated)
[H]/N=c1/[n-]ccc2cc(NCc3cccc([N-]C(=O)c4cnoc4C)c3)c(Br)cc12 (cis-trans isomerization)
[H]/N=c1/[n-]ccc2cc(NCc3cccc([N-]C(=O)c4cnoc4C)c3)c(Br)cc12 (3D coordinates assigned)
[H]/N=c1/[n-]ccc2cc(NCc3cccc([N-]C(=O)c4cnoc4C)c3)c(Br)cc12 (optimized conformer: 98.59003496864088 kcal/mol)

>  <smiles>  (26) 
Cc1oncc1C(=O)Nc1cccc(CNc2cc3cc[nH]c(=N)c3cc2Br)c1

>  <score_type>  (26) 
oracle

>  <origin>  (26) 
adgpu

>  <m_score__min__energy>  (26) 
-11.130000000000001

>  <m_primary>  (26) 
energy

$$$$
26:0
     RDKit          3D

 43 45  0  0  0  0  0  0  0  0999 V2000
   -0.4497   25.5120  -29.7500 H   0  0  0  0  0  0  0  0  0  0  0  0
   -1.1350   25.1200  -28.9840 C   0  0  0  0  0  0  0  0  0  0  0  0
   -2.4670   25.0290  -29.2460 N   0  0  0  0  0  0  0  0  0  0  0  0
   -3.3500   24.5480  -28.3230 C   0  0  0  0  0  0  0  0  0  0  0  0
   -4.6180   24.4690  -28.5930 N   0  0  0  0  0  0  0  0  0  0  0  0
   -5.3150   24.9460  -30.1090 S   0  0  0  0  0  0  0  0  0  0  0  0
   -4.2920   25.6710  -30.9370 O   0  0  0  0  0  0  0  0  0  0  0  0
   -6.4910   25.8450  -29.8460 O   0  0  0  0  0  0  0  0  0  0  0  0
   -5.8510   23.5150  -30.9820 C   0  0  0  0  0  0  0  0  0  0  0  0
   -5.0210   22.9270  -31.9450 C   0  0  0  0  0  0  0  0  0  0  0  0
   -4.0294   23.3568  -32.1497 H   0  0  0  0  0  0  0  0  0  0  0  0
   -5.4480   21.7960  -32.6470 C   0  0  0  0  0  0  0  0  0  0  0  0
   -4.7866   21.3353  -33.3955 H   0  0  0  0  0  0  0  0  0  0  0  0
   -6.7190   21.2430  -32.4020 C   0  0  0  0  0  0  0  0  0  0  0  0
   -7.1960   20.0860  -33.1120 N   0  0  0  0  0  0  0  0  0  0  0  0
   -7.5680   20.2050  -34.0810 H   0  0  0  0  0  0  0  0  0  0  0  0
   -7.0760   18.4620  -32.5110 S   0  0  0  0  0  0  0  0  0  0  0  0
   -6.6760   18.5040  -31.0620 O   0  0  0  0  0  0  0  0  0  0  0  0
   -8.4150   17.7900  -32.6300 O   0  0  0  0  0  0  0  0  0  0  0  0
   -5.9010   17.5550  -33.4570 C   0  0  0  0  0  0  0  0  0  0  0  0
   -4.9550   18.2240  -34.2460 C   0  0  0  0  0  0  0  0  0  0  0  0
   -4.9365   19.3237  -34.2656 H   0  0  0  0  0  0  0  0  0  0  0  0
   -4.0350   17.4980  -35.0080 C   0  0  0  0  0  0  0  0  0  0  0  0
   -3.3030   18.0283  -35.6349 H   0  0  0  0  0  0  0  0  0  0  0  0
   -4.0420   16.0950  -34.9760 C   0  0  0  0  0  0  0  0  0  0  0  0
   -3.0830   15.3140  -35.8250 C   0  0  0  0  0  0  0  0  0  0  0  0
   -2.3935   14.7525  -35.1775 H   0  0  0  0  0  0  0  0  0  0  0  0
   -3.6433   14.6120  -36.4600 H   0  0  0  0  0  0  0  0  0  0  0  0
   -2.5090   16.0048  -36.4600 H   0  0  0  0  0  0  0  0  0  0  0  0
   -4.9980   15.4270  -34.1960 C   0  0  0  0  0  0  0  0  0  0  0  0
   -5.0246   14.3274  -34.1839 H   0  0  0  0  0  0  0  0  0  0  0  0
   -5.9170   16.1550  -33.4340 C   0  0  0  0  0  0  0  0  0  0  0  0
   -6.6555   15.6258  -32.8139 H   0  0  0  0  0  0  0  0  0  0  0  0
   -7.5440   21.8390  -31.4350 C   0  0  0  0  0  0  0  0  0  0  0  0
   -8.5372   21.4134  -31.2288 H   0  0  0  0  0  0  0  0  0  0  0  0
   -7.1150   22.9680  -30.7320 C   0  0  0  0  0  0  0  0  0  0  0  0
   -7.7726   23.4282  -29.9799 H   0  0  0  0  0  0  0  0  0  0  0  0
   -2.8840   24.1360  -27.0700 C   0  0  0  0  0  0  0  0  0  0  0  0
   -3.5861   23.7475  -26.3176 H   0  0  0  0  0  0  0  0  0  0  0  0
   -1.5190   24.2220  -26.7820 C   0  0  0  0  0  0  0  0  0  0  0  0
   -1.1413   23.9009  -25.8000 H   0  0  0  0  0  0  0  0  0  0  0  0
   -0.6370   24.7160  -27.7430 C   0  0  0  0  0  0  0  0  0  0  0  0
    0.4391   24.7867  -27.5260 H   0  0  0  0  0  0  0  0  0  0  0  0
  1  2  1  0
  2  3  1  0
  3  4  1  0
  4  5  2  0
  5  6  1  0
  6  7  2  0
  6  8  2  0
  6  9  1  0
  9 10  2  0
 10 11  1  0
 10 12  1  0
 12 13  1  0
 12 14  2  0
 14 15  1  0
 15 16  1  0
 15 17  1  0
 17 18  2  0
 17 19  2  0
 17 20  1  0
 20 21  2  0
 21 22  1  0
 21 23  1  0
 23 24  1  0
 23 25  2  0
 25 26  1  0
 26 27  1  0
 26 28  1  0
 26 29  1  0
 25 30  1  0
 30 31  1  0
 30 32  2  0
 32 33  1  0
 14 34  1  0
 34 35  1  0
 34 36  2  0
 36 37  1  0
  4 38  1  0
 38 39  1  0
 38 40  2  0
 40 41  1  0
 40 42  1  0
 42 43  1  0
 42  2  2  0
 36  9  1  0
 32 20  1  0
M  CHG  1   3  -1
M  END
>  <UniqueID>  (27) 
26

>  <SMILES>  (27) 
Cc1ccc(S(=O)(=O)Nc2ccc(S(=O)(=O)/N=c3/cccc[n-]3)cc2)cc1

>  <Energy>  (27) 
51.89195843053515

>  <Genealogy>  (27) 
Cc1ccc(S(=O)(=O)Nc2ccc(S(=O)(=O)N=c3cccc[n-]3)cc2)cc1 (protonated)
Cc1ccc(S(=O)(=O)Nc2ccc(S(=O)(=O)/N=c3/cccc[n-]3)cc2)cc1 (cis-trans isomerization)
Cc1ccc(S(=O)(=O)Nc2ccc(S(=O)(=O)/N=c3/cccc[n-]3)cc2)cc1 (3D coordinates assigned)
Cc1ccc(S(=O)(=O)Nc2ccc(S(=O)(=O)/N=c3/cccc[n-]3)cc2)cc1 (optimized conformer: 51.89195843053515 kcal/mol)

>  <smiles>  (27) 
Cc1ccc(S(=O)(=O)Nc2ccc(S(=O)(=O)N=c3cccc[nH]3)cc2)cc1

>  <score_type>  (27) 
oracle

>  <origin>  (27) 
adgpu

>  <m_score__min__energy>  (27) 
-11.19

>  <m_primary>  (27) 
energy

$$$$
27:0
     RDKit          3D

 45 49  0  0  0  0  0  0  0  0999 V2000
   -5.7080   26.4430  -30.3560 O   0  0  0  0  0  0  0  0  0  0  0  0
   -5.0960   25.3670  -30.5950 C   0  0  0  0  0  0  0  0  0  0  0  0
   -3.9650   25.0660  -29.8920 N   0  0  0  0  0  0  0  0  0  0  0  0
   -3.3120   23.9130  -30.1810 C   0  0  0  0  0  0  0  0  0  0  0  0
   -3.7570   23.0420  -31.1270 C   0  0  0  0  0  0  0  0  0  0  0  0
   -2.8780   21.9670  -31.0640 C   0  0  0  0  0  0  0  0  0  0  0  0
   -2.8610   20.7430  -31.8900 C   0  0  0  0  0  0  0  0  0  0  0  0
   -1.6340   20.1700  -32.2600 C   0  0  0  0  0  0  0  0  0  0  0  0
   -1.6020   19.0300  -33.0680 C   0  0  0  0  0  0  0  0  0  0  0  0
   -2.7920   18.4680  -33.5340 C   0  0  0  0  0  0  0  0  0  0  0  0
   -4.0270   19.0560  -33.2090 C   0  0  0  0  0  0  0  0  0  0  0  0
   -5.2420   18.5230  -33.6610 O   0  0  0  0  0  0  0  0  0  0  0  0
   -6.5080   18.8260  -33.1350 C   0  0  0  0  0  0  0  0  0  0  0  0
   -7.1300   20.0710  -33.3570 C   0  0  0  0  0  0  0  0  0  0  0  0
   -8.3770   20.3470  -32.7860 C   0  0  0  0  0  0  0  0  0  0  0  0
   -9.0070   19.3910  -31.9820 C   0  0  0  0  0  0  0  0  0  0  0  0
   -8.3970   18.1530  -31.7600 C   0  0  0  0  0  0  0  0  0  0  0  0
   -7.1460   17.8770  -32.3250 C   0  0  0  0  0  0  0  0  0  0  0  0
   -4.0540   20.1860  -32.3820 C   0  0  0  0  0  0  0  0  0  0  0  0
   -1.9700   22.2150  -30.0860 N   0  0  0  0  0  0  0  0  0  0  0  0
   -2.2310   23.4080  -29.5560 N   0  0  0  0  0  0  0  0  0  0  0  0
   -1.4730   23.9910  -28.4800 C   0  0  0  0  0  0  0  0  0  0  0  0
   -0.9940   25.3110  -28.5590 C   0  0  0  0  0  0  0  0  0  0  0  0
   -0.2480   25.8590  -27.5100 C   0  0  0  0  0  0  0  0  0  0  0  0
    0.0300   25.0940  -26.3750 C   0  0  0  0  0  0  0  0  0  0  0  0
   -0.4310   23.7760  -26.2900 C   0  0  0  0  0  0  0  0  0  0  0  0
   -0.0780   22.8160  -24.8630 Cl  0  0  0  0  0  0  0  0  0  0  0  0
   -1.1740   23.2230  -27.3410 C   0  0  0  0  0  0  0  0  0  0  0  0
   -4.9370   23.3210  -31.8170 C   0  0  0  0  0  0  0  0  0  0  0  0
   -5.4270   22.5060  -32.6450 O   0  0  0  0  0  0  0  0  0  0  0  0
   -5.5750   24.5020  -31.5460 N   0  0  0  0  0  0  0  0  0  0  0  0
   -0.6927   20.6206  -31.9122 H   0  0  0  0  0  0  0  0  0  0  0  0
   -0.6375   18.5748  -33.3372 H   0  0  0  0  0  0  0  0  0  0  0  0
   -2.7632   17.5622  -34.1575 H   0  0  0  0  0  0  0  0  0  0  0  0
   -6.6333   20.8283  -33.9813 H   0  0  0  0  0  0  0  0  0  0  0  0
   -8.8627   21.3168  -32.9694 H   0  0  0  0  0  0  0  0  0  0  0  0
   -9.9823   19.6135  -31.5246 H   0  0  0  0  0  0  0  0  0  0  0  0
   -8.9000   17.3953  -31.1412 H   0  0  0  0  0  0  0  0  0  0  0  0
   -6.6608   16.9089  -32.1318 H   0  0  0  0  0  0  0  0  0  0  0  0
   -5.0186   20.6422  -32.1148 H   0  0  0  0  0  0  0  0  0  0  0  0
   -1.2075   25.9168  -29.4520 H   0  0  0  0  0  0  0  0  0  0  0  0
    0.1200   26.8933  -27.5792 H   0  0  0  0  0  0  0  0  0  0  0  0
    0.6114   25.5278  -25.5481 H   0  0  0  0  0  0  0  0  0  0  0  0
   -1.5252   22.1827  -27.2748 H   0  0  0  0  0  0  0  0  0  0  0  0
   -6.4540   24.7390  -32.0580 H   0  0  0  0  0  0  0  0  0  0  0  0
  1  2  2  0
  2  3  1  0
  3  4  1  0
  4  5  2  0
  5  6  1  0
  6  7  1  0
  7  8  2  0
  8  9  1  0
  9 10  2  0
 10 11  1  0
 11 12  1  0
 12 13  1  0
 13 14  2  0
 14 15  1  0
 15 16  2  0
 16 17  1  0
 17 18  2  0
 11 19  2  0
  6 20  2  0
 20 21  1  0
 21 22  1  0
 22 23  2  0
 23 24  1  0
 24 25  2  0
 25 26  1  0
 26 27  1  0
 26 28  2  0
  5 29  1  0
 29 30  2  0
 29 31  1  0
 31  2  1  0
 21  4  1  0
 28 22  1  0
 19  7  1  0
 18 13  1  0
  8 32  1  0
  9 33  1  0
 10 34  1  0
 14 35  1  0
 15 36  1  0
 16 37  1  0
 17 38  1  0
 18 39  1  0
 19 40  1  0
 23 41  1  0
 24 42  1  0
 25 43  1  0
 28 44  1  0
 31 45  1  0
M  CHG  1   3  -1
M  END
>  <UniqueID>  (28) 
27

>  <SMILES>  (28) 
O=c1[n-]c2c(c(-c3cccc(Oc4ccccc4)c3)nn2-c2cccc(Cl)c2)c(=O)[nH]1

>  <Energy>  (28) 
110.66254358819006

>  <Genealogy>  (28) 
O=c1[n-]c2c(c(-c3cccc(Oc4ccccc4)c3)nn2-c2cccc(Cl)c2)c(=O)[nH]1 (protonated)
O=c1[n-]c2c(c(-c3cccc(Oc4ccccc4)c3)nn2-c2cccc(Cl)c2)c(=O)[nH]1 (3D coordinates assigned)
O=c1[n-]c2c(c(-c3cccc(Oc4ccccc4)c3)nn2-c2cccc(Cl)c2)c(=O)[nH]1 (optimized conformer: 110.66254358819006 kcal/mol)

>  <smiles>  (28) 
O=c1[nH]c(=O)c2c(-c3cccc(Oc4ccccc4)c3)nn(-c3cccc(Cl)c3)c2[nH]1

>  <score_type>  (28) 
oracle

>  <origin>  (28) 
adgpu

>  <m_score__min__energy>  (28) 
-10.890000000000001

>  <m_primary>  (28) 
energy

$$$$
28:0
     RDKit          3D

 61 64  0  0  0  0  0  0  0  0999 V2000
   -2.0190   25.9450  -25.2320 C   0  0  0  0  0  0  0  0  0  0  0  0
   -2.1070   25.1960  -26.5280 C   0  0  0  0  0  0  0  0  0  0  0  0
   -0.9470   24.7070  -27.1420 C   0  0  0  0  0  0  0  0  0  0  0  0
   -1.0330   23.9720  -28.3250 C   0  0  0  0  0  0  0  0  0  0  0  0
   -2.2820   23.7020  -28.9110 C   0  0  0  0  0  0  0  0  0  0  0  0
   -2.3410   22.9250  -30.1990 C   0  0  0  0  0  0  0  0  0  0  0  0
   -3.4590   24.1850  -28.2940 C   0  0  0  0  0  0  0  0  0  0  0  0
   -4.7550   23.8880  -28.8490 N   0  0  0  0  0  0  0  0  0  0  0  0
   -5.2530   24.4910  -30.0530 C   0  0  0  0  0  0  0  0  0  0  0  0
   -4.4690   25.0850  -30.8430 O   0  0  0  0  0  0  0  0  0  0  0  0
   -6.7000   24.3510  -30.4170 C   0  0  0  0  0  0  0  0  0  0  0  0
   -6.8420   23.5260  -31.6220 N   0  0  0  0  0  0  0  0  0  0  0  0
   -5.8110   23.5690  -32.6640 C   0  0  0  0  0  0  0  0  0  0  0  0
   -8.0670   22.8170  -31.8670 C   0  0  0  0  0  0  0  0  0  0  0  0
   -9.1500   23.4610  -31.9470 O   0  0  0  0  0  0  0  0  0  0  0  0
   -8.0820   21.3470  -32.0280 C   0  0  0  0  0  0  0  0  0  0  0  0
   -9.0930   20.5740  -31.4350 C   0  0  0  0  0  0  0  0  0  0  0  0
   -9.1110   19.1860  -31.5950 C   0  0  0  0  0  0  0  0  0  0  0  0
   -8.1190   18.5560  -32.3490 C   0  0  0  0  0  0  0  0  0  0  0  0
   -7.1120   19.3140  -32.9580 C   0  0  0  0  0  0  0  0  0  0  0  0
   -5.8430   18.4980  -33.8650 S   0  0  0  0  0  0  0  0  0  0  0  0
   -6.1120   18.5620  -35.3430 O   0  0  0  0  0  0  0  0  0  0  0  0
   -5.7920   17.0530  -33.4490 O   0  0  0  0  0  0  0  0  0  0  0  0
   -4.3240   19.2610  -33.5230 N   0  0  0  0  0  0  0  0  0  0  0  0
   -4.1880   20.6420  -33.0640 C   0  0  0  0  0  0  0  0  0  0  0  0
   -2.6730   20.9630  -33.1320 C   0  0  0  0  0  0  0  0  0  0  0  0
   -2.0850   19.7250  -33.7200 C   0  0  0  0  0  0  0  0  0  0  0  0
   -0.7520   19.4800  -34.0570 C   0  0  0  0  0  0  0  0  0  0  0  0
   -0.4210   18.2360  -34.6220 C   0  0  0  0  0  0  0  0  0  0  0  0
   -1.4210   17.2670  -34.8350 C   0  0  0  0  0  0  0  0  0  0  0  0
   -2.7550   17.5350  -34.4830 C   0  0  0  0  0  0  0  0  0  0  0  0
   -3.0540   18.7820  -33.9250 C   0  0  0  0  0  0  0  0  0  0  0  0
   -7.1000   20.7090  -32.8060 C   0  0  0  0  0  0  0  0  0  0  0  0
   -3.3580   24.9150  -27.0950 C   0  0  0  0  0  0  0  0  0  0  0  0
   -2.1021   25.2379  -24.3935 H   0  0  0  0  0  0  0  0  0  0  0  0
   -1.0532   26.4685  -25.1759 H   0  0  0  0  0  0  0  0  0  0  0  0
   -2.8372   26.6781  -25.1759 H   0  0  0  0  0  0  0  0  0  0  0  0
    0.0363   24.9033  -26.6896 H   0  0  0  0  0  0  0  0  0  0  0  0
   -0.1149   23.6004  -28.8035 H   0  0  0  0  0  0  0  0  0  0  0  0
   -2.4226   21.8510  -29.9759 H   0  0  0  0  0  0  0  0  0  0  0  0
   -3.2173   23.2461  -30.7811 H   0  0  0  0  0  0  0  0  0  0  0  0
   -1.4262   23.1101  -30.7811 H   0  0  0  0  0  0  0  0  0  0  0  0
   -5.3650   23.1930  -28.3640 H   0  0  0  0  0  0  0  0  0  0  0  0
   -7.2395   23.8748  -29.5850 H   0  0  0  0  0  0  0  0  0  0  0  0
   -7.1187   25.3490  -30.6140 H   0  0  0  0  0  0  0  0  0  0  0  0
   -4.8170   23.6105  -32.1948 H   0  0  0  0  0  0  0  0  0  0  0  0
   -5.8839   22.6670  -33.2894 H   0  0  0  0  0  0  0  0  0  0  0  0
   -5.9588   24.4618  -33.2894 H   0  0  0  0  0  0  0  0  0  0  0  0
   -9.8771   21.0649  -30.8398 H   0  0  0  0  0  0  0  0  0  0  0  0
   -9.9074   18.5891  -31.1265 H   0  0  0  0  0  0  0  0  0  0  0  0
   -8.1288   17.4621  -32.4647 H   0  0  0  0  0  0  0  0  0  0  0  0
   -4.7531   21.3209  -33.7196 H   0  0  0  0  0  0  0  0  0  0  0  0
   -4.5836   20.7708  -32.0457 H   0  0  0  0  0  0  0  0  0  0  0  0
   -2.4834   21.8338  -33.7768 H   0  0  0  0  0  0  0  0  0  0  0  0
   -2.2434   21.2198  -32.1525 H   0  0  0  0  0  0  0  0  0  0  0  0
    0.0213   20.2430  -33.8843 H   0  0  0  0  0  0  0  0  0  0  0  0
    0.6213   18.0188  -34.8984 H   0  0  0  0  0  0  0  0  0  0  0  0
   -1.1565   16.2959  -35.2789 H   0  0  0  0  0  0  0  0  0  0  0  0
   -3.5428   16.7840  -34.6422 H   0  0  0  0  0  0  0  0  0  0  0  0
   -6.3183   21.3064  -33.2981 H   0  0  0  0  0  0  0  0  0  0  0  0
   -4.2722   25.2696  -26.5964 H   0  0  0  0  0  0  0  0  0  0  0  0
  1  2  1  0
  2  3  2  0
  3  4  1  0
  4  5  2  0
  5  6  1  0
  5  7  1  0
  7  8  1  0
  8  9  1  0
  9 10  2  0
  9 11  1  0
 11 12  1  0
 12 13  1  0
 12 14  1  0
 14 15  2  0
 14 16  1  0
 16 17  2  0
 17 18  1  0
 18 19  2  0
 19 20  1  0
 20 21  1  0
 21 22  2  0
 21 23  2  0
 21 24  1  0
 24 25  1  0
 25 26  1  0
 26 27  1  0
 27 28  2  0
 28 29  1  0
 29 30  2  0
 30 31  1  0
 31 32  2  0
 20 33  2  0
  7 34  2  0
 34  2  1  0
 33 16  1  0
 32 24  1  0
 32 27  1  0
  1 35  1  0
  1 36  1  0
  1 37  1  0
  3 38  1  0
  4 39  1  0
  6 40  1  0
  6 41  1  0
  6 42  1  0
  8 43  1  0
 11 44  1  0
 11 45  1  0
 13 46  1  0
 13 47  1  0
 13 48  1  0
 17 49  1  0
 18 50  1  0
 19 51  1  0
 25 52  1  0
 25 53  1  0
 26 54  1  0
 26 55  1  0
 28 56  1  0
 29 57  1  0
 30 58  1  0
 31 59  1  0
 33 60  1  0
 34 61  1  0
M  END
>  <UniqueID>  (29) 
28

>  <SMILES>  (29) 
Cc1ccc(C)c(NC(=O)CN(C)C(=O)c2cccc(S(=O)(=O)N3CCc4ccccc43)c2)c1

>  <Energy>  (29) 
84.35608790513507

>  <Genealogy>  (29) 
Cc1ccc(C)c(NC(=O)CN(C)C(=O)c2cccc(S(=O)(=O)N3CCc4ccccc43)c2)c1 (3D coordinates assigned)
Cc1ccc(C)c(NC(=O)CN(C)C(=O)c2cccc(S(=O)(=O)N3CCc4ccccc43)c2)c1 (nonaromatic ring conformer: 84.35608790513507 kcal/mol)

>  <smiles>  (29) 
Cc1ccc(C)c(NC(=O)CN(C)C(=O)c2cccc(S(=O)(=O)N3CCc4ccccc43)c2)c1

>  <score_type>  (29) 
oracle

>  <origin>  (29) 
adgpu

>  <m_score__min__energy>  (29) 
-11.34

>  <m_primary>  (29) 
energy

$$$$
29:0
     RDKit          3D

 61 65  0  0  0  0  0  0  0  0999 V2000
   -2.2700   19.3470  -26.3300 C   0  0  0  0  0  0  0  0  0  0  0  0
   -1.5590   19.3630  -27.6500 C   0  0  0  0  0  0  0  0  0  0  0  0
   -1.9710   20.2450  -28.6610 C   0  0  0  0  0  0  0  0  0  0  0  0
   -1.3340   20.2400  -29.9060 C   0  0  0  0  0  0  0  0  0  0  0  0
   -0.2860   19.3420  -30.1570 C   0  0  0  0  0  0  0  0  0  0  0  0
    0.5480   19.3440  -31.7070 S   0  0  0  0  0  0  0  0  0  0  0  0
    0.6500   20.7640  -32.1870 O   0  0  0  0  0  0  0  0  0  0  0  0
    1.9340   18.7820  -31.5590 O   0  0  0  0  0  0  0  0  0  0  0  0
   -0.3410   18.3930  -32.8620 N   0  0  0  0  0  0  0  0  0  0  0  0
   -1.0040   19.0570  -33.9880 C   0  0  0  0  0  0  0  0  0  0  0  0
   -2.1800   19.8520  -33.4920 C   0  0  0  0  0  0  0  0  0  0  0  0
   -2.0100   21.1860  -33.0990 C   0  0  0  0  0  0  0  0  0  0  0  0
   -3.1080   21.9460  -32.6910 C   0  0  0  0  0  0  0  0  0  0  0  0
   -4.3980   21.3870  -32.6800 C   0  0  0  0  0  0  0  0  0  0  0  0
   -4.5780   20.0480  -33.0840 C   0  0  0  0  0  0  0  0  0  0  0  0
   -3.4640   19.2910  -33.4900 C   0  0  0  0  0  0  0  0  0  0  0  0
   -5.9350   19.4520  -33.0870 C   0  0  0  0  0  0  0  0  0  0  0  0
   -6.0960   18.2540  -33.4510 O   0  0  0  0  0  0  0  0  0  0  0  0
   -7.1020   20.2600  -32.6640 C   0  0  0  0  0  0  0  0  0  0  0  0
   -8.3960   19.7040  -32.6630 C   0  0  0  0  0  0  0  0  0  0  0  0
   -9.4940   20.4690  -32.2630 C   0  0  0  0  0  0  0  0  0  0  0  0
   -9.3150   21.7920  -31.8610 C   0  0  0  0  0  0  0  0  0  0  0  0
   -8.0380   22.3580  -31.8560 C   0  0  0  0  0  0  0  0  0  0  0  0
   -6.9220   21.6000  -32.2560 C   0  0  0  0  0  0  0  0  0  0  0  0
   -5.5650   22.1950  -32.2540 C   0  0  0  0  0  0  0  0  0  0  0  0
   -5.4040   23.3910  -31.8880 O   0  0  0  0  0  0  0  0  0  0  0  0
   -0.6220   17.0110  -32.5790 C   0  0  0  0  0  0  0  0  0  0  0  0
    0.2900   16.2400  -31.8470 C   0  0  0  0  0  0  0  0  0  0  0  0
    0.0050   14.9080  -31.5460 C   0  0  0  0  0  0  0  0  0  0  0  0
   -1.1990   14.3200  -31.9700 C   0  0  0  0  0  0  0  0  0  0  0  0
   -1.4790   12.8820  -31.6230 C   0  0  0  0  0  0  0  0  0  0  0  0
   -2.1240   15.0920  -32.7110 C   0  0  0  0  0  0  0  0  0  0  0  0
   -3.4260   14.5030  -33.1880 C   0  0  0  0  0  0  0  0  0  0  0  0
   -1.8240   16.4320  -33.0080 C   0  0  0  0  0  0  0  0  0  0  0  0
    0.1190   18.4530  -29.1540 C   0  0  0  0  0  0  0  0  0  0  0  0
   -0.5190   18.4570  -27.9100 C   0  0  0  0  0  0  0  0  0  0  0  0
   -1.5311   19.3636  -25.5153 H   0  0  0  0  0  0  0  0  0  0  0  0
   -2.9205   20.2307  -26.2532 H   0  0  0  0  0  0  0  0  0  0  0  0
   -2.8801   18.4349  -26.2532 H   0  0  0  0  0  0  0  0  0  0  0  0
   -2.7994   20.9439  -28.4731 H   0  0  0  0  0  0  0  0  0  0  0  0
   -1.6554   20.9416  -30.6899 H   0  0  0  0  0  0  0  0  0  0  0  0
   -0.2911   19.7314  -34.4850 H   0  0  0  0  0  0  0  0  0  0  0  0
   -1.3553   18.2968  -34.7013 H   0  0  0  0  0  0  0  0  0  0  0  0
   -1.0067   21.6368  -33.1119 H   0  0  0  0  0  0  0  0  0  0  0  0
   -2.9626   22.9898  -32.3759 H   0  0  0  0  0  0  0  0  0  0  0  0
   -3.6024   18.2475  -33.8093 H   0  0  0  0  0  0  0  0  0  0  0  0
   -8.5428   18.6607  -32.9792 H   0  0  0  0  0  0  0  0  0  0  0  0
  -10.5013   20.0271  -32.2651 H   0  0  0  0  0  0  0  0  0  0  0  0
  -10.1819   22.3918  -31.5469 H   0  0  0  0  0  0  0  0  0  0  0  0
   -7.9040   23.4023  -31.5375 H   0  0  0  0  0  0  0  0  0  0  0  0
    1.2360   16.6872  -31.5077 H   0  0  0  0  0  0  0  0  0  0  0  0
    0.7295   14.3123  -30.9714 H   0  0  0  0  0  0  0  0  0  0  0  0
   -1.5015   12.7664  -30.5293 H   0  0  0  0  0  0  0  0  0  0  0  0
   -2.4516   12.5861  -32.0431 H   0  0  0  0  0  0  0  0  0  0  0  0
   -0.6884   12.2428  -32.0431 H   0  0  0  0  0  0  0  0  0  0  0  0
   -4.0421   14.2243  -32.3204 H   0  0  0  0  0  0  0  0  0  0  0  0
   -3.9635   15.2456  -33.7960 H   0  0  0  0  0  0  0  0  0  0  0  0
   -3.2231   13.6090  -33.7960 H   0  0  0  0  0  0  0  0  0  0  0  0
   -2.5416   17.0343  -33.5845 H   0  0  0  0  0  0  0  0  0  0  0  0
    0.9421   17.7489  -29.3455 H   0  0  0  0  0  0  0  0  0  0  0  0
   -0.2044   17.7467  -27.1312 H   0  0  0  0  0  0  0  0  0  0  0  0
  1  2  1  0
  2  3  2  0
  3  4  1  0
  4  5  2  0
  5  6  1  0
  6  7  2  0
  6  8  2  0
  6  9  1  0
  9 10  1  0
 10 11  1  0
 11 12  2  0
 12 13  1  0
 13 14  2  0
 14 15  1  0
 15 16  2  0
 15 17  1  0
 17 18  2  0
 17 19  1  0
 19 20  2  0
 20 21  1  0
 21 22  2  0
 22 23  1  0
 23 24  2  0
 24 25  1  0
 25 26  2  0
  9 27  1  0
 27 28  2  0
 28 29  1  0
 29 30  2  0
 30 31  1  0
 30 32  1  0
 32 33  1  0
 32 34  2  0
  5 35  1  0
 35 36  2  0
 36  2  1  0
 16 11  1  0
 24 19  1  0
 34 27  1  0
 25 14  1  0
  1 37  1  0
  1 38  1  0
  1 39  1  0
  3 40  1  0
  4 41  1  0
 10 42  1  0
 10 43  1  0
 12 44  1  0
 13 45  1  0
 16 46  1  0
 20 47  1  0
 21 48  1  0
 22 49  1  0
 23 50  1  0
 28 51  1  0
 29 52  1  0
 31 53  1  0
 31 54  1  0
 31 55  1  0
 33 56  1  0
 33 57  1  0
 33 58  1  0
 34 59  1  0
 35 60  1  0
 36 61  1  0
M  END
>  <UniqueID>  (30) 
29

>  <SMILES>  (30) 
Cc1ccc(S(=O)(=O)N(Cc2ccc3c(c2)C(=O)c2ccccc2C3=O)c2ccc(C)c(C)c2)cc1

>  <Energy>  (30) 
74.34566852210348

>  <Genealogy>  (30) 
Cc1ccc(S(=O)(=O)N(Cc2ccc3c(c2)C(=O)c2ccccc2C3=O)c2ccc(C)c(C)c2)cc1 (3D coordinates assigned)
Cc1ccc(S(=O)(=O)N(Cc2ccc3c(c2)C(=O)c2ccccc2C3=O)c2ccc(C)c(C)c2)cc1 (nonaromatic ring conformer: 74.34566852210348 kcal/mol)

>  <smiles>  (30) 
Cc1ccc(S(=O)(=O)N(Cc2ccc3c(c2)C(=O)c2ccccc2C3=O)c2ccc(C)c(C)c2)cc1

>  <score_type>  (30) 
oracle

>  <origin>  (30) 
adgpu

>  <m_score__min__energy>  (30) 
-11.07

>  <m_primary>  (30) 
energy

$$$$
30:0
     RDKit          3D

 31 33  0  0  0  0  0  0  0  0999 V2000
   -5.5020   26.3800  -30.4820 O   0  0  0  0  0  0  0  0  0  0  0  0
   -4.9850   25.2460  -30.6670 C   0  0  0  0  0  0  0  0  0  0  0  0
   -3.5740   25.0910  -30.4710 N   0  0  0  0  0  0  0  0  0  0  0  0
   -2.9430   24.4410  -29.3580 C   0  0  0  0  0  0  0  0  0  0  0  0
   -3.4990   23.2910  -28.7670 C   0  0  0  0  0  0  0  0  0  0  0  0
   -2.8800   22.6940  -27.6650 C   0  0  0  0  0  0  0  0  0  0  0  0
   -1.7120   23.2480  -27.1340 C   0  0  0  0  0  0  0  0  0  0  0  0
   -1.1670   24.4040  -27.6990 C   0  0  0  0  0  0  0  0  0  0  0  0
   -1.7810   25.0040  -28.8040 C   0  0  0  0  0  0  0  0  0  0  0  0
   -1.2340   26.1590  -29.3510 O   0  0  0  0  0  0  0  0  0  0  0  0
   -5.8300   24.1390  -31.1490 C   0  0  0  0  0  0  0  0  0  0  0  0
   -5.3800   22.9210  -31.6180 C   0  0  0  0  0  0  0  0  0  0  0  0
   -6.5430   22.2320  -31.9080 C   0  0  0  0  0  0  0  0  0  0  0  0
   -6.6680   20.8610  -32.4530 C   0  0  0  0  0  0  0  0  0  0  0  0
   -7.7920   20.0820  -32.1230 C   0  0  0  0  0  0  0  0  0  0  0  0
   -7.9280   18.7860  -32.6280 C   0  0  0  0  0  0  0  0  0  0  0  0
   -6.9470   18.2530  -33.4680 C   0  0  0  0  0  0  0  0  0  0  0  0
   -5.8260   19.0170  -33.8040 C   0  0  0  0  0  0  0  0  0  0  0  0
   -4.8510   18.4870  -34.6400 O   0  0  0  0  0  0  0  0  0  0  0  0
   -5.6850   20.3150  -33.3000 C   0  0  0  0  0  0  0  0  0  0  0  0
   -7.5670   23.0020  -31.6150 O   0  0  0  0  0  0  0  0  0  0  0  0
   -7.1780   24.1540  -31.1520 N   0  0  0  0  0  0  0  0  0  0  0  0
   -4.4254   22.8598  -29.1744 H   0  0  0  0  0  0  0  0  0  0  0  0
   -3.3124   21.7879  -27.2156 H   0  0  0  0  0  0  0  0  0  0  0  0
   -1.2216   22.7739  -26.2710 H   0  0  0  0  0  0  0  0  0  0  0  0
   -0.2527   24.8436  -27.2739 H   0  0  0  0  0  0  0  0  0  0  0  0
   -4.3409   22.5792  -31.7337 H   0  0  0  0  0  0  0  0  0  0  0  0
   -8.5689   20.4957  -31.4632 H   0  0  0  0  0  0  0  0  0  0  0  0
   -8.8098   18.1839  -32.3634 H   0  0  0  0  0  0  0  0  0  0  0  0
   -7.0569   17.2329  -33.8646 H   0  0  0  0  0  0  0  0  0  0  0  0
   -4.8007   20.9122  -33.5673 H   0  0  0  0  0  0  0  0  0  0  0  0
  1  2  2  0
  2  3  1  0
  3  4  1  0
  4  5  2  0
  5  6  1  0
  6  7  2  0
  7  8  1  0
  8  9  2  0
  9 10  1  0
  2 11  1  0
 11 12  1  0
 12 13  2  0
 13 14  1  0
 14 15  2  0
 15 16  1  0
 16 17  2  0
 17 18  1  0
 18 19  1  0
 18 20  2  0
 13 21  1  0
 21 22  1  0
  9  4  1  0
 22 11  2  0
 20 14  1  0
  5 23  1  0
  6 24  1  0
  7 25  1  0
  8 26  1  0
 12 27  1  0
 15 28  1  0
 16 29  1  0
 17 30  1  0
 20 31  1  0
M  CHG  3   3  -1  10  -1  19  -1
M  END
>  <UniqueID>  (31) 
30

>  <SMILES>  (31) 
O=C([N-]c1ccccc1[O-])c1cc(-c2cccc([O-])c2)on1

>  <Energy>  (31) 
70.57538213407949

>  <Genealogy>  (31) 
O=C([N-]c1ccccc1[O-])c1cc(-c2cccc([O-])c2)on1 (protonated)
O=C([N-]c1ccccc1[O-])c1cc(-c2cccc([O-])c2)on1 (3D coordinates assigned)
O=C([N-]c1ccccc1[O-])c1cc(-c2cccc([O-])c2)on1 (optimized conformer: 70.57538213407949 kcal/mol)

>  <smiles>  (31) 
O=C(Nc1ccccc1O)c1cc(-c2cccc(O)c2)on1

>  <score_type>  (31) 
oracle

>  <origin>  (31) 
adgpu

>  <m_score__min__energy>  (31) 
-13.119999999999999

>  <m_primary>  (31) 
energy

$$$$
31:0
     RDKit          3D

 57 60  0  0  0  0  0  0  0  0999 V2000
    0.2830   26.7290  -23.5820 C   0  0  0  0  0  0  0  0  0  0  0  0
    0.4370   25.5350  -24.5300 C   0  0  0  0  0  0  0  0  0  0  0  0
    0.2090   25.8620  -25.9540 N   0  0  0  0  0  0  0  0  0  0  0  0
   -0.9930   26.6890  -26.1780 C   0  0  0  0  0  0  0  0  0  0  0  0
   -2.2170   26.0460  -25.5340 C   0  0  0  0  0  0  0  0  0  0  0  0
    0.3130   24.4640  -27.0140 S   0  0  0  0  0  0  0  0  0  0  0  0
    1.2090   24.8030  -28.1730 O   0  0  0  0  0  0  0  0  0  0  0  0
    0.9480   23.3180  -26.2760 O   0  0  0  0  0  0  0  0  0  0  0  0
   -1.2460   23.9300  -27.6620 C   0  0  0  0  0  0  0  0  0  0  0  0
   -1.9800   22.9360  -27.0000 C   0  0  0  0  0  0  0  0  0  0  0  0
   -3.2180   22.5220  -27.4980 C   0  0  0  0  0  0  0  0  0  0  0  0
   -3.7470   23.1190  -28.6430 C   0  0  0  0  0  0  0  0  0  0  0  0
   -3.0490   24.1570  -29.2860 C   0  0  0  0  0  0  0  0  0  0  0  0
   -3.5650   24.7930  -30.4630 N   0  0  0  0  0  0  0  0  0  0  0  0
   -4.9500   24.9790  -30.7770 C   0  0  0  0  0  0  0  0  0  0  0  0
   -5.3810   26.1500  -30.9450 O   0  0  0  0  0  0  0  0  0  0  0  0
   -5.8930   23.8440  -30.8190 C   0  0  0  0  0  0  0  0  0  0  0  0
   -7.2320   23.8680  -30.4650 C   0  0  0  0  0  0  0  0  0  0  0  0
   -7.7960   22.6790  -30.7580 N   0  0  0  0  0  0  0  0  0  0  0  0
   -6.8650   21.8970  -31.2840 N   0  0  0  0  0  0  0  0  0  0  0  0
   -7.1120   20.5330  -31.6620 C   0  0  0  0  0  0  0  0  0  0  0  0
   -6.0730   19.5850  -31.6600 C   0  0  0  0  0  0  0  0  0  0  0  0
   -6.3300   18.2580  -32.0140 C   0  0  0  0  0  0  0  0  0  0  0  0
   -7.6250   17.8620  -32.3600 C   0  0  0  0  0  0  0  0  0  0  0  0
   -8.6670   18.7930  -32.3440 C   0  0  0  0  0  0  0  0  0  0  0  0
   -8.4150   20.1220  -31.9910 C   0  0  0  0  0  0  0  0  0  0  0  0
   -5.6990   22.5770  -31.3430 C   0  0  0  0  0  0  0  0  0  0  0  0
   -4.4860   22.0820  -31.9290 N   0  0  0  0  0  0  0  0  0  0  0  0
   -3.4060   21.6310  -31.2620 C   0  0  0  0  0  0  0  0  0  0  0  0
   -2.4390   21.2320  -32.1610 C   0  0  0  0  0  0  0  0  0  0  0  0
   -2.9570   21.4530  -33.4230 C   0  0  0  0  0  0  0  0  0  0  0  0
   -4.2200   21.9780  -33.2450 C   0  0  0  0  0  0  0  0  0  0  0  0
   -1.7970   24.5480  -28.7960 C   0  0  0  0  0  0  0  0  0  0  0  0
    0.3282   26.3784  -22.5404 H   0  0  0  0  0  0  0  0  0  0  0  0
    1.0959   27.4478  -23.7626 H   0  0  0  0  0  0  0  0  0  0  0  0
   -0.6857   27.2180  -23.7626 H   0  0  0  0  0  0  0  0  0  0  0  0
    1.4584   25.1402  -24.4254 H   0  0  0  0  0  0  0  0  0  0  0  0
   -0.3326   24.8024  -24.2454 H   0  0  0  0  0  0  0  0  0  0  0  0
   -0.8339   27.6842  -25.7373 H   0  0  0  0  0  0  0  0  0  0  0  0
   -1.1668   26.7746  -27.2608 H   0  0  0  0  0  0  0  0  0  0  0  0
   -2.1236   26.0951  -24.4391 H   0  0  0  0  0  0  0  0  0  0  0  0
   -3.1228   26.5847  -25.8492 H   0  0  0  0  0  0  0  0  0  0  0  0
   -2.2874   24.9945  -25.8492 H   0  0  0  0  0  0  0  0  0  0  0  0
   -1.5790   22.4793  -26.0832 H   0  0  0  0  0  0  0  0  0  0  0  0
   -3.7766   21.7242  -26.9867 H   0  0  0  0  0  0  0  0  0  0  0  0
   -4.7126   22.7768  -29.0438 H   0  0  0  0  0  0  0  0  0  0  0  0
   -7.7544   24.7248  -30.0144 H   0  0  0  0  0  0  0  0  0  0  0  0
   -5.0541   19.8895  -31.3786 H   0  0  0  0  0  0  0  0  0  0  0  0
   -5.5113   17.5233  -32.0204 H   0  0  0  0  0  0  0  0  0  0  0  0
   -7.8238   16.8182  -32.6447 H   0  0  0  0  0  0  0  0  0  0  0  0
   -9.6874   18.4796  -32.6097 H   0  0  0  0  0  0  0  0  0  0  0  0
   -9.2401   20.8491  -31.9707 H   0  0  0  0  0  0  0  0  0  0  0  0
   -3.3099   21.5875  -30.1671 H   0  0  0  0  0  0  0  0  0  0  0  0
   -1.4485   20.8185  -31.9203 H   0  0  0  0  0  0  0  0  0  0  0  0
   -2.4591   21.2498  -34.3826 H   0  0  0  0  0  0  0  0  0  0  0  0
   -4.9057   22.2677  -34.0549 H   0  0  0  0  0  0  0  0  0  0  0  0
   -1.2391   25.3479  -29.3049 H   0  0  0  0  0  0  0  0  0  0  0  0
  1  2  1  0
  2  3  1  0
  3  4  1  0
  4  5  1  0
  3  6  1  0
  6  7  2  0
  6  8  2  0
  6  9  1  0
  9 10  2  0
 10 11  1  0
 11 12  2  0
 12 13  1  0
 13 14  1  0
 14 15  1  0
 15 16  2  0
 15 17  1  0
 17 18  1  0
 18 19  2  0
 19 20  1  0
 20 21  1  0
 21 22  2  0
 22 23  1  0
 23 24  2  0
 24 25  1  0
 25 26  2  0
 20 27  1  0
 27 28  1  0
 28 29  1  0
 29 30  2  0
 30 31  1  0
 31 32  2  0
 13 33  2  0
 33  9  1  0
 27 17  2  0
 32 28  1  0
 26 21  1  0
  1 34  1  0
  1 35  1  0
  1 36  1  0
  2 37  1  0
  2 38  1  0
  4 39  1  0
  4 40  1  0
  5 41  1  0
  5 42  1  0
  5 43  1  0
 10 44  1  0
 11 45  1  0
 12 46  1  0
 18 47  1  0
 22 48  1  0
 23 49  1  0
 24 50  1  0
 25 51  1  0
 26 52  1  0
 29 53  1  0
 30 54  1  0
 31 55  1  0
 32 56  1  0
 33 57  1  0
M  CHG  1  14  -1
M  END
>  <UniqueID>  (32) 
31

>  <SMILES>  (32) 
CCN(CC)S(=O)(=O)c1cccc([N-]C(=O)c2cnn(-c3ccccc3)c2-n2cccc2)c1

>  <Energy>  (32) 
133.0227689669453

>  <Genealogy>  (32) 
CCN(CC)S(=O)(=O)c1cccc([N-]C(=O)c2cnn(-c3ccccc3)c2-n2cccc2)c1 (protonated)
CCN(CC)S(=O)(=O)c1cccc([N-]C(=O)c2cnn(-c3ccccc3)c2-n2cccc2)c1 (3D coordinates assigned)
CCN(CC)S(=O)(=O)c1cccc([N-]C(=O)c2cnn(-c3ccccc3)c2-n2cccc2)c1 (optimized conformer: 133.0227689669453 kcal/mol)

>  <smiles>  (32) 
CCN(CC)S(=O)(=O)c1cccc(NC(=O)c2cnn(-c3ccccc3)c2-n2cccc2)c1

>  <score_type>  (32) 
oracle

>  <origin>  (32) 
adgpu

>  <m_score__min__energy>  (32) 
-11.779999999999999

>  <m_primary>  (32) 
energy

$$$$
32:0
     RDKit          3D

 33 35  0  0  0  0  0  0  0  0999 V2000
   -9.4440   22.1610  -31.7980 O   0  0  0  0  0  0  0  0  0  0  0  0
   -8.2100   21.9680  -31.9690 C   0  0  0  0  0  0  0  0  0  0  0  0
   -7.2800   23.1360  -31.7770 C   0  0  0  0  0  0  0  0  0  0  0  0
   -7.2340   23.6570  -30.0270 S   0  0  0  0  0  0  0  0  0  0  0  0
   -5.5310   24.2090  -30.0820 C   0  0  0  0  0  0  0  0  0  0  0  0
   -5.0670   25.1000  -30.9740 N   0  0  0  0  0  0  0  0  0  0  0  0
   -3.7830   25.2600  -30.7090 N   0  0  0  0  0  0  0  0  0  0  0  0
   -3.4990   24.4590  -29.6630 C   0  0  0  0  0  0  0  0  0  0  0  0
   -2.1580   24.3460  -29.0530 C   0  0  0  0  0  0  0  0  0  0  0  0
   -1.6350   25.3980  -28.2780 C   0  0  0  0  0  0  0  0  0  0  0  0
   -0.3660   25.2870  -27.7010 C   0  0  0  0  0  0  0  0  0  0  0  0
    0.3930   24.1290  -27.8910 C   0  0  0  0  0  0  0  0  0  0  0  0
    1.6230   24.0250  -27.3300 F   0  0  0  0  0  0  0  0  0  0  0  0
   -0.1170   23.0790  -28.6590 C   0  0  0  0  0  0  0  0  0  0  0  0
   -1.3860   23.1850  -29.2370 C   0  0  0  0  0  0  0  0  0  0  0  0
   -4.5790   23.7740  -29.2360 N   0  0  0  0  0  0  0  0  0  0  0  0
   -7.7290   20.6160  -32.3720 C   0  0  0  0  0  0  0  0  0  0  0  0
   -6.5630   20.4440  -33.1470 C   0  0  0  0  0  0  0  0  0  0  0  0
   -6.1360   19.1660  -33.5140 C   0  0  0  0  0  0  0  0  0  0  0  0
   -6.8600   18.0390  -33.1160 C   0  0  0  0  0  0  0  0  0  0  0  0
   -6.2710   16.2940  -33.6210 Br  0  0  0  0  0  0  0  0  0  0  0  0
   -8.0160   18.1930  -32.3470 C   0  0  0  0  0  0  0  0  0  0  0  0
   -8.4490   19.4700  -31.9780 C   0  0  0  0  0  0  0  0  0  0  0  0
   -6.2672   22.8447  -32.0921 H   0  0  0  0  0  0  0  0  0  0  0  0
   -7.6456   23.9779  -32.3833 H   0  0  0  0  0  0  0  0  0  0  0  0
   -2.2274   26.3122  -28.1254 H   0  0  0  0  0  0  0  0  0  0  0  0
    0.0358   26.1132  -27.0961 H   0  0  0  0  0  0  0  0  0  0  0  0
    0.4805   22.1677  -28.8092 H   0  0  0  0  0  0  0  0  0  0  0  0
   -1.7830   22.3547  -29.8396 H   0  0  0  0  0  0  0  0  0  0  0  0
   -5.9850   21.3242  -33.4651 H   0  0  0  0  0  0  0  0  0  0  0  0
   -5.2254   19.0459  -34.1193 H   0  0  0  0  0  0  0  0  0  0  0  0
   -8.5869   17.3074  -32.0311 H   0  0  0  0  0  0  0  0  0  0  0  0
   -9.3613   19.5817  -31.3737 H   0  0  0  0  0  0  0  0  0  0  0  0
  1  2  2  0
  2  3  1  0
  3  4  1  0
  4  5  1  0
  5  6  2  0
  6  7  1  0
  7  8  1  0
  8  9  1  0
  9 10  2  0
 10 11  1  0
 11 12  2  0
 12 13  1  0
 12 14  1  0
 14 15  2  0
  8 16  2  0
  2 17  1  0
 17 18  2  0
 18 19  1  0
 19 20  2  0
 20 21  1  0
 20 22  1  0
 22 23  2  0
 16  5  1  0
 23 17  1  0
 15  9  1  0
  3 24  1  0
  3 25  1  0
 10 26  1  0
 11 27  1  0
 14 28  1  0
 15 29  1  0
 18 30  1  0
 19 31  1  0
 22 32  1  0
 23 33  1  0
M  CHG  1   7  -1
M  END
>  <UniqueID>  (33) 
32

>  <SMILES>  (33) 
O=C(CSc1n[n-]c(-c2ccc(F)cc2)n1)c1ccc(Br)cc1

>  <Energy>  (33) 
65.69352214970449

>  <Genealogy>  (33) 
O=C(CSc1n[n-]c(-c2ccc(F)cc2)n1)c1ccc(Br)cc1 (protonated)
O=C(CSc1n[n-]c(-c2ccc(F)cc2)n1)c1ccc(Br)cc1 (3D coordinates assigned)
O=C(CSc1n[n-]c(-c2ccc(F)cc2)n1)c1ccc(Br)cc1 (optimized conformer: 65.69352214970449 kcal/mol)

>  <smiles>  (33) 
O=C(CSc1n[nH]c(-c2ccc(F)cc2)n1)c1ccc(Br)cc1

>  <score_type>  (33) 
oracle

>  <origin>  (33) 
adgpu

>  <m_score__min__energy>  (33) 
-10.41

>  <m_primary>  (33) 
energy

$$$$
33:0
     RDKit          3D

 31 33  0  0  0  0  0  0  0  0999 V2000
   -9.1490   18.9320  -32.3570 C   0  0  0  0  0  0  0  0  0  0  0  0
   -8.2450   20.1060  -32.1190 C   0  0  0  0  0  0  0  0  0  0  0  0
   -8.5900   21.0840  -31.1750 C   0  0  0  0  0  0  0  0  0  0  0  0
   -7.7310   22.1580  -30.9270 C   0  0  0  0  0  0  0  0  0  0  0  0
   -6.5020   22.2560  -31.6000 C   0  0  0  0  0  0  0  0  0  0  0  0
   -5.5930   23.3960  -31.3540 C   0  0  0  0  0  0  0  0  0  0  0  0
   -5.9710   24.7070  -31.1450 C   0  0  0  0  0  0  0  0  0  0  0  0
   -4.8850   25.4340  -30.8260 N   0  0  0  0  0  0  0  0  0  0  0  0
   -3.8610   24.6300  -30.8440 O   0  0  0  0  0  0  0  0  0  0  0  0
   -4.2170   23.4060  -31.1610 C   0  0  0  0  0  0  0  0  0  0  0  0
   -3.2560   22.2930  -31.3000 C   0  0  0  0  0  0  0  0  0  0  0  0
   -2.5560   21.8360  -30.1720 C   0  0  0  0  0  0  0  0  0  0  0  0
   -1.6300   20.7960  -30.2900 C   0  0  0  0  0  0  0  0  0  0  0  0
   -1.3830   20.2140  -31.5370 C   0  0  0  0  0  0  0  0  0  0  0  0
   -2.0570   20.6780  -32.6690 C   0  0  0  0  0  0  0  0  0  0  0  0
   -2.9850   21.7180  -32.5550 C   0  0  0  0  0  0  0  0  0  0  0  0
   -6.1600   21.2770  -32.5460 C   0  0  0  0  0  0  0  0  0  0  0  0
   -7.0200   20.2030  -32.7950 C   0  0  0  0  0  0  0  0  0  0  0  0
   -9.4702   18.5148  -31.3912 H   0  0  0  0  0  0  0  0  0  0  0  0
  -10.0313   19.2583  -32.9271 H   0  0  0  0  0  0  0  0  0  0  0  0
   -8.6081   18.1624  -32.9271 H   0  0  0  0  0  0  0  0  0  0  0  0
   -9.5408   21.0054  -30.6274 H   0  0  0  0  0  0  0  0  0  0  0  0
   -8.0192   22.9316  -30.2001 H   0  0  0  0  0  0  0  0  0  0  0  0
   -6.9969   25.0954  -31.2263 H   0  0  0  0  0  0  0  0  0  0  0  0
   -2.7373   22.2988  -29.1907 H   0  0  0  0  0  0  0  0  0  0  0  0
   -1.0943   20.4345  -29.3999 H   0  0  0  0  0  0  0  0  0  0  0  0
   -0.6584   19.3913  -31.6266 H   0  0  0  0  0  0  0  0  0  0  0  0
   -1.8576   20.2249  -33.6513 H   0  0  0  0  0  0  0  0  0  0  0  0
   -3.5054   22.0881  -33.4507 H   0  0  0  0  0  0  0  0  0  0  0  0
   -5.2098   21.3552  -33.0947 H   0  0  0  0  0  0  0  0  0  0  0  0
   -6.7345   19.4307  -33.5244 H   0  0  0  0  0  0  0  0  0  0  0  0
  1  2  1  0
  2  3  2  0
  3  4  1  0
  4  5  2  0
  5  6  1  0
  6  7  1  0
  7  8  2  0
  8  9  1  0
  9 10  1  0
 10 11  1  0
 11 12  2  0
 12 13  1  0
 13 14  2  0
 14 15  1  0
 15 16  2  0
  5 17  1  0
 17 18  2  0
 18  2  1  0
 10  6  2  0
 16 11  1  0
  1 19  1  0
  1 20  1  0
  1 21  1  0
  3 22  1  0
  4 23  1  0
  7 24  1  0
 12 25  1  0
 13 26  1  0
 14 27  1  0
 15 28  1  0
 16 29  1  0
 17 30  1  0
 18 31  1  0
M  END
>  <UniqueID>  (34) 
33

>  <SMILES>  (34) 
Cc1ccc(-c2cnoc2-c2ccccc2)cc1

>  <Energy>  (34) 
71.08284466730353

>  <Genealogy>  (34) 
Cc1ccc(-c2cnoc2-c2ccccc2)cc1 (3D coordinates assigned)
Cc1ccc(-c2cnoc2-c2ccccc2)cc1 (optimized conformer: 71.08284466730353 kcal/mol)

>  <smiles>  (34) 
Cc1ccc(-c2cnoc2-c2ccccc2)cc1

>  <score_type>  (34) 
oracle

>  <origin>  (34) 
adgpu

>  <m_score__min__energy>  (34) 
-8.2599999999999998

>  <m_primary>  (34) 
energy

$$$$
34:0
     RDKit          3D

 44 46  0  0  0  0  0  0  0  0999 V2000
    0.1860   26.5470  -25.8290 C   0  0  0  0  0  0  0  0  0  0  0  0
   -0.6750   25.9540  -26.8920 C   0  0  0  0  0  0  0  0  0  0  0  0
   -0.4910   26.1760  -28.2140 N   0  0  0  0  0  0  0  0  0  0  0  0
   -1.4150   25.5970  -28.9770 N   0  0  0  0  0  0  0  0  0  0  0  0
   -2.3490   24.9320  -28.2590 C   0  0  0  0  0  0  0  0  0  0  0  0
   -3.3370   24.2660  -28.7780 N   0  0  0  0  0  0  0  0  0  0  0  0
   -3.6490   24.1930  -30.1790 C   0  0  0  0  0  0  0  0  0  0  0  0
   -3.8810   25.2650  -30.7990 O   0  0  0  0  0  0  0  0  0  0  0  0
   -3.6510   22.9110  -30.9230 C   0  0  0  0  0  0  0  0  0  0  0  0
   -4.5680   22.6860  -31.9650 C   0  0  0  0  0  0  0  0  0  0  0  0
   -4.5700   21.4710  -32.6560 C   0  0  0  0  0  0  0  0  0  0  0  0
   -3.6620   20.4630  -32.3100 C   0  0  0  0  0  0  0  0  0  0  0  0
   -3.6500   18.9310  -33.1800 S   0  0  0  0  0  0  0  0  0  0  0  0
   -2.6920   17.9750  -32.5230 O   0  0  0  0  0  0  0  0  0  0  0  0
   -3.2020   19.1850  -34.5930 O   0  0  0  0  0  0  0  0  0  0  0  0
   -5.2550   18.2410  -33.1780 N   0  0  0  0  0  0  0  0  0  0  0  0
   -6.1330   18.9230  -34.1610 C   0  0  0  0  0  0  0  0  0  0  0  0
   -7.1070   19.9140  -33.5080 C   0  0  0  0  0  0  0  0  0  0  0  0
   -8.0250   19.1980  -32.4900 C   0  0  0  0  0  0  0  0  0  0  0  0
   -8.5800   20.2050  -31.4750 C   0  0  0  0  0  0  0  0  0  0  0  0
   -7.3040   18.0230  -31.7830 C   0  0  0  0  0  0  0  0  0  0  0  0
   -5.7830   18.2120  -31.7960 C   0  0  0  0  0  0  0  0  0  0  0  0
   -2.7630   20.6720  -31.2580 C   0  0  0  0  0  0  0  0  0  0  0  0
   -2.7600   21.8860  -30.5660 C   0  0  0  0  0  0  0  0  0  0  0  0
   -2.0520   25.0230  -26.6070 S   0  0  0  0  0  0  0  0  0  0  0  0
   -0.2112   26.2734  -24.8404 H   0  0  0  0  0  0  0  0  0  0  0  0
    1.2117   26.1629  -25.9312 H   0  0  0  0  0  0  0  0  0  0  0  0
    0.1928   27.6422  -25.9312 H   0  0  0  0  0  0  0  0  0  0  0  0
   -5.2884   23.4712  -32.2381 H   0  0  0  0  0  0  0  0  0  0  0  0
   -5.2869   21.3063  -33.4739 H   0  0  0  0  0  0  0  0  0  0  0  0
   -5.5007   19.4715  -34.8747 H   0  0  0  0  0  0  0  0  0  0  0  0
   -6.7353   18.1482  -34.6578 H   0  0  0  0  0  0  0  0  0  0  0  0
   -6.5318   20.6939  -32.9875 H   0  0  0  0  0  0  0  0  0  0  0  0
   -7.7347   20.3588  -34.2943 H   0  0  0  0  0  0  0  0  0  0  0  0
   -8.8678   18.7614  -33.0460 H   0  0  0  0  0  0  0  0  0  0  0  0
   -8.3814   19.8447  -30.4549 H   0  0  0  0  0  0  0  0  0  0  0  0
   -8.0917   21.1798  -31.6211 H   0  0  0  0  0  0  0  0  0  0  0  0
   -9.6649   20.3128  -31.6211 H   0  0  0  0  0  0  0  0  0  0  0  0
   -7.6489   17.9669  -30.7400 H   0  0  0  0  0  0  0  0  0  0  0  0
   -7.5424   17.0949  -32.3231 H   0  0  0  0  0  0  0  0  0  0  0  0
   -5.5359   19.1614  -31.2984 H   0  0  0  0  0  0  0  0  0  0  0  0
   -5.3239   17.3636  -31.2674 H   0  0  0  0  0  0  0  0  0  0  0  0
   -2.0564   19.8779  -30.9749 H   0  0  0  0  0  0  0  0  0  0  0  0
   -2.0548   22.0398  -29.7359 H   0  0  0  0  0  0  0  0  0  0  0  0
  1  2  1  0
  2  3  2  0
  3  4  1  0
  4  5  1  0
  5  6  2  3
  6  7  1  0
  7  8  2  0
  7  9  1  0
  9 10  2  0
 10 11  1  0
 11 12  2  0
 12 13  1  0
 13 14  2  0
 13 15  2  0
 13 16  1  0
 16 17  1  0
 17 18  1  0
 18 19  1  0
 19 20  1  0
 19 21  1  0
 21 22  1  0
 12 23  1  0
 23 24  2  0
  5 25  1  0
 25  2  1  0
 24  9  1  0
 22 16  1  0
  1 26  1  0
  1 27  1  0
  1 28  1  0
 10 29  1  0
 11 30  1  0
 17 31  1  0
 17 32  1  0
 18 33  1  0
 18 34  1  0
 19 35  1  0
 20 36  1  0
 20 37  1  0
 20 38  1  0
 21 39  1  0
 21 40  1  0
 22 41  1  0
 22 42  1  0
 23 43  1  0
 24 44  1  0
M  CHG  1   4  -1
M  END
>  <UniqueID>  (35) 
34

>  <SMILES>  (35) 
Cc1n[n-]c(=NC(=O)c2ccc(S(=O)(=O)N3CCC(C)CC3)cc2)s1

>  <Energy>  (35) 
89.22899894284225

>  <Genealogy>  (35) 
Cc1n[n-]c(=NC(=O)c2ccc(S(=O)(=O)N3CCC(C)CC3)cc2)s1 (protonated)
Cc1n[n-]c(=NC(=O)c2ccc(S(=O)(=O)N3CCC(C)CC3)cc2)s1 (3D coordinates assigned)
Cc1n[n-]c(=NC(=O)c2ccc(S(=O)(=O)N3CCC(C)CC3)cc2)s1 (nonaromatic ring conformer: 89.22899894284225 kcal/mol)

>  <smiles>  (35) 
Cc1n[nH]c(=NC(=O)c2ccc(S(=O)(=O)N3CCC(C)CC3)cc2)s1

>  <score_type>  (35) 
oracle

>  <origin>  (35) 
adgpu

>  <m_score__min__energy>  (35) 
-11.470000000000001

>  <m_primary>  (35) 
energy

$$$$
35:0
     RDKit          3D

 50 52  0  0  0  0  0  0  0  0999 V2000
   -4.3990   18.6360  -32.7650 C   0  0  0  0  0  0  0  0  0  0  0  0
   -5.5810   18.7540  -31.9010 N   0  0  0  0  0  0  0  0  0  0  0  0
   -6.1080   17.4250  -31.5630 C   0  0  0  0  0  0  0  0  0  0  0  0
   -6.8150   19.6970  -32.6980 S   0  0  0  0  0  0  0  0  0  0  0  0
   -6.5170   19.7980  -34.1680 O   0  0  0  0  0  0  0  0  0  0  0  0
   -8.1530   19.0340  -32.5270 O   0  0  0  0  0  0  0  0  0  0  0  0
   -6.8900   21.3090  -31.9900 C   0  0  0  0  0  0  0  0  0  0  0  0
   -7.9750   22.1460  -32.2780 C   0  0  0  0  0  0  0  0  0  0  0  0
   -8.0510   23.4180  -31.7050 C   0  0  0  0  0  0  0  0  0  0  0  0
   -7.0430   23.8620  -30.8440 C   0  0  0  0  0  0  0  0  0  0  0  0
   -5.9430   23.0340  -30.5600 C   0  0  0  0  0  0  0  0  0  0  0  0
   -4.8920   23.4570  -29.6800 N   0  0  0  0  0  0  0  0  0  0  0  0
   -3.7160   24.1830  -30.0620 C   0  0  0  0  0  0  0  0  0  0  0  0
   -3.8420   25.2280  -30.7520 O   0  0  0  0  0  0  0  0  0  0  0  0
   -2.3970   23.7530  -29.6870 N   0  0  0  0  0  0  0  0  0  0  0  0
   -1.5450   24.4280  -28.9710 C   0  0  0  0  0  0  0  0  0  0  0  0
   -1.8160   25.7020  -28.5690 N   0  0  0  0  0  0  0  0  0  0  0  0
   -0.9310   26.4170  -27.8280 C   0  0  0  0  0  0  0  0  0  0  0  0
    0.2880   25.8400  -27.4740 C   0  0  0  0  0  0  0  0  0  0  0  0
    0.5690   24.5750  -27.8800 N   0  0  0  0  0  0  0  0  0  0  0  0
   -0.3140   23.8540  -28.6250 C   0  0  0  0  0  0  0  0  0  0  0  0
   -0.0070   22.5510  -29.0390 O   0  0  0  0  0  0  0  0  0  0  0  0
    0.4420   21.5280  -28.1520 C   0  0  0  0  0  0  0  0  0  0  0  0
   -0.7110   20.6660  -27.7190 C   0  0  0  0  0  0  0  0  0  0  0  0
   -0.5200   19.3050  -27.4270 C   0  0  0  0  0  0  0  0  0  0  0  0
   -1.6030   18.5080  -27.0450 C   0  0  0  0  0  0  0  0  0  0  0  0
   -2.8830   19.0620  -26.9530 C   0  0  0  0  0  0  0  0  0  0  0  0
   -3.0820   20.4150  -27.2450 C   0  0  0  0  0  0  0  0  0  0  0  0
   -2.0010   21.2150  -27.6280 C   0  0  0  0  0  0  0  0  0  0  0  0
   -5.8840   21.7520  -31.1180 C   0  0  0  0  0  0  0  0  0  0  0  0
   -3.4969   18.5459  -32.1420 H   0  0  0  0  0  0  0  0  0  0  0  0
   -4.4967   17.7431  -33.4000 H   0  0  0  0  0  0  0  0  0  0  0  0
   -4.3182   19.5305  -33.4000 H   0  0  0  0  0  0  0  0  0  0  0  0
   -5.3090   19.2450  -31.0180 H   0  0  0  0  0  0  0  0  0  0  0  0
   -6.1516   17.3151  -30.4694 H   0  0  0  0  0  0  0  0  0  0  0  0
   -7.1184   17.3135  -31.9833 H   0  0  0  0  0  0  0  0  0  0  0  0
   -5.4486   16.6513  -31.9833 H   0  0  0  0  0  0  0  0  0  0  0  0
   -8.7691   21.8014  -32.9567 H   0  0  0  0  0  0  0  0  0  0  0  0
   -8.9061   24.0717  -31.9319 H   0  0  0  0  0  0  0  0  0  0  0  0
   -7.1107   24.8608  -30.3881 H   0  0  0  0  0  0  0  0  0  0  0  0
   -1.1734   27.4417  -27.5100 H   0  0  0  0  0  0  0  0  0  0  0  0
    1.0152   26.4042  -26.8716 H   0  0  0  0  0  0  0  0  0  0  0  0
    1.1878   20.9041  -28.6663 H   0  0  0  0  0  0  0  0  0  0  0  0
    0.8896   21.9975  -27.2636 H   0  0  0  0  0  0  0  0  0  0  0  0
    0.4856   18.8650  -27.4993 H   0  0  0  0  0  0  0  0  0  0  0  0
   -1.4477   17.4433  -26.8165 H   0  0  0  0  0  0  0  0  0  0  0  0
   -3.7338   18.4336  -26.6509 H   0  0  0  0  0  0  0  0  0  0  0  0
   -4.0897   20.8503  -27.1733 H   0  0  0  0  0  0  0  0  0  0  0  0
   -2.1613   22.2785  -27.8590 H   0  0  0  0  0  0  0  0  0  0  0  0
   -5.0432   21.0870  -30.8713 H   0  0  0  0  0  0  0  0  0  0  0  0
  1  2  1  0
  2  3  1  0
  2  4  1  0
  4  5  2  0
  4  6  2  0
  4  7  1  0
  7  8  2  0
  8  9  1  0
  9 10  2  0
 10 11  1  0
 11 12  1  0
 12 13  1  0
 13 14  2  0
 13 15  1  0
 15 16  2  3
 16 17  1  0
 17 18  1  0
 18 19  2  0
 19 20  1  0
 20 21  2  0
 21 22  1  0
 22 23  1  0
 23 24  1  0
 24 25  2  0
 25 26  1  0
 26 27  2  0
 27 28  1  0
 28 29  2  0
 11 30  2  0
 30  7  1  0
 21 16  1  0
 29 24  1  0
  1 31  1  0
  1 32  1  0
  1 33  1  0
  2 34  1  0
  3 35  1  0
  3 36  1  0
  3 37  1  0
  8 38  1  0
  9 39  1  0
 10 40  1  0
 18 41  1  0
 19 42  1  0
 23 43  1  0
 23 44  1  0
 25 45  1  0
 26 46  1  0
 27 47  1  0
 28 48  1  0
 29 49  1  0
 30 50  1  0
M  CHG  3   2   1  12  -1  17  -1
M  END
>  <UniqueID>  (36) 
35

>  <SMILES>  (36) 
C[NH+](C)S(=O)(=O)c1cccc([N-]C(=O)N=c2[n-]ccnc2OCc2ccccc2)c1

>  <Energy>  (36) 
57.70330711784527

>  <Genealogy>  (36) 
C[NH+](C)S(=O)(=O)c1cccc([N-]C(=O)N=c2[n-]ccnc2OCc2ccccc2)c1 (protonated)
C[NH+](C)S(=O)(=O)c1cccc([N-]C(=O)N=c2[n-]ccnc2OCc2ccccc2)c1 (3D coordinates assigned)
C[NH+](C)S(=O)(=O)c1cccc([N-]C(=O)N=c2[n-]ccnc2OCc2ccccc2)c1 (optimized conformer: 57.70330711784527 kcal/mol)

>  <smiles>  (36) 
CN(C)S(=O)(=O)c1cccc(NC(=O)N=c2[nH]ccnc2OCc2ccccc2)c1

>  <score_type>  (36) 
oracle

>  <origin>  (36) 
adgpu

>  <m_score__min__energy>  (36) 
-10.93

>  <m_primary>  (36) 
energy

$$$$
36:0
     RDKit          3D

 70 75  0  0  0  0  0  0  0  0999 V2000
   -1.1470   23.0930  -30.1100 O   0  0  0  0  0  0  0  0  0  0  0  0
   -2.0400   22.6350  -30.8690 C   0  0  0  0  0  0  0  0  0  0  0  0
   -1.6470   21.8900  -32.0300 N   0  0  0  0  0  0  0  0  0  0  0  0
   -1.9220   20.5030  -32.2760 C   0  0  0  0  0  0  0  0  0  0  0  0
   -0.8980   19.5650  -32.0930 C   0  0  0  0  0  0  0  0  0  0  0  0
   -1.1280   18.2110  -32.3560 C   0  0  0  0  0  0  0  0  0  0  0  0
   -2.3790   17.7840  -32.8060 C   0  0  0  0  0  0  0  0  0  0  0  0
   -3.4090   18.7130  -32.9950 C   0  0  0  0  0  0  0  0  0  0  0  0
   -5.0110   18.2010  -33.5110 S   0  0  0  0  0  0  0  0  0  0  0  0
   -4.9680   16.7270  -33.8020 O   0  0  0  0  0  0  0  0  0  0  0  0
   -5.4140   18.9300  -34.7660 O   0  0  0  0  0  0  0  0  0  0  0  0
   -6.1570   18.5260  -32.2380 N   0  0  0  0  0  0  0  0  0  0  0  0
   -6.4250   19.9830  -32.1190 C   0  0  0  0  0  0  0  0  0  0  0  0
   -7.7750   20.3980  -32.7210 C   0  0  0  0  0  0  0  0  0  0  0  0
   -8.9350   19.6410  -32.0570 C   0  0  0  0  0  0  0  0  0  0  0  0
   -8.5410   18.2250  -31.6040 C   0  0  0  0  0  0  0  0  0  0  0  0
   -7.3640   17.6910  -32.4230 C   0  0  0  0  0  0  0  0  0  0  0  0
   -3.1720   20.0720  -32.7530 C   0  0  0  0  0  0  0  0  0  0  0  0
   -3.4630   22.8510  -30.5210 C   0  0  0  0  0  0  0  0  0  0  0  0
   -4.4350   22.6680  -31.5200 C   0  0  0  0  0  0  0  0  0  0  0  0
   -5.7850   22.8890  -31.2420 C   0  0  0  0  0  0  0  0  0  0  0  0
   -6.1770   23.3260  -29.9750 C   0  0  0  0  0  0  0  0  0  0  0  0
   -5.2230   23.5340  -28.9780 C   0  0  0  0  0  0  0  0  0  0  0  0
   -3.8660   23.2680  -29.2270 C   0  0  0  0  0  0  0  0  0  0  0  0
   -2.8780   23.6000  -28.1840 C   0  0  0  0  0  0  0  0  0  0  0  0
   -2.6840   24.8730  -27.6940 C   0  0  0  0  0  0  0  0  0  0  0  0
   -1.7440   24.8260  -26.7290 N   0  0  0  0  0  0  0  0  0  0  0  0
   -1.2520   25.9270  -25.9340 C   0  0  0  0  0  0  0  0  0  0  0  0
   -1.1800   25.8400  -24.5290 C   0  0  0  0  0  0  0  0  0  0  0  0
   -0.6840   26.9100  -23.7770 C   0  0  0  0  0  0  0  0  0  0  0  0
   -0.2540   28.0760  -24.4140 C   0  0  0  0  0  0  0  0  0  0  0  0
   -0.3240   28.1770  -25.8040 C   0  0  0  0  0  0  0  0  0  0  0  0
   -0.8190   27.1100  -26.5620 C   0  0  0  0  0  0  0  0  0  0  0  0
   -1.3330   23.5760  -26.5850 N   0  0  0  0  0  0  0  0  0  0  0  0
   -2.0040   22.7870  -27.4530 C   0  0  0  0  0  0  0  0  0  0  0  0
   -1.7210   21.3230  -27.5690 C   0  0  0  0  0  0  0  0  0  0  0  0
   -0.5380   20.8100  -28.1360 C   0  0  0  0  0  0  0  0  0  0  0  0
   -0.3140   19.4310  -28.1920 C   0  0  0  0  0  0  0  0  0  0  0  0
   -1.2430   18.5440  -27.6550 C   0  0  0  0  0  0  0  0  0  0  0  0
   -2.4170   19.0310  -27.0870 C   0  0  0  0  0  0  0  0  0  0  0  0
   -2.6610   20.4060  -27.0510 C   0  0  0  0  0  0  0  0  0  0  0  0
    0.0907   19.8947  -31.7411 H   0  0  0  0  0  0  0  0  0  0  0  0
   -0.3201   17.4793  -32.2078 H   0  0  0  0  0  0  0  0  0  0  0  0
   -2.5551   16.7179  -33.0119 H   0  0  0  0  0  0  0  0  0  0  0  0
   -6.4188   20.2542  -31.0530 H   0  0  0  0  0  0  0  0  0  0  0  0
   -5.6394   20.5081  -32.6820 H   0  0  0  0  0  0  0  0  0  0  0  0
   -7.9183   21.4781  -32.5702 H   0  0  0  0  0  0  0  0  0  0  0  0
   -7.7681   20.1539  -33.7935 H   0  0  0  0  0  0  0  0  0  0  0  0
   -9.2690   20.2111  -31.1776 H   0  0  0  0  0  0  0  0  0  0  0  0
   -9.7350   19.5388  -32.8050 H   0  0  0  0  0  0  0  0  0  0  0  0
   -8.2556   18.2541  -30.5421 H   0  0  0  0  0  0  0  0  0  0  0  0
   -9.4025   17.5579  -31.7552 H   0  0  0  0  0  0  0  0  0  0  0  0
   -7.1411   16.6629  -32.1015 H   0  0  0  0  0  0  0  0  0  0  0  0
   -7.6425   17.7146  -33.4869 H   0  0  0  0  0  0  0  0  0  0  0  0
   -3.9694   20.8070  -32.9374 H   0  0  0  0  0  0  0  0  0  0  0  0
   -4.1298   22.3486  -32.5274 H   0  0  0  0  0  0  0  0  0  0  0  0
   -6.5413   22.7186  -32.0224 H   0  0  0  0  0  0  0  0  0  0  0  0
   -7.2410   23.5068  -29.7622 H   0  0  0  0  0  0  0  0  0  0  0  0
   -5.5351   23.9082  -27.9918 H   0  0  0  0  0  0  0  0  0  0  0  0
   -3.2092   25.7778  -28.0339 H   0  0  0  0  0  0  0  0  0  0  0  0
   -1.5162   24.9244  -24.0205 H   0  0  0  0  0  0  0  0  0  0  0  0
   -0.6325   26.8328  -22.6809 H   0  0  0  0  0  0  0  0  0  0  0  0
    0.1396   28.9143  -23.8204 H   0  0  0  0  0  0  0  0  0  0  0  0
    0.0107   29.0974  -26.3049 H   0  0  0  0  0  0  0  0  0  0  0  0
   -0.8702   27.1964  -27.6574 H   0  0  0  0  0  0  0  0  0  0  0  0
    0.2171   21.5011  -28.5387 H   0  0  0  0  0  0  0  0  0  0  0  0
    0.6018   19.0446  -28.6632 H   0  0  0  0  0  0  0  0  0  0  0  0
   -1.0499   17.4614  -27.6794 H   0  0  0  0  0  0  0  0  0  0  0  0
   -3.1541   18.3316  -26.6656 H   0  0  0  0  0  0  0  0  0  0  0  0
   -3.5985   20.7793  -26.6130 H   0  0  0  0  0  0  0  0  0  0  0  0
  1  2  2  0
  2  3  1  0
  3  4  1  0
  4  5  2  0
  5  6  1  0
  6  7  2  0
  7  8  1  0
  8  9  1  0
  9 10  2  0
  9 11  2  0
  9 12  1  0
 12 13  1  0
 13 14  1  0
 14 15  1  0
 15 16  1  0
 16 17  1  0
  8 18  2  0
  2 19  1  0
 19 20  2  0
 20 21  1  0
 21 22  2  0
 22 23  1  0
 23 24  2  0
 24 25  1  0
 25 26  2  0
 26 27  1  0
 27 28  1  0
 28 29  2  0
 29 30  1  0
 30 31  2  0
 31 32  1  0
 32 33  2  0
 27 34  1  0
 34 35  2  0
 35 36  1  0
 36 37  2  0
 37 38  1  0
 38 39  2  0
 39 40  1  0
 40 41  2  0
 18  4  1  0
 24 19  1  0
 35 25  1  0
 41 36  1  0
 17 12  1  0
 33 28  1  0
  5 42  1  0
  6 43  1  0
  7 44  1  0
 13 45  1  0
 13 46  1  0
 14 47  1  0
 14 48  1  0
 15 49  1  0
 15 50  1  0
 16 51  1  0
 16 52  1  0
 17 53  1  0
 17 54  1  0
 18 55  1  0
 20 56  1  0
 21 57  1  0
 22 58  1  0
 23 59  1  0
 26 60  1  0
 29 61  1  0
 30 62  1  0
 31 63  1  0
 32 64  1  0
 33 65  1  0
 37 66  1  0
 38 67  1  0
 39 68  1  0
 40 69  1  0
 41 70  1  0
M  CHG  1   3  -1
M  END
>  <UniqueID>  (37) 
36

>  <SMILES>  (37) 
O=C([N-]c1cccc(S(=O)(=O)N2CCCCC2)c1)c1ccccc1-c1cn(-c2ccccc2)nc1-c1ccccc1

>  <Energy>  (37) 
130.51957336231072

>  <Genealogy>  (37) 
O=C([N-]c1cccc(S(=O)(=O)N2CCCCC2)c1)c1ccccc1-c1cn(-c2ccccc2)nc1-c1ccccc1 (protonated)
O=C([N-]c1cccc(S(=O)(=O)N2CCCCC2)c1)c1ccccc1-c1cn(-c2ccccc2)nc1-c1ccccc1 (3D coordinates assigned)
O=C([N-]c1cccc(S(=O)(=O)N2CCCCC2)c1)c1ccccc1-c1cn(-c2ccccc2)nc1-c1ccccc1 (nonaromatic ring conformer: 130.51957336231072 kcal/mol)

>  <smiles>  (37) 
O=C(Nc1cccc(S(=O)(=O)N2CCCCC2)c1)c1ccccc1-c1cn(-c2ccccc2)nc1-c1ccccc1

>  <score_type>  (37) 
oracle

>  <origin>  (37) 
adgpu

>  <m_score__min__energy>  (37) 
-13.609999999999999

>  <m_primary>  (37) 
energy

$$$$
37:0
     RDKit          3D

 48 50  0  0  0  0  0  0  0  0999 V2000
   -0.5390   18.7540  -34.6390 C   0  0  0  0  0  0  0  0  0  0  0  0
   -1.3270   18.9890  -33.4220 N   0  0  0  0  0  0  0  0  0  0  0  0
   -2.7000   18.5040  -33.5990 C   0  0  0  0  0  0  0  0  0  0  0  0
   -1.3440   20.6960  -33.0470 S   0  0  0  0  0  0  0  0  0  0  0  0
   -0.2760   21.4090  -33.8290 O   0  0  0  0  0  0  0  0  0  0  0  0
   -2.6750   21.2650  -33.4570 O   0  0  0  0  0  0  0  0  0  0  0  0
   -1.0940   20.9990  -31.3230 C   0  0  0  0  0  0  0  0  0  0  0  0
   -1.0730   19.9260  -30.4200 C   0  0  0  0  0  0  0  0  0  0  0  0
   -0.9210   20.1600  -29.0530 C   0  0  0  0  0  0  0  0  0  0  0  0
   -0.7840   21.4660  -28.5780 C   0  0  0  0  0  0  0  0  0  0  0  0
   -0.7600   22.5440  -29.4700 C   0  0  0  0  0  0  0  0  0  0  0  0
   -0.5940   23.8700  -28.9500 N   0  0  0  0  0  0  0  0  0  0  0  0
   -1.5860   24.9040  -28.9500 C   0  0  0  0  0  0  0  0  0  0  0  0
   -1.2300   26.0870  -29.1870 O   0  0  0  0  0  0  0  0  0  0  0  0
   -2.9740   24.6350  -28.7020 N   0  0  0  0  0  0  0  0  0  0  0  0
   -3.9690   24.2840  -29.6750 C   0  0  0  0  0  0  0  0  0  0  0  0
   -5.2440   24.8520  -29.5730 C   0  0  0  0  0  0  0  0  0  0  0  0
   -6.2630   24.4610  -30.4470 C   0  0  0  0  0  0  0  0  0  0  0  0
   -6.0170   23.5010  -31.4330 C   0  0  0  0  0  0  0  0  0  0  0  0
   -7.0740   23.0690  -32.2440 O   0  0  0  0  0  0  0  0  0  0  0  0
   -7.5490   21.7500  -32.3050 C   0  0  0  0  0  0  0  0  0  0  0  0
   -8.8740   21.4950  -31.9310 C   0  0  0  0  0  0  0  0  0  0  0  0
   -9.3790   20.1910  -31.9630 C   0  0  0  0  0  0  0  0  0  0  0  0
   -8.5590   19.1310  -32.3600 C   0  0  0  0  0  0  0  0  0  0  0  0
   -7.2300   19.3730  -32.7200 C   0  0  0  0  0  0  0  0  0  0  0  0
   -6.7230   20.6750  -32.6900 C   0  0  0  0  0  0  0  0  0  0  0  0
   -4.7120   23.0100  -31.6060 C   0  0  0  0  0  0  0  0  0  0  0  0
   -3.6900   23.4100  -30.7410 C   0  0  0  0  0  0  0  0  0  0  0  0
   -0.9280   22.3090  -30.8460 C   0  0  0  0  0  0  0  0  0  0  0  0
    0.4812   18.4498  -34.3622 H   0  0  0  0  0  0  0  0  0  0  0  0
   -1.0107   17.9574  -35.2331 H   0  0  0  0  0  0  0  0  0  0  0  0
   -0.4973   19.6788  -35.2331 H   0  0  0  0  0  0  0  0  0  0  0  0
   -3.1612   18.3411  -32.6137 H   0  0  0  0  0  0  0  0  0  0  0  0
   -3.2834   19.2505  -34.1580 H   0  0  0  0  0  0  0  0  0  0  0  0
   -2.6851   17.5567  -34.1580 H   0  0  0  0  0  0  0  0  0  0  0  0
   -1.1768   18.8957  -30.7911 H   0  0  0  0  0  0  0  0  0  0  0  0
   -0.9091   19.3150  -28.3488 H   0  0  0  0  0  0  0  0  0  0  0  0
   -0.6945   21.6484  -27.4969 H   0  0  0  0  0  0  0  0  0  0  0  0
   -5.4455   25.6097  -28.8015 H   0  0  0  0  0  0  0  0  0  0  0  0
   -7.2629   24.9109  -30.3583 H   0  0  0  0  0  0  0  0  0  0  0  0
   -9.5212   22.3246  -31.6103 H   0  0  0  0  0  0  0  0  0  0  0  0
  -10.4233   19.9994  -31.6752 H   0  0  0  0  0  0  0  0  0  0  0  0
   -8.9592   18.1068  -32.3892 H   0  0  0  0  0  0  0  0  0  0  0  0
   -6.5830   18.5381  -33.0271 H   0  0  0  0  0  0  0  0  0  0  0  0
   -5.6752   20.8614  -32.9680 H   0  0  0  0  0  0  0  0  0  0  0  0
   -4.4941   22.3086  -32.4249 H   0  0  0  0  0  0  0  0  0  0  0  0
   -2.6653   23.0406  -30.8941 H   0  0  0  0  0  0  0  0  0  0  0  0
   -0.9294   23.1537  -31.5506 H   0  0  0  0  0  0  0  0  0  0  0  0
  1  2  1  0
  2  3  1  0
  2  4  1  0
  4  5  2  0
  4  6  2  0
  4  7  1  0
  7  8  2  0
  8  9  1  0
  9 10  2  0
 10 11  1  0
 11 12  1  0
 12 13  1  0
 13 14  2  0
 13 15  1  0
 15 16  1  0
 16 17  2  0
 17 18  1  0
 18 19  2  0
 19 20  1  0
 20 21  1  0
 21 22  2  0
 22 23  1  0
 23 24  2  0
 24 25  1  0
 25 26  2  0
 19 27  1  0
 27 28  2  0
 11 29  2  0
 29  7  1  0
 28 16  1  0
 26 21  1  0
  1 30  1  0
  1 31  1  0
  1 32  1  0
  3 33  1  0
  3 34  1  0
  3 35  1  0
  8 36  1  0
  9 37  1  0
 10 38  1  0
 17 39  1  0
 18 40  1  0
 22 41  1  0
 23 42  1  0
 24 43  1  0
 25 44  1  0
 26 45  1  0
 27 46  1  0
 28 47  1  0
 29 48  1  0
M  CHG  2  12  -1  15  -1
M  END
>  <UniqueID>  (38) 
37

>  <SMILES>  (38) 
CN(C)S(=O)(=O)c1cccc([N-]C(=O)[N-]c2ccc(Oc3ccccc3)cc2)c1

>  <Energy>  (38) 
58.34645898400684

>  <Genealogy>  (38) 
CN(C)S(=O)(=O)c1cccc([N-]C(=O)[N-]c2ccc(Oc3ccccc3)cc2)c1 (protonated)
CN(C)S(=O)(=O)c1cccc([N-]C(=O)[N-]c2ccc(Oc3ccccc3)cc2)c1 (3D coordinates assigned)
CN(C)S(=O)(=O)c1cccc([N-]C(=O)[N-]c2ccc(Oc3ccccc3)cc2)c1 (optimized conformer: 58.34645898400684 kcal/mol)

>  <smiles>  (38) 
CN(C)S(=O)(=O)c1cccc(NC(=O)Nc2ccc(Oc3ccccc3)cc2)c1

>  <score_type>  (38) 
oracle

>  <origin>  (38) 
adgpu

>  <m_score__min__energy>  (38) 
-11.630000000000001

>  <m_primary>  (38) 
energy

$$$$
38:0
     RDKit          3D

 44 47  0  0  0  0  0  0  0  0999 V2000
   -6.4289   17.8510  -31.8490 H   0  0  0  0  0  0  0  0  0  0  0  0
   -6.9700   18.8080  -31.8860 C   0  0  0  0  0  0  0  0  0  0  0  0
   -8.3540   18.8220  -32.1520 C   0  0  0  0  0  0  0  0  0  0  0  0
   -8.8893   17.8760  -32.3210 H   0  0  0  0  0  0  0  0  0  0  0  0
   -9.0520   20.0400  -32.2020 C   0  0  0  0  0  0  0  0  0  0  0  0
  -10.1315   20.0614  -32.4122 H   0  0  0  0  0  0  0  0  0  0  0  0
   -8.3450   21.2220  -31.9790 C   0  0  0  0  0  0  0  0  0  0  0  0
   -7.0010   21.2080  -31.7210 C   0  0  0  0  0  0  0  0  0  0  0  0
   -6.2790   20.0110  -31.6680 C   0  0  0  0  0  0  0  0  0  0  0  0
   -5.1986   20.0120  -31.4611 H   0  0  0  0  0  0  0  0  0  0  0  0
   -6.5080   22.5170  -31.5190 N   0  0  0  0  0  0  0  0  0  0  0  0
   -4.9200   22.9230  -30.9540 S   0  0  0  0  0  0  0  0  0  0  0  0
   -4.8050   22.6160  -29.4880 O   0  0  0  0  0  0  0  0  0  0  0  0
   -4.6890   24.3940  -31.1650 O   0  0  0  0  0  0  0  0  0  0  0  0
   -3.7330   21.9730  -31.8370 C   0  0  0  0  0  0  0  0  0  0  0  0
   -2.5300   21.6160  -31.2160 C   0  0  0  0  0  0  0  0  0  0  0  0
   -2.3203   21.9568  -30.1914 H   0  0  0  0  0  0  0  0  0  0  0  0
   -1.5940   20.8280  -31.8930 C   0  0  0  0  0  0  0  0  0  0  0  0
   -0.6482   20.5582  -31.4004 H   0  0  0  0  0  0  0  0  0  0  0  0
   -1.8540   20.3790  -33.1980 C   0  0  0  0  0  0  0  0  0  0  0  0
   -0.8640   19.5310  -33.9060 C   0  0  0  0  0  0  0  0  0  0  0  0
   -1.1670   18.3450  -34.2050 O   0  0  0  0  0  0  0  0  0  0  0  0
    0.4620   19.9950  -34.1980 N   0  0  0  0  0  0  0  0  0  0  0  0
    0.7650   21.1440  -34.7290 C   0  0  0  0  0  0  0  0  0  0  0  0
    2.0500   21.5920  -34.9420 C   0  0  0  0  0  0  0  0  0  0  0  0
    2.9986   21.0939  -34.6929 H   0  0  0  0  0  0  0  0  0  0  0  0
    1.8560   22.8220  -35.5460 C   0  0  0  0  0  0  0  0  0  0  0  0
    2.9260   23.7670  -35.9760 C   0  0  0  0  0  0  0  0  0  0  0  0
    3.4133   24.1974  -35.0887 H   0  0  0  0  0  0  0  0  0  0  0  0
    3.6716   23.2272  -36.5783 H   0  0  0  0  0  0  0  0  0  0  0  0
    2.4825   24.5736  -36.5783 H   0  0  0  0  0  0  0  0  0  0  0  0
    0.5660   23.0490  -35.6680 O   0  0  0  0  0  0  0  0  0  0  0  0
   -0.1180   22.0540  -35.1900 N   0  0  0  0  0  0  0  0  0  0  0  0
   -1.1610   21.9940  -35.2060 H   0  0  0  0  0  0  0  0  0  0  0  0
   -3.0550   20.7580  -33.8250 C   0  0  0  0  0  0  0  0  0  0  0  0
   -3.2607   20.4310  -34.8549 H   0  0  0  0  0  0  0  0  0  0  0  0
   -3.9880   21.5470  -33.1480 C   0  0  0  0  0  0  0  0  0  0  0  0
   -4.9260   21.8350  -33.6453 H   0  0  0  0  0  0  0  0  0  0  0  0
   -7.6160   23.4650  -31.6140 C   0  0  0  0  0  0  0  0  0  0  0  0
   -7.7623   23.9810  -30.6536 H   0  0  0  0  0  0  0  0  0  0  0  0
   -7.4231   24.2392  -32.3712 H   0  0  0  0  0  0  0  0  0  0  0  0
   -8.8650   22.6190  -31.9680 C   0  0  0  0  0  0  0  0  0  0  0  0
   -9.6508   22.7404  -31.2079 H   0  0  0  0  0  0  0  0  0  0  0  0
   -9.3260   22.9129  -32.9225 H   0  0  0  0  0  0  0  0  0  0  0  0
  1  2  1  0
  2  3  2  0
  3  4  1  0
  3  5  1  0
  5  6  1  0
  5  7  2  0
  7  8  1  0
  8  9  2  0
  9 10  1  0
  8 11  1  0
 11 12  1  0
 12 13  2  0
 12 14  2  0
 12 15  1  0
 15 16  2  0
 16 17  1  0
 16 18  1  0
 18 19  1  0
 18 20  2  0
 20 21  1  0
 21 22  2  0
 21 23  1  0
 23 24  2  0
 24 25  1  0
 25 26  1  0
 25 27  2  0
 27 28  1  0
 28 29  1  0
 28 30  1  0
 28 31  1  0
 27 32  1  0
 32 33  1  0
 33 34  1  0
 20 35  1  0
 35 36  1  0
 35 37  2  0
 37 38  1  0
 11 39  1  0
 39 40  1  0
 39 41  1  0
 39 42  1  0
 42 43  1  0
 42 44  1  0
  9  2  1  0
 37 15  1  0
 42  7  1  0
 33 24  1  0
M  END
>  <UniqueID>  (39) 
38

>  <SMILES>  (39) 
Cc1c/c(=N/C(=O)c2ccc(S(=O)(=O)N3CCc4ccccc43)cc2)[nH]o1

>  <Energy>  (39) 
101.6455808120545

>  <Genealogy>  (39) 
Cc1c/c(=N/C(=O)c2ccc(S(=O)(=O)N3CCc4ccccc43)cc2)[nH]o1 (cis-trans isomerization)
Cc1c/c(=N/C(=O)c2ccc(S(=O)(=O)N3CCc4ccccc43)cc2)[nH]o1 (3D coordinates assigned)
Cc1c/c(=N/C(=O)c2ccc(S(=O)(=O)N3CCc4ccccc43)cc2)[nH]o1 (nonaromatic ring conformer: 101.6455808120545 kcal/mol)

>  <smiles>  (39) 
Cc1cc(=NC(=O)c2ccc(S(=O)(=O)N3CCc4ccccc43)cc2)[nH]o1

>  <score_type>  (39) 
oracle

>  <origin>  (39) 
adgpu

>  <m_score__min__energy>  (39) 
-10.01

>  <m_primary>  (39) 
energy

$$$$
39:0
     RDKit          3D

 43 45  0  0  0  0  0  0  0  0999 V2000
   -6.8870   17.9470  -32.7510 C   0  0  0  0  0  0  0  0  0  0  0  0
   -6.1260   19.1520  -33.8150 S   0  0  0  0  0  0  0  0  0  0  0  0
   -6.9710   20.3950  -33.8520 O   0  0  0  0  0  0  0  0  0  0  0  0
   -6.0210   18.5980  -35.2070 O   0  0  0  0  0  0  0  0  0  0  0  0
   -4.5210   19.5410  -33.2030 C   0  0  0  0  0  0  0  0  0  0  0  0
   -3.4710   18.6240  -33.3470 C   0  0  0  0  0  0  0  0  0  0  0  0
   -2.1940   18.9380  -32.8730 C   0  0  0  0  0  0  0  0  0  0  0  0
   -1.9490   20.1820  -32.2660 C   0  0  0  0  0  0  0  0  0  0  0  0
   -0.6860   20.5270  -31.7640 O   0  0  0  0  0  0  0  0  0  0  0  0
   -0.4340   21.0560  -30.4900 C   0  0  0  0  0  0  0  0  0  0  0  0
    0.1770   20.2990  -29.4770 C   0  0  0  0  0  0  0  0  0  0  0  0
    0.4180   20.8840  -28.2330 C   0  0  0  0  0  0  0  0  0  0  0  0
    0.0750   22.1800  -28.0120 N   0  0  0  0  0  0  0  0  0  0  0  0
   -0.4990   22.9510  -28.9770 C   0  0  0  0  0  0  0  0  0  0  0  0
   -0.8480   24.3580  -28.6770 C   0  0  0  0  0  0  0  0  0  0  0  0
   -0.1550   25.0150  -27.8550 O   0  0  0  0  0  0  0  0  0  0  0  0
   -1.9060   25.0260  -29.3790 N   0  0  0  0  0  0  0  0  0  0  0  0
   -3.0710   24.5360  -29.6980 C   0  0  0  0  0  0  0  0  0  0  0  0
   -3.5010   23.2630  -29.2750 C   0  0  0  0  0  0  0  0  0  0  0  0
   -4.7660   22.8050  -29.6460 C   0  0  0  0  0  0  0  0  0  0  0  0
   -5.6180   23.6180  -30.4080 C   0  0  0  0  0  0  0  0  0  0  0  0
   -6.9670   23.1140  -30.8550 C   0  0  0  0  0  0  0  0  0  0  0  0
   -7.6050   22.4450  -29.8240 F   0  0  0  0  0  0  0  0  0  0  0  0
   -7.7460   24.1870  -31.2460 F   0  0  0  0  0  0  0  0  0  0  0  0
   -6.8340   22.2410  -31.9200 F   0  0  0  0  0  0  0  0  0  0  0  0
   -5.1490   24.8760  -30.8150 C   0  0  0  0  0  0  0  0  0  0  0  0
   -3.9130   25.3000  -30.4460 N   0  0  0  0  0  0  0  0  0  0  0  0
   -0.7600   22.3930  -30.2390 C   0  0  0  0  0  0  0  0  0  0  0  0
   -3.0040   21.0890  -32.1130 C   0  0  0  0  0  0  0  0  0  0  0  0
   -4.2820   20.7750  -32.5860 C   0  0  0  0  0  0  0  0  0  0  0  0
   -6.7126   18.2232  -31.7006 H   0  0  0  0  0  0  0  0  0  0  0  0
   -7.9689   17.9159  -32.9472 H   0  0  0  0  0  0  0  0  0  0  0  0
   -6.4501   16.9567  -32.9472 H   0  0  0  0  0  0  0  0  0  0  0  0
   -3.6522   17.6546  -33.8343 H   0  0  0  0  0  0  0  0  0  0  0  0
   -1.3772   18.2084  -32.9755 H   0  0  0  0  0  0  0  0  0  0  0  0
    0.4633   19.2533  -29.6626 H   0  0  0  0  0  0  0  0  0  0  0  0
    0.8862   20.2951  -27.4305 H   0  0  0  0  0  0  0  0  0  0  0  0
   -2.8440   22.6341  -28.6563 H   0  0  0  0  0  0  0  0  0  0  0  0
   -5.0965   21.8016  -29.3394 H   0  0  0  0  0  0  0  0  0  0  0  0
   -5.7861   25.5224  -31.4365 H   0  0  0  0  0  0  0  0  0  0  0  0
   -1.2197   23.0059  -31.0283 H   0  0  0  0  0  0  0  0  0  0  0  0
   -2.8267   22.0550  -31.6175 H   0  0  0  0  0  0  0  0  0  0  0  0
   -5.1019   21.4996  -32.4730 H   0  0  0  0  0  0  0  0  0  0  0  0
  1  2  1  0
  2  3  2  0
  2  4  2  0
  2  5  1  0
  5  6  2  0
  6  7  1  0
  7  8  2  0
  8  9  1  0
  9 10  1  0
 10 11  2  0
 11 12  1  0
 12 13  2  0
 13 14  1  0
 14 15  1  0
 15 16  2  0
 15 17  1  0
 17 18  2  3
 18 19  1  0
 19 20  2  0
 20 21  1  0
 21 22  1  0
 22 23  1  0
 22 24  1  0
 22 25  1  0
 21 26  2  0
 26 27  1  0
 14 28  2  0
  8 29  1  0
 29 30  2  0
 30  5  1  0
 28 10  1  0
 27 18  1  0
  1 31  1  0
  1 32  1  0
  1 33  1  0
  6 34  1  0
  7 35  1  0
 11 36  1  0
 12 37  1  0
 19 38  1  0
 20 39  1  0
 26 40  1  0
 28 41  1  0
 29 42  1  0
 30 43  1  0
M  CHG  1  27  -1
M  END
>  <UniqueID>  (40) 
39

>  <SMILES>  (40) 
CS(=O)(=O)c1ccc(Oc2ccnc(C(=O)N=c3ccc(C(F)(F)F)c[n-]3)c2)cc1

>  <Energy>  (40) 
60.9508055791709

>  <Genealogy>  (40) 
CS(=O)(=O)c1ccc(Oc2ccnc(C(=O)N=c3ccc(C(F)(F)F)c[n-]3)c2)cc1 (protonated)
CS(=O)(=O)c1ccc(Oc2ccnc(C(=O)N=c3ccc(C(F)(F)F)c[n-]3)c2)cc1 (3D coordinates assigned)
CS(=O)(=O)c1ccc(Oc2ccnc(C(=O)N=c3ccc(C(F)(F)F)c[n-]3)c2)cc1 (optimized conformer: 60.9508055791709 kcal/mol)

>  <smiles>  (40) 
CS(=O)(=O)c1ccc(Oc2ccnc(C(=O)N=c3ccc(C(F)(F)F)c[nH]3)c2)cc1

>  <score_type>  (40) 
oracle

>  <origin>  (40) 
adgpu

>  <m_score__min__energy>  (40) 
-9.9700000000000006

>  <m_primary>  (40) 
energy

$$$$
40:0
     RDKit          3D

 47 50  0  0  0  0  0  0  0  0999 V2000
   -7.9360   23.4790  -31.6960 O   0  0  0  0  0  0  0  0  0  0  0  0
   -7.1360   22.5310  -31.4660 C   0  0  0  0  0  0  0  0  0  0  0  0
   -5.8530   22.8110  -30.8810 N   0  0  0  0  0  0  0  0  0  0  0  0
   -5.4550   24.1590  -30.4820 C   0  0  0  0  0  0  0  0  0  0  0  0
   -4.2800   24.0950  -29.5520 C   0  0  0  0  0  0  0  0  0  0  0  0
   -4.2660   23.2090  -28.4640 C   0  0  0  0  0  0  0  0  0  0  0  0
   -3.1660   23.1970  -27.6050 C   0  0  0  0  0  0  0  0  0  0  0  0
   -2.0950   24.0640  -27.8340 C   0  0  0  0  0  0  0  0  0  0  0  0
   -2.1460   24.9390  -28.9220 C   0  0  0  0  0  0  0  0  0  0  0  0
   -1.1930   25.7330  -29.1400 O   0  0  0  0  0  0  0  0  0  0  0  0
   -3.2270   24.9370  -29.7470 N   0  0  0  0  0  0  0  0  0  0  0  0
   -7.5290   21.1470  -31.8250 C   0  0  0  0  0  0  0  0  0  0  0  0
   -8.6810   20.5520  -31.2790 C   0  0  0  0  0  0  0  0  0  0  0  0
   -9.0300   19.2430  -31.6230 C   0  0  0  0  0  0  0  0  0  0  0  0
   -8.2440   18.5170  -32.5190 C   0  0  0  0  0  0  0  0  0  0  0  0
   -7.1070   19.1030  -33.0890 C   0  0  0  0  0  0  0  0  0  0  0  0
   -6.0930   18.1880  -34.2010 S   0  0  0  0  0  0  0  0  0  0  0  0
   -6.1200   18.8480  -35.5510 O   0  0  0  0  0  0  0  0  0  0  0  0
   -6.6210   16.7850  -34.3290 O   0  0  0  0  0  0  0  0  0  0  0  0
   -4.4640   18.1400  -33.6060 N   0  0  0  0  0  0  0  0  0  0  0  0
   -3.7160   16.9200  -33.3190 C   0  0  0  0  0  0  0  0  0  0  0  0
   -2.3330   17.3870  -32.7980 C   0  0  0  0  0  0  0  0  0  0  0  0
   -2.4320   18.8740  -32.8400 C   0  0  0  0  0  0  0  0  0  0  0  0
   -1.4660   19.8130  -32.4760 C   0  0  0  0  0  0  0  0  0  0  0  0
   -1.7770   21.1770  -32.6000 C   0  0  0  0  0  0  0  0  0  0  0  0
   -3.0400   21.5760  -33.0810 C   0  0  0  0  0  0  0  0  0  0  0  0
   -3.9960   20.6110  -33.4400 C   0  0  0  0  0  0  0  0  0  0  0  0
   -3.6580   19.2610  -33.3060 C   0  0  0  0  0  0  0  0  0  0  0  0
   -6.7530   20.4140  -32.7420 C   0  0  0  0  0  0  0  0  0  0  0  0
   -5.1380   22.0540  -30.8050 H   0  0  0  0  0  0  0  0  0  0  0  0
   -5.1800   24.7370  -31.3766 H   0  0  0  0  0  0  0  0  0  0  0  0
   -6.2963   24.6452  -29.9665 H   0  0  0  0  0  0  0  0  0  0  0  0
   -5.1139   22.5303  -28.2897 H   0  0  0  0  0  0  0  0  0  0  0  0
   -3.1425   22.5061  -26.7493 H   0  0  0  0  0  0  0  0  0  0  0  0
   -1.2215   24.0579  -27.1654 H   0  0  0  0  0  0  0  0  0  0  0  0
   -9.3102   21.1198  -30.5778 H   0  0  0  0  0  0  0  0  0  0  0  0
   -9.9283   18.7829  -31.1855 H   0  0  0  0  0  0  0  0  0  0  0  0
   -8.5178   17.4835  -32.7777 H   0  0  0  0  0  0  0  0  0  0  0  0
   -4.2333   16.3246  -32.5523 H   0  0  0  0  0  0  0  0  0  0  0  0
   -3.6195   16.2842  -34.2115 H   0  0  0  0  0  0  0  0  0  0  0  0
   -2.1592   17.0329  -31.7711 H   0  0  0  0  0  0  0  0  0  0  0  0
   -1.4952   16.9954  -33.3936 H   0  0  0  0  0  0  0  0  0  0  0  0
   -0.4832   19.4921  -32.1004 H   0  0  0  0  0  0  0  0  0  0  0  0
   -1.0320   21.9366  -32.3206 H   0  0  0  0  0  0  0  0  0  0  0  0
   -3.2781   22.6458  -33.1757 H   0  0  0  0  0  0  0  0  0  0  0  0
   -4.9852   20.9100  -33.8169 H   0  0  0  0  0  0  0  0  0  0  0  0
   -5.8603   20.8742  -33.1906 H   0  0  0  0  0  0  0  0  0  0  0  0
  1  2  2  0
  2  3  1  0
  3  4  1  0
  4  5  1  0
  5  6  2  0
  6  7  1  0
  7  8  2  0
  8  9  1  0
  9 10  2  0
  9 11  1  0
  2 12  1  0
 12 13  2  0
 13 14  1  0
 14 15  2  0
 15 16  1  0
 16 17  1  0
 17 18  2  0
 17 19  2  0
 17 20  1  0
 20 21  1  0
 21 22  1  0
 22 23  1  0
 23 24  2  0
 24 25  1  0
 25 26  2  0
 26 27  1  0
 27 28  2  0
 16 29  2  0
 11  5  1  0
 29 12  1  0
 28 20  1  0
 28 23  1  0
  3 30  1  0
  4 31  1  0
  4 32  1  0
  6 33  1  0
  7 34  1  0
  8 35  1  0
 13 36  1  0
 14 37  1  0
 15 38  1  0
 21 39  1  0
 21 40  1  0
 22 41  1  0
 22 42  1  0
 24 43  1  0
 25 44  1  0
 26 45  1  0
 27 46  1  0
 29 47  1  0
M  CHG  1  11  -1
M  END
>  <UniqueID>  (41) 
40

>  <SMILES>  (41) 
O=C(NCc1cccc(=O)[n-]1)c1cccc(S(=O)(=O)N2CCc3ccccc32)c1

>  <Energy>  (41) 
67.82433494337157

>  <Genealogy>  (41) 
O=C(NCc1cccc(=O)[n-]1)c1cccc(S(=O)(=O)N2CCc3ccccc32)c1 (protonated)
O=C(NCc1cccc(=O)[n-]1)c1cccc(S(=O)(=O)N2CCc3ccccc32)c1 (3D coordinates assigned)
O=C(NCc1cccc(=O)[n-]1)c1cccc(S(=O)(=O)N2CCc3ccccc32)c1 (nonaromatic ring conformer: 67.82433494337157 kcal/mol)

>  <smiles>  (41) 
O=C(NCc1cccc(=O)[nH]1)c1cccc(S(=O)(=O)N2CCc3ccccc32)c1

>  <score_type>  (41) 
oracle

>  <origin>  (41) 
adgpu

>  <m_score__min__energy>  (41) 
-11.83

>  <m_primary>  (41) 
energy

$$$$
41:0
     RDKit          3D

 38 40  0  0  0  0  0  0  0  0999 V2000
   -8.6910   19.0720  -31.2120 C   0  0  0  0  0  0  0  0  0  0  0  0
   -8.4590   20.5040  -32.2420 S   0  0  0  0  0  0  0  0  0  0  0  0
   -9.7530   21.2620  -32.3460 O   0  0  0  0  0  0  0  0  0  0  0  0
   -8.0430   20.0700  -33.6200 O   0  0  0  0  0  0  0  0  0  0  0  0
   -7.2180   21.5340  -31.5390 C   0  0  0  0  0  0  0  0  0  0  0  0
   -5.8690   21.3230  -31.8490 C   0  0  0  0  0  0  0  0  0  0  0  0
   -4.8830   22.1490  -31.3020 C   0  0  0  0  0  0  0  0  0  0  0  0
   -5.2320   23.2090  -30.4460 C   0  0  0  0  0  0  0  0  0  0  0  0
   -4.1700   24.0710  -29.8720 C   0  0  0  0  0  0  0  0  0  0  0  0
   -3.8450   25.1240  -30.4860 O   0  0  0  0  0  0  0  0  0  0  0  0
   -3.5060   23.7230  -28.6420 N   0  0  0  0  0  0  0  0  0  0  0  0
   -2.5430   24.5650  -27.9860 C   0  0  0  0  0  0  0  0  0  0  0  0
   -1.4260   25.0790  -28.6750 C   0  0  0  0  0  0  0  0  0  0  0  0
   -0.5210   25.9230  -28.0240 C   0  0  0  0  0  0  0  0  0  0  0  0
   -0.7310   26.2740  -26.6890 C   0  0  0  0  0  0  0  0  0  0  0  0
   -1.8360   25.7630  -25.9950 C   0  0  0  0  0  0  0  0  0  0  0  0
   -2.7510   24.9320  -26.6470 C   0  0  0  0  0  0  0  0  0  0  0  0
   -2.0070   26.0980  -24.6480 O   0  0  0  0  0  0  0  0  0  0  0  0
   -0.9510   26.7090  -23.9000 C   0  0  0  0  0  0  0  0  0  0  0  0
   -0.2020   27.7260  -24.7720 C   0  0  0  0  0  0  0  0  0  0  0  0
    0.1460   27.1400  -26.0280 O   0  0  0  0  0  0  0  0  0  0  0  0
   -6.5900   23.4110  -30.1340 C   0  0  0  0  0  0  0  0  0  0  0  0
   -7.5730   22.5820  -30.6820 C   0  0  0  0  0  0  0  0  0  0  0  0
   -8.6428   19.3696  -30.1541 H   0  0  0  0  0  0  0  0  0  0  0  0
   -9.6734   18.6242  -31.4225 H   0  0  0  0  0  0  0  0  0  0  0  0
   -7.9002   18.3369  -31.4225 H   0  0  0  0  0  0  0  0  0  0  0  0
   -5.5840   20.5039  -32.5257 H   0  0  0  0  0  0  0  0  0  0  0  0
   -3.8250   21.9685  -31.5431 H   0  0  0  0  0  0  0  0  0  0  0  0
   -3.6840   22.7880  -28.2130 H   0  0  0  0  0  0  0  0  0  0  0  0
   -1.2653   24.8147  -29.7306 H   0  0  0  0  0  0  0  0  0  0  0  0
    0.3560   26.3103  -28.5634 H   0  0  0  0  0  0  0  0  0  0  0  0
   -3.6373   24.5642  -26.1092 H   0  0  0  0  0  0  0  0  0  0  0  0
   -1.3760   27.2236  -23.0256 H   0  0  0  0  0  0  0  0  0  0  0  0
   -0.2467   25.9302  -23.5724 H   0  0  0  0  0  0  0  0  0  0  0  0
   -0.8469   28.6001  -24.9455 H   0  0  0  0  0  0  0  0  0  0  0  0
    0.7178   28.0339  -24.2533 H   0  0  0  0  0  0  0  0  0  0  0  0
   -6.8792   24.2264  -29.4547 H   0  0  0  0  0  0  0  0  0  0  0  0
   -8.6317   22.7543  -30.4383 H   0  0  0  0  0  0  0  0  0  0  0  0
  1  2  1  0
  2  3  2  0
  2  4  2  0
  2  5  1  0
  5  6  2  0
  6  7  1  0
  7  8  2  0
  8  9  1  0
  9 10  2  0
  9 11  1  0
 11 12  1  0
 12 13  2  0
 13 14  1  0
 14 15  2  0
 15 16  1  0
 16 17  2  0
 16 18  1  0
 18 19  1  0
 19 20  1  0
 20 21  1  0
  8 22  1  0
 22 23  2  0
 23  5  1  0
 17 12  1  0
 21 15  1  0
  1 24  1  0
  1 25  1  0
  1 26  1  0
  6 27  1  0
  7 28  1  0
 11 29  1  0
 13 30  1  0
 14 31  1  0
 17 32  1  0
 19 33  1  0
 19 34  1  0
 20 35  1  0
 20 36  1  0
 22 37  1  0
 23 38  1  0
M  END
>  <UniqueID>  (42) 
41

>  <SMILES>  (42) 
CS(=O)(=O)c1ccc(C(=O)Nc2ccc3c(c2)OCCO3)cc1

>  <Energy>  (42) 
45.11480530867382

>  <Genealogy>  (42) 
CS(=O)(=O)c1ccc(C(=O)Nc2ccc3c(c2)OCCO3)cc1 (3D coordinates assigned)
CS(=O)(=O)c1ccc(C(=O)Nc2ccc3c(c2)OCCO3)cc1 (nonaromatic ring conformer: 45.11480530867382 kcal/mol)

>  <smiles>  (42) 
CS(=O)(=O)c1ccc(C(=O)Nc2ccc3c(c2)OCCO3)cc1

>  <score_type>  (42) 
oracle

>  <origin>  (42) 
adgpu

>  <m_score__min__energy>  (42) 
-7.9000000000000004

>  <m_primary>  (42) 
energy

$$$$
42:0
     RDKit          3D

 38 40  0  0  0  0  0  0  0  0999 V2000
   -4.2700   24.4350  -28.2540 O   0  0  0  0  0  0  0  0  0  0  0  0
   -3.5360   24.5160  -29.5630 S   0  0  0  0  0  0  0  0  0  0  0  0
   -2.1240   24.9540  -29.2890 O   0  0  0  0  0  0  0  0  0  0  0  0
   -4.3060   25.6830  -30.5940 N   0  0  0  0  0  0  0  0  0  0  0  0
   -5.7470   25.6990  -30.3370 C   0  0  0  0  0  0  0  0  0  0  0  0
   -6.3450   24.3770  -30.7310 C   0  0  0  0  0  0  0  0  0  0  0  0
   -6.8750   23.5200  -29.7550 C   0  0  0  0  0  0  0  0  0  0  0  0
   -7.4000   22.2770  -30.1170 C   0  0  0  0  0  0  0  0  0  0  0  0
   -7.3920   21.8600  -31.4600 C   0  0  0  0  0  0  0  0  0  0  0  0
   -7.9330   20.5750  -31.8340 N   0  0  0  0  0  0  0  0  0  0  0  0
   -9.2200   20.3010  -32.1350 C   0  0  0  0  0  0  0  0  0  0  0  0
   -9.3580   18.9640  -32.4430 C   0  0  0  0  0  0  0  0  0  0  0  0
   -8.1030   18.4000  -32.3250 C   0  0  0  0  0  0  0  0  0  0  0  0
   -7.2490   19.4170  -31.9490 C   0  0  0  0  0  0  0  0  0  0  0  0
   -6.8440   22.7170  -32.4330 C   0  0  0  0  0  0  0  0  0  0  0  0
   -6.3210   23.9620  -32.0700 C   0  0  0  0  0  0  0  0  0  0  0  0
   -3.5050   22.9340  -30.3410 C   0  0  0  0  0  0  0  0  0  0  0  0
   -3.4770   21.7720  -29.5570 C   0  0  0  0  0  0  0  0  0  0  0  0
   -3.4320   20.5140  -30.1660 C   0  0  0  0  0  0  0  0  0  0  0  0
   -3.4090   20.4120  -31.5610 C   0  0  0  0  0  0  0  0  0  0  0  0
   -3.3640   19.1920  -32.1520 F   0  0  0  0  0  0  0  0  0  0  0  0
   -3.4300   21.5690  -32.3470 C   0  0  0  0  0  0  0  0  0  0  0  0
   -3.4750   22.8280  -31.7390 C   0  0  0  0  0  0  0  0  0  0  0  0
   -4.1550   25.3610  -31.5790 H   0  0  0  0  0  0  0  0  0  0  0  0
   -5.9258   25.8770  -29.2663 H   0  0  0  0  0  0  0  0  0  0  0  0
   -6.2141   26.5013  -30.9271 H   0  0  0  0  0  0  0  0  0  0  0  0
   -6.8772   23.8283  -28.6991 H   0  0  0  0  0  0  0  0  0  0  0  0
   -7.8235   21.6184  -29.3444 H   0  0  0  0  0  0  0  0  0  0  0  0
  -10.0383   21.0361  -32.1346 H   0  0  0  0  0  0  0  0  0  0  0  0
  -10.2866   18.4475  -32.7273 H   0  0  0  0  0  0  0  0  0  0  0  0
   -7.8363   17.3468  -32.4970 H   0  0  0  0  0  0  0  0  0  0  0  0
   -6.1700   19.3010  -31.7695 H   0  0  0  0  0  0  0  0  0  0  0  0
   -6.8270   22.4047  -33.4876 H   0  0  0  0  0  0  0  0  0  0  0  0
   -5.8886   24.6191  -32.8389 H   0  0  0  0  0  0  0  0  0  0  0  0
   -3.4905   21.8501  -28.4599 H   0  0  0  0  0  0  0  0  0  0  0  0
   -3.4147   19.6043  -29.5479 H   0  0  0  0  0  0  0  0  0  0  0  0
   -3.4111   21.4887  -33.4439 H   0  0  0  0  0  0  0  0  0  0  0  0
   -3.4869   23.7367  -32.3587 H   0  0  0  0  0  0  0  0  0  0  0  0
  1  2  2  0
  2  3  2  0
  2  4  1  0
  4  5  1  0
  5  6  1  0
  6  7  2  0
  7  8  1  0
  8  9  2  0
  9 10  1  0
 10 11  1  0
 11 12  2  0
 12 13  1  0
 13 14  2  0
  9 15  1  0
 15 16  2  0
  2 17  1  0
 17 18  2  0
 18 19  1  0
 19 20  2  0
 20 21  1  0
 20 22  1  0
 22 23  2  0
 16  6  1  0
 23 17  1  0
 14 10  1  0
  4 24  1  0
  5 25  1  0
  5 26  1  0
  7 27  1  0
  8 28  1  0
 11 29  1  0
 12 30  1  0
 13 31  1  0
 14 32  1  0
 15 33  1  0
 16 34  1  0
 18 35  1  0
 19 36  1  0
 22 37  1  0
 23 38  1  0
M  END
>  <UniqueID>  (43) 
42

>  <SMILES>  (43) 
O=S(=O)(NCc1ccc(-n2cccc2)cc1)c1ccc(F)cc1

>  <Energy>  (43) 
66.57857964097887

>  <Genealogy>  (43) 
O=S(=O)(NCc1ccc(-n2cccc2)cc1)c1ccc(F)cc1 (3D coordinates assigned)
O=S(=O)(NCc1ccc(-n2cccc2)cc1)c1ccc(F)cc1 (optimized conformer: 66.57857964097887 kcal/mol)

>  <smiles>  (43) 
O=S(=O)(NCc1ccc(-n2cccc2)cc1)c1ccc(F)cc1

>  <score_type>  (43) 
oracle

>  <origin>  (43) 
adgpu

>  <m_score__min__energy>  (43) 
-8.2200000000000006

>  <m_primary>  (43) 
energy

$$$$
43:0
     RDKit          3D

 52 56  0  0  0  0  0  0  0  0999 V2000
   -9.2640   23.4330  -32.3490 C   0  0  0  0  0  0  0  0  0  0  0  0
   -7.9010   23.1580  -31.9170 N   0  0  0  0  0  0  0  0  0  0  0  0
   -7.2870   23.7050  -30.8530 C   0  0  0  0  0  0  0  0  0  0  0  0
   -5.9800   23.2640  -30.8350 C   0  0  0  0  0  0  0  0  0  0  0  0
   -4.9340   23.7200  -29.9030 C   0  0  0  0  0  0  0  0  0  0  0  0
   -3.6900   24.0930  -30.3040 N   0  0  0  0  0  0  0  0  0  0  0  0
   -3.1070   24.4540  -29.1530 C   0  0  0  0  0  0  0  0  0  0  0  0
   -1.8070   24.9180  -28.9660 C   0  0  0  0  0  0  0  0  0  0  0  0
   -1.4050   25.2430  -27.6510 C   0  0  0  0  0  0  0  0  0  0  0  0
    0.0020   25.7170  -27.3950 C   0  0  0  0  0  0  0  0  0  0  0  0
    0.6640   24.8820  -26.3700 N   0  0  0  0  0  0  0  0  0  0  0  0
    0.6700   25.5510  -25.0430 C   0  0  0  0  0  0  0  0  0  0  0  0
   -0.4300   25.0120  -24.1140 C   0  0  0  0  0  0  0  0  0  0  0  0
   -0.2790   23.5620  -23.8700 N   0  0  0  0  0  0  0  0  0  0  0  0
    0.3510   22.8290  -24.9870 C   0  0  0  0  0  0  0  0  0  0  0  0
    0.0910   23.5130  -26.3350 C   0  0  0  0  0  0  0  0  0  0  0  0
   -2.3180   25.0830  -26.5750 C   0  0  0  0  0  0  0  0  0  0  0  0
   -3.6230   24.6140  -26.8080 C   0  0  0  0  0  0  0  0  0  0  0  0
   -3.9770   24.3090  -28.1190 C   0  0  0  0  0  0  0  0  0  0  0  0
   -5.1530   23.8480  -28.5660 N   0  0  0  0  0  0  0  0  0  0  0  0
   -5.8700   22.4320  -31.9460 C   0  0  0  0  0  0  0  0  0  0  0  0
   -4.6940   21.6570  -32.3880 C   0  0  0  0  0  0  0  0  0  0  0  0
   -4.8430   20.3070  -32.7470 C   0  0  0  0  0  0  0  0  0  0  0  0
   -3.7320   19.5550  -33.1410 C   0  0  0  0  0  0  0  0  0  0  0  0
   -2.4630   20.1410  -33.1660 C   0  0  0  0  0  0  0  0  0  0  0  0
   -1.3860   19.4110  -33.5480 F   0  0  0  0  0  0  0  0  0  0  0  0
   -2.3020   21.4760  -32.7850 C   0  0  0  0  0  0  0  0  0  0  0  0
   -3.4110   22.2300  -32.3900 C   0  0  0  0  0  0  0  0  0  0  0  0
   -7.0520   22.4000  -32.5940 N   0  0  0  0  0  0  0  0  0  0  0  0
   -9.9089   23.5631  -31.4674 H   0  0  0  0  0  0  0  0  0  0  0  0
   -9.2788   24.3522  -32.9530 H   0  0  0  0  0  0  0  0  0  0  0  0
   -9.6341   22.5914  -32.9530 H   0  0  0  0  0  0  0  0  0  0  0  0
   -7.7476   24.3867  -30.1228 H   0  0  0  0  0  0  0  0  0  0  0  0
   -1.1157   25.0278  -29.8146 H   0  0  0  0  0  0  0  0  0  0  0  0
    0.5767   25.6603  -28.3312 H   0  0  0  0  0  0  0  0  0  0  0  0
   -0.0384   26.7538  -27.0299 H   0  0  0  0  0  0  0  0  0  0  0  0
    1.6478   25.3849  -24.5673 H   0  0  0  0  0  0  0  0  0  0  0  0
    0.4794   26.6222  -25.2048 H   0  0  0  0  0  0  0  0  0  0  0  0
   -0.3756   25.5427  -23.1520 H   0  0  0  0  0  0  0  0  0  0  0  0
   -1.4018   25.1778  -24.6019 H   0  0  0  0  0  0  0  0  0  0  0  0
   -1.2270   23.1560  -23.6860 H   0  0  0  0  0  0  0  0  0  0  0  0
    0.2980   23.4180  -23.0090 H   0  0  0  0  0  0  0  0  0  0  0  0
    1.4364   22.7820  -24.8149 H   0  0  0  0  0  0  0  0  0  0  0  0
   -0.0870   21.8207  -25.0248 H   0  0  0  0  0  0  0  0  0  0  0  0
    0.5498   22.9130  -27.1347 H   0  0  0  0  0  0  0  0  0  0  0  0
   -0.9968   23.5905  -26.4785 H   0  0  0  0  0  0  0  0  0  0  0  0
   -2.0015   25.3281  -25.5504 H   0  0  0  0  0  0  0  0  0  0  0  0
   -4.3396   24.4923  -25.9823 H   0  0  0  0  0  0  0  0  0  0  0  0
   -5.8382   19.8394  -32.7180 H   0  0  0  0  0  0  0  0  0  0  0  0
   -3.8566   18.5014  -33.4315 H   0  0  0  0  0  0  0  0  0  0  0  0
   -1.3019   21.9338  -32.7959 H   0  0  0  0  0  0  0  0  0  0  0  0
   -3.2786   23.2769  -32.0793 H   0  0  0  0  0  0  0  0  0  0  0  0
  1  2  1  0
  2  3  1  0
  3  4  2  0
  4  5  1  0
  5  6  2  0
  6  7  1  0
  7  8  2  0
  8  9  1  0
  9 10  1  0
 10 11  1  0
 11 12  1  0
 12 13  1  0
 13 14  1  0
 14 15  1  0
 15 16  1  0
  9 17  2  0
 17 18  1  0
 18 19  2  0
 19 20  1  0
  4 21  1  0
 21 22  1  0
 22 23  2  0
 23 24  1  0
 24 25  2  0
 25 26  1  0
 25 27  1  0
 27 28  2  0
 21 29  2  0
 29  2  1  0
 20  5  1  0
 28 22  1  0
 19  7  1  0
 16 11  1  0
  1 30  1  0
  1 31  1  0
  1 32  1  0
  3 33  1  0
  8 34  1  0
 10 35  1  0
 10 36  1  0
 12 37  1  0
 12 38  1  0
 13 39  1  0
 13 40  1  0
 14 41  1  0
 14 42  1  0
 15 43  1  0
 15 44  1  0
 16 45  1  0
 16 46  1  0
 17 47  1  0
 18 48  1  0
 23 49  1  0
 24 50  1  0
 27 51  1  0
 28 52  1  0
M  CHG  2  14   1  20  -1
M  END
>  <UniqueID>  (44) 
43

>  <SMILES>  (44) 
Cn1cc(-c2nc3cc(CN4CC[NH2+]CC4)ccc3[n-]2)c(-c2ccc(F)cc2)n1

>  <Energy>  (44) 
136.2076637482371

>  <Genealogy>  (44) 
Cn1cc(-c2nc3cc(CN4CC[NH2+]CC4)ccc3[n-]2)c(-c2ccc(F)cc2)n1 (protonated)
Cn1cc(-c2nc3cc(CN4CC[NH2+]CC4)ccc3[n-]2)c(-c2ccc(F)cc2)n1 (3D coordinates assigned)
Cn1cc(-c2nc3cc(CN4CC[NH2+]CC4)ccc3[n-]2)c(-c2ccc(F)cc2)n1 (nonaromatic ring conformer: 136.2076637482371 kcal/mol)

>  <smiles>  (44) 
Cn1cc(-c2nc3cc(CN4CCNCC4)ccc3[nH]2)c(-c2ccc(F)cc2)n1

>  <score_type>  (44) 
oracle

>  <origin>  (44) 
adgpu

>  <m_score__min__energy>  (44) 
-10.029999999999999

>  <m_primary>  (44) 
energy

$$$$
44:0
     RDKit          3D

 49 51  0  0  0  0  0  0  0  0999 V2000
   -3.4280   21.5620  -31.3180 C   0  0  0  0  0  0  0  0  0  0  0  0
   -4.2270   22.7920  -30.9430 C   0  0  0  0  0  0  0  0  0  0  0  0
   -3.6860   23.6750  -29.9760 C   0  0  0  0  0  0  0  0  0  0  0  0
   -2.5200   23.2800  -29.2320 N   0  0  0  0  0  0  0  0  0  0  0  0
   -1.3270   24.3400  -28.5510 S   0  0  0  0  0  0  0  0  0  0  0  0
   -1.3170   24.1930  -26.7760 C   0  0  0  0  0  0  0  0  0  0  0  0
    0.0250   23.9420  -29.0730 O   0  0  0  0  0  0  0  0  0  0  0  0
   -1.6040   25.7590  -28.9600 O   0  0  0  0  0  0  0  0  0  0  0  0
   -4.2820   24.9270  -29.7720 C   0  0  0  0  0  0  0  0  0  0  0  0
   -5.4020   25.2860  -30.5090 C   0  0  0  0  0  0  0  0  0  0  0  0
   -5.9560   24.4030  -31.3740 N   0  0  0  0  0  0  0  0  0  0  0  0
   -5.4530   23.1590  -31.5880 C   0  0  0  0  0  0  0  0  0  0  0  0
   -6.1440   22.3790  -32.3780 N   0  0  0  0  0  0  0  0  0  0  0  0
   -6.0320   20.9700  -32.6110 C   0  0  0  0  0  0  0  0  0  0  0  0
   -6.7860   20.0820  -31.8390 C   0  0  0  0  0  0  0  0  0  0  0  0
   -6.6450   18.7020  -32.0140 C   0  0  0  0  0  0  0  0  0  0  0  0
   -5.7240   18.1900  -32.9490 C   0  0  0  0  0  0  0  0  0  0  0  0
   -5.5860   16.7650  -33.1440 N   0  0  0  0  0  0  0  0  0  0  0  0
   -5.0420   15.9110  -32.0800 C   0  0  0  0  0  0  0  0  0  0  0  0
   -4.3530   14.6810  -32.6890 C   0  0  0  0  0  0  0  0  0  0  0  0
   -5.2240   13.9130  -33.6190 N   0  0  0  0  0  0  0  0  0  0  0  0
   -5.6620   12.6440  -33.0170 C   0  0  0  0  0  0  0  0  0  0  0  0
   -6.3900   14.6630  -34.1390 C   0  0  0  0  0  0  0  0  0  0  0  0
   -6.0570   16.1380  -34.3840 C   0  0  0  0  0  0  0  0  0  0  0  0
   -4.9390   19.0920  -33.6900 C   0  0  0  0  0  0  0  0  0  0  0  0
   -5.0800   20.4700  -33.5100 C   0  0  0  0  0  0  0  0  0  0  0  0
   -3.0945   21.0487  -30.4041 H   0  0  0  0  0  0  0  0  0  0  0  0
   -4.0576   20.8825  -31.9112 H   0  0  0  0  0  0  0  0  0  0  0  0
   -2.5513   21.8611  -31.9112 H   0  0  0  0  0  0  0  0  0  0  0  0
   -1.3851   25.1939  -26.3248 H   0  0  0  0  0  0  0  0  0  0  0  0
   -2.1759   23.5862  -26.4535 H   0  0  0  0  0  0  0  0  0  0  0  0
   -0.3838   23.7081  -26.4535 H   0  0  0  0  0  0  0  0  0  0  0  0
   -3.8634   25.6230  -29.0301 H   0  0  0  0  0  0  0  0  0  0  0  0
   -5.8400   26.2881  -30.3906 H   0  0  0  0  0  0  0  0  0  0  0  0
   -7.4930   20.4701  -31.0910 H   0  0  0  0  0  0  0  0  0  0  0  0
   -7.2580   18.0107  -31.4170 H   0  0  0  0  0  0  0  0  0  0  0  0
   -4.3097   16.4842  -31.4924 H   0  0  0  0  0  0  0  0  0  0  0  0
   -5.8650   15.5774  -31.4309 H   0  0  0  0  0  0  0  0  0  0  0  0
   -3.4643   15.0181  -33.2427 H   0  0  0  0  0  0  0  0  0  0  0  0
   -4.0959   14.0089  -31.8570 H   0  0  0  0  0  0  0  0  0  0  0  0
   -5.6327   12.7289  -31.9207 H   0  0  0  0  0  0  0  0  0  0  0  0
   -6.6894   12.4202  -33.3401 H   0  0  0  0  0  0  0  0  0  0  0  0
   -4.9914   11.8341  -33.3401 H   0  0  0  0  0  0  0  0  0  0  0  0
   -6.7109   14.2084  -35.0879 H   0  0  0  0  0  0  0  0  0  0  0  0
   -7.1901   14.6146  -33.3857 H   0  0  0  0  0  0  0  0  0  0  0  0
   -5.2701   16.2104  -35.1492 H   0  0  0  0  0  0  0  0  0  0  0  0
   -6.9637   16.6580  -34.7266 H   0  0  0  0  0  0  0  0  0  0  0  0
   -4.2080   18.7089  -34.4173 H   0  0  0  0  0  0  0  0  0  0  0  0
   -4.4419   21.1649  -34.0756 H   0  0  0  0  0  0  0  0  0  0  0  0
  1  2  1  0
  2  3  2  0
  3  4  1  0
  4  5  1  0
  5  6  1  0
  5  7  2  0
  5  8  2  0
  3  9  1  0
  9 10  2  0
 10 11  1  0
 11 12  1  0
 12 13  2  3
 13 14  1  0
 14 15  2  0
 15 16  1  0
 16 17  2  0
 17 18  1  0
 18 19  1  0
 19 20  1  0
 20 21  1  0
 21 22  1  0
 21 23  1  0
 23 24  1  0
 17 25  1  0
 25 26  2  0
 12  2  1  0
 26 14  1  0
 24 18  1  0
  1 27  1  0
  1 28  1  0
  1 29  1  0
  6 30  1  0
  6 31  1  0
  6 32  1  0
  9 33  1  0
 10 34  1  0
 15 35  1  0
 16 36  1  0
 19 37  1  0
 19 38  1  0
 20 39  1  0
 20 40  1  0
 22 41  1  0
 22 42  1  0
 22 43  1  0
 23 44  1  0
 23 45  1  0
 24 46  1  0
 24 47  1  0
 25 48  1  0
 26 49  1  0
M  CHG  2   4  -1  11  -1
M  END
>  <UniqueID>  (45) 
44

>  <SMILES>  (45) 
Cc1c([N-]S(C)(=O)=O)cc[n-]c1=Nc1ccc(N2CCN(C)CC2)cc1

>  <Energy>  (45) 
78.51392929872863

>  <Genealogy>  (45) 
Cc1c([N-]S(C)(=O)=O)cc[n-]c1=Nc1ccc(N2CCN(C)CC2)cc1 (protonated)
Cc1c([N-]S(C)(=O)=O)cc[n-]c1=Nc1ccc(N2CCN(C)CC2)cc1 (3D coordinates assigned)
Cc1c([N-]S(C)(=O)=O)cc[n-]c1=Nc1ccc(N2CCN(C)CC2)cc1 (nonaromatic ring conformer: 78.51392929872863 kcal/mol)

>  <smiles>  (45) 
Cc1c(NS(C)(=O)=O)cc[nH]c1=Nc1ccc(N2CCN(C)CC2)cc1

>  <score_type>  (45) 
oracle

>  <origin>  (45) 
adgpu

>  <m_score__min__energy>  (45) 
-9.5099999999999998

>  <m_primary>  (45) 
energy

$$$$
45:0
     RDKit          3D

 39 42  0  0  0  0  0  0  0  0999 V2000
   -1.5040   25.0110  -28.4440 O   0  0  0  0  0  0  0  0  0  0  0  0
   -2.1830   24.2930  -29.2260 C   0  0  0  0  0  0  0  0  0  0  0  0
   -3.1390   24.9300  -30.0840 N   0  0  0  0  0  0  0  0  0  0  0  0
   -4.4840   24.4890  -30.3270 C   0  0  0  0  0  0  0  0  0  0  0  0
   -5.5920   25.2150  -29.8620 C   0  0  0  0  0  0  0  0  0  0  0  0
   -6.8870   24.7630  -30.1220 C   0  0  0  0  0  0  0  0  0  0  0  0
   -7.0880   23.5900  -30.8540 C   0  0  0  0  0  0  0  0  0  0  0  0
   -5.9890   22.8550  -31.3300 C   0  0  0  0  0  0  0  0  0  0  0  0
   -6.1820   21.6220  -32.1250 C   0  0  0  0  0  0  0  0  0  0  0  0
   -5.1120   21.0300  -32.7380 N   0  0  0  0  0  0  0  0  0  0  0  0
   -5.2460   19.8840  -33.4810 C   0  0  0  0  0  0  0  0  0  0  0  0
   -6.4660   19.2880  -33.6240 N   0  0  0  0  0  0  0  0  0  0  0  0
   -7.5300   19.8650  -33.0170 C   0  0  0  0  0  0  0  0  0  0  0  0
   -8.7880   19.4100  -32.9930 N   0  0  0  0  0  0  0  0  0  0  0  0
   -9.5060   20.2300  -32.2340 N   0  0  0  0  0  0  0  0  0  0  0  0
   -8.6930   21.2160  -31.7750 C   0  0  0  0  0  0  0  0  0  0  0  0
   -7.4230   20.9980  -32.2770 C   0  0  0  0  0  0  0  0  0  0  0  0
   -4.6900   23.3280  -31.0820 C   0  0  0  0  0  0  0  0  0  0  0  0
   -1.9360   22.8320  -29.2710 C   0  0  0  0  0  0  0  0  0  0  0  0
   -1.5680   22.2180  -30.4780 C   0  0  0  0  0  0  0  0  0  0  0  0
   -1.3430   20.8400  -30.5290 C   0  0  0  0  0  0  0  0  0  0  0  0
   -1.4800   20.0620  -29.3790 C   0  0  0  0  0  0  0  0  0  0  0  0
   -1.8370   20.6570  -28.1570 C   0  0  0  0  0  0  0  0  0  0  0  0
   -2.0380   19.8150  -26.9220 C   0  0  0  0  0  0  0  0  0  0  0  0
   -3.3810   19.5320  -26.7430 F   0  0  0  0  0  0  0  0  0  0  0  0
   -1.3410   18.6300  -27.0600 F   0  0  0  0  0  0  0  0  0  0  0  0
   -1.5820   20.4780  -25.7950 F   0  0  0  0  0  0  0  0  0  0  0  0
   -2.0970   22.0390  -28.1200 C   0  0  0  0  0  0  0  0  0  0  0  0
   -5.4393   26.1428  -29.2911 H   0  0  0  0  0  0  0  0  0  0  0  0
   -7.7516   25.3320  -29.7495 H   0  0  0  0  0  0  0  0  0  0  0  0
   -8.1107   23.2404  -31.0585 H   0  0  0  0  0  0  0  0  0  0  0  0
   -4.3629   19.4418  -33.9655 H   0  0  0  0  0  0  0  0  0  0  0  0
   -9.1580   18.5530  -33.4620 H   0  0  0  0  0  0  0  0  0  0  0  0
   -8.9929   22.0452  -31.1173 H   0  0  0  0  0  0  0  0  0  0  0  0
   -3.8253   22.7805  -31.4852 H   0  0  0  0  0  0  0  0  0  0  0  0
   -1.4561   22.8247  -31.3887 H   0  0  0  0  0  0  0  0  0  0  0  0
   -1.0567   20.3666  -31.4797 H   0  0  0  0  0  0  0  0  0  0  0  0
   -1.3076   18.9768  -29.4291 H   0  0  0  0  0  0  0  0  0  0  0  0
   -2.4299   22.5049  -27.1808 H   0  0  0  0  0  0  0  0  0  0  0  0
  1  2  2  0
  2  3  1  0
  3  4  1  0
  4  5  2  0
  5  6  1  0
  6  7  2  0
  7  8  1  0
  8  9  1  0
  9 10  2  0
 10 11  1  0
 11 12  2  0
 12 13  1  0
 13 14  1  0
 14 15  1  0
 15 16  2  0
 16 17  1  0
  8 18  2  0
  2 19  1  0
 19 20  2  0
 20 21  1  0
 21 22  2  0
 22 23  1  0
 23 24  1  0
 24 25  1  0
 24 26  1  0
 24 27  1  0
 23 28  2  0
 18  4  1  0
 28 19  1  0
 17  9  1  0
 17 13  2  0
  5 29  1  0
  6 30  1  0
  7 31  1  0
 11 32  1  0
 14 33  1  0
 16 34  1  0
 18 35  1  0
 20 36  1  0
 21 37  1  0
 22 38  1  0
 28 39  1  0
M  CHG  1   3  -1
M  END
>  <UniqueID>  (46) 
45

>  <SMILES>  (46) 
O=C([N-]c1cccc(-c2ncnc3[nH]ncc23)c1)c1cccc(C(F)(F)F)c1

>  <Energy>  (46) 
97.95218231523417

>  <Genealogy>  (46) 
O=C([N-]c1cccc(-c2ncnc3[nH]ncc23)c1)c1cccc(C(F)(F)F)c1 (protonated)
O=C([N-]c1cccc(-c2ncnc3[nH]ncc23)c1)c1cccc(C(F)(F)F)c1 (3D coordinates assigned)
O=C([N-]c1cccc(-c2ncnc3[nH]ncc23)c1)c1cccc(C(F)(F)F)c1 (optimized conformer: 97.95218231523417 kcal/mol)

>  <smiles>  (46) 
O=C(Nc1cccc(-c2ncnc3[nH]ncc23)c1)c1cccc(C(F)(F)F)c1

>  <score_type>  (46) 
oracle

>  <origin>  (46) 
adgpu

>  <m_score__min__energy>  (46) 
-10.880000000000001

>  <m_primary>  (46) 
energy

$$$$
46:0
     RDKit          3D

 37 40  0  0  0  0  0  0  0  0999 V2000
   -5.2090   19.9300  -33.3600 O   0  0  0  0  0  0  0  0  0  0  0  0
   -5.6530   20.9110  -32.7010 C   0  0  0  0  0  0  0  0  0  0  0  0
   -7.0090   20.9690  -32.3760 C   0  0  0  0  0  0  0  0  0  0  0  0
   -8.0060   20.0630  -32.6800 C   0  0  0  0  0  0  0  0  0  0  0  0
   -9.1670   20.5890  -32.1380 C   0  0  0  0  0  0  0  0  0  0  0  0
   -8.8280   21.7880  -31.5300 C   0  0  0  0  0  0  0  0  0  0  0  0
   -7.5060   22.0060  -31.6840 N   0  0  0  0  0  0  0  0  0  0  0  0
   -6.7240   23.0410  -31.2690 C   0  0  0  0  0  0  0  0  0  0  0  0
   -7.2300   24.1360  -30.5500 C   0  0  0  0  0  0  0  0  0  0  0  0
   -6.3730   25.1660  -30.1620 C   0  0  0  0  0  0  0  0  0  0  0  0
   -5.0200   25.0960  -30.4950 C   0  0  0  0  0  0  0  0  0  0  0  0
   -4.5410   24.0320  -31.1910 N   0  0  0  0  0  0  0  0  0  0  0  0
   -5.3430   23.0030  -31.5900 C   0  0  0  0  0  0  0  0  0  0  0  0
   -4.8260   21.9380  -32.3020 N   0  0  0  0  0  0  0  0  0  0  0  0
   -3.3960   21.9280  -32.6820 C   0  0  0  0  0  0  0  0  0  0  0  0
   -2.5420   21.2130  -31.6250 C   0  0  0  0  0  0  0  0  0  0  0  0
   -2.5590   21.9440  -30.3080 C   0  0  0  0  0  0  0  0  0  0  0  0
   -3.4820   21.5860  -29.3110 C   0  0  0  0  0  0  0  0  0  0  0  0
   -3.5340   22.3020  -28.1100 C   0  0  0  0  0  0  0  0  0  0  0  0
   -2.6690   23.3790  -27.8990 C   0  0  0  0  0  0  0  0  0  0  0  0
   -1.7530   23.7450  -28.8900 C   0  0  0  0  0  0  0  0  0  0  0  0
   -1.6990   23.0340  -30.0920 C   0  0  0  0  0  0  0  0  0  0  0  0
   -7.9001   19.1201  -33.2366 H   0  0  0  0  0  0  0  0  0  0  0  0
  -10.1701   20.1396  -32.1817 H   0  0  0  0  0  0  0  0  0  0  0  0
   -9.5268   22.4559  -31.0050 H   0  0  0  0  0  0  0  0  0  0  0  0
   -8.2987   24.1814  -30.2936 H   0  0  0  0  0  0  0  0  0  0  0  0
   -6.7610   26.0269  -29.5978 H   0  0  0  0  0  0  0  0  0  0  0  0
   -4.3387   25.9051  -30.1930 H   0  0  0  0  0  0  0  0  0  0  0  0
   -3.2848   21.4072  -33.6445 H   0  0  0  0  0  0  0  0  0  0  0  0
   -3.0507   22.9694  -32.7604 H   0  0  0  0  0  0  0  0  0  0  0  0
   -2.9374   20.1976  -31.4744 H   0  0  0  0  0  0  0  0  0  0  0  0
   -1.5036   21.1818  -31.9867 H   0  0  0  0  0  0  0  0  0  0  0  0
   -4.1659   20.7402  -29.4751 H   0  0  0  0  0  0  0  0  0  0  0  0
   -4.2565   22.0168  -27.3311 H   0  0  0  0  0  0  0  0  0  0  0  0
   -2.7087   23.9390  -26.9531 H   0  0  0  0  0  0  0  0  0  0  0  0
   -1.0737   24.5940  -28.7233 H   0  0  0  0  0  0  0  0  0  0  0  0
   -0.9809   23.3286  -30.8715 H   0  0  0  0  0  0  0  0  0  0  0  0
  1  2  2  0
  2  3  1  0
  3  4  2  0
  4  5  1  0
  5  6  2  0
  6  7  1  0
  7  8  1  0
  8  9  2  0
  9 10  1  0
 10 11  2  0
 11 12  1  0
 12 13  2  0
 13 14  1  0
 14 15  1  0
 15 16  1  0
 16 17  1  0
 17 18  2  0
 18 19  1  0
 19 20  2  0
 20 21  1  0
 21 22  2  0
 14  2  1  0
 22 17  1  0
  7  3  1  0
 13  8  1  0
  4 23  1  0
  5 24  1  0
  6 25  1  0
  9 26  1  0
 10 27  1  0
 11 28  1  0
 15 29  1  0
 15 30  1  0
 16 31  1  0
 16 32  1  0
 18 33  1  0
 19 34  1  0
 20 35  1  0
 21 36  1  0
 22 37  1  0
M  END
>  <UniqueID>  (47) 
46

>  <SMILES>  (47) 
O=c1c2cccn2c2cccnc2n1CCc1ccccc1

>  <Energy>  (47) 
77.96706971263532

>  <Genealogy>  (47) 
O=c1c2cccn2c2cccnc2n1CCc1ccccc1 (3D coordinates assigned)
O=c1c2cccn2c2cccnc2n1CCc1ccccc1 (optimized conformer: 77.96706971263532 kcal/mol)

>  <smiles>  (47) 
O=c1c2cccn2c2cccnc2n1CCc1ccccc1

>  <score_type>  (47) 
oracle

>  <origin>  (47) 
adgpu

>  <m_score__min__energy>  (47) 
-7.6299999999999999

>  <m_primary>  (47) 
energy

$$$$
47:0
     RDKit          3D

 35 37  0  0  0  0  0  0  0  0999 V2000
   -5.8280   11.5810  -34.2730 C   0  0  0  0  0  0  0  0  0  0  0  0
   -5.7680   13.0780  -34.1670 C   0  0  0  0  0  0  0  0  0  0  0  0
   -4.5740   13.7160  -33.8040 C   0  0  0  0  0  0  0  0  0  0  0  0
   -4.5250   15.1070  -33.6810 C   0  0  0  0  0  0  0  0  0  0  0  0
   -5.6730   15.8860  -33.9100 C   0  0  0  0  0  0  0  0  0  0  0  0
   -5.6030   17.3610  -33.7750 C   0  0  0  0  0  0  0  0  0  0  0  0
   -5.0920   18.0930  -32.7180 C   0  0  0  0  0  0  0  0  0  0  0  0
   -5.2420   19.3930  -33.0460 N   0  0  0  0  0  0  0  0  0  0  0  0
   -4.8600   20.5530  -32.2780 C   0  0  0  0  0  0  0  0  0  0  0  0
   -5.8490   21.4080  -31.7580 C   0  0  0  0  0  0  0  0  0  0  0  0
   -5.4960   22.5360  -31.0110 C   0  0  0  0  0  0  0  0  0  0  0  0
   -4.1490   22.8310  -30.7750 C   0  0  0  0  0  0  0  0  0  0  0  0
   -3.7080   24.2440  -29.8210 S   0  0  0  0  0  0  0  0  0  0  0  0
   -4.2580   25.6750  -30.6200 N   0  0  0  0  0  0  0  0  0  0  0  0
   -2.2140   24.3020  -29.6570 O   0  0  0  0  0  0  0  0  0  0  0  0
   -4.3390   24.1590  -28.4600 O   0  0  0  0  0  0  0  0  0  0  0  0
   -3.1570   21.9810  -31.2770 C   0  0  0  0  0  0  0  0  0  0  0  0
   -3.5070   20.8520  -32.0240 C   0  0  0  0  0  0  0  0  0  0  0  0
   -5.8130   19.4490  -34.2400 N   0  0  0  0  0  0  0  0  0  0  0  0
   -6.0440   18.2310  -34.7060 N   0  0  0  0  0  0  0  0  0  0  0  0
   -6.8730   15.2410  -34.2610 C   0  0  0  0  0  0  0  0  0  0  0  0
   -6.9220   13.8490  -34.3840 C   0  0  0  0  0  0  0  0  0  0  0  0
   -8.0960   13.2520  -34.7140 F   0  0  0  0  0  0  0  0  0  0  0  0
   -5.8456   11.1424  -33.2644 H   0  0  0  0  0  0  0  0  0  0  0  0
   -6.7386   11.2881  -34.8161 H   0  0  0  0  0  0  0  0  0  0  0  0
   -4.9438   11.2161  -34.8161 H   0  0  0  0  0  0  0  0  0  0  0  0
   -3.6702   13.1182  -33.6148 H   0  0  0  0  0  0  0  0  0  0  0  0
   -3.5802   15.5968  -33.4026 H   0  0  0  0  0  0  0  0  0  0  0  0
   -4.6506   17.6939  -31.7929 H   0  0  0  0  0  0  0  0  0  0  0  0
   -6.9109   21.1868  -31.9410 H   0  0  0  0  0  0  0  0  0  0  0  0
   -6.2800   23.1937  -30.6075 H   0  0  0  0  0  0  0  0  0  0  0  0
   -3.4860   25.9860  -31.2510 H   0  0  0  0  0  0  0  0  0  0  0  0
   -2.0971   22.2021  -31.0830 H   0  0  0  0  0  0  0  0  0  0  0  0
   -2.7194   20.1919  -32.4165 H   0  0  0  0  0  0  0  0  0  0  0  0
   -7.7802   15.8367  -34.4402 H   0  0  0  0  0  0  0  0  0  0  0  0
  1  2  1  0
  2  3  2  0
  3  4  1  0
  4  5  2  0
  5  6  1  0
  6  7  2  0
  7  8  1  0
  8  9  1  0
  9 10  2  0
 10 11  1  0
 11 12  2  0
 12 13  1  0
 13 14  1  0
 13 15  2  0
 13 16  2  0
 12 17  1  0
 17 18  2  0
  8 19  1  0
 19 20  2  0
  5 21  1  0
 21 22  2  0
 22 23  1  0
 22  2  1  0
 20  6  1  0
 18  9  1  0
  1 24  1  0
  1 25  1  0
  1 26  1  0
  3 27  1  0
  4 28  1  0
  7 29  1  0
 10 30  1  0
 11 31  1  0
 14 32  1  0
 17 33  1  0
 18 34  1  0
 21 35  1  0
M  CHG  1  14  -1
M  END
>  <UniqueID>  (48) 
47

>  <SMILES>  (48) 
Cc1ccc(-c2cn(-c3ccc(S([NH-])(=O)=O)cc3)nn2)cc1F

>  <Energy>  (48) 
75.71809845969696

>  <Genealogy>  (48) 
Cc1ccc(-c2cn(-c3ccc(S([NH-])(=O)=O)cc3)nn2)cc1F (protonated)
Cc1ccc(-c2cn(-c3ccc(S([NH-])(=O)=O)cc3)nn2)cc1F (3D coordinates assigned)
Cc1ccc(-c2cn(-c3ccc(S([NH-])(=O)=O)cc3)nn2)cc1F (optimized conformer: 75.71809845969696 kcal/mol)

>  <smiles>  (48) 
Cc1ccc(-c2cn(-c3ccc(S(N)(=O)=O)cc3)nn2)cc1F

>  <score_type>  (48) 
oracle

>  <origin>  (48) 
adgpu

>  <m_score__min__energy>  (48) 
-10.09

>  <m_primary>  (48) 
energy

$$$$
48:0
     RDKit          3D

 35 36  0  0  0  0  0  0  0  0999 V2000
   -4.8920   20.8800  -32.4500 C   0  0  0  0  0  0  0  0  0  0  0  0
   -6.2360   20.2080  -32.3320 C   0  0  0  0  0  0  0  0  0  0  0  0
   -6.3720   18.8830  -32.7790 C   0  0  0  0  0  0  0  0  0  0  0  0
   -7.5860   18.2070  -32.6440 C   0  0  0  0  0  0  0  0  0  0  0  0
   -8.6810   18.8470  -32.0630 C   0  0  0  0  0  0  0  0  0  0  0  0
   -8.5710   20.1700  -31.6320 C   0  0  0  0  0  0  0  0  0  0  0  0
   -7.3630   20.8720  -31.7810 C   0  0  0  0  0  0  0  0  0  0  0  0
   -7.3070   22.2810  -31.3400 C   0  0  0  0  0  0  0  0  0  0  0  0
   -7.9010   22.6220  -30.2810 O   0  0  0  0  0  0  0  0  0  0  0  0
   -6.6200   23.2650  -32.1270 N   0  0  0  0  0  0  0  0  0  0  0  0
   -6.2460   24.5700  -31.5930 C   0  0  0  0  0  0  0  0  0  0  0  0
   -5.1790   24.4060  -30.5590 C   0  0  0  0  0  0  0  0  0  0  0  0
   -5.3550   24.4940  -29.1900 C   0  0  0  0  0  0  0  0  0  0  0  0
   -4.1220   24.1580  -28.6700 C   0  0  0  0  0  0  0  0  0  0  0  0
   -3.7880   24.0320  -27.2180 C   0  0  0  0  0  0  0  0  0  0  0  0
   -3.2850   23.8720  -29.6890 N   0  0  0  0  0  0  0  0  0  0  0  0
   -1.9030   23.4170  -29.5780 C   0  0  0  0  0  0  0  0  0  0  0  0
   -3.9200   24.0120  -30.8400 N   0  0  0  0  0  0  0  0  0  0  0  0
   -4.4924   21.0798  -31.4448 H   0  0  0  0  0  0  0  0  0  0  0  0
   -4.1997   20.2220  -32.9957 H   0  0  0  0  0  0  0  0  0  0  0  0
   -5.0030   21.8286  -32.9957 H   0  0  0  0  0  0  0  0  0  0  0  0
   -5.5132   18.3731  -33.2400 H   0  0  0  0  0  0  0  0  0  0  0  0
   -7.6792   17.1690  -32.9960 H   0  0  0  0  0  0  0  0  0  0  0  0
   -9.6326   18.3081  -31.9444 H   0  0  0  0  0  0  0  0  0  0  0  0
   -9.4375   20.6674  -31.1717 H   0  0  0  0  0  0  0  0  0  0  0  0
   -6.3620   23.0380  -33.1130 H   0  0  0  0  0  0  0  0  0  0  0  0
   -5.8696   25.2044  -32.4090 H   0  0  0  0  0  0  0  0  0  0  0  0
   -7.1276   25.0414  -31.1342 H   0  0  0  0  0  0  0  0  0  0  0  0
   -6.2682   24.7687  -28.6417 H   0  0  0  0  0  0  0  0  0  0  0  0
   -4.6484   24.3566  -26.6143 H   0  0  0  0  0  0  0  0  0  0  0  0
   -3.5520   22.9830  -26.9857 H   0  0  0  0  0  0  0  0  0  0  0  0
   -2.9179   24.6637  -26.9857 H   0  0  0  0  0  0  0  0  0  0  0  0
   -1.6307   23.3273  -28.5160 H   0  0  0  0  0  0  0  0  0  0  0  0
   -1.7991   22.4372  -30.0672 H   0  0  0  0  0  0  0  0  0  0  0  0
   -1.2374   24.1434  -30.0672 H   0  0  0  0  0  0  0  0  0  0  0  0
  1  2  1  0
  2  3  2  0
  3  4  1  0
  4  5  2  0
  5  6  1  0
  6  7  2  0
  7  8  1  0
  8  9  2  0
  8 10  1  0
 10 11  1  0
 11 12  1  0
 12 13  1  0
 13 14  2  0
 14 15  1  0
 14 16  1  0
 16 17  1  0
 16 18  1  0
  7  2  1  0
 18 12  2  0
  1 19  1  0
  1 20  1  0
  1 21  1  0
  3 22  1  0
  4 23  1  0
  5 24  1  0
  6 25  1  0
 10 26  1  0
 11 27  1  0
 11 28  1  0
 13 29  1  0
 15 30  1  0
 15 31  1  0
 15 32  1  0
 17 33  1  0
 17 34  1  0
 17 35  1  0
M  END
>  <UniqueID>  (49) 
48

>  <SMILES>  (49) 
Cc1ccccc1C(=O)NCc1cc(C)n(C)n1

>  <Energy>  (49) 
64.425619004745

>  <Genealogy>  (49) 
Cc1ccccc1C(=O)NCc1cc(C)n(C)n1 (3D coordinates assigned)
Cc1ccccc1C(=O)NCc1cc(C)n(C)n1 (optimized conformer: 64.425619004745 kcal/mol)

>  <smiles>  (49) 
Cc1ccccc1C(=O)NCc1cc(C)n(C)n1

>  <score_type>  (49) 
oracle

>  <origin>  (49) 
adgpu

>  <m_score__min__energy>  (49) 
-7.6100000000000003

>  <m_primary>  (49) 
energy

$$$$
