0:0
     RDKit          3D

 37 38  0  0  0  0  0  0  0  0999 V2000
   -1.1250   20.7270  -32.0330 C   0  0  0  0  0  0  0  0  0  0  0  0
   -1.2170   20.9030  -30.6230 O   0  0  0  0  0  0  0  0  0  0  0  0
   -2.2860   21.5360  -29.9680 C   0  0  0  0  0  0  0  0  0  0  0  0
   -3.2010   22.3580  -30.6530 C   0  0  0  0  0  0  0  0  0  0  0  0
   -4.2520   22.9800  -29.9640 C   0  0  0  0  0  0  0  0  0  0  0  0
   -5.3690   24.0550  -30.7990 S   0  0  0  0  0  0  0  0  0  0  0  0
   -6.5060   24.4520  -29.9010 O   0  0  0  0  0  0  0  0  0  0  0  0
   -4.6260   25.2920  -31.2180 O   0  0  0  0  0  0  0  0  0  0  0  0
   -5.9930   23.2550  -32.2040 N   0  0  0  0  0  0  0  0  0  0  0  0
   -7.0850   22.3230  -32.1260 C   0  0  0  0  0  0  0  0  0  0  0  0
   -8.3620   22.7760  -31.7490 C   0  0  0  0  0  0  0  0  0  0  0  0
   -9.4380   21.8910  -31.6810 C   0  0  0  0  0  0  0  0  0  0  0  0
   -9.2570   20.5470  -31.9970 C   0  0  0  0  0  0  0  0  0  0  0  0
   -7.9980   20.0800  -32.3770 C   0  0  0  0  0  0  0  0  0  0  0  0
   -6.8990   20.9540  -32.4390 C   0  0  0  0  0  0  0  0  0  0  0  0
   -5.3000   20.3220  -32.8680 S   0  0  0  0  0  0  0  0  0  0  0  0
   -5.3870   19.0070  -34.0660 C   0  0  0  0  0  0  0  0  0  0  0  0
   -4.6350   19.7750  -31.6360 O   0  0  0  0  0  0  0  0  0  0  0  0
   -4.4630   21.4330  -33.4370 O   0  0  0  0  0  0  0  0  0  0  0  0
   -4.3900   22.7810  -28.5850 C   0  0  0  0  0  0  0  0  0  0  0  0
   -3.4900   21.9640  -27.9000 C   0  0  0  0  0  0  0  0  0  0  0  0
   -2.4410   21.3410  -28.5860 C   0  0  0  0  0  0  0  0  0  0  0  0
   -1.3200   20.3220  -27.6970 Cl  0  0  0  0  0  0  0  0  0  0  0  0
   -0.6256   19.7716  -32.2514 H   0  0  0  0  0  0  0  0  0  0  0  0
   -2.1351   20.7207  -32.4684 H   0  0  0  0  0  0  0  0  0  0  0  0
   -0.5432   21.5528  -32.4684 H   0  0  0  0  0  0  0  0  0  0  0  0
   -3.0906   22.5134  -31.7364 H   0  0  0  0  0  0  0  0  0  0  0  0
   -5.4610   23.3660  -33.0950 H   0  0  0  0  0  0  0  0  0  0  0  0
   -8.5136   23.8380  -31.5055 H   0  0  0  0  0  0  0  0  0  0  0  0
  -10.4306   22.2552  -31.3774 H   0  0  0  0  0  0  0  0  0  0  0  0
  -10.1081   19.8520  -31.9470 H   0  0  0  0  0  0  0  0  0  0  0  0
   -7.8645   19.0179  -32.6304 H   0  0  0  0  0  0  0  0  0  0  0  0
   -5.4510   18.0402  -33.5452 H   0  0  0  0  0  0  0  0  0  0  0  0
   -6.2781   19.1436  -34.6963 H   0  0  0  0  0  0  0  0  0  0  0  0
   -4.4857   19.0250  -34.6963 H   0  0  0  0  0  0  0  0  0  0  0  0
   -5.2106   23.2703  -28.0399 H   0  0  0  0  0  0  0  0  0  0  0  0
   -3.6052   21.8090  -26.8171 H   0  0  0  0  0  0  0  0  0  0  0  0
  1  2  1  0
  2  3  1  0
  3  4  2  0
  4  5  1  0
  5  6  1  0
  6  7  2  0
  6  8  2  0
  6  9  1  0
  9 10  1  0
 10 11  2  0
 11 12  1  0
 12 13  2  0
 13 14  1  0
 14 15  2  0
 15 16  1  0
 16 17  1  0
 16 18  2  0
 16 19  2  0
  5 20  2  0
 20 21  1  0
 21 22  2  0
 22 23  1  0
 22  3  1  0
 15 10  1  0
  1 24  1  0
  1 25  1  0
  1 26  1  0
  4 27  1  0
  9 28  1  0
 11 29  1  0
 12 30  1  0
 13 31  1  0
 14 32  1  0
 17 33  1  0
 17 34  1  0
 17 35  1  0
 20 36  1  0
 21 37  1  0
M  END
>  <UniqueID>  (1) 
1

>  <SMILES>  (1) 
COc1cc(S(=O)(=O)Nc2ccccc2S(C)(=O)=O)ccc1Cl

>  <Energy>  (1) 
39.716539210760885

>  <Genealogy>  (1) 
COc1cc(S(=O)(=O)Nc2ccccc2S(C)(=O)=O)ccc1Cl (3D coordinates assigned)
COc1cc(S(=O)(=O)Nc2ccccc2S(C)(=O)=O)ccc1Cl (optimized conformer: 39.716539210760885 kcal/mol)

>  <smiles>  (1) 
COc1cc(S(=O)(=O)Nc2ccccc2S(C)(=O)=O)ccc1Cl

>  <score_type>  (1) 
oracle

>  <origin>  (1) 
adgpu

>  <m_score__min__energy>  (1) 
-9.1099999999999994

>  <m_primary>  (1) 
energy

$$$$
1:0
     RDKit          3D

 64 67  0  0  0  0  0  0  0  0999 V2000
   -9.4440   21.2090  -31.9450 C   0  0  0  0  0  0  0  0  0  0  0  0
   -8.1110   21.2340  -31.9450 C   0  0  0  0  0  0  0  0  0  0  0  0
   -7.2860   20.0520  -32.2590 C   0  0  0  0  0  0  0  0  0  0  0  0
   -6.9880   19.2580  -31.3260 O   0  0  0  0  0  0  0  0  0  0  0  0
   -6.8610   19.7710  -33.6030 N   0  0  0  0  0  0  0  0  0  0  0  0
   -5.7140   18.9630  -33.9240 C   0  0  0  0  0  0  0  0  0  0  0  0
   -5.7360   18.1560  -35.0720 C   0  0  0  0  0  0  0  0  0  0  0  0
   -4.6150   17.4060  -35.4310 C   0  0  0  0  0  0  0  0  0  0  0  0
   -3.4520   17.4650  -34.6580 C   0  0  0  0  0  0  0  0  0  0  0  0
   -3.4030   18.2890  -33.5180 C   0  0  0  0  0  0  0  0  0  0  0  0
   -2.2500   18.3980  -32.7280 O   0  0  0  0  0  0  0  0  0  0  0  0
   -1.8020   19.5960  -32.1640 C   0  0  0  0  0  0  0  0  0  0  0  0
   -2.3260   19.9960  -30.9760 N   0  0  0  0  0  0  0  0  0  0  0  0
   -1.9240   21.1420  -30.3720 C   0  0  0  0  0  0  0  0  0  0  0  0
   -2.4530   21.4820  -29.2320 N   0  0  0  0  0  0  0  0  0  0  0  0
   -2.1690   22.6890  -28.5060 C   0  0  0  0  0  0  0  0  0  0  0  0
   -1.6170   22.5880  -27.2250 C   0  0  0  0  0  0  0  0  0  0  0  0
   -1.3270   23.7340  -26.4840 C   0  0  0  0  0  0  0  0  0  0  0  0
   -1.5970   25.0080  -27.0090 C   0  0  0  0  0  0  0  0  0  0  0  0
   -1.2970   26.1950  -26.2480 N   0  0  0  0  0  0  0  0  0  0  0  0
   -0.4050   27.2250  -26.8010 C   0  0  0  0  0  0  0  0  0  0  0  0
    0.1380   28.1260  -25.6840 C   0  0  0  0  0  0  0  0  0  0  0  0
    0.3620   27.3160  -24.4730 N   0  0  0  0  0  0  0  0  0  0  0  0
    1.1370   28.0760  -23.4810 C   0  0  0  0  0  0  0  0  0  0  0  0
   -0.9200   26.8570  -23.8870 C   0  0  0  0  0  0  0  0  0  0  0  0
   -1.9520   26.4500  -24.9580 C   0  0  0  0  0  0  0  0  0  0  0  0
   -2.2030   25.1100  -28.2730 C   0  0  0  0  0  0  0  0  0  0  0  0
   -2.5050   23.9570  -29.0260 C   0  0  0  0  0  0  0  0  0  0  0  0
   -3.1560   24.0350  -30.2680 O   0  0  0  0  0  0  0  0  0  0  0  0
   -4.4540   23.5170  -30.5360 C   0  0  0  0  0  0  0  0  0  0  0  0
   -0.9560   21.9020  -30.9490 N   0  0  0  0  0  0  0  0  0  0  0  0
   -0.4060   21.5560  -32.1400 C   0  0  0  0  0  0  0  0  0  0  0  0
   -0.8390   20.4010  -32.8110 C   0  0  0  0  0  0  0  0  0  0  0  0
   -0.2470   20.0320  -34.1530 C   0  0  0  0  0  0  0  0  0  0  0  0
    1.0080   20.5970  -34.2760 F   0  0  0  0  0  0  0  0  0  0  0  0
   -1.0440   20.4950  -35.1850 F   0  0  0  0  0  0  0  0  0  0  0  0
   -0.1430   18.6600  -34.2820 F   0  0  0  0  0  0  0  0  0  0  0  0
   -4.5370   19.0250  -33.1520 C   0  0  0  0  0  0  0  0  0  0  0  0
  -10.0112   22.1200  -31.7033 H   0  0  0  0  0  0  0  0  0  0  0  0
   -9.9766   20.2774  -32.1867 H   0  0  0  0  0  0  0  0  0  0  0  0
   -7.6034   22.1786  -31.6998 H   0  0  0  0  0  0  0  0  0  0  0  0
   -7.4740   20.0840  -34.3890 H   0  0  0  0  0  0  0  0  0  0  0  0
   -6.6429   18.1143  -35.6931 H   0  0  0  0  0  0  0  0  0  0  0  0
   -4.6469   16.7663  -36.3253 H   0  0  0  0  0  0  0  0  0  0  0  0
   -2.5736   16.8665  -34.9411 H   0  0  0  0  0  0  0  0  0  0  0  0
   -1.4096   21.5958  -26.7977 H   0  0  0  0  0  0  0  0  0  0  0  0
   -0.8838   23.6389  -25.4817 H   0  0  0  0  0  0  0  0  0  0  0  0
    0.4372   26.7367  -27.3131 H   0  0  0  0  0  0  0  0  0  0  0  0
   -0.9746   27.8437  -27.5101 H   0  0  0  0  0  0  0  0  0  0  0  0
    1.0881   28.5779  -26.0051 H   0  0  0  0  0  0  0  0  0  0  0  0
   -0.5884   28.9228  -25.4662 H   0  0  0  0  0  0  0  0  0  0  0  0
    0.8307   27.7756  -22.4681 H   0  0  0  0  0  0  0  0  0  0  0  0
    2.2089   27.8692  -23.6164 H   0  0  0  0  0  0  0  0  0  0  0  0
    0.9512   29.1517  -23.6164 H   0  0  0  0  0  0  0  0  0  0  0  0
   -0.7211   25.9885  -23.2419 H   0  0  0  0  0  0  0  0  0  0  0  0
   -1.3451   27.6972  -23.3184 H   0  0  0  0  0  0  0  0  0  0  0  0
   -2.4697   25.5364  -24.6303 H   0  0  0  0  0  0  0  0  0  0  0  0
   -2.6695   27.2740  -25.0853 H   0  0  0  0  0  0  0  0  0  0  0  0
   -2.4449   26.1028  -28.6802 H   0  0  0  0  0  0  0  0  0  0  0  0
   -4.9699   23.3111  -29.5865 H   0  0  0  0  0  0  0  0  0  0  0  0
   -5.0307   24.2539  -31.1143 H   0  0  0  0  0  0  0  0  0  0  0  0
   -4.3649   22.5856  -31.1143 H   0  0  0  0  0  0  0  0  0  0  0  0
    0.3825   22.1829  -32.5819 H   0  0  0  0  0  0  0  0  0  0  0  0
   -4.5084   19.6579  -32.2527 H   0  0  0  0  0  0  0  0  0  0  0  0
  1  2  2  0
  2  3  1  0
  3  4  2  0
  3  5  1  0
  5  6  1  0
  6  7  2  0
  7  8  1  0
  8  9  2  0
  9 10  1  0
 10 11  1  0
 11 12  1  0
 12 13  2  0
 13 14  1  0
 14 15  2  3
 15 16  1  0
 16 17  2  0
 17 18  1  0
 18 19  2  0
 19 20  1  0
 20 21  1  0
 21 22  1  0
 22 23  1  0
 23 24  1  0
 23 25  1  0
 25 26  1  0
 19 27  1  0
 27 28  2  0
 28 29  1  0
 29 30  1  0
 14 31  1  0
 31 32  1  0
 32 33  2  0
 33 34  1  0
 34 35  1  0
 34 36  1  0
 34 37  1  0
 10 38  2  0
 38  6  1  0
 33 12  1  0
 28 16  1  0
 26 20  1  0
  1 39  1  0
  1 40  1  0
  2 41  1  0
  5 42  1  0
  7 43  1  0
  8 44  1  0
  9 45  1  0
 17 46  1  0
 18 47  1  0
 21 48  1  0
 21 49  1  0
 22 50  1  0
 22 51  1  0
 24 52  1  0
 24 53  1  0
 24 54  1  0
 25 55  1  0
 25 56  1  0
 26 57  1  0
 26 58  1  0
 27 59  1  0
 30 60  1  0
 30 61  1  0
 30 62  1  0
 32 63  1  0
 38 64  1  0
M  CHG  1  31  -1
M  END
>  <UniqueID>  (2) 
2

>  <SMILES>  (2) 
C=CC(=O)Nc1cccc(Oc2nc(=Nc3ccc(N4CCN(C)CC4)cc3OC)[n-]cc2C(F)(F)F)c1

>  <Energy>  (2) 
97.07919740836728

>  <Genealogy>  (2) 
C=CC(=O)Nc1cccc(Oc2nc(=Nc3ccc(N4CCN(C)CC4)cc3OC)[n-]cc2C(F)(F)F)c1 (protonated)
C=CC(=O)Nc1cccc(Oc2nc(=Nc3ccc(N4CCN(C)CC4)cc3OC)[n-]cc2C(F)(F)F)c1 (3D coordinates assigned)
C=CC(=O)Nc1cccc(Oc2nc(=Nc3ccc(N4CCN(C)CC4)cc3OC)[n-]cc2C(F)(F)F)c1 (nonaromatic ring conformer: 97.07919740836728 kcal/mol)

>  <smiles>  (2) 
C=CC(=O)Nc1cccc(Oc2nc(=Nc3ccc(N4CCN(C)CC4)cc3OC)[nH]cc2C(F)(F)F)c1

>  <score_type>  (2) 
oracle

>  <origin>  (2) 
adgpu

>  <m_score__min__energy>  (2) 
-10.26

>  <m_primary>  (2) 
energy

$$$$
2:0
     RDKit          3D

 50 54  0  0  0  0  0  0  0  0999 V2000
   -3.1960   21.3061  -32.8788 H   0  0  0  0  0  0  0  0  0  0  0  0
   -4.2220   20.9480  -33.0490 C   0  0  0  0  0  0  0  0  0  0  0  0
   -4.4410   19.8900  -33.8740 N   0  0  0  0  0  0  0  0  0  0  0  0
   -5.6880   19.4070  -34.1200 C   0  0  0  0  0  0  0  0  0  0  0  0
   -5.8630   18.2190  -35.0350 C   0  0  0  0  0  0  0  0  0  0  0  0
   -6.7909   18.3558  -35.6097 H   0  0  0  0  0  0  0  0  0  0  0  0
   -4.9745   18.1750  -35.6820 H   0  0  0  0  0  0  0  0  0  0  0  0
   -5.9430   16.9270  -34.3160 N   0  0  0  0  0  0  0  0  0  0  0  0
   -6.7450   16.9710  -33.0700 C   0  0  0  0  0  0  0  0  0  0  0  0
   -7.3558   17.8858  -33.0787 H   0  0  0  0  0  0  0  0  0  0  0  0
   -7.3650   16.0627  -33.0461 H   0  0  0  0  0  0  0  0  0  0  0  0
   -5.8840   16.9710  -31.8020 C   0  0  0  0  0  0  0  0  0  0  0  0
   -5.1451   17.7828  -31.8728 H   0  0  0  0  0  0  0  0  0  0  0  0
   -6.5477   17.1163  -30.9369 H   0  0  0  0  0  0  0  0  0  0  0  0
   -5.0000   15.3810  -31.5830 S   0  0  0  0  0  0  0  0  0  0  0  0
   -4.7350   14.9810  -33.3510 C   0  0  0  0  0  0  0  0  0  0  0  0
   -3.8015   14.4076  -33.4503 H   0  0  0  0  0  0  0  0  0  0  0  0
   -5.5977   14.3958  -33.7022 H   0  0  0  0  0  0  0  0  0  0  0  0
   -4.6350   16.2410  -34.2090 C   0  0  0  0  0  0  0  0  0  0  0  0
   -3.9069   16.9278  -33.7527 H   0  0  0  0  0  0  0  0  0  0  0  0
   -4.3144   15.9473  -35.2194 H   0  0  0  0  0  0  0  0  0  0  0  0
   -6.7950   20.0290  -33.5260 C   0  0  0  0  0  0  0  0  0  0  0  0
   -7.8116   19.6616  -33.7296 H   0  0  0  0  0  0  0  0  0  0  0  0
   -6.5990   21.1170  -32.6750 C   0  0  0  0  0  0  0  0  0  0  0  0
   -7.4646   21.6093  -32.2077 H   0  0  0  0  0  0  0  0  0  0  0  0
   -5.3010   21.5870  -32.4120 C   0  0  0  0  0  0  0  0  0  0  0  0
   -5.0990   22.7470  -31.5050 C   0  0  0  0  0  0  0  0  0  0  0  0
   -4.1560   22.6700  -30.5240 N   0  0  0  0  0  0  0  0  0  0  0  0
   -3.9220   23.7040  -29.6730 C   0  0  0  0  0  0  0  0  0  0  0  0
   -3.0280   23.5630  -28.7380 N   0  0  0  0  0  0  0  0  0  0  0  0
   -2.6110   24.5550  -27.7850 C   0  0  0  0  0  0  0  0  0  0  0  0
   -3.3990   24.7500  -26.6250 C   0  0  0  0  0  0  0  0  0  0  0  0
   -4.3205   24.1645  -26.4906 H   0  0  0  0  0  0  0  0  0  0  0  0
   -3.0200   25.6820  -25.6420 C   0  0  0  0  0  0  0  0  0  0  0  0
   -3.6380   25.8466  -24.7470 H   0  0  0  0  0  0  0  0  0  0  0  0
   -1.8360   26.3900  -25.8390 C   0  0  0  0  0  0  0  0  0  0  0  0
   -1.0540   26.1890  -26.9440 C   0  0  0  0  0  0  0  0  0  0  0  0
   -1.3990   25.2740  -27.9350 C   0  0  0  0  0  0  0  0  0  0  0  0
   -0.7500   25.1139  -28.8086 H   0  0  0  0  0  0  0  0  0  0  0  0
    0.0430   27.0140  -26.8270 C   0  0  0  0  0  0  0  0  0  0  0  0
    0.8822   27.1141  -27.5311 H   0  0  0  0  0  0  0  0  0  0  0  0
   -0.1390   27.6930  -25.6270 C   0  0  0  0  0  0  0  0  0  0  0  0
    0.5573   28.4418  -25.2215 H   0  0  0  0  0  0  0  0  0  0  0  0
   -1.2880   27.3080  -25.0260 N   0  0  0  0  0  0  0  0  0  0  0  0
   -1.6650   27.6510  -24.1150 H   0  0  0  0  0  0  0  0  0  0  0  0
   -4.6540   24.8450  -29.7890 N   0  0  0  0  0  0  0  0  0  0  0  0
   -5.5990   24.9780  -30.7530 C   0  0  0  0  0  0  0  0  0  0  0  0
   -6.1741   25.9121  -30.8345 H   0  0  0  0  0  0  0  0  0  0  0  0
   -5.8410   23.9310  -31.6400 C   0  0  0  0  0  0  0  0  0  0  0  0
   -6.5990   24.0303  -32.4309 H   0  0  0  0  0  0  0  0  0  0  0  0
  1  2  1  0
  2  3  2  0
  3  4  1  0
  4  5  1  0
  5  6  1  0
  5  7  1  0
  5  8  1  0
  8  9  1  0
  9 10  1  0
  9 11  1  0
  9 12  1  0
 12 13  1  0
 12 14  1  0
 12 15  1  0
 15 16  1  0
 16 17  1  0
 16 18  1  0
 16 19  1  0
 19 20  1  0
 19 21  1  0
  4 22  2  0
 22 23  1  0
 22 24  1  0
 24 25  1  0
 24 26  2  0
 26 27  1  0
 27 28  2  0
 28 29  1  0
 29 30  2  0
 30 31  1  0
 31 32  2  0
 32 33  1  0
 32 34  1  0
 34 35  1  0
 34 36  2  0
 36 37  1  0
 37 38  2  0
 38 39  1  0
 37 40  1  0
 40 41  1  0
 40 42  2  0
 42 43  1  0
 42 44  1  0
 44 45  1  0
 29 46  1  0
 46 47  1  0
 47 48  1  0
 47 49  2  0
 49 50  1  0
 26  2  1  0
 49 27  1  0
 19  8  1  0
 38 31  1  0
 44 36  1  0
M  CHG  1  46  -1
M  END
>  <UniqueID>  (3) 
3

>  <SMILES>  (3) 
c1cc(-c2ccc(CN3CCSCC3)nc2)n/c(=N/c2ccc3[nH]ccc3c2)[n-]1

>  <Energy>  (3) 
107.37574803037815

>  <Genealogy>  (3) 
c1cc(-c2ccc(CN3CCSCC3)nc2)nc(=Nc2ccc3[nH]ccc3c2)[n-]1 (protonated)
c1cc(-c2ccc(CN3CCSCC3)nc2)n/c(=N/c2ccc3[nH]ccc3c2)[n-]1 (cis-trans isomerization)
c1cc(-c2ccc(CN3CCSCC3)nc2)n/c(=N/c2ccc3[nH]ccc3c2)[n-]1 (3D coordinates assigned)
c1cc(-c2ccc(CN3CCSCC3)nc2)n/c(=N/c2ccc3[nH]ccc3c2)[n-]1 (nonaromatic ring conformer: 107.37574803037815 kcal/mol)

>  <smiles>  (3) 
c1cc(-c2ccc(CN3CCSCC3)nc2)nc(=Nc2ccc3[nH]ccc3c2)[nH]1

>  <score_type>  (3) 
oracle

>  <origin>  (3) 
adgpu

>  <m_score__min__energy>  (3) 
-9.5199999999999996

>  <m_primary>  (3) 
energy

$$$$
3:0
     RDKit          3D

 47 49  0  0  0  0  0  0  0  0999 V2000
   -5.1097   21.4720  -29.3082 H   0  0  0  0  0  0  0  0  0  0  0  0
   -4.4470   22.3500  -29.3050 C   0  0  0  0  0  0  0  0  0  0  0  0
   -3.4510   22.4650  -28.3320 C   0  0  0  0  0  0  0  0  0  0  0  0
   -3.3347   21.6762  -27.5742 H   0  0  0  0  0  0  0  0  0  0  0  0
   -2.5970   23.5800  -28.3140 C   0  0  0  0  0  0  0  0  0  0  0  0
   -1.5050   23.6680  -27.2820 C   0  0  0  0  0  0  0  0  0  0  0  0
   -1.6777   22.9115  -26.5024 H   0  0  0  0  0  0  0  0  0  0  0  0
   -1.5106   24.6720  -26.8325 H   0  0  0  0  0  0  0  0  0  0  0  0
   -0.1770   23.4230  -27.9260 C   0  0  0  0  0  0  0  0  0  0  0  0
    0.6100   24.3910  -28.1110 O   0  0  0  0  0  0  0  0  0  0  0  0
    0.1580   22.0960  -28.3610 N   0  0  0  0  0  0  0  0  0  0  0  0
   -0.1940   21.4770  -29.4560 C   0  0  0  0  0  0  0  0  0  0  0  0
   -0.9030   22.1120  -30.4980 C   0  0  0  0  0  0  0  0  0  0  0  0
   -1.1914   23.1696  -30.4067 H   0  0  0  0  0  0  0  0  0  0  0  0
   -1.2360   21.3900  -31.6450 C   0  0  0  0  0  0  0  0  0  0  0  0
   -1.8045   21.8748  -32.4523 H   0  0  0  0  0  0  0  0  0  0  0  0
   -0.8490   20.0520  -31.7710 C   0  0  0  0  0  0  0  0  0  0  0  0
   -1.2330   19.2610  -32.9870 C   0  0  0  0  0  0  0  0  0  0  0  0
   -1.6938   18.3117  -32.6764 H   0  0  0  0  0  0  0  0  0  0  0  0
   -1.9513   19.8380  -33.5880 H   0  0  0  0  0  0  0  0  0  0  0  0
   -0.3354   19.0535  -33.5880 H   0  0  0  0  0  0  0  0  0  0  0  0
   -0.1460   19.4530  -30.7200 C   0  0  0  0  0  0  0  0  0  0  0  0
    0.1504   18.3962  -30.7926 H   0  0  0  0  0  0  0  0  0  0  0  0
    0.1730   20.1700  -29.6090 N   0  0  0  0  0  0  0  0  0  0  0  0
    0.7090   19.6920  -28.8480 H   0  0  0  0  0  0  0  0  0  0  0  0
   -2.7380   24.5680  -29.3070 C   0  0  0  0  0  0  0  0  0  0  0  0
   -1.8890   25.6710  -29.3360 O   0  0  0  0  0  0  0  0  0  0  0  0
   -3.7350   24.4480  -30.2820 C   0  0  0  0  0  0  0  0  0  0  0  0
   -3.8354   25.2222  -31.0569 H   0  0  0  0  0  0  0  0  0  0  0  0
   -4.6070   23.3500  -30.2800 C   0  0  0  0  0  0  0  0  0  0  0  0
   -5.6110   23.2420  -31.3060 N   0  0  0  0  0  0  0  0  0  0  0  0
   -6.2660   24.0450  -31.4440 H   0  0  0  0  0  0  0  0  0  0  0  0
   -5.8060   22.0700  -32.1150 C   0  0  0  0  0  0  0  0  0  0  0  0
   -4.6910   21.3650  -32.5930 C   0  0  0  0  0  0  0  0  0  0  0  0
   -3.6802   21.7600  -32.4132 H   0  0  0  0  0  0  0  0  0  0  0  0
   -4.8490   20.1700  -33.2930 C   0  0  0  0  0  0  0  0  0  0  0  0
   -3.9641   19.6373  -33.6715 H   0  0  0  0  0  0  0  0  0  0  0  0
   -6.1300   19.6420  -33.5180 C   0  0  0  0  0  0  0  0  0  0  0  0
   -6.2960   18.4000  -34.2300 N   0  0  0  0  0  0  0  0  0  0  0  0
   -5.7760   18.2350  -35.3530 O   0  0  0  0  0  0  0  0  0  0  0  0
   -7.0330   17.3750  -33.6830 O   0  0  0  0  0  0  0  0  0  0  0  0
   -7.2490   20.3400  -33.0350 C   0  0  0  0  0  0  0  0  0  0  0  0
   -8.2558   19.9297  -33.2025 H   0  0  0  0  0  0  0  0  0  0  0  0
   -7.1040   21.5560  -32.3400 C   0  0  0  0  0  0  0  0  0  0  0  0
   -8.2770   22.2660  -31.8980 N   0  0  0  0  0  0  0  0  0  0  0  0
   -8.3090   23.5130  -31.9360 O   0  0  0  0  0  0  0  0  0  0  0  0
   -9.3160   21.5960  -31.2960 O   0  0  0  0  0  0  0  0  0  0  0  0
  1  2  1  0
  2  3  2  0
  3  4  1  0
  3  5  1  0
  5  6  1  0
  6  7  1  0
  6  8  1  0
  6  9  1  0
  9 10  2  0
  9 11  1  0
 11 12  2  0
 12 13  1  0
 13 14  1  0
 13 15  2  0
 15 16  1  0
 15 17  1  0
 17 18  1  0
 18 19  1  0
 18 20  1  0
 18 21  1  0
 17 22  2  0
 22 23  1  0
 22 24  1  0
 24 25  1  0
  5 26  2  0
 26 27  1  0
 26 28  1  0
 28 29  1  0
 28 30  2  0
 30 31  1  0
 31 32  1  0
 31 33  1  0
 33 34  2  0
 34 35  1  0
 34 36  1  0
 36 37  1  0
 36 38  2  0
 38 39  1  0
 39 40  2  0
 39 41  1  0
 38 42  1  0
 42 43  1  0
 42 44  2  0
 44 45  1  0
 45 46  2  0
 45 47  1  0
 30  2  1  0
 44 33  1  0
 24 12  1  0
M  CHG  5  27  -1  39   1  41  -1  45   1  47  -1
M  END
>  <UniqueID>  (4) 
4

>  <SMILES>  (4) 
Cc1cc/c(=N\C(=O)Cc2ccc(Nc3ccc([N+](=O)[O-])cc3[N+](=O)[O-])cc2[O-])[nH]c1

>  <Energy>  (4) 
66.53657625787838

>  <Genealogy>  (4) 
Cc1ccc(=NC(=O)Cc2ccc(Nc3ccc([N+](=O)[O-])cc3[N+](=O)[O-])cc2[O-])[nH]c1 (protonated)
Cc1cc/c(=N\C(=O)Cc2ccc(Nc3ccc([N+](=O)[O-])cc3[N+](=O)[O-])cc2[O-])[nH]c1 (cis-trans isomerization)
Cc1cc/c(=N\C(=O)Cc2ccc(Nc3ccc([N+](=O)[O-])cc3[N+](=O)[O-])cc2[O-])[nH]c1 (3D coordinates assigned)
Cc1cc/c(=N\C(=O)Cc2ccc(Nc3ccc([N+](=O)[O-])cc3[N+](=O)[O-])cc2[O-])[nH]c1 (optimized conformer: 66.53657625787838 kcal/mol)

>  <smiles>  (4) 
Cc1ccc(=NC(=O)Cc2ccc(Nc3ccc([N+](=O)[O-])cc3[N+](=O)[O-])cc2O)[nH]c1

>  <score_type>  (4) 
oracle

>  <origin>  (4) 
adgpu

>  <m_score__min__energy>  (4) 
-12

>  <m_primary>  (4) 
energy

$$$$
4:0
     RDKit          3D

 60 64  0  0  0  0  0  0  0  0999 V2000
   -3.2440   21.3980  -33.4770 O   0  0  0  0  0  0  0  0  0  0  0  0
   -2.9480   20.1830  -33.3170 C   0  0  0  0  0  0  0  0  0  0  0  0
   -3.5050   19.1810  -34.1790 N   0  0  0  0  0  0  0  0  0  0  0  0
   -4.7510   18.4920  -34.0040 C   0  0  0  0  0  0  0  0  0  0  0  0
   -4.8400   17.1590  -34.4190 C   0  0  0  0  0  0  0  0  0  0  0  0
   -6.0040   16.4230  -34.1930 C   0  0  0  0  0  0  0  0  0  0  0  0
   -7.0900   17.0110  -33.5400 C   0  0  0  0  0  0  0  0  0  0  0  0
   -7.0260   18.3520  -33.1220 C   0  0  0  0  0  0  0  0  0  0  0  0
   -8.1630   18.9610  -32.3410 C   0  0  0  0  0  0  0  0  0  0  0  0
   -9.1040   17.9990  -32.0170 F   0  0  0  0  0  0  0  0  0  0  0  0
   -7.7020   19.5260  -31.1650 F   0  0  0  0  0  0  0  0  0  0  0  0
   -8.7660   19.9420  -33.1060 F   0  0  0  0  0  0  0  0  0  0  0  0
   -5.8420   19.0810  -33.3380 C   0  0  0  0  0  0  0  0  0  0  0  0
   -2.0030   19.7980  -32.2530 C   0  0  0  0  0  0  0  0  0  0  0  0
   -1.9390   20.5140  -31.0500 C   0  0  0  0  0  0  0  0  0  0  0  0
   -0.9830   20.1460  -30.0970 C   0  0  0  0  0  0  0  0  0  0  0  0
   -0.8320   20.9050  -28.8900 N   0  0  0  0  0  0  0  0  0  0  0  0
   -1.7140   20.6560  -27.7410 C   0  0  0  0  0  0  0  0  0  0  0  0
   -2.7460   21.7920  -27.6100 C   0  0  0  0  0  0  0  0  0  0  0  0
   -2.2480   23.0190  -28.2550 N   0  0  0  0  0  0  0  0  0  0  0  0
   -3.0760   23.7050  -29.2160 C   0  0  0  0  0  0  0  0  0  0  0  0
   -4.3180   23.2970  -29.6660 C   0  0  0  0  0  0  0  0  0  0  0  0
   -4.7350   24.3410  -30.4660 C   0  0  0  0  0  0  0  0  0  0  0  0
   -6.0910   24.4440  -31.1290 C   0  0  0  0  0  0  0  0  0  0  0  0
   -7.2270   23.8600  -30.2560 C   0  0  0  0  0  0  0  0  0  0  0  0
   -7.4390   22.3540  -30.5170 C   0  0  0  0  0  0  0  0  0  0  0  0
   -6.2610   21.7560  -31.0200 O   0  0  0  0  0  0  0  0  0  0  0  0
   -6.0070   22.2020  -32.3430 C   0  0  0  0  0  0  0  0  0  0  0  0
   -6.0760   23.7390  -32.4970 C   0  0  0  0  0  0  0  0  0  0  0  0
   -3.7950   25.3090  -30.4800 N   0  0  0  0  0  0  0  0  0  0  0  0
   -2.7830   24.9200  -29.7200 N   0  0  0  0  0  0  0  0  0  0  0  0
   -0.8020   23.2680  -28.1740 C   0  0  0  0  0  0  0  0  0  0  0  0
   -0.0620   22.1580  -28.9340 C   0  0  0  0  0  0  0  0  0  0  0  0
   -0.1390   19.1120  -30.3560 N   0  0  0  0  0  0  0  0  0  0  0  0
   -0.2270   18.4130  -31.5160 C   0  0  0  0  0  0  0  0  0  0  0  0
   -1.1480   18.7600  -32.4540 N   0  0  0  0  0  0  0  0  0  0  0  0
   -3.9861   16.6874  -34.9273 H   0  0  0  0  0  0  0  0  0  0  0  0
   -6.0665   15.3777  -34.5298 H   0  0  0  0  0  0  0  0  0  0  0  0
   -7.9998   16.4220  -33.3519 H   0  0  0  0  0  0  0  0  0  0  0  0
   -5.7685   20.1197  -32.9834 H   0  0  0  0  0  0  0  0  0  0  0  0
   -2.6278   21.3500  -30.8585 H   0  0  0  0  0  0  0  0  0  0  0  0
   -2.2405   19.7012  -27.8866 H   0  0  0  0  0  0  0  0  0  0  0  0
   -1.1076   20.6130  -26.8243 H   0  0  0  0  0  0  0  0  0  0  0  0
   -3.6854   21.4850  -28.0929 H   0  0  0  0  0  0  0  0  0  0  0  0
   -2.9169   21.9957  -26.5426 H   0  0  0  0  0  0  0  0  0  0  0  0
   -4.8488   22.3605  -29.4396 H   0  0  0  0  0  0  0  0  0  0  0  0
   -6.2949   25.5165  -31.2639 H   0  0  0  0  0  0  0  0  0  0  0  0
   -6.9706   24.0043  -29.1961 H   0  0  0  0  0  0  0  0  0  0  0  0
   -8.1587   24.3846  -30.5144 H   0  0  0  0  0  0  0  0  0  0  0  0
   -7.7180   21.8613  -29.5739 H   0  0  0  0  0  0  0  0  0  0  0  0
   -8.2378   22.2370  -31.2641 H   0  0  0  0  0  0  0  0  0  0  0  0
   -5.0013   21.8670  -32.6368 H   0  0  0  0  0  0  0  0  0  0  0  0
   -6.7916   21.7758  -32.9855 H   0  0  0  0  0  0  0  0  0  0  0  0
   -5.1985   24.0808  -33.0654 H   0  0  0  0  0  0  0  0  0  0  0  0
   -7.0076   23.9910  -33.0248 H   0  0  0  0  0  0  0  0  0  0  0  0
   -0.5695   24.2433  -28.6264 H   0  0  0  0  0  0  0  0  0  0  0  0
   -0.4837   23.2743  -27.1211 H   0  0  0  0  0  0  0  0  0  0  0  0
    0.0727   22.4640  -29.9820 H   0  0  0  0  0  0  0  0  0  0  0  0
    0.9166   21.9922  -28.4598 H   0  0  0  0  0  0  0  0  0  0  0  0
    0.4483   17.5639  -31.6977 H   0  0  0  0  0  0  0  0  0  0  0  0
  1  2  2  0
  2  3  1  0
  3  4  1  0
  4  5  2  0
  5  6  1  0
  6  7  2  0
  7  8  1  0
  8  9  1  0
  9 10  1  0
  9 11  1  0
  9 12  1  0
  8 13  2  0
  2 14  1  0
 14 15  2  0
 15 16  1  0
 16 17  1  0
 17 18  1  0
 18 19  1  0
 19 20  1  0
 20 21  1  0
 21 22  1  0
 22 23  2  0
 23 24  1  0
 24 25  1  0
 25 26  1  0
 26 27  1  0
 27 28  1  0
 28 29  1  0
 23 30  1  0
 30 31  1  0
 20 32  1  0
 32 33  1  0
 16 34  2  0
 34 35  1  0
 35 36  2  0
 13  4  1  0
 36 14  1  0
 33 17  1  0
 31 21  2  0
 29 24  1  0
  5 37  1  0
  6 38  1  0
  7 39  1  0
 13 40  1  0
 15 41  1  0
 18 42  1  0
 18 43  1  0
 19 44  1  0
 19 45  1  0
 22 46  1  0
 24 47  1  0
 25 48  1  0
 25 49  1  0
 26 50  1  0
 26 51  1  0
 28 52  1  0
 28 53  1  0
 29 54  1  0
 29 55  1  0
 32 56  1  0
 32 57  1  0
 33 58  1  0
 33 59  1  0
 35 60  1  0
M  CHG  2   3  -1  30  -1
M  END
>  <UniqueID>  (5) 
5

>  <SMILES>  (5) 
O=C([N-]c1cccc(C(F)(F)F)c1)c1cc(N2CCN(c3cc(C4CCOCC4)[n-]n3)CC2)ncn1

>  <Energy>  (5) 
112.63079081710289

>  <Genealogy>  (5) 
O=C([N-]c1cccc(C(F)(F)F)c1)c1cc(N2CCN(c3cc(C4CCOCC4)[n-]n3)CC2)ncn1 (protonated)
O=C([N-]c1cccc(C(F)(F)F)c1)c1cc(N2CCN(c3cc(C4CCOCC4)[n-]n3)CC2)ncn1 (3D coordinates assigned)
O=C([N-]c1cccc(C(F)(F)F)c1)c1cc(N2CCN(c3cc(C4CCOCC4)[n-]n3)CC2)ncn1 (nonaromatic ring conformer: 112.63079081710289 kcal/mol)

>  <smiles>  (5) 
O=C(Nc1cccc(C(F)(F)F)c1)c1cc(N2CCN(c3cc(C4CCOCC4)[nH]n3)CC2)ncn1

>  <score_type>  (5) 
oracle

>  <origin>  (5) 
adgpu

>  <m_score__min__energy>  (5) 
-11.220000000000001

>  <m_primary>  (5) 
energy

$$$$
5:0
     RDKit          3D

 38 39  0  0  0  0  0  0  0  0999 V2000
   -3.1660   21.6450  -32.0170 C   0  0  0  0  0  0  0  0  0  0  0  0
   -3.3800   23.0020  -31.6440 O   0  0  0  0  0  0  0  0  0  0  0  0
   -4.6230   23.5370  -31.2640 C   0  0  0  0  0  0  0  0  0  0  0  0
   -5.8420   22.9420  -31.6420 C   0  0  0  0  0  0  0  0  0  0  0  0
   -7.0650   23.5030  -31.2350 C   0  0  0  0  0  0  0  0  0  0  0  0
   -8.3660   22.8280  -31.5880 C   0  0  0  0  0  0  0  0  0  0  0  0
   -8.4810   21.4430  -30.9330 C   0  0  0  0  0  0  0  0  0  0  0  0
   -7.4570   20.5280  -31.4370 N   0  0  0  0  0  0  0  0  0  0  0  0
   -7.7790   19.2580  -32.0240 C   0  0  0  0  0  0  0  0  0  0  0  0
   -8.9110   18.7440  -31.8110 O   0  0  0  0  0  0  0  0  0  0  0  0
   -6.8000   18.5560  -32.8950 C   0  0  0  0  0  0  0  0  0  0  0  0
   -6.9100   17.1700  -33.1100 C   0  0  0  0  0  0  0  0  0  0  0  0
   -5.9760   16.5000  -33.8980 C   0  0  0  0  0  0  0  0  0  0  0  0
   -4.9260   17.2170  -34.4790 C   0  0  0  0  0  0  0  0  0  0  0  0
   -3.9000   16.5160  -35.3110 C   0  0  0  0  0  0  0  0  0  0  0  0
   -4.8230   18.5550  -34.2610 N   0  0  0  0  0  0  0  0  0  0  0  0
   -5.7170   19.2360  -33.4970 C   0  0  0  0  0  0  0  0  0  0  0  0
   -5.5690   20.4780  -33.3450 O   0  0  0  0  0  0  0  0  0  0  0  0
   -7.0630   24.6630  -30.4470 C   0  0  0  0  0  0  0  0  0  0  0  0
   -5.8560   25.2580  -30.0750 C   0  0  0  0  0  0  0  0  0  0  0  0
   -4.6410   24.6980  -30.4800 C   0  0  0  0  0  0  0  0  0  0  0  0
   -3.4460   25.2990  -30.0980 O   0  0  0  0  0  0  0  0  0  0  0  0
   -3.0685   21.0270  -31.1122 H   0  0  0  0  0  0  0  0  0  0  0  0
   -4.0192   21.2898  -32.6135 H   0  0  0  0  0  0  0  0  0  0  0  0
   -2.2449   21.5696  -32.6135 H   0  0  0  0  0  0  0  0  0  0  0  0
   -5.8372   22.0320  -32.2600 H   0  0  0  0  0  0  0  0  0  0  0  0
   -9.1997   23.4567  -31.2420 H   0  0  0  0  0  0  0  0  0  0  0  0
   -8.3999   22.6961  -32.6795 H   0  0  0  0  0  0  0  0  0  0  0  0
   -8.3607   21.5505  -29.8449 H   0  0  0  0  0  0  0  0  0  0  0  0
   -9.4690   21.0254  -31.1770 H   0  0  0  0  0  0  0  0  0  0  0  0
   -6.4570   20.8170  -31.3490 H   0  0  0  0  0  0  0  0  0  0  0  0
   -7.7396   16.6109  -32.6526 H   0  0  0  0  0  0  0  0  0  0  0  0
   -6.0643   15.4158  -34.0615 H   0  0  0  0  0  0  0  0  0  0  0  0
   -3.1720   16.0186  -34.6532 H   0  0  0  0  0  0  0  0  0  0  0  0
   -4.3933   15.7653  -35.9459 H   0  0  0  0  0  0  0  0  0  0  0  0
   -3.3800   17.2485  -35.9459 H   0  0  0  0  0  0  0  0  0  0  0  0
   -8.0157   25.1057  -30.1208 H   0  0  0  0  0  0  0  0  0  0  0  0
   -5.8612   26.1707  -29.4610 H   0  0  0  0  0  0  0  0  0  0  0  0
  1  2  1  0
  2  3  1  0
  3  4  2  0
  4  5  1  0
  5  6  1  0
  6  7  1  0
  7  8  1  0
  8  9  1  0
  9 10  2  0
  9 11  1  0
 11 12  2  0
 12 13  1  0
 13 14  2  0
 14 15  1  0
 14 16  1  0
 16 17  1  0
 17 18  2  0
  5 19  2  0
 19 20  1  0
 20 21  2  0
 21 22  1  0
 21  3  1  0
 17 11  1  0
  1 23  1  0
  1 24  1  0
  1 25  1  0
  4 26  1  0
  6 27  1  0
  6 28  1  0
  7 29  1  0
  7 30  1  0
  8 31  1  0
 12 32  1  0
 13 33  1  0
 15 34  1  0
 15 35  1  0
 15 36  1  0
 19 37  1  0
 20 38  1  0
M  CHG  2  16  -1  22  -1
M  END
>  <UniqueID>  (6) 
6

>  <SMILES>  (6) 
COc1cc(CCNC(=O)c2ccc(C)[n-]c2=O)ccc1[O-]

>  <Energy>  (6) 
34.30702315971022

>  <Genealogy>  (6) 
COc1cc(CCNC(=O)c2ccc(C)[n-]c2=O)ccc1[O-] (protonated)
COc1cc(CCNC(=O)c2ccc(C)[n-]c2=O)ccc1[O-] (3D coordinates assigned)
COc1cc(CCNC(=O)c2ccc(C)[n-]c2=O)ccc1[O-] (optimized conformer: 34.30702315971022 kcal/mol)

>  <smiles>  (6) 
COc1cc(CCNC(=O)c2ccc(C)[nH]c2=O)ccc1O

>  <score_type>  (6) 
oracle

>  <origin>  (6) 
adgpu

>  <m_score__min__energy>  (6) 
-10.609999999999999

>  <m_primary>  (6) 
energy

$$$$
6:0
     RDKit          3D

 61 64  0  0  0  0  0  0  0  0999 V2000
    1.8760   19.3120  -32.5500 C   0  0  0  0  0  0  0  0  0  0  0  0
    0.8640   20.2980  -32.3480 O   0  0  0  0  0  0  0  0  0  0  0  0
   -0.4850   20.1280  -32.6890 C   0  0  0  0  0  0  0  0  0  0  0  0
   -1.1210   18.8760  -32.6600 C   0  0  0  0  0  0  0  0  0  0  0  0
   -2.4650   18.7600  -33.0270 C   0  0  0  0  0  0  0  0  0  0  0  0
   -3.1930   19.8850  -33.4330 C   0  0  0  0  0  0  0  0  0  0  0  0
   -4.5590   19.7190  -33.8360 N   0  0  0  0  0  0  0  0  0  0  0  0
   -5.8570   19.2790  -32.7730 S   0  0  0  0  0  0  0  0  0  0  0  0
   -5.3310   18.5220  -31.5860 O   0  0  0  0  0  0  0  0  0  0  0  0
   -6.8170   18.3940  -33.5150 O   0  0  0  0  0  0  0  0  0  0  0  0
   -6.6980   20.7420  -32.2730 C   0  0  0  0  0  0  0  0  0  0  0  0
   -8.0910   20.7620  -32.1610 C   0  0  0  0  0  0  0  0  0  0  0  0
   -8.7420   21.8950  -31.6650 C   0  0  0  0  0  0  0  0  0  0  0  0
   -8.0030   23.0130  -31.2760 C   0  0  0  0  0  0  0  0  0  0  0  0
   -6.6060   23.0040  -31.3750 C   0  0  0  0  0  0  0  0  0  0  0  0
   -5.8810   24.1680  -30.9560 N   0  0  0  0  0  0  0  0  0  0  0  0
   -4.5070   24.2490  -30.5420 C   0  0  0  0  0  0  0  0  0  0  0  0
   -3.8530   25.2900  -30.8320 O   0  0  0  0  0  0  0  0  0  0  0  0
   -3.8400   23.1780  -29.7630 C   0  0  0  0  0  0  0  0  0  0  0  0
   -2.9410   22.2810  -30.3700 C   0  0  0  0  0  0  0  0  0  0  0  0
   -2.2990   21.2990  -29.6100 C   0  0  0  0  0  0  0  0  0  0  0  0
   -2.5600   21.1820  -28.2400 C   0  0  0  0  0  0  0  0  0  0  0  0
   -1.7270   19.9680  -27.2680 S   0  0  0  0  0  0  0  0  0  0  0  0
   -2.5110   18.6890  -27.3080 O   0  0  0  0  0  0  0  0  0  0  0  0
   -1.6470   20.4310  -25.8430 O   0  0  0  0  0  0  0  0  0  0  0  0
   -0.1240   19.7020  -27.8910 N   0  0  0  0  0  0  0  0  0  0  0  0
    0.8750   20.7670  -27.8330 C   0  0  0  0  0  0  0  0  0  0  0  0
    0.2500   18.3950  -28.3570 C   0  0  0  0  0  0  0  0  0  0  0  0
    0.2600   18.1070  -29.7330 C   0  0  0  0  0  0  0  0  0  0  0  0
    0.6510   16.8410  -30.1820 C   0  0  0  0  0  0  0  0  0  0  0  0
    1.0180   15.8510  -29.2640 C   0  0  0  0  0  0  0  0  0  0  0  0
    0.9910   16.1260  -27.8940 C   0  0  0  0  0  0  0  0  0  0  0  0
    0.6080   17.3930  -27.4410 C   0  0  0  0  0  0  0  0  0  0  0  0
   -3.4870   22.0440  -27.6420 C   0  0  0  0  0  0  0  0  0  0  0  0
   -4.1210   23.0340  -28.3950 C   0  0  0  0  0  0  0  0  0  0  0  0
   -5.9600   21.8740  -31.9060 C   0  0  0  0  0  0  0  0  0  0  0  0
   -2.5660   21.1410  -33.4370 C   0  0  0  0  0  0  0  0  0  0  0  0
   -1.2220   21.2580  -33.0750 C   0  0  0  0  0  0  0  0  0  0  0  0
    2.2411   18.9563  -31.5752 H   0  0  0  0  0  0  0  0  0  0  0  0
    1.4567   18.4666  -33.1152 H   0  0  0  0  0  0  0  0  0  0  0  0
    2.7102   19.7532  -33.1152 H   0  0  0  0  0  0  0  0  0  0  0  0
   -0.5594   17.9833  -32.3473 H   0  0  0  0  0  0  0  0  0  0  0  0
   -2.9551   17.7757  -32.9965 H   0  0  0  0  0  0  0  0  0  0  0  0
   -8.6775   19.8823  -32.4645 H   0  0  0  0  0  0  0  0  0  0  0  0
   -9.8387   21.9054  -31.5811 H   0  0  0  0  0  0  0  0  0  0  0  0
   -8.5194   23.9044  -30.8903 H   0  0  0  0  0  0  0  0  0  0  0  0
   -2.7423   22.3532  -31.4495 H   0  0  0  0  0  0  0  0  0  0  0  0
   -1.5849   20.6146  -30.0913 H   0  0  0  0  0  0  0  0  0  0  0  0
    1.0975   21.0042  -26.7822 H   0  0  0  0  0  0  0  0  0  0  0  0
    1.7948   20.4348  -28.3366 H   0  0  0  0  0  0  0  0  0  0  0  0
    0.4847   21.6637  -28.3366 H   0  0  0  0  0  0  0  0  0  0  0  0
   -0.0401   18.8782  -30.4577 H   0  0  0  0  0  0  0  0  0  0  0  0
    0.6699   16.6233  -31.2601 H   0  0  0  0  0  0  0  0  0  0  0  0
    1.3274   14.8573  -29.6201 H   0  0  0  0  0  0  0  0  0  0  0  0
    1.2711   15.3455  -27.1712 H   0  0  0  0  0  0  0  0  0  0  0  0
    0.5872   17.6052  -26.3619 H   0  0  0  0  0  0  0  0  0  0  0  0
   -3.7174   21.9405  -26.5714 H   0  0  0  0  0  0  0  0  0  0  0  0
   -4.8461   23.7062  -27.9129 H   0  0  0  0  0  0  0  0  0  0  0  0
   -4.8675   21.8791  -32.0341 H   0  0  0  0  0  0  0  0  0  0  0  0
   -3.1354   22.0366  -33.7264 H   0  0  0  0  0  0  0  0  0  0  0  0
   -0.7368   22.2451  -33.0927 H   0  0  0  0  0  0  0  0  0  0  0  0
  1  2  1  0
  2  3  1  0
  3  4  2  0
  4  5  1  0
  5  6  2  0
  6  7  1  0
  7  8  1  0
  8  9  2  0
  8 10  2  0
  8 11  1  0
 11 12  2  0
 12 13  1  0
 13 14  2  0
 14 15  1  0
 15 16  1  0
 16 17  1  0
 17 18  2  0
 17 19  1  0
 19 20  2  0
 20 21  1  0
 21 22  2  0
 22 23  1  0
 23 24  2  0
 23 25  2  0
 23 26  1  0
 26 27  1  0
 26 28  1  0
 28 29  2  0
 29 30  1  0
 30 31  2  0
 31 32  1  0
 32 33  2  0
 22 34  1  0
 34 35  2  0
 15 36  2  0
  6 37  1  0
 37 38  2  0
 38  3  1  0
 36 11  1  0
 35 19  1  0
 33 28  1  0
  1 39  1  0
  1 40  1  0
  1 41  1  0
  4 42  1  0
  5 43  1  0
 12 44  1  0
 13 45  1  0
 14 46  1  0
 20 47  1  0
 21 48  1  0
 27 49  1  0
 27 50  1  0
 27 51  1  0
 29 52  1  0
 30 53  1  0
 31 54  1  0
 32 55  1  0
 33 56  1  0
 34 57  1  0
 35 58  1  0
 36 59  1  0
 37 60  1  0
 38 61  1  0
M  CHG  2   7  -1  16  -1
M  END
>  <UniqueID>  (7) 
7

>  <SMILES>  (7) 
COc1ccc([N-]S(=O)(=O)c2cccc([N-]C(=O)c3ccc(S(=O)(=O)N(C)c4ccccc4)cc3)c2)cc1

>  <Energy>  (7) 
76.59896361823165

>  <Genealogy>  (7) 
COc1ccc([N-]S(=O)(=O)c2cccc([N-]C(=O)c3ccc(S(=O)(=O)N(C)c4ccccc4)cc3)c2)cc1 (protonated)
COc1ccc([N-]S(=O)(=O)c2cccc([N-]C(=O)c3ccc(S(=O)(=O)N(C)c4ccccc4)cc3)c2)cc1 (3D coordinates assigned)
COc1ccc([N-]S(=O)(=O)c2cccc([N-]C(=O)c3ccc(S(=O)(=O)N(C)c4ccccc4)cc3)c2)cc1 (optimized conformer: 76.59896361823165 kcal/mol)

>  <smiles>  (7) 
COc1ccc(NS(=O)(=O)c2cccc(NC(=O)c3ccc(S(=O)(=O)N(C)c4ccccc4)cc3)c2)cc1

>  <score_type>  (7) 
oracle

>  <origin>  (7) 
adgpu

>  <m_score__min__energy>  (7) 
-12.17

>  <m_primary>  (7) 
energy

$$$$
7:0
     RDKit          3D

 49 52  0  0  0  0  0  0  0  0999 V2000
   -8.6320   20.7340  -31.4650 C   0  0  0  0  0  0  0  0  0  0  0  0
   -7.2720   21.2950  -31.5370 N   0  0  0  0  0  0  0  0  0  0  0  0
   -7.0440   22.5050  -30.9400 C   0  0  0  0  0  0  0  0  0  0  0  0
   -5.7800   23.1010  -30.9610 C   0  0  0  0  0  0  0  0  0  0  0  0
   -5.5330   24.6740  -30.1970 S   0  0  0  0  0  0  0  0  0  0  0  0
   -6.8090   25.1130  -29.5330 O   0  0  0  0  0  0  0  0  0  0  0  0
   -5.1590   25.7080  -31.2210 O   0  0  0  0  0  0  0  0  0  0  0  0
   -4.2380   24.5390  -29.0140 C   0  0  0  0  0  0  0  0  0  0  0  0
   -4.5430   24.5440  -27.6450 C   0  0  0  0  0  0  0  0  0  0  0  0
   -3.5180   24.4560  -26.6970 C   0  0  0  0  0  0  0  0  0  0  0  0
   -2.1870   24.3680  -27.1120 C   0  0  0  0  0  0  0  0  0  0  0  0
   -1.8770   24.3680  -28.4750 C   0  0  0  0  0  0  0  0  0  0  0  0
   -0.5840   24.2870  -28.8770 F   0  0  0  0  0  0  0  0  0  0  0  0
   -2.8990   24.4560  -29.4250 C   0  0  0  0  0  0  0  0  0  0  0  0
   -4.7300   22.4520  -31.6200 C   0  0  0  0  0  0  0  0  0  0  0  0
   -3.5880   22.9890  -31.6590 O   0  0  0  0  0  0  0  0  0  0  0  0
   -4.9540   21.2090  -32.2350 C   0  0  0  0  0  0  0  0  0  0  0  0
   -3.9120   20.5340  -32.8990 C   0  0  0  0  0  0  0  0  0  0  0  0
   -4.1380   19.3020  -33.5100 C   0  0  0  0  0  0  0  0  0  0  0  0
   -3.1030   18.6660  -34.1140 F   0  0  0  0  0  0  0  0  0  0  0  0
   -5.4090   18.7170  -33.4720 C   0  0  0  0  0  0  0  0  0  0  0  0
   -5.6540   17.4520  -34.1100 N   0  0  0  0  0  0  0  0  0  0  0  0
   -6.8740   16.6970  -33.7850 C   0  0  0  0  0  0  0  0  0  0  0  0
   -6.7580   15.2280  -34.2170 C   0  0  0  0  0  0  0  0  0  0  0  0
   -5.3830   14.6690  -33.8370 C   0  0  0  0  0  0  0  0  0  0  0  0
   -4.2170   15.4720  -34.4580 C   0  0  0  0  0  0  0  0  0  0  0  0
   -4.6370   16.8540  -34.9840 C   0  0  0  0  0  0  0  0  0  0  0  0
   -6.4550   19.3800  -32.8120 C   0  0  0  0  0  0  0  0  0  0  0  0
   -6.2500   20.6310  -32.1850 C   0  0  0  0  0  0  0  0  0  0  0  0
   -8.9237   20.6137  -30.4112 H   0  0  0  0  0  0  0  0  0  0  0  0
   -9.3365   21.4150  -31.9650 H   0  0  0  0  0  0  0  0  0  0  0  0
   -8.6515   19.7544  -31.9650 H   0  0  0  0  0  0  0  0  0  0  0  0
   -7.8733   23.0196  -30.4327 H   0  0  0  0  0  0  0  0  0  0  0  0
   -5.5901   24.6173  -27.3161 H   0  0  0  0  0  0  0  0  0  0  0  0
   -3.7603   24.4561  -25.6240 H   0  0  0  0  0  0  0  0  0  0  0  0
   -1.3821   24.2986  -26.3654 H   0  0  0  0  0  0  0  0  0  0  0  0
   -2.6528   24.4602  -30.4971 H   0  0  0  0  0  0  0  0  0  0  0  0
   -2.9089   20.9838  -32.9359 H   0  0  0  0  0  0  0  0  0  0  0  0
   -7.0411   16.7380  -32.6985 H   0  0  0  0  0  0  0  0  0  0  0  0
   -7.7161   17.1511  -34.3279 H   0  0  0  0  0  0  0  0  0  0  0  0
   -7.5403   14.6394  -33.7154 H   0  0  0  0  0  0  0  0  0  0  0  0
   -6.8806   15.1652  -35.3083 H   0  0  0  0  0  0  0  0  0  0  0  0
   -5.2835   14.6950  -32.7418 H   0  0  0  0  0  0  0  0  0  0  0  0
   -5.3233   13.6426  -34.2281 H   0  0  0  0  0  0  0  0  0  0  0  0
   -3.4426   15.6124  -33.6895 H   0  0  0  0  0  0  0  0  0  0  0  0
   -3.8494   14.8955  -35.3197 H   0  0  0  0  0  0  0  0  0  0  0  0
   -3.7559   17.5117  -35.0162 H   0  0  0  0  0  0  0  0  0  0  0  0
   -5.0606   16.7361  -35.9923 H   0  0  0  0  0  0  0  0  0  0  0  0
   -7.4529   18.9181  -32.7818 H   0  0  0  0  0  0  0  0  0  0  0  0
  1  2  1  0
  2  3  1  0
  3  4  2  0
  4  5  1  0
  5  6  2  0
  5  7  2  0
  5  8  1  0
  8  9  2  0
  9 10  1  0
 10 11  2  0
 11 12  1  0
 12 13  1  0
 12 14  2  0
  4 15  1  0
 15 16  2  0
 15 17  1  0
 17 18  2  0
 18 19  1  0
 19 20  1  0
 19 21  2  0
 21 22  1  0
 22 23  1  0
 23 24  1  0
 24 25  1  0
 25 26  1  0
 26 27  1  0
 21 28  1  0
 28 29  2  0
 29  2  1  0
 14  8  1  0
 29 17  1  0
 27 22  1  0
  1 30  1  0
  1 31  1  0
  1 32  1  0
  3 33  1  0
  9 34  1  0
 10 35  1  0
 11 36  1  0
 14 37  1  0
 18 38  1  0
 23 39  1  0
 23 40  1  0
 24 41  1  0
 24 42  1  0
 25 43  1  0
 25 44  1  0
 26 45  1  0
 26 46  1  0
 27 47  1  0
 27 48  1  0
 28 49  1  0
M  END
>  <UniqueID>  (8) 
8

>  <SMILES>  (8) 
Cn1cc(S(=O)(=O)c2cccc(F)c2)c(=O)c2cc(F)c(N3CCCCC3)cc21

>  <Energy>  (8) 
69.8400710236978

>  <Genealogy>  (8) 
Cn1cc(S(=O)(=O)c2cccc(F)c2)c(=O)c2cc(F)c(N3CCCCC3)cc21 (3D coordinates assigned)
Cn1cc(S(=O)(=O)c2cccc(F)c2)c(=O)c2cc(F)c(N3CCCCC3)cc21 (nonaromatic ring conformer: 69.8400710236978 kcal/mol)

>  <smiles>  (8) 
Cn1cc(S(=O)(=O)c2cccc(F)c2)c(=O)c2cc(F)c(N3CCCCC3)cc21

>  <score_type>  (8) 
oracle

>  <origin>  (8) 
adgpu

>  <m_score__min__energy>  (8) 
-9.4199999999999999

>  <m_primary>  (8) 
energy

$$$$
8:0
     RDKit          3D

 46 48  0  0  0  0  0  0  0  0999 V2000
   -3.7704   13.8166  -34.3116 H   0  0  0  0  0  0  0  0  0  0  0  0
   -4.3410   14.7560  -34.3560 C   0  0  0  0  0  0  0  0  0  0  0  0
   -5.6610   14.7960  -33.8960 C   0  0  0  0  0  0  0  0  0  0  0  0
   -6.1303   13.8856  -33.4948 H   0  0  0  0  0  0  0  0  0  0  0  0
   -6.3850   15.9900  -33.9450 C   0  0  0  0  0  0  0  0  0  0  0  0
   -7.4262   16.0147  -33.5911 H   0  0  0  0  0  0  0  0  0  0  0  0
   -5.7860   17.1620  -34.4460 C   0  0  0  0  0  0  0  0  0  0  0  0
   -6.4830   18.3760  -34.5270 O   0  0  0  0  0  0  0  0  0  0  0  0
   -6.5080   19.3610  -33.5280 C   0  0  0  0  0  0  0  0  0  0  0  0
   -5.4530   20.2770  -33.4570 C   0  0  0  0  0  0  0  0  0  0  0  0
   -4.6210   20.2101  -34.1734 H   0  0  0  0  0  0  0  0  0  0  0  0
   -5.4510   21.2770  -32.4800 C   0  0  0  0  0  0  0  0  0  0  0  0
   -4.6146   21.9896  -32.4279 H   0  0  0  0  0  0  0  0  0  0  0  0
   -6.5090   21.3760  -31.5670 C   0  0  0  0  0  0  0  0  0  0  0  0
   -6.4960   22.4100  -30.5730 N   0  0  0  0  0  0  0  0  0  0  0  0
   -7.2590   22.4240  -29.8600 H   0  0  0  0  0  0  0  0  0  0  0  0
   -5.5150   23.4550  -30.5280 C   0  0  0  0  0  0  0  0  0  0  0  0
   -5.6900   24.9640  -31.2070 S   0  0  0  0  0  0  0  0  0  0  0  0
   -4.2550   25.6640  -30.7440 N   0  0  0  0  0  0  0  0  0  0  0  0
   -3.6180   24.7100  -30.0160 C   0  0  0  0  0  0  0  0  0  0  0  0
   -2.4810   24.9250  -29.5210 O   0  0  0  0  0  0  0  0  0  0  0  0
   -4.3020   23.4830  -29.8360 C   0  0  0  0  0  0  0  0  0  0  0  0
   -3.7340   22.3530  -29.0720 C   0  0  0  0  0  0  0  0  0  0  0  0
   -4.2420   22.1260  -27.7520 N   0  0  0  0  0  0  0  0  0  0  0  0
   -5.0040   22.7260  -27.3660 H   0  0  0  0  0  0  0  0  0  0  0  0
   -3.8690   21.3560  -27.1550 H   0  0  0  0  0  0  0  0  0  0  0  0
   -2.8490   21.5210  -29.5650 N   0  0  0  0  0  0  0  0  0  0  0  0
   -2.5130   20.7560  -28.9350 H   0  0  0  0  0  0  0  0  0  0  0  0
   -2.3080   21.4650  -30.9380 C   0  0  0  0  0  0  0  0  0  0  0  0
   -2.8814   22.2034  -31.5176 H   0  0  0  0  0  0  0  0  0  0  0  0
   -2.5460   20.1130  -31.6150 C   0  0  0  0  0  0  0  0  0  0  0  0
   -2.6825   19.3374  -30.8470 H   0  0  0  0  0  0  0  0  0  0  0  0
   -3.4478   20.1707  -32.2422 H   0  0  0  0  0  0  0  0  0  0  0  0
   -1.6787   19.8593  -32.2422 H   0  0  0  0  0  0  0  0  0  0  0  0
   -0.8390   21.9010  -31.0100 C   0  0  0  0  0  0  0  0  0  0  0  0
   -0.4412   22.0191  -29.9913 H   0  0  0  0  0  0  0  0  0  0  0  0
   -0.2557   21.1373  -31.5452 H   0  0  0  0  0  0  0  0  0  0  0  0
   -0.7668   22.8593  -31.5452 H   0  0  0  0  0  0  0  0  0  0  0  0
   -7.5340   20.4200  -31.5960 C   0  0  0  0  0  0  0  0  0  0  0  0
   -8.3376   20.4557  -30.8457 H   0  0  0  0  0  0  0  0  0  0  0  0
   -7.5390   19.4220  -32.5740 C   0  0  0  0  0  0  0  0  0  0  0  0
   -8.3522   18.6817  -32.5976 H   0  0  0  0  0  0  0  0  0  0  0  0
   -4.4700   17.1070  -34.9230 C   0  0  0  0  0  0  0  0  0  0  0  0
   -4.0018   18.0106  -35.3403 H   0  0  0  0  0  0  0  0  0  0  0  0
   -3.7480   15.9110  -34.8720 C   0  0  0  0  0  0  0  0  0  0  0  0
   -2.7114   15.8792  -35.2387 H   0  0  0  0  0  0  0  0  0  0  0  0
  1  2  1  0
  2  3  2  0
  3  4  1  0
  3  5  1  0
  5  6  1  0
  5  7  2  0
  7  8  1  0
  8  9  1  0
  9 10  2  0
 10 11  1  0
 10 12  1  0
 12 13  1  0
 12 14  2  0
 14 15  1  0
 15 16  1  0
 15 17  1  0
 17 18  1  0
 18 19  1  0
 19 20  1  0
 20 21  2  0
 20 22  1  0
 22 23  1  0
 23 24  1  0
 24 25  1  0
 24 26  1  0
 23 27  2  0
 27 28  1  0
 27 29  1  0
 29 30  1  0
 29 31  1  0
 31 32  1  0
 31 33  1  0
 31 34  1  0
 29 35  1  0
 35 36  1  0
 35 37  1  0
 35 38  1  0
 14 39  1  0
 39 40  1  0
 39 41  2  0
 41 42  1  0
  7 43  1  0
 43 44  1  0
 43 45  2  0
 45 46  1  0
 45  2  1  0
 41  9  1  0
 22 17  2  0
M  CHG  2  19  -1  27   1
M  END
>  <UniqueID>  (9) 
9

>  <SMILES>  (9) 
CC(C)/[NH+]=C(/N)c1c(Nc2ccc(Oc3ccccc3)cc2)s[n-]c1=O

>  <Energy>  (9) 
99.07498792195841

>  <Genealogy>  (9) 
CC(C)[NH+]=C(N)c1c(Nc2ccc(Oc3ccccc3)cc2)s[n-]c1=O (protonated)
CC(C)/[NH+]=C(/N)c1c(Nc2ccc(Oc3ccccc3)cc2)s[n-]c1=O (cis-trans isomerization)
CC(C)/[NH+]=C(/N)c1c(Nc2ccc(Oc3ccccc3)cc2)s[n-]c1=O (3D coordinates assigned)
CC(C)/[NH+]=C(/N)c1c(Nc2ccc(Oc3ccccc3)cc2)s[n-]c1=O (optimized conformer: 99.07498792195841 kcal/mol)

>  <smiles>  (9) 
CC(C)N=C(N)c1c(Nc2ccc(Oc3ccccc3)cc2)s[nH]c1=O

>  <score_type>  (9) 
oracle

>  <origin>  (9) 
adgpu

>  <m_score__min__energy>  (9) 
-9.1199999999999992

>  <m_primary>  (9) 
energy

$$$$
9:0
     RDKit          3D

 36 38  0  0  0  0  0  0  0  0999 V2000
   -2.2180   24.2910  -28.9270 C   0  0  0  0  0  0  0  0  0  0  0  0
   -3.0840   24.9350  -29.8560 O   0  0  0  0  0  0  0  0  0  0  0  0
   -4.2440   24.3550  -30.3890 C   0  0  0  0  0  0  0  0  0  0  0  0
   -5.4480   25.0710  -30.5340 C   0  0  0  0  0  0  0  0  0  0  0  0
   -6.5790   24.4520  -31.0720 C   0  0  0  0  0  0  0  0  0  0  0  0
   -6.5270   23.1040  -31.4730 C   0  0  0  0  0  0  0  0  0  0  0  0
   -7.6370   22.4430  -32.0260 C   0  0  0  0  0  0  0  0  0  0  0  0
   -8.7250   23.0650  -32.1710 O   0  0  0  0  0  0  0  0  0  0  0  0
   -7.5170   21.0890  -32.4160 C   0  0  0  0  0  0  0  0  0  0  0  0
   -8.5590   20.3560  -33.0190 O   0  0  0  0  0  0  0  0  0  0  0  0
   -9.3810   19.3810  -32.3860 C   0  0  0  0  0  0  0  0  0  0  0  0
   -6.2770   20.4460  -32.2110 C   0  0  0  0  0  0  0  0  0  0  0  0
   -6.0710   19.0230  -32.5690 C   0  0  0  0  0  0  0  0  0  0  0  0
   -5.7310   18.0820  -31.5790 C   0  0  0  0  0  0  0  0  0  0  0  0
   -5.5090   16.7460  -31.9190 C   0  0  0  0  0  0  0  0  0  0  0  0
   -5.6130   16.3360  -33.2490 C   0  0  0  0  0  0  0  0  0  0  0  0
   -5.9340   17.2620  -34.2440 C   0  0  0  0  0  0  0  0  0  0  0  0
   -6.1620   18.6060  -33.9110 C   0  0  0  0  0  0  0  0  0  0  0  0
   -6.4870   19.5230  -34.9110 O   0  0  0  0  0  0  0  0  0  0  0  0
   -5.2510   21.1160  -31.6940 O   0  0  0  0  0  0  0  0  0  0  0  0
   -5.3230   22.3880  -31.3270 C   0  0  0  0  0  0  0  0  0  0  0  0
   -4.1940   23.0150  -30.7890 C   0  0  0  0  0  0  0  0  0  0  0  0
   -2.5379   24.5289  -27.9018 H   0  0  0  0  0  0  0  0  0  0  0  0
   -2.2595   23.2026  -29.0808 H   0  0  0  0  0  0  0  0  0  0  0  0
   -1.1876   24.6440  -29.0808 H   0  0  0  0  0  0  0  0  0  0  0  0
   -5.4982   26.1245  -30.2216 H   0  0  0  0  0  0  0  0  0  0  0  0
   -7.5141   25.0206  -31.1826 H   0  0  0  0  0  0  0  0  0  0  0  0
   -9.2955   19.4824  -31.2940 H   0  0  0  0  0  0  0  0  0  0  0  0
  -10.4280   19.5325  -32.6875 H   0  0  0  0  0  0  0  0  0  0  0  0
   -9.0546   18.3747  -32.6875 H   0  0  0  0  0  0  0  0  0  0  0  0
   -5.6396   18.4012  -30.5303 H   0  0  0  0  0  0  0  0  0  0  0  0
   -5.2518   16.0158  -31.1376 H   0  0  0  0  0  0  0  0  0  0  0  0
   -5.4419   15.2822  -33.5139 H   0  0  0  0  0  0  0  0  0  0  0  0
   -6.0083   16.9367  -35.2922 H   0  0  0  0  0  0  0  0  0  0  0  0
   -7.3460   20.0600  -34.8810 H   0  0  0  0  0  0  0  0  0  0  0  0
   -3.2573   22.4488  -30.6793 H   0  0  0  0  0  0  0  0  0  0  0  0
  1  2  1  0
  2  3  1  0
  3  4  2  0
  4  5  1  0
  5  6  2  0
  6  7  1  0
  7  8  2  0
  7  9  1  0
  9 10  1  0
 10 11  1  0
  9 12  2  0
 12 13  1  0
 13 14  2  0
 14 15  1  0
 15 16  2  0
 16 17  1  0
 17 18  2  0
 18 19  1  0
 12 20  1  0
 20 21  1  0
 21 22  2  0
 22  3  1  0
 21  6  1  0
 18 13  1  0
  1 23  1  0
  1 24  1  0
  1 25  1  0
  4 26  1  0
  5 27  1  0
 11 28  1  0
 11 29  1  0
 11 30  1  0
 14 31  1  0
 15 32  1  0
 16 33  1  0
 17 34  1  0
 19 35  1  0
 22 36  1  0
M  END
>  <UniqueID>  (10) 
10

>  <SMILES>  (10) 
COc1ccc2c(=O)c(OC)c(-c3ccccc3O)oc2c1

>  <Energy>  (10) 
51.2305874429796

>  <Genealogy>  (10) 
COc1ccc2c(=O)c(OC)c(-c3ccccc3O)oc2c1 (3D coordinates assigned)
COc1ccc2c(=O)c(OC)c(-c3ccccc3O)oc2c1 (optimized conformer: 51.2305874429796 kcal/mol)

>  <smiles>  (10) 
COc1ccc2c(=O)c(OC)c(-c3ccccc3O)oc2c1

>  <score_type>  (10) 
oracle

>  <origin>  (10) 
adgpu

>  <m_score__min__energy>  (10) 
-7.5

>  <m_primary>  (10) 
energy

$$$$
10:0
     RDKit          3D

 47 50  0  0  0  0  0  0  0  0999 V2000
   -1.2470   18.7170  -32.3730 C   0  0  0  0  0  0  0  0  0  0  0  0
   -1.9600   19.9930  -32.0370 C   0  0  0  0  0  0  0  0  0  0  0  0
   -2.7080   20.6730  -33.0110 C   0  0  0  0  0  0  0  0  0  0  0  0
   -3.3910   21.8480  -32.6810 C   0  0  0  0  0  0  0  0  0  0  0  0
   -3.3320   22.3620  -31.3760 C   0  0  0  0  0  0  0  0  0  0  0  0
   -4.0730   23.5950  -31.0380 C   0  0  0  0  0  0  0  0  0  0  0  0
   -3.4660   24.7110  -30.5880 N   0  0  0  0  0  0  0  0  0  0  0  0
   -4.3740   25.6670  -30.4660 N   0  0  0  0  0  0  0  0  0  0  0  0
   -5.5700   25.1770  -30.8380 C   0  0  0  0  0  0  0  0  0  0  0  0
   -5.4270   23.8540  -31.1990 C   0  0  0  0  0  0  0  0  0  0  0  0
   -6.5270   22.9450  -31.5750 C   0  0  0  0  0  0  0  0  0  0  0  0
   -7.8610   23.3680  -31.5660 C   0  0  0  0  0  0  0  0  0  0  0  0
   -8.8500   22.4630  -31.9500 C   0  0  0  0  0  0  0  0  0  0  0  0
   -8.5070   21.2090  -32.3360 N   0  0  0  0  0  0  0  0  0  0  0  0
   -7.2050   20.8090  -32.3650 C   0  0  0  0  0  0  0  0  0  0  0  0
   -6.8660   19.4710  -32.7870 N   0  0  0  0  0  0  0  0  0  0  0  0
   -7.4390   18.3040  -32.0960 C   0  0  0  0  0  0  0  0  0  0  0  0
   -6.4740   17.0940  -32.0680 C   0  0  0  0  0  0  0  0  0  0  0  0
   -5.3660   17.1870  -33.0500 N   0  0  0  0  0  0  0  0  0  0  0  0
   -4.8070   15.8510  -33.3190 C   0  0  0  0  0  0  0  0  0  0  0  0
   -5.8130   17.8170  -34.3040 C   0  0  0  0  0  0  0  0  0  0  0  0
   -6.1390   19.2910  -34.0520 C   0  0  0  0  0  0  0  0  0  0  0  0
   -6.2320   21.6830  -31.9890 N   0  0  0  0  0  0  0  0  0  0  0  0
   -2.6130   21.6580  -30.3940 C   0  0  0  0  0  0  0  0  0  0  0  0
   -1.9300   20.4840  -30.7250 C   0  0  0  0  0  0  0  0  0  0  0  0
   -0.9594   18.2022  -31.4444 H   0  0  0  0  0  0  0  0  0  0  0  0
   -1.9134   18.0684  -32.9605 H   0  0  0  0  0  0  0  0  0  0  0  0
   -0.3453   18.9446  -32.9605 H   0  0  0  0  0  0  0  0  0  0  0  0
   -2.7571   20.2803  -34.0374 H   0  0  0  0  0  0  0  0  0  0  0  0
   -3.9782   22.3728  -33.4490 H   0  0  0  0  0  0  0  0  0  0  0  0
   -6.5134   25.7425  -30.8520 H   0  0  0  0  0  0  0  0  0  0  0  0
   -8.1237   24.3922  -31.2626 H   0  0  0  0  0  0  0  0  0  0  0  0
   -9.9074   22.7660  -31.9398 H   0  0  0  0  0  0  0  0  0  0  0  0
   -7.6759   18.5894  -31.0604 H   0  0  0  0  0  0  0  0  0  0  0  0
   -8.3392   17.9987  -32.6495 H   0  0  0  0  0  0  0  0  0  0  0  0
   -6.0388   17.0211  -31.0604 H   0  0  0  0  0  0  0  0  0  0  0  0
   -7.0659   16.2067  -32.3370 H   0  0  0  0  0  0  0  0  0  0  0  0
   -4.5990   17.7680  -32.6330 H   0  0  0  0  0  0  0  0  0  0  0  0
   -4.5947   15.3437  -32.3663 H   0  0  0  0  0  0  0  0  0  0  0  0
   -5.5329   15.2591  -33.8958 H   0  0  0  0  0  0  0  0  0  0  0  0
   -3.8759   15.9525  -33.8958 H   0  0  0  0  0  0  0  0  0  0  0  0
   -5.0137   17.7425  -35.0560 H   0  0  0  0  0  0  0  0  0  0  0  0
   -6.7133   17.3018  -34.6702 H   0  0  0  0  0  0  0  0  0  0  0  0
   -5.2004   19.8630  -34.0098 H   0  0  0  0  0  0  0  0  0  0  0  0
   -6.7780   19.6494  -34.8725 H   0  0  0  0  0  0  0  0  0  0  0  0
   -2.5878   22.0329  -29.3601 H   0  0  0  0  0  0  0  0  0  0  0  0
   -1.3659   19.9427  -29.9512 H   0  0  0  0  0  0  0  0  0  0  0  0
  1  2  1  0
  2  3  2  0
  3  4  1  0
  4  5  2  0
  5  6  1  0
  6  7  2  0
  7  8  1  0
  8  9  1  0
  9 10  2  0
 10 11  1  0
 11 12  2  0
 12 13  1  0
 13 14  2  0
 14 15  1  0
 15 16  1  0
 16 17  1  0
 17 18  1  0
 18 19  1  0
 19 20  1  0
 19 21  1  0
 21 22  1  0
 15 23  2  0
  5 24  1  0
 24 25  2  0
 25  2  1  0
 10  6  1  0
 23 11  1  0
 22 16  1  0
  1 26  1  0
  1 27  1  0
  1 28  1  0
  3 29  1  0
  4 30  1  0
  9 31  1  0
 12 32  1  0
 13 33  1  0
 17 34  1  0
 17 35  1  0
 18 36  1  0
 18 37  1  0
 19 38  1  0
 20 39  1  0
 20 40  1  0
 20 41  1  0
 21 42  1  0
 21 43  1  0
 22 44  1  0
 22 45  1  0
 24 46  1  0
 25 47  1  0
M  CHG  2   8  -1  19   1
M  END
>  <UniqueID>  (11) 
11

>  <SMILES>  (11) 
Cc1ccc(-c2n[n-]cc2-c2ccnc(N3CC[NH+](C)CC3)n2)cc1

>  <Energy>  (11) 
93.09316302392031

>  <Genealogy>  (11) 
Cc1ccc(-c2n[n-]cc2-c2ccnc(N3CC[NH+](C)CC3)n2)cc1 (protonated)
Cc1ccc(-c2n[n-]cc2-c2ccnc(N3CC[NH+](C)CC3)n2)cc1 (3D coordinates assigned)
Cc1ccc(-c2n[n-]cc2-c2ccnc(N3CC[NH+](C)CC3)n2)cc1 (nonaromatic ring conformer: 93.09316302392031 kcal/mol)

>  <smiles>  (11) 
Cc1ccc(-c2n[nH]cc2-c2ccnc(N3CCN(C)CC3)n2)cc1

>  <score_type>  (11) 
oracle

>  <origin>  (11) 
adgpu

>  <m_score__min__energy>  (11) 
-9.9100000000000001

>  <m_primary>  (11) 
energy

$$$$
11:0
     RDKit          3D

 48 50  0  0  0  0  0  0  0  0999 V2000
   -5.5590   20.5290  -33.0980 C   0  0  0  0  0  0  0  0  0  0  0  0
   -6.8810   21.0120  -32.5660 C   0  0  0  0  0  0  0  0  0  0  0  0
   -7.9650   20.1230  -32.4720 C   0  0  0  0  0  0  0  0  0  0  0  0
   -9.1980   20.5620  -31.9860 C   0  0  0  0  0  0  0  0  0  0  0  0
   -9.3610   21.8880  -31.5880 C   0  0  0  0  0  0  0  0  0  0  0  0
   -8.2920   22.7830  -31.6750 C   0  0  0  0  0  0  0  0  0  0  0  0
   -7.0440   22.3560  -32.1670 C   0  0  0  0  0  0  0  0  0  0  0  0
   -5.9300   23.2580  -32.2710 N   0  0  0  0  0  0  0  0  0  0  0  0
   -5.0080   23.8700  -30.9380 S   0  0  0  0  0  0  0  0  0  0  0  0
   -4.6360   25.3020  -31.2080 O   0  0  0  0  0  0  0  0  0  0  0  0
   -5.8440   23.8120  -29.6910 O   0  0  0  0  0  0  0  0  0  0  0  0
   -3.5740   22.8760  -30.7080 C   0  0  0  0  0  0  0  0  0  0  0  0
   -3.0690   22.1280  -31.7800 C   0  0  0  0  0  0  0  0  0  0  0  0
   -1.9300   21.3370  -31.6100 C   0  0  0  0  0  0  0  0  0  0  0  0
   -1.2870   21.2930  -30.3710 C   0  0  0  0  0  0  0  0  0  0  0  0
   -1.7790   22.0430  -29.2970 C   0  0  0  0  0  0  0  0  0  0  0  0
   -0.9150   22.0130  -27.7400 S   0  0  0  0  0  0  0  0  0  0  0  0
   -1.7780   20.7780  -26.7540 C   0  0  0  0  0  0  0  0  0  0  0  0
   -1.2680   23.3900  -27.0510 N   0  0  0  0  0  0  0  0  0  0  0  0
   -0.7190   24.8930  -27.6800 S   0  0  0  0  0  0  0  0  0  0  0  0
   -1.6120   25.3110  -28.8140 O   0  0  0  0  0  0  0  0  0  0  0  0
    0.6790   24.7190  -28.2050 O   0  0  0  0  0  0  0  0  0  0  0  0
   -0.7310   26.1590  -26.4510 C   0  0  0  0  0  0  0  0  0  0  0  0
   -0.4890   27.4960  -26.8010 C   0  0  0  0  0  0  0  0  0  0  0  0
   -0.4760   28.4890  -25.8190 C   0  0  0  0  0  0  0  0  0  0  0  0
   -0.7030   28.1530  -24.4810 C   0  0  0  0  0  0  0  0  0  0  0  0
   -0.9430   26.8230  -24.1250 C   0  0  0  0  0  0  0  0  0  0  0  0
   -0.9560   25.8270  -25.1080 C   0  0  0  0  0  0  0  0  0  0  0  0
   -2.9270   22.8300  -29.4650 C   0  0  0  0  0  0  0  0  0  0  0  0
   -4.8924   20.2855  -32.2575 H   0  0  0  0  0  0  0  0  0  0  0  0
   -5.7173   19.6306  -33.7127 H   0  0  0  0  0  0  0  0  0  0  0  0
   -5.1008   21.3178  -33.7127 H   0  0  0  0  0  0  0  0  0  0  0  0
   -7.8415   19.0752  -32.7831 H   0  0  0  0  0  0  0  0  0  0  0  0
  -10.0423   19.8603  -31.9170 H   0  0  0  0  0  0  0  0  0  0  0  0
  -10.3335   22.2303  -31.2046 H   0  0  0  0  0  0  0  0  0  0  0  0
   -8.4261   23.8275  -31.3572 H   0  0  0  0  0  0  0  0  0  0  0  0
   -3.5708   22.1637  -32.7582 H   0  0  0  0  0  0  0  0  0  0  0  0
   -1.5392   20.7482  -32.4530 H   0  0  0  0  0  0  0  0  0  0  0  0
   -0.3919   20.6674  -30.2391 H   0  0  0  0  0  0  0  0  0  0  0  0
   -1.6284   20.9920  -25.6854 H   0  0  0  0  0  0  0  0  0  0  0  0
   -2.8526   20.8082  -26.9871 H   0  0  0  0  0  0  0  0  0  0  0  0
   -1.3802   19.7793  -26.9871 H   0  0  0  0  0  0  0  0  0  0  0  0
   -0.3088   27.7631  -27.8528 H   0  0  0  0  0  0  0  0  0  0  0  0
   -0.2871   29.5360  -26.0984 H   0  0  0  0  0  0  0  0  0  0  0  0
   -0.6927   28.9357  -23.7082 H   0  0  0  0  0  0  0  0  0  0  0  0
   -1.1217   26.5591  -23.0722 H   0  0  0  0  0  0  0  0  0  0  0  0
   -1.1434   24.7804  -24.8258 H   0  0  0  0  0  0  0  0  0  0  0  0
   -3.3211   23.4129  -28.6195 H   0  0  0  0  0  0  0  0  0  0  0  0
  1  2  1  0
  2  3  2  0
  3  4  1  0
  4  5  2  0
  5  6  1  0
  6  7  2  0
  7  8  1  0
  8  9  1  0
  9 10  2  0
  9 11  2  0
  9 12  1  0
 12 13  2  0
 13 14  1  0
 14 15  2  0
 15 16  1  0
 16 17  1  0
 17 18  1  1
 17 19  2  3
 19 20  1  0
 20 21  2  0
 20 22  2  0
 20 23  1  0
 23 24  2  0
 24 25  1  0
 25 26  2  0
 26 27  1  0
 27 28  2  0
 16 29  2  0
  7  2  1  0
 29 12  1  0
 28 23  1  0
  1 30  1  0
  1 31  1  0
  1 32  1  0
  3 33  1  0
  4 34  1  0
  5 35  1  0
  6 36  1  0
 13 37  1  0
 14 38  1  0
 15 39  1  0
 18 40  1  0
 18 41  1  0
 18 42  1  0
 24 43  1  0
 25 44  1  0
 26 45  1  0
 27 46  1  0
 28 47  1  0
 29 48  1  0
M  CHG  1   8  -1
M  END
>  <UniqueID>  (12) 
12

>  <SMILES>  (12) 
Cc1ccccc1[N-]S(=O)(=O)c1cccc([S@](C)=NS(=O)(=O)c2ccccc2)c1

>  <Energy>  (12) 
46.755528423153194

>  <Genealogy>  (12) 
Cc1ccccc1[N-]S(=O)(=O)c1cccc(S(C)=NS(=O)(=O)c2ccccc2)c1 (protonated)
Cc1ccccc1[N-]S(=O)(=O)c1cccc([S@](C)=NS(=O)(=O)c2ccccc2)c1 (chirality)
Cc1ccccc1[N-]S(=O)(=O)c1cccc([S@](C)=NS(=O)(=O)c2ccccc2)c1 (3D coordinates assigned)
Cc1ccccc1[N-]S(=O)(=O)c1cccc([S@](C)=NS(=O)(=O)c2ccccc2)c1 (optimized conformer: 46.755528423153194 kcal/mol)

>  <smiles>  (12) 
Cc1ccccc1NS(=O)(=O)c1cccc(S(C)=NS(=O)(=O)c2ccccc2)c1

>  <score_type>  (12) 
oracle

>  <origin>  (12) 
adgpu

>  <m_score__min__energy>  (12) 
-10.98

>  <m_primary>  (12) 
energy

$$$$
12:0
     RDKit          3D

 46 48  0  0  0  0  0  0  0  0999 V2000
   -6.4790   17.5880  -31.2210 C   0  0  0  0  0  0  0  0  0  0  0  0
   -5.9750   17.7910  -32.6440 C   0  0  0  0  0  0  0  0  0  0  0  0
   -6.6430   19.2860  -33.3560 S   0  0  0  0  0  0  0  0  0  0  0  0
   -6.4100   19.2870  -34.8420 O   0  0  0  0  0  0  0  0  0  0  0  0
   -8.1240   19.3370  -33.1060 O   0  0  0  0  0  0  0  0  0  0  0  0
   -5.8800   20.6940  -32.6250 C   0  0  0  0  0  0  0  0  0  0  0  0
   -4.5140   20.9310  -32.8230 C   0  0  0  0  0  0  0  0  0  0  0  0
   -3.9050   22.0580  -32.2600 C   0  0  0  0  0  0  0  0  0  0  0  0
   -4.6590   22.9710  -31.5130 C   0  0  0  0  0  0  0  0  0  0  0  0
   -3.9980   24.1030  -30.9310 N   0  0  0  0  0  0  0  0  0  0  0  0
   -2.8950   24.0520  -30.0180 C   0  0  0  0  0  0  0  0  0  0  0  0
   -2.0550   23.1200  -30.1300 O   0  0  0  0  0  0  0  0  0  0  0  0
   -2.6880   25.1020  -29.0590 N   0  0  0  0  0  0  0  0  0  0  0  0
   -1.8440   24.9740  -27.9010 C   0  0  0  0  0  0  0  0  0  0  0  0
   -1.2370   26.1180  -27.3630 C   0  0  0  0  0  0  0  0  0  0  0  0
   -0.4190   26.0210  -26.2340 C   0  0  0  0  0  0  0  0  0  0  0  0
   -0.2160   24.7830  -25.6200 C   0  0  0  0  0  0  0  0  0  0  0  0
   -0.8470   23.6350  -26.1210 C   0  0  0  0  0  0  0  0  0  0  0  0
   -0.6080   22.2960  -25.4780 C   0  0  0  0  0  0  0  0  0  0  0  0
   -0.8470   21.2310  -26.4460 N   0  0  0  0  0  0  0  0  0  0  0  0
   -1.7810   20.2700  -26.3740 C   0  0  0  0  0  0  0  0  0  0  0  0
   -1.5990   19.4250  -27.4460 C   0  0  0  0  0  0  0  0  0  0  0  0
   -0.5470   19.8440  -28.1800 N   0  0  0  0  0  0  0  0  0  0  0  0
   -0.1100   20.9470  -27.5360 C   0  0  0  0  0  0  0  0  0  0  0  0
   -1.6560   23.7340  -27.2640 C   0  0  0  0  0  0  0  0  0  0  0  0
   -6.0270   22.7210  -31.2980 C   0  0  0  0  0  0  0  0  0  0  0  0
   -6.6340   21.5950  -31.8600 C   0  0  0  0  0  0  0  0  0  0  0  0
   -5.7016   17.9011  -30.5085 H   0  0  0  0  0  0  0  0  0  0  0  0
   -7.3852   18.1912  -31.0634 H   0  0  0  0  0  0  0  0  0  0  0  0
   -6.7141   16.5250  -31.0634 H   0  0  0  0  0  0  0  0  0  0  0  0
   -4.8772   17.8593  -32.6299 H   0  0  0  0  0  0  0  0  0  0  0  0
   -6.3017   16.9369  -33.2553 H   0  0  0  0  0  0  0  0  0  0  0  0
   -3.9175   20.2284  -33.4235 H   0  0  0  0  0  0  0  0  0  0  0  0
   -2.8279   22.2276  -32.4051 H   0  0  0  0  0  0  0  0  0  0  0  0
   -3.1060   26.0370  -29.2630 H   0  0  0  0  0  0  0  0  0  0  0  0
   -1.4058   27.0982  -27.8328 H   0  0  0  0  0  0  0  0  0  0  0  0
    0.0658   26.9212  -25.8282 H   0  0  0  0  0  0  0  0  0  0  0  0
    0.4408   24.7082  -24.7408 H   0  0  0  0  0  0  0  0  0  0  0  0
    0.4324   22.2413  -25.1249 H   0  0  0  0  0  0  0  0  0  0  0  0
   -1.2957   22.1742  -24.6282 H   0  0  0  0  0  0  0  0  0  0  0  0
   -2.5540   20.1744  -25.5973 H   0  0  0  0  0  0  0  0  0  0  0  0
   -2.2169   18.5429  -27.6699 H   0  0  0  0  0  0  0  0  0  0  0  0
    0.7516   21.5464  -27.8650 H   0  0  0  0  0  0  0  0  0  0  0  0
   -2.1468   22.8348  -27.6647 H   0  0  0  0  0  0  0  0  0  0  0  0
   -6.6209   23.4149  -30.6850 H   0  0  0  0  0  0  0  0  0  0  0  0
   -7.7075   21.4148  -31.7016 H   0  0  0  0  0  0  0  0  0  0  0  0
  1  2  1  0
  2  3  1  0
  3  4  2  0
  3  5  2  0
  3  6  1  0
  6  7  2  0
  7  8  1  0
  8  9  2  0
  9 10  1  0
 10 11  1  0
 11 12  2  0
 11 13  1  0
 13 14  1  0
 14 15  2  0
 15 16  1  0
 16 17  2  0
 17 18  1  0
 18 19  1  0
 19 20  1  0
 20 21  1  0
 21 22  2  0
 22 23  1  0
 23 24  2  0
 18 25  2  0
  9 26  1  0
 26 27  2  0
 27  6  1  0
 25 14  1  0
 24 20  1  0
  1 28  1  0
  1 29  1  0
  1 30  1  0
  2 31  1  0
  2 32  1  0
  7 33  1  0
  8 34  1  0
 13 35  1  0
 15 36  1  0
 16 37  1  0
 17 38  1  0
 19 39  1  0
 19 40  1  0
 21 41  1  0
 22 42  1  0
 24 43  1  0
 25 44  1  0
 26 45  1  0
 27 46  1  0
M  CHG  1  10  -1
M  END
>  <UniqueID>  (13) 
13

>  <SMILES>  (13) 
CCS(=O)(=O)c1ccc([N-]C(=O)Nc2cccc(Cn3ccnc3)c2)cc1

>  <Energy>  (13) 
76.40449401777097

>  <Genealogy>  (13) 
CCS(=O)(=O)c1ccc([N-]C(=O)Nc2cccc(Cn3ccnc3)c2)cc1 (protonated)
CCS(=O)(=O)c1ccc([N-]C(=O)Nc2cccc(Cn3ccnc3)c2)cc1 (3D coordinates assigned)
CCS(=O)(=O)c1ccc([N-]C(=O)Nc2cccc(Cn3ccnc3)c2)cc1 (optimized conformer: 76.40449401777097 kcal/mol)

>  <smiles>  (13) 
CCS(=O)(=O)c1ccc(NC(=O)Nc2cccc(Cn3ccnc3)c2)cc1

>  <score_type>  (13) 
oracle

>  <origin>  (13) 
adgpu

>  <m_score__min__energy>  (13) 
-10.449999999999999

>  <m_primary>  (13) 
energy

$$$$
13:0
     RDKit          3D

 52 55  0  0  0  0  0  0  0  0999 V2000
   -0.5920   25.4790  -25.1680 C   0  0  0  0  0  0  0  0  0  0  0  0
   -1.6250   25.1800  -26.2130 C   0  0  0  0  0  0  0  0  0  0  0  0
   -1.2340   24.7580  -27.4920 C   0  0  0  0  0  0  0  0  0  0  0  0
   -2.1960   24.4420  -28.4570 C   0  0  0  0  0  0  0  0  0  0  0  0
   -3.5660   24.5420  -28.1530 C   0  0  0  0  0  0  0  0  0  0  0  0
   -4.5750   24.1970  -29.1180 N   0  0  0  0  0  0  0  0  0  0  0  0
   -4.5660   24.6430  -30.4840 C   0  0  0  0  0  0  0  0  0  0  0  0
   -3.9170   25.6720  -30.8100 O   0  0  0  0  0  0  0  0  0  0  0  0
   -5.3730   23.9930  -31.4720 N   0  0  0  0  0  0  0  0  0  0  0  0
   -5.2600   22.6230  -31.8810 C   0  0  0  0  0  0  0  0  0  0  0  0
   -4.0130   21.9820  -31.9810 C   0  0  0  0  0  0  0  0  0  0  0  0
   -3.9370   20.6530  -32.4070 C   0  0  0  0  0  0  0  0  0  0  0  0
   -5.1030   19.9460  -32.7400 C   0  0  0  0  0  0  0  0  0  0  0  0
   -5.0020   18.5510  -33.2180 C   0  0  0  0  0  0  0  0  0  0  0  0
   -3.8480   18.0530  -33.7330 N   0  0  0  0  0  0  0  0  0  0  0  0
   -4.1860   16.7950  -34.0730 C   0  0  0  0  0  0  0  0  0  0  0  0
   -5.4810   16.5470  -33.7750 C   0  0  0  0  0  0  0  0  0  0  0  0
   -6.0470   15.3140  -34.0840 C   0  0  0  0  0  0  0  0  0  0  0  0
   -7.2650   15.0880  -33.8480 O   0  0  0  0  0  0  0  0  0  0  0  0
   -5.2490   14.3570  -34.6720 N   0  0  0  0  0  0  0  0  0  0  0  0
   -5.8220   13.0540  -35.0430 C   0  0  0  0  0  0  0  0  0  0  0  0
   -3.9320   14.6480  -34.9870 C   0  0  0  0  0  0  0  0  0  0  0  0
   -3.2260   13.7870  -35.5870 O   0  0  0  0  0  0  0  0  0  0  0  0
   -3.3810   15.8690  -34.6630 N   0  0  0  0  0  0  0  0  0  0  0  0
   -1.9940   16.1960  -35.0180 C   0  0  0  0  0  0  0  0  0  0  0  0
   -6.0220   17.6430  -33.2100 N   0  0  0  0  0  0  0  0  0  0  0  0
   -7.3740   17.7970  -32.6710 C   0  0  0  0  0  0  0  0  0  0  0  0
   -6.3420   20.6050  -32.6870 C   0  0  0  0  0  0  0  0  0  0  0  0
   -6.4170   21.9340  -32.2620 C   0  0  0  0  0  0  0  0  0  0  0  0
   -3.9520   24.9250  -26.8600 C   0  0  0  0  0  0  0  0  0  0  0  0
   -2.9900   25.2410  -25.8970 C   0  0  0  0  0  0  0  0  0  0  0  0
   -1.0337   25.3512  -24.1687 H   0  0  0  0  0  0  0  0  0  0  0  0
    0.2574   24.7899  -25.2844 H   0  0  0  0  0  0  0  0  0  0  0  0
   -0.2420   26.5153  -25.2844 H   0  0  0  0  0  0  0  0  0  0  0  0
   -0.1650   24.6751  -27.7376 H   0  0  0  0  0  0  0  0  0  0  0  0
   -1.8799   24.1138  -29.4582 H   0  0  0  0  0  0  0  0  0  0  0  0
   -5.4090   23.6620  -28.7890 H   0  0  0  0  0  0  0  0  0  0  0  0
   -3.0937   22.5283  -31.7231 H   0  0  0  0  0  0  0  0  0  0  0  0
   -2.9575   20.1581  -32.4818 H   0  0  0  0  0  0  0  0  0  0  0  0
   -6.0701   12.4898  -34.1319 H   0  0  0  0  0  0  0  0  0  0  0  0
   -6.7343   13.2105  -35.6373 H   0  0  0  0  0  0  0  0  0  0  0  0
   -5.0900   12.4874  -35.6373 H   0  0  0  0  0  0  0  0  0  0  0  0
   -1.4037   16.3352  -34.1003 H   0  0  0  0  0  0  0  0  0  0  0  0
   -1.5636   15.3747  -35.6098 H   0  0  0  0  0  0  0  0  0  0  0  0
   -1.9758   17.1231  -35.6098 H   0  0  0  0  0  0  0  0  0  0  0  0
   -7.3332   17.7924  -31.5718 H   0  0  0  0  0  0  0  0  0  0  0  0
   -7.8008   18.7496  -33.0181 H   0  0  0  0  0  0  0  0  0  0  0  0
   -8.0041   16.9648  -33.0181 H   0  0  0  0  0  0  0  0  0  0  0  0
   -7.2582   20.0722  -32.9816 H   0  0  0  0  0  0  0  0  0  0  0  0
   -7.3920   22.4421  -32.2267 H   0  0  0  0  0  0  0  0  0  0  0  0
   -5.0201   24.9770  -26.6021 H   0  0  0  0  0  0  0  0  0  0  0  0
   -3.3049   25.5391  -24.8861 H   0  0  0  0  0  0  0  0  0  0  0  0
  1  2  1  0
  2  3  2  0
  3  4  1  0
  4  5  2  0
  5  6  1  0
  6  7  1  0
  7  8  2  0
  7  9  1  0
  9 10  1  0
 10 11  2  0
 11 12  1  0
 12 13  2  0
 13 14  1  0
 14 15  2  0
 15 16  1  0
 16 17  2  0
 17 18  1  0
 18 19  2  0
 18 20  1  0
 20 21  1  0
 20 22  1  0
 22 23  2  0
 22 24  1  0
 24 25  1  0
 17 26  1  0
 26 27  1  0
 13 28  1  0
 28 29  2  0
  5 30  1  0
 30 31  2  0
 31  2  1  0
 29 10  1  0
 26 14  1  0
 24 16  1  0
  1 32  1  0
  1 33  1  0
  1 34  1  0
  3 35  1  0
  4 36  1  0
  6 37  1  0
 11 38  1  0
 12 39  1  0
 21 40  1  0
 21 41  1  0
 21 42  1  0
 25 43  1  0
 25 44  1  0
 25 45  1  0
 27 46  1  0
 27 47  1  0
 27 48  1  0
 28 49  1  0
 29 50  1  0
 30 51  1  0
 31 52  1  0
M  CHG  1   9  -1
M  END
>  <UniqueID>  (14) 
14

>  <SMILES>  (14) 
Cc1ccc(NC(=O)[N-]c2ccc(-c3nc4c(c(=O)n(C)c(=O)n4C)n3C)cc2)cc1

>  <Energy>  (14) 
112.96264740927177

>  <Genealogy>  (14) 
Cc1ccc(NC(=O)[N-]c2ccc(-c3nc4c(c(=O)n(C)c(=O)n4C)n3C)cc2)cc1 (protonated)
Cc1ccc(NC(=O)[N-]c2ccc(-c3nc4c(c(=O)n(C)c(=O)n4C)n3C)cc2)cc1 (3D coordinates assigned)
Cc1ccc(NC(=O)[N-]c2ccc(-c3nc4c(c(=O)n(C)c(=O)n4C)n3C)cc2)cc1 (optimized conformer: 112.96264740927177 kcal/mol)

>  <smiles>  (14) 
Cc1ccc(NC(=O)Nc2ccc(-c3nc4c(c(=O)n(C)c(=O)n4C)n3C)cc2)cc1

>  <score_type>  (14) 
oracle

>  <origin>  (14) 
adgpu

>  <m_score__min__energy>  (14) 
-9.7200000000000006

>  <m_primary>  (14) 
energy

$$$$
14:0
     RDKit          3D

 42 45  0  0  0  0  0  0  0  0999 V2000
   -2.3640   26.4800  -28.8930 H   0  0  0  0  0  0  0  0  0  0  0  0
   -1.7880   25.6090  -28.9210 N   0  0  0  0  0  0  0  0  0  0  0  0
   -2.2170   24.5350  -29.5010 C   0  0  0  0  0  0  0  0  0  0  0  0
   -3.4380   24.5180  -30.0900 N   0  0  0  0  0  0  0  0  0  0  0  0
   -3.9180   23.4040  -30.7110 C   0  0  0  0  0  0  0  0  0  0  0  0
   -3.1290   22.2330  -30.7260 C   0  0  0  0  0  0  0  0  0  0  0  0
   -1.8550   22.2750  -30.1130 C   0  0  0  0  0  0  0  0  0  0  0  0
   -0.9390   21.0860  -30.0840 C   0  0  0  0  0  0  0  0  0  0  0  0
   -0.7275   20.8115  -29.0400 H   0  0  0  0  0  0  0  0  0  0  0  0
   -1.4206   20.2395  -30.5954 H   0  0  0  0  0  0  0  0  0  0  0  0
    0.0023   21.3358  -30.5954 H   0  0  0  0  0  0  0  0  0  0  0  0
   -1.4400   23.4250  -29.5180 N   0  0  0  0  0  0  0  0  0  0  0  0
   -3.6430   21.0790  -31.3280 C   0  0  0  0  0  0  0  0  0  0  0  0
   -3.0300   20.1668  -31.3741 H   0  0  0  0  0  0  0  0  0  0  0  0
   -4.9310   21.0790  -31.8710 C   0  0  0  0  0  0  0  0  0  0  0  0
   -5.4740   19.8280  -32.4610 C   0  0  0  0  0  0  0  0  0  0  0  0
   -6.5560   19.1670  -31.8600 C   0  0  0  0  0  0  0  0  0  0  0  0
   -7.0138   19.5820  -30.9500 H   0  0  0  0  0  0  0  0  0  0  0  0
   -7.0540   17.9860  -32.4110 C   0  0  0  0  0  0  0  0  0  0  0  0
   -7.9050   17.4776  -31.9342 H   0  0  0  0  0  0  0  0  0  0  0  0
   -6.4800   17.4440  -33.5640 C   0  0  0  0  0  0  0  0  0  0  0  0
   -7.0050   16.2610  -34.0860 O   0  0  0  0  0  0  0  0  0  0  0  0
   -6.6290   15.8250  -34.9190 H   0  0  0  0  0  0  0  0  0  0  0  0
   -5.3890   18.0870  -34.1770 C   0  0  0  0  0  0  0  0  0  0  0  0
   -4.8300   17.5190  -35.3330 O   0  0  0  0  0  0  0  0  0  0  0  0
   -3.6790   16.6800  -35.3450 C   0  0  0  0  0  0  0  0  0  0  0  0
   -3.3756   16.4589  -34.3110 H   0  0  0  0  0  0  0  0  0  0  0  0
   -3.9153   15.7408  -35.8666 H   0  0  0  0  0  0  0  0  0  0  0  0
   -2.8572   17.1924  -35.8666 H   0  0  0  0  0  0  0  0  0  0  0  0
   -4.8910   19.2800  -33.6160 C   0  0  0  0  0  0  0  0  0  0  0  0
   -4.0366   19.7877  -34.0874 H   0  0  0  0  0  0  0  0  0  0  0  0
   -5.6840   22.2690  -31.8440 C   0  0  0  0  0  0  0  0  0  0  0  0
   -6.8530   22.2730  -32.3230 O   0  0  0  0  0  0  0  0  0  0  0  0
   -5.1550   23.4200  -31.3120 N   0  0  0  0  0  0  0  0  0  0  0  0
   -5.9710   24.6510  -31.2790 C   0  0  0  0  0  0  0  0  0  0  0  0
   -5.7110   24.9915  -32.2922 H   0  0  0  0  0  0  0  0  0  0  0  0
   -6.0790   25.3110  -29.9070 C   0  0  0  0  0  0  0  0  0  0  0  0
   -5.5113   24.9060  -29.0563 H   0  0  0  0  0  0  0  0  0  0  0  0
   -5.9302   26.3306  -29.5220 H   0  0  0  0  0  0  0  0  0  0  0  0
   -7.2580   24.5400  -30.4660 C   0  0  0  0  0  0  0  0  0  0  0  0
   -7.5450   23.5760  -30.0206 H   0  0  0  0  0  0  0  0  0  0  0  0
   -8.3172   24.7696  -30.6538 H   0  0  0  0  0  0  0  0  0  0  0  0
  1  2  1  0
  2  3  2  0
  3  4  1  0
  4  5  2  0
  5  6  1  0
  6  7  2  0
  7  8  1  0
  8  9  1  0
  8 10  1  0
  8 11  1  0
  7 12  1  0
  6 13  1  0
 13 14  1  0
 13 15  2  0
 15 16  1  0
 16 17  2  0
 17 18  1  0
 17 19  1  0
 19 20  1  0
 19 21  2  0
 21 22  1  0
 22 23  1  0
 21 24  1  0
 24 25  1  0
 25 26  1  0
 26 27  1  0
 26 28  1  0
 26 29  1  0
 24 30  2  0
 30 31  1  0
 15 32  1  0
 32 33  2  0
 32 34  1  0
 34 35  1  0
 35 36  1  0
 35 37  1  0
 37 38  1  0
 37 39  1  0
 37 40  1  0
 40 41  1  0
 40 42  1  0
 12  3  1  0
 30 16  1  0
 40 35  1  0
 34  5  1  0
M  CHG  1  12  -1
M  END
>  <UniqueID>  (15) 
15

>  <SMILES>  (15) 
[H]/N=c1\nc2c(cc(-c3ccc(O)c(OC)c3)c(=O)n2C2CC2)c(C)[n-]1

>  <Energy>  (15) 
325.0394713154888

>  <Genealogy>  (15) 
COc1cc(-c2cc3c(C)[n-]c(=N)nc3n(C3CC3)c2=O)ccc1O (protonated)
[H]/N=c1\nc2c(cc(-c3ccc(O)c(OC)c3)c(=O)n2C2CC2)c(C)[n-]1 (cis-trans isomerization)
[H]/N=c1\nc2c(cc(-c3ccc(O)c(OC)c3)c(=O)n2C2CC2)c(C)[n-]1 (3D coordinates assigned)
[H]/N=c1\nc2c(cc(-c3ccc(O)c(OC)c3)c(=O)n2C2CC2)c(C)[n-]1 (nonaromatic ring conformer: 325.0394713154888 kcal/mol)

>  <smiles>  (15) 
COc1cc(-c2cc3c(C)[nH]c(=N)nc3n(C3CC3)c2=O)ccc1O

>  <score_type>  (15) 
oracle

>  <origin>  (15) 
adgpu

>  <m_score__min__energy>  (15) 
-9.0800000000000001

>  <m_primary>  (15) 
energy

$$$$
15:0
     RDKit          3D

 51 53  0  0  0  0  0  0  0  0999 V2000
   -3.7910   21.4650  -32.9450 C   0  0  0  0  0  0  0  0  0  0  0  0
   -3.7730   22.6450  -32.1480 O   0  0  0  0  0  0  0  0  0  0  0  0
   -4.9150   23.2840  -31.6390 C   0  0  0  0  0  0  0  0  0  0  0  0
   -6.2140   22.8520  -31.9720 C   0  0  0  0  0  0  0  0  0  0  0  0
   -7.3380   23.4710  -31.4170 C   0  0  0  0  0  0  0  0  0  0  0  0
   -8.6410   22.9940  -31.7770 N   0  0  0  0  0  0  0  0  0  0  0  0
   -9.1800   21.6910  -31.5190 C   0  0  0  0  0  0  0  0  0  0  0  0
  -10.2230   21.5950  -30.8200 O   0  0  0  0  0  0  0  0  0  0  0  0
   -8.5080   20.4610  -31.9780 C   0  0  0  0  0  0  0  0  0  0  0  0
   -8.7620   19.1840  -31.5150 C   0  0  0  0  0  0  0  0  0  0  0  0
   -7.9140   18.3570  -32.2180 C   0  0  0  0  0  0  0  0  0  0  0  0
   -7.1940   19.1750  -33.0610 C   0  0  0  0  0  0  0  0  0  0  0  0
   -7.5650   20.4220  -32.8910 O   0  0  0  0  0  0  0  0  0  0  0  0
   -7.1650   24.4860  -30.4620 C   0  0  0  0  0  0  0  0  0  0  0  0
   -5.8840   24.9360  -30.1420 C   0  0  0  0  0  0  0  0  0  0  0  0
   -4.7590   24.3760  -30.7570 C   0  0  0  0  0  0  0  0  0  0  0  0
   -3.4680   24.9240  -30.4430 N   0  0  0  0  0  0  0  0  0  0  0  0
   -2.6270   24.5510  -29.3400 C   0  0  0  0  0  0  0  0  0  0  0  0
   -2.3010   25.4360  -28.5050 O   0  0  0  0  0  0  0  0  0  0  0  0
   -2.1170   23.1700  -29.1680 C   0  0  0  0  0  0  0  0  0  0  0  0
   -2.4430   22.4450  -28.0160 C   0  0  0  0  0  0  0  0  0  0  0  0
   -2.0380   21.1050  -27.8630 C   0  0  0  0  0  0  0  0  0  0  0  0
   -2.3880   20.3760  -26.7150 O   0  0  0  0  0  0  0  0  0  0  0  0
   -3.0580   19.1220  -26.7170 C   0  0  0  0  0  0  0  0  0  0  0  0
   -1.2740   20.4910  -28.8890 C   0  0  0  0  0  0  0  0  0  0  0  0
   -0.8320   19.1550  -28.8370 O   0  0  0  0  0  0  0  0  0  0  0  0
    0.4660   18.7060  -28.4610 C   0  0  0  0  0  0  0  0  0  0  0  0
   -0.9280   21.2260  -30.0340 C   0  0  0  0  0  0  0  0  0  0  0  0
   -0.1860   20.5830  -31.0380 O   0  0  0  0  0  0  0  0  0  0  0  0
   -0.5310   20.5820  -32.4190 C   0  0  0  0  0  0  0  0  0  0  0  0
   -1.3380   22.5640  -30.1610 C   0  0  0  0  0  0  0  0  0  0  0  0
   -3.8045   20.5808  -32.2908 H   0  0  0  0  0  0  0  0  0  0  0  0
   -4.6892   21.4651  -33.5799 H   0  0  0  0  0  0  0  0  0  0  0  0
   -2.8932   21.4377  -33.5799 H   0  0  0  0  0  0  0  0  0  0  0  0
   -6.3454   22.0179  -32.6770 H   0  0  0  0  0  0  0  0  0  0  0  0
   -9.4901   18.8892  -30.7450 H   0  0  0  0  0  0  0  0  0  0  0  0
   -7.8288   17.2642  -32.1251 H   0  0  0  0  0  0  0  0  0  0  0  0
   -6.4245   18.8342  -33.7694 H   0  0  0  0  0  0  0  0  0  0  0  0
   -8.0416   24.9272  -29.9652 H   0  0  0  0  0  0  0  0  0  0  0  0
   -5.7573   25.7380  -29.3998 H   0  0  0  0  0  0  0  0  0  0  0  0
   -3.0246   22.9294  -27.2178 H   0  0  0  0  0  0  0  0  0  0  0  0
   -3.2315   18.7973  -25.6804 H   0  0  0  0  0  0  0  0  0  0  0  0
   -4.0226   19.2225  -27.2361 H   0  0  0  0  0  0  0  0  0  0  0  0
   -2.4383   18.3760  -27.2361 H   0  0  0  0  0  0  0  0  0  0  0  0
    0.5414   18.6799  -27.3639 H   0  0  0  0  0  0  0  0  0  0  0  0
    0.6360   17.6968  -28.8643 H   0  0  0  0  0  0  0  0  0  0  0  0
    1.2232   19.3944  -28.8643 H   0  0  0  0  0  0  0  0  0  0  0  0
   -1.6260   20.5788  -32.5234 H   0  0  0  0  0  0  0  0  0  0  0  0
   -0.1194   21.4813  -32.9004 H   0  0  0  0  0  0  0  0  0  0  0  0
   -0.1142   19.6851  -32.9004 H   0  0  0  0  0  0  0  0  0  0  0  0
   -1.0438   23.1413  -31.0499 H   0  0  0  0  0  0  0  0  0  0  0  0
  1  2  1  0
  2  3  1  0
  3  4  2  0
  4  5  1  0
  5  6  1  0
  6  7  1  0
  7  8  2  0
  7  9  1  0
  9 10  2  0
 10 11  1  0
 11 12  2  0
 12 13  1  0
  5 14  2  0
 14 15  1  0
 15 16  2  0
 16 17  1  0
 17 18  1  0
 18 19  2  0
 18 20  1  0
 20 21  2  0
 21 22  1  0
 22 23  1  0
 23 24  1  0
 22 25  2  0
 25 26  1  0
 26 27  1  0
 25 28  1  0
 28 29  1  0
 29 30  1  0
 28 31  2  0
 16  3  1  0
 31 20  1  0
 13  9  1  0
  1 32  1  0
  1 33  1  0
  1 34  1  0
  4 35  1  0
 10 36  1  0
 11 37  1  0
 12 38  1  0
 14 39  1  0
 15 40  1  0
 21 41  1  0
 24 42  1  0
 24 43  1  0
 24 44  1  0
 27 45  1  0
 27 46  1  0
 27 47  1  0
 30 48  1  0
 30 49  1  0
 30 50  1  0
 31 51  1  0
M  CHG  2   6  -1  17  -1
M  END
>  <UniqueID>  (16) 
16

>  <SMILES>  (16) 
COc1cc([N-]C(=O)c2ccco2)ccc1[N-]C(=O)c1cc(OC)c(OC)c(OC)c1

>  <Energy>  (16) 
90.48099273950871

>  <Genealogy>  (16) 
COc1cc([N-]C(=O)c2ccco2)ccc1[N-]C(=O)c1cc(OC)c(OC)c(OC)c1 (protonated)
COc1cc([N-]C(=O)c2ccco2)ccc1[N-]C(=O)c1cc(OC)c(OC)c(OC)c1 (3D coordinates assigned)
COc1cc([N-]C(=O)c2ccco2)ccc1[N-]C(=O)c1cc(OC)c(OC)c(OC)c1 (optimized conformer: 90.48099273950871 kcal/mol)

>  <smiles>  (16) 
COc1cc(NC(=O)c2ccco2)ccc1NC(=O)c1cc(OC)c(OC)c(OC)c1

>  <score_type>  (16) 
oracle

>  <origin>  (16) 
adgpu

>  <m_score__min__energy>  (16) 
-9.7300000000000004

>  <m_primary>  (16) 
energy

$$$$
16:0
     RDKit          3D

 23 24  0  0  0  0  0  0  0  0999 V2000
   -1.2320   26.0710  -29.3420 O   0  0  0  0  0  0  0  0  0  0  0  0
   -1.5460   24.8790  -28.7010 C   0  0  0  0  0  0  0  0  0  0  0  0
   -0.8590   24.5160  -27.5380 C   0  0  0  0  0  0  0  0  0  0  0  0
   -1.1710   23.3200  -26.8820 C   0  0  0  0  0  0  0  0  0  0  0  0
   -0.2320   22.8280  -25.2930 Br  0  0  0  0  0  0  0  0  0  0  0  0
   -2.1780   22.4920  -27.3850 C   0  0  0  0  0  0  0  0  0  0  0  0
   -2.8680   22.8520  -28.5460 C   0  0  0  0  0  0  0  0  0  0  0  0
   -2.5440   24.0430  -29.2230 C   0  0  0  0  0  0  0  0  0  0  0  0
   -3.2280   24.4440  -30.3810 O   0  0  0  0  0  0  0  0  0  0  0  0
   -4.5240   24.0440  -30.7400 C   0  0  0  0  0  0  0  0  0  0  0  0
   -5.6610   24.7540  -30.3100 C   0  0  0  0  0  0  0  0  0  0  0  0
   -6.9410   24.3210  -30.6690 C   0  0  0  0  0  0  0  0  0  0  0  0
   -7.0990   23.1710  -31.4480 C   0  0  0  0  0  0  0  0  0  0  0  0
   -8.8480   22.5800  -31.9350 Br  0  0  0  0  0  0  0  0  0  0  0  0
   -5.9760   22.4490  -31.8620 C   0  0  0  0  0  0  0  0  0  0  0  0
   -4.6920   22.8780  -31.5050 C   0  0  0  0  0  0  0  0  0  0  0  0
   -3.1740   21.8680  -32.0850 Br  0  0  0  0  0  0  0  0  0  0  0  0
   -0.0718   25.1721  -27.1382 H   0  0  0  0  0  0  0  0  0  0  0  0
   -2.4282   21.5549  -26.8661 H   0  0  0  0  0  0  0  0  0  0  0  0
   -3.6672   22.2023  -28.9322 H   0  0  0  0  0  0  0  0  0  0  0  0
   -5.5418   25.6538  -29.6886 H   0  0  0  0  0  0  0  0  0  0  0  0
   -7.8249   24.8860  -30.3380 H   0  0  0  0  0  0  0  0  0  0  0  0
   -6.1014   21.5410  -32.4701 H   0  0  0  0  0  0  0  0  0  0  0  0
  1  2  1  0
  2  3  2  0
  3  4  1  0
  4  5  1  0
  4  6  2  0
  6  7  1  0
  7  8  2  0
  8  9  1  0
  9 10  1  0
 10 11  2  0
 11 12  1  0
 12 13  2  0
 13 14  1  0
 13 15  1  0
 15 16  2  0
 16 17  1  0
  8  2  1  0
 16 10  1  0
  3 18  1  0
  6 19  1  0
  7 20  1  0
 11 21  1  0
 12 22  1  0
 15 23  1  0
M  CHG  1   1  -1
M  END
>  <UniqueID>  (17) 
17

>  <SMILES>  (17) 
[O-]c1cc(Br)ccc1Oc1ccc(Br)cc1Br

>  <Energy>  (17) 
30.453830968726304

>  <Genealogy>  (17) 
[O-]c1cc(Br)ccc1Oc1ccc(Br)cc1Br (protonated)
[O-]c1cc(Br)ccc1Oc1ccc(Br)cc1Br (3D coordinates assigned)
[O-]c1cc(Br)ccc1Oc1ccc(Br)cc1Br (optimized conformer: 30.453830968726304 kcal/mol)

>  <smiles>  (17) 
Oc1cc(Br)ccc1Oc1ccc(Br)cc1Br

>  <score_type>  (17) 
oracle

>  <origin>  (17) 
adgpu

>  <m_score__min__energy>  (17) 
-11.289999999999999

>  <m_primary>  (17) 
energy

$$$$
17:0
     RDKit          3D

 58 60  0  0  0  0  0  0  0  0999 V2000
    3.2570   25.1350  -25.7220 C   0  0  0  0  0  0  0  0  0  0  0  0
    1.8770   25.1580  -26.3120 C   0  0  0  0  0  0  0  0  0  0  0  0
    1.2920   26.3740  -26.6880 C   0  0  0  0  0  0  0  0  0  0  0  0
   -0.0110   26.4040  -27.1920 C   0  0  0  0  0  0  0  0  0  0  0  0
   -0.7560   25.2200  -27.3080 C   0  0  0  0  0  0  0  0  0  0  0  0
   -2.1500   25.2560  -27.8750 C   0  0  0  0  0  0  0  0  0  0  0  0
   -2.0720   25.2990  -29.3330 N   0  0  0  0  0  0  0  0  0  0  0  0
   -3.4940   24.5770  -30.0220 S   0  0  0  0  0  0  0  0  0  0  0  0
   -4.5130   23.9460  -28.7080 C   0  0  0  0  0  0  0  0  0  0  0  0
   -4.2720   25.6040  -30.7980 O   0  0  0  0  0  0  0  0  0  0  0  0
   -3.1050   23.4460  -30.9330 O   0  0  0  0  0  0  0  0  0  0  0  0
   -0.1710   23.9920  -26.9380 C   0  0  0  0  0  0  0  0  0  0  0  0
   -0.9200   22.8120  -27.0610 O   0  0  0  0  0  0  0  0  0  0  0  0
   -1.0530   22.0690  -28.2410 C   0  0  0  0  0  0  0  0  0  0  0  0
   -1.7890   20.8830  -28.2210 C   0  0  0  0  0  0  0  0  0  0  0  0
   -1.9510   20.1560  -29.4020 C   0  0  0  0  0  0  0  0  0  0  0  0
   -1.3800   20.6140  -30.6000 C   0  0  0  0  0  0  0  0  0  0  0  0
   -1.5750   19.8670  -31.8670 C   0  0  0  0  0  0  0  0  0  0  0  0
   -1.0860   18.7110  -31.9950 O   0  0  0  0  0  0  0  0  0  0  0  0
   -2.3450   20.4240  -32.9470 N   0  0  0  0  0  0  0  0  0  0  0  0
   -1.6440   20.8180  -34.1730 C   0  0  0  0  0  0  0  0  0  0  0  0
   -3.7910   20.4010  -32.8840 C   0  0  0  0  0  0  0  0  0  0  0  0
   -4.4950   19.2250  -33.1960 C   0  0  0  0  0  0  0  0  0  0  0  0
   -5.8870   19.1890  -33.1340 C   0  0  0  0  0  0  0  0  0  0  0  0
   -6.6170   20.3260  -32.7550 C   0  0  0  0  0  0  0  0  0  0  0  0
   -8.1200   20.2510  -32.6950 C   0  0  0  0  0  0  0  0  0  0  0  0
   -5.9250   21.5140  -32.4230 C   0  0  0  0  0  0  0  0  0  0  0  0
   -6.6680   22.7590  -32.0110 C   0  0  0  0  0  0  0  0  0  0  0  0
   -4.5200   21.5420  -32.4950 C   0  0  0  0  0  0  0  0  0  0  0  0
   -0.6570   21.8200  -30.5730 C   0  0  0  0  0  0  0  0  0  0  0  0
   -0.5130   22.5080  -29.4110 N   0  0  0  0  0  0  0  0  0  0  0  0
    1.1360   23.9740  -26.4200 C   0  0  0  0  0  0  0  0  0  0  0  0
    3.1865   25.1362  -24.6243 H   0  0  0  0  0  0  0  0  0  0  0  0
    3.7829   24.2280  -26.0547 H   0  0  0  0  0  0  0  0  0  0  0  0
    3.8129   26.0240  -26.0547 H   0  0  0  0  0  0  0  0  0  0  0  0
    1.8611   27.3098  -26.5860 H   0  0  0  0  0  0  0  0  0  0  0  0
   -0.4558   27.3618  -27.4999 H   0  0  0  0  0  0  0  0  0  0  0  0
   -2.6984   24.3553  -27.5619 H   0  0  0  0  0  0  0  0  0  0  0  0
   -2.6774   26.1479  -27.5056 H   0  0  0  0  0  0  0  0  0  0  0  0
   -4.0716   24.2193  -27.7382 H   0  0  0  0  0  0  0  0  0  0  0  0
   -5.5216   24.3778  -28.7865 H   0  0  0  0  0  0  0  0  0  0  0  0
   -4.5760   22.8506  -28.7865 H   0  0  0  0  0  0  0  0  0  0  0  0
   -2.2375   20.5243  -27.2828 H   0  0  0  0  0  0  0  0  0  0  0  0
   -2.5287   19.2200  -29.3937 H   0  0  0  0  0  0  0  0  0  0  0  0
   -0.7127   21.3414  -33.9108 H   0  0  0  0  0  0  0  0  0  0  0  0
   -1.4066   19.9211  -34.7640 H   0  0  0  0  0  0  0  0  0  0  0  0
   -2.2867   21.4870  -34.7640 H   0  0  0  0  0  0  0  0  0  0  0  0
   -3.9407   18.3223  -33.4926 H   0  0  0  0  0  0  0  0  0  0  0  0
   -6.4190   18.2594  -33.3848 H   0  0  0  0  0  0  0  0  0  0  0  0
   -8.4446   20.2348  -31.6441 H   0  0  0  0  0  0  0  0  0  0  0  0
   -8.5513   21.1287  -33.1985 H   0  0  0  0  0  0  0  0  0  0  0  0
   -8.4618   19.3347  -33.1985 H   0  0  0  0  0  0  0  0  0  0  0  0
   -6.7035   22.8184  -30.9132 H   0  0  0  0  0  0  0  0  0  0  0  0
   -6.1501   23.6439  -32.4096 H   0  0  0  0  0  0  0  0  0  0  0  0
   -7.6926   22.7233  -32.4096 H   0  0  0  0  0  0  0  0  0  0  0  0
   -3.9829   22.4685  -32.2438 H   0  0  0  0  0  0  0  0  0  0  0  0
   -0.2057   22.2081  -31.4981 H   0  0  0  0  0  0  0  0  0  0  0  0
    1.5808   23.0214  -26.0965 H   0  0  0  0  0  0  0  0  0  0  0  0
  1  2  1  0
  2  3  2  0
  3  4  1  0
  4  5  2  0
  5  6  1  0
  6  7  1  0
  7  8  1  0
  8  9  1  0
  8 10  2  0
  8 11  2  0
  5 12  1  0
 12 13  1  0
 13 14  1  0
 14 15  2  0
 15 16  1  0
 16 17  2  0
 17 18  1  0
 18 19  2  0
 18 20  1  0
 20 21  1  0
 20 22  1  0
 22 23  2  0
 23 24  1  0
 24 25  2  0
 25 26  1  0
 25 27  1  0
 27 28  1  0
 27 29  2  0
 17 30  1  0
 30 31  2  0
 12 32  2  0
 32  2  1  0
 31 14  1  0
 29 22  1  0
  1 33  1  0
  1 34  1  0
  1 35  1  0
  3 36  1  0
  4 37  1  0
  6 38  1  0
  6 39  1  0
  9 40  1  0
  9 41  1  0
  9 42  1  0
 15 43  1  0
 16 44  1  0
 21 45  1  0
 21 46  1  0
 21 47  1  0
 23 48  1  0
 24 49  1  0
 26 50  1  0
 26 51  1  0
 26 52  1  0
 28 53  1  0
 28 54  1  0
 28 55  1  0
 29 56  1  0
 30 57  1  0
 32 58  1  0
M  CHG  1   7  -1
M  END
>  <UniqueID>  (18) 
18

>  <SMILES>  (18) 
Cc1ccc(C[N-]S(C)(=O)=O)c(Oc2ccc(C(=O)N(C)c3ccc(C)c(C)c3)cn2)c1

>  <Energy>  (18) 
67.49850286222068

>  <Genealogy>  (18) 
Cc1ccc(C[N-]S(C)(=O)=O)c(Oc2ccc(C(=O)N(C)c3ccc(C)c(C)c3)cn2)c1 (protonated)
Cc1ccc(C[N-]S(C)(=O)=O)c(Oc2ccc(C(=O)N(C)c3ccc(C)c(C)c3)cn2)c1 (3D coordinates assigned)
Cc1ccc(C[N-]S(C)(=O)=O)c(Oc2ccc(C(=O)N(C)c3ccc(C)c(C)c3)cn2)c1 (optimized conformer: 67.49850286222068 kcal/mol)

>  <smiles>  (18) 
Cc1ccc(CNS(C)(=O)=O)c(Oc2ccc(C(=O)N(C)c3ccc(C)c(C)c3)cn2)c1

>  <score_type>  (18) 
oracle

>  <origin>  (18) 
adgpu

>  <m_score__min__energy>  (18) 
-11.56

>  <m_primary>  (18) 
energy

$$$$
18:0
     RDKit          3D

 41 42  0  0  0  0  0  0  0  0999 V2000
    0.2580   25.3510  -24.8540 C   0  0  0  0  0  0  0  0  0  0  0  0
   -0.5940   26.1820  -25.7160 N   0  0  0  0  0  0  0  0  0  0  0  0
   -1.9960   26.0650  -25.3000 C   0  0  0  0  0  0  0  0  0  0  0  0
   -0.4340   25.6560  -27.3740 S   0  0  0  0  0  0  0  0  0  0  0  0
   -0.8580   26.7630  -28.3000 O   0  0  0  0  0  0  0  0  0  0  0  0
    0.9970   25.2980  -27.6600 O   0  0  0  0  0  0  0  0  0  0  0  0
   -1.4320   24.2290  -27.6470 C   0  0  0  0  0  0  0  0  0  0  0  0
   -1.1970   23.0480  -26.9310 C   0  0  0  0  0  0  0  0  0  0  0  0
   -2.0070   21.9290  -27.1430 C   0  0  0  0  0  0  0  0  0  0  0  0
   -3.0470   21.9820  -28.0730 C   0  0  0  0  0  0  0  0  0  0  0  0
   -3.2800   23.1500  -28.8120 C   0  0  0  0  0  0  0  0  0  0  0  0
   -4.3690   23.1850  -29.7500 N   0  0  0  0  0  0  0  0  0  0  0  0
   -4.6070   24.2670  -30.6680 C   0  0  0  0  0  0  0  0  0  0  0  0
   -3.8720   25.2890  -30.6560 O   0  0  0  0  0  0  0  0  0  0  0  0
   -5.7010   24.2190  -31.5900 N   0  0  0  0  0  0  0  0  0  0  0  0
   -6.5320   23.0790  -31.8490 C   0  0  0  0  0  0  0  0  0  0  0  0
   -7.9100   23.1050  -31.5910 C   0  0  0  0  0  0  0  0  0  0  0  0
   -8.6890   21.9700  -31.8200 C   0  0  0  0  0  0  0  0  0  0  0  0
   -8.1040   20.7910  -32.2920 C   0  0  0  0  0  0  0  0  0  0  0  0
   -9.1470   19.3980  -32.5580 Cl  0  0  0  0  0  0  0  0  0  0  0  0
   -6.7100   20.7380  -32.5300 C   0  0  0  0  0  0  0  0  0  0  0  0
   -6.0580   19.4650  -33.0260 C   0  0  0  0  0  0  0  0  0  0  0  0
   -6.3860   18.4180  -32.1840 F   0  0  0  0  0  0  0  0  0  0  0  0
   -4.6840   19.6240  -33.0430 F   0  0  0  0  0  0  0  0  0  0  0  0
   -6.4730   19.1390  -34.3060 F   0  0  0  0  0  0  0  0  0  0  0  0
   -5.9370   21.8930  -32.2930 C   0  0  0  0  0  0  0  0  0  0  0  0
   -2.4800   24.2830  -28.5740 C   0  0  0  0  0  0  0  0  0  0  0  0
    0.0351   25.5684  -23.7990 H   0  0  0  0  0  0  0  0  0  0  0  0
    0.0612   24.2883  -25.0589 H   0  0  0  0  0  0  0  0  0  0  0  0
    1.3154   25.5742  -25.0589 H   0  0  0  0  0  0  0  0  0  0  0  0
   -2.0533   26.0602  -24.2015 H   0  0  0  0  0  0  0  0  0  0  0  0
   -2.5676   26.9186  -25.6933 H   0  0  0  0  0  0  0  0  0  0  0  0
   -2.4182   25.1285  -25.6933 H   0  0  0  0  0  0  0  0  0  0  0  0
   -0.3748   23.0014  -26.2018 H   0  0  0  0  0  0  0  0  0  0  0  0
   -1.8247   21.0043  -26.5758 H   0  0  0  0  0  0  0  0  0  0  0  0
   -3.6878   21.1012  -28.2268 H   0  0  0  0  0  0  0  0  0  0  0  0
   -4.9760   22.3380  -29.8070 H   0  0  0  0  0  0  0  0  0  0  0  0
   -8.3785   24.0231  -31.2068 H   0  0  0  0  0  0  0  0  0  0  0  0
   -9.7716   22.0031  -31.6277 H   0  0  0  0  0  0  0  0  0  0  0  0
   -4.8502   21.8613  -32.4596 H   0  0  0  0  0  0  0  0  0  0  0  0
   -2.6793   25.2171  -29.1197 H   0  0  0  0  0  0  0  0  0  0  0  0
  1  2  1  0
  2  3  1  0
  2  4  1  0
  4  5  2  0
  4  6  2  0
  4  7  1  0
  7  8  2  0
  8  9  1  0
  9 10  2  0
 10 11  1  0
 11 12  1  0
 12 13  1  0
 13 14  2  0
 13 15  1  0
 15 16  1  0
 16 17  2  0
 17 18  1  0
 18 19  2  0
 19 20  1  0
 19 21  1  0
 21 22  1  0
 22 23  1  0
 22 24  1  0
 22 25  1  0
 21 26  2  0
 11 27  2  0
 27  7  1  0
 26 16  1  0
  1 28  1  0
  1 29  1  0
  1 30  1  0
  3 31  1  0
  3 32  1  0
  3 33  1  0
  8 34  1  0
  9 35  1  0
 10 36  1  0
 12 37  1  0
 17 38  1  0
 18 39  1  0
 26 40  1  0
 27 41  1  0
M  CHG  1  15  -1
M  END
>  <UniqueID>  (19) 
19

>  <SMILES>  (19) 
CN(C)S(=O)(=O)c1cccc(NC(=O)[N-]c2ccc(Cl)c(C(F)(F)F)c2)c1

>  <Energy>  (19) 
49.47963295985067

>  <Genealogy>  (19) 
CN(C)S(=O)(=O)c1cccc(NC(=O)[N-]c2ccc(Cl)c(C(F)(F)F)c2)c1 (protonated)
CN(C)S(=O)(=O)c1cccc(NC(=O)[N-]c2ccc(Cl)c(C(F)(F)F)c2)c1 (3D coordinates assigned)
CN(C)S(=O)(=O)c1cccc(NC(=O)[N-]c2ccc(Cl)c(C(F)(F)F)c2)c1 (optimized conformer: 49.47963295985067 kcal/mol)

>  <smiles>  (19) 
CN(C)S(=O)(=O)c1cccc(NC(=O)Nc2ccc(Cl)c(C(F)(F)F)c2)c1

>  <score_type>  (19) 
oracle

>  <origin>  (19) 
adgpu

>  <m_score__min__energy>  (19) 
-10.02

>  <m_primary>  (19) 
energy

$$$$
19:0
     RDKit          3D

 42 44  0  0  0  0  0  0  0  0999 V2000
   -2.4040   25.4620  -26.2900 C   0  0  0  0  0  0  0  0  0  0  0  0
   -2.7410   24.6130  -27.4860 C   0  0  0  0  0  0  0  0  0  0  0  0
   -3.6320   23.5370  -27.3360 C   0  0  0  0  0  0  0  0  0  0  0  0
   -3.9640   22.7310  -28.4250 C   0  0  0  0  0  0  0  0  0  0  0  0
   -3.4130   22.9800  -29.6910 C   0  0  0  0  0  0  0  0  0  0  0  0
   -3.7670   22.1200  -30.8490 C   0  0  0  0  0  0  0  0  0  0  0  0
   -2.8300   21.8740  -31.8690 C   0  0  0  0  0  0  0  0  0  0  0  0
   -3.1660   21.0680  -32.9600 C   0  0  0  0  0  0  0  0  0  0  0  0
   -4.4360   20.4940  -33.0430 C   0  0  0  0  0  0  0  0  0  0  0  0
   -5.3760   20.7130  -32.0270 C   0  0  0  0  0  0  0  0  0  0  0  0
   -6.7190   20.1110  -32.1250 C   0  0  0  0  0  0  0  0  0  0  0  0
   -6.8250   18.7190  -32.2560 C   0  0  0  0  0  0  0  0  0  0  0  0
   -8.0780   18.1150  -32.3630 C   0  0  0  0  0  0  0  0  0  0  0  0
   -9.2220   18.9090  -32.3340 C   0  0  0  0  0  0  0  0  0  0  0  0
   -9.1120   20.2550  -32.1920 N   0  0  0  0  0  0  0  0  0  0  0  0
   -7.9070   20.8810  -32.0850 C   0  0  0  0  0  0  0  0  0  0  0  0
   -7.9050   22.6330  -31.8520 S   0  0  0  0  0  0  0  0  0  0  0  0
   -9.4600   23.3540  -32.3400 C   0  0  0  0  0  0  0  0  0  0  0  0
   -7.6130   22.9620  -30.4170 O   0  0  0  0  0  0  0  0  0  0  0  0
   -6.8280   23.2310  -32.7120 O   0  0  0  0  0  0  0  0  0  0  0  0
   -5.0450   21.5390  -30.9420 C   0  0  0  0  0  0  0  0  0  0  0  0
   -2.5200   24.0540  -29.8460 C   0  0  0  0  0  0  0  0  0  0  0  0
   -2.1790   24.8730  -28.7580 C   0  0  0  0  0  0  0  0  0  0  0  0
   -1.2670   25.9610  -28.9660 N   0  0  0  0  0  0  0  0  0  0  0  0
   -2.6260   24.9028  -25.3691 H   0  0  0  0  0  0  0  0  0  0  0  0
   -1.3351   25.7205  -26.3133 H   0  0  0  0  0  0  0  0  0  0  0  0
   -3.0046   26.3832  -26.3133 H   0  0  0  0  0  0  0  0  0  0  0  0
   -4.0722   23.3281  -26.3498 H   0  0  0  0  0  0  0  0  0  0  0  0
   -4.6638   21.8931  -28.2900 H   0  0  0  0  0  0  0  0  0  0  0  0
   -1.8260   22.3191  -31.8074 H   0  0  0  0  0  0  0  0  0  0  0  0
   -2.4282   20.8854  -33.7552 H   0  0  0  0  0  0  0  0  0  0  0  0
   -4.6995   19.8681  -33.9083 H   0  0  0  0  0  0  0  0  0  0  0  0
   -5.9158   18.1002  -32.2745 H   0  0  0  0  0  0  0  0  0  0  0  0
   -8.1616   17.0233  -32.4691 H   0  0  0  0  0  0  0  0  0  0  0  0
  -10.2153   18.4454  -32.4262 H   0  0  0  0  0  0  0  0  0  0  0  0
  -10.0376   23.6218  -31.4430 H   0  0  0  0  0  0  0  0  0  0  0  0
   -9.2733   24.2574  -32.9391 H   0  0  0  0  0  0  0  0  0  0  0  0
  -10.0289   22.6278  -32.9391 H   0  0  0  0  0  0  0  0  0  0  0  0
   -5.7910   21.7339  -30.1575 H   0  0  0  0  0  0  0  0  0  0  0  0
   -2.0817   24.2559  -30.8345 H   0  0  0  0  0  0  0  0  0  0  0  0
   -1.6100   26.8750  -29.3390 H   0  0  0  0  0  0  0  0  0  0  0  0
   -0.2490   25.8810  -28.7590 H   0  0  0  0  0  0  0  0  0  0  0  0
  1  2  1  0
  2  3  2  0
  3  4  1  0
  4  5  2  0
  5  6  1  0
  6  7  2  0
  7  8  1  0
  8  9  2  0
  9 10  1  0
 10 11  1  0
 11 12  2  0
 12 13  1  0
 13 14  2  0
 14 15  1  0
 15 16  2  0
 16 17  1  0
 17 18  1  0
 17 19  2  0
 17 20  2  0
 10 21  2  0
  5 22  1  0
 22 23  2  0
 23 24  1  0
 23  2  1  0
 21  6  1  0
 16 11  1  0
  1 25  1  0
  1 26  1  0
  1 27  1  0
  3 28  1  0
  4 29  1  0
  7 30  1  0
  8 31  1  0
  9 32  1  0
 12 33  1  0
 13 34  1  0
 14 35  1  0
 18 36  1  0
 18 37  1  0
 18 38  1  0
 21 39  1  0
 22 40  1  0
 24 41  1  0
 24 42  1  0
M  END
>  <UniqueID>  (20) 
20

>  <SMILES>  (20) 
Cc1ccc(-c2cccc(-c3cccnc3S(C)(=O)=O)c2)cc1N

>  <Energy>  (20) 
55.44456676512111

>  <Genealogy>  (20) 
Cc1ccc(-c2cccc(-c3cccnc3S(C)(=O)=O)c2)cc1N (3D coordinates assigned)
Cc1ccc(-c2cccc(-c3cccnc3S(C)(=O)=O)c2)cc1N (optimized conformer: 55.44456676512111 kcal/mol)

>  <smiles>  (20) 
Cc1ccc(-c2cccc(-c3cccnc3S(C)(=O)=O)c2)cc1N

>  <score_type>  (20) 
oracle

>  <origin>  (20) 
adgpu

>  <m_score__min__energy>  (20) 
-9.2300000000000004

>  <m_primary>  (20) 
energy

$$$$
20:0
     RDKit          3D

 28 29  0  0  0  0  0  0  0  0999 V2000
   -5.0710   24.5460  -28.6900 N   0  0  0  0  0  0  0  0  0  0  0  0
   -4.9550   24.6680  -30.4100 S   0  0  0  0  0  0  0  0  0  0  0  0
   -3.5160   24.5500  -30.8250 O   0  0  0  0  0  0  0  0  0  0  0  0
   -5.4750   26.0060  -30.8540 O   0  0  0  0  0  0  0  0  0  0  0  0
   -5.8990   23.3830  -31.1580 C   0  0  0  0  0  0  0  0  0  0  0  0
   -5.3220   22.5580  -32.1300 C   0  0  0  0  0  0  0  0  0  0  0  0
   -6.0660   21.5300  -32.7120 C   0  0  0  0  0  0  0  0  0  0  0  0
   -7.3920   21.3060  -32.3190 C   0  0  0  0  0  0  0  0  0  0  0  0
   -8.3120   19.9620  -33.0830 S   0  0  0  0  0  0  0  0  0  0  0  0
   -6.8940   18.8620  -33.0990 C   0  0  0  0  0  0  0  0  0  0  0  0
   -6.6060   18.0750  -31.9760 C   0  0  0  0  0  0  0  0  0  0  0  0
   -5.5050   17.2140  -31.9880 C   0  0  0  0  0  0  0  0  0  0  0  0
   -4.6840   17.1430  -33.1180 C   0  0  0  0  0  0  0  0  0  0  0  0
   -4.9640   17.9350  -34.2360 C   0  0  0  0  0  0  0  0  0  0  0  0
   -6.0660   18.7960  -34.2260 C   0  0  0  0  0  0  0  0  0  0  0  0
   -7.9780   22.1350  -31.3440 C   0  0  0  0  0  0  0  0  0  0  0  0
   -9.6480   21.9230  -30.8380 Cl  0  0  0  0  0  0  0  0  0  0  0  0
   -7.2270   23.1650  -30.7650 C   0  0  0  0  0  0  0  0  0  0  0  0
   -6.0740   24.3610  -28.4640 H   0  0  0  0  0  0  0  0  0  0  0  0
   -4.8430   25.4880  -28.3000 H   0  0  0  0  0  0  0  0  0  0  0  0
   -4.2781   22.7201  -32.4367 H   0  0  0  0  0  0  0  0  0  0  0  0
   -5.6088   20.8926  -33.4831 H   0  0  0  0  0  0  0  0  0  0  0  0
   -7.2470   18.1348  -31.0841 H   0  0  0  0  0  0  0  0  0  0  0  0
   -5.2841   16.5919  -31.1081 H   0  0  0  0  0  0  0  0  0  0  0  0
   -3.8183   16.4644  -33.1273 H   0  0  0  0  0  0  0  0  0  0  0  0
   -4.3170   17.8807  -35.1239 H   0  0  0  0  0  0  0  0  0  0  0  0
   -6.2824   19.4219  -35.1043 H   0  0  0  0  0  0  0  0  0  0  0  0
   -7.6819   23.8074  -29.9967 H   0  0  0  0  0  0  0  0  0  0  0  0
  1  2  1  0
  2  3  2  0
  2  4  2  0
  2  5  1  0
  5  6  2  0
  6  7  1  0
  7  8  2  0
  8  9  1  0
  9 10  1  0
 10 11  2  0
 11 12  1  0
 12 13  2  0
 13 14  1  0
 14 15  2  0
  8 16  1  0
 16 17  1  0
 16 18  2  0
 18  5  1  0
 15 10  1  0
  1 19  1  0
  1 20  1  0
  6 21  1  0
  7 22  1  0
 11 23  1  0
 12 24  1  0
 13 25  1  0
 14 26  1  0
 15 27  1  0
 18 28  1  0
M  END
>  <UniqueID>  (21) 
21

>  <SMILES>  (21) 
NS(=O)(=O)c1ccc(Sc2ccccc2)c(Cl)c1

>  <Energy>  (21) 
23.511072281781896

>  <Genealogy>  (21) 
NS(=O)(=O)c1ccc(Sc2ccccc2)c(Cl)c1 (3D coordinates assigned)
NS(=O)(=O)c1ccc(Sc2ccccc2)c(Cl)c1 (optimized conformer: 23.511072281781896 kcal/mol)

>  <smiles>  (21) 
NS(=O)(=O)c1ccc(Sc2ccccc2)c(Cl)c1

>  <score_type>  (21) 
oracle

>  <origin>  (21) 
adgpu

>  <m_score__min__energy>  (21) 
-9.0500000000000007

>  <m_primary>  (21) 
energy

$$$$
21:0
     RDKit          3D

 37 39  0  0  0  0  0  0  0  0999 V2000
   -1.2270   25.8830  -25.8190 C   0  0  0  0  0  0  0  0  0  0  0  0
   -0.3320   26.5890  -26.8310 C   0  0  0  0  0  0  0  0  0  0  0  0
    0.2120   25.6550  -27.7650 O   0  0  0  0  0  0  0  0  0  0  0  0
   -0.4540   24.5370  -28.2950 C   0  0  0  0  0  0  0  0  0  0  0  0
   -1.6860   24.6430  -28.9720 C   0  0  0  0  0  0  0  0  0  0  0  0
   -2.3240   23.5030  -29.4870 C   0  0  0  0  0  0  0  0  0  0  0  0
   -3.6120   23.6280  -30.1970 C   0  0  0  0  0  0  0  0  0  0  0  0
   -4.5220   22.6400  -30.3000 N   0  0  0  0  0  0  0  0  0  0  0  0
   -5.4940   23.2390  -31.0220 C   0  0  0  0  0  0  0  0  0  0  0  0
   -6.7510   22.5730  -31.4240 C   0  0  0  0  0  0  0  0  0  0  0  0
   -7.9310   23.3180  -31.5850 C   0  0  0  0  0  0  0  0  0  0  0  0
   -9.1170   22.6880  -31.9640 C   0  0  0  0  0  0  0  0  0  0  0  0
   -9.1430   21.3100  -32.1860 C   0  0  0  0  0  0  0  0  0  0  0  0
   -7.9750   20.5430  -32.0320 C   0  0  0  0  0  0  0  0  0  0  0  0
   -7.9960   19.1210  -32.2600 N   0  0  0  0  0  0  0  0  0  0  0  0
   -7.1920   18.5940  -33.0570 O   0  0  0  0  0  0  0  0  0  0  0  0
   -8.9020   18.3190  -31.6040 O   0  0  0  0  0  0  0  0  0  0  0  0
   -6.7820   21.1840  -31.6500 C   0  0  0  0  0  0  0  0  0  0  0  0
   -5.1850   24.5130  -31.3350 N   0  0  0  0  0  0  0  0  0  0  0  0
   -4.0160   24.7150  -30.8080 O   0  0  0  0  0  0  0  0  0  0  0  0
   -1.7230   22.2470  -29.3190 C   0  0  0  0  0  0  0  0  0  0  0  0
   -0.5060   22.1330  -28.6450 C   0  0  0  0  0  0  0  0  0  0  0  0
    0.1300   23.2670  -28.1330 C   0  0  0  0  0  0  0  0  0  0  0  0
    1.3460   23.1120  -27.4660 O   0  0  0  0  0  0  0  0  0  0  0  0
   -0.9017   26.1396  -24.8000 H   0  0  0  0  0  0  0  0  0  0  0  0
   -2.2688   26.2051  -25.9634 H   0  0  0  0  0  0  0  0  0  0  0  0
   -1.1563   24.7948  -25.9634 H   0  0  0  0  0  0  0  0  0  0  0  0
   -0.9245   27.3394  -27.3749 H   0  0  0  0  0  0  0  0  0  0  0  0
    0.4964   27.0725  -26.2924 H   0  0  0  0  0  0  0  0  0  0  0  0
   -2.1532   25.6308  -29.0984 H   0  0  0  0  0  0  0  0  0  0  0  0
   -7.9200   24.4041  -31.4113 H   0  0  0  0  0  0  0  0  0  0  0  0
  -10.0358   23.2800  -32.0884 H   0  0  0  0  0  0  0  0  0  0  0  0
  -10.0828   20.8216  -32.4831 H   0  0  0  0  0  0  0  0  0  0  0  0
   -5.8627   20.5926  -31.5265 H   0  0  0  0  0  0  0  0  0  0  0  0
   -2.2129   21.3476  -29.7202 H   0  0  0  0  0  0  0  0  0  0  0  0
   -0.0441   21.1430  -28.5159 H   0  0  0  0  0  0  0  0  0  0  0  0
    1.8390   23.8950  -27.0540 H   0  0  0  0  0  0  0  0  0  0  0  0
  1  2  1  0
  2  3  1  0
  3  4  1  0
  4  5  2  0
  5  6  1  0
  6  7  1  0
  7  8  2  0
  8  9  1  0
  9 10  1  0
 10 11  2  0
 11 12  1  0
 12 13  2  0
 13 14  1  0
 14 15  1  0
 15 16  2  0
 15 17  1  0
 14 18  2  0
  9 19  2  0
 19 20  1  0
  6 21  2  0
 21 22  1  0
 22 23  2  0
 23 24  1  0
 23  4  1  0
 20  7  1  0
 18 10  1  0
  1 25  1  0
  1 26  1  0
  1 27  1  0
  2 28  1  0
  2 29  1  0
  5 30  1  0
 11 31  1  0
 12 32  1  0
 13 33  1  0
 18 34  1  0
 21 35  1  0
 22 36  1  0
 24 37  1  0
M  CHG  2  15   1  17  -1
M  END
>  <UniqueID>  (22) 
22

>  <SMILES>  (22) 
CCOc1cc(-c2nc(-c3cccc([N+](=O)[O-])c3)no2)ccc1O

>  <Energy>  (22) 
72.67874418942293

>  <Genealogy>  (22) 
CCOc1cc(-c2nc(-c3cccc([N+](=O)[O-])c3)no2)ccc1O (3D coordinates assigned)
CCOc1cc(-c2nc(-c3cccc([N+](=O)[O-])c3)no2)ccc1O (optimized conformer: 72.67874418942293 kcal/mol)

>  <smiles>  (22) 
CCOc1cc(-c2nc(-c3cccc([N+](=O)[O-])c3)no2)ccc1O

>  <score_type>  (22) 
oracle

>  <origin>  (22) 
adgpu

>  <m_score__min__energy>  (22) 
-8.3900000000000006

>  <m_primary>  (22) 
energy

$$$$
22:0
     RDKit          3D

 43 46  0  0  0  0  0  0  0  0999 V2000
   -9.1800   18.1800  -31.5880 C   0  0  0  0  0  0  0  0  0  0  0  0
   -8.4100   19.4570  -31.7480 C   0  0  0  0  0  0  0  0  0  0  0  0
   -9.0280   20.6880  -31.4940 C   0  0  0  0  0  0  0  0  0  0  0  0
   -8.3050   21.8780  -31.6110 C   0  0  0  0  0  0  0  0  0  0  0  0
   -6.9420   21.8540  -31.9680 C   0  0  0  0  0  0  0  0  0  0  0  0
   -6.1960   23.0360  -32.1360 O   0  0  0  0  0  0  0  0  0  0  0  0
   -6.4780   24.2910  -31.5220 C   0  0  0  0  0  0  0  0  0  0  0  0
   -5.2320   24.9520  -31.1180 C   0  0  0  0  0  0  0  0  0  0  0  0
   -4.2480   25.4710  -30.8010 N   0  0  0  0  0  0  0  0  0  0  0  0
   -6.3080   20.6130  -32.1820 C   0  0  0  0  0  0  0  0  0  0  0  0
   -4.8680   20.5400  -32.5120 C   0  0  0  0  0  0  0  0  0  0  0  0
   -4.4020   19.7120  -33.5550 C   0  0  0  0  0  0  0  0  0  0  0  0
   -3.0230   19.6610  -33.8580 C   0  0  0  0  0  0  0  0  0  0  0  0
   -2.1270   20.4040  -33.1430 N   0  0  0  0  0  0  0  0  0  0  0  0
   -2.5780   21.1910  -32.1350 C   0  0  0  0  0  0  0  0  0  0  0  0
   -1.8210   21.9540  -31.3330 N   0  0  0  0  0  0  0  0  0  0  0  0
   -2.6890   22.5300  -30.4650 C   0  0  0  0  0  0  0  0  0  0  0  0
   -2.2870   23.4610  -29.3980 C   0  0  0  0  0  0  0  0  0  0  0  0
   -1.0740   24.1150  -29.2660 C   0  0  0  0  0  0  0  0  0  0  0  0
   -1.0940   24.8600  -28.1430 N   0  0  0  0  0  0  0  0  0  0  0  0
   -2.2820   24.7040  -27.5800 N   0  0  0  0  0  0  0  0  0  0  0  0
   -2.6620   25.3010  -26.3080 C   0  0  0  0  0  0  0  0  0  0  0  0
   -3.0300   23.8520  -28.3030 C   0  0  0  0  0  0  0  0  0  0  0  0
   -3.9970   22.1220  -30.7230 C   0  0  0  0  0  0  0  0  0  0  0  0
   -3.9030   21.2700  -31.8070 C   0  0  0  0  0  0  0  0  0  0  0  0
   -7.0490   19.4230  -32.0770 C   0  0  0  0  0  0  0  0  0  0  0  0
   -9.3111   17.9625  -30.5177 H   0  0  0  0  0  0  0  0  0  0  0  0
  -10.1660   18.2842  -32.0645 H   0  0  0  0  0  0  0  0  0  0  0  0
   -8.6277   17.3566  -32.0645 H   0  0  0  0  0  0  0  0  0  0  0  0
  -10.0878   20.7181  -31.2009 H   0  0  0  0  0  0  0  0  0  0  0  0
   -8.8034   22.8404  -31.4231 H   0  0  0  0  0  0  0  0  0  0  0  0
   -7.0137   24.9326  -32.2371 H   0  0  0  0  0  0  0  0  0  0  0  0
   -7.0984   24.1212  -30.6297 H   0  0  0  0  0  0  0  0  0  0  0  0
   -5.1139   19.1049  -34.1335 H   0  0  0  0  0  0  0  0  0  0  0  0
   -2.6679   19.0176  -34.6765 H   0  0  0  0  0  0  0  0  0  0  0  0
   -0.7840   22.0690  -31.3720 H   0  0  0  0  0  0  0  0  0  0  0  0
   -0.2288   24.0388  -29.9659 H   0  0  0  0  0  0  0  0  0  0  0  0
   -2.2711   24.6868  -25.4834 H   0  0  0  0  0  0  0  0  0  0  0  0
   -2.2434   26.3159  -26.2397 H   0  0  0  0  0  0  0  0  0  0  0  0
   -3.7587   25.3514  -26.2397 H   0  0  0  0  0  0  0  0  0  0  0  0
   -4.0526   23.5248  -28.0640 H   0  0  0  0  0  0  0  0  0  0  0  0
   -4.9079   22.4152  -30.1804 H   0  0  0  0  0  0  0  0  0  0  0  0
   -6.5554   18.4562  -32.2549 H   0  0  0  0  0  0  0  0  0  0  0  0
  1  2  1  0
  2  3  2  0
  3  4  1  0
  4  5  2  0
  5  6  1  0
  6  7  1  0
  7  8  1  0
  8  9  3  0
  5 10  1  0
 10 11  1  0
 11 12  2  0
 12 13  1  0
 13 14  2  0
 14 15  1  0
 15 16  1  0
 16 17  1  0
 17 18  1  0
 18 19  1  0
 19 20  2  0
 20 21  1  0
 21 22  1  0
 21 23  1  0
 17 24  2  0
 24 25  1  0
 10 26  2  0
 26  2  1  0
 25 11  1  0
 25 15  2  0
 23 18  2  0
  1 27  1  0
  1 28  1  0
  1 29  1  0
  3 30  1  0
  4 31  1  0
  7 32  1  0
  7 33  1  0
 12 34  1  0
 13 35  1  0
 16 36  1  0
 19 37  1  0
 22 38  1  0
 22 39  1  0
 22 40  1  0
 23 41  1  0
 24 42  1  0
 26 43  1  0
M  END
>  <UniqueID>  (23) 
23

>  <SMILES>  (23) 
Cc1ccc(OCC#N)c(-c2ccnc3[nH]c(-c4cnn(C)c4)cc23)c1

>  <Energy>  (23) 
114.32459003715778

>  <Genealogy>  (23) 
Cc1ccc(OCC#N)c(-c2ccnc3[nH]c(-c4cnn(C)c4)cc23)c1 (3D coordinates assigned)
Cc1ccc(OCC#N)c(-c2ccnc3[nH]c(-c4cnn(C)c4)cc23)c1 (optimized conformer: 114.32459003715778 kcal/mol)

>  <smiles>  (23) 
Cc1ccc(OCC#N)c(-c2ccnc3[nH]c(-c4cnn(C)c4)cc23)c1

>  <score_type>  (23) 
oracle

>  <origin>  (23) 
adgpu

>  <m_score__min__energy>  (23) 
-8.6500000000000004

>  <m_primary>  (23) 
energy

$$$$
23:0
     RDKit          3D

 54 57  0  0  0  0  0  0  0  0999 V2000
   -0.1230   22.0310  -27.2490 C   0  0  0  0  0  0  0  0  0  0  0  0
   -1.2880   22.9080  -27.0490 N   0  0  0  0  0  0  0  0  0  0  0  0
   -1.0930   24.2170  -27.7290 C   0  0  0  0  0  0  0  0  0  0  0  0
   -1.9050   24.3150  -29.0180 C   0  0  0  0  0  0  0  0  0  0  0  0
   -3.3430   24.2290  -28.7080 N   0  0  0  0  0  0  0  0  0  0  0  0
   -4.3080   24.2380  -30.1710 S   0  0  0  0  0  0  0  0  0  0  0  0
   -4.6020   25.6440  -30.6230 O   0  0  0  0  0  0  0  0  0  0  0  0
   -3.5070   23.5580  -31.2510 O   0  0  0  0  0  0  0  0  0  0  0  0
   -5.7900   23.3520  -29.9560 N   0  0  0  0  0  0  0  0  0  0  0  0
   -6.6300   23.4530  -31.1540 C   0  0  0  0  0  0  0  0  0  0  0  0
   -5.9060   22.8370  -32.3570 C   0  0  0  0  0  0  0  0  0  0  0  0
   -5.9970   21.3300  -32.3410 C   0  0  0  0  0  0  0  0  0  0  0  0
   -4.9550   20.4090  -32.1240 C   0  0  0  0  0  0  0  0  0  0  0  0
   -3.5130   20.7270  -32.0120 C   0  0  0  0  0  0  0  0  0  0  0  0
   -2.7610   21.0230  -33.1660 C   0  0  0  0  0  0  0  0  0  0  0  0
   -1.3900   21.2840  -33.0700 C   0  0  0  0  0  0  0  0  0  0  0  0
   -0.7620   21.2790  -31.8200 C   0  0  0  0  0  0  0  0  0  0  0  0
   -1.5090   21.0270  -30.6660 C   0  0  0  0  0  0  0  0  0  0  0  0
   -2.8780   20.7610  -30.7610 C   0  0  0  0  0  0  0  0  0  0  0  0
   -5.4530   19.1610  -31.9480 N   0  0  0  0  0  0  0  0  0  0  0  0
   -6.7840   19.2720  -32.0380 C   0  0  0  0  0  0  0  0  0  0  0  0
   -7.7240   18.2590  -31.8700 C   0  0  0  0  0  0  0  0  0  0  0  0
   -9.0830   18.6060  -31.9380 C   0  0  0  0  0  0  0  0  0  0  0  0
   -9.4720   19.9480  -32.1630 C   0  0  0  0  0  0  0  0  0  0  0  0
   -8.5030   20.9540  -32.3290 C   0  0  0  0  0  0  0  0  0  0  0  0
   -7.1600   20.5790  -32.2720 C   0  0  0  0  0  0  0  0  0  0  0  0
   -3.6990   23.1640  -27.7360 C   0  0  0  0  0  0  0  0  0  0  0  0
   -2.5370   22.1990  -27.4290 C   0  0  0  0  0  0  0  0  0  0  0  0
    0.2798   21.7278  -26.2714 H   0  0  0  0  0  0  0  0  0  0  0  0
   -0.4292   21.1373  -27.8126 H   0  0  0  0  0  0  0  0  0  0  0  0
    0.6511   22.5725  -27.8126 H   0  0  0  0  0  0  0  0  0  0  0  0
   -1.4077   25.0218  -27.0483 H   0  0  0  0  0  0  0  0  0  0  0  0
   -0.0282   24.3112  -27.9887 H   0  0  0  0  0  0  0  0  0  0  0  0
   -1.6941   25.2757  -29.5106 H   0  0  0  0  0  0  0  0  0  0  0  0
   -1.6269   23.4873  -29.6871 H   0  0  0  0  0  0  0  0  0  0  0  0
   -5.5310   22.3480  -29.8220 H   0  0  0  0  0  0  0  0  0  0  0  0
   -7.5743   22.9153  -30.9829 H   0  0  0  0  0  0  0  0  0  0  0  0
   -6.8362   24.5134  -31.3615 H   0  0  0  0  0  0  0  0  0  0  0  0
   -6.3655   23.2137  -33.2828 H   0  0  0  0  0  0  0  0  0  0  0  0
   -4.8445   23.1207  -32.3052 H   0  0  0  0  0  0  0  0  0  0  0  0
   -3.2549   21.0490  -34.1485 H   0  0  0  0  0  0  0  0  0  0  0  0
   -0.8054   21.4933  -33.9780 H   0  0  0  0  0  0  0  0  0  0  0  0
    0.3182   21.4731  -31.7455 H   0  0  0  0  0  0  0  0  0  0  0  0
   -1.0188   21.0380  -29.6813 H   0  0  0  0  0  0  0  0  0  0  0  0
   -3.4625   20.5768  -29.8475 H   0  0  0  0  0  0  0  0  0  0  0  0
   -4.9110   18.2840  -31.7510 H   0  0  0  0  0  0  0  0  0  0  0  0
   -7.4121   17.2197  -31.6897 H   0  0  0  0  0  0  0  0  0  0  0  0
   -9.8514   17.8285  -31.8154 H   0  0  0  0  0  0  0  0  0  0  0  0
  -10.5403   20.2063  -32.2084 H   0  0  0  0  0  0  0  0  0  0  0  0
   -8.7941   22.0012  -32.4981 H   0  0  0  0  0  0  0  0  0  0  0  0
   -4.0130   23.6412  -26.7960 H   0  0  0  0  0  0  0  0  0  0  0  0
   -4.5040   22.5674  -28.1899 H   0  0  0  0  0  0  0  0  0  0  0  0
   -2.8352   21.5420  -26.5987 H   0  0  0  0  0  0  0  0  0  0  0  0
   -2.3289   21.6274  -28.3455 H   0  0  0  0  0  0  0  0  0  0  0  0
  1  2  1  0
  2  3  1  0
  3  4  1  0
  4  5  1  0
  5  6  1  0
  6  7  2  0
  6  8  2  0
  6  9  1  0
  9 10  1  0
 10 11  1  0
 11 12  1  0
 12 13  2  0
 13 14  1  0
 14 15  2  0
 15 16  1  0
 16 17  2  0
 17 18  1  0
 18 19  2  0
 13 20  1  0
 20 21  1  0
 21 22  2  0
 22 23  1  0
 23 24  2  0
 24 25  1  0
 25 26  2  0
  5 27  1  0
 27 28  1  0
 28  2  1  0
 26 12  1  0
 19 14  1  0
 26 21  1  0
  1 29  1  0
  1 30  1  0
  1 31  1  0
  3 32  1  0
  3 33  1  0
  4 34  1  0
  4 35  1  0
  9 36  1  0
 10 37  1  0
 10 38  1  0
 11 39  1  0
 11 40  1  0
 15 41  1  0
 16 42  1  0
 17 43  1  0
 18 44  1  0
 19 45  1  0
 20 46  1  0
 22 47  1  0
 23 48  1  0
 24 49  1  0
 25 50  1  0
 27 51  1  0
 27 52  1  0
 28 53  1  0
 28 54  1  0
M  END
>  <UniqueID>  (24) 
24

>  <SMILES>  (24) 
CN1CCN(S(=O)(=O)NCCc2c(-c3ccccc3)[nH]c3ccccc23)CC1

>  <Energy>  (24) 
101.26695779804152

>  <Genealogy>  (24) 
CN1CCN(S(=O)(=O)NCCc2c(-c3ccccc3)[nH]c3ccccc23)CC1 (3D coordinates assigned)
CN1CCN(S(=O)(=O)NCCc2c(-c3ccccc3)[nH]c3ccccc23)CC1 (nonaromatic ring conformer: 101.26695779804152 kcal/mol)

>  <smiles>  (24) 
CN1CCN(S(=O)(=O)NCCc2c(-c3ccccc3)[nH]c3ccccc23)CC1

>  <score_type>  (24) 
oracle

>  <origin>  (24) 
adgpu

>  <m_score__min__energy>  (24) 
-9.9600000000000009

>  <m_primary>  (24) 
energy

$$$$
24:0
     RDKit          3D

 52 56  0  0  0  0  0  0  0  0999 V2000
   -4.5890   25.8220  -29.9330 H   0  0  0  0  0  0  0  0  0  0  0  0
   -3.7080   25.2930  -29.7440 N   0  0  0  0  0  0  0  0  0  0  0  0
   -3.4480   24.1700  -30.3350 C   0  0  0  0  0  0  0  0  0  0  0  0
   -4.3470   23.6660  -31.2240 N   0  0  0  0  0  0  0  0  0  0  0  0
   -4.1450   22.4940  -31.8780 C   0  0  0  0  0  0  0  0  0  0  0  0
   -4.9027   22.1230  -32.5838 H   0  0  0  0  0  0  0  0  0  0  0  0
   -2.9760   21.7550  -31.6580 C   0  0  0  0  0  0  0  0  0  0  0  0
   -2.7440   20.4680  -32.3560 C   0  0  0  0  0  0  0  0  0  0  0  0
   -1.9550   19.4670  -31.7640 C   0  0  0  0  0  0  0  0  0  0  0  0
   -1.4620   19.6598  -30.7997 H   0  0  0  0  0  0  0  0  0  0  0  0
   -1.7920   18.2300  -32.3900 C   0  0  0  0  0  0  0  0  0  0  0  0
   -1.1621   17.4586  -31.9230 H   0  0  0  0  0  0  0  0  0  0  0  0
   -2.4270   17.9670  -33.6100 C   0  0  0  0  0  0  0  0  0  0  0  0
   -2.3560   16.3500  -34.3150 S   0  0  0  0  0  0  0  0  0  0  0  0
   -1.0980   15.6650  -33.8560 O   0  0  0  0  0  0  0  0  0  0  0  0
   -2.3010   16.4620  -35.8130 O   0  0  0  0  0  0  0  0  0  0  0  0
   -3.7610   15.3990  -33.8690 N   0  0  0  0  0  0  0  0  0  0  0  0
   -4.9830   15.9100  -34.5300 C   0  0  0  0  0  0  0  0  0  0  0  0
   -5.7202   15.0963  -34.5970 H   0  0  0  0  0  0  0  0  0  0  0  0
   -4.7082   16.2723  -35.5316 H   0  0  0  0  0  0  0  0  0  0  0  0
   -5.5860   17.0540  -33.7630 C   0  0  0  0  0  0  0  0  0  0  0  0
   -6.0870   18.1990  -34.4030 C   0  0  0  0  0  0  0  0  0  0  0  0
   -6.0691   18.2695  -35.5006 H   0  0  0  0  0  0  0  0  0  0  0  0
   -6.6090   19.2500  -33.6410 C   0  0  0  0  0  0  0  0  0  0  0  0
   -6.9853   20.1555  -34.1394 H   0  0  0  0  0  0  0  0  0  0  0  0
   -6.6530   19.1510  -32.2470 C   0  0  0  0  0  0  0  0  0  0  0  0
   -7.0609   19.9801  -31.6502 H   0  0  0  0  0  0  0  0  0  0  0  0
   -6.1790   17.9990  -31.6100 C   0  0  0  0  0  0  0  0  0  0  0  0
   -6.2291   17.9149  -30.5144 H   0  0  0  0  0  0  0  0  0  0  0  0
   -5.6400   16.9520  -32.3710 C   0  0  0  0  0  0  0  0  0  0  0  0
   -5.1680   15.6750  -31.7450 C   0  0  0  0  0  0  0  0  0  0  0  0
   -5.9400   14.9027  -31.8773 H   0  0  0  0  0  0  0  0  0  0  0  0
   -4.9833   15.8563  -30.6759 H   0  0  0  0  0  0  0  0  0  0  0  0
   -3.8540   15.1920  -32.3960 C   0  0  0  0  0  0  0  0  0  0  0  0
   -3.7515   14.1151  -32.1967 H   0  0  0  0  0  0  0  0  0  0  0  0
   -3.0522   15.7999  -31.9515 H   0  0  0  0  0  0  0  0  0  0  0  0
   -3.1840   18.9730  -34.2240 C   0  0  0  0  0  0  0  0  0  0  0  0
   -3.6579   18.7840  -35.1985 H   0  0  0  0  0  0  0  0  0  0  0  0
   -3.3400   20.2160  -33.6040 C   0  0  0  0  0  0  0  0  0  0  0  0
   -3.9326   21.0016  -34.0955 H   0  0  0  0  0  0  0  0  0  0  0  0
   -2.0330   22.2530  -30.7460 C   0  0  0  0  0  0  0  0  0  0  0  0
   -1.1084   21.6871  -30.5596 H   0  0  0  0  0  0  0  0  0  0  0  0
   -2.2520   23.4640  -30.0670 C   0  0  0  0  0  0  0  0  0  0  0  0
   -1.2310   23.9470  -29.0980 C   0  0  0  0  0  0  0  0  0  0  0  0
   -0.5440   23.1310  -28.2720 N   0  0  0  0  0  0  0  0  0  0  0  0
    0.2340   24.0030  -27.6020 C   0  0  0  0  0  0  0  0  0  0  0  0
    1.2470   23.5940  -26.5880 C   0  0  0  0  0  0  0  0  0  0  0  0
    0.8420   23.7575  -25.5784 H   0  0  0  0  0  0  0  0  0  0  0  0
    1.4871   22.5285  -26.7186 H   0  0  0  0  0  0  0  0  0  0  0  0
    2.1596   24.1941  -26.7186 H   0  0  0  0  0  0  0  0  0  0  0  0
    0.0520   25.2720  -28.0040 N   0  0  0  0  0  0  0  0  0  0  0  0
   -0.8770   25.2380  -28.9430 N   0  0  0  0  0  0  0  0  0  0  0  0
  1  2  1  0
  2  3  2  0
  3  4  1  0
  4  5  1  0
  5  6  1  0
  5  7  2  0
  7  8  1  0
  8  9  2  0
  9 10  1  0
  9 11  1  0
 11 12  1  0
 11 13  2  0
 13 14  1  0
 14 15  2  0
 14 16  2  0
 14 17  1  0
 17 18  1  0
 18 19  1  0
 18 20  1  0
 18 21  1  0
 21 22  2  0
 22 23  1  0
 22 24  1  0
 24 25  1  0
 24 26  2  0
 26 27  1  0
 26 28  1  0
 28 29  1  0
 28 30  2  0
 30 31  1  0
 31 32  1  0
 31 33  1  0
 31 34  1  0
 34 35  1  0
 34 36  1  0
 13 37  1  0
 37 38  1  0
 37 39  2  0
 39 40  1  0
  7 41  1  0
 41 42  1  0
 41 43  2  0
 43 44  1  0
 44 45  2  0
 45 46  1  0
 46 47  1  0
 47 48  1  0
 47 49  1  0
 47 50  1  0
 46 51  2  0
 51 52  1  0
 43  3  1  0
 52 44  1  0
 39  8  1  0
 34 17  1  0
 30 21  1  0
M  CHG  2   4  -1  52  -1
M  END
>  <UniqueID>  (25) 
25

>  <SMILES>  (25) 
[H]/N=c1\[n-]cc(-c2ccc(S(=O)(=O)N3CCc4ccccc4C3)cc2)cc1-c1nc(C)n[n-]1

>  <Energy>  (25) 
102.5121951215195

>  <Genealogy>  (25) 
Cc1n[n-]c(-c2cc(-c3ccc(S(=O)(=O)N4CCc5ccccc5C4)cc3)c[n-]c2=N)n1 (protonated)
[H]/N=c1\[n-]cc(-c2ccc(S(=O)(=O)N3CCc4ccccc4C3)cc2)cc1-c1nc(C)n[n-]1 (cis-trans isomerization)
[H]/N=c1\[n-]cc(-c2ccc(S(=O)(=O)N3CCc4ccccc4C3)cc2)cc1-c1nc(C)n[n-]1 (3D coordinates assigned)
[H]/N=c1\[n-]cc(-c2ccc(S(=O)(=O)N3CCc4ccccc4C3)cc2)cc1-c1nc(C)n[n-]1 (nonaromatic ring conformer: 102.5121951215195 kcal/mol)

>  <smiles>  (25) 
Cc1n[nH]c(-c2cc(-c3ccc(S(=O)(=O)N4CCc5ccccc5C4)cc3)c[nH]c2=N)n1

>  <score_type>  (25) 
oracle

>  <origin>  (25) 
adgpu

>  <m_score__min__energy>  (25) 
-11.970000000000001

>  <m_primary>  (25) 
energy

$$$$
25:0
     RDKit          3D

 35 36  0  0  0  0  0  0  0  0999 V2000
   -8.4280   19.8140  -34.1310 H   0  0  0  0  0  0  0  0  0  0  0  0
   -8.5540   20.0430  -33.1540 O   0  0  0  0  0  0  0  0  0  0  0  0
   -7.6290   20.7880  -32.4160 C   0  0  0  0  0  0  0  0  0  0  0  0
   -6.2370   20.6250  -32.6000 C   0  0  0  0  0  0  0  0  0  0  0  0
   -5.6960   19.6410  -33.6020 C   0  0  0  0  0  0  0  0  0  0  0  0
   -5.2315   18.7962  -33.0723 H   0  0  0  0  0  0  0  0  0  0  0  0
   -6.5176   19.2711  -34.2330 H   0  0  0  0  0  0  0  0  0  0  0  0
   -4.9435   20.1365  -34.2330 H   0  0  0  0  0  0  0  0  0  0  0  0
   -5.3440   21.3900  -31.8330 C   0  0  0  0  0  0  0  0  0  0  0  0
   -4.2609   21.2562  -31.9708 H   0  0  0  0  0  0  0  0  0  0  0  0
   -5.8090   22.3210  -30.8950 C   0  0  0  0  0  0  0  0  0  0  0  0
   -4.8150   23.0900  -30.1050 C   0  0  0  0  0  0  0  0  0  0  0  0
   -4.0427   23.6538  -30.6487 H   0  0  0  0  0  0  0  0  0  0  0  0
   -4.8070   23.1350  -28.7640 C   0  0  0  0  0  0  0  0  0  0  0  0
   -5.5793   22.5712  -28.2203 H   0  0  0  0  0  0  0  0  0  0  0  0
   -3.8130   23.9040  -27.9740 C   0  0  0  0  0  0  0  0  0  0  0  0
   -4.2450   24.5560  -26.8090 C   0  0  0  0  0  0  0  0  0  0  0  0
   -5.2986   24.4828  -26.5015 H   0  0  0  0  0  0  0  0  0  0  0  0
   -3.3480   25.2970  -26.0370 C   0  0  0  0  0  0  0  0  0  0  0  0
   -3.6955   25.7943  -25.1194 H   0  0  0  0  0  0  0  0  0  0  0  0
   -2.0130   25.4090  -26.4250 C   0  0  0  0  0  0  0  0  0  0  0  0
   -1.3122   25.9918  -25.8092 H   0  0  0  0  0  0  0  0  0  0  0  0
   -1.5570   24.7820  -27.5980 C   0  0  0  0  0  0  0  0  0  0  0  0
   -0.1840   24.9090  -28.0110 N   0  0  0  0  0  0  0  0  0  0  0  0
    0.5530   25.7850  -27.5120 O   0  0  0  0  0  0  0  0  0  0  0  0
    0.3450   24.0600  -28.9580 O   0  0  0  0  0  0  0  0  0  0  0  0
   -2.4670   24.0350  -28.3710 C   0  0  0  0  0  0  0  0  0  0  0  0
   -2.1232   23.5481  -29.2955 H   0  0  0  0  0  0  0  0  0  0  0  0
   -7.1960   22.4640  -30.7060 C   0  0  0  0  0  0  0  0  0  0  0  0
   -7.5725   23.1712  -29.9522 H   0  0  0  0  0  0  0  0  0  0  0  0
   -8.1040   21.7140  -31.4690 C   0  0  0  0  0  0  0  0  0  0  0  0
   -9.5820   21.8720  -31.2450 C   0  0  0  0  0  0  0  0  0  0  0  0
   -9.7888   21.8941  -30.1649 H   0  0  0  0  0  0  0  0  0  0  0  0
   -9.9239   22.8118  -31.7031 H   0  0  0  0  0  0  0  0  0  0  0  0
  -10.1148   21.0257  -31.7031 H   0  0  0  0  0  0  0  0  0  0  0  0
  1  2  1  0
  2  3  1  0
  3  4  2  0
  4  5  1  0
  5  6  1  0
  5  7  1  0
  5  8  1  0
  4  9  1  0
  9 10  1  0
  9 11  2  0
 11 12  1  0
 12 13  1  0
 12 14  2  0
 14 15  1  0
 14 16  1  0
 16 17  2  0
 17 18  1  0
 17 19  1  0
 19 20  1  0
 19 21  2  0
 21 22  1  0
 21 23  1  0
 23 24  1  0
 24 25  2  0
 24 26  1  0
 23 27  2  0
 27 28  1  0
 11 29  1  0
 29 30  1  0
 29 31  2  0
 31 32  1  0
 32 33  1  0
 32 34  1  0
 32 35  1  0
 31  3  1  0
 27 16  1  0
M  CHG  2  24   1  26  -1
M  END
>  <UniqueID>  (26) 
26

>  <SMILES>  (26) 
Cc1cc(/C=C/c2cccc([N+](=O)[O-])c2)cc(C)c1O

>  <Energy>  (26) 
42.35920367287232

>  <Genealogy>  (26) 
Cc1cc(/C=C/c2cccc([N+](=O)[O-])c2)cc(C)c1O (cis-trans isomerization)
Cc1cc(/C=C/c2cccc([N+](=O)[O-])c2)cc(C)c1O (3D coordinates assigned)
Cc1cc(/C=C/c2cccc([N+](=O)[O-])c2)cc(C)c1O (optimized conformer: 42.35920367287232 kcal/mol)

>  <smiles>  (26) 
Cc1cc(C=Cc2cccc([N+](=O)[O-])c2)cc(C)c1O

>  <score_type>  (26) 
oracle

>  <origin>  (26) 
adgpu

>  <m_score__min__energy>  (26) 
-7.7300000000000004

>  <m_primary>  (26) 
energy

$$$$
26:0
     RDKit          3D

 59 63  0  0  0  0  0  0  0  0999 V2000
   -8.7990   21.7730  -31.5960 O   0  0  0  0  0  0  0  0  0  0  0  0
   -7.5710   21.5460  -31.7710 C   0  0  0  0  0  0  0  0  0  0  0  0
   -7.1550   20.2290  -32.3170 C   0  0  0  0  0  0  0  0  0  0  0  0
   -6.4130   20.1330  -33.5120 C   0  0  0  0  0  0  0  0  0  0  0  0
   -5.9970   18.8880  -33.9900 C   0  0  0  0  0  0  0  0  0  0  0  0
   -6.2860   17.7180  -33.2670 C   0  0  0  0  0  0  0  0  0  0  0  0
   -5.8720   16.4530  -33.7090 O   0  0  0  0  0  0  0  0  0  0  0  0
   -4.5520   16.0840  -34.0150 C   0  0  0  0  0  0  0  0  0  0  0  0
   -3.6690   15.8210  -32.9610 C   0  0  0  0  0  0  0  0  0  0  0  0
   -2.3370   15.4830  -33.2210 C   0  0  0  0  0  0  0  0  0  0  0  0
   -1.8750   15.3850  -34.5380 C   0  0  0  0  0  0  0  0  0  0  0  0
   -0.5350   15.0410  -34.7690 O   0  0  0  0  0  0  0  0  0  0  0  0
    0.5240   15.9600  -34.7710 C   0  0  0  0  0  0  0  0  0  0  0  0
    1.0720   16.4480  -33.5750 C   0  0  0  0  0  0  0  0  0  0  0  0
    2.1250   17.3640  -33.6040 C   0  0  0  0  0  0  0  0  0  0  0  0
    2.6520   17.8010  -34.8300 C   0  0  0  0  0  0  0  0  0  0  0  0
    3.8130   18.7610  -34.8570 C   0  0  0  0  0  0  0  0  0  0  0  0
    3.3900   20.0820  -35.4460 C   0  0  0  0  0  0  0  0  0  0  0  0
    2.0950   20.5800  -35.2200 C   0  0  0  0  0  0  0  0  0  0  0  0
    1.7190   21.8240  -35.7340 C   0  0  0  0  0  0  0  0  0  0  0  0
    2.6320   22.5840  -36.4690 C   0  0  0  0  0  0  0  0  0  0  0  0
    2.2570   23.8220  -36.9760 O   0  0  0  0  0  0  0  0  0  0  0  0
    3.9260   22.1000  -36.6880 C   0  0  0  0  0  0  0  0  0  0  0  0
    4.3060   20.8550  -36.1770 C   0  0  0  0  0  0  0  0  0  0  0  0
    2.0930   17.3230  -36.0260 C   0  0  0  0  0  0  0  0  0  0  0  0
    1.0240   16.4220  -35.9940 C   0  0  0  0  0  0  0  0  0  0  0  0
   -2.7480   15.6860  -35.5970 C   0  0  0  0  0  0  0  0  0  0  0  0
   -4.0740   16.0390  -35.3380 C   0  0  0  0  0  0  0  0  0  0  0  0
   -7.0410   17.8080  -32.0940 C   0  0  0  0  0  0  0  0  0  0  0  0
   -7.4580   19.0510  -31.6100 C   0  0  0  0  0  0  0  0  0  0  0  0
   -6.5980   22.6080  -31.4190 C   0  0  0  0  0  0  0  0  0  0  0  0
   -7.0540   23.8880  -31.0660 C   0  0  0  0  0  0  0  0  0  0  0  0
   -6.1470   24.9010  -30.7450 C   0  0  0  0  0  0  0  0  0  0  0  0
   -4.7730   24.6520  -30.7900 C   0  0  0  0  0  0  0  0  0  0  0  0
   -3.8770   25.6630  -30.4660 O   0  0  0  0  0  0  0  0  0  0  0  0
   -4.3040   23.3880  -31.1640 C   0  0  0  0  0  0  0  0  0  0  0  0
   -2.9390   23.1380  -31.2260 O   0  0  0  0  0  0  0  0  0  0  0  0
   -5.2130   22.3710  -31.4820 C   0  0  0  0  0  0  0  0  0  0  0  0
   -6.1598   21.0452  -34.0721 H   0  0  0  0  0  0  0  0  0  0  0  0
   -5.4406   18.8231  -34.9367 H   0  0  0  0  0  0  0  0  0  0  0  0
   -4.0250   15.8806  -31.9219 H   0  0  0  0  0  0  0  0  0  0  0  0
   -1.6482   15.2930  -32.3847 H   0  0  0  0  0  0  0  0  0  0  0  0
    0.6698   16.1070  -32.6096 H   0  0  0  0  0  0  0  0  0  0  0  0
    2.5442   17.7456  -32.6613 H   0  0  0  0  0  0  0  0  0  0  0  0
    4.1746   18.9212  -33.8305 H   0  0  0  0  0  0  0  0  0  0  0  0
    4.6142   18.3340  -35.4782 H   0  0  0  0  0  0  0  0  0  0  0  0
    1.3747   19.9881  -34.6362 H   0  0  0  0  0  0  0  0  0  0  0  0
    0.7021   22.2054  -35.5595 H   0  0  0  0  0  0  0  0  0  0  0  0
    4.6463   22.7001  -37.2635 H   0  0  0  0  0  0  0  0  0  0  0  0
    5.3259   20.4801  -36.3483 H   0  0  0  0  0  0  0  0  0  0  0  0
    2.4976   17.6587  -36.9922 H   0  0  0  0  0  0  0  0  0  0  0  0
    0.5735   16.0744  -36.9354 H   0  0  0  0  0  0  0  0  0  0  0  0
   -2.3853   15.6434  -36.6346 H   0  0  0  0  0  0  0  0  0  0  0  0
   -4.7483   16.2831  -36.1721 H   0  0  0  0  0  0  0  0  0  0  0  0
   -7.3093   16.8922  -31.5469 H   0  0  0  0  0  0  0  0  0  0  0  0
   -8.0268   19.1087  -30.6702 H   0  0  0  0  0  0  0  0  0  0  0  0
   -8.1341   24.0950  -31.0420 H   0  0  0  0  0  0  0  0  0  0  0  0
   -6.5154   25.8965  -30.4563 H   0  0  0  0  0  0  0  0  0  0  0  0
   -4.8413   21.3804  -31.7830 H   0  0  0  0  0  0  0  0  0  0  0  0
  1  2  2  0
  2  3  1  0
  3  4  2  0
  4  5  1  0
  5  6  2  0
  6  7  1  0
  7  8  1  0
  8  9  2  0
  9 10  1  0
 10 11  2  0
 11 12  1  0
 12 13  1  0
 13 14  2  0
 14 15  1  0
 15 16  2  0
 16 17  1  0
 17 18  1  0
 18 19  2  0
 19 20  1  0
 20 21  2  0
 21 22  1  0
 21 23  1  0
 23 24  2  0
 16 25  1  0
 25 26  2  0
 11 27  1  0
 27 28  2  0
  6 29  1  0
 29 30  2  0
  2 31  1  0
 31 32  2  0
 32 33  1  0
 33 34  2  0
 34 35  1  0
 34 36  1  0
 36 37  1  0
 36 38  2  0
 30  3  1  0
 38 31  1  0
 28  8  1  0
 26 13  1  0
 24 18  1  0
  4 39  1  0
  5 40  1  0
  9 41  1  0
 10 42  1  0
 14 43  1  0
 15 44  1  0
 17 45  1  0
 17 46  1  0
 19 47  1  0
 20 48  1  0
 23 49  1  0
 24 50  1  0
 25 51  1  0
 26 52  1  0
 27 53  1  0
 28 54  1  0
 29 55  1  0
 30 56  1  0
 32 57  1  0
 33 58  1  0
 38 59  1  0
M  CHG  3  22  -1  35  -1  37  -1
M  END
>  <UniqueID>  (27) 
27

>  <SMILES>  (27) 
O=C(c1ccc(Oc2ccc(Oc3ccc(Cc4ccc([O-])cc4)cc3)cc2)cc1)c1ccc([O-])c([O-])c1

>  <Energy>  (27) 
85.31088281910793

>  <Genealogy>  (27) 
O=C(c1ccc(Oc2ccc(Oc3ccc(Cc4ccc([O-])cc4)cc3)cc2)cc1)c1ccc([O-])c([O-])c1 (protonated)
O=C(c1ccc(Oc2ccc(Oc3ccc(Cc4ccc([O-])cc4)cc3)cc2)cc1)c1ccc([O-])c([O-])c1 (3D coordinates assigned)
O=C(c1ccc(Oc2ccc(Oc3ccc(Cc4ccc([O-])cc4)cc3)cc2)cc1)c1ccc([O-])c([O-])c1 (optimized conformer: 85.31088281910793 kcal/mol)

>  <smiles>  (27) 
O=C(c1ccc(Oc2ccc(Oc3ccc(Cc4ccc(O)cc4)cc3)cc2)cc1)c1ccc(O)c(O)c1

>  <score_type>  (27) 
oracle

>  <origin>  (27) 
adgpu

>  <m_score__min__energy>  (27) 
-15.109999999999999

>  <m_primary>  (27) 
energy

$$$$
27:0
     RDKit          3D

 41 43  0  0  0  0  0  0  0  0999 V2000
   -3.9870   19.4460  -31.5828 H   0  0  0  0  0  0  0  0  0  0  0  0
   -4.9740   19.8220  -31.8900 C   0  0  0  0  0  0  0  0  0  0  0  0
   -5.3760   21.1060  -31.5090 C   0  0  0  0  0  0  0  0  0  0  0  0
   -4.6981   21.7413  -30.9201 H   0  0  0  0  0  0  0  0  0  0  0  0
   -6.6410   21.5850  -31.8760 C   0  0  0  0  0  0  0  0  0  0  0  0
   -7.1430   23.2060  -31.4090 S   0  0  0  0  0  0  0  0  0  0  0  0
   -7.6120   23.1930  -29.9800 O   0  0  0  0  0  0  0  0  0  0  0  0
   -8.2710   23.6550  -32.2960 O   0  0  0  0  0  0  0  0  0  0  0  0
   -5.7930   24.2820  -31.5780 N   0  0  0  0  0  0  0  0  0  0  0  0
   -4.8870   24.4680  -30.6680 C   0  0  0  0  0  0  0  0  0  0  0  0
   -3.8510   25.3100  -30.8330 N   0  0  0  0  0  0  0  0  0  0  0  0
   -3.1490   25.2490  -29.7380 O   0  0  0  0  0  0  0  0  0  0  0  0
   -3.6840   24.4120  -28.8770 C   0  0  0  0  0  0  0  0  0  0  0  0
   -3.1140   24.0970  -27.5360 C   0  0  0  0  0  0  0  0  0  0  0  0
   -3.7903   24.4708  -26.7531 H   0  0  0  0  0  0  0  0  0  0  0  0
   -3.0000   23.0078  -27.4327 H   0  0  0  0  0  0  0  0  0  0  0  0
   -2.1311   24.5800  -27.4327 H   0  0  0  0  0  0  0  0  0  0  0  0
   -4.8240   23.8620  -29.4260 C   0  0  0  0  0  0  0  0  0  0  0  0
   -5.5117   23.1250  -28.9857 H   0  0  0  0  0  0  0  0  0  0  0  0
   -7.4970   20.7710  -32.6300 C   0  0  0  0  0  0  0  0  0  0  0  0
   -8.4901   21.1429  -32.9222 H   0  0  0  0  0  0  0  0  0  0  0  0
   -7.0940   19.4890  -33.0120 C   0  0  0  0  0  0  0  0  0  0  0  0
   -7.7775   18.8505  -33.5909 H   0  0  0  0  0  0  0  0  0  0  0  0
   -5.8180   19.0100  -32.6600 C   0  0  0  0  0  0  0  0  0  0  0  0
   -5.3880   17.6870  -33.0160 N   0  0  0  0  0  0  0  0  0  0  0  0
   -5.0660   17.0680  -32.2390 H   0  0  0  0  0  0  0  0  0  0  0  0
   -5.3110   17.2000  -34.3700 C   0  0  0  0  0  0  0  0  0  0  0  0
   -5.6990   17.9200  -35.3280 O   0  0  0  0  0  0  0  0  0  0  0  0
   -4.8320   15.8790  -34.6590 N   0  0  0  0  0  0  0  0  0  0  0  0
   -4.5460   14.9630  -33.7830 C   0  0  0  0  0  0  0  0  0  0  0  0
   -4.5640   15.1500  -32.4440 N   0  0  0  0  0  0  0  0  0  0  0  0
   -4.1890   14.0700  -31.7640 N   0  0  0  0  0  0  0  0  0  0  0  0
   -3.8510   13.0290  -32.5590 C   0  0  0  0  0  0  0  0  0  0  0  0
   -3.4480   11.6870  -32.0370 C   0  0  0  0  0  0  0  0  0  0  0  0
   -3.6376   10.9272  -32.8095 H   0  0  0  0  0  0  0  0  0  0  0  0
   -4.0360   11.4675  -31.1336 H   0  0  0  0  0  0  0  0  0  0  0  0
   -1.9680   11.6730  -31.6740 C   0  0  0  0  0  0  0  0  0  0  0  0
   -1.8589   11.6720  -30.5794 H   0  0  0  0  0  0  0  0  0  0  0  0
   -1.4969   10.7704  -32.0903 H   0  0  0  0  0  0  0  0  0  0  0  0
   -1.4799   12.5666  -32.0903 H   0  0  0  0  0  0  0  0  0  0  0  0
   -4.0310   13.4150  -34.1920 S   0  0  0  0  0  0  0  0  0  0  0  0
  1  2  1  0
  2  3  2  0
  3  4  1  0
  3  5  1  0
  5  6  1  0
  6  7  2  0
  6  8  2  0
  6  9  1  0
  9 10  2  0
 10 11  1  0
 11 12  1  0
 12 13  1  0
 13 14  1  0
 14 15  1  0
 14 16  1  0
 14 17  1  0
 13 18  2  0
 18 19  1  0
  5 20  2  0
 20 21  1  0
 20 22  1  0
 22 23  1  0
 22 24  2  0
 24 25  1  0
 25 26  1  0
 25 27  1  0
 27 28  2  0
 27 29  1  0
 29 30  2  3
 30 31  1  0
 31 32  1  0
 32 33  2  0
 33 34  1  0
 34 35  1  0
 34 36  1  0
 34 37  1  0
 37 38  1  0
 37 39  1  0
 37 40  1  0
 33 41  1  0
 24  2  1  0
 41 30  1  0
 18 10  1  0
M  CHG  2  11  -1  31  -1
M  END
>  <UniqueID>  (28) 
28

>  <SMILES>  (28) 
CCc1n[n-]c(=NC(=O)Nc2ccc(S(=O)(=O)/N=c3\cc(C)o[n-]3)cc2)s1

>  <Energy>  (28) 
116.06791333222215

>  <Genealogy>  (28) 
CCc1n[n-]c(=NC(=O)Nc2ccc(S(=O)(=O)N=c3cc(C)o[n-]3)cc2)s1 (protonated)
CCc1n[n-]c(=NC(=O)Nc2ccc(S(=O)(=O)/N=c3\cc(C)o[n-]3)cc2)s1 (cis-trans isomerization)
CCc1n[n-]c(=NC(=O)Nc2ccc(S(=O)(=O)/N=c3\cc(C)o[n-]3)cc2)s1 (3D coordinates assigned)
CCc1n[n-]c(=NC(=O)Nc2ccc(S(=O)(=O)/N=c3\cc(C)o[n-]3)cc2)s1 (optimized conformer: 116.06791333222215 kcal/mol)

>  <smiles>  (28) 
CCc1n[nH]c(=NC(=O)Nc2ccc(S(=O)(=O)N=c3cc(C)o[nH]3)cc2)s1

>  <score_type>  (28) 
oracle

>  <origin>  (28) 
adgpu

>  <m_score__min__energy>  (28) 
-10.199999999999999

>  <m_primary>  (28) 
energy

$$$$
28:0
     RDKit          3D

 78 82  0  0  0  0  0  0  0  0999 V2000
    2.3150   16.6870  -27.7160 H   0  0  0  0  0  0  0  0  0  0  0  0
    2.7720   16.5930  -26.8400 O   0  0  0  0  0  0  0  0  0  0  0  0
    2.3400   15.3700  -26.3080 C   0  0  0  0  0  0  0  0  0  0  0  0
    2.1140   15.4985  -25.2392 H   0  0  0  0  0  0  0  0  0  0  0  0
    3.1360   14.6218  -26.4368 H   0  0  0  0  0  0  0  0  0  0  0  0
    1.0810   14.8900  -27.0370 C   0  0  0  0  0  0  0  0  0  0  0  0
    0.2139   15.4620  -26.6752 H   0  0  0  0  0  0  0  0  0  0  0  0
    0.9418   13.8178  -26.8346 H   0  0  0  0  0  0  0  0  0  0  0  0
    1.2160   15.0840  -28.4880 N   0  0  0  0  0  0  0  0  0  0  0  0
    0.9020   16.3600  -29.0720 C   0  0  0  0  0  0  0  0  0  0  0  0
    0.2650   17.3100  -28.3360 N   0  0  0  0  0  0  0  0  0  0  0  0
   -0.0360   18.5150  -28.8790 C   0  0  0  0  0  0  0  0  0  0  0  0
   -0.6610   19.3980  -28.1520 N   0  0  0  0  0  0  0  0  0  0  0  0
   -1.0820   20.7260  -28.5100 C   0  0  0  0  0  0  0  0  0  0  0  0
   -2.0270   21.3580  -27.6920 C   0  0  0  0  0  0  0  0  0  0  0  0
   -2.4209   20.8329  -26.8093 H   0  0  0  0  0  0  0  0  0  0  0  0
   -2.4750   22.6500  -27.9860 C   0  0  0  0  0  0  0  0  0  0  0  0
   -3.2028   23.1411  -27.3234 H   0  0  0  0  0  0  0  0  0  0  0  0
   -2.0000   23.3230  -29.1230 C   0  0  0  0  0  0  0  0  0  0  0  0
   -2.4820   24.6770  -29.4640 C   0  0  0  0  0  0  0  0  0  0  0  0
   -1.9450   25.6710  -28.9050 O   0  0  0  0  0  0  0  0  0  0  0  0
   -3.4870   24.9100  -30.4640 N   0  0  0  0  0  0  0  0  0  0  0  0
   -4.9300   24.7870  -30.2820 C   0  0  0  0  0  0  0  0  0  0  0  0
   -5.4209   25.6958  -30.6603 H   0  0  0  0  0  0  0  0  0  0  0  0
   -5.1427   24.6577  -29.2105 H   0  0  0  0  0  0  0  0  0  0  0  0
   -5.4570   23.5940  -31.0280 C   0  0  0  0  0  0  0  0  0  0  0  0
   -6.8350   23.4450  -31.2300 C   0  0  0  0  0  0  0  0  0  0  0  0
   -7.5319   24.1979  -30.8332 H   0  0  0  0  0  0  0  0  0  0  0  0
   -7.3270   22.3430  -31.9340 C   0  0  0  0  0  0  0  0  0  0  0  0
   -8.4109   22.2268  -32.0808 H   0  0  0  0  0  0  0  0  0  0  0  0
   -6.4480   21.3870  -32.4530 C   0  0  0  0  0  0  0  0  0  0  0  0
   -6.8446   20.5243  -33.0084 H   0  0  0  0  0  0  0  0  0  0  0  0
   -5.0580   21.5220  -32.2690 C   0  0  0  0  0  0  0  0  0  0  0  0
   -4.1210   20.5400  -32.8590 C   0  0  0  0  0  0  0  0  0  0  0  0
   -2.9910   20.9200  -33.2720 O   0  0  0  0  0  0  0  0  0  0  0  0
   -4.5310   19.1770  -33.0350 N   0  0  0  0  0  0  0  0  0  0  0  0
   -3.8170   18.1540  -33.7490 C   0  0  0  0  0  0  0  0  0  0  0  0
   -4.3870   17.4830  -34.8470 C   0  0  0  0  0  0  0  0  0  0  0  0
   -5.3931   17.7596  -35.1953 H   0  0  0  0  0  0  0  0  0  0  0  0
   -3.6810   16.4670  -35.4970 C   0  0  0  0  0  0  0  0  0  0  0  0
   -4.1343   15.9482  -36.3546 H   0  0  0  0  0  0  0  0  0  0  0  0
   -2.4040   16.1070  -35.0640 C   0  0  0  0  0  0  0  0  0  0  0  0
   -1.7090   15.0830  -35.7020 O   0  0  0  0  0  0  0  0  0  0  0  0
   -1.8160   16.7920  -33.9980 C   0  0  0  0  0  0  0  0  0  0  0  0
   -0.8058   16.5154  -33.6618 H   0  0  0  0  0  0  0  0  0  0  0  0
   -2.5060   17.8320  -33.3520 C   0  0  0  0  0  0  0  0  0  0  0  0
   -1.8590   18.5490  -32.2880 N   0  0  0  0  0  0  0  0  0  0  0  0
   -2.3020   19.3990  -31.8740 H   0  0  0  0  0  0  0  0  0  0  0  0
   -0.9420   18.2430  -31.8950 H   0  0  0  0  0  0  0  0  0  0  0  0
   -4.5740   22.6320  -31.5510 C   0  0  0  0  0  0  0  0  0  0  0  0
   -3.4911   22.7486  -31.3969 H   0  0  0  0  0  0  0  0  0  0  0  0
   -0.9970   22.7190  -29.9000 C   0  0  0  0  0  0  0  0  0  0  0  0
   -0.5759   23.2590  -30.7609 H   0  0  0  0  0  0  0  0  0  0  0  0
   -0.5290   21.4390  -29.5900 C   0  0  0  0  0  0  0  0  0  0  0  0
    0.2737   20.9877  -30.1917 H   0  0  0  0  0  0  0  0  0  0  0  0
    0.2790   18.7520  -30.1790 N   0  0  0  0  0  0  0  0  0  0  0  0
    0.9040   17.8080  -30.9300 C   0  0  0  0  0  0  0  0  0  0  0  0
    1.2380   18.0300  -32.1700 N   0  0  0  0  0  0  0  0  0  0  0  0
    1.0000   19.1980  -32.9810 C   0  0  0  0  0  0  0  0  0  0  0  0
    1.3690   19.1430  -34.3360 C   0  0  0  0  0  0  0  0  0  0  0  0
    1.8427   18.2341  -34.7355 H   0  0  0  0  0  0  0  0  0  0  0  0
    1.1390   20.2350  -35.1820 C   0  0  0  0  0  0  0  0  0  0  0  0
    1.4351   20.1814  -36.2400 H   0  0  0  0  0  0  0  0  0  0  0  0
    0.5340   21.3930  -34.6850 C   0  0  0  0  0  0  0  0  0  0  0  0
    0.2570   22.7640  -35.7420 Cl  0  0  0  0  0  0  0  0  0  0  0  0
    0.1410   21.4530  -33.3440 C   0  0  0  0  0  0  0  0  0  0  0  0
   -0.3361   22.3637  -32.9529 H   0  0  0  0  0  0  0  0  0  0  0  0
    0.3530   20.3570  -32.4970 C   0  0  0  0  0  0  0  0  0  0  0  0
    0.0144   20.3992  -31.4513 H   0  0  0  0  0  0  0  0  0  0  0  0
    1.2280   16.6180  -30.3650 N   0  0  0  0  0  0  0  0  0  0  0  0
    1.8080   14.0250  -29.3170 C   0  0  0  0  0  0  0  0  0  0  0  0
    1.8255   13.0839  -28.7478 H   0  0  0  0  0  0  0  0  0  0  0  0
    1.2038   13.8994  -30.2276 H   0  0  0  0  0  0  0  0  0  0  0  0
    3.2360   14.4050  -29.7110 C   0  0  0  0  0  0  0  0  0  0  0  0
    3.9042   13.5516  -29.5235 H   0  0  0  0  0  0  0  0  0  0  0  0
    3.2561   14.6694  -30.7786 H   0  0  0  0  0  0  0  0  0  0  0  0
    3.6680   15.5060  -28.9580 O   0  0  0  0  0  0  0  0  0  0  0  0
    2.9430   16.1860  -29.0050 H   0  0  0  0  0  0  0  0  0  0  0  0
  1  2  1  0
  2  3  1  0
  3  4  1  0
  3  5  1  0
  3  6  1  0
  6  7  1  0
  6  8  1  0
  6  9  1  0
  9 10  1  0
 10 11  2  0
 11 12  1  0
 12 13  2  0
 13 14  1  0
 14 15  2  0
 15 16  1  0
 15 17  1  0
 17 18  1  0
 17 19  2  0
 19 20  1  0
 20 21  2  0
 20 22  1  0
 22 23  1  0
 23 24  1  0
 23 25  1  0
 23 26  1  0
 26 27  2  0
 27 28  1  0
 27 29  1  0
 29 30  1  0
 29 31  2  0
 31 32  1  0
 31 33  1  0
 33 34  1  0
 34 35  2  0
 34 36  1  0
 36 37  1  0
 37 38  2  0
 38 39  1  0
 38 40  1  0
 40 41  1  0
 40 42  2  0
 42 43  1  0
 42 44  1  0
 44 45  1  0
 44 46  2  0
 46 47  1  0
 47 48  1  0
 47 49  1  0
 33 50  2  0
 50 51  1  0
 19 52  1  0
 52 53  1  0
 52 54  2  0
 54 55  1  0
 12 56  1  0
 56 57  1  0
 57 58  2  3
 58 59  1  0
 59 60  2  0
 60 61  1  0
 60 62  1  0
 62 63  1  0
 62 64  2  0
 64 65  1  0
 64 66  1  0
 66 67  1  0
 66 68  2  0
 68 69  1  0
 57 70  1  0
  9 71  1  0
 71 72  1  0
 71 73  1  0
 71 74  1  0
 74 75  1  0
 74 76  1  0
 74 77  1  0
 77 78  1  0
 70 10  1  0
 54 14  1  0
 68 59  1  0
 50 26  1  0
 46 37  1  0
M  CHG  5  22  -1  36  -1  43  -1  56  -1  70  -1
M  END
>  <UniqueID>  (29) 
29

>  <SMILES>  (29) 
Nc1cc([O-])ccc1[N-]C(=O)c1cccc(C[N-]C(=O)c2ccc(/N=c3/nc(N(CCO)CCO)[n-]c(=Nc4ccc(Cl)cc4)[n-]3)cc2)c1

>  <Energy>  (29) 
90.7477187180728

>  <Genealogy>  (29) 
Nc1cc([O-])ccc1[N-]C(=O)c1cccc(C[N-]C(=O)c2ccc(N=c3nc(N(CCO)CCO)[n-]c(=Nc4ccc(Cl)cc4)[n-]3)cc2)c1 (protonated)
Nc1cc([O-])ccc1[N-]C(=O)c1cccc(C[N-]C(=O)c2ccc(/N=c3/nc(N(CCO)CCO)[n-]c(=Nc4ccc(Cl)cc4)[n-]3)cc2)c1 (cis-trans isomerization)
Nc1cc([O-])ccc1[N-]C(=O)c1cccc(C[N-]C(=O)c2ccc(/N=c3/nc(N(CCO)CCO)[n-]c(=Nc4ccc(Cl)cc4)[n-]3)cc2)c1 (3D coordinates assigned)
Nc1cc([O-])ccc1[N-]C(=O)c1cccc(C[N-]C(=O)c2ccc(/N=c3/nc(N(CCO)CCO)[n-]c(=Nc4ccc(Cl)cc4)[n-]3)cc2)c1 (optimized conformer: 90.7477187180728 kcal/mol)

>  <smiles>  (29) 
Nc1cc(O)ccc1NC(=O)c1cccc(CNC(=O)c2ccc(N=c3nc(N(CCO)CCO)[nH]c(=Nc4ccc(Cl)cc4)[nH]3)cc2)c1

>  <score_type>  (29) 
oracle

>  <origin>  (29) 
adgpu

>  <m_score__min__energy>  (29) 
-13.19

>  <m_primary>  (29) 
energy

$$$$
29:0
     RDKit          3D

 48 50  0  0  0  0  0  0  0  0999 V2000
   -5.4660   25.3360  -30.4550 C   0  0  0  0  0  0  0  0  0  0  0  0
   -4.0460   25.2570  -30.4930 O   0  0  0  0  0  0  0  0  0  0  0  0
   -3.2980   24.1490  -30.0640 C   0  0  0  0  0  0  0  0  0  0  0  0
   -3.7620   22.8330  -30.2180 C   0  0  0  0  0  0  0  0  0  0  0  0
   -2.9980   21.7610  -29.7660 C   0  0  0  0  0  0  0  0  0  0  0  0
   -1.7590   21.9730  -29.1450 C   0  0  0  0  0  0  0  0  0  0  0  0
   -1.0070   20.7890  -28.6660 C   0  0  0  0  0  0  0  0  0  0  0  0
   -0.8380   19.5760  -29.3080 C   0  0  0  0  0  0  0  0  0  0  0  0
   -0.0390   18.8480  -28.4430 C   0  0  0  0  0  0  0  0  0  0  0  0
    0.4680   17.4650  -28.6350 C   0  0  0  0  0  0  0  0  0  0  0  0
    0.9040   16.6920  -27.5480 C   0  0  0  0  0  0  0  0  0  0  0  0
    1.3800   15.3780  -27.7320 C   0  0  0  0  0  0  0  0  0  0  0  0
    1.8140   14.6110  -26.6390 O   0  0  0  0  0  0  0  0  0  0  0  0
    1.0510   13.5920  -25.9970 C   0  0  0  0  0  0  0  0  0  0  0  0
    1.4180   14.8310  -29.0400 C   0  0  0  0  0  0  0  0  0  0  0  0
    1.8730   13.5310  -29.3310 O   0  0  0  0  0  0  0  0  0  0  0  0
    1.0710   12.4130  -29.6980 C   0  0  0  0  0  0  0  0  0  0  0  0
    0.9830   15.6030  -30.1280 C   0  0  0  0  0  0  0  0  0  0  0  0
    1.0340   15.0280  -31.4090 O   0  0  0  0  0  0  0  0  0  0  0  0
   -0.0120   15.1000  -32.3740 C   0  0  0  0  0  0  0  0  0  0  0  0
    0.5130   16.9110  -29.9210 C   0  0  0  0  0  0  0  0  0  0  0  0
    0.2420   19.6050  -27.3640 N   0  0  0  0  0  0  0  0  0  0  0  0
   -0.3460   20.7530  -27.5310 O   0  0  0  0  0  0  0  0  0  0  0  0
   -1.2580   23.2900  -29.0120 C   0  0  0  0  0  0  0  0  0  0  0  0
    0.0230   23.4570  -28.4500 O   0  0  0  0  0  0  0  0  0  0  0  0
    0.3210   23.9040  -27.1320 C   0  0  0  0  0  0  0  0  0  0  0  0
   -2.0500   24.3750  -29.4680 C   0  0  0  0  0  0  0  0  0  0  0  0
   -1.6180   25.6900  -29.3390 O   0  0  0  0  0  0  0  0  0  0  0  0
   -5.8043   25.3548  -29.4085 H   0  0  0  0  0  0  0  0  0  0  0  0
   -5.7959   26.2539  -30.9636 H   0  0  0  0  0  0  0  0  0  0  0  0
   -5.8957   24.4604  -30.9636 H   0  0  0  0  0  0  0  0  0  0  0  0
   -4.7342   22.6482  -30.6983 H   0  0  0  0  0  0  0  0  0  0  0  0
   -3.3710   20.7346  -29.8976 H   0  0  0  0  0  0  0  0  0  0  0  0
   -1.2444   19.2622  -30.2808 H   0  0  0  0  0  0  0  0  0  0  0  0
    0.8738   17.1189  -26.5347 H   0  0  0  0  0  0  0  0  0  0  0  0
    1.1347   13.7038  -24.9059 H   0  0  0  0  0  0  0  0  0  0  0  0
   -0.0041   13.6813  -26.2949 H   0  0  0  0  0  0  0  0  0  0  0  0
    1.4338   12.6047  -26.2949 H   0  0  0  0  0  0  0  0  0  0  0  0
    0.7087   11.9080  -28.7904 H   0  0  0  0  0  0  0  0  0  0  0  0
    0.2126   12.7572  -30.2935 H   0  0  0  0  0  0  0  0  0  0  0  0
    1.6722   11.7102  -30.2935 H   0  0  0  0  0  0  0  0  0  0  0  0
   -0.9818   15.1668  -31.8592 H   0  0  0  0  0  0  0  0  0  0  0  0
    0.1309   15.9904  -33.0039 H   0  0  0  0  0  0  0  0  0  0  0  0
    0.0075   14.1984  -33.0039 H   0  0  0  0  0  0  0  0  0  0  0  0
    0.1756   17.5084  -30.7808 H   0  0  0  0  0  0  0  0  0  0  0  0
   -0.1350   23.2201  -26.4010 H   0  0  0  0  0  0  0  0  0  0  0  0
    1.4114   23.9205  -26.9882 H   0  0  0  0  0  0  0  0  0  0  0  0
   -0.0832   24.9169  -26.9882 H   0  0  0  0  0  0  0  0  0  0  0  0
  1  2  1  0
  2  3  1  0
  3  4  2  0
  4  5  1  0
  5  6  2  0
  6  7  1  0
  7  8  2  0
  8  9  1  0
  9 10  1  0
 10 11  2  0
 11 12  1  0
 12 13  1  0
 13 14  1  0
 12 15  2  0
 15 16  1  0
 16 17  1  0
 15 18  1  0
 18 19  1  0
 19 20  1  0
 18 21  2  0
  9 22  2  0
 22 23  1  0
  6 24  1  0
 24 25  1  0
 25 26  1  0
 24 27  2  0
 27 28  1  0
 27  3  1  0
 23  7  1  0
 21 10  1  0
  1 29  1  0
  1 30  1  0
  1 31  1  0
  4 32  1  0
  5 33  1  0
  8 34  1  0
 11 35  1  0
 14 36  1  0
 14 37  1  0
 14 38  1  0
 17 39  1  0
 17 40  1  0
 17 41  1  0
 20 42  1  0
 20 43  1  0
 20 44  1  0
 21 45  1  0
 26 46  1  0
 26 47  1  0
 26 48  1  0
M  CHG  1  28  -1
M  END
>  <UniqueID>  (30) 
30

>  <SMILES>  (30) 
COc1ccc(-c2cc(-c3cc(OC)c(OC)c(OC)c3)no2)c(OC)c1[O-]

>  <Energy>  (30) 
89.55671673272175

>  <Genealogy>  (30) 
COc1ccc(-c2cc(-c3cc(OC)c(OC)c(OC)c3)no2)c(OC)c1[O-] (protonated)
COc1ccc(-c2cc(-c3cc(OC)c(OC)c(OC)c3)no2)c(OC)c1[O-] (3D coordinates assigned)
COc1ccc(-c2cc(-c3cc(OC)c(OC)c(OC)c3)no2)c(OC)c1[O-] (optimized conformer: 89.55671673272175 kcal/mol)

>  <smiles>  (30) 
COc1ccc(-c2cc(-c3cc(OC)c(OC)c(OC)c3)no2)c(OC)c1O

>  <score_type>  (30) 
oracle

>  <origin>  (30) 
adgpu

>  <m_score__min__energy>  (30) 
-10.130000000000001

>  <m_primary>  (30) 
energy

$$$$
30:0
     RDKit          3D

 59 62  0  0  0  0  0  0  0  0999 V2000
    0.9650   19.7000  -32.7880 C   0  0  0  0  0  0  0  0  0  0  0  0
   -0.0610   20.6490  -33.0630 O   0  0  0  0  0  0  0  0  0  0  0  0
   -1.4360   20.3680  -33.0470 C   0  0  0  0  0  0  0  0  0  0  0  0
   -2.0000   19.3590  -33.8470 C   0  0  0  0  0  0  0  0  0  0  0  0
   -3.3710   19.0830  -33.7920 C   0  0  0  0  0  0  0  0  0  0  0  0
   -3.9770   17.7910  -34.8230 Cl  0  0  0  0  0  0  0  0  0  0  0  0
   -4.2040   19.8150  -32.9180 C   0  0  0  0  0  0  0  0  0  0  0  0
   -5.6520   19.5250  -32.7700 C   0  0  0  0  0  0  0  0  0  0  0  0
   -6.3290   18.6600  -33.5520 N   0  0  0  0  0  0  0  0  0  0  0  0
   -7.5870   18.6800  -33.1430 N   0  0  0  0  0  0  0  0  0  0  0  0
   -7.6300   19.5560  -32.1230 C   0  0  0  0  0  0  0  0  0  0  0  0
   -9.1200   19.9560  -31.2140 S   0  0  0  0  0  0  0  0  0  0  0  0
   -9.2570   21.6610  -31.8620 C   0  0  0  0  0  0  0  0  0  0  0  0
   -8.0290   22.4380  -31.4770 C   0  0  0  0  0  0  0  0  0  0  0  0
   -7.6270   22.4920  -30.1340 C   0  0  0  0  0  0  0  0  0  0  0  0
   -6.4500   23.1510  -29.7760 C   0  0  0  0  0  0  0  0  0  0  0  0
   -5.6490   23.7660  -30.7560 C   0  0  0  0  0  0  0  0  0  0  0  0
   -4.3740   24.4180  -30.3680 C   0  0  0  0  0  0  0  0  0  0  0  0
   -4.2320   25.6600  -30.5380 O   0  0  0  0  0  0  0  0  0  0  0  0
   -3.2980   23.6560  -29.7970 N   0  0  0  0  0  0  0  0  0  0  0  0
   -2.2070   24.2970  -29.0570 C   0  0  0  0  0  0  0  0  0  0  0  0
   -2.4860   24.2940  -27.5490 C   0  0  0  0  0  0  0  0  0  0  0  0
   -1.8090   25.4490  -26.8530 C   0  0  0  0  0  0  0  0  0  0  0  0
   -2.0140   25.6710  -25.4830 C   0  0  0  0  0  0  0  0  0  0  0  0
   -1.3610   26.7240  -24.8350 C   0  0  0  0  0  0  0  0  0  0  0  0
   -0.5030   27.5650  -25.5510 C   0  0  0  0  0  0  0  0  0  0  0  0
   -0.2920   27.3480  -26.9140 C   0  0  0  0  0  0  0  0  0  0  0  0
   -0.9360   26.2920  -27.5640 C   0  0  0  0  0  0  0  0  0  0  0  0
   -6.0520   23.7050  -32.1040 C   0  0  0  0  0  0  0  0  0  0  0  0
   -7.2320   23.0450  -32.4600 C   0  0  0  0  0  0  0  0  0  0  0  0
   -6.4520   20.0770  -31.8860 O   0  0  0  0  0  0  0  0  0  0  0  0
   -3.6370   20.8400  -32.1360 C   0  0  0  0  0  0  0  0  0  0  0  0
   -2.2590   21.1230  -32.1980 C   0  0  0  0  0  0  0  0  0  0  0  0
   -1.6710   22.1400  -31.4280 O   0  0  0  0  0  0  0  0  0  0  0  0
   -0.6470   21.9350  -30.4560 C   0  0  0  0  0  0  0  0  0  0  0  0
    1.0821   19.5917  -31.6996 H   0  0  0  0  0  0  0  0  0  0  0  0
    0.6927   18.7284  -33.2260 H   0  0  0  0  0  0  0  0  0  0  0  0
    1.9125   20.0471  -33.2260 H   0  0  0  0  0  0  0  0  0  0  0  0
   -1.3559   18.7793  -34.5245 H   0  0  0  0  0  0  0  0  0  0  0  0
   -9.3449   21.6317  -32.9581 H   0  0  0  0  0  0  0  0  0  0  0  0
  -10.1485   22.1462  -31.4380 H   0  0  0  0  0  0  0  0  0  0  0  0
   -8.2428   22.0123  -29.3590 H   0  0  0  0  0  0  0  0  0  0  0  0
   -6.1461   23.1900  -28.7195 H   0  0  0  0  0  0  0  0  0  0  0  0
   -3.2310   22.6390  -30.0130 H   0  0  0  0  0  0  0  0  0  0  0  0
   -1.2721   23.7506  -29.2504 H   0  0  0  0  0  0  0  0  0  0  0  0
   -2.1219   25.3405  -29.3944 H   0  0  0  0  0  0  0  0  0  0  0  0
   -3.5716   24.3674  -27.3873 H   0  0  0  0  0  0  0  0  0  0  0  0
   -2.0867   23.3592  -27.1287 H   0  0  0  0  0  0  0  0  0  0  0  0
   -2.6908   25.0144  -24.9166 H   0  0  0  0  0  0  0  0  0  0  0  0
   -1.5224   26.8913  -23.7598 H   0  0  0  0  0  0  0  0  0  0  0  0
    0.0051   28.3966  -25.0408 H   0  0  0  0  0  0  0  0  0  0  0  0
    0.3825   28.0097  -27.4772 H   0  0  0  0  0  0  0  0  0  0  0  0
   -0.7596   26.1193  -28.6359 H   0  0  0  0  0  0  0  0  0  0  0  0
   -5.4349   24.1793  -32.8813 H   0  0  0  0  0  0  0  0  0  0  0  0
   -7.5373   23.0012  -33.5159 H   0  0  0  0  0  0  0  0  0  0  0  0
   -4.2809   21.4288  -31.4662 H   0  0  0  0  0  0  0  0  0  0  0  0
   -1.0767   22.0210  -29.4470 H   0  0  0  0  0  0  0  0  0  0  0  0
   -0.2137   20.9323  -30.5858 H   0  0  0  0  0  0  0  0  0  0  0  0
    0.1389   22.6936  -30.5858 H   0  0  0  0  0  0  0  0  0  0  0  0
  1  2  1  0
  2  3  1  0
  3  4  2  0
  4  5  1  0
  5  6  1  0
  5  7  2  0
  7  8  1  0
  8  9  2  0
  9 10  1  0
 10 11  2  0
 11 12  1  0
 12 13  1  0
 13 14  1  0
 14 15  2  0
 15 16  1  0
 16 17  2  0
 17 18  1  0
 18 19  2  0
 18 20  1  0
 20 21  1  0
 21 22  1  0
 22 23  1  0
 23 24  2  0
 24 25  1  0
 25 26  2  0
 26 27  1  0
 27 28  2  0
 17 29  1  0
 29 30  2  0
 11 31  1  0
  7 32  1  0
 32 33  2  0
 33 34  1  0
 34 35  1  0
 33  3  1  0
 31  8  1  0
 30 14  1  0
 28 23  1  0
  1 36  1  0
  1 37  1  0
  1 38  1  0
  4 39  1  0
 13 40  1  0
 13 41  1  0
 15 42  1  0
 16 43  1  0
 20 44  1  0
 21 45  1  0
 21 46  1  0
 22 47  1  0
 22 48  1  0
 24 49  1  0
 25 50  1  0
 26 51  1  0
 27 52  1  0
 28 53  1  0
 29 54  1  0
 30 55  1  0
 32 56  1  0
 35 57  1  0
 35 58  1  0
 35 59  1  0
M  END
>  <UniqueID>  (31) 
31

>  <SMILES>  (31) 
COc1cc(Cl)c(-c2nnc(SCc3ccc(C(=O)NCCc4ccccc4)cc3)o2)cc1OC

>  <Energy>  (31) 
93.16783307735427

>  <Genealogy>  (31) 
COc1cc(Cl)c(-c2nnc(SCc3ccc(C(=O)NCCc4ccccc4)cc3)o2)cc1OC (3D coordinates assigned)
COc1cc(Cl)c(-c2nnc(SCc3ccc(C(=O)NCCc4ccccc4)cc3)o2)cc1OC (optimized conformer: 93.16783307735427 kcal/mol)

>  <smiles>  (31) 
COc1cc(Cl)c(-c2nnc(SCc3ccc(C(=O)NCCc4ccccc4)cc3)o2)cc1OC

>  <score_type>  (31) 
oracle

>  <origin>  (31) 
adgpu

>  <m_score__min__energy>  (31) 
-9.8800000000000008

>  <m_primary>  (31) 
energy

$$$$
31:0
     RDKit          3D

 64 67  0  0  0  0  0  0  0  0999 V2000
   -9.9310   21.2090  -31.9440 C   0  0  0  0  0  0  0  0  0  0  0  0
   -8.9850   20.9890  -30.9010 O   0  0  0  0  0  0  0  0  0  0  0  0
   -7.7830   21.7000  -30.7540 C   0  0  0  0  0  0  0  0  0  0  0  0
   -7.6040   22.6680  -29.7480 C   0  0  0  0  0  0  0  0  0  0  0  0
   -6.3860   23.3410  -29.6260 C   0  0  0  0  0  0  0  0  0  0  0  0
   -5.3310   23.0590  -30.5020 C   0  0  0  0  0  0  0  0  0  0  0  0
   -3.7720   23.8470  -30.2820 S   0  0  0  0  0  0  0  0  0  0  0  0
   -2.7880   23.3140  -31.2870 O   0  0  0  0  0  0  0  0  0  0  0  0
   -3.9160   25.3300  -30.4840 O   0  0  0  0  0  0  0  0  0  0  0  0
   -3.1860   23.5200  -28.6860 N   0  0  0  0  0  0  0  0  0  0  0  0
   -2.7030   22.2200  -28.3450 C   0  0  0  0  0  0  0  0  0  0  0  0
   -3.4790   21.4170  -27.4980 C   0  0  0  0  0  0  0  0  0  0  0  0
   -2.9990   20.1800  -27.0610 C   0  0  0  0  0  0  0  0  0  0  0  0
   -1.7400   19.7360  -27.4690 C   0  0  0  0  0  0  0  0  0  0  0  0
   -0.9580   20.5270  -28.3150 C   0  0  0  0  0  0  0  0  0  0  0  0
   -1.4290   21.7720  -28.7720 C   0  0  0  0  0  0  0  0  0  0  0  0
   -0.5880   22.5670  -29.6970 C   0  0  0  0  0  0  0  0  0  0  0  0
    0.0470   23.5640  -29.2580 O   0  0  0  0  0  0  0  0  0  0  0  0
   -0.5150   22.2120  -31.0860 N   0  0  0  0  0  0  0  0  0  0  0  0
   -0.8220   20.9440  -31.6810 C   0  0  0  0  0  0  0  0  0  0  0  0
   -2.1240   20.4100  -31.6870 C   0  0  0  0  0  0  0  0  0  0  0  0
   -2.3760   19.1800  -32.3030 C   0  0  0  0  0  0  0  0  0  0  0  0
   -1.3380   18.4810  -32.9370 C   0  0  0  0  0  0  0  0  0  0  0  0
   -1.6440   16.9460  -33.7470 S   0  0  0  0  0  0  0  0  0  0  0  0
   -0.8620   16.9240  -35.0320 O   0  0  0  0  0  0  0  0  0  0  0  0
   -1.1720   15.8080  -32.8860 O   0  0  0  0  0  0  0  0  0  0  0  0
   -3.3530   16.8080  -34.0980 N   0  0  0  0  0  0  0  0  0  0  0  0
   -3.7920   15.5550  -34.7420 C   0  0  0  0  0  0  0  0  0  0  0  0
   -4.9910   14.8500  -34.0750 C   0  0  0  0  0  0  0  0  0  0  0  0
   -6.3180   15.6330  -33.9730 C   0  0  0  0  0  0  0  0  0  0  0  0
   -6.1960   17.1210  -33.6200 C   0  0  0  0  0  0  0  0  0  0  0  0
   -5.5230   17.9280  -34.7400 C   0  0  0  0  0  0  0  0  0  0  0  0
   -4.0030   18.0410  -34.5740 C   0  0  0  0  0  0  0  0  0  0  0  0
   -0.0490   19.0230  -32.9510 C   0  0  0  0  0  0  0  0  0  0  0  0
    0.2050   20.2490  -32.3320 C   0  0  0  0  0  0  0  0  0  0  0  0
   -5.5050   22.1010  -31.5090 C   0  0  0  0  0  0  0  0  0  0  0  0
   -6.7260   21.4290  -31.6390 C   0  0  0  0  0  0  0  0  0  0  0  0
   -6.9120   20.2310  -32.9120 Cl  0  0  0  0  0  0  0  0  0  0  0  0
  -10.9136   21.4375  -31.5056 H   0  0  0  0  0  0  0  0  0  0  0  0
   -9.6013   22.0544  -32.5657 H   0  0  0  0  0  0  0  0  0  0  0  0
  -10.0082   20.3048  -32.5657 H   0  0  0  0  0  0  0  0  0  0  0  0
   -8.4271   22.8956  -29.0546 H   0  0  0  0  0  0  0  0  0  0  0  0
   -6.2551   24.0966  -28.8374 H   0  0  0  0  0  0  0  0  0  0  0  0
   -4.4721   21.7629  -27.1754 H   0  0  0  0  0  0  0  0  0  0  0  0
   -3.6132   19.5558  -26.3953 H   0  0  0  0  0  0  0  0  0  0  0  0
   -1.3629   18.7620  -27.1240 H   0  0  0  0  0  0  0  0  0  0  0  0
    0.0357   20.1730  -28.6269 H   0  0  0  0  0  0  0  0  0  0  0  0
   -2.9454   20.9613  -31.2061 H   0  0  0  0  0  0  0  0  0  0  0  0
   -3.3922   18.7590  -32.2903 H   0  0  0  0  0  0  0  0  0  0  0  0
   -4.0703   15.7872  -35.7806 H   0  0  0  0  0  0  0  0  0  0  0  0
   -2.9454   14.8581  -34.6550 H   0  0  0  0  0  0  0  0  0  0  0  0
   -5.1936   13.9334  -34.6483 H   0  0  0  0  0  0  0  0  0  0  0  0
   -4.6780   14.6963  -33.0317 H   0  0  0  0  0  0  0  0  0  0  0  0
   -6.8282   15.5585  -34.9447 H   0  0  0  0  0  0  0  0  0  0  0  0
   -6.8691   15.1747  -33.1386 H   0  0  0  0  0  0  0  0  0  0  0  0
   -7.2031   17.5278  -33.4459 H   0  0  0  0  0  0  0  0  0  0  0  0
   -5.5700   17.2049  -32.7194 H   0  0  0  0  0  0  0  0  0  0  0  0
   -5.7340   17.4357  -35.7008 H   0  0  0  0  0  0  0  0  0  0  0  0
   -5.9328   18.9480  -34.6993 H   0  0  0  0  0  0  0  0  0  0  0  0
   -3.5684   18.3053  -35.5493 H   0  0  0  0  0  0  0  0  0  0  0  0
   -3.8257   18.8079  -33.8057 H   0  0  0  0  0  0  0  0  0  0  0  0
    0.7677   18.4819  -33.4512 H   0  0  0  0  0  0  0  0  0  0  0  0
    1.2200   20.6722  -32.3560 H   0  0  0  0  0  0  0  0  0  0  0  0
   -4.6793   21.8760  -32.2000 H   0  0  0  0  0  0  0  0  0  0  0  0
  1  2  1  0
  2  3  1  0
  3  4  2  0
  4  5  1  0
  5  6  2  0
  6  7  1  0
  7  8  2  0
  7  9  2  0
  7 10  1  0
 10 11  1  0
 11 12  2  0
 12 13  1  0
 13 14  2  0
 14 15  1  0
 15 16  2  0
 16 17  1  0
 17 18  2  0
 17 19  1  0
 19 20  1  0
 20 21  2  0
 21 22  1  0
 22 23  2  0
 23 24  1  0
 24 25  2  0
 24 26  2  0
 24 27  1  0
 27 28  1  0
 28 29  1  0
 29 30  1  0
 30 31  1  0
 31 32  1  0
 32 33  1  0
 23 34  1  0
 34 35  2  0
  6 36  1  0
 36 37  2  0
 37 38  1  0
 37  3  1  0
 16 11  1  0
 35 20  1  0
 33 27  1  0
  1 39  1  0
  1 40  1  0
  1 41  1  0
  4 42  1  0
  5 43  1  0
 12 44  1  0
 13 45  1  0
 14 46  1  0
 15 47  1  0
 21 48  1  0
 22 49  1  0
 28 50  1  0
 28 51  1  0
 29 52  1  0
 29 53  1  0
 30 54  1  0
 30 55  1  0
 31 56  1  0
 31 57  1  0
 32 58  1  0
 32 59  1  0
 33 60  1  0
 33 61  1  0
 34 62  1  0
 35 63  1  0
 36 64  1  0
M  CHG  2  10  -1  19  -1
M  END
>  <UniqueID>  (32) 
32

>  <SMILES>  (32) 
COc1ccc(S(=O)(=O)[N-]c2ccccc2C(=O)[N-]c2ccc(S(=O)(=O)N3CCCCCC3)cc2)cc1Cl

>  <Energy>  (32) 
92.82945578002236

>  <Genealogy>  (32) 
COc1ccc(S(=O)(=O)[N-]c2ccccc2C(=O)[N-]c2ccc(S(=O)(=O)N3CCCCCC3)cc2)cc1Cl (protonated)
COc1ccc(S(=O)(=O)[N-]c2ccccc2C(=O)[N-]c2ccc(S(=O)(=O)N3CCCCCC3)cc2)cc1Cl (3D coordinates assigned)
COc1ccc(S(=O)(=O)[N-]c2ccccc2C(=O)[N-]c2ccc(S(=O)(=O)N3CCCCCC3)cc2)cc1Cl (nonaromatic ring conformer: 92.82945578002236 kcal/mol)

>  <smiles>  (32) 
COc1ccc(S(=O)(=O)Nc2ccccc2C(=O)Nc2ccc(S(=O)(=O)N3CCCCCC3)cc2)cc1Cl

>  <score_type>  (32) 
oracle

>  <origin>  (32) 
adgpu

>  <m_score__min__energy>  (32) 
-10.710000000000001

>  <m_primary>  (32) 
energy

$$$$
32:0
     RDKit          3D

 39 40  0  0  0  0  0  0  0  0999 V2000
   -1.8870   19.4380  -32.7010 C   0  0  0  0  0  0  0  0  0  0  0  0
   -3.1150   19.6060  -33.5000 N   0  0  0  0  0  0  0  0  0  0  0  0
   -4.0600   18.4930  -33.2460 C   0  0  0  0  0  0  0  0  0  0  0  0
   -5.2890   18.6190  -34.1530 C   0  0  0  0  0  0  0  0  0  0  0  0
   -6.5270   18.8840  -33.3380 C   0  0  0  0  0  0  0  0  0  0  0  0
   -6.9800   17.9360  -32.4080 C   0  0  0  0  0  0  0  0  0  0  0  0
   -8.1110   18.2150  -31.6370 C   0  0  0  0  0  0  0  0  0  0  0  0
   -8.7600   19.4020  -31.7830 N   0  0  0  0  0  0  0  0  0  0  0  0
   -8.3350   20.3430  -32.6670 C   0  0  0  0  0  0  0  0  0  0  0  0
   -7.2070   20.1040  -33.4570 C   0  0  0  0  0  0  0  0  0  0  0  0
   -3.7310   20.9190  -33.2030 C   0  0  0  0  0  0  0  0  0  0  0  0
   -4.4500   20.9080  -31.8440 C   0  0  0  0  0  0  0  0  0  0  0  0
   -4.8050   22.3010  -31.3930 C   0  0  0  0  0  0  0  0  0  0  0  0
   -6.1190   22.7770  -31.5290 C   0  0  0  0  0  0  0  0  0  0  0  0
   -6.4400   24.0820  -31.1450 C   0  0  0  0  0  0  0  0  0  0  0  0
   -5.4490   24.9270  -30.6250 C   0  0  0  0  0  0  0  0  0  0  0  0
   -5.7620   26.2300  -30.2410 O   0  0  0  0  0  0  0  0  0  0  0  0
   -4.1360   24.4580  -30.4930 C   0  0  0  0  0  0  0  0  0  0  0  0
   -3.1460   25.2900  -29.9810 O   0  0  0  0  0  0  0  0  0  0  0  0
   -3.8150   23.1520  -30.8770 C   0  0  0  0  0  0  0  0  0  0  0  0
   -2.1384   19.4724  -31.6307 H   0  0  0  0  0  0  0  0  0  0  0  0
   -1.4250   18.4683  -32.9382 H   0  0  0  0  0  0  0  0  0  0  0  0
   -1.1816   20.2480  -32.9382 H   0  0  0  0  0  0  0  0  0  0  0  0
   -3.5563   17.5363  -33.4487 H   0  0  0  0  0  0  0  0  0  0  0  0
   -4.3854   18.5334  -32.1960 H   0  0  0  0  0  0  0  0  0  0  0  0
   -5.1349   19.4505  -34.8564 H   0  0  0  0  0  0  0  0  0  0  0  0
   -5.4221   17.6748  -34.7015 H   0  0  0  0  0  0  0  0  0  0  0  0
   -6.4486   16.9805  -32.2870 H   0  0  0  0  0  0  0  0  0  0  0  0
   -8.4774   17.4742  -30.9110 H   0  0  0  0  0  0  0  0  0  0  0  0
   -8.8796   21.2941  -32.7608 H   0  0  0  0  0  0  0  0  0  0  0  0
   -6.8556   20.8674  -34.1667 H   0  0  0  0  0  0  0  0  0  0  0  0
   -2.9441   21.6874  -33.1851 H   0  0  0  0  0  0  0  0  0  0  0  0
   -4.4731   21.1375  -33.9850 H   0  0  0  0  0  0  0  0  0  0  0  0
   -5.3726   20.3156  -31.9331 H   0  0  0  0  0  0  0  0  0  0  0  0
   -3.7708   20.4678  -31.0990 H   0  0  0  0  0  0  0  0  0  0  0  0
   -6.8995   22.1197  -31.9397 H   0  0  0  0  0  0  0  0  0  0  0  0
   -7.4722   24.4470  -31.2509 H   0  0  0  0  0  0  0  0  0  0  0  0
   -5.1150   26.7910  -29.6990 H   0  0  0  0  0  0  0  0  0  0  0  0
   -2.7814   22.7898  -30.7741 H   0  0  0  0  0  0  0  0  0  0  0  0
  1  2  1  0
  2  3  1  0
  3  4  1  0
  4  5  1  0
  5  6  2  0
  6  7  1  0
  7  8  2  0
  8  9  1  0
  9 10  2  0
  2 11  1  0
 11 12  1  0
 12 13  1  0
 13 14  2  0
 14 15  1  0
 15 16  2  0
 16 17  1  0
 16 18  1  0
 18 19  1  0
 18 20  2  0
 10  5  1  0
 20 13  1  0
  1 21  1  0
  1 22  1  0
  1 23  1  0
  3 24  1  0
  3 25  1  0
  4 26  1  0
  4 27  1  0
  6 28  1  0
  7 29  1  0
  9 30  1  0
 10 31  1  0
 11 32  1  0
 11 33  1  0
 12 34  1  0
 12 35  1  0
 14 36  1  0
 15 37  1  0
 17 38  1  0
 20 39  1  0
M  CHG  1  19  -1
M  END
>  <UniqueID>  (33) 
33

>  <SMILES>  (33) 
CN(CCc1ccncc1)CCc1ccc(O)c([O-])c1

>  <Energy>  (33) 
36.545725570463354

>  <Genealogy>  (33) 
CN(CCc1ccncc1)CCc1ccc(O)c([O-])c1 (protonated)
CN(CCc1ccncc1)CCc1ccc(O)c([O-])c1 (3D coordinates assigned)
CN(CCc1ccncc1)CCc1ccc(O)c([O-])c1 (optimized conformer: 36.545725570463354 kcal/mol)

>  <smiles>  (33) 
CN(CCc1ccncc1)CCc1ccc(O)c(O)c1

>  <score_type>  (33) 
oracle

>  <origin>  (33) 
adgpu

>  <m_score__min__energy>  (33) 
-10.050000000000001

>  <m_primary>  (33) 
energy

$$$$
33:0
     RDKit          3D

 45 48  0  0  0  0  0  0  0  0999 V2000
   -0.5730   24.4810  -29.3110 N   0  0  0  0  0  0  0  0  0  0  0  0
   -2.1860   23.8610  -29.3760 S   0  0  0  0  0  0  0  0  0  0  0  0
   -2.6450   23.5530  -27.9790 O   0  0  0  0  0  0  0  0  0  0  0  0
   -3.0950   24.8910  -29.9860 O   0  0  0  0  0  0  0  0  0  0  0  0
   -2.2240   22.3980  -30.3540 C   0  0  0  0  0  0  0  0  0  0  0  0
   -1.3460   21.3290  -30.0660 C   0  0  0  0  0  0  0  0  0  0  0  0
   -1.3750   20.1530  -30.8340 C   0  0  0  0  0  0  0  0  0  0  0  0
   -2.2890   20.0600  -31.8840 C   0  0  0  0  0  0  0  0  0  0  0  0
   -2.4170   18.9800  -32.6940 N   0  0  0  0  0  0  0  0  0  0  0  0
   -3.3860   19.1900  -33.6210 C   0  0  0  0  0  0  0  0  0  0  0  0
   -3.7400   18.3150  -34.5140 N   0  0  0  0  0  0  0  0  0  0  0  0
   -3.1290   17.0320  -34.7270 C   0  0  0  0  0  0  0  0  0  0  0  0
   -2.3300   16.8990  -35.6910 O   0  0  0  0  0  0  0  0  0  0  0  0
   -3.3530   15.8880  -33.8090 C   0  0  0  0  0  0  0  0  0  0  0  0
   -2.5080   14.7660  -33.8900 C   0  0  0  0  0  0  0  0  0  0  0  0
   -2.7000   13.6720  -33.0480 C   0  0  0  0  0  0  0  0  0  0  0  0
   -3.7360   13.6810  -32.1160 C   0  0  0  0  0  0  0  0  0  0  0  0
   -4.5900   14.7810  -32.0260 C   0  0  0  0  0  0  0  0  0  0  0  0
   -4.4200   15.8910  -32.8810 C   0  0  0  0  0  0  0  0  0  0  0  0
   -5.2580   17.0580  -32.7850 N   0  0  0  0  0  0  0  0  0  0  0  0
   -6.2270   17.2500  -31.9400 C   0  0  0  0  0  0  0  0  0  0  0  0
   -6.9980   18.5090  -31.9510 C   0  0  0  0  0  0  0  0  0  0  0  0
   -8.3550   18.4840  -32.3100 C   0  0  0  0  0  0  0  0  0  0  0  0
   -9.1040   19.6630  -32.3270 C   0  0  0  0  0  0  0  0  0  0  0  0
   -8.5100   20.8830  -31.9850 C   0  0  0  0  0  0  0  0  0  0  0  0
   -9.4860   22.3450  -32.0180 Cl  0  0  0  0  0  0  0  0  0  0  0  0
   -7.1520   20.9200  -31.6240 C   0  0  0  0  0  0  0  0  0  0  0  0
   -6.3670   22.4310  -31.1880 Cl  0  0  0  0  0  0  0  0  0  0  0  0
   -6.4030   19.7380  -31.6070 C   0  0  0  0  0  0  0  0  0  0  0  0
   -4.1290   20.7010  -33.4610 S   0  0  0  0  0  0  0  0  0  0  0  0
   -3.1520   21.1090  -32.1570 C   0  0  0  0  0  0  0  0  0  0  0  0
   -3.1460   22.2850  -31.4110 C   0  0  0  0  0  0  0  0  0  0  0  0
   -0.4680   25.1470  -30.1090 H   0  0  0  0  0  0  0  0  0  0  0  0
   -0.4970   25.0450  -28.4350 H   0  0  0  0  0  0  0  0  0  0  0  0
   -0.6333   21.4184  -29.2329 H   0  0  0  0  0  0  0  0  0  0  0  0
   -0.6902   19.3214  -30.6117 H   0  0  0  0  0  0  0  0  0  0  0  0
   -1.6889   14.7521  -34.6241 H   0  0  0  0  0  0  0  0  0  0  0  0
   -2.0329   12.8003  -33.1193 H   0  0  0  0  0  0  0  0  0  0  0  0
   -3.8811   12.8183  -31.4492 H   0  0  0  0  0  0  0  0  0  0  0  0
   -5.4015   14.7830  -31.2834 H   0  0  0  0  0  0  0  0  0  0  0  0
   -6.4751   16.4662  -31.2091 H   0  0  0  0  0  0  0  0  0  0  0  0
   -8.8315   17.5299  -32.5796 H   0  0  0  0  0  0  0  0  0  0  0  0
  -10.1663   19.6322  -32.6107 H   0  0  0  0  0  0  0  0  0  0  0  0
   -5.3409   19.7692  -31.3226 H   0  0  0  0  0  0  0  0  0  0  0  0
   -3.8434   23.1037  -31.6419 H   0  0  0  0  0  0  0  0  0  0  0  0
  1  2  1  0
  2  3  2  0
  2  4  2  0
  2  5  1  0
  5  6  2  0
  6  7  1  0
  7  8  2  0
  8  9  1  0
  9 10  1  0
 10 11  2  3
 11 12  1  0
 12 13  2  0
 12 14  1  0
 14 15  2  0
 15 16  1  0
 16 17  2  0
 17 18  1  0
 18 19  2  0
 19 20  1  0
 20 21  2  3
 21 22  1  0
 22 23  2  0
 23 24  1  0
 24 25  2  0
 25 26  1  0
 25 27  1  0
 27 28  1  0
 27 29  2  0
 10 30  1  0
 30 31  1  0
 31 32  2  0
 32  5  1  0
 31  8  1  0
 19 14  1  0
 29 22  1  0
  1 33  1  0
  1 34  1  0
  6 35  1  0
  7 36  1  0
 15 37  1  0
 16 38  1  0
 17 39  1  0
 18 40  1  0
 21 41  1  0
 23 42  1  0
 24 43  1  0
 29 44  1  0
 32 45  1  0
M  CHG  1   9  -1
M  END
>  <UniqueID>  (34) 
34

>  <SMILES>  (34) 
NS(=O)(=O)c1ccc2[n-]c(=NC(=O)c3ccccc3N=Cc3ccc(Cl)c(Cl)c3)sc2c1

>  <Energy>  (34) 
95.21617824933345

>  <Genealogy>  (34) 
NS(=O)(=O)c1ccc2[n-]c(=NC(=O)c3ccccc3N=Cc3ccc(Cl)c(Cl)c3)sc2c1 (protonated)
NS(=O)(=O)c1ccc2[n-]c(=NC(=O)c3ccccc3N=Cc3ccc(Cl)c(Cl)c3)sc2c1 (3D coordinates assigned)
NS(=O)(=O)c1ccc2[n-]c(=NC(=O)c3ccccc3N=Cc3ccc(Cl)c(Cl)c3)sc2c1 (optimized conformer: 95.21617824933345 kcal/mol)

>  <smiles>  (34) 
NS(=O)(=O)c1ccc2[nH]c(=NC(=O)c3ccccc3N=Cc3ccc(Cl)c(Cl)c3)sc2c1

>  <score_type>  (34) 
oracle

>  <origin>  (34) 
adgpu

>  <m_score__min__energy>  (34) 
-11.359999999999999

>  <m_primary>  (34) 
energy

$$$$
34:0
     RDKit          3D

 43 44  0  0  0  0  0  0  0  0999 V2000
   -7.4480   22.8420  -32.3140 C   0  0  0  0  0  0  0  0  0  0  0  0
   -7.5160   21.3470  -32.3440 C   0  0  0  0  0  0  0  0  0  0  0  0
   -8.5540   20.5820  -31.8480 C   0  0  0  0  0  0  0  0  0  0  0  0
   -8.2540   19.2730  -31.9660 N   0  0  0  0  0  0  0  0  0  0  0  0
   -9.1150   18.1700  -31.5560 C   0  0  0  0  0  0  0  0  0  0  0  0
   -7.0330   19.1950  -32.5400 C   0  0  0  0  0  0  0  0  0  0  0  0
   -6.3600   17.9570  -32.8330 N   0  0  0  0  0  0  0  0  0  0  0  0
   -6.0220   17.0400  -31.7440 C   0  0  0  0  0  0  0  0  0  0  0  0
   -6.1520   17.5400  -34.2170 C   0  0  0  0  0  0  0  0  0  0  0  0
   -6.5310   20.4680  -32.7810 C   0  0  0  0  0  0  0  0  0  0  0  0
   -5.2210   20.8320  -33.4360 C   0  0  0  0  0  0  0  0  0  0  0  0
   -4.7700   22.1910  -33.0750 N   0  0  0  0  0  0  0  0  0  0  0  0
   -4.0530   22.2510  -31.7870 C   0  0  0  0  0  0  0  0  0  0  0  0
   -4.5630   23.3460  -30.8800 C   0  0  0  0  0  0  0  0  0  0  0  0
   -5.1100   24.4920  -31.3410 N   0  0  0  0  0  0  0  0  0  0  0  0
   -5.3540   25.2180  -30.2320 C   0  0  0  0  0  0  0  0  0  0  0  0
   -4.9300   24.5230  -29.1230 C   0  0  0  0  0  0  0  0  0  0  0  0
   -4.4270   23.3470  -29.5350 N   0  0  0  0  0  0  0  0  0  0  0  0
   -3.7660   22.3500  -28.6970 C   0  0  0  0  0  0  0  0  0  0  0  0
   -7.4323   23.1874  -31.2698 H   0  0  0  0  0  0  0  0  0  0  0  0
   -6.5337   23.1778  -32.8251 H   0  0  0  0  0  0  0  0  0  0  0  0
   -8.3281   23.2594  -32.8251 H   0  0  0  0  0  0  0  0  0  0  0  0
   -9.4857   20.9812  -31.4208 H   0  0  0  0  0  0  0  0  0  0  0  0
   -9.1521   18.1225  -30.4577 H   0  0  0  0  0  0  0  0  0  0  0  0
  -10.1292   18.3303  -31.9505 H   0  0  0  0  0  0  0  0  0  0  0  0
   -8.7133   17.2250  -31.9505 H   0  0  0  0  0  0  0  0  0  0  0  0
   -6.2042   17.5344  -30.7784 H   0  0  0  0  0  0  0  0  0  0  0  0
   -6.6466   16.1375  -31.8175 H   0  0  0  0  0  0  0  0  0  0  0  0
   -4.9611   16.7587  -31.8175 H   0  0  0  0  0  0  0  0  0  0  0  0
   -5.6611   16.5558  -34.2336 H   0  0  0  0  0  0  0  0  0  0  0  0
   -7.1228   17.4742  -34.7300 H   0  0  0  0  0  0  0  0  0  0  0  0
   -5.5154   18.2760  -34.7300 H   0  0  0  0  0  0  0  0  0  0  0  0
   -4.4546   20.1095  -33.1188 H   0  0  0  0  0  0  0  0  0  0  0  0
   -5.3721   20.8069  -34.5253 H   0  0  0  0  0  0  0  0  0  0  0  0
   -5.5650   22.8700  -33.0920 H   0  0  0  0  0  0  0  0  0  0  0  0
   -4.0980   22.5020  -33.8160 H   0  0  0  0  0  0  0  0  0  0  0  0
   -4.1729   21.2857  -31.2734 H   0  0  0  0  0  0  0  0  0  0  0  0
   -2.9976   22.4698  -32.0069 H   0  0  0  0  0  0  0  0  0  0  0  0
   -5.8208   26.2139  -30.2160 H   0  0  0  0  0  0  0  0  0  0  0  0
   -4.9919   24.8695  -28.0808 H   0  0  0  0  0  0  0  0  0  0  0  0
   -3.9289   22.5957  -27.6372 H   0  0  0  0  0  0  0  0  0  0  0  0
   -4.1842   21.3554  -28.9113 H   0  0  0  0  0  0  0  0  0  0  0  0
   -2.6871   22.3480  -28.9113 H   0  0  0  0  0  0  0  0  0  0  0  0
  1  2  1  0
  2  3  2  0
  3  4  1  0
  4  5  1  0
  4  6  1  0
  6  7  1  0
  7  8  1  0
  7  9  1  0
  6 10  2  0
 10 11  1  0
 11 12  1  0
 12 13  1  0
 13 14  1  0
 14 15  2  0
 15 16  1  0
 16 17  2  0
 17 18  1  0
 18 19  1  0
 10  2  1  0
 18 14  1  0
  1 20  1  0
  1 21  1  0
  1 22  1  0
  3 23  1  0
  5 24  1  0
  5 25  1  0
  5 26  1  0
  8 27  1  0
  8 28  1  0
  8 29  1  0
  9 30  1  0
  9 31  1  0
  9 32  1  0
 11 33  1  0
 11 34  1  0
 12 35  1  0
 12 36  1  0
 13 37  1  0
 13 38  1  0
 16 39  1  0
 17 40  1  0
 19 41  1  0
 19 42  1  0
 19 43  1  0
M  CHG  1  12   1
M  END
>  <UniqueID>  (35) 
35

>  <SMILES>  (35) 
Cc1cn(C)c(N(C)C)c1C[NH2+]Cc1nccn1C

>  <Energy>  (35) 
96.55050870747816

>  <Genealogy>  (35) 
Cc1cn(C)c(N(C)C)c1C[NH2+]Cc1nccn1C (protonated)
Cc1cn(C)c(N(C)C)c1C[NH2+]Cc1nccn1C (3D coordinates assigned)
Cc1cn(C)c(N(C)C)c1C[NH2+]Cc1nccn1C (optimized conformer: 96.55050870747816 kcal/mol)

>  <smiles>  (35) 
Cc1cn(C)c(N(C)C)c1CNCc1nccn1C

>  <score_type>  (35) 
oracle

>  <origin>  (35) 
adgpu

>  <m_score__min__energy>  (35) 
-5.9699999999999998

>  <m_primary>  (35) 
energy

$$$$
35:0
     RDKit          3D

 51 53  0  0  0  0  0  0  0  0999 V2000
   -7.5079   21.7970  -32.0244 H   0  0  0  0  0  0  0  0  0  0  0  0
   -6.6630   22.4120  -31.6810 C   0  0  0  0  0  0  0  0  0  0  0  0
   -6.8950   23.6300  -31.1270 N   0  0  0  0  0  0  0  0  0  0  0  0
   -5.8840   24.4360  -30.7000 C   0  0  0  0  0  0  0  0  0  0  0  0
   -6.2180   25.7660  -30.0970 C   0  0  0  0  0  0  0  0  0  0  0  0
   -6.1981   25.6866  -29.0000 H   0  0  0  0  0  0  0  0  0  0  0  0
   -5.4795   26.5127  -30.4241 H   0  0  0  0  0  0  0  0  0  0  0  0
   -7.2217   26.0752  -30.4241 H   0  0  0  0  0  0  0  0  0  0  0  0
   -4.5470   24.0190  -30.8450 C   0  0  0  0  0  0  0  0  0  0  0  0
   -3.4870   24.8870  -30.4120 N   0  0  0  0  0  0  0  0  0  0  0  0
   -2.3280   24.5390  -29.1700 S   0  0  0  0  0  0  0  0  0  0  0  0
   -1.5370   23.3280  -29.5730 O   0  0  0  0  0  0  0  0  0  0  0  0
   -1.3850   25.6980  -29.0050 O   0  0  0  0  0  0  0  0  0  0  0  0
   -3.1590   24.1930  -27.6330 C   0  0  0  0  0  0  0  0  0  0  0  0
   -2.5039   24.4658  -26.7925 H   0  0  0  0  0  0  0  0  0  0  0  0
   -4.0884   24.7789  -27.5787 H   0  0  0  0  0  0  0  0  0  0  0  0
   -3.3979   23.1206  -27.5787 H   0  0  0  0  0  0  0  0  0  0  0  0
   -4.2940   22.7630  -31.4200 C   0  0  0  0  0  0  0  0  0  0  0  0
   -3.2566   22.4252  -31.5601 H   0  0  0  0  0  0  0  0  0  0  0  0
   -5.3560   21.9360  -31.8170 C   0  0  0  0  0  0  0  0  0  0  0  0
   -5.1430   20.6570  -32.4380 N   0  0  0  0  0  0  0  0  0  0  0  0
   -5.9270   19.6200  -32.3770 C   0  0  0  0  0  0  0  0  0  0  0  0
   -5.5460   18.4660  -32.9830 N   0  0  0  0  0  0  0  0  0  0  0  0
   -6.3340   17.3550  -32.9760 C   0  0  0  0  0  0  0  0  0  0  0  0
   -5.8780   16.1500  -33.6290 N   0  0  0  0  0  0  0  0  0  0  0  0
   -4.4780   15.8310  -33.7210 C   0  0  0  0  0  0  0  0  0  0  0  0
   -3.8990   14.9140  -32.8150 C   0  0  0  0  0  0  0  0  0  0  0  0
   -4.7290   14.2740  -31.7360 C   0  0  0  0  0  0  0  0  0  0  0  0
   -4.3422   14.5723  -30.7504 H   0  0  0  0  0  0  0  0  0  0  0  0
   -5.7743   14.6021  -31.8343 H   0  0  0  0  0  0  0  0  0  0  0  0
   -4.6774   13.1796  -31.8343 H   0  0  0  0  0  0  0  0  0  0  0  0
   -2.5310   14.6160  -32.9110 C   0  0  0  0  0  0  0  0  0  0  0  0
   -2.0731   13.9144  -32.1981 H   0  0  0  0  0  0  0  0  0  0  0  0
   -1.7480   15.2040  -33.9050 C   0  0  0  0  0  0  0  0  0  0  0  0
   -0.6779   14.9596  -33.9762 H   0  0  0  0  0  0  0  0  0  0  0  0
   -2.3180   16.1010  -34.8090 C   0  0  0  0  0  0  0  0  0  0  0  0
   -1.6963   16.5533  -35.5957 H   0  0  0  0  0  0  0  0  0  0  0  0
   -3.6800   16.4300  -34.7210 C   0  0  0  0  0  0  0  0  0  0  0  0
   -4.2830   17.3880  -35.7130 C   0  0  0  0  0  0  0  0  0  0  0  0
   -4.7940   18.1998  -35.1747 H   0  0  0  0  0  0  0  0  0  0  0  0
   -3.4877   17.8106  -36.3446 H   0  0  0  0  0  0  0  0  0  0  0  0
   -5.0079   16.8537  -36.3446 H   0  0  0  0  0  0  0  0  0  0  0  0
   -6.8480   15.2160  -34.2040 C   0  0  0  0  0  0  0  0  0  0  0  0
   -7.3843   14.6996  -33.3942 H   0  0  0  0  0  0  0  0  0  0  0  0
   -7.5672   15.7703  -34.8249 H   0  0  0  0  0  0  0  0  0  0  0  0
   -6.3213   14.4764  -34.8249 H   0  0  0  0  0  0  0  0  0  0  0  0
   -7.5790   17.4130  -32.3270 C   0  0  0  0  0  0  0  0  0  0  0  0
   -8.2385   16.5330  -32.2994 H   0  0  0  0  0  0  0  0  0  0  0  0
   -7.9620   18.6070  -31.7190 C   0  0  0  0  0  0  0  0  0  0  0  0
   -8.9335   18.6763  -31.2077 H   0  0  0  0  0  0  0  0  0  0  0  0
   -7.1380   19.6840  -31.7570 N   0  0  0  0  0  0  0  0  0  0  0  0
  1  2  1  0
  2  3  2  0
  3  4  1  0
  4  5  1  0
  5  6  1  0
  5  7  1  0
  5  8  1  0
  4  9  2  0
  9 10  1  0
 10 11  1  0
 11 12  2  0
 11 13  2  0
 11 14  1  0
 14 15  1  0
 14 16  1  0
 14 17  1  0
  9 18  1  0
 18 19  1  0
 18 20  2  0
 20 21  1  0
 21 22  2  0
 22 23  1  0
 23 24  2  0
 24 25  1  0
 25 26  1  0
 26 27  2  0
 27 28  1  0
 28 29  1  0
 28 30  1  0
 28 31  1  0
 27 32  1  0
 32 33  1  0
 32 34  2  0
 34 35  1  0
 34 36  1  0
 36 37  1  0
 36 38  2  0
 38 39  1  0
 39 40  1  0
 39 41  1  0
 39 42  1  0
 25 43  1  0
 43 44  1  0
 43 45  1  0
 43 46  1  0
 24 47  1  0
 47 48  1  0
 47 49  2  0
 49 50  1  0
 49 51  1  0
 20  2  1  0
 51 22  1  0
 38 26  1  0
M  CHG  2  10  -1  51  -1
M  END
>  <UniqueID>  (36) 
36

>  <SMILES>  (36) 
Cc1cccc(C)c1N(C)c1cc[n-]/c(=N\c2cnc(C)c([N-]S(C)(=O)=O)c2)n1

>  <Energy>  (36) 
65.50733801225627

>  <Genealogy>  (36) 
Cc1cccc(C)c1N(C)c1cc[n-]c(=Nc2cnc(C)c([N-]S(C)(=O)=O)c2)n1 (protonated)
Cc1cccc(C)c1N(C)c1cc[n-]/c(=N\c2cnc(C)c([N-]S(C)(=O)=O)c2)n1 (cis-trans isomerization)
Cc1cccc(C)c1N(C)c1cc[n-]/c(=N\c2cnc(C)c([N-]S(C)(=O)=O)c2)n1 (3D coordinates assigned)
Cc1cccc(C)c1N(C)c1cc[n-]/c(=N\c2cnc(C)c([N-]S(C)(=O)=O)c2)n1 (optimized conformer: 65.50733801225627 kcal/mol)

>  <smiles>  (36) 
Cc1cccc(C)c1N(C)c1cc[nH]c(=Nc2cnc(C)c(NS(C)(=O)=O)c2)n1

>  <score_type>  (36) 
oracle

>  <origin>  (36) 
adgpu

>  <m_score__min__energy>  (36) 
-10.31

>  <m_primary>  (36) 
energy

$$$$
36:0
     RDKit          3D

 39 40  0  0  0  0  0  0  0  0999 V2000
   -3.5150   24.2500  -28.0990 C   0  0  0  0  0  0  0  0  0  0  0  0
   -2.7130   23.9240  -29.2820 N   0  0  0  0  0  0  0  0  0  0  0  0
   -1.2650   24.1510  -29.2870 C   0  0  0  0  0  0  0  0  0  0  0  0
   -3.3550   23.3780  -30.4510 C   0  0  0  0  0  0  0  0  0  0  0  0
   -4.6020   23.7870  -30.8050 N   0  0  0  0  0  0  0  0  0  0  0  0
   -5.2050   23.2690  -31.9030 C   0  0  0  0  0  0  0  0  0  0  0  0
   -6.8630   23.7820  -32.3450 S   0  0  0  0  0  0  0  0  0  0  0  0
   -7.6790   22.7830  -31.0490 C   0  0  0  0  0  0  0  0  0  0  0  0
   -7.9240   21.3760  -31.5250 C   0  0  0  0  0  0  0  0  0  0  0  0
   -9.2060   20.9880  -31.9480 C   0  0  0  0  0  0  0  0  0  0  0  0
   -9.4270   19.6940  -32.4300 C   0  0  0  0  0  0  0  0  0  0  0  0
   -8.3710   18.7810  -32.4950 C   0  0  0  0  0  0  0  0  0  0  0  0
   -7.0920   19.1600  -32.0800 C   0  0  0  0  0  0  0  0  0  0  0  0
   -6.8670   20.4520  -31.5950 C   0  0  0  0  0  0  0  0  0  0  0  0
   -4.5640   22.3420  -32.6560 N   0  0  0  0  0  0  0  0  0  0  0  0
   -3.3200   21.9190  -32.3100 C   0  0  0  0  0  0  0  0  0  0  0  0
   -2.6490   20.9150  -33.0960 N   0  0  0  0  0  0  0  0  0  0  0  0
   -3.3600   19.6860  -33.4630 C   0  0  0  0  0  0  0  0  0  0  0  0
   -1.2680   21.1360  -33.5320 C   0  0  0  0  0  0  0  0  0  0  0  0
   -2.7210   22.4410  -31.2070 N   0  0  0  0  0  0  0  0  0  0  0  0
   -2.9403   24.0164  -27.1906 H   0  0  0  0  0  0  0  0  0  0  0  0
   -3.7651   25.3212  -28.1093 H   0  0  0  0  0  0  0  0  0  0  0  0
   -4.4415   23.6571  -28.1093 H   0  0  0  0  0  0  0  0  0  0  0  0
   -0.8993   24.2083  -28.2512 H   0  0  0  0  0  0  0  0  0  0  0  0
   -0.7654   23.3202  -29.8068 H   0  0  0  0  0  0  0  0  0  0  0  0
   -1.0436   25.0948  -29.8068 H   0  0  0  0  0  0  0  0  0  0  0  0
   -7.0343   22.7540  -30.1582 H   0  0  0  0  0  0  0  0  0  0  0  0
   -8.6480   23.2450  -30.8092 H   0  0  0  0  0  0  0  0  0  0  0  0
  -10.0392   21.7046  -31.8999 H   0  0  0  0  0  0  0  0  0  0  0  0
  -10.4332   19.3945  -32.7584 H   0  0  0  0  0  0  0  0  0  0  0  0
   -8.5470   17.7632  -32.8732 H   0  0  0  0  0  0  0  0  0  0  0  0
   -6.2611   18.4413  -32.1348 H   0  0  0  0  0  0  0  0  0  0  0  0
   -5.8592   20.7464  -31.2670 H   0  0  0  0  0  0  0  0  0  0  0  0
   -3.6677   19.1541  -32.5507 H   0  0  0  0  0  0  0  0  0  0  0  0
   -4.2502   19.9408  -34.0568 H   0  0  0  0  0  0  0  0  0  0  0  0
   -2.6954   19.0413  -34.0568 H   0  0  0  0  0  0  0  0  0  0  0  0
   -0.6176   21.2401  -32.6510 H   0  0  0  0  0  0  0  0  0  0  0  0
   -0.9328   20.2801  -34.1362 H   0  0  0  0  0  0  0  0  0  0  0  0
   -1.2167   22.0538  -34.1362 H   0  0  0  0  0  0  0  0  0  0  0  0
  1  2  1  0
  2  3  1  0
  2  4  1  0
  4  5  2  0
  5  6  1  0
  6  7  1  0
  7  8  1  0
  8  9  1  0
  9 10  2  0
 10 11  1  0
 11 12  2  0
 12 13  1  0
 13 14  2  0
  6 15  2  0
 15 16  1  0
 16 17  1  0
 17 18  1  0
 17 19  1  0
 16 20  2  0
 20  4  1  0
 14  9  1  0
  1 21  1  0
  1 22  1  0
  1 23  1  0
  3 24  1  0
  3 25  1  0
  3 26  1  0
  8 27  1  0
  8 28  1  0
 10 29  1  0
 11 30  1  0
 12 31  1  0
 13 32  1  0
 14 33  1  0
 18 34  1  0
 18 35  1  0
 18 36  1  0
 19 37  1  0
 19 38  1  0
 19 39  1  0
M  END
>  <UniqueID>  (37) 
37

>  <SMILES>  (37) 
CN(C)c1nc(SCc2ccccc2)nc(N(C)C)n1

>  <Energy>  (37) 
27.263565350295316

>  <Genealogy>  (37) 
CN(C)c1nc(SCc2ccccc2)nc(N(C)C)n1 (3D coordinates assigned)
CN(C)c1nc(SCc2ccccc2)nc(N(C)C)n1 (optimized conformer: 27.263565350295316 kcal/mol)

>  <smiles>  (37) 
CN(C)c1nc(SCc2ccccc2)nc(N(C)C)n1

>  <score_type>  (37) 
oracle

>  <origin>  (37) 
adgpu

>  <m_score__min__energy>  (37) 
-6.4900000000000002

>  <m_primary>  (37) 
energy

$$$$
37:0
     RDKit          3D

 31 33  0  0  0  0  0  0  0  0999 V2000
   -6.1258   26.6217  -30.8506 H   0  0  0  0  0  0  0  0  0  0  0  0
   -5.5590   25.6790  -30.8470 C   0  0  0  0  0  0  0  0  0  0  0  0
   -4.3210   25.6340  -30.2910 N   0  0  0  0  0  0  0  0  0  0  0  0
   -3.6000   24.4810  -30.2690 C   0  0  0  0  0  0  0  0  0  0  0  0
   -2.4200   24.4900  -29.7140 N   0  0  0  0  0  0  0  0  0  0  0  0
   -1.3970   23.4430  -29.5190 C   0  0  0  0  0  0  0  0  0  0  0  0
   -0.6364   24.1581  -29.1725 H   0  0  0  0  0  0  0  0  0  0  0  0
   -1.8800   22.0800  -29.0500 C   0  0  0  0  0  0  0  0  0  0  0  0
   -1.2723   21.4931  -28.3456 H   0  0  0  0  0  0  0  0  0  0  0  0
   -2.7965   21.6994  -28.5755 H   0  0  0  0  0  0  0  0  0  0  0  0
   -1.4070   22.2740  -30.4920 C   0  0  0  0  0  0  0  0  0  0  0  0
   -0.4588   21.8269  -30.8254 H   0  0  0  0  0  0  0  0  0  0  0  0
   -1.8416   22.0912  -31.4858 H   0  0  0  0  0  0  0  0  0  0  0  0
   -4.1290   23.3560  -30.8210 N   0  0  0  0  0  0  0  0  0  0  0  0
   -5.3560   23.3530  -31.4090 C   0  0  0  0  0  0  0  0  0  0  0  0
   -5.8710   22.1260  -31.9450 N   0  0  0  0  0  0  0  0  0  0  0  0
   -7.1130   21.7230  -31.7250 N   0  0  0  0  0  0  0  0  0  0  0  0
   -7.2700   20.5310  -32.3310 C   0  0  0  0  0  0  0  0  0  0  0  0
   -8.5560   19.7770  -32.3650 C   0  0  0  0  0  0  0  0  0  0  0  0
   -8.8926   19.5796  -31.3365 H   0  0  0  0  0  0  0  0  0  0  0  0
   -9.3163   20.3724  -32.8918 H   0  0  0  0  0  0  0  0  0  0  0  0
   -8.4078   18.8228  -32.8918 H   0  0  0  0  0  0  0  0  0  0  0  0
   -6.1000   20.1610  -32.9640 C   0  0  0  0  0  0  0  0  0  0  0  0
   -5.9101   19.2553  -33.5587 H   0  0  0  0  0  0  0  0  0  0  0  0
   -5.2230   21.1890  -32.6790 C   0  0  0  0  0  0  0  0  0  0  0  0
   -3.7830   21.2220  -33.0920 C   0  0  0  0  0  0  0  0  0  0  0  0
   -3.1449   21.2366  -32.1961 H   0  0  0  0  0  0  0  0  0  0  0  0
   -3.5529   20.3289  -33.6915 H   0  0  0  0  0  0  0  0  0  0  0  0
   -3.5941   22.1247  -33.6915 H   0  0  0  0  0  0  0  0  0  0  0  0
   -6.1120   24.5320  -31.4130 C   0  0  0  0  0  0  0  0  0  0  0  0
   -7.1199   24.5521  -31.8532 H   0  0  0  0  0  0  0  0  0  0  0  0
  1  2  1  0
  2  3  1  0
  3  4  1  0
  4  5  2  0
  5  6  1  0
  6  7  1  0
  6  8  1  0
  8  9  1  0
  8 10  1  0
  8 11  1  0
 11 12  1  0
 11 13  1  0
  4 14  1  0
 14 15  2  0
 15 16  1  0
 16 17  1  0
 17 18  2  0
 18 19  1  0
 19 20  1  0
 19 21  1  0
 19 22  1  0
 18 23  1  0
 23 24  1  0
 23 25  2  0
 25 26  1  0
 26 27  1  0
 26 28  1  0
 26 29  1  0
 15 30  1  0
 30 31  1  0
 30  2  2  0
 11  6  1  0
 25 16  1  0
M  CHG  1   3  -1
M  END
>  <UniqueID>  (38) 
38

>  <SMILES>  (38) 
Cc1cc(C)n(-c2cc[n-]/c(=N/C3CC3)n2)n1

>  <Energy>  (38) 
339.486154226615

>  <Genealogy>  (38) 
Cc1cc(C)n(-c2cc[n-]c(=NC3CC3)n2)n1 (protonated)
Cc1cc(C)n(-c2cc[n-]/c(=N/C3CC3)n2)n1 (cis-trans isomerization)
Cc1cc(C)n(-c2cc[n-]/c(=N/C3CC3)n2)n1 (3D coordinates assigned)
Cc1cc(C)n(-c2cc[n-]/c(=N/C3CC3)n2)n1 (nonaromatic ring conformer: 339.486154226615 kcal/mol)

>  <smiles>  (38) 
Cc1cc(C)n(-c2cc[nH]c(=NC3CC3)n2)n1

>  <score_type>  (38) 
oracle

>  <origin>  (38) 
adgpu

>  <m_score__min__energy>  (38) 
-7.7800000000000002

>  <m_primary>  (38) 
energy

$$$$
38:0
     RDKit          3D

 44 46  0  0  0  0  0  0  0  0999 V2000
   -4.2010   20.0980  -31.8060 C   0  0  0  0  0  0  0  0  0  0  0  0
   -3.4490   20.5120  -33.0640 C   0  0  0  0  0  0  0  0  0  0  0  0
   -1.6450   20.4800  -32.7810 S   0  0  0  0  0  0  0  0  0  0  0  0
   -1.7270   21.2140  -31.1500 C   0  0  0  0  0  0  0  0  0  0  0  0
   -1.3900   20.4810  -30.0600 N   0  0  0  0  0  0  0  0  0  0  0  0
   -1.4240   21.0280  -28.8180 C   0  0  0  0  0  0  0  0  0  0  0  0
   -1.8040   22.3610  -28.6450 C   0  0  0  0  0  0  0  0  0  0  0  0
   -1.7690   23.0370  -27.0180 Cl  0  0  0  0  0  0  0  0  0  0  0  0
   -2.1550   23.1110  -29.7870 C   0  0  0  0  0  0  0  0  0  0  0  0
   -2.5940   24.5280  -29.7170 C   0  0  0  0  0  0  0  0  0  0  0  0
   -2.0320   25.3240  -28.9210 O   0  0  0  0  0  0  0  0  0  0  0  0
   -3.7250   24.9960  -30.4650 N   0  0  0  0  0  0  0  0  0  0  0  0
   -4.9300   24.2590  -30.7050 C   0  0  0  0  0  0  0  0  0  0  0  0
   -6.0360   24.3630  -29.8430 C   0  0  0  0  0  0  0  0  0  0  0  0
   -7.2120   23.6640  -30.1220 C   0  0  0  0  0  0  0  0  0  0  0  0
   -7.2970   22.8520  -31.2610 C   0  0  0  0  0  0  0  0  0  0  0  0
   -8.8180   22.0510  -31.6520 S   0  0  0  0  0  0  0  0  0  0  0  0
   -9.4960   21.5920  -30.3900 O   0  0  0  0  0  0  0  0  0  0  0  0
   -9.7170   23.0370  -32.3420 O   0  0  0  0  0  0  0  0  0  0  0  0
   -8.5810   20.6740  -32.6950 N   0  0  0  0  0  0  0  0  0  0  0  0
   -7.8130   19.6120  -32.0410 C   0  0  0  0  0  0  0  0  0  0  0  0
   -7.0070   18.8280  -33.0310 C   0  0  0  0  0  0  0  0  0  0  0  0
   -6.8660   17.4550  -33.0480 C   0  0  0  0  0  0  0  0  0  0  0  0
   -6.0470   17.1820  -34.1220 C   0  0  0  0  0  0  0  0  0  0  0  0
   -5.7400   18.4010  -34.6900 C   0  0  0  0  0  0  0  0  0  0  0  0
   -6.3260   19.3640  -34.0160 O   0  0  0  0  0  0  0  0  0  0  0  0
   -6.1780   22.7110  -32.0940 C   0  0  0  0  0  0  0  0  0  0  0  0
   -4.9980   23.4040  -31.8100 C   0  0  0  0  0  0  0  0  0  0  0  0
   -2.1040   22.5090  -31.0070 N   0  0  0  0  0  0  0  0  0  0  0  0
   -3.6316   20.4115  -30.9186 H   0  0  0  0  0  0  0  0  0  0  0  0
   -5.1904   20.5785  -31.7954 H   0  0  0  0  0  0  0  0  0  0  0  0
   -4.3241   19.0050  -31.7954 H   0  0  0  0  0  0  0  0  0  0  0  0
   -3.6987   19.8164  -33.8788 H   0  0  0  0  0  0  0  0  0  0  0  0
   -3.7459   21.5369  -33.3312 H   0  0  0  0  0  0  0  0  0  0  0  0
   -1.1510   20.4187  -27.9438 H   0  0  0  0  0  0  0  0  0  0  0  0
   -5.9745   24.9970  -28.9462 H   0  0  0  0  0  0  0  0  0  0  0  0
   -8.0749   23.7510  -29.4453 H   0  0  0  0  0  0  0  0  0  0  0  0
   -7.1326   20.0645  -31.3046 H   0  0  0  0  0  0  0  0  0  0  0  0
   -8.5201   18.9262  -31.5513 H   0  0  0  0  0  0  0  0  0  0  0  0
   -7.3133   16.7311  -32.3509 H   0  0  0  0  0  0  0  0  0  0  0  0
   -5.7066   16.1916  -34.4586 H   0  0  0  0  0  0  0  0  0  0  0  0
   -5.1010   18.5448  -35.5738 H   0  0  0  0  0  0  0  0  0  0  0  0
   -6.2290   22.0528  -32.9739 H   0  0  0  0  0  0  0  0  0  0  0  0
   -4.1186   23.2765  -32.4584 H   0  0  0  0  0  0  0  0  0  0  0  0
  1  2  1  0
  2  3  1  0
  3  4  1  0
  4  5  2  0
  5  6  1  0
  6  7  2  0
  7  8  1  0
  7  9  1  0
  9 10  1  0
 10 11  2  0
 10 12  1  0
 12 13  1  0
 13 14  2  0
 14 15  1  0
 15 16  2  0
 16 17  1  0
 17 18  2  0
 17 19  2  0
 17 20  1  0
 20 21  1  0
 21 22  1  0
 22 23  2  0
 23 24  1  0
 24 25  2  0
 25 26  1  0
 16 27  1  0
 27 28  2  0
  9 29  2  0
 29  4  1  0
 28 13  1  0
 26 22  1  0
  1 30  1  0
  1 31  1  0
  1 32  1  0
  2 33  1  0
  2 34  1  0
  6 35  1  0
 14 36  1  0
 15 37  1  0
 21 38  1  0
 21 39  1  0
 23 40  1  0
 24 41  1  0
 25 42  1  0
 27 43  1  0
 28 44  1  0
M  CHG  2  12  -1  20  -1
M  END
>  <UniqueID>  (39) 
39

>  <SMILES>  (39) 
CCSc1ncc(Cl)c(C(=O)[N-]c2ccc(S(=O)(=O)[N-]Cc3ccco3)cc2)n1

>  <Energy>  (39) 
70.49074391444

>  <Genealogy>  (39) 
CCSc1ncc(Cl)c(C(=O)[N-]c2ccc(S(=O)(=O)[N-]Cc3ccco3)cc2)n1 (protonated)
CCSc1ncc(Cl)c(C(=O)[N-]c2ccc(S(=O)(=O)[N-]Cc3ccco3)cc2)n1 (3D coordinates assigned)
CCSc1ncc(Cl)c(C(=O)[N-]c2ccc(S(=O)(=O)[N-]Cc3ccco3)cc2)n1 (optimized conformer: 70.49074391444 kcal/mol)

>  <smiles>  (39) 
CCSc1ncc(Cl)c(C(=O)Nc2ccc(S(=O)(=O)NCc3ccco3)cc2)n1

>  <score_type>  (39) 
oracle

>  <origin>  (39) 
adgpu

>  <m_score__min__energy>  (39) 
-10.699999999999999

>  <m_primary>  (39) 
energy

$$$$
39:0
     RDKit          3D

 49 52  0  0  0  0  0  0  0  0999 V2000
   -7.0993   15.7331  -33.4698 H   0  0  0  0  0  0  0  0  0  0  0  0
   -6.8750   16.8100  -33.4640 C   0  0  0  0  0  0  0  0  0  0  0  0
   -7.4330   17.6340  -32.4840 C   0  0  0  0  0  0  0  0  0  0  0  0
   -8.1014   17.2064  -31.7222 H   0  0  0  0  0  0  0  0  0  0  0  0
   -7.1430   19.0020  -32.4700 C   0  0  0  0  0  0  0  0  0  0  0  0
   -7.5911   19.6497  -31.7021 H   0  0  0  0  0  0  0  0  0  0  0  0
   -6.2790   19.5530  -33.4360 C   0  0  0  0  0  0  0  0  0  0  0  0
   -5.9760   20.9220  -33.4670 O   0  0  0  0  0  0  0  0  0  0  0  0
   -5.7610   21.7330  -32.3430 C   0  0  0  0  0  0  0  0  0  0  0  0
   -4.6520   21.4720  -31.5300 C   0  0  0  0  0  0  0  0  0  0  0  0
   -3.9675   20.6499  -31.7863 H   0  0  0  0  0  0  0  0  0  0  0  0
   -4.4090   22.2500  -30.3940 C   0  0  0  0  0  0  0  0  0  0  0  0
   -3.5356   22.0346  -29.7609 H   0  0  0  0  0  0  0  0  0  0  0  0
   -5.2720   23.3040  -30.0560 C   0  0  0  0  0  0  0  0  0  0  0  0
   -5.0160   24.0750  -28.8700 N   0  0  0  0  0  0  0  0  0  0  0  0
   -5.8360   24.3760  -28.2960 H   0  0  0  0  0  0  0  0  0  0  0  0
   -3.7070   24.4670  -28.4220 C   0  0  0  0  0  0  0  0  0  0  0  0
   -3.4560   24.7350  -27.0640 C   0  0  0  0  0  0  0  0  0  0  0  0
   -4.2606   24.6175  -26.3232 H   0  0  0  0  0  0  0  0  0  0  0  0
   -2.1840   25.1510  -26.6540 C   0  0  0  0  0  0  0  0  0  0  0  0
   -1.9830   25.3730  -25.3840 N   0  0  0  0  0  0  0  0  0  0  0  0
   -0.7970   25.8910  -24.7610 C   0  0  0  0  0  0  0  0  0  0  0  0
   -0.8010   27.2030  -24.2760 C   0  0  0  0  0  0  0  0  0  0  0  0
   -1.7194   27.8055  -24.3365 H   0  0  0  0  0  0  0  0  0  0  0  0
    0.3550   27.7530  -23.7150 C   0  0  0  0  0  0  0  0  0  0  0  0
    0.3388   28.7840  -23.3318 H   0  0  0  0  0  0  0  0  0  0  0  0
    1.5380   26.9980  -23.6370 C   0  0  0  0  0  0  0  0  0  0  0  0
    2.7990   27.6070  -23.0790 C   0  0  0  0  0  0  0  0  0  0  0  0
    3.4030   28.4270  -24.0180 F   0  0  0  0  0  0  0  0  0  0  0  0
    3.7020   26.6200  -22.7230 F   0  0  0  0  0  0  0  0  0  0  0  0
    2.4880   28.3550  -21.9600 F   0  0  0  0  0  0  0  0  0  0  0  0
    1.5560   25.7020  -24.1840 C   0  0  0  0  0  0  0  0  0  0  0  0
    2.4869   25.1161  -24.1710 H   0  0  0  0  0  0  0  0  0  0  0  0
    0.3980   25.1540  -24.7440 C   0  0  0  0  0  0  0  0  0  0  0  0
    0.4232   24.1414  -25.1730 H   0  0  0  0  0  0  0  0  0  0  0  0
   -1.1680   25.2770  -27.6210 C   0  0  0  0  0  0  0  0  0  0  0  0
   -0.1515   25.5720  -27.3213 H   0  0  0  0  0  0  0  0  0  0  0  0
   -1.4600   25.0250  -28.9620 C   0  0  0  0  0  0  0  0  0  0  0  0
   -0.6732   25.1360  -29.7226 H   0  0  0  0  0  0  0  0  0  0  0  0
   -2.7110   24.6430  -29.3350 N   0  0  0  0  0  0  0  0  0  0  0  0
   -2.9000   24.4640  -30.3460 H   0  0  0  0  0  0  0  0  0  0  0  0
   -6.4100   23.5370  -30.8480 C   0  0  0  0  0  0  0  0  0  0  0  0
   -7.1136   24.3366  -30.5730 H   0  0  0  0  0  0  0  0  0  0  0  0
   -6.6520   22.7580  -31.9830 C   0  0  0  0  0  0  0  0  0  0  0  0
   -7.5444   22.9483  -32.5974 H   0  0  0  0  0  0  0  0  0  0  0  0
   -5.7410   18.7210  -34.4270 C   0  0  0  0  0  0  0  0  0  0  0  0
   -5.0860   19.1463  -35.2016 H   0  0  0  0  0  0  0  0  0  0  0  0
   -6.0320   17.3530  -34.4370 C   0  0  0  0  0  0  0  0  0  0  0  0
   -5.5969   16.7042  -35.2114 H   0  0  0  0  0  0  0  0  0  0  0  0
  1  2  1  0
  2  3  2  0
  3  4  1  0
  3  5  1  0
  5  6  1  0
  5  7  2  0
  7  8  1  0
  8  9  1  0
  9 10  2  0
 10 11  1  0
 10 12  1  0
 12 13  1  0
 12 14  2  0
 14 15  1  0
 15 16  1  0
 15 17  1  0
 17 18  2  0
 18 19  1  0
 18 20  1  0
 20 21  2  0
 21 22  1  0
 22 23  2  0
 23 24  1  0
 23 25  1  0
 25 26  1  0
 25 27  2  0
 27 28  1  0
 28 29  1  0
 28 30  1  0
 28 31  1  0
 27 32  1  0
 32 33  1  0
 32 34  2  0
 34 35  1  0
 20 36  1  0
 36 37  1  0
 36 38  2  0
 38 39  1  0
 38 40  1  0
 40 41  1  0
 14 42  1  0
 42 43  1  0
 42 44  2  0
 44 45  1  0
  7 46  1  0
 46 47  1  0
 46 48  2  0
 48 49  1  0
 48  2  1  0
 44  9  1  0
 40 17  1  0
 34 22  1  0
M  END
>  <UniqueID>  (40) 
40

>  <SMILES>  (40) 
FC(F)(F)c1ccc(/N=c2\cc[nH]c(Nc3ccc(Oc4ccccc4)cc3)c2)cc1

>  <Energy>  (40) 
75.70466704584986

>  <Genealogy>  (40) 
FC(F)(F)c1ccc(/N=c2\cc[nH]c(Nc3ccc(Oc4ccccc4)cc3)c2)cc1 (cis-trans isomerization)
FC(F)(F)c1ccc(/N=c2\cc[nH]c(Nc3ccc(Oc4ccccc4)cc3)c2)cc1 (3D coordinates assigned)
FC(F)(F)c1ccc(/N=c2\cc[nH]c(Nc3ccc(Oc4ccccc4)cc3)c2)cc1 (optimized conformer: 75.70466704584986 kcal/mol)

>  <smiles>  (40) 
FC(F)(F)c1ccc(N=c2cc[nH]c(Nc3ccc(Oc4ccccc4)cc3)c2)cc1

>  <score_type>  (40) 
oracle

>  <origin>  (40) 
adgpu

>  <m_score__min__energy>  (40) 
-8.9600000000000009

>  <m_primary>  (40) 
energy

$$$$
40:0
     RDKit          3D

 31 32  0  0  0  0  0  0  0  0999 V2000
   -2.2590   19.5210  -26.7940 C   0  0  0  0  0  0  0  0  0  0  0  0
   -2.3500   20.8510  -27.4720 C   0  0  0  0  0  0  0  0  0  0  0  0
   -1.2220   21.4120  -28.0810 C   0  0  0  0  0  0  0  0  0  0  0  0
   -1.3260   22.6620  -28.6950 C   0  0  0  0  0  0  0  0  0  0  0  0
   -2.5530   23.3440  -28.7050 C   0  0  0  0  0  0  0  0  0  0  0  0
   -2.6860   24.6730  -29.3470 C   0  0  0  0  0  0  0  0  0  0  0  0
   -1.9500   25.6210  -28.9630 O   0  0  0  0  0  0  0  0  0  0  0  0
   -3.5940   24.9070  -30.4330 N   0  0  0  0  0  0  0  0  0  0  0  0
   -4.6160   24.0110  -30.8920 C   0  0  0  0  0  0  0  0  0  0  0  0
   -5.9810   24.3030  -30.7310 C   0  0  0  0  0  0  0  0  0  0  0  0
   -6.9530   23.4160  -31.2010 C   0  0  0  0  0  0  0  0  0  0  0  0
   -6.5790   22.2310  -31.8600 C   0  0  0  0  0  0  0  0  0  0  0  0
   -7.5970   21.2730  -32.3600 C   0  0  0  0  0  0  0  0  0  0  0  0
   -7.3080   20.3650  -33.4270 N   0  0  0  0  0  0  0  0  0  0  0  0
   -8.7390   21.2450  -31.8290 O   0  0  0  0  0  0  0  0  0  0  0  0
   -5.2100   21.9520  -32.0280 C   0  0  0  0  0  0  0  0  0  0  0  0
   -4.2410   22.8400  -31.5580 C   0  0  0  0  0  0  0  0  0  0  0  0
   -3.6510   22.7520  -28.0620 C   0  0  0  0  0  0  0  0  0  0  0  0
   -3.5260   21.5340  -27.4700 N   0  0  0  0  0  0  0  0  0  0  0  0
   -2.2688   19.6640  -25.7034 H   0  0  0  0  0  0  0  0  0  0  0  0
   -3.1167   18.8991  -27.0900 H   0  0  0  0  0  0  0  0  0  0  0  0
   -1.3246   19.0217  -27.0900 H   0  0  0  0  0  0  0  0  0  0  0  0
   -0.2627   20.8737  -28.0762 H   0  0  0  0  0  0  0  0  0  0  0  0
   -0.4438   23.1136  -29.1723 H   0  0  0  0  0  0  0  0  0  0  0  0
   -6.2860   25.2348  -30.2323 H   0  0  0  0  0  0  0  0  0  0  0  0
   -8.0186   23.6462  -31.0545 H   0  0  0  0  0  0  0  0  0  0  0  0
   -6.3410   20.2340  -33.7930 H   0  0  0  0  0  0  0  0  0  0  0  0
   -8.0620   19.7430  -33.7980 H   0  0  0  0  0  0  0  0  0  0  0  0
   -4.9007   21.0257  -32.5343 H   0  0  0  0  0  0  0  0  0  0  0  0
   -3.1750   22.6171  -31.7126 H   0  0  0  0  0  0  0  0  0  0  0  0
   -4.6179   23.2759  -28.0367 H   0  0  0  0  0  0  0  0  0  0  0  0
  1  2  1  0
  2  3  2  0
  3  4  1  0
  4  5  2  0
  5  6  1  0
  6  7  2  0
  6  8  1  0
  8  9  1  0
  9 10  2  0
 10 11  1  0
 11 12  2  0
 12 13  1  0
 13 14  1  0
 13 15  2  0
 12 16  1  0
 16 17  2  0
  5 18  1  0
 18 19  2  0
 19  2  1  0
 17  9  1  0
  1 20  1  0
  1 21  1  0
  1 22  1  0
  3 23  1  0
  4 24  1  0
 10 25  1  0
 11 26  1  0
 14 27  1  0
 14 28  1  0
 16 29  1  0
 17 30  1  0
 18 31  1  0
M  CHG  1   8  -1
M  END
>  <UniqueID>  (41) 
41

>  <SMILES>  (41) 
Cc1ccc(C(=O)[N-]c2ccc(C(N)=O)cc2)cn1

>  <Energy>  (41) 
39.215463286038705

>  <Genealogy>  (41) 
Cc1ccc(C(=O)[N-]c2ccc(C(N)=O)cc2)cn1 (protonated)
Cc1ccc(C(=O)[N-]c2ccc(C(N)=O)cc2)cn1 (3D coordinates assigned)
Cc1ccc(C(=O)[N-]c2ccc(C(N)=O)cc2)cn1 (optimized conformer: 39.215463286038705 kcal/mol)

>  <smiles>  (41) 
Cc1ccc(C(=O)Nc2ccc(C(N)=O)cc2)cn1

>  <score_type>  (41) 
oracle

>  <origin>  (41) 
adgpu

>  <m_score__min__energy>  (41) 
-8.5500000000000007

>  <m_primary>  (41) 
energy

$$$$
41:0
     RDKit          3D

 45 46  0  0  0  0  0  0  0  0999 V2000
   -6.0920   17.7960  -30.8180 C   0  0  0  0  0  0  0  0  0  0  0  0
   -6.4540   17.3630  -32.1810 N   0  0  0  0  0  0  0  0  0  0  0  0
   -5.3980   16.5440  -32.8730 C   0  0  0  0  0  0  0  0  0  0  0  0
   -4.8880   15.3900  -31.9720 C   0  0  0  0  0  0  0  0  0  0  0  0
   -5.8850   15.9400  -34.2140 C   0  0  0  0  0  0  0  0  0  0  0  0
   -4.1710   17.4460  -33.1540 C   0  0  0  0  0  0  0  0  0  0  0  0
   -7.0670   18.7490  -33.0800 S   0  0  0  0  0  0  0  0  0  0  0  0
   -8.5690   18.7170  -33.1150 O   0  0  0  0  0  0  0  0  0  0  0  0
   -6.5540   18.7410  -34.4930 O   0  0  0  0  0  0  0  0  0  0  0  0
   -6.5870   20.2590  -32.3050 C   0  0  0  0  0  0  0  0  0  0  0  0
   -7.5370   21.0250  -31.6150 C   0  0  0  0  0  0  0  0  0  0  0  0
   -7.1500   22.1920  -30.9490 C   0  0  0  0  0  0  0  0  0  0  0  0
   -5.8100   22.5930  -30.9450 C   0  0  0  0  0  0  0  0  0  0  0  0
   -5.4380   23.7730  -30.2190 N   0  0  0  0  0  0  0  0  0  0  0  0
   -4.1110   24.3060  -30.1040 C   0  0  0  0  0  0  0  0  0  0  0  0
   -3.8280   25.3580  -30.7350 O   0  0  0  0  0  0  0  0  0  0  0  0
   -3.0920   23.6880  -29.2180 C   0  0  0  0  0  0  0  0  0  0  0  0
   -3.2910   22.3880  -28.7170 C   0  0  0  0  0  0  0  0  0  0  0  0
   -2.3290   21.7870  -27.8990 C   0  0  0  0  0  0  0  0  0  0  0  0
   -2.5780   20.1550  -27.3080 Cl  0  0  0  0  0  0  0  0  0  0  0  0
   -1.1690   22.4860  -27.5560 C   0  0  0  0  0  0  0  0  0  0  0  0
   -0.9680   23.7850  -28.0300 C   0  0  0  0  0  0  0  0  0  0  0  0
   -1.9210   24.3870  -28.8590 C   0  0  0  0  0  0  0  0  0  0  0  0
   -1.6850   25.6740  -29.3340 O   0  0  0  0  0  0  0  0  0  0  0  0
   -4.8630   21.8430  -31.6660 C   0  0  0  0  0  0  0  0  0  0  0  0
   -5.2500   20.6780  -32.3330 C   0  0  0  0  0  0  0  0  0  0  0  0
   -6.6166   17.1685  -30.0825 H   0  0  0  0  0  0  0  0  0  0  0  0
   -5.0057   17.6951  -30.6776 H   0  0  0  0  0  0  0  0  0  0  0  0
   -6.3838   18.8473  -30.6776 H   0  0  0  0  0  0  0  0  0  0  0  0
   -5.0110   15.6684  -30.9149 H   0  0  0  0  0  0  0  0  0  0  0  0
   -5.4671   14.4784  -32.1809 H   0  0  0  0  0  0  0  0  0  0  0  0
   -3.8241   15.2045  -32.1809 H   0  0  0  0  0  0  0  0  0  0  0  0
   -6.5637   15.0982  -34.0120 H   0  0  0  0  0  0  0  0  0  0  0  0
   -6.4177   16.7102  -34.7911 H   0  0  0  0  0  0  0  0  0  0  0  0
   -5.0194   15.5827  -34.7911 H   0  0  0  0  0  0  0  0  0  0  0  0
   -3.7289   17.7710  -32.2007 H   0  0  0  0  0  0  0  0  0  0  0  0
   -3.4243   16.8802  -33.7305 H   0  0  0  0  0  0  0  0  0  0  0  0
   -4.4883   18.3275  -33.7305 H   0  0  0  0  0  0  0  0  0  0  0  0
   -8.5899   20.7071  -31.5975 H   0  0  0  0  0  0  0  0  0  0  0  0
   -7.9037   22.7982  -30.4252 H   0  0  0  0  0  0  0  0  0  0  0  0
   -4.2105   21.8403  -28.9708 H   0  0  0  0  0  0  0  0  0  0  0  0
   -0.4129   22.0131  -26.9120 H   0  0  0  0  0  0  0  0  0  0  0  0
   -0.0579   24.3360  -27.7506 H   0  0  0  0  0  0  0  0  0  0  0  0
   -3.8149   22.1747  -31.7047 H   0  0  0  0  0  0  0  0  0  0  0  0
   -4.5022   20.0872  -32.8824 H   0  0  0  0  0  0  0  0  0  0  0  0
  1  2  1  0
  2  3  1  0
  3  4  1  0
  3  5  1  0
  3  6  1  0
  2  7  1  0
  7  8  2  0
  7  9  2  0
  7 10  1  0
 10 11  2  0
 11 12  1  0
 12 13  2  0
 13 14  1  0
 14 15  1  0
 15 16  2  0
 15 17  1  0
 17 18  2  0
 18 19  1  0
 19 20  1  0
 19 21  2  0
 21 22  1  0
 22 23  2  0
 23 24  1  0
 13 25  1  0
 25 26  2  0
 26 10  1  0
 23 17  1  0
  1 27  1  0
  1 28  1  0
  1 29  1  0
  4 30  1  0
  4 31  1  0
  4 32  1  0
  5 33  1  0
  5 34  1  0
  5 35  1  0
  6 36  1  0
  6 37  1  0
  6 38  1  0
 11 39  1  0
 12 40  1  0
 18 41  1  0
 21 42  1  0
 22 43  1  0
 25 44  1  0
 26 45  1  0
M  CHG  2  14  -1  24  -1
M  END
>  <UniqueID>  (42) 
42

>  <SMILES>  (42) 
CN(C(C)(C)C)S(=O)(=O)c1ccc([N-]C(=O)c2cc(Cl)ccc2[O-])cc1

>  <Energy>  (42) 
59.997337944568095

>  <Genealogy>  (42) 
CN(C(C)(C)C)S(=O)(=O)c1ccc([N-]C(=O)c2cc(Cl)ccc2[O-])cc1 (protonated)
CN(C(C)(C)C)S(=O)(=O)c1ccc([N-]C(=O)c2cc(Cl)ccc2[O-])cc1 (3D coordinates assigned)
CN(C(C)(C)C)S(=O)(=O)c1ccc([N-]C(=O)c2cc(Cl)ccc2[O-])cc1 (optimized conformer: 59.997337944568095 kcal/mol)

>  <smiles>  (42) 
CN(C(C)(C)C)S(=O)(=O)c1ccc(NC(=O)c2cc(Cl)ccc2O)cc1

>  <score_type>  (42) 
oracle

>  <origin>  (42) 
adgpu

>  <m_score__min__energy>  (42) 
-13.4

>  <m_primary>  (42) 
energy

$$$$
42:0
     RDKit          3D

 55 58  0  0  0  0  0  0  0  0999 V2000
    0.7090   23.1260  -24.9100 C   0  0  0  0  0  0  0  0  0  0  0  0
   -0.6940   23.1040  -25.1390 O   0  0  0  0  0  0  0  0  0  0  0  0
   -1.3160   23.5370  -26.3200 C   0  0  0  0  0  0  0  0  0  0  0  0
   -1.9140   22.6400  -27.2230 C   0  0  0  0  0  0  0  0  0  0  0  0
   -2.5050   23.1120  -28.4000 C   0  0  0  0  0  0  0  0  0  0  0  0
   -2.4960   24.4780  -28.7020 C   0  0  0  0  0  0  0  0  0  0  0  0
   -3.1090   24.9230  -29.9230 N   0  0  0  0  0  0  0  0  0  0  0  0
   -4.8150   24.8590  -30.2510 S   0  0  0  0  0  0  0  0  0  0  0  0
   -5.1860   25.9990  -31.1540 O   0  0  0  0  0  0  0  0  0  0  0  0
   -5.5840   24.9970  -28.9620 O   0  0  0  0  0  0  0  0  0  0  0  0
   -5.1930   23.3370  -31.0590 C   0  0  0  0  0  0  0  0  0  0  0  0
   -4.1640   22.6270  -31.6880 C   0  0  0  0  0  0  0  0  0  0  0  0
   -4.4270   21.3920  -32.2870 C   0  0  0  0  0  0  0  0  0  0  0  0
   -5.7200   20.8340  -32.2440 C   0  0  0  0  0  0  0  0  0  0  0  0
   -5.9820   19.4980  -32.8450 C   0  0  0  0  0  0  0  0  0  0  0  0
   -6.9200   18.6200  -32.2720 C   0  0  0  0  0  0  0  0  0  0  0  0
   -7.1830   17.3790  -32.8670 C   0  0  0  0  0  0  0  0  0  0  0  0
   -6.5180   17.0020  -34.0360 C   0  0  0  0  0  0  0  0  0  0  0  0
   -5.5790   17.8590  -34.6070 C   0  0  0  0  0  0  0  0  0  0  0  0
   -5.3070   19.0970  -34.0150 C   0  0  0  0  0  0  0  0  0  0  0  0
   -6.7500   21.5580  -31.6120 C   0  0  0  0  0  0  0  0  0  0  0  0
   -6.4920   22.8030  -31.0340 C   0  0  0  0  0  0  0  0  0  0  0  0
   -1.9080   25.3730  -27.7950 C   0  0  0  0  0  0  0  0  0  0  0  0
   -1.3310   24.9140  -26.6080 C   0  0  0  0  0  0  0  0  0  0  0  0
   -0.7570   25.8570  -25.6940 N   0  0  0  0  0  0  0  0  0  0  0  0
   -1.5610   26.3660  -24.5740 C   0  0  0  0  0  0  0  0  0  0  0  0
   -0.6720   27.1110  -23.5670 C   0  0  0  0  0  0  0  0  0  0  0  0
    0.5840   26.3690  -23.3640 N   0  0  0  0  0  0  0  0  0  0  0  0
    1.4250   26.3180  -24.5860 C   0  0  0  0  0  0  0  0  0  0  0  0
    0.6110   26.3560  -25.9040 C   0  0  0  0  0  0  0  0  0  0  0  0
    0.9038   23.1291  -23.8274 H   0  0  0  0  0  0  0  0  0  0  0  0
    1.1684   22.2349  -25.3627 H   0  0  0  0  0  0  0  0  0  0  0  0
    1.1403   24.0310  -25.3627 H   0  0  0  0  0  0  0  0  0  0  0  0
   -1.9171   21.5622  -27.0029 H   0  0  0  0  0  0  0  0  0  0  0  0
   -2.9807   22.4032  -29.0937 H   0  0  0  0  0  0  0  0  0  0  0  0
   -3.1456   23.0421  -31.7110 H   0  0  0  0  0  0  0  0  0  0  0  0
   -3.6167   20.8504  -32.7969 H   0  0  0  0  0  0  0  0  0  0  0  0
   -7.4496   18.9092  -31.3523 H   0  0  0  0  0  0  0  0  0  0  0  0
   -7.9169   16.6982  -32.4111 H   0  0  0  0  0  0  0  0  0  0  0  0
   -6.7349   16.0309  -34.5049 H   0  0  0  0  0  0  0  0  0  0  0  0
   -5.0508   17.5615  -35.5248 H   0  0  0  0  0  0  0  0  0  0  0  0
   -4.5586   19.7642  -34.4675 H   0  0  0  0  0  0  0  0  0  0  0  0
   -7.7664   21.1391  -31.5734 H   0  0  0  0  0  0  0  0  0  0  0  0
   -7.3079   23.3667  -30.5581 H   0  0  0  0  0  0  0  0  0  0  0  0
   -1.9012   26.4494  -28.0213 H   0  0  0  0  0  0  0  0  0  0  0  0
   -2.3253   27.0557  -24.9614 H   0  0  0  0  0  0  0  0  0  0  0  0
   -2.0393   25.5162  -24.0650 H   0  0  0  0  0  0  0  0  0  0  0  0
   -0.4442   28.1151  -23.9543 H   0  0  0  0  0  0  0  0  0  0  0  0
   -1.2028   27.1949  -22.6072 H   0  0  0  0  0  0  0  0  0  0  0  0
    1.1280   26.8260  -22.5940 H   0  0  0  0  0  0  0  0  0  0  0  0
    0.3600   25.3940  -23.0520 H   0  0  0  0  0  0  0  0  0  0  0  0
    2.1074   27.1806  -24.5742 H   0  0  0  0  0  0  0  0  0  0  0  0
    1.9618   25.3581  -24.5671 H   0  0  0  0  0  0  0  0  0  0  0  0
    0.5636   27.3931  -26.2677 H   0  0  0  0  0  0  0  0  0  0  0  0
    1.1096   25.7108  -26.6423 H   0  0  0  0  0  0  0  0  0  0  0  0
  1  2  1  0
  2  3  1  0
  3  4  2  0
  4  5  1  0
  5  6  2  0
  6  7  1  0
  7  8  1  0
  8  9  2  0
  8 10  2  0
  8 11  1  0
 11 12  2  0
 12 13  1  0
 13 14  2  0
 14 15  1  0
 15 16  2  0
 16 17  1  0
 17 18  2  0
 18 19  1  0
 19 20  2  0
 14 21  1  0
 21 22  2  0
  6 23  1  0
 23 24  2  0
 24 25  1  0
 25 26  1  0
 26 27  1  0
 27 28  1  0
 28 29  1  0
 29 30  1  0
 24  3  1  0
 30 25  1  0
 22 11  1  0
 20 15  1  0
  1 31  1  0
  1 32  1  0
  1 33  1  0
  4 34  1  0
  5 35  1  0
 12 36  1  0
 13 37  1  0
 16 38  1  0
 17 39  1  0
 18 40  1  0
 19 41  1  0
 20 42  1  0
 21 43  1  0
 22 44  1  0
 23 45  1  0
 26 46  1  0
 26 47  1  0
 27 48  1  0
 27 49  1  0
 28 50  1  0
 28 51  1  0
 29 52  1  0
 29 53  1  0
 30 54  1  0
 30 55  1  0
M  CHG  2   7  -1  28   1
M  END
>  <UniqueID>  (43) 
43

>  <SMILES>  (43) 
COc1ccc([N-]S(=O)(=O)c2ccc(-c3ccccc3)cc2)cc1N1CC[NH2+]CC1

>  <Energy>  (43) 
74.52911562440916

>  <Genealogy>  (43) 
COc1ccc([N-]S(=O)(=O)c2ccc(-c3ccccc3)cc2)cc1N1CC[NH2+]CC1 (protonated)
COc1ccc([N-]S(=O)(=O)c2ccc(-c3ccccc3)cc2)cc1N1CC[NH2+]CC1 (3D coordinates assigned)
COc1ccc([N-]S(=O)(=O)c2ccc(-c3ccccc3)cc2)cc1N1CC[NH2+]CC1 (nonaromatic ring conformer: 74.52911562440916 kcal/mol)

>  <smiles>  (43) 
COc1ccc(NS(=O)(=O)c2ccc(-c3ccccc3)cc2)cc1N1CCNCC1

>  <score_type>  (43) 
oracle

>  <origin>  (43) 
adgpu

>  <m_score__min__energy>  (43) 
-12.48

>  <m_primary>  (43) 
energy

$$$$
43:0
     RDKit          3D

 35 36  0  0  0  0  0  0  0  0999 V2000
    1.2930   24.4380  -26.9900 C   0  0  0  0  0  0  0  0  0  0  0  0
    0.6180   24.1670  -28.2130 O   0  0  0  0  0  0  0  0  0  0  0  0
   -0.7740   24.0390  -28.3390 C   0  0  0  0  0  0  0  0  0  0  0  0
   -1.4500   23.2160  -27.4320 C   0  0  0  0  0  0  0  0  0  0  0  0
   -2.8370   23.0660  -27.5100 C   0  0  0  0  0  0  0  0  0  0  0  0
   -3.5600   23.7290  -28.5030 C   0  0  0  0  0  0  0  0  0  0  0  0
   -2.8950   24.5400  -29.4400 C   0  0  0  0  0  0  0  0  0  0  0  0
   -3.6010   25.2580  -30.4620 N   0  0  0  0  0  0  0  0  0  0  0  0
   -5.0200   25.2720  -30.6750 C   0  0  0  0  0  0  0  0  0  0  0  0
   -5.6850   26.3170  -30.4400 O   0  0  0  0  0  0  0  0  0  0  0  0
   -5.7130   24.0410  -31.1190 C   0  0  0  0  0  0  0  0  0  0  0  0
   -5.0400   23.0550  -31.8560 C   0  0  0  0  0  0  0  0  0  0  0  0
   -5.6950   21.9340  -32.2520 N   0  0  0  0  0  0  0  0  0  0  0  0
   -7.0060   21.7350  -31.9490 C   0  0  0  0  0  0  0  0  0  0  0  0
   -7.6790   20.5360  -32.3810 N   0  0  0  0  0  0  0  0  0  0  0  0
   -9.1020   20.3540  -32.0800 C   0  0  0  0  0  0  0  0  0  0  0  0
   -6.9370   19.5090  -33.1180 C   0  0  0  0  0  0  0  0  0  0  0  0
   -7.6770   22.6790  -31.2330 N   0  0  0  0  0  0  0  0  0  0  0  0
   -7.0630   23.8160  -30.8160 C   0  0  0  0  0  0  0  0  0  0  0  0
   -1.5070   24.7060  -29.3400 C   0  0  0  0  0  0  0  0  0  0  0  0
    0.6397   24.1757  -26.1447 H   0  0  0  0  0  0  0  0  0  0  0  0
    2.2152   23.8404  -26.9399 H   0  0  0  0  0  0  0  0  0  0  0  0
    1.5459   25.5074  -26.9399 H   0  0  0  0  0  0  0  0  0  0  0  0
   -0.8859   22.6834  -26.6522 H   0  0  0  0  0  0  0  0  0  0  0  0
   -3.3607   22.4236  -26.7868 H   0  0  0  0  0  0  0  0  0  0  0  0
   -4.6531   23.6168  -28.5528 H   0  0  0  0  0  0  0  0  0  0  0  0
   -3.9792   23.1907  -32.1135 H   0  0  0  0  0  0  0  0  0  0  0  0
   -9.2467   20.3355  -30.9897 H   0  0  0  0  0  0  0  0  0  0  0  0
   -9.6775   21.1859  -32.5122 H   0  0  0  0  0  0  0  0  0  0  0  0
   -9.4496   19.4041  -32.5122 H   0  0  0  0  0  0  0  0  0  0  0  0
   -6.4460   18.8294  -32.4059 H   0  0  0  0  0  0  0  0  0  0  0  0
   -7.6321   18.9374  -33.7506 H   0  0  0  0  0  0  0  0  0  0  0  0
   -6.1761   19.9894  -33.7506 H   0  0  0  0  0  0  0  0  0  0  0  0
   -7.6270   24.5632  -30.2384 H   0  0  0  0  0  0  0  0  0  0  0  0
   -0.9847   25.3638  -30.0503 H   0  0  0  0  0  0  0  0  0  0  0  0
  1  2  1  0
  2  3  1  0
  3  4  2  0
  4  5  1  0
  5  6  2  0
  6  7  1  0
  7  8  1  0
  8  9  1  0
  9 10  2  0
  9 11  1  0
 11 12  2  0
 12 13  1  0
 13 14  2  0
 14 15  1  0
 15 16  1  0
 15 17  1  0
 14 18  1  0
 18 19  2  0
  7 20  2  0
 20  3  1  0
 19 11  1  0
  1 21  1  0
  1 22  1  0
  1 23  1  0
  4 24  1  0
  5 25  1  0
  6 26  1  0
 12 27  1  0
 16 28  1  0
 16 29  1  0
 16 30  1  0
 17 31  1  0
 17 32  1  0
 17 33  1  0
 19 34  1  0
 20 35  1  0
M  CHG  1   8  -1
M  END
>  <UniqueID>  (44) 
44

>  <SMILES>  (44) 
COc1cccc([N-]C(=O)c2cnc(N(C)C)nc2)c1

>  <Energy>  (44) 
37.088441016388536

>  <Genealogy>  (44) 
COc1cccc([N-]C(=O)c2cnc(N(C)C)nc2)c1 (protonated)
COc1cccc([N-]C(=O)c2cnc(N(C)C)nc2)c1 (3D coordinates assigned)
COc1cccc([N-]C(=O)c2cnc(N(C)C)nc2)c1 (optimized conformer: 37.088441016388536 kcal/mol)

>  <smiles>  (44) 
COc1cccc(NC(=O)c2cnc(N(C)C)nc2)c1

>  <score_type>  (44) 
oracle

>  <origin>  (44) 
adgpu

>  <m_score__min__energy>  (44) 
-8.1999999999999993

>  <m_primary>  (44) 
energy

$$$$
44:0
     RDKit          3D

 57 60  0  0  1  0  0  0  0  0999 V2000
    2.3840   17.4570  -28.8380 C   0  0  0  0  0  0  0  0  0  0  0  0
    2.8060   18.5030  -29.8100 C   0  0  0  0  0  0  0  0  0  0  0  0
    1.7770   18.9220  -30.7290 N   0  0  0  0  0  0  0  0  0  0  0  0
    0.7830   19.6900  -30.4270 C   0  0  0  0  0  0  0  0  0  0  0  0
    0.6980   20.1350  -29.1590 N   0  0  0  0  0  0  0  0  0  0  0  0
   -0.2940   20.9400  -28.7250 C   0  0  0  0  0  0  0  0  0  0  0  0
   -1.2560   21.3020  -29.6710 C   0  0  0  0  0  0  0  0  0  0  0  0
   -2.3530   22.1680  -29.2820 C   0  0  0  0  0  0  0  0  0  0  0  0
   -3.1210   21.8810  -28.1800 C   0  0  0  0  0  0  0  0  0  0  0  0
   -4.1520   22.7440  -27.8570 C   0  0  0  0  0  0  0  0  0  0  0  0
   -4.4420   23.8770  -28.5930 C   0  0  0  0  0  0  0  0  0  0  0  0
   -3.6670   24.1620  -29.7000 C   0  0  0  0  0  0  0  0  0  0  0  0
   -3.8680   25.2690  -30.5090 O   0  0  0  0  0  0  0  0  0  0  0  0
   -5.1860   25.6700  -30.7870 C   0  0  0  0  0  0  0  0  0  0  0  0
   -2.6190   23.3030  -30.0450 C   0  0  0  0  0  0  0  0  0  0  0  0
   -1.1330   20.8250  -30.9600 C   0  0  0  0  0  0  0  0  0  0  0  0
   -2.0030   21.1430  -31.8430 N   0  0  0  0  0  0  0  0  0  0  0  0
   -2.0760   20.7830  -33.1770 C   0  0  0  0  0  0  0  0  0  0  0  0
   -3.4410   20.1590  -33.3720 C   0  0  0  0  0  0  0  0  0  0  0  0
   -3.5880   18.9570  -34.0430 C   0  0  0  0  0  0  0  0  0  0  0  0
   -4.8490   18.3950  -34.2140 C   0  0  0  0  0  0  0  0  0  0  0  0
   -5.9630   19.0490  -33.7040 C   0  0  0  0  0  0  0  0  0  0  0  0
   -5.8310   20.2490  -33.0320 C   0  0  0  0  0  0  0  0  0  0  0  0
   -7.0440   20.8760  -32.5250 C   0  0  0  0  0  0  0  0  0  0  0  0
   -8.2020   20.0980  -32.5370 C   0  0  0  0  0  0  0  0  0  0  0  0
   -9.4150   20.6110  -32.0710 C   0  0  0  0  0  0  0  0  0  0  0  0
   -9.4540   21.9060  -31.5940 C   0  0  0  0  0  0  0  0  0  0  0  0
   -8.2940   22.6820  -31.5830 C   0  0  0  0  0  0  0  0  0  0  0  0
   -7.0860   22.1700  -32.0470 C   0  0  0  0  0  0  0  0  0  0  0  0
   -4.5720   20.8050  -32.8650 C   0  0  0  0  0  0  0  0  0  0  0  0
   -0.1270   20.0220  -31.3560 N   0  0  0  0  0  0  0  0  0  0  0  0
    2.5334   17.8273  -27.8130 H   0  0  0  0  0  0  0  0  0  0  0  0
    1.3205   17.2215  -28.9914 H   0  0  0  0  0  0  0  0  0  0  0  0
    2.9863   16.5495  -28.9914 H   0  0  0  0  0  0  0  0  0  0  0  0
    3.1378   19.3846  -29.2420 H   0  0  0  0  0  0  0  0  0  0  0  0
    3.6043   18.0558  -30.4205 H   0  0  0  0  0  0  0  0  0  0  0  0
    1.4120   19.8700  -28.4430 H   0  0  0  0  0  0  0  0  0  0  0  0
   -0.3425   21.2918  -27.6839 H   0  0  0  0  0  0  0  0  0  0  0  0
   -2.9210   20.9877  -27.5701 H   0  0  0  0  0  0  0  0  0  0  0  0
   -4.7689   22.5185  -26.9747 H   0  0  0  0  0  0  0  0  0  0  0  0
   -5.2724   24.5378  -28.3034 H   0  0  0  0  0  0  0  0  0  0  0  0
   -5.7261   25.8343  -29.8429 H   0  0  0  0  0  0  0  0  0  0  0  0
   -5.1703   26.6040  -31.3678 H   0  0  0  0  0  0  0  0  0  0  0  0
   -5.6932   24.8855  -31.3678 H   0  0  0  0  0  0  0  0  0  0  0  0
   -1.9993   23.5252  -30.9263 H   0  0  0  0  0  0  0  0  0  0  0  0
   -1.9673   21.6704  -33.8179 H   0  0  0  0  0  0  0  0  0  0  0  0
   -1.2726   20.0821  -33.4475 H   0  0  0  0  0  0  0  0  0  0  0  0
   -2.7018   18.4429  -34.4436 H   0  0  0  0  0  0  0  0  0  0  0  0
   -4.9628   17.4405  -34.7487 H   0  0  0  0  0  0  0  0  0  0  0  0
   -6.9614   18.6068  -33.8365 H   0  0  0  0  0  0  0  0  0  0  0  0
   -8.1594   19.0671  -32.9184 H   0  0  0  0  0  0  0  0  0  0  0  0
  -10.3248   19.9928  -32.0839 H   0  0  0  0  0  0  0  0  0  0  0  0
  -10.4001   22.3265  -31.2223 H   0  0  0  0  0  0  0  0  0  0  0  0
   -8.3352   23.7131  -31.2021 H   0  0  0  0  0  0  0  0  0  0  0  0
   -6.1765   22.7886  -32.0330 H   0  0  0  0  0  0  0  0  0  0  0  0
   -4.4626   21.7601  -32.3304 H   0  0  0  0  0  0  0  0  0  0  0  0
   -0.0760   19.6950  -32.3180 H   0  0  0  0  0  0  0  0  0  0  0  0
  1  2  1  0
  2  3  1  0
  3  4  2  0
  4  5  1  0
  5  6  1  0
  6  7  2  0
  7  8  1  0
  8  9  2  0
  9 10  1  0
 10 11  2  0
 11 12  1  0
 12 13  1  0
 13 14  1  0
 12 15  2  0
  7 16  1  0
 16 17  2  0
 17 18  1  0
 18 19  1  0
 19 20  2  0
 20 21  1  0
 21 22  2  0
 22 23  1  0
 23 24  1  0
 24 25  2  0
 25 26  1  0
 26 27  2  0
 27 28  1  0
 28 29  2  0
 23 30  2  0
 16 31  1  0
 31  4  1  0
 15  8  1  0
 30 19  1  0
 29 24  1  0
  1 32  1  0
  1 33  1  0
  1 34  1  0
  2 35  1  0
  2 36  1  0
  5 37  1  0
  6 38  1  0
  9 39  1  0
 10 40  1  0
 11 41  1  0
 14 42  1  0
 14 43  1  0
 14 44  1  0
 15 45  1  0
 18 46  1  0
 18 47  1  0
 20 48  1  0
 21 49  1  0
 22 50  1  0
 25 51  1  0
 26 52  1  0
 27 53  1  0
 28 54  1  0
 29 55  1  0
 30 56  1  0
 31 57  1  0
M  END
>  <smiles>  (45) 
CCN=c1[nH]cc(-c2cccc(OC)c2)c(=NCc2cccc(-c3ccccc3)c2)[nH]1

>  <score_type>  (45) 
oracle

>  <origin>  (45) 
adgpu

>  <m_score__min__energy>  (45) 
-10.470000000000001

>  <m_primary>  (45) 
energy

$$$$
45:0
     RDKit          3D

 33 34  0  0  0  0  0  0  0  0999 V2000
   -0.8300   26.8780  -27.9700 C   0  0  0  0  0  0  0  0  0  0  0  0
   -1.4730   26.0640  -28.9450 O   0  0  0  0  0  0  0  0  0  0  0  0
   -1.8070   24.7120  -28.7590 C   0  0  0  0  0  0  0  0  0  0  0  0
   -1.1200   23.8940  -27.8420 C   0  0  0  0  0  0  0  0  0  0  0  0
   -1.4750   22.5530  -27.6870 C   0  0  0  0  0  0  0  0  0  0  0  0
   -2.5210   22.0070  -28.4410 C   0  0  0  0  0  0  0  0  0  0  0  0
   -2.8600   20.5500  -28.3180 C   0  0  0  0  0  0  0  0  0  0  0  0
   -3.1960   22.8130  -29.3690 C   0  0  0  0  0  0  0  0  0  0  0  0
   -2.8620   24.1710  -29.5130 C   0  0  0  0  0  0  0  0  0  0  0  0
   -3.5310   25.0130  -30.4650 N   0  0  0  0  0  0  0  0  0  0  0  0
   -4.9480   25.1800  -30.6060 C   0  0  0  0  0  0  0  0  0  0  0  0
   -5.4800   26.3000  -30.3770 O   0  0  0  0  0  0  0  0  0  0  0  0
   -5.7660   24.0640  -31.1320 C   0  0  0  0  0  0  0  0  0  0  0  0
   -7.1490   24.0610  -30.8720 C   0  0  0  0  0  0  0  0  0  0  0  0
   -7.9490   22.9960  -31.2900 C   0  0  0  0  0  0  0  0  0  0  0  0
   -7.3820   21.9220  -31.9740 C   0  0  0  0  0  0  0  0  0  0  0  0
   -6.0160   21.9180  -32.2590 C   0  0  0  0  0  0  0  0  0  0  0  0
   -5.2020   22.9870  -31.8630 C   0  0  0  0  0  0  0  0  0  0  0  0
   -3.8590   22.9570  -32.2420 O   0  0  0  0  0  0  0  0  0  0  0  0
   -1.1047   26.5303  -26.9632 H   0  0  0  0  0  0  0  0  0  0  0  0
    0.2605   26.8096  -28.0967 H   0  0  0  0  0  0  0  0  0  0  0  0
   -1.1490   27.9231  -28.0967 H   0  0  0  0  0  0  0  0  0  0  0  0
   -0.2981   24.3144  -27.2438 H   0  0  0  0  0  0  0  0  0  0  0  0
   -0.9304   21.9221  -26.9691 H   0  0  0  0  0  0  0  0  0  0  0  0
   -2.9236   20.2769  -27.2544 H   0  0  0  0  0  0  0  0  0  0  0  0
   -3.8272   20.3562  -28.8048 H   0  0  0  0  0  0  0  0  0  0  0  0
   -2.0777   19.9491  -28.8048 H   0  0  0  0  0  0  0  0  0  0  0  0
   -3.9937   22.3789  -29.9897 H   0  0  0  0  0  0  0  0  0  0  0  0
   -7.6040   24.9059  -30.3343 H   0  0  0  0  0  0  0  0  0  0  0  0
   -9.0286   23.0044  -31.0792 H   0  0  0  0  0  0  0  0  0  0  0  0
   -8.0117   21.0770  -32.2893 H   0  0  0  0  0  0  0  0  0  0  0  0
   -5.5744   21.0678  -32.7995 H   0  0  0  0  0  0  0  0  0  0  0  0
   -3.1870   23.6630  -31.9720 H   0  0  0  0  0  0  0  0  0  0  0  0
  1  2  1  0
  2  3  1  0
  3  4  2  0
  4  5  1  0
  5  6  2  0
  6  7  1  0
  6  8  1  0
  8  9  2  0
  9 10  1  0
 10 11  1  0
 11 12  2  0
 11 13  1  0
 13 14  2  0
 14 15  1  0
 15 16  2  0
 16 17  1  0
 17 18  2  0
 18 19  1  0
  9  3  1  0
 18 13  1  0
  1 20  1  0
  1 21  1  0
  1 22  1  0
  4 23  1  0
  5 24  1  0
  7 25  1  0
  7 26  1  0
  7 27  1  0
  8 28  1  0
 14 29  1  0
 15 30  1  0
 16 31  1  0
 17 32  1  0
 19 33  1  0
M  CHG  1  10  -1
M  END
>  <UniqueID>  (46) 
45

>  <SMILES>  (46) 
COc1ccc(C)cc1[N-]C(=O)c1ccccc1O

>  <Energy>  (46) 
41.233831851820355

>  <Genealogy>  (46) 
COc1ccc(C)cc1[N-]C(=O)c1ccccc1O (protonated)
COc1ccc(C)cc1[N-]C(=O)c1ccccc1O (3D coordinates assigned)
COc1ccc(C)cc1[N-]C(=O)c1ccccc1O (optimized conformer: 41.233831851820355 kcal/mol)

>  <smiles>  (46) 
COc1ccc(C)cc1NC(=O)c1ccccc1O

>  <score_type>  (46) 
oracle

>  <origin>  (46) 
adgpu

>  <m_score__min__energy>  (46) 
-8.5600000000000005

>  <m_primary>  (46) 
energy

$$$$
46:0
     RDKit          3D

 38 40  0  0  0  0  0  0  0  0999 V2000
    0.7090   18.6010  -27.9100 C   0  0  0  0  0  0  0  0  0  0  0  0
   -0.4290   19.4050  -27.4790 N   0  0  0  0  0  0  0  0  0  0  0  0
   -1.7110   19.0070  -27.4480 C   0  0  0  0  0  0  0  0  0  0  0  0
   -2.4850   20.0860  -27.0830 C   0  0  0  0  0  0  0  0  0  0  0  0
   -1.6980   21.1650  -26.8950 N   0  0  0  0  0  0  0  0  0  0  0  0
   -0.4520   20.7140  -27.1510 C   0  0  0  0  0  0  0  0  0  0  0  0
    0.9890   21.7860  -27.1180 S   0  0  0  0  0  0  0  0  0  0  0  0
   -0.0250   23.2640  -27.0040 C   0  0  0  0  0  0  0  0  0  0  0  0
   -0.5460   23.8110  -28.1820 C   0  0  0  0  0  0  0  0  0  0  0  0
   -1.4660   24.8610  -28.1290 C   0  0  0  0  0  0  0  0  0  0  0  0
   -2.0990   25.2960  -29.3320 N   0  0  0  0  0  0  0  0  0  0  0  0
   -3.5600   24.5490  -29.8850 S   0  0  0  0  0  0  0  0  0  0  0  0
   -4.2600   25.4690  -30.8450 O   0  0  0  0  0  0  0  0  0  0  0  0
   -4.4720   24.2740  -28.7220 O   0  0  0  0  0  0  0  0  0  0  0  0
   -3.1320   23.0570  -30.7170 C   0  0  0  0  0  0  0  0  0  0  0  0
   -1.9300   22.3960  -30.4230 C   0  0  0  0  0  0  0  0  0  0  0  0
   -1.5470   21.2720  -31.1610 C   0  0  0  0  0  0  0  0  0  0  0  0
   -2.3620   20.8040  -32.1960 C   0  0  0  0  0  0  0  0  0  0  0  0
   -3.5600   21.4600  -32.4940 C   0  0  0  0  0  0  0  0  0  0  0  0
   -3.9430   22.5870  -31.7610 C   0  0  0  0  0  0  0  0  0  0  0  0
   -1.8190   25.4120  -26.8900 C   0  0  0  0  0  0  0  0  0  0  0  0
   -1.2570   24.9110  -25.7140 C   0  0  0  0  0  0  0  0  0  0  0  0
   -0.3660   23.8320  -25.7590 C   0  0  0  0  0  0  0  0  0  0  0  0
    0.1540   23.3460  -24.5580 O   0  0  0  0  0  0  0  0  0  0  0  0
    1.2454   18.2220  -27.0276 H   0  0  0  0  0  0  0  0  0  0  0  0
    0.3517   17.7538  -28.5137 H   0  0  0  0  0  0  0  0  0  0  0  0
    1.3882   19.2208  -28.5137 H   0  0  0  0  0  0  0  0  0  0  0  0
   -2.0789   17.9954  -27.6746 H   0  0  0  0  0  0  0  0  0  0  0  0
   -3.5783   20.0702  -26.9631 H   0  0  0  0  0  0  0  0  0  0  0  0
   -0.2289   23.4114  -29.1566 H   0  0  0  0  0  0  0  0  0  0  0  0
   -1.2870   22.7631  -29.6095 H   0  0  0  0  0  0  0  0  0  0  0  0
   -0.6042   20.7558  -30.9272 H   0  0  0  0  0  0  0  0  0  0  0  0
   -2.0605   19.9193  -32.7761 H   0  0  0  0  0  0  0  0  0  0  0  0
   -4.2021   21.0888  -33.3064 H   0  0  0  0  0  0  0  0  0  0  0  0
   -4.8820   23.1063  -32.0032 H   0  0  0  0  0  0  0  0  0  0  0  0
   -2.5404   26.2411  -26.8436 H   0  0  0  0  0  0  0  0  0  0  0  0
   -1.5158   25.3666  -24.7468 H   0  0  0  0  0  0  0  0  0  0  0  0
    0.2600   23.9210  -23.7330 H   0  0  0  0  0  0  0  0  0  0  0  0
  1  2  1  0
  2  3  1  0
  3  4  2  0
  4  5  1  0
  5  6  2  0
  6  7  1  0
  7  8  1  0
  8  9  2  0
  9 10  1  0
 10 11  1  0
 11 12  1  0
 12 13  2  0
 12 14  2  0
 12 15  1  0
 15 16  2  0
 16 17  1  0
 17 18  2  0
 18 19  1  0
 19 20  2  0
 10 21  2  0
 21 22  1  0
 22 23  2  0
 23 24  1  0
  6  2  1  0
 23  8  1  0
 20 15  1  0
  1 25  1  0
  1 26  1  0
  1 27  1  0
  3 28  1  0
  4 29  1  0
  9 30  1  0
 16 31  1  0
 17 32  1  0
 18 33  1  0
 19 34  1  0
 20 35  1  0
 21 36  1  0
 22 37  1  0
 24 38  1  0
M  CHG  1  11  -1
M  END
>  <UniqueID>  (47) 
46

>  <SMILES>  (47) 
Cn1ccnc1Sc1cc([N-]S(=O)(=O)c2ccccc2)ccc1O

>  <Energy>  (47) 
69.81118739652834

>  <Genealogy>  (47) 
Cn1ccnc1Sc1cc([N-]S(=O)(=O)c2ccccc2)ccc1O (protonated)
Cn1ccnc1Sc1cc([N-]S(=O)(=O)c2ccccc2)ccc1O (3D coordinates assigned)
Cn1ccnc1Sc1cc([N-]S(=O)(=O)c2ccccc2)ccc1O (optimized conformer: 69.81118739652834 kcal/mol)

>  <smiles>  (47) 
Cn1ccnc1Sc1cc(NS(=O)(=O)c2ccccc2)ccc1O

>  <score_type>  (47) 
oracle

>  <origin>  (47) 
adgpu

>  <m_score__min__energy>  (47) 
-8.6799999999999997

>  <m_primary>  (47) 
energy

$$$$
47:0
     RDKit          3D

 32 34  0  0  0  0  0  0  0  0999 V2000
   -6.8650   15.7530  -34.2340 C   0  0  0  0  0  0  0  0  0  0  0  0
   -6.1780   16.9310  -33.6100 C   0  0  0  0  0  0  0  0  0  0  0  0
   -4.7830   17.0570  -33.6890 C   0  0  0  0  0  0  0  0  0  0  0  0
   -4.1330   18.1720  -33.1420 C   0  0  0  0  0  0  0  0  0  0  0  0
   -2.7070   18.2730  -33.2260 N   0  0  0  0  0  0  0  0  0  0  0  0
   -4.8890   19.1820  -32.5190 C   0  0  0  0  0  0  0  0  0  0  0  0
   -4.2770   20.2400  -31.9930 O   0  0  0  0  0  0  0  0  0  0  0  0
   -4.9230   21.2350  -31.3880 C   0  0  0  0  0  0  0  0  0  0  0  0
   -4.1250   22.3520  -30.8350 C   0  0  0  0  0  0  0  0  0  0  0  0
   -2.9340   22.0730  -30.1430 C   0  0  0  0  0  0  0  0  0  0  0  0
   -2.1740   23.1110  -29.5950 C   0  0  0  0  0  0  0  0  0  0  0  0
   -2.6040   24.4350  -29.7160 C   0  0  0  0  0  0  0  0  0  0  0  0
   -1.8430   25.4610  -29.1680 O   0  0  0  0  0  0  0  0  0  0  0  0
   -3.8000   24.7230  -30.3820 C   0  0  0  0  0  0  0  0  0  0  0  0
   -4.2400   26.0370  -30.4920 O   0  0  0  0  0  0  0  0  0  0  0  0
   -4.5610   23.6870  -30.9340 C   0  0  0  0  0  0  0  0  0  0  0  0
   -6.3290   21.2040  -31.3080 C   0  0  0  0  0  0  0  0  0  0  0  0
   -7.0420   22.2580  -30.7420 O   0  0  0  0  0  0  0  0  0  0  0  0
   -7.0160   20.1090  -31.8390 C   0  0  0  0  0  0  0  0  0  0  0  0
   -8.2750   20.0670  -31.7650 O   0  0  0  0  0  0  0  0  0  0  0  0
   -6.2960   19.0720  -32.4530 C   0  0  0  0  0  0  0  0  0  0  0  0
   -6.9320   17.9480  -33.0070 C   0  0  0  0  0  0  0  0  0  0  0  0
   -7.2504   15.0922  -33.4435 H   0  0  0  0  0  0  0  0  0  0  0  0
   -7.7001   16.1038  -34.8581 H   0  0  0  0  0  0  0  0  0  0  0  0
   -6.1484   15.1989  -34.8581 H   0  0  0  0  0  0  0  0  0  0  0  0
   -4.1930   16.2725  -34.1855 H   0  0  0  0  0  0  0  0  0  0  0  0
   -2.2070   19.0990  -32.8280 H   0  0  0  0  0  0  0  0  0  0  0  0
   -2.1360   17.5300  -33.6850 H   0  0  0  0  0  0  0  0  0  0  0  0
   -2.5976   21.0316  -30.0318 H   0  0  0  0  0  0  0  0  0  0  0  0
   -1.2356   22.8848  -29.0675 H   0  0  0  0  0  0  0  0  0  0  0  0
   -5.5057   23.9168  -31.4485 H   0  0  0  0  0  0  0  0  0  0  0  0
   -8.0282   17.8654  -32.9674 H   0  0  0  0  0  0  0  0  0  0  0  0
  1  2  1  0
  2  3  2  0
  3  4  1  0
  4  5  1  0
  4  6  2  0
  6  7  1  0
  7  8  1  0
  8  9  1  0
  9 10  2  0
 10 11  1  0
 11 12  2  0
 12 13  1  0
 12 14  1  0
 14 15  1  0
 14 16  2  0
  8 17  2  0
 17 18  1  0
 17 19  1  0
 19 20  2  0
 19 21  1  0
 21 22  2  0
 22  2  1  0
 21  6  1  0
 16  9  1  0
  1 23  1  0
  1 24  1  0
  1 25  1  0
  3 26  1  0
  5 27  1  0
  5 28  1  0
 10 29  1  0
 11 30  1  0
 16 31  1  0
 22 32  1  0
M  CHG  3  13  -1  15  -1  18  -1
M  END
>  <UniqueID>  (48) 
47

>  <SMILES>  (48) 
Cc1cc(N)c2oc(-c3ccc([O-])c([O-])c3)c([O-])c(=O)c2c1

>  <Energy>  (48) 
45.01754823876503

>  <Genealogy>  (48) 
Cc1cc(N)c2oc(-c3ccc([O-])c([O-])c3)c([O-])c(=O)c2c1 (protonated)
Cc1cc(N)c2oc(-c3ccc([O-])c([O-])c3)c([O-])c(=O)c2c1 (3D coordinates assigned)
Cc1cc(N)c2oc(-c3ccc([O-])c([O-])c3)c([O-])c(=O)c2c1 (optimized conformer: 45.01754823876503 kcal/mol)

>  <smiles>  (48) 
Cc1cc(N)c2oc(-c3ccc(O)c(O)c3)c(O)c(=O)c2c1

>  <score_type>  (48) 
oracle

>  <origin>  (48) 
adgpu

>  <m_score__min__energy>  (48) 
-11.640000000000001

>  <m_primary>  (48) 
energy

$$$$
