0:0
     RDKit          3D

 54 57  0  0  0  0  0  0  0  0999 V2000
   -6.0970   18.0980  -34.6410 O   0  0  0  0  0  0  0  0  0  0  0  0
   -6.2650   17.3410  -33.6450 C   0  0  0  0  0  0  0  0  0  0  0  0
   -7.1310   17.7560  -32.5700 N   0  0  0  0  0  0  0  0  0  0  0  0
   -7.6480   19.0900  -32.4390 C   0  0  0  0  0  0  0  0  0  0  0  0
   -6.7990   20.2080  -32.5230 C   0  0  0  0  0  0  0  0  0  0  0  0
   -7.3080   21.5080  -32.3560 C   0  0  0  0  0  0  0  0  0  0  0  0
   -6.4460   22.6560  -32.3990 N   0  0  0  0  0  0  0  0  0  0  0  0
   -5.5560   23.0440  -31.3390 C   0  0  0  0  0  0  0  0  0  0  0  0
   -4.6130   22.1460  -30.8080 C   0  0  0  0  0  0  0  0  0  0  0  0
   -3.7030   22.5710  -29.8340 C   0  0  0  0  0  0  0  0  0  0  0  0
   -3.7160   23.9000  -29.3880 C   0  0  0  0  0  0  0  0  0  0  0  0
   -2.4910   24.4510  -28.2480 S   0  0  0  0  0  0  0  0  0  0  0  0
   -3.1450   24.9840  -27.0030 O   0  0  0  0  0  0  0  0  0  0  0  0
   -1.6220   23.2820  -27.8680 O   0  0  0  0  0  0  0  0  0  0  0  0
   -1.4960   25.6940  -28.9530 N   0  0  0  0  0  0  0  0  0  0  0  0
   -0.8650   26.5240  -27.9210 C   0  0  0  0  0  0  0  0  0  0  0  0
   -0.2670   25.6650  -26.8390 C   0  0  0  0  0  0  0  0  0  0  0  0
   -0.7640   25.7080  -25.5260 C   0  0  0  0  0  0  0  0  0  0  0  0
   -0.1670   24.9330  -24.5300 C   0  0  0  0  0  0  0  0  0  0  0  0
    0.9030   24.1030  -24.8590 C   0  0  0  0  0  0  0  0  0  0  0  0
    1.3560   24.0470  -26.1410 N   0  0  0  0  0  0  0  0  0  0  0  0
    0.7970   24.7960  -27.1290 C   0  0  0  0  0  0  0  0  0  0  0  0
   -4.6590   24.7940  -29.9100 C   0  0  0  0  0  0  0  0  0  0  0  0
   -5.5660   24.3710  -30.8850 C   0  0  0  0  0  0  0  0  0  0  0  0
   -8.6670   21.6810  -32.0640 C   0  0  0  0  0  0  0  0  0  0  0  0
   -9.5120   20.5750  -31.9670 C   0  0  0  0  0  0  0  0  0  0  0  0
   -9.0070   19.2850  -32.1460 C   0  0  0  0  0  0  0  0  0  0  0  0
   -9.8420   18.2230  -32.0400 F   0  0  0  0  0  0  0  0  0  0  0  0
   -5.5540   16.0380  -33.6080 C   0  0  0  0  0  0  0  0  0  0  0  0
   -4.3070   15.8930  -32.9660 C   0  0  0  0  0  0  0  0  0  0  0  0
   -3.6590   14.6540  -32.9510 C   0  0  0  0  0  0  0  0  0  0  0  0
   -4.2450   13.5480  -33.5670 C   0  0  0  0  0  0  0  0  0  0  0  0
   -5.4860   13.6750  -34.1930 C   0  0  0  0  0  0  0  0  0  0  0  0
   -6.1400   14.9100  -34.2110 C   0  0  0  0  0  0  0  0  0  0  0  0
   -7.4430   17.0560  -31.8600 H   0  0  0  0  0  0  0  0  0  0  0  0
   -5.7266   20.0641  -32.7212 H   0  0  0  0  0  0  0  0  0  0  0  0
   -6.4490   23.2350  -33.2710 H   0  0  0  0  0  0  0  0  0  0  0  0
   -4.5907   21.1042  -31.1602 H   0  0  0  0  0  0  0  0  0  0  0  0
   -2.9748   21.8599  -29.4167 H   0  0  0  0  0  0  0  0  0  0  0  0
   -0.0707   27.1302  -28.3810 H   0  0  0  0  0  0  0  0  0  0  0  0
   -1.6309   27.1744  -27.4733 H   0  0  0  0  0  0  0  0  0  0  0  0
   -1.6224   26.3514  -25.2828 H   0  0  0  0  0  0  0  0  0  0  0  0
   -0.5377   24.9771  -23.4953 H   0  0  0  0  0  0  0  0  0  0  0  0
    1.3826   23.4916  -24.0805 H   0  0  0  0  0  0  0  0  0  0  0  0
    1.1793   24.7208  -28.1577 H   0  0  0  0  0  0  0  0  0  0  0  0
   -4.6858   25.8334  -29.5510 H   0  0  0  0  0  0  0  0  0  0  0  0
   -6.2935   25.0842  -31.2997 H   0  0  0  0  0  0  0  0  0  0  0  0
   -9.0697   22.6931  -31.9105 H   0  0  0  0  0  0  0  0  0  0  0  0
  -10.5804   20.7195  -31.7486 H   0  0  0  0  0  0  0  0  0  0  0  0
   -3.8412   16.7596  -32.4741 H   0  0  0  0  0  0  0  0  0  0  0  0
   -2.6841   14.5511  -32.4519 H   0  0  0  0  0  0  0  0  0  0  0  0
   -3.7293   12.5764  -33.5594 H   0  0  0  0  0  0  0  0  0  0  0  0
   -5.9504   12.8011  -34.6733 H   0  0  0  0  0  0  0  0  0  0  0  0
   -7.1208   15.0008  -34.7006 H   0  0  0  0  0  0  0  0  0  0  0  0
  1  2  2  0
  2  3  1  0
  3  4  1  0
  4  5  2  0
  5  6  1  0
  6  7  1  0
  7  8  1  0
  8  9  2  0
  9 10  1  0
 10 11  2  0
 11 12  1  0
 12 13  2  0
 12 14  2  0
 12 15  1  0
 15 16  1  0
 16 17  1  0
 17 18  2  0
 18 19  1  0
 19 20  2  0
 20 21  1  0
 21 22  2  0
 11 23  1  0
 23 24  2  0
  6 25  2  0
 25 26  1  0
 26 27  2  0
 27 28  1  0
  2 29  1  0
 29 30  2  0
 30 31  1  0
 31 32  2  0
 32 33  1  0
 33 34  2  0
 27  4  1  0
 34 29  1  0
 24  8  1  0
 22 17  1  0
  3 35  1  0
  5 36  1  0
  7 37  1  0
  9 38  1  0
 10 39  1  0
 16 40  1  0
 16 41  1  0
 18 42  1  0
 19 43  1  0
 20 44  1  0
 22 45  1  0
 23 46  1  0
 24 47  1  0
 25 48  1  0
 26 49  1  0
 30 50  1  0
 31 51  1  0
 32 52  1  0
 33 53  1  0
 34 54  1  0
M  CHG  1  15  -1
M  END
>  <UniqueID>  (1) 
1

>  <SMILES>  (1) 
O=C(Nc1cc(Nc2ccc(S(=O)(=O)[N-]Cc3cccnc3)cc2)ccc1F)c1ccccc1

>  <Energy>  (1) 
68.11535031912524

>  <Genealogy>  (1) 
O=C(Nc1cc(Nc2ccc(S(=O)(=O)[N-]Cc3cccnc3)cc2)ccc1F)c1ccccc1 (protonated)
O=C(Nc1cc(Nc2ccc(S(=O)(=O)[N-]Cc3cccnc3)cc2)ccc1F)c1ccccc1 (3D coordinates assigned)
O=C(Nc1cc(Nc2ccc(S(=O)(=O)[N-]Cc3cccnc3)cc2)ccc1F)c1ccccc1 (optimized conformer: 68.11535031912524 kcal/mol)

>  <smiles>  (1) 
O=C(Nc1cc(Nc2ccc(S(=O)(=O)NCc3cccnc3)cc2)ccc1F)c1ccccc1

>  <score_type>  (1) 
oracle

>  <origin>  (1) 
adgpu

>  <m_score__min__energy>  (1) 
-11.119999999999999

>  <m_primary>  (1) 
energy

$$$$
1:0
     RDKit          3D

 38 39  0  0  0  0  0  0  0  0999 V2000
   -5.5870   19.2780  -33.8740 C   0  0  0  0  0  0  0  0  0  0  0  0
   -4.5020   20.0400  -33.1210 C   0  0  0  0  0  0  0  0  0  0  0  0
   -5.0570   21.2580  -32.5460 N   0  0  0  0  0  0  0  0  0  0  0  0
   -4.6420   22.4770  -32.8450 N   0  0  0  0  0  0  0  0  0  0  0  0
   -5.2710   23.3450  -32.0680 N   0  0  0  0  0  0  0  0  0  0  0  0
   -6.0770   22.5930  -31.2900 C   0  0  0  0  0  0  0  0  0  0  0  0
   -6.9060   23.1410  -30.1670 C   0  0  0  0  0  0  0  0  0  0  0  0
   -6.2800   24.3390  -29.5700 N   0  0  0  0  0  0  0  0  0  0  0  0
   -4.8960   24.1190  -29.1080 C   0  0  0  0  0  0  0  0  0  0  0  0
   -3.8760   24.9250  -29.8750 C   0  0  0  0  0  0  0  0  0  0  0  0
   -4.2630   25.6280  -30.8470 O   0  0  0  0  0  0  0  0  0  0  0  0
   -2.4820   24.9190  -29.5440 N   0  0  0  0  0  0  0  0  0  0  0  0
   -1.9060   24.1640  -28.4750 C   0  0  0  0  0  0  0  0  0  0  0  0
   -1.4460   24.8410  -27.3380 C   0  0  0  0  0  0  0  0  0  0  0  0
   -0.8820   24.1340  -26.2750 C   0  0  0  0  0  0  0  0  0  0  0  0
   -0.7590   22.7470  -26.3480 C   0  0  0  0  0  0  0  0  0  0  0  0
   -1.1800   22.0640  -27.4920 C   0  0  0  0  0  0  0  0  0  0  0  0
   -1.7350   22.7630  -28.5820 C   0  0  0  0  0  0  0  0  0  0  0  0
   -2.1610   22.0240  -29.8330 C   0  0  0  0  0  0  0  0  0  0  0  0
   -3.5010   21.6910  -29.7510 F   0  0  0  0  0  0  0  0  0  0  0  0
   -1.4160   20.8680  -29.9660 F   0  0  0  0  0  0  0  0  0  0  0  0
   -1.9800   22.7970  -30.9660 F   0  0  0  0  0  0  0  0  0  0  0  0
   -5.9420   21.2810  -31.5660 N   0  0  0  0  0  0  0  0  0  0  0  0
   -6.2670   18.8004  -33.1533 H   0  0  0  0  0  0  0  0  0  0  0  0
   -6.1545   19.9769  -34.5060 H   0  0  0  0  0  0  0  0  0  0  0  0
   -5.1222   18.5069  -34.5060 H   0  0  0  0  0  0  0  0  0  0  0  0
   -4.1034   19.4056  -32.3156 H   0  0  0  0  0  0  0  0  0  0  0  0
   -3.6954   20.3055  -33.8203 H   0  0  0  0  0  0  0  0  0  0  0  0
   -7.8994   23.4116  -30.5543 H   0  0  0  0  0  0  0  0  0  0  0  0
   -6.9880   22.3686  -29.3882 H   0  0  0  0  0  0  0  0  0  0  0  0
   -6.8420   24.6130  -28.7290 H   0  0  0  0  0  0  0  0  0  0  0  0
   -6.3150   25.1550  -30.2230 H   0  0  0  0  0  0  0  0  0  0  0  0
   -4.8340   24.3974  -28.0456 H   0  0  0  0  0  0  0  0  0  0  0  0
   -4.6624   23.0567  -29.2720 H   0  0  0  0  0  0  0  0  0  0  0  0
   -1.5298   25.9364  -27.2827 H   0  0  0  0  0  0  0  0  0  0  0  0
   -0.5346   24.6708  -25.3799 H   0  0  0  0  0  0  0  0  0  0  0  0
   -0.3295   22.1891  -25.5029 H   0  0  0  0  0  0  0  0  0  0  0  0
   -1.0771   20.9700  -27.5420 H   0  0  0  0  0  0  0  0  0  0  0  0
  1  2  1  0
  2  3  1  0
  3  4  1  0
  4  5  2  0
  5  6  1  0
  6  7  1  0
  7  8  1  0
  8  9  1  0
  9 10  1  0
 10 11  2  0
 10 12  1  0
 12 13  1  0
 13 14  2  0
 14 15  1  0
 15 16  2  0
 16 17  1  0
 17 18  2  0
 18 19  1  0
 19 20  1  0
 19 21  1  0
 19 22  1  0
  6 23  2  0
 23  3  1  0
 18 13  1  0
  1 24  1  0
  1 25  1  0
  1 26  1  0
  2 27  1  0
  2 28  1  0
  7 29  1  0
  7 30  1  0
  8 31  1  0
  8 32  1  0
  9 33  1  0
  9 34  1  0
 14 35  1  0
 15 36  1  0
 16 37  1  0
 17 38  1  0
M  CHG  2   8   1  12  -1
M  END
>  <UniqueID>  (2) 
2

>  <SMILES>  (2) 
CCn1nnc(C[NH2+]CC(=O)[N-]c2ccccc2C(F)(F)F)n1

>  <Energy>  (2) 
80.68715575755932

>  <Genealogy>  (2) 
CCn1nnc(C[NH2+]CC(=O)[N-]c2ccccc2C(F)(F)F)n1 (protonated)
CCn1nnc(C[NH2+]CC(=O)[N-]c2ccccc2C(F)(F)F)n1 (3D coordinates assigned)
CCn1nnc(C[NH2+]CC(=O)[N-]c2ccccc2C(F)(F)F)n1 (optimized conformer: 80.68715575755932 kcal/mol)

>  <smiles>  (2) 
CCn1nnc(CNCC(=O)Nc2ccccc2C(F)(F)F)n1

>  <score_type>  (2) 
oracle

>  <origin>  (2) 
adgpu

>  <m_score__min__energy>  (2) 
-7.9699999999999998

>  <m_primary>  (2) 
energy

$$$$
2:0
     RDKit          3D

 61 64  0  0  0  0  0  0  0  0999 V2000
   -1.8650   21.7610  -31.6590 C   0  0  0  0  0  0  0  0  0  0  0  0
   -1.5580   20.3290  -31.9920 C   0  0  0  0  0  0  0  0  0  0  0  0
   -0.8030   19.5470  -31.1050 C   0  0  0  0  0  0  0  0  0  0  0  0
   -0.4850   18.2240  -31.4280 C   0  0  0  0  0  0  0  0  0  0  0  0
   -0.8990   17.6770  -32.6460 C   0  0  0  0  0  0  0  0  0  0  0  0
   -1.6320   18.4560  -33.5560 C   0  0  0  0  0  0  0  0  0  0  0  0
   -2.0940   17.8680  -34.8650 C   0  0  0  0  0  0  0  0  0  0  0  0
   -3.1720   16.9520  -34.6610 O   0  0  0  0  0  0  0  0  0  0  0  0
   -4.3560   17.2250  -33.9530 C   0  0  0  0  0  0  0  0  0  0  0  0
   -5.0080   18.4700  -34.0650 C   0  0  0  0  0  0  0  0  0  0  0  0
   -6.1980   18.7260  -33.3630 C   0  0  0  0  0  0  0  0  0  0  0  0
   -6.8830   19.9850  -33.4880 N   0  0  0  0  0  0  0  0  0  0  0  0
   -6.5530   21.1610  -32.7310 C   0  0  0  0  0  0  0  0  0  0  0  0
   -5.2300   21.6250  -32.7190 C   0  0  0  0  0  0  0  0  0  0  0  0
   -4.8840   22.7550  -31.9720 C   0  0  0  0  0  0  0  0  0  0  0  0
   -5.8620   23.4450  -31.2440 C   0  0  0  0  0  0  0  0  0  0  0  0
   -5.4250   24.8180  -30.2300 S   0  0  0  0  0  0  0  0  0  0  0  0
   -4.3470   25.6400  -30.8770 O   0  0  0  0  0  0  0  0  0  0  0  0
   -6.6390   25.6780  -30.0310 O   0  0  0  0  0  0  0  0  0  0  0  0
   -4.8590   24.2560  -28.6870 N   0  0  0  0  0  0  0  0  0  0  0  0
   -3.6680   23.4640  -28.5020 C   0  0  0  0  0  0  0  0  0  0  0  0
   -3.7200   22.1520  -27.9910 C   0  0  0  0  0  0  0  0  0  0  0  0
   -2.5470   21.4170  -27.7910 C   0  0  0  0  0  0  0  0  0  0  0  0
   -1.3010   21.9690  -28.1200 C   0  0  0  0  0  0  0  0  0  0  0  0
   -0.0400   21.1960  -27.8680 C   0  0  0  0  0  0  0  0  0  0  0  0
   -1.2400   23.2730  -28.6300 C   0  0  0  0  0  0  0  0  0  0  0  0
   -2.4130   24.0120  -28.8310 C   0  0  0  0  0  0  0  0  0  0  0  0
   -2.3210   25.2720  -29.3260 F   0  0  0  0  0  0  0  0  0  0  0  0
   -7.1940   23.0170  -31.2970 C   0  0  0  0  0  0  0  0  0  0  0  0
   -7.5400   21.8820  -32.0360 C   0  0  0  0  0  0  0  0  0  0  0  0
   -6.7600   17.7140  -32.5810 C   0  0  0  0  0  0  0  0  0  0  0  0
   -6.1250   16.4790  -32.4600 C   0  0  0  0  0  0  0  0  0  0  0  0
   -4.9120   16.2230  -33.1260 C   0  0  0  0  0  0  0  0  0  0  0  0
   -4.2530   14.9520  -32.9490 N   0  0  0  0  0  0  0  0  0  0  0  0
   -4.1890   14.4280  -31.8170 O   0  0  0  0  0  0  0  0  0  0  0  0
   -3.5520   14.3730  -33.9810 O   0  0  0  0  0  0  0  0  0  0  0  0
   -1.9670   19.7810  -33.2190 C   0  0  0  0  0  0  0  0  0  0  0  0
   -1.8917   21.8858  -30.5664 H   0  0  0  0  0  0  0  0  0  0  0  0
   -1.0859   22.4113  -32.0833 H   0  0  0  0  0  0  0  0  0  0  0  0
   -2.8422   22.0347  -32.0833 H   0  0  0  0  0  0  0  0  0  0  0  0
   -0.4599   19.9761  -30.1520 H   0  0  0  0  0  0  0  0  0  0  0  0
    0.0933   17.6113  -30.7207 H   0  0  0  0  0  0  0  0  0  0  0  0
   -0.6501   16.6342  -32.8922 H   0  0  0  0  0  0  0  0  0  0  0  0
   -2.4318   18.6803  -35.5253 H   0  0  0  0  0  0  0  0  0  0  0  0
   -1.2536   17.3252  -35.3223 H   0  0  0  0  0  0  0  0  0  0  0  0
   -4.5796   19.2511  -34.7103 H   0  0  0  0  0  0  0  0  0  0  0  0
   -7.6320   20.0660  -34.2140 H   0  0  0  0  0  0  0  0  0  0  0  0
   -4.4599   21.0970  -33.3006 H   0  0  0  0  0  0  0  0  0  0  0  0
   -3.8407   23.1033  -31.9558 H   0  0  0  0  0  0  0  0  0  0  0  0
   -5.4590   24.4840  -27.8610 H   0  0  0  0  0  0  0  0  0  0  0  0
   -4.6932   21.7011  -27.7468 H   0  0  0  0  0  0  0  0  0  0  0  0
   -2.6024   20.4008  -27.3735 H   0  0  0  0  0  0  0  0  0  0  0  0
    0.1197   21.0981  -26.7841 H   0  0  0  0  0  0  0  0  0  0  0  0
   -0.1270   20.1958  -28.3176 H   0  0  0  0  0  0  0  0  0  0  0  0
    0.8118   21.7273  -28.3176 H   0  0  0  0  0  0  0  0  0  0  0  0
   -0.2646   23.7191  -28.8741 H   0  0  0  0  0  0  0  0  0  0  0  0
   -7.9711   23.5759  -30.7551 H   0  0  0  0  0  0  0  0  0  0  0  0
   -8.5885   21.5516  -32.0740 H   0  0  0  0  0  0  0  0  0  0  0  0
   -7.7104   17.8930  -32.0570 H   0  0  0  0  0  0  0  0  0  0  0  0
   -6.5778   15.6945  -31.8359 H   0  0  0  0  0  0  0  0  0  0  0  0
   -2.5532   20.3916  -33.9215 H   0  0  0  0  0  0  0  0  0  0  0  0
  1  2  1  0
  2  3  2  0
  3  4  1  0
  4  5  2  0
  5  6  1  0
  6  7  1  0
  7  8  1  0
  8  9  1  0
  9 10  2  0
 10 11  1  0
 11 12  1  0
 12 13  1  0
 13 14  2  0
 14 15  1  0
 15 16  2  0
 16 17  1  0
 17 18  2  0
 17 19  2  0
 17 20  1  0
 20 21  1  0
 21 22  2  0
 22 23  1  0
 23 24  2  0
 24 25  1  0
 24 26  1  0
 26 27  2  0
 27 28  1  0
 16 29  1  0
 29 30  2  0
 11 31  2  0
 31 32  1  0
 32 33  2  0
 33 34  1  0
 34 35  2  0
 34 36  1  0
  6 37  2  0
 37  2  1  0
 33  9  1  0
 30 13  1  0
 27 21  1  0
  1 38  1  0
  1 39  1  0
  1 40  1  0
  3 41  1  0
  4 42  1  0
  5 43  1  0
  7 44  1  0
  7 45  1  0
 10 46  1  0
 12 47  1  0
 14 48  1  0
 15 49  1  0
 20 50  1  0
 22 51  1  0
 23 52  1  0
 25 53  1  0
 25 54  1  0
 25 55  1  0
 26 56  1  0
 29 57  1  0
 30 58  1  0
 31 59  1  0
 32 60  1  0
 37 61  1  0
M  CHG  2  34   1  36  -1
M  END
>  <UniqueID>  (3) 
3

>  <SMILES>  (3) 
Cc1cccc(COc2cc(Nc3ccc(S(=O)(=O)Nc4ccc(C)cc4F)cc3)ccc2[N+](=O)[O-])c1

>  <Energy>  (3) 
69.23362497697329

>  <Genealogy>  (3) 
Cc1cccc(COc2cc(Nc3ccc(S(=O)(=O)Nc4ccc(C)cc4F)cc3)ccc2[N+](=O)[O-])c1 (3D coordinates assigned)
Cc1cccc(COc2cc(Nc3ccc(S(=O)(=O)Nc4ccc(C)cc4F)cc3)ccc2[N+](=O)[O-])c1 (optimized conformer: 69.23362497697329 kcal/mol)

>  <smiles>  (3) 
Cc1cccc(COc2cc(Nc3ccc(S(=O)(=O)Nc4ccc(C)cc4F)cc3)ccc2[N+](=O)[O-])c1

>  <score_type>  (3) 
oracle

>  <origin>  (3) 
adgpu

>  <m_score__min__energy>  (3) 
-11.380000000000001

>  <m_primary>  (3) 
energy

$$$$
3:0
     RDKit          3D

 36 39  0  0  0  0  0  0  0  0999 V2000
   -0.2205   28.3074  -28.5045 H   0  0  0  0  0  0  0  0  0  0  0  0
   -0.5720   27.6110  -27.7290 C   0  0  0  0  0  0  0  0  0  0  0  0
   -0.4680   27.9600  -26.3810 C   0  0  0  0  0  0  0  0  0  0  0  0
   -0.0358   28.9313  -26.0986 H   0  0  0  0  0  0  0  0  0  0  0  0
   -0.9120   27.0780  -25.3860 C   0  0  0  0  0  0  0  0  0  0  0  0
   -0.8590   27.4790  -23.9420 C   0  0  0  0  0  0  0  0  0  0  0  0
   -0.9769   26.5870  -23.3092 H   0  0  0  0  0  0  0  0  0  0  0  0
    0.1098   27.9544  -23.7288 H   0  0  0  0  0  0  0  0  0  0  0  0
   -1.6710   28.1898  -23.7288 H   0  0  0  0  0  0  0  0  0  0  0  0
   -1.4810   25.8500  -25.7570 C   0  0  0  0  0  0  0  0  0  0  0  0
   -1.8711   25.1728  -24.9829 H   0  0  0  0  0  0  0  0  0  0  0  0
   -1.5560   25.4790  -27.1120 C   0  0  0  0  0  0  0  0  0  0  0  0
   -2.1710   24.2440  -27.5100 N   0  0  0  0  0  0  0  0  0  0  0  0
   -2.8860   24.0480  -28.5790 C   0  0  0  0  0  0  0  0  0  0  0  0
   -3.4980   22.5480  -29.0210 S   0  0  0  0  0  0  0  0  0  0  0  0
   -4.2640   23.2250  -30.3680 C   0  0  0  0  0  0  0  0  0  0  0  0
   -5.0740   22.4730  -31.3430 C   0  0  0  0  0  0  0  0  0  0  0  0
   -4.6240   21.9530  -32.5540 C   0  0  0  0  0  0  0  0  0  0  0  0
   -3.5943   22.0432  -32.9303 H   0  0  0  0  0  0  0  0  0  0  0  0
   -5.6280   21.3220  -33.2030 N   0  0  0  0  0  0  0  0  0  0  0  0
   -5.5690   20.8430  -34.1290 H   0  0  0  0  0  0  0  0  0  0  0  0
   -6.7100   21.4360  -32.4150 C   0  0  0  0  0  0  0  0  0  0  0  0
   -7.9880   20.9400  -32.6660 C   0  0  0  0  0  0  0  0  0  0  0  0
   -8.2089   20.3838  -33.5890 H   0  0  0  0  0  0  0  0  0  0  0  0
   -8.9860   21.1720  -31.7040 C   0  0  0  0  0  0  0  0  0  0  0  0
  -10.0052   20.7936  -31.8713 H   0  0  0  0  0  0  0  0  0  0  0  0
   -8.6880   21.8880  -30.5240 C   0  0  0  0  0  0  0  0  0  0  0  0
   -9.4769   22.0637  -29.7779 H   0  0  0  0  0  0  0  0  0  0  0  0
   -7.3900   22.3780  -30.2960 C   0  0  0  0  0  0  0  0  0  0  0  0
   -7.1483   22.9374  -29.3802 H   0  0  0  0  0  0  0  0  0  0  0  0
   -6.4160   22.1330  -31.2680 C   0  0  0  0  0  0  0  0  0  0  0  0
   -4.0470   24.5590  -30.4300 N   0  0  0  0  0  0  0  0  0  0  0  0
   -3.2860   25.0160  -29.4390 N   0  0  0  0  0  0  0  0  0  0  0  0
   -3.0760   26.0330  -29.3410 H   0  0  0  0  0  0  0  0  0  0  0  0
   -1.1220   26.3780  -28.0960 C   0  0  0  0  0  0  0  0  0  0  0  0
   -1.2310   26.0490  -29.4420 O   0  0  0  0  0  0  0  0  0  0  0  0
  1  2  1  0
  2  3  2  0
  3  4  1  0
  3  5  1  0
  5  6  1  0
  6  7  1  0
  6  8  1  0
  6  9  1  0
  5 10  2  0
 10 11  1  0
 10 12  1  0
 12 13  1  0
 13 14  2  0
 14 15  1  0
 15 16  1  0
 16 17  1  0
 17 18  2  0
 18 19  1  0
 18 20  1  0
 20 21  1  0
 20 22  1  0
 22 23  2  0
 23 24  1  0
 23 25  1  0
 25 26  1  0
 25 27  2  0
 27 28  1  0
 27 29  1  0
 29 30  1  0
 29 31  2  0
 16 32  2  0
 32 33  1  0
 33 34  1  0
 12 35  2  0
 35 36  1  0
 35  2  1  0
 33 14  1  0
 31 17  1  0
 31 22  1  0
M  CHG  1  36  -1
M  END
>  <UniqueID>  (4) 
4

>  <SMILES>  (4) 
Cc1ccc([O-])c(/N=c2\[nH]nc(-c3c[nH]c4ccccc34)s2)c1

>  <Energy>  (4) 
114.90796547240896

>  <Genealogy>  (4) 
Cc1ccc([O-])c(N=c2[nH]nc(-c3c[nH]c4ccccc34)s2)c1 (protonated)
Cc1ccc([O-])c(/N=c2\[nH]nc(-c3c[nH]c4ccccc34)s2)c1 (cis-trans isomerization)
Cc1ccc([O-])c(/N=c2\[nH]nc(-c3c[nH]c4ccccc34)s2)c1 (3D coordinates assigned)
Cc1ccc([O-])c(/N=c2\[nH]nc(-c3c[nH]c4ccccc34)s2)c1 (optimized conformer: 114.90796547240896 kcal/mol)

>  <smiles>  (4) 
Cc1ccc(O)c(N=c2[nH]nc(-c3c[nH]c4ccccc34)s2)c1

>  <score_type>  (4) 
oracle

>  <origin>  (4) 
adgpu

>  <m_score__min__energy>  (4) 
-11.68

>  <m_primary>  (4) 
energy

$$$$
4:0
     RDKit          3D

 29 30  0  0  0  0  0  0  0  0999 V2000
   -3.5400   25.2680  -30.4940 N   0  0  0  0  0  0  0  0  0  0  0  0
   -5.1570   24.6620  -30.4250 S   0  0  0  0  0  0  0  0  0  0  0  0
   -6.0680   25.5710  -31.2020 O   0  0  0  0  0  0  0  0  0  0  0  0
   -5.6160   24.6250  -28.9950 O   0  0  0  0  0  0  0  0  0  0  0  0
   -5.2070   23.0400  -31.1100 C   0  0  0  0  0  0  0  0  0  0  0  0
   -4.1030   22.5350  -31.8070 C   0  0  0  0  0  0  0  0  0  0  0  0
   -4.1490   21.2520  -32.3630 C   0  0  0  0  0  0  0  0  0  0  0  0
   -5.2940   20.4550  -32.2200 C   0  0  0  0  0  0  0  0  0  0  0  0
   -5.3240   19.1500  -32.8230 N   0  0  0  0  0  0  0  0  0  0  0  0
   -5.7610   17.9610  -32.1390 C   0  0  0  0  0  0  0  0  0  0  0  0
   -6.0510   18.0120  -30.9120 O   0  0  0  0  0  0  0  0  0  0  0  0
   -5.8710   16.6610  -32.8460 C   0  0  0  0  0  0  0  0  0  0  0  0
   -6.8410   16.4880  -33.8490 C   0  0  0  0  0  0  0  0  0  0  0  0
   -6.9530   15.3000  -34.5000 N   0  0  0  0  0  0  0  0  0  0  0  0
   -6.1500   14.2450  -34.2070 C   0  0  0  0  0  0  0  0  0  0  0  0
   -5.1800   14.3610  -33.2100 C   0  0  0  0  0  0  0  0  0  0  0  0
   -4.0620   12.8750  -32.7770 Br  0  0  0  0  0  0  0  0  0  0  0  0
   -5.0430   15.5710  -32.5260 C   0  0  0  0  0  0  0  0  0  0  0  0
   -6.4120   20.9800  -31.5470 C   0  0  0  0  0  0  0  0  0  0  0  0
   -6.3660   22.2630  -30.9930 C   0  0  0  0  0  0  0  0  0  0  0  0
   -3.5300   26.0260  -31.2130 H   0  0  0  0  0  0  0  0  0  0  0  0
   -3.1968   23.1486  -31.9178 H   0  0  0  0  0  0  0  0  0  0  0  0
   -3.2805   20.8655  -32.9165 H   0  0  0  0  0  0  0  0  0  0  0  0
   -4.9570   19.0740  -33.7960 H   0  0  0  0  0  0  0  0  0  0  0  0
   -7.5133   17.3191  -34.1085 H   0  0  0  0  0  0  0  0  0  0  0  0
   -6.2639   13.2984  -34.7556 H   0  0  0  0  0  0  0  0  0  0  0  0
   -4.2853   15.6713  -31.7349 H   0  0  0  0  0  0  0  0  0  0  0  0
   -7.3279   20.3777  -31.4560 H   0  0  0  0  0  0  0  0  0  0  0  0
   -7.2432   22.6633  -30.4635 H   0  0  0  0  0  0  0  0  0  0  0  0
  1  2  1  0
  2  3  2  0
  2  4  2  0
  2  5  1  0
  5  6  2  0
  6  7  1  0
  7  8  2  0
  8  9  1  0
  9 10  1  0
 10 11  2  0
 10 12  1  0
 12 13  2  0
 13 14  1  0
 14 15  2  0
 15 16  1  0
 16 17  1  0
 16 18  2  0
  8 19  1  0
 19 20  2  0
 20  5  1  0
 18 12  1  0
  1 21  1  0
  6 22  1  0
  7 23  1  0
  9 24  1  0
 13 25  1  0
 15 26  1  0
 18 27  1  0
 19 28  1  0
 20 29  1  0
M  CHG  1   1  -1
M  END
>  <UniqueID>  (5) 
5

>  <SMILES>  (5) 
[NH-]S(=O)(=O)c1ccc(NC(=O)c2cncc(Br)c2)cc1

>  <Energy>  (5) 
37.07624149589281

>  <Genealogy>  (5) 
[NH-]S(=O)(=O)c1ccc(NC(=O)c2cncc(Br)c2)cc1 (protonated)
[NH-]S(=O)(=O)c1ccc(NC(=O)c2cncc(Br)c2)cc1 (3D coordinates assigned)
[NH-]S(=O)(=O)c1ccc(NC(=O)c2cncc(Br)c2)cc1 (optimized conformer: 37.07624149589281 kcal/mol)

>  <smiles>  (5) 
NS(=O)(=O)c1ccc(NC(=O)c2cncc(Br)c2)cc1

>  <score_type>  (5) 
oracle

>  <origin>  (5) 
adgpu

>  <m_score__min__energy>  (5) 
-9.0299999999999994

>  <m_primary>  (5) 
energy

$$$$
5:0
     RDKit          3D

 35 37  0  0  0  0  0  0  0  0999 V2000
   -4.5870   14.8204  -33.5676 H   0  0  0  0  0  0  0  0  0  0  0  0
   -4.7820   15.9020  -33.6140 C   0  0  0  0  0  0  0  0  0  0  0  0
   -5.9910   16.3730  -34.1330 C   0  0  0  0  0  0  0  0  0  0  0  0
   -6.7495   15.6612  -34.4909 H   0  0  0  0  0  0  0  0  0  0  0  0
   -6.2380   17.7480  -34.1980 C   0  0  0  0  0  0  0  0  0  0  0  0
   -7.1957   18.1134  -34.5970 H   0  0  0  0  0  0  0  0  0  0  0  0
   -5.2730   18.6620  -33.7580 C   0  0  0  0  0  0  0  0  0  0  0  0
   -5.5640   20.0320  -33.8240 O   0  0  0  0  0  0  0  0  0  0  0  0
   -6.4980   20.7040  -33.0220 C   0  0  0  0  0  0  0  0  0  0  0  0
   -7.7890   20.1780  -32.9080 C   0  0  0  0  0  0  0  0  0  0  0  0
   -8.0507   19.2496  -33.4368 H   0  0  0  0  0  0  0  0  0  0  0  0
   -8.7470   20.8260  -32.1260 C   0  0  0  0  0  0  0  0  0  0  0  0
   -9.7576   20.4016  -32.0341 H   0  0  0  0  0  0  0  0  0  0  0  0
   -8.4270   22.0110  -31.4600 C   0  0  0  0  0  0  0  0  0  0  0  0
   -9.1870   22.5157  -30.8454 H   0  0  0  0  0  0  0  0  0  0  0  0
   -7.1390   22.5620  -31.5710 C   0  0  0  0  0  0  0  0  0  0  0  0
   -6.7960   23.8300  -30.8810 C   0  0  0  0  0  0  0  0  0  0  0  0
   -7.6090   24.3230  -30.0540 O   0  0  0  0  0  0  0  0  0  0  0  0
   -5.5320   24.4820  -31.0750 N   0  0  0  0  0  0  0  0  0  0  0  0
   -4.5980   24.6160  -30.1790 C   0  0  0  0  0  0  0  0  0  0  0  0
   -3.4830   25.2710  -30.3970 O   0  0  0  0  0  0  0  0  0  0  0  0
   -2.7140   25.2380  -29.3490 N   0  0  0  0  0  0  0  0  0  0  0  0
   -3.3690   24.5320  -28.4060 C   0  0  0  0  0  0  0  0  0  0  0  0
   -2.7980   24.1940  -27.0690 C   0  0  0  0  0  0  0  0  0  0  0  0
   -3.4572   24.5842  -26.2795 H   0  0  0  0  0  0  0  0  0  0  0  0
   -2.7155   23.1015  -26.9711 H   0  0  0  0  0  0  0  0  0  0  0  0
   -1.8005   24.6472  -26.9711 H   0  0  0  0  0  0  0  0  0  0  0  0
   -4.5820   24.0940  -28.8980 C   0  0  0  0  0  0  0  0  0  0  0  0
   -5.3460   23.4820  -28.3962 H   0  0  0  0  0  0  0  0  0  0  0  0
   -6.1830   21.9120  -32.3720 C   0  0  0  0  0  0  0  0  0  0  0  0
   -5.1815   22.3511  -32.4914 H   0  0  0  0  0  0  0  0  0  0  0  0
   -4.0650   18.1810  -33.2180 C   0  0  0  0  0  0  0  0  0  0  0  0
   -3.3107   18.8895  -32.8452 H   0  0  0  0  0  0  0  0  0  0  0  0
   -3.8210   16.8060  -33.1540 C   0  0  0  0  0  0  0  0  0  0  0  0
   -2.8713   16.4353  -32.7410 H   0  0  0  0  0  0  0  0  0  0  0  0
  1  2  1  0
  2  3  2  0
  3  4  1  0
  3  5  1  0
  5  6  1  0
  5  7  2  0
  7  8  1  0
  8  9  1  0
  9 10  2  0
 10 11  1  0
 10 12  1  0
 12 13  1  0
 12 14  2  0
 14 15  1  0
 14 16  1  0
 16 17  1  0
 17 18  2  0
 17 19  1  0
 19 20  2  0
 20 21  1  0
 21 22  1  0
 22 23  1  0
 23 24  1  0
 24 25  1  0
 24 26  1  0
 24 27  1  0
 23 28  2  0
 28 29  1  0
 16 30  2  0
 30 31  1  0
  7 32  1  0
 32 33  1  0
 32 34  2  0
 34 35  1  0
 34  2  1  0
 30  9  1  0
 28 20  1  0
M  CHG  1  22  -1
M  END
>  <UniqueID>  (6) 
6

>  <SMILES>  (6) 
Cc1c/c(=N\C(=O)c2cccc(Oc3ccccc3)c2)o[n-]1

>  <Energy>  (6) 
82.28536299017345

>  <Genealogy>  (6) 
Cc1cc(=NC(=O)c2cccc(Oc3ccccc3)c2)o[n-]1 (protonated)
Cc1c/c(=N\C(=O)c2cccc(Oc3ccccc3)c2)o[n-]1 (cis-trans isomerization)
Cc1c/c(=N\C(=O)c2cccc(Oc3ccccc3)c2)o[n-]1 (3D coordinates assigned)
Cc1c/c(=N\C(=O)c2cccc(Oc3ccccc3)c2)o[n-]1 (optimized conformer: 82.28536299017345 kcal/mol)

>  <smiles>  (6) 
Cc1cc(=NC(=O)c2cccc(Oc3ccccc3)c2)o[nH]1

>  <score_type>  (6) 
oracle

>  <origin>  (6) 
adgpu

>  <m_score__min__energy>  (6) 
-10.800000000000001

>  <m_primary>  (6) 
energy

$$$$
6:0
     RDKit          3D

 50 53  0  0  0  0  0  0  0  0999 V2000
   -6.5990   18.1220  -31.4970 F   0  0  0  0  0  0  0  0  0  0  0  0
   -7.8130   18.6940  -31.8350 C   0  0  0  0  0  0  0  0  0  0  0  0
   -8.7400   18.3430  -30.8700 F   0  0  0  0  0  0  0  0  0  0  0  0
   -8.2230   18.1940  -33.0570 F   0  0  0  0  0  0  0  0  0  0  0  0
   -7.6860   20.1940  -31.9300 C   0  0  0  0  0  0  0  0  0  0  0  0
   -8.7620   21.0230  -31.5630 C   0  0  0  0  0  0  0  0  0  0  0  0
   -8.6230   22.4130  -31.5920 C   0  0  0  0  0  0  0  0  0  0  0  0
   -7.4120   22.9900  -31.9730 C   0  0  0  0  0  0  0  0  0  0  0  0
   -6.3260   22.1800  -32.3350 C   0  0  0  0  0  0  0  0  0  0  0  0
   -5.0000   22.7950  -32.6890 C   0  0  0  0  0  0  0  0  0  0  0  0
   -3.9550   22.3200  -31.7700 N   0  0  0  0  0  0  0  0  0  0  0  0
   -3.9810   22.7380  -30.3650 C   0  0  0  0  0  0  0  0  0  0  0  0
   -4.7340   24.0230  -30.2320 C   0  0  0  0  0  0  0  0  0  0  0  0
   -4.3360   25.1760  -30.8110 N   0  0  0  0  0  0  0  0  0  0  0  0
   -5.2930   26.0530  -30.4670 C   0  0  0  0  0  0  0  0  0  0  0  0
   -6.2390   25.4160  -29.7000 C   0  0  0  0  0  0  0  0  0  0  0  0
   -5.8930   24.1270  -29.5490 N   0  0  0  0  0  0  0  0  0  0  0  0
   -2.9560   21.3850  -32.2250 C   0  0  0  0  0  0  0  0  0  0  0  0
   -1.6100   21.5690  -31.8730 C   0  0  0  0  0  0  0  0  0  0  0  0
   -0.6350   20.6780  -32.3260 C   0  0  0  0  0  0  0  0  0  0  0  0
   -0.9960   19.5920  -33.1300 C   0  0  0  0  0  0  0  0  0  0  0  0
   -2.3410   19.3930  -33.4870 C   0  0  0  0  0  0  0  0  0  0  0  0
   -2.7380   18.3340  -34.3150 O   0  0  0  0  0  0  0  0  0  0  0  0
   -3.8720   17.5330  -34.1210 C   0  0  0  0  0  0  0  0  0  0  0  0
   -5.0610   17.8800  -34.7770 C   0  0  0  0  0  0  0  0  0  0  0  0
   -6.2170   17.1150  -34.5950 C   0  0  0  0  0  0  0  0  0  0  0  0
   -6.1960   16.0050  -33.7460 C   0  0  0  0  0  0  0  0  0  0  0  0
   -5.0200   15.6620  -33.0740 C   0  0  0  0  0  0  0  0  0  0  0  0
   -3.8620   16.4250  -33.2540 C   0  0  0  0  0  0  0  0  0  0  0  0
   -3.3110   20.2990  -33.0420 C   0  0  0  0  0  0  0  0  0  0  0  0
   -6.4610   20.7830  -32.2910 C   0  0  0  0  0  0  0  0  0  0  0  0
   -9.7171   20.5747  -31.2518 H   0  0  0  0  0  0  0  0  0  0  0  0
   -9.4720   23.0545  -31.3133 H   0  0  0  0  0  0  0  0  0  0  0  0
   -7.3082   24.0850  -31.9897 H   0  0  0  0  0  0  0  0  0  0  0  0
   -4.7330   22.5139  -33.7184 H   0  0  0  0  0  0  0  0  0  0  0  0
   -5.0795   23.8889  -32.6054 H   0  0  0  0  0  0  0  0  0  0  0  0
   -4.4747   21.9615  -29.7622 H   0  0  0  0  0  0  0  0  0  0  0  0
   -2.9499   22.8832  -30.0104 H   0  0  0  0  0  0  0  0  0  0  0  0
   -5.3162   27.1146  -30.7540 H   0  0  0  0  0  0  0  0  0  0  0  0
   -7.1380   25.8876  -29.2765 H   0  0  0  0  0  0  0  0  0  0  0  0
   -1.3217   22.4191  -31.2372 H   0  0  0  0  0  0  0  0  0  0  0  0
    0.4189   20.8305  -32.0500 H   0  0  0  0  0  0  0  0  0  0  0  0
   -0.2252   18.8916  -33.4840 H   0  0  0  0  0  0  0  0  0  0  0  0
   -5.0848   18.7586  -35.4384 H   0  0  0  0  0  0  0  0  0  0  0  0
   -7.1442   17.3871  -35.1207 H   0  0  0  0  0  0  0  0  0  0  0  0
   -7.1051   15.4015  -33.6069 H   0  0  0  0  0  0  0  0  0  0  0  0
   -5.0050   14.7908  -32.4026 H   0  0  0  0  0  0  0  0  0  0  0  0
   -2.9404   16.1581  -32.7160 H   0  0  0  0  0  0  0  0  0  0  0  0
   -4.3619   20.1590  -33.3352 H   0  0  0  0  0  0  0  0  0  0  0  0
   -5.6013   20.1439  -32.5410 H   0  0  0  0  0  0  0  0  0  0  0  0
  1  2  1  0
  2  3  1  0
  2  4  1  0
  2  5  1  0
  5  6  2  0
  6  7  1  0
  7  8  2  0
  8  9  1  0
  9 10  1  0
 10 11  1  0
 11 12  1  0
 12 13  1  0
 13 14  2  0
 14 15  1  0
 15 16  2  0
 16 17  1  0
 11 18  1  0
 18 19  2  0
 19 20  1  0
 20 21  2  0
 21 22  1  0
 22 23  1  0
 23 24  1  0
 24 25  2  0
 25 26  1  0
 26 27  2  0
 27 28  1  0
 28 29  2  0
 22 30  2  0
  9 31  2  0
 31  5  1  0
 17 13  1  0
 30 18  1  0
 29 24  1  0
  6 32  1  0
  7 33  1  0
  8 34  1  0
 10 35  1  0
 10 36  1  0
 12 37  1  0
 12 38  1  0
 15 39  1  0
 16 40  1  0
 19 41  1  0
 20 42  1  0
 21 43  1  0
 25 44  1  0
 26 45  1  0
 27 46  1  0
 28 47  1  0
 29 48  1  0
 30 49  1  0
 31 50  1  0
M  CHG  1  17  -1
M  END
>  <UniqueID>  (7) 
7

>  <SMILES>  (7) 
FC(F)(F)c1cccc(CN(Cc2ncc[n-]2)c2cccc(Oc3ccccc3)c2)c1

>  <Energy>  (7) 
89.06362605362105

>  <Genealogy>  (7) 
FC(F)(F)c1cccc(CN(Cc2ncc[n-]2)c2cccc(Oc3ccccc3)c2)c1 (protonated)
FC(F)(F)c1cccc(CN(Cc2ncc[n-]2)c2cccc(Oc3ccccc3)c2)c1 (3D coordinates assigned)
FC(F)(F)c1cccc(CN(Cc2ncc[n-]2)c2cccc(Oc3ccccc3)c2)c1 (optimized conformer: 89.06362605362105 kcal/mol)

>  <smiles>  (7) 
FC(F)(F)c1cccc(CN(Cc2ncc[nH]2)c2cccc(Oc3ccccc3)c2)c1

>  <score_type>  (7) 
oracle

>  <origin>  (7) 
adgpu

>  <m_score__min__energy>  (7) 
-9.8100000000000005

>  <m_primary>  (7) 
energy

$$$$
7:0
     RDKit          3D

 49 51  0  0  0  0  0  0  0  0999 V2000
   -1.9540   19.8360  -26.7180 C   0  0  0  0  0  0  0  0  0  0  0  0
   -1.1740   21.1450  -26.6740 C   0  0  0  0  0  0  0  0  0  0  0  0
   -1.7740   22.1550  -27.6150 C   0  0  0  0  0  0  0  0  0  0  0  0
   -0.9490   22.8980  -28.4740 C   0  0  0  0  0  0  0  0  0  0  0  0
   -1.5010   23.8580  -29.3270 C   0  0  0  0  0  0  0  0  0  0  0  0
   -2.8890   24.0840  -29.3360 C   0  0  0  0  0  0  0  0  0  0  0  0
   -3.4870   25.0690  -30.1910 N   0  0  0  0  0  0  0  0  0  0  0  0
   -4.7800   24.9840  -30.8050 C   0  0  0  0  0  0  0  0  0  0  0  0
   -5.5090   26.0110  -30.8160 O   0  0  0  0  0  0  0  0  0  0  0  0
   -5.3010   23.7180  -31.3740 C   0  0  0  0  0  0  0  0  0  0  0  0
   -4.4240   22.7240  -31.8430 C   0  0  0  0  0  0  0  0  0  0  0  0
   -4.9260   21.5340  -32.3780 C   0  0  0  0  0  0  0  0  0  0  0  0
   -6.3080   21.3170  -32.4440 C   0  0  0  0  0  0  0  0  0  0  0  0
   -6.9520   19.8120  -33.0980 S   0  0  0  0  0  0  0  0  0  0  0  0
   -8.4020   19.7170  -32.7130 O   0  0  0  0  0  0  0  0  0  0  0  0
   -6.8450   19.8010  -34.5960 O   0  0  0  0  0  0  0  0  0  0  0  0
   -6.0690   18.4620  -32.4440 N   0  0  0  0  0  0  0  0  0  0  0  0
   -6.4860   17.8930  -31.1620 C   0  0  0  0  0  0  0  0  0  0  0  0
   -4.9110   17.9420  -33.1270 C   0  0  0  0  0  0  0  0  0  0  0  0
   -4.9960   16.7530  -33.8730 C   0  0  0  0  0  0  0  0  0  0  0  0
   -3.8760   16.2550  -34.5460 C   0  0  0  0  0  0  0  0  0  0  0  0
   -2.6590   16.9420  -34.4840 C   0  0  0  0  0  0  0  0  0  0  0  0
   -1.2550   16.3170  -35.3300 Cl  0  0  0  0  0  0  0  0  0  0  0  0
   -2.5650   18.1270  -33.7510 C   0  0  0  0  0  0  0  0  0  0  0  0
   -3.6840   18.6280  -33.0770 C   0  0  0  0  0  0  0  0  0  0  0  0
   -7.1850   22.2920  -31.9540 C   0  0  0  0  0  0  0  0  0  0  0  0
   -6.6860   23.4840  -31.4220 C   0  0  0  0  0  0  0  0  0  0  0  0
   -3.7050   23.3700  -28.4520 C   0  0  0  0  0  0  0  0  0  0  0  0
   -3.1540   22.4100  -27.5980 C   0  0  0  0  0  0  0  0  0  0  0  0
   -2.1569   19.4954  -25.6919 H   0  0  0  0  0  0  0  0  0  0  0  0
   -2.9055   19.9938  -27.2469 H   0  0  0  0  0  0  0  0  0  0  0  0
   -1.3624   19.0743  -27.2469 H   0  0  0  0  0  0  0  0  0  0  0  0
   -1.1995   21.5460  -25.6500 H   0  0  0  0  0  0  0  0  0  0  0  0
   -0.1364   20.9484  -26.9817 H   0  0  0  0  0  0  0  0  0  0  0  0
    0.1371   22.7239  -28.4759 H   0  0  0  0  0  0  0  0  0  0  0  0
   -0.8471   24.4390  -29.9939 H   0  0  0  0  0  0  0  0  0  0  0  0
   -3.3370   22.8836  -31.7886 H   0  0  0  0  0  0  0  0  0  0  0  0
   -4.2325   20.7648  -32.7487 H   0  0  0  0  0  0  0  0  0  0  0  0
   -6.0534   18.4833  -30.3408 H   0  0  0  0  0  0  0  0  0  0  0  0
   -7.5835   17.9149  -31.0907 H   0  0  0  0  0  0  0  0  0  0  0  0
   -6.1346   16.8531  -31.0907 H   0  0  0  0  0  0  0  0  0  0  0  0
   -5.9512   16.2103  -33.9276 H   0  0  0  0  0  0  0  0  0  0  0  0
   -3.9520   15.3225  -35.1245 H   0  0  0  0  0  0  0  0  0  0  0  0
   -1.6084   18.6680  -33.7034 H   0  0  0  0  0  0  0  0  0  0  0  0
   -3.6038   19.5639  -32.5046 H   0  0  0  0  0  0  0  0  0  0  0  0
   -8.2708   22.1192  -31.9879 H   0  0  0  0  0  0  0  0  0  0  0  0
   -7.3820   24.2444  -31.0382 H   0  0  0  0  0  0  0  0  0  0  0  0
   -4.7873   23.5652  -28.4287 H   0  0  0  0  0  0  0  0  0  0  0  0
   -3.8053   21.8518  -26.9094 H   0  0  0  0  0  0  0  0  0  0  0  0
  1  2  1  0
  2  3  1  0
  3  4  2  0
  4  5  1  0
  5  6  2  0
  6  7  1  0
  7  8  1  0
  8  9  2  0
  8 10  1  0
 10 11  2  0
 11 12  1  0
 12 13  2  0
 13 14  1  0
 14 15  2  0
 14 16  2  0
 14 17  1  0
 17 18  1  0
 17 19  1  0
 19 20  2  0
 20 21  1  0
 21 22  2  0
 22 23  1  0
 22 24  1  0
 24 25  2  0
 13 26  1  0
 26 27  2  0
  6 28  1  0
 28 29  2  0
 29  3  1  0
 27 10  1  0
 25 19  1  0
  1 30  1  0
  1 31  1  0
  1 32  1  0
  2 33  1  0
  2 34  1  0
  4 35  1  0
  5 36  1  0
 11 37  1  0
 12 38  1  0
 18 39  1  0
 18 40  1  0
 18 41  1  0
 20 42  1  0
 21 43  1  0
 24 44  1  0
 25 45  1  0
 26 46  1  0
 27 47  1  0
 28 48  1  0
 29 49  1  0
M  CHG  1   7  -1
M  END
>  <UniqueID>  (8) 
8

>  <SMILES>  (8) 
CCc1ccc([N-]C(=O)c2ccc(S(=O)(=O)N(C)c3ccc(Cl)cc3)cc2)cc1

>  <Energy>  (8) 
59.33756788202917

>  <Genealogy>  (8) 
CCc1ccc([N-]C(=O)c2ccc(S(=O)(=O)N(C)c3ccc(Cl)cc3)cc2)cc1 (protonated)
CCc1ccc([N-]C(=O)c2ccc(S(=O)(=O)N(C)c3ccc(Cl)cc3)cc2)cc1 (3D coordinates assigned)
CCc1ccc([N-]C(=O)c2ccc(S(=O)(=O)N(C)c3ccc(Cl)cc3)cc2)cc1 (optimized conformer: 59.33756788202917 kcal/mol)

>  <smiles>  (8) 
CCc1ccc(NC(=O)c2ccc(S(=O)(=O)N(C)c3ccc(Cl)cc3)cc2)cc1

>  <score_type>  (8) 
oracle

>  <origin>  (8) 
adgpu

>  <m_score__min__energy>  (8) 
-11.27

>  <m_primary>  (8) 
energy

$$$$
8:0
     RDKit          3D

 54 57  0  0  0  0  0  0  0  0999 V2000
   -9.0920   18.2810  -31.6940 C   0  0  0  0  0  0  0  0  0  0  0  0
   -8.2290   19.0600  -32.5270 O   0  0  0  0  0  0  0  0  0  0  0  0
   -7.9870   20.4350  -32.3610 C   0  0  0  0  0  0  0  0  0  0  0  0
   -9.0250   21.3390  -32.0480 C   0  0  0  0  0  0  0  0  0  0  0  0
   -8.7470   22.6980  -31.8420 C   0  0  0  0  0  0  0  0  0  0  0  0
   -7.4350   23.1630  -31.9380 C   0  0  0  0  0  0  0  0  0  0  0  0
   -6.4000   22.2780  -32.2510 C   0  0  0  0  0  0  0  0  0  0  0  0
   -6.6660   20.9210  -32.4900 C   0  0  0  0  0  0  0  0  0  0  0  0
   -5.5730   20.0450  -32.8180 N   0  0  0  0  0  0  0  0  0  0  0  0
   -5.5600   19.2040  -33.9840 C   0  0  0  0  0  0  0  0  0  0  0  0
   -6.4870   19.3020  -34.8280 O   0  0  0  0  0  0  0  0  0  0  0  0
   -4.4480   18.2510  -34.2120 C   0  0  0  0  0  0  0  0  0  0  0  0
   -4.5920   17.2470  -35.1880 C   0  0  0  0  0  0  0  0  0  0  0  0
   -3.5600   16.3400  -35.4310 C   0  0  0  0  0  0  0  0  0  0  0  0
   -2.3730   16.4180  -34.7050 C   0  0  0  0  0  0  0  0  0  0  0  0
   -2.2060   17.4110  -33.7420 C   0  0  0  0  0  0  0  0  0  0  0  0
   -3.2270   18.3470  -33.4990 C   0  0  0  0  0  0  0  0  0  0  0  0
   -3.0300   19.3920  -32.5390 N   0  0  0  0  0  0  0  0  0  0  0  0
   -2.6100   21.0120  -32.9670 S   0  0  0  0  0  0  0  0  0  0  0  0
   -3.7610   21.6500  -33.6920 O   0  0  0  0  0  0  0  0  0  0  0  0
   -1.4040   20.9920  -33.8620 O   0  0  0  0  0  0  0  0  0  0  0  0
   -2.2070   21.8980  -31.4930 C   0  0  0  0  0  0  0  0  0  0  0  0
   -0.8920   21.9420  -31.0150 C   0  0  0  0  0  0  0  0  0  0  0  0
   -0.5700   22.7650  -29.9330 C   0  0  0  0  0  0  0  0  0  0  0  0
   -1.5440   23.5700  -29.3230 C   0  0  0  0  0  0  0  0  0  0  0  0
   -2.8830   23.5030  -29.7830 C   0  0  0  0  0  0  0  0  0  0  0  0
   -3.1980   22.6590  -30.8630 C   0  0  0  0  0  0  0  0  0  0  0  0
   -3.9570   24.3930  -29.2180 C   0  0  0  0  0  0  0  0  0  0  0  0
   -4.1650   24.0640  -27.7360 C   0  0  0  0  0  0  0  0  0  0  0  0
   -3.2740   24.9090  -26.8180 C   0  0  0  0  0  0  0  0  0  0  0  0
   -1.8830   25.2250  -27.3230 C   0  0  0  0  0  0  0  0  0  0  0  0
   -1.4000   26.3470  -27.0190 O   0  0  0  0  0  0  0  0  0  0  0  0
   -1.1280   24.3920  -28.2190 N   0  0  0  0  0  0  0  0  0  0  0  0
   -8.8649   18.4860  -30.6374 H   0  0  0  0  0  0  0  0  0  0  0  0
  -10.1392   18.5456  -31.9020 H   0  0  0  0  0  0  0  0  0  0  0  0
   -8.9356   17.2122  -31.9020 H   0  0  0  0  0  0  0  0  0  0  0  0
  -10.0596   20.9747  -31.9651 H   0  0  0  0  0  0  0  0  0  0  0  0
   -9.5627   23.3969  -31.6049 H   0  0  0  0  0  0  0  0  0  0  0  0
   -7.2153   24.2272  -31.7671 H   0  0  0  0  0  0  0  0  0  0  0  0
   -5.3661   22.6488  -32.3107 H   0  0  0  0  0  0  0  0  0  0  0  0
   -4.6710   20.1890  -32.3060 H   0  0  0  0  0  0  0  0  0  0  0  0
   -5.5264   17.1769  -35.7642 H   0  0  0  0  0  0  0  0  0  0  0  0
   -3.6837   15.5611  -36.1978 H   0  0  0  0  0  0  0  0  0  0  0  0
   -1.5663   15.6941  -34.8926 H   0  0  0  0  0  0  0  0  0  0  0  0
   -1.2692   17.4632  -33.1679 H   0  0  0  0  0  0  0  0  0  0  0  0
   -0.1126   21.3289  -31.4911 H   0  0  0  0  0  0  0  0  0  0  0  0
    0.4624   22.7822  -29.5537 H   0  0  0  0  0  0  0  0  0  0  0  0
   -4.2375   22.5962  -31.2173 H   0  0  0  0  0  0  0  0  0  0  0  0
   -3.6532   25.4452  -29.3210 H   0  0  0  0  0  0  0  0  0  0  0  0
   -4.8964   24.2276  -29.7659 H   0  0  0  0  0  0  0  0  0  0  0  0
   -5.2175   24.2518  -27.4770 H   0  0  0  0  0  0  0  0  0  0  0  0
   -3.8946   23.0083  -27.5861 H   0  0  0  0  0  0  0  0  0  0  0  0
   -3.7893   25.8646  -26.6410 H   0  0  0  0  0  0  0  0  0  0  0  0
   -3.1220   24.2950  -25.9181 H   0  0  0  0  0  0  0  0  0  0  0  0
  1  2  1  0
  2  3  1  0
  3  4  2  0
  4  5  1  0
  5  6  2  0
  6  7  1  0
  7  8  2  0
  8  9  1  0
  9 10  1  0
 10 11  2  0
 10 12  1  0
 12 13  2  0
 13 14  1  0
 14 15  2  0
 15 16  1  0
 16 17  2  0
 17 18  1  0
 18 19  1  0
 19 20  2  0
 19 21  2  0
 19 22  1  0
 22 23  2  0
 23 24  1  0
 24 25  2  0
 25 26  1  0
 26 27  2  0
 26 28  1  0
 28 29  1  0
 29 30  1  0
 30 31  1  0
 31 32  2  0
 31 33  1  0
  8  3  1  0
 17 12  1  0
 27 22  1  0
 33 25  1  0
  1 34  1  0
  1 35  1  0
  1 36  1  0
  4 37  1  0
  5 38  1  0
  6 39  1  0
  7 40  1  0
  9 41  1  0
 13 42  1  0
 14 43  1  0
 15 44  1  0
 16 45  1  0
 23 46  1  0
 24 47  1  0
 27 48  1  0
 28 49  1  0
 28 50  1  0
 29 51  1  0
 29 52  1  0
 30 53  1  0
 30 54  1  0
M  CHG  2  18  -1  33  -1
M  END
>  <UniqueID>  (9) 
9

>  <SMILES>  (9) 
COc1ccccc1NC(=O)c1ccccc1[N-]S(=O)(=O)c1ccc2c(c1)CCCC(=O)[N-]2

>  <Energy>  (9) 
80.73510003226356

>  <Genealogy>  (9) 
COc1ccccc1NC(=O)c1ccccc1[N-]S(=O)(=O)c1ccc2c(c1)CCCC(=O)[N-]2 (protonated)
COc1ccccc1NC(=O)c1ccccc1[N-]S(=O)(=O)c1ccc2c(c1)CCCC(=O)[N-]2 (3D coordinates assigned)
COc1ccccc1NC(=O)c1ccccc1[N-]S(=O)(=O)c1ccc2c(c1)CCCC(=O)[N-]2 (nonaromatic ring conformer: 80.73510003226356 kcal/mol)

>  <smiles>  (9) 
COc1ccccc1NC(=O)c1ccccc1NS(=O)(=O)c1ccc2c(c1)CCCC(=O)N2

>  <score_type>  (9) 
oracle

>  <origin>  (9) 
adgpu

>  <m_score__min__energy>  (9) 
-8.6199999999999992

>  <m_primary>  (9) 
energy

$$$$
9:0
     RDKit          3D

 60 63  0  0  0  0  0  0  0  0999 V2000
   -2.8403   11.6671  -32.5260 H   0  0  0  0  0  0  0  0  0  0  0  0
   -3.3050   12.6570  -32.6450 C   0  0  0  0  0  0  0  0  0  0  0  0
   -3.1480   13.3450  -33.8060 N   0  0  0  0  0  0  0  0  0  0  0  0
   -3.6930   14.5790  -34.0030 C   0  0  0  0  0  0  0  0  0  0  0  0
   -3.4900   15.2370  -35.3510 C   0  0  0  0  0  0  0  0  0  0  0  0
   -4.3410   14.9791  -35.9985 H   0  0  0  0  0  0  0  0  0  0  0  0
   -3.4175   16.3212  -35.1800 H   0  0  0  0  0  0  0  0  0  0  0  0
   -2.2400   14.8100  -36.0220 N   0  0  1  0  0  0  0  0  0  0  0  0
   -1.9440   13.8740  -35.6660 H   0  0  0  0  0  0  0  0  0  0  0  0
   -2.4760   14.6730  -37.4670 C   0  0  0  0  0  0  0  0  0  0  0  0
   -3.4162   14.1272  -37.6348 H   0  0  0  0  0  0  0  0  0  0  0  0
   -2.5451   15.6714  -37.9235 H   0  0  0  0  0  0  0  0  0  0  0  0
   -1.6433   14.1179  -37.9235 H   0  0  0  0  0  0  0  0  0  0  0  0
   -0.9260   15.9390  -35.7440 S   0  0  0  0  0  0  0  0  0  0  0  0
   -1.4610   17.2830  -35.3330 O   0  0  0  0  0  0  0  0  0  0  0  0
   -0.1090   16.1060  -36.9950 O   0  0  0  0  0  0  0  0  0  0  0  0
    0.1560   15.3200  -34.4700 C   0  0  0  0  0  0  0  0  0  0  0  0
   -0.2648   15.5608  -33.4826 H   0  0  0  0  0  0  0  0  0  0  0  0
    0.2543   14.2290  -34.5706 H   0  0  0  0  0  0  0  0  0  0  0  0
    1.1463   15.7882  -34.5706 H   0  0  0  0  0  0  0  0  0  0  0  0
   -4.4420   15.1780  -32.9600 C   0  0  0  0  0  0  0  0  0  0  0  0
   -5.0610   16.5120  -33.0920 C   0  0  0  0  0  0  0  0  0  0  0  0
   -4.3070   17.6060  -33.5340 C   0  0  0  0  0  0  0  0  0  0  0  0
   -3.2384   17.4791  -33.7622 H   0  0  0  0  0  0  0  0  0  0  0  0
   -4.9070   18.8570  -33.6860 C   0  0  0  0  0  0  0  0  0  0  0  0
   -4.3066   19.7128  -34.0283 H   0  0  0  0  0  0  0  0  0  0  0  0
   -6.2670   19.0300  -33.4060 C   0  0  0  0  0  0  0  0  0  0  0  0
   -6.8330   20.2980  -33.6010 O   0  0  0  0  0  0  0  0  0  0  0  0
   -6.7140   21.3740  -32.7090 C   0  0  0  0  0  0  0  0  0  0  0  0
   -7.8370   21.9920  -32.1340 C   0  0  0  0  0  0  0  0  0  0  0  0
   -8.8497   21.6342  -32.3713 H   0  0  0  0  0  0  0  0  0  0  0  0
   -7.6560   23.0640  -31.2590 C   0  0  0  0  0  0  0  0  0  0  0  0
   -8.5286   23.5488  -30.7968 H   0  0  0  0  0  0  0  0  0  0  0  0
   -6.4040   23.5100  -30.9770 N   0  0  0  0  0  0  0  0  0  0  0  0
   -5.2940   22.9430  -31.5300 C   0  0  0  0  0  0  0  0  0  0  0  0
   -4.1000   23.3800  -31.2520 N   0  0  0  0  0  0  0  0  0  0  0  0
   -3.7550   24.4670  -30.3730 C   0  0  0  0  0  0  0  0  0  0  0  0
   -3.9170   25.6650  -30.7310 O   0  0  0  0  0  0  0  0  0  0  0  0
   -3.2010   24.2020  -29.0000 C   0  0  0  0  0  0  0  0  0  0  0  0
   -2.2471   24.7186  -29.1822 H   0  0  0  0  0  0  0  0  0  0  0  0
   -3.5930   22.8810  -28.3510 C   0  0  0  0  0  0  0  0  0  0  0  0
   -4.1889   22.1472  -28.9136 H   0  0  0  0  0  0  0  0  0  0  0  0
   -3.0454   22.0616  -27.8624 H   0  0  0  0  0  0  0  0  0  0  0  0
   -4.2320   24.1800  -27.8800 C   0  0  0  0  0  0  0  0  0  0  0  0
   -5.2897   24.3847  -28.1021 H   0  0  0  0  0  0  0  0  0  0  0  0
   -4.3373   24.6878  -26.9099 H   0  0  0  0  0  0  0  0  0  0  0  0
   -5.4390   21.8660  -32.4140 C   0  0  0  0  0  0  0  0  0  0  0  0
   -4.5514   21.4083  -32.8752 H   0  0  0  0  0  0  0  0  0  0  0  0
   -7.0250   17.9500  -32.9070 C   0  0  0  0  0  0  0  0  0  0  0  0
   -8.3680   18.1640  -32.5590 O   0  0  0  0  0  0  0  0  0  0  0  0
   -8.8000   18.8680  -31.3990 C   0  0  0  0  0  0  0  0  0  0  0  0
   -8.4694   18.3292  -30.4988 H   0  0  0  0  0  0  0  0  0  0  0  0
   -8.3666   19.8790  -31.4011 H   0  0  0  0  0  0  0  0  0  0  0  0
   -9.8977   18.9396  -31.4011 H   0  0  0  0  0  0  0  0  0  0  0  0
   -6.4110   16.6920  -32.7560 C   0  0  0  0  0  0  0  0  0  0  0  0
   -6.9950   15.8429  -32.3712 H   0  0  0  0  0  0  0  0  0  0  0  0
   -4.6250   14.4650  -31.7660 C   0  0  0  0  0  0  0  0  0  0  0  0
   -5.2221   14.9029  -30.9525 H   0  0  0  0  0  0  0  0  0  0  0  0
   -4.0530   13.2030  -31.6060 C   0  0  0  0  0  0  0  0  0  0  0  0
   -4.1916   12.6450  -30.6683 H   0  0  0  0  0  0  0  0  0  0  0  0
  1  2  1  0
  2  3  2  0
  3  4  1  0
  4  5  1  0
  5  6  1  0
  5  7  1  0
  5  8  1  0
  8  9  1  1
  8 10  1  0
 10 11  1  0
 10 12  1  0
 10 13  1  0
  8 14  1  0
 14 15  2  0
 14 16  2  0
 14 17  1  0
 17 18  1  0
 17 19  1  0
 17 20  1  0
  4 21  2  0
 21 22  1  0
 22 23  2  0
 23 24  1  0
 23 25  1  0
 25 26  1  0
 25 27  2  0
 27 28  1  0
 28 29  1  0
 29 30  1  0
 30 31  1  0
 30 32  2  0
 32 33  1  0
 32 34  1  0
 34 35  1  0
 35 36  2  0
 36 37  1  0
 37 38  2  0
 37 39  1  0
 39 40  1  0
 39 41  1  0
 41 42  1  0
 41 43  1  0
 41 44  1  0
 44 45  1  0
 44 46  1  0
 35 47  1  0
 47 48  1  0
 27 49  1  0
 49 50  1  0
 50 51  1  0
 51 52  1  0
 51 53  1  0
 51 54  1  0
 49 55  2  0
 55 56  1  0
 21 57  1  0
 57 58  1  0
 57 59  2  0
 59 60  1  0
 59  2  1  0
 55 22  1  0
 47 29  2  0
 44 39  1  0
M  CHG  2   8   1  34  -1
M  END
>  <UniqueID>  (10) 
10

>  <SMILES>  (10) 
COc1cc(-c2cccnc2C[N@@H+](C)S(C)(=O)=O)ccc1Oc1cc[n-]/c(=N\C(=O)C2CC2)c1

>  <Energy>  (10) 
339.52799765638787

>  <Genealogy>  (10) 
COc1cc(-c2cccnc2C[NH+](C)S(C)(=O)=O)ccc1Oc1cc[n-]c(=NC(=O)C2CC2)c1 (protonated)
COc1cc(-c2cccnc2C[N@@H+](C)S(C)(=O)=O)ccc1Oc1cc[n-]c(=NC(=O)C2CC2)c1 (chirality)
COc1cc(-c2cccnc2C[N@@H+](C)S(C)(=O)=O)ccc1Oc1cc[n-]/c(=N\C(=O)C2CC2)c1 (cis-trans isomerization)
COc1cc(-c2cccnc2C[N@@H+](C)S(C)(=O)=O)ccc1Oc1cc[n-]/c(=N\C(=O)C2CC2)c1 (3D coordinates assigned)
COc1cc(-c2cccnc2C[N@@H+](C)S(C)(=O)=O)ccc1Oc1cc[n-]/c(=N\C(=O)C2CC2)c1 (nonaromatic ring conformer: 339.52799765638787 kcal/mol)

>  <smiles>  (10) 
COc1cc(-c2cccnc2CN(C)S(C)(=O)=O)ccc1Oc1cc[nH]c(=NC(=O)C2CC2)c1

>  <score_type>  (10) 
oracle

>  <origin>  (10) 
adgpu

>  <m_score__min__energy>  (10) 
-10.630000000000001

>  <m_primary>  (10) 
energy

$$$$
10:0
     RDKit          3D

 53 56  0  0  0  0  0  0  0  0999 V2000
   -0.4530   20.7060  -30.4830 C   0  0  0  0  0  0  0  0  0  0  0  0
   -1.4120   21.6090  -29.7670 C   0  0  0  0  0  0  0  0  0  0  0  0
   -1.7560   21.3570  -28.4330 C   0  0  0  0  0  0  0  0  0  0  0  0
   -2.6730   22.1800  -27.7740 C   0  0  0  0  0  0  0  0  0  0  0  0
   -3.2670   23.2610  -28.4430 C   0  0  0  0  0  0  0  0  0  0  0  0
   -4.1860   24.1870  -27.6940 C   0  0  0  0  0  0  0  0  0  0  0  0
   -2.9250   23.5200  -29.7860 C   0  0  0  0  0  0  0  0  0  0  0  0
   -3.4960   24.6520  -30.4640 N   0  0  0  0  0  0  0  0  0  0  0  0
   -4.8840   24.8240  -30.7930 C   0  0  0  0  0  0  0  0  0  0  0  0
   -5.3230   25.9960  -30.9340 O   0  0  0  0  0  0  0  0  0  0  0  0
   -5.7920   23.6710  -31.0350 C   0  0  0  0  0  0  0  0  0  0  0  0
   -7.1270   23.7160  -30.6010 C   0  0  0  0  0  0  0  0  0  0  0  0
   -7.9850   22.6390  -30.8430 C   0  0  0  0  0  0  0  0  0  0  0  0
   -7.5220   21.5100  -31.5220 C   0  0  0  0  0  0  0  0  0  0  0  0
   -6.1980   21.4510  -31.9800 C   0  0  0  0  0  0  0  0  0  0  0  0
   -5.5990   19.9670  -32.7470 S   0  0  0  0  0  0  0  0  0  0  0  0
   -6.2920   18.7970  -32.1060 O   0  0  0  0  0  0  0  0  0  0  0  0
   -5.9790   19.9980  -34.2010 O   0  0  0  0  0  0  0  0  0  0  0  0
   -3.8630   19.7410  -32.6680 N   0  0  0  0  0  0  0  0  0  0  0  0
   -3.4790   18.3870  -33.0950 C   0  0  0  0  0  0  0  0  0  0  0  0
   -2.0140   18.1450  -32.7480 C   0  0  0  0  0  0  0  0  0  0  0  0
   -1.1460   19.2310  -33.3220 C   0  0  0  0  0  0  0  0  0  0  0  0
    0.2190   18.9900  -33.5380 C   0  0  0  0  0  0  0  0  0  0  0  0
    1.0420   19.9970  -34.0470 C   0  0  0  0  0  0  0  0  0  0  0  0
    0.5110   21.2570  -34.3320 C   0  0  0  0  0  0  0  0  0  0  0  0
   -0.8430   21.5150  -34.1020 C   0  0  0  0  0  0  0  0  0  0  0  0
   -1.6790   20.5130  -33.5860 C   0  0  0  0  0  0  0  0  0  0  0  0
   -3.1500   20.8060  -33.4030 C   0  0  0  0  0  0  0  0  0  0  0  0
   -5.3470   22.5380  -31.7370 C   0  0  0  0  0  0  0  0  0  0  0  0
   -2.0160   22.6760  -30.4460 C   0  0  0  0  0  0  0  0  0  0  0  0
    0.1421   20.1456  -29.7469 H   0  0  0  0  0  0  0  0  0  0  0  0
   -1.0145   20.0010  -31.1137 H   0  0  0  0  0  0  0  0  0  0  0  0
    0.2170   21.3088  -31.1137 H   0  0  0  0  0  0  0  0  0  0  0  0
   -1.3023   20.5074  -27.9016 H   0  0  0  0  0  0  0  0  0  0  0  0
   -2.9310   21.9791  -26.7237 H   0  0  0  0  0  0  0  0  0  0  0  0
   -4.0463   24.0462  -26.6120 H   0  0  0  0  0  0  0  0  0  0  0  0
   -3.9544   25.2286  -27.9611 H   0  0  0  0  0  0  0  0  0  0  0  0
   -5.2294   23.9633  -27.9611 H   0  0  0  0  0  0  0  0  0  0  0  0
   -7.4994   24.6032  -30.0679 H   0  0  0  0  0  0  0  0  0  0  0  0
   -9.0284   22.6811  -30.4973 H   0  0  0  0  0  0  0  0  0  0  0  0
   -8.1999   20.6619  -31.6986 H   0  0  0  0  0  0  0  0  0  0  0  0
   -4.1063   17.6467  -32.5769 H   0  0  0  0  0  0  0  0  0  0  0  0
   -3.6211   18.2893  -34.1814 H   0  0  0  0  0  0  0  0  0  0  0  0
   -1.8994   18.1313  -31.6541 H   0  0  0  0  0  0  0  0  0  0  0  0
   -1.7035   17.1804  -33.1760 H   0  0  0  0  0  0  0  0  0  0  0  0
    0.6435   18.0023  -33.3051 H   0  0  0  0  0  0  0  0  0  0  0  0
    2.1093   19.7977  -34.2236 H   0  0  0  0  0  0  0  0  0  0  0  0
    1.1595   22.0473  -34.7380 H   0  0  0  0  0  0  0  0  0  0  0  0
   -1.2560   22.5095  -34.3268 H   0  0  0  0  0  0  0  0  0  0  0  0
   -3.2531   21.7475  -32.8436 H   0  0  0  0  0  0  0  0  0  0  0  0
   -3.5996   20.8726  -34.4047 H   0  0  0  0  0  0  0  0  0  0  0  0
   -4.3103   22.5034  -32.1031 H   0  0  0  0  0  0  0  0  0  0  0  0
   -1.7764   22.8542  -31.5047 H   0  0  0  0  0  0  0  0  0  0  0  0
  1  2  1  0
  2  3  2  0
  3  4  1  0
  4  5  2  0
  5  6  1  0
  5  7  1  0
  7  8  1  0
  8  9  1  0
  9 10  2  0
  9 11  1  0
 11 12  2  0
 12 13  1  0
 13 14  2  0
 14 15  1  0
 15 16  1  0
 16 17  2  0
 16 18  2  0
 16 19  1  0
 19 20  1  0
 20 21  1  0
 21 22  1  0
 22 23  2  0
 23 24  1  0
 24 25  2  0
 25 26  1  0
 26 27  2  0
 27 28  1  0
 15 29  2  0
  7 30  2  0
 30  2  1  0
 29 11  1  0
 28 19  1  0
 27 22  1  0
  1 31  1  0
  1 32  1  0
  1 33  1  0
  3 34  1  0
  4 35  1  0
  6 36  1  0
  6 37  1  0
  6 38  1  0
 12 39  1  0
 13 40  1  0
 14 41  1  0
 20 42  1  0
 20 43  1  0
 21 44  1  0
 21 45  1  0
 23 46  1  0
 24 47  1  0
 25 48  1  0
 26 49  1  0
 28 50  1  0
 28 51  1  0
 29 52  1  0
 30 53  1  0
M  CHG  1   8  -1
M  END
>  <UniqueID>  (11) 
11

>  <SMILES>  (11) 
Cc1ccc(C)c([N-]C(=O)c2cccc(S(=O)(=O)N3CCc4ccccc4C3)c2)c1

>  <Energy>  (11) 
64.14396804890093

>  <Genealogy>  (11) 
Cc1ccc(C)c([N-]C(=O)c2cccc(S(=O)(=O)N3CCc4ccccc4C3)c2)c1 (protonated)
Cc1ccc(C)c([N-]C(=O)c2cccc(S(=O)(=O)N3CCc4ccccc4C3)c2)c1 (3D coordinates assigned)
Cc1ccc(C)c([N-]C(=O)c2cccc(S(=O)(=O)N3CCc4ccccc4C3)c2)c1 (nonaromatic ring conformer: 64.14396804890093 kcal/mol)

>  <smiles>  (11) 
Cc1ccc(C)c(NC(=O)c2cccc(S(=O)(=O)N3CCc4ccccc4C3)c2)c1

>  <score_type>  (11) 
oracle

>  <origin>  (11) 
adgpu

>  <m_score__min__energy>  (11) 
-10.960000000000001

>  <m_primary>  (11) 
energy

$$$$
11:0
     RDKit          3D

 66 70  0  0  0  0  0  0  0  0999 V2000
   -3.6590   23.6740  -29.7390 C   0  0  0  0  0  0  0  0  0  0  0  0
   -3.0850   24.4520  -28.5480 C   0  0  1  0  0  0  0  0  0  0  0  0
   -2.8480   23.5110  -27.3420 C   0  0  0  0  0  0  0  0  0  0  0  0
   -1.6930   23.9110  -26.5070 N   0  0  0  0  0  0  0  0  0  0  0  0
   -0.4980   23.0420  -26.6050 C   0  0  0  0  0  0  0  0  0  0  0  0
   -0.5040   22.1350  -27.8130 C   0  0  0  0  0  0  0  0  0  0  0  0
   -0.3090   22.6650  -29.0970 C   0  0  0  0  0  0  0  0  0  0  0  0
   -0.3630   21.8360  -30.2200 C   0  0  0  0  0  0  0  0  0  0  0  0
   -0.5940   20.4570  -30.0810 C   0  0  0  0  0  0  0  0  0  0  0  0
   -0.6850   19.5970  -31.2880 C   0  0  0  0  0  0  0  0  0  0  0  0
    0.4530   19.0140  -31.8680 C   0  0  0  0  0  0  0  0  0  0  0  0
    0.3090   18.2020  -32.9930 C   0  0  0  0  0  0  0  0  0  0  0  0
   -0.9550   17.9800  -33.5380 C   0  0  0  0  0  0  0  0  0  0  0  0
   -2.0780   18.5890  -32.9550 C   0  0  0  0  0  0  0  0  0  0  0  0
   -3.4500   18.3800  -33.4880 C   0  0  0  0  0  0  0  0  0  0  0  0
   -3.6620   17.4570  -34.5270 C   0  0  0  0  0  0  0  0  0  0  0  0
   -4.9410   17.2500  -35.0410 C   0  0  0  0  0  0  0  0  0  0  0  0
   -6.0290   17.9540  -34.5260 C   0  0  0  0  0  0  0  0  0  0  0  0
   -5.8500   18.8730  -33.4780 C   0  0  0  0  0  0  0  0  0  0  0  0
   -7.0090   19.6230  -32.9260 C   0  0  0  0  0  0  0  0  0  0  0  0
   -8.2160   18.9620  -32.6330 C   0  0  0  0  0  0  0  0  0  0  0  0
   -9.3060   19.6730  -32.1260 C   0  0  0  0  0  0  0  0  0  0  0  0
   -9.2060   21.0480  -31.9010 C   0  0  0  0  0  0  0  0  0  0  0  0
   -8.0070   21.7220  -32.1710 C   0  0  0  0  0  0  0  0  0  0  0  0
   -7.9120   23.2080  -31.9650 C   0  0  0  0  0  0  0  0  0  0  0  0
   -6.8770   23.7650  -32.8310 N   0  0  0  0  0  0  0  0  0  0  0  0
   -6.9170   21.0080  -32.6950 C   0  0  0  0  0  0  0  0  0  0  0  0
   -4.5570   19.0750  -32.9600 C   0  0  0  0  0  0  0  0  0  0  0  0
   -1.9050   19.3700  -31.8520 N   0  0  0  0  0  0  0  0  0  0  0  0
   -0.7680   19.9260  -28.7900 C   0  0  0  0  0  0  0  0  0  0  0  0
   -0.7150   20.7560  -27.6680 C   0  0  0  0  0  0  0  0  0  0  0  0
   -1.4250   25.3620  -26.4680 C   0  0  0  0  0  0  0  0  0  0  0  0
   -1.3910   26.0200  -27.8660 C   0  0  0  0  0  0  0  0  0  0  0  0
   -1.8300   25.1080  -28.9280 N   0  0  0  0  0  0  0  0  0  0  0  0
   -4.2742   22.8401  -29.3700 H   0  0  0  0  0  0  0  0  0  0  0  0
   -4.2799   24.3452  -30.3505 H   0  0  0  0  0  0  0  0  0  0  0  0
   -2.8345   23.2788  -30.3505 H   0  0  0  0  0  0  0  0  0  0  0  0
   -3.8152   25.2199  -28.2530 H   0  0  0  0  0  0  0  0  0  0  0  0
   -3.7510   23.5139  -26.7138 H   0  0  0  0  0  0  0  0  0  0  0  0
   -2.6282   22.5117  -27.7460 H   0  0  0  0  0  0  0  0  0  0  0  0
    0.3943   23.6832  -26.6566 H   0  0  0  0  0  0  0  0  0  0  0  0
   -0.4983   22.3937  -25.7163 H   0  0  0  0  0  0  0  0  0  0  0  0
   -0.1123   23.7402  -29.2204 H   0  0  0  0  0  0  0  0  0  0  0  0
   -0.2234   22.2668  -31.2225 H   0  0  0  0  0  0  0  0  0  0  0  0
    1.4494   19.1960  -31.4390 H   0  0  0  0  0  0  0  0  0  0  0  0
    1.1940   17.7361  -33.4509 H   0  0  0  0  0  0  0  0  0  0  0  0
   -1.0718   17.3319  -34.4191 H   0  0  0  0  0  0  0  0  0  0  0  0
   -2.8114   16.8934  -34.9378 H   0  0  0  0  0  0  0  0  0  0  0  0
   -5.0928   16.5279  -35.8568 H   0  0  0  0  0  0  0  0  0  0  0  0
   -7.0336   17.7890  -34.9427 H   0  0  0  0  0  0  0  0  0  0  0  0
   -8.3017   17.8788  -32.8043 H   0  0  0  0  0  0  0  0  0  0  0  0
  -10.2467   19.1483  -31.9030 H   0  0  0  0  0  0  0  0  0  0  0  0
  -10.0712   21.6038  -31.5106 H   0  0  0  0  0  0  0  0  0  0  0  0
   -8.8792   23.6723  -32.2076 H   0  0  0  0  0  0  0  0  0  0  0  0
   -7.6541   23.4121  -30.9153 H   0  0  0  0  0  0  0  0  0  0  0  0
   -6.0990   23.0690  -32.8850 H   0  0  0  0  0  0  0  0  0  0  0  0
   -7.2690   23.8430  -33.7990 H   0  0  0  0  0  0  0  0  0  0  0  0
   -5.9811   21.5373  -32.9274 H   0  0  0  0  0  0  0  0  0  0  0  0
   -4.4083   19.7843  -32.1325 H   0  0  0  0  0  0  0  0  0  0  0  0
   -0.9473   18.8481  -28.6631 H   0  0  0  0  0  0  0  0  0  0  0  0
   -0.8396   20.3252  -26.6636 H   0  0  0  0  0  0  0  0  0  0  0  0
   -2.2144   25.8461  -25.8743 H   0  0  0  0  0  0  0  0  0  0  0  0
   -0.4278   25.4952  -26.0232 H   0  0  0  0  0  0  0  0  0  0  0  0
   -2.0539   26.8978  -27.8587 H   0  0  0  0  0  0  0  0  0  0  0  0
   -0.3488   26.3013  -28.0773 H   0  0  0  0  0  0  0  0  0  0  0  0
   -1.9930   25.6860  -29.7850 H   0  0  0  0  0  0  0  0  0  0  0  0
  1  2  1  0
  2  3  1  0
  3  4  1  0
  4  5  1  0
  5  6  1  0
  6  7  2  0
  7  8  1  0
  8  9  2  0
  9 10  1  0
 10 11  2  0
 11 12  1  0
 12 13  2  0
 13 14  1  0
 14 15  1  0
 15 16  2  0
 16 17  1  0
 17 18  2  0
 18 19  1  0
 19 20  1  0
 20 21  2  0
 21 22  1  0
 22 23  2  0
 23 24  1  0
 24 25  1  0
 25 26  1  0
 24 27  2  0
 19 28  2  0
 14 29  2  0
  9 30  1  0
 30 31  2  0
  4 32  1  0
 32 33  1  0
 33 34  1  0
 34  2  1  0
 31  6  1  0
 29 10  1  0
 28 15  1  0
 27 20  1  0
  1 35  1  0
  1 36  1  0
  1 37  1  0
  2 38  1  1
  3 39  1  0
  3 40  1  0
  5 41  1  0
  5 42  1  0
  7 43  1  0
  8 44  1  0
 11 45  1  0
 12 46  1  0
 13 47  1  0
 16 48  1  0
 17 49  1  0
 18 50  1  0
 21 51  1  0
 22 52  1  0
 23 53  1  0
 25 54  1  0
 25 55  1  0
 26 56  1  0
 26 57  1  0
 27 58  1  0
 28 59  1  0
 30 60  1  0
 31 61  1  0
 32 62  1  0
 32 63  1  0
 33 64  1  0
 33 65  1  0
 34 66  1  0
M  END
>  <UniqueID>  (12) 
12

>  <SMILES>  (12) 
C[C@H]1CN(Cc2ccc(-c3cccc(-c4cccc(-c5cccc(CN)c5)c4)n3)cc2)CCN1

>  <Energy>  (12) 
93.55153326959483

>  <Genealogy>  (12) 
C[C@H]1CN(Cc2ccc(-c3cccc(-c4cccc(-c5cccc(CN)c5)c4)n3)cc2)CCN1 (chirality)
C[C@H]1CN(Cc2ccc(-c3cccc(-c4cccc(-c5cccc(CN)c5)c4)n3)cc2)CCN1 (3D coordinates assigned)
C[C@H]1CN(Cc2ccc(-c3cccc(-c4cccc(-c5cccc(CN)c5)c4)n3)cc2)CCN1 (nonaromatic ring conformer: 93.55153326959483 kcal/mol)

>  <smiles>  (12) 
CC1CN(Cc2ccc(-c3cccc(-c4cccc(-c5cccc(CN)c5)c4)n3)cc2)CCN1

>  <score_type>  (12) 
oracle

>  <origin>  (12) 
adgpu

>  <m_score__min__energy>  (12) 
-12.4

>  <m_primary>  (12) 
energy

$$$$
12:0
     RDKit          3D

 30 32  0  0  0  0  0  0  0  0999 V2000
    0.9716   28.6361  -25.7932 H   0  0  0  0  0  0  0  0  0  0  0  0
    0.2310   27.8230  -25.7730 C   0  0  0  0  0  0  0  0  0  0  0  0
   -0.2020   27.2430  -26.9700 C   0  0  0  0  0  0  0  0  0  0  0  0
    0.2010   27.6027  -27.9282 H   0  0  0  0  0  0  0  0  0  0  0  0
   -1.1500   26.2020  -26.9570 C   0  0  0  0  0  0  0  0  0  0  0  0
   -1.6110   25.5850  -28.2230 C   0  0  0  0  0  0  0  0  0  0  0  0
   -1.2100   26.0490  -29.3270 O   0  0  0  0  0  0  0  0  0  0  0  0
   -2.5110   24.4650  -28.1890 N   0  0  0  0  0  0  0  0  0  0  0  0
   -3.4070   24.1700  -29.0840 C   0  0  0  0  0  0  0  0  0  0  0  0
   -3.6330   24.8870  -30.2070 N   0  0  0  0  0  0  0  0  0  0  0  0
   -4.6050   24.3750  -30.9610 N   0  0  0  0  0  0  0  0  0  0  0  0
   -5.1590   23.2510  -30.4470 C   0  0  0  0  0  0  0  0  0  0  0  0
   -6.2550   22.5050  -31.1070 C   0  0  0  0  0  0  0  0  0  0  0  0
   -5.9860   21.3760  -31.9040 C   0  0  0  0  0  0  0  0  0  0  0  0
   -4.9480   21.0389  -32.0418 H   0  0  0  0  0  0  0  0  0  0  0  0
   -7.0310   20.6800  -32.5220 C   0  0  0  0  0  0  0  0  0  0  0  0
   -6.8116   19.7991  -33.1432 H   0  0  0  0  0  0  0  0  0  0  0  0
   -8.3520   21.1010  -32.3520 C   0  0  0  0  0  0  0  0  0  0  0  0
   -9.3610   20.4240  -32.9520 F   0  0  0  0  0  0  0  0  0  0  0  0
   -8.6310   22.2200  -31.5640 C   0  0  0  0  0  0  0  0  0  0  0  0
   -9.6712   22.5521  -31.4307 H   0  0  0  0  0  0  0  0  0  0  0  0
   -7.5900   22.9190  -30.9440 C   0  0  0  0  0  0  0  0  0  0  0  0
   -7.8167   23.7991  -30.3243 H   0  0  0  0  0  0  0  0  0  0  0  0
   -4.4270   22.8400  -28.9780 S   0  0  0  0  0  0  0  0  0  0  0  0
   -1.6520   25.7560  -25.7190 C   0  0  0  0  0  0  0  0  0  0  0  0
   -2.3925   24.9431  -25.6911 H   0  0  0  0  0  0  0  0  0  0  0  0
   -1.2160   26.3390  -24.5250 C   0  0  0  0  0  0  0  0  0  0  0  0
   -1.6145   25.9837  -23.5632 H   0  0  0  0  0  0  0  0  0  0  0  0
   -0.2760   27.3710  -24.5510 C   0  0  0  0  0  0  0  0  0  0  0  0
    0.1460   27.9350  -23.3930 F   0  0  0  0  0  0  0  0  0  0  0  0
  1  2  1  0
  2  3  2  0
  3  4  1  0
  3  5  1  0
  5  6  1  0
  6  7  2  0
  6  8  1  0
  8  9  2  0
  9 10  1  0
 10 11  1  0
 11 12  2  0
 12 13  1  0
 13 14  2  0
 14 15  1  0
 14 16  1  0
 16 17  1  0
 16 18  2  0
 18 19  1  0
 18 20  1  0
 20 21  1  0
 20 22  2  0
 22 23  1  0
 12 24  1  0
  5 25  2  0
 25 26  1  0
 25 27  1  0
 27 28  1  0
 27 29  2  0
 29 30  1  0
 29  2  1  0
 24  9  1  0
 22 13  1  0
M  CHG  1  10  -1
M  END
>  <UniqueID>  (13) 
13

>  <SMILES>  (13) 
O=C(/N=c1\[n-]nc(-c2ccc(F)cc2)s1)c1ccc(F)cc1

>  <Energy>  (13) 
71.34268937346545

>  <Genealogy>  (13) 
O=C(N=c1[n-]nc(-c2ccc(F)cc2)s1)c1ccc(F)cc1 (protonated)
O=C(/N=c1\[n-]nc(-c2ccc(F)cc2)s1)c1ccc(F)cc1 (cis-trans isomerization)
O=C(/N=c1\[n-]nc(-c2ccc(F)cc2)s1)c1ccc(F)cc1 (3D coordinates assigned)
O=C(/N=c1\[n-]nc(-c2ccc(F)cc2)s1)c1ccc(F)cc1 (optimized conformer: 71.34268937346545 kcal/mol)

>  <smiles>  (13) 
O=C(N=c1[nH]nc(-c2ccc(F)cc2)s1)c1ccc(F)cc1

>  <score_type>  (13) 
oracle

>  <origin>  (13) 
adgpu

>  <m_score__min__energy>  (13) 
-9.4499999999999993

>  <m_primary>  (13) 
energy

$$$$
13:0
     RDKit          3D

 53 56  0  0  0  0  0  0  0  0999 V2000
   -3.9050   25.6460  -30.4650 N   0  0  0  0  0  0  0  0  0  0  0  0
   -5.2430   25.1520  -30.4510 C   0  0  0  0  0  0  0  0  0  0  0  0
   -6.1740   25.9150  -30.0760 O   0  0  0  0  0  0  0  0  0  0  0  0
   -5.5380   23.7620  -30.8710 C   0  0  0  0  0  0  0  0  0  0  0  0
   -4.6020   22.7370  -30.6530 C   0  0  0  0  0  0  0  0  0  0  0  0
   -4.8790   21.4250  -31.0490 C   0  0  0  0  0  0  0  0  0  0  0  0
   -6.0980   21.1090  -31.6730 C   0  0  0  0  0  0  0  0  0  0  0  0
   -6.3920   19.7160  -32.0960 C   0  0  0  0  0  0  0  0  0  0  0  0
   -7.6970   19.2000  -31.9960 C   0  0  0  0  0  0  0  0  0  0  0  0
   -7.9730   17.8910  -32.3950 C   0  0  0  0  0  0  0  0  0  0  0  0
   -6.9520   17.0780  -32.8890 C   0  0  0  0  0  0  0  0  0  0  0  0
   -5.6420   17.5700  -32.9940 C   0  0  0  0  0  0  0  0  0  0  0  0
   -4.5640   16.7070  -33.5260 C   0  0  0  0  0  0  0  0  0  0  0  0
   -4.6970   16.1040  -34.7880 C   0  0  0  0  0  0  0  0  0  0  0  0
   -3.6850   15.2810  -35.2850 C   0  0  0  0  0  0  0  0  0  0  0  0
   -2.5360   15.0470  -34.5270 C   0  0  0  0  0  0  0  0  0  0  0  0
   -2.3930   15.6240  -33.2600 C   0  0  0  0  0  0  0  0  0  0  0  0
   -1.1690   15.4090  -32.5430 N   0  0  0  0  0  0  0  0  0  0  0  0
    0.1630   15.7820  -32.9200 C   0  0  0  0  0  0  0  0  0  0  0  0
    1.0500   14.8870  -32.9340 O   0  0  0  0  0  0  0  0  0  0  0  0
    0.5790   17.2200  -33.1190 C   0  0  0  0  0  0  0  0  0  0  0  0
   -0.2850   17.9480  -34.1640 C   0  0  0  0  0  0  0  0  0  0  0  0
   -0.9090   19.2050  -33.6160 C   0  0  0  0  0  0  0  0  0  0  0  0
   -2.2070   19.5820  -33.9910 C   0  0  0  0  0  0  0  0  0  0  0  0
   -2.7680   20.7570  -33.4870 C   0  0  0  0  0  0  0  0  0  0  0  0
   -2.0190   21.5550  -32.6210 C   0  0  0  0  0  0  0  0  0  0  0  0
   -0.7620   21.1810  -32.2660 N   0  0  0  0  0  0  0  0  0  0  0  0
   -0.1960   20.0360  -32.7360 C   0  0  0  0  0  0  0  0  0  0  0  0
   -3.3970   16.4790  -32.7750 C   0  0  0  0  0  0  0  0  0  0  0  0
   -5.3700   18.8910  -32.6010 C   0  0  0  0  0  0  0  0  0  0  0  0
   -7.0340   22.1340  -31.8910 C   0  0  0  0  0  0  0  0  0  0  0  0
   -6.7580   23.4460  -31.4940 C   0  0  0  0  0  0  0  0  0  0  0  0
   -3.4880   26.0410  -31.3370 H   0  0  0  0  0  0  0  0  0  0  0  0
   -3.6430   22.9688  -30.1666 H   0  0  0  0  0  0  0  0  0  0  0  0
   -4.1364   20.6333  -30.8706 H   0  0  0  0  0  0  0  0  0  0  0  0
   -8.5055   19.8324  -31.6006 H   0  0  0  0  0  0  0  0  0  0  0  0
   -8.9981   17.4993  -32.3198 H   0  0  0  0  0  0  0  0  0  0  0  0
   -7.1753   16.0461  -33.1977 H   0  0  0  0  0  0  0  0  0  0  0  0
   -5.6025   16.2812  -35.3869 H   0  0  0  0  0  0  0  0  0  0  0  0
   -3.7929   14.8158  -36.2759 H   0  0  0  0  0  0  0  0  0  0  0  0
   -1.7380   14.4050  -34.9283 H   0  0  0  0  0  0  0  0  0  0  0  0
    0.4897   17.7485  -32.1584 H   0  0  0  0  0  0  0  0  0  0  0  0
    1.6156   17.2186  -33.4871 H   0  0  0  0  0  0  0  0  0  0  0  0
    0.3483   18.2133  -35.0234 H   0  0  0  0  0  0  0  0  0  0  0  0
   -1.0992   17.2694  -34.4585 H   0  0  0  0  0  0  0  0  0  0  0  0
   -2.7838   18.9510  -34.6832 H   0  0  0  0  0  0  0  0  0  0  0  0
   -3.7897   21.0507  -33.7695 H   0  0  0  0  0  0  0  0  0  0  0  0
   -2.4469   22.4879  -32.2254 H   0  0  0  0  0  0  0  0  0  0  0  0
    0.8228   19.7605  -32.4259 H   0  0  0  0  0  0  0  0  0  0  0  0
   -3.2693   16.9736  -31.8008 H   0  0  0  0  0  0  0  0  0  0  0  0
   -4.3467   19.2849  -32.6890 H   0  0  0  0  0  0  0  0  0  0  0  0
   -7.9925   21.9022  -32.3784 H   0  0  0  0  0  0  0  0  0  0  0  0
   -7.5015   24.2373  -31.6706 H   0  0  0  0  0  0  0  0  0  0  0  0
  1  2  1  0
  2  3  2  0
  2  4  1  0
  4  5  2  0
  5  6  1  0
  6  7  2  0
  7  8  1  0
  8  9  2  0
  9 10  1  0
 10 11  2  0
 11 12  1  0
 12 13  1  0
 13 14  2  0
 14 15  1  0
 15 16  2  0
 16 17  1  0
 17 18  1  0
 18 19  1  0
 19 20  2  0
 19 21  1  0
 21 22  1  0
 22 23  1  0
 23 24  2  0
 24 25  1  0
 25 26  2  0
 26 27  1  0
 27 28  2  0
 17 29  2  0
 12 30  2  0
  7 31  1  0
 31 32  2  0
 32  4  1  0
 30  8  1  0
 29 13  1  0
 28 23  1  0
  1 33  1  0
  5 34  1  0
  6 35  1  0
  9 36  1  0
 10 37  1  0
 11 38  1  0
 14 39  1  0
 15 40  1  0
 16 41  1  0
 21 42  1  0
 21 43  1  0
 22 44  1  0
 22 45  1  0
 24 46  1  0
 25 47  1  0
 26 48  1  0
 28 49  1  0
 29 50  1  0
 30 51  1  0
 31 52  1  0
 32 53  1  0
M  CHG  2   1  -1  18  -1
M  END
>  <UniqueID>  (14) 
14

>  <SMILES>  (14) 
[NH-]C(=O)c1ccc(-c2cccc(-c3cccc([N-]C(=O)CCc4cccnc4)c3)c2)cc1

>  <Energy>  (14) 
69.53821461408066

>  <Genealogy>  (14) 
[NH-]C(=O)c1ccc(-c2cccc(-c3cccc([N-]C(=O)CCc4cccnc4)c3)c2)cc1 (protonated)
[NH-]C(=O)c1ccc(-c2cccc(-c3cccc([N-]C(=O)CCc4cccnc4)c3)c2)cc1 (3D coordinates assigned)
[NH-]C(=O)c1ccc(-c2cccc(-c3cccc([N-]C(=O)CCc4cccnc4)c3)c2)cc1 (optimized conformer: 69.53821461408066 kcal/mol)

>  <smiles>  (14) 
NC(=O)c1ccc(-c2cccc(-c3cccc(NC(=O)CCc4cccnc4)c3)c2)cc1

>  <score_type>  (14) 
oracle

>  <origin>  (14) 
adgpu

>  <m_score__min__energy>  (14) 
-11.619999999999999

>  <m_primary>  (14) 
energy

$$$$
14:0
     RDKit          3D

 63 67  0  0  0  0  0  0  0  0999 V2000
   -8.4000   20.7480  -31.2960 C   0  0  0  0  0  0  0  0  0  0  0  0
   -8.7160   19.1660  -32.0480 S   0  0  0  0  0  0  0  0  0  0  0  0
   -9.8240   19.3230  -33.0540 O   0  0  0  0  0  0  0  0  0  0  0  0
   -9.1450   18.1820  -30.9980 O   0  0  0  0  0  0  0  0  0  0  0  0
   -7.2540   18.5810  -32.8400 C   0  0  0  0  0  0  0  0  0  0  0  0
   -6.6480   19.3560  -33.8360 C   0  0  0  0  0  0  0  0  0  0  0  0
   -5.4940   18.9010  -34.4780 C   0  0  0  0  0  0  0  0  0  0  0  0
   -4.9200   17.6680  -34.1250 C   0  0  0  0  0  0  0  0  0  0  0  0
   -3.6750   17.2400  -34.8000 C   0  0  0  0  0  0  0  0  0  0  0  0
   -3.7470   16.4610  -35.7880 O   0  0  0  0  0  0  0  0  0  0  0  0
   -2.3830   17.6680  -34.3500 N   0  0  0  0  0  0  0  0  0  0  0  0
   -2.0650   18.9780  -33.8550 C   0  0  0  0  0  0  0  0  0  0  0  0
   -2.8770   19.6090  -32.8950 C   0  0  0  0  0  0  0  0  0  0  0  0
   -2.5600   20.8920  -32.4110 C   0  0  0  0  0  0  0  0  0  0  0  0
   -3.4370   21.5480  -31.4090 C   0  0  0  0  0  0  0  0  0  0  0  0
   -4.0550   20.8420  -30.5640 O   0  0  0  0  0  0  0  0  0  0  0  0
   -3.5620   22.9810  -31.3620 N   0  0  0  0  0  0  0  0  0  0  0  0
   -4.7150   23.6640  -30.8410 C   0  0  0  0  0  0  0  0  0  0  0  0
   -5.9670   23.0300  -30.8770 C   0  0  0  0  0  0  0  0  0  0  0  0
   -7.0960   23.6630  -30.3490 C   0  0  0  0  0  0  0  0  0  0  0  0
   -6.9840   24.9280  -29.7690 C   0  0  0  0  0  0  0  0  0  0  0  0
   -5.7400   25.5600  -29.7130 C   0  0  0  0  0  0  0  0  0  0  0  0
   -4.6070   24.9320  -30.2400 C   0  0  0  0  0  0  0  0  0  0  0  0
   -1.4210   21.5510  -32.9140 C   0  0  0  0  0  0  0  0  0  0  0  0
   -0.6180   20.9350  -33.8790 C   0  0  0  0  0  0  0  0  0  0  0  0
    0.4910   21.5590  -34.3540 N   0  0  0  0  0  0  0  0  0  0  0  0
    1.2860   20.9730  -35.2880 C   0  0  0  0  0  0  0  0  0  0  0  0
    0.9570   19.7000  -35.7840 C   0  0  0  0  0  0  0  0  0  0  0  0
    1.7880   19.0270  -36.7520 N   0  0  0  0  0  0  0  0  0  0  0  0
    1.2550   17.9860  -37.6410 C   0  0  0  0  0  0  0  0  0  0  0  0
    1.8100   18.1560  -39.0700 C   0  0  0  0  0  0  0  0  0  0  0  0
    3.1430   18.7890  -39.1290 N   0  0  0  0  0  0  0  0  0  0  0  0
    3.9270   18.5700  -37.9070 C   0  0  0  0  0  0  0  0  0  0  0  0
    3.2400   19.2340  -36.7050 C   0  0  0  0  0  0  0  0  0  0  0  0
   -0.1460   19.0720  -35.2920 N   0  0  0  0  0  0  0  0  0  0  0  0
   -0.9460   19.6530  -34.3580 C   0  0  0  0  0  0  0  0  0  0  0  0
   -5.5420   16.8770  -33.1340 C   0  0  0  0  0  0  0  0  0  0  0  0
   -4.9620   15.2650  -32.7210 Cl  0  0  0  0  0  0  0  0  0  0  0  0
   -6.7000   17.3400  -32.4970 C   0  0  0  0  0  0  0  0  0  0  0  0
   -8.4207   20.6442  -30.2011 H   0  0  0  0  0  0  0  0  0  0  0  0
   -7.4112   21.1128  -31.6111 H   0  0  0  0  0  0  0  0  0  0  0  0
   -9.1727   21.4647  -31.6111 H   0  0  0  0  0  0  0  0  0  0  0  0
   -7.0825   20.3275  -34.1142 H   0  0  0  0  0  0  0  0  0  0  0  0
   -5.0309   19.5128  -35.2662 H   0  0  0  0  0  0  0  0  0  0  0  0
   -3.7719   19.0926  -32.5175 H   0  0  0  0  0  0  0  0  0  0  0  0
   -2.7380   23.5570  -31.6470 H   0  0  0  0  0  0  0  0  0  0  0  0
   -6.0602   22.0290  -31.3234 H   0  0  0  0  0  0  0  0  0  0  0  0
   -8.0750   23.1632  -30.3906 H   0  0  0  0  0  0  0  0  0  0  0  0
   -7.8741   25.4260  -29.3569 H   0  0  0  0  0  0  0  0  0  0  0  0
   -5.6510   26.5551  -29.2528 H   0  0  0  0  0  0  0  0  0  0  0  0
   -3.6281   25.4308  -30.1846 H   0  0  0  0  0  0  0  0  0  0  0  0
   -1.1621   22.5548  -32.5460 H   0  0  0  0  0  0  0  0  0  0  0  0
    2.1834   21.4932  -35.6541 H   0  0  0  0  0  0  0  0  0  0  0  0
    1.5458   16.9977  -37.2554 H   0  0  0  0  0  0  0  0  0  0  0  0
    0.1590   18.0744  -37.6734 H   0  0  0  0  0  0  0  0  0  0  0  0
    1.8794   17.1611  -39.5340 H   0  0  0  0  0  0  0  0  0  0  0  0
    1.1176   18.8257  -39.6011 H   0  0  0  0  0  0  0  0  0  0  0  0
    3.0210   19.8220  -39.2640 H   0  0  0  0  0  0  0  0  0  0  0  0
    4.0162   17.4893  -37.7222 H   0  0  0  0  0  0  0  0  0  0  0  0
    4.9247   19.0142  -38.0384 H   0  0  0  0  0  0  0  0  0  0  0  0
    3.6363   18.7967  -35.7768 H   0  0  0  0  0  0  0  0  0  0  0  0
    3.4423   20.3148  -36.7373 H   0  0  0  0  0  0  0  0  0  0  0  0
   -7.1788   16.7247  -31.7210 H   0  0  0  0  0  0  0  0  0  0  0  0
  1  2  1  0
  2  3  2  0
  2  4  2  0
  2  5  1  0
  5  6  2  0
  6  7  1  0
  7  8  2  0
  8  9  1  0
  9 10  2  0
  9 11  1  0
 11 12  1  0
 12 13  2  0
 13 14  1  0
 14 15  1  0
 15 16  2  0
 15 17  1  0
 17 18  1  0
 18 19  2  0
 19 20  1  0
 20 21  2  0
 21 22  1  0
 22 23  2  0
 14 24  2  0
 24 25  1  0
 25 26  2  0
 26 27  1  0
 27 28  2  0
 28 29  1  0
 29 30  1  0
 30 31  1  0
 31 32  1  0
 32 33  1  0
 33 34  1  0
 28 35  1  0
 35 36  2  0
  8 37  1  0
 37 38  1  0
 37 39  2  0
 39  5  1  0
 36 12  1  0
 23 18  1  0
 36 25  1  0
 34 29  1  0
  1 40  1  0
  1 41  1  0
  1 42  1  0
  6 43  1  0
  7 44  1  0
 13 45  1  0
 17 46  1  0
 19 47  1  0
 20 48  1  0
 21 49  1  0
 22 50  1  0
 23 51  1  0
 24 52  1  0
 27 53  1  0
 30 54  1  0
 30 55  1  0
 31 56  1  0
 31 57  1  0
 32 58  1  0
 33 59  1  0
 33 60  1  0
 34 61  1  0
 34 62  1  0
 39 63  1  0
M  CHG  1  11  -1
M  END
>  <UniqueID>  (15) 
15

>  <SMILES>  (15) 
CS(=O)(=O)c1ccc(C(=O)[N-]c2cc(C(=O)Nc3ccccc3)cc3ncc(N4CCNCC4)nc23)c(Cl)c1

>  <Energy>  (15) 
91.84456045124972

>  <Genealogy>  (15) 
CS(=O)(=O)c1ccc(C(=O)[N-]c2cc(C(=O)Nc3ccccc3)cc3ncc(N4CCNCC4)nc23)c(Cl)c1 (protonated)
CS(=O)(=O)c1ccc(C(=O)[N-]c2cc(C(=O)Nc3ccccc3)cc3ncc(N4CCNCC4)nc23)c(Cl)c1 (3D coordinates assigned)
CS(=O)(=O)c1ccc(C(=O)[N-]c2cc(C(=O)Nc3ccccc3)cc3ncc(N4CCNCC4)nc23)c(Cl)c1 (nonaromatic ring conformer: 91.84456045124972 kcal/mol)

>  <smiles>  (15) 
CS(=O)(=O)c1ccc(C(=O)Nc2cc(C(=O)Nc3ccccc3)cc3ncc(N4CCNCC4)nc23)c(Cl)c1

>  <score_type>  (15) 
oracle

>  <origin>  (15) 
adgpu

>  <m_score__min__energy>  (15) 
-12.07

>  <m_primary>  (15) 
energy

$$$$
15:0
     RDKit          3D

 44 47  0  0  0  0  0  0  0  0999 V2000
   -3.7250   17.9430  -34.2160 C   0  0  0  0  0  0  0  0  0  0  0  0
   -4.8900   17.2860  -34.7940 N   0  0  0  0  0  0  0  0  0  0  0  0
   -6.1010   16.9820  -34.0890 C   0  0  0  0  0  0  0  0  0  0  0  0
   -6.5740   15.8190  -34.1740 O   0  0  0  0  0  0  0  0  0  0  0  0
   -6.8380   17.9930  -33.3090 C   0  0  0  0  0  0  0  0  0  0  0  0
   -6.6120   19.3650  -33.4920 C   0  0  0  0  0  0  0  0  0  0  0  0
   -7.3040   20.2940  -32.7100 C   0  0  0  0  0  0  0  0  0  0  0  0
   -7.0780   21.6620  -32.9270 O   0  0  0  0  0  0  0  0  0  0  0  0
   -6.1620   22.4580  -32.2230 C   0  0  0  0  0  0  0  0  0  0  0  0
   -4.7810   22.1930  -32.2410 C   0  0  0  0  0  0  0  0  0  0  0  0
   -3.8940   23.0180  -31.5420 C   0  0  0  0  0  0  0  0  0  0  0  0
   -4.3740   24.1360  -30.8360 C   0  0  0  0  0  0  0  0  0  0  0  0
   -3.5040   24.9960  -30.0860 N   0  0  0  0  0  0  0  0  0  0  0  0
   -2.3410   24.6000  -29.3460 C   0  0  0  0  0  0  0  0  0  0  0  0
   -1.4120   25.4220  -29.1230 O   0  0  0  0  0  0  0  0  0  0  0  0
   -2.2550   23.2420  -28.7950 C   0  0  0  0  0  0  0  0  0  0  0  0
   -1.1230   22.4240  -28.8210 C   0  0  0  0  0  0  0  0  0  0  0  0
   -1.3480   21.1840  -28.2150 C   0  0  0  0  0  0  0  0  0  0  0  0
   -0.4180   20.1500  -28.0820 C   0  0  0  0  0  0  0  0  0  0  0  0
   -0.8130   18.9630  -27.4420 C   0  0  0  0  0  0  0  0  0  0  0  0
   -2.1240   18.8210  -26.9460 C   0  0  0  0  0  0  0  0  0  0  0  0
   -3.0510   19.8660  -27.0840 C   0  0  0  0  0  0  0  0  0  0  0  0
   -2.6360   21.0330  -27.7220 C   0  0  0  0  0  0  0  0  0  0  0  0
   -3.5220   22.4260  -28.0230 S   0  0  0  0  0  0  0  0  0  0  0  0
   -5.7500   24.3930  -30.8170 C   0  0  0  0  0  0  0  0  0  0  0  0
   -6.6370   23.5700  -31.5170 C   0  0  0  0  0  0  0  0  0  0  0  0
   -7.9650   23.8450  -31.4980 F   0  0  0  0  0  0  0  0  0  0  0  0
   -8.2310   19.8340  -31.7600 C   0  0  0  0  0  0  0  0  0  0  0  0
   -8.4110   18.4610  -31.5880 C   0  0  0  0  0  0  0  0  0  0  0  0
   -7.7130   17.5810  -32.3510 N   0  0  0  0  0  0  0  0  0  0  0  0
   -3.7902   17.9062  -33.1185 H   0  0  0  0  0  0  0  0  0  0  0  0
   -2.8115   17.4271  -34.5465 H   0  0  0  0  0  0  0  0  0  0  0  0
   -3.6938   18.9917  -34.5465 H   0  0  0  0  0  0  0  0  0  0  0  0
   -5.8919   19.7091  -34.2491 H   0  0  0  0  0  0  0  0  0  0  0  0
   -4.3964   21.3323  -32.8078 H   0  0  0  0  0  0  0  0  0  0  0  0
   -2.8175   22.7919  -31.5443 H   0  0  0  0  0  0  0  0  0  0  0  0
   -0.1629   22.7217  -29.2678 H   0  0  0  0  0  0  0  0  0  0  0  0
    0.6047   20.2630  -28.4711 H   0  0  0  0  0  0  0  0  0  0  0  0
   -0.0935   18.1388  -27.3275 H   0  0  0  0  0  0  0  0  0  0  0  0
   -2.4226   17.8867  -26.4482 H   0  0  0  0  0  0  0  0  0  0  0  0
   -4.0766   19.7663  -26.6991 H   0  0  0  0  0  0  0  0  0  0  0  0
   -6.1366   25.2501  -30.2462 H   0  0  0  0  0  0  0  0  0  0  0  0
   -8.8096   20.5495  -31.1573 H   0  0  0  0  0  0  0  0  0  0  0  0
   -9.1198   18.0908  -30.8327 H   0  0  0  0  0  0  0  0  0  0  0  0
  1  2  1  0
  2  3  1  0
  3  4  2  0
  3  5  1  0
  5  6  2  0
  6  7  1  0
  7  8  1  0
  8  9  1  0
  9 10  2  0
 10 11  1  0
 11 12  2  0
 12 13  1  0
 13 14  1  0
 14 15  2  0
 14 16  1  0
 16 17  2  0
 17 18  1  0
 18 19  2  0
 19 20  1  0
 20 21  2  0
 21 22  1  0
 22 23  2  0
 23 24  1  0
 12 25  1  0
 25 26  2  0
 26 27  1  0
  7 28  2  0
 28 29  1  0
 29 30  2  0
 30  5  1  0
 26  9  1  0
 24 16  1  0
 23 18  1  0
  1 31  1  0
  1 32  1  0
  1 33  1  0
  6 34  1  0
 10 35  1  0
 11 36  1  0
 17 37  1  0
 19 38  1  0
 20 39  1  0
 21 40  1  0
 22 41  1  0
 25 42  1  0
 28 43  1  0
 29 44  1  0
M  CHG  2   2  -1  13  -1
M  END
>  <UniqueID>  (16) 
16

>  <SMILES>  (16) 
C[N-]C(=O)c1cc(Oc2ccc([N-]C(=O)c3cc4ccccc4s3)cc2F)ccn1

>  <Energy>  (16) 
92.85474298337152

>  <Genealogy>  (16) 
C[N-]C(=O)c1cc(Oc2ccc([N-]C(=O)c3cc4ccccc4s3)cc2F)ccn1 (protonated)
C[N-]C(=O)c1cc(Oc2ccc([N-]C(=O)c3cc4ccccc4s3)cc2F)ccn1 (3D coordinates assigned)
C[N-]C(=O)c1cc(Oc2ccc([N-]C(=O)c3cc4ccccc4s3)cc2F)ccn1 (optimized conformer: 92.85474298337152 kcal/mol)

>  <smiles>  (16) 
CNC(=O)c1cc(Oc2ccc(NC(=O)c3cc4ccccc4s3)cc2F)ccn1

>  <score_type>  (16) 
oracle

>  <origin>  (16) 
adgpu

>  <m_score__min__energy>  (16) 
-11.09

>  <m_primary>  (16) 
energy

$$$$
16:0
     RDKit          3D

 35 37  0  0  0  0  0  0  0  0999 V2000
   -0.3450   26.8010  -28.5380 H   0  0  0  0  0  0  0  0  0  0  0  0
   -1.2270   26.4210  -28.9290 N   0  0  0  0  0  0  0  0  0  0  0  0
   -1.5840   25.1750  -28.9220 C   0  0  0  0  0  0  0  0  0  0  0  0
   -2.7800   24.8350  -29.4800 N   0  0  0  0  0  0  0  0  0  0  0  0
   -3.2310   23.5430  -29.5120 C   0  0  0  0  0  0  0  0  0  0  0  0
   -4.5440   23.2490  -30.1440 C   0  0  0  0  0  0  0  0  0  0  0  0
   -4.7350   22.0380  -30.8270 C   0  0  0  0  0  0  0  0  0  0  0  0
   -3.9117   21.3109  -30.8860 H   0  0  0  0  0  0  0  0  0  0  0  0
   -5.9600   21.7460  -31.4330 C   0  0  0  0  0  0  0  0  0  0  0  0
   -6.0906   20.7886  -31.9586 H   0  0  0  0  0  0  0  0  0  0  0  0
   -7.0300   22.6610  -31.3800 C   0  0  0  0  0  0  0  0  0  0  0  0
   -8.3030   22.3580  -32.0090 N   0  0  0  0  0  0  0  0  0  0  0  0
   -9.2380   23.4350  -32.3600 C   0  0  0  0  0  0  0  0  0  0  0  0
   -9.6339   23.8910  -31.4406 H   0  0  0  0  0  0  0  0  0  0  0  0
   -8.7120   24.1991  -32.9511 H   0  0  0  0  0  0  0  0  0  0  0  0
  -10.0684   23.0215  -32.9511 H   0  0  0  0  0  0  0  0  0  0  0  0
   -8.6770   20.9700  -32.3080 C   0  0  0  0  0  0  0  0  0  0  0  0
   -8.8253   20.4195  -31.3673 H   0  0  0  0  0  0  0  0  0  0  0  0
   -9.6101   20.9590  -32.8903 H   0  0  0  0  0  0  0  0  0  0  0  0
   -7.8757   20.4917  -32.8903 H   0  0  0  0  0  0  0  0  0  0  0  0
   -6.8280   23.8810  -30.7040 C   0  0  0  0  0  0  0  0  0  0  0  0
   -7.6459   24.6148  -30.6528 H   0  0  0  0  0  0  0  0  0  0  0  0
   -5.6030   24.1710  -30.0980 C   0  0  0  0  0  0  0  0  0  0  0  0
   -5.4663   25.1314  -29.5794 H   0  0  0  0  0  0  0  0  0  0  0  0
   -2.4320   22.5220  -28.9620 C   0  0  0  0  0  0  0  0  0  0  0  0
   -2.7548   21.4705  -28.9778 H   0  0  0  0  0  0  0  0  0  0  0  0
   -1.2200   22.8980  -28.3990 C   0  0  0  0  0  0  0  0  0  0  0  0
   -0.3280   22.0680  -27.8300 N   0  0  0  0  0  0  0  0  0  0  0  0
    0.6810   22.8280  -27.4280 N   0  0  0  0  0  0  0  0  0  0  0  0
    0.3900   24.1050  -27.7600 C   0  0  0  0  0  0  0  0  0  0  0  0
    1.3200   25.2350  -27.4540 C   0  0  0  0  0  0  0  0  0  0  0  0
    1.4132   25.3482  -26.3638 H   0  0  0  0  0  0  0  0  0  0  0  0
    2.3090   25.0233  -27.8865 H   0  0  0  0  0  0  0  0  0  0  0  0
    0.9220   26.1648  -27.8865 H   0  0  0  0  0  0  0  0  0  0  0  0
   -0.8160   24.1790  -28.3800 N   0  0  0  0  0  0  0  0  0  0  0  0
  1  2  1  0
  2  3  2  0
  3  4  1  0
  4  5  1  0
  5  6  1  0
  6  7  2  0
  7  8  1  0
  7  9  1  0
  9 10  1  0
  9 11  2  0
 11 12  1  0
 12 13  1  0
 13 14  1  0
 13 15  1  0
 13 16  1  0
 12 17  1  0
 17 18  1  0
 17 19  1  0
 17 20  1  0
 11 21  1  0
 21 22  1  0
 21 23  2  0
 23 24  1  0
  5 25  2  0
 25 26  1  0
 25 27  1  0
 27 28  2  0
 28 29  1  0
 29 30  2  0
 30 31  1  0
 31 32  1  0
 31 33  1  0
 31 34  1  0
 30 35  1  0
 35  3  1  0
 23  6  1  0
 35 27  1  0
M  CHG  1   4  -1
M  END
>  <UniqueID>  (17) 
17

>  <SMILES>  (17) 
[H]/N=c1/[n-]c(-c2ccc(N(C)C)cc2)cc2nnc(C)n12

>  <Energy>  (17) 
88.31735990194242

>  <Genealogy>  (17) 
Cc1nnc2cc(-c3ccc(N(C)C)cc3)[n-]c(=N)n12 (protonated)
[H]/N=c1/[n-]c(-c2ccc(N(C)C)cc2)cc2nnc(C)n12 (cis-trans isomerization)
[H]/N=c1/[n-]c(-c2ccc(N(C)C)cc2)cc2nnc(C)n12 (3D coordinates assigned)
[H]/N=c1/[n-]c(-c2ccc(N(C)C)cc2)cc2nnc(C)n12 (optimized conformer: 88.31735990194242 kcal/mol)

>  <smiles>  (17) 
Cc1nnc2cc(-c3ccc(N(C)C)cc3)[nH]c(=N)n12

>  <score_type>  (17) 
oracle

>  <origin>  (17) 
adgpu

>  <m_score__min__energy>  (17) 
-7.7300000000000004

>  <m_primary>  (17) 
energy

$$$$
17:0
     RDKit          3D

 52 55  0  0  0  0  0  0  0  0999 V2000
   -5.1870   16.9680  -34.2190 C   0  0  0  0  0  0  0  0  0  0  0  0
   -4.0230   17.6430  -34.6840 O   0  0  0  0  0  0  0  0  0  0  0  0
   -2.9310   17.9950  -33.8770 C   0  0  0  0  0  0  0  0  0  0  0  0
   -1.6790   17.3570  -33.9960 C   0  0  0  0  0  0  0  0  0  0  0  0
   -0.6080   17.7480  -33.1890 C   0  0  0  0  0  0  0  0  0  0  0  0
   -0.7700   18.7740  -32.2570 C   0  0  0  0  0  0  0  0  0  0  0  0
   -2.0050   19.4110  -32.1280 C   0  0  0  0  0  0  0  0  0  0  0  0
   -3.0890   19.0250  -32.9310 C   0  0  0  0  0  0  0  0  0  0  0  0
   -4.3590   19.6760  -32.7700 N   0  0  0  0  0  0  0  0  0  0  0  0
   -5.2170   19.3030  -31.6420 C   0  0  0  0  0  0  0  0  0  0  0  0
   -6.4750   20.1840  -31.5840 C   0  0  0  0  0  0  0  0  0  0  0  0
   -6.1730   21.6290  -31.7180 N   0  0  0  0  0  0  0  0  0  0  0  0
   -6.1590   22.3880  -30.4480 C   0  0  0  0  0  0  0  0  0  0  0  0
   -5.2640   23.6070  -30.4760 C   0  0  0  0  0  0  0  0  0  0  0  0
   -5.6300   24.8810  -30.8610 C   0  0  0  0  0  0  0  0  0  0  0  0
   -4.5480   25.6810  -30.8490 N   0  0  0  0  0  0  0  0  0  0  0  0
   -3.5000   24.9710  -30.4620 N   0  0  0  0  0  0  0  0  0  0  0  0
   -3.9050   23.7100  -30.2120 C   0  0  0  0  0  0  0  0  0  0  0  0
   -2.9850   22.6500  -29.7660 C   0  0  0  0  0  0  0  0  0  0  0  0
   -1.7290   22.4840  -30.3690 C   0  0  0  0  0  0  0  0  0  0  0  0
   -0.8690   21.4720  -29.9370 C   0  0  0  0  0  0  0  0  0  0  0  0
   -1.2570   20.6140  -28.9040 C   0  0  0  0  0  0  0  0  0  0  0  0
   -2.5120   20.7670  -28.2940 C   0  0  0  0  0  0  0  0  0  0  0  0
   -2.9470   19.8210  -27.2150 C   0  0  0  0  0  0  0  0  0  0  0  0
   -3.3820   21.7700  -28.7470 C   0  0  0  0  0  0  0  0  0  0  0  0
   -5.0870   21.9970  -32.6600 C   0  0  0  0  0  0  0  0  0  0  0  0
   -4.7000   20.8430  -33.5860 C   0  0  0  0  0  0  0  0  0  0  0  0
   -5.1938   16.9641  -33.1190 H   0  0  0  0  0  0  0  0  0  0  0  0
   -6.0839   17.4861  -34.5893 H   0  0  0  0  0  0  0  0  0  0  0  0
   -5.1828   15.9322  -34.5893 H   0  0  0  0  0  0  0  0  0  0  0  0
   -1.5451   16.5471  -34.7282 H   0  0  0  0  0  0  0  0  0  0  0  0
    0.3656   17.2459  -33.2884 H   0  0  0  0  0  0  0  0  0  0  0  0
    0.0758   19.0806  -31.6240 H   0  0  0  0  0  0  0  0  0  0  0  0
   -2.1293   20.2199  -31.3930 H   0  0  0  0  0  0  0  0  0  0  0  0
   -5.5204   18.2517  -31.7545 H   0  0  0  0  0  0  0  0  0  0  0  0
   -4.6491   19.4459  -30.7109 H   0  0  0  0  0  0  0  0  0  0  0  0
   -7.1485   19.8887  -32.4020 H   0  0  0  0  0  0  0  0  0  0  0  0
   -6.9387   20.0334  -30.5980 H   0  0  0  0  0  0  0  0  0  0  0  0
   -7.1857   22.7164  -30.2287 H   0  0  0  0  0  0  0  0  0  0  0  0
   -5.7590   21.7141  -29.6761 H   0  0  0  0  0  0  0  0  0  0  0  0
   -6.6483   25.1939  -31.1351 H   0  0  0  0  0  0  0  0  0  0  0  0
   -1.4205   23.1537  -31.1853 H   0  0  0  0  0  0  0  0  0  0  0  0
    0.1162   21.3498  -30.4108 H   0  0  0  0  0  0  0  0  0  0  0  0
   -0.5773   19.8170  -28.5683 H   0  0  0  0  0  0  0  0  0  0  0  0
   -2.7416   20.2677  -26.2310 H   0  0  0  0  0  0  0  0  0  0  0  0
   -4.0253   19.6259  -27.3112 H   0  0  0  0  0  0  0  0  0  0  0  0
   -2.3933   18.8754  -27.3112 H   0  0  0  0  0  0  0  0  0  0  0  0
   -4.3825   21.8675  -28.3004 H   0  0  0  0  0  0  0  0  0  0  0  0
   -5.4249   22.8445  -33.2745 H   0  0  0  0  0  0  0  0  0  0  0  0
   -4.2008   22.2587  -32.0632 H   0  0  0  0  0  0  0  0  0  0  0  0
   -5.5460   20.5985  -34.2452 H   0  0  0  0  0  0  0  0  0  0  0  0
   -3.8363   21.1326  -34.2026 H   0  0  0  0  0  0  0  0  0  0  0  0
  1  2  1  0
  2  3  1  0
  3  4  2  0
  4  5  1  0
  5  6  2  0
  6  7  1  0
  7  8  2  0
  8  9  1  0
  9 10  1  0
 10 11  1  0
 11 12  1  0
 12 13  1  0
 13 14  1  0
 14 15  1  0
 15 16  2  0
 16 17  1  0
 17 18  1  0
 18 19  1  0
 19 20  2  0
 20 21  1  0
 21 22  2  0
 22 23  1  0
 23 24  1  0
 23 25  2  0
 12 26  1  0
 26 27  1  0
  8  3  1  0
 27  9  1  0
 18 14  2  0
 25 19  1  0
  1 28  1  0
  1 29  1  0
  1 30  1  0
  4 31  1  0
  5 32  1  0
  6 33  1  0
  7 34  1  0
 10 35  1  0
 10 36  1  0
 11 37  1  0
 11 38  1  0
 13 39  1  0
 13 40  1  0
 15 41  1  0
 20 42  1  0
 21 43  1  0
 22 44  1  0
 24 45  1  0
 24 46  1  0
 24 47  1  0
 25 48  1  0
 26 49  1  0
 26 50  1  0
 27 51  1  0
 27 52  1  0
M  CHG  1  17  -1
M  END
>  <UniqueID>  (18) 
18

>  <SMILES>  (18) 
COc1ccccc1N1CCN(Cc2cn[n-]c2-c2cccc(C)c2)CC1

>  <Energy>  (18) 
102.20613803443892

>  <Genealogy>  (18) 
COc1ccccc1N1CCN(Cc2cn[n-]c2-c2cccc(C)c2)CC1 (protonated)
COc1ccccc1N1CCN(Cc2cn[n-]c2-c2cccc(C)c2)CC1 (3D coordinates assigned)
COc1ccccc1N1CCN(Cc2cn[n-]c2-c2cccc(C)c2)CC1 (nonaromatic ring conformer: 102.20613803443892 kcal/mol)

>  <smiles>  (18) 
COc1ccccc1N1CCN(Cc2cn[nH]c2-c2cccc(C)c2)CC1

>  <score_type>  (18) 
oracle

>  <origin>  (18) 
adgpu

>  <m_score__min__energy>  (18) 
-10.17

>  <m_primary>  (18) 
energy

$$$$
18:0
     RDKit          3D

 41 43  0  0  0  0  0  0  0  0999 V2000
   -5.7510   19.2960  -33.8180 C   0  0  0  0  0  0  0  0  0  0  0  0
   -5.5890   20.6260  -33.0880 C   0  0  0  0  0  0  0  0  0  0  0  0
   -6.9160   21.1140  -32.5570 C   0  0  0  0  0  0  0  0  0  0  0  0
   -7.9740   20.1950  -32.4440 C   0  0  0  0  0  0  0  0  0  0  0  0
   -9.2230   20.6010  -31.9740 C   0  0  0  0  0  0  0  0  0  0  0  0
   -9.4300   21.9270  -31.6000 C   0  0  0  0  0  0  0  0  0  0  0  0
   -8.3880   22.8510  -31.6880 C   0  0  0  0  0  0  0  0  0  0  0  0
   -7.1220   22.4610  -32.1620 C   0  0  0  0  0  0  0  0  0  0  0  0
   -6.0540   23.4250  -32.2320 N   0  0  0  0  0  0  0  0  0  0  0  0
   -5.3300   24.1150  -30.8150 S   0  0  0  0  0  0  0  0  0  0  0  0
   -4.4800   25.2880  -31.2180 O   0  0  0  0  0  0  0  0  0  0  0  0
   -6.4080   24.5870  -29.8820 O   0  0  0  0  0  0  0  0  0  0  0  0
   -4.3640   22.8960  -29.9890 C   0  0  0  0  0  0  0  0  0  0  0  0
   -3.7370   21.8700  -30.7080 C   0  0  0  0  0  0  0  0  0  0  0  0
   -2.9930   20.8940  -30.0380 C   0  0  0  0  0  0  0  0  0  0  0  0
   -2.8660   20.9320  -28.6380 C   0  0  0  0  0  0  0  0  0  0  0  0
   -2.0820   19.8980  -27.9290 C   0  0  0  0  0  0  0  0  0  0  0  0
   -2.4080   19.4090  -26.7150 N   0  0  0  0  0  0  0  0  0  0  0  0
   -1.4860   18.5370  -26.4460 O   0  0  0  0  0  0  0  0  0  0  0  0
   -0.6280   18.4860  -27.4330 C   0  0  0  0  0  0  0  0  0  0  0  0
    0.5490   17.5730  -27.4740 C   0  0  0  0  0  0  0  0  0  0  0  0
   -0.9580   19.3360  -28.4240 N   0  0  0  0  0  0  0  0  0  0  0  0
   -3.4940   21.9670  -27.9230 C   0  0  0  0  0  0  0  0  0  0  0  0
   -4.2360   22.9410  -28.5960 C   0  0  0  0  0  0  0  0  0  0  0  0
   -5.8499   18.4838  -33.0827 H   0  0  0  0  0  0  0  0  0  0  0  0
   -6.6515   19.3313  -34.4488 H   0  0  0  0  0  0  0  0  0  0  0  0
   -4.8684   19.1141  -34.4488 H   0  0  0  0  0  0  0  0  0  0  0  0
   -4.8917   20.4931  -32.2477 H   0  0  0  0  0  0  0  0  0  0  0  0
   -5.1985   21.3709  -33.7969 H   0  0  0  0  0  0  0  0  0  0  0  0
   -7.8151   19.1446  -32.7293 H   0  0  0  0  0  0  0  0  0  0  0  0
  -10.0449   19.8739  -31.8986 H   0  0  0  0  0  0  0  0  0  0  0  0
  -10.4171   22.2463  -31.2345 H   0  0  0  0  0  0  0  0  0  0  0  0
   -8.5581   23.8943  -31.3838 H   0  0  0  0  0  0  0  0  0  0  0  0
   -5.7550   23.8150  -33.1520 H   0  0  0  0  0  0  0  0  0  0  0  0
   -3.8303   21.8321  -31.8034 H   0  0  0  0  0  0  0  0  0  0  0  0
   -2.5040   20.0914  -30.6096 H   0  0  0  0  0  0  0  0  0  0  0  0
    0.8612   17.3309  -26.4474 H   0  0  0  0  0  0  0  0  0  0  0  0
    0.2769   16.6474  -28.0024 H   0  0  0  0  0  0  0  0  0  0  0  0
    1.3778   18.0668  -28.0024 H   0  0  0  0  0  0  0  0  0  0  0  0
   -3.4006   22.0102  -26.8278 H   0  0  0  0  0  0  0  0  0  0  0  0
   -4.7223   23.7477  -28.0279 H   0  0  0  0  0  0  0  0  0  0  0  0
  1  2  1  0
  2  3  1  0
  3  4  2  0
  4  5  1  0
  5  6  2  0
  6  7  1  0
  7  8  2  0
  8  9  1  0
  9 10  1  0
 10 11  2  0
 10 12  2  0
 10 13  1  0
 13 14  2  0
 14 15  1  0
 15 16  2  0
 16 17  1  0
 17 18  2  0
 18 19  1  0
 19 20  1  0
 20 21  1  0
 20 22  2  0
 16 23  1  0
 23 24  2  0
  8  3  1  0
 24 13  1  0
 22 17  1  0
  1 25  1  0
  1 26  1  0
  1 27  1  0
  2 28  1  0
  2 29  1  0
  4 30  1  0
  5 31  1  0
  6 32  1  0
  7 33  1  0
  9 34  1  0
 14 35  1  0
 15 36  1  0
 21 37  1  0
 21 38  1  0
 21 39  1  0
 23 40  1  0
 24 41  1  0
M  END
>  <UniqueID>  (19) 
19

>  <SMILES>  (19) 
CCc1ccccc1NS(=O)(=O)c1ccc(-c2noc(C)n2)cc1

>  <Energy>  (19) 
76.70379399980472

>  <Genealogy>  (19) 
CCc1ccccc1NS(=O)(=O)c1ccc(-c2noc(C)n2)cc1 (3D coordinates assigned)
CCc1ccccc1NS(=O)(=O)c1ccc(-c2noc(C)n2)cc1 (optimized conformer: 76.70379399980472 kcal/mol)

>  <smiles>  (19) 
CCc1ccccc1NS(=O)(=O)c1ccc(-c2noc(C)n2)cc1

>  <score_type>  (19) 
oracle

>  <origin>  (19) 
adgpu

>  <m_score__min__energy>  (19) 
-9.1600000000000001

>  <m_primary>  (19) 
energy

$$$$
19:0
     RDKit          3D

 51 53  0  0  0  0  0  0  0  0999 V2000
   -2.4950   20.0100  -31.8550 C   0  0  0  0  0  0  0  0  0  0  0  0
   -2.9830   20.5360  -30.6250 O   0  0  0  0  0  0  0  0  0  0  0  0
   -2.6500   21.8000  -30.1160 C   0  0  0  0  0  0  0  0  0  0  0  0
   -1.6230   21.9870  -29.1730 C   0  0  0  0  0  0  0  0  0  0  0  0
   -1.3150   23.2680  -28.7110 C   0  0  0  0  0  0  0  0  0  0  0  0
   -2.0330   24.3880  -29.1740 C   0  0  0  0  0  0  0  0  0  0  0  0
   -1.6970   25.6930  -28.7780 O   0  0  0  0  0  0  0  0  0  0  0  0
   -1.2300   26.0540  -27.4820 C   0  0  0  0  0  0  0  0  0  0  0  0
   -3.0930   24.1940  -30.0840 C   0  0  0  0  0  0  0  0  0  0  0  0
   -3.8630   25.2920  -30.5910 N   0  0  0  0  0  0  0  0  0  0  0  0
   -5.2880   25.4250  -30.4880 C   0  0  0  0  0  0  0  0  0  0  0  0
   -5.7900   26.5130  -30.0900 O   0  0  0  0  0  0  0  0  0  0  0  0
   -6.1670   24.2740  -30.8010 C   0  0  0  0  0  0  0  0  0  0  0  0
   -6.6160   24.0550  -32.1160 C   0  0  0  0  0  0  0  0  0  0  0  0
   -7.4450   22.9680  -32.4100 C   0  0  0  0  0  0  0  0  0  0  0  0
   -7.8380   22.0850  -31.3980 C   0  0  0  0  0  0  0  0  0  0  0  0
   -8.8920   20.7290  -31.7890 S   0  0  0  0  0  0  0  0  0  0  0  0
  -10.2250   21.2390  -32.2660 O   0  0  0  0  0  0  0  0  0  0  0  0
   -9.1090   19.9270  -30.5360 O   0  0  0  0  0  0  0  0  0  0  0  0
   -8.1290   19.7280  -33.0080 N   0  0  0  0  0  0  0  0  0  0  0  0
   -8.1440   18.2880  -32.6700 C   0  0  0  0  0  0  0  0  0  0  0  0
   -7.0660   17.8960  -31.6470 C   0  0  0  0  0  0  0  0  0  0  0  0
   -5.6870   18.3680  -32.1010 C   0  0  0  0  0  0  0  0  0  0  0  0
   -5.6970   19.8700  -32.3900 C   0  0  0  0  0  0  0  0  0  0  0  0
   -6.7970   20.2230  -33.4040 C   0  0  0  0  0  0  0  0  0  0  0  0
   -7.3980   22.2980  -30.0850 C   0  0  0  0  0  0  0  0  0  0  0  0
   -6.5670   23.3830  -29.7880 C   0  0  0  0  0  0  0  0  0  0  0  0
   -3.3700   22.9100  -30.5680 C   0  0  0  0  0  0  0  0  0  0  0  0
   -1.7601   19.2178  -31.6491 H   0  0  0  0  0  0  0  0  0  0  0  0
   -3.3324   19.5921  -32.4330 H   0  0  0  0  0  0  0  0  0  0  0  0
   -2.0156   20.8138  -32.4330 H   0  0  0  0  0  0  0  0  0  0  0  0
   -1.0599   21.1198  -28.7978 H   0  0  0  0  0  0  0  0  0  0  0  0
   -0.5049   23.4038  -27.9794 H   0  0  0  0  0  0  0  0  0  0  0  0
   -1.8565   25.5697  -26.7185 H   0  0  0  0  0  0  0  0  0  0  0  0
   -0.1871   25.7250  -27.3632 H   0  0  0  0  0  0  0  0  0  0  0  0
   -1.2857   27.1462  -27.3632 H   0  0  0  0  0  0  0  0  0  0  0  0
   -6.3129   24.7436  -32.9185 H   0  0  0  0  0  0  0  0  0  0  0  0
   -7.7899   22.8062  -33.4419 H   0  0  0  0  0  0  0  0  0  0  0  0
   -9.1302   18.0369  -32.2525 H   0  0  0  0  0  0  0  0  0  0  0  0
   -7.9342   17.7323  -33.5958 H   0  0  0  0  0  0  0  0  0  0  0  0
   -7.3040   18.3586  -30.6778 H   0  0  0  0  0  0  0  0  0  0  0  0
   -7.0499   16.7999  -31.5558 H   0  0  0  0  0  0  0  0  0  0  0  0
   -4.9543   18.1579  -31.3079 H   0  0  0  0  0  0  0  0  0  0  0  0
   -5.4160   17.8326  -33.0229 H   0  0  0  0  0  0  0  0  0  0  0  0
   -5.8812   20.4164  -31.4532 H   0  0  0  0  0  0  0  0  0  0  0  0
   -4.7224   20.1542  -32.8135 H   0  0  0  0  0  0  0  0  0  0  0  0
   -6.8450   21.3176  -33.5017 H   0  0  0  0  0  0  0  0  0  0  0  0
   -6.5353   19.7360  -34.3549 H   0  0  0  0  0  0  0  0  0  0  0  0
   -7.7072   21.6094  -29.2849 H   0  0  0  0  0  0  0  0  0  0  0  0
   -6.2236   23.5410  -28.7550 H   0  0  0  0  0  0  0  0  0  0  0  0
   -4.1658   22.7723  -31.3149 H   0  0  0  0  0  0  0  0  0  0  0  0
  1  2  1  0
  2  3  1  0
  3  4  2  0
  4  5  1  0
  5  6  2  0
  6  7  1  0
  7  8  1  0
  6  9  1  0
  9 10  1  0
 10 11  1  0
 11 12  2  0
 11 13  1  0
 13 14  2  0
 14 15  1  0
 15 16  2  0
 16 17  1  0
 17 18  2  0
 17 19  2  0
 17 20  1  0
 20 21  1  0
 21 22  1  0
 22 23  1  0
 23 24  1  0
 24 25  1  0
 16 26  1  0
 26 27  2  0
  9 28  2  0
 28  3  1  0
 27 13  1  0
 25 20  1  0
  1 29  1  0
  1 30  1  0
  1 31  1  0
  4 32  1  0
  5 33  1  0
  8 34  1  0
  8 35  1  0
  8 36  1  0
 14 37  1  0
 15 38  1  0
 21 39  1  0
 21 40  1  0
 22 41  1  0
 22 42  1  0
 23 43  1  0
 23 44  1  0
 24 45  1  0
 24 46  1  0
 25 47  1  0
 25 48  1  0
 26 49  1  0
 27 50  1  0
 28 51  1  0
M  CHG  1  10  -1
M  END
>  <UniqueID>  (20) 
20

>  <SMILES>  (20) 
COc1ccc(OC)c([N-]C(=O)c2ccc(S(=O)(=O)N3CCCCC3)cc2)c1

>  <Energy>  (20) 
56.725390417212665

>  <Genealogy>  (20) 
COc1ccc(OC)c([N-]C(=O)c2ccc(S(=O)(=O)N3CCCCC3)cc2)c1 (protonated)
COc1ccc(OC)c([N-]C(=O)c2ccc(S(=O)(=O)N3CCCCC3)cc2)c1 (3D coordinates assigned)
COc1ccc(OC)c([N-]C(=O)c2ccc(S(=O)(=O)N3CCCCC3)cc2)c1 (nonaromatic ring conformer: 56.725390417212665 kcal/mol)

>  <smiles>  (20) 
COc1ccc(OC)c(NC(=O)c2ccc(S(=O)(=O)N3CCCCC3)cc2)c1

>  <score_type>  (20) 
oracle

>  <origin>  (20) 
adgpu

>  <m_score__min__energy>  (20) 
-12.01

>  <m_primary>  (20) 
energy

$$$$
20:0
     RDKit          3D

 52 54  0  0  0  0  0  0  0  0999 V2000
   -1.1680   26.3260  -26.5710 C   0  0  0  0  0  0  0  0  0  0  0  0
   -0.8930   25.7430  -27.9160 C   0  0  0  0  0  0  0  0  0  0  0  0
    0.2350   25.2340  -28.1530 O   0  0  0  0  0  0  0  0  0  0  0  0
   -1.9500   25.6730  -28.8820 N   0  0  0  0  0  0  0  0  0  0  0  0
   -2.4590   24.4850  -29.5040 C   0  0  0  0  0  0  0  0  0  0  0  0
   -3.7510   24.5100  -30.0420 C   0  0  0  0  0  0  0  0  0  0  0  0
   -4.2780   23.3810  -30.6760 C   0  0  0  0  0  0  0  0  0  0  0  0
   -3.5210   22.2050  -30.7820 C   0  0  0  0  0  0  0  0  0  0  0  0
   -4.0820   21.0680  -31.4630 N   0  0  0  0  0  0  0  0  0  0  0  0
   -4.5250   21.0730  -32.8270 C   0  0  0  0  0  0  0  0  0  0  0  0
   -4.2160   22.0230  -33.5970 O   0  0  0  0  0  0  0  0  0  0  0  0
   -5.1980   19.9200  -33.3470 N   0  0  0  0  0  0  0  0  0  0  0  0
   -4.7390   18.7020  -33.4380 C   0  0  0  0  0  0  0  0  0  0  0  0
   -5.5380   17.6150  -33.7080 C   0  0  0  0  0  0  0  0  0  0  0  0
   -4.6760   16.5320  -33.6170 C   0  0  0  0  0  0  0  0  0  0  0  0
   -5.0490   15.0750  -33.8330 C   0  0  0  0  0  0  0  0  0  0  0  0
   -4.1820   14.4920  -34.9640 C   0  0  0  0  0  0  0  0  0  0  0  0
   -6.5370   14.9770  -34.2190 C   0  0  0  0  0  0  0  0  0  0  0  0
   -4.8120   14.2590  -32.5460 C   0  0  0  0  0  0  0  0  0  0  0  0
   -3.4260   16.9700  -33.3560 N   0  0  0  0  0  0  0  0  0  0  0  0
   -3.4610   18.2900  -33.2450 N   0  0  0  0  0  0  0  0  0  0  0  0
   -2.2550   19.0670  -33.2170 C   0  0  0  0  0  0  0  0  0  0  0  0
   -1.4260   19.0590  -32.0820 C   0  0  0  0  0  0  0  0  0  0  0  0
   -0.2800   19.8570  -32.0430 C   0  0  0  0  0  0  0  0  0  0  0  0
    0.0420   20.6740  -33.1300 C   0  0  0  0  0  0  0  0  0  0  0  0
   -0.7910   20.7040  -34.2520 C   0  0  0  0  0  0  0  0  0  0  0  0
   -1.9430   19.9120  -34.2920 C   0  0  0  0  0  0  0  0  0  0  0  0
   -2.2070   22.1940  -30.2810 C   0  0  0  0  0  0  0  0  0  0  0  0
   -1.6790   23.3240  -29.6480 C   0  0  0  0  0  0  0  0  0  0  0  0
   -0.8366   25.6235  -25.7921 H   0  0  0  0  0  0  0  0  0  0  0  0
   -0.6228   27.2754  -26.4645 H   0  0  0  0  0  0  0  0  0  0  0  0
   -2.2474   26.5091  -26.4645 H   0  0  0  0  0  0  0  0  0  0  0  0
   -4.3564   25.4252  -29.9653 H   0  0  0  0  0  0  0  0  0  0  0  0
   -5.2945   23.4152  -31.0951 H   0  0  0  0  0  0  0  0  0  0  0  0
   -4.1130   20.1550  -30.9550 H   0  0  0  0  0  0  0  0  0  0  0  0
   -6.6128   17.6066  -33.9421 H   0  0  0  0  0  0  0  0  0  0  0  0
   -3.3434   13.9281  -34.5296 H   0  0  0  0  0  0  0  0  0  0  0  0
   -4.7928   13.8204  -35.5852 H   0  0  0  0  0  0  0  0  0  0  0  0
   -3.7904   15.3110  -35.5852 H   0  0  0  0  0  0  0  0  0  0  0  0
   -7.1505   14.9366  -33.3069 H   0  0  0  0  0  0  0  0  0  0  0  0
   -6.8206   15.8584  -34.8129 H   0  0  0  0  0  0  0  0  0  0  0  0
   -6.7025   14.0660  -34.8129 H   0  0  0  0  0  0  0  0  0  0  0  0
   -4.9970   14.8961  -31.6686 H   0  0  0  0  0  0  0  0  0  0  0  0
   -5.4975   13.3989  -32.5257 H   0  0  0  0  0  0  0  0  0  0  0  0
   -3.7725   13.8999  -32.5257 H   0  0  0  0  0  0  0  0  0  0  0  0
   -1.6804   18.4224  -31.2217 H   0  0  0  0  0  0  0  0  0  0  0  0
    0.3697   19.8422  -31.1555 H   0  0  0  0  0  0  0  0  0  0  0  0
    0.9507   21.2933  -33.1027 H   0  0  0  0  0  0  0  0  0  0  0  0
   -0.5401   21.3516  -35.1050 H   0  0  0  0  0  0  0  0  0  0  0  0
   -2.6060   19.9519  -35.1688 H   0  0  0  0  0  0  0  0  0  0  0  0
   -1.5897   21.2898  -30.3878 H   0  0  0  0  0  0  0  0  0  0  0  0
   -0.6494   23.3043  -29.2613 H   0  0  0  0  0  0  0  0  0  0  0  0
  1  2  1  0
  2  3  2  0
  2  4  1  0
  4  5  1  0
  5  6  2  0
  6  7  1  0
  7  8  2  0
  8  9  1  0
  9 10  1  0
 10 11  2  0
 10 12  1  0
 12 13  2  3
 13 14  1  0
 14 15  2  0
 15 16  1  0
 16 17  1  0
 16 18  1  0
 16 19  1  0
 15 20  1  0
 20 21  1  0
 21 22  1  0
 22 23  2  0
 23 24  1  0
 24 25  2  0
 25 26  1  0
 26 27  2  0
  8 28  1  0
 28 29  2  0
 29  5  1  0
 21 13  1  0
 27 22  1  0
  1 30  1  0
  1 31  1  0
  1 32  1  0
  6 33  1  0
  7 34  1  0
  9 35  1  0
 14 36  1  0
 17 37  1  0
 17 38  1  0
 17 39  1  0
 18 40  1  0
 18 41  1  0
 18 42  1  0
 19 43  1  0
 19 44  1  0
 19 45  1  0
 23 46  1  0
 24 47  1  0
 25 48  1  0
 26 49  1  0
 27 50  1  0
 28 51  1  0
 29 52  1  0
M  CHG  2   4  -1  20  -1
M  END
>  <UniqueID>  (21) 
21

>  <SMILES>  (21) 
CC(=O)[N-]c1ccc(NC(=O)N=c2cc(C(C)(C)C)[n-]n2-c2ccccc2)cc1

>  <Energy>  (21) 
99.99320353208283

>  <Genealogy>  (21) 
CC(=O)[N-]c1ccc(NC(=O)N=c2cc(C(C)(C)C)[n-]n2-c2ccccc2)cc1 (protonated)
CC(=O)[N-]c1ccc(NC(=O)N=c2cc(C(C)(C)C)[n-]n2-c2ccccc2)cc1 (3D coordinates assigned)
CC(=O)[N-]c1ccc(NC(=O)N=c2cc(C(C)(C)C)[n-]n2-c2ccccc2)cc1 (optimized conformer: 99.99320353208283 kcal/mol)

>  <smiles>  (21) 
CC(=O)Nc1ccc(NC(=O)N=c2cc(C(C)(C)C)[nH]n2-c2ccccc2)cc1

>  <score_type>  (21) 
oracle

>  <origin>  (21) 
adgpu

>  <m_score__min__energy>  (21) 
-8.6999999999999993

>  <m_primary>  (21) 
energy

$$$$
21:0
     RDKit          3D

 50 52  0  0  1  0  0  0  0  0999 V2000
   -1.7420   25.7090  -25.3360 C   0  0  0  0  0  0  0  0  0  0  0  0
   -0.3390   26.0670  -25.7650 C   0  0  0  0  0  0  0  0  0  0  0  0
    0.4450   24.7500  -25.8420 C   0  0  0  0  0  0  0  0  0  0  0  0
    0.8630   24.5730  -27.2760 C   0  0  0  0  0  0  0  0  0  0  0  0
   -0.1830   24.9620  -28.1980 N   0  0  0  0  0  0  0  0  0  0  0  0
   -1.2210   24.2630  -28.4810 C   0  0  0  0  0  0  0  0  0  0  0  0
   -1.3780   23.0650  -27.8890 N   0  0  0  0  0  0  0  0  0  0  0  0
   -2.4500   22.3240  -28.1700 C   0  0  0  0  0  0  0  0  0  0  0  0
   -2.5920   21.0090  -27.5000 C   0  0  0  0  0  0  0  0  0  0  0  0
   -3.4080   22.7550  -29.0580 C   0  0  0  0  0  0  0  0  0  0  0  0
   -3.1910   24.0010  -29.6380 C   0  0  0  0  0  0  0  0  0  0  0  0
   -4.0620   24.4330  -30.4680 N   0  0  0  0  0  0  0  0  0  0  0  0
   -5.2440   23.7400  -30.8500 C   0  0  0  0  0  0  0  0  0  0  0  0
   -6.4490   23.9580  -30.2110 C   0  0  0  0  0  0  0  0  0  0  0  0
   -7.5840   23.2750  -30.5960 C   0  0  0  0  0  0  0  0  0  0  0  0
   -7.5090   22.3670  -31.6290 C   0  0  0  0  0  0  0  0  0  0  0  0
   -6.3220   22.1330  -32.2780 C   0  0  0  0  0  0  0  0  0  0  0  0
   -6.2900   21.2090  -33.3150 O   0  0  0  0  0  0  0  0  0  0  0  0
   -6.4300   19.8670  -33.0640 C   0  0  0  0  0  0  0  0  0  0  0  0
   -7.5750   19.2990  -32.5330 C   0  0  0  0  0  0  0  0  0  0  0  0
   -7.6290   17.9240  -32.3110 C   0  0  0  0  0  0  0  0  0  0  0  0
   -6.5670   17.0960  -32.6080 C   0  0  0  0  0  0  0  0  0  0  0  0
   -5.4260   17.6700  -33.1390 C   0  0  0  0  0  0  0  0  0  0  0  0
   -5.3440   19.0450  -33.3720 C   0  0  0  0  0  0  0  0  0  0  0  0
   -5.2040   22.8110  -31.8930 C   0  0  0  0  0  0  0  0  0  0  0  0
   -2.1110   24.7520  -29.3550 N   0  0  0  0  0  0  0  0  0  0  0  0
   -1.7972   25.6949  -24.2375 H   0  0  0  0  0  0  0  0  0  0  0  0
   -2.4474   26.4559  -25.7290 H   0  0  0  0  0  0  0  0  0  0  0  0
   -2.0033   24.7154  -25.7290 H   0  0  0  0  0  0  0  0  0  0  0  0
   -0.3565   26.5565  -26.7499 H   0  0  0  0  0  0  0  0  0  0  0  0
    0.1272   26.7654  -25.0545 H   0  0  0  0  0  0  0  0  0  0  0  0
    1.3317   24.7992  -25.1929 H   0  0  0  0  0  0  0  0  0  0  0  0
   -0.1723   23.9043  -25.5048 H   0  0  0  0  0  0  0  0  0  0  0  0
    1.7520   25.1924  -27.4658 H   0  0  0  0  0  0  0  0  0  0  0  0
    1.0790   23.5066  -27.4377 H   0  0  0  0  0  0  0  0  0  0  0  0
   -0.6640   22.7290  -27.2180 H   0  0  0  0  0  0  0  0  0  0  0  0
   -2.5768   21.1497  -26.4091 H   0  0  0  0  0  0  0  0  0  0  0  0
   -3.5452   20.5473  -27.7969 H   0  0  0  0  0  0  0  0  0  0  0  0
   -1.7593   20.3544  -27.7969 H   0  0  0  0  0  0  0  0  0  0  0  0
   -4.2949   22.1493  -29.2960 H   0  0  0  0  0  0  0  0  0  0  0  0
   -6.5042   24.6839  -29.3864 H   0  0  0  0  0  0  0  0  0  0  0  0
   -8.5403   23.4539  -30.0827 H   0  0  0  0  0  0  0  0  0  0  0  0
   -8.4128   21.8217  -31.9383 H   0  0  0  0  0  0  0  0  0  0  0  0
   -8.4407   19.9314  -32.2867 H   0  0  0  0  0  0  0  0  0  0  0  0
   -8.5449   17.4869  -31.8868 H   0  0  0  0  0  0  0  0  0  0  0  0
   -6.6254   16.0124  -32.4282 H   0  0  0  0  0  0  0  0  0  0  0  0
   -4.5650   17.0303  -33.3830 H   0  0  0  0  0  0  0  0  0  0  0  0
   -4.4268   19.4788  -33.7968 H   0  0  0  0  0  0  0  0  0  0  0  0
   -4.2529   22.6234  -32.4128 H   0  0  0  0  0  0  0  0  0  0  0  0
   -1.9920   25.6740  -29.8130 H   0  0  0  0  0  0  0  0  0  0  0  0
  1  2  1  0
  2  3  1  0
  3  4  1  0
  4  5  1  0
  5  6  2  0
  6  7  1  0
  7  8  1  0
  8  9  1  0
  8 10  2  0
 10 11  1  0
 11 12  2  0
 12 13  1  0
 13 14  2  0
 14 15  1  0
 15 16  2  0
 16 17  1  0
 17 18  1  0
 18 19  1  0
 19 20  2  0
 20 21  1  0
 21 22  2  0
 22 23  1  0
 23 24  2  0
 17 25  2  0
 11 26  1  0
 26  6  1  0
 25 13  1  0
 24 19  1  0
  1 27  1  0
  1 28  1  0
  1 29  1  0
  2 30  1  0
  2 31  1  0
  3 32  1  0
  3 33  1  0
  4 34  1  0
  4 35  1  0
  7 36  1  0
  9 37  1  0
  9 38  1  0
  9 39  1  0
 10 40  1  0
 14 41  1  0
 15 42  1  0
 16 43  1  0
 20 44  1  0
 21 45  1  0
 22 46  1  0
 23 47  1  0
 24 48  1  0
 25 49  1  0
 26 50  1  0
M  END
>  <smiles>  (22) 
CCCCN=c1[nH]c(C)cc(=Nc2cccc(Oc3ccccc3)c2)[nH]1

>  <score_type>  (22) 
oracle

>  <origin>  (22) 
adgpu

>  <m_score__min__energy>  (22) 
-9.6300000000000008

>  <m_primary>  (22) 
energy

$$$$
22:0
     RDKit          3D

 26 27  0  0  1  0  0  0  0  0999 V2000
   -4.9110   24.8250  -28.2460 N   0  0  0  0  0  0  0  0  0  0  0  0
   -5.1720   25.1440  -29.9350 S   0  0  0  0  0  0  0  0  0  0  0  0
   -3.8650   25.2830  -30.6630 O   0  0  0  0  0  0  0  0  0  0  0  0
   -5.8680   26.4860  -30.0990 O   0  0  0  0  0  0  0  0  0  0  0  0
   -6.0870   23.8780  -30.6870 C   0  0  0  0  0  0  0  0  0  0  0  0
   -6.7930   23.0140  -29.8440 C   0  0  0  0  0  0  0  0  0  0  0  0
   -7.5370   21.9880  -30.4160 C   0  0  0  0  0  0  0  0  0  0  0  0
   -7.6010   21.7990  -31.7860 C   0  0  0  0  0  0  0  0  0  0  0  0
   -8.3710   20.7400  -32.3450 N   0  0  0  0  0  0  0  0  0  0  0  0
   -7.8050   19.6060  -32.5670 C   0  0  0  0  0  0  0  0  0  0  0  0
   -8.4330   18.5380  -33.0920 N   0  0  0  0  0  0  0  0  0  0  0  0
   -7.5960   17.5160  -33.2020 N   0  0  0  0  0  0  0  0  0  0  0  0
   -6.3860   17.8770  -32.7540 C   0  0  0  0  0  0  0  0  0  0  0  0
   -6.5040   19.2010  -32.3470 C   0  0  0  0  0  0  0  0  0  0  0  0
   -5.1480   20.3060  -31.6130 Br  0  0  0  0  0  0  0  0  0  0  0  0
   -6.8880   22.6750  -32.6070 C   0  0  0  0  0  0  0  0  0  0  0  0
   -6.1360   23.7090  -32.0490 C   0  0  0  0  0  0  0  0  0  0  0  0
   -5.6920   24.1730  -27.9360 H   0  0  0  0  0  0  0  0  0  0  0  0
   -5.0490   25.7180  -27.7050 H   0  0  0  0  0  0  0  0  0  0  0  0
   -6.7605   23.1432  -28.7521 H   0  0  0  0  0  0  0  0  0  0  0  0
   -8.0931   21.3039  -29.7582 H   0  0  0  0  0  0  0  0  0  0  0  0
   -9.4560   18.5250  -33.3740 H   0  0  0  0  0  0  0  0  0  0  0  0
   -7.8320   16.5830  -33.5750 H   0  0  0  0  0  0  0  0  0  0  0  0
   -5.4817   17.2519  -32.7159 H   0  0  0  0  0  0  0  0  0  0  0  0
   -6.9195   22.5491  -33.6993 H   0  0  0  0  0  0  0  0  0  0  0  0
   -5.5783   24.3939  -32.7046 H   0  0  0  0  0  0  0  0  0  0  0  0
  1  2  1  0
  2  3  2  0
  2  4  2  0
  2  5  1  0
  5  6  2  0
  6  7  1  0
  7  8  2  0
  8  9  1  0
  9 10  2  0
 10 11  1  0
 11 12  1  0
 12 13  1  0
 13 14  2  0
 14 15  1  0
  8 16  1  0
 16 17  2  0
 17  5  1  0
 14 10  1  0
  1 18  1  0
  1 19  1  0
  6 20  1  0
  7 21  1  0
 11 22  1  0
 12 23  1  0
 13 24  1  0
 16 25  1  0
 17 26  1  0
M  END
>  <smiles>  (23) 
NS(=O)(=O)c1ccc(N=c2[nH][nH]cc2Br)cc1

>  <score_type>  (23) 
oracle

>  <origin>  (23) 
adgpu

>  <m_score__min__energy>  (23) 
-7.8700000000000001

>  <m_primary>  (23) 
energy

$$$$
23:0
     RDKit          3D

 47 49  0  0  0  0  0  0  0  0999 V2000
   -1.5460   16.6640  -33.3390 C   0  0  0  0  0  0  0  0  0  0  0  0
   -3.0530   16.6310  -33.2840 C   0  0  0  0  0  0  0  0  0  0  0  0
   -3.6770   15.4910  -32.7530 C   0  0  0  0  0  0  0  0  0  0  0  0
   -5.0640   15.4090  -32.6830 C   0  0  0  0  0  0  0  0  0  0  0  0
   -5.8510   16.4520  -33.1600 C   0  0  0  0  0  0  0  0  0  0  0  0
   -5.2640   17.6070  -33.7030 C   0  0  0  0  0  0  0  0  0  0  0  0
   -6.1620   18.6500  -34.2540 C   0  0  0  0  0  0  0  0  0  0  0  0
   -6.1140   18.9270  -35.4840 O   0  0  0  0  0  0  0  0  0  0  0  0
   -7.0000   19.4150  -33.3770 N   0  0  0  0  0  0  0  0  0  0  0  0
   -6.6110   20.5610  -32.6080 C   0  0  0  0  0  0  0  0  0  0  0  0
   -5.3000   21.0380  -32.7300 C   0  0  0  0  0  0  0  0  0  0  0  0
   -4.8730   22.1400  -31.9820 C   0  0  0  0  0  0  0  0  0  0  0  0
   -5.7540   22.7710  -31.0940 C   0  0  0  0  0  0  0  0  0  0  0  0
   -5.2230   24.1490  -30.1350 S   0  0  0  0  0  0  0  0  0  0  0  0
   -4.6210   25.1940  -31.0320 O   0  0  0  0  0  0  0  0  0  0  0  0
   -6.4050   24.7360  -29.4150 O   0  0  0  0  0  0  0  0  0  0  0  0
   -4.0410   23.6120  -28.9900 N   0  0  0  0  0  0  0  0  0  0  0  0
   -2.9090   24.2220  -28.8210 C   0  0  0  0  0  0  0  0  0  0  0  0
   -2.5300   25.2930  -29.4780 O   0  0  0  0  0  0  0  0  0  0  0  0
   -1.3550   25.6860  -29.0750 N   0  0  0  0  0  0  0  0  0  0  0  0
   -0.9590   24.8270  -28.1110 C   0  0  0  0  0  0  0  0  0  0  0  0
    0.3340   24.9400  -27.3730 C   0  0  0  0  0  0  0  0  0  0  0  0
   -1.9270   23.8560  -27.9300 C   0  0  0  0  0  0  0  0  0  0  0  0
   -1.9610   22.7590  -26.9130 C   0  0  0  0  0  0  0  0  0  0  0  0
   -7.0560   22.2780  -30.9430 C   0  0  0  0  0  0  0  0  0  0  0  0
   -7.4830   21.1760  -31.6910 C   0  0  0  0  0  0  0  0  0  0  0  0
   -3.8460   17.7280  -33.7180 C   0  0  0  0  0  0  0  0  0  0  0  0
   -3.1860   19.0060  -34.1950 C   0  0  0  0  0  0  0  0  0  0  0  0
   -1.1419   16.6728  -32.3160 H   0  0  0  0  0  0  0  0  0  0  0  0
   -1.1789   15.7737  -33.8706 H   0  0  0  0  0  0  0  0  0  0  0  0
   -1.2182   17.5695  -33.8706 H   0  0  0  0  0  0  0  0  0  0  0  0
   -3.0630   14.6542  -32.3886 H   0  0  0  0  0  0  0  0  0  0  0  0
   -5.5396   14.5170  -32.2493 H   0  0  0  0  0  0  0  0  0  0  0  0
   -6.9470   16.3714  -33.1114 H   0  0  0  0  0  0  0  0  0  0  0  0
   -4.6007   20.5422  -33.4194 H   0  0  0  0  0  0  0  0  0  0  0  0
   -3.8436   22.5120  -32.0911 H   0  0  0  0  0  0  0  0  0  0  0  0
    0.1409   24.9231  -26.2902 H   0  0  0  0  0  0  0  0  0  0  0  0
    0.9851   24.0953  -27.6425 H   0  0  0  0  0  0  0  0  0  0  0  0
    0.8287   25.8848  -27.6425 H   0  0  0  0  0  0  0  0  0  0  0  0
   -1.9475   23.1947  -25.9031 H   0  0  0  0  0  0  0  0  0  0  0  0
   -2.8780   22.1657  -27.0441 H   0  0  0  0  0  0  0  0  0  0  0  0
   -1.0825   22.1101  -27.0441 H   0  0  0  0  0  0  0  0  0  0  0  0
   -7.7454   22.7592  -30.2336 H   0  0  0  0  0  0  0  0  0  0  0  0
   -8.5044   20.7887  -31.5618 H   0  0  0  0  0  0  0  0  0  0  0  0
   -2.8765   19.6053  -33.3260 H   0  0  0  0  0  0  0  0  0  0  0  0
   -2.3032   18.7581  -34.8026 H   0  0  0  0  0  0  0  0  0  0  0  0
   -3.8992   19.5823  -34.8026 H   0  0  0  0  0  0  0  0  0  0  0  0
  1  2  1  0
  2  3  2  0
  3  4  1  0
  4  5  2  0
  5  6  1  0
  6  7  1  0
  7  8  2  0
  7  9  1  0
  9 10  1  0
 10 11  2  0
 11 12  1  0
 12 13  2  0
 13 14  1  0
 14 15  2  0
 14 16  2  0
 14 17  1  0
 17 18  2  3
 18 19  1  0
 19 20  1  0
 20 21  1  0
 21 22  1  0
 21 23  2  0
 23 24  1  0
 13 25  1  0
 25 26  2  0
  6 27  2  0
 27 28  1  0
 27  2  1  0
 26 10  1  0
 23 18  1  0
  1 29  1  0
  1 30  1  0
  1 31  1  0
  3 32  1  0
  4 33  1  0
  5 34  1  0
 11 35  1  0
 12 36  1  0
 22 37  1  0
 22 38  1  0
 22 39  1  0
 24 40  1  0
 24 41  1  0
 24 42  1  0
 25 43  1  0
 26 44  1  0
 28 45  1  0
 28 46  1  0
 28 47  1  0
M  CHG  2   9  -1  20  -1
M  END
>  <UniqueID>  (24) 
22

>  <SMILES>  (24) 
Cc1cccc(C(=O)[N-]c2ccc(S(=O)(=O)N=c3o[n-]c(C)c3C)cc2)c1C

>  <Energy>  (24) 
92.50777630453214

>  <Genealogy>  (24) 
Cc1cccc(C(=O)[N-]c2ccc(S(=O)(=O)N=c3o[n-]c(C)c3C)cc2)c1C (protonated)
Cc1cccc(C(=O)[N-]c2ccc(S(=O)(=O)N=c3o[n-]c(C)c3C)cc2)c1C (3D coordinates assigned)
Cc1cccc(C(=O)[N-]c2ccc(S(=O)(=O)N=c3o[n-]c(C)c3C)cc2)c1C (optimized conformer: 92.50777630453214 kcal/mol)

>  <smiles>  (24) 
Cc1cccc(C(=O)Nc2ccc(S(=O)(=O)N=c3o[nH]c(C)c3C)cc2)c1C

>  <score_type>  (24) 
oracle

>  <origin>  (24) 
adgpu

>  <m_score__min__energy>  (24) 
-12.49

>  <m_primary>  (24) 
energy

$$$$
24:0
     RDKit          3D

 31 32  0  0  0  0  0  0  0  0999 V2000
   -5.8820   18.1440  -34.2420 C   0  0  0  0  0  0  0  0  0  0  0  0
   -5.1680   19.3690  -34.1090 O   0  0  0  0  0  0  0  0  0  0  0  0
   -5.4910   20.3800  -33.1900 C   0  0  0  0  0  0  0  0  0  0  0  0
   -4.5240   20.9940  -32.3730 C   0  0  0  0  0  0  0  0  0  0  0  0
   -4.8850   22.0100  -31.4780 C   0  0  0  0  0  0  0  0  0  0  0  0
   -3.8780   22.6040  -30.6400 N   0  0  0  0  0  0  0  0  0  0  0  0
   -3.8580   23.9950  -30.2780 C   0  0  0  0  0  0  0  0  0  0  0  0
   -4.5390   24.8310  -30.9310 O   0  0  0  0  0  0  0  0  0  0  0  0
   -3.0140   24.4770  -29.1720 C   0  0  0  0  0  0  0  0  0  0  0  0
   -3.1500   24.1620  -27.8310 C   0  0  0  0  0  0  0  0  0  0  0  0
   -2.1440   24.8510  -27.1850 C   0  0  0  0  0  0  0  0  0  0  0  0
   -1.4610   25.5410  -28.1660 C   0  0  0  0  0  0  0  0  0  0  0  0
   -2.0030   25.2990  -29.3360 O   0  0  0  0  0  0  0  0  0  0  0  0
   -6.2360   22.3880  -31.3780 C   0  0  0  0  0  0  0  0  0  0  0  0
   -7.2090   21.7860  -32.1830 C   0  0  0  0  0  0  0  0  0  0  0  0
   -8.5390   22.2080  -32.0420 O   0  0  0  0  0  0  0  0  0  0  0  0
   -9.4970   21.5790  -31.1980 C   0  0  0  0  0  0  0  0  0  0  0  0
   -6.8270   20.7850  -33.0930 C   0  0  0  0  0  0  0  0  0  0  0  0
   -6.1146   17.7449  -33.2437 H   0  0  0  0  0  0  0  0  0  0  0  0
   -6.8174   18.3227  -34.7925 H   0  0  0  0  0  0  0  0  0  0  0  0
   -5.2655   17.4182  -34.7925 H   0  0  0  0  0  0  0  0  0  0  0  0
   -3.4738   20.6732  -32.4375 H   0  0  0  0  0  0  0  0  0  0  0  0
   -3.0630   22.0110  -30.3670 H   0  0  0  0  0  0  0  0  0  0  0  0
   -3.9023   23.5010  -27.3758 H   0  0  0  0  0  0  0  0  0  0  0  0
   -1.9297   24.8504  -26.1061 H   0  0  0  0  0  0  0  0  0  0  0  0
   -0.5935   26.1949  -27.9930 H   0  0  0  0  0  0  0  0  0  0  0  0
   -6.5310   23.1660  -30.6585 H   0  0  0  0  0  0  0  0  0  0  0  0
   -9.2297   21.7545  -30.1455 H   0  0  0  0  0  0  0  0  0  0  0  0
  -10.4938   21.9990  -31.3981 H   0  0  0  0  0  0  0  0  0  0  0  0
   -9.5079   20.4974  -31.3981 H   0  0  0  0  0  0  0  0  0  0  0  0
   -7.5862   20.3151  -33.7356 H   0  0  0  0  0  0  0  0  0  0  0  0
  1  2  1  0
  2  3  1  0
  3  4  2  0
  4  5  1  0
  5  6  1  0
  6  7  1  0
  7  8  2  0
  7  9  1  0
  9 10  2  0
 10 11  1  0
 11 12  2  0
 12 13  1  0
  5 14  2  0
 14 15  1  0
 15 16  1  0
 16 17  1  0
 15 18  2  0
 18  3  1  0
 13  9  1  0
  1 19  1  0
  1 20  1  0
  1 21  1  0
  4 22  1  0
  6 23  1  0
 10 24  1  0
 11 25  1  0
 12 26  1  0
 14 27  1  0
 17 28  1  0
 17 29  1  0
 17 30  1  0
 18 31  1  0
M  END
>  <UniqueID>  (25) 
23

>  <SMILES>  (25) 
COc1cc(NC(=O)c2ccco2)cc(OC)c1

>  <Energy>  (25) 
58.82164492536279

>  <Genealogy>  (25) 
COc1cc(NC(=O)c2ccco2)cc(OC)c1 (3D coordinates assigned)
COc1cc(NC(=O)c2ccco2)cc(OC)c1 (optimized conformer: 58.82164492536279 kcal/mol)

>  <smiles>  (25) 
COc1cc(NC(=O)c2ccco2)cc(OC)c1

>  <score_type>  (25) 
oracle

>  <origin>  (25) 
adgpu

>  <m_score__min__energy>  (25) 
-6.25

>  <m_primary>  (25) 
energy

$$$$
25:0
     RDKit          3D

 29 31  0  0  0  0  0  0  0  0999 V2000
   -7.6900   18.1730  -30.8450 O   0  0  0  0  0  0  0  0  0  0  0  0
   -6.7620   17.7990  -31.6060 C   0  0  0  0  0  0  0  0  0  0  0  0
   -6.0380   16.6880  -31.3490 N   0  0  0  0  0  0  0  0  0  0  0  0
   -5.1500   16.5610  -32.3190 N   0  0  0  0  0  0  0  0  0  0  0  0
   -5.2870   17.5830  -33.2120 C   0  0  0  0  0  0  0  0  0  0  0  0
   -4.4440   17.7390  -34.4240 C   0  0  0  0  0  0  0  0  0  0  0  0
   -5.2530   17.8230  -35.5660 F   0  0  0  0  0  0  0  0  0  0  0  0
   -3.6390   18.8430  -34.3500 F   0  0  0  0  0  0  0  0  0  0  0  0
   -3.6460   16.6140  -34.5910 F   0  0  0  0  0  0  0  0  0  0  0  0
   -6.3100   18.3930  -32.7840 C   0  0  0  0  0  0  0  0  0  0  0  0
   -6.8460   19.6090  -33.4010 C   0  0  0  0  0  0  0  0  0  0  0  0
   -6.3250   20.8720  -32.8420 C   0  0  0  0  0  0  0  0  0  0  0  0
   -4.9610   21.1260  -32.8920 C   0  0  0  0  0  0  0  0  0  0  0  0
   -4.4130   22.2960  -32.3800 C   0  0  0  0  0  0  0  0  0  0  0  0
   -5.2240   23.2460  -31.8010 C   0  0  0  0  0  0  0  0  0  0  0  0
   -6.5810   23.0210  -31.7360 C   0  0  0  0  0  0  0  0  0  0  0  0
   -7.1050   21.8440  -32.2560 C   0  0  0  0  0  0  0  0  0  0  0  0
   -7.1280   24.1400  -31.1070 O   0  0  0  0  0  0  0  0  0  0  0  0
   -6.0880   24.8470  -30.4300 C   0  0  0  0  0  0  0  0  0  0  0  0
   -4.9430   24.4920  -31.2150 O   0  0  0  0  0  0  0  0  0  0  0  0
   -6.1530   16.0300  -30.5240 H   0  0  0  0  0  0  0  0  0  0  0  0
   -4.4340   15.7810  -32.3980 H   0  0  0  0  0  0  0  0  0  0  0  0
   -6.6022   19.5839  -34.4734 H   0  0  0  0  0  0  0  0  0  0  0  0
   -7.9274   19.6058  -33.1997 H   0  0  0  0  0  0  0  0  0  0  0  0
   -4.2950   20.3798  -33.3500 H   0  0  0  0  0  0  0  0  0  0  0  0
   -3.3274   22.4637  -32.4376 H   0  0  0  0  0  0  0  0  0  0  0  0
   -8.1913   21.6813  -32.1970 H   0  0  0  0  0  0  0  0  0  0  0  0
   -6.2645   25.9326  -30.4450 H   0  0  0  0  0  0  0  0  0  0  0  0
   -5.9957   24.5954  -29.3631 H   0  0  0  0  0  0  0  0  0  0  0  0
  1  2  2  0
  2  3  1  0
  3  4  1  0
  4  5  1  0
  5  6  1  0
  6  7  1  0
  6  8  1  0
  6  9  1  0
  5 10  2  0
 10 11  1  0
 11 12  1  0
 12 13  2  0
 13 14  1  0
 14 15  2  0
 15 16  1  0
 16 17  2  0
 16 18  1  0
 18 19  1  0
 19 20  1  0
 10  2  1  0
 17 12  1  0
 20 15  1  0
  3 21  1  0
  4 22  1  0
 11 23  1  0
 11 24  1  0
 13 25  1  0
 14 26  1  0
 17 27  1  0
 19 28  1  0
 19 29  1  0
M  END
>  <smiles>  (26) 
O=c1[nH][nH]c(C(F)(F)F)c1Cc1ccc2c(c1)OCO2

>  <score_type>  (26) 
oracle

>  <origin>  (26) 
adgpu

>  <m_score__min__energy>  (26) 
-6.0700000000000003

>  <m_primary>  (26) 
energy

$$$$
26:0
     RDKit          3D

 45 46  0  0  0  0  0  0  0  0999 V2000
   -5.0986   26.6299  -31.3401 H   0  0  0  0  0  0  0  0  0  0  0  0
   -5.0260   25.6580  -30.8300 C   0  0  0  0  0  0  0  0  0  0  0  0
   -3.8550   25.2790  -30.2550 N   0  0  0  0  0  0  0  0  0  0  0  0
   -3.7220   24.0840  -29.6100 C   0  0  0  0  0  0  0  0  0  0  0  0
   -2.5930   23.7440  -29.0610 N   0  0  0  0  0  0  0  0  0  0  0  0
   -1.3940   24.5770  -29.0750 C   0  0  0  0  0  0  0  0  0  0  0  0
   -1.4169   25.2364  -29.9552 H   0  0  0  0  0  0  0  0  0  0  0  0
   -0.5032   23.9332  -29.1194 H   0  0  0  0  0  0  0  0  0  0  0  0
   -1.3430   25.4220  -27.8110 C   0  0  0  0  0  0  0  0  0  0  0  0
   -1.3826   24.7655  -26.9292 H   0  0  0  0  0  0  0  0  0  0  0  0
   -0.4082   26.0016  -27.7949 H   0  0  0  0  0  0  0  0  0  0  0  0
   -2.2013   26.1098  -27.7949 H   0  0  0  0  0  0  0  0  0  0  0  0
   -4.8150   23.2150  -29.5330 C   0  0  0  0  0  0  0  0  0  0  0  0
   -4.7195   22.2523  -29.0094 H   0  0  0  0  0  0  0  0  0  0  0  0
   -6.0330   23.5760  -30.1260 C   0  0  0  0  0  0  0  0  0  0  0  0
   -7.2310   22.6730  -30.0180 C   0  0  0  0  0  0  0  0  0  0  0  0
   -7.0061   21.8521  -29.3211 H   0  0  0  0  0  0  0  0  0  0  0  0
   -8.0879   23.2547  -29.6474 H   0  0  0  0  0  0  0  0  0  0  0  0
   -7.5640   22.1130  -31.3390 N   0  0  0  0  0  0  0  0  0  0  0  0
   -6.6040   21.2940  -32.0540 C   0  0  0  0  0  0  0  0  0  0  0  0
   -5.3530   21.7760  -32.2890 N   0  0  0  0  0  0  0  0  0  0  0  0
   -4.4160   21.0470  -32.9470 C   0  0  0  0  0  0  0  0  0  0  0  0
   -3.0680   21.6280  -33.2130 C   0  0  0  0  0  0  0  0  0  0  0  0
   -2.5669   21.8440  -32.2579 H   0  0  0  0  0  0  0  0  0  0  0  0
   -2.4661   20.9094  -33.7886 H   0  0  0  0  0  0  0  0  0  0  0  0
   -3.1771   22.5590  -33.7886 H   0  0  0  0  0  0  0  0  0  0  0  0
   -4.7280   19.8100  -33.4120 N   0  0  0  0  0  0  0  0  0  0  0  0
   -5.9580   19.2620  -33.2170 C   0  0  0  0  0  0  0  0  0  0  0  0
   -6.2360   17.9400  -33.7390 N   0  0  0  0  0  0  0  0  0  0  0  0
   -5.5710   17.5090  -34.9740 C   0  0  0  0  0  0  0  0  0  0  0  0
   -4.6724   16.9266  -34.7225 H   0  0  0  0  0  0  0  0  0  0  0  0
   -6.2595   16.8850  -35.5626 H   0  0  0  0  0  0  0  0  0  0  0  0
   -5.2826   18.3924  -35.5626 H   0  0  0  0  0  0  0  0  0  0  0  0
   -7.1710   17.0320  -33.0610 C   0  0  0  0  0  0  0  0  0  0  0  0
   -7.0610   17.1388  -31.9717 H   0  0  0  0  0  0  0  0  0  0  0  0
   -8.2017   17.2830  -33.3518 H   0  0  0  0  0  0  0  0  0  0  0  0
   -6.9503   15.9943  -33.3518 H   0  0  0  0  0  0  0  0  0  0  0  0
   -6.9280   20.0070  -32.5210 C   0  0  0  0  0  0  0  0  0  0  0  0
   -7.9293   19.5874  -32.3439 H   0  0  0  0  0  0  0  0  0  0  0  0
   -8.8520   22.4740  -31.9430 C   0  0  0  0  0  0  0  0  0  0  0  0
   -9.5847   22.6794  -31.1487 H   0  0  0  0  0  0  0  0  0  0  0  0
   -8.7259   23.3714  -32.5665 H   0  0  0  0  0  0  0  0  0  0  0  0
   -9.2107   21.6418  -32.5665 H   0  0  0  0  0  0  0  0  0  0  0  0
   -6.1370   24.8150  -30.7740 C   0  0  0  0  0  0  0  0  0  0  0  0
   -7.0878   25.1206  -31.2351 H   0  0  0  0  0  0  0  0  0  0  0  0
  1  2  1  0
  2  3  1  0
  3  4  1  0
  4  5  2  0
  5  6  1  0
  6  7  1  0
  6  8  1  0
  6  9  1  0
  9 10  1  0
  9 11  1  0
  9 12  1  0
  4 13  1  0
 13 14  1  0
 13 15  2  0
 15 16  1  0
 16 17  1  0
 16 18  1  0
 16 19  1  0
 19 20  1  0
 20 21  2  0
 21 22  1  0
 22 23  1  0
 23 24  1  0
 23 25  1  0
 23 26  1  0
 22 27  2  0
 27 28  1  0
 28 29  1  0
 29 30  1  0
 30 31  1  0
 30 32  1  0
 30 33  1  0
 29 34  1  0
 34 35  1  0
 34 36  1  0
 34 37  1  0
 28 38  2  0
 38 39  1  0
 19 40  1  0
 40 41  1  0
 40 42  1  0
 40 43  1  0
 15 44  1  0
 44 45  1  0
 44  2  2  0
 38 20  1  0
M  CHG  1   3  -1
M  END
>  <UniqueID>  (27) 
24

>  <SMILES>  (27) 
CC/N=c1/cc(CN(C)c2cc(N(C)C)nc(C)n2)cc[n-]1

>  <Energy>  (27) 
38.937073323803034

>  <Genealogy>  (27) 
CCN=c1cc(CN(C)c2cc(N(C)C)nc(C)n2)cc[n-]1 (protonated)
CC/N=c1/cc(CN(C)c2cc(N(C)C)nc(C)n2)cc[n-]1 (cis-trans isomerization)
CC/N=c1/cc(CN(C)c2cc(N(C)C)nc(C)n2)cc[n-]1 (3D coordinates assigned)
CC/N=c1/cc(CN(C)c2cc(N(C)C)nc(C)n2)cc[n-]1 (optimized conformer: 38.937073323803034 kcal/mol)

>  <smiles>  (27) 
CCN=c1cc(CN(C)c2cc(N(C)C)nc(C)n2)cc[nH]1

>  <score_type>  (27) 
oracle

>  <origin>  (27) 
adgpu

>  <m_score__min__energy>  (27) 
-8.4100000000000001

>  <m_primary>  (27) 
energy

$$$$
27:0
     RDKit          3D

 54 58  0  0  0  0  0  0  0  0999 V2000
   -2.3372   22.1731  -27.0602 H   0  0  0  0  0  0  0  0  0  0  0  0
   -2.2320   23.1240  -27.6030 C   0  0  0  0  0  0  0  0  0  0  0  0
   -3.0340   23.3940  -28.6660 N   0  0  0  0  0  0  0  0  0  0  0  0
   -2.9220   24.5650  -29.3530 C   0  0  0  0  0  0  0  0  0  0  0  0
   -3.6910   24.8220  -30.3650 N   0  0  0  0  0  0  0  0  0  0  0  0
   -4.9170   23.7390  -30.9430 S   0  0  0  0  0  0  0  0  0  0  0  0
   -5.8180   23.3550  -29.8030 O   0  0  0  0  0  0  0  0  0  0  0  0
   -5.7420   24.4310  -31.9930 O   0  0  0  0  0  0  0  0  0  0  0  0
   -4.1690   22.2850  -31.5950 C   0  0  0  0  0  0  0  0  0  0  0  0
   -4.0400   22.1060  -32.9800 C   0  0  0  0  0  0  0  0  0  0  0  0
   -4.4054   22.8808  -33.6701 H   0  0  0  0  0  0  0  0  0  0  0  0
   -3.4480   20.9450  -33.4850 C   0  0  0  0  0  0  0  0  0  0  0  0
   -3.3243   20.8194  -34.5708 H   0  0  0  0  0  0  0  0  0  0  0  0
   -3.0110   19.9390  -32.6090 C   0  0  0  0  0  0  0  0  0  0  0  0
   -2.4100   18.7390  -33.1130 N   0  0  0  0  0  0  0  0  0  0  0  0
   -2.9270   17.8100  -33.8820 C   0  0  0  0  0  0  0  0  0  0  0  0
   -4.3140   17.7150  -34.2010 C   0  0  0  0  0  0  0  0  0  0  0  0
   -5.3830   18.4490  -33.4940 C   0  0  0  0  0  0  0  0  0  0  0  0
   -6.0950   19.4740  -34.1420 C   0  0  0  0  0  0  0  0  0  0  0  0
   -5.8535   19.7367  -35.1825 H   0  0  0  0  0  0  0  0  0  0  0  0
   -7.1090   20.1600  -33.4670 C   0  0  0  0  0  0  0  0  0  0  0  0
   -7.6781   20.9466  -33.9841 H   0  0  0  0  0  0  0  0  0  0  0  0
   -7.4010   19.8480  -32.1360 C   0  0  0  0  0  0  0  0  0  0  0  0
   -8.2077   20.3801  -31.6106 H   0  0  0  0  0  0  0  0  0  0  0  0
   -6.6680   18.8600  -31.4730 C   0  0  0  0  0  0  0  0  0  0  0  0
   -6.8892   18.6245  -30.4215 H   0  0  0  0  0  0  0  0  0  0  0  0
   -5.6530   18.1700  -32.1450 C   0  0  0  0  0  0  0  0  0  0  0  0
   -5.0649   17.4066  -31.6146 H   0  0  0  0  0  0  0  0  0  0  0  0
   -4.7130   16.8060  -35.1270 N   0  0  0  0  0  0  0  0  0  0  0  0
   -3.8660   15.9580  -35.7040 N   0  0  0  0  0  0  0  0  0  0  0  0
   -2.5500   15.9250  -35.3800 C   0  0  0  0  0  0  0  0  0  0  0  0
   -1.6920   14.9170  -36.0450 C   0  0  0  0  0  0  0  0  0  0  0  0
   -0.8570   15.3030  -37.1080 C   0  0  0  0  0  0  0  0  0  0  0  0
   -0.8300   16.3552  -37.4277 H   0  0  0  0  0  0  0  0  0  0  0  0
   -0.0610   14.3580  -37.7610 C   0  0  0  0  0  0  0  0  0  0  0  0
    0.5983   14.6704  -38.5843 H   0  0  0  0  0  0  0  0  0  0  0  0
   -0.1010   13.0170  -37.3700 C   0  0  0  0  0  0  0  0  0  0  0  0
    0.5297   12.2753  -37.8819 H   0  0  0  0  0  0  0  0  0  0  0  0
   -0.9430   12.6190  -36.3280 C   0  0  0  0  0  0  0  0  0  0  0  0
   -0.9779   11.5626  -36.0234 H   0  0  0  0  0  0  0  0  0  0  0  0
   -1.7410   13.5610  -35.6720 C   0  0  0  0  0  0  0  0  0  0  0  0
   -2.4106   13.2406  -34.8602 H   0  0  0  0  0  0  0  0  0  0  0  0
   -2.0520   16.8610  -34.4510 C   0  0  0  0  0  0  0  0  0  0  0  0
   -0.6320   16.9280  -34.1650 C   0  0  0  0  0  0  0  0  0  0  0  0
    0.5020   16.9830  -33.9370 N   0  0  0  0  0  0  0  0  0  0  0  0
   -3.0830   20.1470  -31.2270 C   0  0  0  0  0  0  0  0  0  0  0  0
   -2.6739   19.3942  -30.5371 H   0  0  0  0  0  0  0  0  0  0  0  0
   -3.6730   21.3080  -30.7210 C   0  0  0  0  0  0  0  0  0  0  0  0
   -3.7485   21.4557  -29.6336 H   0  0  0  0  0  0  0  0  0  0  0  0
   -1.9910   25.4810  -28.9720 N   0  0  0  0  0  0  0  0  0  0  0  0
   -1.1700   25.2490  -27.9150 C   0  0  0  0  0  0  0  0  0  0  0  0
   -0.4232   26.0017  -27.6221 H   0  0  0  0  0  0  0  0  0  0  0  0
   -1.2750   24.0560  -27.2020 C   0  0  0  0  0  0  0  0  0  0  0  0
   -0.6183   23.8542  -26.3429 H   0  0  0  0  0  0  0  0  0  0  0  0
  1  2  1  0
  2  3  2  0
  3  4  1  0
  4  5  2  3
  5  6  1  0
  6  7  2  0
  6  8  2  0
  6  9  1  0
  9 10  2  0
 10 11  1  0
 10 12  1  0
 12 13  1  0
 12 14  2  0
 14 15  1  0
 15 16  2  0
 16 17  1  0
 17 18  1  0
 18 19  2  0
 19 20  1  0
 19 21  1  0
 21 22  1  0
 21 23  2  0
 23 24  1  0
 23 25  1  0
 25 26  1  0
 25 27  2  0
 27 28  1  0
 17 29  2  0
 29 30  1  0
 30 31  1  0
 31 32  1  0
 32 33  2  0
 33 34  1  0
 33 35  1  0
 35 36  1  0
 35 37  2  0
 37 38  1  0
 37 39  1  0
 39 40  1  0
 39 41  2  0
 41 42  1  0
 31 43  2  0
 43 44  1  0
 44 45  3  0
 14 46  1  0
 46 47  1  0
 46 48  2  0
 48 49  1  0
  4 50  1  0
 50 51  1  0
 51 52  1  0
 51 53  2  0
 53 54  1  0
 53  2  1  0
 48  9  1  0
 43 16  1  0
 27 18  1  0
 41 32  1  0
M  CHG  2  30  -1  50  -1
M  END
>  <UniqueID>  (28) 
25

>  <SMILES>  (28) 
N#Cc1c(-c2ccccc2)[n-]nc(-c2ccccc2)/c1=N\c1ccc(S(=O)(=O)N=c2nccc[n-]2)cc1

>  <Energy>  (28) 
94.02544964872337

>  <Genealogy>  (28) 
N#Cc1c(-c2ccccc2)[n-]nc(-c2ccccc2)c1=Nc1ccc(S(=O)(=O)N=c2nccc[n-]2)cc1 (protonated)
N#Cc1c(-c2ccccc2)[n-]nc(-c2ccccc2)/c1=N\c1ccc(S(=O)(=O)N=c2nccc[n-]2)cc1 (cis-trans isomerization)
N#Cc1c(-c2ccccc2)[n-]nc(-c2ccccc2)/c1=N\c1ccc(S(=O)(=O)N=c2nccc[n-]2)cc1 (3D coordinates assigned)
N#Cc1c(-c2ccccc2)[n-]nc(-c2ccccc2)/c1=N\c1ccc(S(=O)(=O)N=c2nccc[n-]2)cc1 (optimized conformer: 94.02544964872337 kcal/mol)

>  <smiles>  (28) 
N#Cc1c(-c2ccccc2)[nH]nc(-c2ccccc2)c1=Nc1ccc(S(=O)(=O)N=c2nccc[nH]2)cc1

>  <score_type>  (28) 
oracle

>  <origin>  (28) 
adgpu

>  <m_score__min__energy>  (28) 
-10.039999999999999

>  <m_primary>  (28) 
energy

$$$$
28:0
     RDKit          3D

 34 35  0  0  0  0  0  0  0  0999 V2000
   -2.6400   19.3190  -26.6810 C   0  0  0  0  0  0  0  0  0  0  0  0
   -1.7930   20.4610  -26.5930 O   0  0  0  0  0  0  0  0  0  0  0  0
   -1.7060   21.4770  -27.5580 C   0  0  0  0  0  0  0  0  0  0  0  0
   -2.5370   21.4650  -28.6950 C   0  0  0  0  0  0  0  0  0  0  0  0
   -2.4550   22.4770  -29.6600 C   0  0  0  0  0  0  0  0  0  0  0  0
   -3.3210   22.4290  -30.8910 C   0  0  0  0  0  0  0  0  0  0  0  0
   -4.6180   23.1600  -30.6480 C   0  0  0  0  0  0  0  0  0  0  0  0
   -5.8220   22.4360  -30.5850 C   0  0  0  0  0  0  0  0  0  0  0  0
   -7.0290   23.0930  -30.3260 C   0  0  0  0  0  0  0  0  0  0  0  0
   -7.0440   24.4740  -30.1220 C   0  0  0  0  0  0  0  0  0  0  0  0
   -5.8540   25.2020  -30.1740 C   0  0  0  0  0  0  0  0  0  0  0  0
   -4.6410   24.5530  -30.4320 C   0  0  0  0  0  0  0  0  0  0  0  0
   -3.4680   25.2980  -30.4720 O   0  0  0  0  0  0  0  0  0  0  0  0
   -1.5250   23.5070  -29.4950 C   0  0  0  0  0  0  0  0  0  0  0  0
   -0.6920   23.5420  -28.3760 C   0  0  0  0  0  0  0  0  0  0  0  0
    0.2160   24.5940  -28.2550 O   0  0  0  0  0  0  0  0  0  0  0  0
   -0.7710   22.5340  -27.3930 C   0  0  0  0  0  0  0  0  0  0  0  0
    0.1010   22.6390  -26.2920 O   0  0  0  0  0  0  0  0  0  0  0  0
   -0.2560   22.9560  -24.9510 C   0  0  0  0  0  0  0  0  0  0  0  0
   -2.8962   18.9736  -25.6685 H   0  0  0  0  0  0  0  0  0  0  0  0
   -3.5603   19.5858  -27.2212 H   0  0  0  0  0  0  0  0  0  0  0  0
   -2.1175   18.5157  -27.2212 H   0  0  0  0  0  0  0  0  0  0  0  0
   -3.2618   20.6482  -28.8273 H   0  0  0  0  0  0  0  0  0  0  0  0
   -2.7883   22.9038  -31.7281 H   0  0  0  0  0  0  0  0  0  0  0  0
   -3.5421   21.3787  -31.1320 H   0  0  0  0  0  0  0  0  0  0  0  0
   -5.8143   21.3470  -30.7403 H   0  0  0  0  0  0  0  0  0  0  0  0
   -7.9676   22.5210  -30.2830 H   0  0  0  0  0  0  0  0  0  0  0  0
   -7.9947   24.9891  -29.9200 H   0  0  0  0  0  0  0  0  0  0  0  0
   -5.8697   26.2898  -30.0116 H   0  0  0  0  0  0  0  0  0  0  0  0
   -1.4488   24.2984  -30.2552 H   0  0  0  0  0  0  0  0  0  0  0  0
    0.8400   24.6870  -27.4630 H   0  0  0  0  0  0  0  0  0  0  0  0
    0.3826   22.3889  -24.2577 H   0  0  0  0  0  0  0  0  0  0  0  0
   -0.1169   24.0336  -24.7795 H   0  0  0  0  0  0  0  0  0  0  0  0
   -1.3096   22.6904  -24.7795 H   0  0  0  0  0  0  0  0  0  0  0  0
  1  2  1  0
  2  3  1  0
  3  4  2  0
  4  5  1  0
  5  6  1  0
  6  7  1  0
  7  8  2  0
  8  9  1  0
  9 10  2  0
 10 11  1  0
 11 12  2  0
 12 13  1  0
  5 14  2  0
 14 15  1  0
 15 16  1  0
 15 17  2  0
 17 18  1  0
 18 19  1  0
 17  3  1  0
 12  7  1  0
  1 20  1  0
  1 21  1  0
  1 22  1  0
  4 23  1  0
  6 24  1  0
  6 25  1  0
  8 26  1  0
  9 27  1  0
 10 28  1  0
 11 29  1  0
 14 30  1  0
 16 31  1  0
 19 32  1  0
 19 33  1  0
 19 34  1  0
M  CHG  1  13  -1
M  END
>  <UniqueID>  (29) 
26

>  <SMILES>  (29) 
COc1cc(Cc2ccccc2[O-])cc(O)c1OC

>  <Energy>  (29) 
35.81283726563711

>  <Genealogy>  (29) 
COc1cc(Cc2ccccc2[O-])cc(O)c1OC (protonated)
COc1cc(Cc2ccccc2[O-])cc(O)c1OC (3D coordinates assigned)
COc1cc(Cc2ccccc2[O-])cc(O)c1OC (optimized conformer: 35.81283726563711 kcal/mol)

>  <smiles>  (29) 
COc1cc(Cc2ccccc2O)cc(O)c1OC

>  <score_type>  (29) 
oracle

>  <origin>  (29) 
adgpu

>  <m_score__min__energy>  (29) 
-9.0199999999999996

>  <m_primary>  (29) 
energy

$$$$
29:0
     RDKit          3D

 45 48  0  0  0  0  0  0  0  0999 V2000
   -3.3350   21.3170  -32.9560 C   0  0  0  0  0  0  0  0  0  0  0  0
   -4.4650   20.3630  -33.2350 C   0  0  0  0  0  0  0  0  0  0  0  0
   -4.2270   19.2220  -34.0130 C   0  0  0  0  0  0  0  0  0  0  0  0
   -5.2400   18.3700  -34.3090 N   0  0  0  0  0  0  0  0  0  0  0  0
   -6.4970   18.5960  -33.8540 C   0  0  0  0  0  0  0  0  0  0  0  0
   -6.7540   19.6790  -33.0780 N   0  0  0  0  0  0  0  0  0  0  0  0
   -5.7750   20.5600  -32.7380 C   0  0  0  0  0  0  0  0  0  0  0  0
   -6.1380   21.7050  -31.8760 C   0  0  0  0  0  0  0  0  0  0  0  0
   -7.1410   22.6090  -32.2630 C   0  0  0  0  0  0  0  0  0  0  0  0
   -7.4560   23.7000  -31.4490 C   0  0  0  0  0  0  0  0  0  0  0  0
   -6.7610   23.9100  -30.2560 C   0  0  0  0  0  0  0  0  0  0  0  0
   -5.7330   23.0370  -29.8690 C   0  0  0  0  0  0  0  0  0  0  0  0
   -5.0210   23.2870  -28.6420 N   0  0  0  0  0  0  0  0  0  0  0  0
   -3.7340   22.7260  -28.3380 C   0  0  0  0  0  0  0  0  0  0  0  0
   -3.6850   21.5270  -27.6200 C   0  0  0  0  0  0  0  0  0  0  0  0
   -2.4660   20.9030  -27.3590 C   0  0  0  0  0  0  0  0  0  0  0  0
   -1.2620   21.4670  -27.8040 C   0  0  0  0  0  0  0  0  0  0  0  0
    0.0230   20.7170  -27.4890 C   0  0  0  0  0  0  0  0  0  0  0  0
    0.6960   19.9740  -28.6350 C   0  0  0  0  0  0  0  0  0  0  0  0
   -0.0240   19.1950  -27.5390 C   0  0  0  0  0  0  0  0  0  0  0  0
   -1.3060   22.6910  -28.5040 C   0  0  0  0  0  0  0  0  0  0  0  0
   -2.5290   23.3400  -28.7600 C   0  0  0  0  0  0  0  0  0  0  0  0
   -2.5140   24.6640  -29.4300 C   0  0  0  0  0  0  0  0  0  0  0  0
   -1.5730   25.6600  -29.0340 N   0  0  0  0  0  0  0  0  0  0  0  0
   -3.3450   24.9320  -30.3390 O   0  0  0  0  0  0  0  0  0  0  0  0
   -5.4320   21.9290  -30.6850 C   0  0  0  0  0  0  0  0  0  0  0  0
   -3.2066   21.4254  -31.8689 H   0  0  0  0  0  0  0  0  0  0  0  0
   -2.4068   20.9252  -33.3976 H   0  0  0  0  0  0  0  0  0  0  0  0
   -3.5656   22.2977  -33.3976 H   0  0  0  0  0  0  0  0  0  0  0  0
   -3.2128   19.0162  -34.3858 H   0  0  0  0  0  0  0  0  0  0  0  0
   -7.3090   17.9010  -34.1141 H   0  0  0  0  0  0  0  0  0  0  0  0
   -7.6801   22.4575  -33.2098 H   0  0  0  0  0  0  0  0  0  0  0  0
   -8.2537   24.3956  -31.7487 H   0  0  0  0  0  0  0  0  0  0  0  0
   -7.0213   24.7655  -29.6154 H   0  0  0  0  0  0  0  0  0  0  0  0
   -5.5200   23.7900  -27.8730 H   0  0  0  0  0  0  0  0  0  0  0  0
   -4.6182   21.0714  -27.2573 H   0  0  0  0  0  0  0  0  0  0  0  0
   -2.4486   19.9573  -26.7975 H   0  0  0  0  0  0  0  0  0  0  0  0
    0.3476   21.4606  -26.7463 H   0  0  0  0  0  0  0  0  0  0  0  0
    0.2687   20.0214  -29.6475 H   0  0  0  0  0  0  0  0  0  0  0  0
    1.7090   19.9582  -29.0634 H   0  0  0  0  0  0  0  0  0  0  0  0
   -0.9708   18.6807  -27.7608 H   0  0  0  0  0  0  0  0  0  0  0  0
    0.2542   18.3847  -26.8491 H   0  0  0  0  0  0  0  0  0  0  0  0
   -0.3685   23.1463  -28.8559 H   0  0  0  0  0  0  0  0  0  0  0  0
   -1.2390   26.3830  -29.7090 H   0  0  0  0  0  0  0  0  0  0  0  0
   -4.6352   21.2324  -30.3851 H   0  0  0  0  0  0  0  0  0  0  0  0
  1  2  1  0
  2  3  2  0
  3  4  1  0
  4  5  2  0
  5  6  1  0
  6  7  2  0
  7  8  1  0
  8  9  2  0
  9 10  1  0
 10 11  2  0
 11 12  1  0
 12 13  1  0
 13 14  1  0
 14 15  2  0
 15 16  1  0
 16 17  2  0
 17 18  1  0
 18 19  1  0
 19 20  1  0
 17 21  1  0
 21 22  2  0
 22 23  1  0
 23 24  1  0
 23 25  2  0
 12 26  2  0
  7  2  1  0
 26  8  1  0
 22 14  1  0
 20 18  1  0
  1 27  1  0
  1 28  1  0
  1 29  1  0
  3 30  1  0
  5 31  1  0
  9 32  1  0
 10 33  1  0
 11 34  1  0
 13 35  1  0
 15 36  1  0
 16 37  1  0
 18 38  1  0
 19 39  1  0
 19 40  1  0
 20 41  1  0
 20 42  1  0
 21 43  1  0
 24 44  1  0
 26 45  1  0
M  CHG  1  24  -1
M  END
>  <UniqueID>  (30) 
27

>  <SMILES>  (30) 
Cc1cncnc1-c1cccc(Nc2ccc(C3CC3)cc2C([NH-])=O)c1

>  <Energy>  (30) 
333.40743167163595

>  <Genealogy>  (30) 
Cc1cncnc1-c1cccc(Nc2ccc(C3CC3)cc2C([NH-])=O)c1 (protonated)
Cc1cncnc1-c1cccc(Nc2ccc(C3CC3)cc2C([NH-])=O)c1 (3D coordinates assigned)
Cc1cncnc1-c1cccc(Nc2ccc(C3CC3)cc2C([NH-])=O)c1 (nonaromatic ring conformer: 333.40743167163595 kcal/mol)

>  <smiles>  (30) 
Cc1cncnc1-c1cccc(Nc2ccc(C3CC3)cc2C(N)=O)c1

>  <score_type>  (30) 
oracle

>  <origin>  (30) 
adgpu

>  <m_score__min__energy>  (30) 
-11.789999999999999

>  <m_primary>  (30) 
energy

$$$$
30:0
     RDKit          3D

 61 65  0  0  0  0  0  0  0  0999 V2000
   -4.7020   23.7580  -31.1910 O   0  0  0  0  0  0  0  0  0  0  0  0
   -3.5450   23.7900  -30.6940 C   0  0  0  0  0  0  0  0  0  0  0  0
   -3.1510   24.9330  -29.9260 N   0  0  0  0  0  0  0  0  0  0  0  0
   -2.4030   24.8940  -28.7020 C   0  0  0  0  0  0  0  0  0  0  0  0
   -2.9260   24.2930  -27.5420 C   0  0  0  0  0  0  0  0  0  0  0  0
   -2.1400   24.1790  -26.3930 C   0  0  0  0  0  0  0  0  0  0  0  0
   -0.8200   24.6450  -26.3930 C   0  0  0  0  0  0  0  0  0  0  0  0
    0.2010   24.4350  -24.9690 S   0  0  0  0  0  0  0  0  0  0  0  0
   -0.1300   23.1170  -24.3210 O   0  0  0  0  0  0  0  0  0  0  0  0
    1.6340   24.3770  -25.4260 O   0  0  0  0  0  0  0  0  0  0  0  0
    0.0300   25.7540  -23.8190 N   0  0  0  0  0  0  0  0  0  0  0  0
   -1.1750   26.5620  -24.0980 C   0  0  0  0  0  0  0  0  0  0  0  0
   -0.9160   27.6720  -25.1460 C   0  0  0  0  0  0  0  0  0  0  0  0
    0.2850   27.4470  -25.8560 O   0  0  0  0  0  0  0  0  0  0  0  0
    1.3910   27.5190  -24.9740 C   0  0  0  0  0  0  0  0  0  0  0  0
    1.2280   26.6090  -23.7370 C   0  0  0  0  0  0  0  0  0  0  0  0
   -0.3020   25.2600  -27.5420 C   0  0  0  0  0  0  0  0  0  0  0  0
   -1.0890   25.3730  -28.6930 C   0  0  0  0  0  0  0  0  0  0  0  0
   -2.6520   22.6270  -30.8560 C   0  0  0  0  0  0  0  0  0  0  0  0
   -1.4440   22.5540  -30.1430 C   0  0  0  0  0  0  0  0  0  0  0  0
   -0.5910   21.4620  -30.3140 C   0  0  0  0  0  0  0  0  0  0  0  0
   -0.9200   20.4520  -31.2250 C   0  0  0  0  0  0  0  0  0  0  0  0
   -2.1150   20.5230  -31.9600 C   0  0  0  0  0  0  0  0  0  0  0  0
   -2.5060   19.2860  -33.1480 S   0  0  0  0  0  0  0  0  0  0  0  0
   -2.1260   19.7790  -34.5140 O   0  0  0  0  0  0  0  0  0  0  0  0
   -1.7200   18.0340  -32.8720 O   0  0  0  0  0  0  0  0  0  0  0  0
   -4.2050   18.9370  -33.1110 N   0  0  0  0  0  0  0  0  0  0  0  0
   -5.2280   19.9560  -33.3540 C   0  0  0  0  0  0  0  0  0  0  0  0
   -6.4790   19.1940  -33.8600 C   0  0  0  0  0  0  0  0  0  0  0  0
   -6.0780   17.7650  -33.7570 C   0  0  0  0  0  0  0  0  0  0  0  0
   -6.8300   16.6360  -34.0910 C   0  0  0  0  0  0  0  0  0  0  0  0
   -6.2330   15.3710  -33.9640 C   0  0  0  0  0  0  0  0  0  0  0  0
   -4.9100   15.2580  -33.4960 C   0  0  0  0  0  0  0  0  0  0  0  0
   -4.1660   16.4120  -33.1860 C   0  0  0  0  0  0  0  0  0  0  0  0
   -4.7790   17.6590  -33.3360 C   0  0  0  0  0  0  0  0  0  0  0  0
   -2.9880   21.5990  -31.7550 C   0  0  0  0  0  0  0  0  0  0  0  0
   -3.9577   23.9115  -27.5401 H   0  0  0  0  0  0  0  0  0  0  0  0
   -2.5597   23.7215  -25.4850 H   0  0  0  0  0  0  0  0  0  0  0  0
   -0.0970   25.3050  -22.8800 H   0  0  0  0  0  0  0  0  0  0  0  0
   -1.9655   25.8972  -24.4765 H   0  0  0  0  0  0  0  0  0  0  0  0
   -1.4731   27.0520  -23.1594 H   0  0  0  0  0  0  0  0  0  0  0  0
   -1.7536   27.6925  -25.8588 H   0  0  0  0  0  0  0  0  0  0  0  0
   -0.8277   28.6318  -24.6160 H   0  0  0  0  0  0  0  0  0  0  0  0
    2.2961   27.2129  -25.5191 H   0  0  0  0  0  0  0  0  0  0  0  0
    1.4628   28.5565  -24.6157 H   0  0  0  0  0  0  0  0  0  0  0  0
    2.1159   25.9651  -23.6533 H   0  0  0  0  0  0  0  0  0  0  0  0
    1.1152   27.2588  -22.8566 H   0  0  0  0  0  0  0  0  0  0  0  0
    0.7249   25.6542  -27.5382 H   0  0  0  0  0  0  0  0  0  0  0  0
   -0.6718   25.8415  -29.5966 H   0  0  0  0  0  0  0  0  0  0  0  0
   -1.1690   23.3603  -29.4472 H   0  0  0  0  0  0  0  0  0  0  0  0
    0.3402   21.3955  -29.7323 H   0  0  0  0  0  0  0  0  0  0  0  0
   -0.2400   19.5989  -31.3661 H   0  0  0  0  0  0  0  0  0  0  0  0
   -5.4593   20.4948  -32.4233 H   0  0  0  0  0  0  0  0  0  0  0  0
   -4.8871   20.7021  -34.0869 H   0  0  0  0  0  0  0  0  0  0  0  0
   -7.3518   19.4046  -33.2245 H   0  0  0  0  0  0  0  0  0  0  0  0
   -6.7755   19.4843  -34.8787 H   0  0  0  0  0  0  0  0  0  0  0  0
   -7.8665   16.7355  -34.4455 H   0  0  0  0  0  0  0  0  0  0  0  0
   -6.8001   14.4670  -34.2307 H   0  0  0  0  0  0  0  0  0  0  0  0
   -4.4559   14.2638  -33.3721 H   0  0  0  0  0  0  0  0  0  0  0  0
   -3.1267   16.3342  -32.8340 H   0  0  0  0  0  0  0  0  0  0  0  0
   -3.9423   21.6402  -32.3005 H   0  0  0  0  0  0  0  0  0  0  0  0
  1  2  2  0
  2  3  1  0
  3  4  1  0
  4  5  2  0
  5  6  1  0
  6  7  2  0
  7  8  1  0
  8  9  2  0
  8 10  2  0
  8 11  1  0
 11 12  1  0
 12 13  1  0
 13 14  1  0
 14 15  1  0
 15 16  1  0
  7 17  1  0
 17 18  2  0
  2 19  1  0
 19 20  2  0
 20 21  1  0
 21 22  2  0
 22 23  1  0
 23 24  1  0
 24 25  2  0
 24 26  2  0
 24 27  1  0
 27 28  1  0
 28 29  1  0
 29 30  1  0
 30 31  2  0
 31 32  1  0
 32 33  2  0
 33 34  1  0
 34 35  2  0
 23 36  2  0
 18  4  1  0
 36 19  1  0
 16 11  1  0
 35 27  1  0
 35 30  1  0
  5 37  1  0
  6 38  1  0
 11 39  1  0
 12 40  1  0
 12 41  1  0
 13 42  1  0
 13 43  1  0
 15 44  1  0
 15 45  1  0
 16 46  1  0
 16 47  1  0
 17 48  1  0
 18 49  1  0
 20 50  1  0
 21 51  1  0
 22 52  1  0
 28 53  1  0
 28 54  1  0
 29 55  1  0
 29 56  1  0
 31 57  1  0
 32 58  1  0
 33 59  1  0
 34 60  1  0
 36 61  1  0
M  CHG  2   3  -1  11   1
M  END
>  <UniqueID>  (31) 
28

>  <SMILES>  (31) 
O=C([N-]c1ccc(S(=O)(=O)[NH+]2CCOCC2)cc1)c1cccc(S(=O)(=O)N2CCc3ccccc32)c1

>  <Energy>  (31) 
99.22724890182701

>  <Genealogy>  (31) 
O=C([N-]c1ccc(S(=O)(=O)[NH+]2CCOCC2)cc1)c1cccc(S(=O)(=O)N2CCc3ccccc32)c1 (protonated)
O=C([N-]c1ccc(S(=O)(=O)[NH+]2CCOCC2)cc1)c1cccc(S(=O)(=O)N2CCc3ccccc32)c1 (3D coordinates assigned)
O=C([N-]c1ccc(S(=O)(=O)[NH+]2CCOCC2)cc1)c1cccc(S(=O)(=O)N2CCc3ccccc32)c1 (nonaromatic ring conformer: 99.22724890182701 kcal/mol)

>  <smiles>  (31) 
O=C(Nc1ccc(S(=O)(=O)N2CCOCC2)cc1)c1cccc(S(=O)(=O)N2CCc3ccccc32)c1

>  <score_type>  (31) 
oracle

>  <origin>  (31) 
adgpu

>  <m_score__min__energy>  (31) 
-12.779999999999999

>  <m_primary>  (31) 
energy

$$$$
31:0
     RDKit          3D

 20 20  0  0  0  0  0  0  0  0999 V2000
   -6.8470   17.2530  -33.2620 C   0  0  0  0  0  0  0  0  0  0  0  0
   -7.2390   18.3520  -32.9590 C   0  0  0  0  0  0  0  0  0  0  0  0
   -7.7060   19.6650  -32.5980 C   0  0  0  0  0  0  0  0  0  0  0  0
   -9.0650   19.8780  -32.3370 C   0  0  0  0  0  0  0  0  0  0  0  0
   -9.5160   21.1490  -31.9700 C   0  0  0  0  0  0  0  0  0  0  0  0
   -8.6130   22.2110  -31.8710 C   0  0  0  0  0  0  0  0  0  0  0  0
   -7.2530   22.0170  -32.1540 C   0  0  0  0  0  0  0  0  0  0  0  0
   -6.3400   23.1190  -32.0190 N   0  0  0  0  0  0  0  0  0  0  0  0
   -6.1150   23.8280  -30.7910 C   0  0  0  0  0  0  0  0  0  0  0  0
   -6.2530   23.1730  -29.5270 N   0  0  0  0  0  0  0  0  0  0  0  0
   -5.5180   25.3520  -30.8430 S   0  0  0  0  0  0  0  0  0  0  0  0
   -6.8010   20.7300  -32.4990 C   0  0  0  0  0  0  0  0  0  0  0  0
   -6.4893   16.2502  -33.5385 H   0  0  0  0  0  0  0  0  0  0  0  0
   -9.7781   19.0446  -32.4208 H   0  0  0  0  0  0  0  0  0  0  0  0
  -10.5829   21.3136  -31.7588 H   0  0  0  0  0  0  0  0  0  0  0  0
   -8.9714   23.2062  -31.5690 H   0  0  0  0  0  0  0  0  0  0  0  0
   -5.8000   23.4150  -32.8630 H   0  0  0  0  0  0  0  0  0  0  0  0
   -6.0920   23.6970  -28.6380 H   0  0  0  0  0  0  0  0  0  0  0  0
   -6.4570   22.1520  -29.4700 H   0  0  0  0  0  0  0  0  0  0  0  0
   -5.7316   20.5591  -32.6920 H   0  0  0  0  0  0  0  0  0  0  0  0
  1  2  3  0
  2  3  1  0
  3  4  2  0
  4  5  1  0
  5  6  2  0
  6  7  1  0
  7  8  1  0
  8  9  1  0
  9 10  1  0
  9 11  2  0
  7 12  2  0
 12  3  1  0
  1 13  1  0
  4 14  1  0
  5 15  1  0
  6 16  1  0
  8 17  1  0
 10 18  1  0
 10 19  1  0
 12 20  1  0
M  END
>  <UniqueID>  (32) 
29

>  <SMILES>  (32) 
C#Cc1cccc(NC(N)=S)c1

>  <Energy>  (32) 
19.004469454042486

>  <Genealogy>  (32) 
C#Cc1cccc(NC(N)=S)c1 (3D coordinates assigned)
C#Cc1cccc(NC(N)=S)c1 (optimized conformer: 19.004469454042486 kcal/mol)

>  <smiles>  (32) 
C#Cc1cccc(NC(N)=S)c1

>  <score_type>  (32) 
oracle

>  <origin>  (32) 
adgpu

>  <m_score__min__energy>  (32) 
-6.1100000000000003

>  <m_primary>  (32) 
energy

$$$$
32:0
     RDKit          3D

 71 75  0  0  0  0  0  0  0  0999 V2000
   -3.6301   20.5537  -29.4056 H   0  0  0  0  0  0  0  0  0  0  0  0
   -3.6730   21.6170  -29.6840 C   0  0  0  0  0  0  0  0  0  0  0  0
   -3.1660   22.5840  -28.8120 C   0  0  0  0  0  0  0  0  0  0  0  0
   -2.6971   22.2737  -27.8666 H   0  0  0  0  0  0  0  0  0  0  0  0
   -3.2500   23.9460  -29.1320 C   0  0  0  0  0  0  0  0  0  0  0  0
   -2.7240   24.9180  -28.2140 N   0  0  0  0  0  0  0  0  0  0  0  0
   -3.3920   25.6120  -27.8080 H   0  0  0  0  0  0  0  0  0  0  0  0
   -1.3160   25.1630  -28.0580 C   0  0  0  0  0  0  0  0  0  0  0  0
   -0.5080   24.7240  -28.9220 O   0  0  0  0  0  0  0  0  0  0  0  0
   -0.8060   25.9720  -26.9260 C   0  0  0  0  0  0  0  0  0  0  0  0
   -1.3610   25.8500  -25.6400 C   0  0  0  0  0  0  0  0  0  0  0  0
   -2.1854   25.1427  -25.4666 H   0  0  0  0  0  0  0  0  0  0  0  0
   -0.8740   26.6200  -24.5800 C   0  0  0  0  0  0  0  0  0  0  0  0
   -1.3141   26.5107  -23.5778 H   0  0  0  0  0  0  0  0  0  0  0  0
    0.1720   27.5310  -24.7860 C   0  0  0  0  0  0  0  0  0  0  0  0
    0.7160   28.3340  -23.6400 C   0  0  0  0  0  0  0  0  0  0  0  0
    0.4049   27.8747  -22.6901 H   0  0  0  0  0  0  0  0  0  0  0  0
    1.8144   28.3541  -23.6951 H   0  0  0  0  0  0  0  0  0  0  0  0
    0.3273   29.3616  -23.6951 H   0  0  0  0  0  0  0  0  0  0  0  0
    0.7500   27.6340  -26.0580 C   0  0  0  0  0  0  0  0  0  0  0  0
    1.5907   28.3241  -26.2219 H   0  0  0  0  0  0  0  0  0  0  0  0
    0.2650   26.8650  -27.1210 C   0  0  0  0  0  0  0  0  0  0  0  0
    0.7236   26.9586  -28.1165 H   0  0  0  0  0  0  0  0  0  0  0  0
   -3.8130   24.3290  -30.3640 C   0  0  0  0  0  0  0  0  0  0  0  0
   -3.8630   25.6660  -30.7390 O   0  0  0  0  0  0  0  0  0  0  0  0
   -4.3150   23.3570  -31.2380 C   0  0  0  0  0  0  0  0  0  0  0  0
   -4.7755   23.6625  -32.1891 H   0  0  0  0  0  0  0  0  0  0  0  0
   -4.2340   21.9920  -30.9070 C   0  0  0  0  0  0  0  0  0  0  0  0
   -4.7810   20.9770  -31.7640 N   0  0  0  0  0  0  0  0  0  0  0  0
   -4.1120   20.0280  -32.3510 C   0  0  0  0  0  0  0  0  0  0  0  0
   -2.7870   19.8490  -32.1090 N   0  0  0  0  0  0  0  0  0  0  0  0
   -2.1040   18.8380  -32.7080 C   0  0  0  0  0  0  0  0  0  0  0  0
   -0.6990   18.6490  -32.4480 N   0  0  0  0  0  0  0  0  0  0  0  0
    0.2210   19.7930  -32.4160 C   0  0  0  0  0  0  0  0  0  0  0  0
    0.7444   19.8588  -33.3813 H   0  0  0  0  0  0  0  0  0  0  0  0
   -0.3655   20.7044  -32.2278 H   0  0  0  0  0  0  0  0  0  0  0  0
    1.2640   19.6440  -31.2880 C   0  0  0  0  0  0  0  0  0  0  0  0
    2.1731   20.1861  -31.5875 H   0  0  0  0  0  0  0  0  0  0  0  0
    0.7991   20.0508  -30.3779 H   0  0  0  0  0  0  0  0  0  0  0  0
    1.6430   18.2390  -30.9760 N   0  0  0  0  0  0  0  0  0  0  0  0
    1.0740   17.7730  -29.6910 C   0  0  0  0  0  0  0  0  0  0  0  0
    0.1744   17.1717  -29.8890 H   0  0  0  0  0  0  0  0  0  0  0  0
    1.8251   17.1645  -29.1661 H   0  0  0  0  0  0  0  0  0  0  0  0
    0.7050   18.9500  -28.8270 C   0  0  0  0  0  0  0  0  0  0  0  0
    1.6960   19.7960  -28.3050 C   0  0  0  0  0  0  0  0  0  0  0  0
    2.7556   19.5960  -28.5223 H   0  0  0  0  0  0  0  0  0  0  0  0
    1.3440   20.8920  -27.5100 C   0  0  0  0  0  0  0  0  0  0  0  0
    2.1294   21.5403  -27.0943 H   0  0  0  0  0  0  0  0  0  0  0  0
   -0.0070   21.1700  -27.2390 C   0  0  0  0  0  0  0  0  0  0  0  0
   -0.3900   22.3280  -26.3500 C   0  0  0  0  0  0  0  0  0  0  0  0
    0.4820   23.3790  -26.5690 F   0  0  0  0  0  0  0  0  0  0  0  0
   -0.3250   21.9580  -25.0180 F   0  0  0  0  0  0  0  0  0  0  0  0
   -1.6810   22.7490  -26.6200 F   0  0  0  0  0  0  0  0  0  0  0  0
   -0.9940   20.3010  -27.7350 C   0  0  0  0  0  0  0  0  0  0  0  0
   -2.0521   20.4845  -27.4967 H   0  0  0  0  0  0  0  0  0  0  0  0
   -0.6420   19.2050  -28.5290 C   0  0  0  0  0  0  0  0  0  0  0  0
   -1.4250   18.5397  -28.9218 H   0  0  0  0  0  0  0  0  0  0  0  0
    1.3460   17.3060  -32.0820 C   0  0  0  0  0  0  0  0  0  0  0  0
    1.9012   17.6223  -32.9774 H   0  0  0  0  0  0  0  0  0  0  0  0
    1.6494   16.2940  -31.7757 H   0  0  0  0  0  0  0  0  0  0  0  0
   -0.1530   17.2880  -32.4030 C   0  0  0  0  0  0  0  0  0  0  0  0
   -0.3055   16.8070  -33.3805 H   0  0  0  0  0  0  0  0  0  0  0  0
   -0.6734   16.7283  -31.6118 H   0  0  0  0  0  0  0  0  0  0  0  0
   -2.7610   18.0010  -33.5550 N   0  0  0  0  0  0  0  0  0  0  0  0
   -4.0880   18.1630  -33.7930 C   0  0  0  0  0  0  0  0  0  0  0  0
   -4.6970   17.3400  -34.5920 N   0  0  0  0  0  0  0  0  0  0  0  0
   -6.1170   17.4190  -34.9160 C   0  0  0  0  0  0  0  0  0  0  0  0
   -6.7040   17.4517  -33.9863 H   0  0  0  0  0  0  0  0  0  0  0  0
   -6.3091   18.3292  -35.5030 H   0  0  0  0  0  0  0  0  0  0  0  0
   -6.4088   16.5357  -35.5030 H   0  0  0  0  0  0  0  0  0  0  0  0
   -4.7610   19.1760  -33.1840 N   0  0  0  0  0  0  0  0  0  0  0  0
  1  2  1  0
  2  3  2  0
  3  4  1  0
  3  5  1  0
  5  6  1  0
  6  7  1  0
  6  8  1  0
  8  9  2  0
  8 10  1  0
 10 11  2  0
 11 12  1  0
 11 13  1  0
 13 14  1  0
 13 15  2  0
 15 16  1  0
 16 17  1  0
 16 18  1  0
 16 19  1  0
 15 20  1  0
 20 21  1  0
 20 22  2  0
 22 23  1  0
  5 24  2  0
 24 25  1  0
 24 26  1  0
 26 27  1  0
 26 28  2  0
 28 29  1  0
 29 30  2  0
 30 31  1  0
 31 32  2  0
 32 33  1  0
 33 34  1  0
 34 35  1  0
 34 36  1  0
 34 37  1  0
 37 38  1  0
 37 39  1  0
 37 40  1  0
 40 41  1  0
 41 42  1  0
 41 43  1  0
 41 44  1  0
 44 45  2  0
 45 46  1  0
 45 47  1  0
 47 48  1  0
 47 49  2  0
 49 50  1  0
 50 51  1  0
 50 52  1  0
 50 53  1  0
 49 54  1  0
 54 55  1  0
 54 56  2  0
 56 57  1  0
 40 58  1  0
 58 59  1  0
 58 60  1  0
 58 61  1  0
 61 62  1  0
 61 63  1  0
 32 64  1  0
 64 65  1  0
 65 66  2  0
 66 67  1  0
 67 68  1  0
 67 69  1  0
 67 70  1  0
 65 71  1  0
 28  2  1  0
 71 30  1  0
 22 10  1  0
 61 33  1  0
 56 44  1  0
M  CHG  3  25  -1  64  -1  71  -1
M  END
>  <UniqueID>  (33) 
30

>  <SMILES>  (33) 
C/N=c1/[n-]c(N2CCN(Cc3ccc(C(F)(F)F)cc3)CC2)n/c(=N\c2ccc(NC(=O)c3ccc(C)cc3)c([O-])c2)[n-]1

>  <Energy>  (33) 
96.88930943493074

>  <Genealogy>  (33) 
CN=c1[n-]c(N2CCN(Cc3ccc(C(F)(F)F)cc3)CC2)nc(=Nc2ccc(NC(=O)c3ccc(C)cc3)c([O-])c2)[n-]1 (protonated)
C/N=c1/[n-]c(N2CCN(Cc3ccc(C(F)(F)F)cc3)CC2)n/c(=N\c2ccc(NC(=O)c3ccc(C)cc3)c([O-])c2)[n-]1 (cis-trans isomerization)
C/N=c1/[n-]c(N2CCN(Cc3ccc(C(F)(F)F)cc3)CC2)n/c(=N\c2ccc(NC(=O)c3ccc(C)cc3)c([O-])c2)[n-]1 (3D coordinates assigned)
C/N=c1/[n-]c(N2CCN(Cc3ccc(C(F)(F)F)cc3)CC2)n/c(=N\c2ccc(NC(=O)c3ccc(C)cc3)c([O-])c2)[n-]1 (nonaromatic ring conformer: 96.88930943493074 kcal/mol)

>  <smiles>  (33) 
CN=c1[nH]c(N2CCN(Cc3ccc(C(F)(F)F)cc3)CC2)nc(=Nc2ccc(NC(=O)c3ccc(C)cc3)c(O)c2)[nH]1

>  <score_type>  (33) 
oracle

>  <origin>  (33) 
adgpu

>  <m_score__min__energy>  (33) 
-13.119999999999999

>  <m_primary>  (33) 
energy

$$$$
33:0
     RDKit          3D

 45 48  0  0  1  0  0  0  0  0999 V2000
   -9.0770   20.0990  -32.3350 C   0  0  0  0  0  0  0  0  0  0  0  0
   -8.8120   18.7290  -31.9230 C   0  0  0  0  0  0  0  0  0  0  0  0
   -7.6590   18.1440  -32.0720 C   0  0  0  0  0  0  0  0  0  0  0  0
   -6.4500   18.6550  -32.6290 C   0  0  0  0  0  0  0  0  0  0  0  0
   -5.7220   18.1760  -33.6810 C   0  0  0  0  0  0  0  0  0  0  0  0
   -4.5040   18.7310  -34.0950 C   0  0  0  0  0  0  0  0  0  0  0  0
   -3.9790   19.8190  -33.4380 C   0  0  0  0  0  0  0  0  0  0  0  0
   -4.6920   20.3170  -32.3850 C   0  0  0  0  0  0  0  0  0  0  0  0
   -4.2040   21.4790  -31.6480 C   0  0  0  0  0  0  0  0  0  0  0  0
   -2.9920   21.5240  -30.9870 C   0  0  0  0  0  0  0  0  0  0  0  0
   -2.8090   22.7520  -30.4190 N   0  0  0  0  0  0  0  0  0  0  0  0
   -1.6260   23.0720  -29.7270 C   0  0  0  0  0  0  0  0  0  0  0  0
   -0.5560   22.4920  -30.1870 O   0  0  0  0  0  0  0  0  0  0  0  0
   -1.4020   23.9250  -28.6130 C   0  0  0  0  0  0  0  0  0  0  0  0
   -1.3610   23.3060  -27.3470 C   0  0  0  0  0  0  0  0  0  0  0  0
   -1.1990   24.0260  -26.1860 C   0  0  0  0  0  0  0  0  0  0  0  0
   -1.0670   25.3930  -26.1960 C   0  0  0  0  0  0  0  0  0  0  0  0
   -0.8400   26.4280  -24.6310 Br  0  0  0  0  0  0  0  0  0  0  0  0
   -1.1050   26.0230  -27.4170 C   0  0  0  0  0  0  0  0  0  0  0  0
   -1.2710   25.2860  -28.5970 C   0  0  0  0  0  0  0  0  0  0  0  0
   -3.9010   23.4660  -30.7250 C   0  0  0  0  0  0  0  0  0  0  0  0
   -4.2900   24.7070  -30.4710 N   0  0  0  0  0  0  0  0  0  0  0  0
   -5.4410   25.1870  -30.9090 C   0  0  0  0  0  0  0  0  0  0  0  0
   -6.3340   24.4890  -31.6490 N   0  0  0  0  0  0  0  0  0  0  0  0
   -5.9790   23.2160  -31.9350 C   0  0  0  0  0  0  0  0  0  0  0  0
   -6.8190   22.5280  -32.6270 N   0  0  0  0  0  0  0  0  0  0  0  0
   -4.7850   22.6950  -31.4910 C   0  0  0  0  0  0  0  0  0  0  0  0
   -5.8840   19.7680  -31.9820 C   0  0  0  0  0  0  0  0  0  0  0  0
   -9.1996   20.7326  -31.4442 H   0  0  0  0  0  0  0  0  0  0  0  0
   -8.2341   20.4707  -32.9362 H   0  0  0  0  0  0  0  0  0  0  0  0
   -9.9977   20.1295  -32.9362 H   0  0  0  0  0  0  0  0  0  0  0  0
   -9.6300   18.1570  -31.4608 H   0  0  0  0  0  0  0  0  0  0  0  0
   -7.6101   17.1042  -31.7165 H   0  0  0  0  0  0  0  0  0  0  0  0
   -6.1129   17.3082  -34.2325 H   0  0  0  0  0  0  0  0  0  0  0  0
   -3.9654   18.2946  -34.9491 H   0  0  0  0  0  0  0  0  0  0  0  0
   -3.0245   20.2695  -33.7477 H   0  0  0  0  0  0  0  0  0  0  0  0
   -2.2770   20.6903  -30.9269 H   0  0  0  0  0  0  0  0  0  0  0  0
   -1.4618   22.2123  -27.2856 H   0  0  0  0  0  0  0  0  0  0  0  0
   -1.1745   23.4927  -25.2242 H   0  0  0  0  0  0  0  0  0  0  0  0
   -1.0040   27.1172  -27.4683 H   0  0  0  0  0  0  0  0  0  0  0  0
   -1.2971   25.8270  -29.5544 H   0  0  0  0  0  0  0  0  0  0  0  0
   -5.6909   26.2275  -30.6541 H   0  0  0  0  0  0  0  0  0  0  0  0
   -7.2340   24.9150  -31.9720 H   0  0  0  0  0  0  0  0  0  0  0  0
   -7.7180   22.8760  -32.9650 H   0  0  0  0  0  0  0  0  0  0  0  0
   -6.4130   20.2126  -31.1262 H   0  0  0  0  0  0  0  0  0  0  0  0
  1  2  1  0
  2  3  2  0
  3  4  1  0
  4  5  2  0
  5  6  1  0
  6  7  2  0
  7  8  1  0
  8  9  1  0
  9 10  2  0
 10 11  1  0
 11 12  1  0
 12 13  2  0
 12 14  1  0
 14 15  2  0
 15 16  1  0
 16 17  2  0
 17 18  1  0
 17 19  1  0
 19 20  2  0
 11 21  1  0
 21 22  1  0
 22 23  2  0
 23 24  1  0
 24 25  1  0
 25 26  2  3
 25 27  1  0
  8 28  2  0
 28  4  1  0
 27  9  1  0
 20 14  1  0
 27 21  2  0
  1 29  1  0
  1 30  1  0
  1 31  1  0
  2 32  1  0
  3 33  1  0
  5 34  1  0
  6 35  1  0
  7 36  1  0
 10 37  1  0
 15 38  1  0
 16 39  1  0
 19 40  1  0
 20 41  1  0
 23 42  1  0
 24 43  1  0
 26 44  1  0
 28 45  1  0
M  END
>  <smiles>  (34) 
CC=Cc1cccc(-c2cn(C(=O)c3ccc(Br)cc3)c3nc[nH]c(=N)c23)c1

>  <score_type>  (34) 
oracle

>  <origin>  (34) 
adgpu

>  <m_score__min__energy>  (34) 
-9.7599999999999998

>  <m_primary>  (34) 
energy

$$$$
34:0
     RDKit          3D

 40 42  0  0  1  0  0  0  0  0999 V2000
   -4.2690   23.0770  -28.4170 C   0  0  0  0  0  0  0  0  0  0  0  0
   -4.7670   24.4530  -28.4590 N   0  0  0  0  0  0  0  0  0  0  0  0
   -4.8420   24.9260  -30.1190 S   0  0  0  0  0  0  0  0  0  0  0  0
   -3.4940   24.8240  -30.7670 O   0  0  0  0  0  0  0  0  0  0  0  0
   -5.3640   26.3310  -30.2820 O   0  0  0  0  0  0  0  0  0  0  0  0
   -5.9120   23.8160  -30.9890 C   0  0  0  0  0  0  0  0  0  0  0  0
   -7.2710   24.1180  -31.0580 C   0  0  0  0  0  0  0  0  0  0  0  0
   -8.1090   23.2440  -31.7430 C   0  0  0  0  0  0  0  0  0  0  0  0
   -7.5980   22.0940  -32.3430 C   0  0  0  0  0  0  0  0  0  0  0  0
   -6.2310   21.8370  -32.2460 C   0  0  0  0  0  0  0  0  0  0  0  0
   -5.6720   20.6670  -32.8500 N   0  0  0  0  0  0  0  0  0  0  0  0
   -6.2730   19.5500  -32.6730 C   0  0  0  0  0  0  0  0  0  0  0  0
   -7.4020   19.4070  -31.9520 N   0  0  0  0  0  0  0  0  0  0  0  0
   -7.9900   18.2150  -31.7970 C   0  0  0  0  0  0  0  0  0  0  0  0
   -7.4730   17.0880  -32.3660 N   0  0  0  0  0  0  0  0  0  0  0  0
   -6.3450   17.2080  -33.0910 C   0  0  0  0  0  0  0  0  0  0  0  0
   -5.7990   16.0680  -33.6810 C   0  0  0  0  0  0  0  0  0  0  0  0
   -4.6440   16.1860  -34.4250 C   0  0  0  0  0  0  0  0  0  0  0  0
   -4.0280   17.4040  -34.5920 C   0  0  0  0  0  0  0  0  0  0  0  0
   -4.5470   18.5470  -34.0200 C   0  0  0  0  0  0  0  0  0  0  0  0
   -3.9660   19.8000  -34.1560 O   0  0  0  0  0  0  0  0  0  0  0  0
   -2.6800   20.0000  -33.5980 C   0  0  0  0  0  0  0  0  0  0  0  0
   -5.7180   18.4260  -33.2650 C   0  0  0  0  0  0  0  0  0  0  0  0
   -5.3780   22.6880  -31.5730 C   0  0  0  0  0  0  0  0  0  0  0  0
   -4.1544   22.7603  -27.3698 H   0  0  0  0  0  0  0  0  0  0  0  0
   -4.9837   22.4127  -28.9248 H   0  0  0  0  0  0  0  0  0  0  0  0
   -3.2947   23.0240  -28.9248 H   0  0  0  0  0  0  0  0  0  0  0  0
   -5.7410   24.4560  -28.0820 H   0  0  0  0  0  0  0  0  0  0  0  0
   -7.6712   25.0255  -30.5823 H   0  0  0  0  0  0  0  0  0  0  0  0
   -9.1849   23.4623  -31.8119 H   0  0  0  0  0  0  0  0  0  0  0  0
   -8.2611   21.4021  -32.8830 H   0  0  0  0  0  0  0  0  0  0  0  0
   -7.7990   20.2660  -31.5170 H   0  0  0  0  0  0  0  0  0  0  0  0
   -8.9098   18.1423  -31.1981 H   0  0  0  0  0  0  0  0  0  0  0  0
   -6.2831   15.0884  -33.5545 H   0  0  0  0  0  0  0  0  0  0  0  0
   -4.2081   15.2909  -34.8927 H   0  0  0  0  0  0  0  0  0  0  0  0
   -3.1075   17.4679  -35.1908 H   0  0  0  0  0  0  0  0  0  0  0  0
   -2.7508   19.9890  -32.5003 H   0  0  0  0  0  0  0  0  0  0  0  0
   -2.0071   19.1957  -33.9301 H   0  0  0  0  0  0  0  0  0  0  0  0
   -2.2831   20.9707  -33.9301 H   0  0  0  0  0  0  0  0  0  0  0  0
   -4.3016   22.4718  -31.5047 H   0  0  0  0  0  0  0  0  0  0  0  0
  1  2  1  0
  2  3  1  0
  3  4  2  0
  3  5  2  0
  3  6  1  0
  6  7  2  0
  7  8  1  0
  8  9  2  0
  9 10  1  0
 10 11  1  0
 11 12  2  0
 12 13  1  0
 13 14  1  0
 14 15  2  0
 15 16  1  0
 16 17  2  0
 17 18  1  0
 18 19  2  0
 19 20  1  0
 20 21  1  0
 21 22  1  0
 20 23  2  0
 10 24  2  0
 24  6  1  0
 23 12  1  0
 23 16  1  0
  1 25  1  0
  1 26  1  0
  1 27  1  0
  2 28  1  0
  7 29  1  0
  8 30  1  0
  9 31  1  0
 13 32  1  0
 14 33  1  0
 17 34  1  0
 18 35  1  0
 19 36  1  0
 22 37  1  0
 22 38  1  0
 22 39  1  0
 24 40  1  0
M  END
>  <smiles>  (35) 
CNS(=O)(=O)c1cccc(N=c2[nH]cnc3cccc(OC)c23)c1

>  <score_type>  (35) 
oracle

>  <origin>  (35) 
adgpu

>  <m_score__min__energy>  (35) 
-8.7100000000000009

>  <m_primary>  (35) 
energy

$$$$
35:0
     RDKit          3D

 47 49  0  0  1  0  0  0  0  0999 V2000
   -4.3600   25.5660  -30.5740 N   0  0  0  0  0  0  0  0  0  0  0  0
   -3.9330   24.3780  -29.9030 C   0  0  0  0  0  0  0  0  0  0  0  0
   -4.5820   24.0100  -28.7430 C   0  0  0  0  0  0  0  0  0  0  0  0
   -4.1590   22.8620  -28.1070 C   0  0  0  0  0  0  0  0  0  0  0  0
   -3.1230   22.1320  -28.6370 C   0  0  0  0  0  0  0  0  0  0  0  0
   -2.4500   22.4590  -29.7850 C   0  0  0  0  0  0  0  0  0  0  0  0
   -1.4380   21.7530  -30.4150 N   0  0  0  0  0  0  0  0  0  0  0  0
   -1.5480   21.0190  -31.4270 C   0  0  0  0  0  0  0  0  0  0  0  0
   -0.3980   20.4200  -31.8720 N   0  0  0  0  0  0  0  0  0  0  0  0
   -0.3750   19.6110  -32.9390 C   0  0  0  0  0  0  0  0  0  0  0  0
   -1.5400   19.4010  -33.5760 N   0  0  0  0  0  0  0  0  0  0  0  0
   -2.6940   19.9650  -33.1770 C   0  0  0  0  0  0  0  0  0  0  0  0
   -3.8920   19.6870  -33.8940 N   0  0  0  0  0  0  0  0  0  0  0  0
   -4.0910   18.4250  -34.5370 C   0  0  0  0  0  0  0  0  0  0  0  0
   -5.4200   17.7810  -34.2340 C   0  0  0  0  0  0  0  0  0  0  0  0
   -5.7290   17.7290  -32.7530 C   0  0  0  0  0  0  0  0  0  0  0  0
   -6.8280   18.6690  -32.4750 C   0  0  0  0  0  0  0  0  0  0  0  0
   -6.7830   20.0210  -32.6530 C   0  0  0  0  0  0  0  0  0  0  0  0
   -7.8520   20.8630  -32.3670 C   0  0  0  0  0  0  0  0  0  0  0  0
   -9.0420   20.3290  -31.8720 C   0  0  0  0  0  0  0  0  0  0  0  0
   -9.1020   18.9520  -31.6870 C   0  0  0  0  0  0  0  0  0  0  0  0
   -8.0140   18.1370  -31.9820 C   0  0  0  0  0  0  0  0  0  0  0  0
   -2.7340   20.8190  -32.0550 C   0  0  0  0  0  0  0  0  0  0  0  0
   -3.9870   21.3480  -31.7460 N   0  0  0  0  0  0  0  0  0  0  0  0
   -4.4860   22.1520  -32.6020 O   0  0  0  0  0  0  0  0  0  0  0  0
   -4.7720   21.0790  -30.6680 O   0  0  0  0  0  0  0  0  0  0  0  0
   -2.8940   23.6360  -30.4250 C   0  0  0  0  0  0  0  0  0  0  0  0
   -4.2140   25.6790  -31.6020 H   0  0  0  0  0  0  0  0  0  0  0  0
   -4.8290   26.3410  -30.0130 H   0  0  0  0  0  0  0  0  0  0  0  0
   -5.4092   24.6120  -28.3388 H   0  0  0  0  0  0  0  0  0  0  0  0
   -4.6491   22.5321  -27.1791 H   0  0  0  0  0  0  0  0  0  0  0  0
   -2.8122   21.2220  -28.1029 H   0  0  0  0  0  0  0  0  0  0  0  0
    0.5160   20.5800  -31.3790 H   0  0  0  0  0  0  0  0  0  0  0  0
    0.5579   19.1382  -33.2798 H   0  0  0  0  0  0  0  0  0  0  0  0
   -4.6390   20.4090  -33.9530 H   0  0  0  0  0  0  0  0  0  0  0  0
   -4.0208   18.5767  -35.6242 H   0  0  0  0  0  0  0  0  0  0  0  0
   -3.3154   17.7472  -34.1509 H   0  0  0  0  0  0  0  0  0  0  0  0
   -6.2110   18.3566  -34.7370 H   0  0  0  0  0  0  0  0  0  0  0  0
   -5.3728   16.7435  -34.5965 H   0  0  0  0  0  0  0  0  0  0  0  0
   -6.0319   16.7095  -32.4721 H   0  0  0  0  0  0  0  0  0  0  0  0
   -4.8378   18.0060  -32.1707 H   0  0  0  0  0  0  0  0  0  0  0  0
   -5.8556   20.4668  -33.0418 H   0  0  0  0  0  0  0  0  0  0  0  0
   -7.7597   21.9468  -32.5306 H   0  0  0  0  0  0  0  0  0  0  0  0
   -9.9016   20.9737  -31.6366 H   0  0  0  0  0  0  0  0  0  0  0  0
  -10.0268   18.4990  -31.3003 H   0  0  0  0  0  0  0  0  0  0  0  0
   -8.0935   17.0516  -31.8223 H   0  0  0  0  0  0  0  0  0  0  0  0
   -2.4046   23.9662  -31.3531 H   0  0  0  0  0  0  0  0  0  0  0  0
  1  2  1  0
  2  3  2  0
  3  4  1  0
  4  5  2  0
  5  6  1  0
  6  7  1  0
  7  8  2  0
  8  9  1  0
  9 10  1  0
 10 11  2  0
 11 12  1  0
 12 13  1  0
 13 14  1  0
 14 15  1  0
 15 16  1  0
 16 17  1  0
 17 18  2  0
 18 19  1  0
 19 20  2  0
 20 21  1  0
 21 22  2  0
 12 23  2  0
 23 24  1  0
 24 25  2  0
 24 26  1  0
  6 27  2  0
 27  2  1  0
 23  8  1  0
 22 17  1  0
  1 28  1  0
  1 29  1  0
  3 30  1  0
  4 31  1  0
  5 32  1  0
  9 33  1  0
 10 34  1  0
 13 35  1  0
 14 36  1  0
 14 37  1  0
 15 38  1  0
 15 39  1  0
 16 40  1  0
 16 41  1  0
 18 42  1  0
 19 43  1  0
 20 44  1  0
 21 45  1  0
 22 46  1  0
 27 47  1  0
M  CHG  2  24   1  26  -1
M  END
>  <smiles>  (36) 
Nc1cccc(N=c2[nH]cnc(NCCCc3ccccc3)c2[N+](=O)[O-])c1

>  <score_type>  (36) 
oracle

>  <origin>  (36) 
adgpu

>  <m_score__min__energy>  (36) 
-9.5500000000000007

>  <m_primary>  (36) 
energy

$$$$
36:0
     RDKit          3D

 48 51  0  0  0  0  0  0  0  0999 V2000
   -2.6630   18.3530  -34.2120 C   0  0  0  0  0  0  0  0  0  0  0  0
   -4.0100   17.7230  -34.0170 C   0  0  0  0  0  0  0  0  0  0  0  0
   -4.2570   16.3860  -34.3880 C   0  0  0  0  0  0  0  0  0  0  0  0
   -5.5360   15.8200  -34.2170 C   0  0  0  0  0  0  0  0  0  0  0  0
   -6.5710   16.5990  -33.6820 C   0  0  0  0  0  0  0  0  0  0  0  0
   -6.2960   17.8850  -33.3480 N   0  0  0  0  0  0  0  0  0  0  0  0
   -7.0980   18.8280  -32.8360 C   0  0  0  0  0  0  0  0  0  0  0  0
   -6.3290   19.9790  -32.6900 C   0  0  0  0  0  0  0  0  0  0  0  0
   -6.7860   21.2930  -32.1730 C   0  0  0  0  0  0  0  0  0  0  0  0
   -8.1190   21.7190  -32.3260 C   0  0  0  0  0  0  0  0  0  0  0  0
   -8.5260   22.9600  -31.8310 C   0  0  0  0  0  0  0  0  0  0  0  0
   -7.6130   23.7900  -31.1760 C   0  0  0  0  0  0  0  0  0  0  0  0
   -6.2840   23.3810  -31.0150 C   0  0  0  0  0  0  0  0  0  0  0  0
   -5.1190   24.4040  -30.1770 S   0  0  0  0  0  0  0  0  0  0  0  0
   -5.8250   25.2960  -29.1930 O   0  0  0  0  0  0  0  0  0  0  0  0
   -4.4160   25.2590  -31.1930 O   0  0  0  0  0  0  0  0  0  0  0  0
   -3.9600   23.4030  -29.3420 N   0  0  0  0  0  0  0  0  0  0  0  0
   -3.7380   23.9190  -27.9750 C   0  0  0  0  0  0  0  0  0  0  0  0
   -2.4280   23.3840  -27.3540 C   0  0  0  0  0  0  0  0  0  0  0  0
   -1.9570   22.1430  -28.0030 N   0  0  0  0  0  0  0  0  0  0  0  0
   -2.8280   20.9960  -27.6940 C   0  0  0  0  0  0  0  0  0  0  0  0
   -1.7520   22.3170  -29.4610 C   0  0  0  0  0  0  0  0  0  0  0  0
   -2.7010   23.3550  -30.0940 C   0  0  0  0  0  0  0  0  0  0  0  0
   -5.8750   22.1370  -31.5130 C   0  0  0  0  0  0  0  0  0  0  0  0
   -5.0600   19.7420  -33.1100 N   0  0  0  0  0  0  0  0  0  0  0  0
   -5.0880   18.4530  -33.5000 C   0  0  0  0  0  0  0  0  0  0  0  0
   -2.2115   18.5641  -33.2314 H   0  0  0  0  0  0  0  0  0  0  0  0
   -2.0142   17.6649  -34.7738 H   0  0  0  0  0  0  0  0  0  0  0  0
   -2.7753   19.2920  -34.7738 H   0  0  0  0  0  0  0  0  0  0  0  0
   -3.4446   15.7793  -34.8146 H   0  0  0  0  0  0  0  0  0  0  0  0
   -5.7209   14.7736  -34.5015 H   0  0  0  0  0  0  0  0  0  0  0  0
   -7.5776   16.1798  -33.5370 H   0  0  0  0  0  0  0  0  0  0  0  0
   -8.1617   18.7144  -32.5798 H   0  0  0  0  0  0  0  0  0  0  0  0
   -8.8446   21.0704  -32.8386 H   0  0  0  0  0  0  0  0  0  0  0  0
   -9.5693   23.2850  -31.9574 H   0  0  0  0  0  0  0  0  0  0  0  0
   -7.9387   24.7658  -30.7864 H   0  0  0  0  0  0  0  0  0  0  0  0
   -3.6884   25.0172  -28.0147 H   0  0  0  0  0  0  0  0  0  0  0  0
   -4.5735   23.5781  -27.3459 H   0  0  0  0  0  0  0  0  0  0  0  0
   -1.6489   24.1535  -27.4579 H   0  0  0  0  0  0  0  0  0  0  0  0
   -2.6304   23.1517  -26.2980 H   0  0  0  0  0  0  0  0  0  0  0  0
   -2.9132   20.8837  -26.6031 H   0  0  0  0  0  0  0  0  0  0  0  0
   -3.8259   21.1670  -28.1241 H   0  0  0  0  0  0  0  0  0  0  0  0
   -2.3953   20.0807  -28.1241 H   0  0  0  0  0  0  0  0  0  0  0  0
   -0.7153   22.6433  -29.6307 H   0  0  0  0  0  0  0  0  0  0  0  0
   -1.9666   21.3486  -29.9367 H   0  0  0  0  0  0  0  0  0  0  0  0
   -2.2247   24.3463  -30.0718 H   0  0  0  0  0  0  0  0  0  0  0  0
   -2.9110   23.0672  -31.1347 H   0  0  0  0  0  0  0  0  0  0  0  0
   -4.8302   21.8170  -31.3864 H   0  0  0  0  0  0  0  0  0  0  0  0
  1  2  1  0
  2  3  2  0
  3  4  1  0
  4  5  2  0
  5  6  1  0
  6  7  1  0
  7  8  2  0
  8  9  1  0
  9 10  2  0
 10 11  1  0
 11 12  2  0
 12 13  1  0
 13 14  1  0
 14 15  2  0
 14 16  2  0
 14 17  1  0
 17 18  1  0
 18 19  1  0
 19 20  1  0
 20 21  1  0
 20 22  1  0
 22 23  1  0
 13 24  2  0
  8 25  1  0
 25 26  2  0
 26  2  1  0
 26  6  1  0
 24  9  1  0
 23 17  1  0
  1 27  1  0
  1 28  1  0
  1 29  1  0
  3 30  1  0
  4 31  1  0
  5 32  1  0
  7 33  1  0
 10 34  1  0
 11 35  1  0
 12 36  1  0
 18 37  1  0
 18 38  1  0
 19 39  1  0
 19 40  1  0
 21 41  1  0
 21 42  1  0
 21 43  1  0
 22 44  1  0
 22 45  1  0
 23 46  1  0
 23 47  1  0
 24 48  1  0
M  END
>  <UniqueID>  (37) 
31

>  <SMILES>  (37) 
Cc1cccn2cc(-c3cccc(S(=O)(=O)N4CCN(C)CC4)c3)nc12

>  <Energy>  (37) 
94.46417157161464

>  <Genealogy>  (37) 
Cc1cccn2cc(-c3cccc(S(=O)(=O)N4CCN(C)CC4)c3)nc12 (3D coordinates assigned)
Cc1cccn2cc(-c3cccc(S(=O)(=O)N4CCN(C)CC4)c3)nc12 (nonaromatic ring conformer: 94.46417157161464 kcal/mol)

>  <smiles>  (37) 
Cc1cccn2cc(-c3cccc(S(=O)(=O)N4CCN(C)CC4)c3)nc12

>  <score_type>  (37) 
oracle

>  <origin>  (37) 
adgpu

>  <m_score__min__energy>  (37) 
-9.1999999999999993

>  <m_primary>  (37) 
energy

$$$$
37:0
     RDKit          3D

 39 41  0  0  1  0  0  0  0  0999 V2000
   -6.8790   15.6680  -34.2250 C   0  0  0  0  0  0  0  0  0  0  0  0
   -6.4090   16.9770  -33.6930 C   0  0  0  0  0  0  0  0  0  0  0  0
   -7.3080   17.8850  -33.1770 C   0  0  0  0  0  0  0  0  0  0  0  0
   -6.7800   19.0770  -32.7060 C   0  0  0  0  0  0  0  0  0  0  0  0
   -7.6220   19.9340  -32.2180 N   0  0  0  0  0  0  0  0  0  0  0  0
   -7.0740   21.1560  -31.7360 C   0  0  0  0  0  0  0  0  0  0  0  0
   -6.1900   21.8710  -32.5140 C   0  0  0  0  0  0  0  0  0  0  0  0
   -5.6820   23.0640  -31.9960 C   0  0  0  0  0  0  0  0  0  0  0  0
   -6.0420   23.5250  -30.7480 C   0  0  0  0  0  0  0  0  0  0  0  0
   -5.4280   25.0130  -30.0650 S   0  0  0  0  0  0  0  0  0  0  0  0
   -4.9100   24.6880  -28.4350 N   0  0  0  0  0  0  0  0  0  0  0  0
   -4.2380   25.4750  -30.8480 O   0  0  0  0  0  0  0  0  0  0  0  0
   -6.5030   26.0560  -30.0170 O   0  0  0  0  0  0  0  0  0  0  0  0
   -6.9330   22.7910  -29.9840 C   0  0  0  0  0  0  0  0  0  0  0  0
   -7.4410   21.6090  -30.4890 C   0  0  0  0  0  0  0  0  0  0  0  0
   -5.4550   19.3050  -32.7640 N   0  0  0  0  0  0  0  0  0  0  0  0
   -4.5890   18.4080  -33.2720 C   0  0  0  0  0  0  0  0  0  0  0  0
   -3.1730   18.7490  -33.2920 C   0  0  0  0  0  0  0  0  0  0  0  0
   -2.7040   20.0080  -32.9940 C   0  0  0  0  0  0  0  0  0  0  0  0
   -1.3510   20.3310  -33.0130 C   0  0  0  0  0  0  0  0  0  0  0  0
   -0.4380   19.3570  -33.3440 C   0  0  0  0  0  0  0  0  0  0  0  0
   -0.9320   18.1060  -33.6380 C   0  0  0  0  0  0  0  0  0  0  0  0
   -2.2340   17.8210  -33.6120 N   0  0  0  0  0  0  0  0  0  0  0  0
   -5.0930   17.2590  -33.7270 N   0  0  0  0  0  0  0  0  0  0  0  0
   -7.1199   14.9970  -33.3873 H   0  0  0  0  0  0  0  0  0  0  0  0
   -7.7774   15.8235  -34.8403 H   0  0  0  0  0  0  0  0  0  0  0  0
   -6.0868   15.2165  -34.8403 H   0  0  0  0  0  0  0  0  0  0  0  0
   -8.3872   17.6751  -33.1408 H   0  0  0  0  0  0  0  0  0  0  0  0
   -5.8939   21.5135  -33.5113 H   0  0  0  0  0  0  0  0  0  0  0  0
   -4.9754   23.6518  -32.6003 H   0  0  0  0  0  0  0  0  0  0  0  0
   -4.6760   25.5730  -27.9370 H   0  0  0  0  0  0  0  0  0  0  0  0
   -5.6840   24.2390  -27.9030 H   0  0  0  0  0  0  0  0  0  0  0  0
   -7.2332   23.1444  -28.9865 H   0  0  0  0  0  0  0  0  0  0  0  0
   -8.1489   21.0217  -29.8857 H   0  0  0  0  0  0  0  0  0  0  0  0
   -3.4293   20.7917  -32.7297 H   0  0  0  0  0  0  0  0  0  0  0  0
   -1.0165   21.3496  -32.7671 H   0  0  0  0  0  0  0  0  0  0  0  0
    0.6411   19.5686  -33.3726 H   0  0  0  0  0  0  0  0  0  0  0  0
   -0.2230   17.3086  -33.9054 H   0  0  0  0  0  0  0  0  0  0  0  0
   -4.4570   16.5420  -34.1270 H   0  0  0  0  0  0  0  0  0  0  0  0
  1  2  1  0
  2  3  2  0
  3  4  1  0
  4  5  2  0
  5  6  1  0
  6  7  2  0
  7  8  1  0
  8  9  2  0
  9 10  1  0
 10 11  1  0
 10 12  2  0
 10 13  2  0
  9 14  1  0
 14 15  2  0
  4 16  1  0
 16 17  2  0
 17 18  1  0
 18 19  2  0
 19 20  1  0
 20 21  2  0
 21 22  1  0
 22 23  2  0
 17 24  1  0
 24  2  1  0
 15  6  1  0
 23 18  1  0
  1 25  1  0
  1 26  1  0
  1 27  1  0
  3 28  1  0
  7 29  1  0
  8 30  1  0
 11 31  1  0
 11 32  1  0
 14 33  1  0
 15 34  1  0
 19 35  1  0
 20 36  1  0
 21 37  1  0
 22 38  1  0
 24 39  1  0
M  END
>  <smiles>  (38) 
Cc1cc(=Nc2ccc(S(N)(=O)=O)cc2)nc(-c2ccccn2)[nH]1

>  <score_type>  (38) 
oracle

>  <origin>  (38) 
adgpu

>  <m_score__min__energy>  (38) 
-8.7699999999999996

>  <m_primary>  (38) 
energy

$$$$
38:0
     RDKit          3D

 47 50  0  0  0  0  0  0  0  0999 V2000
    2.0630   25.0810  -24.6030 H   0  0  0  0  0  0  0  0  0  0  0  0
    1.7760   25.6490  -25.3920 O   0  0  0  0  0  0  0  0  0  0  0  0
    0.7830   25.2360  -26.2800 C   0  0  0  0  0  0  0  0  0  0  0  0
    0.2570   26.1580  -27.1890 C   0  0  0  0  0  0  0  0  0  0  0  0
    0.6272   27.1938  -27.1926 H   0  0  0  0  0  0  0  0  0  0  0  0
   -0.7380   25.7720  -28.0950 C   0  0  0  0  0  0  0  0  0  0  0  0
   -1.2460   26.7110  -28.9860 O   0  0  0  0  0  0  0  0  0  0  0  0
   -1.2090   24.4460  -28.1070 C   0  0  0  0  0  0  0  0  0  0  0  0
   -2.2880   24.0590  -29.0480 C   0  0  0  0  0  0  0  0  0  0  0  0
   -3.1331   24.7514  -29.1762 H   0  0  0  0  0  0  0  0  0  0  0  0
   -2.2980   22.9120  -29.7560 C   0  0  0  0  0  0  0  0  0  0  0  0
   -1.2530   22.0430  -29.6730 N   0  0  0  0  0  0  0  0  0  0  0  0
   -1.2100   20.8850  -30.3800 C   0  0  0  0  0  0  0  0  0  0  0  0
   -0.2140   20.1230  -30.2520 O   0  0  0  0  0  0  0  0  0  0  0  0
   -2.2810   20.5570  -31.2380 C   0  0  0  0  0  0  0  0  0  0  0  0
   -2.2730   19.4270  -31.9740 C   0  0  0  0  0  0  0  0  0  0  0  0
   -1.3959   18.7680  -31.8946 H   0  0  0  0  0  0  0  0  0  0  0  0
   -3.3690   19.0150  -32.8830 C   0  0  0  0  0  0  0  0  0  0  0  0
   -3.0450   18.4040  -34.1030 C   0  0  0  0  0  0  0  0  0  0  0  0
   -1.9900   18.2509  -34.3742 H   0  0  0  0  0  0  0  0  0  0  0  0
   -4.0520   17.9890  -34.9750 C   0  0  0  0  0  0  0  0  0  0  0  0
   -3.7877   17.5296  -35.9389 H   0  0  0  0  0  0  0  0  0  0  0  0
   -5.3940   18.1550  -34.6280 C   0  0  0  0  0  0  0  0  0  0  0  0
   -6.1827   17.8397  -35.3269 H   0  0  0  0  0  0  0  0  0  0  0  0
   -5.7430   18.7230  -33.3900 C   0  0  0  0  0  0  0  0  0  0  0  0
   -7.1640   18.9050  -33.0080 C   0  0  0  0  0  0  0  0  0  0  0  0
   -7.9450   17.9160  -33.0780 O   0  0  0  0  0  0  0  0  0  0  0  0
   -7.7030   20.2080  -32.5460 C   0  0  0  0  0  0  0  0  0  0  0  0
   -6.8870   21.3530  -32.5650 C   0  0  0  0  0  0  0  0  0  0  0  0
   -5.8540   21.2818  -32.9364 H   0  0  0  0  0  0  0  0  0  0  0  0
   -7.3800   22.5810  -32.1150 C   0  0  0  0  0  0  0  0  0  0  0  0
   -6.7377   23.4736  -32.1420 H   0  0  0  0  0  0  0  0  0  0  0  0
   -8.6870   22.6770  -31.6310 C   0  0  0  0  0  0  0  0  0  0  0  0
   -9.0739   23.6450  -31.2799 H   0  0  0  0  0  0  0  0  0  0  0  0
   -9.5020   21.5440  -31.5930 C   0  0  0  0  0  0  0  0  0  0  0  0
  -10.5301   21.6201  -31.2092 H   0  0  0  0  0  0  0  0  0  0  0  0
   -9.0140   20.3120  -32.0420 C   0  0  0  0  0  0  0  0  0  0  0  0
   -9.6572   19.4206  -32.0012 H   0  0  0  0  0  0  0  0  0  0  0  0
   -4.7230   19.1530  -32.5240 C   0  0  0  0  0  0  0  0  0  0  0  0
   -4.9857   19.6024  -31.5549 H   0  0  0  0  0  0  0  0  0  0  0  0
   -3.3180   21.4330  -31.3340 N   0  0  0  0  0  0  0  0  0  0  0  0
   -3.3620   22.5920  -30.6270 C   0  0  0  0  0  0  0  0  0  0  0  0
   -4.3540   23.3570  -30.7610 O   0  0  0  0  0  0  0  0  0  0  0  0
   -0.6940   23.5290  -27.1720 C   0  0  0  0  0  0  0  0  0  0  0  0
   -1.0773   22.4982  -27.1512 H   0  0  0  0  0  0  0  0  0  0  0  0
    0.3010   23.9170  -26.2690 C   0  0  0  0  0  0  0  0  0  0  0  0
    0.8020   22.9910  -25.3610 O   0  0  0  0  0  0  0  0  0  0  0  0
  1  2  1  0
  2  3  1  0
  3  4  2  0
  4  5  1  0
  4  6  1  0
  6  7  1  0
  6  8  2  0
  8  9  1  0
  9 10  1  0
  9 11  2  3
 11 12  1  0
 12 13  1  0
 13 14  2  0
 13 15  1  0
 15 16  2  0
 16 17  1  0
 16 18  1  0
 18 19  2  0
 19 20  1  0
 19 21  1  0
 21 22  1  0
 21 23  2  0
 23 24  1  0
 23 25  1  0
 25 26  1  0
 26 27  2  0
 26 28  1  0
 28 29  2  0
 29 30  1  0
 29 31  1  0
 31 32  1  0
 31 33  2  0
 33 34  1  0
 33 35  1  0
 35 36  1  0
 35 37  2  0
 37 38  1  0
 25 39  2  0
 39 40  1  0
 15 41  1  0
 41 42  1  0
 42 43  2  0
  8 44  1  0
 44 45  1  0
 44 46  2  0
 46 47  1  0
 46  3  1  0
 42 11  1  0
 39 18  1  0
 37 28  1  0
M  CHG  4   7  -1  12  -1  41  -1  47  -1
M  END
>  <UniqueID>  (39) 
32

>  <SMILES>  (39) 
O=C(c1ccccc1)c1cccc(/C=c2\[n-]c(=O)c(=Cc3cc([O-])c(O)cc3[O-])[n-]c2=O)c1

>  <Energy>  (39) 
76.31822166964272

>  <Genealogy>  (39) 
O=C(c1ccccc1)c1cccc(C=c2[n-]c(=O)c(=Cc3cc([O-])c(O)cc3[O-])[n-]c2=O)c1 (protonated)
O=C(c1ccccc1)c1cccc(/C=c2\[n-]c(=O)c(=Cc3cc([O-])c(O)cc3[O-])[n-]c2=O)c1 (cis-trans isomerization)
O=C(c1ccccc1)c1cccc(/C=c2\[n-]c(=O)c(=Cc3cc([O-])c(O)cc3[O-])[n-]c2=O)c1 (3D coordinates assigned)
O=C(c1ccccc1)c1cccc(/C=c2\[n-]c(=O)c(=Cc3cc([O-])c(O)cc3[O-])[n-]c2=O)c1 (optimized conformer: 76.31822166964272 kcal/mol)

>  <smiles>  (39) 
O=C(c1ccccc1)c1cccc(C=c2[nH]c(=O)c(=Cc3cc(O)c(O)cc3O)[nH]c2=O)c1

>  <score_type>  (39) 
oracle

>  <origin>  (39) 
adgpu

>  <m_score__min__energy>  (39) 
-13.460000000000001

>  <m_primary>  (39) 
energy

$$$$
39:0
     RDKit          3D

 53 56  0  0  0  0  0  0  0  0999 V2000
    2.7150   25.7090  -36.5870 C   0  0  0  0  0  0  0  0  0  0  0  0
    2.0630   24.4160  -36.8480 N   0  0  0  0  0  0  0  0  0  0  0  0
    0.7180   24.3800  -36.2260 C   0  0  0  0  0  0  0  0  0  0  0  0
    0.2630   22.9410  -35.9620 C   0  0  0  0  0  0  0  0  0  0  0  0
    1.1620   22.2830  -34.9900 N   0  0  0  0  0  0  0  0  0  0  0  0
    0.9770   20.8170  -34.9390 C   0  0  0  0  0  0  0  0  0  0  0  0
   -0.2690   20.4050  -34.2060 C   0  0  0  0  0  0  0  0  0  0  0  0
   -1.3950   21.1480  -34.1710 N   0  0  0  0  0  0  0  0  0  0  0  0
   -2.2280   20.4200  -33.3990 C   0  0  0  0  0  0  0  0  0  0  0  0
   -3.6060   20.8410  -33.0540 C   0  0  0  0  0  0  0  0  0  0  0  0
   -4.7060   19.9890  -33.2690 C   0  0  0  0  0  0  0  0  0  0  0  0
   -5.9960   20.3990  -32.9240 C   0  0  0  0  0  0  0  0  0  0  0  0
   -6.2080   21.6620  -32.3690 C   0  0  0  0  0  0  0  0  0  0  0  0
   -5.1270   22.5360  -32.1710 C   0  0  0  0  0  0  0  0  0  0  0  0
   -5.3030   23.8300  -31.5780 N   0  0  0  0  0  0  0  0  0  0  0  0
   -4.4470   24.4300  -30.5990 C   0  0  0  0  0  0  0  0  0  0  0  0
   -3.9590   25.5670  -30.8330 O   0  0  0  0  0  0  0  0  0  0  0  0
   -4.2260   23.7980  -29.3290 N   0  0  0  0  0  0  0  0  0  0  0  0
   -3.1730   24.1770  -28.4280 C   0  0  0  0  0  0  0  0  0  0  0  0
   -3.4960   24.5540  -27.1150 C   0  0  0  0  0  0  0  0  0  0  0  0
   -2.4890   24.9130  -26.2140 C   0  0  0  0  0  0  0  0  0  0  0  0
   -1.1500   24.8820  -26.6110 C   0  0  0  0  0  0  0  0  0  0  0  0
   -0.8150   24.4850  -27.9080 C   0  0  0  0  0  0  0  0  0  0  0  0
   -1.8190   24.1250  -28.8150 C   0  0  0  0  0  0  0  0  0  0  0  0
   -1.4630   23.6840  -30.0490 F   0  0  0  0  0  0  0  0  0  0  0  0
   -3.8310   22.1130  -32.4950 C   0  0  0  0  0  0  0  0  0  0  0  0
   -1.5770   19.2670  -33.0000 C   0  0  0  0  0  0  0  0  0  0  0  0
   -0.3730   19.2930  -33.5160 O   0  0  0  0  0  0  0  0  0  0  0  0
    2.5810   22.7080  -35.0770 C   0  0  0  0  0  0  0  0  0  0  0  0
    2.9360   23.2800  -36.4600 C   0  0  0  0  0  0  0  0  0  0  0  0
    2.7946   25.8669  -35.5013 H   0  0  0  0  0  0  0  0  0  0  0  0
    3.7208   25.7089  -37.0323 H   0  0  0  0  0  0  0  0  0  0  0  0
    2.1169   26.5177  -37.0323 H   0  0  0  0  0  0  0  0  0  0  0  0
    0.7502   24.9260  -35.2716 H   0  0  0  0  0  0  0  0  0  0  0  0
    0.0032   24.8476  -36.9191 H   0  0  0  0  0  0  0  0  0  0  0  0
   -0.7600   22.9533  -35.5579 H   0  0  0  0  0  0  0  0  0  0  0  0
    0.2907   22.3802  -36.9079 H   0  0  0  0  0  0  0  0  0  0  0  0
    0.9196   20.4354  -35.9691 H   0  0  0  0  0  0  0  0  0  0  0  0
    1.8336   20.3972  -34.3914 H   0  0  0  0  0  0  0  0  0  0  0  0
   -4.5486   18.9943  -33.7114 H   0  0  0  0  0  0  0  0  0  0  0  0
   -6.8482   19.7237  -33.0904 H   0  0  0  0  0  0  0  0  0  0  0  0
   -7.2243   21.9734  -32.0860 H   0  0  0  0  0  0  0  0  0  0  0  0
   -4.9490   23.1260  -28.9860 H   0  0  0  0  0  0  0  0  0  0  0  0
   -4.5477   24.5671  -26.7930 H   0  0  0  0  0  0  0  0  0  0  0  0
   -2.7515   25.2203  -25.1909 H   0  0  0  0  0  0  0  0  0  0  0  0
   -0.3594   25.1701  -25.9025 H   0  0  0  0  0  0  0  0  0  0  0  0
    0.2402   24.4552  -28.2173 H   0  0  0  0  0  0  0  0  0  0  0  0
   -2.9788   22.7835  -32.3101 H   0  0  0  0  0  0  0  0  0  0  0  0
   -1.9944   18.4721  -32.3645 H   0  0  0  0  0  0  0  0  0  0  0  0
    2.7659   23.4810  -34.3165 H   0  0  0  0  0  0  0  0  0  0  0  0
    3.2087   21.8204  -34.9090 H   0  0  0  0  0  0  0  0  0  0  0  0
    3.9793   23.6280  -36.4403 H   0  0  0  0  0  0  0  0  0  0  0  0
    2.7898   22.4791  -37.1998 H   0  0  0  0  0  0  0  0  0  0  0  0
  1  2  1  0
  2  3  1  0
  3  4  1  0
  4  5  1  0
  5  6  1  0
  6  7  1  0
  7  8  2  0
  8  9  1  0
  9 10  1  0
 10 11  2  0
 11 12  1  0
 12 13  2  0
 13 14  1  0
 14 15  1  0
 15 16  1  0
 16 17  2  0
 16 18  1  0
 18 19  1  0
 19 20  2  0
 20 21  1  0
 21 22  2  0
 22 23  1  0
 23 24  2  0
 24 25  1  0
 14 26  2  0
  9 27  2  0
 27 28  1  0
  5 29  1  0
 29 30  1  0
 30  2  1  0
 28  7  1  0
 26 10  1  0
 24 19  1  0
  1 31  1  0
  1 32  1  0
  1 33  1  0
  3 34  1  0
  3 35  1  0
  4 36  1  0
  4 37  1  0
  6 38  1  0
  6 39  1  0
 11 40  1  0
 12 41  1  0
 13 42  1  0
 18 43  1  0
 20 44  1  0
 21 45  1  0
 22 46  1  0
 23 47  1  0
 26 48  1  0
 27 49  1  0
 29 50  1  0
 29 51  1  0
 30 52  1  0
 30 53  1  0
M  CHG  1  15  -1
M  END
>  <UniqueID>  (40) 
33

>  <SMILES>  (40) 
CN1CCN(Cc2nc(-c3cccc([N-]C(=O)Nc4ccccc4F)c3)co2)CC1

>  <Energy>  (40) 
107.67765606987419

>  <Genealogy>  (40) 
CN1CCN(Cc2nc(-c3cccc([N-]C(=O)Nc4ccccc4F)c3)co2)CC1 (protonated)
CN1CCN(Cc2nc(-c3cccc([N-]C(=O)Nc4ccccc4F)c3)co2)CC1 (3D coordinates assigned)
CN1CCN(Cc2nc(-c3cccc([N-]C(=O)Nc4ccccc4F)c3)co2)CC1 (nonaromatic ring conformer: 107.67765606987419 kcal/mol)

>  <smiles>  (40) 
CN1CCN(Cc2nc(-c3cccc(NC(=O)Nc4ccccc4F)c3)co2)CC1

>  <score_type>  (40) 
oracle

>  <origin>  (40) 
adgpu

>  <m_score__min__energy>  (40) 
-10.640000000000001

>  <m_primary>  (40) 
energy

$$$$
40:0
     RDKit          3D

 41 42  0  0  0  0  0  0  0  0999 V2000
   -0.4460   20.8290  -33.9800 C   0  0  0  0  0  0  0  0  0  0  0  0
   -1.6630   20.4150  -34.6840 N   0  0  0  0  0  0  0  0  0  0  0  0
   -2.2670   19.2330  -34.0540 C   0  0  0  0  0  0  0  0  0  0  0  0
   -3.6010   19.5780  -33.4340 C   0  0  0  0  0  0  0  0  0  0  0  0
   -4.6080   18.6000  -33.4040 C   0  0  0  0  0  0  0  0  0  0  0  0
   -5.8740   18.8830  -32.8710 C   0  0  0  0  0  0  0  0  0  0  0  0
   -6.9310   17.8080  -32.8060 C   0  0  0  0  0  0  0  0  0  0  0  0
   -6.7380   17.0500  -31.6670 F   0  0  0  0  0  0  0  0  0  0  0  0
   -8.1960   18.3680  -32.7670 F   0  0  0  0  0  0  0  0  0  0  0  0
   -6.8590   16.9820  -33.9150 F   0  0  0  0  0  0  0  0  0  0  0  0
   -6.1130   20.1470  -32.3140 C   0  0  0  0  0  0  0  0  0  0  0  0
   -5.1220   21.1410  -32.3300 C   0  0  0  0  0  0  0  0  0  0  0  0
   -5.4170   22.4680  -31.7370 C   0  0  0  0  0  0  0  0  0  0  0  0
   -6.7410   22.9290  -31.6580 C   0  0  0  0  0  0  0  0  0  0  0  0
   -7.0200   24.1740  -31.0920 C   0  0  0  0  0  0  0  0  0  0  0  0
   -5.9860   24.9700  -30.5940 C   0  0  0  0  0  0  0  0  0  0  0  0
   -4.6550   24.5210  -30.6580 C   0  0  0  0  0  0  0  0  0  0  0  0
   -3.5590   25.2960  -30.1550 N   0  0  0  0  0  0  0  0  0  0  0  0
   -2.2980   24.7150  -29.1140 S   0  0  0  0  0  0  0  0  0  0  0  0
   -2.9570   24.3390  -27.5030 C   0  0  0  0  0  0  0  0  0  0  0  0
   -1.6550   23.4960  -29.7140 O   0  0  0  0  0  0  0  0  0  0  0  0
   -1.2580   25.7890  -28.9700 O   0  0  0  0  0  0  0  0  0  0  0  0
   -4.3820   23.2700  -31.2250 C   0  0  0  0  0  0  0  0  0  0  0  0
   -3.8660   20.8660  -32.9100 C   0  0  0  0  0  0  0  0  0  0  0  0
   -2.9110   21.8870  -32.9680 O   0  0  0  0  0  0  0  0  0  0  0  0
   -0.6132   20.7721  -32.8943 H   0  0  0  0  0  0  0  0  0  0  0  0
    0.3835   20.1625  -34.2587 H   0  0  0  0  0  0  0  0  0  0  0  0
   -0.1950   21.8631  -34.2587 H   0  0  0  0  0  0  0  0  0  0  0  0
   -2.3490   21.2020  -34.6060 H   0  0  0  0  0  0  0  0  0  0  0  0
   -2.4144   18.4538  -34.8163 H   0  0  0  0  0  0  0  0  0  0  0  0
   -1.5933   18.8722  -33.2628 H   0  0  0  0  0  0  0  0  0  0  0  0
   -4.4008   17.5967  -33.8046 H   0  0  0  0  0  0  0  0  0  0  0  0
   -7.0905   20.3629  -31.8581 H   0  0  0  0  0  0  0  0  0  0  0  0
   -7.5617   22.3064  -32.0438 H   0  0  0  0  0  0  0  0  0  0  0  0
   -8.0594   24.5300  -31.0379 H   0  0  0  0  0  0  0  0  0  0  0  0
   -6.2134   25.9506  -30.1506 H   0  0  0  0  0  0  0  0  0  0  0  0
   -2.2778   24.7265  -26.7294 H   0  0  0  0  0  0  0  0  0  0  0  0
   -3.9453   24.8092  -27.3922 H   0  0  0  0  0  0  0  0  0  0  0  0
   -3.0551   23.2490  -27.3922 H   0  0  0  0  0  0  0  0  0  0  0  0
   -3.3436   22.9099  -31.2704 H   0  0  0  0  0  0  0  0  0  0  0  0
   -2.5180   22.2370  -33.8310 H   0  0  0  0  0  0  0  0  0  0  0  0
  1  2  1  0
  2  3  1  0
  3  4  1  0
  4  5  2  0
  5  6  1  0
  6  7  1  0
  7  8  1  0
  7  9  1  0
  7 10  1  0
  6 11  2  0
 11 12  1  0
 12 13  1  0
 13 14  2  0
 14 15  1  0
 15 16  2  0
 16 17  1  0
 17 18  1  0
 18 19  1  0
 19 20  1  0
 19 21  2  0
 19 22  2  0
 17 23  2  0
 12 24  2  0
 24 25  1  0
 24  4  1  0
 23 13  1  0
  1 26  1  0
  1 27  1  0
  1 28  1  0
  2 29  1  0
  3 30  1  0
  3 31  1  0
  5 32  1  0
 11 33  1  0
 14 34  1  0
 15 35  1  0
 16 36  1  0
 20 37  1  0
 20 38  1  0
 20 39  1  0
 23 40  1  0
 25 41  1  0
M  CHG  1  18  -1
M  END
>  <UniqueID>  (41) 
34

>  <SMILES>  (41) 
CNCc1cc(C(F)(F)F)cc(-c2cccc([N-]S(C)(=O)=O)c2)c1O

>  <Energy>  (41) 
46.89966234461157

>  <Genealogy>  (41) 
CNCc1cc(C(F)(F)F)cc(-c2cccc([N-]S(C)(=O)=O)c2)c1O (protonated)
CNCc1cc(C(F)(F)F)cc(-c2cccc([N-]S(C)(=O)=O)c2)c1O (3D coordinates assigned)
CNCc1cc(C(F)(F)F)cc(-c2cccc([N-]S(C)(=O)=O)c2)c1O (optimized conformer: 46.89966234461157 kcal/mol)

>  <smiles>  (41) 
CNCc1cc(C(F)(F)F)cc(-c2cccc(NS(C)(=O)=O)c2)c1O

>  <score_type>  (41) 
oracle

>  <origin>  (41) 
adgpu

>  <m_score__min__energy>  (41) 
-9.8399999999999999

>  <m_primary>  (41) 
energy

$$$$
41:0
     RDKit          3D

 89 93  0  0  0  0  0  0  0  0999 V2000
   -7.3790   24.1070  -31.2180 C   0  0  0  0  0  0  0  0  0  0  0  0
   -7.6630   22.6490  -31.4210 C   0  0  0  0  0  0  0  0  0  0  0  0
   -8.9140   22.2570  -31.9270 C   0  0  0  0  0  0  0  0  0  0  0  0
   -9.2020   20.9100  -32.1190 C   0  0  0  0  0  0  0  0  0  0  0  0
   -8.2780   19.9300  -31.7400 C   0  0  0  0  0  0  0  0  0  0  0  0
   -8.5900   18.5110  -31.9360 C   0  0  0  0  0  0  0  0  0  0  0  0
   -9.8010   18.1720  -31.9930 O   0  0  0  0  0  0  0  0  0  0  0  0
   -7.5900   17.5060  -32.1400 N   0  0  0  0  0  0  0  0  0  0  0  0
   -6.4190   17.4600  -32.9770 C   0  0  0  0  0  0  0  0  0  0  0  0
   -6.0190   18.5220  -33.8000 C   0  0  0  0  0  0  0  0  0  0  0  0
   -4.7950   18.4790  -34.4630 C   0  0  0  0  0  0  0  0  0  0  0  0
   -3.9270   17.3900  -34.3070 C   0  0  0  0  0  0  0  0  0  0  0  0
   -2.5460   17.4870  -34.9530 C   0  0  0  0  0  0  0  0  0  0  0  0
   -1.4600   17.9590  -34.0440 N   0  0  0  0  0  0  0  0  0  0  0  0
   -0.6920   19.0710  -34.6400 C   0  0  0  0  0  0  0  0  0  0  0  0
    0.2420   19.7590  -33.6230 C   0  0  0  0  0  0  0  0  0  0  0  0
    0.5990   18.8810  -32.4930 N   0  0  0  0  0  0  0  0  0  0  0  0
    1.4860   17.7820  -32.8900 C   0  0  0  0  0  0  0  0  0  0  0  0
   -0.5930   18.3870  -31.7600 C   0  0  0  0  0  0  0  0  0  0  0  0
   -1.8440   18.2550  -32.6510 C   0  0  0  0  0  0  0  0  0  0  0  0
   -4.3350   16.2870  -33.5060 C   0  0  0  0  0  0  0  0  0  0  0  0
   -3.4670   15.0510  -33.3410 C   0  0  0  0  0  0  0  0  0  0  0  0
   -4.1170   14.1130  -32.5650 F   0  0  0  0  0  0  0  0  0  0  0  0
   -3.1600   14.4630  -34.5580 F   0  0  0  0  0  0  0  0  0  0  0  0
   -2.2810   15.4030  -32.7320 F   0  0  0  0  0  0  0  0  0  0  0  0
   -5.5840   16.3490  -32.8530 C   0  0  0  0  0  0  0  0  0  0  0  0
   -7.0100   20.3090  -31.2820 C   0  0  0  0  0  0  0  0  0  0  0  0
   -6.6840   21.6680  -31.1290 C   0  0  0  0  0  0  0  0  0  0  0  0
   -5.3420   22.0670  -30.7910 N   0  0  0  0  0  0  0  0  0  0  0  0
   -4.2060   21.9890  -31.6640 C   0  0  0  0  0  0  0  0  0  0  0  0
   -4.3240   21.5640  -32.8410 O   0  0  0  0  0  0  0  0  0  0  0  0
   -2.8740   22.3360  -31.1420 C   0  0  0  0  0  0  0  0  0  0  0  0
   -1.5150   21.3790  -31.3550 S   0  0  0  0  0  0  0  0  0  0  0  0
   -0.5490   22.1710  -30.2260 C   0  0  0  0  0  0  0  0  0  0  0  0
   -1.2820   23.2150  -29.6580 C   0  0  0  0  0  0  0  0  0  0  0  0
   -0.7540   24.0890  -28.5410 C   0  0  0  0  0  0  0  0  0  0  0  0
   -1.5780   23.9280  -27.3190 N   0  0  0  0  0  0  0  0  0  0  0  0
   -1.9420   25.2460  -26.7720 C   0  0  0  0  0  0  0  0  0  0  0  0
   -0.8760   23.1340  -26.2790 C   0  0  0  0  0  0  0  0  0  0  0  0
    0.0400   22.0850  -26.9240 C   0  0  0  0  0  0  0  0  0  0  0  0
   -0.5040   20.7140  -26.8040 N   0  0  0  0  0  0  0  0  0  0  0  0
    0.0020   19.8300  -27.8740 C   0  0  0  0  0  0  0  0  0  0  0  0
   -0.5820   18.4070  -27.7200 C   0  0  0  0  0  0  0  0  0  0  0  0
   -1.6250   18.3560  -26.7670 O   0  0  0  0  0  0  0  0  0  0  0  0
   -2.5830   19.3530  -27.0520 C   0  0  0  0  0  0  0  0  0  0  0  0
   -1.9810   20.7600  -26.8550 C   0  0  0  0  0  0  0  0  0  0  0  0
   -2.5870   23.3120  -30.1850 C   0  0  0  0  0  0  0  0  0  0  0  0
   -3.7540   24.5420  -29.7030 Cl  0  0  0  0  0  0  0  0  0  0  0  0
   -7.3364   24.3257  -30.1408 H   0  0  0  0  0  0  0  0  0  0  0  0
   -6.4145   24.3608  -31.6821 H   0  0  0  0  0  0  0  0  0  0  0  0
   -8.1777   24.7042  -31.6821 H   0  0  0  0  0  0  0  0  0  0  0  0
   -9.6687   23.0188  -32.1723 H   0  0  0  0  0  0  0  0  0  0  0  0
  -10.1602   20.6138  -32.5707 H   0  0  0  0  0  0  0  0  0  0  0  0
   -6.6764   19.3953  -33.9230 H   0  0  0  0  0  0  0  0  0  0  0  0
   -4.5051   19.3128  -35.1193 H   0  0  0  0  0  0  0  0  0  0  0  0
   -2.2713   16.4887  -35.3243 H   0  0  0  0  0  0  0  0  0  0  0  0
   -2.6302   18.2396  -35.7508 H   0  0  0  0  0  0  0  0  0  0  0  0
   -0.0829   18.6755  -35.4662 H   0  0  0  0  0  0  0  0  0  0  0  0
   -1.4134   19.8232  -34.9918 H   0  0  0  0  0  0  0  0  0  0  0  0
    1.1651   20.0596  -34.1403 H   0  0  0  0  0  0  0  0  0  0  0  0
   -0.2954   20.6266  -33.2126 H   0  0  0  0  0  0  0  0  0  0  0  0
    1.8840   17.2889  -31.9908 H   0  0  0  0  0  0  0  0  0  0  0  0
    0.9207   17.0524  -33.4884 H   0  0  0  0  0  0  0  0  0  0  0  0
    2.3185   18.1806  -33.4884 H   0  0  0  0  0  0  0  0  0  0  0  0
   -0.3588   17.3985  -31.3380 H   0  0  0  0  0  0  0  0  0  0  0  0
   -0.8252   19.1260  -30.9790 H   0  0  0  0  0  0  0  0  0  0  0  0
   -2.4756   17.4394  -32.2690 H   0  0  0  0  0  0  0  0  0  0  0  0
   -2.3966   19.2059  -32.6298 H   0  0  0  0  0  0  0  0  0  0  0  0
   -5.9073   15.5012  -32.2312 H   0  0  0  0  0  0  0  0  0  0  0  0
   -6.2637   19.5379  -31.0402 H   0  0  0  0  0  0  0  0  0  0  0  0
   -5.1670   22.3760  -29.8070 H   0  0  0  0  0  0  0  0  0  0  0  0
    0.4898   21.9088  -29.9766 H   0  0  0  0  0  0  0  0  0  0  0  0
    0.2842   23.8022  -28.3174 H   0  0  0  0  0  0  0  0  0  0  0  0
   -0.7974   25.1401  -28.8623 H   0  0  0  0  0  0  0  0  0  0  0  0
   -1.9301   25.2028  -25.6729 H   0  0  0  0  0  0  0  0  0  0  0  0
   -1.2182   25.9989  -27.1173 H   0  0  0  0  0  0  0  0  0  0  0  0
   -2.9496   25.5207  -27.1173 H   0  0  0  0  0  0  0  0  0  0  0  0
   -0.2699   23.8092  -25.6570 H   0  0  0  0  0  0  0  0  0  0  0  0
   -1.6260   22.6173  -25.6621 H   0  0  0  0  0  0  0  0  0  0  0  0
    0.1581   22.3265  -27.9906 H   0  0  0  0  0  0  0  0  0  0  0  0
    1.0050   22.1113  -26.3967 H   0  0  0  0  0  0  0  0  0  0  0  0
   -0.2932   20.2389  -28.8516 H   0  0  0  0  0  0  0  0  0  0  0  0
    1.0983   19.7750  -27.8022 H   0  0  0  0  0  0  0  0  0  0  0  0
   -0.9756   18.0788  -28.6933 H   0  0  0  0  0  0  0  0  0  0  0  0
    0.2260   17.7473  -27.3707 H   0  0  0  0  0  0  0  0  0  0  0  0
   -2.9166   19.2457  -28.0947 H   0  0  0  0  0  0  0  0  0  0  0  0
   -3.4336   19.2329  -26.3649 H   0  0  0  0  0  0  0  0  0  0  0  0
   -2.2901   21.4018  -27.6932 H   0  0  0  0  0  0  0  0  0  0  0  0
   -2.3475   21.1619  -25.8989 H   0  0  0  0  0  0  0  0  0  0  0  0
  1  2  1  0
  2  3  2  0
  3  4  1  0
  4  5  2  0
  5  6  1  0
  6  7  2  0
  6  8  1  0
  8  9  1  0
  9 10  2  0
 10 11  1  0
 11 12  2  0
 12 13  1  0
 13 14  1  0
 14 15  1  0
 15 16  1  0
 16 17  1  0
 17 18  1  0
 17 19  1  0
 19 20  1  0
 12 21  1  0
 21 22  1  0
 22 23  1  0
 22 24  1  0
 22 25  1  0
 21 26  2  0
  5 27  1  0
 27 28  2  0
 28 29  1  0
 29 30  1  0
 30 31  2  0
 30 32  1  0
 32 33  1  0
 33 34  1  0
 34 35  2  0
 35 36  1  0
 36 37  1  0
 37 38  1  0
 37 39  1  0
 39 40  1  0
 40 41  1  0
 41 42  1  0
 42 43  1  0
 43 44  1  0
 44 45  1  0
 45 46  1  0
 35 47  1  0
 47 48  1  0
 28  2  1  0
 47 32  2  0
 26  9  1  0
 46 41  1  0
 20 14  1  0
  1 49  1  0
  1 50  1  0
  1 51  1  0
  3 52  1  0
  4 53  1  0
 10 54  1  0
 11 55  1  0
 13 56  1  0
 13 57  1  0
 15 58  1  0
 15 59  1  0
 16 60  1  0
 16 61  1  0
 18 62  1  0
 18 63  1  0
 18 64  1  0
 19 65  1  0
 19 66  1  0
 20 67  1  0
 20 68  1  0
 26 69  1  0
 27 70  1  0
 29 71  1  0
 34 72  1  0
 36 73  1  0
 36 74  1  0
 38 75  1  0
 38 76  1  0
 38 77  1  0
 39 78  1  0
 39 79  1  0
 40 80  1  0
 40 81  1  0
 42 82  1  0
 42 83  1  0
 43 84  1  0
 43 85  1  0
 45 86  1  0
 45 87  1  0
 46 88  1  0
 46 89  1  0
M  CHG  1   8  -1
M  END
>  <UniqueID>  (42) 
35

>  <SMILES>  (42) 
Cc1ccc(C(=O)[N-]c2ccc(CN3CCN(C)CC3)c(C(F)(F)F)c2)cc1NC(=O)c1scc(CN(C)CCN2CCOCC2)c1Cl

>  <Energy>  (42) 
177.5562363364641

>  <Genealogy>  (42) 
Cc1ccc(C(=O)[N-]c2ccc(CN3CCN(C)CC3)c(C(F)(F)F)c2)cc1NC(=O)c1scc(CN(C)CCN2CCOCC2)c1Cl (protonated)
Cc1ccc(C(=O)[N-]c2ccc(CN3CCN(C)CC3)c(C(F)(F)F)c2)cc1NC(=O)c1scc(CN(C)CCN2CCOCC2)c1Cl (3D coordinates assigned)
Cc1ccc(C(=O)[N-]c2ccc(CN3CCN(C)CC3)c(C(F)(F)F)c2)cc1NC(=O)c1scc(CN(C)CCN2CCOCC2)c1Cl (nonaromatic ring conformer: 177.5562363364641 kcal/mol)

>  <smiles>  (42) 
Cc1ccc(C(=O)Nc2ccc(CN3CCN(C)CC3)c(C(F)(F)F)c2)cc1NC(=O)c1scc(CN(C)CCN2CCOCC2)c1Cl

>  <score_type>  (42) 
oracle

>  <origin>  (42) 
adgpu

>  <m_score__min__energy>  (42) 
-12.65

>  <m_primary>  (42) 
energy

$$$$
42:0
     RDKit          3D

 21 22  0  0  0  0  0  0  0  0999 V2000
   -3.9470   25.4950  -30.7800 O   0  0  0  0  0  0  0  0  0  0  0  0
   -3.5360   24.4660  -30.1820 C   0  0  0  0  0  0  0  0  0  0  0  0
   -4.2450   23.3100  -30.2650 N   0  0  0  0  0  0  0  0  0  0  0  0
   -3.8410   22.1720  -29.6390 C   0  0  0  0  0  0  0  0  0  0  0  0
   -2.6630   22.1620  -28.8730 C   0  0  0  0  0  0  0  0  0  0  0  0
   -2.2120   20.9270  -28.1830 C   0  0  0  0  0  0  0  0  0  0  0  0
   -0.8910   20.4630  -28.3350 C   0  0  0  0  0  0  0  0  0  0  0  0
   -0.4700   19.3000  -27.6830 C   0  0  0  0  0  0  0  0  0  0  0  0
   -1.3590   18.5880  -26.8730 C   0  0  0  0  0  0  0  0  0  0  0  0
   -2.6710   19.0380  -26.7150 C   0  0  0  0  0  0  0  0  0  0  0  0
   -3.0980   20.2010  -27.3640 C   0  0  0  0  0  0  0  0  0  0  0  0
   -1.9220   23.3520  -28.7770 C   0  0  0  0  0  0  0  0  0  0  0  0
   -2.3560   24.5070  -29.4320 C   0  0  0  0  0  0  0  0  0  0  0  0
   -1.6180   25.6820  -29.3380 O   0  0  0  0  0  0  0  0  0  0  0  0
   -4.4399   21.2542  -29.7329 H   0  0  0  0  0  0  0  0  0  0  0  0
   -0.1861   21.0190  -28.9706 H   0  0  0  0  0  0  0  0  0  0  0  0
    0.5635   18.9445  -27.8079 H   0  0  0  0  0  0  0  0  0  0  0  0
   -1.0251   17.6738  -26.3604 H   0  0  0  0  0  0  0  0  0  0  0  0
   -3.3707   18.4765  -26.0785 H   0  0  0  0  0  0  0  0  0  0  0  0
   -4.1327   20.5508  -27.2338 H   0  0  0  0  0  0  0  0  0  0  0  0
   -0.9961   23.3742  -28.1835 H   0  0  0  0  0  0  0  0  0  0  0  0
  1  2  2  0
  2  3  1  0
  3  4  1  0
  4  5  2  0
  5  6  1  0
  6  7  2  0
  7  8  1  0
  8  9  2  0
  9 10  1  0
 10 11  2  0
  5 12  1  0
 12 13  2  0
 13 14  1  0
 13  2  1  0
 11  6  1  0
  4 15  1  0
  7 16  1  0
  8 17  1  0
  9 18  1  0
 10 19  1  0
 11 20  1  0
 12 21  1  0
M  CHG  2   3  -1  14  -1
M  END
>  <UniqueID>  (43) 
36

>  <SMILES>  (43) 
O=c1[n-]cc(-c2ccccc2)cc1[O-]

>  <Energy>  (43) 
28.493351047804506

>  <Genealogy>  (43) 
O=c1[n-]cc(-c2ccccc2)cc1[O-] (protonated)
O=c1[n-]cc(-c2ccccc2)cc1[O-] (3D coordinates assigned)
O=c1[n-]cc(-c2ccccc2)cc1[O-] (optimized conformer: 28.493351047804506 kcal/mol)

>  <smiles>  (43) 
O=c1[nH]cc(-c2ccccc2)cc1O

>  <score_type>  (43) 
oracle

>  <origin>  (43) 
adgpu

>  <m_score__min__energy>  (43) 
-9.4399999999999995

>  <m_primary>  (43) 
energy

$$$$
43:0
     RDKit          3D

 37 39  0  0  0  0  0  0  0  0999 V2000
   -3.6113   20.2633  -30.1341 H   0  0  0  0  0  0  0  0  0  0  0  0
   -3.1850   21.0740  -29.5250 C   0  0  0  0  0  0  0  0  0  0  0  0
   -2.4146   20.8499  -28.7725 H   0  0  0  0  0  0  0  0  0  0  0  0
   -3.6050   22.3370  -29.7000 C   0  0  0  0  0  0  0  0  0  0  0  0
   -3.1580   23.4650  -29.0040 C   0  0  0  0  0  0  0  0  0  0  0  0
   -2.2380   23.5070  -28.0210 C   0  0  0  0  0  0  0  0  0  0  0  0
   -1.7936   22.5578  -27.6870 H   0  0  0  0  0  0  0  0  0  0  0  0
   -1.7920   24.7490  -27.3670 C   0  0  0  0  0  0  0  0  0  0  0  0
   -1.6060   24.9270  -25.7000 S   0  0  0  0  0  0  0  0  0  0  0  0
   -0.9890   26.4840  -25.8430 C   0  0  0  0  0  0  0  0  0  0  0  0
   -0.6410   27.2050  -24.8710 O   0  0  0  0  0  0  0  0  0  0  0  0
   -0.8930   26.8770  -27.1300 N   0  0  0  0  0  0  0  0  0  0  0  0
   -0.5140   27.8010  -27.4340 H   0  0  0  0  0  0  0  0  0  0  0  0
   -1.3190   25.9100  -27.9830 C   0  0  0  0  0  0  0  0  0  0  0  0
   -1.2400   26.0680  -29.3620 O   0  0  0  0  0  0  0  0  0  0  0  0
   -3.8980   24.5380  -29.4840 C   0  0  0  0  0  0  0  0  0  0  0  0
   -3.8256   25.5851  -29.1550 H   0  0  0  0  0  0  0  0  0  0  0  0
   -4.7410   24.0360  -30.4530 C   0  0  0  0  0  0  0  0  0  0  0  0
   -5.7410   24.8510  -31.2170 C   0  0  0  0  0  0  0  0  0  0  0  0
   -6.3952   25.3842  -30.5115 H   0  0  0  0  0  0  0  0  0  0  0  0
   -5.2133   25.5796  -31.8500 H   0  0  0  0  0  0  0  0  0  0  0  0
   -6.3481   24.1872  -31.8500 H   0  0  0  0  0  0  0  0  0  0  0  0
   -4.5710   22.7000  -30.5830 N   0  0  0  0  0  0  0  0  0  0  0  0
   -5.2840   21.8470  -31.4950 C   0  0  0  0  0  0  0  0  0  0  0  0
   -4.6040   21.2140  -32.5450 C   0  0  0  0  0  0  0  0  0  0  0  0
   -3.5230   21.3722  -32.6729 H   0  0  0  0  0  0  0  0  0  0  0  0
   -5.2960   20.3830  -33.4290 C   0  0  0  0  0  0  0  0  0  0  0  0
   -4.7568   19.8794  -34.2449 H   0  0  0  0  0  0  0  0  0  0  0  0
   -6.6720   20.1900  -33.2790 C   0  0  0  0  0  0  0  0  0  0  0  0
   -7.2086   19.5238  -33.9705 H   0  0  0  0  0  0  0  0  0  0  0  0
   -7.3750   20.8410  -32.2510 C   0  0  0  0  0  0  0  0  0  0  0  0
   -8.8500   20.5970  -32.0580 C   0  0  0  0  0  0  0  0  0  0  0  0
   -9.3570   19.8290  -33.0920 F   0  0  0  0  0  0  0  0  0  0  0  0
   -9.5120   21.8110  -32.0320 F   0  0  0  0  0  0  0  0  0  0  0  0
   -9.0850   19.9300  -30.8680 F   0  0  0  0  0  0  0  0  0  0  0  0
   -6.6650   21.6530  -31.3480 C   0  0  0  0  0  0  0  0  0  0  0  0
   -7.1983   22.1405  -30.5186 H   0  0  0  0  0  0  0  0  0  0  0  0
  1  2  1  0
  2  3  1  0
  2  4  2  0
  4  5  1  0
  5  6  2  0
  6  7  1  0
  6  8  1  0
  8  9  1  0
  9 10  1  0
 10 11  2  0
 10 12  1  0
 12 13  1  0
 12 14  1  0
 14 15  1  0
  5 16  1  0
 16 17  1  0
 16 18  2  0
 18 19  1  0
 19 20  1  0
 19 21  1  0
 19 22  1  0
 18 23  1  0
 23 24  1  0
 24 25  2  0
 25 26  1  0
 25 27  1  0
 27 28  1  0
 27 29  2  0
 29 30  1  0
 29 31  1  0
 31 32  1  0
 32 33  1  0
 32 34  1  0
 32 35  1  0
 31 36  2  0
 36 37  1  0
 23  4  1  0
 36 24  1  0
 14  8  2  0
M  CHG  1  15  -1
M  END
>  <UniqueID>  (44) 
37

>  <SMILES>  (44) 
C=c1/c(=C/c2sc(=O)[nH]c2[O-])cc(C)n1-c1cccc(C(F)(F)F)c1

>  <Energy>  (44) 
112.16088946861797

>  <Genealogy>  (44) 
C=c1c(=Cc2sc(=O)[nH]c2[O-])cc(C)n1-c1cccc(C(F)(F)F)c1 (protonated)
C=c1/c(=C/c2sc(=O)[nH]c2[O-])cc(C)n1-c1cccc(C(F)(F)F)c1 (cis-trans isomerization)
C=c1/c(=C/c2sc(=O)[nH]c2[O-])cc(C)n1-c1cccc(C(F)(F)F)c1 (3D coordinates assigned)
C=c1/c(=C/c2sc(=O)[nH]c2[O-])cc(C)n1-c1cccc(C(F)(F)F)c1 (optimized conformer: 112.16088946861797 kcal/mol)

>  <smiles>  (44) 
C=c1c(=Cc2sc(=O)[nH]c2O)cc(C)n1-c1cccc(C(F)(F)F)c1

>  <score_type>  (44) 
oracle

>  <origin>  (44) 
adgpu

>  <m_score__min__energy>  (44) 
-10.59

>  <m_primary>  (44) 
energy

$$$$
44:0
     RDKit          3D

 40 42  0  0  0  0  0  0  0  0999 V2000
   -0.1408   27.2322  -27.5810 H   0  0  0  0  0  0  0  0  0  0  0  0
   -0.5550   26.2450  -27.8340 C   0  0  0  0  0  0  0  0  0  0  0  0
   -1.5160   26.0290  -28.7010 O   0  0  0  0  0  0  0  0  0  0  0  0
   -1.7500   24.7380  -28.7500 C   0  0  0  0  0  0  0  0  0  0  0  0
   -2.8030   24.1070  -29.6160 C   0  0  0  0  0  0  0  0  0  0  0  0
   -3.3445   23.3532  -29.0256 H   0  0  0  0  0  0  0  0  0  0  0  0
   -2.3031   23.6477  -30.4815 H   0  0  0  0  0  0  0  0  0  0  0  0
   -3.7650   25.0990  -30.1180 N   0  0  0  0  0  0  0  0  0  0  0  0
   -3.4960   26.0470  -29.7630 H   0  0  0  0  0  0  0  0  0  0  0  0
   -5.1380   24.7970  -29.6860 C   0  0  0  0  0  0  0  0  0  0  0  0
   -5.3984   25.4393  -28.8318 H   0  0  0  0  0  0  0  0  0  0  0  0
   -5.1948   23.7378  -29.3947 H   0  0  0  0  0  0  0  0  0  0  0  0
   -6.1270   25.0510  -30.8280 C   0  0  0  0  0  0  0  0  0  0  0  0
   -5.8298   25.9749  -31.3459 H   0  0  0  0  0  0  0  0  0  0  0  0
   -7.1272   25.1264  -30.3765 H   0  0  0  0  0  0  0  0  0  0  0  0
   -6.1840   23.9150  -31.8580 C   0  0  0  0  0  0  0  0  0  0  0  0
   -5.2548   23.3291  -31.8011 H   0  0  0  0  0  0  0  0  0  0  0  0
   -6.2987   24.3523  -32.8608 H   0  0  0  0  0  0  0  0  0  0  0  0
   -7.3250   23.0340  -31.5950 N   0  0  0  0  0  0  0  0  0  0  0  0
   -7.6130   21.7950  -31.9110 C   0  0  0  0  0  0  0  0  0  0  0  0
   -8.9520   21.4260  -31.7400 C   0  0  0  0  0  0  0  0  0  0  0  0
   -9.6236   22.0713  -31.1548 H   0  0  0  0  0  0  0  0  0  0  0  0
   -9.4430   20.2520  -32.3020 C   0  0  0  0  0  0  0  0  0  0  0  0
  -10.5023   19.9849  -32.1733 H   0  0  0  0  0  0  0  0  0  0  0  0
   -8.6230   19.4360  -33.0070 N   0  0  0  0  0  0  0  0  0  0  0  0
   -9.0340   18.5760  -33.4370 H   0  0  0  0  0  0  0  0  0  0  0  0
   -7.2860   19.6840  -33.1100 C   0  0  0  0  0  0  0  0  0  0  0  0
   -6.4610   18.7570  -33.7680 C   0  0  0  0  0  0  0  0  0  0  0  0
   -6.9100   17.8974  -34.2871 H   0  0  0  0  0  0  0  0  0  0  0  0
   -5.0770   18.9200  -33.7670 C   0  0  0  0  0  0  0  0  0  0  0  0
   -4.0520   17.7450  -34.5700 Cl  0  0  0  0  0  0  0  0  0  0  0  0
   -4.5060   19.9840  -33.0700 C   0  0  0  0  0  0  0  0  0  0  0  0
   -3.4116   20.0866  -33.0272 H   0  0  0  0  0  0  0  0  0  0  0  0
   -5.3180   20.9200  -32.4260 C   0  0  0  0  0  0  0  0  0  0  0  0
   -4.8529   21.7292  -31.8438 H   0  0  0  0  0  0  0  0  0  0  0  0
   -6.7230   20.8460  -32.5090 C   0  0  0  0  0  0  0  0  0  0  0  0
   -0.9160   24.0710  -27.8770 C   0  0  0  0  0  0  0  0  0  0  0  0
   -0.8771   22.9876  -27.6909 H   0  0  0  0  0  0  0  0  0  0  0  0
   -0.1420   25.0460  -27.2870 C   0  0  0  0  0  0  0  0  0  0  0  0
    0.6454   24.8993  -26.5330 H   0  0  0  0  0  0  0  0  0  0  0  0
  1  2  1  0
  2  3  1  0
  3  4  1  0
  4  5  1  0
  5  6  1  0
  5  7  1  0
  5  8  1  0
  8  9  1  0
  8 10  1  0
 10 11  1  0
 10 12  1  0
 10 13  1  0
 13 14  1  0
 13 15  1  0
 13 16  1  0
 16 17  1  0
 16 18  1  0
 16 19  1  0
 19 20  2  0
 20 21  1  0
 21 22  1  0
 21 23  2  0
 23 24  1  0
 23 25  1  0
 25 26  1  0
 25 27  1  0
 27 28  2  0
 28 29  1  0
 28 30  1  0
 30 31  1  0
 30 32  2  0
 32 33  1  0
 32 34  1  0
 34 35  1  0
 34 36  2  0
  4 37  2  0
 37 38  1  0
 37 39  1  0
 39 40  1  0
 39  2  2  0
 36 20  1  0
 36 27  1  0
M  END
>  <UniqueID>  (45) 
38

>  <SMILES>  (45) 
Clc1ccc2/c(=N\CCCNCc3ccco3)cc[nH]c2c1

>  <Energy>  (45) 
88.40110590113395

>  <Genealogy>  (45) 
Clc1ccc2/c(=N\CCCNCc3ccco3)cc[nH]c2c1 (cis-trans isomerization)
Clc1ccc2/c(=N\CCCNCc3ccco3)cc[nH]c2c1 (3D coordinates assigned)
Clc1ccc2/c(=N\CCCNCc3ccco3)cc[nH]c2c1 (optimized conformer: 88.40110590113395 kcal/mol)

>  <smiles>  (45) 
Clc1ccc2c(=NCCCNCc3ccco3)cc[nH]c2c1

>  <score_type>  (45) 
oracle

>  <origin>  (45) 
adgpu

>  <m_score__min__energy>  (45) 
-9.7100000000000009

>  <m_primary>  (45) 
energy

$$$$
45:0
     RDKit          3D

 48 51  0  0  0  0  0  0  0  0999 V2000
   -1.0500   17.3270  -32.8580 C   0  0  0  0  0  0  0  0  0  0  0  0
   -1.5460   17.6940  -34.2530 C   0  0  0  0  0  0  0  0  0  0  0  0
   -3.0210   17.9420  -34.2390 C   0  0  0  0  0  0  0  0  0  0  0  0
   -3.6210   18.8170  -33.4050 N   0  0  0  0  0  0  0  0  0  0  0  0
   -4.9220   18.7280  -33.7440 C   0  0  0  0  0  0  0  0  0  0  0  0
   -5.9990   19.5190  -33.0970 C   0  0  0  0  0  0  0  0  0  0  0  0
   -7.3180   19.0330  -33.0990 C   0  0  0  0  0  0  0  0  0  0  0  0
   -8.3420   19.7640  -32.4940 C   0  0  0  0  0  0  0  0  0  0  0  0
   -8.0670   20.9870  -31.8840 C   0  0  0  0  0  0  0  0  0  0  0  0
   -6.7570   21.5000  -31.8730 C   0  0  0  0  0  0  0  0  0  0  0  0
   -6.4640   22.8050  -31.2270 C   0  0  0  0  0  0  0  0  0  0  0  0
   -7.5060   23.5930  -30.7060 C   0  0  0  0  0  0  0  0  0  0  0  0
   -7.2300   24.8270  -30.1120 C   0  0  0  0  0  0  0  0  0  0  0  0
   -5.9140   25.2860  -30.0230 C   0  0  0  0  0  0  0  0  0  0  0  0
   -4.8580   24.5030  -30.5180 C   0  0  0  0  0  0  0  0  0  0  0  0
   -3.4940   24.9500  -30.4720 N   0  0  0  0  0  0  0  0  0  0  0  0
   -2.4960   24.5580  -29.5200 C   0  0  0  0  0  0  0  0  0  0  0  0
   -1.9540   25.4250  -28.7800 O   0  0  0  0  0  0  0  0  0  0  0  0
   -2.1320   23.1290  -29.3710 C   0  0  0  0  0  0  0  0  0  0  0  0
   -1.8840   22.5820  -28.0980 C   0  0  0  0  0  0  0  0  0  0  0  0
   -1.5600   21.2290  -27.9590 C   0  0  0  0  0  0  0  0  0  0  0  0
   -1.4780   20.4070  -29.0850 C   0  0  0  0  0  0  0  0  0  0  0  0
   -1.1650   19.0940  -28.9400 F   0  0  0  0  0  0  0  0  0  0  0  0
   -1.7210   20.9350  -30.3570 C   0  0  0  0  0  0  0  0  0  0  0  0
   -1.6420   20.1060  -31.4740 O   0  0  0  0  0  0  0  0  0  0  0  0
   -2.0460   22.2920  -30.5000 C   0  0  0  0  0  0  0  0  0  0  0  0
   -5.1410   23.2770  -31.1320 C   0  0  0  0  0  0  0  0  0  0  0  0
   -5.7290   20.7580  -32.4840 C   0  0  0  0  0  0  0  0  0  0  0  0
   -5.0590   17.8110  -34.7700 C   0  0  0  0  0  0  0  0  0  0  0  0
   -3.8660   17.3480  -35.0490 O   0  0  0  0  0  0  0  0  0  0  0  0
   -1.6932   17.8029  -32.1032 H   0  0  0  0  0  0  0  0  0  0  0  0
   -1.0838   16.2347  -32.7324 H   0  0  0  0  0  0  0  0  0  0  0  0
   -0.0153   17.6787  -32.7324 H   0  0  0  0  0  0  0  0  0  0  0  0
   -1.0296   18.6040  -34.5925 H   0  0  0  0  0  0  0  0  0  0  0  0
   -1.3334   16.8585  -34.9362 H   0  0  0  0  0  0  0  0  0  0  0  0
   -7.5448   18.0703  -33.5805 H   0  0  0  0  0  0  0  0  0  0  0  0
   -9.3703   19.3733  -32.4986 H   0  0  0  0  0  0  0  0  0  0  0  0
   -8.8799   21.5549  -31.4079 H   0  0  0  0  0  0  0  0  0  0  0  0
   -8.5445   23.2355  -30.7666 H   0  0  0  0  0  0  0  0  0  0  0  0
   -8.0521   25.4393  -29.7130 H   0  0  0  0  0  0  0  0  0  0  0  0
   -5.7038   26.2633  -29.5640 H   0  0  0  0  0  0  0  0  0  0  0  0
   -1.9455   23.2234  -27.2064 H   0  0  0  0  0  0  0  0  0  0  0  0
   -1.3691   20.8107  -26.9597 H   0  0  0  0  0  0  0  0  0  0  0  0
   -2.4170   19.5150  -31.7510 H   0  0  0  0  0  0  0  0  0  0  0  0
   -2.2351   22.7054  -31.5017 H   0  0  0  0  0  0  0  0  0  0  0  0
   -4.3188   22.6746  -31.5456 H   0  0  0  0  0  0  0  0  0  0  0  0
   -4.7015   21.1507  -32.4828 H   0  0  0  0  0  0  0  0  0  0  0  0
   -5.9994   17.5227  -35.2625 H   0  0  0  0  0  0  0  0  0  0  0  0
  1  2  1  0
  2  3  1  0
  3  4  2  0
  4  5  1  0
  5  6  1  0
  6  7  2  0
  7  8  1  0
  8  9  2  0
  9 10  1  0
 10 11  1  0
 11 12  2  0
 12 13  1  0
 13 14  2  0
 14 15  1  0
 15 16  1  0
 16 17  1  0
 17 18  2  0
 17 19  1  0
 19 20  2  0
 20 21  1  0
 21 22  2  0
 22 23  1  0
 22 24  1  0
 24 25  1  0
 24 26  2  0
 15 27  2  0
 10 28  2  0
  5 29  2  0
 29 30  1  0
 30  3  1  0
 28  6  1  0
 27 11  1  0
 26 19  1  0
  1 31  1  0
  1 32  1  0
  1 33  1  0
  2 34  1  0
  2 35  1  0
  7 36  1  0
  8 37  1  0
  9 38  1  0
 12 39  1  0
 13 40  1  0
 14 41  1  0
 20 42  1  0
 21 43  1  0
 25 44  1  0
 26 45  1  0
 27 46  1  0
 28 47  1  0
 29 48  1  0
M  CHG  1  16  -1
M  END
>  <UniqueID>  (46) 
39

>  <SMILES>  (46) 
CCc1nc(-c2cccc(-c3cccc([N-]C(=O)c4ccc(F)c(O)c4)c3)c2)co1

>  <Energy>  (46) 
89.092108693744

>  <Genealogy>  (46) 
CCc1nc(-c2cccc(-c3cccc([N-]C(=O)c4ccc(F)c(O)c4)c3)c2)co1 (protonated)
CCc1nc(-c2cccc(-c3cccc([N-]C(=O)c4ccc(F)c(O)c4)c3)c2)co1 (3D coordinates assigned)
CCc1nc(-c2cccc(-c3cccc([N-]C(=O)c4ccc(F)c(O)c4)c3)c2)co1 (optimized conformer: 89.092108693744 kcal/mol)

>  <smiles>  (46) 
CCc1nc(-c2cccc(-c3cccc(NC(=O)c4ccc(F)c(O)c4)c3)c2)co1

>  <score_type>  (46) 
oracle

>  <origin>  (46) 
adgpu

>  <m_score__min__energy>  (46) 
-11.01

>  <m_primary>  (46) 
energy

$$$$
46:0
     RDKit          3D

 38 39  0  0  0  0  0  0  0  0999 V2000
   -3.9510   25.6620  -30.8600 N   0  0  0  0  0  0  0  0  0  0  0  0
   -5.1730   24.9760  -30.5950 C   0  0  0  0  0  0  0  0  0  0  0  0
   -6.1670   25.6180  -30.1660 O   0  0  0  0  0  0  0  0  0  0  0  0
   -5.2990   23.5030  -30.8690 C   0  0  1  0  0  0  0  0  0  0  0  0
   -5.9310   23.2420  -32.2520 C   0  0  0  0  0  0  0  0  0  0  0  0
   -6.8100   22.0150  -32.2870 C   0  0  0  0  0  0  0  0  0  0  0  0
   -6.2500   20.7470  -32.5160 C   0  0  0  0  0  0  0  0  0  0  0  0
   -7.0620   19.6120  -32.5450 C   0  0  0  0  0  0  0  0  0  0  0  0
   -8.4450   19.7270  -32.3680 C   0  0  0  0  0  0  0  0  0  0  0  0
   -9.2340   18.5780  -32.4170 O   0  0  0  0  0  0  0  0  0  0  0  0
   -9.0130   20.9910  -32.1410 C   0  0  0  0  0  0  0  0  0  0  0  0
  -10.3840   21.1250  -31.9590 O   0  0  0  0  0  0  0  0  0  0  0  0
   -8.1970   22.1270  -32.0950 C   0  0  0  0  0  0  0  0  0  0  0  0
   -3.9880   22.8650  -30.7490 N   0  0  0  0  0  0  0  0  0  0  0  0
   -3.7320   21.6770  -29.9940 C   0  0  0  0  0  0  0  0  0  0  0  0
   -3.8080   20.5440  -30.5380 O   0  0  0  0  0  0  0  0  0  0  0  0
   -3.3680   21.7900  -28.5470 C   0  0  0  0  0  0  0  0  0  0  0  0
   -2.2110   22.7350  -28.3710 C   0  0  0  0  0  0  0  0  0  0  0  0
   -1.1000   22.3560  -27.5980 C   0  0  0  0  0  0  0  0  0  0  0  0
   -0.0310   23.2400  -27.4190 C   0  0  0  0  0  0  0  0  0  0  0  0
   -0.0670   24.5110  -28.0030 C   0  0  0  0  0  0  0  0  0  0  0  0
    0.9990   25.3840  -27.8210 O   0  0  0  0  0  0  0  0  0  0  0  0
   -1.1780   24.9020  -28.7600 C   0  0  0  0  0  0  0  0  0  0  0  0
   -1.2230   26.1670  -29.3320 O   0  0  0  0  0  0  0  0  0  0  0  0
   -2.2500   24.0190  -28.9380 C   0  0  0  0  0  0  0  0  0  0  0  0
   -3.0460   25.3140  -30.4720 H   0  0  0  0  0  0  0  0  0  0  0  0
   -5.9735   23.0602  -30.1213 H   0  0  0  0  0  0  0  0  0  0  0  0
   -6.5402   24.1155  -32.5275 H   0  0  0  0  0  0  0  0  0  0  0  0
   -5.1060   23.0711  -32.9593 H   0  0  0  0  0  0  0  0  0  0  0  0
   -5.1658   20.6481  -32.6733 H   0  0  0  0  0  0  0  0  0  0  0  0
   -6.6120   18.6216  -32.7079 H   0  0  0  0  0  0  0  0  0  0  0  0
  -10.2360   18.6090  -32.2750 H   0  0  0  0  0  0  0  0  0  0  0  0
   -8.6447   23.1141  -31.9073 H   0  0  0  0  0  0  0  0  0  0  0  0
   -4.2339   22.1679  -27.9836 H   0  0  0  0  0  0  0  0  0  0  0  0
   -3.0785   20.7970  -28.1727 H   0  0  0  0  0  0  0  0  0  0  0  0
   -1.0711   21.3601  -27.1319 H   0  0  0  0  0  0  0  0  0  0  0  0
    0.8389   22.9357  -26.8185 H   0  0  0  0  0  0  0  0  0  0  0  0
   -3.1263   24.3325  -29.5244 H   0  0  0  0  0  0  0  0  0  0  0  0
  1  2  1  0
  2  3  2  0
  2  4  1  0
  4  5  1  0
  5  6  1  0
  6  7  2  0
  7  8  1  0
  8  9  2  0
  9 10  1  0
  9 11  1  0
 11 12  1  0
 11 13  2  0
  4 14  1  0
 14 15  1  0
 15 16  2  0
 15 17  1  0
 17 18  1  0
 18 19  2  0
 19 20  1  0
 20 21  2  0
 21 22  1  0
 21 23  1  0
 23 24  1  0
 23 25  2  0
 13  6  1  0
 25 18  1  0
  1 26  1  0
  4 27  1  1
  5 28  1  0
  5 29  1  0
  7 30  1  0
  8 31  1  0
 10 32  1  0
 13 33  1  0
 17 34  1  0
 17 35  1  0
 19 36  1  0
 20 37  1  0
 25 38  1  0
M  CHG  5   1  -1  12  -1  14  -1  22  -1  24  -1
M  END
>  <UniqueID>  (47) 
40

>  <SMILES>  (47) 
[NH-]C(=O)[C@@H](Cc1ccc(O)c([O-])c1)[N-]C(=O)Cc1ccc([O-])c([O-])c1

>  <Energy>  (47) 
29.326599184380573

>  <Genealogy>  (47) 
[NH-]C(=O)C(Cc1ccc(O)c([O-])c1)[N-]C(=O)Cc1ccc([O-])c([O-])c1 (protonated)
[NH-]C(=O)[C@@H](Cc1ccc(O)c([O-])c1)[N-]C(=O)Cc1ccc([O-])c([O-])c1 (chirality)
[NH-]C(=O)[C@@H](Cc1ccc(O)c([O-])c1)[N-]C(=O)Cc1ccc([O-])c([O-])c1 (3D coordinates assigned)
[NH-]C(=O)[C@@H](Cc1ccc(O)c([O-])c1)[N-]C(=O)Cc1ccc([O-])c([O-])c1 (optimized conformer: 29.326599184380573 kcal/mol)

>  <smiles>  (47) 
NC(=O)C(Cc1ccc(O)c(O)c1)NC(=O)Cc1ccc(O)c(O)c1

>  <score_type>  (47) 
oracle

>  <origin>  (47) 
adgpu

>  <m_score__min__energy>  (47) 
-13.99

>  <m_primary>  (47) 
energy

$$$$
47:0
     RDKit          3D

 47 49  0  0  1  0  0  0  0  0999 V2000
   -6.0340   14.1740  -34.2270 C   0  0  0  0  0  0  0  0  0  0  0  0
   -4.8290   15.0480  -34.1780 C   0  0  0  0  0  0  0  0  0  0  0  0
   -5.2080   16.4240  -33.8240 C   0  0  0  0  0  0  0  0  0  0  0  0
   -6.4560   16.6310  -33.3370 N   0  0  0  0  0  0  0  0  0  0  0  0
   -6.8800   17.8590  -32.9930 C   0  0  0  0  0  0  0  0  0  0  0  0
   -6.0880   18.9810  -33.1100 C   0  0  0  0  0  0  0  0  0  0  0  0
   -6.6010   20.2880  -32.7060 C   0  0  0  0  0  0  0  0  0  0  0  0
   -5.8280   21.4240  -32.6410 C   0  0  0  0  0  0  0  0  0  0  0  0
   -6.4140   22.6250  -32.2270 C   0  0  0  0  0  0  0  0  0  0  0  0
   -5.5840   23.7780  -32.1760 N   0  0  0  0  0  0  0  0  0  0  0  0
   -5.0010   24.1320  -31.0810 C   0  0  0  0  0  0  0  0  0  0  0  0
   -5.0530   23.5280  -29.8400 C   0  0  0  0  0  0  0  0  0  0  0  0
   -4.2730   24.2530  -28.9620 C   0  0  0  0  0  0  0  0  0  0  0  0
   -4.0180   23.9880  -27.5140 C   0  0  0  0  0  0  0  0  0  0  0  0
   -3.7620   25.2790  -29.6750 N   0  0  0  0  0  0  0  0  0  0  0  0
   -4.2010   25.2010  -30.9380 N   0  0  0  0  0  0  0  0  0  0  0  0
   -7.7580   22.6930  -31.8810 C   0  0  0  0  0  0  0  0  0  0  0  0
   -8.2820   23.7820  -31.5080 O   0  0  0  0  0  0  0  0  0  0  0  0
   -8.4920   21.5430  -31.9590 N   0  0  0  0  0  0  0  0  0  0  0  0
   -9.9110   21.5550  -31.6030 C   0  0  0  0  0  0  0  0  0  0  0  0
   -7.9290   20.3880  -32.3560 C   0  0  0  0  0  0  0  0  0  0  0  0
   -4.8140   18.7920  -33.6030 C   0  0  0  0  0  0  0  0  0  0  0  0
   -4.3600   17.5140  -33.9660 C   0  0  0  0  0  0  0  0  0  0  0  0
   -2.9960   17.3710  -34.4750 C   0  0  0  0  0  0  0  0  0  0  0  0
   -2.0770   16.8230  -33.5150 N   0  0  0  0  0  0  0  0  0  0  0  0
   -6.3583   13.9388  -33.2025 H   0  0  0  0  0  0  0  0  0  0  0  0
   -6.8442   14.6959  -34.7573 H   0  0  0  0  0  0  0  0  0  0  0  0
   -5.7895   13.2418  -34.7573 H   0  0  0  0  0  0  0  0  0  0  0  0
   -4.1296   14.6591  -33.4233 H   0  0  0  0  0  0  0  0  0  0  0  0
   -4.3513   15.0531  -35.1689 H   0  0  0  0  0  0  0  0  0  0  0  0
   -7.9017   17.9735  -32.6018 H   0  0  0  0  0  0  0  0  0  0  0  0
   -4.7623   21.3885  -32.9112 H   0  0  0  0  0  0  0  0  0  0  0  0
   -5.6218   22.6196  -29.5924 H   0  0  0  0  0  0  0  0  0  0  0  0
   -4.6524   24.6473  -26.9033 H   0  0  0  0  0  0  0  0  0  0  0  0
   -4.2541   22.9381  -27.2863 H   0  0  0  0  0  0  0  0  0  0  0  0
   -2.9598   24.1836  -27.2863 H   0  0  0  0  0  0  0  0  0  0  0  0
   -3.1310   26.0200  -29.3180 H   0  0  0  0  0  0  0  0  0  0  0  0
   -3.9620   25.8720  -31.7100 H   0  0  0  0  0  0  0  0  0  0  0  0
  -10.0143   21.5559  -30.5079 H   0  0  0  0  0  0  0  0  0  0  0  0
  -10.3852   22.4572  -32.0167 H   0  0  0  0  0  0  0  0  0  0  0  0
  -10.4004   20.6610  -32.0167 H   0  0  0  0  0  0  0  0  0  0  0  0
   -8.5557   19.4852  -32.4031 H   0  0  0  0  0  0  0  0  0  0  0  0
   -4.1427   19.6564  -33.7136 H   0  0  0  0  0  0  0  0  0  0  0  0
   -3.0200   16.7069  -35.3516 H   0  0  0  0  0  0  0  0  0  0  0  0
   -2.6376   18.3807  -34.7241 H   0  0  0  0  0  0  0  0  0  0  0  0
   -1.5610   17.4850  -32.9370 H   0  0  0  0  0  0  0  0  0  0  0  0
   -2.4090   15.9840  -33.0310 H   0  0  0  0  0  0  0  0  0  0  0  0
  1  2  1  0
  2  3  1  0
  3  4  2  0
  4  5  1  0
  5  6  2  0
  6  7  1  0
  7  8  1  0
  8  9  2  0
  9 10  1  0
 10 11  2  0
 11 12  1  0
 12 13  2  0
 13 14  1  0
 13 15  1  0
 15 16  1  0
  9 17  1  0
 17 18  2  0
 17 19  1  0
 19 20  1  0
 19 21  1  0
  6 22  1  0
 22 23  2  0
 23 24  1  0
 24 25  1  0
 23  3  1  0
 21  7  2  0
 16 11  1  0
  1 26  1  0
  1 27  1  0
  1 28  1  0
  2 29  1  0
  2 30  1  0
  5 31  1  0
  8 32  1  0
 12 33  1  0
 14 34  1  0
 14 35  1  0
 14 36  1  0
 15 37  1  0
 16 38  1  0
 20 39  1  0
 20 40  1  0
 20 41  1  0
 21 42  1  0
 22 43  1  0
 24 44  1  0
 24 45  1  0
 25 46  1  0
 25 47  1  0
M  END
>  <smiles>  (48) 
CCc1ncc(-c2cc(N=c3cc(C)[nH][nH]3)c(=O)n(C)c2)cc1CN

>  <score_type>  (48) 
oracle

>  <origin>  (48) 
adgpu

>  <m_score__min__energy>  (48) 
-8.5899999999999999

>  <m_primary>  (48) 
energy

$$$$
48:0
     RDKit          3D

 41 43  0  0  0  0  0  0  0  0999 V2000
   -6.1970   18.7320  -34.2790 N   0  0  0  0  0  0  0  0  0  0  0  0
   -6.9050   18.7520  -32.7000 S   0  0  0  0  0  0  0  0  0  0  0  0
   -5.9860   18.0270  -31.7570 O   0  0  0  0  0  0  0  0  0  0  0  0
   -8.2260   18.0390  -32.7530 O   0  0  0  0  0  0  0  0  0  0  0  0
   -7.1590   20.4010  -32.1080 C   0  0  0  0  0  0  0  0  0  0  0  0
   -8.2000   20.6780  -31.2060 C   0  0  0  0  0  0  0  0  0  0  0  0
   -8.4030   21.9780  -30.7380 C   0  0  0  0  0  0  0  0  0  0  0  0
   -7.5700   23.0130  -31.1620 C   0  0  0  0  0  0  0  0  0  0  0  0
   -6.5280   22.7510  -32.0540 C   0  0  0  0  0  0  0  0  0  0  0  0
   -6.3080   21.4450  -32.5320 C   0  0  0  0  0  0  0  0  0  0  0  0
   -5.2350   21.1530  -33.4400 N   0  0  0  0  0  0  0  0  0  0  0  0
   -3.6660   20.5690  -32.9880 S   0  0  0  0  0  0  0  0  0  0  0  0
   -2.7270   20.7320  -34.1500 O   0  0  0  0  0  0  0  0  0  0  0  0
   -3.7650   19.1110  -32.6380 O   0  0  0  0  0  0  0  0  0  0  0  0
   -3.0830   21.4540  -31.5830 C   0  0  0  0  0  0  0  0  0  0  0  0
   -1.7160   21.7290  -31.4500 C   0  0  0  0  0  0  0  0  0  0  0  0
   -1.2410   22.4140  -30.3290 C   0  0  0  0  0  0  0  0  0  0  0  0
   -2.1290   22.8330  -29.3230 C   0  0  0  0  0  0  0  0  0  0  0  0
   -1.6310   23.5680  -28.1350 C   0  0  0  0  0  0  0  0  0  0  0  0
   -1.3670   22.8700  -26.9420 C   0  0  0  0  0  0  0  0  0  0  0  0
   -0.9100   23.5480  -25.8100 C   0  0  0  0  0  0  0  0  0  0  0  0
   -0.7080   24.9290  -25.8550 C   0  0  0  0  0  0  0  0  0  0  0  0
   -0.9560   25.6340  -27.0350 C   0  0  0  0  0  0  0  0  0  0  0  0
   -1.4110   24.9620  -28.1750 C   0  0  0  0  0  0  0  0  0  0  0  0
   -1.6210   25.6840  -29.3460 O   0  0  0  0  0  0  0  0  0  0  0  0
   -3.5020   22.5670  -29.4690 C   0  0  0  0  0  0  0  0  0  0  0  0
   -3.9740   21.8810  -30.5900 C   0  0  0  0  0  0  0  0  0  0  0  0
   -5.2540   19.1760  -34.2080 H   0  0  0  0  0  0  0  0  0  0  0  0
   -6.7860   19.3340  -34.8970 H   0  0  0  0  0  0  0  0  0  0  0  0
   -8.8593   19.8657  -30.8663 H   0  0  0  0  0  0  0  0  0  0  0  0
   -9.2217   22.1861  -30.0334 H   0  0  0  0  0  0  0  0  0  0  0  0
   -7.7339   24.0364  -30.7936 H   0  0  0  0  0  0  0  0  0  0  0  0
   -5.8742   23.5711  -32.3857 H   0  0  0  0  0  0  0  0  0  0  0  0
   -1.0135   21.4042  -32.2316 H   0  0  0  0  0  0  0  0  0  0  0  0
   -0.1660   22.6267  -30.2329 H   0  0  0  0  0  0  0  0  0  0  0  0
   -1.5218   21.7817  -26.9008 H   0  0  0  0  0  0  0  0  0  0  0  0
   -0.7088   22.9935  -24.8815 H   0  0  0  0  0  0  0  0  0  0  0  0
   -0.3533   25.4620  -24.9605 H   0  0  0  0  0  0  0  0  0  0  0  0
   -0.7931   26.7214  -27.0683 H   0  0  0  0  0  0  0  0  0  0  0  0
   -4.2088   22.9014  -28.6953 H   0  0  0  0  0  0  0  0  0  0  0  0
   -5.0496   21.6751  -30.6937 H   0  0  0  0  0  0  0  0  0  0  0  0
  1  2  1  0
  2  3  2  0
  2  4  2  0
  2  5  1  0
  5  6  2  0
  6  7  1  0
  7  8  2  0
  8  9  1  0
  9 10  2  0
 10 11  1  0
 11 12  1  0
 12 13  2  0
 12 14  2  0
 12 15  1  0
 15 16  2  0
 16 17  1  0
 17 18  2  0
 18 19  1  0
 19 20  2  0
 20 21  1  0
 21 22  2  0
 22 23  1  0
 23 24  2  0
 24 25  1  0
 18 26  1  0
 26 27  2  0
 10  5  1  0
 27 15  1  0
 24 19  1  0
  1 28  1  0
  1 29  1  0
  6 30  1  0
  7 31  1  0
  8 32  1  0
  9 33  1  0
 16 34  1  0
 17 35  1  0
 20 36  1  0
 21 37  1  0
 22 38  1  0
 23 39  1  0
 26 40  1  0
 27 41  1  0
M  CHG  2  11  -1  25  -1
M  END
>  <UniqueID>  (49) 
41

>  <SMILES>  (49) 
NS(=O)(=O)c1ccccc1[N-]S(=O)(=O)c1ccc(-c2ccccc2[O-])cc1

>  <Energy>  (49) 
53.524560426234736

>  <Genealogy>  (49) 
NS(=O)(=O)c1ccccc1[N-]S(=O)(=O)c1ccc(-c2ccccc2[O-])cc1 (protonated)
NS(=O)(=O)c1ccccc1[N-]S(=O)(=O)c1ccc(-c2ccccc2[O-])cc1 (3D coordinates assigned)
NS(=O)(=O)c1ccccc1[N-]S(=O)(=O)c1ccc(-c2ccccc2[O-])cc1 (optimized conformer: 53.524560426234736 kcal/mol)

>  <smiles>  (49) 
NS(=O)(=O)c1ccccc1NS(=O)(=O)c1ccc(-c2ccccc2O)cc1

>  <score_type>  (49) 
oracle

>  <origin>  (49) 
adgpu

>  <m_score__min__energy>  (49) 
-12.08

>  <m_primary>  (49) 
energy

$$$$
49:0
     RDKit          3D

 37 39  0  0  0  0  0  0  0  0999 V2000
   -4.1050   18.9740  -33.5730 C   0  0  0  0  0  0  0  0  0  0  0  0
   -5.3490   18.3420  -34.1880 C   0  0  0  0  0  0  0  0  0  0  0  0
   -6.4520   19.2980  -34.2140 N   0  0  0  0  0  0  0  0  0  0  0  0
   -6.7460   20.1430  -33.0960 C   0  0  0  0  0  0  0  0  0  0  0  0
   -6.1290   21.2630  -32.8220 O   0  0  0  0  0  0  0  0  0  0  0  0
   -6.6820   21.7390  -31.7250 C   0  0  0  0  0  0  0  0  0  0  0  0
   -6.2660   23.0040  -31.0870 C   0  0  0  0  0  0  0  0  0  0  0  0
   -7.2210   23.8760  -30.5370 C   0  0  0  0  0  0  0  0  0  0  0  0
   -6.8200   25.0630  -29.9210 C   0  0  0  0  0  0  0  0  0  0  0  0
   -5.4650   25.3970  -29.8570 C   0  0  0  0  0  0  0  0  0  0  0  0
   -4.4990   24.5530  -30.4170 C   0  0  0  0  0  0  0  0  0  0  0  0
   -3.1500   24.9260  -30.3200 O   0  0  0  0  0  0  0  0  0  0  0  0
   -2.2540   24.4770  -29.3400 C   0  0  0  0  0  0  0  0  0  0  0  0
   -1.4150   25.2620  -28.8220 O   0  0  0  0  0  0  0  0  0  0  0  0
   -2.3390   23.0890  -28.8740 C   0  0  0  0  0  0  0  0  0  0  0  0
   -1.4550   22.0620  -29.1860 C   0  0  0  0  0  0  0  0  0  0  0  0
   -1.7980   20.8410  -28.5940 C   0  0  0  0  0  0  0  0  0  0  0  0
   -2.9480   20.9010  -27.8160 C   0  0  0  0  0  0  0  0  0  0  0  0
   -3.5380   22.4750  -27.8670 S   0  0  0  0  0  0  0  0  0  0  0  0
   -4.9050   23.3460  -31.0180 C   0  0  0  0  0  0  0  0  0  0  0  0
   -7.6710   20.9450  -31.2500 N   0  0  0  0  0  0  0  0  0  0  0  0
   -7.7020   19.9290  -32.1320 C   0  0  0  0  0  0  0  0  0  0  0  0
   -8.6080   18.8170  -32.0490 C   0  0  0  0  0  0  0  0  0  0  0  0
   -9.3380   17.9200  -31.9830 N   0  0  0  0  0  0  0  0  0  0  0  0
   -4.1788   18.9365  -32.4761 H   0  0  0  0  0  0  0  0  0  0  0  0
   -3.2126   18.4200  -33.8996 H   0  0  0  0  0  0  0  0  0  0  0  0
   -4.0262   20.0214  -33.8996 H   0  0  0  0  0  0  0  0  0  0  0  0
   -5.1221   18.0239  -35.2163 H   0  0  0  0  0  0  0  0  0  0  0  0
   -5.6450   17.4757  -33.5781 H   0  0  0  0  0  0  0  0  0  0  0  0
   -7.0790   19.3200  -35.0500 H   0  0  0  0  0  0  0  0  0  0  0  0
   -8.2899   23.6221  -30.5921 H   0  0  0  0  0  0  0  0  0  0  0  0
   -7.5725   25.7366  -29.4852 H   0  0  0  0  0  0  0  0  0  0  0  0
   -5.1551   26.3297  -29.3631 H   0  0  0  0  0  0  0  0  0  0  0  0
   -0.5752   22.1956  -29.8326 H   0  0  0  0  0  0  0  0  0  0  0  0
   -1.2122   19.9202  -28.7316 H   0  0  0  0  0  0  0  0  0  0  0  0
   -3.3956   20.0627  -27.2619 H   0  0  0  0  0  0  0  0  0  0  0  0
   -4.1499   22.6648  -31.4372 H   0  0  0  0  0  0  0  0  0  0  0  0
  1  2  1  0
  2  3  1  0
  3  4  1  0
  4  5  1  0
  5  6  1  0
  6  7  1  0
  7  8  2  0
  8  9  1  0
  9 10  2  0
 10 11  1  0
 11 12  1  0
 12 13  1  0
 13 14  2  0
 13 15  1  0
 15 16  2  0
 16 17  1  0
 17 18  2  0
 18 19  1  0
 11 20  2  0
  6 21  2  0
 21 22  1  0
 22 23  1  0
 23 24  3  0
 22  4  2  0
 20  7  1  0
 19 15  1  0
  1 25  1  0
  1 26  1  0
  1 27  1  0
  2 28  1  0
  2 29  1  0
  3 30  1  0
  8 31  1  0
  9 32  1  0
 10 33  1  0
 16 34  1  0
 17 35  1  0
 18 36  1  0
 20 37  1  0
M  END
>  <UniqueID>  (50) 
42

>  <SMILES>  (50) 
CCNc1oc(-c2cccc(OC(=O)c3cccs3)c2)nc1C#N

>  <Energy>  (50) 
93.39122917788761

>  <Genealogy>  (50) 
CCNc1oc(-c2cccc(OC(=O)c3cccs3)c2)nc1C#N (3D coordinates assigned)
CCNc1oc(-c2cccc(OC(=O)c3cccs3)c2)nc1C#N (optimized conformer: 93.39122917788761 kcal/mol)

>  <smiles>  (50) 
CCNc1oc(-c2cccc(OC(=O)c3cccs3)c2)nc1C#N

>  <score_type>  (50) 
oracle

>  <origin>  (50) 
adgpu

>  <m_score__min__energy>  (50) 
-8.3599999999999994

>  <m_primary>  (50) 
energy

$$$$
