0:0
     RDKit          3D

 54 57  0  0  0  0  0  0  0  0999 V2000
   -0.0070   21.3440  -33.6540 O   0  0  0  0  0  0  0  0  0  0  0  0
   -0.6400   21.3080  -32.5650 C   0  0  0  0  0  0  0  0  0  0  0  0
    0.0980   21.3670  -31.3360 N   0  0  0  0  0  0  0  0  0  0  0  0
   -0.3830   20.9440  -30.0210 C   0  0  0  0  0  0  0  0  0  0  0  0
   -1.2550   21.9990  -29.3930 C   0  0  0  0  0  0  0  0  0  0  0  0
   -2.3300   21.6280  -28.5680 C   0  0  0  0  0  0  0  0  0  0  0  0
   -3.1550   22.6060  -28.0060 C   0  0  0  0  0  0  0  0  0  0  0  0
   -2.9200   23.9580  -28.2690 C   0  0  0  0  0  0  0  0  0  0  0  0
   -1.8470   24.3360  -29.0810 C   0  0  0  0  0  0  0  0  0  0  0  0
   -1.6090   25.6810  -29.3320 O   0  0  0  0  0  0  0  0  0  0  0  0
   -1.0190   23.3610  -29.6430 C   0  0  0  0  0  0  0  0  0  0  0  0
   -2.1140   21.2620  -32.5970 C   0  0  0  0  0  0  0  0  0  0  0  0
   -2.8400   22.2950  -31.9990 C   0  0  0  0  0  0  0  0  0  0  0  0
   -4.2360   22.2710  -32.0080 C   0  0  0  0  0  0  0  0  0  0  0  0
   -5.0250   23.3690  -31.3480 C   0  0  0  0  0  0  0  0  0  0  0  0
   -6.4880   23.0190  -31.3110 C   0  0  0  0  0  0  0  0  0  0  0  0
   -7.3410   23.4250  -32.3510 C   0  0  0  0  0  0  0  0  0  0  0  0
   -8.6990   23.0910  -32.3170 C   0  0  0  0  0  0  0  0  0  0  0  0
   -9.2170   22.3700  -31.2380 C   0  0  0  0  0  0  0  0  0  0  0  0
   -8.3790   21.9820  -30.1900 C   0  0  0  0  0  0  0  0  0  0  0  0
   -7.0190   22.3050  -30.2230 C   0  0  0  0  0  0  0  0  0  0  0  0
   -4.8890   21.1820  -32.5940 C   0  0  0  0  0  0  0  0  0  0  0  0
   -4.1830   20.1770  -33.1960 N   0  0  0  0  0  0  0  0  0  0  0  0
   -4.9180   19.0220  -33.7380 C   0  0  0  0  0  0  0  0  0  0  0  0
   -6.2750   18.9320  -33.0930 C   0  0  0  0  0  0  0  0  0  0  0  0
   -6.5400   17.9300  -32.1460 C   0  0  0  0  0  0  0  0  0  0  0  0
   -7.8170   17.8030  -31.5930 C   0  0  0  0  0  0  0  0  0  0  0  0
   -8.8410   18.6710  -31.9850 C   0  0  0  0  0  0  0  0  0  0  0  0
   -8.5850   19.6690  -32.9300 C   0  0  0  0  0  0  0  0  0  0  0  0
   -7.3080   19.7990  -33.4850 C   0  0  0  0  0  0  0  0  0  0  0  0
   -2.8100   20.2140  -33.2290 C   0  0  0  0  0  0  0  0  0  0  0  0
   -2.1650   19.3160  -33.8370 O   0  0  0  0  0  0  0  0  0  0  0  0
   -0.9655   20.0177  -30.1333 H   0  0  0  0  0  0  0  0  0  0  0  0
    0.4875   20.7792  -29.3690 H   0  0  0  0  0  0  0  0  0  0  0  0
   -2.5229   20.5645  -28.3638 H   0  0  0  0  0  0  0  0  0  0  0  0
   -3.9912   22.3108  -27.3552 H   0  0  0  0  0  0  0  0  0  0  0  0
   -3.5796   24.7250  -27.8369 H   0  0  0  0  0  0  0  0  0  0  0  0
   -0.1777   23.6616  -30.2848 H   0  0  0  0  0  0  0  0  0  0  0  0
   -2.3096   23.1307  -31.5191 H   0  0  0  0  0  0  0  0  0  0  0  0
   -4.6603   23.5087  -30.3197 H   0  0  0  0  0  0  0  0  0  0  0  0
   -4.8959   24.2960  -31.9259 H   0  0  0  0  0  0  0  0  0  0  0  0
   -6.9400   24.0069  -33.1940 H   0  0  0  0  0  0  0  0  0  0  0  0
   -9.3603   23.3965  -33.1412 H   0  0  0  0  0  0  0  0  0  0  0  0
  -10.2850   22.1079  -31.2139 H   0  0  0  0  0  0  0  0  0  0  0  0
   -8.7897   21.4214  -29.3373 H   0  0  0  0  0  0  0  0  0  0  0  0
   -6.3626   21.9994  -29.3949 H   0  0  0  0  0  0  0  0  0  0  0  0
   -5.9877   21.1329  -32.5704 H   0  0  0  0  0  0  0  0  0  0  0  0
   -5.0377   19.1428  -34.8248 H   0  0  0  0  0  0  0  0  0  0  0  0
   -4.3541   18.1014  -33.5269 H   0  0  0  0  0  0  0  0  0  0  0  0
   -5.7389   17.2419  -31.8380 H   0  0  0  0  0  0  0  0  0  0  0  0
   -8.0171   17.0188  -30.8480 H   0  0  0  0  0  0  0  0  0  0  0  0
   -9.8463   18.5687  -31.5505 H   0  0  0  0  0  0  0  0  0  0  0  0
   -9.3895   20.3532  -33.2375 H   0  0  0  0  0  0  0  0  0  0  0  0
   -7.1119   20.5831  -34.2312 H   0  0  0  0  0  0  0  0  0  0  0  0
  1  2  2  0
  2  3  1  0
  3  4  1  0
  4  5  1  0
  5  6  2  0
  6  7  1  0
  7  8  2  0
  8  9  1  0
  9 10  1  0
  9 11  2  0
  2 12  1  0
 12 13  2  0
 13 14  1  0
 14 15  1  0
 15 16  1  0
 16 17  2  0
 17 18  1  0
 18 19  2  0
 19 20  1  0
 20 21  2  0
 14 22  2  0
 22 23  1  0
 23 24  1  0
 24 25  1  0
 25 26  2  0
 26 27  1  0
 27 28  2  0
 28 29  1  0
 29 30  2  0
 23 31  1  0
 31 32  2  0
 11  5  1  0
 31 12  1  0
 21 16  1  0
 30 25  1  0
  4 33  1  0
  4 34  1  0
  6 35  1  0
  7 36  1  0
  8 37  1  0
 11 38  1  0
 13 39  1  0
 15 40  1  0
 15 41  1  0
 17 42  1  0
 18 43  1  0
 19 44  1  0
 20 45  1  0
 21 46  1  0
 22 47  1  0
 24 48  1  0
 24 49  1  0
 26 50  1  0
 27 51  1  0
 28 52  1  0
 29 53  1  0
 30 54  1  0
M  CHG  2   3  -1  10  -1
M  END
>  <UniqueID>  (1) 
1

>  <SMILES>  (1) 
O=C([N-]Cc1cccc([O-])c1)c1cc(Cc2ccccc2)cn(Cc2ccccc2)c1=O

>  <Energy>  (1) 
55.6658351742608

>  <Genealogy>  (1) 
O=C([N-]Cc1cccc([O-])c1)c1cc(Cc2ccccc2)cn(Cc2ccccc2)c1=O (protonated)
O=C([N-]Cc1cccc([O-])c1)c1cc(Cc2ccccc2)cn(Cc2ccccc2)c1=O (3D coordinates assigned)
O=C([N-]Cc1cccc([O-])c1)c1cc(Cc2ccccc2)cn(Cc2ccccc2)c1=O (optimized conformer: 55.6658351742608 kcal/mol)

>  <smiles>  (1) 
O=C(NCc1cccc(O)c1)c1cc(Cc2ccccc2)cn(Cc2ccccc2)c1=O

>  <score_type>  (1) 
oracle

>  <origin>  (1) 
adgpu

>  <m_score__min__energy>  (1) 
-13.02

>  <m_primary>  (1) 
energy

$$$$
1:0
     RDKit          3D

 36 38  0  0  0  0  0  0  0  0999 V2000
   -0.4910   24.0030  -23.8340 N   0  0  0  0  0  0  0  0  0  0  0  0
   -0.5560   25.5160  -24.6680 S   0  0  0  0  0  0  0  0  0  0  0  0
   -1.3620   26.4930  -23.8600 O   0  0  0  0  0  0  0  0  0  0  0  0
    0.8360   26.0580  -24.8360 O   0  0  0  0  0  0  0  0  0  0  0  0
   -1.2900   25.2850  -26.2520 C   0  0  0  0  0  0  0  0  0  0  0  0
   -0.6410   25.7310  -27.4120 C   0  0  0  0  0  0  0  0  0  0  0  0
   -1.2430   25.5600  -28.6620 C   0  0  0  0  0  0  0  0  0  0  0  0
   -2.4890   24.9320  -28.7720 C   0  0  0  0  0  0  0  0  0  0  0  0
   -3.0930   24.8210  -30.0690 N   0  0  0  0  0  0  0  0  0  0  0  0
   -4.4920   24.9320  -30.3580 C   0  0  0  0  0  0  0  0  0  0  0  0
   -4.9670   26.0010  -30.8260 O   0  0  0  0  0  0  0  0  0  0  0  0
   -5.4110   23.7920  -30.0420 C   0  0  0  0  0  0  0  0  0  0  0  0
   -7.0400   23.9950  -30.8480 S   0  0  0  0  0  0  0  0  0  0  0  0
   -7.1220   22.3130  -31.4590 C   0  0  0  0  0  0  0  0  0  0  0  0
   -8.1310   21.4620  -31.1360 N   0  0  0  0  0  0  0  0  0  0  0  0
   -7.8070   20.3610  -31.8290 C   0  0  0  0  0  0  0  0  0  0  0  0
   -8.5030   19.1550  -31.8880 C   0  0  0  0  0  0  0  0  0  0  0  0
   -7.9760   18.1370  -32.7060 C   0  0  0  0  0  0  0  0  0  0  0  0
   -6.7830   18.3500  -33.4340 C   0  0  0  0  0  0  0  0  0  0  0  0
   -6.1070   19.5820  -33.3480 C   0  0  0  0  0  0  0  0  0  0  0  0
   -6.6560   20.5630  -32.5270 C   0  0  0  0  0  0  0  0  0  0  0  0
   -6.1940   21.8010  -32.3080 N   0  0  0  0  0  0  0  0  0  0  0  0
   -3.1480   24.5050  -27.6040 C   0  0  0  0  0  0  0  0  0  0  0  0
   -2.5470   24.6780  -26.3540 C   0  0  0  0  0  0  0  0  0  0  0  0
    0.5190   23.7680  -23.7090 H   0  0  0  0  0  0  0  0  0  0  0  0
   -0.8830   24.1630  -22.8800 H   0  0  0  0  0  0  0  0  0  0  0  0
    0.3434   26.2162  -27.3384 H   0  0  0  0  0  0  0  0  0  0  0  0
   -0.7331   25.9221  -29.5669 H   0  0  0  0  0  0  0  0  0  0  0  0
   -4.9528   22.8562  -30.3944 H   0  0  0  0  0  0  0  0  0  0  0  0
   -5.5670   23.7682  -28.9534 H   0  0  0  0  0  0  0  0  0  0  0  0
   -9.4305   19.0038  -31.3163 H   0  0  0  0  0  0  0  0  0  0  0  0
   -8.4957   17.1703  -32.7789 H   0  0  0  0  0  0  0  0  0  0  0  0
   -6.3807   17.5487  -34.0712 H   0  0  0  0  0  0  0  0  0  0  0  0
   -5.1785   19.7629  -33.9093 H   0  0  0  0  0  0  0  0  0  0  0  0
   -4.1393   24.0336  -27.6751 H   0  0  0  0  0  0  0  0  0  0  0  0
   -3.0645   24.3354  -25.4458 H   0  0  0  0  0  0  0  0  0  0  0  0
  1  2  1  0
  2  3  2  0
  2  4  2  0
  2  5  1  0
  5  6  2  0
  6  7  1  0
  7  8  2  0
  8  9  1  0
  9 10  1  0
 10 11  2  0
 10 12  1  0
 12 13  1  0
 13 14  1  0
 14 15  2  0
 15 16  1  0
 16 17  2  0
 17 18  1  0
 18 19  2  0
 19 20  1  0
 20 21  2  0
 21 22  1  0
  8 23  1  0
 23 24  2  0
 24  5  1  0
 22 14  1  0
 21 16  1  0
  1 25  1  0
  1 26  1  0
  6 27  1  0
  7 28  1  0
 12 29  1  0
 12 30  1  0
 17 31  1  0
 18 32  1  0
 19 33  1  0
 20 34  1  0
 23 35  1  0
 24 36  1  0
M  CHG  2   9  -1  22  -1
M  END
>  <UniqueID>  (2) 
2

>  <SMILES>  (2) 
NS(=O)(=O)c1ccc([N-]C(=O)CSc2nc3ccccc3[n-]2)cc1

>  <Energy>  (2) 
69.65787282416503

>  <Genealogy>  (2) 
NS(=O)(=O)c1ccc([N-]C(=O)CSc2nc3ccccc3[n-]2)cc1 (protonated)
NS(=O)(=O)c1ccc([N-]C(=O)CSc2nc3ccccc3[n-]2)cc1 (3D coordinates assigned)
NS(=O)(=O)c1ccc([N-]C(=O)CSc2nc3ccccc3[n-]2)cc1 (optimized conformer: 69.65787282416503 kcal/mol)

>  <smiles>  (2) 
NS(=O)(=O)c1ccc(NC(=O)CSc2nc3ccccc3[nH]2)cc1

>  <score_type>  (2) 
oracle

>  <origin>  (2) 
adgpu

>  <m_score__min__energy>  (2) 
-10.789999999999999

>  <m_primary>  (2) 
energy

$$$$
2:0
     RDKit          3D

 40 42  0  0  0  0  0  0  0  0999 V2000
   -2.3070   20.0340  -27.0750 C   0  0  0  0  0  0  0  0  0  0  0  0
   -2.7830   20.8420  -28.1470 O   0  0  0  0  0  0  0  0  0  0  0  0
   -2.4130   22.1790  -28.3570 C   0  0  0  0  0  0  0  0  0  0  0  0
   -1.2630   22.6560  -27.7240 C   0  0  0  0  0  0  0  0  0  0  0  0
   -0.8610   23.9830  -27.8850 C   0  0  0  0  0  0  0  0  0  0  0  0
   -1.6020   24.8580  -28.7020 C   0  0  0  0  0  0  0  0  0  0  0  0
   -1.2320   26.2000  -28.8820 O   0  0  0  0  0  0  0  0  0  0  0  0
   -0.7200   27.0410  -27.8540 C   0  0  0  0  0  0  0  0  0  0  0  0
   -2.7450   24.3820  -29.3650 C   0  0  0  0  0  0  0  0  0  0  0  0
   -3.5000   25.2930  -30.1770 N   0  0  0  0  0  0  0  0  0  0  0  0
   -4.8170   25.0820  -30.7030 C   0  0  0  0  0  0  0  0  0  0  0  0
   -5.6910   25.9870  -30.6350 O   0  0  0  0  0  0  0  0  0  0  0  0
   -5.1720   23.7800  -31.2750 C   0  0  0  0  0  0  0  0  0  0  0  0
   -6.3500   23.0910  -31.0810 C   0  0  0  0  0  0  0  0  0  0  0  0
   -6.1830   21.9400  -31.8320 C   0  0  0  0  0  0  0  0  0  0  0  0
   -7.1600   20.8410  -32.0240 C   0  0  0  0  0  0  0  0  0  0  0  0
   -8.5320   21.1520  -32.0800 C   0  0  0  0  0  0  0  0  0  0  0  0
   -9.4850   20.1450  -32.2480 C   0  0  0  0  0  0  0  0  0  0  0  0
   -9.0840   18.8150  -32.3690 C   0  0  0  0  0  0  0  0  0  0  0  0
   -7.7270   18.4890  -32.3330 C   0  0  0  0  0  0  0  0  0  0  0  0
   -6.7600   19.4920  -32.1700 C   0  0  0  0  0  0  0  0  0  0  0  0
   -5.4080   19.1460  -32.1800 O   0  0  0  0  0  0  0  0  0  0  0  0
   -4.9750   21.9750  -32.4330 N   0  0  0  0  0  0  0  0  0  0  0  0
   -4.3990   23.0850  -32.0730 O   0  0  0  0  0  0  0  0  0  0  0  0
   -3.1590   23.0490  -29.1740 C   0  0  0  0  0  0  0  0  0  0  0  0
   -2.5807   20.4985  -26.1162 H   0  0  0  0  0  0  0  0  0  0  0  0
   -2.7602   19.0338  -27.1404 H   0  0  0  0  0  0  0  0  0  0  0  0
   -1.2125   19.9456  -27.1404 H   0  0  0  0  0  0  0  0  0  0  0  0
   -0.6684   21.9795  -27.0925 H   0  0  0  0  0  0  0  0  0  0  0  0
    0.0403   24.3473  -27.3704 H   0  0  0  0  0  0  0  0  0  0  0  0
   -0.9776   26.6179  -26.8718 H   0  0  0  0  0  0  0  0  0  0  0  0
    0.3738   27.1105  -27.9479 H   0  0  0  0  0  0  0  0  0  0  0  0
   -1.1605   28.0446  -27.9479 H   0  0  0  0  0  0  0  0  0  0  0  0
   -7.2179   23.3860  -30.4730 H   0  0  0  0  0  0  0  0  0  0  0  0
   -8.8567   22.1992  -31.9905 H   0  0  0  0  0  0  0  0  0  0  0  0
  -10.5540   20.4016  -32.2849 H   0  0  0  0  0  0  0  0  0  0  0  0
   -9.8369   18.0226  -32.4928 H   0  0  0  0  0  0  0  0  0  0  0  0
   -7.4142   17.4392  -32.4331 H   0  0  0  0  0  0  0  0  0  0  0  0
   -4.6780   19.8480  -32.1930 H   0  0  0  0  0  0  0  0  0  0  0  0
   -4.0725   22.6853  -29.6673 H   0  0  0  0  0  0  0  0  0  0  0  0
  1  2  1  0
  2  3  1  0
  3  4  2  0
  4  5  1  0
  5  6  2  0
  6  7  1  0
  7  8  1  0
  6  9  1  0
  9 10  1  0
 10 11  1  0
 11 12  2  0
 11 13  1  0
 13 14  2  0
 14 15  1  0
 15 16  1  0
 16 17  2  0
 17 18  1  0
 18 19  2  0
 19 20  1  0
 20 21  2  0
 21 22  1  0
 15 23  2  0
 23 24  1  0
  9 25  2  0
 25  3  1  0
 24 13  1  0
 21 16  1  0
  1 26  1  0
  1 27  1  0
  1 28  1  0
  4 29  1  0
  5 30  1  0
  8 31  1  0
  8 32  1  0
  8 33  1  0
 14 34  1  0
 17 35  1  0
 18 36  1  0
 19 37  1  0
 20 38  1  0
 22 39  1  0
 25 40  1  0
M  CHG  1  10  -1
M  END
>  <UniqueID>  (3) 
3

>  <SMILES>  (3) 
COc1ccc(OC)c([N-]C(=O)c2cc(-c3ccccc3O)no2)c1

>  <Energy>  (3) 
77.86380172019362

>  <Genealogy>  (3) 
COc1ccc(OC)c([N-]C(=O)c2cc(-c3ccccc3O)no2)c1 (protonated)
COc1ccc(OC)c([N-]C(=O)c2cc(-c3ccccc3O)no2)c1 (3D coordinates assigned)
COc1ccc(OC)c([N-]C(=O)c2cc(-c3ccccc3O)no2)c1 (optimized conformer: 77.86380172019362 kcal/mol)

>  <smiles>  (3) 
COc1ccc(OC)c(NC(=O)c2cc(-c3ccccc3O)no2)c1

>  <score_type>  (3) 
oracle

>  <origin>  (3) 
adgpu

>  <m_score__min__energy>  (3) 
-9.9100000000000001

>  <m_primary>  (3) 
energy

$$$$
3:0
     RDKit          3D

 60 64  0  0  0  0  0  0  0  0999 V2000
   -4.3420   25.6670  -30.4070 O   0  0  0  0  0  0  0  0  0  0  0  0
   -4.2040   24.4220  -30.5720 C   0  0  0  0  0  0  0  0  0  0  0  0
   -4.7900   23.7850  -31.7100 N   0  0  0  0  0  0  0  0  0  0  0  0
   -5.9230   22.9100  -31.6160 C   0  0  0  0  0  0  0  0  0  0  0  0
   -7.1830   23.4310  -31.2750 C   0  0  0  0  0  0  0  0  0  0  0  0
   -8.3120   22.6120  -31.2840 C   0  0  0  0  0  0  0  0  0  0  0  0
   -8.1920   21.2590  -31.6140 C   0  0  0  0  0  0  0  0  0  0  0  0
   -6.9440   20.7280  -31.9450 C   0  0  0  0  0  0  0  0  0  0  0  0
   -5.8020   21.5460  -31.9600 C   0  0  0  0  0  0  0  0  0  0  0  0
   -4.5180   20.9620  -32.2550 N   0  0  0  0  0  0  0  0  0  0  0  0
   -3.9540   19.9030  -31.4120 C   0  0  0  0  0  0  0  0  0  0  0  0
   -2.4500   20.1440  -31.2310 C   0  0  0  0  0  0  0  0  0  0  0  0
   -1.8100   20.3130  -32.4840 O   0  0  0  0  0  0  0  0  0  0  0  0
   -2.2920   21.4830  -33.1240 C   0  0  0  0  0  0  0  0  0  0  0  0
   -3.7810   21.3490  -33.4600 C   0  0  0  0  0  0  0  0  0  0  0  0
   -3.3760   23.6480  -29.6360 C   0  0  0  0  0  0  0  0  0  0  0  0
   -2.1590   23.1130  -30.0740 C   0  0  0  0  0  0  0  0  0  0  0  0
   -1.3390   22.4100  -29.1880 C   0  0  0  0  0  0  0  0  0  0  0  0
   -1.7430   22.2100  -27.8580 C   0  0  0  0  0  0  0  0  0  0  0  0
   -0.6680   21.3910  -26.7200 S   0  0  0  0  0  0  0  0  0  0  0  0
   -1.4840   20.8510  -25.5770 O   0  0  0  0  0  0  0  0  0  0  0  0
   -0.0420   20.2190  -27.4240 O   0  0  0  0  0  0  0  0  0  0  0  0
    0.6030   22.4100  -26.0770 N   0  0  0  0  0  0  0  0  0  0  0  0
    0.4740   22.7060  -24.6370 C   0  0  0  0  0  0  0  0  0  0  0  0
   -0.6050   23.7520  -24.3200 C   0  0  0  0  0  0  0  0  0  0  0  0
   -0.6480   24.8780  -25.3170 C   0  0  0  0  0  0  0  0  0  0  0  0
   -1.3840   26.0360  -25.0110 C   0  0  0  0  0  0  0  0  0  0  0  0
   -1.4640   27.0870  -25.9280 C   0  0  0  0  0  0  0  0  0  0  0  0
   -0.8430   26.9780  -27.1730 C   0  0  0  0  0  0  0  0  0  0  0  0
   -0.1180   25.8270  -27.4950 C   0  0  0  0  0  0  0  0  0  0  0  0
   -0.0190   24.7690  -26.5760 C   0  0  0  0  0  0  0  0  0  0  0  0
    0.8720   23.5970  -26.9020 C   0  0  0  0  0  0  0  0  0  0  0  0
   -2.9660   22.7400  -27.4210 C   0  0  0  0  0  0  0  0  0  0  0  0
   -3.7750   23.4650  -28.3030 C   0  0  0  0  0  0  0  0  0  0  0  0
   -7.2794   24.4915  -30.9992 H   0  0  0  0  0  0  0  0  0  0  0  0
   -9.2972   23.0310  -31.0313 H   0  0  0  0  0  0  0  0  0  0  0  0
   -9.0817   20.6121  -31.6129 H   0  0  0  0  0  0  0  0  0  0  0  0
   -6.8542   19.6608  -32.1960 H   0  0  0  0  0  0  0  0  0  0  0  0
   -4.4484   19.9134  -30.4294 H   0  0  0  0  0  0  0  0  0  0  0  0
   -4.1149   18.9262  -31.8916 H   0  0  0  0  0  0  0  0  0  0  0  0
   -2.3009   21.0501  -30.6254 H   0  0  0  0  0  0  0  0  0  0  0  0
   -2.0121   19.2691  -30.7282 H   0  0  0  0  0  0  0  0  0  0  0  0
   -2.1500   22.3441  -32.4545 H   0  0  0  0  0  0  0  0  0  0  0  0
   -1.7323   21.6274  -34.0599 H   0  0  0  0  0  0  0  0  0  0  0  0
   -4.1620   22.3123  -33.8299 H   0  0  0  0  0  0  0  0  0  0  0  0
   -3.9152   20.5808  -34.2358 H   0  0  0  0  0  0  0  0  0  0  0  0
   -1.8469   23.2467  -31.1203 H   0  0  0  0  0  0  0  0  0  0  0  0
   -0.3735   22.0117  -29.5333 H   0  0  0  0  0  0  0  0  0  0  0  0
    0.2200   21.7737  -24.1114 H   0  0  0  0  0  0  0  0  0  0  0  0
    1.4362   23.1235  -24.3054 H   0  0  0  0  0  0  0  0  0  0  0  0
   -1.5851   23.2527  -24.3136 H   0  0  0  0  0  0  0  0  0  0  0  0
   -0.3589   24.1902  -23.3415 H   0  0  0  0  0  0  0  0  0  0  0  0
   -1.9004   26.1151  -24.0430 H   0  0  0  0  0  0  0  0  0  0  0  0
   -2.0172   28.0016  -25.6683 H   0  0  0  0  0  0  0  0  0  0  0  0
   -0.9241   27.7983  -27.9014 H   0  0  0  0  0  0  0  0  0  0  0  0
    0.3779   25.7492  -28.4738 H   0  0  0  0  0  0  0  0  0  0  0  0
    0.7221   23.3285  -27.9581 H   0  0  0  0  0  0  0  0  0  0  0  0
    1.9063   23.9085  -26.6942 H   0  0  0  0  0  0  0  0  0  0  0  0
   -3.2902   22.5852  -26.3813 H   0  0  0  0  0  0  0  0  0  0  0  0
   -4.7255   23.8923  -27.9509 H   0  0  0  0  0  0  0  0  0  0  0  0
  1  2  2  0
  2  3  1  0
  3  4  1  0
  4  5  2  0
  5  6  1  0
  6  7  2  0
  7  8  1  0
  8  9  2  0
  9 10  1  0
 10 11  1  0
 11 12  1  0
 12 13  1  0
 13 14  1  0
 14 15  1  0
  2 16  1  0
 16 17  2  0
 17 18  1  0
 18 19  2  0
 19 20  1  0
 20 21  2  0
 20 22  2  0
 20 23  1  0
 23 24  1  0
 24 25  1  0
 25 26  1  0
 26 27  2  0
 27 28  1  0
 28 29  2  0
 29 30  1  0
 30 31  2  0
 31 32  1  0
 19 33  1  0
 33 34  2  0
  9  4  1  0
 15 10  1  0
 34 16  1  0
 32 23  1  0
 31 26  1  0
  5 35  1  0
  6 36  1  0
  7 37  1  0
  8 38  1  0
 11 39  1  0
 11 40  1  0
 12 41  1  0
 12 42  1  0
 14 43  1  0
 14 44  1  0
 15 45  1  0
 15 46  1  0
 17 47  1  0
 18 48  1  0
 24 49  1  0
 24 50  1  0
 25 51  1  0
 25 52  1  0
 27 53  1  0
 28 54  1  0
 29 55  1  0
 30 56  1  0
 32 57  1  0
 32 58  1  0
 33 59  1  0
 34 60  1  0
M  CHG  1   3  -1
M  END
>  <UniqueID>  (4) 
4

>  <SMILES>  (4) 
O=C([N-]c1ccccc1N1CCOCC1)c1ccc(S(=O)(=O)N2CCc3ccccc3C2)cc1

>  <Energy>  (4) 
86.54065097491717

>  <Genealogy>  (4) 
O=C([N-]c1ccccc1N1CCOCC1)c1ccc(S(=O)(=O)N2CCc3ccccc3C2)cc1 (protonated)
O=C([N-]c1ccccc1N1CCOCC1)c1ccc(S(=O)(=O)N2CCc3ccccc3C2)cc1 (3D coordinates assigned)
O=C([N-]c1ccccc1N1CCOCC1)c1ccc(S(=O)(=O)N2CCc3ccccc3C2)cc1 (nonaromatic ring conformer: 86.54065097491717 kcal/mol)

>  <smiles>  (4) 
O=C(Nc1ccccc1N1CCOCC1)c1ccc(S(=O)(=O)N2CCc3ccccc3C2)cc1

>  <score_type>  (4) 
oracle

>  <origin>  (4) 
adgpu

>  <m_score__min__energy>  (4) 
-11.06

>  <m_primary>  (4) 
energy

$$$$
4:0
     RDKit          3D

 57 60  0  0  0  0  0  0  0  0999 V2000
   -0.0600   18.6940  -35.4380 C   0  0  0  0  0  0  0  0  0  0  0  0
   -0.7570   19.3930  -34.3070 C   0  0  0  0  0  0  0  0  0  0  0  0
   -0.1570   20.5000  -33.6860 C   0  0  0  0  0  0  0  0  0  0  0  0
   -0.7840   21.1290  -32.6040 C   0  0  0  0  0  0  0  0  0  0  0  0
   -2.0150   20.6540  -32.1240 C   0  0  0  0  0  0  0  0  0  0  0  0
   -2.6740   21.3070  -31.0180 N   0  0  0  0  0  0  0  0  0  0  0  0
   -3.5310   22.3430  -31.2600 C   0  0  0  0  0  0  0  0  0  0  0  0
   -3.7930   22.6750  -32.4500 O   0  0  0  0  0  0  0  0  0  0  0  0
   -4.1060   23.0530  -30.1960 C   0  0  0  0  0  0  0  0  0  0  0  0
   -5.1240   24.4790  -30.5200 S   0  0  0  0  0  0  0  0  0  0  0  0
   -4.2400   25.6520  -30.8430 O   0  0  0  0  0  0  0  0  0  0  0  0
   -5.9440   24.8500  -29.3150 O   0  0  0  0  0  0  0  0  0  0  0  0
   -6.2000   24.1840  -31.8520 N   0  0  0  0  0  0  0  0  0  0  0  0
   -7.0040   23.0040  -31.9610 C   0  0  0  0  0  0  0  0  0  0  0  0
   -8.3890   23.1040  -31.7940 C   0  0  0  0  0  0  0  0  0  0  0  0
   -9.1900   21.9610  -31.8690 C   0  0  0  0  0  0  0  0  0  0  0  0
   -8.6110   20.7110  -32.1180 C   0  0  0  0  0  0  0  0  0  0  0  0
   -7.2240   20.5950  -32.3210 C   0  0  0  0  0  0  0  0  0  0  0  0
   -6.5980   19.2710  -32.5760 C   0  0  0  0  0  0  0  0  0  0  0  0
   -6.6860   18.2420  -31.6210 C   0  0  0  0  0  0  0  0  0  0  0  0
   -6.1350   16.9850  -31.8800 C   0  0  0  0  0  0  0  0  0  0  0  0
   -5.4900   16.7360  -33.0930 C   0  0  0  0  0  0  0  0  0  0  0  0
   -5.3820   17.7480  -34.0540 C   0  0  0  0  0  0  0  0  0  0  0  0
   -4.7330   17.4480  -35.3700 C   0  0  0  0  0  0  0  0  0  0  0  0
   -5.9450   19.0100  -33.7960 C   0  0  0  0  0  0  0  0  0  0  0  0
   -6.4330   21.7570  -32.2600 C   0  0  0  0  0  0  0  0  0  0  0  0
   -3.7740   22.6700  -28.8800 C   0  0  0  0  0  0  0  0  0  0  0  0
   -4.2760   23.4300  -27.7640 N   0  0  0  0  0  0  0  0  0  0  0  0
   -2.9330   21.6010  -28.6670 N   0  0  0  0  0  0  0  0  0  0  0  0
   -2.5770   21.2200  -27.2890 C   0  0  0  0  0  0  0  0  0  0  0  0
   -2.3890   20.9290  -29.7340 C   0  0  0  0  0  0  0  0  0  0  0  0
   -1.5990   19.9630  -29.5360 O   0  0  0  0  0  0  0  0  0  0  0  0
   -2.6050   19.5340  -32.7340 C   0  0  0  0  0  0  0  0  0  0  0  0
   -1.9790   18.9040  -33.8140 C   0  0  0  0  0  0  0  0  0  0  0  0
    0.6619   17.9700  -35.0323 H   0  0  0  0  0  0  0  0  0  0  0  0
   -0.8016   18.1657  -36.0552 H   0  0  0  0  0  0  0  0  0  0  0  0
    0.4704   19.4341  -36.0552 H   0  0  0  0  0  0  0  0  0  0  0  0
    0.8104   20.8749  -34.0514 H   0  0  0  0  0  0  0  0  0  0  0  0
   -0.3099   21.9997  -32.1274 H   0  0  0  0  0  0  0  0  0  0  0  0
   -8.8491   24.0847  -31.6031 H   0  0  0  0  0  0  0  0  0  0  0  0
  -10.2783   22.0439  -31.7320 H   0  0  0  0  0  0  0  0  0  0  0  0
   -9.2453   19.8131  -32.1552 H   0  0  0  0  0  0  0  0  0  0  0  0
   -7.1927   18.4288  -30.6627 H   0  0  0  0  0  0  0  0  0  0  0  0
   -6.2095   16.1881  -31.1254 H   0  0  0  0  0  0  0  0  0  0  0  0
   -5.0654   15.7414  -33.2941 H   0  0  0  0  0  0  0  0  0  0  0  0
   -3.7469   16.9922  -35.1971 H   0  0  0  0  0  0  0  0  0  0  0  0
   -5.3646   16.7505  -35.9397 H   0  0  0  0  0  0  0  0  0  0  0  0
   -4.6108   18.3810  -35.9397 H   0  0  0  0  0  0  0  0  0  0  0  0
   -5.8747   19.8025  -34.5556 H   0  0  0  0  0  0  0  0  0  0  0  0
   -5.3517   21.6873  -32.4493 H   0  0  0  0  0  0  0  0  0  0  0  0
   -5.2170   23.8850  -27.7880 H   0  0  0  0  0  0  0  0  0  0  0  0
   -3.7350   23.5290  -26.8800 H   0  0  0  0  0  0  0  0  0  0  0  0
   -3.1506   21.8339  -26.5790 H   0  0  0  0  0  0  0  0  0  0  0  0
   -2.8135   20.1576  -27.1296 H   0  0  0  0  0  0  0  0  0  0  0  0
   -1.5010   21.3840  -27.1296 H   0  0  0  0  0  0  0  0  0  0  0  0
   -3.5655   19.1504  -32.3595 H   0  0  0  0  0  0  0  0  0  0  0  0
   -2.4445   18.0227  -34.2794 H   0  0  0  0  0  0  0  0  0  0  0  0
  1  2  1  0
  2  3  2  0
  3  4  1  0
  4  5  2  0
  5  6  1  0
  6  7  1  0
  7  8  2  0
  7  9  1  0
  9 10  1  0
 10 11  2  0
 10 12  2  0
 10 13  1  0
 13 14  1  0
 14 15  2  0
 15 16  1  0
 16 17  2  0
 17 18  1  0
 18 19  1  0
 19 20  2  0
 20 21  1  0
 21 22  2  0
 22 23  1  0
 23 24  1  0
 23 25  2  0
 18 26  2  0
  9 27  2  0
 27 28  1  0
 27 29  1  0
 29 30  1  0
 29 31  1  0
 31 32  2  0
  5 33  1  0
 33 34  2  0
 34  2  1  0
 31  6  1  0
 26 14  1  0
 25 19  1  0
  1 35  1  0
  1 36  1  0
  1 37  1  0
  3 38  1  0
  4 39  1  0
 15 40  1  0
 16 41  1  0
 17 42  1  0
 20 43  1  0
 21 44  1  0
 22 45  1  0
 24 46  1  0
 24 47  1  0
 24 48  1  0
 25 49  1  0
 26 50  1  0
 28 51  1  0
 28 52  1  0
 30 53  1  0
 30 54  1  0
 30 55  1  0
 33 56  1  0
 34 57  1  0
M  CHG  1  13  -1
M  END
>  <UniqueID>  (5) 
5

>  <SMILES>  (5) 
Cc1ccc(-n2c(=O)c(S(=O)(=O)[N-]c3cccc(-c4cccc(C)c4)c3)c(N)n(C)c2=O)cc1

>  <Energy>  (5) 
89.6935581921899

>  <Genealogy>  (5) 
Cc1ccc(-n2c(=O)c(S(=O)(=O)[N-]c3cccc(-c4cccc(C)c4)c3)c(N)n(C)c2=O)cc1 (protonated)
Cc1ccc(-n2c(=O)c(S(=O)(=O)[N-]c3cccc(-c4cccc(C)c4)c3)c(N)n(C)c2=O)cc1 (3D coordinates assigned)
Cc1ccc(-n2c(=O)c(S(=O)(=O)[N-]c3cccc(-c4cccc(C)c4)c3)c(N)n(C)c2=O)cc1 (optimized conformer: 89.6935581921899 kcal/mol)

>  <smiles>  (5) 
Cc1ccc(-n2c(=O)c(S(=O)(=O)Nc3cccc(-c4cccc(C)c4)c3)c(N)n(C)c2=O)cc1

>  <score_type>  (5) 
oracle

>  <origin>  (5) 
adgpu

>  <m_score__min__energy>  (5) 
-11.06

>  <m_primary>  (5) 
energy

$$$$
5:0
     RDKit          3D

 37 38  0  0  0  0  0  0  0  0999 V2000
   -9.1400   21.5730  -31.3220 C   0  0  0  0  0  0  0  0  0  0  0  0
   -9.1850   20.2740  -31.9040 O   0  0  0  0  0  0  0  0  0  0  0  0
   -8.0610   19.5740  -32.3650 C   0  0  0  0  0  0  0  0  0  0  0  0
   -7.2670   20.0380  -33.4330 C   0  0  0  0  0  0  0  0  0  0  0  0
   -6.1550   19.3030  -33.8550 C   0  0  0  0  0  0  0  0  0  0  0  0
   -5.8210   18.1000  -33.2180 C   0  0  0  0  0  0  0  0  0  0  0  0
   -4.4070   17.1750  -33.7220 S   0  0  0  0  0  0  0  0  0  0  0  0
   -4.4620   15.8220  -33.0710 O   0  0  0  0  0  0  0  0  0  0  0  0
   -4.4140   16.9850  -35.2130 O   0  0  0  0  0  0  0  0  0  0  0  0
   -2.9330   17.9720  -33.2460 N   0  0  0  0  0  0  0  0  0  0  0  0
   -2.7890   19.2760  -33.8990 C   0  0  0  0  0  0  0  0  0  0  0  0
   -2.9350   20.4030  -32.9110 C   0  0  0  0  0  0  0  0  0  0  0  0
   -2.1430   20.4310  -31.7520 C   0  0  0  0  0  0  0  0  0  0  0  0
   -2.2620   21.4850  -30.8420 C   0  0  0  0  0  0  0  0  0  0  0  0
   -3.1780   22.5200  -31.0760 C   0  0  0  0  0  0  0  0  0  0  0  0
   -3.3140   23.8580  -29.9420 S   0  0  0  0  0  0  0  0  0  0  0  0
   -3.9200   25.2510  -30.7650 N   0  0  0  0  0  0  0  0  0  0  0  0
   -1.9660   24.1710  -29.3560 O   0  0  0  0  0  0  0  0  0  0  0  0
   -4.2500   23.4870  -28.8260 O   0  0  0  0  0  0  0  0  0  0  0  0
   -3.9680   22.4950  -32.2340 C   0  0  0  0  0  0  0  0  0  0  0  0
   -3.8500   21.4410  -33.1450 C   0  0  0  0  0  0  0  0  0  0  0  0
   -6.6080   17.6380  -32.1570 C   0  0  0  0  0  0  0  0  0  0  0  0
   -7.7210   18.3710  -31.7350 C   0  0  0  0  0  0  0  0  0  0  0  0
   -9.1431   21.4839  -30.2256 H   0  0  0  0  0  0  0  0  0  0  0  0
   -8.2235   22.0881  -31.6454 H   0  0  0  0  0  0  0  0  0  0  0  0
  -10.0187   22.1503  -31.6454 H   0  0  0  0  0  0  0  0  0  0  0  0
   -7.5231   20.9819  -33.9364 H   0  0  0  0  0  0  0  0  0  0  0  0
   -5.5401   19.6702  -34.6899 H   0  0  0  0  0  0  0  0  0  0  0  0
   -1.7945   19.3351  -34.3653 H   0  0  0  0  0  0  0  0  0  0  0  0
   -3.5809   19.3739  -34.6562 H   0  0  0  0  0  0  0  0  0  0  0  0
   -1.4256   19.6197  -31.5594 H   0  0  0  0  0  0  0  0  0  0  0  0
   -1.6345   21.5025  -29.9387 H   0  0  0  0  0  0  0  0  0  0  0  0
   -3.8810   26.0470  -30.0880 H   0  0  0  0  0  0  0  0  0  0  0  0
   -4.6836   23.3079  -32.4266 H   0  0  0  0  0  0  0  0  0  0  0  0
   -4.4769   21.4253  -34.0488 H   0  0  0  0  0  0  0  0  0  0  0  0
   -6.3499   16.6948  -31.6533 H   0  0  0  0  0  0  0  0  0  0  0  0
   -8.3347   17.9995  -30.9011 H   0  0  0  0  0  0  0  0  0  0  0  0
  1  2  1  0
  2  3  1  0
  3  4  2  0
  4  5  1  0
  5  6  2  0
  6  7  1  0
  7  8  2  0
  7  9  2  0
  7 10  1  0
 10 11  1  0
 11 12  1  0
 12 13  2  0
 13 14  1  0
 14 15  2  0
 15 16  1  0
 16 17  1  0
 16 18  2  0
 16 19  2  0
 15 20  1  0
 20 21  2  0
  6 22  1  0
 22 23  2  0
 23  3  1  0
 21 12  1  0
  1 24  1  0
  1 25  1  0
  1 26  1  0
  4 27  1  0
  5 28  1  0
 11 29  1  0
 11 30  1  0
 13 31  1  0
 14 32  1  0
 17 33  1  0
 20 34  1  0
 21 35  1  0
 22 36  1  0
 23 37  1  0
M  CHG  2  10  -1  17  -1
M  END
>  <UniqueID>  (6) 
6

>  <SMILES>  (6) 
COc1ccc(S(=O)(=O)[N-]Cc2ccc(S([NH-])(=O)=O)cc2)cc1

>  <Energy>  (6) 
34.73178737397991

>  <Genealogy>  (6) 
COc1ccc(S(=O)(=O)[N-]Cc2ccc(S([NH-])(=O)=O)cc2)cc1 (protonated)
COc1ccc(S(=O)(=O)[N-]Cc2ccc(S([NH-])(=O)=O)cc2)cc1 (3D coordinates assigned)
COc1ccc(S(=O)(=O)[N-]Cc2ccc(S([NH-])(=O)=O)cc2)cc1 (optimized conformer: 34.73178737397991 kcal/mol)

>  <smiles>  (6) 
COc1ccc(S(=O)(=O)NCc2ccc(S(N)(=O)=O)cc2)cc1

>  <score_type>  (6) 
oracle

>  <origin>  (6) 
adgpu

>  <m_score__min__energy>  (6) 
-10.130000000000001

>  <m_primary>  (6) 
energy

$$$$
6:0
     RDKit          3D

 46 48  0  0  0  0  0  0  0  0999 V2000
    0.5320   21.2840  -35.0970 C   0  0  0  0  0  0  0  0  0  0  0  0
   -0.5750   21.6520  -34.2790 O   0  0  0  0  0  0  0  0  0  0  0  0
   -0.8120   21.1460  -32.9920 C   0  0  0  0  0  0  0  0  0  0  0  0
   -1.8640   20.2520  -32.7130 C   0  0  0  0  0  0  0  0  0  0  0  0
   -2.0590   19.7790  -31.4130 C   0  0  0  0  0  0  0  0  0  0  0  0
   -1.2130   20.1850  -30.3740 C   0  0  0  0  0  0  0  0  0  0  0  0
   -1.4520   19.6750  -29.0550 N   0  0  0  0  0  0  0  0  0  0  0  0
   -2.0710   20.5980  -27.7230 S   0  0  0  0  0  0  0  0  0  0  0  0
   -3.5170   20.2630  -27.4940 O   0  0  0  0  0  0  0  0  0  0  0  0
   -1.2660   20.2840  -26.4920 O   0  0  0  0  0  0  0  0  0  0  0  0
   -1.9290   22.3140  -28.0880 C   0  0  0  0  0  0  0  0  0  0  0  0
   -1.0110   23.1110  -27.3930 C   0  0  0  0  0  0  0  0  0  0  0  0
   -0.8990   24.4720  -27.6880 C   0  0  0  0  0  0  0  0  0  0  0  0
   -1.7130   25.0490  -28.6660 C   0  0  0  0  0  0  0  0  0  0  0  0
   -1.5960   26.4060  -28.9450 O   0  0  0  0  0  0  0  0  0  0  0  0
   -2.6490   24.2660  -29.3580 C   0  0  0  0  0  0  0  0  0  0  0  0
   -3.4710   24.8780  -30.3630 N   0  0  0  0  0  0  0  0  0  0  0  0
   -4.9050   24.9260  -30.3720 C   0  0  0  0  0  0  0  0  0  0  0  0
   -5.4780   25.9040  -29.8260 O   0  0  0  0  0  0  0  0  0  0  0  0
   -5.7190   23.8270  -30.9380 C   0  0  0  0  0  0  0  0  0  0  0  0
   -7.0820   23.6640  -30.7740 C   0  0  0  0  0  0  0  0  0  0  0  0
   -7.3760   22.5080  -31.4720 C   0  0  0  0  0  0  0  0  0  0  0  0
   -8.7100   21.8350  -31.5280 C   0  0  0  0  0  0  0  0  0  0  0  0
   -8.5860   20.5870  -32.1090 F   0  0  0  0  0  0  0  0  0  0  0  0
   -9.2050   21.6930  -30.2450 F   0  0  0  0  0  0  0  0  0  0  0  0
   -9.5920   22.5940  -32.2760 F   0  0  0  0  0  0  0  0  0  0  0  0
   -6.2520   21.9970  -32.0130 N   0  0  0  0  0  0  0  0  0  0  0  0
   -5.2540   22.8070  -31.6960 N   0  0  0  0  0  0  0  0  0  0  0  0
   -3.8730   22.5680  -32.1020 C   0  0  0  0  0  0  0  0  0  0  0  0
   -2.7280   22.8870  -29.0860 C   0  0  0  0  0  0  0  0  0  0  0  0
   -0.1620   21.0770  -30.6520 C   0  0  0  0  0  0  0  0  0  0  0  0
    0.0330   21.5510  -31.9520 C   0  0  0  0  0  0  0  0  0  0  0  0
    1.3819   21.0015  -34.4584 H   0  0  0  0  0  0  0  0  0  0  0  0
    0.2511   20.4309  -35.7321 H   0  0  0  0  0  0  0  0  0  0  0  0
    0.8177   22.1355  -35.7321 H   0  0  0  0  0  0  0  0  0  0  0  0
   -2.5344   19.9251  -33.5215 H   0  0  0  0  0  0  0  0  0  0  0  0
   -2.8839   19.0819  -31.2041 H   0  0  0  0  0  0  0  0  0  0  0  0
   -0.3767   22.6645  -26.6131 H   0  0  0  0  0  0  0  0  0  0  0  0
   -0.1674   25.0914  -27.1484 H   0  0  0  0  0  0  0  0  0  0  0  0
   -7.7757   24.3087  -30.2144 H   0  0  0  0  0  0  0  0  0  0  0  0
   -3.2416   22.4587  -31.2079 H   0  0  0  0  0  0  0  0  0  0  0  0
   -3.8213   21.6476  -32.7021 H   0  0  0  0  0  0  0  0  0  0  0  0
   -3.5150   23.4175  -32.7021 H   0  0  0  0  0  0  0  0  0  0  0  0
   -3.4214   22.2554  -29.6607 H   0  0  0  0  0  0  0  0  0  0  0  0
    0.5089   21.4027  -29.8434 H   0  0  0  0  0  0  0  0  0  0  0  0
    0.8578   22.2485  -32.1600 H   0  0  0  0  0  0  0  0  0  0  0  0
  1  2  1  0
  2  3  1  0
  3  4  2  0
  4  5  1  0
  5  6  2  0
  6  7  1  0
  7  8  1  0
  8  9  2  0
  8 10  2  0
  8 11  1  0
 11 12  2  0
 12 13  1  0
 13 14  2  0
 14 15  1  0
 14 16  1  0
 16 17  1  0
 17 18  1  0
 18 19  2  0
 18 20  1  0
 20 21  2  0
 21 22  1  0
 22 23  1  0
 23 24  1  0
 23 25  1  0
 23 26  1  0
 22 27  2  0
 27 28  1  0
 28 29  1  0
 16 30  2  0
  6 31  1  0
 31 32  2  0
 32  3  1  0
 30 11  1  0
 28 20  1  0
  1 33  1  0
  1 34  1  0
  1 35  1  0
  4 36  1  0
  5 37  1  0
 12 38  1  0
 13 39  1  0
 21 40  1  0
 29 41  1  0
 29 42  1  0
 29 43  1  0
 30 44  1  0
 31 45  1  0
 32 46  1  0
M  CHG  3   7  -1  15  -1  17  -1
M  END
>  <UniqueID>  (7) 
7

>  <SMILES>  (7) 
COc1ccc([N-]S(=O)(=O)c2ccc([O-])c([N-]C(=O)c3cc(C(F)(F)F)nn3C)c2)cc1

>  <Energy>  (7) 
85.58987839635007

>  <Genealogy>  (7) 
COc1ccc([N-]S(=O)(=O)c2ccc([O-])c([N-]C(=O)c3cc(C(F)(F)F)nn3C)c2)cc1 (protonated)
COc1ccc([N-]S(=O)(=O)c2ccc([O-])c([N-]C(=O)c3cc(C(F)(F)F)nn3C)c2)cc1 (3D coordinates assigned)
COc1ccc([N-]S(=O)(=O)c2ccc([O-])c([N-]C(=O)c3cc(C(F)(F)F)nn3C)c2)cc1 (optimized conformer: 85.58987839635007 kcal/mol)

>  <smiles>  (7) 
COc1ccc(NS(=O)(=O)c2ccc(O)c(NC(=O)c3cc(C(F)(F)F)nn3C)c2)cc1

>  <score_type>  (7) 
oracle

>  <origin>  (7) 
adgpu

>  <m_score__min__energy>  (7) 
-11.92

>  <m_primary>  (7) 
energy

$$$$
7:0
     RDKit          3D

 38 40  0  0  0  0  0  0  0  0999 V2000
   -5.8960   15.9810  -33.8510 C   0  0  0  0  0  0  0  0  0  0  0  0
   -7.1260   16.6260  -33.5370 O   0  0  0  0  0  0  0  0  0  0  0  0
   -7.2330   17.9540  -33.0950 C   0  0  0  0  0  0  0  0  0  0  0  0
   -6.4550   18.9960  -33.6360 C   0  0  0  0  0  0  0  0  0  0  0  0
   -6.5990   20.3030  -33.1600 C   0  0  0  0  0  0  0  0  0  0  0  0
   -7.5230   20.5860  -32.1470 C   0  0  0  0  0  0  0  0  0  0  0  0
   -7.6850   22.2270  -31.5310 S   0  0  0  0  0  0  0  0  0  0  0  0
   -8.1220   23.1480  -32.6360 O   0  0  0  0  0  0  0  0  0  0  0  0
   -8.7280   22.2680  -30.4490 O   0  0  0  0  0  0  0  0  0  0  0  0
   -6.1330   22.7530  -30.8900 C   0  0  0  0  0  0  0  0  0  0  0  0
   -4.9910   21.9660  -31.0770 C   0  0  0  0  0  0  0  0  0  0  0  0
   -3.7630   22.3720  -30.5490 C   0  0  0  0  0  0  0  0  0  0  0  0
   -3.6550   23.5750  -29.8290 C   0  0  0  0  0  0  0  0  0  0  0  0
   -2.3410   23.9870  -29.2690 C   0  0  0  0  0  0  0  0  0  0  0  0
   -1.3180   23.0580  -29.0200 C   0  0  0  0  0  0  0  0  0  0  0  0
   -0.1110   23.5150  -28.4890 C   0  0  0  0  0  0  0  0  0  0  0  0
    0.0550   24.8350  -28.2170 N   0  0  0  0  0  0  0  0  0  0  0  0
   -0.9410   25.7250  -28.4530 C   0  0  0  0  0  0  0  0  0  0  0  0
   -0.7620   26.9770  -28.1820 N   0  0  0  0  0  0  0  0  0  0  0  0
   -2.1240   25.2990  -28.9710 N   0  0  0  0  0  0  0  0  0  0  0  0
   -4.8130   24.3510  -29.6300 C   0  0  0  0  0  0  0  0  0  0  0  0
   -6.0410   23.9420  -30.1560 C   0  0  0  0  0  0  0  0  0  0  0  0
   -8.2910   19.5500  -31.6000 C   0  0  0  0  0  0  0  0  0  0  0  0
   -8.1480   18.2440  -32.0760 C   0  0  0  0  0  0  0  0  0  0  0  0
   -5.3767   15.7087  -32.9203 H   0  0  0  0  0  0  0  0  0  0  0  0
   -6.0976   15.0726  -34.4376 H   0  0  0  0  0  0  0  0  0  0  0  0
   -5.2634   16.6634  -34.4376 H   0  0  0  0  0  0  0  0  0  0  0  0
   -5.7313   18.7809  -34.4360 H   0  0  0  0  0  0  0  0  0  0  0  0
   -5.9843   21.1113  -33.5828 H   0  0  0  0  0  0  0  0  0  0  0  0
   -5.0605   21.0245  -31.6416 H   0  0  0  0  0  0  0  0  0  0  0  0
   -2.8719   21.7445  -30.6979 H   0  0  0  0  0  0  0  0  0  0  0  0
   -1.4652   21.9902  -29.2393 H   0  0  0  0  0  0  0  0  0  0  0  0
    0.7061   22.8057  -28.2908 H   0  0  0  0  0  0  0  0  0  0  0  0
   -1.5100   27.6860  -28.3530 H   0  0  0  0  0  0  0  0  0  0  0  0
   -4.7503   25.2870  -29.0556 H   0  0  0  0  0  0  0  0  0  0  0  0
   -6.9389   24.5562  -29.9930 H   0  0  0  0  0  0  0  0  0  0  0  0
   -9.0081   19.7650  -30.7941 H   0  0  0  0  0  0  0  0  0  0  0  0
   -8.7596   17.4370  -31.6463 H   0  0  0  0  0  0  0  0  0  0  0  0
  1  2  1  0
  2  3  1  0
  3  4  2  0
  4  5  1  0
  5  6  2  0
  6  7  1  0
  7  8  2  0
  7  9  2  0
  7 10  1  0
 10 11  2  0
 11 12  1  0
 12 13  2  0
 13 14  1  0
 14 15  1  0
 15 16  2  0
 16 17  1  0
 17 18  1  0
 18 19  2  3
 18 20  1  0
 13 21  1  0
 21 22  2  0
  6 23  1  0
 23 24  2  0
 24  3  1  0
 22 10  1  0
 20 14  2  0
  1 25  1  0
  1 26  1  0
  1 27  1  0
  4 28  1  0
  5 29  1  0
 11 30  1  0
 12 31  1  0
 15 32  1  0
 16 33  1  0
 19 34  1  0
 21 35  1  0
 22 36  1  0
 23 37  1  0
 24 38  1  0
M  CHG  1  17  -1
M  END
>  <UniqueID>  (8) 
8

>  <SMILES>  (8) 
COc1ccc(S(=O)(=O)c2ccc(-c3cc[n-]c(=N)n3)cc2)cc1

>  <Energy>  (8) 
46.60469403783218

>  <Genealogy>  (8) 
COc1ccc(S(=O)(=O)c2ccc(-c3cc[n-]c(=N)n3)cc2)cc1 (protonated)
COc1ccc(S(=O)(=O)c2ccc(-c3cc[n-]c(=N)n3)cc2)cc1 (3D coordinates assigned)
COc1ccc(S(=O)(=O)c2ccc(-c3cc[n-]c(=N)n3)cc2)cc1 (optimized conformer: 46.60469403783218 kcal/mol)

>  <smiles>  (8) 
COc1ccc(S(=O)(=O)c2ccc(-c3cc[nH]c(=N)n3)cc2)cc1

>  <score_type>  (8) 
oracle

>  <origin>  (8) 
adgpu

>  <m_score__min__energy>  (8) 
-9.9199999999999999

>  <m_primary>  (8) 
energy

$$$$
8:0
     RDKit          3D

 44 46  0  0  0  0  0  0  0  0999 V2000
    0.6360   21.4970  -35.3170 C   0  0  0  0  0  0  0  0  0  0  0  0
    0.0540   20.6420  -34.2310 C   0  0  0  0  0  0  0  0  0  0  0  0
    0.4650   20.8260  -32.9030 C   0  0  0  0  0  0  0  0  0  0  0  0
   -0.1070   20.0670  -31.8790 C   0  0  0  0  0  0  0  0  0  0  0  0
   -1.0930   19.1210  -32.1710 C   0  0  0  0  0  0  0  0  0  0  0  0
   -1.5120   18.9180  -33.4960 C   0  0  0  0  0  0  0  0  0  0  0  0
   -2.5610   17.9180  -33.8010 C   0  0  0  0  0  0  0  0  0  0  0  0
   -2.2600   16.6960  -33.8470 O   0  0  0  0  0  0  0  0  0  0  0  0
   -3.9300   18.2970  -34.0000 N   0  0  0  0  0  0  0  0  0  0  0  0
   -4.5470   19.4750  -33.4620 C   0  0  0  0  0  0  0  0  0  0  0  0
   -5.8400   19.3860  -32.9350 C   0  0  0  0  0  0  0  0  0  0  0  0
   -6.4540   20.5130  -32.3810 C   0  0  0  0  0  0  0  0  0  0  0  0
   -5.7870   21.7440  -32.3680 C   0  0  0  0  0  0  0  0  0  0  0  0
   -6.5540   23.1470  -31.6330 S   0  0  0  0  0  0  0  0  0  0  0  0
   -7.5970   23.7480  -32.5330 O   0  0  0  0  0  0  0  0  0  0  0  0
   -7.2280   22.6920  -30.3710 O   0  0  0  0  0  0  0  0  0  0  0  0
   -5.3770   24.3540  -31.2170 N   0  0  0  0  0  0  0  0  0  0  0  0
   -4.2640   24.2460  -30.5470 C   0  0  0  0  0  0  0  0  0  0  0  0
   -3.4950   25.2880  -30.3340 O   0  0  0  0  0  0  0  0  0  0  0  0
   -2.4470   24.9720  -29.6320 N   0  0  0  0  0  0  0  0  0  0  0  0
   -2.5290   23.6550  -29.3700 C   0  0  0  0  0  0  0  0  0  0  0  0
   -1.5180   22.9150  -28.5550 C   0  0  0  0  0  0  0  0  0  0  0  0
   -3.6750   23.1280  -29.9490 C   0  0  0  0  0  0  0  0  0  0  0  0
   -4.1470   21.7120  -29.7990 C   0  0  0  0  0  0  0  0  0  0  0  0
   -4.5120   21.8480  -32.9390 C   0  0  0  0  0  0  0  0  0  0  0  0
   -3.8920   20.7190  -33.4810 C   0  0  0  0  0  0  0  0  0  0  0  0
   -0.9430   19.6970  -34.5210 C   0  0  0  0  0  0  0  0  0  0  0  0
    1.2009   22.3269  -34.8673 H   0  0  0  0  0  0  0  0  0  0  0  0
    1.3095   20.8902  -35.9401 H   0  0  0  0  0  0  0  0  0  0  0  0
   -0.1755   21.9010  -35.9401 H   0  0  0  0  0  0  0  0  0  0  0  0
    1.2400   21.5701  -32.6668 H   0  0  0  0  0  0  0  0  0  0  0  0
    0.2200   20.2147  -30.8392 H   0  0  0  0  0  0  0  0  0  0  0  0
   -1.5436   18.5320  -31.3586 H   0  0  0  0  0  0  0  0  0  0  0  0
   -6.3755   18.4254  -32.9567 H   0  0  0  0  0  0  0  0  0  0  0  0
   -7.4645   20.4325  -31.9539 H   0  0  0  0  0  0  0  0  0  0  0  0
   -1.7263   23.0675  -27.4857 H   0  0  0  0  0  0  0  0  0  0  0  0
   -1.5723   21.8417  -28.7897 H   0  0  0  0  0  0  0  0  0  0  0  0
   -0.5113   23.2912  -28.7897 H   0  0  0  0  0  0  0  0  0  0  0  0
   -4.2296   21.4643  -28.7304 H   0  0  0  0  0  0  0  0  0  0  0  0
   -5.1308   21.6007  -30.2783 H   0  0  0  0  0  0  0  0  0  0  0  0
   -3.4267   21.0327  -30.2783 H   0  0  0  0  0  0  0  0  0  0  0  0
   -3.9979   22.8202  -32.9608 H   0  0  0  0  0  0  0  0  0  0  0  0
   -2.8886   20.8038  -33.9238 H   0  0  0  0  0  0  0  0  0  0  0  0
   -1.2826   19.5642  -35.5588 H   0  0  0  0  0  0  0  0  0  0  0  0
  1  2  1  0
  2  3  2  0
  3  4  1  0
  4  5  2  0
  5  6  1  0
  6  7  1  0
  7  8  2  0
  7  9  1  0
  9 10  1  0
 10 11  2  0
 11 12  1  0
 12 13  2  0
 13 14  1  0
 14 15  2  0
 14 16  2  0
 14 17  1  0
 17 18  2  3
 18 19  1  0
 19 20  1  0
 20 21  1  0
 21 22  1  0
 21 23  2  0
 23 24  1  0
 13 25  1  0
 25 26  2  0
  6 27  2  0
 27  2  1  0
 26 10  1  0
 23 18  1  0
  1 28  1  0
  1 29  1  0
  1 30  1  0
  3 31  1  0
  4 32  1  0
  5 33  1  0
 11 34  1  0
 12 35  1  0
 22 36  1  0
 22 37  1  0
 22 38  1  0
 24 39  1  0
 24 40  1  0
 24 41  1  0
 25 42  1  0
 26 43  1  0
 27 44  1  0
M  CHG  2   9  -1  20  -1
M  END
>  <UniqueID>  (9) 
9

>  <SMILES>  (9) 
Cc1cccc(C(=O)[N-]c2ccc(S(=O)(=O)N=c3o[n-]c(C)c3C)cc2)c1

>  <Energy>  (9) 
89.65749097089265

>  <Genealogy>  (9) 
Cc1cccc(C(=O)[N-]c2ccc(S(=O)(=O)N=c3o[n-]c(C)c3C)cc2)c1 (protonated)
Cc1cccc(C(=O)[N-]c2ccc(S(=O)(=O)N=c3o[n-]c(C)c3C)cc2)c1 (3D coordinates assigned)
Cc1cccc(C(=O)[N-]c2ccc(S(=O)(=O)N=c3o[n-]c(C)c3C)cc2)c1 (optimized conformer: 89.65749097089265 kcal/mol)

>  <smiles>  (9) 
Cc1cccc(C(=O)Nc2ccc(S(=O)(=O)N=c3o[nH]c(C)c3C)cc2)c1

>  <score_type>  (9) 
oracle

>  <origin>  (9) 
adgpu

>  <m_score__min__energy>  (9) 
-10.710000000000001

>  <m_primary>  (9) 
energy

$$$$
9:0
     RDKit          3D

 44 46  0  0  0  0  0  0  0  0999 V2000
   -4.4730   21.6430  -33.4460 O   0  0  0  0  0  0  0  0  0  0  0  0
   -4.8860   20.8310  -32.5740 C   0  0  0  0  0  0  0  0  0  0  0  0
   -4.8020   21.1670  -31.1770 N   0  0  0  0  0  0  0  0  0  0  0  0
   -4.1100   22.3200  -30.6680 C   0  0  0  0  0  0  0  0  0  0  0  0
   -4.5720   23.6220  -30.9230 C   0  0  0  0  0  0  0  0  0  0  0  0
   -3.8660   24.7280  -30.4410 C   0  0  0  0  0  0  0  0  0  0  0  0
   -2.6850   24.5480  -29.7150 C   0  0  0  0  0  0  0  0  0  0  0  0
   -1.9970   25.6620  -29.2450 O   0  0  0  0  0  0  0  0  0  0  0  0
   -2.2010   23.2520  -29.4720 C   0  0  0  0  0  0  0  0  0  0  0  0
   -0.6970   23.0200  -28.5770 S   0  0  0  0  0  0  0  0  0  0  0  0
    0.2900   24.1010  -28.9250 O   0  0  0  0  0  0  0  0  0  0  0  0
   -0.1110   21.6890  -28.9600 O   0  0  0  0  0  0  0  0  0  0  0  0
   -1.0270   23.0570  -26.8620 N   0  0  0  0  0  0  0  0  0  0  0  0
   -1.9650   24.1570  -26.5230 C   0  0  0  0  0  0  0  0  0  0  0  0
   -1.2650   25.3740  -25.9010 C   0  0  0  0  0  0  0  0  0  0  0  0
   -0.5040   24.9850  -24.6220 C   0  0  0  0  0  0  0  0  0  0  0  0
    0.0340   23.5430  -24.6650 C   0  0  0  0  0  0  0  0  0  0  0  0
    0.2460   23.0770  -26.1090 C   0  0  0  0  0  0  0  0  0  0  0  0
   -2.9120   22.1450  -29.9590 C   0  0  0  0  0  0  0  0  0  0  0  0
   -5.4990   19.5540  -33.0030 C   0  0  0  0  0  0  0  0  0  0  0  0
   -4.7290   18.6220  -33.7240 C   0  0  0  0  0  0  0  0  0  0  0  0
   -5.2810   17.4020  -34.1230 C   0  0  0  0  0  0  0  0  0  0  0  0
   -6.6060   17.0960  -33.8080 C   0  0  0  0  0  0  0  0  0  0  0  0
   -7.3820   18.0090  -33.0940 C   0  0  0  0  0  0  0  0  0  0  0  0
   -6.8400   19.2360  -32.6860 C   0  0  0  0  0  0  0  0  0  0  0  0
   -7.8930   20.3620  -31.8340 Cl  0  0  0  0  0  0  0  0  0  0  0  0
   -5.3140   20.5730  -30.4860 H   0  0  0  0  0  0  0  0  0  0  0  0
   -5.4936   23.7718  -31.5046 H   0  0  0  0  0  0  0  0  0  0  0  0
   -4.2412   25.7439  -30.6337 H   0  0  0  0  0  0  0  0  0  0  0  0
   -2.4749   24.4786  -27.4431 H   0  0  0  0  0  0  0  0  0  0  0  0
   -2.6719   23.7673  -25.7757 H   0  0  0  0  0  0  0  0  0  0  0  0
   -0.5533   25.7896  -26.6295 H   0  0  0  0  0  0  0  0  0  0  0  0
   -2.0303   26.1190  -25.6378 H   0  0  0  0  0  0  0  0  0  0  0  0
    0.3445   25.6733  -24.4944 H   0  0  0  0  0  0  0  0  0  0  0  0
   -1.2113   25.0504  -23.7821 H   0  0  0  0  0  0  0  0  0  0  0  0
    0.9939   23.5014  -24.1293 H   0  0  0  0  0  0  0  0  0  0  0  0
   -0.7033   22.8803  -24.1884 H   0  0  0  0  0  0  0  0  0  0  0  0
    0.9460   23.7636  -26.6076 H   0  0  0  0  0  0  0  0  0  0  0  0
    0.6513   22.0546  -26.0869 H   0  0  0  0  0  0  0  0  0  0  0  0
   -2.5265   21.1299  -29.7833 H   0  0  0  0  0  0  0  0  0  0  0  0
   -3.6840   18.8561  -33.9754 H   0  0  0  0  0  0  0  0  0  0  0  0
   -4.6702   16.6813  -34.6865 H   0  0  0  0  0  0  0  0  0  0  0  0
   -7.0382   16.1347  -34.1229 H   0  0  0  0  0  0  0  0  0  0  0  0
   -8.4263   17.7647  -32.8494 H   0  0  0  0  0  0  0  0  0  0  0  0
  1  2  2  0
  2  3  1  0
  3  4  1  0
  4  5  2  0
  5  6  1  0
  6  7  2  0
  7  8  1  0
  7  9  1  0
  9 10  1  0
 10 11  2  0
 10 12  2  0
 10 13  1  0
 13 14  1  0
 14 15  1  0
 15 16  1  0
 16 17  1  0
 17 18  1  0
  9 19  2  0
  2 20  1  0
 20 21  2  0
 21 22  1  0
 22 23  2  0
 23 24  1  0
 24 25  2  0
 25 26  1  0
 19  4  1  0
 25 20  1  0
 18 13  1  0
  3 27  1  0
  5 28  1  0
  6 29  1  0
 14 30  1  0
 14 31  1  0
 15 32  1  0
 15 33  1  0
 16 34  1  0
 16 35  1  0
 17 36  1  0
 17 37  1  0
 18 38  1  0
 18 39  1  0
 19 40  1  0
 21 41  1  0
 22 42  1  0
 23 43  1  0
 24 44  1  0
M  CHG  1   8  -1
M  END
>  <UniqueID>  (10) 
10

>  <SMILES>  (10) 
O=C(Nc1ccc([O-])c(S(=O)(=O)N2CCCCC2)c1)c1ccccc1Cl

>  <Energy>  (10) 
60.50999439406389

>  <Genealogy>  (10) 
O=C(Nc1ccc([O-])c(S(=O)(=O)N2CCCCC2)c1)c1ccccc1Cl (protonated)
O=C(Nc1ccc([O-])c(S(=O)(=O)N2CCCCC2)c1)c1ccccc1Cl (3D coordinates assigned)
O=C(Nc1ccc([O-])c(S(=O)(=O)N2CCCCC2)c1)c1ccccc1Cl (nonaromatic ring conformer: 60.50999439406389 kcal/mol)

>  <smiles>  (10) 
O=C(Nc1ccc(O)c(S(=O)(=O)N2CCCCC2)c1)c1ccccc1Cl

>  <score_type>  (10) 
oracle

>  <origin>  (10) 
adgpu

>  <m_score__min__energy>  (10) 
-11.779999999999999

>  <m_primary>  (10) 
energy

$$$$
10:0
     RDKit          3D

 37 39  0  0  0  0  0  0  0  0999 V2000
   -1.8940   20.4230  -27.1490 C   0  0  0  0  0  0  0  0  0  0  0  0
   -1.8440   21.8150  -27.7040 C   0  0  0  0  0  0  0  0  0  0  0  0
   -0.7050   22.6090  -27.5190 C   0  0  0  0  0  0  0  0  0  0  0  0
   -0.6470   23.8920  -28.0660 C   0  0  0  0  0  0  0  0  0  0  0  0
   -1.7170   24.3920  -28.8160 C   0  0  0  0  0  0  0  0  0  0  0  0
   -1.6210   25.6760  -29.3420 O   0  0  0  0  0  0  0  0  0  0  0  0
   -2.8660   23.5980  -29.0290 C   0  0  0  0  0  0  0  0  0  0  0  0
   -4.0160   24.0900  -29.8240 C   0  0  0  0  0  0  0  0  0  0  0  0
   -3.9420   25.0920  -30.7270 N   0  0  0  0  0  0  0  0  0  0  0  0
   -5.1650   25.2100  -31.2170 N   0  0  0  0  0  0  0  0  0  0  0  0
   -5.9460   24.3230  -30.6250 N   0  0  0  0  0  0  0  0  0  0  0  0
   -7.3460   24.1050  -30.9620 C   0  0  0  0  0  0  0  0  0  0  0  0
   -7.5000   22.7820  -31.6430 C   0  0  0  0  0  0  0  0  0  0  0  0
   -8.6400   22.4150  -32.0410 O   0  0  0  0  0  0  0  0  0  0  0  0
   -6.3510   21.9590  -31.8820 N   0  0  0  0  0  0  0  0  0  0  0  0
   -6.4560   20.6890  -32.5960 C   0  0  0  0  0  0  0  0  0  0  0  0
   -5.1050   20.2180  -33.0320 C   0  0  0  0  0  0  0  0  0  0  0  0
   -4.8330   19.0280  -33.6760 C   0  0  0  0  0  0  0  0  0  0  0  0
   -3.4660   19.0050  -33.8480 C   0  0  0  0  0  0  0  0  0  0  0  0
   -2.9900   20.1770  -33.2940 C   0  0  0  0  0  0  0  0  0  0  0  0
   -3.9910   20.8780  -32.8130 O   0  0  0  0  0  0  0  0  0  0  0  0
   -5.2680   23.5950  -29.7560 N   0  0  0  0  0  0  0  0  0  0  0  0
   -2.9120   22.3060  -28.4700 C   0  0  0  0  0  0  0  0  0  0  0  0
   -1.8924   20.4662  -26.0499 H   0  0  0  0  0  0  0  0  0  0  0  0
   -2.8107   19.9230  -27.4950 H   0  0  0  0  0  0  0  0  0  0  0  0
   -1.0156   19.8585  -27.4950 H   0  0  0  0  0  0  0  0  0  0  0  0
    0.1464   22.2204  -26.9409 H   0  0  0  0  0  0  0  0  0  0  0  0
    0.2460   24.5141  -27.9063 H   0  0  0  0  0  0  0  0  0  0  0  0
   -7.9495   24.1154  -30.0424 H   0  0  0  0  0  0  0  0  0  0  0  0
   -7.6873   24.9041  -31.6365 H   0  0  0  0  0  0  0  0  0  0  0  0
   -5.4200   22.2920  -31.5400 H   0  0  0  0  0  0  0  0  0  0  0  0
   -6.9043   19.9362  -31.9309 H   0  0  0  0  0  0  0  0  0  0  0  0
   -7.0861   20.8331  -33.4861 H   0  0  0  0  0  0  0  0  0  0  0  0
   -5.5558   18.2592  -33.9868 H   0  0  0  0  0  0  0  0  0  0  0  0
   -2.8735   18.2130  -34.3294 H   0  0  0  0  0  0  0  0  0  0  0  0
   -1.9325   20.4779  -33.2606 H   0  0  0  0  0  0  0  0  0  0  0  0
   -3.7967   21.6738  -28.6361 H   0  0  0  0  0  0  0  0  0  0  0  0
  1  2  1  0
  2  3  2  0
  3  4  1  0
  4  5  2  0
  5  6  1  0
  5  7  1  0
  7  8  1  0
  8  9  1  0
  9 10  2  0
 10 11  1  0
 11 12  1  0
 12 13  1  0
 13 14  2  0
 13 15  1  0
 15 16  1  0
 16 17  1  0
 17 18  2  0
 18 19  1  0
 19 20  2  0
 20 21  1  0
 11 22  1  0
  7 23  2  0
 23  2  1  0
 22  8  2  0
 21 17  1  0
  1 24  1  0
  1 25  1  0
  1 26  1  0
  3 27  1  0
  4 28  1  0
 12 29  1  0
 12 30  1  0
 15 31  1  0
 16 32  1  0
 16 33  1  0
 18 34  1  0
 19 35  1  0
 20 36  1  0
 23 37  1  0
M  CHG  1   6  -1
M  END
>  <UniqueID>  (11) 
11

>  <SMILES>  (11) 
Cc1ccc([O-])c(-c2nnn(CC(=O)NCc3ccco3)n2)c1

>  <Energy>  (11) 
99.02599670479063

>  <Genealogy>  (11) 
Cc1ccc([O-])c(-c2nnn(CC(=O)NCc3ccco3)n2)c1 (protonated)
Cc1ccc([O-])c(-c2nnn(CC(=O)NCc3ccco3)n2)c1 (3D coordinates assigned)
Cc1ccc([O-])c(-c2nnn(CC(=O)NCc3ccco3)n2)c1 (optimized conformer: 99.02599670479063 kcal/mol)

>  <smiles>  (11) 
Cc1ccc(O)c(-c2nnn(CC(=O)NCc3ccco3)n2)c1

>  <score_type>  (11) 
oracle

>  <origin>  (11) 
adgpu

>  <m_score__min__energy>  (11) 
-11.27

>  <m_primary>  (11) 
energy

$$$$
11:0
     RDKit          3D

 32 33  0  0  0  0  0  0  0  0999 V2000
   -9.3850   21.9330  -31.2270 C   0  0  0  0  0  0  0  0  0  0  0  0
   -8.6970   20.8350  -31.9830 C   0  0  0  0  0  0  0  0  0  0  0  0
   -9.3890   19.8610  -32.3880 O   0  0  0  0  0  0  0  0  0  0  0  0
   -7.2350   20.8680  -32.2610 C   0  0  0  0  0  0  0  0  0  0  0  0
   -6.6120   19.7700  -32.8790 C   0  0  0  0  0  0  0  0  0  0  0  0
   -5.2440   19.7940  -33.1600 C   0  0  0  0  0  0  0  0  0  0  0  0
   -4.4750   20.9170  -32.8320 C   0  0  0  0  0  0  0  0  0  0  0  0
   -3.1120   20.9410  -33.1220 O   0  0  0  0  0  0  0  0  0  0  0  0
   -5.0750   22.0210  -32.2120 C   0  0  0  0  0  0  0  0  0  0  0  0
   -4.2640   23.1660  -31.9060 N   0  0  0  0  0  0  0  0  0  0  0  0
   -4.3460   24.0910  -30.4400 S   0  0  0  0  0  0  0  0  0  0  0  0
   -5.7140   23.9330  -29.8390 O   0  0  0  0  0  0  0  0  0  0  0  0
   -4.1170   25.5390  -30.7720 O   0  0  0  0  0  0  0  0  0  0  0  0
   -3.1440   23.5190  -29.2780 C   0  0  0  0  0  0  0  0  0  0  0  0
   -3.2370   22.2140  -28.7690 C   0  0  0  0  0  0  0  0  0  0  0  0
   -2.2760   21.7350  -27.8730 C   0  0  0  0  0  0  0  0  0  0  0  0
   -2.3920   20.0980  -27.2560 Cl  0  0  0  0  0  0  0  0  0  0  0  0
   -1.2230   22.5610  -27.4700 C   0  0  0  0  0  0  0  0  0  0  0  0
   -1.1330   23.8670  -27.9600 C   0  0  0  0  0  0  0  0  0  0  0  0
   -2.0900   24.3510  -28.8580 C   0  0  0  0  0  0  0  0  0  0  0  0
   -1.9830   25.6560  -29.3260 O   0  0  0  0  0  0  0  0  0  0  0  0
   -6.4510   21.9870  -31.9200 C   0  0  0  0  0  0  0  0  0  0  0  0
   -9.2757   21.7585  -30.1464 H   0  0  0  0  0  0  0  0  0  0  0  0
   -8.9308   22.8997  -31.4901 H   0  0  0  0  0  0  0  0  0  0  0  0
  -10.4530   21.9459  -31.4901 H   0  0  0  0  0  0  0  0  0  0  0  0
   -7.2073   18.8837  -33.1438 H   0  0  0  0  0  0  0  0  0  0  0  0
   -4.7687   18.9265  -33.6412 H   0  0  0  0  0  0  0  0  0  0  0  0
   -2.5410   21.7540  -32.9240 H   0  0  0  0  0  0  0  0  0  0  0  0
   -4.0701   21.5648  -29.0765 H   0  0  0  0  0  0  0  0  0  0  0  0
   -0.4654   22.1835  -26.7675 H   0  0  0  0  0  0  0  0  0  0  0  0
   -0.3060   24.5169  -27.6380 H   0  0  0  0  0  0  0  0  0  0  0  0
   -6.9207   22.8461  -31.4186 H   0  0  0  0  0  0  0  0  0  0  0  0
  1  2  1  0
  2  3  2  0
  2  4  1  0
  4  5  2  0
  5  6  1  0
  6  7  2  0
  7  8  1  0
  7  9  1  0
  9 10  1  0
 10 11  1  0
 11 12  2  0
 11 13  2  0
 11 14  1  0
 14 15  2  0
 15 16  1  0
 16 17  1  0
 16 18  2  0
 18 19  1  0
 19 20  2  0
 20 21  1  0
  9 22  2  0
 22  4  1  0
 20 14  1  0
  1 23  1  0
  1 24  1  0
  1 25  1  0
  5 26  1  0
  6 27  1  0
  8 28  1  0
 15 29  1  0
 18 30  1  0
 19 31  1  0
 22 32  1  0
M  CHG  2  10  -1  21  -1
M  END
>  <UniqueID>  (12) 
12

>  <SMILES>  (12) 
CC(=O)c1ccc(O)c([N-]S(=O)(=O)c2cc(Cl)ccc2[O-])c1

>  <Energy>  (12) 
36.15197779589936

>  <Genealogy>  (12) 
CC(=O)c1ccc(O)c([N-]S(=O)(=O)c2cc(Cl)ccc2[O-])c1 (protonated)
CC(=O)c1ccc(O)c([N-]S(=O)(=O)c2cc(Cl)ccc2[O-])c1 (3D coordinates assigned)
CC(=O)c1ccc(O)c([N-]S(=O)(=O)c2cc(Cl)ccc2[O-])c1 (optimized conformer: 36.15197779589936 kcal/mol)

>  <smiles>  (12) 
CC(=O)c1ccc(O)c(NS(=O)(=O)c2cc(Cl)ccc2O)c1

>  <score_type>  (12) 
oracle

>  <origin>  (12) 
adgpu

>  <m_score__min__energy>  (12) 
-11.75

>  <m_primary>  (12) 
energy

$$$$
12:0
     RDKit          3D

 30 31  0  0  0  0  0  0  0  0999 V2000
   -4.7420   18.5790  -34.5820 C   0  0  0  0  0  0  0  0  0  0  0  0
   -5.8030   18.5300  -33.5220 C   0  0  0  0  0  0  0  0  0  0  0  0
   -5.7570   17.5480  -32.5200 C   0  0  0  0  0  0  0  0  0  0  0  0
   -6.7250   17.5250  -31.5120 C   0  0  0  0  0  0  0  0  0  0  0  0
   -7.7380   18.4880  -31.4910 C   0  0  0  0  0  0  0  0  0  0  0  0
   -7.7830   19.4790  -32.4780 C   0  0  0  0  0  0  0  0  0  0  0  0
   -9.0800   20.7150  -32.4490 S   0  0  0  0  0  0  0  0  0  0  0  0
   -8.0100   21.9530  -31.7160 C   0  0  0  0  0  0  0  0  0  0  0  0
   -7.9320   22.0770  -30.3240 C   0  0  0  0  0  0  0  0  0  0  0  0
   -7.0910   23.0360  -29.7510 C   0  0  0  0  0  0  0  0  0  0  0  0
   -6.3290   23.8840  -30.5670 C   0  0  0  0  0  0  0  0  0  0  0  0
   -5.2620   25.0800  -29.8440 S   0  0  0  0  0  0  0  0  0  0  0  0
   -3.8540   25.2760  -30.8280 N   0  0  0  0  0  0  0  0  0  0  0  0
   -5.9840   26.3930  -29.7320 O   0  0  0  0  0  0  0  0  0  0  0  0
   -4.8340   24.6260  -28.4770 O   0  0  0  0  0  0  0  0  0  0  0  0
   -6.4090   23.7560  -31.9620 C   0  0  0  0  0  0  0  0  0  0  0  0
   -7.2500   22.7970  -32.5340 C   0  0  0  0  0  0  0  0  0  0  0  0
   -6.8110   19.5060  -33.4860 C   0  0  0  0  0  0  0  0  0  0  0  0
   -3.7509   18.6248  -34.1069 H   0  0  0  0  0  0  0  0  0  0  0  0
   -4.8072   17.6769  -35.2080 H   0  0  0  0  0  0  0  0  0  0  0  0
   -4.8901   19.4713  -35.2080 H   0  0  0  0  0  0  0  0  0  0  0  0
   -4.9563   16.7939  -32.5281 H   0  0  0  0  0  0  0  0  0  0  0  0
   -6.6896   16.7480  -30.7342 H   0  0  0  0  0  0  0  0  0  0  0  0
   -8.5002   18.4668  -30.6982 H   0  0  0  0  0  0  0  0  0  0  0  0
   -8.5334   21.4189  -29.6796 H   0  0  0  0  0  0  0  0  0  0  0  0
   -7.0271   23.1254  -28.6565 H   0  0  0  0  0  0  0  0  0  0  0  0
   -3.8840   26.2460  -31.2160 H   0  0  0  0  0  0  0  0  0  0  0  0
   -5.8077   24.4127  -32.6079 H   0  0  0  0  0  0  0  0  0  0  0  0
   -7.3146   22.7056  -33.6283 H   0  0  0  0  0  0  0  0  0  0  0  0
   -6.8377   20.2949  -34.2521 H   0  0  0  0  0  0  0  0  0  0  0  0
  1  2  1  0
  2  3  2  0
  3  4  1  0
  4  5  2  0
  5  6  1  0
  6  7  1  0
  7  8  1  0
  8  9  2  0
  9 10  1  0
 10 11  2  0
 11 12  1  0
 12 13  1  0
 12 14  2  0
 12 15  2  0
 11 16  1  0
 16 17  2  0
  6 18  2  0
 18  2  1  0
 17  8  1  0
  1 19  1  0
  1 20  1  0
  1 21  1  0
  3 22  1  0
  4 23  1  0
  5 24  1  0
  9 25  1  0
 10 26  1  0
 13 27  1  0
 16 28  1  0
 17 29  1  0
 18 30  1  0
M  CHG  1  13  -1
M  END
>  <UniqueID>  (13) 
13

>  <SMILES>  (13) 
Cc1cccc(Sc2ccc(S([NH-])(=O)=O)cc2)c1

>  <Energy>  (13) 
24.737296483458522

>  <Genealogy>  (13) 
Cc1cccc(Sc2ccc(S([NH-])(=O)=O)cc2)c1 (protonated)
Cc1cccc(Sc2ccc(S([NH-])(=O)=O)cc2)c1 (3D coordinates assigned)
Cc1cccc(Sc2ccc(S([NH-])(=O)=O)cc2)c1 (optimized conformer: 24.737296483458522 kcal/mol)

>  <smiles>  (13) 
Cc1cccc(Sc2ccc(S(N)(=O)=O)cc2)c1

>  <score_type>  (13) 
oracle

>  <origin>  (13) 
adgpu

>  <m_score__min__energy>  (13) 
-10.59

>  <m_primary>  (13) 
energy

$$$$
13:0
     RDKit          3D

 47 48  0  0  0  0  0  0  0  0999 V2000
   -0.9090   20.3280  -31.2700 C   0  0  0  0  0  0  0  0  0  0  0  0
    0.0110   20.7700  -32.3250 N   0  0  0  0  0  0  0  0  0  0  0  0
    0.9610   19.6970  -32.6470 C   0  0  0  0  0  0  0  0  0  0  0  0
   -0.9020   21.1800  -33.7540 S   0  0  0  0  0  0  0  0  0  0  0  0
   -2.1710   21.8780  -33.3490 O   0  0  0  0  0  0  0  0  0  0  0  0
   -0.0850   22.0970  -34.6210 O   0  0  0  0  0  0  0  0  0  0  0  0
   -1.2870   19.7370  -34.6400 N   0  0  0  0  0  0  0  0  0  0  0  0
   -2.0760   18.6470  -34.1460 C   0  0  0  0  0  0  0  0  0  0  0  0
   -1.4170   17.5570  -33.5650 C   0  0  0  0  0  0  0  0  0  0  0  0
   -2.1460   16.4720  -33.0730 C   0  0  0  0  0  0  0  0  0  0  0  0
   -3.5400   16.4660  -33.1550 C   0  0  0  0  0  0  0  0  0  0  0  0
   -4.2240   17.5560  -33.7230 C   0  0  0  0  0  0  0  0  0  0  0  0
   -5.7040   17.5600  -33.7940 C   0  0  0  0  0  0  0  0  0  0  0  0
   -6.2860   17.4870  -34.9100 O   0  0  0  0  0  0  0  0  0  0  0  0
   -6.4780   17.6450  -32.5940 N   0  0  0  0  0  0  0  0  0  0  0  0
   -7.5090   18.6550  -32.3810 C   0  0  0  0  0  0  0  0  0  0  0  0
   -7.2220   19.8880  -33.2410 C   0  0  0  0  0  0  0  0  0  0  0  0
   -6.3380   20.8680  -32.5130 C   0  0  0  0  0  0  0  0  0  0  0  0
   -5.1070   20.4520  -31.9800 C   0  0  0  0  0  0  0  0  0  0  0  0
   -4.3130   21.3460  -31.2560 C   0  0  0  0  0  0  0  0  0  0  0  0
   -4.7420   22.6640  -31.0520 C   0  0  0  0  0  0  0  0  0  0  0  0
   -3.7300   23.7830  -30.1450 S   0  0  0  0  0  0  0  0  0  0  0  0
   -3.8570   25.3630  -30.8330 N   0  0  0  0  0  0  0  0  0  0  0  0
   -2.3000   23.3250  -30.1980 O   0  0  0  0  0  0  0  0  0  0  0  0
   -4.1700   23.8310  -28.7080 O   0  0  0  0  0  0  0  0  0  0  0  0
   -5.9700   23.0830  -31.5840 C   0  0  0  0  0  0  0  0  0  0  0  0
   -6.7670   22.1870  -32.3020 C   0  0  0  0  0  0  0  0  0  0  0  0
   -3.4820   18.6450  -34.2180 C   0  0  0  0  0  0  0  0  0  0  0  0
   -0.4670   20.5404  -30.2854 H   0  0  0  0  0  0  0  0  0  0  0  0
   -1.8637   20.8658  -31.3670 H   0  0  0  0  0  0  0  0  0  0  0  0
   -1.0858   19.2466  -31.3670 H   0  0  0  0  0  0  0  0  0  0  0  0
    1.3489   19.2589  -31.7155 H   0  0  0  0  0  0  0  0  0  0  0  0
    0.4503   18.9189  -33.2333 H   0  0  0  0  0  0  0  0  0  0  0  0
    1.7953   20.1096  -33.2333 H   0  0  0  0  0  0  0  0  0  0  0  0
   -0.3192   17.5551  -33.4956 H   0  0  0  0  0  0  0  0  0  0  0  0
   -1.6201   15.6190  -32.6192 H   0  0  0  0  0  0  0  0  0  0  0  0
   -4.1065   15.6039  -32.7732 H   0  0  0  0  0  0  0  0  0  0  0  0
   -8.4890   18.2386  -32.6573 H   0  0  0  0  0  0  0  0  0  0  0  0
   -7.5127   18.9481  -31.3208 H   0  0  0  0  0  0  0  0  0  0  0  0
   -6.7193   19.5706  -34.1665 H   0  0  0  0  0  0  0  0  0  0  0  0
   -8.1774   20.3836  -33.4682 H   0  0  0  0  0  0  0  0  0  0  0  0
   -4.7660   19.4175  -32.1331 H   0  0  0  0  0  0  0  0  0  0  0  0
   -3.3483   21.0136  -30.8451 H   0  0  0  0  0  0  0  0  0  0  0  0
   -3.8720   26.0410  -30.0380 H   0  0  0  0  0  0  0  0  0  0  0  0
   -6.3069   24.1196  -31.4358 H   0  0  0  0  0  0  0  0  0  0  0  0
   -7.7360   22.5179  -32.7039 H   0  0  0  0  0  0  0  0  0  0  0  0
   -4.0058   19.5026  -34.6654 H   0  0  0  0  0  0  0  0  0  0  0  0
  1  2  1  0
  2  3  1  0
  2  4  1  0
  4  5  2  0
  4  6  2  0
  4  7  1  0
  7  8  1  0
  8  9  2  0
  9 10  1  0
 10 11  2  0
 11 12  1  0
 12 13  1  0
 13 14  2  0
 13 15  1  0
 15 16  1  0
 16 17  1  0
 17 18  1  0
 18 19  2  0
 19 20  1  0
 20 21  2  0
 21 22  1  0
 22 23  1  0
 22 24  2  0
 22 25  2  0
 21 26  1  0
 26 27  2  0
 12 28  2  0
 28  8  1  0
 27 18  1  0
  1 29  1  0
  1 30  1  0
  1 31  1  0
  3 32  1  0
  3 33  1  0
  3 34  1  0
  9 35  1  0
 10 36  1  0
 11 37  1  0
 16 38  1  0
 16 39  1  0
 17 40  1  0
 17 41  1  0
 19 42  1  0
 20 43  1  0
 23 44  1  0
 26 45  1  0
 27 46  1  0
 28 47  1  0
M  CHG  3   7  -1  15  -1  23  -1
M  END
>  <UniqueID>  (14) 
14

>  <SMILES>  (14) 
CN(C)S(=O)(=O)[N-]c1cccc(C(=O)[N-]CCc2ccc(S([NH-])(=O)=O)cc2)c1

>  <Energy>  (14) 
41.60965800785466

>  <Genealogy>  (14) 
CN(C)S(=O)(=O)[N-]c1cccc(C(=O)[N-]CCc2ccc(S([NH-])(=O)=O)cc2)c1 (protonated)
CN(C)S(=O)(=O)[N-]c1cccc(C(=O)[N-]CCc2ccc(S([NH-])(=O)=O)cc2)c1 (3D coordinates assigned)
CN(C)S(=O)(=O)[N-]c1cccc(C(=O)[N-]CCc2ccc(S([NH-])(=O)=O)cc2)c1 (optimized conformer: 41.60965800785466 kcal/mol)

>  <smiles>  (14) 
CN(C)S(=O)(=O)Nc1cccc(C(=O)NCCc2ccc(S(N)(=O)=O)cc2)c1

>  <score_type>  (14) 
oracle

>  <origin>  (14) 
adgpu

>  <m_score__min__energy>  (14) 
-11.119999999999999

>  <m_primary>  (14) 
energy

$$$$
14:0
     RDKit          3D

 31 33  0  0  0  0  0  0  0  0999 V2000
   -4.5240   21.1960  -29.7060 H   0  0  0  0  0  0  0  0  0  0  0  0
   -3.8700   21.9980  -29.5800 N   0  0  0  0  0  0  0  0  0  0  0  0
   -4.0800   23.1650  -30.1080 C   0  0  0  0  0  0  0  0  0  0  0  0
   -5.1820   23.5370  -30.8590 C   0  0  0  0  0  0  0  0  0  0  0  0
   -6.2950   22.7020  -31.3620 C   0  0  0  0  0  0  0  0  0  0  0  0
   -7.6080   23.2050  -31.3510 C   0  0  0  0  0  0  0  0  0  0  0  0
   -7.7989   24.2248  -30.9855 H   0  0  0  0  0  0  0  0  0  0  0  0
   -8.6720   22.4190  -31.8010 C   0  0  0  0  0  0  0  0  0  0  0  0
   -9.6948   22.8238  -31.7951 H   0  0  0  0  0  0  0  0  0  0  0  0
   -8.4390   21.1210  -32.2580 C   0  0  0  0  0  0  0  0  0  0  0  0
   -9.2778   20.5036  -32.6119 H   0  0  0  0  0  0  0  0  0  0  0  0
   -7.1410   20.6060  -32.2660 C   0  0  0  0  0  0  0  0  0  0  0  0
   -6.9612   19.5815  -32.6240 H   0  0  0  0  0  0  0  0  0  0  0  0
   -6.0650   21.3880  -31.8200 C   0  0  0  0  0  0  0  0  0  0  0  0
   -4.7710   20.8680  -31.8470 O   0  0  0  0  0  0  0  0  0  0  0  0
   -3.9610   21.4490  -31.6670 H   0  0  0  0  0  0  0  0  0  0  0  0
   -5.0060   24.8960  -31.0620 C   0  0  0  0  0  0  0  0  0  0  0  0
   -5.6944   25.5476  -31.6202 H   0  0  0  0  0  0  0  0  0  0  0  0
   -3.8620   25.2990  -30.4710 N   0  0  0  0  0  0  0  0  0  0  0  0
   -3.2960   24.2450  -29.8990 N   0  0  0  0  0  0  0  0  0  0  0  0
   -2.0660   24.3190  -29.1530 C   0  0  0  0  0  0  0  0  0  0  0  0
   -1.0480   23.3790  -29.3880 C   0  0  0  0  0  0  0  0  0  0  0  0
   -1.1919   22.5972  -30.1483 H   0  0  0  0  0  0  0  0  0  0  0  0
    0.1460   23.4300  -28.6630 C   0  0  0  0  0  0  0  0  0  0  0  0
    0.9409   22.6959  -28.8613 H   0  0  0  0  0  0  0  0  0  0  0  0
    0.3310   24.4120  -27.6870 C   0  0  0  0  0  0  0  0  0  0  0  0
    1.2725   24.4539  -27.1197 H   0  0  0  0  0  0  0  0  0  0  0  0
   -0.6810   25.3410  -27.4320 C   0  0  0  0  0  0  0  0  0  0  0  0
   -0.5365   26.1115  -26.6603 H   0  0  0  0  0  0  0  0  0  0  0  0
   -1.8770   25.2940  -28.1550 C   0  0  0  0  0  0  0  0  0  0  0  0
   -2.6738   26.0221  -27.9431 H   0  0  0  0  0  0  0  0  0  0  0  0
  1  2  1  0
  2  3  2  0
  3  4  1  0
  4  5  1  0
  5  6  2  0
  6  7  1  0
  6  8  1  0
  8  9  1  0
  8 10  2  0
 10 11  1  0
 10 12  1  0
 12 13  1  0
 12 14  2  0
 14 15  1  0
 15 16  1  0
  4 17  2  0
 17 18  1  0
 17 19  1  0
 19 20  1  0
 20 21  1  0
 21 22  2  0
 22 23  1  0
 22 24  1  0
 24 25  1  0
 24 26  2  0
 26 27  1  0
 26 28  1  0
 28 29  1  0
 28 30  2  0
 30 31  1  0
 20  3  1  0
 30 21  1  0
 14  5  1  0
M  CHG  1  19  -1
M  END
>  <UniqueID>  (15) 
15

>  <SMILES>  (15) 
[H]/N=c1\c(-c2ccccc2O)c[n-]n1-c1ccccc1

>  <Energy>  (15) 
76.6796721105408

>  <Genealogy>  (15) 
N=c1c(-c2ccccc2O)c[n-]n1-c1ccccc1 (protonated)
[H]/N=c1\c(-c2ccccc2O)c[n-]n1-c1ccccc1 (cis-trans isomerization)
[H]/N=c1\c(-c2ccccc2O)c[n-]n1-c1ccccc1 (3D coordinates assigned)
[H]/N=c1\c(-c2ccccc2O)c[n-]n1-c1ccccc1 (optimized conformer: 76.6796721105408 kcal/mol)

>  <smiles>  (15) 
N=c1c(-c2ccccc2O)c[nH]n1-c1ccccc1

>  <score_type>  (15) 
oracle

>  <origin>  (15) 
adgpu

>  <m_score__min__energy>  (15) 
-7.8499999999999996

>  <m_primary>  (15) 
energy

$$$$
15:0
     RDKit          3D

 53 57  0  0  0  0  0  0  0  0999 V2000
   -6.3590   25.9580  -29.7320 O   0  0  0  0  0  0  0  0  0  0  0  0
   -5.3020   24.9130  -29.9630 S   0  0  0  0  0  0  0  0  0  0  0  0
   -4.2430   25.4800  -30.8670 O   0  0  0  0  0  0  0  0  0  0  0  0
   -4.5860   24.4850  -28.4420 N   0  0  0  0  0  0  0  0  0  0  0  0
   -3.3090   24.5260  -28.2100 C   0  0  0  0  0  0  0  0  0  0  0  0
   -2.8430   24.1810  -26.9810 N   0  0  0  0  0  0  0  0  0  0  0  0
   -1.5140   24.2160  -26.7010 C   0  0  0  0  0  0  0  0  0  0  0  0
   -0.6060   24.6110  -27.6820 C   0  0  0  0  0  0  0  0  0  0  0  0
   -1.0970   24.9610  -28.9390 C   0  0  0  0  0  0  0  0  0  0  0  0
   -2.4330   24.9120  -29.1810 N   0  0  0  0  0  0  0  0  0  0  0  0
   -5.9930   23.4810  -30.7220 C   0  0  0  0  0  0  0  0  0  0  0  0
   -5.1570   22.4240  -31.0920 C   0  0  0  0  0  0  0  0  0  0  0  0
   -5.6870   21.2760  -31.6830 C   0  0  0  0  0  0  0  0  0  0  0  0
   -7.0700   21.1700  -31.9310 C   0  0  0  0  0  0  0  0  0  0  0  0
   -7.6550   20.0280  -32.5370 C   0  0  0  0  0  0  0  0  0  0  0  0
   -6.8570   18.8960  -33.0570 C   0  0  0  0  0  0  0  0  0  0  0  0
   -6.7830   17.6830  -32.3610 C   0  0  0  0  0  0  0  0  0  0  0  0
   -6.0010   16.6370  -32.8530 C   0  0  0  0  0  0  0  0  0  0  0  0
   -5.2670   16.8120  -34.0420 C   0  0  0  0  0  0  0  0  0  0  0  0
   -4.4400   15.7550  -34.5910 N   0  0  0  0  0  0  0  0  0  0  0  0
   -3.1650   16.0870  -35.2500 C   0  0  0  0  0  0  0  0  0  0  0  0
   -2.8450   15.1280  -36.4190 C   0  0  0  0  0  0  0  0  0  0  0  0
   -3.4240   13.7740  -36.2760 N   0  0  0  0  0  0  0  0  0  0  0  0
   -3.6800   13.4100  -34.8790 C   0  0  0  0  0  0  0  0  0  0  0  0
   -4.7390   14.3450  -34.2880 C   0  0  0  0  0  0  0  0  0  0  0  0
   -5.3390   18.0160  -34.6820 N   0  0  0  0  0  0  0  0  0  0  0  0
   -6.0980   19.0460  -34.2220 C   0  0  0  0  0  0  0  0  0  0  0  0
   -9.0080   19.9620  -32.6680 N   0  0  0  0  0  0  0  0  0  0  0  0
   -9.8310   20.9630  -32.2660 C   0  0  0  0  0  0  0  0  0  0  0  0
   -9.3020   22.1210  -31.7020 C   0  0  0  0  0  0  0  0  0  0  0  0
   -7.9180   22.2320  -31.5250 C   0  0  0  0  0  0  0  0  0  0  0  0
   -7.3720   23.3820  -30.9350 C   0  0  0  0  0  0  0  0  0  0  0  0
   -1.1547   23.9328  -25.7006 H   0  0  0  0  0  0  0  0  0  0  0  0
    0.4727   24.6458  -27.4694 H   0  0  0  0  0  0  0  0  0  0  0  0
   -0.4042   25.2762  -29.7332 H   0  0  0  0  0  0  0  0  0  0  0  0
   -4.0736   22.4973  -30.9162 H   0  0  0  0  0  0  0  0  0  0  0  0
   -5.0189   20.4464  -31.9577 H   0  0  0  0  0  0  0  0  0  0  0  0
   -7.3433   17.5542  -31.4232 H   0  0  0  0  0  0  0  0  0  0  0  0
   -5.9581   15.6791  -32.3139 H   0  0  0  0  0  0  0  0  0  0  0  0
   -3.2248   17.1137  -35.6403 H   0  0  0  0  0  0  0  0  0  0  0  0
   -2.3633   15.9886  -34.5033 H   0  0  0  0  0  0  0  0  0  0  0  0
   -3.2361   15.5731  -37.3458 H   0  0  0  0  0  0  0  0  0  0  0  0
   -1.7523   15.0020  -36.4310 H   0  0  0  0  0  0  0  0  0  0  0  0
   -2.7630   13.0730  -36.6870 H   0  0  0  0  0  0  0  0  0  0  0  0
   -4.3210   13.7190  -36.8170 H   0  0  0  0  0  0  0  0  0  0  0  0
   -4.0413   12.3721  -34.8318 H   0  0  0  0  0  0  0  0  0  0  0  0
   -2.7484   13.5033  -34.3015 H   0  0  0  0  0  0  0  0  0  0  0  0
   -5.7206   14.0880  -34.7128 H   0  0  0  0  0  0  0  0  0  0  0  0
   -4.7415   14.2186  -33.1953 H   0  0  0  0  0  0  0  0  0  0  0  0
   -6.1151   20.0007  -34.7681 H   0  0  0  0  0  0  0  0  0  0  0  0
  -10.9195   20.8594  -32.3860 H   0  0  0  0  0  0  0  0  0  0  0  0
   -9.9670   22.9427  -31.3977 H   0  0  0  0  0  0  0  0  0  0  0  0
   -8.0321   24.2104  -30.6383 H   0  0  0  0  0  0  0  0  0  0  0  0
  1  2  2  0
  2  3  2  0
  2  4  1  0
  4  5  2  3
  5  6  1  0
  6  7  2  0
  7  8  1  0
  8  9  2  0
  9 10  1  0
  2 11  1  0
 11 12  2  0
 12 13  1  0
 13 14  2  0
 14 15  1  0
 15 16  1  0
 16 17  2  0
 17 18  1  0
 18 19  2  0
 19 20  1  0
 20 21  1  0
 21 22  1  0
 22 23  1  0
 23 24  1  0
 24 25  1  0
 19 26  1  0
 26 27  2  0
 15 28  2  0
 28 29  1  0
 29 30  2  0
 30 31  1  0
 31 32  2  0
 10  5  1  0
 32 11  1  0
 31 14  1  0
 27 16  1  0
 25 20  1  0
  7 33  1  0
  8 34  1  0
  9 35  1  0
 12 36  1  0
 13 37  1  0
 17 38  1  0
 18 39  1  0
 21 40  1  0
 21 41  1  0
 22 42  1  0
 22 43  1  0
 23 44  1  0
 23 45  1  0
 24 46  1  0
 24 47  1  0
 25 48  1  0
 25 49  1  0
 27 50  1  0
 29 51  1  0
 30 52  1  0
 32 53  1  0
M  CHG  2  10  -1  23   1
M  END
>  <UniqueID>  (16) 
16

>  <SMILES>  (16) 
O=S(=O)(N=c1nccc[n-]1)c1ccc2c(-c3ccc(N4CC[NH2+]CC4)nc3)nccc2c1

>  <Energy>  (16) 
81.79004285631993

>  <Genealogy>  (16) 
O=S(=O)(N=c1nccc[n-]1)c1ccc2c(-c3ccc(N4CC[NH2+]CC4)nc3)nccc2c1 (protonated)
O=S(=O)(N=c1nccc[n-]1)c1ccc2c(-c3ccc(N4CC[NH2+]CC4)nc3)nccc2c1 (3D coordinates assigned)
O=S(=O)(N=c1nccc[n-]1)c1ccc2c(-c3ccc(N4CC[NH2+]CC4)nc3)nccc2c1 (nonaromatic ring conformer: 81.79004285631993 kcal/mol)

>  <smiles>  (16) 
O=S(=O)(N=c1nccc[nH]1)c1ccc2c(-c3ccc(N4CCNCC4)nc3)nccc2c1

>  <score_type>  (16) 
oracle

>  <origin>  (16) 
adgpu

>  <m_score__min__energy>  (16) 
-11.710000000000001

>  <m_primary>  (16) 
energy

$$$$
16:0
     RDKit          3D

 50 52  0  0  0  0  0  0  0  0999 V2000
   -0.1090   24.0280  -25.2530 C   0  0  0  0  0  0  0  0  0  0  0  0
   -1.0280   23.8840  -26.4300 C   0  0  0  0  0  0  0  0  0  0  0  0
   -0.6730   23.0630  -27.5110 C   0  0  0  0  0  0  0  0  0  0  0  0
   -1.5470   22.8970  -28.5890 C   0  0  0  0  0  0  0  0  0  0  0  0
   -2.7980   23.5380  -28.5960 C   0  0  0  0  0  0  0  0  0  0  0  0
   -3.7080   23.3640  -29.6990 N   0  0  0  0  0  0  0  0  0  0  0  0
   -4.1840   22.1870  -30.1580 C   0  0  0  0  0  0  0  0  0  0  0  0
   -4.9670   22.4030  -31.2820 C   0  0  0  0  0  0  0  0  0  0  0  0
   -5.6350   21.3400  -32.1190 C   0  0  1  0  0  0  0  0  0  0  0  0
   -6.8290   21.8170  -32.6850 O   0  0  0  0  0  0  0  0  0  0  0  0
   -4.7440   20.8760  -33.1900 N   0  0  0  0  0  0  0  0  0  0  0  0
   -3.5620   20.0700  -32.9990 C   0  0  0  0  0  0  0  0  0  0  0  0
   -3.5770   18.7260  -33.4050 C   0  0  0  0  0  0  0  0  0  0  0  0
   -2.4730   17.9000  -33.1710 C   0  0  0  0  0  0  0  0  0  0  0  0
   -1.3470   18.4030  -32.5150 C   0  0  0  0  0  0  0  0  0  0  0  0
   -1.3140   19.7430  -32.1080 C   0  0  0  0  0  0  0  0  0  0  0  0
    0.0590   20.3830  -31.2100 S   0  0  0  0  0  0  0  0  0  0  0  0
   -0.1120   21.8710  -31.0700 O   0  0  0  0  0  0  0  0  0  0  0  0
    1.3390   20.1030  -31.9510 O   0  0  0  0  0  0  0  0  0  0  0  0
    0.1160   19.6430  -29.6290 N   0  0  0  0  0  0  0  0  0  0  0  0
   -1.1980   19.7580  -28.9810 C   0  0  0  0  0  0  0  0  0  0  0  0
    0.4880   18.2300  -29.7650 C   0  0  0  0  0  0  0  0  0  0  0  0
   -2.4050   20.5780  -32.3760 C   0  0  0  0  0  0  0  0  0  0  0  0
   -4.9880   23.7700  -31.5040 C   0  0  0  0  0  0  0  0  0  0  0  0
   -4.1930   24.3180  -30.5200 C   0  0  0  0  0  0  0  0  0  0  0  0
   -3.8900   25.6710  -30.4210 O   0  0  0  0  0  0  0  0  0  0  0  0
   -3.1540   24.3530  -27.5080 C   0  0  0  0  0  0  0  0  0  0  0  0
   -2.2790   24.5170  -26.4290 C   0  0  0  0  0  0  0  0  0  0  0  0
   -0.6882   23.9372  -24.3223 H   0  0  0  0  0  0  0  0  0  0  0  0
    0.6566   23.2389  -25.2869 H   0  0  0  0  0  0  0  0  0  0  0  0
    0.3785   25.0135  -25.2869 H   0  0  0  0  0  0  0  0  0  0  0  0
    0.2985   22.5471  -27.5101 H   0  0  0  0  0  0  0  0  0  0  0  0
   -1.2541   22.2608  -29.4372 H   0  0  0  0  0  0  0  0  0  0  0  0
   -3.9812   21.2040  -29.7079 H   0  0  0  0  0  0  0  0  0  0  0  0
   -5.8659   20.4974  -31.4506 H   0  0  0  0  0  0  0  0  0  0  0  0
   -6.6090   22.6640  -33.1550 H   0  0  0  0  0  0  0  0  0  0  0  0
   -5.0300   21.1040  -34.1700 H   0  0  0  0  0  0  0  0  0  0  0  0
   -4.4647   18.3193  -33.9115 H   0  0  0  0  0  0  0  0  0  0  0  0
   -2.4914   16.8519  -33.5043 H   0  0  0  0  0  0  0  0  0  0  0  0
   -0.4863   17.7469  -32.3180 H   0  0  0  0  0  0  0  0  0  0  0  0
   -1.0703   19.7468  -27.8885 H   0  0  0  0  0  0  0  0  0  0  0  0
   -1.6753   20.7014  -29.2847 H   0  0  0  0  0  0  0  0  0  0  0  0
   -1.8319   18.9119  -29.2847 H   0  0  0  0  0  0  0  0  0  0  0  0
    0.6054   17.7840  -28.7664 H   0  0  0  0  0  0  0  0  0  0  0  0
   -0.2998   17.6948  -30.3153 H   0  0  0  0  0  0  0  0  0  0  0  0
    1.4373   18.1521  -30.3153 H   0  0  0  0  0  0  0  0  0  0  0  0
   -2.3585   21.6411  -32.0975 H   0  0  0  0  0  0  0  0  0  0  0  0
   -5.5265   24.3063  -32.2992 H   0  0  0  0  0  0  0  0  0  0  0  0
   -4.1273   24.8655  -27.5048 H   0  0  0  0  0  0  0  0  0  0  0  0
   -2.5738   25.1455  -25.5758 H   0  0  0  0  0  0  0  0  0  0  0  0
  1  2  1  0
  2  3  2  0
  3  4  1  0
  4  5  2  0
  5  6  1  0
  6  7  1  0
  7  8  2  0
  8  9  1  0
  9 10  1  0
  9 11  1  0
 11 12  1  0
 12 13  2  0
 13 14  1  0
 14 15  2  0
 15 16  1  0
 16 17  1  0
 17 18  2  0
 17 19  2  0
 17 20  1  0
 20 21  1  0
 20 22  1  0
 16 23  2  0
  8 24  1  0
 24 25  2  0
 25 26  1  0
  5 27  1  0
 27 28  2  0
 28  2  1  0
 25  6  1  0
 23 12  1  0
  1 29  1  0
  1 30  1  0
  1 31  1  0
  3 32  1  0
  4 33  1  0
  7 34  1  0
  9 35  1  1
 10 36  1  0
 11 37  1  0
 13 38  1  0
 14 39  1  0
 15 40  1  0
 21 41  1  0
 21 42  1  0
 21 43  1  0
 22 44  1  0
 22 45  1  0
 22 46  1  0
 23 47  1  0
 24 48  1  0
 27 49  1  0
 28 50  1  0
M  CHG  1  26  -1
M  END
>  <UniqueID>  (17) 
17

>  <SMILES>  (17) 
Cc1ccc(-n2cc([C@@H](O)Nc3cccc(S(=O)(=O)N(C)C)c3)cc2[O-])cc1

>  <Energy>  (17) 
78.31407731997827

>  <Genealogy>  (17) 
Cc1ccc(-n2cc(C(O)Nc3cccc(S(=O)(=O)N(C)C)c3)cc2[O-])cc1 (protonated)
Cc1ccc(-n2cc([C@@H](O)Nc3cccc(S(=O)(=O)N(C)C)c3)cc2[O-])cc1 (chirality)
Cc1ccc(-n2cc([C@@H](O)Nc3cccc(S(=O)(=O)N(C)C)c3)cc2[O-])cc1 (3D coordinates assigned)
Cc1ccc(-n2cc([C@@H](O)Nc3cccc(S(=O)(=O)N(C)C)c3)cc2[O-])cc1 (optimized conformer: 78.31407731997827 kcal/mol)

>  <smiles>  (17) 
Cc1ccc(-n2cc(C(O)Nc3cccc(S(=O)(=O)N(C)C)c3)cc2O)cc1

>  <score_type>  (17) 
oracle

>  <origin>  (17) 
adgpu

>  <m_score__min__energy>  (17) 
-12.039999999999999

>  <m_primary>  (17) 
energy

$$$$
17:0
     RDKit          3D

 70 73  0  0  0  0  0  0  0  0999 V2000
   -3.2110   25.1580  -30.8070 H   0  0  0  0  0  0  0  0  0  0  0  0
   -3.6450   24.2090  -30.8500 N   0  0  0  0  0  0  0  0  0  0  0  0
   -4.9930   24.0370  -31.2730 C   0  0  0  0  0  0  0  0  0  0  0  0
   -5.7830   25.0160  -31.2140 O   0  0  0  0  0  0  0  0  0  0  0  0
   -5.4650   22.7260  -31.7800 C   0  0  0  0  0  0  0  0  0  0  0  0
   -6.6880   22.1150  -31.5120 C   0  0  0  0  0  0  0  0  0  0  0  0
   -7.8450   22.6420  -30.7000 C   0  0  0  0  0  0  0  0  0  0  0  0
   -8.3200   23.8110  -31.2660 F   0  0  0  0  0  0  0  0  0  0  0  0
   -7.3960   22.9410  -29.4230 F   0  0  0  0  0  0  0  0  0  0  0  0
   -8.9670   21.5940  -30.6030 C   0  0  0  0  0  0  0  0  0  0  0  0
   -8.5289   20.6316  -30.2998 H   0  0  0  0  0  0  0  0  0  0  0  0
   -9.6998   21.9481  -29.8630 H   0  0  0  0  0  0  0  0  0  0  0  0
   -9.6930   21.4080  -31.9350 C   0  0  0  0  0  0  0  0  0  0  0  0
  -10.7427   21.1391  -31.7460 H   0  0  0  0  0  0  0  0  0  0  0  0
   -9.6523   22.3456  -32.5088 H   0  0  0  0  0  0  0  0  0  0  0  0
   -9.2065   20.6055  -32.5088 H   0  0  0  0  0  0  0  0  0  0  0  0
   -6.7550   20.9460  -32.1810 N   0  0  0  0  0  0  0  0  0  0  0  0
   -5.5800   20.8530  -32.8360 C   0  0  0  0  0  0  0  0  0  0  0  0
   -5.2320   19.6520  -33.6750 C   0  0  0  0  0  0  0  0  0  0  0  0
   -4.2518   19.2670  -33.3573 H   0  0  0  0  0  0  0  0  0  0  0  0
   -5.2095   19.9649  -34.7293 H   0  0  0  0  0  0  0  0  0  0  0  0
   -6.2760   18.5360  -33.5290 C   0  0  0  0  0  0  0  0  0  0  0  0
   -6.0961   17.7802  -34.3078 H   0  0  0  0  0  0  0  0  0  0  0  0
   -7.2713   18.9930  -33.6321 H   0  0  0  0  0  0  0  0  0  0  0  0
   -6.2160   17.8560  -32.1630 C   0  0  0  0  0  0  0  0  0  0  0  0
   -6.2831   18.6168  -31.3714 H   0  0  0  0  0  0  0  0  0  0  0  0
   -7.0555   17.1517  -32.0668 H   0  0  0  0  0  0  0  0  0  0  0  0
   -5.2662   17.3096  -32.0668 H   0  0  0  0  0  0  0  0  0  0  0  0
   -4.7700   21.9160  -32.6160 N   0  0  0  0  0  0  0  0  0  0  0  0
   -3.4170   22.1150  -33.1550 C   0  0  0  0  0  0  0  0  0  0  0  0
   -3.4231   21.8910  -34.2319 H   0  0  0  0  0  0  0  0  0  0  0  0
   -3.1215   23.1597  -32.9781 H   0  0  0  0  0  0  0  0  0  0  0  0
   -2.4190   21.2130  -32.4700 C   0  0  0  0  0  0  0  0  0  0  0  0
   -2.5550   19.8180  -32.5620 C   0  0  0  0  0  0  0  0  0  0  0  0
   -3.3829   19.3866  -33.1438 H   0  0  0  0  0  0  0  0  0  0  0  0
   -1.6450   18.9750  -31.9190 C   0  0  0  0  0  0  0  0  0  0  0  0
   -1.7495   17.8839  -32.0116 H   0  0  0  0  0  0  0  0  0  0  0  0
   -0.5990   19.5140  -31.1560 C   0  0  0  0  0  0  0  0  0  0  0  0
    0.3680   18.6260  -30.4810 C   0  0  0  0  0  0  0  0  0  0  0  0
    1.2070   17.8260  -31.2770 C   0  0  0  0  0  0  0  0  0  0  0  0
    1.1455   17.8936  -32.3732 H   0  0  0  0  0  0  0  0  0  0  0  0
    2.1170   16.9470  -30.6880 C   0  0  0  0  0  0  0  0  0  0  0  0
    2.9150   16.1760  -31.4670 F   0  0  0  0  0  0  0  0  0  0  0  0
    2.1990   16.8540  -29.2990 C   0  0  0  0  0  0  0  0  0  0  0  0
    2.9091   16.1526  -28.8366 H   0  0  0  0  0  0  0  0  0  0  0  0
    1.3810   17.6500  -28.4940 C   0  0  0  0  0  0  0  0  0  0  0  0
    1.4489   17.5685  -27.3991 H   0  0  0  0  0  0  0  0  0  0  0  0
    0.4730   18.5530  -29.0690 C   0  0  0  0  0  0  0  0  0  0  0  0
   -0.4750   19.5870  -27.9870 S   0  0  0  0  0  0  0  0  0  0  0  0
   -0.8580   18.8910  -26.7110 O   0  0  0  0  0  0  0  0  0  0  0  0
    0.3680   20.7790  -27.6390 O   0  0  0  0  0  0  0  0  0  0  0  0
   -1.9140   20.1560  -28.7750 N   0  0  0  0  0  0  0  0  0  0  0  0
   -2.6250   21.2230  -28.5460 C   0  0  0  0  0  0  0  0  0  0  0  0
   -3.6930   21.4950  -29.2600 O   0  0  0  0  0  0  0  0  0  0  0  0
   -4.2500   22.5960  -28.8570 N   0  0  0  0  0  0  0  0  0  0  0  0
   -5.1130   23.0120  -29.2720 H   0  0  0  0  0  0  0  0  0  0  0  0
   -3.5310   23.0810  -27.8290 C   0  0  0  0  0  0  0  0  0  0  0  0
   -3.8700   24.3390  -27.0930 C   0  0  0  0  0  0  0  0  0  0  0  0
   -3.8203   24.1547  -26.0097 H   0  0  0  0  0  0  0  0  0  0  0  0
   -3.1522   25.1272  -27.3641 H   0  0  0  0  0  0  0  0  0  0  0  0
   -4.8866   24.6598  -27.3641 H   0  0  0  0  0  0  0  0  0  0  0  0
   -2.4550   22.2350  -27.5880 C   0  0  0  0  0  0  0  0  0  0  0  0
   -1.4490   22.4030  -26.4860 C   0  0  0  0  0  0  0  0  0  0  0  0
   -1.9541   22.3187  -25.5125 H   0  0  0  0  0  0  0  0  0  0  0  0
   -0.6800   21.6208  -26.5691 H   0  0  0  0  0  0  0  0  0  0  0  0
   -0.9759   23.3926  -26.5691 H   0  0  0  0  0  0  0  0  0  0  0  0
   -0.4630   20.9050  -31.0580 C   0  0  0  0  0  0  0  0  0  0  0  0
    0.3614   21.3345  -30.4699 H   0  0  0  0  0  0  0  0  0  0  0  0
   -1.3700   21.7490  -31.7040 C   0  0  0  0  0  0  0  0  0  0  0  0
   -1.2622   22.8399  -31.6123 H   0  0  0  0  0  0  0  0  0  0  0  0
  1  2  1  0
  2  3  1  0
  3  4  2  0
  3  5  1  0
  5  6  2  0
  6  7  1  0
  7  8  1  0
  7  9  1  0
  7 10  1  0
 10 11  1  0
 10 12  1  0
 10 13  1  0
 13 14  1  0
 13 15  1  0
 13 16  1  0
  6 17  1  0
 17 18  2  0
 18 19  1  0
 19 20  1  0
 19 21  1  0
 19 22  1  0
 22 23  1  0
 22 24  1  0
 22 25  1  0
 25 26  1  0
 25 27  1  0
 25 28  1  0
 18 29  1  0
 29 30  1  0
 30 31  1  0
 30 32  1  0
 30 33  1  0
 33 34  2  0
 34 35  1  0
 34 36  1  0
 36 37  1  0
 36 38  2  0
 38 39  1  0
 39 40  2  0
 40 41  1  0
 40 42  1  0
 42 43  1  0
 42 44  2  0
 44 45  1  0
 44 46  1  0
 46 47  1  0
 46 48  2  0
 48 49  1  0
 49 50  2  0
 49 51  2  0
 49 52  1  0
 52 53  2  0
 53 54  1  0
 54 55  1  0
 55 56  1  0
 55 57  1  0
 57 58  1  0
 58 59  1  0
 58 60  1  0
 58 61  1  0
 57 62  2  0
 62 63  1  0
 63 64  1  0
 63 65  1  0
 63 66  1  0
 38 67  1  0
 67 68  1  0
 67 69  2  0
 69 70  1  0
 29  5  1  0
 69 33  1  0
 48 39  1  0
 62 53  1  0
M  CHG  1   2  -1
M  END
>  <UniqueID>  (18) 
18

>  <SMILES>  (18) 
CCCc1nc(C(F)(F)CC)c(C([NH-])=O)n1Cc1ccc(-c2cc(F)ccc2S(=O)(=O)/N=c2/o[nH]c(C)c2C)cc1

>  <Energy>  (18) 
144.88705206054246

>  <Genealogy>  (18) 
CCCc1nc(C(F)(F)CC)c(C([NH-])=O)n1Cc1ccc(-c2cc(F)ccc2S(=O)(=O)N=c2o[nH]c(C)c2C)cc1 (protonated)
CCCc1nc(C(F)(F)CC)c(C([NH-])=O)n1Cc1ccc(-c2cc(F)ccc2S(=O)(=O)/N=c2/o[nH]c(C)c2C)cc1 (cis-trans isomerization)
CCCc1nc(C(F)(F)CC)c(C([NH-])=O)n1Cc1ccc(-c2cc(F)ccc2S(=O)(=O)/N=c2/o[nH]c(C)c2C)cc1 (3D coordinates assigned)
CCCc1nc(C(F)(F)CC)c(C([NH-])=O)n1Cc1ccc(-c2cc(F)ccc2S(=O)(=O)/N=c2/o[nH]c(C)c2C)cc1 (optimized conformer: 144.88705206054246 kcal/mol)

>  <smiles>  (18) 
CCCc1nc(C(F)(F)CC)c(C(N)=O)n1Cc1ccc(-c2cc(F)ccc2S(=O)(=O)N=c2o[nH]c(C)c2C)cc1

>  <score_type>  (18) 
oracle

>  <origin>  (18) 
adgpu

>  <m_score__min__energy>  (18) 
-13.06

>  <m_primary>  (18) 
energy

$$$$
18:0
     RDKit          3D

 32 34  0  0  0  0  0  0  0  0999 V2000
   -2.6950   21.5630  -29.5800 C   0  0  0  0  0  0  0  0  0  0  0  0
   -3.3770   22.7040  -30.1880 N   0  0  0  0  0  0  0  0  0  0  0  0
   -4.1230   22.7140  -31.3110 C   0  0  0  0  0  0  0  0  0  0  0  0
   -4.3840   21.3050  -32.3920 S   0  0  0  0  0  0  0  0  0  0  0  0
   -6.1490   21.6700  -32.7010 C   0  0  0  0  0  0  0  0  0  0  0  0
   -7.0130   20.4660  -32.4180 C   0  0  0  0  0  0  0  0  0  0  0  0
   -6.4840   19.1850  -32.6620 C   0  0  0  0  0  0  0  0  0  0  0  0
   -7.2550   18.0420  -32.4400 C   0  0  0  0  0  0  0  0  0  0  0  0
   -8.5640   18.1630  -31.9710 C   0  0  0  0  0  0  0  0  0  0  0  0
   -9.1040   19.4260  -31.7230 C   0  0  0  0  0  0  0  0  0  0  0  0
   -8.3410   20.5800  -31.9420 C   0  0  0  0  0  0  0  0  0  0  0  0
   -9.0940   22.1370  -31.6110 Cl  0  0  0  0  0  0  0  0  0  0  0  0
   -4.6640   23.9250  -31.5360 N   0  0  0  0  0  0  0  0  0  0  0  0
   -4.2500   24.7180  -30.5600 N   0  0  0  0  0  0  0  0  0  0  0  0
   -3.4610   23.9810  -29.7530 C   0  0  0  0  0  0  0  0  0  0  0  0
   -2.8040   24.5460  -28.5590 C   0  0  0  0  0  0  0  0  0  0  0  0
   -3.2380   24.4790  -27.2370 C   0  0  0  0  0  0  0  0  0  0  0  0
   -2.3480   25.0670  -26.3290 C   0  0  0  0  0  0  0  0  0  0  0  0
   -1.2060   25.5880  -26.9240 C   0  0  0  0  0  0  0  0  0  0  0  0
   -1.3040   25.3090  -28.5770 S   0  0  0  0  0  0  0  0  0  0  0  0
   -2.7452   21.6471  -28.4844 H   0  0  0  0  0  0  0  0  0  0  0  0
   -3.1842   20.6309  -29.8990 H   0  0  0  0  0  0  0  0  0  0  0  0
   -1.6423   21.5525  -29.8990 H   0  0  0  0  0  0  0  0  0  0  0  0
   -6.4635   22.4984  -32.0492 H   0  0  0  0  0  0  0  0  0  0  0  0
   -6.2680   21.9428  -33.7600 H   0  0  0  0  0  0  0  0  0  0  0  0
   -5.4529   19.0830  -33.0313 H   0  0  0  0  0  0  0  0  0  0  0  0
   -6.8306   17.0461  -32.6348 H   0  0  0  0  0  0  0  0  0  0  0  0
   -9.1707   17.2621  -31.7966 H   0  0  0  0  0  0  0  0  0  0  0  0
  -10.1360   19.5157  -31.3530 H   0  0  0  0  0  0  0  0  0  0  0  0
   -4.1865   24.0104  -26.9357 H   0  0  0  0  0  0  0  0  0  0  0  0
   -2.5359   25.1120  -25.2461 H   0  0  0  0  0  0  0  0  0  0  0  0
   -0.3807   26.0953  -26.4028 H   0  0  0  0  0  0  0  0  0  0  0  0
  1  2  1  0
  2  3  1  0
  3  4  1  0
  4  5  1  0
  5  6  1  0
  6  7  2  0
  7  8  1  0
  8  9  2  0
  9 10  1  0
 10 11  2  0
 11 12  1  0
  3 13  2  0
 13 14  1  0
 14 15  2  0
 15 16  1  0
 16 17  2  0
 17 18  1  0
 18 19  2  0
 19 20  1  0
 15  2  1  0
 20 16  1  0
 11  6  1  0
  1 21  1  0
  1 22  1  0
  1 23  1  0
  5 24  1  0
  5 25  1  0
  7 26  1  0
  8 27  1  0
  9 28  1  0
 10 29  1  0
 17 30  1  0
 18 31  1  0
 19 32  1  0
M  END
>  <UniqueID>  (19) 
19

>  <SMILES>  (19) 
Cn1c(SCc2ccccc2Cl)nnc1-c1cccs1

>  <Energy>  (19) 
92.59596959711062

>  <Genealogy>  (19) 
Cn1c(SCc2ccccc2Cl)nnc1-c1cccs1 (3D coordinates assigned)
Cn1c(SCc2ccccc2Cl)nnc1-c1cccs1 (optimized conformer: 92.59596959711062 kcal/mol)

>  <smiles>  (19) 
Cn1c(SCc2ccccc2Cl)nnc1-c1cccs1

>  <score_type>  (19) 
oracle

>  <origin>  (19) 
adgpu

>  <m_score__min__energy>  (19) 
-8.4800000000000004

>  <m_primary>  (19) 
energy

$$$$
19:0
     RDKit          3D

 39 40  0  0  0  0  0  0  0  0999 V2000
   -1.5620   26.2800  -25.3510 C   0  0  0  0  0  0  0  0  0  0  0  0
   -0.8870   26.7080  -26.6490 C   0  0  0  0  0  0  0  0  0  0  0  0
   -0.9260   25.5990  -27.6550 C   0  0  0  0  0  0  0  0  0  0  0  0
    0.1540   25.1620  -28.1370 O   0  0  0  0  0  0  0  0  0  0  0  0
   -2.1870   25.0960  -28.1220 N   0  0  0  0  0  0  0  0  0  0  0  0
   -2.3050   23.9810  -29.0200 C   0  0  0  0  0  0  0  0  0  0  0  0
   -1.5340   22.8330  -28.7780 C   0  0  0  0  0  0  0  0  0  0  0  0
   -1.6410   21.7200  -29.6150 C   0  0  0  0  0  0  0  0  0  0  0  0
   -2.5210   21.7430  -30.6980 C   0  0  0  0  0  0  0  0  0  0  0  0
   -3.2700   22.8900  -30.9670 C   0  0  0  0  0  0  0  0  0  0  0  0
   -3.1360   24.0340  -30.1610 C   0  0  0  0  0  0  0  0  0  0  0  0
   -3.8600   25.2360  -30.4630 N   0  0  0  0  0  0  0  0  0  0  0  0
   -5.2730   25.4430  -30.3400 C   0  0  0  0  0  0  0  0  0  0  0  0
   -5.6950   26.6020  -30.0900 O   0  0  0  0  0  0  0  0  0  0  0  0
   -6.2730   24.3560  -30.6240 C   0  0  0  0  0  0  0  0  0  0  0  0
   -6.0880   23.7440  -32.3330 S   0  0  0  0  0  0  0  0  0  0  0  0
   -7.2470   22.3850  -32.1370 C   0  0  0  0  0  0  0  0  0  0  0  0
   -6.8710   21.0840  -32.4950 C   0  0  0  0  0  0  0  0  0  0  0  0
   -7.7740   20.0270  -32.3390 C   0  0  0  0  0  0  0  0  0  0  0  0
   -9.0450   20.2660  -31.8090 C   0  0  0  0  0  0  0  0  0  0  0  0
   -9.4170   21.5620  -31.4380 C   0  0  0  0  0  0  0  0  0  0  0  0
   -8.5220   22.6220  -31.6080 C   0  0  0  0  0  0  0  0  0  0  0  0
   -0.9786   26.6499  -24.4950 H   0  0  0  0  0  0  0  0  0  0  0  0
   -2.5782   26.6991  -25.3107 H   0  0  0  0  0  0  0  0  0  0  0  0
   -1.6163   25.1821  -25.3107 H   0  0  0  0  0  0  0  0  0  0  0  0
   -1.4114   27.5846  -27.0570 H   0  0  0  0  0  0  0  0  0  0  0  0
    0.1632   26.9571  -26.4368 H   0  0  0  0  0  0  0  0  0  0  0  0
   -3.0390   25.6750  -27.9440 H   0  0  0  0  0  0  0  0  0  0  0  0
   -0.8413   22.8099  -27.9238 H   0  0  0  0  0  0  0  0  0  0  0  0
   -1.0316   20.8251  -29.4206 H   0  0  0  0  0  0  0  0  0  0  0  0
   -2.6246   20.8562  -31.3405 H   0  0  0  0  0  0  0  0  0  0  0  0
   -3.9699   22.8987  -31.8156 H   0  0  0  0  0  0  0  0  0  0  0  0
   -6.1117   23.5241  -29.9226 H   0  0  0  0  0  0  0  0  0  0  0  0
   -7.2865   24.7656  -30.5017 H   0  0  0  0  0  0  0  0  0  0  0  0
   -5.8657   20.8935  -32.8988 H   0  0  0  0  0  0  0  0  0  0  0  0
   -7.4837   19.0077  -32.6335 H   0  0  0  0  0  0  0  0  0  0  0  0
   -9.7534   19.4339  -31.6836 H   0  0  0  0  0  0  0  0  0  0  0  0
  -10.4142   21.7472  -31.0123 H   0  0  0  0  0  0  0  0  0  0  0  0
   -8.8191   23.6429  -31.3262 H   0  0  0  0  0  0  0  0  0  0  0  0
  1  2  1  0
  2  3  1  0
  3  4  2  0
  3  5  1  0
  5  6  1  0
  6  7  2  0
  7  8  1  0
  8  9  2  0
  9 10  1  0
 10 11  2  0
 11 12  1  0
 12 13  1  0
 13 14  2  0
 13 15  1  0
 15 16  1  0
 16 17  1  0
 17 18  2  0
 18 19  1  0
 19 20  2  0
 20 21  1  0
 21 22  2  0
 11  6  1  0
 22 17  1  0
  1 23  1  0
  1 24  1  0
  1 25  1  0
  2 26  1  0
  2 27  1  0
  5 28  1  0
  7 29  1  0
  8 30  1  0
  9 31  1  0
 10 32  1  0
 15 33  1  0
 15 34  1  0
 18 35  1  0
 19 36  1  0
 20 37  1  0
 21 38  1  0
 22 39  1  0
M  CHG  1  12  -1
M  END
>  <UniqueID>  (20) 
20

>  <SMILES>  (20) 
CCC(=O)Nc1ccccc1[N-]C(=O)CSc1ccccc1

>  <Energy>  (20) 
37.07815514813009

>  <Genealogy>  (20) 
CCC(=O)Nc1ccccc1[N-]C(=O)CSc1ccccc1 (protonated)
CCC(=O)Nc1ccccc1[N-]C(=O)CSc1ccccc1 (3D coordinates assigned)
CCC(=O)Nc1ccccc1[N-]C(=O)CSc1ccccc1 (optimized conformer: 37.07815514813009 kcal/mol)

>  <smiles>  (20) 
CCC(=O)Nc1ccccc1NC(=O)CSc1ccccc1

>  <score_type>  (20) 
oracle

>  <origin>  (20) 
adgpu

>  <m_score__min__energy>  (20) 
-10.24

>  <m_primary>  (20) 
energy

$$$$
20:0
     RDKit          3D

 42 44  0  0  0  0  0  0  0  0999 V2000
   -4.0940   25.2600  -25.9890 C   0  0  0  0  0  0  0  0  0  0  0  0
   -2.8700   24.9050  -26.7850 C   0  0  0  0  0  0  0  0  0  0  0  0
   -1.6060   25.0480  -26.1880 C   0  0  0  0  0  0  0  0  0  0  0  0
   -0.4430   24.7950  -26.9190 C   0  0  0  0  0  0  0  0  0  0  0  0
   -0.5290   24.4010  -28.2540 C   0  0  0  0  0  0  0  0  0  0  0  0
    0.6010   24.1710  -28.9670 F   0  0  0  0  0  0  0  0  0  0  0  0
   -1.7790   24.2360  -28.8540 C   0  0  0  0  0  0  0  0  0  0  0  0
   -2.9550   24.4470  -28.1210 C   0  0  0  0  0  0  0  0  0  0  0  0
   -4.2110   24.2210  -28.7800 N   0  0  0  0  0  0  0  0  0  0  0  0
   -4.5150   24.4290  -30.1700 C   0  0  0  0  0  0  0  0  0  0  0  0
   -3.8530   25.3020  -30.7920 O   0  0  0  0  0  0  0  0  0  0  0  0
   -5.5130   23.6060  -30.9120 C   0  0  0  0  0  0  0  0  0  0  0  0
   -6.7520   24.1820  -31.2560 C   0  0  0  0  0  0  0  0  0  0  0  0
   -7.7360   23.4350  -31.9040 C   0  0  0  0  0  0  0  0  0  0  0  0
   -7.5160   22.0930  -32.1950 C   0  0  0  0  0  0  0  0  0  0  0  0
   -6.3150   21.4880  -31.8310 C   0  0  0  0  0  0  0  0  0  0  0  0
   -5.3020   22.2260  -31.1930 C   0  0  0  0  0  0  0  0  0  0  0  0
   -4.0660   21.5010  -30.8190 C   0  0  0  0  0  0  0  0  0  0  0  0
   -3.4790   20.8090  -31.6950 O   0  0  0  0  0  0  0  0  0  0  0  0
   -3.5330   21.5900  -29.4870 N   0  0  0  0  0  0  0  0  0  0  0  0
   -2.3080   20.9720  -29.0650 C   0  0  0  0  0  0  0  0  0  0  0  0
   -1.1790   21.0470  -29.8960 C   0  0  0  0  0  0  0  0  0  0  0  0
    0.0200   20.4340  -29.5200 C   0  0  0  0  0  0  0  0  0  0  0  0
    0.0980   19.7260  -28.3170 C   0  0  0  0  0  0  0  0  0  0  0  0
    1.6010   18.9540  -27.8490 Cl  0  0  0  0  0  0  0  0  0  0  0  0
   -1.0270   19.6250  -27.4940 C   0  0  0  0  0  0  0  0  0  0  0  0
   -2.2280   20.2380  -27.8680 C   0  0  0  0  0  0  0  0  0  0  0  0
   -3.8650   25.1936  -24.9151 H   0  0  0  0  0  0  0  0  0  0  0  0
   -4.4063   26.2857  -26.2346 H   0  0  0  0  0  0  0  0  0  0  0  0
   -4.9067   24.5605  -26.2346 H   0  0  0  0  0  0  0  0  0  0  0  0
   -1.5318   25.3618  -25.1363 H   0  0  0  0  0  0  0  0  0  0  0  0
    0.5415   24.9066  -26.4413 H   0  0  0  0  0  0  0  0  0  0  0  0
   -1.8414   23.9379  -29.9110 H   0  0  0  0  0  0  0  0  0  0  0  0
   -6.9463   25.2364  -31.0100 H   0  0  0  0  0  0  0  0  0  0  0  0
   -8.6881   23.9086  -32.1854 H   0  0  0  0  0  0  0  0  0  0  0  0
   -8.2908   21.5088  -32.7130 H   0  0  0  0  0  0  0  0  0  0  0  0
   -6.1572   20.4206  -32.0451 H   0  0  0  0  0  0  0  0  0  0  0  0
   -4.1070   22.0620  -28.7560 H   0  0  0  0  0  0  0  0  0  0  0  0
   -1.2381   21.5919  -30.8497 H   0  0  0  0  0  0  0  0  0  0  0  0
    0.9031   20.5089  -30.1715 H   0  0  0  0  0  0  0  0  0  0  0  0
   -0.9683   19.0626  -26.5505 H   0  0  0  0  0  0  0  0  0  0  0  0
   -3.1139   20.1453  -27.2226 H   0  0  0  0  0  0  0  0  0  0  0  0
  1  2  1  0
  2  3  2  0
  3  4  1  0
  4  5  2  0
  5  6  1  0
  5  7  1  0
  7  8  2  0
  8  9  1  0
  9 10  1  0
 10 11  2  0
 10 12  1  0
 12 13  2  0
 13 14  1  0
 14 15  2  0
 15 16  1  0
 16 17  2  0
 17 18  1  0
 18 19  2  0
 18 20  1  0
 20 21  1  0
 21 22  2  0
 22 23  1  0
 23 24  2  0
 24 25  1  0
 24 26  1  0
 26 27  2  0
  8  2  1  0
 17 12  1  0
 27 21  1  0
  1 28  1  0
  1 29  1  0
  1 30  1  0
  3 31  1  0
  4 32  1  0
  7 33  1  0
 13 34  1  0
 14 35  1  0
 15 36  1  0
 16 37  1  0
 20 38  1  0
 22 39  1  0
 23 40  1  0
 26 41  1  0
 27 42  1  0
M  CHG  1   9  -1
M  END
>  <UniqueID>  (21) 
21

>  <SMILES>  (21) 
Cc1ccc(F)cc1[N-]C(=O)c1ccccc1C(=O)Nc1ccc(Cl)cc1

>  <Energy>  (21) 
66.14171062373663

>  <Genealogy>  (21) 
Cc1ccc(F)cc1[N-]C(=O)c1ccccc1C(=O)Nc1ccc(Cl)cc1 (protonated)
Cc1ccc(F)cc1[N-]C(=O)c1ccccc1C(=O)Nc1ccc(Cl)cc1 (3D coordinates assigned)
Cc1ccc(F)cc1[N-]C(=O)c1ccccc1C(=O)Nc1ccc(Cl)cc1 (optimized conformer: 66.14171062373663 kcal/mol)

>  <smiles>  (21) 
Cc1ccc(F)cc1NC(=O)c1ccccc1C(=O)Nc1ccc(Cl)cc1

>  <score_type>  (21) 
oracle

>  <origin>  (21) 
adgpu

>  <m_score__min__energy>  (21) 
-9.1699999999999999

>  <m_primary>  (21) 
energy

$$$$
21:0
     RDKit          3D

 41 43  0  0  0  0  0  0  0  0999 V2000
   -2.0506   21.6786  -27.5613 H   0  0  0  0  0  0  0  0  0  0  0  0
   -2.1390   22.7310  -27.8690 C   0  0  0  0  0  0  0  0  0  0  0  0
   -2.4930   22.9810  -29.0970 N   0  0  0  0  0  0  0  0  0  0  0  0
   -2.8150   24.2580  -29.6710 C   0  0  0  0  0  0  0  0  0  0  0  0
   -2.1830   25.2930  -29.3290 O   0  0  0  0  0  0  0  0  0  0  0  0
   -3.9400   24.3950  -30.5470 N   0  0  0  0  0  0  0  0  0  0  0  0
   -4.8810   23.3640  -30.8780 C   0  0  0  0  0  0  0  0  0  0  0  0
   -6.2020   23.4870  -30.4300 C   0  0  0  0  0  0  0  0  0  0  0  0
   -6.4948   24.3575  -29.8246 H   0  0  0  0  0  0  0  0  0  0  0  0
   -7.1510   22.5110  -30.7470 C   0  0  0  0  0  0  0  0  0  0  0  0
   -8.1835   22.6109  -30.3810 H   0  0  0  0  0  0  0  0  0  0  0  0
   -6.7910   21.4050  -31.5300 C   0  0  0  0  0  0  0  0  0  0  0  0
   -7.9730   20.1660  -31.9370 S   0  0  0  0  0  0  0  0  0  0  0  0
   -9.1070   20.1950  -30.9500 O   0  0  0  0  0  0  0  0  0  0  0  0
   -8.4980   20.4240  -33.3220 O   0  0  0  0  0  0  0  0  0  0  0  0
   -7.1980   18.6150  -31.8730 N   0  0  0  0  0  0  0  0  0  0  0  0
   -6.5870   18.0530  -32.8720 C   0  0  0  0  0  0  0  0  0  0  0  0
   -5.8520   16.5460  -32.7790 S   0  0  0  0  0  0  0  0  0  0  0  0
   -5.3550   16.5760  -34.3890 C   0  0  0  0  0  0  0  0  0  0  0  0
   -4.7913   15.7847  -34.9050 H   0  0  0  0  0  0  0  0  0  0  0  0
   -5.7810   17.7750  -34.9530 C   0  0  0  0  0  0  0  0  0  0  0  0
   -5.5798   18.0416  -36.0011 H   0  0  0  0  0  0  0  0  0  0  0  0
   -6.4650   18.5910  -34.1080 N   0  0  0  0  0  0  0  0  0  0  0  0
   -6.8400   19.5190  -34.4040 H   0  0  0  0  0  0  0  0  0  0  0  0
   -5.4800   21.2960  -32.0080 C   0  0  0  0  0  0  0  0  0  0  0  0
   -5.1957   20.4379  -32.6348 H   0  0  0  0  0  0  0  0  0  0  0  0
   -4.5300   22.2720  -31.6930 C   0  0  0  0  0  0  0  0  0  0  0  0
   -3.5052   22.1861  -32.0834 H   0  0  0  0  0  0  0  0  0  0  0  0
   -1.8480   23.7770  -26.8610 C   0  0  0  0  0  0  0  0  0  0  0  0
   -0.6360   23.7300  -26.1480 C   0  0  0  0  0  0  0  0  0  0  0  0
    0.1011   22.9457  -26.3751 H   0  0  0  0  0  0  0  0  0  0  0  0
   -0.3620   24.6720  -25.1540 C   0  0  0  0  0  0  0  0  0  0  0  0
    0.5957   24.6379  -24.6140 H   0  0  0  0  0  0  0  0  0  0  0  0
   -1.3010   25.6560  -24.8450 C   0  0  0  0  0  0  0  0  0  0  0  0
   -1.0815   26.3995  -24.0645 H   0  0  0  0  0  0  0  0  0  0  0  0
   -2.5200   25.6980  -25.5260 C   0  0  0  0  0  0  0  0  0  0  0  0
   -3.2610   26.4700  -25.2711 H   0  0  0  0  0  0  0  0  0  0  0  0
   -2.8070   24.7630  -26.5330 C   0  0  0  0  0  0  0  0  0  0  0  0
   -4.0630   24.8430  -27.2210 N   0  0  0  0  0  0  0  0  0  0  0  0
   -4.9740   24.7120  -26.7280 H   0  0  0  0  0  0  0  0  0  0  0  0
   -4.0940   25.0150  -28.2500 H   0  0  0  0  0  0  0  0  0  0  0  0
  1  2  1  0
  2  3  2  0
  3  4  1  0
  4  5  2  0
  4  6  1  0
  6  7  1  0
  7  8  2  0
  8  9  1  0
  8 10  1  0
 10 11  1  0
 10 12  2  0
 12 13  1  0
 13 14  2  0
 13 15  2  0
 13 16  1  0
 16 17  2  3
 17 18  1  0
 18 19  1  0
 19 20  1  0
 19 21  2  0
 21 22  1  0
 21 23  1  0
 23 24  1  0
 12 25  1  0
 25 26  1  0
 25 27  2  0
 27 28  1  0
  2 29  1  0
 29 30  2  0
 30 31  1  0
 30 32  1  0
 32 33  1  0
 32 34  2  0
 34 35  1  0
 34 36  1  0
 36 37  1  0
 36 38  2  0
 38 39  1  0
 39 40  1  0
 39 41  1  0
 27  7  1  0
 38 29  1  0
 23 17  1  0
M  CHG  1   6  -1
M  END
>  <UniqueID>  (22) 
22

>  <SMILES>  (22) 
Nc1ccccc1/C=N\C(=O)[N-]c1ccc(S(=O)(=O)N=c2[nH]ccs2)cc1

>  <Energy>  (22) 
91.13972246403027

>  <Genealogy>  (22) 
Nc1ccccc1C=NC(=O)[N-]c1ccc(S(=O)(=O)N=c2[nH]ccs2)cc1 (protonated)
Nc1ccccc1/C=N\C(=O)[N-]c1ccc(S(=O)(=O)N=c2[nH]ccs2)cc1 (cis-trans isomerization)
Nc1ccccc1/C=N\C(=O)[N-]c1ccc(S(=O)(=O)N=c2[nH]ccs2)cc1 (3D coordinates assigned)
Nc1ccccc1/C=N\C(=O)[N-]c1ccc(S(=O)(=O)N=c2[nH]ccs2)cc1 (optimized conformer: 91.13972246403027 kcal/mol)

>  <smiles>  (22) 
Nc1ccccc1C=NC(=O)Nc1ccc(S(=O)(=O)N=c2[nH]ccs2)cc1

>  <score_type>  (22) 
oracle

>  <origin>  (22) 
adgpu

>  <m_score__min__energy>  (22) 
-10.67

>  <m_primary>  (22) 
energy

$$$$
22:0
     RDKit          3D

 54 56  0  0  0  0  0  0  0  0999 V2000
   -4.6200   25.1460  -30.0640 C   0  0  0  0  0  0  0  0  0  0  0  0
   -3.2350   25.2480  -29.7530 O   0  0  0  0  0  0  0  0  0  0  0  0
   -2.5720   24.4620  -28.7950 C   0  0  0  0  0  0  0  0  0  0  0  0
   -2.3650   24.9170  -27.4770 C   0  0  0  0  0  0  0  0  0  0  0  0
   -1.6930   24.1160  -26.5510 C   0  0  0  0  0  0  0  0  0  0  0  0
   -1.2190   22.8580  -26.9260 C   0  0  0  0  0  0  0  0  0  0  0  0
   -1.4180   22.3960  -28.2280 C   0  0  0  0  0  0  0  0  0  0  0  0
   -2.0980   23.1870  -29.1680 C   0  0  0  0  0  0  0  0  0  0  0  0
   -2.2730   22.6900  -30.5810 C   0  0  0  0  0  0  0  0  0  0  0  0
   -3.5760   22.0460  -30.7300 N   0  0  0  0  0  0  0  0  0  0  0  0
   -4.3630   22.1730  -31.9230 C   0  0  0  0  0  0  0  0  0  0  0  0
   -3.8470   22.6440  -32.9720 O   0  0  0  0  0  0  0  0  0  0  0  0
   -5.7650   21.7050  -31.9520 C   0  0  0  0  0  0  0  0  0  0  0  0
   -6.0080   20.3240  -32.0210 C   0  0  0  0  0  0  0  0  0  0  0  0
   -7.3150   19.8250  -32.0240 C   0  0  0  0  0  0  0  0  0  0  0  0
   -7.5920   18.0880  -32.0980 S   0  0  0  0  0  0  0  0  0  0  0  0
   -6.8470   17.4350  -30.9670 O   0  0  0  0  0  0  0  0  0  0  0  0
   -9.0620   17.7980  -31.9530 O   0  0  0  0  0  0  0  0  0  0  0  0
   -7.0250   17.4620  -33.6270 N   0  0  0  0  0  0  0  0  0  0  0  0
   -6.4680   16.0930  -33.4720 C   0  0  0  0  0  0  0  0  0  0  0  0
   -4.9330   16.0620  -33.4800 C   0  0  0  0  0  0  0  0  0  0  0  0
   -4.3720   16.6630  -34.7800 C   0  0  0  0  0  0  0  0  0  0  0  0
   -5.2630   17.7780  -35.3550 C   0  0  0  0  0  0  0  0  0  0  0  0
   -6.1030   18.4340  -34.2550 C   0  0  0  0  0  0  0  0  0  0  0  0
   -8.3930   20.7120  -31.9520 C   0  0  0  0  0  0  0  0  0  0  0  0
   -8.1700   22.0880  -31.9050 C   0  0  0  0  0  0  0  0  0  0  0  0
   -6.8630   22.6030  -31.9300 C   0  0  0  0  0  0  0  0  0  0  0  0
   -6.6760   24.0990  -31.9320 C   0  0  0  0  0  0  0  0  0  0  0  0
   -5.2029   25.1031  -29.1321 H   0  0  0  0  0  0  0  0  0  0  0  0
   -4.9298   26.0238  -30.6501 H   0  0  0  0  0  0  0  0  0  0  0  0
   -4.7979   24.2323  -30.6501 H   0  0  0  0  0  0  0  0  0  0  0  0
   -2.7348   25.9083  -27.1762 H   0  0  0  0  0  0  0  0  0  0  0  0
   -1.5370   24.4774  -25.5239 H   0  0  0  0  0  0  0  0  0  0  0  0
   -0.6883   22.2302  -26.1951 H   0  0  0  0  0  0  0  0  0  0  0  0
   -1.0395   21.4053  -28.5198 H   0  0  0  0  0  0  0  0  0  0  0  0
   -2.2057   23.5397  -31.2763 H   0  0  0  0  0  0  0  0  0  0  0  0
   -1.4826   21.9586  -30.8054 H   0  0  0  0  0  0  0  0  0  0  0  0
   -3.9300   21.4540  -29.9450 H   0  0  0  0  0  0  0  0  0  0  0  0
   -5.1599   19.6254  -32.0734 H   0  0  0  0  0  0  0  0  0  0  0  0
   -6.8214   15.6775  -32.5168 H   0  0  0  0  0  0  0  0  0  0  0  0
   -6.8122   15.4999  -34.3321 H   0  0  0  0  0  0  0  0  0  0  0  0
   -4.5578   16.6431  -32.6247 H   0  0  0  0  0  0  0  0  0  0  0  0
   -4.6051   15.0143  -33.4104 H   0  0  0  0  0  0  0  0  0  0  0  0
   -3.3759   17.0810  -34.5726 H   0  0  0  0  0  0  0  0  0  0  0  0
   -4.3288   15.8559  -35.5261 H   0  0  0  0  0  0  0  0  0  0  0  0
   -4.6252   18.5418  -35.8239 H   0  0  0  0  0  0  0  0  0  0  0  0
   -5.9433   17.3344  -36.0968 H   0  0  0  0  0  0  0  0  0  0  0  0
   -5.4303   18.8385  -33.4844 H   0  0  0  0  0  0  0  0  0  0  0  0
   -6.7030   19.2360  -34.7097 H   0  0  0  0  0  0  0  0  0  0  0  0
   -9.4217   20.3230  -31.9323 H   0  0  0  0  0  0  0  0  0  0  0  0
   -9.0258   22.7768  -31.8478 H   0  0  0  0  0  0  0  0  0  0  0  0
   -6.6304   24.4642  -30.8954 H   0  0  0  0  0  0  0  0  0  0  0  0
   -5.7394   24.3508  -32.4510 H   0  0  0  0  0  0  0  0  0  0  0  0
   -7.5218   24.5736  -32.4510 H   0  0  0  0  0  0  0  0  0  0  0  0
  1  2  1  0
  2  3  1  0
  3  4  2  0
  4  5  1  0
  5  6  2  0
  6  7  1  0
  7  8  2  0
  8  9  1  0
  9 10  1  0
 10 11  1  0
 11 12  2  0
 11 13  1  0
 13 14  2  0
 14 15  1  0
 15 16  1  0
 16 17  2  0
 16 18  2  0
 16 19  1  0
 19 20  1  0
 20 21  1  0
 21 22  1  0
 22 23  1  0
 23 24  1  0
 15 25  2  0
 25 26  1  0
 26 27  2  0
 27 28  1  0
  8  3  1  0
 27 13  1  0
 24 19  1  0
  1 29  1  0
  1 30  1  0
  1 31  1  0
  4 32  1  0
  5 33  1  0
  6 34  1  0
  7 35  1  0
  9 36  1  0
  9 37  1  0
 10 38  1  0
 14 39  1  0
 20 40  1  0
 20 41  1  0
 21 42  1  0
 21 43  1  0
 22 44  1  0
 22 45  1  0
 23 46  1  0
 23 47  1  0
 24 48  1  0
 24 49  1  0
 25 50  1  0
 26 51  1  0
 28 52  1  0
 28 53  1  0
 28 54  1  0
M  END
>  <UniqueID>  (23) 
23

>  <SMILES>  (23) 
COc1ccccc1CNC(=O)c1cc(S(=O)(=O)N2CCCCC2)ccc1C

>  <Energy>  (23) 
61.20359742025299

>  <Genealogy>  (23) 
COc1ccccc1CNC(=O)c1cc(S(=O)(=O)N2CCCCC2)ccc1C (3D coordinates assigned)
COc1ccccc1CNC(=O)c1cc(S(=O)(=O)N2CCCCC2)ccc1C (nonaromatic ring conformer: 61.20359742025299 kcal/mol)

>  <smiles>  (23) 
COc1ccccc1CNC(=O)c1cc(S(=O)(=O)N2CCCCC2)ccc1C

>  <score_type>  (23) 
oracle

>  <origin>  (23) 
adgpu

>  <m_score__min__energy>  (23) 
-10.02

>  <m_primary>  (23) 
energy

$$$$
23:0
     RDKit          3D

 66 70  0  0  0  0  0  0  0  0999 V2000
    1.8710   20.7060  -34.1370 N   0  0  0  0  0  0  0  0  0  0  0  0
    0.7570   19.8120  -34.0340 C   0  0  0  0  0  0  0  0  0  0  0  0
    0.2130   19.2610  -35.2020 C   0  0  0  0  0  0  0  0  0  0  0  0
   -0.8220   18.3270  -35.1340 C   0  0  0  0  0  0  0  0  0  0  0  0
   -1.3440   17.9420  -33.8930 C   0  0  0  0  0  0  0  0  0  0  0  0
   -2.6860   16.7930  -33.8050 S   0  0  0  0  0  0  0  0  0  0  0  0
   -2.7410   16.0200  -35.0970 O   0  0  0  0  0  0  0  0  0  0  0  0
   -2.4220   15.8170  -32.6910 O   0  0  0  0  0  0  0  0  0  0  0  0
   -4.2240   17.5830  -33.5010 N   0  0  0  0  0  0  0  0  0  0  0  0
   -4.0640   18.8060  -32.6710 C   0  0  0  0  0  0  0  0  0  0  0  0
   -4.3820   20.0850  -33.4630 C   0  0  0  0  0  0  0  0  0  0  0  0
   -5.7100   20.0750  -33.9600 O   0  0  0  0  0  0  0  0  0  0  0  0
   -6.0840   18.8450  -34.5760 C   0  0  0  0  0  0  0  0  0  0  0  0
   -4.9370   17.8320  -34.7720 C   0  0  0  0  0  0  0  0  0  0  0  0
   -0.7970   18.4820  -32.7180 C   0  0  0  0  0  0  0  0  0  0  0  0
    0.2360   19.4230  -32.7790 C   0  0  0  0  0  0  0  0  0  0  0  0
    0.7640   19.9410  -31.5510 N   0  0  0  0  0  0  0  0  0  0  0  0
   -0.0140   20.1080  -30.3580 C   0  0  0  0  0  0  0  0  0  0  0  0
    0.2810   19.4260  -29.3390 O   0  0  0  0  0  0  0  0  0  0  0  0
   -1.1680   21.0320  -30.3130 C   0  0  0  0  0  0  0  0  0  0  0  0
   -1.7090   21.5570  -31.5000 C   0  0  0  0  0  0  0  0  0  0  0  0
   -2.8300   22.3890  -31.4590 C   0  0  0  0  0  0  0  0  0  0  0  0
   -3.4190   22.7210  -30.2320 C   0  0  0  0  0  0  0  0  0  0  0  0
   -4.8130   23.8090  -30.1810 S   0  0  0  0  0  0  0  0  0  0  0  0
   -4.6350   24.8960  -31.2030 O   0  0  0  0  0  0  0  0  0  0  0  0
   -4.8750   24.4530  -28.8250 O   0  0  0  0  0  0  0  0  0  0  0  0
   -6.3090   22.9670  -30.5270 N   0  0  0  0  0  0  0  0  0  0  0  0
   -7.0380   23.6570  -31.6040 C   0  0  0  0  0  0  0  0  0  0  0  0
   -8.4390   23.0650  -31.7330 C   0  0  0  0  0  0  0  0  0  0  0  0
   -8.3850   21.5680  -31.8570 C   0  0  0  0  0  0  0  0  0  0  0  0
   -9.4930   20.8740  -32.3660 C   0  0  0  0  0  0  0  0  0  0  0  0
   -9.4760   19.4800  -32.4500 C   0  0  0  0  0  0  0  0  0  0  0  0
   -8.3540   18.7680  -32.0240 C   0  0  0  0  0  0  0  0  0  0  0  0
   -7.2470   19.4460  -31.5080 C   0  0  0  0  0  0  0  0  0  0  0  0
   -7.2620   20.8470  -31.3970 C   0  0  0  0  0  0  0  0  0  0  0  0
   -6.0310   21.5640  -30.8890 C   0  0  0  0  0  0  0  0  0  0  0  0
   -2.8830   22.1980  -29.0470 C   0  0  0  0  0  0  0  0  0  0  0  0
   -1.7740   21.3490  -29.0880 C   0  0  0  0  0  0  0  0  0  0  0  0
    2.1330   21.1580  -35.0400 H   0  0  0  0  0  0  0  0  0  0  0  0
    2.3920   21.0010  -33.2800 H   0  0  0  0  0  0  0  0  0  0  0  0
    0.6057   19.5678  -36.1826 H   0  0  0  0  0  0  0  0  0  0  0  0
   -1.2291   17.8918  -36.0586 H   0  0  0  0  0  0  0  0  0  0  0  0
   -4.7980   16.8970  -32.9540 H   0  0  0  0  0  0  0  0  0  0  0  0
   -4.7457   18.7426  -31.8100 H   0  0  0  0  0  0  0  0  0  0  0  0
   -3.0150   18.8604  -32.3446 H   0  0  0  0  0  0  0  0  0  0  0  0
   -4.2548   20.9550  -32.8020 H   0  0  0  0  0  0  0  0  0  0  0  0
   -3.6945   20.1387  -34.3200 H   0  0  0  0  0  0  0  0  0  0  0  0
   -6.8533   18.3707  -33.9489 H   0  0  0  0  0  0  0  0  0  0  0  0
   -6.4373   19.1044  -35.5849 H   0  0  0  0  0  0  0  0  0  0  0  0
   -5.3544   16.8837  -35.1416 H   0  0  0  0  0  0  0  0  0  0  0  0
   -4.2228   18.2488  -35.4974 H   0  0  0  0  0  0  0  0  0  0  0  0
   -1.1848   18.1618  -31.7397 H   0  0  0  0  0  0  0  0  0  0  0  0
   -1.2463   21.3108  -32.4671 H   0  0  0  0  0  0  0  0  0  0  0  0
   -3.2523   22.7853  -32.3942 H   0  0  0  0  0  0  0  0  0  0  0  0
   -7.1135   24.7286  -31.3672 H   0  0  0  0  0  0  0  0  0  0  0  0
   -6.4973   23.5275  -32.5531 H   0  0  0  0  0  0  0  0  0  0  0  0
   -9.0247   23.3306  -30.8406 H   0  0  0  0  0  0  0  0  0  0  0  0
   -8.9087   23.4738  -32.6398 H   0  0  0  0  0  0  0  0  0  0  0  0
  -10.3804   21.4311  -32.7009 H   0  0  0  0  0  0  0  0  0  0  0  0
  -10.3477   18.9430  -32.8522 H   0  0  0  0  0  0  0  0  0  0  0  0
   -8.3412   17.6703  -32.0947 H   0  0  0  0  0  0  0  0  0  0  0  0
   -6.3595   18.8808  -31.1871 H   0  0  0  0  0  0  0  0  0  0  0  0
   -5.6566   21.0367  -29.9992 H   0  0  0  0  0  0  0  0  0  0  0  0
   -5.2856   21.5668  -31.6979 H   0  0  0  0  0  0  0  0  0  0  0  0
   -3.3379   22.4574  -28.0796 H   0  0  0  0  0  0  0  0  0  0  0  0
   -1.3738   20.9267  -28.1545 H   0  0  0  0  0  0  0  0  0  0  0  0
  1  2  1  0
  2  3  2  0
  3  4  1  0
  4  5  2  0
  5  6  1  0
  6  7  2  0
  6  8  2  0
  6  9  1  0
  9 10  1  0
 10 11  1  0
 11 12  1  0
 12 13  1  0
 13 14  1  0
  5 15  1  0
 15 16  2  0
 16 17  1  0
 17 18  1  0
 18 19  2  0
 18 20  1  0
 20 21  2  0
 21 22  1  0
 22 23  2  0
 23 24  1  0
 24 25  2  0
 24 26  2  0
 24 27  1  0
 27 28  1  0
 28 29  1  0
 29 30  1  0
 30 31  2  0
 31 32  1  0
 32 33  2  0
 33 34  1  0
 34 35  2  0
 35 36  1  0
 23 37  1  0
 37 38  2  0
 16  2  1  0
 38 20  1  0
 14  9  1  0
 36 27  1  0
 35 30  1  0
  1 39  1  0
  1 40  1  0
  3 41  1  0
  4 42  1  0
  9 43  1  0
 10 44  1  0
 10 45  1  0
 11 46  1  0
 11 47  1  0
 13 48  1  0
 13 49  1  0
 14 50  1  0
 14 51  1  0
 15 52  1  0
 21 53  1  0
 22 54  1  0
 28 55  1  0
 28 56  1  0
 29 57  1  0
 29 58  1  0
 31 59  1  0
 32 60  1  0
 33 61  1  0
 34 62  1  0
 36 63  1  0
 36 64  1  0
 37 65  1  0
 38 66  1  0
M  CHG  2   9   1  17  -1
M  END
>  <UniqueID>  (24) 
24

>  <SMILES>  (24) 
Nc1ccc(S(=O)(=O)[NH+]2CCOCC2)cc1[N-]C(=O)c1ccc(S(=O)(=O)N2CCc3ccccc3C2)cc1

>  <Energy>  (24) 
92.40990420069747

>  <Genealogy>  (24) 
Nc1ccc(S(=O)(=O)[NH+]2CCOCC2)cc1[N-]C(=O)c1ccc(S(=O)(=O)N2CCc3ccccc3C2)cc1 (protonated)
Nc1ccc(S(=O)(=O)[NH+]2CCOCC2)cc1[N-]C(=O)c1ccc(S(=O)(=O)N2CCc3ccccc3C2)cc1 (3D coordinates assigned)
Nc1ccc(S(=O)(=O)[NH+]2CCOCC2)cc1[N-]C(=O)c1ccc(S(=O)(=O)N2CCc3ccccc3C2)cc1 (nonaromatic ring conformer: 92.40990420069747 kcal/mol)

>  <smiles>  (24) 
Nc1ccc(S(=O)(=O)N2CCOCC2)cc1NC(=O)c1ccc(S(=O)(=O)N2CCc3ccccc3C2)cc1

>  <score_type>  (24) 
oracle

>  <origin>  (24) 
adgpu

>  <m_score__min__energy>  (24) 
-12.83

>  <m_primary>  (24) 
energy

$$$$
24:0
     RDKit          3D

 45 47  0  0  0  0  0  0  0  0999 V2000
   -9.4910   19.9040  -32.5960 C   0  0  0  0  0  0  0  0  0  0  0  0
   -9.0310   21.2240  -32.3310 O   0  0  0  0  0  0  0  0  0  0  0  0
   -7.7530   21.5380  -31.8400 C   0  0  0  0  0  0  0  0  0  0  0  0
   -7.5670   22.2330  -30.6330 C   0  0  0  0  0  0  0  0  0  0  0  0
   -6.2810   22.5320  -30.1790 C   0  0  0  0  0  0  0  0  0  0  0  0
   -5.1560   22.1520  -30.9250 C   0  0  0  0  0  0  0  0  0  0  0  0
   -3.8010   22.4810  -30.4210 C   0  0  0  0  0  0  0  0  0  0  0  0
   -2.9110   21.5500  -30.0240 N   0  0  0  0  0  0  0  0  0  0  0  0
   -1.8110   22.1680  -29.6150 N   0  0  0  0  0  0  0  0  0  0  0  0
   -0.6440   21.4710  -29.1310 C   0  0  0  0  0  0  0  0  0  0  0  0
    0.0400   21.8990  -27.9770 C   0  0  0  0  0  0  0  0  0  0  0  0
    1.1670   21.2090  -27.5210 C   0  0  0  0  0  0  0  0  0  0  0  0
    1.6380   20.0770  -28.2050 C   0  0  0  0  0  0  0  0  0  0  0  0
    2.7990   19.3710  -27.7310 N   0  0  0  0  0  0  0  0  0  0  0  0
    3.9370   19.8750  -27.8350 O   0  0  0  0  0  0  0  0  0  0  0  0
    2.6750   18.1280  -27.1530 O   0  0  0  0  0  0  0  0  0  0  0  0
    0.9530   19.6450  -29.3540 C   0  0  0  0  0  0  0  0  0  0  0  0
   -0.1750   20.3330  -29.8090 C   0  0  0  0  0  0  0  0  0  0  0  0
   -1.9730   23.5050  -29.7350 C   0  0  0  0  0  0  0  0  0  0  0  0
   -3.2370   23.7350  -30.2420 C   0  0  0  0  0  0  0  0  0  0  0  0
   -3.8810   24.9940  -30.4810 N   0  0  0  0  0  0  0  0  0  0  0  0
   -5.2670   25.2180  -30.7610 C   0  0  0  0  0  0  0  0  0  0  0  0
   -6.1230   25.8700  -29.7280 C   0  0  0  0  0  0  0  0  0  0  0  0
   -5.7590   24.9300  -31.8840 O   0  0  0  0  0  0  0  0  0  0  0  0
   -5.3400   21.4390  -32.1220 C   0  0  0  0  0  0  0  0  0  0  0  0
   -6.6350   21.1370  -32.5880 C   0  0  0  0  0  0  0  0  0  0  0  0
   -6.8510   20.4380  -33.7870 O   0  0  0  0  0  0  0  0  0  0  0  0
   -6.1170   19.2890  -34.1950 C   0  0  0  0  0  0  0  0  0  0  0  0
   -9.6731   19.3814  -31.6454 H   0  0  0  0  0  0  0  0  0  0  0  0
  -10.4259   19.9506  -33.1738 H   0  0  0  0  0  0  0  0  0  0  0  0
   -8.7296   19.3595  -33.1738 H   0  0  0  0  0  0  0  0  0  0  0  0
   -8.4409   22.5437  -30.0416 H   0  0  0  0  0  0  0  0  0  0  0  0
   -6.1492   23.0699  -29.2286 H   0  0  0  0  0  0  0  0  0  0  0  0
   -0.3157   22.7842  -27.4294 H   0  0  0  0  0  0  0  0  0  0  0  0
    1.6898   21.5563  -26.6176 H   0  0  0  0  0  0  0  0  0  0  0  0
    1.3078   18.7581  -29.8994 H   0  0  0  0  0  0  0  0  0  0  0  0
   -0.7016   19.9798  -30.7079 H   0  0  0  0  0  0  0  0  0  0  0  0
   -1.2299   24.2733  -29.4750 H   0  0  0  0  0  0  0  0  0  0  0  0
   -5.7621   25.5951  -28.7259 H   0  0  0  0  0  0  0  0  0  0  0  0
   -6.0749   26.9624  -29.8481 H   0  0  0  0  0  0  0  0  0  0  0  0
   -7.1633   25.5334  -29.8481 H   0  0  0  0  0  0  0  0  0  0  0  0
   -4.4636   21.1132  -32.7014 H   0  0  0  0  0  0  0  0  0  0  0  0
   -5.7678   18.7424  -33.3066 H   0  0  0  0  0  0  0  0  0  0  0  0
   -6.7648   18.6347  -34.7969 H   0  0  0  0  0  0  0  0  0  0  0  0
   -5.2510   19.6018  -34.7969 H   0  0  0  0  0  0  0  0  0  0  0  0
  1  2  1  0
  2  3  1  0
  3  4  2  0
  4  5  1  0
  5  6  2  0
  6  7  1  0
  7  8  2  0
  8  9  1  0
  9 10  1  0
 10 11  2  0
 11 12  1  0
 12 13  2  0
 13 14  1  0
 14 15  2  0
 14 16  1  0
 13 17  1  0
 17 18  2  0
  9 19  1  0
 19 20  2  0
 20 21  1  0
 21 22  1  0
 22 23  1  0
 22 24  2  0
  6 25  1  0
 25 26  2  0
 26 27  1  0
 27 28  1  0
 26  3  1  0
 20  7  1  0
 18 10  1  0
  1 29  1  0
  1 30  1  0
  1 31  1  0
  4 32  1  0
  5 33  1  0
 11 34  1  0
 12 35  1  0
 17 36  1  0
 18 37  1  0
 19 38  1  0
 23 39  1  0
 23 40  1  0
 23 41  1  0
 25 42  1  0
 28 43  1  0
 28 44  1  0
 28 45  1  0
M  CHG  3  14   1  16  -1  21  -1
M  END
>  <UniqueID>  (25) 
25

>  <SMILES>  (25) 
COc1ccc(-c2nn(-c3ccc([N+](=O)[O-])cc3)cc2[N-]C(C)=O)cc1OC

>  <Energy>  (25) 
84.32092910156193

>  <Genealogy>  (25) 
COc1ccc(-c2nn(-c3ccc([N+](=O)[O-])cc3)cc2[N-]C(C)=O)cc1OC (protonated)
COc1ccc(-c2nn(-c3ccc([N+](=O)[O-])cc3)cc2[N-]C(C)=O)cc1OC (3D coordinates assigned)
COc1ccc(-c2nn(-c3ccc([N+](=O)[O-])cc3)cc2[N-]C(C)=O)cc1OC (optimized conformer: 84.32092910156193 kcal/mol)

>  <smiles>  (25) 
COc1ccc(-c2nn(-c3ccc([N+](=O)[O-])cc3)cc2NC(C)=O)cc1OC

>  <score_type>  (25) 
oracle

>  <origin>  (25) 
adgpu

>  <m_score__min__energy>  (25) 
-9.2200000000000006

>  <m_primary>  (25) 
energy

$$$$
25:0
     RDKit          3D

 62 65  0  0  0  0  0  0  0  0999 V2000
   -8.7000   19.0020  -32.2650 C   0  0  0  0  0  0  0  0  0  0  0  0
   -7.2580   18.9010  -31.7770 C   0  0  0  0  0  0  0  0  0  0  0  0
   -6.4940   20.0250  -32.2150 O   0  0  0  0  0  0  0  0  0  0  0  0
   -6.4100   21.2640  -31.5590 C   0  0  0  0  0  0  0  0  0  0  0  0
   -7.5510   22.0750  -31.5360 C   0  0  0  0  0  0  0  0  0  0  0  0
   -7.5320   23.3090  -30.8830 C   0  0  0  0  0  0  0  0  0  0  0  0
   -6.3640   23.7510  -30.2560 C   0  0  0  0  0  0  0  0  0  0  0  0
   -5.2000   22.9650  -30.2830 C   0  0  0  0  0  0  0  0  0  0  0  0
   -4.0020   23.4200  -29.6270 N   0  0  0  0  0  0  0  0  0  0  0  0
   -3.2670   22.7150  -28.7420 C   0  0  0  0  0  0  0  0  0  0  0  0
   -2.1800   23.4690  -28.3330 C   0  0  0  0  0  0  0  0  0  0  0  0
   -1.1230   23.0510  -27.3460 C   0  0  1  0  0  0  0  0  0  0  0  0
   -1.5210   23.3890  -26.0420 O   0  0  0  0  0  0  0  0  0  0  0  0
   -0.8630   21.6090  -27.4450 N   0  0  0  0  0  0  0  0  0  0  0  0
   -0.5910   20.9180  -28.6810 C   0  0  0  0  0  0  0  0  0  0  0  0
   -0.5020   19.5130  -28.7440 C   0  0  0  0  0  0  0  0  0  0  0  0
   -0.2320   18.8750  -29.9580 C   0  0  0  0  0  0  0  0  0  0  0  0
   -0.0420   19.6260  -31.1240 C   0  0  0  0  0  0  0  0  0  0  0  0
    0.2730   18.8080  -32.6530 S   0  0  0  0  0  0  0  0  0  0  0  0
    1.4820   19.4120  -33.3130 O   0  0  0  0  0  0  0  0  0  0  0  0
    0.5560   17.3560  -32.3750 O   0  0  0  0  0  0  0  0  0  0  0  0
   -1.1190   18.9490  -33.7020 N   0  0  0  0  0  0  0  0  0  0  0  0
   -1.2910   20.3520  -34.1700 C   0  0  0  0  0  0  0  0  0  0  0  0
   -2.3540   21.1210  -33.3710 C   0  0  0  0  0  0  0  0  0  0  0  0
   -3.7280   20.4320  -33.4690 C   0  0  0  0  0  0  0  0  0  0  0  0
   -3.6170   18.9060  -33.6380 C   0  0  0  0  0  0  0  0  0  0  0  0
   -2.3140   18.3800  -33.0260 C   0  0  0  0  0  0  0  0  0  0  0  0
   -0.1390   21.0220  -31.0710 C   0  0  0  0  0  0  0  0  0  0  0  0
   -0.4130   21.6620  -29.8590 C   0  0  0  0  0  0  0  0  0  0  0  0
   -2.2630   24.6910  -28.9750 C   0  0  0  0  0  0  0  0  0  0  0  0
   -3.3930   24.6190  -29.7600 C   0  0  0  0  0  0  0  0  0  0  0  0
   -3.8640   25.6550  -30.5570 O   0  0  0  0  0  0  0  0  0  0  0  0
   -5.2310   21.7170  -30.9320 C   0  0  0  0  0  0  0  0  0  0  0  0
   -9.3775   19.0495  -31.3997 H   0  0  0  0  0  0  0  0  0  0  0  0
   -8.8183   19.9106  -32.8736 H   0  0  0  0  0  0  0  0  0  0  0  0
   -8.9439   18.1187  -32.8736 H   0  0  0  0  0  0  0  0  0  0  0  0
   -7.2510   18.8667  -30.6776 H   0  0  0  0  0  0  0  0  0  0  0  0
   -6.8089   17.9865  -32.1918 H   0  0  0  0  0  0  0  0  0  0  0  0
   -8.4703   21.7371  -32.0367 H   0  0  0  0  0  0  0  0  0  0  0  0
   -8.4371   23.9337  -30.8621 H   0  0  0  0  0  0  0  0  0  0  0  0
   -6.3560   24.7212  -29.7377 H   0  0  0  0  0  0  0  0  0  0  0  0
   -3.4965   21.6958  -28.3976 H   0  0  0  0  0  0  0  0  0  0  0  0
   -0.1911   23.5854  -27.5826 H   0  0  0  0  0  0  0  0  0  0  0  0
   -1.6750   24.3720  -26.0200 H   0  0  0  0  0  0  0  0  0  0  0  0
   -0.9050   21.0430  -26.5670 H   0  0  0  0  0  0  0  0  0  0  0  0
   -0.6459   18.9147  -27.8322 H   0  0  0  0  0  0  0  0  0  0  0  0
   -0.1685   17.7775  -29.9973 H   0  0  0  0  0  0  0  0  0  0  0  0
   -0.9150   18.3580  -34.5420 H   0  0  0  0  0  0  0  0  0  0  0  0
   -0.3291   20.8761  -34.0700 H   0  0  0  0  0  0  0  0  0  0  0  0
   -1.6280   20.3127  -35.2164 H   0  0  0  0  0  0  0  0  0  0  0  0
   -2.0483   21.1641  -32.3152 H   0  0  0  0  0  0  0  0  0  0  0  0
   -2.4408   22.1343  -33.7903 H   0  0  0  0  0  0  0  0  0  0  0  0
   -4.2942   20.6440  -32.5501 H   0  0  0  0  0  0  0  0  0  0  0  0
   -4.2357   20.8288  -34.3605 H   0  0  0  0  0  0  0  0  0  0  0  0
   -4.4699   18.4254  -33.1365 H   0  0  0  0  0  0  0  0  0  0  0  0
   -3.6200   18.6708  -34.7126 H   0  0  0  0  0  0  0  0  0  0  0  0
   -2.2848   18.6534  -31.9609 H   0  0  0  0  0  0  0  0  0  0  0  0
   -2.2921   17.2877  -33.1539 H   0  0  0  0  0  0  0  0  0  0  0  0
    0.0008   21.6166  -31.9858 H   0  0  0  0  0  0  0  0  0  0  0  0
   -0.4900   22.7588  -29.8274 H   0  0  0  0  0  0  0  0  0  0  0  0
   -1.5722   25.5416  -28.8791 H   0  0  0  0  0  0  0  0  0  0  0  0
   -4.3278   21.0893  -30.9504 H   0  0  0  0  0  0  0  0  0  0  0  0
  1  2  1  0
  2  3  1  0
  3  4  1  0
  4  5  2  0
  5  6  1  0
  6  7  2  0
  7  8  1  0
  8  9  1  0
  9 10  1  0
 10 11  2  0
 11 12  1  0
 12 13  1  0
 12 14  1  0
 14 15  1  0
 15 16  2  0
 16 17  1  0
 17 18  2  0
 18 19  1  0
 19 20  2  0
 19 21  2  0
 19 22  1  0
 22 23  1  0
 23 24  1  0
 24 25  1  0
 25 26  1  0
 26 27  1  0
 18 28  1  0
 28 29  2  0
 11 30  1  0
 30 31  2  0
 31 32  1  0
  8 33  2  0
 33  4  1  0
 31  9  1  0
 29 15  1  0
 27 22  1  0
  1 34  1  0
  1 35  1  0
  1 36  1  0
  2 37  1  0
  2 38  1  0
  5 39  1  0
  6 40  1  0
  7 41  1  0
 10 42  1  0
 12 43  1  6
 13 44  1  0
 14 45  1  0
 16 46  1  0
 17 47  1  0
 22 48  1  0
 23 49  1  0
 23 50  1  0
 24 51  1  0
 24 52  1  0
 25 53  1  0
 25 54  1  0
 26 55  1  0
 26 56  1  0
 27 57  1  0
 27 58  1  0
 28 59  1  0
 29 60  1  0
 30 61  1  0
 33 62  1  0
M  CHG  2  22   1  32  -1
M  END
>  <UniqueID>  (26) 
26

>  <SMILES>  (26) 
CCOc1cccc(-n2cc([C@@H](O)Nc3ccc(S(=O)(=O)[NH+]4CCCCC4)cc3)cc2[O-])c1

>  <Energy>  (26) 
99.00656349054574

>  <Genealogy>  (26) 
CCOc1cccc(-n2cc(C(O)Nc3ccc(S(=O)(=O)[NH+]4CCCCC4)cc3)cc2[O-])c1 (protonated)
CCOc1cccc(-n2cc([C@@H](O)Nc3ccc(S(=O)(=O)[NH+]4CCCCC4)cc3)cc2[O-])c1 (chirality)
CCOc1cccc(-n2cc([C@@H](O)Nc3ccc(S(=O)(=O)[NH+]4CCCCC4)cc3)cc2[O-])c1 (3D coordinates assigned)
CCOc1cccc(-n2cc([C@@H](O)Nc3ccc(S(=O)(=O)[NH+]4CCCCC4)cc3)cc2[O-])c1 (nonaromatic ring conformer: 99.00656349054574 kcal/mol)

>  <smiles>  (26) 
CCOc1cccc(-n2cc(C(O)Nc3ccc(S(=O)(=O)N4CCCCC4)cc3)cc2O)c1

>  <score_type>  (26) 
oracle

>  <origin>  (26) 
adgpu

>  <m_score__min__energy>  (26) 
-11.93

>  <m_primary>  (26) 
energy

$$$$
26:0
     RDKit          3D

 48 51  0  0  0  0  0  0  0  0999 V2000
    2.6410   25.9370  -36.5740 C   0  0  0  0  0  0  0  0  0  0  0  0
    2.1170   24.6110  -36.1080 C   0  0  0  0  0  0  0  0  0  0  0  0
    3.0050   23.5970  -35.7160 C   0  0  0  0  0  0  0  0  0  0  0  0
    2.5180   22.3490  -35.3180 C   0  0  0  0  0  0  0  0  0  0  0  0
    1.1380   22.0950  -35.3140 C   0  0  0  0  0  0  0  0  0  0  0  0
    0.6080   20.7460  -34.9120 C   0  0  0  0  0  0  0  0  0  0  0  0
   -0.8250   20.8260  -34.6370 N   0  0  0  0  0  0  0  0  0  0  0  0
   -1.3740   20.5450  -33.3400 C   0  0  0  0  0  0  0  0  0  0  0  0
   -0.6070   20.2850  -32.3740 O   0  0  0  0  0  0  0  0  0  0  0  0
   -2.8280   20.5550  -33.1140 C   0  0  0  0  0  0  0  0  0  0  0  0
   -3.4330   21.4400  -32.2820 N   0  0  0  0  0  0  0  0  0  0  0  0
   -4.7760   21.2420  -32.2450 C   0  0  0  0  0  0  0  0  0  0  0  0
   -5.7050   21.9600  -31.4760 C   0  0  0  0  0  0  0  0  0  0  0  0
   -5.3290   23.0680  -30.6250 N   0  0  0  0  0  0  0  0  0  0  0  0
   -6.1400   24.2930  -30.6000 C   0  0  0  0  0  0  0  0  0  0  0  0
   -5.2460   25.5540  -30.6710 C   0  0  0  0  0  0  0  0  0  0  0  0
   -3.8650   25.2890  -30.4780 O   0  0  0  0  0  0  0  0  0  0  0  0
   -3.6830   24.4170  -29.3830 C   0  0  0  0  0  0  0  0  0  0  0  0
   -4.1310   23.0070  -29.7750 C   0  0  0  0  0  0  0  0  0  0  0  0
   -7.0160   21.5780  -31.5500 N   0  0  0  0  0  0  0  0  0  0  0  0
   -7.4320   20.5490  -32.3490 C   0  0  0  0  0  0  0  0  0  0  0  0
   -8.8710   20.1540  -32.3620 C   0  0  0  0  0  0  0  0  0  0  0  0
   -6.5290   19.8450  -33.0880 N   0  0  0  0  0  0  0  0  0  0  0  0
   -5.2260   20.2030  -33.0300 C   0  0  0  0  0  0  0  0  0  0  0  0
   -3.9390   19.4840  -33.8250 S   0  0  0  0  0  0  0  0  0  0  0  0
    0.2520   23.1020  -35.7280 C   0  0  0  0  0  0  0  0  0  0  0  0
    0.7390   24.3500  -36.1260 C   0  0  0  0  0  0  0  0  0  0  0  0
    2.8875   26.5608  -35.7021 H   0  0  0  0  0  0  0  0  0  0  0  0
    3.5452   25.7812  -37.1808 H   0  0  0  0  0  0  0  0  0  0  0  0
    1.8746   26.4414  -37.1808 H   0  0  0  0  0  0  0  0  0  0  0  0
    4.0887   23.7855  -35.7221 H   0  0  0  0  0  0  0  0  0  0  0  0
    3.2201   21.5617  -35.0063 H   0  0  0  0  0  0  0  0  0  0  0  0
    0.7814   20.0298  -35.7287 H   0  0  0  0  0  0  0  0  0  0  0  0
    1.1291   20.4132  -34.0022 H   0  0  0  0  0  0  0  0  0  0  0  0
   -1.4580   21.1000  -35.4210 H   0  0  0  0  0  0  0  0  0  0  0  0
   -6.8242   24.2886  -31.4613 H   0  0  0  0  0  0  0  0  0  0  0  0
   -6.7059   24.3184  -29.6571 H   0  0  0  0  0  0  0  0  0  0  0  0
   -5.3755   26.0156  -31.6610 H   0  0  0  0  0  0  0  0  0  0  0  0
   -5.5623   26.2173  -29.8525 H   0  0  0  0  0  0  0  0  0  0  0  0
   -2.6199   24.3990  -29.1011 H   0  0  0  0  0  0  0  0  0  0  0  0
   -4.2821   24.7687  -28.5301 H   0  0  0  0  0  0  0  0  0  0  0  0
   -3.3200   22.5092  -30.3268 H   0  0  0  0  0  0  0  0  0  0  0  0
   -4.3694   22.4415  -28.8621 H   0  0  0  0  0  0  0  0  0  0  0  0
   -9.2333   20.0546  -31.3281 H   0  0  0  0  0  0  0  0  0  0  0  0
   -9.4580   20.9242  -32.8837 H   0  0  0  0  0  0  0  0  0  0  0  0
   -8.9825   19.1920  -32.8837 H   0  0  0  0  0  0  0  0  0  0  0  0
   -0.8307   22.9079  -35.7392 H   0  0  0  0  0  0  0  0  0  0  0  0
    0.0382   25.1314  -36.4550 H   0  0  0  0  0  0  0  0  0  0  0  0
  1  2  1  0
  2  3  2  0
  3  4  1  0
  4  5  2  0
  5  6  1  0
  6  7  1  0
  7  8  1  0
  8  9  2  0
  8 10  1  0
 10 11  2  0
 11 12  1  0
 12 13  2  0
 13 14  1  0
 14 15  1  0
 15 16  1  0
 16 17  1  0
 17 18  1  0
 18 19  1  0
 13 20  1  0
 20 21  2  0
 21 22  1  0
 21 23  1  0
 23 24  2  0
 24 25  1  0
  5 26  1  0
 26 27  2  0
 27  2  1  0
 25 10  1  0
 24 12  1  0
 19 14  1  0
  1 28  1  0
  1 29  1  0
  1 30  1  0
  3 31  1  0
  4 32  1  0
  6 33  1  0
  6 34  1  0
  7 35  1  0
 15 36  1  0
 15 37  1  0
 16 38  1  0
 16 39  1  0
 18 40  1  0
 18 41  1  0
 19 42  1  0
 19 43  1  0
 22 44  1  0
 22 45  1  0
 22 46  1  0
 26 47  1  0
 27 48  1  0
M  END
>  <UniqueID>  (27) 
27

>  <SMILES>  (27) 
Cc1ccc(CNC(=O)c2nc3c(N4CCOCC4)nc(C)nc3s2)cc1

>  <Energy>  (27) 
92.69363465188061

>  <Genealogy>  (27) 
Cc1ccc(CNC(=O)c2nc3c(N4CCOCC4)nc(C)nc3s2)cc1 (3D coordinates assigned)
Cc1ccc(CNC(=O)c2nc3c(N4CCOCC4)nc(C)nc3s2)cc1 (nonaromatic ring conformer: 92.69363465188061 kcal/mol)

>  <smiles>  (27) 
Cc1ccc(CNC(=O)c2nc3c(N4CCOCC4)nc(C)nc3s2)cc1

>  <score_type>  (27) 
oracle

>  <origin>  (27) 
adgpu

>  <m_score__min__energy>  (27) 
-9.0800000000000001

>  <m_primary>  (27) 
energy

$$$$
27:0
     RDKit          3D

 47 49  0  0  0  0  0  0  0  0999 V2000
    0.2680   19.7400  -35.1620 C   0  0  0  0  0  0  0  0  0  0  0  0
   -0.9600   19.9920  -34.3560 C   0  0  0  0  0  0  0  0  0  0  0  0
   -1.1050   20.9670  -33.3880 C   0  0  0  0  0  0  0  0  0  0  0  0
   -2.3530   20.7280  -32.8490 C   0  0  0  0  0  0  0  0  0  0  0  0
   -2.9010   21.4390  -31.6730 C   0  0  0  0  0  0  0  0  0  0  0  0
   -3.0110   20.8170  -30.5830 O   0  0  0  0  0  0  0  0  0  0  0  0
   -3.3050   22.8140  -31.7250 N   0  0  0  0  0  0  0  0  0  0  0  0
   -4.5830   23.3350  -31.3290 C   0  0  0  0  0  0  0  0  0  0  0  0
   -5.7670   22.6120  -31.5500 C   0  0  0  0  0  0  0  0  0  0  0  0
   -7.0310   23.1530  -31.2280 C   0  0  0  0  0  0  0  0  0  0  0  0
   -8.3050   22.3370  -31.5310 C   0  0  0  0  0  0  0  0  0  0  0  0
   -9.0280   21.8480  -30.2520 C   0  0  0  0  0  0  0  0  0  0  0  0
   -7.9310   21.0950  -32.3670 C   0  0  0  0  0  0  0  0  0  0  0  0
   -9.3020   23.2090  -32.3270 C   0  0  0  0  0  0  0  0  0  0  0  0
   -7.0640   24.4320  -30.6240 C   0  0  0  0  0  0  0  0  0  0  0  0
   -5.8830   25.1310  -30.3610 C   0  0  0  0  0  0  0  0  0  0  0  0
   -4.6480   24.5870  -30.7100 C   0  0  0  0  0  0  0  0  0  0  0  0
   -3.4850   25.3040  -30.4540 O   0  0  0  0  0  0  0  0  0  0  0  0
   -2.9100   19.6710  -33.4910 N   0  0  0  0  0  0  0  0  0  0  0  0
   -4.2150   19.1020  -33.3020 C   0  0  0  0  0  0  0  0  0  0  0  0
   -4.9020   18.5520  -34.3960 C   0  0  0  0  0  0  0  0  0  0  0  0
   -6.1630   17.9740  -34.2190 C   0  0  0  0  0  0  0  0  0  0  0  0
   -6.7550   17.9590  -32.9540 C   0  0  0  0  0  0  0  0  0  0  0  0
   -6.0900   18.5270  -31.8630 C   0  0  0  0  0  0  0  0  0  0  0  0
   -4.8280   19.1030  -32.0360 C   0  0  0  0  0  0  0  0  0  0  0  0
   -2.0560   19.2110  -34.3940 N   0  0  0  0  0  0  0  0  0  0  0  0
    1.1195   19.5653  -34.4880 H   0  0  0  0  0  0  0  0  0  0  0  0
    0.1149   18.8546  -35.7965 H   0  0  0  0  0  0  0  0  0  0  0  0
    0.4760   20.6142  -35.7965 H   0  0  0  0  0  0  0  0  0  0  0  0
   -0.3889   21.7544  -33.1101 H   0  0  0  0  0  0  0  0  0  0  0  0
   -5.7082   21.6026  -31.9832 H   0  0  0  0  0  0  0  0  0  0  0  0
   -8.4896   22.2121  -29.3645 H   0  0  0  0  0  0  0  0  0  0  0  0
  -10.0572   22.2362  -30.2414 H   0  0  0  0  0  0  0  0  0  0  0  0
   -9.0508   20.7483  -30.2414 H   0  0  0  0  0  0  0  0  0  0  0  0
   -7.6801   20.2619  -31.6939 H   0  0  0  0  0  0  0  0  0  0  0  0
   -8.7831   20.8099  -33.0015 H   0  0  0  0  0  0  0  0  0  0  0  0
   -7.0631   21.3278  -33.0015 H   0  0  0  0  0  0  0  0  0  0  0  0
   -9.9407   23.7676  -31.6269 H   0  0  0  0  0  0  0  0  0  0  0  0
   -8.7462   23.9161  -32.9603 H   0  0  0  0  0  0  0  0  0  0  0  0
   -9.9288   22.5640  -32.9603 H   0  0  0  0  0  0  0  0  0  0  0  0
   -8.0319   24.8819  -30.3580 H   0  0  0  0  0  0  0  0  0  0  0  0
   -5.9282   26.1170  -29.8754 H   0  0  0  0  0  0  0  0  0  0  0  0
   -4.4463   18.5759  -35.3969 H   0  0  0  0  0  0  0  0  0  0  0  0
   -6.6894   17.5306  -35.0771 H   0  0  0  0  0  0  0  0  0  0  0  0
   -7.7451   17.5000  -32.8159 H   0  0  0  0  0  0  0  0  0  0  0  0
   -6.5599   18.5206  -30.8684 H   0  0  0  0  0  0  0  0  0  0  0  0
   -4.3121   19.5591  -31.1782 H   0  0  0  0  0  0  0  0  0  0  0  0
  1  2  1  0
  2  3  1  0
  3  4  2  0
  4  5  1  0
  5  6  2  0
  5  7  1  0
  7  8  1  0
  8  9  2  0
  9 10  1  0
 10 11  1  0
 11 12  1  0
 11 13  1  0
 11 14  1  0
 10 15  2  0
 15 16  1  0
 16 17  2  0
 17 18  1  0
  4 19  1  0
 19 20  1  0
 20 21  2  0
 21 22  1  0
 22 23  2  0
 23 24  1  0
 24 25  2  0
 19 26  1  0
 26  2  2  0
 17  8  1  0
 25 20  1  0
  1 27  1  0
  1 28  1  0
  1 29  1  0
  3 30  1  0
  9 31  1  0
 12 32  1  0
 12 33  1  0
 12 34  1  0
 13 35  1  0
 13 36  1  0
 13 37  1  0
 14 38  1  0
 14 39  1  0
 14 40  1  0
 15 41  1  0
 16 42  1  0
 21 43  1  0
 22 44  1  0
 23 45  1  0
 24 46  1  0
 25 47  1  0
M  CHG  2   7  -1  18  -1
M  END
>  <UniqueID>  (28) 
28

>  <SMILES>  (28) 
Cc1cc(C(=O)[N-]c2cc(C(C)(C)C)ccc2[O-])n(-c2ccccc2)n1

>  <Energy>  (28) 
86.03582701724466

>  <Genealogy>  (28) 
Cc1cc(C(=O)[N-]c2cc(C(C)(C)C)ccc2[O-])n(-c2ccccc2)n1 (protonated)
Cc1cc(C(=O)[N-]c2cc(C(C)(C)C)ccc2[O-])n(-c2ccccc2)n1 (3D coordinates assigned)
Cc1cc(C(=O)[N-]c2cc(C(C)(C)C)ccc2[O-])n(-c2ccccc2)n1 (optimized conformer: 86.03582701724466 kcal/mol)

>  <smiles>  (28) 
Cc1cc(C(=O)Nc2cc(C(C)(C)C)ccc2O)n(-c2ccccc2)n1

>  <score_type>  (28) 
oracle

>  <origin>  (28) 
adgpu

>  <m_score__min__energy>  (28) 
-13.07

>  <m_primary>  (28) 
energy

$$$$
28:0
     RDKit          3D

 60 63  0  0  0  0  0  0  0  0999 V2000
    0.4680   18.7550  -27.8630 C   0  0  0  0  0  0  0  0  0  0  0  0
    1.0070   19.9900  -28.3210 O   0  0  0  0  0  0  0  0  0  0  0  0
    0.3250   21.2180  -28.2990 C   0  0  0  0  0  0  0  0  0  0  0  0
    0.3230   22.0370  -27.1540 C   0  0  0  0  0  0  0  0  0  0  0  0
   -0.3770   23.2420  -27.1470 C   0  0  0  0  0  0  0  0  0  0  0  0
   -1.1080   23.6450  -28.2730 C   0  0  0  0  0  0  0  0  0  0  0  0
   -1.8720   24.9170  -28.2650 C   0  0  0  0  0  0  0  0  0  0  0  0
   -1.7980   25.6770  -27.2640 O   0  0  0  0  0  0  0  0  0  0  0  0
   -2.7340   25.2900  -29.3490 N   0  0  0  0  0  0  0  0  0  0  0  0
   -3.8940   24.5650  -29.7820 C   0  0  0  0  0  0  0  0  0  0  0  0
   -4.0420   23.1920  -29.5200 C   0  0  0  0  0  0  0  0  0  0  0  0
   -5.1940   22.5170  -29.9320 C   0  0  0  0  0  0  0  0  0  0  0  0
   -6.2060   23.2020  -30.6180 C   0  0  0  0  0  0  0  0  0  0  0  0
   -7.6830   22.3620  -31.0930 S   0  0  0  0  0  0  0  0  0  0  0  0
   -8.6190   22.3060  -29.9190 O   0  0  0  0  0  0  0  0  0  0  0  0
   -8.3600   23.1340  -32.1920 O   0  0  0  0  0  0  0  0  0  0  0  0
   -7.3540   20.7370  -31.6440 N   0  0  0  0  0  0  0  0  0  0  0  0
   -6.7790   20.7580  -32.9970 C   0  0  0  0  0  0  0  0  0  0  0  0
   -6.4990   19.3180  -33.4740 C   0  0  0  0  0  0  0  0  0  0  0  0
   -6.9660   18.3490  -32.5520 O   0  0  0  0  0  0  0  0  0  0  0  0
   -8.3410   18.5580  -32.2950 C   0  0  0  0  0  0  0  0  0  0  0  0
   -8.5850   19.9280  -31.6300 C   0  0  0  0  0  0  0  0  0  0  0  0
   -6.0420   24.5630  -30.9120 C   0  0  0  0  0  0  0  0  0  0  0  0
   -4.8870   25.2370  -30.5040 C   0  0  0  0  0  0  0  0  0  0  0  0
   -1.0910   22.8420  -29.4220 C   0  0  0  0  0  0  0  0  0  0  0  0
   -0.3750   21.6330  -29.4510 C   0  0  0  0  0  0  0  0  0  0  0  0
   -0.3620   20.5890  -30.8930 S   0  0  0  0  0  0  0  0  0  0  0  0
    1.0650   20.4230  -31.3360 O   0  0  0  0  0  0  0  0  0  0  0  0
   -0.9000   19.2420  -30.4970 O   0  0  0  0  0  0  0  0  0  0  0  0
   -1.2710   21.1620  -32.2750 N   0  0  0  0  0  0  0  0  0  0  0  0
   -1.4140   20.1590  -33.3340 C   0  0  0  0  0  0  0  0  0  0  0  0
   -2.8560   20.2010  -33.8260 C   0  0  0  0  0  0  0  0  0  0  0  0
   -3.5040   21.3680  -33.1050 C   0  0  0  0  0  0  0  0  0  0  0  0
   -2.6040   21.6480  -31.9180 C   0  0  0  0  0  0  0  0  0  0  0  0
    0.4626   18.7427  -26.7631 H   0  0  0  0  0  0  0  0  0  0  0  0
   -0.5608   18.6431  -28.2360 H   0  0  0  0  0  0  0  0  0  0  0  0
    1.0855   17.9246  -28.2360 H   0  0  0  0  0  0  0  0  0  0  0  0
    0.8783   21.7233  -26.2578 H   0  0  0  0  0  0  0  0  0  0  0  0
   -0.3557   23.8811  -26.2519 H   0  0  0  0  0  0  0  0  0  0  0  0
   -3.2480   22.6468  -28.9886 H   0  0  0  0  0  0  0  0  0  0  0  0
   -5.3069   21.4441  -29.7171 H   0  0  0  0  0  0  0  0  0  0  0  0
   -7.4883   21.2387  -33.6868 H   0  0  0  0  0  0  0  0  0  0  0  0
   -5.8350   21.3223  -32.9793 H   0  0  0  0  0  0  0  0  0  0  0  0
   -7.0024   19.1603  -34.4392 H   0  0  0  0  0  0  0  0  0  0  0  0
   -5.4094   19.1986  -33.5668 H   0  0  0  0  0  0  0  0  0  0  0  0
   -8.8933   18.5176  -33.2454 H   0  0  0  0  0  0  0  0  0  0  0  0
   -8.6893   17.7721  -31.6087 H   0  0  0  0  0  0  0  0  0  0  0  0
   -9.3745   20.4613  -32.1797 H   0  0  0  0  0  0  0  0  0  0  0  0
   -8.8915   19.7662  -30.5860 H   0  0  0  0  0  0  0  0  0  0  0  0
   -6.8247   25.1024  -31.4656 H   0  0  0  0  0  0  0  0  0  0  0  0
   -4.7580   26.3010  -30.7517 H   0  0  0  0  0  0  0  0  0  0  0  0
   -1.6469   23.1633  -30.3151 H   0  0  0  0  0  0  0  0  0  0  0  0
   -0.7291   20.3904  -34.1631 H   0  0  0  0  0  0  0  0  0  0  0  0
   -1.1688   19.1579  -32.9498 H   0  0  0  0  0  0  0  0  0  0  0  0
   -2.8851   20.3590  -34.9142 H   0  0  0  0  0  0  0  0  0  0  0  0
   -3.3814   19.2564  -33.6219 H   0  0  0  0  0  0  0  0  0  0  0  0
   -3.5584   22.2470  -33.7641 H   0  0  0  0  0  0  0  0  0  0  0  0
   -4.5348   21.1403  -32.7959 H   0  0  0  0  0  0  0  0  0  0  0  0
   -2.5712   22.7284  -31.7140 H   0  0  0  0  0  0  0  0  0  0  0  0
   -2.9774   21.1474  -31.0125 H   0  0  0  0  0  0  0  0  0  0  0  0
  1  2  1  0
  2  3  1  0
  3  4  2  0
  4  5  1  0
  5  6  2  0
  6  7  1  0
  7  8  2  0
  7  9  1  0
  9 10  1  0
 10 11  2  0
 11 12  1  0
 12 13  2  0
 13 14  1  0
 14 15  2  0
 14 16  2  0
 14 17  1  0
 17 18  1  0
 18 19  1  0
 19 20  1  0
 20 21  1  0
 21 22  1  0
 13 23  1  0
 23 24  2  0
  6 25  1  0
 25 26  2  0
 26 27  1  0
 27 28  2  0
 27 29  2  0
 27 30  1  0
 30 31  1  0
 31 32  1  0
 32 33  1  0
 33 34  1  0
 26  3  1  0
 34 30  1  0
 24 10  1  0
 22 17  1  0
  1 35  1  0
  1 36  1  0
  1 37  1  0
  4 38  1  0
  5 39  1  0
 11 40  1  0
 12 41  1  0
 18 42  1  0
 18 43  1  0
 19 44  1  0
 19 45  1  0
 21 46  1  0
 21 47  1  0
 22 48  1  0
 22 49  1  0
 23 50  1  0
 24 51  1  0
 25 52  1  0
 31 53  1  0
 31 54  1  0
 32 55  1  0
 32 56  1  0
 33 57  1  0
 33 58  1  0
 34 59  1  0
 34 60  1  0
M  CHG  1   9  -1
M  END
>  <UniqueID>  (29) 
29

>  <SMILES>  (29) 
COc1ccc(C(=O)[N-]c2ccc(S(=O)(=O)N3CCOCC3)cc2)cc1S(=O)(=O)N1CCCC1

>  <Energy>  (29) 
79.72367565438667

>  <Genealogy>  (29) 
COc1ccc(C(=O)[N-]c2ccc(S(=O)(=O)N3CCOCC3)cc2)cc1S(=O)(=O)N1CCCC1 (protonated)
COc1ccc(C(=O)[N-]c2ccc(S(=O)(=O)N3CCOCC3)cc2)cc1S(=O)(=O)N1CCCC1 (3D coordinates assigned)
COc1ccc(C(=O)[N-]c2ccc(S(=O)(=O)N3CCOCC3)cc2)cc1S(=O)(=O)N1CCCC1 (nonaromatic ring conformer: 79.72367565438667 kcal/mol)

>  <smiles>  (29) 
COc1ccc(C(=O)Nc2ccc(S(=O)(=O)N3CCOCC3)cc2)cc1S(=O)(=O)N1CCCC1

>  <score_type>  (29) 
oracle

>  <origin>  (29) 
adgpu

>  <m_score__min__energy>  (29) 
-12.210000000000001

>  <m_primary>  (29) 
energy

$$$$
29:0
     RDKit          3D

 46 48  0  0  0  0  0  0  0  0999 V2000
    2.0800   24.8060  -25.4110 C   0  0  0  0  0  0  0  0  0  0  0  0
    0.6350   24.9900  -25.7700 C   0  0  0  0  0  0  0  0  0  0  0  0
   -0.2890   25.3880  -24.7960 C   0  0  0  0  0  0  0  0  0  0  0  0
   -1.6400   25.5190  -25.1220 C   0  0  0  0  0  0  0  0  0  0  0  0
   -2.0920   25.2440  -26.4170 C   0  0  0  0  0  0  0  0  0  0  0  0
   -3.4650   25.3240  -26.6570 O   0  0  0  0  0  0  0  0  0  0  0  0
   -1.1640   24.8610  -27.4180 C   0  0  0  0  0  0  0  0  0  0  0  0
   -1.5570   24.6410  -28.8270 C   0  0  0  0  0  0  0  0  0  0  0  0
   -0.8660   23.8930  -29.5690 O   0  0  0  0  0  0  0  0  0  0  0  0
   -2.7310   25.2870  -29.3410 N   0  0  0  0  0  0  0  0  0  0  0  0
   -3.9010   24.6430  -29.8640 C   0  0  0  0  0  0  0  0  0  0  0  0
   -4.0920   23.2510  -29.7720 C   0  0  0  0  0  0  0  0  0  0  0  0
   -5.2590   22.6660  -30.2720 C   0  0  0  0  0  0  0  0  0  0  0  0
   -6.2510   23.4610  -30.8620 C   0  0  0  0  0  0  0  0  0  0  0  0
   -7.7230   22.7240  -31.4820 S   0  0  0  0  0  0  0  0  0  0  0  0
   -8.6520   23.7830  -32.0030 O   0  0  0  0  0  0  0  0  0  0  0  0
   -8.3920   21.9720  -30.3660 O   0  0  0  0  0  0  0  0  0  0  0  0
   -7.3240   21.6370  -32.7720 N   0  0  0  0  0  0  0  0  0  0  0  0
   -7.2710   20.2190  -32.5950 C   0  0  0  0  0  0  0  0  0  0  0  0
   -8.4280   19.5560  -32.1660 C   0  0  0  0  0  0  0  0  0  0  0  0
   -8.4290   18.1690  -32.0000 C   0  0  0  0  0  0  0  0  0  0  0  0
   -7.2720   17.4340  -32.2530 C   0  0  0  0  0  0  0  0  0  0  0  0
   -6.1040   18.0850  -32.6580 C   0  0  0  0  0  0  0  0  0  0  0  0
   -6.0810   19.4820  -32.8120 C   0  0  0  0  0  0  0  0  0  0  0  0
   -4.7980   20.1560  -33.2110 C   0  0  0  0  0  0  0  0  0  0  0  0
   -6.0760   24.8490  -30.9250 C   0  0  0  0  0  0  0  0  0  0  0  0
   -4.9110   25.4360  -30.4230 C   0  0  0  0  0  0  0  0  0  0  0  0
    0.1920   24.7120  -27.0700 C   0  0  0  0  0  0  0  0  0  0  0  0
    2.1870   24.7924  -24.3163 H   0  0  0  0  0  0  0  0  0  0  0  0
    2.4428   23.8544  -25.8267 H   0  0  0  0  0  0  0  0  0  0  0  0
    2.6697   25.6363  -25.8267 H   0  0  0  0  0  0  0  0  0  0  0  0
    0.0507   25.5980  -23.7711 H   0  0  0  0  0  0  0  0  0  0  0  0
   -2.3567   25.8419  -24.3525 H   0  0  0  0  0  0  0  0  0  0  0  0
   -3.8610   25.6410  -27.5310 H   0  0  0  0  0  0  0  0  0  0  0  0
   -3.3201   22.6216  -29.3050 H   0  0  0  0  0  0  0  0  0  0  0  0
   -5.3993   21.5772  -30.2021 H   0  0  0  0  0  0  0  0  0  0  0  0
   -9.3421   20.1316  -31.9584 H   0  0  0  0  0  0  0  0  0  0  0  0
   -9.3441   17.6561  -31.6692 H   0  0  0  0  0  0  0  0  0  0  0  0
   -7.2785   16.3405  -32.1337 H   0  0  0  0  0  0  0  0  0  0  0  0
   -5.1946   17.4993  -32.8581 H   0  0  0  0  0  0  0  0  0  0  0  0
   -4.2413   20.4484  -32.3084 H   0  0  0  0  0  0  0  0  0  0  0  0
   -4.1892   19.4613  -33.8083 H   0  0  0  0  0  0  0  0  0  0  0  0
   -5.0246   21.0515  -33.8083 H   0  0  0  0  0  0  0  0  0  0  0  0
   -6.8587   25.4800  -31.3714 H   0  0  0  0  0  0  0  0  0  0  0  0
   -4.7866   26.5281  -30.4673 H   0  0  0  0  0  0  0  0  0  0  0  0
    0.9130   24.3730  -27.8284 H   0  0  0  0  0  0  0  0  0  0  0  0
  1  2  1  0
  2  3  2  0
  3  4  1  0
  4  5  2  0
  5  6  1  0
  5  7  1  0
  7  8  1  0
  8  9  2  0
  8 10  1  0
 10 11  1  0
 11 12  2  0
 12 13  1  0
 13 14  2  0
 14 15  1  0
 15 16  2  0
 15 17  2  0
 15 18  1  0
 18 19  1  0
 19 20  2  0
 20 21  1  0
 21 22  2  0
 22 23  1  0
 23 24  2  0
 24 25  1  0
 14 26  1  0
 26 27  2  0
  7 28  2  0
 28  2  1  0
 27 11  1  0
 24 19  1  0
  1 29  1  0
  1 30  1  0
  1 31  1  0
  3 32  1  0
  4 33  1  0
  6 34  1  0
 12 35  1  0
 13 36  1  0
 20 37  1  0
 21 38  1  0
 22 39  1  0
 23 40  1  0
 25 41  1  0
 25 42  1  0
 25 43  1  0
 26 44  1  0
 27 45  1  0
 28 46  1  0
M  CHG  2  10  -1  18  -1
M  END
>  <UniqueID>  (30) 
30

>  <SMILES>  (30) 
Cc1ccc(O)c(C(=O)[N-]c2ccc(S(=O)(=O)[N-]c3ccccc3C)cc2)c1

>  <Energy>  (30) 
66.70027676498039

>  <Genealogy>  (30) 
Cc1ccc(O)c(C(=O)[N-]c2ccc(S(=O)(=O)[N-]c3ccccc3C)cc2)c1 (protonated)
Cc1ccc(O)c(C(=O)[N-]c2ccc(S(=O)(=O)[N-]c3ccccc3C)cc2)c1 (3D coordinates assigned)
Cc1ccc(O)c(C(=O)[N-]c2ccc(S(=O)(=O)[N-]c3ccccc3C)cc2)c1 (optimized conformer: 66.70027676498039 kcal/mol)

>  <smiles>  (30) 
Cc1ccc(O)c(C(=O)Nc2ccc(S(=O)(=O)Nc3ccccc3C)cc2)c1

>  <score_type>  (30) 
oracle

>  <origin>  (30) 
adgpu

>  <m_score__min__energy>  (30) 
-11.1

>  <m_primary>  (30) 
energy

$$$$
30:0
     RDKit          3D

 49 51  0  0  0  0  0  0  0  0999 V2000
    3.2670   13.4710  -28.5190 C   0  0  0  0  0  0  0  0  0  0  0  0
    2.3830   14.6860  -28.4320 C   0  0  0  0  0  0  0  0  0  0  0  0
    1.8920   15.1160  -27.1900 C   0  0  0  0  0  0  0  0  0  0  0  0
    1.0450   16.2200  -27.1090 C   0  0  0  0  0  0  0  0  0  0  0  0
    0.6720   16.9210  -28.2700 C   0  0  0  0  0  0  0  0  0  0  0  0
   -0.2120   18.1100  -28.1890 C   0  0  0  0  0  0  0  0  0  0  0  0
   -0.7690   18.4020  -27.0910 O   0  0  0  0  0  0  0  0  0  0  0  0
   -0.4830   18.9010  -29.3620 N   0  0  0  0  0  0  0  0  0  0  0  0
   -1.0140   20.2350  -29.3250 C   0  0  0  0  0  0  0  0  0  0  0  0
   -2.1130   20.5650  -28.5130 C   0  0  0  0  0  0  0  0  0  0  0  0
   -2.5810   21.8810  -28.4580 C   0  0  0  0  0  0  0  0  0  0  0  0
   -1.9510   22.8840  -29.2000 C   0  0  0  0  0  0  0  0  0  0  0  0
   -2.5310   24.5420  -29.1080 S   0  0  0  0  0  0  0  0  0  0  0  0
   -3.3280   24.7100  -27.8440 O   0  0  0  0  0  0  0  0  0  0  0  0
   -1.3780   25.5080  -29.0820 O   0  0  0  0  0  0  0  0  0  0  0  0
   -3.5350   24.9090  -30.4690 N   0  0  0  0  0  0  0  0  0  0  0  0
   -4.7930   24.2800  -30.7650 C   0  0  0  0  0  0  0  0  0  0  0  0
   -6.0080   24.8390  -30.3230 C   0  0  0  0  0  0  0  0  0  0  0  0
   -7.2180   24.1940  -30.5990 C   0  0  0  0  0  0  0  0  0  0  0  0
   -7.2400   22.9850  -31.3050 C   0  0  0  0  0  0  0  0  0  0  0  0
   -8.5480   22.3030  -31.5500 C   0  0  0  0  0  0  0  0  0  0  0  0
   -6.0320   22.4200  -31.7590 C   0  0  0  0  0  0  0  0  0  0  0  0
   -4.8090   23.0710  -31.4960 C   0  0  0  0  0  0  0  0  0  0  0  0
   -3.5220   22.4540  -31.9640 C   0  0  0  0  0  0  0  0  0  0  0  0
   -0.8440   22.5630  -29.9980 C   0  0  0  0  0  0  0  0  0  0  0  0
   -0.3760   21.2500  -30.0550 C   0  0  0  0  0  0  0  0  0  0  0  0
    1.1400   16.4680  -29.5170 C   0  0  0  0  0  0  0  0  0  0  0  0
    1.9860   15.3580  -29.5960 C   0  0  0  0  0  0  0  0  0  0  0  0
    3.5176   13.1265  -27.5048 H   0  0  0  0  0  0  0  0  0  0  0  0
    2.7385   12.6708  -29.0579 H   0  0  0  0  0  0  0  0  0  0  0  0
    4.1910   13.7276  -29.0579 H   0  0  0  0  0  0  0  0  0  0  0  0
    2.1775   14.5782  -26.2739 H   0  0  0  0  0  0  0  0  0  0  0  0
    0.6652   16.5456  -26.1293 H   0  0  0  0  0  0  0  0  0  0  0  0
   -0.3590   18.4520  -30.3000 H   0  0  0  0  0  0  0  0  0  0  0  0
   -2.6074   19.7833  -27.9176 H   0  0  0  0  0  0  0  0  0  0  0  0
   -3.4484   22.1282  -27.8283 H   0  0  0  0  0  0  0  0  0  0  0  0
   -6.0052   25.7840  -29.7600 H   0  0  0  0  0  0  0  0  0  0  0  0
   -8.1630   24.6416  -30.2576 H   0  0  0  0  0  0  0  0  0  0  0  0
   -9.0194   22.0572  -30.5870 H   0  0  0  0  0  0  0  0  0  0  0  0
   -9.2086   22.9714  -32.1216 H   0  0  0  0  0  0  0  0  0  0  0  0
   -8.3782   21.3787  -32.1216 H   0  0  0  0  0  0  0  0  0  0  0  0
   -6.0427   21.4725  -32.3178 H   0  0  0  0  0  0  0  0  0  0  0  0
   -2.9164   22.1637  -31.0928 H   0  0  0  0  0  0  0  0  0  0  0  0
   -3.7418   21.5633  -32.5710 H   0  0  0  0  0  0  0  0  0  0  0  0
   -2.9652   23.1831  -32.5710 H   0  0  0  0  0  0  0  0  0  0  0  0
   -0.3426   23.3493  -30.5813 H   0  0  0  0  0  0  0  0  0  0  0  0
    0.4990   21.0085  -30.6763 H   0  0  0  0  0  0  0  0  0  0  0  0
    0.8380   16.9910  -30.4364 H   0  0  0  0  0  0  0  0  0  0  0  0
    2.3420   15.0101  -30.5770 H   0  0  0  0  0  0  0  0  0  0  0  0
  1  2  1  0
  2  3  2  0
  3  4  1  0
  4  5  2  0
  5  6  1  0
  6  7  2  0
  6  8  1  0
  8  9  1  0
  9 10  2  0
 10 11  1  0
 11 12  2  0
 12 13  1  0
 13 14  2  0
 13 15  2  0
 13 16  1  0
 16 17  1  0
 17 18  2  0
 18 19  1  0
 19 20  2  0
 20 21  1  0
 20 22  1  0
 22 23  2  0
 23 24  1  0
 12 25  1  0
 25 26  2  0
  5 27  1  0
 27 28  2  0
 28  2  1  0
 26  9  1  0
 23 17  1  0
  1 29  1  0
  1 30  1  0
  1 31  1  0
  3 32  1  0
  4 33  1  0
  8 34  1  0
 10 35  1  0
 11 36  1  0
 18 37  1  0
 19 38  1  0
 21 39  1  0
 21 40  1  0
 21 41  1  0
 22 42  1  0
 24 43  1  0
 24 44  1  0
 24 45  1  0
 25 46  1  0
 26 47  1  0
 27 48  1  0
 28 49  1  0
M  CHG  1  16  -1
M  END
>  <UniqueID>  (31) 
31

>  <SMILES>  (31) 
Cc1ccc(C(=O)Nc2ccc(S(=O)(=O)[N-]c3ccc(C)cc3C)cc2)cc1

>  <Energy>  (31) 
59.41808093548171

>  <Genealogy>  (31) 
Cc1ccc(C(=O)Nc2ccc(S(=O)(=O)[N-]c3ccc(C)cc3C)cc2)cc1 (protonated)
Cc1ccc(C(=O)Nc2ccc(S(=O)(=O)[N-]c3ccc(C)cc3C)cc2)cc1 (3D coordinates assigned)
Cc1ccc(C(=O)Nc2ccc(S(=O)(=O)[N-]c3ccc(C)cc3C)cc2)cc1 (optimized conformer: 59.41808093548171 kcal/mol)

>  <smiles>  (31) 
Cc1ccc(C(=O)Nc2ccc(S(=O)(=O)Nc3ccc(C)cc3C)cc2)cc1

>  <score_type>  (31) 
oracle

>  <origin>  (31) 
adgpu

>  <m_score__min__energy>  (31) 
-9.8900000000000006

>  <m_primary>  (31) 
energy

$$$$
31:0
     RDKit          3D

 40 41  0  0  0  0  0  0  0  0999 V2000
    0.2790   22.7030  -27.8520 C   0  0  0  0  0  0  0  0  0  0  0  0
   -0.3270   23.4680  -28.8890 O   0  0  0  0  0  0  0  0  0  0  0  0
   -1.6520   23.3060  -29.3260 C   0  0  0  0  0  0  0  0  0  0  0  0
   -2.1620   22.0530  -29.7170 C   0  0  0  0  0  0  0  0  0  0  0  0
   -3.4830   21.9300  -30.1480 C   0  0  0  0  0  0  0  0  0  0  0  0
   -4.3190   23.0550  -30.2020 C   0  0  0  0  0  0  0  0  0  0  0  0
   -5.6810   22.9290  -30.6460 N   0  0  0  0  0  0  0  0  0  0  0  0
   -6.7840   23.1210  -29.7050 C   0  0  0  0  0  0  0  0  0  0  0  0
   -6.0400   22.5970  -32.3150 S   0  0  0  0  0  0  0  0  0  0  0  0
   -4.7710   22.3740  -33.0910 O   0  0  0  0  0  0  0  0  0  0  0  0
   -6.7720   23.7720  -32.9000 O   0  0  0  0  0  0  0  0  0  0  0  0
   -7.0130   21.1320  -32.4190 C   0  0  0  0  0  0  0  0  0  0  0  0
   -8.3470   20.9520  -32.1060 C   0  0  0  0  0  0  0  0  0  0  0  0
   -9.2990   21.9820  -31.5950 C   0  0  0  0  0  0  0  0  0  0  0  0
   -8.6780   19.6620  -32.3120 N   0  0  0  0  0  0  0  0  0  0  0  0
   -7.6080   19.0540  -32.7380 O   0  0  0  0  0  0  0  0  0  0  0  0
   -6.5930   19.8820  -32.8240 C   0  0  0  0  0  0  0  0  0  0  0  0
   -5.2180   19.4890  -33.2540 C   0  0  0  0  0  0  0  0  0  0  0  0
   -3.8160   24.3020  -29.8060 C   0  0  0  0  0  0  0  0  0  0  0  0
   -2.4830   24.4350  -29.3700 C   0  0  0  0  0  0  0  0  0  0  0  0
   -1.9500   25.6710  -28.9720 O   0  0  0  0  0  0  0  0  0  0  0  0
   -1.3060   25.9080  -27.7230 C   0  0  0  0  0  0  0  0  0  0  0  0
   -0.0339   23.0980  -26.8742 H   0  0  0  0  0  0  0  0  0  0  0  0
   -0.0345   21.6523  -27.9404 H   0  0  0  0  0  0  0  0  0  0  0  0
    1.3735   22.7677  -27.9404 H   0  0  0  0  0  0  0  0  0  0  0  0
   -1.5140   21.1648  -29.6823 H   0  0  0  0  0  0  0  0  0  0  0  0
   -3.8712   20.9452  -30.4472 H   0  0  0  0  0  0  0  0  0  0  0  0
   -6.4031   23.0547  -28.6752 H   0  0  0  0  0  0  0  0  0  0  0  0
   -7.2352   24.1112  -29.8660 H   0  0  0  0  0  0  0  0  0  0  0  0
   -7.5433   22.3415  -29.8660 H   0  0  0  0  0  0  0  0  0  0  0  0
   -9.2919   21.9743  -30.4950 H   0  0  0  0  0  0  0  0  0  0  0  0
   -8.9938   22.9750  -31.9567 H   0  0  0  0  0  0  0  0  0  0  0  0
  -10.3129   21.7557  -31.9567 H   0  0  0  0  0  0  0  0  0  0  0  0
   -4.5933   19.3104  -32.3664 H   0  0  0  0  0  0  0  0  0  0  0  0
   -5.2708   18.5700  -33.8562 H   0  0  0  0  0  0  0  0  0  0  0  0
   -4.7771   20.2971  -33.8562 H   0  0  0  0  0  0  0  0  0  0  0  0
   -4.4693   25.1865  -29.8360 H   0  0  0  0  0  0  0  0  0  0  0  0
   -1.9933   25.6551  -26.9023 H   0  0  0  0  0  0  0  0  0  0  0  0
   -0.4036   25.2831  -27.6513 H   0  0  0  0  0  0  0  0  0  0  0  0
   -1.0240   26.9688  -27.6513 H   0  0  0  0  0  0  0  0  0  0  0  0
  1  2  1  0
  2  3  1  0
  3  4  2  0
  4  5  1  0
  5  6  2  0
  6  7  1  0
  7  8  1  0
  7  9  1  0
  9 10  2  0
  9 11  2  0
  9 12  1  0
 12 13  1  0
 13 14  1  0
 13 15  2  0
 15 16  1  0
 16 17  1  0
 17 18  1  0
  6 19  1  0
 19 20  2  0
 20 21  1  0
 21 22  1  0
 20  3  1  0
 17 12  2  0
  1 23  1  0
  1 24  1  0
  1 25  1  0
  4 26  1  0
  5 27  1  0
  8 28  1  0
  8 29  1  0
  8 30  1  0
 14 31  1  0
 14 32  1  0
 14 33  1  0
 18 34  1  0
 18 35  1  0
 18 36  1  0
 19 37  1  0
 22 38  1  0
 22 39  1  0
 22 40  1  0
M  END
>  <UniqueID>  (32) 
32

>  <SMILES>  (32) 
COc1ccc(N(C)S(=O)(=O)c2c(C)noc2C)cc1OC

>  <Energy>  (32) 
71.32502440036939

>  <Genealogy>  (32) 
COc1ccc(N(C)S(=O)(=O)c2c(C)noc2C)cc1OC (3D coordinates assigned)
COc1ccc(N(C)S(=O)(=O)c2c(C)noc2C)cc1OC (optimized conformer: 71.32502440036939 kcal/mol)

>  <smiles>  (32) 
COc1ccc(N(C)S(=O)(=O)c2c(C)noc2C)cc1OC

>  <score_type>  (32) 
oracle

>  <origin>  (32) 
adgpu

>  <m_score__min__energy>  (32) 
-7.4199999999999999

>  <m_primary>  (32) 
energy

$$$$
32:0
     RDKit          3D

 58 60  0  0  0  0  0  0  0  0999 V2000
   -5.7870   17.4970  -33.6590 C   0  0  0  0  0  0  0  0  0  0  0  0
   -6.2130   18.9240  -33.5480 C   0  0  0  0  0  0  0  0  0  0  0  0
   -6.3420   19.6140  -34.5960 O   0  0  0  0  0  0  0  0  0  0  0  0
   -6.3980   19.5160  -32.2540 N   0  0  0  0  0  0  0  0  0  0  0  0
   -6.9060   20.8480  -32.0550 C   0  0  0  0  0  0  0  0  0  0  0  0
   -8.2420   21.0340  -31.6630 C   0  0  0  0  0  0  0  0  0  0  0  0
   -8.7360   22.3130  -31.4150 C   0  0  0  0  0  0  0  0  0  0  0  0
   -7.8970   23.4210  -31.5190 C   0  0  0  0  0  0  0  0  0  0  0  0
   -6.5450   23.2610  -31.8670 C   0  0  0  0  0  0  0  0  0  0  0  0
   -5.6750   24.4020  -31.9600 N   0  0  0  0  0  0  0  0  0  0  0  0
   -5.2490   25.2190  -30.8650 C   0  0  0  0  0  0  0  0  0  0  0  0
   -6.0940   25.9450  -30.2770 O   0  0  0  0  0  0  0  0  0  0  0  0
   -3.8630   25.2950  -30.5110 N   0  0  0  0  0  0  0  0  0  0  0  0
   -3.1600   24.3660  -29.6750 C   0  0  0  0  0  0  0  0  0  0  0  0
   -3.6590   23.0730  -29.5630 C   0  0  0  0  0  0  0  0  0  0  0  0
   -3.0110   22.1320  -28.7710 C   0  0  0  0  0  0  0  0  0  0  0  0
   -1.8590   22.4650  -28.0290 C   0  0  0  0  0  0  0  0  0  0  0  0
   -1.1520   21.3530  -27.2720 C   0  0  0  0  0  0  0  0  0  0  0  0
    0.1680   21.2870  -27.6780 F   0  0  0  0  0  0  0  0  0  0  0  0
   -1.2140   21.5680  -25.9100 F   0  0  0  0  0  0  0  0  0  0  0  0
   -1.7260   20.1150  -27.5130 F   0  0  0  0  0  0  0  0  0  0  0  0
   -1.3780   23.8120  -28.0810 C   0  0  0  0  0  0  0  0  0  0  0  0
    0.0060   24.4090  -27.1100 S   0  0  0  0  0  0  0  0  0  0  0  0
    0.5530   23.3520  -26.1950 O   0  0  0  0  0  0  0  0  0  0  0  0
    1.1190   24.7930  -28.0450 O   0  0  0  0  0  0  0  0  0  0  0  0
   -0.4300   25.8470  -26.1120 C   0  0  0  0  0  0  0  0  0  0  0  0
   -0.3190   25.5580  -24.6050 C   0  0  0  0  0  0  0  0  0  0  0  0
   -0.8720   26.7250  -23.7620 C   0  0  0  0  0  0  0  0  0  0  0  0
   -0.7880   28.0910  -24.4720 C   0  0  0  0  0  0  0  0  0  0  0  0
    0.4330   28.1730  -25.3930 C   0  0  0  0  0  0  0  0  0  0  0  0
    0.4170   27.0830  -26.4880 C   0  0  0  0  0  0  0  0  0  0  0  0
   -2.0390   24.7460  -28.9160 C   0  0  0  0  0  0  0  0  0  0  0  0
   -1.5960   26.0640  -28.9740 O   0  0  0  0  0  0  0  0  0  0  0  0
   -6.0530   21.9730  -32.1820 C   0  0  0  0  0  0  0  0  0  0  0  0
   -4.6120   21.7900  -32.5930 C   0  0  0  0  0  0  0  0  0  0  0  0
   -5.6604   17.0728  -32.6520 H   0  0  0  0  0  0  0  0  0  0  0  0
   -6.5540   16.9266  -34.2034 H   0  0  0  0  0  0  0  0  0  0  0  0
   -4.8328   17.4405  -34.2034 H   0  0  0  0  0  0  0  0  0  0  0  0
   -6.0980   18.9660  -31.4180 H   0  0  0  0  0  0  0  0  0  0  0  0
   -8.9038   20.1625  -31.5509 H   0  0  0  0  0  0  0  0  0  0  0  0
   -9.7914   22.4486  -31.1363 H   0  0  0  0  0  0  0  0  0  0  0  0
   -8.2960   24.4280  -31.3273 H   0  0  0  0  0  0  0  0  0  0  0  0
   -4.5739   22.7924  -30.1055 H   0  0  0  0  0  0  0  0  0  0  0  0
   -3.4051   21.1062  -28.7221 H   0  0  0  0  0  0  0  0  0  0  0  0
   -1.4831   26.0729  -26.3354 H   0  0  0  0  0  0  0  0  0  0  0  0
   -0.8908   24.6474  -24.3729 H   0  0  0  0  0  0  0  0  0  0  0  0
    0.7446   25.4274  -24.3567 H   0  0  0  0  0  0  0  0  0  0  0  0
   -1.9271   26.5175  -23.5301 H   0  0  0  0  0  0  0  0  0  0  0  0
   -0.2511   26.7925  -22.8565 H   0  0  0  0  0  0  0  0  0  0  0  0
   -1.6982   28.2382  -25.0718 H   0  0  0  0  0  0  0  0  0  0  0  0
   -0.6931   28.8729  -23.7041 H   0  0  0  0  0  0  0  0  0  0  0  0
    0.4449   29.1606  -25.8773 H   0  0  0  0  0  0  0  0  0  0  0  0
    1.3303   28.0167  -24.7762 H   0  0  0  0  0  0  0  0  0  0  0  0
    0.0052   27.5206  -27.4094 H   0  0  0  0  0  0  0  0  0  0  0  0
    1.4536   26.7386  -26.6181 H   0  0  0  0  0  0  0  0  0  0  0  0
   -3.9819   21.7100  -31.6949 H   0  0  0  0  0  0  0  0  0  0  0  0
   -4.5152   20.8723  -33.1918 H   0  0  0  0  0  0  0  0  0  0  0  0
   -4.2889   22.6543  -33.1918 H   0  0  0  0  0  0  0  0  0  0  0  0
  1  2  1  0
  2  3  2  0
  2  4  1  0
  4  5  1  0
  5  6  2  0
  6  7  1  0
  7  8  2  0
  8  9  1  0
  9 10  1  0
 10 11  1  0
 11 12  2  0
 11 13  1  0
 13 14  1  0
 14 15  2  0
 15 16  1  0
 16 17  2  0
 17 18  1  0
 18 19  1  0
 18 20  1  0
 18 21  1  0
 17 22  1  0
 22 23  1  0
 23 24  2  0
 23 25  2  0
 23 26  1  0
 26 27  1  0
 27 28  1  0
 28 29  1  0
 29 30  1  0
 30 31  1  0
 22 32  2  0
 32 33  1  0
  9 34  2  0
 34 35  1  0
 34  5  1  0
 32 14  1  0
 31 26  1  0
  1 36  1  0
  1 37  1  0
  1 38  1  0
  4 39  1  0
  6 40  1  0
  7 41  1  0
  8 42  1  0
 15 43  1  0
 16 44  1  0
 26 45  1  0
 27 46  1  0
 27 47  1  0
 28 48  1  0
 28 49  1  0
 29 50  1  0
 29 51  1  0
 30 52  1  0
 30 53  1  0
 31 54  1  0
 31 55  1  0
 35 56  1  0
 35 57  1  0
 35 58  1  0
M  CHG  3  10  -1  13  -1  33  -1
M  END
>  <UniqueID>  (33) 
33

>  <SMILES>  (33) 
CC(=O)Nc1cccc([N-]C(=O)[N-]c2ccc(C(F)(F)F)c(S(=O)(=O)C3CCCCC3)c2[O-])c1C

>  <Energy>  (33) 
80.05764620731117

>  <Genealogy>  (33) 
CC(=O)Nc1cccc([N-]C(=O)[N-]c2ccc(C(F)(F)F)c(S(=O)(=O)C3CCCCC3)c2[O-])c1C (protonated)
CC(=O)Nc1cccc([N-]C(=O)[N-]c2ccc(C(F)(F)F)c(S(=O)(=O)C3CCCCC3)c2[O-])c1C (3D coordinates assigned)
CC(=O)Nc1cccc([N-]C(=O)[N-]c2ccc(C(F)(F)F)c(S(=O)(=O)C3CCCCC3)c2[O-])c1C (nonaromatic ring conformer: 80.05764620731117 kcal/mol)

>  <smiles>  (33) 
CC(=O)Nc1cccc(NC(=O)Nc2ccc(C(F)(F)F)c(S(=O)(=O)C3CCCCC3)c2O)c1C

>  <score_type>  (33) 
oracle

>  <origin>  (33) 
adgpu

>  <m_score__min__energy>  (33) 
-16.239999999999998

>  <m_primary>  (33) 
energy

$$$$
33:0
     RDKit          3D

 29 30  0  0  0  0  0  0  0  0999 V2000
   -7.8840   23.4300  -32.6430 O   0  0  0  0  0  0  0  0  0  0  0  0
   -7.9190   23.1160  -31.4210 C   0  0  0  0  0  0  0  0  0  0  0  0
   -8.5160   21.8800  -31.0150 N   0  0  0  0  0  0  0  0  0  0  0  0
   -9.1100   20.9410  -31.9620 C   0  0  0  0  0  0  0  0  0  0  0  0
   -8.0990   19.9030  -32.3710 C   0  0  0  0  0  0  0  0  0  0  0  0
   -8.2270   18.5700  -31.9450 C   0  0  0  0  0  0  0  0  0  0  0  0
   -7.2950   17.6100  -32.3470 C   0  0  0  0  0  0  0  0  0  0  0  0
   -6.2320   17.9700  -33.1800 C   0  0  0  0  0  0  0  0  0  0  0  0
   -6.1000   19.2930  -33.6120 C   0  0  0  0  0  0  0  0  0  0  0  0
   -7.0310   20.2570  -33.2120 C   0  0  0  0  0  0  0  0  0  0  0  0
   -7.3300   23.9390  -30.4520 O   0  0  0  0  0  0  0  0  0  0  0  0
   -5.9590   24.0010  -30.1630 C   0  0  0  0  0  0  0  0  0  0  0  0
   -5.3090   23.0490  -29.3580 C   0  0  0  0  0  0  0  0  0  0  0  0
   -3.9390   23.1590  -29.1180 C   0  0  0  0  0  0  0  0  0  0  0  0
   -3.2250   24.2120  -29.6920 C   0  0  0  0  0  0  0  0  0  0  0  0
   -3.8630   25.1140  -30.4840 N   0  0  0  0  0  0  0  0  0  0  0  0
   -5.1980   25.0280  -30.7320 C   0  0  0  0  0  0  0  0  0  0  0  0
   -8.5390   21.6480  -29.9960 H   0  0  0  0  0  0  0  0  0  0  0  0
   -9.9699   20.4438  -31.4894 H   0  0  0  0  0  0  0  0  0  0  0  0
   -9.4384   21.4926  -32.8552 H   0  0  0  0  0  0  0  0  0  0  0  0
   -9.0642   18.2813  -31.2925 H   0  0  0  0  0  0  0  0  0  0  0  0
   -7.3980   16.5689  -32.0073 H   0  0  0  0  0  0  0  0  0  0  0  0
   -5.4994   17.2125  -33.4956 H   0  0  0  0  0  0  0  0  0  0  0  0
   -5.2630   19.5761  -34.2672 H   0  0  0  0  0  0  0  0  0  0  0  0
   -6.9265   21.2962  -33.5572 H   0  0  0  0  0  0  0  0  0  0  0  0
   -5.8801   22.2182  -28.9178 H   0  0  0  0  0  0  0  0  0  0  0  0
   -3.4262   22.4224  -28.4821 H   0  0  0  0  0  0  0  0  0  0  0  0
   -2.1459   24.3120  -29.5035 H   0  0  0  0  0  0  0  0  0  0  0  0
   -5.6819   25.7703  -31.3837 H   0  0  0  0  0  0  0  0  0  0  0  0
  1  2  2  0
  2  3  1  0
  3  4  1  0
  4  5  1  0
  5  6  2  0
  6  7  1  0
  7  8  2  0
  8  9  1  0
  9 10  2  0
  2 11  1  0
 11 12  1  0
 12 13  2  0
 13 14  1  0
 14 15  2  0
 15 16  1  0
 16 17  2  0
 10  5  1  0
 17 12  1  0
  3 18  1  0
  4 19  1  0
  4 20  1  0
  6 21  1  0
  7 22  1  0
  8 23  1  0
  9 24  1  0
 10 25  1  0
 13 26  1  0
 14 27  1  0
 15 28  1  0
 17 29  1  0
M  END
>  <UniqueID>  (34) 
34

>  <SMILES>  (34) 
O=C(NCc1ccccc1)Oc1cccnc1

>  <Energy>  (34) 
32.05116067719862

>  <Genealogy>  (34) 
O=C(NCc1ccccc1)Oc1cccnc1 (3D coordinates assigned)
O=C(NCc1ccccc1)Oc1cccnc1 (optimized conformer: 32.05116067719862 kcal/mol)

>  <smiles>  (34) 
O=C(NCc1ccccc1)Oc1cccnc1

>  <score_type>  (34) 
oracle

>  <origin>  (34) 
adgpu

>  <m_score__min__energy>  (34) 
-6.6500000000000004

>  <m_primary>  (34) 
energy

$$$$
34:0
     RDKit          3D

 54 57  0  0  0  0  0  0  0  0999 V2000
   -5.7510   19.2486  -34.8145 H   0  0  0  0  0  0  0  0  0  0  0  0
   -5.4180   19.6450  -33.8440 C   0  0  0  0  0  0  0  0  0  0  0  0
   -6.3520   19.9120  -32.8400 C   0  0  0  0  0  0  0  0  0  0  0  0
   -7.4210   19.7276  -33.0224 H   0  0  0  0  0  0  0  0  0  0  0  0
   -5.9320   20.4130  -31.6040 C   0  0  0  0  0  0  0  0  0  0  0  0
   -6.6732   20.6316  -30.8212 H   0  0  0  0  0  0  0  0  0  0  0  0
   -4.5640   20.6390  -31.3570 C   0  0  0  0  0  0  0  0  0  0  0  0
   -4.0970   21.1460  -30.0920 N   0  0  0  0  0  0  0  0  0  0  0  0
   -4.1080   20.5100  -29.2620 H   0  0  0  0  0  0  0  0  0  0  0  0
   -3.5150   22.4510  -29.9220 C   0  0  0  0  0  0  0  0  0  0  0  0
   -4.2110   23.6110  -30.3250 C   0  0  0  0  0  0  0  0  0  0  0  0
   -5.5810   23.5250  -30.8880 C   0  0  0  0  0  0  0  0  0  0  0  0
   -5.7530   23.6610  -32.1300 O   0  0  0  0  0  0  0  0  0  0  0  0
   -6.7720   23.2640  -30.0190 C   0  0  0  0  0  0  0  0  0  0  0  0
   -6.4757   23.3289  -28.9617 H   0  0  0  0  0  0  0  0  0  0  0  0
   -7.5499   24.0130  -30.2285 H   0  0  0  0  0  0  0  0  0  0  0  0
   -7.1654   22.2583  -30.2285 H   0  0  0  0  0  0  0  0  0  0  0  0
   -3.5920   24.8600  -30.1240 C   0  0  0  0  0  0  0  0  0  0  0  0
   -4.2360   26.0400  -30.4750 O   0  0  0  0  0  0  0  0  0  0  0  0
   -2.3870   24.9340  -29.5720 O   0  0  0  0  0  0  0  0  0  0  0  0
   -1.7080   23.8680  -29.1670 C   0  0  0  0  0  0  0  0  0  0  0  0
   -0.5630   24.0300  -28.6670 O   0  0  0  0  0  0  0  0  0  0  0  0
   -2.2530   22.5780  -29.3080 C   0  0  0  0  0  0  0  0  0  0  0  0
   -1.5100   21.3840  -28.8320 C   0  0  0  0  0  0  0  0  0  0  0  0
   -2.0430   20.6210  -27.9830 O   0  0  0  0  0  0  0  0  0  0  0  0
   -0.2150   21.0470  -29.3480 N   0  0  0  0  0  0  0  0  0  0  0  0
    0.0740   20.7230  -30.7160 C   0  0  0  0  0  0  0  0  0  0  0  0
   -0.5600   21.4430  -31.7350 C   0  0  0  0  0  0  0  0  0  0  0  0
   -1.3008   22.2154  -31.4809 H   0  0  0  0  0  0  0  0  0  0  0  0
   -0.2550   21.1840  -33.0760 C   0  0  0  0  0  0  0  0  0  0  0  0
   -0.7488   21.7605  -33.8721 H   0  0  0  0  0  0  0  0  0  0  0  0
    0.6770   20.1930  -33.4070 C   0  0  0  0  0  0  0  0  0  0  0  0
    1.1390   19.9190  -35.0840 S   0  0  0  0  0  0  0  0  0  0  0  0
    1.8380   18.5920  -35.1880 O   0  0  0  0  0  0  0  0  0  0  0  0
   -0.0760   19.9080  -35.9710 O   0  0  0  0  0  0  0  0  0  0  0  0
    2.2120   21.1760  -35.6100 N   0  0  0  0  0  0  0  0  0  0  0  0
    1.8470   22.4160  -35.7340 C   0  0  0  0  0  0  0  0  0  0  0  0
    0.6070   22.8770  -35.4750 N   0  0  0  0  0  0  0  0  0  0  0  0
    0.6460   24.1610  -35.6860 O   0  0  0  0  0  0  0  0  0  0  0  0
    1.8450   24.5420  -36.0670 C   0  0  0  0  0  0  0  0  0  0  0  0
    2.2260   25.9490  -36.3850 C   0  0  0  0  0  0  0  0  0  0  0  0
    2.3774   26.5081  -35.4499 H   0  0  0  0  0  0  0  0  0  0  0  0
    3.1577   25.9534  -36.9698 H   0  0  0  0  0  0  0  0  0  0  0  0
    1.4238   26.4229  -36.9698 H   0  0  0  0  0  0  0  0  0  0  0  0
    2.6780   23.4430  -36.1200 C   0  0  0  0  0  0  0  0  0  0  0  0
    3.7407   23.3988  -36.4006 H   0  0  0  0  0  0  0  0  0  0  0  0
    1.2680   19.4310  -32.3900 C   0  0  0  0  0  0  0  0  0  0  0  0
    1.9724   18.6260  -32.6465 H   0  0  0  0  0  0  0  0  0  0  0  0
    0.9650   19.6910  -31.0520 C   0  0  0  0  0  0  0  0  0  0  0  0
    1.4260   19.0851  -30.2581 H   0  0  0  0  0  0  0  0  0  0  0  0
   -3.6350   20.3770  -32.3780 C   0  0  0  0  0  0  0  0  0  0  0  0
   -2.5649   20.5627  -32.2035 H   0  0  0  0  0  0  0  0  0  0  0  0
   -4.0610   19.8820  -33.6140 C   0  0  0  0  0  0  0  0  0  0  0  0
   -3.3261   19.6788  -34.4068 H   0  0  0  0  0  0  0  0  0  0  0  0
  1  2  1  0
  2  3  2  0
  3  4  1  0
  3  5  1  0
  5  6  1  0
  5  7  2  0
  7  8  1  0
  8  9  1  0
  8 10  1  0
 10 11  1  0
 11 12  1  0
 12 13  2  0
 12 14  1  0
 14 15  1  0
 14 16  1  0
 14 17  1  0
 11 18  2  0
 18 19  1  0
 18 20  1  0
 20 21  1  0
 21 22  2  0
 21 23  1  0
 23 24  1  0
 24 25  2  0
 24 26  1  0
 26 27  1  0
 27 28  2  0
 28 29  1  0
 28 30  1  0
 30 31  1  0
 30 32  2  0
 32 33  1  0
 33 34  2  0
 33 35  2  0
 33 36  1  0
 36 37  2  0
 37 38  1  0
 38 39  1  0
 39 40  1  0
 40 41  1  0
 41 42  1  0
 41 43  1  0
 41 44  1  0
 40 45  2  0
 45 46  1  0
 32 47  1  0
 47 48  1  0
 47 49  2  0
 49 50  1  0
  7 51  1  0
 51 52  1  0
 51 53  2  0
 53 54  1  0
 53  2  1  0
 23 10  2  0
 49 27  1  0
 45 37  1  0
M  CHG  3  19  -1  26  -1  38  -1
M  END
>  <UniqueID>  (35) 
35

>  <SMILES>  (35) 
CC(=O)c1c([O-])oc(=O)c(C(=O)[N-]c2ccc(S(=O)(=O)/N=c3/cc(C)o[n-]3)cc2)c1Nc1ccccc1

>  <Energy>  (35) 
112.65557071761113

>  <Genealogy>  (35) 
CC(=O)c1c([O-])oc(=O)c(C(=O)[N-]c2ccc(S(=O)(=O)N=c3cc(C)o[n-]3)cc2)c1Nc1ccccc1 (protonated)
CC(=O)c1c([O-])oc(=O)c(C(=O)[N-]c2ccc(S(=O)(=O)/N=c3/cc(C)o[n-]3)cc2)c1Nc1ccccc1 (cis-trans isomerization)
CC(=O)c1c([O-])oc(=O)c(C(=O)[N-]c2ccc(S(=O)(=O)/N=c3/cc(C)o[n-]3)cc2)c1Nc1ccccc1 (3D coordinates assigned)
CC(=O)c1c([O-])oc(=O)c(C(=O)[N-]c2ccc(S(=O)(=O)/N=c3/cc(C)o[n-]3)cc2)c1Nc1ccccc1 (optimized conformer: 112.65557071761113 kcal/mol)

>  <smiles>  (35) 
CC(=O)c1c(O)oc(=O)c(C(=O)Nc2ccc(S(=O)(=O)N=c3cc(C)o[nH]3)cc2)c1Nc1ccccc1

>  <score_type>  (35) 
oracle

>  <origin>  (35) 
adgpu

>  <m_score__min__energy>  (35) 
-13.52

>  <m_primary>  (35) 
energy

$$$$
35:0
     RDKit          3D

 37 39  0  0  0  0  0  0  0  0999 V2000
   -2.5350   21.5310  -31.5500 Cl  0  0  0  0  0  0  0  0  0  0  0  0
   -1.8520   22.3790  -30.1650 C   0  0  0  0  0  0  0  0  0  0  0  0
   -0.6260   21.9070  -29.6760 C   0  0  0  0  0  0  0  0  0  0  0  0
   -0.0110   22.5220  -28.5860 C   0  0  0  0  0  0  0  0  0  0  0  0
   -0.6160   23.6160  -27.9720 C   0  0  0  0  0  0  0  0  0  0  0  0
   -1.8370   24.0990  -28.4450 C   0  0  0  0  0  0  0  0  0  0  0  0
   -2.4770   23.4930  -29.5440 C   0  0  0  0  0  0  0  0  0  0  0  0
   -3.7640   24.0690  -30.0080 C   0  0  0  0  0  0  0  0  0  0  0  0
   -4.9400   23.4040  -30.0290 N   0  0  0  0  0  0  0  0  0  0  0  0
   -5.7940   24.2950  -30.5670 C   0  0  0  0  0  0  0  0  0  0  0  0
   -7.2460   24.0200  -30.8410 C   0  0  0  0  0  0  0  0  0  0  0  0
   -7.6160   22.6190  -30.5630 N   0  0  0  0  0  0  0  0  0  0  0  0
   -8.4530   22.0090  -31.6150 C   0  0  0  0  0  0  0  0  0  0  0  0
   -7.9650   20.6350  -32.0160 C   0  0  0  0  0  0  0  0  0  0  0  0
   -6.8200   20.4970  -32.8190 C   0  0  0  0  0  0  0  0  0  0  0  0
   -6.4030   19.2310  -33.2400 C   0  0  0  0  0  0  0  0  0  0  0  0
   -7.1200   18.0930  -32.8570 C   0  0  0  0  0  0  0  0  0  0  0  0
   -8.2480   18.2210  -32.0430 C   0  0  0  0  0  0  0  0  0  0  0  0
   -8.6690   19.4850  -31.6180 C   0  0  0  0  0  0  0  0  0  0  0  0
   -5.1280   25.4690  -30.8280 C   0  0  0  0  0  0  0  0  0  0  0  0
   -3.8790   25.2950  -30.4760 O   0  0  0  0  0  0  0  0  0  0  0  0
   -0.1443   21.0429  -30.1569 H   0  0  0  0  0  0  0  0  0  0  0  0
    0.9514   22.1433  -28.2113 H   0  0  0  0  0  0  0  0  0  0  0  0
   -0.1303   24.1005  -27.1122 H   0  0  0  0  0  0  0  0  0  0  0  0
   -2.3057   24.9641  -27.9533 H   0  0  0  0  0  0  0  0  0  0  0  0
   -7.8562   24.6791  -30.2059 H   0  0  0  0  0  0  0  0  0  0  0  0
   -7.4270   24.2087  -31.9095 H   0  0  0  0  0  0  0  0  0  0  0  0
   -8.1760   22.6160  -29.6780 H   0  0  0  0  0  0  0  0  0  0  0  0
   -6.7630   22.0410  -30.3790 H   0  0  0  0  0  0  0  0  0  0  0  0
   -9.4836   21.9224  -31.2404 H   0  0  0  0  0  0  0  0  0  0  0  0
   -8.3998   22.6560  -32.5030 H   0  0  0  0  0  0  0  0  0  0  0  0
   -6.2496   21.3889  -33.1175 H   0  0  0  0  0  0  0  0  0  0  0  0
   -5.5095   19.1297  -33.8735 H   0  0  0  0  0  0  0  0  0  0  0  0
   -6.7960   17.0981  -33.1964 H   0  0  0  0  0  0  0  0  0  0  0  0
   -8.8068   17.3248  -31.7354 H   0  0  0  0  0  0  0  0  0  0  0  0
   -9.5533   19.5797  -30.9706 H   0  0  0  0  0  0  0  0  0  0  0  0
   -5.5638   26.3849  -31.2537 H   0  0  0  0  0  0  0  0  0  0  0  0
  1  2  1  0
  2  3  2  0
  3  4  1  0
  4  5  2  0
  5  6  1  0
  6  7  2  0
  7  8  1  0
  8  9  2  0
  9 10  1  0
 10 11  1  0
 11 12  1  0
 12 13  1  0
 13 14  1  0
 14 15  2  0
 15 16  1  0
 16 17  2  0
 17 18  1  0
 18 19  2  0
 10 20  2  0
 20 21  1  0
  7  2  1  0
 21  8  1  0
 19 14  1  0
  3 22  1  0
  4 23  1  0
  5 24  1  0
  6 25  1  0
 11 26  1  0
 11 27  1  0
 12 28  1  0
 12 29  1  0
 13 30  1  0
 13 31  1  0
 15 32  1  0
 16 33  1  0
 17 34  1  0
 18 35  1  0
 19 36  1  0
 20 37  1  0
M  CHG  1  12   1
M  END
>  <UniqueID>  (36) 
36

>  <SMILES>  (36) 
Clc1ccccc1-c1nc(C[NH2+]Cc2ccccc2)co1

>  <Energy>  (36) 
69.51385787728819

>  <Genealogy>  (36) 
Clc1ccccc1-c1nc(C[NH2+]Cc2ccccc2)co1 (protonated)
Clc1ccccc1-c1nc(C[NH2+]Cc2ccccc2)co1 (3D coordinates assigned)
Clc1ccccc1-c1nc(C[NH2+]Cc2ccccc2)co1 (optimized conformer: 69.51385787728819 kcal/mol)

>  <smiles>  (36) 
Clc1ccccc1-c1nc(CNCc2ccccc2)co1

>  <score_type>  (36) 
oracle

>  <origin>  (36) 
adgpu

>  <m_score__min__energy>  (36) 
-7.3799999999999999

>  <m_primary>  (36) 
energy

$$$$
36:0
     RDKit          3D

 36 37  0  0  0  0  0  0  0  0999 V2000
   -3.0440   18.0170  -32.5480 O   0  0  0  0  0  0  0  0  0  0  0  0
   -3.2070   19.3910  -33.1360 S   0  0  0  0  0  0  0  0  0  0  0  0
   -3.0510   19.2900  -34.6280 O   0  0  0  0  0  0  0  0  0  0  0  0
   -1.9850   20.4590  -32.5070 N   0  0  0  0  0  0  0  0  0  0  0  0
   -1.6560   20.1310  -31.1190 C   0  0  0  0  0  0  0  0  0  0  0  0
   -2.7050   20.7140  -30.1690 C   0  0  0  0  0  0  0  0  0  0  0  0
   -2.4060   22.1600  -29.8770 C   0  0  0  0  0  0  0  0  0  0  0  0
   -1.2530   22.5100  -29.1580 C   0  0  0  0  0  0  0  0  0  0  0  0
   -0.9910   23.8490  -28.8550 C   0  0  0  0  0  0  0  0  0  0  0  0
   -1.8840   24.8470  -29.2560 C   0  0  0  0  0  0  0  0  0  0  0  0
   -1.6150   26.1760  -28.9500 O   0  0  0  0  0  0  0  0  0  0  0  0
   -3.0450   24.5080  -29.9610 C   0  0  0  0  0  0  0  0  0  0  0  0
   -3.9340   25.5080  -30.3520 O   0  0  0  0  0  0  0  0  0  0  0  0
   -3.3080   23.1640  -30.2660 C   0  0  0  0  0  0  0  0  0  0  0  0
   -4.8120   20.0220  -32.7710 C   0  0  0  0  0  0  0  0  0  0  0  0
   -4.9920   21.3960  -32.5990 C   0  0  0  0  0  0  0  0  0  0  0  0
   -6.2550   21.9050  -32.2910 C   0  0  0  0  0  0  0  0  0  0  0  0
   -7.3510   21.0470  -32.1470 C   0  0  0  0  0  0  0  0  0  0  0  0
   -9.0480   21.8360  -31.7200 Br  0  0  0  0  0  0  0  0  0  0  0  0
   -7.1840   19.6520  -32.3120 C   0  0  0  0  0  0  0  0  0  0  0  0
   -8.3560   18.7070  -32.1510 C   0  0  0  0  0  0  0  0  0  0  0  0
   -9.3560   19.0500  -33.0420 F   0  0  0  0  0  0  0  0  0  0  0  0
   -8.8460   18.7910  -30.8600 F   0  0  0  0  0  0  0  0  0  0  0  0
   -7.9950   17.3920  -32.3910 F   0  0  0  0  0  0  0  0  0  0  0  0
   -5.9030   19.1530  -32.6250 C   0  0  0  0  0  0  0  0  0  0  0  0
   -1.6289   19.0376  -31.0018 H   0  0  0  0  0  0  0  0  0  0  0  0
   -0.6742   20.5623  -30.8739 H   0  0  0  0  0  0  0  0  0  0  0  0
   -3.6983   20.6367  -30.6352 H   0  0  0  0  0  0  0  0  0  0  0  0
   -2.6839   20.1488  -29.2256 H   0  0  0  0  0  0  0  0  0  0  0  0
   -0.5524   21.7273  -28.8315 H   0  0  0  0  0  0  0  0  0  0  0  0
   -0.0803   24.1181  -28.2999 H   0  0  0  0  0  0  0  0  0  0  0  0
   -3.8700   26.4490  -29.9810 H   0  0  0  0  0  0  0  0  0  0  0  0
   -4.2244   22.8954  -30.8120 H   0  0  0  0  0  0  0  0  0  0  0  0
   -4.1365   22.0791  -32.7065 H   0  0  0  0  0  0  0  0  0  0  0  0
   -6.3896   22.9889  -32.1605 H   0  0  0  0  0  0  0  0  0  0  0  0
   -5.7578   18.0705  -32.7561 H   0  0  0  0  0  0  0  0  0  0  0  0
  1  2  2  0
  2  3  2  0
  2  4  1  0
  4  5  1  0
  5  6  1  0
  6  7  1  0
  7  8  2  0
  8  9  1  0
  9 10  2  0
 10 11  1  0
 10 12  1  0
 12 13  1  0
 12 14  2  0
  2 15  1  0
 15 16  2  0
 16 17  1  0
 17 18  2  0
 18 19  1  0
 18 20  1  0
 20 21  1  0
 21 22  1  0
 21 23  1  0
 21 24  1  0
 20 25  2  0
 14  7  1  0
 25 15  1  0
  5 26  1  0
  5 27  1  0
  6 28  1  0
  6 29  1  0
  8 30  1  0
  9 31  1  0
 13 32  1  0
 14 33  1  0
 16 34  1  0
 17 35  1  0
 25 36  1  0
M  CHG  2   4  -1  11  -1
M  END
>  <UniqueID>  (37) 
37

>  <SMILES>  (37) 
O=S(=O)([N-]CCc1ccc([O-])c(O)c1)c1ccc(Br)c(C(F)(F)F)c1

>  <Energy>  (37) 
35.79996125913338

>  <Genealogy>  (37) 
O=S(=O)([N-]CCc1ccc([O-])c(O)c1)c1ccc(Br)c(C(F)(F)F)c1 (protonated)
O=S(=O)([N-]CCc1ccc([O-])c(O)c1)c1ccc(Br)c(C(F)(F)F)c1 (3D coordinates assigned)
O=S(=O)([N-]CCc1ccc([O-])c(O)c1)c1ccc(Br)c(C(F)(F)F)c1 (optimized conformer: 35.79996125913338 kcal/mol)

>  <smiles>  (37) 
O=S(=O)(NCCc1ccc(O)c(O)c1)c1ccc(Br)c(C(F)(F)F)c1

>  <score_type>  (37) 
oracle

>  <origin>  (37) 
adgpu

>  <m_score__min__energy>  (37) 
-11.130000000000001

>  <m_primary>  (37) 
energy

$$$$
37:0
     RDKit          3D

 44 47  0  0  0  0  0  0  0  0999 V2000
   -7.1660   15.7890  -34.2590 C   0  0  0  0  0  0  0  0  0  0  0  0
   -6.0170   16.7070  -33.9910 C   0  0  0  0  0  0  0  0  0  0  0  0
   -4.5800   16.7030  -34.8840 S   0  0  0  0  0  0  0  0  0  0  0  0
   -3.8740   17.9380  -34.0020 C   0  0  0  0  0  0  0  0  0  0  0  0
   -2.6490   18.4660  -34.2010 N   0  0  0  0  0  0  0  0  0  0  0  0
   -2.2120   19.4790  -33.4000 C   0  0  0  0  0  0  0  0  0  0  0  0
   -0.8760   20.0500  -33.6830 C   0  0  0  0  0  0  0  0  0  0  0  0
    0.2890   19.4340  -33.1940 C   0  0  0  0  0  0  0  0  0  0  0  0
    1.5440   19.9870  -33.4640 C   0  0  0  0  0  0  0  0  0  0  0  0
    1.6460   21.1630  -34.2130 C   0  0  0  0  0  0  0  0  0  0  0  0
    0.4910   21.7930  -34.6850 C   0  0  0  0  0  0  0  0  0  0  0  0
    0.5920   22.9660  -35.4230 O   0  0  0  0  0  0  0  0  0  0  0  0
   -0.7670   21.2430  -34.4160 C   0  0  0  0  0  0  0  0  0  0  0  0
   -3.0140   19.9450  -32.3710 N   0  0  0  0  0  0  0  0  0  0  0  0
   -2.5270   20.9480  -31.4540 C   0  0  0  0  0  0  0  0  0  0  0  0
   -3.1600   22.1970  -31.3700 C   0  0  0  0  0  0  0  0  0  0  0  0
   -2.6760   23.1740  -30.4960 C   0  0  0  0  0  0  0  0  0  0  0  0
   -1.5540   22.9140  -29.6970 C   0  0  0  0  0  0  0  0  0  0  0  0
   -0.9500   24.1420  -28.5910 S   0  0  0  0  0  0  0  0  0  0  0  0
   -1.6480   25.6700  -28.9950 N   0  0  0  0  0  0  0  0  0  0  0  0
   -1.3150   23.7790  -27.1790 O   0  0  0  0  0  0  0  0  0  0  0  0
    0.5470   24.2300  -28.6950 O   0  0  0  0  0  0  0  0  0  0  0  0
   -0.9290   21.6610  -29.7680 C   0  0  0  0  0  0  0  0  0  0  0  0
   -1.4130   20.6830  -30.6420 C   0  0  0  0  0  0  0  0  0  0  0  0
   -4.2670   19.4080  -32.1700 C   0  0  0  0  0  0  0  0  0  0  0  0
   -4.9950   19.8240  -31.2260 O   0  0  0  0  0  0  0  0  0  0  0  0
   -4.7180   18.3810  -33.0090 C   0  0  0  0  0  0  0  0  0  0  0  0
   -5.9490   17.6890  -32.9880 C   0  0  0  0  0  0  0  0  0  0  0  0
   -7.0560   17.9640  -32.0070 C   0  0  0  0  0  0  0  0  0  0  0  0
   -7.5931   15.4478  -33.3044 H   0  0  0  0  0  0  0  0  0  0  0  0
   -7.9358   16.3236  -34.8349 H   0  0  0  0  0  0  0  0  0  0  0  0
   -6.8146   14.9202  -34.8349 H   0  0  0  0  0  0  0  0  0  0  0  0
    0.2128   18.5134  -32.5967 H   0  0  0  0  0  0  0  0  0  0  0  0
    2.4530   19.4960  -33.0865 H   0  0  0  0  0  0  0  0  0  0  0  0
    2.6350   21.5924  -34.4308 H   0  0  0  0  0  0  0  0  0  0  0  0
   -1.6744   21.7470  -34.7801 H   0  0  0  0  0  0  0  0  0  0  0  0
   -4.0406   22.4081  -31.9944 H   0  0  0  0  0  0  0  0  0  0  0  0
   -3.1775   24.1511  -30.4348 H   0  0  0  0  0  0  0  0  0  0  0  0
   -1.2420   25.9580  -29.9140 H   0  0  0  0  0  0  0  0  0  0  0  0
   -0.0556   21.4469  -29.1345 H   0  0  0  0  0  0  0  0  0  0  0  0
   -0.9188   19.7016  -30.6936 H   0  0  0  0  0  0  0  0  0  0  0  0
   -6.6695   17.8680  -30.9816 H   0  0  0  0  0  0  0  0  0  0  0  0
   -7.4374   18.9842  -32.1611 H   0  0  0  0  0  0  0  0  0  0  0  0
   -7.8705   17.2409  -32.1611 H   0  0  0  0  0  0  0  0  0  0  0  0
  1  2  1  0
  2  3  1  0
  3  4  1  0
  4  5  1  0
  5  6  2  0
  6  7  1  0
  7  8  2  0
  8  9  1  0
  9 10  2  0
 10 11  1  0
 11 12  1  0
 11 13  2  0
  6 14  1  0
 14 15  1  0
 15 16  2  0
 16 17  1  0
 17 18  2  0
 18 19  1  0
 19 20  1  0
 19 21  2  0
 19 22  2  0
 18 23  1  0
 23 24  2  0
 14 25  1  0
 25 26  2  0
 25 27  1  0
 27 28  1  0
 28 29  1  0
 28  2  2  0
 27  4  2  0
 13  7  1  0
 24 15  1  0
  1 30  1  0
  1 31  1  0
  1 32  1  0
  8 33  1  0
  9 34  1  0
 10 35  1  0
 13 36  1  0
 16 37  1  0
 17 38  1  0
 20 39  1  0
 23 40  1  0
 24 41  1  0
 29 42  1  0
 29 43  1  0
 29 44  1  0
M  CHG  2  12  -1  20  -1
M  END
>  <UniqueID>  (38) 
38

>  <SMILES>  (38) 
Cc1sc2nc(-c3cccc([O-])c3)n(-c3ccc(S([NH-])(=O)=O)cc3)c(=O)c2c1C

>  <Energy>  (38) 
96.71565842324289

>  <Genealogy>  (38) 
Cc1sc2nc(-c3cccc([O-])c3)n(-c3ccc(S([NH-])(=O)=O)cc3)c(=O)c2c1C (protonated)
Cc1sc2nc(-c3cccc([O-])c3)n(-c3ccc(S([NH-])(=O)=O)cc3)c(=O)c2c1C (3D coordinates assigned)
Cc1sc2nc(-c3cccc([O-])c3)n(-c3ccc(S([NH-])(=O)=O)cc3)c(=O)c2c1C (optimized conformer: 96.71565842324289 kcal/mol)

>  <smiles>  (38) 
Cc1sc2nc(-c3cccc(O)c3)n(-c3ccc(S(N)(=O)=O)cc3)c(=O)c2c1C

>  <score_type>  (38) 
oracle

>  <origin>  (38) 
adgpu

>  <m_score__min__energy>  (38) 
-11.470000000000001

>  <m_primary>  (38) 
energy

$$$$
38:0
     RDKit          3D

 35 36  0  0  0  0  0  0  0  0999 V2000
   -9.4000   21.8520  -31.9110 C   0  0  0  0  0  0  0  0  0  0  0  0
   -8.6070   20.5920  -32.0980 C   0  0  0  0  0  0  0  0  0  0  0  0
   -9.1510   19.3540  -31.7300 C   0  0  0  0  0  0  0  0  0  0  0  0
   -8.4300   18.1770  -31.9470 C   0  0  0  0  0  0  0  0  0  0  0  0
   -7.1650   18.2270  -32.5350 C   0  0  0  0  0  0  0  0  0  0  0  0
   -6.6040   19.4620  -32.9080 C   0  0  0  0  0  0  0  0  0  0  0  0
   -5.3160   19.5360  -33.5430 N   0  0  0  0  0  0  0  0  0  0  0  0
   -4.2680   20.4210  -33.1200 C   0  0  0  0  0  0  0  0  0  0  0  0
   -2.7460   20.1590  -33.6730 S   0  0  0  0  0  0  0  0  0  0  0  0
   -4.5950   21.6710  -32.4910 N   0  0  0  0  0  0  0  0  0  0  0  0
   -3.7410   22.3570  -31.5590 C   0  0  0  0  0  0  0  0  0  0  0  0
   -4.2430   23.4540  -30.8440 C   0  0  0  0  0  0  0  0  0  0  0  0
   -3.4390   24.1190  -29.9130 C   0  0  0  0  0  0  0  0  0  0  0  0
   -2.1270   23.6880  -29.6780 C   0  0  0  0  0  0  0  0  0  0  0  0
   -1.1210   24.5170  -28.4940 S   0  0  0  0  0  0  0  0  0  0  0  0
   -1.2980   26.2240  -28.6880 N   0  0  0  0  0  0  0  0  0  0  0  0
   -1.5380   24.1210  -27.1060 O   0  0  0  0  0  0  0  0  0  0  0  0
    0.3190   24.1340  -28.6940 O   0  0  0  0  0  0  0  0  0  0  0  0
   -1.6310   22.5750  -30.3680 C   0  0  0  0  0  0  0  0  0  0  0  0
   -2.4330   21.9090  -31.3000 C   0  0  0  0  0  0  0  0  0  0  0  0
   -7.3430   20.6370  -32.7060 C   0  0  0  0  0  0  0  0  0  0  0  0
   -9.5249   22.0505  -30.8363 H   0  0  0  0  0  0  0  0  0  0  0  0
   -8.8681   22.6930  -32.3798 H   0  0  0  0  0  0  0  0  0  0  0  0
  -10.3883   21.7362  -32.3798 H   0  0  0  0  0  0  0  0  0  0  0  0
  -10.1487   19.3088  -31.2689 H   0  0  0  0  0  0  0  0  0  0  0  0
   -8.8605   17.2082  -31.6536 H   0  0  0  0  0  0  0  0  0  0  0  0
   -6.6042   17.2965  -32.7075 H   0  0  0  0  0  0  0  0  0  0  0  0
   -5.1400   18.9260  -34.3740 H   0  0  0  0  0  0  0  0  0  0  0  0
   -5.5120   22.1100  -32.7340 H   0  0  0  0  0  0  0  0  0  0  0  0
   -5.2751   23.7933  -31.0165 H   0  0  0  0  0  0  0  0  0  0  0  0
   -3.8383   24.9839  -29.3630 H   0  0  0  0  0  0  0  0  0  0  0  0
   -1.2100   26.4260  -29.7090 H   0  0  0  0  0  0  0  0  0  0  0  0
   -0.6066   22.2233  -30.1761 H   0  0  0  0  0  0  0  0  0  0  0  0
   -2.0393   21.0309  -31.8329 H   0  0  0  0  0  0  0  0  0  0  0  0
   -6.9276   21.6035  -33.0274 H   0  0  0  0  0  0  0  0  0  0  0  0
  1  2  1  0
  2  3  2  0
  3  4  1  0
  4  5  2  0
  5  6  1  0
  6  7  1  0
  7  8  1  0
  8  9  2  0
  8 10  1  0
 10 11  1  0
 11 12  2  0
 12 13  1  0
 13 14  2  0
 14 15  1  0
 15 16  1  0
 15 17  2  0
 15 18  2  0
 14 19  1  0
 19 20  2  0
  6 21  2  0
 21  2  1  0
 20 11  1  0
  1 22  1  0
  1 23  1  0
  1 24  1  0
  3 25  1  0
  4 26  1  0
  5 27  1  0
  7 28  1  0
 10 29  1  0
 12 30  1  0
 13 31  1  0
 16 32  1  0
 19 33  1  0
 20 34  1  0
 21 35  1  0
M  CHG  1  16  -1
M  END
>  <UniqueID>  (39) 
39

>  <SMILES>  (39) 
Cc1cccc(NC(=S)Nc2ccc(S([NH-])(=O)=O)cc2)c1

>  <Energy>  (39) 
42.15190925330052

>  <Genealogy>  (39) 
Cc1cccc(NC(=S)Nc2ccc(S([NH-])(=O)=O)cc2)c1 (protonated)
Cc1cccc(NC(=S)Nc2ccc(S([NH-])(=O)=O)cc2)c1 (3D coordinates assigned)
Cc1cccc(NC(=S)Nc2ccc(S([NH-])(=O)=O)cc2)c1 (optimized conformer: 42.15190925330052 kcal/mol)

>  <smiles>  (39) 
Cc1cccc(NC(=S)Nc2ccc(S(N)(=O)=O)cc2)c1

>  <score_type>  (39) 
oracle

>  <origin>  (39) 
adgpu

>  <m_score__min__energy>  (39) 
-10.380000000000001

>  <m_primary>  (39) 
energy

$$$$
39:0
     RDKit          3D

 45 47  0  0  0  0  0  0  0  0999 V2000
   -6.0560   19.6670  -33.7740 C   0  0  0  0  0  0  0  0  0  0  0  0
   -5.7470   20.7780  -32.8140 C   0  0  0  0  0  0  0  0  0  0  0  0
   -4.4980   21.4040  -32.8310 C   0  0  0  0  0  0  0  0  0  0  0  0
   -4.2380   22.4800  -31.9850 C   0  0  0  0  0  0  0  0  0  0  0  0
   -5.2230   22.9690  -31.1110 C   0  0  0  0  0  0  0  0  0  0  0  0
   -4.8050   24.3830  -30.1090 S   0  0  0  0  0  0  0  0  0  0  0  0
   -3.8600   25.2980  -30.8350 O   0  0  0  0  0  0  0  0  0  0  0  0
   -6.0670   25.1630  -29.8600 O   0  0  0  0  0  0  0  0  0  0  0  0
   -4.1020   23.9490  -28.5630 N   0  0  0  0  0  0  0  0  0  0  0  0
   -4.2230   22.5040  -28.2440 C   0  0  0  0  0  0  0  0  0  0  0  0
   -2.8760   21.8230  -27.9730 C   0  0  0  0  0  0  0  0  0  0  0  0
   -1.8950   22.2940  -28.9530 N   0  0  0  0  0  0  0  0  0  0  0  0
   -1.2590   21.4040  -29.9000 C   0  0  0  0  0  0  0  0  0  0  0  0
   -0.7900   20.1340  -29.5040 C   0  0  0  0  0  0  0  0  0  0  0  0
   -0.2200   19.2630  -30.4370 C   0  0  0  0  0  0  0  0  0  0  0  0
   -0.1150   19.6400  -31.7760 C   0  0  0  0  0  0  0  0  0  0  0  0
   -0.5780   20.8920  -32.1840 C   0  0  0  0  0  0  0  0  0  0  0  0
   -1.1450   21.7690  -31.2560 C   0  0  0  0  0  0  0  0  0  0  0  0
   -1.6340   23.7370  -29.0040 C   0  0  0  0  0  0  0  0  0  0  0  0
   -2.7670   24.5420  -28.3390 C   0  0  0  0  0  0  0  0  0  0  0  0
   -6.4830   22.3100  -31.0590 C   0  0  0  0  0  0  0  0  0  0  0  0
   -7.5640   22.7000  -30.0850 C   0  0  0  0  0  0  0  0  0  0  0  0
   -6.7300   21.2300  -31.9270 C   0  0  0  0  0  0  0  0  0  0  0  0
   -6.3093   18.7562  -33.2115 H   0  0  0  0  0  0  0  0  0  0  0  0
   -6.9079   19.9558  -34.4071 H   0  0  0  0  0  0  0  0  0  0  0  0
   -5.1773   19.4745  -34.4071 H   0  0  0  0  0  0  0  0  0  0  0  0
   -3.7157   21.0453  -33.5161 H   0  0  0  0  0  0  0  0  0  0  0  0
   -3.2456   22.9542  -32.0017 H   0  0  0  0  0  0  0  0  0  0  0  0
   -4.8538   22.3965  -27.3493 H   0  0  0  0  0  0  0  0  0  0  0  0
   -4.6622   22.0136  -29.1252 H   0  0  0  0  0  0  0  0  0  0  0  0
   -2.5334   22.0750  -26.9585 H   0  0  0  0  0  0  0  0  0  0  0  0
   -2.9889   20.7320  -28.0567 H   0  0  0  0  0  0  0  0  0  0  0  0
   -0.8736   19.8262  -28.4513 H   0  0  0  0  0  0  0  0  0  0  0  0
    0.1468   18.2774  -30.1144 H   0  0  0  0  0  0  0  0  0  0  0  0
    0.3318   18.9520  -32.5088 H   0  0  0  0  0  0  0  0  0  0  0  0
   -0.4961   21.1892  -33.2399 H   0  0  0  0  0  0  0  0  0  0  0  0
   -1.5059   22.7539  -31.5872 H   0  0  0  0  0  0  0  0  0  0  0  0
   -0.6906   23.9479  -28.4791 H   0  0  0  0  0  0  0  0  0  0  0  0
   -1.5718   24.0383  -30.0601 H   0  0  0  0  0  0  0  0  0  0  0  0
   -2.5788   24.5840  -27.2560 H   0  0  0  0  0  0  0  0  0  0  0  0
   -2.7705   25.5439  -28.7931 H   0  0  0  0  0  0  0  0  0  0  0  0
   -7.1964   22.5674  -29.0568 H   0  0  0  0  0  0  0  0  0  0  0  0
   -7.8377   23.7536  -30.2435 H   0  0  0  0  0  0  0  0  0  0  0  0
   -8.4473   22.0639  -30.2435 H   0  0  0  0  0  0  0  0  0  0  0  0
   -7.7114   20.7335  -31.9077 H   0  0  0  0  0  0  0  0  0  0  0  0
  1  2  1  0
  2  3  2  0
  3  4  1  0
  4  5  2  0
  5  6  1  0
  6  7  2  0
  6  8  2  0
  6  9  1  0
  9 10  1  0
 10 11  1  0
 11 12  1  0
 12 13  1  0
 13 14  2  0
 14 15  1  0
 15 16  2  0
 16 17  1  0
 17 18  2  0
 12 19  1  0
 19 20  1  0
  5 21  1  0
 21 22  1  0
 21 23  2  0
 23  2  1  0
 20  9  1  0
 18 13  1  0
  1 24  1  0
  1 25  1  0
  1 26  1  0
  3 27  1  0
  4 28  1  0
 10 29  1  0
 10 30  1  0
 11 31  1  0
 11 32  1  0
 14 33  1  0
 15 34  1  0
 16 35  1  0
 17 36  1  0
 18 37  1  0
 19 38  1  0
 19 39  1  0
 20 40  1  0
 20 41  1  0
 22 42  1  0
 22 43  1  0
 22 44  1  0
 23 45  1  0
M  END
>  <UniqueID>  (40) 
40

>  <SMILES>  (40) 
Cc1ccc(S(=O)(=O)N2CCN(c3ccccc3)CC2)c(C)c1

>  <Energy>  (40) 
56.96118483177757

>  <Genealogy>  (40) 
Cc1ccc(S(=O)(=O)N2CCN(c3ccccc3)CC2)c(C)c1 (3D coordinates assigned)
Cc1ccc(S(=O)(=O)N2CCN(c3ccccc3)CC2)c(C)c1 (nonaromatic ring conformer: 56.96118483177757 kcal/mol)

>  <smiles>  (40) 
Cc1ccc(S(=O)(=O)N2CCN(c3ccccc3)CC2)c(C)c1

>  <score_type>  (40) 
oracle

>  <origin>  (40) 
adgpu

>  <m_score__min__energy>  (40) 
-8.5600000000000005

>  <m_primary>  (40) 
energy

$$$$
40:0
     RDKit          3D

 43 45  0  0  0  0  0  0  0  0999 V2000
    0.5600   19.8120  -33.0810 C   0  0  0  0  0  0  0  0  0  0  0  0
   -0.7600   19.1840  -33.4180 C   0  0  0  0  0  0  0  0  0  0  0  0
   -1.8130   19.9730  -33.9060 C   0  0  0  0  0  0  0  0  0  0  0  0
   -3.0540   19.3940  -34.1870 C   0  0  0  0  0  0  0  0  0  0  0  0
   -3.2580   18.0250  -33.9740 C   0  0  0  0  0  0  0  0  0  0  0  0
   -4.8210   17.3010  -34.3450 S   0  0  0  0  0  0  0  0  0  0  0  0
   -4.6500   15.8130  -34.4540 O   0  0  0  0  0  0  0  0  0  0  0  0
   -5.3570   17.8300  -35.6460 O   0  0  0  0  0  0  0  0  0  0  0  0
   -5.9550   17.6560  -33.0790 N   0  0  0  0  0  0  0  0  0  0  0  0
   -6.2830   18.9870  -32.6430 C   0  0  0  0  0  0  0  0  0  0  0  0
   -5.2960   19.7630  -32.0150 C   0  0  0  0  0  0  0  0  0  0  0  0
   -5.5780   21.0620  -31.5840 C   0  0  0  0  0  0  0  0  0  0  0  0
   -6.8550   21.6040  -31.7720 C   0  0  0  0  0  0  0  0  0  0  0  0
   -7.2220   23.2360  -31.2210 S   0  0  0  0  0  0  0  0  0  0  0  0
   -7.5440   23.1950  -29.7550 O   0  0  0  0  0  0  0  0  0  0  0  0
   -8.4020   23.7930  -31.9670 O   0  0  0  0  0  0  0  0  0  0  0  0
   -5.8530   24.2740  -31.4740 N   0  0  0  0  0  0  0  0  0  0  0  0
   -4.9180   24.4780  -30.5970 C   0  0  0  0  0  0  0  0  0  0  0  0
   -4.8330   23.9260  -29.3310 C   0  0  0  0  0  0  0  0  0  0  0  0
   -3.6710   24.4780  -28.8350 C   0  0  0  0  0  0  0  0  0  0  0  0
   -3.0860   24.2270  -27.4880 C   0  0  0  0  0  0  0  0  0  0  0  0
   -3.1460   25.2700  -29.7430 O   0  0  0  0  0  0  0  0  0  0  0  0
   -3.8730   25.2950  -30.8230 N   0  0  0  0  0  0  0  0  0  0  0  0
   -7.8460   20.8380  -32.3960 C   0  0  0  0  0  0  0  0  0  0  0  0
   -7.5660   19.5380  -32.8260 C   0  0  0  0  0  0  0  0  0  0  0  0
   -2.2160   17.2400  -33.4640 C   0  0  0  0  0  0  0  0  0  0  0  0
   -0.9740   17.8170  -33.1830 C   0  0  0  0  0  0  0  0  0  0  0  0
    0.6723   19.8654  -31.9880 H   0  0  0  0  0  0  0  0  0  0  0  0
    1.3737   19.2045  -33.5039 H   0  0  0  0  0  0  0  0  0  0  0  0
    0.6020   20.8266  -33.5039 H   0  0  0  0  0  0  0  0  0  0  0  0
   -1.6614   21.0504  -34.0679 H   0  0  0  0  0  0  0  0  0  0  0  0
   -3.8732   20.0160  -34.5768 H   0  0  0  0  0  0  0  0  0  0  0  0
   -6.3610   16.8410  -32.5680 H   0  0  0  0  0  0  0  0  0  0  0  0
   -4.2906   19.3443  -31.8606 H   0  0  0  0  0  0  0  0  0  0  0  0
   -4.7946   21.6602  -31.0957 H   0  0  0  0  0  0  0  0  0  0  0  0
   -5.5217   23.2215  -28.8417 H   0  0  0  0  0  0  0  0  0  0  0  0
   -3.8037   24.5349  -26.7134 H   0  0  0  0  0  0  0  0  0  0  0  0
   -2.8653   23.1550  -27.3781 H   0  0  0  0  0  0  0  0  0  0  0  0
   -2.1570   24.8057  -27.3781 H   0  0  0  0  0  0  0  0  0  0  0  0
   -8.8499   21.2609  -32.5488 H   0  0  0  0  0  0  0  0  0  0  0  0
   -8.3529   18.9413  -33.3105 H   0  0  0  0  0  0  0  0  0  0  0  0
   -2.3754   16.1666  -33.2841 H   0  0  0  0  0  0  0  0  0  0  0  0
   -0.1614   17.1972  -32.7762 H   0  0  0  0  0  0  0  0  0  0  0  0
  1  2  1  0
  2  3  2  0
  3  4  1  0
  4  5  2  0
  5  6  1  0
  6  7  2  0
  6  8  2  0
  6  9  1  0
  9 10  1  0
 10 11  2  0
 11 12  1  0
 12 13  2  0
 13 14  1  0
 14 15  2  0
 14 16  2  0
 14 17  1  0
 17 18  2  3
 18 19  1  0
 19 20  2  0
 20 21  1  0
 20 22  1  0
 22 23  1  0
 13 24  1  0
 24 25  2  0
  5 26  1  0
 26 27  2  0
 27  2  1  0
 25 10  1  0
 23 18  1  0
  1 28  1  0
  1 29  1  0
  1 30  1  0
  3 31  1  0
  4 32  1  0
  9 33  1  0
 11 34  1  0
 12 35  1  0
 19 36  1  0
 21 37  1  0
 21 38  1  0
 21 39  1  0
 24 40  1  0
 25 41  1  0
 26 42  1  0
 27 43  1  0
M  CHG  1  23  -1
M  END
>  <UniqueID>  (41) 
41

>  <SMILES>  (41) 
Cc1ccc(S(=O)(=O)Nc2ccc(S(=O)(=O)N=c3cc(C)o[n-]3)cc2)cc1

>  <Energy>  (41) 
79.88902366378345

>  <Genealogy>  (41) 
Cc1ccc(S(=O)(=O)Nc2ccc(S(=O)(=O)N=c3cc(C)o[n-]3)cc2)cc1 (protonated)
Cc1ccc(S(=O)(=O)Nc2ccc(S(=O)(=O)N=c3cc(C)o[n-]3)cc2)cc1 (3D coordinates assigned)
Cc1ccc(S(=O)(=O)Nc2ccc(S(=O)(=O)N=c3cc(C)o[n-]3)cc2)cc1 (optimized conformer: 79.88902366378345 kcal/mol)

>  <smiles>  (41) 
Cc1ccc(S(=O)(=O)Nc2ccc(S(=O)(=O)N=c3cc(C)o[nH]3)cc2)cc1

>  <score_type>  (41) 
oracle

>  <origin>  (41) 
adgpu

>  <m_score__min__energy>  (41) 
-10.859999999999999

>  <m_primary>  (41) 
energy

$$$$
41:0
     RDKit          3D

 50 52  0  0  0  0  0  0  0  0999 V2000
   -1.1600   25.6980  -27.3310 C   0  0  0  0  0  0  0  0  0  0  0  0
   -1.4300   24.7330  -28.4790 C   0  0  0  0  0  0  0  0  0  0  0  0
   -2.4140   25.2640  -29.3670 O   0  0  0  0  0  0  0  0  0  0  0  0
   -3.6940   24.7290  -29.5830 C   0  0  0  0  0  0  0  0  0  0  0  0
   -4.0550   23.5760  -28.8810 C   0  0  0  0  0  0  0  0  0  0  0  0
   -5.3150   22.9980  -29.0570 C   0  0  0  0  0  0  0  0  0  0  0  0
   -6.2400   23.5640  -29.9480 C   0  0  0  0  0  0  0  0  0  0  0  0
   -7.5230   22.9380  -30.1190 N   0  0  0  0  0  0  0  0  0  0  0  0
   -8.1950   22.5340  -31.6660 S   0  0  0  0  0  0  0  0  0  0  0  0
   -7.5870   23.4190  -32.7180 O   0  0  0  0  0  0  0  0  0  0  0  0
   -9.6810   22.7620  -31.6400 O   0  0  0  0  0  0  0  0  0  0  0  0
   -7.8930   20.8350  -32.0170 C   0  0  0  0  0  0  0  0  0  0  0  0
   -8.9170   19.8990  -31.8380 C   0  0  0  0  0  0  0  0  0  0  0  0
   -8.6830   18.5470  -32.0890 C   0  0  0  0  0  0  0  0  0  0  0  0
   -7.4260   18.1190  -32.5260 C   0  0  0  0  0  0  0  0  0  0  0  0
   -7.2260   16.7960  -32.7500 F   0  0  0  0  0  0  0  0  0  0  0  0
   -6.3920   19.0510  -32.7220 C   0  0  0  0  0  0  0  0  0  0  0  0
   -4.7950   18.5430  -33.2940 S   0  0  0  0  0  0  0  0  0  0  0  0
   -4.7720   18.5460  -34.7970 O   0  0  0  0  0  0  0  0  0  0  0  0
   -4.5370   17.1350  -32.8330 O   0  0  0  0  0  0  0  0  0  0  0  0
   -3.5250   19.5890  -32.6980 N   0  0  0  0  0  0  0  0  0  0  0  0
   -3.2450   20.7010  -33.6310 C   0  0  0  0  0  0  0  0  0  0  0  0
   -3.8340   22.0330  -33.1350 C   0  0  0  0  0  0  0  0  0  0  0  0
   -3.3530   22.4230  -31.8560 O   0  0  0  0  0  0  0  0  0  0  0  0
   -3.0490   21.3300  -30.9980 C   0  0  0  0  0  0  0  0  0  0  0  0
   -3.8280   20.0460  -31.3280 C   0  0  0  0  0  0  0  0  0  0  0  0
   -6.6320   20.4080  -32.4560 C   0  0  0  0  0  0  0  0  0  0  0  0
   -5.8850   24.7340  -30.6440 C   0  0  0  0  0  0  0  0  0  0  0  0
   -4.6240   25.3110  -30.4660 C   0  0  0  0  0  0  0  0  0  0  0  0
   -1.3056   25.1778  -26.3728 H   0  0  0  0  0  0  0  0  0  0  0  0
   -0.1248   26.0644  -27.3958 H   0  0  0  0  0  0  0  0  0  0  0  0
   -1.8547   26.5484  -27.3958 H   0  0  0  0  0  0  0  0  0  0  0  0
   -0.4961   24.5638  -29.0351 H   0  0  0  0  0  0  0  0  0  0  0  0
   -1.8048   23.7862  -28.0630 H   0  0  0  0  0  0  0  0  0  0  0  0
   -3.3394   23.1183  -28.1821 H   0  0  0  0  0  0  0  0  0  0  0  0
   -5.5839   22.0927  -28.4930 H   0  0  0  0  0  0  0  0  0  0  0  0
   -8.0430   22.6040  -29.2770 H   0  0  0  0  0  0  0  0  0  0  0  0
   -9.9095   20.2301  -31.4984 H   0  0  0  0  0  0  0  0  0  0  0  0
   -9.4907   17.8148  -31.9425 H   0  0  0  0  0  0  0  0  0  0  0  0
   -2.1555   20.8114  -33.7348 H   0  0  0  0  0  0  0  0  0  0  0  0
   -3.7148   20.4607  -34.5961 H   0  0  0  0  0  0  0  0  0  0  0  0
   -3.5752   22.8195  -33.8592 H   0  0  0  0  0  0  0  0  0  0  0  0
   -4.9211   21.8924  -33.0433 H   0  0  0  0  0  0  0  0  0  0  0  0
   -1.9736   21.1137  -31.0797 H   0  0  0  0  0  0  0  0  0  0  0  0
   -3.3423   21.6300  -29.9812 H   0  0  0  0  0  0  0  0  0  0  0  0
   -3.5451   19.2585  -30.6139 H   0  0  0  0  0  0  0  0  0  0  0  0
   -4.9050   20.2577  -31.2562 H   0  0  0  0  0  0  0  0  0  0  0  0
   -5.8244   21.1422  -32.5931 H   0  0  0  0  0  0  0  0  0  0  0  0
   -6.6052   25.1985  -31.3336 H   0  0  0  0  0  0  0  0  0  0  0  0
   -4.3570   26.2240  -31.0184 H   0  0  0  0  0  0  0  0  0  0  0  0
  1  2  1  0
  2  3  1  0
  3  4  1  0
  4  5  2  0
  5  6  1  0
  6  7  2  0
  7  8  1  0
  8  9  1  0
  9 10  2  0
  9 11  2  0
  9 12  1  0
 12 13  2  0
 13 14  1  0
 14 15  2  0
 15 16  1  0
 15 17  1  0
 17 18  1  0
 18 19  2  0
 18 20  2  0
 18 21  1  0
 21 22  1  0
 22 23  1  0
 23 24  1  0
 24 25  1  0
 25 26  1  0
 17 27  2  0
  7 28  1  0
 28 29  2  0
 29  4  1  0
 27 12  1  0
 26 21  1  0
  1 30  1  0
  1 31  1  0
  1 32  1  0
  2 33  1  0
  2 34  1  0
  5 35  1  0
  6 36  1  0
  8 37  1  0
 13 38  1  0
 14 39  1  0
 22 40  1  0
 22 41  1  0
 23 42  1  0
 23 43  1  0
 25 44  1  0
 25 45  1  0
 26 46  1  0
 26 47  1  0
 27 48  1  0
 28 49  1  0
 29 50  1  0
M  END
>  <UniqueID>  (42) 
42

>  <SMILES>  (42) 
CCOc1ccc(NS(=O)(=O)c2ccc(F)c(S(=O)(=O)N3CCOCC3)c2)cc1

>  <Energy>  (42) 
64.07684450157915

>  <Genealogy>  (42) 
CCOc1ccc(NS(=O)(=O)c2ccc(F)c(S(=O)(=O)N3CCOCC3)c2)cc1 (3D coordinates assigned)
CCOc1ccc(NS(=O)(=O)c2ccc(F)c(S(=O)(=O)N3CCOCC3)c2)cc1 (nonaromatic ring conformer: 64.07684450157915 kcal/mol)

>  <smiles>  (42) 
CCOc1ccc(NS(=O)(=O)c2ccc(F)c(S(=O)(=O)N3CCOCC3)c2)cc1

>  <score_type>  (42) 
oracle

>  <origin>  (42) 
adgpu

>  <m_score__min__energy>  (42) 
-9.8599999999999994

>  <m_primary>  (42) 
energy

$$$$
42:0
     RDKit          3D

 47 49  0  0  0  0  0  0  0  0999 V2000
   -4.0630   25.4950  -30.5550 O   0  0  0  0  0  0  0  0  0  0  0  0
   -3.8490   24.2510  -30.5240 C   0  0  0  0  0  0  0  0  0  0  0  0
   -4.4100   23.4140  -31.5430 N   0  0  0  0  0  0  0  0  0  0  0  0
   -5.7160   22.8250  -31.5110 C   0  0  0  0  0  0  0  0  0  0  0  0
   -5.8410   21.4610  -31.8020 C   0  0  0  0  0  0  0  0  0  0  0  0
   -7.0960   20.8370  -31.7850 C   0  0  0  0  0  0  0  0  0  0  0  0
   -7.2470   19.1280  -32.1940 S   0  0  0  0  0  0  0  0  0  0  0  0
   -8.4890   18.9220  -33.0150 O   0  0  0  0  0  0  0  0  0  0  0  0
   -7.3880   18.3240  -30.9310 O   0  0  0  0  0  0  0  0  0  0  0  0
   -5.8560   18.5670  -33.0930 N   0  0  0  0  0  0  0  0  0  0  0  0
   -6.0150   17.1310  -33.4020 C   0  0  0  0  0  0  0  0  0  0  0  0
   -5.5230   16.7450  -34.8100 C   0  0  0  0  0  0  0  0  0  0  0  0
   -4.2170   17.4380  -35.2370 C   0  0  0  0  0  0  0  0  0  0  0  0
   -3.1620   17.6430  -34.1220 C   0  0  0  0  0  0  0  0  0  0  0  0
   -3.3780   18.9180  -33.2860 C   0  0  0  0  0  0  0  0  0  0  0  0
   -4.6130   18.8590  -32.3510 C   0  0  0  0  0  0  0  0  0  0  0  0
   -8.2320   21.5850  -31.4520 C   0  0  0  0  0  0  0  0  0  0  0  0
   -8.1140   22.9370  -31.1260 C   0  0  0  0  0  0  0  0  0  0  0  0
   -6.8590   23.5620  -31.1380 C   0  0  0  0  0  0  0  0  0  0  0  0
   -6.7460   24.8960  -30.7500 O   0  0  0  0  0  0  0  0  0  0  0  0
   -2.9720   23.6800  -29.4650 C   0  0  0  0  0  0  0  0  0  0  0  0
   -3.2080   22.3670  -29.0060 C   0  0  0  0  0  0  0  0  0  0  0  0
   -2.4040   21.8020  -28.0120 C   0  0  0  0  0  0  0  0  0  0  0  0
   -2.7440   20.0230  -27.4060 Br  0  0  0  0  0  0  0  0  0  0  0  0
   -1.3520   22.5360  -27.4630 C   0  0  0  0  0  0  0  0  0  0  0  0
   -1.1010   23.8350  -27.9060 C   0  0  0  0  0  0  0  0  0  0  0  0
   -1.8990   24.4110  -28.9010 C   0  0  0  0  0  0  0  0  0  0  0  0
   -1.6050   25.7050  -29.3160 O   0  0  0  0  0  0  0  0  0  0  0  0
   -4.9443   20.8727  -32.0467 H   0  0  0  0  0  0  0  0  0  0  0  0
   -5.4434   16.5508  -32.6627 H   0  0  0  0  0  0  0  0  0  0  0  0
   -7.0920   16.9103  -33.3649 H   0  0  0  0  0  0  0  0  0  0  0  0
   -5.3588   15.6575  -34.8314 H   0  0  0  0  0  0  0  0  0  0  0  0
   -6.2995   17.0743  -35.5161 H   0  0  0  0  0  0  0  0  0  0  0  0
   -3.7561   16.8292  -36.0288 H   0  0  0  0  0  0  0  0  0  0  0  0
   -4.5087   18.4485  -35.5590 H   0  0  0  0  0  0  0  0  0  0  0  0
   -3.1987   16.7755  -33.4466 H   0  0  0  0  0  0  0  0  0  0  0  0
   -2.1871   17.7490  -34.6203 H   0  0  0  0  0  0  0  0  0  0  0  0
   -2.4834   19.0811  -32.6671 H   0  0  0  0  0  0  0  0  0  0  0  0
   -3.5571   19.7377  -33.9974 H   0  0  0  0  0  0  0  0  0  0  0  0
   -4.4534   18.0700  -31.6014 H   0  0  0  0  0  0  0  0  0  0  0  0
   -4.7255   19.8441  -31.8746 H   0  0  0  0  0  0  0  0  0  0  0  0
   -9.2217   21.1049  -31.4473 H   0  0  0  0  0  0  0  0  0  0  0  0
   -9.0105   23.5154  -30.8582 H   0  0  0  0  0  0  0  0  0  0  0  0
   -5.8470   25.3580  -30.6840 H   0  0  0  0  0  0  0  0  0  0  0  0
   -4.0342   21.7812  -29.4353 H   0  0  0  0  0  0  0  0  0  0  0  0
   -0.7202   22.0903  -26.6806 H   0  0  0  0  0  0  0  0  0  0  0  0
   -0.2706   24.4101  -27.4704 H   0  0  0  0  0  0  0  0  0  0  0  0
  1  2  2  0
  2  3  1  0
  3  4  1  0
  4  5  2  0
  5  6  1  0
  6  7  1  0
  7  8  2  0
  7  9  2  0
  7 10  1  0
 10 11  1  0
 11 12  1  0
 12 13  1  0
 13 14  1  0
 14 15  1  0
 15 16  1  0
  6 17  2  0
 17 18  1  0
 18 19  2  0
 19 20  1  0
  2 21  1  0
 21 22  2  0
 22 23  1  0
 23 24  1  0
 23 25  2  0
 25 26  1  0
 26 27  2  0
 27 28  1  0
 19  4  1  0
 27 21  1  0
 16 10  1  0
  5 29  1  0
 11 30  1  0
 11 31  1  0
 12 32  1  0
 12 33  1  0
 13 34  1  0
 13 35  1  0
 14 36  1  0
 14 37  1  0
 15 38  1  0
 15 39  1  0
 16 40  1  0
 16 41  1  0
 17 42  1  0
 18 43  1  0
 20 44  1  0
 22 45  1  0
 25 46  1  0
 26 47  1  0
M  CHG  2   3  -1  28  -1
M  END
>  <UniqueID>  (43) 
43

>  <SMILES>  (43) 
O=C([N-]c1cc(S(=O)(=O)N2CCCCCC2)ccc1O)c1cc(Br)ccc1[O-]

>  <Energy>  (43) 
63.22145586131824

>  <Genealogy>  (43) 
O=C([N-]c1cc(S(=O)(=O)N2CCCCCC2)ccc1O)c1cc(Br)ccc1[O-] (protonated)
O=C([N-]c1cc(S(=O)(=O)N2CCCCCC2)ccc1O)c1cc(Br)ccc1[O-] (3D coordinates assigned)
O=C([N-]c1cc(S(=O)(=O)N2CCCCCC2)ccc1O)c1cc(Br)ccc1[O-] (nonaromatic ring conformer: 63.22145586131824 kcal/mol)

>  <smiles>  (43) 
O=C(Nc1cc(S(=O)(=O)N2CCCCCC2)ccc1O)c1cc(Br)ccc1O

>  <score_type>  (43) 
oracle

>  <origin>  (43) 
adgpu

>  <m_score__min__energy>  (43) 
-11.949999999999999

>  <m_primary>  (43) 
energy

$$$$
43:0
     RDKit          3D

 55 58  0  0  0  0  0  0  0  0999 V2000
   -9.1130   19.7600  -32.4070 C   0  0  0  0  0  0  0  0  0  0  0  0
   -9.4820   21.0200  -31.9370 C   0  0  0  0  0  0  0  0  0  0  0  0
   -8.5310   21.9660  -31.7190 N   0  0  0  0  0  0  0  0  0  0  0  0
   -7.2120   21.7110  -31.9510 C   0  0  0  0  0  0  0  0  0  0  0  0
   -6.2150   22.7230  -31.7050 N   0  0  0  0  0  0  0  0  0  0  0  0
   -4.8040   22.5090  -32.0550 C   0  0  0  0  0  0  0  0  0  0  0  0
   -3.8960   23.0460  -30.9370 C   0  0  0  0  0  0  0  0  0  0  0  0
   -4.2830   24.3940  -30.4260 N   0  0  0  0  0  0  0  0  0  0  0  0
   -4.4600   24.4120  -28.9570 C   0  0  0  0  0  0  0  0  0  0  0  0
   -3.1210   24.4740  -28.2690 C   0  0  0  0  0  0  0  0  0  0  0  0
   -3.0140   24.1270  -26.9140 C   0  0  0  0  0  0  0  0  0  0  0  0
   -1.7910   24.2480  -26.2500 C   0  0  0  0  0  0  0  0  0  0  0  0
   -0.6610   24.7390  -26.9260 C   0  0  0  0  0  0  0  0  0  0  0  0
    0.6410   24.9400  -26.1840 C   0  0  0  0  0  0  0  0  0  0  0  0
    0.8290   26.3040  -25.6140 N   0  0  0  0  0  0  0  0  0  0  0  0
    0.8920   26.3370  -24.1320 C   0  0  0  0  0  0  0  0  0  0  0  0
   -0.4870   26.4440  -23.4340 C   0  0  0  0  0  0  0  0  0  0  0  0
   -1.5800   26.6720  -24.3810 N   0  0  0  0  0  0  0  0  0  0  0  0
   -1.2290   27.7560  -25.2940 C   0  0  0  0  0  0  0  0  0  0  0  0
   -0.0620   27.3400  -26.2060 C   0  0  0  0  0  0  0  0  0  0  0  0
   -0.7580   25.0340  -28.2960 C   0  0  0  0  0  0  0  0  0  0  0  0
   -1.9810   24.9110  -28.9610 C   0  0  0  0  0  0  0  0  0  0  0  0
   -5.4370   25.0020  -31.1250 C   0  0  0  0  0  0  0  0  0  0  0  0
   -6.6280   24.0380  -31.2020 C   0  0  0  0  0  0  0  0  0  0  0  0
   -6.8430   20.4830  -32.4110 N   0  0  0  0  0  0  0  0  0  0  0  0
   -7.7610   19.5110  -32.6450 C   0  0  0  0  0  0  0  0  0  0  0  0
   -9.8693   18.9815  -32.5857 H   0  0  0  0  0  0  0  0  0  0  0  0
  -10.5406   21.2477  -31.7431 H   0  0  0  0  0  0  0  0  0  0  0  0
   -4.6210   21.4324  -32.1869 H   0  0  0  0  0  0  0  0  0  0  0  0
   -4.5795   23.0437  -32.9897 H   0  0  0  0  0  0  0  0  0  0  0  0
   -3.9279   22.3368  -30.0967 H   0  0  0  0  0  0  0  0  0  0  0  0
   -2.8904   23.1501  -31.3705 H   0  0  0  0  0  0  0  0  0  0  0  0
   -5.0544   25.2933  -28.6740 H   0  0  0  0  0  0  0  0  0  0  0  0
   -4.9784   23.4923  -28.6481 H   0  0  0  0  0  0  0  0  0  0  0  0
   -3.8972   23.7580  -26.3719 H   0  0  0  0  0  0  0  0  0  0  0  0
   -1.7120   23.9573  -25.1920 H   0  0  0  0  0  0  0  0  0  0  0  0
    0.6798   24.2150  -25.3576 H   0  0  0  0  0  0  0  0  0  0  0  0
    1.4442   24.7985  -26.9222 H   0  0  0  0  0  0  0  0  0  0  0  0
    1.7960   26.5640  -25.9280 H   0  0  0  0  0  0  0  0  0  0  0  0
    1.3808   25.4136  -23.7880 H   0  0  0  0  0  0  0  0  0  0  0  0
    1.4512   27.2450  -23.8622 H   0  0  0  0  0  0  0  0  0  0  0  0
   -0.6808   25.5073  -22.8909 H   0  0  0  0  0  0  0  0  0  0  0  0
   -0.4501   27.3070  -22.7530 H   0  0  0  0  0  0  0  0  0  0  0  0
   -2.4250   26.9620  -23.8380 H   0  0  0  0  0  0  0  0  0  0  0  0
   -2.1028   28.0027  -25.9150 H   0  0  0  0  0  0  0  0  0  0  0  0
   -0.9223   28.6317  -24.7032 H   0  0  0  0  0  0  0  0  0  0  0  0
   -0.4796   26.9428  -27.1429 H   0  0  0  0  0  0  0  0  0  0  0  0
    0.5542   28.2374  -26.3642 H   0  0  0  0  0  0  0  0  0  0  0  0
    0.1341   25.3638  -28.8487 H   0  0  0  0  0  0  0  0  0  0  0  0
   -2.0503   25.1576  -30.0308 H   0  0  0  0  0  0  0  0  0  0  0  0
   -5.7460   25.9072  -30.5817 H   0  0  0  0  0  0  0  0  0  0  0  0
   -5.1261   25.2445  -32.1519 H   0  0  0  0  0  0  0  0  0  0  0  0
   -7.0584   23.9186  -30.1968 H   0  0  0  0  0  0  0  0  0  0  0  0
   -7.3717   24.4581  -31.8952 H   0  0  0  0  0  0  0  0  0  0  0  0
   -7.4396   18.5287  -33.0216 H   0  0  0  0  0  0  0  0  0  0  0  0
  1  2  2  0
  2  3  1  0
  3  4  2  0
  4  5  1  0
  5  6  1  0
  6  7  1  0
  7  8  1  0
  8  9  1  0
  9 10  1  0
 10 11  2  0
 11 12  1  0
 12 13  2  0
 13 14  1  0
 14 15  1  0
 15 16  1  0
 16 17  1  0
 17 18  1  0
 18 19  1  0
 19 20  1  0
 13 21  1  0
 21 22  2  0
  8 23  1  0
 23 24  1  0
  4 25  1  0
 25 26  2  0
 26  1  1  0
 24  5  1  0
 22 10  1  0
 20 15  1  0
  1 27  1  0
  2 28  1  0
  6 29  1  0
  6 30  1  0
  7 31  1  0
  7 32  1  0
  9 33  1  0
  9 34  1  0
 11 35  1  0
 12 36  1  0
 14 37  1  0
 14 38  1  0
 15 39  1  0
 16 40  1  0
 16 41  1  0
 17 42  1  0
 17 43  1  0
 18 44  1  0
 19 45  1  0
 19 46  1  0
 20 47  1  0
 20 48  1  0
 21 49  1  0
 22 50  1  0
 23 51  1  0
 23 52  1  0
 24 53  1  0
 24 54  1  0
 26 55  1  0
M  CHG  1  15   1
M  END
>  <UniqueID>  (44) 
44

>  <SMILES>  (44) 
c1cnc(N2CCN(Cc3ccc(C[NH+]4CCNCC4)cc3)CC2)nc1

>  <Energy>  (44) 
79.86442468492528

>  <Genealogy>  (44) 
c1cnc(N2CCN(Cc3ccc(C[NH+]4CCNCC4)cc3)CC2)nc1 (protonated)
c1cnc(N2CCN(Cc3ccc(C[NH+]4CCNCC4)cc3)CC2)nc1 (3D coordinates assigned)
c1cnc(N2CCN(Cc3ccc(C[NH+]4CCNCC4)cc3)CC2)nc1 (nonaromatic ring conformer: 79.86442468492528 kcal/mol)

>  <smiles>  (44) 
c1cnc(N2CCN(Cc3ccc(CN4CCNCC4)cc3)CC2)nc1

>  <score_type>  (44) 
oracle

>  <origin>  (44) 
adgpu

>  <m_score__min__energy>  (44) 
-8.1600000000000001

>  <m_primary>  (44) 
energy

$$$$
44:0
     RDKit          3D

 38 41  0  0  0  0  0  0  0  0999 V2000
   -0.9200   22.1150  -26.8340 Br  0  0  0  0  0  0  0  0  0  0  0  0
   -1.1090   23.8640  -26.0620 C   0  0  0  0  0  0  0  0  0  0  0  0
   -0.4110   24.0940  -24.8680 C   0  0  0  0  0  0  0  0  0  0  0  0
   -0.4770   25.3330  -24.2320 C   0  0  0  0  0  0  0  0  0  0  0  0
   -1.2410   26.3580  -24.7840 C   0  0  0  0  0  0  0  0  0  0  0  0
   -1.9430   26.1480  -25.9730 C   0  0  0  0  0  0  0  0  0  0  0  0
   -1.8920   24.9040  -26.6310 C   0  0  0  0  0  0  0  0  0  0  0  0
   -2.6670   24.7510  -27.8900 C   0  0  0  0  0  0  0  0  0  0  0  0
   -3.8700   24.1560  -27.9980 N   0  0  0  0  0  0  0  0  0  0  0  0
   -4.1270   24.2830  -29.3160 C   0  0  0  0  0  0  0  0  0  0  0  0
   -5.3550   23.7800  -29.9670 C   0  0  0  0  0  0  0  0  0  0  0  0
   -5.7580   24.2830  -31.2180 C   0  0  0  0  0  0  0  0  0  0  0  0
   -6.9190   23.8050  -31.8320 C   0  0  0  0  0  0  0  0  0  0  0  0
   -7.6870   22.8170  -31.2080 C   0  0  0  0  0  0  0  0  0  0  0  0
   -9.1710   22.1980  -32.0020 S   0  0  0  0  0  0  0  0  0  0  0  0
   -8.4630   20.5720  -32.2670 C   0  0  0  0  0  0  0  0  0  0  0  0
   -7.3100   20.4280  -33.0510 C   0  0  0  0  0  0  0  0  0  0  0  0
   -6.7560   19.1600  -33.2520 C   0  0  0  0  0  0  0  0  0  0  0  0
   -7.3540   18.0340  -32.6760 C   0  0  0  0  0  0  0  0  0  0  0  0
   -8.5070   18.1760  -31.8980 C   0  0  0  0  0  0  0  0  0  0  0  0
   -9.0630   19.4430  -31.6940 C   0  0  0  0  0  0  0  0  0  0  0  0
   -7.2960   22.3140  -29.9630 C   0  0  0  0  0  0  0  0  0  0  0  0
   -6.1370   22.7900  -29.3460 C   0  0  0  0  0  0  0  0  0  0  0  0
   -3.1360   24.9190  -29.9690 N   0  0  0  0  0  0  0  0  0  0  0  0
   -2.2550   25.1920  -29.0560 O   0  0  0  0  0  0  0  0  0  0  0  0
    0.1952   23.2883  -24.4283 H   0  0  0  0  0  0  0  0  0  0  0  0
    0.0741   25.5007  -23.2949 H   0  0  0  0  0  0  0  0  0  0  0  0
   -1.2918   27.3356  -24.2823 H   0  0  0  0  0  0  0  0  0  0  0  0
   -2.5432   26.9645  -26.4008 H   0  0  0  0  0  0  0  0  0  0  0  0
   -5.1555   25.0572  -31.7157 H   0  0  0  0  0  0  0  0  0  0  0  0
   -7.2292   24.2067  -32.8079 H   0  0  0  0  0  0  0  0  0  0  0  0
   -6.8413   21.3120  -33.5079 H   0  0  0  0  0  0  0  0  0  0  0  0
   -5.8488   19.0477  -33.8638 H   0  0  0  0  0  0  0  0  0  0  0  0
   -6.9171   17.0371  -32.8352 H   0  0  0  0  0  0  0  0  0  0  0  0
   -8.9773   17.2903  -31.4459 H   0  0  0  0  0  0  0  0  0  0  0  0
   -9.9715   19.5531  -31.0836 H   0  0  0  0  0  0  0  0  0  0  0  0
   -7.9030   21.5414  -29.4684 H   0  0  0  0  0  0  0  0  0  0  0  0
   -5.8340   22.3879  -28.3680 H   0  0  0  0  0  0  0  0  0  0  0  0
  1  2  1  0
  2  3  2  0
  3  4  1  0
  4  5  2  0
  5  6  1  0
  6  7  2  0
  7  8  1  0
  8  9  2  0
  9 10  1  0
 10 11  1  0
 11 12  2  0
 12 13  1  0
 13 14  2  0
 14 15  1  0
 15 16  1  0
 16 17  2  0
 17 18  1  0
 18 19  2  0
 19 20  1  0
 20 21  2  0
 14 22  1  0
 22 23  2  0
 10 24  2  0
 24 25  1  0
  7  2  1  0
 25  8  1  0
 23 11  1  0
 21 16  1  0
  3 26  1  0
  4 27  1  0
  5 28  1  0
  6 29  1  0
 12 30  1  0
 13 31  1  0
 17 32  1  0
 18 33  1  0
 19 34  1  0
 20 35  1  0
 21 36  1  0
 22 37  1  0
 23 38  1  0
M  END
>  <UniqueID>  (45) 
45

>  <SMILES>  (45) 
Brc1ccccc1-c1nc(-c2ccc(Sc3ccccc3)cc2)no1

>  <Energy>  (45) 
75.83212707266556

>  <Genealogy>  (45) 
Brc1ccccc1-c1nc(-c2ccc(Sc3ccccc3)cc2)no1 (3D coordinates assigned)
Brc1ccccc1-c1nc(-c2ccc(Sc3ccccc3)cc2)no1 (optimized conformer: 75.83212707266556 kcal/mol)

>  <smiles>  (45) 
Brc1ccccc1-c1nc(-c2ccc(Sc3ccccc3)cc2)no1

>  <score_type>  (45) 
oracle

>  <origin>  (45) 
adgpu

>  <m_score__min__energy>  (45) 
-10.26

>  <m_primary>  (45) 
energy

$$$$
45:0
     RDKit          3D

 33 34  0  0  0  0  0  0  0  0999 V2000
   -4.2280   25.6560  -30.5450 N   0  0  0  0  0  0  0  0  0  0  0  0
   -4.1010   23.9420  -30.3620 S   0  0  0  0  0  0  0  0  0  0  0  0
   -3.8170   23.6100  -28.9240 O   0  0  0  0  0  0  0  0  0  0  0  0
   -2.9670   23.4330  -31.2070 O   0  0  0  0  0  0  0  0  0  0  0  0
   -5.6080   23.1840  -30.8640 C   0  0  0  0  0  0  0  0  0  0  0  0
   -6.6440   22.9920  -29.9400 C   0  0  0  0  0  0  0  0  0  0  0  0
   -7.8370   22.3840  -30.3380 C   0  0  0  0  0  0  0  0  0  0  0  0
   -8.0070   21.9570  -31.6660 C   0  0  0  0  0  0  0  0  0  0  0  0
   -9.3120   21.3390  -32.1020 C   0  0  0  0  0  0  0  0  0  0  0  0
   -9.1110   20.0720  -32.8230 N   0  0  0  0  0  0  0  0  0  0  0  0
   -9.0000   18.8980  -31.9350 C   0  0  0  0  0  0  0  0  0  0  0  0
   -7.5440   18.5160  -31.6150 C   0  0  0  0  0  0  0  0  0  0  0  0
   -6.7710   18.2960  -32.8340 N   0  0  0  0  0  0  0  0  0  0  0  0
   -6.4010   17.1130  -33.3530 C   0  0  0  0  0  0  0  0  0  0  0  0
   -5.7110   17.2810  -34.4970 N   0  0  0  0  0  0  0  0  0  0  0  0
   -5.6900   18.6260  -34.6310 C   0  0  0  0  0  0  0  0  0  0  0  0
   -6.3330   19.2550  -33.6280 N   0  0  0  0  0  0  0  0  0  0  0  0
   -6.9640   22.1440  -32.5870 C   0  0  0  0  0  0  0  0  0  0  0  0
   -5.7710   22.7520  -32.1870 C   0  0  0  0  0  0  0  0  0  0  0  0
   -3.4910   25.9470  -31.2240 H   0  0  0  0  0  0  0  0  0  0  0  0
   -6.5173   23.3211  -28.8981 H   0  0  0  0  0  0  0  0  0  0  0  0
   -8.6473   22.2388  -29.6084 H   0  0  0  0  0  0  0  0  0  0  0  0
   -9.9283   21.1464  -31.2114 H   0  0  0  0  0  0  0  0  0  0  0  0
   -9.8083   22.0430  -32.7862 H   0  0  0  0  0  0  0  0  0  0  0  0
   -8.2980   20.1500  -33.4750 H   0  0  0  0  0  0  0  0  0  0  0  0
   -9.5179   19.1233  -30.9911 H   0  0  0  0  0  0  0  0  0  0  0  0
   -9.4536   18.0455  -32.4617 H   0  0  0  0  0  0  0  0  0  0  0  0
   -7.0791   19.3291  -31.0382 H   0  0  0  0  0  0  0  0  0  0  0  0
   -7.5506   17.5810  -31.0356 H   0  0  0  0  0  0  0  0  0  0  0  0
   -6.6314   16.1362  -32.9027 H   0  0  0  0  0  0  0  0  0  0  0  0
   -5.2019   19.1490  -35.4666 H   0  0  0  0  0  0  0  0  0  0  0  0
   -7.0864   21.8105  -33.6280 H   0  0  0  0  0  0  0  0  0  0  0  0
   -4.9569   22.8920  -32.9134 H   0  0  0  0  0  0  0  0  0  0  0  0
  1  2  1  0
  2  3  2  0
  2  4  2  0
  2  5  1  0
  5  6  2  0
  6  7  1  0
  7  8  2  0
  8  9  1  0
  9 10  1  0
 10 11  1  0
 11 12  1  0
 12 13  1  0
 13 14  1  0
 14 15  2  0
 15 16  1  0
 16 17  2  0
  8 18  1  0
 18 19  2  0
 19  5  1  0
 17 13  1  0
  1 20  1  0
  6 21  1  0
  7 22  1  0
  9 23  1  0
  9 24  1  0
 10 25  1  0
 11 26  1  0
 11 27  1  0
 12 28  1  0
 12 29  1  0
 14 30  1  0
 16 31  1  0
 18 32  1  0
 19 33  1  0
M  CHG  1   1  -1
M  END
>  <UniqueID>  (46) 
46

>  <SMILES>  (46) 
[NH-]S(=O)(=O)c1ccc(CNCCn2cncn2)cc1

>  <Energy>  (46) 
64.5109314551226

>  <Genealogy>  (46) 
[NH-]S(=O)(=O)c1ccc(CNCCn2cncn2)cc1 (protonated)
[NH-]S(=O)(=O)c1ccc(CNCCn2cncn2)cc1 (3D coordinates assigned)
[NH-]S(=O)(=O)c1ccc(CNCCn2cncn2)cc1 (optimized conformer: 64.5109314551226 kcal/mol)

>  <smiles>  (46) 
NS(=O)(=O)c1ccc(CNCCn2cncn2)cc1

>  <score_type>  (46) 
oracle

>  <origin>  (46) 
adgpu

>  <m_score__min__energy>  (46) 
-9.5700000000000003

>  <m_primary>  (46) 
energy

$$$$
46:0
     RDKit          3D

 57 60  0  0  0  0  0  0  0  0999 V2000
    1.2490   18.4460  -32.9170 C   0  0  0  0  0  0  0  0  0  0  0  0
    0.7690   19.3050  -31.8360 N   0  0  0  0  0  0  0  0  0  0  0  0
    0.6700   18.7970  -30.4960 C   0  0  0  0  0  0  0  0  0  0  0  0
    1.6540   17.9320  -29.9890 C   0  0  0  0  0  0  0  0  0  0  0  0
    1.5660   17.4550  -28.6780 C   0  0  0  0  0  0  0  0  0  0  0  0
    0.5000   17.8420  -27.8620 C   0  0  0  0  0  0  0  0  0  0  0  0
   -0.4800   18.7050  -28.3580 C   0  0  0  0  0  0  0  0  0  0  0  0
   -0.4010   19.1750  -29.6720 C   0  0  0  0  0  0  0  0  0  0  0  0
   -0.0120   20.8070  -32.2380 S   0  0  0  0  0  0  0  0  0  0  0  0
    0.0820   21.7450  -31.0670 O   0  0  0  0  0  0  0  0  0  0  0  0
    0.6690   21.4420  -33.4180 O   0  0  0  0  0  0  0  0  0  0  0  0
   -1.6950   20.5060  -32.6600 C   0  0  0  0  0  0  0  0  0  0  0  0
   -2.5120   21.5700  -33.0620 C   0  0  0  0  0  0  0  0  0  0  0  0
   -3.8600   21.3500  -33.3620 C   0  0  0  0  0  0  0  0  0  0  0  0
   -4.4050   20.0580  -33.2770 C   0  0  0  0  0  0  0  0  0  0  0  0
   -5.8350   19.8300  -33.5830 C   0  0  0  0  0  0  0  0  0  0  0  0
   -6.2060   18.7070  -34.0200 O   0  0  0  0  0  0  0  0  0  0  0  0
   -6.8110   20.8710  -33.4410 N   0  0  0  0  0  0  0  0  0  0  0  0
   -7.0330   21.6370  -32.2480 C   0  0  0  0  0  0  0  0  0  0  0  0
   -8.0450   21.2460  -31.3640 C   0  0  0  0  0  0  0  0  0  0  0  0
   -8.2750   21.9710  -30.1900 C   0  0  0  0  0  0  0  0  0  0  0  0
   -7.4850   23.0840  -29.8870 C   0  0  0  0  0  0  0  0  0  0  0  0
   -6.4550   23.4700  -30.7530 C   0  0  0  0  0  0  0  0  0  0  0  0
   -5.4510   24.8620  -30.3630 S   0  0  0  0  0  0  0  0  0  0  0  0
   -5.8580   26.0160  -31.2360 O   0  0  0  0  0  0  0  0  0  0  0  0
   -5.6250   25.2550  -28.9240 O   0  0  0  0  0  0  0  0  0  0  0  0
   -3.7810   24.4950  -30.6510 N   0  0  0  0  0  0  0  0  0  0  0  0
   -2.9460   23.7000  -29.7970 C   0  0  0  0  0  0  0  0  0  0  0  0
   -3.1800   22.3270  -29.5880 C   0  0  0  0  0  0  0  0  0  0  0  0
   -2.3430   21.5920  -28.7430 C   0  0  0  0  0  0  0  0  0  0  0  0
   -1.2740   22.2170  -28.0960 C   0  0  0  0  0  0  0  0  0  0  0  0
   -1.0350   23.5770  -28.2980 C   0  0  0  0  0  0  0  0  0  0  0  0
   -1.8660   24.3180  -29.1460 C   0  0  0  0  0  0  0  0  0  0  0  0
   -1.6170   25.6730  -29.3370 O   0  0  0  0  0  0  0  0  0  0  0  0
   -6.2240   22.7410  -31.9270 C   0  0  0  0  0  0  0  0  0  0  0  0
   -3.5800   18.9940  -32.8720 C   0  0  0  0  0  0  0  0  0  0  0  0
   -2.2370   19.2190  -32.5590 C   0  0  0  0  0  0  0  0  0  0  0  0
    1.7435   17.5610  -32.4900 H   0  0  0  0  0  0  0  0  0  0  0  0
    0.3983   18.1272  -33.5372 H   0  0  0  0  0  0  0  0  0  0  0  0
    1.9664   19.0034  -33.5372 H   0  0  0  0  0  0  0  0  0  0  0  0
    2.4975   17.6287  -30.6265 H   0  0  0  0  0  0  0  0  0  0  0  0
    2.3370   16.7741  -28.2883 H   0  0  0  0  0  0  0  0  0  0  0  0
    0.4325   17.4675  -26.8299 H   0  0  0  0  0  0  0  0  0  0  0  0
   -1.3155   19.0153  -27.7133 H   0  0  0  0  0  0  0  0  0  0  0  0
   -1.1820   19.8443  -30.0619 H   0  0  0  0  0  0  0  0  0  0  0  0
   -2.0915   22.5833  -33.1421 H   0  0  0  0  0  0  0  0  0  0  0  0
   -4.4972   22.1934  -33.6663 H   0  0  0  0  0  0  0  0  0  0  0  0
   -8.6622   20.3648  -31.5933 H   0  0  0  0  0  0  0  0  0  0  0  0
   -9.0787   21.6649  -29.5041 H   0  0  0  0  0  0  0  0  0  0  0  0
   -7.6730   23.6571  -28.9671 H   0  0  0  0  0  0  0  0  0  0  0  0
   -4.0236   21.8316  -30.0909 H   0  0  0  0  0  0  0  0  0  0  0  0
   -2.5266   20.5187  -28.5872 H   0  0  0  0  0  0  0  0  0  0  0  0
   -0.6208   21.6371  -27.4274 H   0  0  0  0  0  0  0  0  0  0  0  0
   -0.1918   24.0676  -27.7897 H   0  0  0  0  0  0  0  0  0  0  0  0
   -5.4055   23.0340  -32.6009 H   0  0  0  0  0  0  0  0  0  0  0  0
   -3.9946   17.9776  -32.8011 H   0  0  0  0  0  0  0  0  0  0  0  0
   -1.6030   18.3817  -32.2319 H   0  0  0  0  0  0  0  0  0  0  0  0
  1  2  1  0
  2  3  1  0
  3  4  2  0
  4  5  1  0
  5  6  2  0
  6  7  1  0
  7  8  2  0
  2  9  1  0
  9 10  2  0
  9 11  2  0
  9 12  1  0
 12 13  2  0
 13 14  1  0
 14 15  2  0
 15 16  1  0
 16 17  2  0
 16 18  1  0
 18 19  1  0
 19 20  2  0
 20 21  1  0
 21 22  2  0
 22 23  1  0
 23 24  1  0
 24 25  2  0
 24 26  2  0
 24 27  1  0
 27 28  1  0
 28 29  2  0
 29 30  1  0
 30 31  2  0
 31 32  1  0
 32 33  2  0
 33 34  1  0
 23 35  2  0
 15 36  1  0
 36 37  2  0
  8  3  1  0
 37 12  1  0
 35 19  1  0
 33 28  1  0
  1 38  1  0
  1 39  1  0
  1 40  1  0
  4 41  1  0
  5 42  1  0
  6 43  1  0
  7 44  1  0
  8 45  1  0
 13 46  1  0
 14 47  1  0
 20 48  1  0
 21 49  1  0
 22 50  1  0
 29 51  1  0
 30 52  1  0
 31 53  1  0
 32 54  1  0
 35 55  1  0
 36 56  1  0
 37 57  1  0
M  CHG  3  18  -1  27  -1  34  -1
M  END
>  <UniqueID>  (47) 
47

>  <SMILES>  (47) 
CN(c1ccccc1)S(=O)(=O)c1ccc(C(=O)[N-]c2cccc(S(=O)(=O)[N-]c3ccccc3[O-])c2)cc1

>  <Energy>  (47) 
69.84891300405592

>  <Genealogy>  (47) 
CN(c1ccccc1)S(=O)(=O)c1ccc(C(=O)[N-]c2cccc(S(=O)(=O)[N-]c3ccccc3[O-])c2)cc1 (protonated)
CN(c1ccccc1)S(=O)(=O)c1ccc(C(=O)[N-]c2cccc(S(=O)(=O)[N-]c3ccccc3[O-])c2)cc1 (3D coordinates assigned)
CN(c1ccccc1)S(=O)(=O)c1ccc(C(=O)[N-]c2cccc(S(=O)(=O)[N-]c3ccccc3[O-])c2)cc1 (optimized conformer: 69.84891300405592 kcal/mol)

>  <smiles>  (47) 
CN(c1ccccc1)S(=O)(=O)c1ccc(C(=O)Nc2cccc(S(=O)(=O)Nc3ccccc3O)c2)cc1

>  <score_type>  (47) 
oracle

>  <origin>  (47) 
adgpu

>  <m_score__min__energy>  (47) 
-14.800000000000001

>  <m_primary>  (47) 
energy

$$$$
47:0
     RDKit          3D

 42 44  0  0  0  0  0  0  0  0999 V2000
    1.5000   21.9420  -35.3100 C   0  0  0  0  0  0  0  0  0  0  0  0
    1.0820   21.6300  -33.9850 O   0  0  0  0  0  0  0  0  0  0  0  0
   -0.2060   21.1920  -33.6440 C   0  0  0  0  0  0  0  0  0  0  0  0
   -0.8780   20.3430  -34.5310 C   0  0  0  0  0  0  0  0  0  0  0  0
   -2.1620   19.8780  -34.2370 C   0  0  0  0  0  0  0  0  0  0  0  0
   -2.8030   20.2710  -33.0480 C   0  0  0  0  0  0  0  0  0  0  0  0
   -4.1090   19.7960  -32.6930 N   0  0  0  0  0  0  0  0  0  0  0  0
   -5.3010   20.5850  -32.5690 C   0  0  0  0  0  0  0  0  0  0  0  0
   -5.2220   21.8430  -32.5880 O   0  0  0  0  0  0  0  0  0  0  0  0
   -6.6150   19.9140  -32.3610 C   0  0  0  0  0  0  0  0  0  0  0  0
   -6.7390   18.5430  -32.6670 C   0  0  0  0  0  0  0  0  0  0  0  0
   -7.9500   17.8740  -32.4810 C   0  0  0  0  0  0  0  0  0  0  0  0
   -9.0600   18.5600  -31.9940 C   0  0  0  0  0  0  0  0  0  0  0  0
   -8.9630   19.9160  -31.6890 C   0  0  0  0  0  0  0  0  0  0  0  0
   -7.7460   20.6040  -31.8500 C   0  0  0  0  0  0  0  0  0  0  0  0
   -7.6700   22.0100  -31.5600 N   0  0  0  0  0  0  0  0  0  0  0  0
   -7.2800   22.5980  -30.3110 C   0  0  0  0  0  0  0  0  0  0  0  0
   -8.0840   22.5400  -29.3420 O   0  0  0  0  0  0  0  0  0  0  0  0
   -5.9880   23.3040  -30.1440 C   0  0  0  0  0  0  0  0  0  0  0  0
   -5.8170   24.6170  -30.6210 C   0  0  0  0  0  0  0  0  0  0  0  0
   -4.5930   25.2740  -30.4610 C   0  0  0  0  0  0  0  0  0  0  0  0
   -3.5320   24.6320  -29.8140 C   0  0  0  0  0  0  0  0  0  0  0  0
   -2.3160   25.2860  -29.6570 O   0  0  0  0  0  0  0  0  0  0  0  0
   -3.6980   23.3350  -29.3220 C   0  0  0  0  0  0  0  0  0  0  0  0
   -4.9210   22.6750  -29.4800 C   0  0  0  0  0  0  0  0  0  0  0  0
   -2.1240   21.1020  -32.1490 C   0  0  0  0  0  0  0  0  0  0  0  0
   -0.8400   21.5700  -32.4440 C   0  0  0  0  0  0  0  0  0  0  0  0
    2.3810   22.5996  -35.2713 H   0  0  0  0  0  0  0  0  0  0  0  0
    1.7582   21.0140  -35.8411 H   0  0  0  0  0  0  0  0  0  0  0  0
    0.6837   22.4535  -35.8411 H   0  0  0  0  0  0  0  0  0  0  0  0
   -0.3902   20.0389  -35.4689 H   0  0  0  0  0  0  0  0  0  0  0  0
   -2.6738   19.2020  -34.9378 H   0  0  0  0  0  0  0  0  0  0  0  0
   -5.8698   17.9934  -33.0575 H   0  0  0  0  0  0  0  0  0  0  0  0
   -8.0278   16.8030  -32.7195 H   0  0  0  0  0  0  0  0  0  0  0  0
  -10.0136   18.0310  -31.8501 H   0  0  0  0  0  0  0  0  0  0  0  0
   -9.8475   20.4547  -31.3183 H   0  0  0  0  0  0  0  0  0  0  0  0
   -6.6511   25.1294  -31.1226 H   0  0  0  0  0  0  0  0  0  0  0  0
   -4.4644   26.2970  -30.8444 H   0  0  0  0  0  0  0  0  0  0  0  0
   -2.8650   22.8318  -28.8092 H   0  0  0  0  0  0  0  0  0  0  0  0
   -5.0485   21.6574  -29.0821 H   0  0  0  0  0  0  0  0  0  0  0  0
   -2.6049   21.3892  -31.2023 H   0  0  0  0  0  0  0  0  0  0  0  0
   -0.3231   22.2355  -31.7369 H   0  0  0  0  0  0  0  0  0  0  0  0
  1  2  1  0
  2  3  1  0
  3  4  2  0
  4  5  1  0
  5  6  2  0
  6  7  1  0
  7  8  1  0
  8  9  2  0
  8 10  1  0
 10 11  2  0
 11 12  1  0
 12 13  2  0
 13 14  1  0
 14 15  2  0
 15 16  1  0
 16 17  1  0
 17 18  2  0
 17 19  1  0
 19 20  2  0
 20 21  1  0
 21 22  2  0
 22 23  1  0
 22 24  1  0
 24 25  2  0
  6 26  1  0
 26 27  2  0
 27  3  1  0
 15 10  1  0
 25 19  1  0
  1 28  1  0
  1 29  1  0
  1 30  1  0
  4 31  1  0
  5 32  1  0
 11 33  1  0
 12 34  1  0
 13 35  1  0
 14 36  1  0
 20 37  1  0
 21 38  1  0
 24 39  1  0
 25 40  1  0
 26 41  1  0
 27 42  1  0
M  CHG  3   7  -1  16  -1  23  -1
M  END
>  <UniqueID>  (48) 
48

>  <SMILES>  (48) 
COc1ccc([N-]C(=O)c2ccccc2[N-]C(=O)c2ccc([O-])cc2)cc1

>  <Energy>  (48) 
58.089152043194524

>  <Genealogy>  (48) 
COc1ccc([N-]C(=O)c2ccccc2[N-]C(=O)c2ccc([O-])cc2)cc1 (protonated)
COc1ccc([N-]C(=O)c2ccccc2[N-]C(=O)c2ccc([O-])cc2)cc1 (3D coordinates assigned)
COc1ccc([N-]C(=O)c2ccccc2[N-]C(=O)c2ccc([O-])cc2)cc1 (optimized conformer: 58.089152043194524 kcal/mol)

>  <smiles>  (48) 
COc1ccc(NC(=O)c2ccccc2NC(=O)c2ccc(O)cc2)cc1

>  <score_type>  (48) 
oracle

>  <origin>  (48) 
adgpu

>  <m_score__min__energy>  (48) 
-11.16

>  <m_primary>  (48) 
energy

$$$$
48:0
     RDKit          3D

 77 80  0  0  0  0  0  0  0  0999 V2000
    0.7070   16.1510  -36.6110 C   0  0  0  0  0  0  0  0  0  0  0  0
    0.3050   16.4480  -35.2780 O   0  0  0  0  0  0  0  0  0  0  0  0
   -0.8040   17.2400  -34.9360 C   0  0  0  0  0  0  0  0  0  0  0  0
   -0.6590   18.5640  -34.4860 C   0  0  0  0  0  0  0  0  0  0  0  0
   -1.7800   19.3350  -34.1670 C   0  0  0  0  0  0  0  0  0  0  0  0
   -1.6050   20.7100  -33.6520 C   0  0  0  0  0  0  0  0  0  0  0  0
   -0.9190   21.5310  -34.3240 O   0  0  0  0  0  0  0  0  0  0  0  0
   -2.1750   21.1240  -32.3960 N   0  0  0  0  0  0  0  0  0  0  0  0
   -3.6050   21.1010  -32.2710 C   0  0  0  0  0  0  0  0  0  0  0  0
   -4.2640   19.9420  -31.8320 C   0  0  0  0  0  0  0  0  0  0  0  0
   -5.6470   19.9560  -31.6300 C   0  0  0  0  0  0  0  0  0  0  0  0
   -6.3800   21.1310  -31.8410 C   0  0  0  0  0  0  0  0  0  0  0  0
   -7.7890   21.1310  -31.5760 N   0  0  0  0  0  0  0  0  0  0  0  0
   -8.7190   20.1150  -31.9740 C   0  0  0  0  0  0  0  0  0  0  0  0
   -8.5200   18.6710  -31.6280 C   0  0  0  0  0  0  0  0  0  0  0  0
   -9.7100   20.4380  -32.6790 O   0  0  0  0  0  0  0  0  0  0  0  0
   -5.7280   22.2730  -32.3370 C   0  0  0  0  0  0  0  0  0  0  0  0
   -4.3460   22.2570  -32.5470 C   0  0  0  0  0  0  0  0  0  0  0  0
   -1.3210   21.2630  -31.1950 C   0  0  2  0  0  0  0  0  0  0  0  0
   -0.8930   19.9030  -30.6930 C   0  0  0  0  0  0  0  0  0  0  0  0
   -0.3740   19.0560  -31.4710 O   0  0  0  0  0  0  0  0  0  0  0  0
   -1.1900   19.5390  -29.3440 N   0  0  0  0  0  0  0  0  0  0  0  0
   -0.2160   19.5140  -28.2560 C   0  0  0  0  0  0  0  0  0  0  0  0
   -0.3090   20.8320  -27.4500 C   0  0  0  0  0  0  0  0  0  0  0  0
   -1.2490   20.7520  -26.2280 C   0  0  0  0  0  0  0  0  0  0  0  0
   -2.3790   19.7410  -26.4370 C   0  0  0  0  0  0  0  0  0  0  0  0
   -1.8340   18.3170  -26.6650 C   0  0  0  0  0  0  0  0  0  0  0  0
   -0.4500   18.2920  -27.3500 C   0  0  0  0  0  0  0  0  0  0  0  0
   -1.9950   22.1280  -30.1330 C   0  0  0  0  0  0  0  0  0  0  0  0
   -3.0070   21.6180  -29.2970 C   0  0  0  0  0  0  0  0  0  0  0  0
   -3.6670   22.4500  -28.3900 C   0  0  0  0  0  0  0  0  0  0  0  0
   -3.3340   23.8080  -28.3090 C   0  0  0  0  0  0  0  0  0  0  0  0
   -3.9990   24.6470  -27.4170 O   0  0  0  0  0  0  0  0  0  0  0  0
   -2.3320   24.3260  -29.1360 C   0  0  0  0  0  0  0  0  0  0  0  0
   -1.9950   25.6730  -29.0680 O   0  0  0  0  0  0  0  0  0  0  0  0
   -1.6690   23.4930  -30.0420 C   0  0  0  0  0  0  0  0  0  0  0  0
   -3.0580   18.7780  -34.2930 C   0  0  0  0  0  0  0  0  0  0  0  0
   -3.2280   17.4470  -34.7260 C   0  0  0  0  0  0  0  0  0  0  0  0
   -4.5110   16.8870  -34.8500 O   0  0  0  0  0  0  0  0  0  0  0  0
   -5.7240   17.5270  -34.4750 C   0  0  0  0  0  0  0  0  0  0  0  0
   -2.0820   16.6710  -35.0410 C   0  0  0  0  0  0  0  0  0  0  0  0
   -2.1390   15.3260  -35.4510 O   0  0  0  0  0  0  0  0  0  0  0  0
   -2.7370   14.8370  -36.6470 C   0  0  0  0  0  0  0  0  0  0  0  0
    1.5916   15.4975  -36.5902 H   0  0  0  0  0  0  0  0  0  0  0  0
   -0.1137   15.6406  -37.1364 H   0  0  0  0  0  0  0  0  0  0  0  0
    0.9537   17.0854  -37.1364 H   0  0  0  0  0  0  0  0  0  0  0  0
    0.3469   18.9974  -34.3840 H   0  0  0  0  0  0  0  0  0  0  0  0
   -3.6912   19.0214  -31.6467 H   0  0  0  0  0  0  0  0  0  0  0  0
   -6.1621   19.0404  -31.3039 H   0  0  0  0  0  0  0  0  0  0  0  0
   -8.5040   18.5549  -30.5343 H   0  0  0  0  0  0  0  0  0  0  0  0
   -9.3447   18.0763  -32.0478 H   0  0  0  0  0  0  0  0  0  0  0  0
   -7.5652   18.3216  -32.0478 H   0  0  0  0  0  0  0  0  0  0  0  0
   -6.3065   23.1815  -32.5605 H   0  0  0  0  0  0  0  0  0  0  0  0
   -3.8391   23.1549  -32.9301 H   0  0  0  0  0  0  0  0  0  0  0  0
   -0.3992   21.7983  -31.4663 H   0  0  0  0  0  0  0  0  0  0  0  0
    0.7970   19.4279  -28.6760 H   0  0  0  0  0  0  0  0  0  0  0  0
    0.6990   21.0931  -27.0953 H   0  0  0  0  0  0  0  0  0  0  0  0
   -0.7281   21.5915  -28.1265 H   0  0  0  0  0  0  0  0  0  0  0  0
   -0.6619   20.4510  -25.3478 H   0  0  0  0  0  0  0  0  0  0  0  0
   -1.7033   21.7434  -26.0842 H   0  0  0  0  0  0  0  0  0  0  0  0
   -3.0239   19.7376  -25.5459 H   0  0  0  0  0  0  0  0  0  0  0  0
   -2.9452   20.0392  -27.3317 H   0  0  0  0  0  0  0  0  0  0  0  0
   -1.7493   17.8158  -25.6895 H   0  0  0  0  0  0  0  0  0  0  0  0
   -2.5379   17.8037  -27.3366 H   0  0  0  0  0  0  0  0  0  0  0  0
    0.3278   18.2759  -26.5723 H   0  0  0  0  0  0  0  0  0  0  0  0
   -0.4082   17.3942  -27.9841 H   0  0  0  0  0  0  0  0  0  0  0  0
   -3.2802   20.5543  -29.3590 H   0  0  0  0  0  0  0  0  0  0  0  0
   -4.4506   22.0376  -27.7374 H   0  0  0  0  0  0  0  0  0  0  0  0
   -3.9070   25.6550  -27.4660 H   0  0  0  0  0  0  0  0  0  0  0  0
   -0.8842   23.9095  -30.6905 H   0  0  0  0  0  0  0  0  0  0  0  0
   -3.9416   19.3869  -34.0509 H   0  0  0  0  0  0  0  0  0  0  0  0
   -5.7949   17.5644  -33.3779 H   0  0  0  0  0  0  0  0  0  0  0  0
   -5.7387   18.5502  -34.8785 H   0  0  0  0  0  0  0  0  0  0  0  0
   -6.5769   16.9615  -34.8785 H   0  0  0  0  0  0  0  0  0  0  0  0
   -3.5654   14.1596  -36.3923 H   0  0  0  0  0  0  0  0  0  0  0  0
   -3.1224   15.6821  -37.2363 H   0  0  0  0  0  0  0  0  0  0  0  0
   -1.9853   14.2915  -37.2363 H   0  0  0  0  0  0  0  0  0  0  0  0
  1  2  1  0
  2  3  1  0
  3  4  2  0
  4  5  1  0
  5  6  1  0
  6  7  2  0
  6  8  1  0
  8  9  1  0
  9 10  2  0
 10 11  1  0
 11 12  2  0
 12 13  1  0
 13 14  1  0
 14 15  1  0
 14 16  2  0
 12 17  1  0
 17 18  2  0
  8 19  1  0
 19 20  1  0
 20 21  2  0
 20 22  1  0
 22 23  1  0
 23 24  1  0
 24 25  1  0
 25 26  1  0
 26 27  1  0
 27 28  1  0
 19 29  1  0
 29 30  2  0
 30 31  1  0
 31 32  2  0
 32 33  1  0
 32 34  1  0
 34 35  1  0
 34 36  2  0
  5 37  2  0
 37 38  1  0
 38 39  1  0
 39 40  1  0
 38 41  2  0
 41 42  1  0
 42 43  1  0
 41  3  1  0
 18  9  1  0
 28 23  1  0
 36 29  1  0
  1 44  1  0
  1 45  1  0
  1 46  1  0
  4 47  1  0
 10 48  1  0
 11 49  1  0
 15 50  1  0
 15 51  1  0
 15 52  1  0
 17 53  1  0
 18 54  1  0
 19 55  1  6
 23 56  1  0
 24 57  1  0
 24 58  1  0
 25 59  1  0
 25 60  1  0
 26 61  1  0
 26 62  1  0
 27 63  1  0
 27 64  1  0
 28 65  1  0
 28 66  1  0
 30 67  1  0
 31 68  1  0
 33 69  1  0
 36 70  1  0
 37 71  1  0
 40 72  1  0
 40 73  1  0
 40 74  1  0
 43 75  1  0
 43 76  1  0
 43 77  1  0
M  CHG  3  13  -1  22  -1  35  -1
M  END
>  <UniqueID>  (49) 
49

>  <SMILES>  (49) 
COc1cc(C(=O)N(c2ccc([N-]C(C)=O)cc2)[C@H](C(=O)[N-]C2CCCCC2)c2ccc(O)c([O-])c2)cc(OC)c1OC

>  <Energy>  (49) 
95.58097231943972

>  <Genealogy>  (49) 
COc1cc(C(=O)N(c2ccc([N-]C(C)=O)cc2)C(C(=O)[N-]C2CCCCC2)c2ccc(O)c([O-])c2)cc(OC)c1OC (protonated)
COc1cc(C(=O)N(c2ccc([N-]C(C)=O)cc2)[C@H](C(=O)[N-]C2CCCCC2)c2ccc(O)c([O-])c2)cc(OC)c1OC (chirality)
COc1cc(C(=O)N(c2ccc([N-]C(C)=O)cc2)[C@H](C(=O)[N-]C2CCCCC2)c2ccc(O)c([O-])c2)cc(OC)c1OC (3D coordinates assigned)
COc1cc(C(=O)N(c2ccc([N-]C(C)=O)cc2)[C@H](C(=O)[N-]C2CCCCC2)c2ccc(O)c([O-])c2)cc(OC)c1OC (nonaromatic ring conformer: 95.58097231943972 kcal/mol)

>  <smiles>  (49) 
COc1cc(C(=O)N(c2ccc(NC(C)=O)cc2)C(C(=O)NC2CCCCC2)c2ccc(O)c(O)c2)cc(OC)c1OC

>  <score_type>  (49) 
oracle

>  <origin>  (49) 
adgpu

>  <m_score__min__energy>  (49) 
-12.51

>  <m_primary>  (49) 
energy

$$$$
49:0
     RDKit          3D

 45 48  0  0  0  0  0  0  0  0999 V2000
   -0.9830   30.8570  -26.7530 C   0  0  0  0  0  0  0  0  0  0  0  0
   -0.2020   29.7710  -27.4850 C   0  0  0  0  0  0  0  0  0  0  0  0
   -0.2410   28.4880  -26.7180 C   0  0  0  0  0  0  0  0  0  0  0  0
    0.2520   27.3230  -27.2150 N   0  0  0  0  0  0  0  0  0  0  0  0
   -0.0300   26.4510  -26.2380 C   0  0  0  0  0  0  0  0  0  0  0  0
    0.2150   25.0810  -26.1940 C   0  0  0  0  0  0  0  0  0  0  0  0
    1.0080   24.2230  -27.5540 S   0  0  0  0  0  0  0  0  0  0  0  0
   -0.5510   23.9360  -28.3910 C   0  0  0  0  0  0  0  0  0  0  0  0
   -1.6500   24.7610  -28.1260 C   0  0  0  0  0  0  0  0  0  0  0  0
   -2.8580   24.5570  -28.8000 C   0  0  0  0  0  0  0  0  0  0  0  0
   -2.9770   23.5350  -29.7540 C   0  0  0  0  0  0  0  0  0  0  0  0
   -4.2320   23.3470  -30.4300 N   0  0  0  0  0  0  0  0  0  0  0  0
   -5.0070   24.4090  -31.0080 C   0  0  0  0  0  0  0  0  0  0  0  0
   -4.6640   25.6110  -30.8480 O   0  0  0  0  0  0  0  0  0  0  0  0
   -6.1720   24.0810  -31.7740 N   0  0  0  0  0  0  0  0  0  0  0  0
   -6.8260   22.8050  -31.8370 C   0  0  0  0  0  0  0  0  0  0  0  0
   -6.1130   21.7100  -32.3430 C   0  0  0  0  0  0  0  0  0  0  0  0
   -6.7060   20.4440  -32.4010 C   0  0  0  0  0  0  0  0  0  0  0  0
   -8.0130   20.2600  -31.9400 C   0  0  0  0  0  0  0  0  0  0  0  0
   -8.7540   18.6720  -32.0090 Cl  0  0  0  0  0  0  0  0  0  0  0  0
   -8.7230   21.3430  -31.4110 C   0  0  0  0  0  0  0  0  0  0  0  0
   -8.1330   22.6090  -31.3520 C   0  0  0  0  0  0  0  0  0  0  0  0
   -1.8790   22.6870  -29.9890 C   0  0  0  0  0  0  0  0  0  0  0  0
   -0.6710   22.8930  -29.3160 C   0  0  0  0  0  0  0  0  0  0  0  0
   -0.2080   24.3890  -25.0430 C   0  0  0  0  0  0  0  0  0  0  0  0
   -0.8630   25.0900  -24.0030 C   0  0  0  0  0  0  0  0  0  0  0  0
   -1.0890   26.4340  -24.1080 N   0  0  0  0  0  0  0  0  0  0  0  0
   -0.6660   27.0840  -25.2210 C   0  0  0  0  0  0  0  0  0  0  0  0
   -0.8250   28.3840  -25.4930 N   0  0  0  0  0  0  0  0  0  0  0  0
   -0.8801   30.7140  -25.6672 H   0  0  0  0  0  0  0  0  0  0  0  0
   -0.5870   31.8446  -27.0319 H   0  0  0  0  0  0  0  0  0  0  0  0
   -2.0453   30.7959  -27.0319 H   0  0  0  0  0  0  0  0  0  0  0  0
   -0.6475   29.6123  -28.4782 H   0  0  0  0  0  0  0  0  0  0  0  0
    0.8450   30.0930  -27.5850 H   0  0  0  0  0  0  0  0  0  0  0  0
   -1.5634   25.5708  -27.3866 H   0  0  0  0  0  0  0  0  0  0  0  0
   -3.7213   25.2024  -28.5807 H   0  0  0  0  0  0  0  0  0  0  0  0
   -4.6670   22.3970  -30.4070 H   0  0  0  0  0  0  0  0  0  0  0  0
   -5.0805   21.8465  -32.6969 H   0  0  0  0  0  0  0  0  0  0  0  0
   -6.1429   19.5921  -32.8100 H   0  0  0  0  0  0  0  0  0  0  0  0
   -9.7485   21.1980  -31.0404 H   0  0  0  0  0  0  0  0  0  0  0  0
   -8.6919   23.4549  -30.9252 H   0  0  0  0  0  0  0  0  0  0  0  0
   -1.9716   21.8578  -30.7058 H   0  0  0  0  0  0  0  0  0  0  0  0
    0.1870   22.2337  -29.5141 H   0  0  0  0  0  0  0  0  0  0  0  0
   -0.0299   23.3073  -24.9527 H   0  0  0  0  0  0  0  0  0  0  0  0
   -1.1927   24.5495  -23.1035 H   0  0  0  0  0  0  0  0  0  0  0  0
  1  2  1  0
  2  3  1  0
  3  4  2  0
  4  5  1  0
  5  6  2  0
  6  7  1  0
  7  8  1  0
  8  9  2  0
  9 10  1  0
 10 11  2  0
 11 12  1  0
 12 13  1  0
 13 14  2  0
 13 15  1  0
 15 16  1  0
 16 17  2  0
 17 18  1  0
 18 19  2  0
 19 20  1  0
 19 21  1  0
 21 22  2  0
 11 23  1  0
 23 24  2  0
  6 25  1  0
 25 26  2  0
 26 27  1  0
 27 28  2  0
 28 29  1  0
 29  3  1  0
 28  5  1  0
 24  8  1  0
 22 16  1  0
  1 30  1  0
  1 31  1  0
  1 32  1  0
  2 33  1  0
  2 34  1  0
  9 35  1  0
 10 36  1  0
 12 37  1  0
 17 38  1  0
 18 39  1  0
 21 40  1  0
 22 41  1  0
 23 42  1  0
 24 43  1  0
 25 44  1  0
 26 45  1  0
M  CHG  2  15  -1  29  -1
M  END
>  <UniqueID>  (50) 
50

>  <SMILES>  (50) 
CCc1nc2c(Sc3ccc(NC(=O)[N-]c4ccc(Cl)cc4)cc3)ccnc2[n-]1

>  <Energy>  (50) 
83.98343793624343

>  <Genealogy>  (50) 
CCc1nc2c(Sc3ccc(NC(=O)[N-]c4ccc(Cl)cc4)cc3)ccnc2[n-]1 (protonated)
CCc1nc2c(Sc3ccc(NC(=O)[N-]c4ccc(Cl)cc4)cc3)ccnc2[n-]1 (3D coordinates assigned)
CCc1nc2c(Sc3ccc(NC(=O)[N-]c4ccc(Cl)cc4)cc3)ccnc2[n-]1 (optimized conformer: 83.98343793624343 kcal/mol)

>  <smiles>  (50) 
CCc1nc2c(Sc3ccc(NC(=O)Nc4ccc(Cl)cc4)cc3)ccnc2[nH]1

>  <score_type>  (50) 
oracle

>  <origin>  (50) 
adgpu

>  <m_score__min__energy>  (50) 
-11.609999999999999

>  <m_primary>  (50) 
energy

$$$$
