0:0
     RDKit          3D

 25 26  0  0  0  0  0  0  0  0999 V2000
   -4.0190   25.5380  -30.8310 N   0  0  0  0  0  0  0  0  0  0  0  0
   -3.9430   24.4580  -29.8930 C   0  0  0  0  0  0  0  0  0  0  0  0
   -2.7260   24.2020  -29.2430 C   0  0  0  0  0  0  0  0  0  0  0  0
   -2.6370   23.2040  -28.2680 C   0  0  0  0  0  0  0  0  0  0  0  0
   -1.1110   22.9010  -27.4570 Cl  0  0  0  0  0  0  0  0  0  0  0  0
   -3.7680   22.4590  -27.9290 C   0  0  0  0  0  0  0  0  0  0  0  0
   -4.9820   22.6950  -28.5760 C   0  0  0  0  0  0  0  0  0  0  0  0
   -5.0760   23.6730  -29.5780 C   0  0  0  0  0  0  0  0  0  0  0  0
   -6.6520   23.8930  -30.4230 S   0  0  0  0  0  0  0  0  0  0  0  0
   -6.4340   22.4490  -31.4780 C   0  0  0  0  0  0  0  0  0  0  0  0
   -5.1530   22.1620  -31.9730 C   0  0  0  0  0  0  0  0  0  0  0  0
   -4.9450   21.0570  -32.8020 C   0  0  0  0  0  0  0  0  0  0  0  0
   -6.0130   20.2190  -33.1320 C   0  0  0  0  0  0  0  0  0  0  0  0
   -5.7510   18.8310  -34.1710 Cl  0  0  0  0  0  0  0  0  0  0  0  0
   -7.2890   20.4840  -32.6250 C   0  0  0  0  0  0  0  0  0  0  0  0
   -7.5060   21.5890  -31.7940 C   0  0  0  0  0  0  0  0  0  0  0  0
   -9.1170   21.8400  -31.1390 Cl  0  0  0  0  0  0  0  0  0  0  0  0
   -4.8360   26.1900  -30.8220 H   0  0  0  0  0  0  0  0  0  0  0  0
   -3.3150   25.6580  -31.5900 H   0  0  0  0  0  0  0  0  0  0  0  0
   -1.8344   24.7916  -29.5028 H   0  0  0  0  0  0  0  0  0  0  0  0
   -3.7022   21.6846  -27.1506 H   0  0  0  0  0  0  0  0  0  0  0  0
   -5.8714   22.1102  -28.2985 H   0  0  0  0  0  0  0  0  0  0  0  0
   -4.3064   22.8117  -31.7064 H   0  0  0  0  0  0  0  0  0  0  0  0
   -3.9395   20.8465  -33.1953 H   0  0  0  0  0  0  0  0  0  0  0  0
   -8.1276   19.8197  -32.8810 H   0  0  0  0  0  0  0  0  0  0  0  0
  1  2  1  0
  2  3  2  0
  3  4  1  0
  4  5  1  0
  4  6  2  0
  6  7  1  0
  7  8  2  0
  8  9  1  0
  9 10  1  0
 10 11  2  0
 11 12  1  0
 12 13  2  0
 13 14  1  0
 13 15  1  0
 15 16  2  0
 16 17  1  0
  8  2  1  0
 16 10  1  0
  1 18  1  0
  1 19  1  0
  3 20  1  0
  6 21  1  0
  7 22  1  0
 11 23  1  0
 12 24  1  0
 15 25  1  0
M  END
>  <UniqueID>  (1) 
1

>  <SMILES>  (1) 
Nc1cc(Cl)ccc1Sc1ccc(Cl)cc1Cl

>  <Energy>  (1) 
23.622099525168085

>  <Genealogy>  (1) 
Nc1cc(Cl)ccc1Sc1ccc(Cl)cc1Cl (3D coordinates assigned)
Nc1cc(Cl)ccc1Sc1ccc(Cl)cc1Cl (optimized conformer: 23.622099525168085 kcal/mol)

>  <smiles>  (1) 
Nc1cc(Cl)ccc1Sc1ccc(Cl)cc1Cl

>  <score_type>  (1) 
oracle

>  <origin>  (1) 
adgpu

>  <m_score__min__energy>  (1) 
-7.7400000000000002

>  <m_primary>  (1) 
energy

$$$$
1:0
     RDKit          3D

 32 33  0  0  0  0  0  0  0  0999 V2000
   -7.9260   20.4350  -32.3470 C   0  0  0  0  0  0  0  0  0  0  0  0
   -8.3320   21.8370  -31.9010 C   0  0  0  0  0  0  0  0  0  0  0  0
   -7.1180   22.6560  -31.5520 C   0  0  0  0  0  0  0  0  0  0  0  0
   -5.8560   22.2920  -32.0410 C   0  0  0  0  0  0  0  0  0  0  0  0
   -4.7250   23.0320  -31.6930 C   0  0  0  0  0  0  0  0  0  0  0  0
   -4.8330   24.1470  -30.8420 C   0  0  0  0  0  0  0  0  0  0  0  0
   -3.6830   24.9220  -30.4700 N   0  0  0  0  0  0  0  0  0  0  0  0
   -2.5740   24.5300  -29.1970 S   0  0  0  0  0  0  0  0  0  0  0  0
   -3.3400   24.2580  -27.9340 O   0  0  0  0  0  0  0  0  0  0  0  0
   -1.6110   25.6650  -28.9850 O   0  0  0  0  0  0  0  0  0  0  0  0
   -1.6790   23.0920  -29.6450 C   0  0  0  0  0  0  0  0  0  0  0  0
   -0.7470   22.4510  -28.8640 C   0  0  0  0  0  0  0  0  0  0  0  0
   -0.2940   21.3960  -29.5550 N   0  0  0  0  0  0  0  0  0  0  0  0
   -0.9580   21.4180  -30.7270 C   0  0  0  0  0  0  0  0  0  0  0  0
   -1.8230   22.4510  -30.8210 N   0  0  0  0  0  0  0  0  0  0  0  0
   -6.0990   24.5090  -30.3360 C   0  0  0  0  0  0  0  0  0  0  0  0
   -6.2420   25.6910  -29.4160 C   0  0  0  0  0  0  0  0  0  0  0  0
   -7.2320   23.7570  -30.6920 C   0  0  0  0  0  0  0  0  0  0  0  0
   -7.7442   19.8071  -31.4623 H   0  0  0  0  0  0  0  0  0  0  0  0
   -8.7333   19.9939  -32.9501 H   0  0  0  0  0  0  0  0  0  0  0  0
   -7.0079   20.4936  -32.9501 H   0  0  0  0  0  0  0  0  0  0  0  0
   -8.8789   22.3315  -32.7173 H   0  0  0  0  0  0  0  0  0  0  0  0
   -8.9710   21.7537  -31.0095 H   0  0  0  0  0  0  0  0  0  0  0  0
   -5.7564   21.4187  -32.7024 H   0  0  0  0  0  0  0  0  0  0  0  0
   -3.7404   22.7408  -32.0876 H   0  0  0  0  0  0  0  0  0  0  0  0
   -0.4302   22.7501  -27.8540 H   0  0  0  0  0  0  0  0  0  0  0  0
    0.4210   20.6990  -29.2470 H   0  0  0  0  0  0  0  0  0  0  0  0
   -0.8112   20.6734  -31.5232 H   0  0  0  0  0  0  0  0  0  0  0  0
   -6.2007   25.3495  -28.3712 H   0  0  0  0  0  0  0  0  0  0  0  0
   -5.4233   26.4017  -29.6021 H   0  0  0  0  0  0  0  0  0  0  0  0
   -7.2066   26.1859  -29.6021 H   0  0  0  0  0  0  0  0  0  0  0  0
   -8.2180   24.0354  -30.2917 H   0  0  0  0  0  0  0  0  0  0  0  0
  1  2  1  0
  2  3  1  0
  3  4  2  0
  4  5  1  0
  5  6  2  0
  6  7  1  0
  7  8  1  0
  8  9  2  0
  8 10  2  0
  8 11  1  0
 11 12  2  0
 12 13  1  0
 13 14  1  0
 14 15  2  0
  6 16  1  0
 16 17  1  0
 16 18  2  0
 18  3  1  0
 15 11  1  0
  1 19  1  0
  1 20  1  0
  1 21  1  0
  2 22  1  0
  2 23  1  0
  4 24  1  0
  5 25  1  0
 12 26  1  0
 13 27  1  0
 14 28  1  0
 17 29  1  0
 17 30  1  0
 17 31  1  0
 18 32  1  0
M  CHG  1   7  -1
M  END
>  <UniqueID>  (2) 
2

>  <SMILES>  (2) 
CCc1ccc([N-]S(=O)(=O)c2c[nH]cn2)c(C)c1

>  <Energy>  (2) 
61.058080469316565

>  <Genealogy>  (2) 
CCc1ccc([N-]S(=O)(=O)c2c[nH]cn2)c(C)c1 (protonated)
CCc1ccc([N-]S(=O)(=O)c2c[nH]cn2)c(C)c1 (3D coordinates assigned)
CCc1ccc([N-]S(=O)(=O)c2c[nH]cn2)c(C)c1 (optimized conformer: 61.058080469316565 kcal/mol)

>  <smiles>  (2) 
CCc1ccc(NS(=O)(=O)c2c[nH]cn2)c(C)c1

>  <score_type>  (2) 
oracle

>  <origin>  (2) 
adgpu

>  <m_score__min__energy>  (2) 
-8.2200000000000006

>  <m_primary>  (2) 
energy

$$$$
2:0
     RDKit          3D

 44 46  0  0  0  0  0  0  0  0999 V2000
   -2.3590   21.1620  -28.5200 C   0  0  0  0  0  0  0  0  0  0  0  0
   -2.9550   21.7540  -29.7140 N   0  0  0  0  0  0  0  0  0  0  0  0
   -2.4560   21.3940  -31.0110 C   0  0  0  0  0  0  0  0  0  0  0  0
   -1.1130   21.6590  -31.3240 C   0  0  0  0  0  0  0  0  0  0  0  0
   -0.6190   21.3970  -32.6020 C   0  0  0  0  0  0  0  0  0  0  0  0
   -1.4600   20.8730  -33.5830 C   0  0  0  0  0  0  0  0  0  0  0  0
   -2.7990   20.6010  -33.2860 C   0  0  0  0  0  0  0  0  0  0  0  0
   -3.3100   20.8430  -31.9980 C   0  0  0  0  0  0  0  0  0  0  0  0
   -4.7280   20.5160  -31.7120 C   0  0  0  0  0  0  0  0  0  0  0  0
   -5.0560   19.3180  -31.4930 O   0  0  0  0  0  0  0  0  0  0  0  0
   -5.7130   21.5560  -31.6160 N   0  0  0  0  0  0  0  0  0  0  0  0
   -7.1180   21.3570  -31.8500 C   0  0  0  0  0  0  0  0  0  0  0  0
   -7.5460   20.1960  -32.5160 C   0  0  0  0  0  0  0  0  0  0  0  0
   -8.9080   19.9640  -32.7300 C   0  0  0  0  0  0  0  0  0  0  0  0
   -9.8550   20.8810  -32.2680 C   0  0  0  0  0  0  0  0  0  0  0  0
   -9.4430   22.0280  -31.5860 C   0  0  0  0  0  0  0  0  0  0  0  0
   -8.0810   22.2670  -31.3730 C   0  0  0  0  0  0  0  0  0  0  0  0
   -3.8580   23.2250  -29.5440 S   0  0  0  0  0  0  0  0  0  0  0  0
   -5.2790   22.9030  -29.1730 O   0  0  0  0  0  0  0  0  0  0  0  0
   -3.8690   23.9830  -30.8410 O   0  0  0  0  0  0  0  0  0  0  0  0
   -3.1070   24.2170  -28.3000 C   0  0  0  0  0  0  0  0  0  0  0  0
   -3.8030   24.4870  -27.1120 C   0  0  0  0  0  0  0  0  0  0  0  0
   -3.2250   25.2960  -26.1290 C   0  0  0  0  0  0  0  0  0  0  0  0
   -1.9540   25.8410  -26.3280 C   0  0  0  0  0  0  0  0  0  0  0  0
   -1.2600   25.5810  -27.5150 C   0  0  0  0  0  0  0  0  0  0  0  0
   -1.8360   24.7730  -28.5000 C   0  0  0  0  0  0  0  0  0  0  0  0
   -2.8111   21.6111  -27.6234 H   0  0  0  0  0  0  0  0  0  0  0  0
   -2.5414   20.0772  -28.5185 H   0  0  0  0  0  0  0  0  0  0  0  0
   -1.2755   21.3517  -28.5185 H   0  0  0  0  0  0  0  0  0  0  0  0
   -0.4455   22.0763  -30.5557 H   0  0  0  0  0  0  0  0  0  0  0  0
    0.4356   21.6041  -32.8362 H   0  0  0  0  0  0  0  0  0  0  0  0
   -1.0696   20.6733  -34.5918 H   0  0  0  0  0  0  0  0  0  0  0  0
   -3.4587   20.1941  -34.0666 H   0  0  0  0  0  0  0  0  0  0  0  0
   -5.3940   22.4990  -31.2980 H   0  0  0  0  0  0  0  0  0  0  0  0
   -6.8047   19.4650  -32.8712 H   0  0  0  0  0  0  0  0  0  0  0  0
   -9.2341   19.0585  -33.2627 H   0  0  0  0  0  0  0  0  0  0  0  0
  -10.9260   20.6996  -32.4415 H   0  0  0  0  0  0  0  0  0  0  0  0
  -10.1907   22.7448  -31.2156 H   0  0  0  0  0  0  0  0  0  0  0  0
   -7.7612   23.1691  -30.8309 H   0  0  0  0  0  0  0  0  0  0  0  0
   -4.8050   24.0615  -26.9538 H   0  0  0  0  0  0  0  0  0  0  0  0
   -3.7718   25.5037  -25.1974 H   0  0  0  0  0  0  0  0  0  0  0  0
   -1.4991   26.4741  -25.5520 H   0  0  0  0  0  0  0  0  0  0  0  0
   -0.2607   26.0126  -27.6732 H   0  0  0  0  0  0  0  0  0  0  0  0
   -1.2904   24.5732  -29.4340 H   0  0  0  0  0  0  0  0  0  0  0  0
  1  2  1  0
  2  3  1  0
  3  4  2  0
  4  5  1  0
  5  6  2  0
  6  7  1  0
  7  8  2  0
  8  9  1  0
  9 10  2  0
  9 11  1  0
 11 12  1  0
 12 13  2  0
 13 14  1  0
 14 15  2  0
 15 16  1  0
 16 17  2  0
  2 18  1  0
 18 19  2  0
 18 20  2  0
 18 21  1  0
 21 22  2  0
 22 23  1  0
 23 24  2  0
 24 25  1  0
 25 26  2  0
  8  3  1  0
 17 12  1  0
 26 21  1  0
  1 27  1  0
  1 28  1  0
  1 29  1  0
  4 30  1  0
  5 31  1  0
  6 32  1  0
  7 33  1  0
 11 34  1  0
 13 35  1  0
 14 36  1  0
 15 37  1  0
 16 38  1  0
 17 39  1  0
 22 40  1  0
 23 41  1  0
 24 42  1  0
 25 43  1  0
 26 44  1  0
M  END
>  <UniqueID>  (3) 
3

>  <SMILES>  (3) 
CN(c1ccccc1C(=O)Nc1ccccc1)S(=O)(=O)c1ccccc1

>  <Energy>  (3) 
57.835001732871326

>  <Genealogy>  (3) 
CN(c1ccccc1C(=O)Nc1ccccc1)S(=O)(=O)c1ccccc1 (3D coordinates assigned)
CN(c1ccccc1C(=O)Nc1ccccc1)S(=O)(=O)c1ccccc1 (optimized conformer: 57.835001732871326 kcal/mol)

>  <smiles>  (3) 
CN(c1ccccc1C(=O)Nc1ccccc1)S(=O)(=O)c1ccccc1

>  <score_type>  (3) 
oracle

>  <origin>  (3) 
adgpu

>  <m_score__min__energy>  (3) 
-9.3399999999999999

>  <m_primary>  (3) 
energy

$$$$
3:0
     RDKit          3D

 45 48  0  0  0  0  0  0  0  0999 V2000
   -4.6020   25.1780  -30.8840 O   0  0  0  0  0  0  0  0  0  0  0  0
   -4.4610   23.7560  -30.4140 S   0  0  0  0  0  0  0  0  0  0  0  0
   -3.1420   23.2140  -30.8890 O   0  0  0  0  0  0  0  0  0  0  0  0
   -4.5030   23.7170  -28.6800 N   0  0  0  0  0  0  0  0  0  0  0  0
   -3.3270   23.8260  -27.8590 C   0  0  0  0  0  0  0  0  0  0  0  0
   -3.1670   24.9250  -26.9960 C   0  0  0  0  0  0  0  0  0  0  0  0
   -2.0840   24.9870  -26.1080 C   0  0  0  0  0  0  0  0  0  0  0  0
   -1.9300   26.0830  -25.2430 C   0  0  0  0  0  0  0  0  0  0  0  0
   -0.8550   26.1270  -24.3510 C   0  0  0  0  0  0  0  0  0  0  0  0
    0.0720   25.0790  -24.3120 C   0  0  0  0  0  0  0  0  0  0  0  0
   -0.0710   23.9830  -25.1660 C   0  0  0  0  0  0  0  0  0  0  0  0
   -1.1470   23.9280  -26.0680 C   0  0  0  0  0  0  0  0  0  0  0  0
   -1.2980   22.8380  -26.9320 C   0  0  0  0  0  0  0  0  0  0  0  0
   -2.3640   22.7860  -27.8440 C   0  0  0  0  0  0  0  0  0  0  0  0
   -2.4320   21.6680  -28.7500 N   0  0  0  0  0  0  0  0  0  0  0  0
   -1.4720   20.5960  -28.7940 C   0  0  0  0  0  0  0  0  0  0  0  0
   -0.4760   20.6270  -29.7820 C   0  0  0  0  0  0  0  0  0  0  0  0
    0.5050   19.6300  -29.8340 C   0  0  0  0  0  0  0  0  0  0  0  0
    0.4870   18.5810  -28.9140 C   0  0  0  0  0  0  0  0  0  0  0  0
   -0.5180   18.5190  -27.9450 C   0  0  0  0  0  0  0  0  0  0  0  0
   -1.5030   19.5130  -27.8800 C   0  0  0  0  0  0  0  0  0  0  0  0
   -2.7910   19.3190  -26.6940 Cl  0  0  0  0  0  0  0  0  0  0  0  0
   -5.7630   22.7560  -31.0480 C   0  0  0  0  0  0  0  0  0  0  0  0
   -7.0960   22.9880  -30.6760 C   0  0  0  0  0  0  0  0  0  0  0  0
   -8.1180   22.1580  -31.1630 C   0  0  0  0  0  0  0  0  0  0  0  0
   -7.8100   21.0940  -32.0230 C   0  0  0  0  0  0  0  0  0  0  0  0
   -9.0870   20.0390  -32.6150 Cl  0  0  0  0  0  0  0  0  0  0  0  0
   -6.4810   20.8710  -32.4040 C   0  0  0  0  0  0  0  0  0  0  0  0
   -5.4620   21.7020  -31.9230 C   0  0  0  0  0  0  0  0  0  0  0  0
   -5.4410   23.6530  -28.2280 H   0  0  0  0  0  0  0  0  0  0  0  0
   -3.8998   25.7450  -27.0181 H   0  0  0  0  0  0  0  0  0  0  0  0
   -2.6569   26.9082  -25.2677 H   0  0  0  0  0  0  0  0  0  0  0  0
   -0.7370   26.9884  -23.6771 H   0  0  0  0  0  0  0  0  0  0  0  0
    0.9154   25.1186  -23.6069 H   0  0  0  0  0  0  0  0  0  0  0  0
    0.6599   23.1616  -25.1324 H   0  0  0  0  0  0  0  0  0  0  0  0
   -0.5727   22.0118  -26.8963 H   0  0  0  0  0  0  0  0  0  0  0  0
   -3.2330   21.6300  -29.4240 H   0  0  0  0  0  0  0  0  0  0  0  0
   -0.4661   21.4413  -30.5215 H   0  0  0  0  0  0  0  0  0  0  0  0
    1.2917   19.6735  -30.6016 H   0  0  0  0  0  0  0  0  0  0  0  0
    1.2638   17.8030  -28.9515 H   0  0  0  0  0  0  0  0  0  0  0  0
   -0.5358   17.6844  -27.2287 H   0  0  0  0  0  0  0  0  0  0  0  0
   -7.3405   23.8218  -30.0015 H   0  0  0  0  0  0  0  0  0  0  0  0
   -9.1620   22.3425  -30.8696 H   0  0  0  0  0  0  0  0  0  0  0  0
   -6.2370   20.0407  -33.0830 H   0  0  0  0  0  0  0  0  0  0  0  0
   -4.4210   21.5275  -32.2326 H   0  0  0  0  0  0  0  0  0  0  0  0
  1  2  2  0
  2  3  2  0
  2  4  1  0
  4  5  1  0
  5  6  2  0
  6  7  1  0
  7  8  2  0
  8  9  1  0
  9 10  2  0
 10 11  1  0
 11 12  2  0
 12 13  1  0
 13 14  2  0
 14 15  1  0
 15 16  1  0
 16 17  2  0
 17 18  1  0
 18 19  2  0
 19 20  1  0
 20 21  2  0
 21 22  1  0
  2 23  1  0
 23 24  2  0
 24 25  1  0
 25 26  2  0
 26 27  1  0
 26 28  1  0
 28 29  2  0
 14  5  1  0
 21 16  1  0
 29 23  1  0
 12  7  1  0
  4 30  1  0
  6 31  1  0
  8 32  1  0
  9 33  1  0
 10 34  1  0
 11 35  1  0
 13 36  1  0
 15 37  1  0
 17 38  1  0
 18 39  1  0
 19 40  1  0
 20 41  1  0
 24 42  1  0
 25 43  1  0
 28 44  1  0
 29 45  1  0
M  END
>  <UniqueID>  (4) 
4

>  <SMILES>  (4) 
O=S(=O)(Nc1cc2ccccc2cc1Nc1ccccc1Cl)c1ccc(Cl)cc1

>  <Energy>  (4) 
65.59809036029085

>  <Genealogy>  (4) 
O=S(=O)(Nc1cc2ccccc2cc1Nc1ccccc1Cl)c1ccc(Cl)cc1 (3D coordinates assigned)
O=S(=O)(Nc1cc2ccccc2cc1Nc1ccccc1Cl)c1ccc(Cl)cc1 (optimized conformer: 65.59809036029085 kcal/mol)

>  <smiles>  (4) 
O=S(=O)(Nc1cc2ccccc2cc1Nc1ccccc1Cl)c1ccc(Cl)cc1

>  <score_type>  (4) 
oracle

>  <origin>  (4) 
adgpu

>  <m_score__min__energy>  (4) 
-10.33

>  <m_primary>  (4) 
energy

$$$$
4:0
     RDKit          3D

 39 41  0  0  0  0  0  0  0  0999 V2000
   -7.8700   20.1050  -32.7250 C   0  0  0  0  0  0  0  0  0  0  0  0
   -7.2420   21.3360  -32.1420 C   0  0  0  0  0  0  0  0  0  0  0  0
   -5.8800   21.5980  -32.3570 C   0  0  0  0  0  0  0  0  0  0  0  0
   -5.2940   22.7550  -31.8380 C   0  0  0  0  0  0  0  0  0  0  0  0
   -6.0650   23.6690  -31.1070 C   0  0  0  0  0  0  0  0  0  0  0  0
   -5.3280   25.1120  -30.4170 S   0  0  0  0  0  0  0  0  0  0  0  0
   -5.7320   26.3380  -31.1880 O   0  0  0  0  0  0  0  0  0  0  0  0
   -5.7840   25.2570  -28.9930 O   0  0  0  0  0  0  0  0  0  0  0  0
   -3.6000   24.9640  -30.4500 N   0  0  0  0  0  0  0  0  0  0  0  0
   -2.8190   24.1820  -29.5360 C   0  0  0  0  0  0  0  0  0  0  0  0
   -3.1860   22.8710  -29.1770 C   0  0  0  0  0  0  0  0  0  0  0  0
   -2.3980   22.1390  -28.2780 C   0  0  0  0  0  0  0  0  0  0  0  0
   -1.2420   22.7100  -27.7300 C   0  0  0  0  0  0  0  0  0  0  0  0
   -0.8800   24.0190  -28.0770 C   0  0  0  0  0  0  0  0  0  0  0  0
   -1.6600   24.7470  -28.9820 C   0  0  0  0  0  0  0  0  0  0  0  0
   -1.2770   26.0380  -29.3290 O   0  0  0  0  0  0  0  0  0  0  0  0
   -0.4540   21.9210  -26.7180 C   0  0  0  0  0  0  0  0  0  0  0  0
   -0.3020   20.4440  -27.1410 C   0  0  0  0  0  0  0  0  0  0  0  0
   -1.5310   19.8400  -27.8710 C   0  0  0  0  0  0  0  0  0  0  0  0
   -2.7730   20.7420  -27.8640 C   0  0  0  0  0  0  0  0  0  0  0  0
   -7.4310   23.4220  -30.9110 C   0  0  0  0  0  0  0  0  0  0  0  0
   -8.0180   22.2640  -31.4300 C   0  0  0  0  0  0  0  0  0  0  0  0
   -8.2067   19.4450  -31.9120 H   0  0  0  0  0  0  0  0  0  0  0  0
   -8.7320   20.3918  -33.3453 H   0  0  0  0  0  0  0  0  0  0  0  0
   -7.1319   19.5755  -33.3453 H   0  0  0  0  0  0  0  0  0  0  0  0
   -5.2711   20.8889  -32.9370 H   0  0  0  0  0  0  0  0  0  0  0  0
   -4.2240   22.9493  -32.0036 H   0  0  0  0  0  0  0  0  0  0  0  0
   -4.0940   22.4197  -29.6034 H   0  0  0  0  0  0  0  0  0  0  0  0
    0.0192   24.4748  -27.6368 H   0  0  0  0  0  0  0  0  0  0  0  0
    0.5460   22.3680  -26.6172 H   0  0  0  0  0  0  0  0  0  0  0  0
   -0.9962   21.9505  -25.7614 H   0  0  0  0  0  0  0  0  0  0  0  0
    0.5650   20.3695  -27.8139 H   0  0  0  0  0  0  0  0  0  0  0  0
   -0.1843   19.8688  -26.2108 H   0  0  0  0  0  0  0  0  0  0  0  0
   -1.2505   19.6473  -28.9170 H   0  0  0  0  0  0  0  0  0  0  0  0
   -1.8029   18.9235  -27.3268 H   0  0  0  0  0  0  0  0  0  0  0  0
   -3.5179   20.3414  -28.5673 H   0  0  0  0  0  0  0  0  0  0  0  0
   -3.1943   20.7677  -26.8482 H   0  0  0  0  0  0  0  0  0  0  0  0
   -8.0429   24.1415  -30.3471 H   0  0  0  0  0  0  0  0  0  0  0  0
   -9.0920   22.0795  -31.2798 H   0  0  0  0  0  0  0  0  0  0  0  0
  1  2  1  0
  2  3  2  0
  3  4  1  0
  4  5  2  0
  5  6  1  0
  6  7  2  0
  6  8  2  0
  6  9  1  0
  9 10  1  0
 10 11  2  0
 11 12  1  0
 12 13  2  0
 13 14  1  0
 14 15  2  0
 15 16  1  0
 13 17  1  0
 17 18  1  0
 18 19  1  0
 19 20  1  0
  5 21  1  0
 21 22  2  0
 22  2  1  0
 15 10  1  0
 20 12  1  0
  1 23  1  0
  1 24  1  0
  1 25  1  0
  3 26  1  0
  4 27  1  0
 11 28  1  0
 14 29  1  0
 17 30  1  0
 17 31  1  0
 18 32  1  0
 18 33  1  0
 19 34  1  0
 19 35  1  0
 20 36  1  0
 20 37  1  0
 21 38  1  0
 22 39  1  0
M  CHG  2   9  -1  16  -1
M  END
>  <UniqueID>  (5) 
5

>  <SMILES>  (5) 
Cc1ccc(S(=O)(=O)[N-]c2cc3c(cc2[O-])CCCC3)cc1

>  <Energy>  (5) 
47.10610158212969

>  <Genealogy>  (5) 
Cc1ccc(S(=O)(=O)[N-]c2cc3c(cc2[O-])CCCC3)cc1 (protonated)
Cc1ccc(S(=O)(=O)[N-]c2cc3c(cc2[O-])CCCC3)cc1 (3D coordinates assigned)
Cc1ccc(S(=O)(=O)[N-]c2cc3c(cc2[O-])CCCC3)cc1 (nonaromatic ring conformer: 47.10610158212969 kcal/mol)

>  <smiles>  (5) 
Cc1ccc(S(=O)(=O)Nc2cc3c(cc2O)CCCC3)cc1

>  <score_type>  (5) 
oracle

>  <origin>  (5) 
adgpu

>  <m_score__min__energy>  (5) 
-13.300000000000001

>  <m_primary>  (5) 
energy

$$$$
5:0
     RDKit          3D

 24 25  0  0  0  0  0  0  0  0999 V2000
   -0.3755   22.7004  -29.9054 H   0  0  0  0  0  0  0  0  0  0  0  0
   -1.2850   23.2430  -29.6080 C   0  0  0  0  0  0  0  0  0  0  0  0
   -2.2890   23.2590  -30.4400 N   0  0  0  0  0  0  0  0  0  0  0  0
   -3.6100   23.7710  -30.2030 C   0  0  0  0  0  0  0  0  0  0  0  0
   -3.9140   25.0270  -30.6310 N   0  0  0  0  0  0  0  0  0  0  0  0
   -5.1530   25.5640  -30.4690 C   0  0  0  0  0  0  0  0  0  0  0  0
   -5.3587   26.5867  -30.8180 H   0  0  0  0  0  0  0  0  0  0  0  0
   -6.1640   24.8180  -29.8600 C   0  0  0  0  0  0  0  0  0  0  0  0
   -7.1646   25.2513  -29.7154 H   0  0  0  0  0  0  0  0  0  0  0  0
   -5.8910   23.5170  -29.4370 C   0  0  0  0  0  0  0  0  0  0  0  0
   -6.6798   22.9148  -28.9625 H   0  0  0  0  0  0  0  0  0  0  0  0
   -4.6150   22.9810  -29.6170 C   0  0  0  0  0  0  0  0  0  0  0  0
   -4.3973   21.9494  -29.3032 H   0  0  0  0  0  0  0  0  0  0  0  0
   -1.2960   23.9110  -28.2880 C   0  0  0  0  0  0  0  0  0  0  0  0
   -1.2810   25.3190  -28.1940 C   0  0  0  0  0  0  0  0  0  0  0  0
   -1.2390   26.1080  -29.3400 O   0  0  0  0  0  0  0  0  0  0  0  0
   -1.2880   25.9390  -26.9410 C   0  0  0  0  0  0  0  0  0  0  0  0
   -1.2943   27.0369  -26.8730 H   0  0  0  0  0  0  0  0  0  0  0  0
   -1.2870   25.1710  -25.7770 C   0  0  0  0  0  0  0  0  0  0  0  0
   -1.2965   25.6636  -24.7935 H   0  0  0  0  0  0  0  0  0  0  0  0
   -1.2740   23.7780  -25.8590 C   0  0  0  0  0  0  0  0  0  0  0  0
   -1.2669   23.1762  -24.9383 H   0  0  0  0  0  0  0  0  0  0  0  0
   -1.2700   23.1420  -27.1060 C   0  0  0  0  0  0  0  0  0  0  0  0
   -1.2750   21.2250  -27.1510 Br  0  0  0  0  0  0  0  0  0  0  0  0
  1  2  1  0
  2  3  2  0
  3  4  1  0
  4  5  2  0
  5  6  1  0
  6  7  1  0
  6  8  2  0
  8  9  1  0
  8 10  1  0
 10 11  1  0
 10 12  2  0
 12 13  1  0
  2 14  1  0
 14 15  2  0
 15 16  1  0
 15 17  1  0
 17 18  1  0
 17 19  2  0
 19 20  1  0
 19 21  1  0
 21 22  1  0
 21 23  2  0
 23 24  1  0
 12  4  1  0
 23 14  1  0
M  CHG  1  16  -1
M  END
>  <UniqueID>  (6) 
6

>  <SMILES>  (6) 
[O-]c1cccc(Br)c1/C=N\c1ccccn1

>  <Energy>  (6) 
39.29641807625328

>  <Genealogy>  (6) 
[O-]c1cccc(Br)c1C=Nc1ccccn1 (protonated)
[O-]c1cccc(Br)c1/C=N\c1ccccn1 (cis-trans isomerization)
[O-]c1cccc(Br)c1/C=N\c1ccccn1 (3D coordinates assigned)
[O-]c1cccc(Br)c1/C=N\c1ccccn1 (optimized conformer: 39.29641807625328 kcal/mol)

>  <smiles>  (6) 
Oc1cccc(Br)c1C=Nc1ccccn1

>  <score_type>  (6) 
oracle

>  <origin>  (6) 
adgpu

>  <m_score__min__energy>  (6) 
-9.4299999999999997

>  <m_primary>  (6) 
energy

$$$$
6:0
     RDKit          3D

 19 20  0  0  0  0  0  0  0  0999 V2000
   -0.0760   24.1900  -28.4460 O   0  0  0  0  0  0  0  0  0  0  0  0
   -1.2900   24.1750  -29.1200 C   0  0  0  0  0  0  0  0  0  0  0  0
   -1.8840   23.0420  -29.6360 C   0  0  0  0  0  0  0  0  0  0  0  0
   -3.0660   23.4680  -30.2100 C   0  0  0  0  0  0  0  0  0  0  0  0
   -4.0630   22.6140  -30.9010 C   0  0  0  0  0  0  0  0  0  0  0  0
   -3.6620   21.4910  -31.6470 C   0  0  0  0  0  0  0  0  0  0  0  0
   -4.6100   20.6960  -32.2990 C   0  0  0  0  0  0  0  0  0  0  0  0
   -5.9680   21.0150  -32.2160 C   0  0  0  0  0  0  0  0  0  0  0  0
   -7.1570   20.0160  -33.0350 Cl  0  0  0  0  0  0  0  0  0  0  0  0
   -6.3780   22.1330  -31.4860 C   0  0  0  0  0  0  0  0  0  0  0  0
   -5.4330   22.9310  -30.8340 C   0  0  0  0  0  0  0  0  0  0  0  0
   -3.1060   24.8400  -30.0130 C   0  0  0  0  0  0  0  0  0  0  0  0
   -4.1060   25.6910  -30.4650 O   0  0  0  0  0  0  0  0  0  0  0  0
   -2.0230   25.2810  -29.3430 N   0  0  0  0  0  0  0  0  0  0  0  0
   -1.4969   22.0131  -29.5982 H   0  0  0  0  0  0  0  0  0  0  0  0
   -2.5943   21.2361  -31.7181 H   0  0  0  0  0  0  0  0  0  0  0  0
   -4.2863   19.8185  -32.8779 H   0  0  0  0  0  0  0  0  0  0  0  0
   -7.4467   22.3862  -31.4239 H   0  0  0  0  0  0  0  0  0  0  0  0
   -5.7623   23.8127  -30.2647 H   0  0  0  0  0  0  0  0  0  0  0  0
  1  2  1  0
  2  3  2  0
  3  4  1  0
  4  5  1  0
  5  6  2  0
  6  7  1  0
  7  8  2  0
  8  9  1  0
  8 10  1  0
 10 11  2  0
  4 12  2  0
 12 13  1  0
 12 14  1  0
 14  2  1  0
 11  5  1  0
  3 15  1  0
  6 16  1  0
  7 17  1  0
 10 18  1  0
 11 19  1  0
M  CHG  3   1  -1  13  -1  14  -1
M  END
>  <UniqueID>  (7) 
7

>  <SMILES>  (7) 
[O-]c1cc(-c2ccc(Cl)cc2)c([O-])[n-]1

>  <Energy>  (7) 
49.88012276712562

>  <Genealogy>  (7) 
[O-]c1cc(-c2ccc(Cl)cc2)c([O-])[n-]1 (protonated)
[O-]c1cc(-c2ccc(Cl)cc2)c([O-])[n-]1 (3D coordinates assigned)
[O-]c1cc(-c2ccc(Cl)cc2)c([O-])[n-]1 (optimized conformer: 49.88012276712562 kcal/mol)

>  <smiles>  (7) 
Oc1cc(-c2ccc(Cl)cc2)c(O)[nH]1

>  <score_type>  (7) 
oracle

>  <origin>  (7) 
adgpu

>  <m_score__min__energy>  (7) 
-10.9

>  <m_primary>  (7) 
energy

$$$$
7:0
     RDKit          3D

 40 43  0  0  0  0  0  0  0  0999 V2000
   -4.5260   25.4470  -30.8990 O   0  0  0  0  0  0  0  0  0  0  0  0
   -5.2930   24.3270  -30.2550 S   0  0  0  0  0  0  0  0  0  0  0  0
   -6.6910   24.7800  -29.9370 O   0  0  0  0  0  0  0  0  0  0  0  0
   -4.4820   23.8510  -28.7970 N   0  0  0  0  0  0  0  0  0  0  0  0
   -3.2590   24.1830  -28.5260 C   0  0  0  0  0  0  0  0  0  0  0  0
   -2.4810   24.9300  -29.3400 N   0  0  0  0  0  0  0  0  0  0  0  0
   -1.2460   25.1220  -28.8040 C   0  0  0  0  0  0  0  0  0  0  0  0
   -1.0430   24.5260  -27.5630 C   0  0  0  0  0  0  0  0  0  0  0  0
   -2.4600   23.7320  -27.1220 S   0  0  0  0  0  0  0  0  0  0  0  0
   -5.3690   22.9530  -31.3520 C   0  0  0  0  0  0  0  0  0  0  0  0
   -4.2890   22.6600  -32.1930 C   0  0  0  0  0  0  0  0  0  0  0  0
   -4.3540   21.5740  -33.0700 C   0  0  0  0  0  0  0  0  0  0  0  0
   -5.5030   20.7630  -33.1110 C   0  0  0  0  0  0  0  0  0  0  0  0
   -5.6060   19.6750  -33.9930 O   0  0  0  0  0  0  0  0  0  0  0  0
   -5.4130   18.3270  -33.6530 C   0  0  0  0  0  0  0  0  0  0  0  0
   -6.4910   17.4230  -33.6500 C   0  0  0  0  0  0  0  0  0  0  0  0
   -6.2840   16.0750  -33.3570 C   0  0  0  0  0  0  0  0  0  0  0  0
   -4.9990   15.6100  -33.0730 C   0  0  0  0  0  0  0  0  0  0  0  0
   -4.7420   13.9160  -32.7000 Cl  0  0  0  0  0  0  0  0  0  0  0  0
   -3.9170   16.4950  -33.0880 C   0  0  0  0  0  0  0  0  0  0  0  0
   -4.1100   17.8570  -33.3790 C   0  0  0  0  0  0  0  0  0  0  0  0
   -2.9490   18.7770  -33.3730 C   0  0  0  0  0  0  0  0  0  0  0  0
   -2.0380   18.9650  -34.3960 C   0  0  0  0  0  0  0  0  0  0  0  0
   -1.1700   19.9280  -33.9170 C   0  0  0  0  0  0  0  0  0  0  0  0
   -1.5390   20.2960  -32.6740 N   0  0  0  0  0  0  0  0  0  0  0  0
   -2.6180   19.5990  -32.3590 N   0  0  0  0  0  0  0  0  0  0  0  0
   -3.2350   19.6830  -31.1610 F   0  0  0  0  0  0  0  0  0  0  0  0
   -6.5940   21.0760  -32.2880 C   0  0  0  0  0  0  0  0  0  0  0  0
   -8.1890   20.0210  -32.3450 Br  0  0  0  0  0  0  0  0  0  0  0  0
   -6.5250   22.1640  -31.4100 C   0  0  0  0  0  0  0  0  0  0  0  0
   -0.4651   25.7054  -29.3138 H   0  0  0  0  0  0  0  0  0  0  0  0
   -0.1161   24.5668  -26.9721 H   0  0  0  0  0  0  0  0  0  0  0  0
   -3.3857   23.2870  -32.1634 H   0  0  0  0  0  0  0  0  0  0  0  0
   -3.5033   21.3522  -33.7311 H   0  0  0  0  0  0  0  0  0  0  0  0
   -7.5049   17.7820  -33.8805 H   0  0  0  0  0  0  0  0  0  0  0  0
   -7.1346   15.3776  -33.3498 H   0  0  0  0  0  0  0  0  0  0  0  0
   -2.9052   16.1224  -32.8701 H   0  0  0  0  0  0  0  0  0  0  0  0
   -2.0103   18.4606  -35.3732 H   0  0  0  0  0  0  0  0  0  0  0  0
   -0.3080   20.3330  -34.4673 H   0  0  0  0  0  0  0  0  0  0  0  0
   -7.3824   22.4005  -30.7627 H   0  0  0  0  0  0  0  0  0  0  0  0
  1  2  2  0
  2  3  2  0
  2  4  1  0
  4  5  2  3
  5  6  1  0
  6  7  1  0
  7  8  2  0
  8  9  1  0
  2 10  1  0
 10 11  2  0
 11 12  1  0
 12 13  2  0
 13 14  1  0
 14 15  1  0
 15 16  2  0
 16 17  1  0
 17 18  2  0
 18 19  1  0
 18 20  1  0
 20 21  2  0
 21 22  1  0
 22 23  2  0
 23 24  1  0
 24 25  2  0
 25 26  1  0
 26 27  1  0
 13 28  1  0
 28 29  1  0
 28 30  2  0
  9  5  1  0
 30 10  1  0
 21 15  1  0
 26 22  1  0
  7 31  1  0
  8 32  1  0
 11 33  1  0
 12 34  1  0
 16 35  1  0
 17 36  1  0
 20 37  1  0
 23 38  1  0
 24 39  1  0
 30 40  1  0
M  CHG  1   6  -1
M  END
>  <UniqueID>  (8) 
8

>  <SMILES>  (8) 
O=S(=O)(N=c1[n-]ccs1)c1ccc(Oc2ccc(Cl)cc2-c2ccnn2F)c(Br)c1

>  <Energy>  (8) 
119.2401276263757

>  <Genealogy>  (8) 
O=S(=O)(N=c1[n-]ccs1)c1ccc(Oc2ccc(Cl)cc2-c2ccnn2F)c(Br)c1 (protonated)
O=S(=O)(N=c1[n-]ccs1)c1ccc(Oc2ccc(Cl)cc2-c2ccnn2F)c(Br)c1 (3D coordinates assigned)
O=S(=O)(N=c1[n-]ccs1)c1ccc(Oc2ccc(Cl)cc2-c2ccnn2F)c(Br)c1 (optimized conformer: 119.2401276263757 kcal/mol)

>  <smiles>  (8) 
O=S(=O)(N=c1[nH]ccs1)c1ccc(Oc2ccc(Cl)cc2-c2ccnn2F)c(Br)c1

>  <score_type>  (8) 
oracle

>  <origin>  (8) 
adgpu

>  <m_score__min__energy>  (8) 
-11.69

>  <m_primary>  (8) 
energy

$$$$
8:0
     RDKit          3D

 41 43  0  0  0  0  0  0  0  0999 V2000
    0.6430   25.2400  -24.5720 C   0  0  0  0  0  0  0  0  0  0  0  0
    0.2880   25.2020  -26.0220 C   0  0  0  0  0  0  0  0  0  0  0  0
   -0.9260   25.5590  -26.5710 C   0  0  0  0  0  0  0  0  0  0  0  0
   -0.7730   25.2690  -27.9110 C   0  0  0  0  0  0  0  0  0  0  0  0
   -1.7890   25.4730  -28.9040 N   0  0  0  0  0  0  0  0  0  0  0  0
   -2.6060   24.5750  -29.3740 C   0  0  0  0  0  0  0  0  0  0  0  0
   -3.5140   24.9380  -30.3160 N   0  0  0  0  0  0  0  0  0  0  0  0
   -4.3850   24.0370  -30.8400 C   0  0  0  0  0  0  0  0  0  0  0  0
   -4.3530   22.7020  -30.4150 C   0  0  0  0  0  0  0  0  0  0  0  0
   -5.3000   21.7010  -30.9550 C   0  0  0  0  0  0  0  0  0  0  0  0
   -4.7970   20.4880  -31.4420 C   0  0  0  0  0  0  0  0  0  0  0  0
   -5.6380   19.5340  -31.9170 N   0  0  0  0  0  0  0  0  0  0  0  0
   -6.9890   19.6990  -31.9540 C   0  0  0  0  0  0  0  0  0  0  0  0
   -7.8220   18.6320  -32.4690 N   0  0  0  0  0  0  0  0  0  0  0  0
   -9.2810   18.7500  -32.3550 C   0  0  0  0  0  0  0  0  0  0  0  0
   -7.2380   17.4420  -33.1000 C   0  0  0  0  0  0  0  0  0  0  0  0
   -7.5360   20.9100  -31.4870 C   0  0  0  0  0  0  0  0  0  0  0  0
   -6.6970   21.9250  -31.0050 C   0  0  0  0  0  0  0  0  0  0  0  0
   -7.3130   23.2190  -30.5390 C   0  0  0  0  0  0  0  0  0  0  0  0
   -3.4200   22.3510  -29.4340 C   0  0  0  0  0  0  0  0  0  0  0  0
   -2.5680   23.2850  -28.9400 N   0  0  0  0  0  0  0  0  0  0  0  0
    0.4520   24.7570  -28.1480 N   0  0  0  0  0  0  0  0  0  0  0  0
    1.0890   24.7160  -26.9900 N   0  0  0  0  0  0  0  0  0  0  0  0
   -0.2711   25.1421  -23.9680 H   0  0  0  0  0  0  0  0  0  0  0  0
    1.3264   24.4099  -24.3399 H   0  0  0  0  0  0  0  0  0  0  0  0
    1.1352   26.1960  -24.3399 H   0  0  0  0  0  0  0  0  0  0  0  0
   -1.8071   25.9760  -26.0613 H   0  0  0  0  0  0  0  0  0  0  0  0
   -5.1157   24.3553  -31.5981 H   0  0  0  0  0  0  0  0  0  0  0  0
   -3.7120   20.3069  -31.4396 H   0  0  0  0  0  0  0  0  0  0  0  0
   -9.5651   18.7730  -31.2926 H   0  0  0  0  0  0  0  0  0  0  0  0
   -9.6131   19.6779  -32.8435 H   0  0  0  0  0  0  0  0  0  0  0  0
   -9.7579   17.8875  -32.8435 H   0  0  0  0  0  0  0  0  0  0  0  0
   -6.8958   16.7446  -32.3212 H   0  0  0  0  0  0  0  0  0  0  0  0
   -7.9966   16.9492  -33.7258 H   0  0  0  0  0  0  0  0  0  0  0  0
   -6.3840   17.7406  -33.7258 H   0  0  0  0  0  0  0  0  0  0  0  0
   -8.6256   21.0602  -31.5004 H   0  0  0  0  0  0  0  0  0  0  0  0
   -7.3250   23.2443  -29.4394 H   0  0  0  0  0  0  0  0  0  0  0  0
   -6.7209   24.0647  -30.9187 H   0  0  0  0  0  0  0  0  0  0  0  0
   -8.3427   23.2926  -30.9187 H   0  0  0  0  0  0  0  0  0  0  0  0
   -3.3766   21.3166  -29.0623 H   0  0  0  0  0  0  0  0  0  0  0  0
    2.0580   24.3490  -26.8650 H   0  0  0  0  0  0  0  0  0  0  0  0
  1  2  1  0
  2  3  2  0
  3  4  1  0
  4  5  1  0
  5  6  2  3
  6  7  1  0
  7  8  2  0
  8  9  1  0
  9 10  1  0
 10 11  2  0
 11 12  1  0
 12 13  2  0
 13 14  1  0
 14 15  1  0
 14 16  1  0
 13 17  1  0
 17 18  2  0
 18 19  1  0
  9 20  2  0
 20 21  1  0
  4 22  2  0
 22 23  1  0
 23  2  1  0
 21  6  1  0
 18 10  1  0
  1 24  1  0
  1 25  1  0
  1 26  1  0
  3 27  1  0
  8 28  1  0
 11 29  1  0
 15 30  1  0
 15 31  1  0
 15 32  1  0
 16 33  1  0
 16 34  1  0
 16 35  1  0
 17 36  1  0
 19 37  1  0
 19 38  1  0
 19 39  1  0
 20 40  1  0
 23 41  1  0
M  CHG  1  21  -1
M  END
>  <UniqueID>  (9) 
9

>  <SMILES>  (9) 
Cc1cc(N=c2ncc(-c3cnc(N(C)C)cc3C)c[n-]2)n[nH]1

>  <Energy>  (9) 
82.24679946821963

>  <Genealogy>  (9) 
Cc1cc(N=c2ncc(-c3cnc(N(C)C)cc3C)c[n-]2)n[nH]1 (protonated)
Cc1cc(N=c2ncc(-c3cnc(N(C)C)cc3C)c[n-]2)n[nH]1 (3D coordinates assigned)
Cc1cc(N=c2ncc(-c3cnc(N(C)C)cc3C)c[n-]2)n[nH]1 (optimized conformer: 82.24679946821963 kcal/mol)

>  <smiles>  (9) 
Cc1cc(N=c2ncc(-c3cnc(N(C)C)cc3C)c[nH]2)n[nH]1

>  <score_type>  (9) 
oracle

>  <origin>  (9) 
adgpu

>  <m_score__min__energy>  (9) 
-8.8200000000000003

>  <m_primary>  (9) 
energy

$$$$
9:0
     RDKit          3D

 65 68  0  0  0  0  0  0  0  0999 V2000
    1.0790   21.4770  -34.6930 C   0  0  0  0  0  0  0  0  0  0  0  0
   -0.0220   20.7020  -34.0430 C   0  0  0  0  0  0  0  0  0  0  0  0
    0.2310   19.5780  -33.5330 O   0  0  0  0  0  0  0  0  0  0  0  0
   -1.3680   21.2000  -34.0880 N   0  0  0  0  0  0  0  0  0  0  0  0
   -2.4950   20.5200  -33.5120 C   0  0  0  0  0  0  0  0  0  0  0  0
   -2.8480   19.2510  -33.9930 C   0  0  0  0  0  0  0  0  0  0  0  0
   -3.9460   18.5720  -33.4550 C   0  0  0  0  0  0  0  0  0  0  0  0
   -4.7130   19.1660  -32.4490 C   0  0  0  0  0  0  0  0  0  0  0  0
   -4.3920   20.4520  -31.9740 C   0  0  0  0  0  0  0  0  0  0  0  0
   -5.1940   21.1000  -30.9710 N   0  0  0  0  0  0  0  0  0  0  0  0
   -6.4790   21.6680  -31.2500 C   0  0  0  0  0  0  0  0  0  0  0  0
   -7.6260   20.8840  -31.0590 C   0  0  0  0  0  0  0  0  0  0  0  0
   -8.8860   21.3830  -31.3910 C   0  0  0  0  0  0  0  0  0  0  0  0
   -9.0070   22.6580  -31.9440 C   0  0  0  0  0  0  0  0  0  0  0  0
   -7.8700   23.4490  -32.1420 C   0  0  0  0  0  0  0  0  0  0  0  0
   -6.5970   22.9860  -31.7520 C   0  0  0  0  0  0  0  0  0  0  0  0
   -5.3690   23.8490  -31.9660 C   0  0  0  0  0  0  0  0  0  0  0  0
   -5.1880   24.9000  -30.9060 C   0  0  0  0  0  0  0  0  0  0  0  0
   -6.1950   25.3990  -30.3320 O   0  0  0  0  0  0  0  0  0  0  0  0
   -3.8620   25.2420  -30.4710 N   0  0  0  0  0  0  0  0  0  0  0  0
   -3.1260   24.6260  -29.3630 C   0  0  0  0  0  0  0  0  0  0  0  0
   -2.1880   23.5060  -29.8540 C   0  0  0  0  0  0  0  0  0  0  0  0
   -1.6690   22.6940  -28.6560 C   0  0  0  0  0  0  0  0  0  0  0  0
   -2.7560   22.0750  -27.8460 N   0  0  0  0  0  0  0  0  0  0  0  0
   -2.7700   20.6030  -27.9650 C   0  0  0  0  0  0  0  0  0  0  0  0
   -1.4800   20.1130  -28.5700 C   0  0  0  0  0  0  0  0  0  0  0  0
   -1.3300   20.0110  -29.9630 C   0  0  0  0  0  0  0  0  0  0  0  0
   -0.1310   19.5410  -30.5100 C   0  0  0  0  0  0  0  0  0  0  0  0
    0.9230   19.1710  -29.6700 C   0  0  0  0  0  0  0  0  0  0  0  0
    0.7840   19.2780  -28.2820 C   0  0  0  0  0  0  0  0  0  0  0  0
   -0.4120   19.7500  -27.7330 C   0  0  0  0  0  0  0  0  0  0  0  0
   -4.1060   22.6290  -28.1010 C   0  0  0  0  0  0  0  0  0  0  0  0
   -4.0800   24.1560  -28.2360 C   0  0  0  0  0  0  0  0  0  0  0  0
   -3.2850   21.1240  -32.5170 C   0  0  0  0  0  0  0  0  0  0  0  0
    1.7177   21.9266  -33.9185 H   0  0  0  0  0  0  0  0  0  0  0  0
    1.6816   20.8029  -35.3194 H   0  0  0  0  0  0  0  0  0  0  0  0
    0.6477   22.2717  -35.3194 H   0  0  0  0  0  0  0  0  0  0  0  0
   -1.5530   22.0690  -34.6390 H   0  0  0  0  0  0  0  0  0  0  0  0
   -2.2584   18.7872  -34.7975 H   0  0  0  0  0  0  0  0  0  0  0  0
   -4.2062   17.5690  -33.8242 H   0  0  0  0  0  0  0  0  0  0  0  0
   -5.5726   18.6256  -32.0258 H   0  0  0  0  0  0  0  0  0  0  0  0
   -4.8300   21.1870  -29.9950 H   0  0  0  0  0  0  0  0  0  0  0  0
   -7.5317   19.8693  -30.6449 H   0  0  0  0  0  0  0  0  0  0  0  0
   -9.7835   20.7713  -31.2168 H   0  0  0  0  0  0  0  0  0  0  0  0
   -9.9986   23.0424  -32.2250 H   0  0  0  0  0  0  0  0  0  0  0  0
   -7.9704   24.4412  -32.6062 H   0  0  0  0  0  0  0  0  0  0  0  0
   -4.4816   23.1990  -31.9681 H   0  0  0  0  0  0  0  0  0  0  0  0
   -5.5019   24.3725  -32.9242 H   0  0  0  0  0  0  0  0  0  0  0  0
   -2.4800   25.3997  -28.9225 H   0  0  0  0  0  0  0  0  0  0  0  0
   -2.7398   22.8403  -30.5340 H   0  0  0  0  0  0  0  0  0  0  0  0
   -1.3348   23.9550  -30.3836 H   0  0  0  0  0  0  0  0  0  0  0  0
   -1.0163   21.8932  -29.0338 H   0  0  0  0  0  0  0  0  0  0  0  0
   -1.1311   23.3927  -27.9983 H   0  0  0  0  0  0  0  0  0  0  0  0
   -2.8932   20.1597  -26.9659 H   0  0  0  0  0  0  0  0  0  0  0  0
   -3.6053   20.3054  -28.6160 H   0  0  0  0  0  0  0  0  0  0  0  0
   -2.1581   20.3017  -30.6261 H   0  0  0  0  0  0  0  0  0  0  0  0
   -0.0179   19.4627  -31.6014 H   0  0  0  0  0  0  0  0  0  0  0  0
    1.8629   18.7953  -30.1007 H   0  0  0  0  0  0  0  0  0  0  0  0
    1.6161   18.9906  -27.6224 H   0  0  0  0  0  0  0  0  0  0  0  0
   -0.5170   19.8374  -26.6415 H   0  0  0  0  0  0  0  0  0  0  0  0
   -4.4981   22.1960  -29.0331 H   0  0  0  0  0  0  0  0  0  0  0  0
   -4.7474   22.3729  -27.2449 H   0  0  0  0  0  0  0  0  0  0  0  0
   -5.0969   24.5094  -28.4619 H   0  0  0  0  0  0  0  0  0  0  0  0
   -3.7138   24.5735  -27.2865 H   0  0  0  0  0  0  0  0  0  0  0  0
   -3.0329   22.1336  -32.1605 H   0  0  0  0  0  0  0  0  0  0  0  0
  1  2  1  0
  2  3  2  0
  2  4  1  0
  4  5  1  0
  5  6  2  0
  6  7  1  0
  7  8  2  0
  8  9  1  0
  9 10  1  0
 10 11  1  0
 11 12  2  0
 12 13  1  0
 13 14  2  0
 14 15  1  0
 15 16  2  0
 16 17  1  0
 17 18  1  0
 18 19  2  0
 18 20  1  0
 20 21  1  0
 21 22  1  0
 22 23  1  0
 23 24  1  0
 24 25  1  0
 25 26  1  0
 26 27  2  0
 27 28  1  0
 28 29  2  0
 29 30  1  0
 30 31  2  0
 24 32  1  0
 32 33  1  0
  9 34  2  0
 34  5  1  0
 16 11  1  0
 33 21  1  0
 31 26  1  0
  1 35  1  0
  1 36  1  0
  1 37  1  0
  4 38  1  0
  6 39  1  0
  7 40  1  0
  8 41  1  0
 10 42  1  0
 12 43  1  0
 13 44  1  0
 14 45  1  0
 15 46  1  0
 17 47  1  0
 17 48  1  0
 21 49  1  0
 22 50  1  0
 22 51  1  0
 23 52  1  0
 23 53  1  0
 25 54  1  0
 25 55  1  0
 27 56  1  0
 28 57  1  0
 29 58  1  0
 30 59  1  0
 31 60  1  0
 32 61  1  0
 32 62  1  0
 33 63  1  0
 33 64  1  0
 34 65  1  0
M  CHG  1  20  -1
M  END
>  <UniqueID>  (10) 
10

>  <SMILES>  (10) 
CC(=O)Nc1cccc(Nc2ccccc2CC(=O)[N-]C2CCN(Cc3ccccc3)CC2)c1

>  <Energy>  (10) 
88.00316389409258

>  <Genealogy>  (10) 
CC(=O)Nc1cccc(Nc2ccccc2CC(=O)[N-]C2CCN(Cc3ccccc3)CC2)c1 (protonated)
CC(=O)Nc1cccc(Nc2ccccc2CC(=O)[N-]C2CCN(Cc3ccccc3)CC2)c1 (3D coordinates assigned)
CC(=O)Nc1cccc(Nc2ccccc2CC(=O)[N-]C2CCN(Cc3ccccc3)CC2)c1 (nonaromatic ring conformer: 88.00316389409258 kcal/mol)

>  <smiles>  (10) 
CC(=O)Nc1cccc(Nc2ccccc2CC(=O)NC2CCN(Cc3ccccc3)CC2)c1

>  <score_type>  (10) 
oracle

>  <origin>  (10) 
adgpu

>  <m_score__min__energy>  (10) 
-11.869999999999999

>  <m_primary>  (10) 
energy

$$$$
10:0
     RDKit          3D

 35 36  0  0  0  0  0  0  0  0999 V2000
    0.2030   24.7640  -27.4650 C   0  0  0  0  0  0  0  0  0  0  0  0
   -1.0980   24.6970  -28.1950 C   0  0  0  0  0  0  0  0  0  0  0  0
   -1.5640   25.6750  -28.9990 N   0  0  0  0  0  0  0  0  0  0  0  0
   -2.7340   25.2910  -29.4250 O   0  0  0  0  0  0  0  0  0  0  0  0
   -3.0430   24.1160  -28.9260 C   0  0  0  0  0  0  0  0  0  0  0  0
   -4.1450   23.4770  -29.1620 N   0  0  0  0  0  0  0  0  0  0  0  0
   -5.3890   24.1170  -30.1830 S   0  0  0  0  0  0  0  0  0  0  0  0
   -4.7710   25.0140  -31.2170 O   0  0  0  0  0  0  0  0  0  0  0  0
   -6.3380   24.9330  -29.3500 O   0  0  0  0  0  0  0  0  0  0  0  0
   -6.2440   22.7950  -30.9940 C   0  0  0  0  0  0  0  0  0  0  0  0
   -7.6110   22.9380  -31.2810 C   0  0  0  0  0  0  0  0  0  0  0  0
   -8.3090   21.9180  -31.9310 C   0  0  0  0  0  0  0  0  0  0  0  0
   -7.6510   20.7440  -32.3010 C   0  0  0  0  0  0  0  0  0  0  0  0
   -6.2930   20.5860  -32.0180 C   0  0  0  0  0  0  0  0  0  0  0  0
   -5.5800   21.6030  -31.3650 C   0  0  0  0  0  0  0  0  0  0  0  0
   -4.1510   21.3860  -31.0670 C   0  0  0  0  0  0  0  0  0  0  0  0
   -3.8150   21.1190  -29.8820 O   0  0  0  0  0  0  0  0  0  0  0  0
   -3.1470   21.4690  -32.1000 N   0  0  0  0  0  0  0  0  0  0  0  0
   -1.7540   21.1550  -31.7710 C   0  0  0  0  0  0  0  0  0  0  0  0
   -3.5060   21.9110  -33.4530 C   0  0  0  0  0  0  0  0  0  0  0  0
   -2.0250   23.6760  -28.1180 C   0  0  0  0  0  0  0  0  0  0  0  0
   -1.9330   22.0560  -27.1080 Br  0  0  0  0  0  0  0  0  0  0  0  0
    0.0161   24.7544  -26.3810 H   0  0  0  0  0  0  0  0  0  0  0  0
    0.8218   23.8965  -27.7381 H   0  0  0  0  0  0  0  0  0  0  0  0
    0.7294   25.6904  -27.7381 H   0  0  0  0  0  0  0  0  0  0  0  0
   -8.1360   23.8603  -30.9917 H   0  0  0  0  0  0  0  0  0  0  0  0
   -9.3797   22.0400  -32.1519 H   0  0  0  0  0  0  0  0  0  0  0  0
   -8.2024   19.9432  -32.8156 H   0  0  0  0  0  0  0  0  0  0  0  0
   -5.7786   19.6582  -32.3088 H   0  0  0  0  0  0  0  0  0  0  0  0
   -1.6326   21.1276  -30.6781 H   0  0  0  0  0  0  0  0  0  0  0  0
   -1.4894   20.1747  -32.1940 H   0  0  0  0  0  0  0  0  0  0  0  0
   -1.0944   21.9270  -32.1940 H   0  0  0  0  0  0  0  0  0  0  0  0
   -4.1983   22.7634  -33.3887 H   0  0  0  0  0  0  0  0  0  0  0  0
   -2.5972   22.2167  -33.9921 H   0  0  0  0  0  0  0  0  0  0  0  0
   -3.9915   21.0842  -33.9921 H   0  0  0  0  0  0  0  0  0  0  0  0
  1  2  1  0
  2  3  1  0
  3  4  1  0
  4  5  1  0
  5  6  2  3
  6  7  1  0
  7  8  2  0
  7  9  2  0
  7 10  1  0
 10 11  2  0
 11 12  1  0
 12 13  2  0
 13 14  1  0
 14 15  2  0
 15 16  1  0
 16 17  2  0
 16 18  1  0
 18 19  1  0
 18 20  1  0
  5 21  1  0
 21 22  1  0
 21  2  2  0
 15 10  1  0
  1 23  1  0
  1 24  1  0
  1 25  1  0
 11 26  1  0
 12 27  1  0
 13 28  1  0
 14 29  1  0
 19 30  1  0
 19 31  1  0
 19 32  1  0
 20 33  1  0
 20 34  1  0
 20 35  1  0
M  CHG  1   3  -1
M  END
>  <UniqueID>  (11) 
11

>  <SMILES>  (11) 
Cc1[n-]oc(=NS(=O)(=O)c2ccccc2C(=O)N(C)C)c1Br

>  <Energy>  (11) 
73.09780311344144

>  <Genealogy>  (11) 
Cc1[n-]oc(=NS(=O)(=O)c2ccccc2C(=O)N(C)C)c1Br (protonated)
Cc1[n-]oc(=NS(=O)(=O)c2ccccc2C(=O)N(C)C)c1Br (3D coordinates assigned)
Cc1[n-]oc(=NS(=O)(=O)c2ccccc2C(=O)N(C)C)c1Br (optimized conformer: 73.09780311344144 kcal/mol)

>  <smiles>  (11) 
Cc1[nH]oc(=NS(=O)(=O)c2ccccc2C(=O)N(C)C)c1Br

>  <score_type>  (11) 
oracle

>  <origin>  (11) 
adgpu

>  <m_score__min__energy>  (11) 
-10.869999999999999

>  <m_primary>  (11) 
energy

$$$$
11:0
     RDKit          3D

 67 70  0  0  0  0  0  0  0  0999 V2000
    2.9820   25.6860  -27.7960 C   0  0  0  0  0  0  0  0  0  0  0  0
    2.2470   24.5420  -28.2190 O   0  0  0  0  0  0  0  0  0  0  0  0
    0.9900   24.1660  -27.7150 C   0  0  0  0  0  0  0  0  0  0  0  0
   -0.1160   23.9620  -28.5600 C   0  0  0  0  0  0  0  0  0  0  0  0
   -1.3580   23.5810  -28.0340 C   0  0  0  0  0  0  0  0  0  0  0  0
   -2.5400   23.3770  -28.9110 C   0  0  0  0  0  0  0  0  0  0  0  0
   -2.4490   22.5660  -29.8740 O   0  0  0  0  0  0  0  0  0  0  0  0
   -3.7770   24.0780  -28.6800 N   0  0  0  0  0  0  0  0  0  0  0  0
   -4.9390   23.9250  -29.5120 C   0  0  0  0  0  0  0  0  0  0  0  0
   -5.8140   24.9970  -29.7450 C   0  0  0  0  0  0  0  0  0  0  0  0
   -6.9430   24.8240  -30.5470 C   0  0  0  0  0  0  0  0  0  0  0  0
   -7.2310   23.5750  -31.1210 C   0  0  0  0  0  0  0  0  0  0  0  0
   -8.4650   23.4300  -31.9720 C   0  0  0  0  0  0  0  0  0  0  0  0
   -6.3480   22.4900  -30.8940 C   0  0  0  0  0  0  0  0  0  0  0  0
   -6.5640   21.1660  -31.5170 C   0  0  0  0  0  0  0  0  0  0  0  0
   -7.7360   20.4430  -31.2570 C   0  0  0  0  0  0  0  0  0  0  0  0
   -7.9140   19.1910  -31.8440 C   0  0  0  0  0  0  0  0  0  0  0  0
   -6.9640   18.6840  -32.6710 N   0  0  0  0  0  0  0  0  0  0  0  0
   -5.8240   19.3690  -32.9690 C   0  0  0  0  0  0  0  0  0  0  0  0
   -4.8380   18.7660  -33.8280 N   0  0  0  0  0  0  0  0  0  0  0  0
   -3.4370   19.1980  -33.8230 C   0  0  0  0  0  0  0  0  0  0  0  0
   -2.4980   17.9800  -33.7190 C   0  0  0  0  0  0  0  0  0  0  0  0
   -3.0470   16.7410  -34.3290 N   0  0  0  0  0  0  0  0  0  0  0  0
   -3.5520   15.8050  -33.3090 C   0  0  0  0  0  0  0  0  0  0  0  0
   -4.0530   17.0070  -35.3790 C   0  0  0  0  0  0  0  0  0  0  0  0
   -5.2630   17.7800  -34.8270 C   0  0  0  0  0  0  0  0  0  0  0  0
   -5.6040   20.6270  -32.3840 C   0  0  0  0  0  0  0  0  0  0  0  0
   -5.2280   22.6710  -30.0660 C   0  0  0  0  0  0  0  0  0  0  0  0
   -1.4900   23.4260  -26.6470 C   0  0  0  0  0  0  0  0  0  0  0  0
   -0.3990   23.6310  -25.7810 C   0  0  0  0  0  0  0  0  0  0  0  0
   -0.5390   23.4660  -24.3940 O   0  0  0  0  0  0  0  0  0  0  0  0
   -0.1660   22.2990  -23.6660 C   0  0  0  0  0  0  0  0  0  0  0  0
    0.8560   24.0040  -26.3260 C   0  0  0  0  0  0  0  0  0  0  0  0
    2.0090   24.2320  -25.5500 O   0  0  0  0  0  0  0  0  0  0  0  0
    2.1020   25.0510  -24.3880 C   0  0  0  0  0  0  0  0  0  0  0  0
    3.0047   25.7214  -26.6968 H   0  0  0  0  0  0  0  0  0  0  0  0
    4.0101   25.6247  -28.1822 H   0  0  0  0  0  0  0  0  0  0  0  0
    2.4989   26.5956  -28.1822 H   0  0  0  0  0  0  0  0  0  0  0  0
   -0.0049   24.1030  -29.6452 H   0  0  0  0  0  0  0  0  0  0  0  0
   -3.8770   24.6800  -27.8340 H   0  0  0  0  0  0  0  0  0  0  0  0
   -5.6090   25.9788  -29.2932 H   0  0  0  0  0  0  0  0  0  0  0  0
   -7.6147   25.6753  -30.7316 H   0  0  0  0  0  0  0  0  0  0  0  0
   -9.3475   23.3263  -31.3236 H   0  0  0  0  0  0  0  0  0  0  0  0
   -8.5792   24.3209  -32.6070 H   0  0  0  0  0  0  0  0  0  0  0  0
   -8.3696   22.5369  -32.6070 H   0  0  0  0  0  0  0  0  0  0  0  0
   -8.5093   20.8600  -30.5951 H   0  0  0  0  0  0  0  0  0  0  0  0
   -8.8263   18.6125  -31.6366 H   0  0  0  0  0  0  0  0  0  0  0  0
   -3.2225   19.7422  -34.7546 H   0  0  0  0  0  0  0  0  0  0  0  0
   -3.2691   19.8524  -32.9549 H   0  0  0  0  0  0  0  0  0  0  0  0
   -1.5538   18.2266  -34.2265 H   0  0  0  0  0  0  0  0  0  0  0  0
   -2.3609   17.7739  -32.6472 H   0  0  0  0  0  0  0  0  0  0  0  0
   -3.3368   16.2039  -32.3067 H   0  0  0  0  0  0  0  0  0  0  0  0
   -4.6385   15.6827  -33.4294 H   0  0  0  0  0  0  0  0  0  0  0  0
   -3.0576   14.8298  -33.4294 H   0  0  0  0  0  0  0  0  0  0  0  0
   -3.5853   17.6009  -36.1781 H   0  0  0  0  0  0  0  0  0  0  0  0
   -4.4107   16.0403  -35.7631 H   0  0  0  0  0  0  0  0  0  0  0  0
   -5.7675   18.2996  -35.6549 H   0  0  0  0  0  0  0  0  0  0  0  0
   -5.9497   17.0661  -34.3486 H   0  0  0  0  0  0  0  0  0  0  0  0
   -4.6829   21.1861  -32.6053 H   0  0  0  0  0  0  0  0  0  0  0  0
   -4.5692   21.8171  -29.8497 H   0  0  0  0  0  0  0  0  0  0  0  0
   -2.4652   23.1386  -26.2270 H   0  0  0  0  0  0  0  0  0  0  0  0
   -0.2313   22.5034  -22.5871 H   0  0  0  0  0  0  0  0  0  0  0  0
   -0.8449   21.4730  -23.9245 H   0  0  0  0  0  0  0  0  0  0  0  0
    0.8661   22.0199  -23.9245 H   0  0  0  0  0  0  0  0  0  0  0  0
    2.0305   24.4213  -23.4889 H   0  0  0  0  0  0  0  0  0  0  0  0
    3.0661   25.5807  -24.3889 H   0  0  0  0  0  0  0  0  0  0  0  0
    1.2812   25.7834  -24.3889 H   0  0  0  0  0  0  0  0  0  0  0  0
  1  2  1  0
  2  3  1  0
  3  4  2  0
  4  5  1  0
  5  6  1  0
  6  7  2  0
  6  8  1  0
  8  9  1  0
  9 10  2  0
 10 11  1  0
 11 12  2  0
 12 13  1  0
 12 14  1  0
 14 15  1  0
 15 16  2  0
 16 17  1  0
 17 18  2  0
 18 19  1  0
 19 20  1  0
 20 21  1  0
 21 22  1  0
 22 23  1  0
 23 24  1  0
 23 25  1  0
 25 26  1  0
 19 27  2  0
 14 28  2  0
  5 29  2  0
 29 30  1  0
 30 31  1  0
 31 32  1  0
 30 33  2  0
 33 34  1  0
 34 35  1  0
 33  3  1  0
 28  9  1  0
 27 15  1  0
 26 20  1  0
  1 36  1  0
  1 37  1  0
  1 38  1  0
  4 39  1  0
  8 40  1  0
 10 41  1  0
 11 42  1  0
 13 43  1  0
 13 44  1  0
 13 45  1  0
 16 46  1  0
 17 47  1  0
 21 48  1  0
 21 49  1  0
 22 50  1  0
 22 51  1  0
 24 52  1  0
 24 53  1  0
 24 54  1  0
 25 55  1  0
 25 56  1  0
 26 57  1  0
 26 58  1  0
 27 59  1  0
 28 60  1  0
 29 61  1  0
 32 62  1  0
 32 63  1  0
 32 64  1  0
 35 65  1  0
 35 66  1  0
 35 67  1  0
M  END
>  <UniqueID>  (12) 
12

>  <SMILES>  (12) 
COc1cc(C(=O)Nc2ccc(C)c(-c3ccnc(N4CCN(C)CC4)c3)c2)cc(OC)c1OC

>  <Energy>  (12) 
96.92831983125502

>  <Genealogy>  (12) 
COc1cc(C(=O)Nc2ccc(C)c(-c3ccnc(N4CCN(C)CC4)c3)c2)cc(OC)c1OC (3D coordinates assigned)
COc1cc(C(=O)Nc2ccc(C)c(-c3ccnc(N4CCN(C)CC4)c3)c2)cc(OC)c1OC (nonaromatic ring conformer: 96.92831983125502 kcal/mol)

>  <smiles>  (12) 
COc1cc(C(=O)Nc2ccc(C)c(-c3ccnc(N4CCN(C)CC4)c3)c2)cc(OC)c1OC

>  <score_type>  (12) 
oracle

>  <origin>  (12) 
adgpu

>  <m_score__min__energy>  (12) 
-9.1500000000000004

>  <m_primary>  (12) 
energy

$$$$
12:0
     RDKit          3D

 39 41  0  0  0  0  0  0  0  0999 V2000
   -4.2840   25.6200  -30.2470 O   0  0  0  0  0  0  0  0  0  0  0  0
   -4.1540   24.3700  -30.1280 C   0  0  0  0  0  0  0  0  0  0  0  0
   -3.2300   23.8410  -29.1640 N   0  0  0  0  0  0  0  0  0  0  0  0
   -2.7250   24.6010  -28.0540 C   0  0  0  0  0  0  0  0  0  0  0  0
   -3.4090   24.5640  -26.8280 C   0  0  0  0  0  0  0  0  0  0  0  0
   -2.9460   25.3030  -25.7360 C   0  0  0  0  0  0  0  0  0  0  0  0
   -1.8060   26.1010  -25.8630 C   0  0  0  0  0  0  0  0  0  0  0  0
   -1.3600   26.8200  -24.8040 F   0  0  0  0  0  0  0  0  0  0  0  0
   -1.1320   26.1660  -27.0860 C   0  0  0  0  0  0  0  0  0  0  0  0
   -1.5900   25.4270  -28.1830 C   0  0  0  0  0  0  0  0  0  0  0  0
   -0.9530   25.5560  -29.3730 F   0  0  0  0  0  0  0  0  0  0  0  0
   -4.9100   23.4690  -31.0310 C   0  0  0  0  0  0  0  0  0  0  0  0
   -6.2710   23.7120  -31.2640 C   0  0  0  0  0  0  0  0  0  0  0  0
   -6.9980   22.8810  -32.1080 C   0  0  0  0  0  0  0  0  0  0  0  0
   -6.3660   21.8020  -32.7190 C   0  0  0  0  0  0  0  0  0  0  0  0
   -5.0410   21.5470  -32.4960 N   0  0  0  0  0  0  0  0  0  0  0  0
   -4.4310   20.3670  -33.1310 C   0  0  0  0  0  0  0  0  0  0  0  0
   -5.3920   19.2090  -33.1170 C   0  0  0  0  0  0  0  0  0  0  0  0
   -5.6160   18.4520  -34.2800 C   0  0  0  0  0  0  0  0  0  0  0  0
   -6.4850   17.3570  -34.2520 C   0  0  0  0  0  0  0  0  0  0  0  0
   -7.1320   17.0060  -33.0640 C   0  0  0  0  0  0  0  0  0  0  0  0
   -6.9090   17.7480  -31.9020 C   0  0  0  0  0  0  0  0  0  0  0  0
   -6.0410   18.8450  -31.9250 C   0  0  0  0  0  0  0  0  0  0  0  0
   -4.3100   22.3510  -31.6520 C   0  0  0  0  0  0  0  0  0  0  0  0
   -3.1010   22.0760  -31.4120 O   0  0  0  0  0  0  0  0  0  0  0  0
   -2.7840   22.9180  -29.3690 H   0  0  0  0  0  0  0  0  0  0  0  0
   -4.3154   23.9491  -26.7266 H   0  0  0  0  0  0  0  0  0  0  0  0
   -3.4797   25.2564  -24.7753 H   0  0  0  0  0  0  0  0  0  0  0  0
   -0.2387   26.8000  -27.1866 H   0  0  0  0  0  0  0  0  0  0  0  0
   -6.7659   24.5648  -30.7763 H   0  0  0  0  0  0  0  0  0  0  0  0
   -8.0651   23.0746  -32.2918 H   0  0  0  0  0  0  0  0  0  0  0  0
   -6.9397   21.1458  -33.3900 H   0  0  0  0  0  0  0  0  0  0  0  0
   -4.1705   20.6094  -34.1719 H   0  0  0  0  0  0  0  0  0  0  0  0
   -3.5267   20.0874  -32.5707 H   0  0  0  0  0  0  0  0  0  0  0  0
   -5.1055   18.7222  -35.2161 H   0  0  0  0  0  0  0  0  0  0  0  0
   -6.6597   16.7710  -35.1664 H   0  0  0  0  0  0  0  0  0  0  0  0
   -7.8168   16.1454  -33.0442 H   0  0  0  0  0  0  0  0  0  0  0  0
   -7.4168   17.4694  -30.9669 H   0  0  0  0  0  0  0  0  0  0  0  0
   -5.8660   19.4247  -31.0067 H   0  0  0  0  0  0  0  0  0  0  0  0
  1  2  2  0
  2  3  1  0
  3  4  1  0
  4  5  2  0
  5  6  1  0
  6  7  2  0
  7  8  1  0
  7  9  1  0
  9 10  2  0
 10 11  1  0
  2 12  1  0
 12 13  2  0
 13 14  1  0
 14 15  2  0
 15 16  1  0
 16 17  1  0
 17 18  1  0
 18 19  2  0
 19 20  1  0
 20 21  2  0
 21 22  1  0
 22 23  2  0
 16 24  1  0
 24 25  2  0
 10  4  1  0
 24 12  1  0
 23 18  1  0
  3 26  1  0
  5 27  1  0
  6 28  1  0
  9 29  1  0
 13 30  1  0
 14 31  1  0
 15 32  1  0
 17 33  1  0
 17 34  1  0
 19 35  1  0
 20 36  1  0
 21 37  1  0
 22 38  1  0
 23 39  1  0
M  END
>  <UniqueID>  (13) 
13

>  <SMILES>  (13) 
O=C(Nc1ccc(F)cc1F)c1cccn(Cc2ccccc2)c1=O

>  <Energy>  (13) 
52.28316317102998

>  <Genealogy>  (13) 
O=C(Nc1ccc(F)cc1F)c1cccn(Cc2ccccc2)c1=O (3D coordinates assigned)
O=C(Nc1ccc(F)cc1F)c1cccn(Cc2ccccc2)c1=O (optimized conformer: 52.28316317102998 kcal/mol)

>  <smiles>  (13) 
O=C(Nc1ccc(F)cc1F)c1cccn(Cc2ccccc2)c1=O

>  <score_type>  (13) 
oracle

>  <origin>  (13) 
adgpu

>  <m_score__min__energy>  (13) 
-8.0199999999999996

>  <m_primary>  (13) 
energy

$$$$
13:0
     RDKit          3D

 45 46  0  0  0  0  0  0  0  0999 V2000
   -2.9610   24.9120  -26.7380 C   0  0  0  0  0  0  0  0  0  0  0  0
   -4.2200   24.2810  -27.3250 C   0  0  0  0  0  0  0  0  0  0  0  0
   -3.9300   23.6550  -28.6200 N   0  0  0  0  0  0  0  0  0  0  0  0
   -2.9680   22.5890  -28.7240 C   0  0  0  0  0  0  0  0  0  0  0  0
   -1.8500   22.7170  -29.5610 C   0  0  0  0  0  0  0  0  0  0  0  0
   -0.9220   21.6790  -29.6640 C   0  0  0  0  0  0  0  0  0  0  0  0
   -1.0970   20.4910  -28.9280 C   0  0  0  0  0  0  0  0  0  0  0  0
   -0.1830   19.4270  -29.0040 O   0  0  0  0  0  0  0  0  0  0  0  0
    0.5220   18.8900  -27.8900 C   0  0  0  0  0  0  0  0  0  0  0  0
   -2.2140   20.3540  -28.0900 C   0  0  0  0  0  0  0  0  0  0  0  0
   -2.3650   19.1600  -27.3670 O   0  0  0  0  0  0  0  0  0  0  0  0
   -3.3360   18.9550  -26.3440 C   0  0  0  0  0  0  0  0  0  0  0  0
   -3.1450   21.4040  -27.9970 C   0  0  0  0  0  0  0  0  0  0  0  0
   -4.7180   24.2490  -30.0540 S   0  0  0  0  0  0  0  0  0  0  0  0
   -6.0300   24.8800  -29.6800 O   0  0  0  0  0  0  0  0  0  0  0  0
   -3.8670   25.3000  -30.7080 O   0  0  0  0  0  0  0  0  0  0  0  0
   -4.9830   22.9180  -31.1780 C   0  0  0  0  0  0  0  0  0  0  0  0
   -3.9160   22.4300  -31.9400 C   0  0  0  0  0  0  0  0  0  0  0  0
   -4.1080   21.3540  -32.8070 C   0  0  0  0  0  0  0  0  0  0  0  0
   -5.3670   20.7600  -32.9240 C   0  0  0  0  0  0  0  0  0  0  0  0
   -6.4550   21.2430  -32.1730 C   0  0  0  0  0  0  0  0  0  0  0  0
   -7.7950   20.6150  -32.2710 C   0  0  0  0  0  0  0  0  0  0  0  0
   -8.2240   19.9500  -33.4610 N   0  0  0  0  0  0  0  0  0  0  0  0
   -8.5850   20.6750  -31.2890 O   0  0  0  0  0  0  0  0  0  0  0  0
   -6.2490   22.3240  -31.2960 C   0  0  0  0  0  0  0  0  0  0  0  0
   -3.0151   24.8849  -25.6397 H   0  0  0  0  0  0  0  0  0  0  0  0
   -2.0776   24.3501  -27.0756 H   0  0  0  0  0  0  0  0  0  0  0  0
   -2.8825   25.9560  -27.0756 H   0  0  0  0  0  0  0  0  0  0  0  0
   -4.5982   23.5162  -26.6307 H   0  0  0  0  0  0  0  0  0  0  0  0
   -4.9743   25.0678  -27.4732 H   0  0  0  0  0  0  0  0  0  0  0  0
   -1.7034   23.6408  -30.1399 H   0  0  0  0  0  0  0  0  0  0  0  0
   -0.0489   21.7897  -30.3239 H   0  0  0  0  0  0  0  0  0  0  0  0
    0.0580   19.2435  -26.9574 H   0  0  0  0  0  0  0  0  0  0  0  0
    0.4822   17.7913  -27.9259 H   0  0  0  0  0  0  0  0  0  0  0  0
    1.5706   19.2203  -27.9259 H   0  0  0  0  0  0  0  0  0  0  0  0
   -2.8575   19.0560  -25.3587 H   0  0  0  0  0  0  0  0  0  0  0  0
   -4.1355   19.7042  -26.4419 H   0  0  0  0  0  0  0  0  0  0  0  0
   -3.7644   17.9466  -26.4419 H   0  0  0  0  0  0  0  0  0  0  0  0
   -4.0239   21.2937  -27.3449 H   0  0  0  0  0  0  0  0  0  0  0  0
   -2.9231   22.8959  -31.8553 H   0  0  0  0  0  0  0  0  0  0  0  0
   -3.2647   20.9718  -33.4009 H   0  0  0  0  0  0  0  0  0  0  0  0
   -5.5089   19.9096  -33.6072 H   0  0  0  0  0  0  0  0  0  0  0  0
   -7.6800   20.0050  -34.3490 H   0  0  0  0  0  0  0  0  0  0  0  0
   -9.1500   19.4650  -33.4820 H   0  0  0  0  0  0  0  0  0  0  0  0
   -7.0884   22.7071  -30.6971 H   0  0  0  0  0  0  0  0  0  0  0  0
  1  2  1  0
  2  3  1  0
  3  4  1  0
  4  5  2  0
  5  6  1  0
  6  7  2  0
  7  8  1  0
  8  9  1  0
  7 10  1  0
 10 11  1  0
 11 12  1  0
 10 13  2  0
  3 14  1  0
 14 15  2  0
 14 16  2  0
 14 17  1  0
 17 18  2  0
 18 19  1  0
 19 20  2  0
 20 21  1  0
 21 22  1  0
 22 23  1  0
 22 24  2  0
 21 25  2  0
 13  4  1  0
 25 17  1  0
  1 26  1  0
  1 27  1  0
  1 28  1  0
  2 29  1  0
  2 30  1  0
  5 31  1  0
  6 32  1  0
  9 33  1  0
  9 34  1  0
  9 35  1  0
 12 36  1  0
 12 37  1  0
 12 38  1  0
 13 39  1  0
 18 40  1  0
 19 41  1  0
 20 42  1  0
 23 43  1  0
 23 44  1  0
 25 45  1  0
M  END
>  <UniqueID>  (14) 
14

>  <SMILES>  (14) 
CCN(c1ccc(OC)c(OC)c1)S(=O)(=O)c1cccc(C(N)=O)c1

>  <Energy>  (14) 
45.56924196027394

>  <Genealogy>  (14) 
CCN(c1ccc(OC)c(OC)c1)S(=O)(=O)c1cccc(C(N)=O)c1 (3D coordinates assigned)
CCN(c1ccc(OC)c(OC)c1)S(=O)(=O)c1cccc(C(N)=O)c1 (optimized conformer: 45.56924196027394 kcal/mol)

>  <smiles>  (14) 
CCN(c1ccc(OC)c(OC)c1)S(=O)(=O)c1cccc(C(N)=O)c1

>  <score_type>  (14) 
oracle

>  <origin>  (14) 
adgpu

>  <m_score__min__energy>  (14) 
-8.2699999999999996

>  <m_primary>  (14) 
energy

$$$$
14:0
     RDKit          3D

 40 41  0  0  0  0  0  0  0  0999 V2000
   -5.0180   19.2920  -34.1640 C   0  0  0  0  0  0  0  0  0  0  0  0
   -6.1550   19.7710  -33.3100 C   0  0  0  0  0  0  0  0  0  0  0  0
   -6.2810   21.1080  -33.1010 N   0  0  0  0  0  0  0  0  0  0  0  0
   -7.2730   21.6140  -32.3300 C   0  0  0  0  0  0  0  0  0  0  0  0
   -7.4000   23.3840  -32.0860 S   0  0  0  0  0  0  0  0  0  0  0  0
   -6.3570   23.4190  -30.5820 C   0  0  2  0  0  0  0  0  0  0  0  0
   -6.4130   24.7960  -29.9170 C   0  0  0  0  0  0  0  0  0  0  0  0
   -4.9450   23.0750  -30.9630 C   0  0  0  0  0  0  0  0  0  0  0  0
   -4.1160   23.9970  -31.1920 O   0  0  0  0  0  0  0  0  0  0  0  0
   -4.5540   21.7010  -31.1140 N   0  0  0  0  0  0  0  0  0  0  0  0
   -3.1990   21.3100  -31.3760 C   0  0  0  0  0  0  0  0  0  0  0  0
   -2.7770   21.1680  -32.7060 C   0  0  0  0  0  0  0  0  0  0  0  0
   -1.4640   20.7880  -32.9950 C   0  0  0  0  0  0  0  0  0  0  0  0
   -0.5650   20.5300  -31.9560 C   0  0  0  0  0  0  0  0  0  0  0  0
    1.0830   20.0500  -32.3200 Cl  0  0  0  0  0  0  0  0  0  0  0  0
   -0.9830   20.6420  -30.6260 C   0  0  0  0  0  0  0  0  0  0  0  0
   -2.2980   21.0230  -30.3280 C   0  0  0  0  0  0  0  0  0  0  0  0
   -2.8020   21.0500  -28.6430 Cl  0  0  0  0  0  0  0  0  0  0  0  0
   -8.1660   20.7830  -31.7430 N   0  0  0  0  0  0  0  0  0  0  0  0
   -8.0990   19.4360  -31.9090 C   0  0  0  0  0  0  0  0  0  0  0  0
   -9.1180   18.5850  -31.2080 C   0  0  0  0  0  0  0  0  0  0  0  0
   -7.0950   18.8820  -32.7370 C   0  0  0  0  0  0  0  0  0  0  0  0
   -6.9780   17.3860  -32.9320 C   0  0  0  0  0  0  0  0  0  0  0  0
   -4.1962   18.9458  -33.5199 H   0  0  0  0  0  0  0  0  0  0  0  0
   -5.3608   18.4618  -34.7991 H   0  0  0  0  0  0  0  0  0  0  0  0
   -4.6634   20.1172  -34.7991 H   0  0  0  0  0  0  0  0  0  0  0  0
   -6.7341   22.6820  -29.8577 H   0  0  0  0  0  0  0  0  0  0  0  0
   -6.4081   24.6756  -28.8236 H   0  0  0  0  0  0  0  0  0  0  0  0
   -5.5382   25.3876  -30.2247 H   0  0  0  0  0  0  0  0  0  0  0  0
   -7.3330   25.3146  -30.2247 H   0  0  0  0  0  0  0  0  0  0  0  0
   -5.3030   20.9800  -31.2210 H   0  0  0  0  0  0  0  0  0  0  0  0
   -3.4844   21.3570  -33.5269 H   0  0  0  0  0  0  0  0  0  0  0  0
   -1.1373   20.6917  -34.0410 H   0  0  0  0  0  0  0  0  0  0  0  0
   -0.2762   20.4300  -29.8102 H   0  0  0  0  0  0  0  0  0  0  0  0
   -8.9952   18.6876  -30.1197 H   0  0  0  0  0  0  0  0  0  0  0  0
  -10.1284   18.9113  -31.4953 H   0  0  0  0  0  0  0  0  0  0  0  0
   -8.9770   17.5326  -31.4953 H   0  0  0  0  0  0  0  0  0  0  0  0
   -6.9392   16.8903  -31.9508 H   0  0  0  0  0  0  0  0  0  0  0  0
   -7.8503   17.0201  -33.4935 H   0  0  0  0  0  0  0  0  0  0  0  0
   -6.0594   17.1601  -33.4935 H   0  0  0  0  0  0  0  0  0  0  0  0
  1  2  1  0
  2  3  2  0
  3  4  1  0
  4  5  1  0
  5  6  1  0
  6  7  1  0
  6  8  1  0
  8  9  2  0
  8 10  1  0
 10 11  1  0
 11 12  2  0
 12 13  1  0
 13 14  2  0
 14 15  1  0
 14 16  1  0
 16 17  2  0
 17 18  1  0
  4 19  2  0
 19 20  1  0
 20 21  1  0
 20 22  2  0
 22 23  1  0
 22  2  1  0
 17 11  1  0
  1 24  1  0
  1 25  1  0
  1 26  1  0
  6 27  1  1
  7 28  1  0
  7 29  1  0
  7 30  1  0
 10 31  1  0
 12 32  1  0
 13 33  1  0
 16 34  1  0
 21 35  1  0
 21 36  1  0
 21 37  1  0
 23 38  1  0
 23 39  1  0
 23 40  1  0
M  END
>  <UniqueID>  (15) 
15

>  <SMILES>  (15) 
Cc1nc(S[C@H](C)C(=O)Nc2ccc(Cl)cc2Cl)nc(C)c1C

>  <Energy>  (15) 
40.68529196760671

>  <Genealogy>  (15) 
Cc1nc(S[C@H](C)C(=O)Nc2ccc(Cl)cc2Cl)nc(C)c1C (chirality)
Cc1nc(S[C@H](C)C(=O)Nc2ccc(Cl)cc2Cl)nc(C)c1C (3D coordinates assigned)
Cc1nc(S[C@H](C)C(=O)Nc2ccc(Cl)cc2Cl)nc(C)c1C (optimized conformer: 40.68529196760671 kcal/mol)

>  <smiles>  (15) 
Cc1nc(SC(C)C(=O)Nc2ccc(Cl)cc2Cl)nc(C)c1C

>  <score_type>  (15) 
oracle

>  <origin>  (15) 
adgpu

>  <m_score__min__energy>  (15) 
-9.0099999999999998

>  <m_primary>  (15) 
energy

$$$$
15:0
     RDKit          3D

 34 35  0  0  0  0  0  0  0  0999 V2000
   -9.4860   20.0490  -32.4620 C   0  0  0  0  0  0  0  0  0  0  0  0
   -8.4090   20.9800  -31.9890 C   0  0  0  0  0  0  0  0  0  0  0  0
   -8.6650   21.8870  -30.9550 C   0  0  0  0  0  0  0  0  0  0  0  0
   -7.6530   22.7220  -30.4840 C   0  0  0  0  0  0  0  0  0  0  0  0
   -6.3580   22.6640  -31.0270 C   0  0  0  0  0  0  0  0  0  0  0  0
   -5.3130   23.5560  -30.4620 C   0  0  0  0  0  0  0  0  0  0  0  0
   -4.7050   24.3670  -31.2110 O   0  0  0  0  0  0  0  0  0  0  0  0
   -5.0060   23.5060  -29.0580 N   0  0  0  0  0  0  0  0  0  0  0  0
   -3.8230   24.0780  -28.4750 C   0  0  0  0  0  0  0  0  0  0  0  0
   -3.8110   24.5440  -27.1480 C   0  0  0  0  0  0  0  0  0  0  0  0
   -2.6550   25.1180  -26.6110 C   0  0  0  0  0  0  0  0  0  0  0  0
   -1.4930   25.2500  -27.3910 C   0  0  0  0  0  0  0  0  0  0  0  0
   -0.3040   25.8400  -26.8330 N   0  0  0  0  0  0  0  0  0  0  0  0
   -0.3530   26.4850  -25.7660 O   0  0  0  0  0  0  0  0  0  0  0  0
    0.9090   25.7030  -27.4690 O   0  0  0  0  0  0  0  0  0  0  0  0
   -1.5150   24.8020  -28.7240 C   0  0  0  0  0  0  0  0  0  0  0  0
   -2.6710   24.2300  -29.2600 C   0  0  0  0  0  0  0  0  0  0  0  0
   -6.0920   21.7480  -32.0790 C   0  0  0  0  0  0  0  0  0  0  0  0
   -4.7360   21.6480  -32.7290 C   0  0  0  0  0  0  0  0  0  0  0  0
   -7.1200   20.9020  -32.5330 C   0  0  0  0  0  0  0  0  0  0  0  0
   -9.9966   19.6076  -31.5934 H   0  0  0  0  0  0  0  0  0  0  0  0
  -10.2129   20.6078  -33.0697 H   0  0  0  0  0  0  0  0  0  0  0  0
   -9.0382   19.2489  -33.0697 H   0  0  0  0  0  0  0  0  0  0  0  0
   -9.6701   21.9415  -30.5114 H   0  0  0  0  0  0  0  0  0  0  0  0
   -7.8710   23.4361  -29.6762 H   0  0  0  0  0  0  0  0  0  0  0  0
   -5.7320   23.1190  -28.4140 H   0  0  0  0  0  0  0  0  0  0  0  0
   -4.7163   24.4563  -26.5293 H   0  0  0  0  0  0  0  0  0  0  0  0
   -2.6546   25.4695  -25.5687 H   0  0  0  0  0  0  0  0  0  0  0  0
   -0.6154   24.9028  -29.3489 H   0  0  0  0  0  0  0  0  0  0  0  0
   -2.6778   23.8956  -30.3079 H   0  0  0  0  0  0  0  0  0  0  0  0
   -3.9600   21.5908  -31.9515 H   0  0  0  0  0  0  0  0  0  0  0  0
   -4.6952   20.7444  -33.3550 H   0  0  0  0  0  0  0  0  0  0  0  0
   -4.5631   22.5358  -33.3550 H   0  0  0  0  0  0  0  0  0  0  0  0
   -6.9092   20.1692  -33.3258 H   0  0  0  0  0  0  0  0  0  0  0  0
  1  2  1  0
  2  3  2  0
  3  4  1  0
  4  5  2  0
  5  6  1  0
  6  7  2  0
  6  8  1  0
  8  9  1  0
  9 10  2  0
 10 11  1  0
 11 12  2  0
 12 13  1  0
 13 14  2  0
 13 15  1  0
 12 16  1  0
 16 17  2  0
  5 18  1  0
 18 19  1  0
 18 20  2  0
 20  2  1  0
 17  9  1  0
  1 21  1  0
  1 22  1  0
  1 23  1  0
  3 24  1  0
  4 25  1  0
  8 26  1  0
 10 27  1  0
 11 28  1  0
 16 29  1  0
 17 30  1  0
 19 31  1  0
 19 32  1  0
 19 33  1  0
 20 34  1  0
M  CHG  2  13   1  15  -1
M  END
>  <UniqueID>  (16) 
16

>  <SMILES>  (16) 
Cc1ccc(C(=O)Nc2ccc([N+](=O)[O-])cc2)c(C)c1

>  <Energy>  (16) 
43.24219559734802

>  <Genealogy>  (16) 
Cc1ccc(C(=O)Nc2ccc([N+](=O)[O-])cc2)c(C)c1 (3D coordinates assigned)
Cc1ccc(C(=O)Nc2ccc([N+](=O)[O-])cc2)c(C)c1 (optimized conformer: 43.24219559734802 kcal/mol)

>  <smiles>  (16) 
Cc1ccc(C(=O)Nc2ccc([N+](=O)[O-])cc2)c(C)c1

>  <score_type>  (16) 
oracle

>  <origin>  (16) 
adgpu

>  <m_score__min__energy>  (16) 
-7.54

>  <m_primary>  (16) 
energy

$$$$
16:0
     RDKit          3D

 40 40  0  0  0  0  0  0  0  0999 V2000
   -1.5350   25.4170  -27.7640 C   0  0  0  0  0  0  0  0  0  0  0  0
   -1.9810   25.2990  -29.1110 O   0  0  0  0  0  0  0  0  0  0  0  0
   -2.4910   24.1210  -29.6790 C   0  0  0  0  0  0  0  0  0  0  0  0
   -1.8790   22.8690  -29.4770 C   0  0  0  0  0  0  0  0  0  0  0  0
   -2.4180   21.7170  -30.0500 C   0  0  0  0  0  0  0  0  0  0  0  0
   -3.5760   21.7930  -30.8360 C   0  0  0  0  0  0  0  0  0  0  0  0
   -4.1960   20.5410  -31.4020 C   0  0  0  0  0  0  0  0  0  0  0  0
   -5.3060   20.8500  -32.4240 C   0  0  0  0  0  0  0  0  0  0  0  0
   -5.6880   19.6700  -33.2320 N   0  0  0  0  0  0  0  0  0  0  0  0
   -6.5480   18.7410  -32.4770 C   0  0  0  0  0  0  0  0  0  0  0  0
   -6.9120   17.4950  -33.3020 C   0  0  0  0  0  0  0  0  0  0  0  0
   -5.8620   17.1750  -34.3730 C   0  0  0  0  0  0  0  0  0  0  0  0
   -5.7680   18.2760  -35.3280 N   0  0  0  0  0  0  0  0  0  0  0  0
   -4.1870   23.0380  -31.0440 C   0  0  0  0  0  0  0  0  0  0  0  0
   -3.6490   24.2060  -30.4670 C   0  0  0  0  0  0  0  0  0  0  0  0
   -4.2390   25.4670  -30.6500 O   0  0  0  0  0  0  0  0  0  0  0  0
   -5.6210   25.7470  -30.4530 C   0  0  0  0  0  0  0  0  0  0  0  0
   -2.3686   25.1964  -27.0811 H   0  0  0  0  0  0  0  0  0  0  0  0
   -0.7162   24.7046  -27.5851 H   0  0  0  0  0  0  0  0  0  0  0  0
   -1.1756   26.4411  -27.5851 H   0  0  0  0  0  0  0  0  0  0  0  0
   -0.9691   22.7989  -28.8628 H   0  0  0  0  0  0  0  0  0  0  0  0
   -1.9319   20.7443  -29.8842 H   0  0  0  0  0  0  0  0  0  0  0  0
   -3.4117   19.9511  -31.8989 H   0  0  0  0  0  0  0  0  0  0  0  0
   -4.6503   19.9839  -30.5694 H   0  0  0  0  0  0  0  0  0  0  0  0
   -6.1939   21.2064  -31.8812 H   0  0  0  0  0  0  0  0  0  0  0  0
   -4.9164   21.6119  -33.1151 H   0  0  0  0  0  0  0  0  0  0  0  0
   -4.8360   19.1800  -33.5890 H   0  0  0  0  0  0  0  0  0  0  0  0
   -6.2260   20.0010  -34.0670 H   0  0  0  0  0  0  0  0  0  0  0  0
   -6.0156   18.4226  -31.5686 H   0  0  0  0  0  0  0  0  0  0  0  0
   -7.4807   19.2678  -32.2269 H   0  0  0  0  0  0  0  0  0  0  0  0
   -6.9972   16.6341  -32.6226 H   0  0  0  0  0  0  0  0  0  0  0  0
   -7.8631   17.6992  -33.8156 H   0  0  0  0  0  0  0  0  0  0  0  0
   -4.8843   17.0267  -33.8912 H   0  0  0  0  0  0  0  0  0  0  0  0
   -6.1589   16.2599  -34.9064 H   0  0  0  0  0  0  0  0  0  0  0  0
   -6.7330   18.4950  -35.6690 H   0  0  0  0  0  0  0  0  0  0  0  0
   -5.2320   17.9320  -36.1570 H   0  0  0  0  0  0  0  0  0  0  0  0
   -5.0940   23.1036  -31.6629 H   0  0  0  0  0  0  0  0  0  0  0  0
   -5.8363   25.7906  -29.3751 H   0  0  0  0  0  0  0  0  0  0  0  0
   -5.8689   26.7136  -30.9158 H   0  0  0  0  0  0  0  0  0  0  0  0
   -6.2256   24.9531  -30.9158 H   0  0  0  0  0  0  0  0  0  0  0  0
  1  2  1  0
  2  3  1  0
  3  4  2  0
  4  5  1  0
  5  6  2  0
  6  7  1  0
  7  8  1  0
  8  9  1  0
  9 10  1  0
 10 11  1  0
 11 12  1  0
 12 13  1  0
  6 14  1  0
 14 15  2  0
 15 16  1  0
 16 17  1  0
 15  3  1  0
  1 18  1  0
  1 19  1  0
  1 20  1  0
  4 21  1  0
  5 22  1  0
  7 23  1  0
  7 24  1  0
  8 25  1  0
  8 26  1  0
  9 27  1  0
  9 28  1  0
 10 29  1  0
 10 30  1  0
 11 31  1  0
 11 32  1  0
 12 33  1  0
 12 34  1  0
 13 35  1  0
 13 36  1  0
 14 37  1  0
 17 38  1  0
 17 39  1  0
 17 40  1  0
M  CHG  1   9   1
M  END
>  <UniqueID>  (17) 
17

>  <SMILES>  (17) 
COc1ccc(CC[NH2+]CCCN)cc1OC

>  <Energy>  (17) 
29.617168364245074

>  <Genealogy>  (17) 
COc1ccc(CC[NH2+]CCCN)cc1OC (protonated)
COc1ccc(CC[NH2+]CCCN)cc1OC (3D coordinates assigned)
COc1ccc(CC[NH2+]CCCN)cc1OC (optimized conformer: 29.617168364245074 kcal/mol)

>  <smiles>  (17) 
COc1ccc(CCNCCCN)cc1OC

>  <score_type>  (17) 
oracle

>  <origin>  (17) 
adgpu

>  <m_score__min__energy>  (17) 
-5.4500000000000002

>  <m_primary>  (17) 
energy

$$$$
17:0
     RDKit          3D

 24 24  0  0  0  0  0  0  0  0999 V2000
   -0.9320   24.5540  -30.1850 H   0  0  0  0  0  0  0  0  0  0  0  0
   -0.4990   24.8900  -29.3330 O   0  0  0  0  0  0  0  0  0  0  0  0
   -1.2180   25.0050  -28.1440 C   0  0  0  0  0  0  0  0  0  0  0  0
   -0.5570   25.3130  -26.9470 C   0  0  0  0  0  0  0  0  0  0  0  0
    0.5320   25.4683  -26.9499 H   0  0  0  0  0  0  0  0  0  0  0  0
   -1.2730   25.4250  -25.7440 C   0  0  0  0  0  0  0  0  0  0  0  0
   -0.5660   25.7560  -24.4810 C   0  0  0  0  0  0  0  0  0  0  0  0
    0.5830   24.9760  -24.1120 N   0  0  0  0  0  0  0  0  0  0  0  0
    0.8850   24.1730  -24.7070 H   0  0  0  0  0  0  0  0  0  0  0  0
    1.2420   25.2510  -23.3540 H   0  0  0  0  0  0  0  0  0  0  0  0
   -0.9900   26.7500  -23.7410 N   0  0  0  0  0  0  0  0  0  0  0  0
   -1.8150   27.3070  -24.0540 H   0  0  0  0  0  0  0  0  0  0  0  0
   -0.4490   27.0990  -22.5180 O   0  0  0  0  0  0  0  0  0  0  0  0
    0.4190   26.7270  -22.1620 H   0  0  0  0  0  0  0  0  0  0  0  0
   -2.6640   25.2290  -25.7580 C   0  0  0  0  0  0  0  0  0  0  0  0
   -3.2371   25.3172  -24.8232 H   0  0  0  0  0  0  0  0  0  0  0  0
   -3.3250   24.9230  -26.9500 C   0  0  0  0  0  0  0  0  0  0  0  0
   -4.4143   24.7702  -26.9473 H   0  0  0  0  0  0  0  0  0  0  0  0
   -2.6060   24.8090  -28.1540 C   0  0  0  0  0  0  0  0  0  0  0  0
   -3.2310   24.5030  -29.3730 O   0  0  0  0  0  0  0  0  0  0  0  0
   -4.5970   24.1240  -29.5050 C   0  0  0  0  0  0  0  0  0  0  0  0
   -5.0414   24.0007  -28.5064 H   0  0  0  0  0  0  0  0  0  0  0  0
   -5.1426   24.9047  -30.0553 H   0  0  0  0  0  0  0  0  0  0  0  0
   -4.6624   23.1738  -30.0553 H   0  0  0  0  0  0  0  0  0  0  0  0
  1  2  1  0
  2  3  1  0
  3  4  2  0
  4  5  1  0
  4  6  1  0
  6  7  1  0
  7  8  1  0
  8  9  1  0
  8 10  1  0
  7 11  2  0
 11 12  1  0
 11 13  1  0
 13 14  1  0
  6 15  2  0
 15 16  1  0
 15 17  1  0
 17 18  1  0
 17 19  2  0
 19 20  1  0
 20 21  1  0
 21 22  1  0
 21 23  1  0
 21 24  1  0
 19  3  1  0
M  CHG  1  11   1
M  END
>  <UniqueID>  (18) 
18

>  <SMILES>  (18) 
COc1ccc(/C(N)=[NH+]/O)cc1O

>  <Energy>  (18) 
28.395895086356763

>  <Genealogy>  (18) 
COc1ccc(C(N)=[NH+]O)cc1O (protonated)
COc1ccc(/C(N)=[NH+]/O)cc1O (cis-trans isomerization)
COc1ccc(/C(N)=[NH+]/O)cc1O (3D coordinates assigned)
COc1ccc(/C(N)=[NH+]/O)cc1O (optimized conformer: 28.395895086356763 kcal/mol)

>  <smiles>  (18) 
COc1ccc(C(N)=NO)cc1O

>  <score_type>  (18) 
oracle

>  <origin>  (18) 
adgpu

>  <m_score__min__energy>  (18) 
-5.96

>  <m_primary>  (18) 
energy

$$$$
18:0
     RDKit          3D

 54 57  0  0  1  0  0  0  0  0999 V2000
   -0.4160   20.3660  -31.0040 C   0  0  0  0  0  0  0  0  0  0  0  0
   -1.6720   19.9210  -31.4620 O   0  0  0  0  0  0  0  0  0  0  0  0
   -2.6700   20.8920  -31.6340 C   0  0  0  0  0  0  0  0  0  0  0  0
   -3.0240   21.7690  -30.6220 C   0  0  0  0  0  0  0  0  0  0  0  0
   -4.0020   22.6850  -30.8650 C   0  0  0  0  0  0  0  0  0  0  0  0
   -4.3780   23.5640  -29.8930 C   0  0  0  0  0  0  0  0  0  0  0  0
   -3.8740   23.5900  -28.7760 N   0  0  0  0  0  0  0  0  0  0  0  0
   -2.9020   22.8700  -28.1720 C   0  0  0  0  0  0  0  0  0  0  0  0
   -3.2140   21.6070  -27.6120 C   0  0  0  0  0  0  0  0  0  0  0  0
   -2.2050   20.8170  -27.0960 C   0  0  0  0  0  0  0  0  0  0  0  0
   -0.8770   21.2200  -27.1040 C   0  0  0  0  0  0  0  0  0  0  0  0
   -0.5770   22.4560  -27.6540 C   0  0  0  0  0  0  0  0  0  0  0  0
   -1.5460   23.2860  -28.1830 C   0  0  0  0  0  0  0  0  0  0  0  0
   -1.1810   24.5460  -28.7350 N   0  0  0  0  0  0  0  0  0  0  0  0
   -1.9830   25.2920  -29.3330 O   0  0  0  0  0  0  0  0  0  0  0  0
    0.1500   24.9200  -28.5720 O   0  0  0  0  0  0  0  0  0  0  0  0
   -5.3590   24.4590  -30.1830 N   0  0  0  0  0  0  0  0  0  0  0  0
   -5.9590   24.5050  -31.3720 C   0  0  0  0  0  0  0  0  0  0  0  0
   -5.6120   23.6550  -32.3510 N   0  0  0  0  0  0  0  0  0  0  0  0
   -4.6320   22.7570  -32.0670 C   0  0  0  0  0  0  0  0  0  0  0  0
   -4.2690   21.8830  -33.0550 C   0  0  0  0  0  0  0  0  0  0  0  0
   -3.2980   20.9350  -32.8920 C   0  0  0  0  0  0  0  0  0  0  0  0
   -2.8800   20.0520  -33.7760 O   0  0  0  0  0  0  0  0  0  0  0  0
   -3.0550   18.8340  -34.2200 C   0  0  0  0  0  0  0  0  0  0  0  0
   -4.2840   18.0380  -33.9430 C   0  0  0  0  0  0  0  0  0  0  0  0
   -5.0940   18.4030  -32.8330 N   0  0  0  0  0  0  0  0  0  0  0  0
   -5.6770   17.1290  -32.3350 C   0  0  0  0  0  0  0  0  0  0  0  0
   -6.9060   16.7630  -33.1280 C   0  0  0  0  0  0  0  0  0  0  0  0
   -7.9610   17.5620  -32.6610 O   0  0  0  0  0  0  0  0  0  0  0  0
   -7.4530   18.8320  -32.3790 C   0  0  0  0  0  0  0  0  0  0  0  0
   -6.2870   19.1460  -33.2810 C   0  0  0  0  0  0  0  0  0  0  0  0
   -0.4069   20.3692  -29.9040 H   0  0  0  0  0  0  0  0  0  0  0  0
    0.3697   19.6915  -31.3752 H   0  0  0  0  0  0  0  0  0  0  0  0
   -0.2302   21.3847  -31.3752 H   0  0  0  0  0  0  0  0  0  0  0  0
   -2.5255   21.7265  -29.6424 H   0  0  0  0  0  0  0  0  0  0  0  0
   -4.2563   21.2563  -27.5880 H   0  0  0  0  0  0  0  0  0  0  0  0
   -2.4622   19.8380  -26.6654 H   0  0  0  0  0  0  0  0  0  0  0  0
   -0.0871   20.5782  -26.6867 H   0  0  0  0  0  0  0  0  0  0  0  0
    0.4715   22.7884  -27.6699 H   0  0  0  0  0  0  0  0  0  0  0  0
   -6.7486   25.2490  -31.5534 H   0  0  0  0  0  0  0  0  0  0  0  0
   -6.0820   23.6910  -33.2850 H   0  0  0  0  0  0  0  0  0  0  0  0
   -4.7825   21.9462  -34.0257 H   0  0  0  0  0  0  0  0  0  0  0  0
   -2.9747   18.8962  -35.3153 H   0  0  0  0  0  0  0  0  0  0  0  0
   -2.2992   18.2793  -33.6446 H   0  0  0  0  0  0  0  0  0  0  0  0
   -4.9176   18.0965  -34.8403 H   0  0  0  0  0  0  0  0  0  0  0  0
   -3.9042   17.0393  -33.6817 H   0  0  0  0  0  0  0  0  0  0  0  0
   -4.9308   16.3269  -32.4337 H   0  0  0  0  0  0  0  0  0  0  0  0
   -5.9604   17.2568  -31.2799 H   0  0  0  0  0  0  0  0  0  0  0  0
   -6.7342   16.9548  -34.1974 H   0  0  0  0  0  0  0  0  0  0  0  0
   -7.1435   15.6960  -33.0052 H   0  0  0  0  0  0  0  0  0  0  0  0
   -8.2434   19.5810  -32.5350 H   0  0  0  0  0  0  0  0  0  0  0  0
   -7.1106   18.8544  -31.3339 H   0  0  0  0  0  0  0  0  0  0  0  0
   -6.5338   18.8529  -34.3121 H   0  0  0  0  0  0  0  0  0  0  0  0
   -6.0783   20.2253  -33.2421 H   0  0  0  0  0  0  0  0  0  0  0  0
  1  2  1  0
  2  3  1  0
  3  4  2  0
  4  5  1  0
  5  6  1  0
  6  7  2  0
  7  8  1  0
  8  9  2  0
  9 10  1  0
 10 11  2  0
 11 12  1  0
 12 13  2  0
 13 14  1  0
 14 15  2  0
 14 16  1  0
  6 17  1  0
 17 18  2  0
 18 19  1  0
 19 20  1  0
 20 21  1  0
 21 22  2  0
 22 23  1  0
 23 24  1  0
 24 25  1  0
 25 26  1  0
 26 27  1  0
 27 28  1  0
 28 29  1  0
 29 30  1  0
 30 31  1  0
 22  3  1  0
 31 26  1  0
 20  5  2  0
 13  8  1  0
  1 32  1  0
  1 33  1  0
  1 34  1  0
  4 35  1  0
  9 36  1  0
 10 37  1  0
 11 38  1  0
 12 39  1  0
 18 40  1  0
 19 41  1  0
 21 42  1  0
 24 43  1  0
 24 44  1  0
 25 45  1  0
 25 46  1  0
 27 47  1  0
 27 48  1  0
 28 49  1  0
 28 50  1  0
 30 51  1  0
 30 52  1  0
 31 53  1  0
 31 54  1  0
M  CHG  2  14   1  16  -1
M  END
>  <smiles>  (19) 
COc1cc2c(=Nc3ccccc3[N+](=O)[O-])nc[nH]c2cc1OCCN1CCOCC1

>  <score_type>  (19) 
oracle

>  <origin>  (19) 
adgpu

>  <m_score__min__energy>  (19) 
-8.7699999999999996

>  <m_primary>  (19) 
energy

$$$$
19:0
     RDKit          3D

 42 45  0  0  0  0  0  0  0  0999 V2000
   -6.7722   16.6801  -31.0098 H   0  0  0  0  0  0  0  0  0  0  0  0
   -6.5820   17.4390  -31.7830 C   0  0  0  0  0  0  0  0  0  0  0  0
   -5.3400   17.5130  -32.4380 C   0  0  0  0  0  0  0  0  0  0  0  0
   -4.5451   16.7965  -32.1834 H   0  0  0  0  0  0  0  0  0  0  0  0
   -5.1040   18.5060  -33.4260 C   0  0  0  0  0  0  0  0  0  0  0  0
   -3.7890   18.5490  -34.1560 C   0  0  0  0  0  0  0  0  0  0  0  0
   -3.9617   18.8701  -35.1938 H   0  0  0  0  0  0  0  0  0  0  0  0
   -3.3401   17.5449  -34.1389 H   0  0  0  0  0  0  0  0  0  0  0  0
   -2.8710   19.4890  -33.5070 N   0  0  0  0  0  0  0  0  0  0  0  0
   -1.8420   19.3520  -33.6300 H   0  0  0  0  0  0  0  0  0  0  0  0
   -3.3140   20.5910  -32.6940 C   0  0  0  0  0  0  0  0  0  0  0  0
   -4.1120   21.5930  -33.2700 C   0  0  0  0  0  0  0  0  0  0  0  0
   -4.3956   21.5216  -34.3304 H   0  0  0  0  0  0  0  0  0  0  0  0
   -4.5490   22.6800  -32.5080 C   0  0  0  0  0  0  0  0  0  0  0  0
   -5.1724   23.4586  -32.9718 H   0  0  0  0  0  0  0  0  0  0  0  0
   -4.1970   22.7820  -31.1580 C   0  0  0  0  0  0  0  0  0  0  0  0
   -4.7380   24.1710  -30.2200 S   0  0  0  0  0  0  0  0  0  0  0  0
   -6.2390   24.2380  -30.1820 O   0  0  0  0  0  0  0  0  0  0  0  0
   -4.2110   25.4260  -30.8570 O   0  0  0  0  0  0  0  0  0  0  0  0
   -4.1310   24.0520  -28.5990 N   0  0  0  0  0  0  0  0  0  0  0  0
   -2.9910   24.5430  -28.2180 C   0  0  0  0  0  0  0  0  0  0  0  0
   -2.1780   25.1950  -29.0960 N   0  0  0  0  0  0  0  0  0  0  0  0
   -1.0060   25.7070  -28.7160 N   0  0  0  0  0  0  0  0  0  0  0  0
   -0.5700   25.6010  -27.4330 C   0  0  0  0  0  0  0  0  0  0  0  0
    0.9740   26.2900  -26.9740 Cl  0  0  0  0  0  0  0  0  0  0  0  0
   -1.3630   24.9440  -26.4920 C   0  0  0  0  0  0  0  0  0  0  0  0
   -1.0266   24.8503  -25.4489 H   0  0  0  0  0  0  0  0  0  0  0  0
   -2.5860   24.4080  -26.8890 C   0  0  0  0  0  0  0  0  0  0  0  0
   -3.2255   23.8842  -26.1632 H   0  0  0  0  0  0  0  0  0  0  0  0
   -3.4050   21.7850  -30.5720 C   0  0  0  0  0  0  0  0  0  0  0  0
   -3.1281   21.8583  -29.5099 H   0  0  0  0  0  0  0  0  0  0  0  0
   -2.9660   20.6980  -31.3330 C   0  0  0  0  0  0  0  0  0  0  0  0
   -2.3441   19.9202  -30.8658 H   0  0  0  0  0  0  0  0  0  0  0  0
   -6.1350   19.4090  -33.7690 C   0  0  0  0  0  0  0  0  0  0  0  0
   -5.9829   20.1750  -34.5437 H   0  0  0  0  0  0  0  0  0  0  0  0
   -7.3490   19.3000  -33.0970 C   0  0  0  0  0  0  0  0  0  0  0  0
   -7.5620   18.3570  -32.1450 C   0  0  0  0  0  0  0  0  0  0  0  0
   -8.8470   18.4820  -31.6530 O   0  0  0  0  0  0  0  0  0  0  0  0
   -9.4800   19.5730  -32.3380 C   0  0  0  0  0  0  0  0  0  0  0  0
   -9.7722   20.3588  -31.6258 H   0  0  0  0  0  0  0  0  0  0  0  0
  -10.3984   19.2580  -32.8551 H   0  0  0  0  0  0  0  0  0  0  0  0
   -8.4890   20.0650  -33.2530 O   0  0  0  0  0  0  0  0  0  0  0  0
  1  2  1  0
  2  3  2  0
  3  4  1  0
  3  5  1  0
  5  6  1  0
  6  7  1  0
  6  8  1  0
  6  9  1  0
  9 10  1  0
  9 11  1  0
 11 12  2  0
 12 13  1  0
 12 14  1  0
 14 15  1  0
 14 16  2  0
 16 17  1  0
 17 18  2  0
 17 19  2  0
 17 20  1  0
 20 21  2  0
 21 22  1  0
 22 23  1  0
 23 24  2  0
 24 25  1  0
 24 26  1  0
 26 27  1  0
 26 28  2  0
 28 29  1  0
 16 30  1  0
 30 31  1  0
 30 32  2  0
 32 33  1  0
  5 34  2  0
 34 35  1  0
 34 36  1  0
 36 37  2  0
 37 38  1  0
 38 39  1  0
 39 40  1  0
 39 41  1  0
 39 42  1  0
 37  2  1  0
 32 11  1  0
 42 36  1  0
 28 21  1  0
M  CHG  1  22  -1
M  END
>  <UniqueID>  (20) 
19

>  <SMILES>  (20) 
O=S(=O)(/N=c1/ccc(Cl)n[n-]1)c1ccc(NCc2ccc3c(c2)OCO3)cc1

>  <Energy>  (20) 
77.698073880788

>  <Genealogy>  (20) 
O=S(=O)(N=c1ccc(Cl)n[n-]1)c1ccc(NCc2ccc3c(c2)OCO3)cc1 (protonated)
O=S(=O)(/N=c1/ccc(Cl)n[n-]1)c1ccc(NCc2ccc3c(c2)OCO3)cc1 (cis-trans isomerization)
O=S(=O)(/N=c1/ccc(Cl)n[n-]1)c1ccc(NCc2ccc3c(c2)OCO3)cc1 (3D coordinates assigned)
O=S(=O)(/N=c1/ccc(Cl)n[n-]1)c1ccc(NCc2ccc3c(c2)OCO3)cc1 (nonaromatic ring conformer: 77.698073880788 kcal/mol)

>  <smiles>  (20) 
O=S(=O)(N=c1ccc(Cl)n[nH]1)c1ccc(NCc2ccc3c(c2)OCO3)cc1

>  <score_type>  (20) 
oracle

>  <origin>  (20) 
adgpu

>  <m_score__min__energy>  (20) 
-11.44

>  <m_primary>  (20) 
energy

$$$$
20:0
     RDKit          3D

 32 34  0  0  0  0  0  0  0  0999 V2000
    3.4700   14.2250  -26.3680 O   0  0  0  0  0  0  0  0  0  0  0  0
    2.7520   15.3430  -26.7710 C   0  0  0  0  0  0  0  0  0  0  0  0
    1.3860   15.2360  -27.0490 C   0  0  0  0  0  0  0  0  0  0  0  0
    0.6610   16.3600  -27.4550 C   0  0  0  0  0  0  0  0  0  0  0  0
    1.2960   17.6090  -27.5870 C   0  0  0  0  0  0  0  0  0  0  0  0
    0.5280   18.8060  -28.0190 C   0  0  0  0  0  0  0  0  0  0  0  0
    0.9690   19.5840  -29.1020 C   0  0  0  0  0  0  0  0  0  0  0  0
    0.2470   20.7100  -29.5080 C   0  0  0  0  0  0  0  0  0  0  0  0
   -0.9320   21.0820  -28.8400 C   0  0  0  0  0  0  0  0  0  0  0  0
   -1.7000   22.2790  -29.2710 C   0  0  0  0  0  0  0  0  0  0  0  0
   -2.8930   22.1360  -30.0050 C   0  0  0  0  0  0  0  0  0  0  0  0
   -3.6140   23.2640  -30.4110 C   0  0  0  0  0  0  0  0  0  0  0  0
   -3.1540   24.5440  -30.0910 C   0  0  0  0  0  0  0  0  0  0  0  0
   -3.8760   25.6600  -30.4980 O   0  0  0  0  0  0  0  0  0  0  0  0
   -1.9700   24.6990  -29.3610 C   0  0  0  0  0  0  0  0  0  0  0  0
   -1.5110   25.9700  -29.0370 O   0  0  0  0  0  0  0  0  0  0  0  0
   -1.2470   23.5730  -28.9550 C   0  0  0  0  0  0  0  0  0  0  0  0
   -1.3730   20.3020  -27.7570 C   0  0  0  0  0  0  0  0  0  0  0  0
   -0.6500   19.1780  -27.3500 C   0  0  0  0  0  0  0  0  0  0  0  0
    2.6730   17.7060  -27.3040 C   0  0  0  0  0  0  0  0  0  0  0  0
    3.3940   16.5780  -26.9000 C   0  0  0  0  0  0  0  0  0  0  0  0
    0.8803   14.2644  -26.9479 H   0  0  0  0  0  0  0  0  0  0  0  0
   -0.4133   16.2677  -27.6728 H   0  0  0  0  0  0  0  0  0  0  0  0
    1.8899   19.3050  -29.6350 H   0  0  0  0  0  0  0  0  0  0  0  0
    0.6048   21.3100  -30.3577 H   0  0  0  0  0  0  0  0  0  0  0  0
   -3.2604   21.1312  -30.2608 H   0  0  0  0  0  0  0  0  0  0  0  0
   -4.5454   23.1430  -30.9836 H   0  0  0  0  0  0  0  0  0  0  0  0
   -0.3158   23.7001  -28.3835 H   0  0  0  0  0  0  0  0  0  0  0  0
   -2.2953   20.5790  -27.2254 H   0  0  0  0  0  0  0  0  0  0  0  0
   -1.0061   18.5793  -26.4987 H   0  0  0  0  0  0  0  0  0  0  0  0
    3.1840   18.6752  -27.4015 H   0  0  0  0  0  0  0  0  0  0  0  0
    4.4691   16.6627  -26.6832 H   0  0  0  0  0  0  0  0  0  0  0  0
  1  2  1  0
  2  3  2  0
  3  4  1  0
  4  5  2  0
  5  6  1  0
  6  7  2  0
  7  8  1  0
  8  9  2  0
  9 10  1  0
 10 11  2  0
 11 12  1  0
 12 13  2  0
 13 14  1  0
 13 15  1  0
 15 16  1  0
 15 17  2  0
  9 18  1  0
 18 19  2  0
  5 20  1  0
 20 21  2  0
 21  2  1  0
 19  6  1  0
 17 10  1  0
  3 22  1  0
  4 23  1  0
  7 24  1  0
  8 25  1  0
 11 26  1  0
 12 27  1  0
 17 28  1  0
 18 29  1  0
 19 30  1  0
 20 31  1  0
 21 32  1  0
M  CHG  3   1  -1  14  -1  16  -1
M  END
>  <UniqueID>  (21) 
20

>  <SMILES>  (21) 
[O-]c1ccc(-c2ccc(-c3ccc([O-])c([O-])c3)cc2)cc1

>  <Energy>  (21) 
46.20686629363562

>  <Genealogy>  (21) 
[O-]c1ccc(-c2ccc(-c3ccc([O-])c([O-])c3)cc2)cc1 (protonated)
[O-]c1ccc(-c2ccc(-c3ccc([O-])c([O-])c3)cc2)cc1 (3D coordinates assigned)
[O-]c1ccc(-c2ccc(-c3ccc([O-])c([O-])c3)cc2)cc1 (optimized conformer: 46.20686629363562 kcal/mol)

>  <smiles>  (21) 
Oc1ccc(-c2ccc(-c3ccc(O)c(O)c3)cc2)cc1

>  <score_type>  (21) 
oracle

>  <origin>  (21) 
adgpu

>  <m_score__min__energy>  (21) 
-12.02

>  <m_primary>  (21) 
energy

$$$$
21:0
     RDKit          3D

 41 43  0  0  0  0  0  0  0  0999 V2000
   -5.0400   25.3960  -30.5050 C   0  0  0  0  0  0  0  0  0  0  0  0
   -3.6310   25.1930  -30.4630 O   0  0  0  0  0  0  0  0  0  0  0  0
   -2.9660   24.3800  -29.5290 C   0  0  0  0  0  0  0  0  0  0  0  0
   -2.3610   24.9240  -28.3790 C   0  0  0  0  0  0  0  0  0  0  0  0
   -1.6630   24.1060  -27.4900 C   0  0  0  0  0  0  0  0  0  0  0  0
   -1.5410   22.7350  -27.7380 C   0  0  0  0  0  0  0  0  0  0  0  0
   -0.8170   21.8520  -26.7640 C   0  0  0  0  0  0  0  0  0  0  0  0
   -2.1620   22.1800  -28.8650 C   0  0  0  0  0  0  0  0  0  0  0  0
   -2.8840   22.9890  -29.7590 C   0  0  0  0  0  0  0  0  0  0  0  0
   -3.5250   22.3580  -30.9380 C   0  0  0  0  0  0  0  0  0  0  0  0
   -4.9090   22.1140  -30.9730 C   0  0  0  0  0  0  0  0  0  0  0  0
   -5.4810   21.5050  -32.1000 C   0  0  0  0  0  0  0  0  0  0  0  0
   -6.9010   21.2660  -32.1650 N   0  0  0  0  0  0  0  0  0  0  0  0
   -7.4180   20.0470  -32.7950 C   0  0  0  0  0  0  0  0  0  0  0  0
   -8.7700   19.6800  -32.1750 C   0  0  0  0  0  0  0  0  0  0  0  0
   -9.6580   20.7820  -32.2130 O   0  0  0  0  0  0  0  0  0  0  0  0
   -9.1600   21.8260  -31.3970 C   0  0  0  0  0  0  0  0  0  0  0  0
   -7.8410   22.3710  -31.9540 C   0  0  0  0  0  0  0  0  0  0  0  0
   -4.6540   21.1410  -33.1710 C   0  0  0  0  0  0  0  0  0  0  0  0
   -3.2810   21.3780  -33.0920 C   0  0  0  0  0  0  0  0  0  0  0  0
   -2.7530   21.9710  -31.9900 N   0  0  0  0  0  0  0  0  0  0  0  0
   -5.4330   25.4526  -29.4792 H   0  0  0  0  0  0  0  0  0  0  0  0
   -5.2596   26.3350  -31.0341 H   0  0  0  0  0  0  0  0  0  0  0  0
   -5.5157   24.5571  -31.0341 H   0  0  0  0  0  0  0  0  0  0  0  0
   -2.4396   26.0030  -28.1802 H   0  0  0  0  0  0  0  0  0  0  0  0
   -1.2062   24.5417  -26.5892 H   0  0  0  0  0  0  0  0  0  0  0  0
   -1.0669   22.1567  -25.7370 H   0  0  0  0  0  0  0  0  0  0  0  0
   -1.1213   20.8066  -26.9206 H   0  0  0  0  0  0  0  0  0  0  0  0
    0.2678   21.9455  -26.9206 H   0  0  0  0  0  0  0  0  0  0  0  0
   -2.0834   21.0989  -29.0520 H   0  0  0  0  0  0  0  0  0  0  0  0
   -5.5414   22.3997  -30.1195 H   0  0  0  0  0  0  0  0  0  0  0  0
   -7.5449   20.2185  -33.8741 H   0  0  0  0  0  0  0  0  0  0  0  0
   -6.7071   19.2233  -32.6334 H   0  0  0  0  0  0  0  0  0  0  0  0
   -9.2095   18.8435  -32.7382 H   0  0  0  0  0  0  0  0  0  0  0  0
   -8.6095   19.3935  -31.1252 H   0  0  0  0  0  0  0  0  0  0  0  0
   -9.8996   22.6394  -31.3610 H   0  0  0  0  0  0  0  0  0  0  0  0
   -8.9784   21.4281  -30.3877 H   0  0  0  0  0  0  0  0  0  0  0  0
   -8.0300   22.8784  -32.9115 H   0  0  0  0  0  0  0  0  0  0  0  0
   -7.4096   23.0851  -31.2371 H   0  0  0  0  0  0  0  0  0  0  0  0
   -5.0841   20.6716  -34.0680 H   0  0  0  0  0  0  0  0  0  0  0  0
   -2.6247   21.0838  -33.9243 H   0  0  0  0  0  0  0  0  0  0  0  0
  1  2  1  0
  2  3  1  0
  3  4  2  0
  4  5  1  0
  5  6  2  0
  6  7  1  0
  6  8  1  0
  8  9  2  0
  9 10  1  0
 10 11  2  0
 11 12  1  0
 12 13  1  0
 13 14  1  0
 14 15  1  0
 15 16  1  0
 16 17  1  0
 17 18  1  0
 12 19  2  0
 19 20  1  0
 20 21  2  0
  9  3  1  0
 21 10  1  0
 18 13  1  0
  1 22  1  0
  1 23  1  0
  1 24  1  0
  4 25  1  0
  5 26  1  0
  7 27  1  0
  7 28  1  0
  7 29  1  0
  8 30  1  0
 11 31  1  0
 14 32  1  0
 14 33  1  0
 15 34  1  0
 15 35  1  0
 17 36  1  0
 17 37  1  0
 18 38  1  0
 18 39  1  0
 19 40  1  0
 20 41  1  0
M  END
>  <UniqueID>  (22) 
21

>  <SMILES>  (22) 
COc1ccc(C)cc1-c1cc(N2CCOCC2)ccn1

>  <Energy>  (22) 
52.28012648228033

>  <Genealogy>  (22) 
COc1ccc(C)cc1-c1cc(N2CCOCC2)ccn1 (3D coordinates assigned)
COc1ccc(C)cc1-c1cc(N2CCOCC2)ccn1 (nonaromatic ring conformer: 52.28012648228033 kcal/mol)

>  <smiles>  (22) 
COc1ccc(C)cc1-c1cc(N2CCOCC2)ccn1

>  <score_type>  (22) 
oracle

>  <origin>  (22) 
adgpu

>  <m_score__min__energy>  (22) 
-7.9500000000000002

>  <m_primary>  (22) 
energy

$$$$
22:0
     RDKit          3D

 35 37  0  0  0  0  0  0  0  0999 V2000
   -2.6370   26.0260  -28.9650 H   0  0  0  0  0  0  0  0  0  0  0  0
   -1.6180   25.8020  -28.9720 N   0  0  0  0  0  0  0  0  0  0  0  0
   -1.1580   24.4760  -28.7210 C   0  0  0  0  0  0  0  0  0  0  0  0
    0.0810   24.2480  -28.6910 O   0  0  0  0  0  0  0  0  0  0  0  0
   -2.1210   23.3850  -28.4780 C   0  0  0  0  0  0  0  0  0  0  0  0
   -3.5210   23.4390  -28.5540 C   0  0  0  0  0  0  0  0  0  0  0  0
   -4.3030   24.5510  -29.0110 N   0  0  0  0  0  0  0  0  0  0  0  0
   -5.0840   24.5630  -30.0560 C   0  0  0  0  0  0  0  0  0  0  0  0
   -5.3300   23.3530  -30.8850 C   0  0  0  0  0  0  0  0  0  0  0  0
   -4.2790   22.7320  -31.5810 C   0  0  0  0  0  0  0  0  0  0  0  0
   -3.2602   23.1408  -31.5108 H   0  0  0  0  0  0  0  0  0  0  0  0
   -4.5200   21.5980  -32.3620 C   0  0  0  0  0  0  0  0  0  0  0  0
   -3.6935   21.1250  -32.9125 H   0  0  0  0  0  0  0  0  0  0  0  0
   -5.8110   21.0630  -32.4450 C   0  0  0  0  0  0  0  0  0  0  0  0
   -6.0650   19.9350  -33.2220 O   0  0  0  0  0  0  0  0  0  0  0  0
   -6.8290   19.9130  -33.8870 H   0  0  0  0  0  0  0  0  0  0  0  0
   -6.8580   21.6630  -31.7370 C   0  0  0  0  0  0  0  0  0  0  0  0
   -7.8722   21.2412  -31.7958 H   0  0  0  0  0  0  0  0  0  0  0  0
   -6.6190   22.7970  -30.9550 C   0  0  0  0  0  0  0  0  0  0  0  0
   -7.4443   23.2566  -30.3914 H   0  0  0  0  0  0  0  0  0  0  0  0
   -5.7160   25.8620  -30.4520 C   0  0  0  0  0  0  0  0  0  0  0  0
   -5.9907   26.4265  -29.5487 H   0  0  0  0  0  0  0  0  0  0  0  0
   -5.0031   26.4496  -31.0490 H   0  0  0  0  0  0  0  0  0  0  0  0
   -6.6184   25.6638  -31.0490 H   0  0  0  0  0  0  0  0  0  0  0  0
   -4.0810   22.2710  -28.1660 N   0  0  0  0  0  0  0  0  0  0  0  0
   -5.0980   22.0370  -28.1300 H   0  0  0  0  0  0  0  0  0  0  0  0
   -3.0490   21.4670  -27.8710 C   0  0  0  0  0  0  0  0  0  0  0  0
   -3.1410   20.1860  -27.4360 N   0  0  0  0  0  0  0  0  0  0  0  0
   -1.9950   19.4940  -27.1580 C   0  0  0  0  0  0  0  0  0  0  0  0
   -2.0574   18.4523  -26.8101 H   0  0  0  0  0  0  0  0  0  0  0  0
   -0.7320   20.1060  -27.3140 C   0  0  0  0  0  0  0  0  0  0  0  0
    0.1851   19.5435  -27.0847 H   0  0  0  0  0  0  0  0  0  0  0  0
   -0.6490   21.4360  -27.7630 C   0  0  0  0  0  0  0  0  0  0  0  0
    0.3227   21.9366  -27.8865 H   0  0  0  0  0  0  0  0  0  0  0  0
   -1.8440   22.0970  -28.0460 C   0  0  0  0  0  0  0  0  0  0  0  0
  1  2  1  0
  2  3  1  0
  3  4  2  0
  3  5  1  0
  5  6  2  0
  6  7  1  0
  7  8  2  0
  8  9  1  0
  9 10  2  0
 10 11  1  0
 10 12  1  0
 12 13  1  0
 12 14  2  0
 14 15  1  0
 15 16  1  0
 14 17  1  0
 17 18  1  0
 17 19  2  0
 19 20  1  0
  8 21  1  0
 21 22  1  0
 21 23  1  0
 21 24  1  0
  6 25  1  0
 25 26  1  0
 25 27  1  0
 27 28  2  0
 28 29  1  0
 29 30  1  0
 29 31  2  0
 31 32  1  0
 31 33  1  0
 33 34  1  0
 33 35  2  0
 35  5  1  0
 19  9  1  0
 35 27  1  0
M  CHG  1   2  -1
M  END
>  <UniqueID>  (23) 
22

>  <SMILES>  (23) 
C/C(=N/c1[nH]c2ncccc2c1C([NH-])=O)c1ccc(O)cc1

>  <Energy>  (23) 
84.29915640069935

>  <Genealogy>  (23) 
CC(=Nc1[nH]c2ncccc2c1C([NH-])=O)c1ccc(O)cc1 (protonated)
C/C(=N/c1[nH]c2ncccc2c1C([NH-])=O)c1ccc(O)cc1 (cis-trans isomerization)
C/C(=N/c1[nH]c2ncccc2c1C([NH-])=O)c1ccc(O)cc1 (3D coordinates assigned)
C/C(=N/c1[nH]c2ncccc2c1C([NH-])=O)c1ccc(O)cc1 (optimized conformer: 84.29915640069935 kcal/mol)

>  <smiles>  (23) 
CC(=Nc1[nH]c2ncccc2c1C(N)=O)c1ccc(O)cc1

>  <score_type>  (23) 
oracle

>  <origin>  (23) 
adgpu

>  <m_score__min__energy>  (23) 
-9.1699999999999999

>  <m_primary>  (23) 
energy

$$$$
23:0
     RDKit          3D

 57 61  0  0  0  0  0  0  0  0999 V2000
   -2.8470   23.7910  -28.5270 O   0  0  0  0  0  0  0  0  0  0  0  0
   -2.6550   24.7610  -29.3060 C   0  0  0  0  0  0  0  0  0  0  0  0
   -1.5860   25.6830  -29.0600 N   0  0  0  0  0  0  0  0  0  0  0  0
   -0.7760   25.6900  -27.8460 C   0  0  0  0  0  0  0  0  0  0  0  0
    0.1940   24.5100  -27.8310 C   0  0  0  0  0  0  0  0  0  0  0  0
    1.4880   24.9640  -27.6550 F   0  0  0  0  0  0  0  0  0  0  0  0
   -0.1310   23.6610  -26.7890 F   0  0  0  0  0  0  0  0  0  0  0  0
    0.1160   23.8070  -29.0200 F   0  0  0  0  0  0  0  0  0  0  0  0
   -3.4870   24.9000  -30.4630 N   0  0  0  0  0  0  0  0  0  0  0  0
   -4.8580   24.4890  -30.5720 C   0  0  0  0  0  0  0  0  0  0  0  0
   -5.8530   25.3190  -30.0440 C   0  0  0  0  0  0  0  0  0  0  0  0
   -7.1990   24.9560  -30.1370 C   0  0  0  0  0  0  0  0  0  0  0  0
   -7.5630   23.7700  -30.7790 C   0  0  0  0  0  0  0  0  0  0  0  0
   -6.5810   22.9490  -31.3570 C   0  0  0  0  0  0  0  0  0  0  0  0
   -6.9540   21.6900  -32.0380 C   0  0  0  0  0  0  0  0  0  0  0  0
   -8.2460   21.2670  -32.3120 C   0  0  0  0  0  0  0  0  0  0  0  0
   -8.2140   20.0770  -32.9560 N   0  0  0  0  0  0  0  0  0  0  0  0
   -6.8960   19.8020  -33.0510 C   0  0  0  0  0  0  0  0  0  0  0  0
   -6.3500   18.6530  -33.6160 C   0  0  0  0  0  0  0  0  0  0  0  0
   -4.9450   18.4980  -33.5950 C   0  0  0  0  0  0  0  0  0  0  0  0
   -4.2910   17.2940  -34.1700 C   0  0  0  0  0  0  0  0  0  0  0  0
   -4.9220   16.0400  -34.1790 C   0  0  0  0  0  0  0  0  0  0  0  0
   -4.2490   14.9560  -34.7390 C   0  0  0  0  0  0  0  0  0  0  0  0
   -3.0110   15.1250  -35.2700 N   0  0  0  0  0  0  0  0  0  0  0  0
   -2.4040   16.3420  -35.2670 C   0  0  0  0  0  0  0  0  0  0  0  0
   -1.0910   16.5110  -35.8420 N   0  0  0  0  0  0  0  0  0  0  0  0
   -0.5930   15.5100  -36.7930 C   0  0  0  0  0  0  0  0  0  0  0  0
    0.8160   15.8610  -37.2770 C   0  0  0  0  0  0  0  0  0  0  0  0
    0.8870   17.2810  -37.6360 N   0  0  0  0  0  0  0  0  0  0  0  0
    0.6570   18.1740  -36.4820 C   0  0  0  0  0  0  0  0  0  0  0  0
   -0.1750   17.5490  -35.3410 C   0  0  0  0  0  0  0  0  0  0  0  0
   -3.0520   17.4080  -34.7220 N   0  0  0  0  0  0  0  0  0  0  0  0
   -4.1540   19.4970  -32.9770 C   0  0  0  0  0  0  0  0  0  0  0  0
   -4.7610   20.6320  -32.4220 C   0  0  0  0  0  0  0  0  0  0  0  0
   -6.1120   20.7480  -32.5040 N   0  0  0  0  0  0  0  0  0  0  0  0
   -5.2290   23.3100  -31.2450 C   0  0  0  0  0  0  0  0  0  0  0  0
   -0.2029   26.6279  -27.8008 H   0  0  0  0  0  0  0  0  0  0  0  0
   -1.4449   25.6061  -26.9768 H   0  0  0  0  0  0  0  0  0  0  0  0
   -5.5739   26.2628  -29.5528 H   0  0  0  0  0  0  0  0  0  0  0  0
   -7.9738   25.6056  -29.7037 H   0  0  0  0  0  0  0  0  0  0  0  0
   -8.6222   23.4781  -30.8320 H   0  0  0  0  0  0  0  0  0  0  0  0
   -9.1607   21.8168  -32.0456 H   0  0  0  0  0  0  0  0  0  0  0  0
   -6.9954   17.8851  -34.0674 H   0  0  0  0  0  0  0  0  0  0  0  0
   -5.9282   15.9156  -33.7523 H   0  0  0  0  0  0  0  0  0  0  0  0
   -4.7211   13.9626  -34.7509 H   0  0  0  0  0  0  0  0  0  0  0  0
   -0.5687   14.5271  -36.2998 H   0  0  0  0  0  0  0  0  0  0  0  0
   -1.2659   15.4902  -37.6630 H   0  0  0  0  0  0  0  0  0  0  0  0
    1.5388   15.6521  -36.4745 H   0  0  0  0  0  0  0  0  0  0  0  0
    1.0538   15.2537  -38.1628 H   0  0  0  0  0  0  0  0  0  0  0  0
    0.1610   17.4750  -38.3660 H   0  0  0  0  0  0  0  0  0  0  0  0
    1.6358   18.4652  -36.0731 H   0  0  0  0  0  0  0  0  0  0  0  0
    0.0757   19.0281  -36.8598 H   0  0  0  0  0  0  0  0  0  0  0  0
    0.5087   17.0974  -34.6071 H   0  0  0  0  0  0  0  0  0  0  0  0
   -0.7777   18.3452  -34.8796 H   0  0  0  0  0  0  0  0  0  0  0  0
   -3.0609   19.3820  -32.9324 H   0  0  0  0  0  0  0  0  0  0  0  0
   -4.1577   21.4103  -31.9317 H   0  0  0  0  0  0  0  0  0  0  0  0
   -4.4538   22.6665  -31.6866 H   0  0  0  0  0  0  0  0  0  0  0  0
  1  2  2  0
  2  3  1  0
  3  4  1  0
  4  5  1  0
  5  6  1  0
  5  7  1  0
  5  8  1  0
  2  9  1  0
  9 10  1  0
 10 11  2  0
 11 12  1  0
 12 13  2  0
 13 14  1  0
 14 15  1  0
 15 16  2  0
 16 17  1  0
 17 18  2  0
 18 19  1  0
 19 20  2  0
 20 21  1  0
 21 22  2  0
 22 23  1  0
 23 24  2  0
 24 25  1  0
 25 26  1  0
 26 27  1  0
 27 28  1  0
 28 29  1  0
 29 30  1  0
 30 31  1  0
 25 32  2  0
 20 33  1  0
 33 34  2  0
 34 35  1  0
 14 36  2  0
 36 10  1  0
 35 15  1  0
 35 18  1  0
 32 21  1  0
 31 26  1  0
  4 37  1  0
  4 38  1  0
 11 39  1  0
 12 40  1  0
 13 41  1  0
 16 42  1  0
 19 43  1  0
 22 44  1  0
 23 45  1  0
 27 46  1  0
 27 47  1  0
 28 48  1  0
 28 49  1  0
 29 50  1  0
 30 51  1  0
 30 52  1  0
 31 53  1  0
 31 54  1  0
 33 55  1  0
 34 56  1  0
 36 57  1  0
M  CHG  2   3  -1   9  -1
M  END
>  <UniqueID>  (24) 
23

>  <SMILES>  (24) 
O=C([N-]CC(F)(F)F)[N-]c1cccc(-c2cnc3cc(-c4ccnc(N5CCNCC5)n4)ccn23)c1

>  <Energy>  (24) 
110.86445262455523

>  <Genealogy>  (24) 
O=C([N-]CC(F)(F)F)[N-]c1cccc(-c2cnc3cc(-c4ccnc(N5CCNCC5)n4)ccn23)c1 (protonated)
O=C([N-]CC(F)(F)F)[N-]c1cccc(-c2cnc3cc(-c4ccnc(N5CCNCC5)n4)ccn23)c1 (3D coordinates assigned)
O=C([N-]CC(F)(F)F)[N-]c1cccc(-c2cnc3cc(-c4ccnc(N5CCNCC5)n4)ccn23)c1 (nonaromatic ring conformer: 110.86445262455523 kcal/mol)

>  <smiles>  (24) 
O=C(NCC(F)(F)F)Nc1cccc(-c2cnc3cc(-c4ccnc(N5CCNCC5)n4)ccn23)c1

>  <score_type>  (24) 
oracle

>  <origin>  (24) 
adgpu

>  <m_score__min__energy>  (24) 
-11.619999999999999

>  <m_primary>  (24) 
energy

$$$$
24:0
     RDKit          3D

 32 33  0  0  0  0  0  0  0  0999 V2000
   -9.0390   19.6200  -31.9060 C   0  0  0  0  0  0  0  0  0  0  0  0
   -7.6020   19.6870  -33.0190 S   0  0  0  0  0  0  0  0  0  0  0  0
   -6.9270   21.1610  -32.2530 C   0  0  0  0  0  0  0  0  0  0  0  0
   -7.7570   22.0100  -31.5120 C   0  0  0  0  0  0  0  0  0  0  0  0
   -7.2300   23.1570  -30.9100 C   0  0  0  0  0  0  0  0  0  0  0  0
   -5.8700   23.4630  -31.0480 C   0  0  0  0  0  0  0  0  0  0  0  0
   -5.2120   24.8990  -30.2670 S   0  0  0  0  0  0  0  0  0  0  0  0
   -5.5440   24.8550  -28.8030 O   0  0  0  0  0  0  0  0  0  0  0  0
   -5.8260   26.1390  -30.8570 O   0  0  0  0  0  0  0  0  0  0  0  0
   -3.4860   24.9500  -30.4590 N   0  0  0  0  0  0  0  0  0  0  0  0
   -2.8540   24.0530  -29.4950 C   0  0  0  0  0  0  0  0  0  0  0  0
   -2.3220   24.8580  -28.3520 C   0  0  0  0  0  0  0  0  0  0  0  0
   -2.7860   24.6420  -27.0470 C   0  0  0  0  0  0  0  0  0  0  0  0
   -2.2470   25.3880  -25.9960 C   0  0  0  0  0  0  0  0  0  0  0  0
   -1.2490   26.3290  -26.2530 C   0  0  0  0  0  0  0  0  0  0  0  0
   -0.8010   26.5100  -27.5630 C   0  0  0  0  0  0  0  0  0  0  0  0
   -1.3380   25.7750  -28.5740 N   0  0  0  0  0  0  0  0  0  0  0  0
   -5.0370   22.6060  -31.7840 C   0  0  0  0  0  0  0  0  0  0  0  0
   -5.5660   21.4590  -32.3840 C   0  0  0  0  0  0  0  0  0  0  0  0
   -8.6948   19.6361  -30.8614 H   0  0  0  0  0  0  0  0  0  0  0  0
   -9.6875   20.4889  -32.0918 H   0  0  0  0  0  0  0  0  0  0  0  0
   -9.6038   18.6945  -32.0918 H   0  0  0  0  0  0  0  0  0  0  0  0
   -8.8260   21.7746  -31.4029 H   0  0  0  0  0  0  0  0  0  0  0  0
   -7.8851   23.8206  -30.3266 H   0  0  0  0  0  0  0  0  0  0  0  0
   -3.5956   23.3307  -29.1230 H   0  0  0  0  0  0  0  0  0  0  0  0
   -2.0300   23.5093  -29.9802 H   0  0  0  0  0  0  0  0  0  0  0  0
   -3.5670   23.8923  -26.8524 H   0  0  0  0  0  0  0  0  0  0  0  0
   -2.6083   25.2341  -24.9685 H   0  0  0  0  0  0  0  0  0  0  0  0
   -0.8197   26.9220  -25.4320 H   0  0  0  0  0  0  0  0  0  0  0  0
   -0.0134   27.2473  -27.7777 H   0  0  0  0  0  0  0  0  0  0  0  0
   -3.9666   22.8369  -31.8890 H   0  0  0  0  0  0  0  0  0  0  0  0
   -4.9107   20.7894  -32.9603 H   0  0  0  0  0  0  0  0  0  0  0  0
  1  2  1  0
  2  3  1  0
  3  4  2  0
  4  5  1  0
  5  6  2  0
  6  7  1  0
  7  8  2  0
  7  9  2  0
  7 10  1  0
 10 11  1  0
 11 12  1  0
 12 13  2  0
 13 14  1  0
 14 15  2  0
 15 16  1  0
 16 17  2  0
  6 18  1  0
 18 19  2  0
 19  3  1  0
 17 12  1  0
  1 20  1  0
  1 21  1  0
  1 22  1  0
  4 23  1  0
  5 24  1  0
 11 25  1  0
 11 26  1  0
 13 27  1  0
 14 28  1  0
 15 29  1  0
 16 30  1  0
 18 31  1  0
 19 32  1  0
M  CHG  1  10  -1
M  END
>  <UniqueID>  (25) 
24

>  <SMILES>  (25) 
CSc1ccc(S(=O)(=O)[N-]Cc2ccccn2)cc1

>  <Energy>  (25) 
26.207870236111603

>  <Genealogy>  (25) 
CSc1ccc(S(=O)(=O)[N-]Cc2ccccn2)cc1 (protonated)
CSc1ccc(S(=O)(=O)[N-]Cc2ccccn2)cc1 (3D coordinates assigned)
CSc1ccc(S(=O)(=O)[N-]Cc2ccccn2)cc1 (optimized conformer: 26.207870236111603 kcal/mol)

>  <smiles>  (25) 
CSc1ccc(S(=O)(=O)NCc2ccccn2)cc1

>  <score_type>  (25) 
oracle

>  <origin>  (25) 
adgpu

>  <m_score__min__energy>  (25) 
-9.3000000000000007

>  <m_primary>  (25) 
energy

$$$$
25:0
     RDKit          3D

 50 53  0  0  0  0  0  0  0  0999 V2000
   -5.4230   18.4380  -33.9040 C   0  0  0  0  0  0  0  0  0  0  0  0
   -6.7790   17.7680  -32.9660 S   0  0  0  0  0  0  0  0  0  0  0  0
   -7.2030   16.4730  -33.5980 O   0  0  0  0  0  0  0  0  0  0  0  0
   -6.3540   17.4980  -31.5510 O   0  0  0  0  0  0  0  0  0  0  0  0
   -8.1210   18.8680  -32.9880 N   0  0  0  0  0  0  0  0  0  0  0  0
   -8.1220   20.1730  -32.3810 C   0  0  0  0  0  0  0  0  0  0  0  0
   -9.2700   20.9870  -32.3590 C   0  0  0  0  0  0  0  0  0  0  0  0
   -9.2300   22.2460  -31.7570 C   0  0  0  0  0  0  0  0  0  0  0  0
   -8.0510   22.7120  -31.1750 C   0  0  0  0  0  0  0  0  0  0  0  0
   -6.8890   21.9210  -31.1900 C   0  0  0  0  0  0  0  0  0  0  0  0
   -5.6300   22.4180  -30.5780 C   0  0  0  0  0  0  0  0  0  0  0  0
   -4.4100   21.7590  -30.8040 C   0  0  0  0  0  0  0  0  0  0  0  0
   -3.2330   22.2380  -30.2280 C   0  0  0  0  0  0  0  0  0  0  0  0
   -3.2730   23.3820  -29.4120 C   0  0  0  0  0  0  0  0  0  0  0  0
   -2.0480   23.9330  -28.7810 C   0  0  0  0  0  0  0  0  0  0  0  0
   -0.9360   23.1170  -28.4970 C   0  0  0  0  0  0  0  0  0  0  0  0
    0.2030   23.6540  -27.8930 C   0  0  0  0  0  0  0  0  0  0  0  0
    0.2480   25.0150  -27.5440 C   0  0  0  0  0  0  0  0  0  0  0  0
    1.3800   25.5910  -26.9490 O   0  0  0  0  0  0  0  0  0  0  0  0
    1.3880   26.3100  -25.7460 C   0  0  0  0  0  0  0  0  0  0  0  0
    2.4750   27.1500  -25.4690 C   0  0  0  0  0  0  0  0  0  0  0  0
    2.5080   27.8970  -24.2870 C   0  0  0  0  0  0  0  0  0  0  0  0
    1.4490   27.8190  -23.3780 C   0  0  0  0  0  0  0  0  0  0  0  0
    1.4800   28.5480  -22.2350 F   0  0  0  0  0  0  0  0  0  0  0  0
    0.3510   26.9980  -23.6540 C   0  0  0  0  0  0  0  0  0  0  0  0
    0.3150   26.2510  -24.8360 C   0  0  0  0  0  0  0  0  0  0  0  0
   -0.8470   25.8310  -27.8370 C   0  0  0  0  0  0  0  0  0  0  0  0
   -1.9910   25.2970  -28.4380 C   0  0  0  0  0  0  0  0  0  0  0  0
   -4.4660   24.0080  -29.2130 N   0  0  0  0  0  0  0  0  0  0  0  0
   -5.6250   23.5620  -29.7650 C   0  0  0  0  0  0  0  0  0  0  0  0
   -6.9370   20.6530  -31.7980 C   0  0  0  0  0  0  0  0  0  0  0  0
   -4.6536   18.8182  -33.2159 H   0  0  0  0  0  0  0  0  0  0  0  0
   -4.9908   17.6498  -34.5379 H   0  0  0  0  0  0  0  0  0  0  0  0
   -5.7865   19.2602  -34.5379 H   0  0  0  0  0  0  0  0  0  0  0  0
   -8.9590   18.5690  -33.5380 H   0  0  0  0  0  0  0  0  0  0  0  0
  -10.2033   20.6294  -32.8184 H   0  0  0  0  0  0  0  0  0  0  0  0
  -10.1331   22.8739  -31.7415 H   0  0  0  0  0  0  0  0  0  0  0  0
   -8.0304   23.7046  -30.7014 H   0  0  0  0  0  0  0  0  0  0  0  0
   -4.3826   20.8608  -31.4383 H   0  0  0  0  0  0  0  0  0  0  0  0
   -2.2785   21.7230  -30.4115 H   0  0  0  0  0  0  0  0  0  0  0  0
   -0.9647   22.0476  -28.7530 H   0  0  0  0  0  0  0  0  0  0  0  0
    1.0699   23.0083  -27.6892 H   0  0  0  0  0  0  0  0  0  0  0  0
    3.3068   27.2222  -26.1851 H   0  0  0  0  0  0  0  0  0  0  0  0
    3.3690   28.5471  -24.0723 H   0  0  0  0  0  0  0  0  0  0  0  0
   -0.4847   26.9397  -22.9412 H   0  0  0  0  0  0  0  0  0  0  0  0
   -0.5551   25.6148  -25.0556 H   0  0  0  0  0  0  0  0  0  0  0  0
   -0.8091   26.9029  -27.5929 H   0  0  0  0  0  0  0  0  0  0  0  0
   -2.8533   25.9480  -28.6444 H   0  0  0  0  0  0  0  0  0  0  0  0
   -6.5647   24.1008  -29.5735 H   0  0  0  0  0  0  0  0  0  0  0  0
   -6.0324   20.0274  -31.8172 H   0  0  0  0  0  0  0  0  0  0  0  0
  1  2  1  0
  2  3  2  0
  2  4  2  0
  2  5  1  0
  5  6  1  0
  6  7  2  0
  7  8  1  0
  8  9  2  0
  9 10  1  0
 10 11  1  0
 11 12  2  0
 12 13  1  0
 13 14  2  0
 14 15  1  0
 15 16  2  0
 16 17  1  0
 17 18  2  0
 18 19  1  0
 19 20  1  0
 20 21  2  0
 21 22  1  0
 22 23  2  0
 23 24  1  0
 23 25  1  0
 25 26  2  0
 18 27  1  0
 27 28  2  0
 14 29  1  0
 29 30  2  0
 10 31  2  0
 31  6  1  0
 30 11  1  0
 28 15  1  0
 26 20  1  0
  1 32  1  0
  1 33  1  0
  1 34  1  0
  5 35  1  0
  7 36  1  0
  8 37  1  0
  9 38  1  0
 12 39  1  0
 13 40  1  0
 16 41  1  0
 17 42  1  0
 21 43  1  0
 22 44  1  0
 25 45  1  0
 26 46  1  0
 27 47  1  0
 28 48  1  0
 30 49  1  0
 31 50  1  0
M  END
>  <UniqueID>  (26) 
25

>  <SMILES>  (26) 
CS(=O)(=O)Nc1cccc(-c2ccc(-c3ccc(Oc4ccc(F)cc4)cc3)nc2)c1

>  <Energy>  (26) 
70.22536334132596

>  <Genealogy>  (26) 
CS(=O)(=O)Nc1cccc(-c2ccc(-c3ccc(Oc4ccc(F)cc4)cc3)nc2)c1 (3D coordinates assigned)
CS(=O)(=O)Nc1cccc(-c2ccc(-c3ccc(Oc4ccc(F)cc4)cc3)nc2)c1 (optimized conformer: 70.22536334132596 kcal/mol)

>  <smiles>  (26) 
CS(=O)(=O)Nc1cccc(-c2ccc(-c3ccc(Oc4ccc(F)cc4)cc3)nc2)c1

>  <score_type>  (26) 
oracle

>  <origin>  (26) 
adgpu

>  <m_score__min__energy>  (26) 
-9.3499999999999996

>  <m_primary>  (26) 
energy

$$$$
26:0
     RDKit          3D

 40 43  0  0  0  0  0  0  0  0999 V2000
   -3.2550   24.6760  -26.8850 C   0  0  0  0  0  0  0  0  0  0  0  0
   -2.8130   24.6120  -28.2380 O   0  0  0  0  0  0  0  0  0  0  0  0
   -3.1880   23.6120  -29.1480 C   0  0  0  0  0  0  0  0  0  0  0  0
   -3.0430   22.2410  -28.8600 C   0  0  0  0  0  0  0  0  0  0  0  0
   -3.4330   21.2770  -29.7940 C   0  0  0  0  0  0  0  0  0  0  0  0
   -3.9850   21.6620  -31.0240 C   0  0  0  0  0  0  0  0  0  0  0  0
   -4.3780   20.6290  -32.0050 C   0  0  0  0  0  0  0  0  0  0  0  0
   -3.5040   19.7470  -32.5210 N   0  0  0  0  0  0  0  0  0  0  0  0
   -4.2280   19.0560  -33.4260 C   0  0  0  0  0  0  0  0  0  0  0  0
   -3.6620   17.9770  -34.2420 C   0  0  0  0  0  0  0  0  0  0  0  0
   -4.3790   17.0330  -34.9490 C   0  0  0  0  0  0  0  0  0  0  0  0
   -3.4360   16.2330  -35.5570 C   0  0  0  0  0  0  0  0  0  0  0  0
   -2.2060   16.7370  -35.1840 C   0  0  0  0  0  0  0  0  0  0  0  0
   -2.3740   17.7770  -34.4000 O   0  0  0  0  0  0  0  0  0  0  0  0
   -5.5170   19.4490  -33.5090 N   0  0  0  0  0  0  0  0  0  0  0  0
   -5.6170   20.4390  -32.6050 C   0  0  0  0  0  0  0  0  0  0  0  0
   -6.8960   21.1110  -32.2950 C   0  0  0  0  0  0  0  0  0  0  0  0
   -8.0280   20.3410  -31.9790 C   0  0  0  0  0  0  0  0  0  0  0  0
   -9.2420   20.9630  -31.6680 C   0  0  0  0  0  0  0  0  0  0  0  0
   -9.3320   22.3560  -31.6580 C   0  0  0  0  0  0  0  0  0  0  0  0
   -8.2060   23.1310  -31.9500 C   0  0  0  0  0  0  0  0  0  0  0  0
   -6.9900   22.5140  -32.2600 C   0  0  0  0  0  0  0  0  0  0  0  0
   -4.1070   23.0290  -31.3210 C   0  0  0  0  0  0  0  0  0  0  0  0
   -3.7190   23.9990  -30.3870 C   0  0  0  0  0  0  0  0  0  0  0  0
   -3.8550   25.3540  -30.6840 O   0  0  0  0  0  0  0  0  0  0  0  0
   -2.3941   24.5513  -26.2117 H   0  0  0  0  0  0  0  0  0  0  0  0
   -3.7274   25.6519  -26.6994 H   0  0  0  0  0  0  0  0  0  0  0  0
   -3.9848   23.8742  -26.6994 H   0  0  0  0  0  0  0  0  0  0  0  0
   -2.6203   21.9270  -27.8942 H   0  0  0  0  0  0  0  0  0  0  0  0
   -3.3060   20.2092  -29.5625 H   0  0  0  0  0  0  0  0  0  0  0  0
   -5.4731   16.9390  -35.0135 H   0  0  0  0  0  0  0  0  0  0  0  0
   -3.6252   15.3671  -36.2084 H   0  0  0  0  0  0  0  0  0  0  0  0
   -1.2331   16.3294  -35.4961 H   0  0  0  0  0  0  0  0  0  0  0  0
   -7.9594   19.2431  -31.9761 H   0  0  0  0  0  0  0  0  0  0  0  0
  -10.1266   20.3536  -31.4311 H   0  0  0  0  0  0  0  0  0  0  0  0
  -10.2889   22.8437  -31.4204 H   0  0  0  0  0  0  0  0  0  0  0  0
   -8.2766   24.2286  -31.9359 H   0  0  0  0  0  0  0  0  0  0  0  0
   -6.1037   23.1281  -32.4773 H   0  0  0  0  0  0  0  0  0  0  0  0
   -4.5107   23.3412  -32.2954 H   0  0  0  0  0  0  0  0  0  0  0  0
   -4.1720   25.6680  -31.5930 H   0  0  0  0  0  0  0  0  0  0  0  0
  1  2  1  0
  2  3  1  0
  3  4  2  0
  4  5  1  0
  5  6  2  0
  6  7  1  0
  7  8  1  0
  8  9  1  0
  9 10  1  0
 10 11  2  0
 11 12  1  0
 12 13  2  0
 13 14  1  0
  9 15  2  0
 15 16  1  0
 16 17  1  0
 17 18  2  0
 18 19  1  0
 19 20  2  0
 20 21  1  0
 21 22  2  0
  6 23  1  0
 23 24  2  0
 24 25  1  0
 24  3  1  0
 16  7  2  0
 22 17  1  0
 14 10  1  0
  1 26  1  0
  1 27  1  0
  1 28  1  0
  4 29  1  0
  5 30  1  0
 11 31  1  0
 12 32  1  0
 13 33  1  0
 18 34  1  0
 19 35  1  0
 20 36  1  0
 21 37  1  0
 22 38  1  0
 23 39  1  0
 25 40  1  0
M  CHG  1   8  -1
M  END
>  <UniqueID>  (27) 
26

>  <SMILES>  (27) 
COc1ccc(-c2[n-]c(-c3ccco3)nc2-c2ccccc2)cc1O

>  <Energy>  (27) 
104.17259634814394

>  <Genealogy>  (27) 
COc1ccc(-c2[n-]c(-c3ccco3)nc2-c2ccccc2)cc1O (protonated)
COc1ccc(-c2[n-]c(-c3ccco3)nc2-c2ccccc2)cc1O (3D coordinates assigned)
COc1ccc(-c2[n-]c(-c3ccco3)nc2-c2ccccc2)cc1O (optimized conformer: 104.17259634814394 kcal/mol)

>  <smiles>  (27) 
COc1ccc(-c2[nH]c(-c3ccco3)nc2-c2ccccc2)cc1O

>  <score_type>  (27) 
oracle

>  <origin>  (27) 
adgpu

>  <m_score__min__energy>  (27) 
-8.7899999999999991

>  <m_primary>  (27) 
energy

$$$$
27:0
     RDKit          3D

 52 55  0  0  0  0  0  0  0  0999 V2000
   -4.2320   24.9190  -26.4000 C   0  0  0  0  0  0  0  0  0  0  0  0
   -2.8620   25.2960  -26.5000 O   0  0  0  0  0  0  0  0  0  0  0  0
   -1.8660   24.5260  -27.1230 C   0  0  0  0  0  0  0  0  0  0  0  0
   -0.9440   23.7660  -26.3750 C   0  0  0  0  0  0  0  0  0  0  0  0
    0.0770   23.0610  -27.0160 C   0  0  0  0  0  0  0  0  0  0  0  0
    0.1980   23.1120  -28.4050 C   0  0  0  0  0  0  0  0  0  0  0  0
   -0.7130   23.8560  -29.1580 C   0  0  0  0  0  0  0  0  0  0  0  0
   -1.7630   24.5390  -28.5320 C   0  0  0  0  0  0  0  0  0  0  0  0
   -2.6670   25.2950  -29.3490 N   0  0  0  0  0  0  0  0  0  0  0  0
   -3.9120   24.8150  -29.8640 C   0  0  0  0  0  0  0  0  0  0  0  0
   -4.9670   24.9220  -29.1830 O   0  0  0  0  0  0  0  0  0  0  0  0
   -3.9420   24.2270  -31.1670 N   0  0  0  0  0  0  0  0  0  0  0  0
   -4.9080   23.2800  -31.6460 C   0  0  0  0  0  0  0  0  0  0  0  0
   -6.2380   23.6580  -31.9040 C   0  0  0  0  0  0  0  0  0  0  0  0
   -7.1700   22.7080  -32.3320 C   0  0  0  0  0  0  0  0  0  0  0  0
   -6.7880   21.3740  -32.4940 C   0  0  0  0  0  0  0  0  0  0  0  0
   -5.4730   20.9870  -32.2260 C   0  0  0  0  0  0  0  0  0  0  0  0
   -4.5290   21.9330  -31.8030 C   0  0  0  0  0  0  0  0  0  0  0  0
   -3.1750   21.5210  -31.5460 N   0  0  0  0  0  0  0  0  0  0  0  0
   -2.3450   21.2090  -32.7160 C   0  0  0  0  0  0  0  0  0  0  0  0
   -0.8740   21.0920  -32.3360 C   0  0  0  0  0  0  0  0  0  0  0  0
   -0.7030   20.0720  -31.2130 C   0  0  0  0  0  0  0  0  0  0  0  0
   -1.5470   20.4320  -30.0070 C   0  0  0  0  0  0  0  0  0  0  0  0
   -2.7480   21.1600  -30.2050 C   0  0  0  0  0  0  0  0  0  0  0  0
   -3.5060   21.5520  -29.0860 C   0  0  0  0  0  0  0  0  0  0  0  0
   -3.1170   21.1880  -27.8020 C   0  0  0  0  0  0  0  0  0  0  0  0
   -1.9780   20.4150  -27.6050 C   0  0  0  0  0  0  0  0  0  0  0  0
   -1.1890   20.0030  -28.6950 C   0  0  0  0  0  0  0  0  0  0  0  0
    0.0470   19.1580  -28.4360 C   0  0  0  0  0  0  0  0  0  0  0  0
    1.1870   19.9380  -28.5120 F   0  0  0  0  0  0  0  0  0  0  0  0
   -0.0390   18.5890  -27.1780 F   0  0  0  0  0  0  0  0  0  0  0  0
    0.1730   18.1400  -29.3660 F   0  0  0  0  0  0  0  0  0  0  0  0
   -4.5145   24.8413  -25.3397 H   0  0  0  0  0  0  0  0  0  0  0  0
   -4.8580   25.6783  -26.8915 H   0  0  0  0  0  0  0  0  0  0  0  0
   -4.3815   23.9463  -26.8915 H   0  0  0  0  0  0  0  0  0  0  0  0
   -1.0293   23.7280  -25.2790 H   0  0  0  0  0  0  0  0  0  0  0  0
    0.7872   22.4644  -26.4246 H   0  0  0  0  0  0  0  0  0  0  0  0
    1.0107   22.5664  -28.9069 H   0  0  0  0  0  0  0  0  0  0  0  0
   -0.6049   23.9059  -30.2515 H   0  0  0  0  0  0  0  0  0  0  0  0
   -6.5460   24.7053  -31.7685 H   0  0  0  0  0  0  0  0  0  0  0  0
   -8.2063   23.0115  -32.5417 H   0  0  0  0  0  0  0  0  0  0  0  0
   -7.5227   20.6286  -32.8325 H   0  0  0  0  0  0  0  0  0  0  0  0
   -5.1767   19.9347  -32.3475 H   0  0  0  0  0  0  0  0  0  0  0  0
   -2.6802   20.2550  -33.1490 H   0  0  0  0  0  0  0  0  0  0  0  0
   -2.4514   22.0259  -33.4449 H   0  0  0  0  0  0  0  0  0  0  0  0
   -0.2960   20.7674  -33.2138 H   0  0  0  0  0  0  0  0  0  0  0  0
   -0.5116   22.0718  -31.9914 H   0  0  0  0  0  0  0  0  0  0  0  0
   -1.0075   19.0808  -31.5801 H   0  0  0  0  0  0  0  0  0  0  0  0
    0.3537   20.0669  -30.9074 H   0  0  0  0  0  0  0  0  0  0  0  0
   -4.4162   22.1530  -29.2289 H   0  0  0  0  0  0  0  0  0  0  0  0
   -3.7136   21.5133  -26.9369 H   0  0  0  0  0  0  0  0  0  0  0  0
   -1.6902   20.1220  -26.5846 H   0  0  0  0  0  0  0  0  0  0  0  0
  1  2  1  0
  2  3  1  0
  3  4  2  0
  4  5  1  0
  5  6  2  0
  6  7  1  0
  7  8  2  0
  8  9  1  0
  9 10  1  0
 10 11  2  0
 10 12  1  0
 12 13  1  0
 13 14  2  0
 14 15  1  0
 15 16  2  0
 16 17  1  0
 17 18  2  0
 18 19  1  0
 19 20  1  0
 20 21  1  0
 21 22  1  0
 22 23  1  0
 23 24  2  0
 24 25  1  0
 25 26  2  0
 26 27  1  0
 27 28  2  0
 28 29  1  0
 29 30  1  0
 29 31  1  0
 29 32  1  0
  8  3  1  0
 18 13  1  0
 24 19  1  0
 28 23  1  0
  1 33  1  0
  1 34  1  0
  1 35  1  0
  4 36  1  0
  5 37  1  0
  6 38  1  0
  7 39  1  0
 14 40  1  0
 15 41  1  0
 16 42  1  0
 17 43  1  0
 20 44  1  0
 20 45  1  0
 21 46  1  0
 21 47  1  0
 22 48  1  0
 22 49  1  0
 25 50  1  0
 26 51  1  0
 27 52  1  0
M  CHG  2   9  -1  12  -1
M  END
>  <UniqueID>  (28) 
27

>  <SMILES>  (28) 
COc1ccccc1[N-]C(=O)[N-]c1ccccc1N1CCCc2c1cccc2C(F)(F)F

>  <Energy>  (28) 
74.03250409880046

>  <Genealogy>  (28) 
COc1ccccc1[N-]C(=O)[N-]c1ccccc1N1CCCc2c1cccc2C(F)(F)F (protonated)
COc1ccccc1[N-]C(=O)[N-]c1ccccc1N1CCCc2c1cccc2C(F)(F)F (3D coordinates assigned)
COc1ccccc1[N-]C(=O)[N-]c1ccccc1N1CCCc2c1cccc2C(F)(F)F (nonaromatic ring conformer: 74.03250409880046 kcal/mol)

>  <smiles>  (28) 
COc1ccccc1NC(=O)Nc1ccccc1N1CCCc2c1cccc2C(F)(F)F

>  <score_type>  (28) 
oracle

>  <origin>  (28) 
adgpu

>  <m_score__min__energy>  (28) 
-12.119999999999999

>  <m_primary>  (28) 
energy

$$$$
28:0
     RDKit          3D

 38 39  0  0  0  0  0  0  0  0999 V2000
   -9.5040   21.9020  -31.2280 C   0  0  0  0  0  0  0  0  0  0  0  0
   -8.7310   20.6820  -31.5220 N   0  0  0  0  0  0  0  0  0  0  0  0
   -9.4880   19.7260  -32.3460 C   0  0  0  0  0  0  0  0  0  0  0  0
   -7.3000   20.8330  -31.9210 C   0  0  2  0  0  0  0  0  0  0  0  0
   -6.9710   22.1770  -32.6200 C   0  0  0  0  0  0  0  0  0  0  0  0
   -5.5430   22.5140  -32.6030 N   0  0  0  0  0  0  0  0  0  0  0  0
   -4.8610   22.9850  -31.4250 C   0  0  0  0  0  0  0  0  0  0  0  0
   -3.5950   22.4940  -31.0520 C   0  0  0  0  0  0  0  0  0  0  0  0
   -2.9620   22.9750  -29.9020 C   0  0  0  0  0  0  0  0  0  0  0  0
   -3.5810   23.9500  -29.1140 C   0  0  0  0  0  0  0  0  0  0  0  0
   -2.7820   24.5520  -27.6720 Cl  0  0  0  0  0  0  0  0  0  0  0  0
   -4.8350   24.4450  -29.4770 C   0  0  0  0  0  0  0  0  0  0  0  0
   -5.4720   23.9660  -30.6260 C   0  0  0  0  0  0  0  0  0  0  0  0
   -6.6510   19.6340  -32.6230 C   0  0  0  0  0  0  0  0  0  0  0  0
   -6.2500   19.6490  -33.9750 C   0  0  0  0  0  0  0  0  0  0  0  0
   -5.6270   18.5360  -34.5480 C   0  0  0  0  0  0  0  0  0  0  0  0
   -5.3790   17.3970  -33.7820 C   0  0  0  0  0  0  0  0  0  0  0  0
   -5.7520   17.3700  -32.4380 C   0  0  0  0  0  0  0  0  0  0  0  0
   -5.5030   16.2680  -31.6880 F   0  0  0  0  0  0  0  0  0  0  0  0
   -6.3760   18.4800  -31.8610 C   0  0  0  0  0  0  0  0  0  0  0  0
   -9.5856   22.0308  -30.1386 H   0  0  0  0  0  0  0  0  0  0  0  0
   -8.9930   22.7736  -31.6630 H   0  0  0  0  0  0  0  0  0  0  0  0
  -10.5103   21.8122  -31.6630 H   0  0  0  0  0  0  0  0  0  0  0  0
  -10.0371   19.0326  -31.6920 H   0  0  0  0  0  0  0  0  0  0  0  0
  -10.2005   20.2730  -32.9809 H   0  0  0  0  0  0  0  0  0  0  0  0
   -8.7922   19.1579  -32.9809 H   0  0  0  0  0  0  0  0  0  0  0  0
   -6.8056   20.8575  -30.9387 H   0  0  0  0  0  0  0  0  0  0  0  0
   -7.3010   22.1141  -33.6674 H   0  0  0  0  0  0  0  0  0  0  0  0
   -7.4955   22.9672  -32.0628 H   0  0  0  0  0  0  0  0  0  0  0  0
   -4.9820   22.4160  -33.4760 H   0  0  0  0  0  0  0  0  0  0  0  0
   -3.1017   21.7282  -31.6685 H   0  0  0  0  0  0  0  0  0  0  0  0
   -1.9739   22.5851  -29.6163 H   0  0  0  0  0  0  0  0  0  0  0  0
   -5.3225   25.2128  -28.8583 H   0  0  0  0  0  0  0  0  0  0  0  0
   -6.4597   24.3605  -30.9067 H   0  0  0  0  0  0  0  0  0  0  0  0
   -6.4293   20.5463  -34.5856 H   0  0  0  0  0  0  0  0  0  0  0  0
   -5.3313   18.5588  -35.6073 H   0  0  0  0  0  0  0  0  0  0  0  0
   -4.8906   16.5224  -34.2364 H   0  0  0  0  0  0  0  0  0  0  0  0
   -6.6564   18.4527  -30.7977 H   0  0  0  0  0  0  0  0  0  0  0  0
  1  2  1  0
  2  3  1  0
  2  4  1  0
  4  5  1  0
  5  6  1  0
  6  7  1  0
  7  8  2  0
  8  9  1  0
  9 10  2  0
 10 11  1  0
 10 12  1  0
 12 13  2  0
  4 14  1  0
 14 15  2  0
 15 16  1  0
 16 17  2  0
 17 18  1  0
 18 19  1  0
 18 20  2  0
 13  7  1  0
 20 14  1  0
  1 21  1  0
  1 22  1  0
  1 23  1  0
  3 24  1  0
  3 25  1  0
  3 26  1  0
  4 27  1  1
  5 28  1  0
  5 29  1  0
  6 30  1  0
  8 31  1  0
  9 32  1  0
 12 33  1  0
 13 34  1  0
 15 35  1  0
 16 36  1  0
 17 37  1  0
 20 38  1  0
M  END
>  <UniqueID>  (29) 
28

>  <SMILES>  (29) 
CN(C)[C@H](CNc1ccc(Cl)cc1)c1cccc(F)c1

>  <Energy>  (29) 
52.431350949373964

>  <Genealogy>  (29) 
CN(C)[C@H](CNc1ccc(Cl)cc1)c1cccc(F)c1 (chirality)
CN(C)[C@H](CNc1ccc(Cl)cc1)c1cccc(F)c1 (3D coordinates assigned)
CN(C)[C@H](CNc1ccc(Cl)cc1)c1cccc(F)c1 (optimized conformer: 52.431350949373964 kcal/mol)

>  <smiles>  (29) 
CN(C)C(CNc1ccc(Cl)cc1)c1cccc(F)c1

>  <score_type>  (29) 
oracle

>  <origin>  (29) 
adgpu

>  <m_score__min__energy>  (29) 
-7.2400000000000002

>  <m_primary>  (29) 
energy

$$$$
29:0
     RDKit          3D

 39 41  0  0  0  0  0  0  0  0999 V2000
   -4.4510   22.3090  -33.6680 H   0  0  0  0  0  0  0  0  0  0  0  0
   -3.5610   21.8510  -33.8310 O   0  0  0  0  0  0  0  0  0  0  0  0
   -2.7520   21.4260  -32.7770 C   0  0  0  0  0  0  0  0  0  0  0  0
   -1.3600   21.5740  -32.8770 C   0  0  0  0  0  0  0  0  0  0  0  0
   -0.9218   22.0239  -33.7801 H   0  0  0  0  0  0  0  0  0  0  0  0
   -0.5280   21.1540  -31.8380 C   0  0  0  0  0  0  0  0  0  0  0  0
    0.5619   21.2757  -31.9236 H   0  0  0  0  0  0  0  0  0  0  0  0
   -1.0770   20.5800  -30.6910 C   0  0  0  0  0  0  0  0  0  0  0  0
    0.0620   20.0080  -29.2700 Br  0  0  0  0  0  0  0  0  0  0  0  0
   -2.4620   20.4260  -30.5810 C   0  0  0  0  0  0  0  0  0  0  0  0
   -2.8888   19.9707  -29.6752 H   0  0  0  0  0  0  0  0  0  0  0  0
   -3.3150   20.8470  -31.6160 C   0  0  0  0  0  0  0  0  0  0  0  0
   -4.7740   20.6760  -31.4310 C   0  0  0  0  0  0  0  0  0  0  0  0
   -5.1441   20.1903  -30.5160 H   0  0  0  0  0  0  0  0  0  0  0  0
   -5.6290   21.0840  -32.3200 N   0  0  0  0  0  0  0  0  0  0  0  0
   -7.0570   21.0190  -32.1760 C   0  0  0  0  0  0  0  0  0  0  0  0
   -7.7330   19.9480  -32.7750 C   0  0  0  0  0  0  0  0  0  0  0  0
   -7.1639   19.1794  -33.3185 H   0  0  0  0  0  0  0  0  0  0  0  0
   -9.1220   19.8480  -32.6880 C   0  0  0  0  0  0  0  0  0  0  0  0
   -9.6405   18.9906  -33.1420 H   0  0  0  0  0  0  0  0  0  0  0  0
   -9.8540   20.8340  -32.0260 C   0  0  0  0  0  0  0  0  0  0  0  0
  -10.9487   20.7519  -31.9565 H   0  0  0  0  0  0  0  0  0  0  0  0
   -9.1980   21.9260  -31.4510 C   0  0  0  0  0  0  0  0  0  0  0  0
   -9.7820   22.7113  -30.9488 H   0  0  0  0  0  0  0  0  0  0  0  0
   -7.7950   22.0280  -31.5100 C   0  0  0  0  0  0  0  0  0  0  0  0
   -7.1120   23.1880  -31.0100 N   0  0  0  0  0  0  0  0  0  0  0  0
   -5.7650   23.6000  -31.2790 C   0  0  0  0  0  0  0  0  0  0  0  0
   -5.4040   23.8670  -32.4570 O   0  0  0  0  0  0  0  0  0  0  0  0
   -4.8140   23.7740  -30.1580 C   0  0  0  0  0  0  0  0  0  0  0  0
   -4.9840   23.0580  -28.9580 C   0  0  0  0  0  0  0  0  0  0  0  0
   -5.8333   22.3674  -28.8493 H   0  0  0  0  0  0  0  0  0  0  0  0
   -4.0800   23.2190  -27.9030 C   0  0  0  0  0  0  0  0  0  0  0  0
   -4.2229   22.6575  -26.9680 H   0  0  0  0  0  0  0  0  0  0  0  0
   -2.9970   24.0900  -28.0330 C   0  0  0  0  0  0  0  0  0  0  0  0
   -2.2872   24.2136  -27.2017 H   0  0  0  0  0  0  0  0  0  0  0  0
   -2.8150   24.8050  -29.2200 C   0  0  0  0  0  0  0  0  0  0  0  0
   -1.7360   25.6700  -29.3490 O   0  0  0  0  0  0  0  0  0  0  0  0
   -3.7180   24.6510  -30.2770 C   0  0  0  0  0  0  0  0  0  0  0  0
   -3.5713   25.2187  -31.2077 H   0  0  0  0  0  0  0  0  0  0  0  0
  1  2  1  0
  2  3  1  0
  3  4  2  0
  4  5  1  0
  4  6  1  0
  6  7  1  0
  6  8  2  0
  8  9  1  0
  8 10  1  0
 10 11  1  0
 10 12  2  0
 12 13  1  0
 13 14  1  0
 13 15  2  0
 15 16  1  0
 16 17  2  0
 17 18  1  0
 17 19  1  0
 19 20  1  0
 19 21  2  0
 21 22  1  0
 21 23  1  0
 23 24  1  0
 23 25  2  0
 25 26  1  0
 26 27  1  0
 27 28  2  0
 27 29  1  0
 29 30  2  0
 30 31  1  0
 30 32  1  0
 32 33  1  0
 32 34  2  0
 34 35  1  0
 34 36  1  0
 36 37  1  0
 36 38  2  0
 38 39  1  0
 12  3  1  0
 25 16  1  0
 38 29  1  0
M  CHG  2  26  -1  37  -1
M  END
>  <UniqueID>  (30) 
29

>  <SMILES>  (30) 
O=C([N-]c1ccccc1/N=C/c1cc(Br)ccc1O)c1cccc([O-])c1

>  <Energy>  (30) 
52.45324368897185

>  <Genealogy>  (30) 
O=C([N-]c1ccccc1N=Cc1cc(Br)ccc1O)c1cccc([O-])c1 (protonated)
O=C([N-]c1ccccc1/N=C/c1cc(Br)ccc1O)c1cccc([O-])c1 (cis-trans isomerization)
O=C([N-]c1ccccc1/N=C/c1cc(Br)ccc1O)c1cccc([O-])c1 (3D coordinates assigned)
O=C([N-]c1ccccc1/N=C/c1cc(Br)ccc1O)c1cccc([O-])c1 (optimized conformer: 52.45324368897185 kcal/mol)

>  <smiles>  (30) 
O=C(Nc1ccccc1N=Cc1cc(Br)ccc1O)c1cccc(O)c1

>  <score_type>  (30) 
oracle

>  <origin>  (30) 
adgpu

>  <m_score__min__energy>  (30) 
-12.210000000000001

>  <m_primary>  (30) 
energy

$$$$
30:0
     RDKit          3D

 35 36  0  0  0  0  0  0  0  0999 V2000
   -3.0800   20.8690  -27.8500 C   0  0  0  0  0  0  0  0  0  0  0  0
   -2.6590   22.2850  -28.1300 C   0  0  0  0  0  0  0  0  0  0  0  0
   -3.2770   23.0090  -29.1640 C   0  0  0  0  0  0  0  0  0  0  0  0
   -2.8870   24.3230  -29.4500 C   0  0  0  0  0  0  0  0  0  0  0  0
   -3.5520   25.0280  -30.5080 N   0  0  0  0  0  0  0  0  0  0  0  0
   -4.9610   25.2810  -30.6010 C   0  0  0  0  0  0  0  0  0  0  0  0
   -5.3720   26.4620  -30.4580 O   0  0  0  0  0  0  0  0  0  0  0  0
   -5.9430   24.1900  -30.8070 C   0  0  0  0  0  0  0  0  0  0  0  0
   -6.5360   23.5370  -29.7140 C   0  0  0  0  0  0  0  0  0  0  0  0
   -7.4570   22.5050  -29.9160 C   0  0  0  0  0  0  0  0  0  0  0  0
   -7.8090   22.1160  -31.2190 C   0  0  0  0  0  0  0  0  0  0  0  0
   -8.7440   21.0590  -31.4780 N   0  0  0  0  0  0  0  0  0  0  0  0
   -8.4600   19.6810  -32.4930 S   0  0  0  0  0  0  0  0  0  0  0  0
   -7.7200   18.3660  -31.5500 C   0  0  0  0  0  0  0  0  0  0  0  0
   -9.7510   19.2210  -33.1110 O   0  0  0  0  0  0  0  0  0  0  0  0
   -7.5150   20.0780  -33.5910 O   0  0  0  0  0  0  0  0  0  0  0  0
   -7.2380   22.7820  -32.3100 C   0  0  0  0  0  0  0  0  0  0  0  0
   -6.3150   23.8130  -32.1070 C   0  0  0  0  0  0  0  0  0  0  0  0
   -1.8970   24.9340  -28.6650 C   0  0  0  0  0  0  0  0  0  0  0  0
   -1.2770   24.2230  -27.6360 C   0  0  0  0  0  0  0  0  0  0  0  0
   -1.6470   22.9010  -27.3660 C   0  0  0  0  0  0  0  0  0  0  0  0
   -0.8340   22.0500  -26.0570 Cl  0  0  0  0  0  0  0  0  0  0  0  0
   -3.1276   20.7088  -26.7628 H   0  0  0  0  0  0  0  0  0  0  0  0
   -4.0711   20.6871  -28.2912 H   0  0  0  0  0  0  0  0  0  0  0  0
   -2.3493   20.1752  -28.2912 H   0  0  0  0  0  0  0  0  0  0  0  0
   -4.0761   22.5380  -29.7553 H   0  0  0  0  0  0  0  0  0  0  0  0
   -6.2733   23.8404  -28.6898 H   0  0  0  0  0  0  0  0  0  0  0  0
   -7.9077   21.9957  -29.0514 H   0  0  0  0  0  0  0  0  0  0  0  0
   -7.8371   18.5740  -30.4762 H   0  0  0  0  0  0  0  0  0  0  0  0
   -8.2155   17.4151  -31.7954 H   0  0  0  0  0  0  0  0  0  0  0  0
   -6.6500   18.2960  -31.7954 H   0  0  0  0  0  0  0  0  0  0  0  0
   -7.5172   22.4925  -33.3338 H   0  0  0  0  0  0  0  0  0  0  0  0
   -5.8774   24.3323  -32.9724 H   0  0  0  0  0  0  0  0  0  0  0  0
   -1.6085   25.9772  -28.8613 H   0  0  0  0  0  0  0  0  0  0  0  0
   -0.4928   24.7051  -27.0338 H   0  0  0  0  0  0  0  0  0  0  0  0
  1  2  1  0
  2  3  2  0
  3  4  1  0
  4  5  1  0
  5  6  1  0
  6  7  2  0
  6  8  1  0
  8  9  2  0
  9 10  1  0
 10 11  2  0
 11 12  1  0
 12 13  1  0
 13 14  1  0
 13 15  2  0
 13 16  2  0
 11 17  1  0
 17 18  2  0
  4 19  2  0
 19 20  1  0
 20 21  2  0
 21 22  1  0
 21  2  1  0
 18  8  1  0
  1 23  1  0
  1 24  1  0
  1 25  1  0
  3 26  1  0
  9 27  1  0
 10 28  1  0
 14 29  1  0
 14 30  1  0
 14 31  1  0
 17 32  1  0
 18 33  1  0
 19 34  1  0
 20 35  1  0
M  CHG  2   5  -1  12  -1
M  END
>  <UniqueID>  (31) 
30

>  <SMILES>  (31) 
Cc1cc([N-]C(=O)c2ccc([N-]S(C)(=O)=O)cc2)ccc1Cl

>  <Energy>  (31) 
41.47244230125882

>  <Genealogy>  (31) 
Cc1cc([N-]C(=O)c2ccc([N-]S(C)(=O)=O)cc2)ccc1Cl (protonated)
Cc1cc([N-]C(=O)c2ccc([N-]S(C)(=O)=O)cc2)ccc1Cl (3D coordinates assigned)
Cc1cc([N-]C(=O)c2ccc([N-]S(C)(=O)=O)cc2)ccc1Cl (optimized conformer: 41.47244230125882 kcal/mol)

>  <smiles>  (31) 
Cc1cc(NC(=O)c2ccc(NS(C)(=O)=O)cc2)ccc1Cl

>  <score_type>  (31) 
oracle

>  <origin>  (31) 
adgpu

>  <m_score__min__energy>  (31) 
-10.82

>  <m_primary>  (31) 
energy

$$$$
31:0
     RDKit          3D

 39 41  0  0  0  0  0  0  0  0999 V2000
   -3.4430   17.4720  -33.4940 C   0  0  0  0  0  0  0  0  0  0  0  0
   -4.7840   16.7890  -34.4430 S   0  0  0  0  0  0  0  0  0  0  0  0
   -4.8910   17.5310  -35.7470 O   0  0  0  0  0  0  0  0  0  0  0  0
   -4.5190   15.3340  -34.6980 O   0  0  0  0  0  0  0  0  0  0  0  0
   -6.2540   16.9710  -33.5400 N   0  0  0  0  0  0  0  0  0  0  0  0
   -6.7910   18.2140  -33.0660 C   0  0  0  0  0  0  0  0  0  0  0  0
   -7.9210   18.2720  -32.2300 C   0  0  0  0  0  0  0  0  0  0  0  0
   -8.4140   19.5070  -31.7970 C   0  0  0  0  0  0  0  0  0  0  0  0
   -7.7880   20.6950  -32.1950 C   0  0  0  0  0  0  0  0  0  0  0  0
   -8.4280   22.2430  -31.6490 S   0  0  0  0  0  0  0  0  0  0  0  0
   -8.2090   23.3100  -32.6860 O   0  0  0  0  0  0  0  0  0  0  0  0
   -9.9060   22.1000  -31.4130 O   0  0  0  0  0  0  0  0  0  0  0  0
   -7.6610   22.7160  -30.1690 N   0  0  0  0  0  0  0  0  0  0  0  0
   -6.4040   23.4000  -30.0640 C   0  0  0  0  0  0  0  0  0  0  0  0
   -6.2960   24.7950  -30.2000 C   0  0  0  0  0  0  0  0  0  0  0  0
   -5.0500   25.4180  -30.0910 C   0  0  0  0  0  0  0  0  0  0  0  0
   -3.9010   24.6610  -29.8390 C   0  0  0  0  0  0  0  0  0  0  0  0
   -2.6690   25.2970  -29.7210 O   0  0  0  0  0  0  0  0  0  0  0  0
   -4.0010   23.2690  -29.7020 C   0  0  0  0  0  0  0  0  0  0  0  0
   -2.5430   22.2660  -29.4110 S   0  0  0  0  0  0  0  0  0  0  0  0
   -2.4230   21.7750  -31.1260 C   0  0  0  0  0  0  0  0  0  0  0  0
   -3.4570   21.2940  -31.8410 N   0  0  0  0  0  0  0  0  0  0  0  0
   -2.8830   21.0750  -33.0410 C   0  0  0  0  0  0  0  0  0  0  0  0
   -1.5800   21.4080  -33.0520 N   0  0  0  0  0  0  0  0  0  0  0  0
   -1.2880   21.8520  -31.8420 N   0  0  0  0  0  0  0  0  0  0  0  0
   -5.2510   22.6450  -29.8160 C   0  0  0  0  0  0  0  0  0  0  0  0
   -6.6630   20.6400  -33.0280 C   0  0  0  0  0  0  0  0  0  0  0  0
   -6.1670   19.4050  -33.4560 C   0  0  0  0  0  0  0  0  0  0  0  0
   -3.6596   17.3617  -32.4212 H   0  0  0  0  0  0  0  0  0  0  0  0
   -2.5125   16.9380  -33.7370 H   0  0  0  0  0  0  0  0  0  0  0  0
   -3.3278   18.5386  -33.7370 H   0  0  0  0  0  0  0  0  0  0  0  0
   -8.4185   17.3426  -31.9158 H   0  0  0  0  0  0  0  0  0  0  0  0
   -9.2965   19.5455  -31.1415 H   0  0  0  0  0  0  0  0  0  0  0  0
   -7.1954   25.3982  -30.3929 H   0  0  0  0  0  0  0  0  0  0  0  0
   -4.9723   26.5094  -30.2039 H   0  0  0  0  0  0  0  0  0  0  0  0
   -3.4193   20.6701  -33.9119 H   0  0  0  0  0  0  0  0  0  0  0  0
   -5.3269   21.5528  -29.7097 H   0  0  0  0  0  0  0  0  0  0  0  0
   -6.1691   21.5701  -33.3458 H   0  0  0  0  0  0  0  0  0  0  0  0
   -5.2792   19.3688  -34.1045 H   0  0  0  0  0  0  0  0  0  0  0  0
  1  2  1  0
  2  3  2  0
  2  4  2  0
  2  5  1  0
  5  6  1  0
  6  7  2  0
  7  8  1  0
  8  9  2  0
  9 10  1  0
 10 11  2  0
 10 12  2  0
 10 13  1  0
 13 14  1  0
 14 15  2  0
 15 16  1  0
 16 17  2  0
 17 18  1  0
 17 19  1  0
 19 20  1  0
 20 21  1  0
 21 22  1  0
 22 23  2  0
 23 24  1  0
 24 25  1  0
 19 26  2  0
  9 27  1  0
 27 28  2  0
 28  6  1  0
 26 14  1  0
 25 21  2  0
  1 29  1  0
  1 30  1  0
  1 31  1  0
  7 32  1  0
  8 33  1  0
 15 34  1  0
 16 35  1  0
 23 36  1  0
 26 37  1  0
 27 38  1  0
 28 39  1  0
M  CHG  4   5  -1  13  -1  18  -1  24  -1
M  END
>  <UniqueID>  (32) 
31

>  <SMILES>  (32) 
CS(=O)(=O)[N-]c1ccc(S(=O)(=O)[N-]c2ccc([O-])c(Sc3nc[n-]n3)c2)cc1

>  <Energy>  (32) 
72.0400922636294

>  <Genealogy>  (32) 
CS(=O)(=O)[N-]c1ccc(S(=O)(=O)[N-]c2ccc([O-])c(Sc3nc[n-]n3)c2)cc1 (protonated)
CS(=O)(=O)[N-]c1ccc(S(=O)(=O)[N-]c2ccc([O-])c(Sc3nc[n-]n3)c2)cc1 (3D coordinates assigned)
CS(=O)(=O)[N-]c1ccc(S(=O)(=O)[N-]c2ccc([O-])c(Sc3nc[n-]n3)c2)cc1 (optimized conformer: 72.0400922636294 kcal/mol)

>  <smiles>  (32) 
CS(=O)(=O)Nc1ccc(S(=O)(=O)Nc2ccc(O)c(Sc3nc[nH]n3)c2)cc1

>  <score_type>  (32) 
oracle

>  <origin>  (32) 
adgpu

>  <m_score__min__energy>  (32) 
-12.07

>  <m_primary>  (32) 
energy

$$$$
32:0
     RDKit          3D

 40 42  0  0  0  0  0  0  0  0999 V2000
   -4.4160   17.6850  -34.7880 C   0  0  0  0  0  0  0  0  0  0  0  0
   -5.3850   17.9610  -33.6770 C   0  0  0  0  0  0  0  0  0  0  0  0
   -5.3650   17.1830  -32.5110 C   0  0  0  0  0  0  0  0  0  0  0  0
   -6.2940   17.4180  -31.4950 C   0  0  0  0  0  0  0  0  0  0  0  0
   -7.2560   18.4190  -31.6390 C   0  0  0  0  0  0  0  0  0  0  0  0
   -7.3050   19.1960  -32.8130 C   0  0  0  0  0  0  0  0  0  0  0  0
   -8.2910   20.2260  -33.0030 N   0  0  0  0  0  0  0  0  0  0  0  0
   -8.6840   21.4260  -31.8120 S   0  0  0  0  0  0  0  0  0  0  0  0
   -9.7980   22.2890  -32.3330 O   0  0  0  0  0  0  0  0  0  0  0  0
   -9.1410   20.7440  -30.5540 O   0  0  0  0  0  0  0  0  0  0  0  0
   -7.2630   22.3980  -31.4430 C   0  0  0  0  0  0  0  0  0  0  0  0
   -6.0700   22.1870  -32.1450 C   0  0  0  0  0  0  0  0  0  0  0  0
   -4.9410   22.9650  -31.8680 C   0  0  0  0  0  0  0  0  0  0  0  0
   -5.0000   23.9730  -30.8880 C   0  0  0  0  0  0  0  0  0  0  0  0
   -3.8620   24.7810  -30.5560 N   0  0  0  0  0  0  0  0  0  0  0  0
   -2.8020   24.4390  -29.6530 C   0  0  0  0  0  0  0  0  0  0  0  0
   -1.9540   25.3020  -29.3010 O   0  0  0  0  0  0  0  0  0  0  0  0
   -2.7320   23.0880  -29.0870 C   0  0  0  0  0  0  0  0  0  0  0  0
   -3.4430   22.6270  -27.9950 C   0  0  0  0  0  0  0  0  0  0  0  0
   -3.0580   21.3140  -27.8320 C   0  0  0  0  0  0  0  0  0  0  0  0
   -2.1410   21.0560  -28.8300 C   0  0  0  0  0  0  0  0  0  0  0  0
   -1.9670   22.1320  -29.5610 O   0  0  0  0  0  0  0  0  0  0  0  0
   -6.1860   24.1580  -30.1670 C   0  0  0  0  0  0  0  0  0  0  0  0
   -7.3140   23.3810  -30.4460 C   0  0  0  0  0  0  0  0  0  0  0  0
   -6.3620   18.9570  -33.8260 C   0  0  0  0  0  0  0  0  0  0  0  0
   -3.4403   17.4071  -34.3629 H   0  0  0  0  0  0  0  0  0  0  0  0
   -4.7946   16.8590  -35.4080 H   0  0  0  0  0  0  0  0  0  0  0  0
   -4.3025   18.5865  -35.4080 H   0  0  0  0  0  0  0  0  0  0  0  0
   -4.6160   16.3857  -32.3961 H   0  0  0  0  0  0  0  0  0  0  0  0
   -6.2674   16.8117  -30.5775 H   0  0  0  0  0  0  0  0  0  0  0  0
   -7.9799   18.6022  -30.8313 H   0  0  0  0  0  0  0  0  0  0  0  0
   -8.8670   20.2220  -33.8750 H   0  0  0  0  0  0  0  0  0  0  0  0
   -6.0204   21.4058  -32.9179 H   0  0  0  0  0  0  0  0  0  0  0  0
   -4.0047   22.7884  -32.4177 H   0  0  0  0  0  0  0  0  0  0  0  0
   -4.1644   23.1899  -27.3845 H   0  0  0  0  0  0  0  0  0  0  0  0
   -3.4107   20.6128  -27.0614 H   0  0  0  0  0  0  0  0  0  0  0  0
   -1.6325   20.0937  -28.9890 H   0  0  0  0  0  0  0  0  0  0  0  0
   -6.2304   24.9203  -29.3753 H   0  0  0  0  0  0  0  0  0  0  0  0
   -8.2442   23.5418  -29.8813 H   0  0  0  0  0  0  0  0  0  0  0  0
   -6.3897   19.5577  -34.7471 H   0  0  0  0  0  0  0  0  0  0  0  0
  1  2  1  0
  2  3  2  0
  3  4  1  0
  4  5  2  0
  5  6  1  0
  6  7  1  0
  7  8  1  0
  8  9  2  0
  8 10  2  0
  8 11  1  0
 11 12  2  0
 12 13  1  0
 13 14  2  0
 14 15  1  0
 15 16  1  0
 16 17  2  0
 16 18  1  0
 18 19  2  0
 19 20  1  0
 20 21  2  0
 21 22  1  0
 14 23  1  0
 23 24  2  0
  6 25  2  0
 25  2  1  0
 24 11  1  0
 22 18  1  0
  1 26  1  0
  1 27  1  0
  1 28  1  0
  3 29  1  0
  4 30  1  0
  5 31  1  0
  7 32  1  0
 12 33  1  0
 13 34  1  0
 19 35  1  0
 20 36  1  0
 21 37  1  0
 23 38  1  0
 24 39  1  0
 25 40  1  0
M  CHG  1  15  -1
M  END
>  <UniqueID>  (33) 
32

>  <SMILES>  (33) 
Cc1cccc(NS(=O)(=O)c2ccc([N-]C(=O)c3ccco3)cc2)c1

>  <Energy>  (33) 
72.49331732544796

>  <Genealogy>  (33) 
Cc1cccc(NS(=O)(=O)c2ccc([N-]C(=O)c3ccco3)cc2)c1 (protonated)
Cc1cccc(NS(=O)(=O)c2ccc([N-]C(=O)c3ccco3)cc2)c1 (3D coordinates assigned)
Cc1cccc(NS(=O)(=O)c2ccc([N-]C(=O)c3ccco3)cc2)c1 (optimized conformer: 72.49331732544796 kcal/mol)

>  <smiles>  (33) 
Cc1cccc(NS(=O)(=O)c2ccc(NC(=O)c3ccco3)cc2)c1

>  <score_type>  (33) 
oracle

>  <origin>  (33) 
adgpu

>  <m_score__min__energy>  (33) 
-10.949999999999999

>  <m_primary>  (33) 
energy

$$$$
33:0
     RDKit          3D

 48 50  0  0  0  0  0  0  0  0999 V2000
   -2.2700   23.4450  -29.9220 C   0  0  0  0  0  0  0  0  0  0  0  0
   -3.1720   24.4020  -30.4690 O   0  0  0  0  0  0  0  0  0  0  0  0
   -4.5640   24.2380  -30.5250 C   0  0  0  0  0  0  0  0  0  0  0  0
   -5.3720   25.2570  -30.0090 C   0  0  0  0  0  0  0  0  0  0  0  0
   -6.7630   25.1420  -30.0410 C   0  0  0  0  0  0  0  0  0  0  0  0
   -7.3620   24.0060  -30.5890 C   0  0  0  0  0  0  0  0  0  0  0  0
   -6.5710   22.9710  -31.1120 C   0  0  0  0  0  0  0  0  0  0  0  0
   -7.2080   21.7710  -31.6900 C   0  0  0  0  0  0  0  0  0  0  0  0
   -6.5240   20.6820  -32.1060 N   0  0  0  0  0  0  0  0  0  0  0  0
   -7.4960   19.8610  -32.5460 C   0  0  0  0  0  0  0  0  0  0  0  0
   -7.2520   18.4790  -33.0870 C   0  0  0  0  0  0  0  0  0  0  0  0
   -5.8070   18.1300  -33.1090 N   0  0  1  0  0  0  0  0  0  0  0  0
   -5.6430   16.6490  -33.2340 C   0  0  0  0  0  0  0  0  0  0  0  0
   -5.3630   15.9710  -31.8850 C   0  0  0  0  0  0  0  0  0  0  0  0
   -5.7750   16.8050  -30.8380 O   0  0  0  0  0  0  0  0  0  0  0  0
   -5.1210   18.8470  -34.2180 C   0  0  0  0  0  0  0  0  0  0  0  0
   -3.8610   19.5390  -33.7540 C   0  0  0  0  0  0  0  0  0  0  0  0
   -3.8890   20.9050  -33.4280 C   0  0  0  0  0  0  0  0  0  0  0  0
   -2.7310   21.5450  -32.9740 C   0  0  0  0  0  0  0  0  0  0  0  0
   -1.5390   20.8260  -32.8440 C   0  0  0  0  0  0  0  0  0  0  0  0
   -0.4180   21.4480  -32.4020 F   0  0  0  0  0  0  0  0  0  0  0  0
   -1.5030   19.4670  -33.1670 C   0  0  0  0  0  0  0  0  0  0  0  0
   -2.6590   18.8240  -33.6210 C   0  0  0  0  0  0  0  0  0  0  0  0
   -8.7220   20.4640  -32.3810 C   0  0  0  0  0  0  0  0  0  0  0  0
   -8.5090   21.6420  -31.8530 O   0  0  0  0  0  0  0  0  0  0  0  0
   -5.1690   23.0920  -31.0790 C   0  0  0  0  0  0  0  0  0  0  0  0
   -2.3110   23.4885  -28.8236 H   0  0  0  0  0  0  0  0  0  0  0  0
   -2.5548   22.4377  -30.2600 H   0  0  0  0  0  0  0  0  0  0  0  0
   -1.2476   23.6697  -30.2600 H   0  0  0  0  0  0  0  0  0  0  0  0
   -4.9081   26.1550  -29.5751 H   0  0  0  0  0  0  0  0  0  0  0  0
   -7.3892   25.9491  -29.6331 H   0  0  0  0  0  0  0  0  0  0  0  0
   -8.4585   23.9217  -30.6110 H   0  0  0  0  0  0  0  0  0  0  0  0
   -7.7821   17.7523  -32.4538 H   0  0  0  0  0  0  0  0  0  0  0  0
   -7.6209   18.4526  -34.1229 H   0  0  0  0  0  0  0  0  0  0  0  0
   -5.3990   18.4560  -32.2000 H   0  0  0  0  0  0  0  0  0  0  0  0
   -6.5668   16.2264  -33.6559 H   0  0  0  0  0  0  0  0  0  0  0  0
   -4.7774   16.4631  -33.8868 H   0  0  0  0  0  0  0  0  0  0  0  0
   -5.9145   15.0207  -31.8330 H   0  0  0  0  0  0  0  0  0  0  0  0
   -4.2837   15.7800  -31.7927 H   0  0  0  0  0  0  0  0  0  0  0  0
   -5.7540   16.2470  -30.0170 H   0  0  0  0  0  0  0  0  0  0  0  0
   -4.8588   18.1206  -35.0013 H   0  0  0  0  0  0  0  0  0  0  0  0
   -5.8084   19.6159  -34.6005 H   0  0  0  0  0  0  0  0  0  0  0  0
   -4.8251   21.4736  -33.5301 H   0  0  0  0  0  0  0  0  0  0  0  0
   -2.7582   22.6147  -32.7191 H   0  0  0  0  0  0  0  0  0  0  0  0
   -0.5646   18.9024  -33.0641 H   0  0  0  0  0  0  0  0  0  0  0  0
   -2.6270   17.7542  -33.8750 H   0  0  0  0  0  0  0  0  0  0  0  0
   -9.7001   20.0350  -32.6443 H   0  0  0  0  0  0  0  0  0  0  0  0
   -4.5414   22.2867  -31.4884 H   0  0  0  0  0  0  0  0  0  0  0  0
  1  2  1  0
  2  3  1  0
  3  4  2  0
  4  5  1  0
  5  6  2  0
  6  7  1  0
  7  8  1  0
  8  9  2  0
  9 10  1  0
 10 11  1  0
 11 12  1  0
 12 13  1  0
 13 14  1  0
 14 15  1  0
 12 16  1  0
 16 17  1  0
 17 18  2  0
 18 19  1  0
 19 20  2  0
 20 21  1  0
 20 22  1  0
 22 23  2  0
 10 24  2  0
 24 25  1  0
  7 26  2  0
 26  3  1  0
 25  8  1  0
 23 17  1  0
  1 27  1  0
  1 28  1  0
  1 29  1  0
  4 30  1  0
  5 31  1  0
  6 32  1  0
 11 33  1  0
 11 34  1  0
 12 35  1  1
 13 36  1  0
 13 37  1  0
 14 38  1  0
 14 39  1  0
 15 40  1  0
 16 41  1  0
 16 42  1  0
 18 43  1  0
 19 44  1  0
 22 45  1  0
 23 46  1  0
 24 47  1  0
 26 48  1  0
M  CHG  1  12   1
M  END
>  <UniqueID>  (34) 
33

>  <SMILES>  (34) 
COc1cccc(-c2nc(C[N@@H+](CCO)Cc3ccc(F)cc3)co2)c1

>  <Energy>  (34) 
82.19256564797368

>  <Genealogy>  (34) 
COc1cccc(-c2nc(C[NH+](CCO)Cc3ccc(F)cc3)co2)c1 (protonated)
COc1cccc(-c2nc(C[N@@H+](CCO)Cc3ccc(F)cc3)co2)c1 (chirality)
COc1cccc(-c2nc(C[N@@H+](CCO)Cc3ccc(F)cc3)co2)c1 (3D coordinates assigned)
COc1cccc(-c2nc(C[N@@H+](CCO)Cc3ccc(F)cc3)co2)c1 (optimized conformer: 82.19256564797368 kcal/mol)

>  <smiles>  (34) 
COc1cccc(-c2nc(CN(CCO)Cc3ccc(F)cc3)co2)c1

>  <score_type>  (34) 
oracle

>  <origin>  (34) 
adgpu

>  <m_score__min__energy>  (34) 
-6.54

>  <m_primary>  (34) 
energy

$$$$
34:0
     RDKit          3D

 52 55  0  0  1  0  0  0  0  0999 V2000
   -4.2110   19.7400  -31.7850 O   0  0  0  0  0  0  0  0  0  0  0  0
   -4.8480   20.9350  -31.4920 C   0  0  0  0  0  0  0  0  0  0  0  0
   -4.3970   21.7940  -30.4760 C   0  0  0  0  0  0  0  0  0  0  0  0
   -5.0800   22.9520  -30.2510 C   0  0  0  0  0  0  0  0  0  0  0  0
   -4.6800   23.8260  -29.2700 C   0  0  0  0  0  0  0  0  0  0  0  0
   -3.6820   23.5800  -28.5810 N   0  0  0  0  0  0  0  0  0  0  0  0
   -2.7540   22.5800  -28.5050 C   0  0  0  0  0  0  0  0  0  0  0  0
   -3.0520   21.4570  -27.6900 C   0  0  0  0  0  0  0  0  0  0  0  0
   -2.2160   20.3720  -27.6530 C   0  0  0  0  0  0  0  0  0  0  0  0
   -1.0630   20.3490  -28.4090 C   0  0  0  0  0  0  0  0  0  0  0  0
   -0.0540   18.9290  -28.3030 Cl  0  0  0  0  0  0  0  0  0  0  0  0
   -0.7380   21.4260  -29.2150 C   0  0  0  0  0  0  0  0  0  0  0  0
   -1.5650   22.5460  -29.2790 C   0  0  0  0  0  0  0  0  0  0  0  0
   -1.2900   23.6160  -30.0490 F   0  0  0  0  0  0  0  0  0  0  0  0
   -5.3660   24.9610  -29.0630 N   0  0  0  0  0  0  0  0  0  0  0  0
   -6.4520   25.3310  -29.7580 C   0  0  0  0  0  0  0  0  0  0  0  0
   -6.8590   24.4810  -30.7300 N   0  0  0  0  0  0  0  0  0  0  0  0
   -6.1960   23.3370  -30.9640 C   0  0  0  0  0  0  0  0  0  0  0  0
   -6.6460   22.5060  -31.9590 C   0  0  0  0  0  0  0  0  0  0  0  0
   -5.9490   21.3450  -32.1750 C   0  0  0  0  0  0  0  0  0  0  0  0
   -6.4020   20.5080  -33.1790 O   0  0  0  0  0  0  0  0  0  0  0  0
   -7.7190   20.0480  -33.0940 C   0  0  0  0  0  0  0  0  0  0  0  0
   -7.8940   19.0930  -31.9260 C   0  0  0  0  0  0  0  0  0  0  0  0
   -6.7100   18.2320  -31.7670 C   0  0  0  0  0  0  0  0  0  0  0  0
   -6.5930   17.0410  -32.4810 N   0  0  0  0  0  0  0  0  0  0  0  0
   -5.3690   16.3230  -32.1820 C   0  0  0  0  0  0  0  0  0  0  0  0
   -4.2460   16.8330  -33.0500 C   0  0  0  0  0  0  0  0  0  0  0  0
   -4.6120   17.9830  -33.7450 O   0  0  0  0  0  0  0  0  0  0  0  0
   -5.7110   17.7710  -34.5720 C   0  0  0  0  0  0  0  0  0  0  0  0
   -6.8490   17.0520  -33.8780 C   0  0  0  0  0  0  0  0  0  0  0  0
   -4.5580   19.1370  -32.5320 H   0  0  0  0  0  0  0  0  0  0  0  0
   -3.5120   21.5377  -29.8751 H   0  0  0  0  0  0  0  0  0  0  0  0
   -3.9670   21.4576  -27.0794 H   0  0  0  0  0  0  0  0  0  0  0  0
   -2.4668   19.5119  -27.0147 H   0  0  0  0  0  0  0  0  0  0  0  0
    0.1849   21.3977  -29.8128 H   0  0  0  0  0  0  0  0  0  0  0  0
   -5.0650   25.6440  -28.3040 H   0  0  0  0  0  0  0  0  0  0  0  0
   -6.9821   26.2721  -29.5499 H   0  0  0  0  0  0  0  0  0  0  0  0
   -7.5313   22.7612  -32.5599 H   0  0  0  0  0  0  0  0  0  0  0  0
   -8.3912   20.9080  -32.9579 H   0  0  0  0  0  0  0  0  0  0  0  0
   -7.9601   19.5098  -34.0226 H   0  0  0  0  0  0  0  0  0  0  0  0
   -8.0420   19.6750  -31.0044 H   0  0  0  0  0  0  0  0  0  0  0  0
   -8.7679   18.4546  -32.1229 H   0  0  0  0  0  0  0  0  0  0  0  0
   -5.8375   18.8457  -32.0354 H   0  0  0  0  0  0  0  0  0  0  0  0
   -6.7980   17.8854  -30.7267 H   0  0  0  0  0  0  0  0  0  0  0  0
   -5.1082   16.4727  -31.1239 H   0  0  0  0  0  0  0  0  0  0  0  0
   -5.5211   15.2519  -32.3811 H   0  0  0  0  0  0  0  0  0  0  0  0
   -3.3793   17.0626  -32.4127 H   0  0  0  0  0  0  0  0  0  0  0  0
   -4.0000   16.0525  -33.7851 H   0  0  0  0  0  0  0  0  0  0  0  0
   -6.0769   18.7467  -34.9244 H   0  0  0  0  0  0  0  0  0  0  0  0
   -5.3773   17.1309  -35.4020 H   0  0  0  0  0  0  0  0  0  0  0  0
   -7.7951   17.5765  -34.0773 H   0  0  0  0  0  0  0  0  0  0  0  0
   -6.9271   16.0212  -34.2539 H   0  0  0  0  0  0  0  0  0  0  0  0
  1  2  1  0
  2  3  2  0
  3  4  1  0
  4  5  1  0
  5  6  2  0
  6  7  1  0
  7  8  2  0
  8  9  1  0
  9 10  2  0
 10 11  1  0
 10 12  1  0
 12 13  2  0
 13 14  1  0
  5 15  1  0
 15 16  1  0
 16 17  2  0
 17 18  1  0
 18 19  1  0
 19 20  2  0
 20 21  1  0
 21 22  1  0
 22 23  1  0
 23 24  1  0
 24 25  1  0
 25 26  1  0
 26 27  1  0
 27 28  1  0
 28 29  1  0
 29 30  1  0
 20  2  1  0
 30 25  1  0
 18  4  2  0
 13  7  1  0
  1 31  1  0
  3 32  1  0
  8 33  1  0
  9 34  1  0
 12 35  1  0
 15 36  1  0
 16 37  1  0
 19 38  1  0
 22 39  1  0
 22 40  1  0
 23 41  1  0
 23 42  1  0
 24 43  1  0
 24 44  1  0
 26 45  1  0
 26 46  1  0
 27 47  1  0
 27 48  1  0
 29 49  1  0
 29 50  1  0
 30 51  1  0
 30 52  1  0
M  END
>  <smiles>  (35) 
Oc1cc2c(=Nc3ccc(Cl)cc3F)[nH]cnc2cc1OCCCN1CCOCC1

>  <score_type>  (35) 
oracle

>  <origin>  (35) 
adgpu

>  <m_score__min__energy>  (35) 
-9

>  <m_primary>  (35) 
energy

$$$$
35:0
     RDKit          3D

 47 50  0  0  0  0  0  0  0  0999 V2000
    0.5570   24.0410  -24.4670 C   0  0  0  0  0  0  0  0  0  0  0  0
   -0.2870   23.7510  -25.6370 N   0  0  0  0  0  0  0  0  0  0  0  0
   -0.3780   22.2940  -25.8560 C   0  0  0  0  0  0  0  0  0  0  0  0
   -1.4410   21.9920  -26.9200 C   0  0  0  0  0  0  0  0  0  0  0  0
   -1.3960   22.9770  -28.0110 N   0  0  0  0  0  0  0  0  0  0  0  0
   -2.4820   23.0830  -28.9640 C   0  0  0  0  0  0  0  0  0  0  0  0
   -3.0640   24.3220  -29.2810 C   0  0  0  0  0  0  0  0  0  0  0  0
   -4.1130   24.4030  -30.2080 C   0  0  0  0  0  0  0  0  0  0  0  0
   -4.6840   25.6940  -30.4760 N   0  0  0  0  0  0  0  0  0  0  0  0
   -4.5730   23.2170  -30.8350 C   0  0  0  0  0  0  0  0  0  0  0  0
   -5.6050   23.2010  -31.7960 C   0  0  0  0  0  0  0  0  0  0  0  0
   -6.0190   21.9990  -32.3760 C   0  0  0  0  0  0  0  0  0  0  0  0
   -5.4170   20.7830  -32.0190 C   0  0  0  0  0  0  0  0  0  0  0  0
   -5.8620   19.5080  -32.6390 C   0  0  0  0  0  0  0  0  0  0  0  0
   -5.3680   19.1120  -33.8950 C   0  0  0  0  0  0  0  0  0  0  0  0
   -5.7890   17.9130  -34.4770 C   0  0  0  0  0  0  0  0  0  0  0  0
   -6.7060   17.0950  -33.8120 C   0  0  0  0  0  0  0  0  0  0  0  0
   -7.1120   15.9310  -34.3770 F   0  0  0  0  0  0  0  0  0  0  0  0
   -7.2040   17.4770  -32.5630 C   0  0  0  0  0  0  0  0  0  0  0  0
   -6.7860   18.6760  -31.9780 C   0  0  0  0  0  0  0  0  0  0  0  0
   -4.3830   20.7910  -31.0690 C   0  0  0  0  0  0  0  0  0  0  0  0
   -3.9620   21.9900  -30.4840 C   0  0  0  0  0  0  0  0  0  0  0  0
   -2.9530   21.9640  -29.5750 N   0  0  0  0  0  0  0  0  0  0  0  0
   -0.1800   23.7890  -28.1690 C   0  0  0  0  0  0  0  0  0  0  0  0
    0.2300   24.4560  -26.8380 C   0  0  0  0  0  0  0  0  0  0  0  0
   -0.0125   23.8453  -23.5465 H   0  0  0  0  0  0  0  0  0  0  0  0
    1.4491   23.3978  -24.4899 H   0  0  0  0  0  0  0  0  0  0  0  0
    0.8654   25.0966  -24.4899 H   0  0  0  0  0  0  0  0  0  0  0  0
   -1.2480   24.1150  -25.4250 H   0  0  0  0  0  0  0  0  0  0  0  0
    0.5968   21.9146  -26.1962 H   0  0  0  0  0  0  0  0  0  0  0  0
   -0.6593   21.8026  -24.9129 H   0  0  0  0  0  0  0  0  0  0  0  0
   -1.2594   20.9893  -27.3342 H   0  0  0  0  0  0  0  0  0  0  0  0
   -2.4324   22.0421  -26.4461 H   0  0  0  0  0  0  0  0  0  0  0  0
   -2.6930   25.2376  -28.7971 H   0  0  0  0  0  0  0  0  0  0  0  0
   -4.9840   26.3090  -29.6870 H   0  0  0  0  0  0  0  0  0  0  0  0
   -4.8720   26.0520  -31.4350 H   0  0  0  0  0  0  0  0  0  0  0  0
   -6.0886   24.1437  -32.0918 H   0  0  0  0  0  0  0  0  0  0  0  0
   -6.8273   22.0062  -33.1221 H   0  0  0  0  0  0  0  0  0  0  0  0
   -4.6449   19.7508  -34.4232 H   0  0  0  0  0  0  0  0  0  0  0  0
   -5.3977   17.6129  -35.4603 H   0  0  0  0  0  0  0  0  0  0  0  0
   -7.9260   16.8331  -32.0395 H   0  0  0  0  0  0  0  0  0  0  0  0
   -7.1815   18.9714  -30.9950 H   0  0  0  0  0  0  0  0  0  0  0  0
   -3.8995   19.8456  -30.7821 H   0  0  0  0  0  0  0  0  0  0  0  0
    0.6404   23.1416  -28.5123 H   0  0  0  0  0  0  0  0  0  0  0  0
   -0.3862   24.5812  -28.9037 H   0  0  0  0  0  0  0  0  0  0  0  0
    1.3284   24.4771  -26.7832 H   0  0  0  0  0  0  0  0  0  0  0  0
   -0.2079   25.4651  -26.8339 H   0  0  0  0  0  0  0  0  0  0  0  0
  1  2  1  0
  2  3  1  0
  3  4  1  0
  4  5  1  0
  5  6  1  0
  6  7  2  0
  7  8  1  0
  8  9  1  0
  8 10  2  0
 10 11  1  0
 11 12  2  0
 12 13  1  0
 13 14  1  0
 14 15  2  0
 15 16  1  0
 16 17  2  0
 17 18  1  0
 17 19  1  0
 19 20  2  0
 13 21  2  0
 21 22  1  0
 22 23  2  0
  5 24  1  0
 24 25  1  0
 25  2  1  0
 23  6  1  0
 22 10  1  0
 20 14  1  0
  1 26  1  0
  1 27  1  0
  1 28  1  0
  2 29  1  0
  3 30  1  0
  3 31  1  0
  4 32  1  0
  4 33  1  0
  7 34  1  0
  9 35  1  0
  9 36  1  0
 11 37  1  0
 12 38  1  0
 15 39  1  0
 16 40  1  0
 19 41  1  0
 20 42  1  0
 21 43  1  0
 24 44  1  0
 24 45  1  0
 25 46  1  0
 25 47  1  0
M  CHG  1   2   1
M  END
>  <UniqueID>  (36) 
34

>  <SMILES>  (36) 
C[NH+]1CCN(c2cc(N)c3ccc(-c4ccc(F)cc4)cc3n2)CC1

>  <Energy>  (36) 
69.58826714637061

>  <Genealogy>  (36) 
C[NH+]1CCN(c2cc(N)c3ccc(-c4ccc(F)cc4)cc3n2)CC1 (protonated)
C[NH+]1CCN(c2cc(N)c3ccc(-c4ccc(F)cc4)cc3n2)CC1 (3D coordinates assigned)
C[NH+]1CCN(c2cc(N)c3ccc(-c4ccc(F)cc4)cc3n2)CC1 (nonaromatic ring conformer: 69.58826714637061 kcal/mol)

>  <smiles>  (36) 
CN1CCN(c2cc(N)c3ccc(-c4ccc(F)cc4)cc3n2)CC1

>  <score_type>  (36) 
oracle

>  <origin>  (36) 
adgpu

>  <m_score__min__energy>  (36) 
-7.3899999999999997

>  <m_primary>  (36) 
energy

$$$$
36:0
     RDKit          3D

 49 51  0  0  0  0  0  0  0  0999 V2000
   -0.1910   13.7940  -33.1840 H   0  0  0  0  0  0  0  0  0  0  0  0
   -0.9660   13.6400  -32.5510 O   0  0  0  0  0  0  0  0  0  0  0  0
   -2.2620   14.0420  -32.8710 C   0  0  0  0  0  0  0  0  0  0  0  0
   -3.3130   13.8140  -31.9740 C   0  0  0  0  0  0  0  0  0  0  0  0
   -3.1147   13.3177  -31.0126 H   0  0  0  0  0  0  0  0  0  0  0  0
   -4.6110   14.2140  -32.2950 C   0  0  0  0  0  0  0  0  0  0  0  0
   -5.4286   14.0485  -31.5780 H   0  0  0  0  0  0  0  0  0  0  0  0
   -4.8770   14.8270  -33.5300 C   0  0  0  0  0  0  0  0  0  0  0  0
   -6.2350   15.3000  -33.8690 C   0  0  0  0  0  0  0  0  0  0  0  0
   -7.0486   14.5599  -33.8483 H   0  0  0  0  0  0  0  0  0  0  0  0
   -6.5550   16.5600  -34.2000 C   0  0  0  0  0  0  0  0  0  0  0  0
   -7.5742   16.7404  -34.5723 H   0  0  0  0  0  0  0  0  0  0  0  0
   -5.6530   17.7240  -34.1060 C   0  0  0  0  0  0  0  0  0  0  0  0
   -4.5130   17.8860  -34.8060 N   0  0  0  0  0  0  0  0  0  0  0  0
   -3.9720   18.9950  -34.3970 O   0  0  0  0  0  0  0  0  0  0  0  0
   -4.6930   19.5600  -33.4560 C   0  0  0  0  0  0  0  0  0  0  0  0
   -4.3230   20.8290  -32.8040 C   0  0  0  0  0  0  0  0  0  0  0  0
   -4.6680   21.7720  -33.2532 H   0  0  0  0  0  0  0  0  0  0  0  0
   -3.5840   20.8830  -31.6870 C   0  0  0  0  0  0  0  0  0  0  0  0
   -3.2501   19.9362  -31.2375 H   0  0  0  0  0  0  0  0  0  0  0  0
   -3.1920   22.1520  -31.0240 C   0  0  0  0  0  0  0  0  0  0  0  0
   -3.9820   23.3140  -31.0970 C   0  0  0  0  0  0  0  0  0  0  0  0
   -4.9217   23.2985  -31.6686 H   0  0  0  0  0  0  0  0  0  0  0  0
   -3.5820   24.4960  -30.4460 C   0  0  0  0  0  0  0  0  0  0  0  0
   -4.3400   25.6760  -30.5010 O   0  0  0  0  0  0  0  0  0  0  0  0
   -5.7260   25.7620  -30.1870 C   0  0  0  0  0  0  0  0  0  0  0  0
   -5.8547   25.7700  -29.0946 H   0  0  0  0  0  0  0  0  0  0  0  0
   -6.1415   26.6877  -30.6119 H   0  0  0  0  0  0  0  0  0  0  0  0
   -6.2527   24.8948  -30.6119 H   0  0  0  0  0  0  0  0  0  0  0  0
   -2.3890   24.5050  -29.7100 C   0  0  0  0  0  0  0  0  0  0  0  0
   -1.9870   25.6710  -29.0670 O   0  0  0  0  0  0  0  0  0  0  0  0
   -1.6000   23.3520  -29.6120 C   0  0  0  0  0  0  0  0  0  0  0  0
   -0.4180   23.4140  -28.8560 O   0  0  0  0  0  0  0  0  0  0  0  0
   -0.3690   23.6660  -27.4560 C   0  0  0  0  0  0  0  0  0  0  0  0
   -0.5511   22.7296  -26.9083 H   0  0  0  0  0  0  0  0  0  0  0  0
    0.6226   24.0602  -27.1889 H   0  0  0  0  0  0  0  0  0  0  0  0
   -1.1407   24.4030  -27.1889 H   0  0  0  0  0  0  0  0  0  0  0  0
   -2.0110   22.1770  -30.2670 C   0  0  0  0  0  0  0  0  0  0  0  0
   -1.3990   21.2667  -30.1847 H   0  0  0  0  0  0  0  0  0  0  0  0
   -5.8030   18.7680  -33.2180 C   0  0  0  0  0  0  0  0  0  0  0  0
   -6.6130   18.9326  -32.4922 H   0  0  0  0  0  0  0  0  0  0  0  0
   -3.8190   15.0810  -34.4140 C   0  0  0  0  0  0  0  0  0  0  0  0
   -4.0157   15.5976  -35.3650 H   0  0  0  0  0  0  0  0  0  0  0  0
   -2.5070   14.6810  -34.0960 C   0  0  0  0  0  0  0  0  0  0  0  0
   -1.4250   14.9000  -34.9630 O   0  0  0  0  0  0  0  0  0  0  0  0
   -1.3890   14.4870  -36.3260 C   0  0  0  0  0  0  0  0  0  0  0  0
   -1.2936   13.3922  -36.3750 H   0  0  0  0  0  0  0  0  0  0  0  0
   -2.3176   14.7969  -36.8277 H   0  0  0  0  0  0  0  0  0  0  0  0
   -0.5281   14.9529  -36.8277 H   0  0  0  0  0  0  0  0  0  0  0  0
  1  2  1  0
  2  3  1  0
  3  4  2  0
  4  5  1  0
  4  6  1  0
  6  7  1  0
  6  8  2  0
  8  9  1  0
  9 10  1  0
  9 11  2  0
 11 12  1  0
 11 13  1  0
 13 14  2  0
 14 15  1  0
 15 16  1  0
 16 17  1  0
 17 18  1  0
 17 19  2  0
 19 20  1  0
 19 21  1  0
 21 22  2  0
 22 23  1  0
 22 24  1  0
 24 25  1  0
 25 26  1  0
 26 27  1  0
 26 28  1  0
 26 29  1  0
 24 30  2  0
 30 31  1  0
 30 32  1  0
 32 33  1  0
 33 34  1  0
 34 35  1  0
 34 36  1  0
 34 37  1  0
 32 38  2  0
 38 39  1  0
 16 40  2  0
 40 41  1  0
  8 42  1  0
 42 43  1  0
 42 44  2  0
 44 45  1  0
 45 46  1  0
 46 47  1  0
 46 48  1  0
 46 49  1  0
 44  3  1  0
 40 13  1  0
 38 21  1  0
M  CHG  1  31  -1
M  END
>  <UniqueID>  (37) 
35

>  <SMILES>  (37) 
COc1cc(/C=C\c2cc(/C=C/c3cc(OC)c([O-])c(OC)c3)on2)ccc1O

>  <Energy>  (37) 
89.49869176280906

>  <Genealogy>  (37) 
COc1cc(C=Cc2cc(C=Cc3cc(OC)c([O-])c(OC)c3)on2)ccc1O (protonated)
COc1cc(/C=C\c2cc(/C=C/c3cc(OC)c([O-])c(OC)c3)on2)ccc1O (cis-trans isomerization)
COc1cc(/C=C\c2cc(/C=C/c3cc(OC)c([O-])c(OC)c3)on2)ccc1O (3D coordinates assigned)
COc1cc(/C=C\c2cc(/C=C/c3cc(OC)c([O-])c(OC)c3)on2)ccc1O (optimized conformer: 89.49869176280906 kcal/mol)

>  <smiles>  (37) 
COc1cc(C=Cc2cc(C=Cc3cc(OC)c(O)c(OC)c3)on2)ccc1O

>  <score_type>  (37) 
oracle

>  <origin>  (37) 
adgpu

>  <m_score__min__energy>  (37) 
-10.23

>  <m_primary>  (37) 
energy

$$$$
37:0
     RDKit          3D

 33 34  0  0  0  0  0  0  0  0999 V2000
   -9.1150   18.6040  -31.9540 C   0  0  0  0  0  0  0  0  0  0  0  0
   -8.2930   19.8480  -32.1150 C   0  0  0  0  0  0  0  0  0  0  0  0
   -8.8320   21.0980  -31.7860 C   0  0  0  0  0  0  0  0  0  0  0  0
   -8.0610   22.2520  -31.9170 C   0  0  0  0  0  0  0  0  0  0  0  0
   -6.7350   22.1810  -32.3760 C   0  0  0  0  0  0  0  0  0  0  0  0
   -5.9530   23.3800  -32.4950 N   0  0  0  0  0  0  0  0  0  0  0  0
   -5.3530   24.2450  -31.1130 S   0  0  0  0  0  0  0  0  0  0  0  0
   -6.0360   23.5610  -29.6160 C   0  0  0  0  0  0  0  0  0  0  0  0
   -5.7700   25.6860  -31.2190 O   0  0  0  0  0  0  0  0  0  0  0  0
   -3.8490   24.1690  -31.0840 O   0  0  0  0  0  0  0  0  0  0  0  0
   -6.1770   20.9190  -32.6930 C   0  0  0  0  0  0  0  0  0  0  0  0
   -4.7940   20.7940  -33.2910 C   0  0  0  0  0  0  0  0  0  0  0  0
   -3.7820   21.1140  -32.2860 N   0  0  0  0  0  0  0  0  0  0  0  0
   -3.8900   20.9550  -30.9560 C   0  0  0  0  0  0  0  0  0  0  0  0
   -2.6860   21.3120  -30.3900 C   0  0  0  0  0  0  0  0  0  0  0  0
   -1.8270   21.6950  -31.3590 N   0  0  0  0  0  0  0  0  0  0  0  0
   -2.5310   21.5620  -32.5040 C   0  0  0  0  0  0  0  0  0  0  0  0
   -6.9640   19.7620  -32.5510 C   0  0  0  0  0  0  0  0  0  0  0  0
   -9.2546   18.3927  -30.8835 H   0  0  0  0  0  0  0  0  0  0  0  0
  -10.0960   18.7485  -32.4302 H   0  0  0  0  0  0  0  0  0  0  0  0
   -8.5973   17.7583  -32.4302 H   0  0  0  0  0  0  0  0  0  0  0  0
   -9.8678   21.1695  -31.4228 H   0  0  0  0  0  0  0  0  0  0  0  0
   -8.4955   23.2288  -31.6582 H   0  0  0  0  0  0  0  0  0  0  0  0
   -5.7690   23.7980  -33.4330 H   0  0  0  0  0  0  0  0  0  0  0  0
   -5.5609   24.0368  -28.7454 H   0  0  0  0  0  0  0  0  0  0  0  0
   -7.1199   23.7466  -29.5892 H   0  0  0  0  0  0  0  0  0  0  0  0
   -5.8488   22.4774  -29.5892 H   0  0  0  0  0  0  0  0  0  0  0  0
   -4.6423   19.7636  -33.6450 H   0  0  0  0  0  0  0  0  0  0  0  0
   -4.7006   21.4961  -34.1326 H   0  0  0  0  0  0  0  0  0  0  0  0
   -4.7810   20.6026  -30.4157 H   0  0  0  0  0  0  0  0  0  0  0  0
   -2.4591   21.2887  -29.3139 H   0  0  0  0  0  0  0  0  0  0  0  0
   -2.1282   21.7933  -33.5011 H   0  0  0  0  0  0  0  0  0  0  0  0
   -6.5312   18.7781  -32.7849 H   0  0  0  0  0  0  0  0  0  0  0  0
  1  2  1  0
  2  3  2  0
  3  4  1  0
  4  5  2  0
  5  6  1  0
  6  7  1  0
  7  8  1  0
  7  9  2  0
  7 10  2  0
  5 11  1  0
 11 12  1  0
 12 13  1  0
 13 14  1  0
 14 15  2  0
 15 16  1  0
 16 17  2  0
 11 18  2  0
 18  2  1  0
 17 13  1  0
  1 19  1  0
  1 20  1  0
  1 21  1  0
  3 22  1  0
  4 23  1  0
  6 24  1  0
  8 25  1  0
  8 26  1  0
  8 27  1  0
 12 28  1  0
 12 29  1  0
 14 30  1  0
 15 31  1  0
 17 32  1  0
 18 33  1  0
M  END
>  <UniqueID>  (38) 
36

>  <SMILES>  (38) 
Cc1ccc(NS(C)(=O)=O)c(Cn2ccnc2)c1

>  <Energy>  (38) 
59.97887338526515

>  <Genealogy>  (38) 
Cc1ccc(NS(C)(=O)=O)c(Cn2ccnc2)c1 (3D coordinates assigned)
Cc1ccc(NS(C)(=O)=O)c(Cn2ccnc2)c1 (optimized conformer: 59.97887338526515 kcal/mol)

>  <smiles>  (38) 
Cc1ccc(NS(C)(=O)=O)c(Cn2ccnc2)c1

>  <score_type>  (38) 
oracle

>  <origin>  (38) 
adgpu

>  <m_score__min__energy>  (38) 
-7.1699999999999999

>  <m_primary>  (38) 
energy

$$$$
38:0
     RDKit          3D

 45 48  0  0  0  0  0  0  0  0999 V2000
   -0.1680   23.0870  -24.1100 C   0  0  0  0  0  0  0  0  0  0  0  0
   -0.0540   22.5940  -25.4420 O   0  0  0  0  0  0  0  0  0  0  0  0
   -0.7410   23.1250  -26.5450 C   0  0  0  0  0  0  0  0  0  0  0  0
   -0.5930   22.6080  -27.8470 C   0  0  0  0  0  0  0  0  0  0  0  0
   -1.2860   23.1820  -28.9170 C   0  0  0  0  0  0  0  0  0  0  0  0
   -2.1360   24.2840  -28.7050 C   0  0  0  0  0  0  0  0  0  0  0  0
   -2.8440   24.9240  -29.7770 N   0  0  0  0  0  0  0  0  0  0  0  0
   -4.5010   24.6300  -30.1970 S   0  0  0  0  0  0  0  0  0  0  0  0
   -5.3460   24.7200  -28.9580 O   0  0  0  0  0  0  0  0  0  0  0  0
   -4.9580   25.6840  -31.1670 O   0  0  0  0  0  0  0  0  0  0  0  0
   -4.6720   23.0200  -30.8880 C   0  0  0  0  0  0  0  0  0  0  0  0
   -3.8410   21.9840  -30.4450 C   0  0  0  0  0  0  0  0  0  0  0  0
   -3.9700   20.6990  -30.9790 C   0  0  0  0  0  0  0  0  0  0  0  0
   -4.9330   20.4350  -31.9670 C   0  0  0  0  0  0  0  0  0  0  0  0
   -5.0810   19.0720  -32.5150 C   0  0  0  0  0  0  0  0  0  0  0  0
   -4.0260   18.2860  -32.8670 N   0  0  0  0  0  0  0  0  0  0  0  0
   -4.6370   17.1770  -33.3170 C   0  0  0  0  0  0  0  0  0  0  0  0
   -4.0480   16.0210  -33.8230 C   0  0  0  0  0  0  0  0  0  0  0  0
   -4.9030   14.9810  -34.2520 C   0  0  0  0  0  0  0  0  0  0  0  0
   -4.3080   13.7220  -34.8060 C   0  0  0  0  0  0  0  0  0  0  0  0
   -6.3130   15.1360  -34.1530 C   0  0  0  0  0  0  0  0  0  0  0  0
   -6.8690   16.3200  -33.6320 C   0  0  0  0  0  0  0  0  0  0  0  0
   -5.9890   17.3180  -33.2270 C   0  0  0  0  0  0  0  0  0  0  0  0
   -6.2570   18.4950  -32.7280 O   0  0  0  0  0  0  0  0  0  0  0  0
   -5.7610   21.4790  -32.4120 C   0  0  0  0  0  0  0  0  0  0  0  0
   -5.6320   22.7620  -31.8740 C   0  0  0  0  0  0  0  0  0  0  0  0
   -2.2830   24.7910  -27.4100 C   0  0  0  0  0  0  0  0  0  0  0  0
   -1.5930   24.2150  -26.3380 C   0  0  0  0  0  0  0  0  0  0  0  0
    0.0211   22.2693  -23.3989 H   0  0  0  0  0  0  0  0  0  0  0  0
    0.5685   23.8885  -23.9514 H   0  0  0  0  0  0  0  0  0  0  0  0
   -1.1816   23.4838  -23.9514 H   0  0  0  0  0  0  0  0  0  0  0  0
    0.0709   21.7487  -28.0226 H   0  0  0  0  0  0  0  0  0  0  0  0
   -1.1664   22.7703  -29.9300 H   0  0  0  0  0  0  0  0  0  0  0  0
   -3.0830   22.1824  -29.6730 H   0  0  0  0  0  0  0  0  0  0  0  0
   -3.3142   19.8904  -30.6239 H   0  0  0  0  0  0  0  0  0  0  0  0
   -2.9544   15.9209  -33.8866 H   0  0  0  0  0  0  0  0  0  0  0  0
   -3.9986   13.0674  -33.9779 H   0  0  0  0  0  0  0  0  0  0  0  0
   -5.0564   13.2035  -35.4234 H   0  0  0  0  0  0  0  0  0  0  0  0
   -3.4323   13.9710  -35.4234 H   0  0  0  0  0  0  0  0  0  0  0  0
   -6.9754   14.3236  -34.4865 H   0  0  0  0  0  0  0  0  0  0  0  0
   -7.9580   16.4507  -33.5484 H   0  0  0  0  0  0  0  0  0  0  0  0
   -6.5155   21.2852  -33.1887 H   0  0  0  0  0  0  0  0  0  0  0  0
   -6.2871   23.5724  -32.2264 H   0  0  0  0  0  0  0  0  0  0  0  0
   -2.9468   25.6500  -27.2328 H   0  0  0  0  0  0  0  0  0  0  0  0
   -1.7214   24.6224  -25.3243 H   0  0  0  0  0  0  0  0  0  0  0  0
  1  2  1  0
  2  3  1  0
  3  4  2  0
  4  5  1  0
  5  6  2  0
  6  7  1  0
  7  8  1  0
  8  9  2  0
  8 10  2  0
  8 11  1  0
 11 12  2  0
 12 13  1  0
 13 14  2  0
 14 15  1  0
 15 16  2  0
 16 17  1  0
 17 18  2  0
 18 19  1  0
 19 20  1  0
 19 21  2  0
 21 22  1  0
 22 23  2  0
 23 24  1  0
 14 25  1  0
 25 26  2  0
  6 27  1  0
 27 28  2  0
 28  3  1  0
 26 11  1  0
 24 15  1  0
 23 17  1  0
  1 29  1  0
  1 30  1  0
  1 31  1  0
  4 32  1  0
  5 33  1  0
 12 34  1  0
 13 35  1  0
 18 36  1  0
 20 37  1  0
 20 38  1  0
 20 39  1  0
 21 40  1  0
 22 41  1  0
 25 42  1  0
 26 43  1  0
 27 44  1  0
 28 45  1  0
M  CHG  1   7  -1
M  END
>  <UniqueID>  (39) 
37

>  <SMILES>  (39) 
COc1ccc([N-]S(=O)(=O)c2ccc(-c3nc4cc(C)ccc4o3)cc2)cc1

>  <Energy>  (39) 
89.03478062285

>  <Genealogy>  (39) 
COc1ccc([N-]S(=O)(=O)c2ccc(-c3nc4cc(C)ccc4o3)cc2)cc1 (protonated)
COc1ccc([N-]S(=O)(=O)c2ccc(-c3nc4cc(C)ccc4o3)cc2)cc1 (3D coordinates assigned)
COc1ccc([N-]S(=O)(=O)c2ccc(-c3nc4cc(C)ccc4o3)cc2)cc1 (optimized conformer: 89.03478062285 kcal/mol)

>  <smiles>  (39) 
COc1ccc(NS(=O)(=O)c2ccc(-c3nc4cc(C)ccc4o3)cc2)cc1

>  <score_type>  (39) 
oracle

>  <origin>  (39) 
adgpu

>  <m_score__min__energy>  (39) 
-9.5199999999999996

>  <m_primary>  (39) 
energy

$$$$
39:0
     RDKit          3D

 43 44  0  0  0  0  0  0  0  0999 V2000
   -2.1110   20.6160  -33.7830 N   0  0  0  0  0  0  0  0  0  0  0  0
   -1.6560   19.3020  -34.2370 C   0  0  0  0  0  0  0  0  0  0  0  0
   -2.6900   18.2120  -33.9230 C   0  0  0  0  0  0  0  0  0  0  0  0
   -3.4600   18.5440  -32.7660 O   0  0  0  0  0  0  0  0  0  0  0  0
   -4.8470   18.7700  -32.7460 C   0  0  0  0  0  0  0  0  0  0  0  0
   -5.7310   18.0070  -31.9590 C   0  0  0  0  0  0  0  0  0  0  0  0
   -7.1000   18.2870  -31.9670 C   0  0  0  0  0  0  0  0  0  0  0  0
   -7.6090   19.3260  -32.7600 C   0  0  0  0  0  0  0  0  0  0  0  0
   -9.0720   19.6690  -32.7200 C   0  0  0  0  0  0  0  0  0  0  0  0
   -9.3900   20.3100  -31.4360 N   0  0  0  0  0  0  0  0  0  0  0  0
   -8.2490   21.0690  -30.8940 C   0  0  0  0  0  0  0  0  0  0  0  0
   -8.3860   22.5520  -31.2550 C   0  0  0  0  0  0  0  0  0  0  0  0
   -7.0840   23.2900  -31.0810 C   0  0  0  0  0  0  0  0  0  0  0  0
   -7.0710   24.5910  -30.5550 C   0  0  0  0  0  0  0  0  0  0  0  0
   -5.8590   25.2580  -30.3510 C   0  0  0  0  0  0  0  0  0  0  0  0
   -4.6490   24.6280  -30.6600 C   0  0  0  0  0  0  0  0  0  0  0  0
   -3.4510   25.2980  -30.4460 O   0  0  0  0  0  0  0  0  0  0  0  0
   -4.6520   23.3250  -31.1780 C   0  0  0  0  0  0  0  0  0  0  0  0
   -3.1410   22.5050  -31.5420 Cl  0  0  0  0  0  0  0  0  0  0  0  0
   -5.8650   22.6590  -31.3840 C   0  0  0  0  0  0  0  0  0  0  0  0
   -6.7300   20.0770  -33.5530 C   0  0  0  0  0  0  0  0  0  0  0  0
   -5.3600   19.7960  -33.5470 C   0  0  0  0  0  0  0  0  0  0  0  0
   -2.2880   21.2410  -34.6030 H   0  0  0  0  0  0  0  0  0  0  0  0
   -3.0020   20.5030  -33.2490 H   0  0  0  0  0  0  0  0  0  0  0  0
   -1.3940   21.0500  -33.1560 H   0  0  0  0  0  0  0  0  0  0  0  0
   -1.4910   19.3363  -35.3240 H   0  0  0  0  0  0  0  0  0  0  0  0
   -0.7232   19.0569  -33.7081 H   0  0  0  0  0  0  0  0  0  0  0  0
   -3.3661   18.1011  -34.7835 H   0  0  0  0  0  0  0  0  0  0  0  0
   -2.1541   17.2720  -33.7251 H   0  0  0  0  0  0  0  0  0  0  0  0
   -5.3426   17.1879  -31.3359 H   0  0  0  0  0  0  0  0  0  0  0  0
   -7.7834   17.6883  -31.3469 H   0  0  0  0  0  0  0  0  0  0  0  0
   -9.3095   20.3590  -33.5431 H   0  0  0  0  0  0  0  0  0  0  0  0
   -9.6671   18.7503  -32.8285 H   0  0  0  0  0  0  0  0  0  0  0  0
   -9.6510   19.5600  -30.7520 H   0  0  0  0  0  0  0  0  0  0  0  0
   -8.2269   20.9612  -29.7995 H   0  0  0  0  0  0  0  0  0  0  0  0
   -7.3168   20.6770  -31.3268 H   0  0  0  0  0  0  0  0  0  0  0  0
   -8.7058   22.6355  -32.3042 H   0  0  0  0  0  0  0  0  0  0  0  0
   -9.1285   23.0023  -30.5798 H   0  0  0  0  0  0  0  0  0  0  0  0
   -8.0189   25.0885  -30.3019 H   0  0  0  0  0  0  0  0  0  0  0  0
   -5.8572   26.2809  -29.9464 H   0  0  0  0  0  0  0  0  0  0  0  0
   -5.8648   21.6350  -31.7857 H   0  0  0  0  0  0  0  0  0  0  0  0
   -7.1195   20.8906  -34.1825 H   0  0  0  0  0  0  0  0  0  0  0  0
   -4.6796   20.3870  -34.1777 H   0  0  0  0  0  0  0  0  0  0  0  0
  1  2  1  0
  2  3  1  0
  3  4  1  0
  4  5  1  0
  5  6  2  0
  6  7  1  0
  7  8  2  0
  8  9  1  0
  9 10  1  0
 10 11  1  0
 11 12  1  0
 12 13  1  0
 13 14  2  0
 14 15  1  0
 15 16  2  0
 16 17  1  0
 16 18  1  0
 18 19  1  0
 18 20  2  0
  8 21  1  0
 21 22  2  0
 22  5  1  0
 20 13  1  0
  1 23  1  0
  1 24  1  0
  1 25  1  0
  2 26  1  0
  2 27  1  0
  3 28  1  0
  3 29  1  0
  6 30  1  0
  7 31  1  0
  9 32  1  0
  9 33  1  0
 10 34  1  0
 11 35  1  0
 11 36  1  0
 12 37  1  0
 12 38  1  0
 14 39  1  0
 15 40  1  0
 20 41  1  0
 21 42  1  0
 22 43  1  0
M  CHG  2   1   1  17  -1
M  END
>  <UniqueID>  (40) 
38

>  <SMILES>  (40) 
[NH3+]CCOc1ccc(CNCCc2ccc([O-])c(Cl)c2)cc1

>  <Energy>  (40) 
36.02654231791424

>  <Genealogy>  (40) 
[NH3+]CCOc1ccc(CNCCc2ccc([O-])c(Cl)c2)cc1 (protonated)
[NH3+]CCOc1ccc(CNCCc2ccc([O-])c(Cl)c2)cc1 (3D coordinates assigned)
[NH3+]CCOc1ccc(CNCCc2ccc([O-])c(Cl)c2)cc1 (optimized conformer: 36.02654231791424 kcal/mol)

>  <smiles>  (40) 
NCCOc1ccc(CNCCc2ccc(O)c(Cl)c2)cc1

>  <score_type>  (40) 
oracle

>  <origin>  (40) 
adgpu

>  <m_score__min__energy>  (40) 
-9.7799999999999994

>  <m_primary>  (40) 
energy

$$$$
40:0
     RDKit          3D

 49 52  0  0  1  0  0  0  0  0999 V2000
   -0.1150   23.1350  -35.8010 N   0  0  0  0  0  0  0  0  0  0  0  0
    0.9970   22.3290  -35.3960 C   0  0  0  0  0  0  0  0  0  0  0  0
    2.0170   22.9230  -35.0030 O   0  0  0  0  0  0  0  0  0  0  0  0
    0.8820   20.8930  -35.4640 C   0  0  0  0  0  0  0  0  0  0  0  0
    1.8040   20.1040  -36.1090 C   0  0  0  0  0  0  0  0  0  0  0  0
    1.6060   18.7410  -36.1190 C   0  0  0  0  0  0  0  0  0  0  0  0
    0.5310   18.1210  -35.5180 C   0  0  0  0  0  0  0  0  0  0  0  0
   -0.3820   18.9170  -34.8800 C   0  0  0  0  0  0  0  0  0  0  0  0
   -1.4710   18.3350  -34.2670 C   0  0  0  0  0  0  0  0  0  0  0  0
   -1.6750   17.1120  -34.2610 N   0  0  0  0  0  0  0  0  0  0  0  0
   -2.5920   16.2070  -33.7850 C   0  0  0  0  0  0  0  0  0  0  0  0
   -4.0310   16.3050  -33.8600 C   0  0  0  0  0  0  0  0  0  0  0  0
   -4.7830   15.1770  -34.1570 C   0  0  0  0  0  0  0  0  0  0  0  0
   -6.1610   15.1900  -34.2130 C   0  0  0  0  0  0  0  0  0  0  0  0
   -6.8660   16.3540  -33.9700 C   0  0  0  0  0  0  0  0  0  0  0  0
   -6.1510   17.4760  -33.6770 C   0  0  0  0  0  0  0  0  0  0  0  0
   -6.8850   18.6840  -33.4240 N   0  0  0  0  0  0  0  0  0  0  0  0
   -6.2520   19.7350  -32.7280 C   0  0  0  0  0  0  0  0  0  0  0  0
   -5.0610   19.6050  -32.3400 O   0  0  0  0  0  0  0  0  0  0  0  0
   -6.9180   20.9990  -32.4250 C   0  0  0  0  0  0  0  0  0  0  0  0
   -8.2880   20.9840  -32.2380 C   0  0  0  0  0  0  0  0  0  0  0  0
   -9.0030   22.1480  -31.9450 C   0  0  0  0  0  0  0  0  0  0  0  0
   -8.3210   23.3420  -31.8380 C   0  0  0  0  0  0  0  0  0  0  0  0
   -6.9530   23.3610  -32.0230 C   0  0  0  0  0  0  0  0  0  0  0  0
   -6.3040   24.5560  -31.9130 F   0  0  0  0  0  0  0  0  0  0  0  0
   -6.2700   22.1970  -32.3130 C   0  0  0  0  0  0  0  0  0  0  0  0
   -4.7740   17.4630  -33.6200 C   0  0  0  0  0  0  0  0  0  0  0  0
   -2.3460   19.1360  -33.6510 N   0  0  0  0  0  0  0  0  0  0  0  0
   -2.1810   20.4560  -33.6240 C   0  0  0  0  0  0  0  0  0  0  0  0
   -1.1170   21.0160  -34.2230 N   0  0  0  0  0  0  0  0  0  0  0  0
   -0.1840   20.2750  -34.8690 C   0  0  0  0  0  0  0  0  0  0  0  0
   -0.0630   23.7680  -36.6350 H   0  0  0  0  0  0  0  0  0  0  0  0
   -0.9810   23.0470  -35.2040 H   0  0  0  0  0  0  0  0  0  0  0  0
    2.6786   20.5500  -36.6051 H   0  0  0  0  0  0  0  0  0  0  0  0
    2.3465   18.1122  -36.6350 H   0  0  0  0  0  0  0  0  0  0  0  0
    0.4115   17.0280  -35.5500 H   0  0  0  0  0  0  0  0  0  0  0  0
   -2.3458   15.2618  -34.2909 H   0  0  0  0  0  0  0  0  0  0  0  0
   -2.4601   16.3736  -32.7057 H   0  0  0  0  0  0  0  0  0  0  0  0
   -4.2572   14.2316  -34.3564 H   0  0  0  0  0  0  0  0  0  0  0  0
   -6.7047   14.2645  -34.4535 H   0  0  0  0  0  0  0  0  0  0  0  0
   -7.9650   16.3736  -34.0117 H   0  0  0  0  0  0  0  0  0  0  0  0
   -7.8740   18.7810  -33.7500 H   0  0  0  0  0  0  0  0  0  0  0  0
   -8.8293   20.0301  -32.3222 H   0  0  0  0  0  0  0  0  0  0  0  0
  -10.0931   22.1127  -31.8019 H   0  0  0  0  0  0  0  0  0  0  0  0
   -8.8625   24.2713  -31.6072 H   0  0  0  0  0  0  0  0  0  0  0  0
   -5.1801   22.2345  -32.4571 H   0  0  0  0  0  0  0  0  0  0  0  0
   -4.2428   18.3952  -33.3775 H   0  0  0  0  0  0  0  0  0  0  0  0
   -3.1520   18.7210  -33.1960 H   0  0  0  0  0  0  0  0  0  0  0  0
   -2.9179   21.0905  -33.1098 H   0  0  0  0  0  0  0  0  0  0  0  0
  1  2  1  0
  2  3  2  0
  2  4  1  0
  4  5  2  0
  5  6  1  0
  6  7  2  0
  7  8  1  0
  8  9  1  0
  9 10  2  0
 10 11  1  0
 11 12  1  0
 12 13  2  0
 13 14  1  0
 14 15  2  0
 15 16  1  0
 16 17  1  0
 17 18  1  0
 18 19  2  0
 18 20  1  0
 20 21  2  0
 21 22  1  0
 22 23  2  0
 23 24  1  0
 24 25  1  0
 24 26  2  0
 16 27  2  0
  9 28  1  0
 28 29  1  0
 29 30  2  0
 30 31  1  0
 31  4  1  0
 31  8  2  0
 27 12  1  0
 26 20  1  0
  1 32  1  0
  1 33  1  0
  5 34  1  0
  6 35  1  0
  7 36  1  0
 11 37  1  0
 11 38  1  0
 13 39  1  0
 14 40  1  0
 15 41  1  0
 17 42  1  0
 21 43  1  0
 22 44  1  0
 23 45  1  0
 26 46  1  0
 27 47  1  0
 28 48  1  0
 29 49  1  0
M  END
>  <smiles>  (41) 
NC(=O)c1cccc2c(=NCc3cccc(NC(=O)c4cccc(F)c4)c3)[nH]cnc12

>  <score_type>  (41) 
oracle

>  <origin>  (41) 
adgpu

>  <m_score__min__energy>  (41) 
-9.5500000000000007

>  <m_primary>  (41) 
energy

$$$$
41:0
     RDKit          3D

 24 25  0  0  0  0  0  0  0  0999 V2000
   -5.3150   24.8400  -28.6040 N   0  0  0  0  0  0  0  0  0  0  0  0
   -4.4210   24.0500  -29.3990 C   0  0  0  0  0  0  0  0  0  0  0  0
   -3.2620   23.5210  -28.8160 C   0  0  0  0  0  0  0  0  0  0  0  0
   -2.3730   22.7660  -29.5800 C   0  0  0  0  0  0  0  0  0  0  0  0
   -2.6490   22.5460  -30.9290 C   0  0  0  0  0  0  0  0  0  0  0  0
   -3.7780   23.0590  -31.4840 N   0  0  0  0  0  0  0  0  0  0  0  0
   -4.6690   23.7930  -30.7640 C   0  0  0  0  0  0  0  0  0  0  0  0
   -6.1400   24.4030  -31.5940 S   0  0  0  0  0  0  0  0  0  0  0  0
   -6.8700   22.7690  -31.6970 C   0  0  0  0  0  0  0  0  0  0  0  0
   -6.2210   21.7490  -32.4040 C   0  0  0  0  0  0  0  0  0  0  0  0
   -6.7960   20.4770  -32.4860 C   0  0  0  0  0  0  0  0  0  0  0  0
   -8.0190   20.2180  -31.8560 C   0  0  0  0  0  0  0  0  0  0  0  0
   -8.7400   18.6220  -31.9600 Cl  0  0  0  0  0  0  0  0  0  0  0  0
   -8.6650   21.2340  -31.1440 C   0  0  0  0  0  0  0  0  0  0  0  0
   -8.0910   22.5070  -31.0620 C   0  0  0  0  0  0  0  0  0  0  0  0
   -6.3230   24.5780  -28.5230 H   0  0  0  0  0  0  0  0  0  0  0  0
   -4.9880   25.6710  -28.0660 H   0  0  0  0  0  0  0  0  0  0  0  0
   -3.0526   23.7020  -27.7514 H   0  0  0  0  0  0  0  0  0  0  0  0
   -1.4636   22.3483  -29.1234 H   0  0  0  0  0  0  0  0  0  0  0  0
   -1.9526   21.9570  -31.5439 H   0  0  0  0  0  0  0  0  0  0  0  0
   -5.2574   21.9488  -32.8956 H   0  0  0  0  0  0  0  0  0  0  0  0
   -6.2867   19.6790  -33.0462 H   0  0  0  0  0  0  0  0  0  0  0  0
   -9.6257   21.0317  -30.6479 H   0  0  0  0  0  0  0  0  0  0  0  0
   -8.5990   23.3033  -30.4982 H   0  0  0  0  0  0  0  0  0  0  0  0
  1  2  1  0
  2  3  2  0
  3  4  1  0
  4  5  2  0
  5  6  1  0
  6  7  2  0
  7  8  1  0
  8  9  1  0
  9 10  2  0
 10 11  1  0
 11 12  2  0
 12 13  1  0
 12 14  1  0
 14 15  2  0
  7  2  1  0
 15  9  1  0
  1 16  1  0
  1 17  1  0
  3 18  1  0
  4 19  1  0
  5 20  1  0
 10 21  1  0
 11 22  1  0
 14 23  1  0
 15 24  1  0
M  END
>  <UniqueID>  (42) 
39

>  <SMILES>  (42) 
Nc1cccnc1Sc1ccc(Cl)cc1

>  <Energy>  (42) 
21.351300987716822

>  <Genealogy>  (42) 
Nc1cccnc1Sc1ccc(Cl)cc1 (3D coordinates assigned)
Nc1cccnc1Sc1ccc(Cl)cc1 (optimized conformer: 21.351300987716822 kcal/mol)

>  <smiles>  (42) 
Nc1cccnc1Sc1ccc(Cl)cc1

>  <score_type>  (42) 
oracle

>  <origin>  (42) 
adgpu

>  <m_score__min__energy>  (42) 
-6.8200000000000003

>  <m_primary>  (42) 
energy

$$$$
42:0
     RDKit          3D

 45 47  0  0  0  0  0  0  0  0999 V2000
   -6.4400   14.2960  -34.2400 C   0  0  0  0  0  0  0  0  0  0  0  0
   -7.1380   15.4940  -33.9180 O   0  0  0  0  0  0  0  0  0  0  0  0
   -6.5290   16.7470  -33.7560 C   0  0  0  0  0  0  0  0  0  0  0  0
   -6.9780   17.5770  -32.7220 C   0  0  0  0  0  0  0  0  0  0  0  0
   -6.3980   18.8310  -32.5140 C   0  0  0  0  0  0  0  0  0  0  0  0
   -5.3630   19.2790  -33.3490 C   0  0  0  0  0  0  0  0  0  0  0  0
   -4.7380   20.6250  -33.1160 C   0  0  0  0  0  0  0  0  0  0  0  0
   -2.9190   20.5140  -33.2100 S   0  0  0  0  0  0  0  0  0  0  0  0
   -2.6320   21.5160  -31.7540 C   0  0  0  0  0  0  0  0  0  0  0  0
   -1.7750   21.0890  -30.7910 N   0  0  0  0  0  0  0  0  0  0  0  0
   -1.5260   21.8500  -29.6930 C   0  0  0  0  0  0  0  0  0  0  0  0
   -0.7320   21.4340  -28.8090 O   0  0  0  0  0  0  0  0  0  0  0  0
   -2.1480   23.0930  -29.5520 C   0  0  0  0  0  0  0  0  0  0  0  0
   -3.0240   23.5180  -30.5520 C   0  0  0  0  0  0  0  0  0  0  0  0
   -3.6510   24.8000  -30.4470 N   0  0  0  0  0  0  0  0  0  0  0  0
   -5.2670   25.0460  -29.8690 S   0  0  0  0  0  0  0  0  0  0  0  0
   -5.2680   24.9290  -28.3710 O   0  0  0  0  0  0  0  0  0  0  0  0
   -5.7230   26.4250  -30.2510 O   0  0  0  0  0  0  0  0  0  0  0  0
   -6.3770   23.8730  -30.5770 C   0  0  0  0  0  0  0  0  0  0  0  0
   -7.1710   23.0590  -29.7570 C   0  0  0  0  0  0  0  0  0  0  0  0
   -7.9880   22.0760  -30.3210 C   0  0  0  0  0  0  0  0  0  0  0  0
   -8.0380   21.9130  -31.7140 C   0  0  0  0  0  0  0  0  0  0  0  0
   -8.8770   20.8280  -32.3210 C   0  0  0  0  0  0  0  0  0  0  0  0
   -7.2470   22.7310  -32.5330 C   0  0  0  0  0  0  0  0  0  0  0  0
   -6.4270   23.7120  -31.9670 C   0  0  0  0  0  0  0  0  0  0  0  0
   -3.2500   22.7180  -31.6280 N   0  0  0  0  0  0  0  0  0  0  0  0
   -4.9050   18.4480  -34.3820 C   0  0  0  0  0  0  0  0  0  0  0  0
   -5.4820   17.1910  -34.5870 C   0  0  0  0  0  0  0  0  0  0  0  0
   -6.1421   13.7847  -33.3127 H   0  0  0  0  0  0  0  0  0  0  0  0
   -7.0953   13.6366  -34.8281 H   0  0  0  0  0  0  0  0  0  0  0  0
   -5.5432   14.5409  -34.8281 H   0  0  0  0  0  0  0  0  0  0  0  0
   -7.7948   17.2389  -32.0674 H   0  0  0  0  0  0  0  0  0  0  0  0
   -6.7542   19.4697  -31.6923 H   0  0  0  0  0  0  0  0  0  0  0  0
   -5.0973   21.3278  -33.8821 H   0  0  0  0  0  0  0  0  0  0  0  0
   -5.0202   20.9780  -32.1131 H   0  0  0  0  0  0  0  0  0  0  0  0
   -1.9516   23.7231  -28.6720 H   0  0  0  0  0  0  0  0  0  0  0  0
   -7.1507   23.1948  -28.6656 H   0  0  0  0  0  0  0  0  0  0  0  0
   -8.5941   21.4277  -29.6711 H   0  0  0  0  0  0  0  0  0  0  0  0
   -9.3389   20.2307  -31.5210 H   0  0  0  0  0  0  0  0  0  0  0  0
   -9.6642   21.2782  -32.9436 H   0  0  0  0  0  0  0  0  0  0  0  0
   -8.2432   20.1794  -32.9436 H   0  0  0  0  0  0  0  0  0  0  0  0
   -7.2716   22.6006  -33.6250 H   0  0  0  0  0  0  0  0  0  0  0  0
   -5.8191   24.3595  -32.6160 H   0  0  0  0  0  0  0  0  0  0  0  0
   -4.0871   18.7872  -35.0347 H   0  0  0  0  0  0  0  0  0  0  0  0
   -5.1169   16.5465  -35.4002 H   0  0  0  0  0  0  0  0  0  0  0  0
  1  2  1  0
  2  3  1  0
  3  4  2  0
  4  5  1  0
  5  6  2  0
  6  7  1  0
  7  8  1  0
  8  9  1  0
  9 10  2  0
 10 11  1  0
 11 12  2  0
 11 13  1  0
 13 14  2  0
 14 15  1  0
 15 16  1  0
 16 17  2  0
 16 18  2  0
 16 19  1  0
 19 20  2  0
 20 21  1  0
 21 22  2  0
 22 23  1  0
 22 24  1  0
 24 25  2  0
 14 26  1  0
  6 27  1  0
 27 28  2  0
 28  3  1  0
 26  9  1  0
 25 19  1  0
  1 29  1  0
  1 30  1  0
  1 31  1  0
  4 32  1  0
  5 33  1  0
  7 34  1  0
  7 35  1  0
 13 36  1  0
 20 37  1  0
 21 38  1  0
 23 39  1  0
 23 40  1  0
 23 41  1  0
 24 42  1  0
 25 43  1  0
 27 44  1  0
 28 45  1  0
M  CHG  2  15  -1  26  -1
M  END
>  <UniqueID>  (43) 
40

>  <SMILES>  (43) 
COc1ccc(CSc2nc(=O)cc([N-]S(=O)(=O)c3ccc(C)cc3)[n-]2)cc1

>  <Energy>  (43) 
39.469005529732634

>  <Genealogy>  (43) 
COc1ccc(CSc2nc(=O)cc([N-]S(=O)(=O)c3ccc(C)cc3)[n-]2)cc1 (protonated)
COc1ccc(CSc2nc(=O)cc([N-]S(=O)(=O)c3ccc(C)cc3)[n-]2)cc1 (3D coordinates assigned)
COc1ccc(CSc2nc(=O)cc([N-]S(=O)(=O)c3ccc(C)cc3)[n-]2)cc1 (optimized conformer: 39.469005529732634 kcal/mol)

>  <smiles>  (43) 
COc1ccc(CSc2nc(=O)cc(NS(=O)(=O)c3ccc(C)cc3)[nH]2)cc1

>  <score_type>  (43) 
oracle

>  <origin>  (43) 
adgpu

>  <m_score__min__energy>  (43) 
-11.57

>  <m_primary>  (43) 
energy

$$$$
43:0
     RDKit          3D

 34 36  0  0  0  0  0  0  0  0999 V2000
   -3.9320   25.3710  -30.8270 O   0  0  0  0  0  0  0  0  0  0  0  0
   -4.6210   24.2360  -30.1210 S   0  0  0  0  0  0  0  0  0  0  0  0
   -6.0840   24.5560  -29.9910 O   0  0  0  0  0  0  0  0  0  0  0  0
   -3.9340   24.0560  -28.5400 N   0  0  0  0  0  0  0  0  0  0  0  0
   -2.7930   24.5700  -28.2010 C   0  0  0  0  0  0  0  0  0  0  0  0
   -2.0170   25.2980  -29.0330 N   0  0  0  0  0  0  0  0  0  0  0  0
   -0.8750   25.7040  -28.4150 C   0  0  0  0  0  0  0  0  0  0  0  0
   -0.7440   25.2970  -27.0910 C   0  0  0  0  0  0  0  0  0  0  0  0
   -2.1060   24.3970  -26.6800 S   0  0  0  0  0  0  0  0  0  0  0  0
   -4.4400   22.7400  -31.0310 C   0  0  0  0  0  0  0  0  0  0  0  0
   -4.7420   22.6970  -32.3980 C   0  0  0  0  0  0  0  0  0  0  0  0
   -4.5900   21.5080  -33.1160 C   0  0  0  0  0  0  0  0  0  0  0  0
   -4.1400   20.3390  -32.4730 C   0  0  0  0  0  0  0  0  0  0  0  0
   -3.9780   19.0950  -33.1780 N   0  0  0  0  0  0  0  0  0  0  0  0
   -5.2980   18.1020  -33.7100 S   0  0  0  0  0  0  0  0  0  0  0  0
   -5.0850   16.6940  -33.2320 O   0  0  0  0  0  0  0  0  0  0  0  0
   -5.3500   18.1080  -35.2130 O   0  0  0  0  0  0  0  0  0  0  0  0
   -6.8040   18.7040  -33.0450 C   0  0  0  0  0  0  0  0  0  0  0  0
   -7.3800   19.9320  -33.3320 C   0  0  0  0  0  0  0  0  0  0  0  0
   -8.5960   20.1310  -32.6690 C   0  0  0  0  0  0  0  0  0  0  0  0
   -8.9750   19.0620  -31.8650 C   0  0  0  0  0  0  0  0  0  0  0  0
   -7.7950   17.8660  -31.9800 S   0  0  0  0  0  0  0  0  0  0  0  0
   -3.8390   20.3920  -31.1030 C   0  0  0  0  0  0  0  0  0  0  0  0
   -3.9900   21.5820  -30.3860 C   0  0  0  0  0  0  0  0  0  0  0  0
   -0.1112   26.3096  -28.9247 H   0  0  0  0  0  0  0  0  0  0  0  0
    0.1033   25.5241  -26.4273 H   0  0  0  0  0  0  0  0  0  0  0  0
   -5.1003   23.6031  -32.9085 H   0  0  0  0  0  0  0  0  0  0  0  0
   -4.8234   21.4851  -34.1907 H   0  0  0  0  0  0  0  0  0  0  0  0
   -3.0150   18.7180  -33.3260 H   0  0  0  0  0  0  0  0  0  0  0  0
   -6.9287   20.6718  -34.0095 H   0  0  0  0  0  0  0  0  0  0  0  0
   -9.1957   21.0471  -32.7740 H   0  0  0  0  0  0  0  0  0  0  0  0
   -9.8901   19.0068  -31.2571 H   0  0  0  0  0  0  0  0  0  0  0  0
   -3.4808   19.4880  -30.5887 H   0  0  0  0  0  0  0  0  0  0  0  0
   -3.7546   21.6088  -29.3118 H   0  0  0  0  0  0  0  0  0  0  0  0
  1  2  2  0
  2  3  2  0
  2  4  1  0
  4  5  2  3
  5  6  1  0
  6  7  1  0
  7  8  2  0
  8  9  1  0
  2 10  1  0
 10 11  2  0
 11 12  1  0
 12 13  2  0
 13 14  1  0
 14 15  1  0
 15 16  2  0
 15 17  2  0
 15 18  1  0
 18 19  2  0
 19 20  1  0
 20 21  2  0
 21 22  1  0
 13 23  1  0
 23 24  2  0
  9  5  1  0
 24 10  1  0
 22 18  1  0
  7 25  1  0
  8 26  1  0
 11 27  1  0
 12 28  1  0
 14 29  1  0
 19 30  1  0
 20 31  1  0
 21 32  1  0
 23 33  1  0
 24 34  1  0
M  CHG  1   6  -1
M  END
>  <UniqueID>  (44) 
41

>  <SMILES>  (44) 
O=S(=O)(N=c1[n-]ccs1)c1ccc(NS(=O)(=O)c2cccs2)cc1

>  <Energy>  (44) 
97.72484971861621

>  <Genealogy>  (44) 
O=S(=O)(N=c1[n-]ccs1)c1ccc(NS(=O)(=O)c2cccs2)cc1 (protonated)
O=S(=O)(N=c1[n-]ccs1)c1ccc(NS(=O)(=O)c2cccs2)cc1 (3D coordinates assigned)
O=S(=O)(N=c1[n-]ccs1)c1ccc(NS(=O)(=O)c2cccs2)cc1 (optimized conformer: 97.72484971861621 kcal/mol)

>  <smiles>  (44) 
O=S(=O)(N=c1[nH]ccs1)c1ccc(NS(=O)(=O)c2cccs2)cc1

>  <score_type>  (44) 
oracle

>  <origin>  (44) 
adgpu

>  <m_score__min__energy>  (44) 
-10.4

>  <m_primary>  (44) 
energy

$$$$
44:0
     RDKit          3D

 39 41  0  0  0  0  0  0  0  0999 V2000
   -9.1000   18.4910  -31.9360 C   0  0  0  0  0  0  0  0  0  0  0  0
   -9.1050   19.8730  -32.2730 O   0  0  0  0  0  0  0  0  0  0  0  0
   -8.1510   20.8000  -31.8260 C   0  0  0  0  0  0  0  0  0  0  0  0
   -8.4450   21.7770  -30.8540 C   0  0  0  0  0  0  0  0  0  0  0  0
   -7.4610   22.6790  -30.4420 C   0  0  0  0  0  0  0  0  0  0  0  0
   -6.1680   22.6250  -30.9910 C   0  0  0  0  0  0  0  0  0  0  0  0
   -5.1270   23.5810  -30.5540 C   0  0  0  0  0  0  0  0  0  0  0  0
   -4.8350   24.7230  -31.2080 N   0  0  0  0  0  0  0  0  0  0  0  0
   -3.8640   25.3110  -30.5320 N   0  0  0  0  0  0  0  0  0  0  0  0
   -3.5910   24.5120  -29.4870 C   0  0  0  0  0  0  0  0  0  0  0  0
   -2.3370   24.8750  -28.2640 S   0  0  0  0  0  0  0  0  0  0  0  0
   -1.9860   23.1180  -27.9360 C   0  0  0  0  0  0  0  0  0  0  0  0
   -1.3900   22.4980  -29.1580 C   0  0  0  0  0  0  0  0  0  0  0  0
   -0.1400   22.5400  -29.3260 O   0  0  0  0  0  0  0  0  0  0  0  0
   -2.2380   21.8560  -30.1230 N   0  0  0  0  0  0  0  0  0  0  0  0
   -1.8030   21.4360  -31.4270 C   0  0  0  0  0  0  0  0  0  0  0  0
   -0.5090   20.9150  -31.5860 C   0  0  0  0  0  0  0  0  0  0  0  0
   -0.0710   20.4780  -32.8400 C   0  0  0  0  0  0  0  0  0  0  0  0
   -0.9260   20.5420  -33.9430 C   0  0  0  0  0  0  0  0  0  0  0  0
   -2.2240   21.0370  -33.7900 C   0  0  0  0  0  0  0  0  0  0  0  0
   -2.6650   21.4760  -32.5390 C   0  0  0  0  0  0  0  0  0  0  0  0
   -4.3610   23.4090  -29.4570 N   0  0  0  0  0  0  0  0  0  0  0  0
   -5.8790   21.6500  -31.9600 C   0  0  0  0  0  0  0  0  0  0  0  0
   -6.8640   20.7480  -32.3710 C   0  0  0  0  0  0  0  0  0  0  0  0
   -9.0996   18.3805  -30.8416 H   0  0  0  0  0  0  0  0  0  0  0  0
   -9.9964   18.0087  -32.3529 H   0  0  0  0  0  0  0  0  0  0  0  0
   -8.2001   18.0152  -32.3529 H   0  0  0  0  0  0  0  0  0  0  0  0
   -9.4535   21.8296  -30.4179 H   0  0  0  0  0  0  0  0  0  0  0  0
   -7.6999   23.4375  -29.6820 H   0  0  0  0  0  0  0  0  0  0  0  0
   -1.2775   23.0347  -27.0987 H   0  0  0  0  0  0  0  0  0  0  0  0
   -2.9196   22.5975  -27.6762 H   0  0  0  0  0  0  0  0  0  0  0  0
   -3.2100   21.6130  -29.8290 H   0  0  0  0  0  0  0  0  0  0  0  0
    0.1645   20.8502  -30.7187 H   0  0  0  0  0  0  0  0  0  0  0  0
    0.9488   20.0830  -32.9582 H   0  0  0  0  0  0  0  0  0  0  0  0
   -0.5782   20.2034  -34.9301 H   0  0  0  0  0  0  0  0  0  0  0  0
   -2.9001   21.0811  -34.6566 H   0  0  0  0  0  0  0  0  0  0  0  0
   -3.6911   21.8548  -32.4225 H   0  0  0  0  0  0  0  0  0  0  0  0
   -4.8714   21.5962  -32.3979 H   0  0  0  0  0  0  0  0  0  0  0  0
   -6.6247   19.9894  -33.1308 H   0  0  0  0  0  0  0  0  0  0  0  0
  1  2  1  0
  2  3  1  0
  3  4  2  0
  4  5  1  0
  5  6  2  0
  6  7  1  0
  7  8  2  0
  8  9  1  0
  9 10  1  0
 10 11  1  0
 11 12  1  0
 12 13  1  0
 13 14  2  0
 13 15  1  0
 15 16  1  0
 16 17  2  0
 17 18  1  0
 18 19  2  0
 19 20  1  0
 20 21  2  0
 10 22  2  0
  6 23  1  0
 23 24  2  0
 24  3  1  0
 22  7  1  0
 21 16  1  0
  1 25  1  0
  1 26  1  0
  1 27  1  0
  4 28  1  0
  5 29  1  0
 12 30  1  0
 12 31  1  0
 15 32  1  0
 17 33  1  0
 18 34  1  0
 19 35  1  0
 20 36  1  0
 21 37  1  0
 23 38  1  0
 24 39  1  0
M  CHG  1   9  -1
M  END
>  <UniqueID>  (45) 
42

>  <SMILES>  (45) 
COc1ccc(-c2n[n-]c(SCC(=O)Nc3ccccc3)n2)cc1

>  <Energy>  (45) 
71.44962775454141

>  <Genealogy>  (45) 
COc1ccc(-c2n[n-]c(SCC(=O)Nc3ccccc3)n2)cc1 (protonated)
COc1ccc(-c2n[n-]c(SCC(=O)Nc3ccccc3)n2)cc1 (3D coordinates assigned)
COc1ccc(-c2n[n-]c(SCC(=O)Nc3ccccc3)n2)cc1 (optimized conformer: 71.44962775454141 kcal/mol)

>  <smiles>  (45) 
COc1ccc(-c2n[nH]c(SCC(=O)Nc3ccccc3)n2)cc1

>  <score_type>  (45) 
oracle

>  <origin>  (45) 
adgpu

>  <m_score__min__energy>  (45) 
-8.6099999999999994

>  <m_primary>  (45) 
energy

$$$$
45:0
     RDKit          3D

 75 80  0  0  0  0  0  0  0  0999 V2000
   -5.3710   15.7760  -33.4230 C   0  0  0  0  0  0  0  0  0  0  0  0
   -6.5180   16.7620  -33.6210 C   0  0  0  0  0  0  0  0  0  0  0  0
   -6.8520   17.5020  -32.3180 C   0  0  0  0  0  0  0  0  0  0  0  0
   -7.9710   18.5360  -32.5150 C   0  0  0  0  0  0  0  0  0  0  0  0
   -7.5740   19.8960  -32.0070 C   0  0  0  0  0  0  0  0  0  0  0  0
   -8.1560   20.4530  -30.9140 N   0  0  0  0  0  0  0  0  0  0  0  0
   -7.5270   21.6370  -30.8060 C   0  0  0  0  0  0  0  0  0  0  0  0
   -7.7230   22.6060  -29.8300 C   0  0  0  0  0  0  0  0  0  0  0  0
   -6.9040   23.7490  -29.8630 C   0  0  0  0  0  0  0  0  0  0  0  0
   -5.8930   23.8940  -30.8530 C   0  0  0  0  0  0  0  0  0  0  0  0
   -4.9370   25.0190  -30.7770 C   0  0  0  0  0  0  0  0  0  0  0  0
   -5.3580   26.2070  -30.8310 O   0  0  0  0  0  0  0  0  0  0  0  0
   -3.5500   24.7650  -30.5160 N   0  0  0  0  0  0  0  0  0  0  0  0
   -3.0050   24.5190  -29.1850 C   0  0  0  0  0  0  0  0  0  0  0  0
   -2.3720   23.1570  -29.1180 C   0  0  0  0  0  0  0  0  0  0  0  0
   -1.1480   22.9070  -29.7540 C   0  0  0  0  0  0  0  0  0  0  0  0
   -0.5610   21.6420  -29.6780 C   0  0  0  0  0  0  0  0  0  0  0  0
   -1.1880   20.6180  -28.9640 C   0  0  0  0  0  0  0  0  0  0  0  0
   -2.4190   20.8530  -28.3270 C   0  0  0  0  0  0  0  0  0  0  0  0
   -3.0820   19.8640  -27.5880 O   0  0  0  0  0  0  0  0  0  0  0  0
   -2.5390   19.2130  -26.4450 C   0  0  0  0  0  0  0  0  0  0  0  0
   -3.0090   22.1190  -28.4190 C   0  0  0  0  0  0  0  0  0  0  0  0
   -5.7550   22.9010  -31.8530 C   0  0  0  0  0  0  0  0  0  0  0  0
   -6.5990   21.7840  -31.7940 C   0  0  0  0  0  0  0  0  0  0  0  0
   -6.6300   20.6940  -32.5840 N   0  0  0  0  0  0  0  0  0  0  0  0
   -5.8240   20.4260  -33.7830 C   0  0  0  0  0  0  0  0  0  0  0  0
   -4.3830   20.1750  -33.4200 C   0  0  0  0  0  0  0  0  0  0  0  0
   -3.8630   18.8710  -33.4330 C   0  0  0  0  0  0  0  0  0  0  0  0
   -2.5310   18.6380  -33.0770 C   0  0  0  0  0  0  0  0  0  0  0  0
   -1.6990   19.7050  -32.7080 C   0  0  0  0  0  0  0  0  0  0  0  0
   -0.3000   19.4490  -32.3010 C   0  0  0  0  0  0  0  0  0  0  0  0
   -0.0730   18.6070  -31.1990 C   0  0  0  0  0  0  0  0  0  0  0  0
    1.2250   18.2450  -30.8360 C   0  0  0  0  0  0  0  0  0  0  0  0
    2.3120   18.7140  -31.5760 C   0  0  0  0  0  0  0  0  0  0  0  0
    4.0850   18.2110  -31.0820 Br  0  0  0  0  0  0  0  0  0  0  0  0
    2.1070   19.5610  -32.6650 C   0  0  0  0  0  0  0  0  0  0  0  0
    0.8070   19.9570  -33.0310 C   0  0  0  0  0  0  0  0  0  0  0  0
    0.6480   20.9320  -34.1370 C   0  0  0  0  0  0  0  0  0  0  0  0
    1.4040   22.0410  -34.2810 N   0  0  0  0  0  0  0  0  0  0  0  0
    0.8980   22.6630  -35.3320 N   0  0  0  0  0  0  0  0  0  0  0  0
   -0.1210   21.9630  -35.8040 N   0  0  0  0  0  0  0  0  0  0  0  0
   -0.3170   20.8790  -35.0760 N   0  0  0  0  0  0  0  0  0  0  0  0
   -2.2220   21.0060  -32.6820 C   0  0  0  0  0  0  0  0  0  0  0  0
   -3.5530   21.2400  -33.0340 C   0  0  0  0  0  0  0  0  0  0  0  0
   -5.1974   15.6268  -32.3471 H   0  0  0  0  0  0  0  0  0  0  0  0
   -5.6297   14.8140  -33.8896 H   0  0  0  0  0  0  0  0  0  0  0  0
   -4.4588   16.1762  -33.8896 H   0  0  0  0  0  0  0  0  0  0  0  0
   -6.2296   17.4975  -34.3864 H   0  0  0  0  0  0  0  0  0  0  0  0
   -7.4083   16.1984  -33.9369 H   0  0  0  0  0  0  0  0  0  0  0  0
   -7.1751   16.7678  -31.5653 H   0  0  0  0  0  0  0  0  0  0  0  0
   -5.9487   18.0368  -31.9894 H   0  0  0  0  0  0  0  0  0  0  0  0
   -8.2015   18.6105  -33.5880 H   0  0  0  0  0  0  0  0  0  0  0  0
   -8.8490   18.2013  -31.9431 H   0  0  0  0  0  0  0  0  0  0  0  0
   -8.4945   22.4832  -29.0556 H   0  0  0  0  0  0  0  0  0  0  0  0
   -7.0472   24.5412  -29.1134 H   0  0  0  0  0  0  0  0  0  0  0  0
   -2.2462   25.2823  -28.9579 H   0  0  0  0  0  0  0  0  0  0  0  0
   -3.8232   24.5672  -28.4514 H   0  0  0  0  0  0  0  0  0  0  0  0
   -0.6480   23.7102  -30.3151 H   0  0  0  0  0  0  0  0  0  0  0  0
    0.3980   21.4514  -30.1819 H   0  0  0  0  0  0  0  0  0  0  0  0
   -0.7175   19.6257  -28.9001 H   0  0  0  0  0  0  0  0  0  0  0  0
   -2.9326   19.6849  -25.5327 H   0  0  0  0  0  0  0  0  0  0  0  0
   -2.8220   18.1501  -26.4594 H   0  0  0  0  0  0  0  0  0  0  0  0
   -1.4426   19.3007  -26.4594 H   0  0  0  0  0  0  0  0  0  0  0  0
   -3.9815   22.3026  -27.9389 H   0  0  0  0  0  0  0  0  0  0  0  0
   -5.0069   23.0035  -32.6529 H   0  0  0  0  0  0  0  0  0  0  0  0
   -6.2255   19.5394  -34.2956 H   0  0  0  0  0  0  0  0  0  0  0  0
   -5.8715   21.3061  -34.4411 H   0  0  0  0  0  0  0  0  0  0  0  0
   -4.5068   18.0282  -33.7248 H   0  0  0  0  0  0  0  0  0  0  0  0
   -2.1336   17.6123  -33.0864 H   0  0  0  0  0  0  0  0  0  0  0  0
   -0.9267   18.2296  -30.6169 H   0  0  0  0  0  0  0  0  0  0  0  0
    1.3915   17.5907  -29.9676 H   0  0  0  0  0  0  0  0  0  0  0  0
    2.9698   19.9230  -33.2434 H   0  0  0  0  0  0  0  0  0  0  0  0
   -0.7020   22.2390  -36.6220 H   0  0  0  0  0  0  0  0  0  0  0  0
   -1.5798   21.8474  -32.3825 H   0  0  0  0  0  0  0  0  0  0  0  0
   -3.9535   22.2642  -33.0088 H   0  0  0  0  0  0  0  0  0  0  0  0
  1  2  1  0
  2  3  1  0
  3  4  1  0
  4  5  1  0
  5  6  2  0
  6  7  1  0
  7  8  2  0
  8  9  1  0
  9 10  2  0
 10 11  1  0
 11 12  2  0
 11 13  1  0
 13 14  1  0
 14 15  1  0
 15 16  2  0
 16 17  1  0
 17 18  2  0
 18 19  1  0
 19 20  1  0
 20 21  1  0
 19 22  2  0
 10 23  1  0
 23 24  2  0
 24 25  1  0
 25 26  1  0
 26 27  1  0
 27 28  2  0
 28 29  1  0
 29 30  2  0
 30 31  1  0
 31 32  2  0
 32 33  1  0
 33 34  2  0
 34 35  1  0
 34 36  1  0
 36 37  2  0
 37 38  1  0
 38 39  1  0
 39 40  2  0
 40 41  1  0
 41 42  1  0
 30 43  1  0
 43 44  2  0
 25  5  1  0
 44 27  1  0
 24  7  1  0
 37 31  1  0
 42 38  2  0
 22 15  1  0
  1 45  1  0
  1 46  1  0
  1 47  1  0
  2 48  1  0
  2 49  1  0
  3 50  1  0
  3 51  1  0
  4 52  1  0
  4 53  1  0
  8 54  1  0
  9 55  1  0
 14 56  1  0
 14 57  1  0
 16 58  1  0
 17 59  1  0
 18 60  1  0
 21 61  1  0
 21 62  1  0
 21 63  1  0
 22 64  1  0
 23 65  1  0
 26 66  1  0
 26 67  1  0
 28 68  1  0
 29 69  1  0
 32 70  1  0
 33 71  1  0
 36 72  1  0
 41 73  1  0
 43 74  1  0
 44 75  1  0
M  CHG  1  13  -1
M  END
>  <UniqueID>  (46) 
43

>  <SMILES>  (46) 
CCCCc1nc2ccc(C(=O)[N-]Cc3cccc(OC)c3)cc2n1Cc1ccc(-c2ccc(Br)cc2-c2nn[nH]n2)cc1

>  <Energy>  (46) 
159.6954747692364

>  <Genealogy>  (46) 
CCCCc1nc2ccc(C(=O)[N-]Cc3cccc(OC)c3)cc2n1Cc1ccc(-c2ccc(Br)cc2-c2nn[nH]n2)cc1 (protonated)
CCCCc1nc2ccc(C(=O)[N-]Cc3cccc(OC)c3)cc2n1Cc1ccc(-c2ccc(Br)cc2-c2nn[nH]n2)cc1 (3D coordinates assigned)
CCCCc1nc2ccc(C(=O)[N-]Cc3cccc(OC)c3)cc2n1Cc1ccc(-c2ccc(Br)cc2-c2nn[nH]n2)cc1 (optimized conformer: 159.6954747692364 kcal/mol)

>  <smiles>  (46) 
CCCCc1nc2ccc(C(=O)NCc3cccc(OC)c3)cc2n1Cc1ccc(-c2ccc(Br)cc2-c2nn[nH]n2)cc1

>  <score_type>  (46) 
oracle

>  <origin>  (46) 
adgpu

>  <m_score__min__energy>  (46) 
-13.960000000000001

>  <m_primary>  (46) 
energy

$$$$
46:0
     RDKit          3D

 30 32  0  0  0  0  0  0  0  0999 V2000
   -3.2740   24.7010  -30.0390 N   0  0  0  0  0  0  0  0  0  0  0  0
   -4.5910   24.3080  -30.4350 C   0  0  0  0  0  0  0  0  0  0  0  0
   -5.6970   25.0840  -30.0710 C   0  0  0  0  0  0  0  0  0  0  0  0
   -6.9830   24.7020  -30.4590 C   0  0  0  0  0  0  0  0  0  0  0  0
   -7.1830   23.5370  -31.2160 C   0  0  0  0  0  0  0  0  0  0  0  0
   -8.5070   23.2010  -31.6460 N   0  0  0  0  0  0  0  0  0  0  0  0
   -6.0730   22.7420  -31.5720 C   0  0  0  0  0  0  0  0  0  0  0  0
   -6.2450   21.5190  -32.3050 N   0  0  0  0  0  0  0  0  0  0  0  0
   -5.2710   20.8740  -33.1300 C   0  0  0  0  0  0  0  0  0  0  0  0
   -4.2330   21.4350  -33.5750 O   0  0  0  0  0  0  0  0  0  0  0  0
   -5.6560   19.4890  -33.3750 C   0  0  0  0  0  0  0  0  0  0  0  0
   -5.0340   18.4890  -34.1200 C   0  0  0  0  0  0  0  0  0  0  0  0
   -5.6430   17.2220  -34.1610 C   0  0  0  0  0  0  0  0  0  0  0  0
   -6.8460   16.9820  -33.4610 C   0  0  0  0  0  0  0  0  0  0  0  0
   -7.4520   18.0090  -32.7140 C   0  0  0  0  0  0  0  0  0  0  0  0
   -6.8310   19.2570  -32.6940 C   0  0  0  0  0  0  0  0  0  0  0  0
   -7.1970   20.4920  -32.0110 C   0  0  0  0  0  0  0  0  0  0  0  0
   -8.1750   20.6330  -31.2280 O   0  0  0  0  0  0  0  0  0  0  0  0
   -4.7820   23.1400  -31.1850 C   0  0  0  0  0  0  0  0  0  0  0  0
   -2.4830   24.0210  -30.0650 H   0  0  0  0  0  0  0  0  0  0  0  0
   -3.0810   25.6760  -29.7170 H   0  0  0  0  0  0  0  0  0  0  0  0
   -5.5530   25.9985  -29.4769 H   0  0  0  0  0  0  0  0  0  0  0  0
   -7.8462   25.3191  -30.1690 H   0  0  0  0  0  0  0  0  0  0  0  0
   -9.0940   23.8710  -32.1920 H   0  0  0  0  0  0  0  0  0  0  0  0
   -8.9400   22.2910  -31.3710 H   0  0  0  0  0  0  0  0  0  0  0  0
   -4.0955   18.6846  -34.6594 H   0  0  0  0  0  0  0  0  0  0  0  0
   -5.1789   16.4118  -34.7426 H   0  0  0  0  0  0  0  0  0  0  0  0
   -7.3120   15.9863  -33.5000 H   0  0  0  0  0  0  0  0  0  0  0  0
   -8.3873   17.8325  -32.1626 H   0  0  0  0  0  0  0  0  0  0  0  0
   -3.9138   22.5292  -31.4734 H   0  0  0  0  0  0  0  0  0  0  0  0
  1  2  1  0
  2  3  2  0
  3  4  1  0
  4  5  2  0
  5  6  1  0
  5  7  1  0
  7  8  1  0
  8  9  1  0
  9 10  2  0
  9 11  1  0
 11 12  2  0
 12 13  1  0
 13 14  2  0
 14 15  1  0
 15 16  2  0
 16 17  1  0
 17 18  2  0
  7 19  2  0
 19  2  1  0
 17  8  1  0
 16 11  1  0
  1 20  1  0
  1 21  1  0
  3 22  1  0
  4 23  1  0
  6 24  1  0
  6 25  1  0
 12 26  1  0
 13 27  1  0
 14 28  1  0
 15 29  1  0
 19 30  1  0
M  END
>  <UniqueID>  (47) 
44

>  <SMILES>  (47) 
Nc1ccc(N)c(N2C(=O)c3ccccc3C2=O)c1

>  <Energy>  (47) 
70.15271211194299

>  <Genealogy>  (47) 
Nc1ccc(N)c(N2C(=O)c3ccccc3C2=O)c1 (3D coordinates assigned)
Nc1ccc(N)c(N2C(=O)c3ccccc3C2=O)c1 (nonaromatic ring conformer: 70.15271211194299 kcal/mol)

>  <smiles>  (47) 
Nc1ccc(N)c(N2C(=O)c3ccccc3C2=O)c1

>  <score_type>  (47) 
oracle

>  <origin>  (47) 
adgpu

>  <m_score__min__energy>  (47) 
-7.3200000000000003

>  <m_primary>  (47) 
energy

$$$$
47:0
     RDKit          3D

 31 32  0  0  0  0  0  0  0  0999 V2000
   -0.6720   19.4980  -27.7620 N   0  0  0  0  0  0  0  0  0  0  0  0
   -1.8770   20.4520  -26.9730 S   0  0  0  0  0  0  0  0  0  0  0  0
   -3.2360   19.8640  -27.2360 O   0  0  0  0  0  0  0  0  0  0  0  0
   -1.6280   20.4460  -25.4910 O   0  0  0  0  0  0  0  0  0  0  0  0
   -1.8150   22.1020  -27.5870 C   0  0  0  0  0  0  0  0  0  0  0  0
   -0.9400   23.0320  -27.0180 C   0  0  0  0  0  0  0  0  0  0  0  0
   -0.8840   24.3340  -27.5150 C   0  0  0  0  0  0  0  0  0  0  0  0
   -1.6960   24.7210  -28.5850 C   0  0  0  0  0  0  0  0  0  0  0  0
   -1.6080   26.0290  -29.0480 O   0  0  0  0  0  0  0  0  0  0  0  0
   -2.5840   23.7910  -29.1770 C   0  0  0  0  0  0  0  0  0  0  0  0
   -3.4580   24.1630  -30.3210 C   0  0  0  0  0  0  0  0  0  0  0  0
   -3.8990   25.3390  -30.4350 O   0  0  0  0  0  0  0  0  0  0  0  0
   -3.8260   23.1760  -31.2940 N   0  0  0  0  0  0  0  0  0  0  0  0
   -5.1460   22.6380  -31.4390 C   0  0  0  0  0  0  0  0  0  0  0  0
   -5.3600   21.6550  -32.4150 C   0  0  0  0  0  0  0  0  0  0  0  0
   -6.6190   21.0700  -32.5700 C   0  0  0  0  0  0  0  0  0  0  0  0
   -7.6810   21.4730  -31.7570 C   0  0  0  0  0  0  0  0  0  0  0  0
   -9.2610   20.7360  -31.9500 Cl  0  0  0  0  0  0  0  0  0  0  0  0
   -7.4900   22.4780  -30.8040 C   0  0  0  0  0  0  0  0  0  0  0  0
   -6.2320   23.0810  -30.6470 C   0  0  0  0  0  0  0  0  0  0  0  0
   -6.0930   24.1760  -29.7320 N   0  0  0  0  0  0  0  0  0  0  0  0
   -2.6260   22.4790  -28.6640 C   0  0  0  0  0  0  0  0  0  0  0  0
   -0.7630   18.5250  -27.3930 H   0  0  0  0  0  0  0  0  0  0  0  0
   -0.2949   22.7366  -26.1774 H   0  0  0  0  0  0  0  0  0  0  0  0
   -0.1954   25.0621  -27.0614 H   0  0  0  0  0  0  0  0  0  0  0  0
   -4.5294   21.3415  -33.0645 H   0  0  0  0  0  0  0  0  0  0  0  0
   -6.7741   20.2921  -33.3321 H   0  0  0  0  0  0  0  0  0  0  0  0
   -8.3317   22.7986  -30.1725 H   0  0  0  0  0  0  0  0  0  0  0  0
   -5.4730   24.9840  -29.9620 H   0  0  0  0  0  0  0  0  0  0  0  0
   -6.5240   24.1550  -28.7820 H   0  0  0  0  0  0  0  0  0  0  0  0
   -3.3052   21.7412  -29.1160 H   0  0  0  0  0  0  0  0  0  0  0  0
  1  2  1  0
  2  3  2  0
  2  4  2  0
  2  5  1  0
  5  6  2  0
  6  7  1  0
  7  8  2  0
  8  9  1  0
  8 10  1  0
 10 11  1  0
 11 12  2  0
 11 13  1  0
 13 14  1  0
 14 15  2  0
 15 16  1  0
 16 17  2  0
 17 18  1  0
 17 19  1  0
 19 20  2  0
 20 21  1  0
 10 22  2  0
 22  5  1  0
 20 14  1  0
  1 23  1  0
  6 24  1  0
  7 25  1  0
 15 26  1  0
 16 27  1  0
 19 28  1  0
 21 29  1  0
 21 30  1  0
 22 31  1  0
M  CHG  3   1  -1   9  -1  13  -1
M  END
>  <UniqueID>  (48) 
45

>  <SMILES>  (48) 
[NH-]S(=O)(=O)c1ccc([O-])c(C(=O)[N-]c2ccc(Cl)cc2N)c1

>  <Energy>  (48) 
40.47437524327278

>  <Genealogy>  (48) 
[NH-]S(=O)(=O)c1ccc([O-])c(C(=O)[N-]c2ccc(Cl)cc2N)c1 (protonated)
[NH-]S(=O)(=O)c1ccc([O-])c(C(=O)[N-]c2ccc(Cl)cc2N)c1 (3D coordinates assigned)
[NH-]S(=O)(=O)c1ccc([O-])c(C(=O)[N-]c2ccc(Cl)cc2N)c1 (optimized conformer: 40.47437524327278 kcal/mol)

>  <smiles>  (48) 
Nc1cc(Cl)ccc1NC(=O)c1cc(S(N)(=O)=O)ccc1O

>  <score_type>  (48) 
oracle

>  <origin>  (48) 
adgpu

>  <m_score__min__energy>  (48) 
-11.65

>  <m_primary>  (48) 
energy

$$$$
