0:0
     RDKit          3D

 45 47  0  0  0  0  0  0  0  0999 V2000
   -7.1500   25.2530  -29.9570 O   0  0  0  0  0  0  0  0  0  0  0  0
   -6.6180   24.0180  -30.6280 S   0  0  0  0  0  0  0  0  0  0  0  0
   -6.6790   24.2050  -32.1170 O   0  0  0  0  0  0  0  0  0  0  0  0
   -7.5810   22.6480  -30.1810 N   0  0  0  0  0  0  0  0  0  0  0  0
   -7.8920   21.5800  -31.0840 C   0  0  0  0  0  0  0  0  0  0  0  0
   -9.2130   21.1410  -31.2790 C   0  0  0  0  0  0  0  0  0  0  0  0
   -9.4740   20.0510  -32.1120 C   0  0  0  0  0  0  0  0  0  0  0  0
   -8.4200   19.3800  -32.7380 C   0  0  0  0  0  0  0  0  0  0  0  0
   -7.0990   19.8080  -32.5480 C   0  0  0  0  0  0  0  0  0  0  0  0
   -5.7590   18.8970  -33.2450 S   0  0  0  0  0  0  0  0  0  0  0  0
   -5.8300   18.9810  -34.7440 O   0  0  0  0  0  0  0  0  0  0  0  0
   -5.8830   17.4510  -32.8540 O   0  0  0  0  0  0  0  0  0  0  0  0
   -4.2190   19.5170  -32.6960 N   0  0  0  0  0  0  0  0  0  0  0  0
   -3.1060   18.5880  -33.0190 C   0  0  0  0  0  0  0  0  0  0  0  0
   -2.2630   19.0510  -34.2170 C   0  0  0  0  0  0  0  0  0  0  0  0
   -1.6610   20.4460  -33.9670 C   0  0  0  0  0  0  0  0  0  0  0  0
   -2.5560   21.3270  -33.0760 C   0  0  0  0  0  0  0  0  0  0  0  0
   -4.0240   20.9020  -33.1770 C   0  0  0  0  0  0  0  0  0  0  0  0
   -6.8450   20.9320  -31.7480 C   0  0  0  0  0  0  0  0  0  0  0  0
   -4.9470   23.7090  -30.1640 C   0  0  0  0  0  0  0  0  0  0  0  0
   -4.4420   22.4020  -30.1130 C   0  0  0  0  0  0  0  0  0  0  0  0
   -3.0980   22.1830  -29.7990 C   0  0  0  0  0  0  0  0  0  0  0  0
   -2.2490   23.2610  -29.5330 C   0  0  0  0  0  0  0  0  0  0  0  0
   -0.9120   23.0150  -29.2240 O   0  0  0  0  0  0  0  0  0  0  0  0
   -2.7530   24.5720  -29.5840 C   0  0  0  0  0  0  0  0  0  0  0  0
   -1.9250   25.6590  -29.3250 O   0  0  0  0  0  0  0  0  0  0  0  0
   -4.0980   24.7910  -29.9010 C   0  0  0  0  0  0  0  0  0  0  0  0
  -10.0430   21.6572  -30.7743 H   0  0  0  0  0  0  0  0  0  0  0  0
  -10.5103   19.7202  -32.2756 H   0  0  0  0  0  0  0  0  0  0  0  0
   -8.6279   18.5129  -33.3821 H   0  0  0  0  0  0  0  0  0  0  0  0
   -2.4502   18.5081  -32.1395 H   0  0  0  0  0  0  0  0  0  0  0  0
   -3.5542   17.6201  -33.2878 H   0  0  0  0  0  0  0  0  0  0  0  0
   -1.4469   18.3319  -34.3810 H   0  0  0  0  0  0  0  0  0  0  0  0
   -2.9146   19.1058  -35.1016 H   0  0  0  0  0  0  0  0  0  0  0  0
   -0.6845   20.3252  -33.4752 H   0  0  0  0  0  0  0  0  0  0  0  0
   -1.5656   20.9469  -34.9417 H   0  0  0  0  0  0  0  0  0  0  0  0
   -2.2260   21.2331  -32.0309 H   0  0  0  0  0  0  0  0  0  0  0  0
   -2.4699   22.3694  -33.4166 H   0  0  0  0  0  0  0  0  0  0  0  0
   -4.6364   21.5823  -32.5669 H   0  0  0  0  0  0  0  0  0  0  0  0
   -4.3256   20.9472  -34.2339 H   0  0  0  0  0  0  0  0  0  0  0  0
   -5.8160   21.3062  -31.6421 H   0  0  0  0  0  0  0  0  0  0  0  0
   -5.1042   21.5484  -30.3203 H   0  0  0  0  0  0  0  0  0  0  0  0
   -2.7058   21.1560  -29.7609 H   0  0  0  0  0  0  0  0  0  0  0  0
   -0.2680   23.7620  -28.9940 H   0  0  0  0  0  0  0  0  0  0  0  0
   -4.4903   25.8178  -29.9438 H   0  0  0  0  0  0  0  0  0  0  0  0
  1  2  2  0
  2  3  2  0
  2  4  1  0
  4  5  1  0
  5  6  2  0
  6  7  1  0
  7  8  2  0
  8  9  1  0
  9 10  1  0
 10 11  2  0
 10 12  2  0
 10 13  1  0
 13 14  1  0
 14 15  1  0
 15 16  1  0
 16 17  1  0
 17 18  1  0
  9 19  2  0
  2 20  1  0
 20 21  2  0
 21 22  1  0
 22 23  2  0
 23 24  1  0
 23 25  1  0
 25 26  1  0
 25 27  2  0
 19  5  1  0
 27 20  1  0
 18 13  1  0
  6 28  1  0
  7 29  1  0
  8 30  1  0
 14 31  1  0
 14 32  1  0
 15 33  1  0
 15 34  1  0
 16 35  1  0
 16 36  1  0
 17 37  1  0
 17 38  1  0
 18 39  1  0
 18 40  1  0
 19 41  1  0
 21 42  1  0
 22 43  1  0
 24 44  1  0
 27 45  1  0
M  CHG  2   4  -1  26  -1
M  END
>  <UniqueID>  (1) 
1

>  <SMILES>  (1) 
O=S(=O)([N-]c1cccc(S(=O)(=O)N2CCCCC2)c1)c1ccc(O)c([O-])c1

>  <Energy>  (1) 
53.47453163372076

>  <Genealogy>  (1) 
O=S(=O)([N-]c1cccc(S(=O)(=O)N2CCCCC2)c1)c1ccc(O)c([O-])c1 (protonated)
O=S(=O)([N-]c1cccc(S(=O)(=O)N2CCCCC2)c1)c1ccc(O)c([O-])c1 (3D coordinates assigned)
O=S(=O)([N-]c1cccc(S(=O)(=O)N2CCCCC2)c1)c1ccc(O)c([O-])c1 (nonaromatic ring conformer: 53.47453163372076 kcal/mol)

>  <smiles>  (1) 
O=S(=O)(Nc1cccc(S(=O)(=O)N2CCCCC2)c1)c1ccc(O)c(O)c1

>  <score_type>  (1) 
oracle

>  <origin>  (1) 
adgpu

>  <m_score__min__energy>  (1) 
-12.220000000000001

>  <m_primary>  (1) 
energy

$$$$
1:0
     RDKit          3D

 65 69  0  0  0  0  0  0  0  0999 V2000
   -4.4490   22.4300  -27.4270 O   0  0  0  0  0  0  0  0  0  0  0  0
   -4.1720   23.5300  -27.9750 C   0  0  0  0  0  0  0  0  0  0  0  0
   -4.8060   23.8900  -29.2140 N   0  0  0  0  0  0  0  0  0  0  0  0
   -5.4900   22.9520  -30.0640 C   0  0  0  0  0  0  0  0  0  0  0  0
   -6.8910   22.9830  -30.1380 C   0  0  0  0  0  0  0  0  0  0  0  0
   -7.5770   22.0880  -30.9640 C   0  0  0  0  0  0  0  0  0  0  0  0
   -6.8700   21.1600  -31.7400 C   0  0  0  0  0  0  0  0  0  0  0  0
   -7.7210   20.0170  -32.7760 S   0  0  0  0  0  0  0  0  0  0  0  0
   -9.2090   20.1950  -32.6570 O   0  0  0  0  0  0  0  0  0  0  0  0
   -7.3120   20.2540  -34.2030 O   0  0  0  0  0  0  0  0  0  0  0  0
   -7.3100   18.3920  -32.3240 N   0  0  0  0  0  0  0  0  0  0  0  0
   -6.3560   17.7110  -32.8770 C   0  0  0  0  0  0  0  0  0  0  0  0
   -5.6030   18.2450  -33.8790 N   0  0  0  0  0  0  0  0  0  0  0  0
   -4.6090   17.5310  -34.4660 C   0  0  0  0  0  0  0  0  0  0  0  0
   -4.3490   16.2280  -34.0460 C   0  0  0  0  0  0  0  0  0  0  0  0
   -5.1260   15.6940  -33.0170 C   0  0  0  0  0  0  0  0  0  0  0  0
   -6.1110   16.4410  -32.4550 N   0  0  0  0  0  0  0  0  0  0  0  0
   -5.4720   21.1420  -31.6910 C   0  0  0  0  0  0  0  0  0  0  0  0
   -4.7830   22.0330  -30.8600 C   0  0  0  0  0  0  0  0  0  0  0  0
   -3.2360   24.4650  -27.3020 C   0  0  0  0  0  0  0  0  0  0  0  0
   -3.6300   25.1810  -26.1610 C   0  0  0  0  0  0  0  0  0  0  0  0
   -2.7390   26.0470  -25.5230 C   0  0  0  0  0  0  0  0  0  0  0  0
   -1.4350   26.2170  -26.0190 C   0  0  0  0  0  0  0  0  0  0  0  0
   -0.4990   27.0600  -25.4000 O   0  0  0  0  0  0  0  0  0  0  0  0
   -0.1370   27.0060  -24.0230 C   0  0  0  0  0  0  0  0  0  0  0  0
    1.2490   26.4280  -23.9040 C   0  0  0  0  0  0  0  0  0  0  0  0
    1.5140   25.1170  -24.3520 C   0  0  0  0  0  0  0  0  0  0  0  0
    0.5260   24.3430  -24.8680 F   0  0  0  0  0  0  0  0  0  0  0  0
    2.8090   24.5930  -24.2780 C   0  0  0  0  0  0  0  0  0  0  0  0
    3.8490   25.3660  -23.7670 C   0  0  0  0  0  0  0  0  0  0  0  0
    3.6040   26.6680  -23.3330 C   0  0  0  0  0  0  0  0  0  0  0  0
    2.3140   27.2080  -23.4060 C   0  0  0  0  0  0  0  0  0  0  0  0
    2.0740   28.8680  -22.8810 Cl  0  0  0  0  0  0  0  0  0  0  0  0
   -1.0360   25.5250  -27.1710 C   0  0  0  0  0  0  0  0  0  0  0  0
    0.2680   25.7350  -27.6480 O   0  0  0  0  0  0  0  0  0  0  0  0
    1.2800   24.7360  -27.7200 C   0  0  0  0  0  0  0  0  0  0  0  0
    0.6540   23.4180  -28.0560 C   0  0  0  0  0  0  0  0  0  0  0  0
    0.6990   22.3550  -27.1430 C   0  0  0  0  0  0  0  0  0  0  0  0
    0.1150   21.1340  -27.4870 C   0  0  0  0  0  0  0  0  0  0  0  0
   -0.4980   20.9820  -28.7300 C   0  0  0  0  0  0  0  0  0  0  0  0
   -0.5220   22.0610  -29.6160 C   0  0  0  0  0  0  0  0  0  0  0  0
    0.0520   23.2430  -29.2660 N   0  0  0  0  0  0  0  0  0  0  0  0
   -1.9390   24.6540  -27.8110 C   0  0  0  0  0  0  0  0  0  0  0  0
   -4.8930   24.9050  -29.4450 H   0  0  0  0  0  0  0  0  0  0  0  0
   -7.4533   23.7168  -29.5418 H   0  0  0  0  0  0  0  0  0  0  0  0
   -8.6760   22.1123  -31.0050 H   0  0  0  0  0  0  0  0  0  0  0  0
   -4.0098   17.9801  -35.2718 H   0  0  0  0  0  0  0  0  0  0  0  0
   -3.5502   15.6343  -34.5145 H   0  0  0  0  0  0  0  0  0  0  0  0
   -4.9408   14.6696  -32.6617 H   0  0  0  0  0  0  0  0  0  0  0  0
   -4.9117   20.4244  -32.3083 H   0  0  0  0  0  0  0  0  0  0  0  0
   -3.6836   22.0144  -30.8294 H   0  0  0  0  0  0  0  0  0  0  0  0
   -4.6493   25.0591  -25.7658 H   0  0  0  0  0  0  0  0  0  0  0  0
   -3.0597   26.5991  -24.6273 H   0  0  0  0  0  0  0  0  0  0  0  0
   -0.1517   28.0203  -23.5975 H   0  0  0  0  0  0  0  0  0  0  0  0
   -0.8518   26.3749  -23.4747 H   0  0  0  0  0  0  0  0  0  0  0  0
    3.0065   23.5678  -24.6243 H   0  0  0  0  0  0  0  0  0  0  0  0
    4.8649   24.9486  -23.7058 H   0  0  0  0  0  0  0  0  0  0  0  0
    4.4288   27.2747  -22.9309 H   0  0  0  0  0  0  0  0  0  0  0  0
    2.0077   25.0061  -28.4994 H   0  0  0  0  0  0  0  0  0  0  0  0
    1.7937   24.6624  -26.7501 H   0  0  0  0  0  0  0  0  0  0  0  0
    1.1890   22.4814  -26.1663 H   0  0  0  0  0  0  0  0  0  0  0  0
    0.1386   20.2932  -26.7781 H   0  0  0  0  0  0  0  0  0  0  0  0
   -0.9577   20.0226  -29.0097 H   0  0  0  0  0  0  0  0  0  0  0  0
   -1.0058   21.9547  -30.5982 H   0  0  0  0  0  0  0  0  0  0  0  0
   -1.6264   24.1162  -28.7182 H   0  0  0  0  0  0  0  0  0  0  0  0
  1  2  2  0
  2  3  1  0
  3  4  1  0
  4  5  2  0
  5  6  1  0
  6  7  2  0
  7  8  1  0
  8  9  2  0
  8 10  2  0
  8 11  1  0
 11 12  2  3
 12 13  1  0
 13 14  2  0
 14 15  1  0
 15 16  2  0
 16 17  1  0
  7 18  1  0
 18 19  2  0
  2 20  1  0
 20 21  2  0
 21 22  1  0
 22 23  2  0
 23 24  1  0
 24 25  1  0
 25 26  1  0
 26 27  2  0
 27 28  1  0
 27 29  1  0
 29 30  2  0
 30 31  1  0
 31 32  2  0
 32 33  1  0
 23 34  1  0
 34 35  1  0
 35 36  1  0
 36 37  1  0
 37 38  2  0
 38 39  1  0
 39 40  2  0
 40 41  1  0
 41 42  2  0
 34 43  2  0
 19  4  1  0
 43 20  1  0
 17 12  1  0
 32 26  1  0
 42 37  1  0
  3 44  1  0
  5 45  1  0
  6 46  1  0
 14 47  1  0
 15 48  1  0
 16 49  1  0
 18 50  1  0
 19 51  1  0
 21 52  1  0
 22 53  1  0
 25 54  1  0
 25 55  1  0
 29 56  1  0
 30 57  1  0
 31 58  1  0
 36 59  1  0
 36 60  1  0
 38 61  1  0
 39 62  1  0
 40 63  1  0
 41 64  1  0
 43 65  1  0
M  CHG  1  17  -1
M  END
>  <UniqueID>  (2) 
2

>  <SMILES>  (2) 
O=C(Nc1ccc(S(=O)(=O)N=c2nccc[n-]2)cc1)c1ccc(OCc2c(F)cccc2Cl)c(OCc2ccccn2)c1

>  <Energy>  (2) 
82.12196177884591

>  <Genealogy>  (2) 
O=C(Nc1ccc(S(=O)(=O)N=c2nccc[n-]2)cc1)c1ccc(OCc2c(F)cccc2Cl)c(OCc2ccccn2)c1 (protonated)
O=C(Nc1ccc(S(=O)(=O)N=c2nccc[n-]2)cc1)c1ccc(OCc2c(F)cccc2Cl)c(OCc2ccccn2)c1 (3D coordinates assigned)
O=C(Nc1ccc(S(=O)(=O)N=c2nccc[n-]2)cc1)c1ccc(OCc2c(F)cccc2Cl)c(OCc2ccccn2)c1 (optimized conformer: 82.12196177884591 kcal/mol)

>  <smiles>  (2) 
O=C(Nc1ccc(S(=O)(=O)N=c2nccc[nH]2)cc1)c1ccc(OCc2c(F)cccc2Cl)c(OCc2ccccn2)c1

>  <score_type>  (2) 
oracle

>  <origin>  (2) 
adgpu

>  <m_score__min__energy>  (2) 
-9.9900000000000002

>  <m_primary>  (2) 
energy

$$$$
2:0
     RDKit          3D

 46 48  0  0  0  0  0  0  0  0999 V2000
   -1.8640   19.5190  -26.7150 C   0  0  0  0  0  0  0  0  0  0  0  0
   -1.2250   20.8680  -26.5750 C   0  0  0  0  0  0  0  0  0  0  0  0
   -1.0420   21.7190  -27.5950 C   0  0  0  0  0  0  0  0  0  0  0  0
   -1.4750   21.4510  -28.9800 C   0  0  0  0  0  0  0  0  0  0  0  0
   -2.8220   21.1570  -29.2320 C   0  0  0  0  0  0  0  0  0  0  0  0
   -3.2630   20.9380  -30.5400 C   0  0  0  0  0  0  0  0  0  0  0  0
   -2.3550   20.9770  -31.6060 C   0  0  0  0  0  0  0  0  0  0  0  0
   -2.9520   20.8390  -33.2560 S   0  0  0  0  0  0  0  0  0  0  0  0
   -3.4800   22.1550  -33.7570 O   0  0  0  0  0  0  0  0  0  0  0  0
   -1.8260   20.3980  -34.1480 O   0  0  0  0  0  0  0  0  0  0  0  0
   -4.2090   19.6470  -33.2840 N   0  0  0  0  0  0  0  0  0  0  0  0
   -5.5550   19.9150  -32.8720 C   0  0  0  0  0  0  0  0  0  0  0  0
   -6.5900   18.9860  -33.0850 C   0  0  0  0  0  0  0  0  0  0  0  0
   -7.9010   19.2990  -32.7190 C   0  0  0  0  0  0  0  0  0  0  0  0
   -8.1920   20.5400  -32.1480 C   0  0  0  0  0  0  0  0  0  0  0  0
   -7.1700   21.4710  -31.9310 C   0  0  0  0  0  0  0  0  0  0  0  0
   -7.5660   23.0680  -31.3040 S   0  0  0  0  0  0  0  0  0  0  0  0
   -7.7810   23.0200  -29.8180 O   0  0  0  0  0  0  0  0  0  0  0  0
   -8.8240   23.5540  -31.9670 O   0  0  0  0  0  0  0  0  0  0  0  0
   -6.2710   24.1700  -31.6550 N   0  0  0  0  0  0  0  0  0  0  0  0
   -5.2900   24.4300  -30.8430 C   0  0  0  0  0  0  0  0  0  0  0  0
   -5.1010   23.9090  -29.5760 C   0  0  0  0  0  0  0  0  0  0  0  0
   -3.9210   24.4990  -29.1770 C   0  0  0  0  0  0  0  0  0  0  0  0
   -3.2460   24.3180  -27.8590 C   0  0  0  0  0  0  0  0  0  0  0  0
   -3.4890   25.2930  -30.1300 O   0  0  0  0  0  0  0  0  0  0  0  0
   -4.2910   25.2750  -31.1560 N   0  0  0  0  0  0  0  0  0  0  0  0
   -5.8480   21.1460  -32.2730 C   0  0  0  0  0  0  0  0  0  0  0  0
   -0.9980   21.2160  -31.3510 C   0  0  0  0  0  0  0  0  0  0  0  0
   -0.5590   21.4480  -30.0450 C   0  0  0  0  0  0  0  0  0  0  0  0
   -2.0617   19.1016  -25.7167 H   0  0  0  0  0  0  0  0  0  0  0  0
   -2.8112   19.6173  -27.2655 H   0  0  0  0  0  0  0  0  0  0  0  0
   -1.1879   18.8484  -27.2655 H   0  0  0  0  0  0  0  0  0  0  0  0
   -0.8859   21.1783  -25.5756 H   0  0  0  0  0  0  0  0  0  0  0  0
   -0.5387   22.6747  -27.3867 H   0  0  0  0  0  0  0  0  0  0  0  0
   -3.5352   21.0984  -28.3966 H   0  0  0  0  0  0  0  0  0  0  0  0
   -4.3266   20.7343  -30.7330 H   0  0  0  0  0  0  0  0  0  0  0  0
   -6.3660   18.0104  -33.5411 H   0  0  0  0  0  0  0  0  0  0  0  0
   -8.7058   18.5668  -32.8807 H   0  0  0  0  0  0  0  0  0  0  0  0
   -9.2270   20.7861  -31.8682 H   0  0  0  0  0  0  0  0  0  0  0  0
   -5.7350   23.1998  -29.0237 H   0  0  0  0  0  0  0  0  0  0  0  0
   -3.9651   24.5108  -27.0492 H   0  0  0  0  0  0  0  0  0  0  0  0
   -2.8702   23.2874  -27.7780 H   0  0  0  0  0  0  0  0  0  0  0  0
   -2.4050   25.0224  -27.7780 H   0  0  0  0  0  0  0  0  0  0  0  0
   -5.0382   21.8621  -32.0694 H   0  0  0  0  0  0  0  0  0  0  0  0
   -0.2764   21.2210  -32.1813 H   0  0  0  0  0  0  0  0  0  0  0  0
    0.5083   21.6291  -29.8500 H   0  0  0  0  0  0  0  0  0  0  0  0
  1  2  1  0
  2  3  2  3
  3  4  1  0
  4  5  2  0
  5  6  1  0
  6  7  2  0
  7  8  1  0
  8  9  2  0
  8 10  2  0
  8 11  1  0
 11 12  1  0
 12 13  2  0
 13 14  1  0
 14 15  2  0
 15 16  1  0
 16 17  1  0
 17 18  2  0
 17 19  2  0
 17 20  1  0
 20 21  2  3
 21 22  1  0
 22 23  2  0
 23 24  1  0
 23 25  1  0
 25 26  1  0
 16 27  2  0
  7 28  1  0
 28 29  2  0
 29  4  1  0
 27 12  1  0
 26 21  1  0
  1 30  1  0
  1 31  1  0
  1 32  1  0
  2 33  1  0
  3 34  1  0
  5 35  1  0
  6 36  1  0
 13 37  1  0
 14 38  1  0
 15 39  1  0
 22 40  1  0
 24 41  1  0
 24 42  1  0
 24 43  1  0
 27 44  1  0
 28 45  1  0
 29 46  1  0
M  CHG  2  11  -1  26  -1
M  END
>  <UniqueID>  (3) 
3

>  <SMILES>  (3) 
CC=Cc1ccc(S(=O)(=O)[N-]c2cccc(S(=O)(=O)N=c3cc(C)o[n-]3)c2)cc1

>  <Energy>  (3) 
86.27040567027683

>  <Genealogy>  (3) 
CC=Cc1ccc(S(=O)(=O)[N-]c2cccc(S(=O)(=O)N=c3cc(C)o[n-]3)c2)cc1 (protonated)
CC=Cc1ccc(S(=O)(=O)[N-]c2cccc(S(=O)(=O)N=c3cc(C)o[n-]3)c2)cc1 (3D coordinates assigned)
CC=Cc1ccc(S(=O)(=O)[N-]c2cccc(S(=O)(=O)N=c3cc(C)o[n-]3)c2)cc1 (optimized conformer: 86.27040567027683 kcal/mol)

>  <smiles>  (3) 
CC=Cc1ccc(S(=O)(=O)Nc2cccc(S(=O)(=O)N=c3cc(C)o[nH]3)c2)cc1

>  <score_type>  (3) 
oracle

>  <origin>  (3) 
adgpu

>  <m_score__min__energy>  (3) 
-11.58

>  <m_primary>  (3) 
energy

$$$$
3:0
     RDKit          3D

 51 53  0  0  0  0  0  0  0  0999 V2000
   -9.1120   19.5690  -31.9890 C   0  0  0  0  0  0  0  0  0  0  0  0
   -7.7480   19.0760  -32.3740 C   0  0  0  0  0  0  0  0  0  0  0  0
   -7.0850   19.6210  -33.4850 C   0  0  0  0  0  0  0  0  0  0  0  0
   -5.8300   19.1330  -33.8640 C   0  0  0  0  0  0  0  0  0  0  0  0
   -5.2290   18.0990  -33.1370 C   0  0  0  0  0  0  0  0  0  0  0  0
   -3.6160   17.4780  -33.6240 S   0  0  0  0  0  0  0  0  0  0  0  0
   -2.9490   19.1090  -34.1090 C   0  0  0  0  0  0  0  0  0  0  0  0
   -3.1490   20.1160  -33.0180 C   0  0  0  0  0  0  0  0  0  0  0  0
   -3.6990   21.2180  -33.2900 O   0  0  0  0  0  0  0  0  0  0  0  0
   -2.6460   19.8520  -31.6980 N   0  0  0  0  0  0  0  0  0  0  0  0
   -2.7350   20.7840  -30.6090 C   0  0  0  0  0  0  0  0  0  0  0  0
   -2.0090   20.5420  -29.4340 C   0  0  0  0  0  0  0  0  0  0  0  0
   -2.0760   21.4380  -28.3640 C   0  0  0  0  0  0  0  0  0  0  0  0
   -2.8790   22.5770  -28.4540 C   0  0  0  0  0  0  0  0  0  0  0  0
   -3.6350   22.8170  -29.6090 C   0  0  0  0  0  0  0  0  0  0  0  0
   -4.6340   24.2630  -29.7190 S   0  0  0  0  0  0  0  0  0  0  0  0
   -4.8890   24.8150  -28.3440 O   0  0  0  0  0  0  0  0  0  0  0  0
   -3.8980   25.3000  -30.5210 O   0  0  0  0  0  0  0  0  0  0  0  0
   -6.1460   23.8730  -30.5010 N   0  0  0  0  0  0  0  0  0  0  0  0
   -5.9090   23.5470  -31.9180 C   0  0  0  0  0  0  0  0  0  0  0  0
   -7.2460   23.4070  -32.6700 C   0  0  0  0  0  0  0  0  0  0  0  0
   -8.4150   23.0600  -31.7340 C   0  0  0  0  0  0  0  0  0  0  0  0
   -7.9550   22.1290  -30.6080 C   0  0  0  0  0  0  0  0  0  0  0  0
   -6.7890   22.7400  -29.8010 C   0  0  0  0  0  0  0  0  0  0  0  0
   -3.5670   21.9170  -30.6820 C   0  0  0  0  0  0  0  0  0  0  0  0
   -5.8950   17.5400  -32.0410 C   0  0  0  0  0  0  0  0  0  0  0  0
   -7.1520   18.0220  -31.6630 C   0  0  0  0  0  0  0  0  0  0  0  0
   -9.1950   19.5990  -30.8926 H   0  0  0  0  0  0  0  0  0  0  0  0
   -9.2651   20.5794  -32.3961 H   0  0  0  0  0  0  0  0  0  0  0  0
   -9.8757   18.8900  -32.3961 H   0  0  0  0  0  0  0  0  0  0  0  0
   -7.5536   20.4339  -34.0590 H   0  0  0  0  0  0  0  0  0  0  0  0
   -5.3143   19.5629  -34.7354 H   0  0  0  0  0  0  0  0  0  0  0  0
   -1.8730   19.0109  -34.3153 H   0  0  0  0  0  0  0  0  0  0  0  0
   -3.4833   19.4536  -35.0067 H   0  0  0  0  0  0  0  0  0  0  0  0
   -2.0460   19.0060  -31.5670 H   0  0  0  0  0  0  0  0  0  0  0  0
   -1.3828   19.6411  -29.3542 H   0  0  0  0  0  0  0  0  0  0  0  0
   -1.4955   21.2460  -27.4496 H   0  0  0  0  0  0  0  0  0  0  0  0
   -2.9181   23.2879  -27.6155 H   0  0  0  0  0  0  0  0  0  0  0  0
   -5.3161   24.3502  -32.3800 H   0  0  0  0  0  0  0  0  0  0  0  0
   -5.3656   22.5925  -31.9775 H   0  0  0  0  0  0  0  0  0  0  0  0
   -7.4685   24.3591  -33.1741 H   0  0  0  0  0  0  0  0  0  0  0  0
   -7.1392   22.5828  -33.3906 H   0  0  0  0  0  0  0  0  0  0  0  0
   -8.8126   23.9870  -31.2952 H   0  0  0  0  0  0  0  0  0  0  0  0
   -9.1933   22.5473  -32.3184 H   0  0  0  0  0  0  0  0  0  0  0  0
   -8.8009   21.9460  -29.9290 H   0  0  0  0  0  0  0  0  0  0  0  0
   -7.6029   21.1908  -31.0616 H   0  0  0  0  0  0  0  0  0  0  0  0
   -7.1774   23.0968  -28.8357 H   0  0  0  0  0  0  0  0  0  0  0  0
   -6.0291   21.9560  -29.6674 H   0  0  0  0  0  0  0  0  0  0  0  0
   -4.1673   22.0974  -31.5860 H   0  0  0  0  0  0  0  0  0  0  0  0
   -5.4289   16.7197  -31.4755 H   0  0  0  0  0  0  0  0  0  0  0  0
   -7.6757   17.5739  -30.8057 H   0  0  0  0  0  0  0  0  0  0  0  0
  1  2  1  0
  2  3  2  0
  3  4  1  0
  4  5  2  0
  5  6  1  0
  6  7  1  0
  7  8  1  0
  8  9  2  0
  8 10  1  0
 10 11  1  0
 11 12  2  0
 12 13  1  0
 13 14  2  0
 14 15  1  0
 15 16  1  0
 16 17  2  0
 16 18  2  0
 16 19  1  0
 19 20  1  0
 20 21  1  0
 21 22  1  0
 22 23  1  0
 23 24  1  0
 15 25  2  0
  5 26  1  0
 26 27  2  0
 27  2  1  0
 25 11  1  0
 24 19  1  0
  1 28  1  0
  1 29  1  0
  1 30  1  0
  3 31  1  0
  4 32  1  0
  7 33  1  0
  7 34  1  0
 10 35  1  0
 12 36  1  0
 13 37  1  0
 14 38  1  0
 20 39  1  0
 20 40  1  0
 21 41  1  0
 21 42  1  0
 22 43  1  0
 22 44  1  0
 23 45  1  0
 23 46  1  0
 24 47  1  0
 24 48  1  0
 25 49  1  0
 26 50  1  0
 27 51  1  0
M  END
>  <UniqueID>  (4) 
4

>  <SMILES>  (4) 
Cc1ccc(SCC(=O)Nc2cccc(S(=O)(=O)N3CCCCC3)c2)cc1

>  <Energy>  (4) 
51.15545779956645

>  <Genealogy>  (4) 
Cc1ccc(SCC(=O)Nc2cccc(S(=O)(=O)N3CCCCC3)c2)cc1 (3D coordinates assigned)
Cc1ccc(SCC(=O)Nc2cccc(S(=O)(=O)N3CCCCC3)c2)cc1 (nonaromatic ring conformer: 51.15545779956645 kcal/mol)

>  <smiles>  (4) 
Cc1ccc(SCC(=O)Nc2cccc(S(=O)(=O)N3CCCCC3)c2)cc1

>  <score_type>  (4) 
oracle

>  <origin>  (4) 
adgpu

>  <m_score__min__energy>  (4) 
-10.6

>  <m_primary>  (4) 
energy

$$$$
4:0
     RDKit          3D

 46 48  0  0  0  0  0  0  0  0999 V2000
   -1.7790   20.4590  -26.7060 C   0  0  0  0  0  0  0  0  0  0  0  0
   -1.7850   21.1860  -28.0180 C   0  0  0  0  0  0  0  0  0  0  0  0
   -1.6190   20.4820  -29.2180 C   0  0  0  0  0  0  0  0  0  0  0  0
   -1.6660   21.1570  -30.4410 C   0  0  0  0  0  0  0  0  0  0  0  0
   -1.8790   22.5370  -30.4740 C   0  0  0  0  0  0  0  0  0  0  0  0
   -2.0490   23.2590  -29.2820 C   0  0  0  0  0  0  0  0  0  0  0  0
   -2.2650   24.7240  -29.3230 C   0  0  0  0  0  0  0  0  0  0  0  0
   -1.3290   25.4980  -28.9880 O   0  0  0  0  0  0  0  0  0  0  0  0
   -3.5020   25.2980  -29.7720 N   0  0  0  0  0  0  0  0  0  0  0  0
   -4.6910   24.5640  -30.0950 C   0  0  0  0  0  0  0  0  0  0  0  0
   -5.4560   24.9570  -31.1990 C   0  0  0  0  0  0  0  0  0  0  0  0
   -6.5980   24.2350  -31.5590 C   0  0  0  0  0  0  0  0  0  0  0  0
   -6.9970   23.1220  -30.8050 C   0  0  0  0  0  0  0  0  0  0  0  0
   -8.4070   22.1790  -31.2740 S   0  0  0  0  0  0  0  0  0  0  0  0
   -9.2490   21.9250  -30.0560 O   0  0  0  0  0  0  0  0  0  0  0  0
   -9.2250   22.9300  -32.2870 O   0  0  0  0  0  0  0  0  0  0  0  0
   -7.8800   20.6610  -31.9950 C   0  0  0  0  0  0  0  0  0  0  0  0
   -8.7470   19.5650  -32.0680 C   0  0  0  0  0  0  0  0  0  0  0  0
   -8.3060   18.3570  -32.6090 C   0  0  0  0  0  0  0  0  0  0  0  0
   -6.9970   18.2300  -33.0870 C   0  0  0  0  0  0  0  0  0  0  0  0
   -6.4960   16.6700  -33.7330 Cl  0  0  0  0  0  0  0  0  0  0  0  0
   -6.1180   19.3330  -33.0290 C   0  0  0  0  0  0  0  0  0  0  0  0
   -4.4580   19.2110  -33.6240 S   0  0  0  0  0  0  0  0  0  0  0  0
   -3.7630   20.7830  -33.8180 N   0  0  0  0  0  0  0  0  0  0  0  0
   -4.4500   18.5150  -34.9560 O   0  0  0  0  0  0  0  0  0  0  0  0
   -3.6330   18.4280  -32.6410 O   0  0  0  0  0  0  0  0  0  0  0  0
   -6.5700   20.5400  -32.4750 C   0  0  0  0  0  0  0  0  0  0  0  0
   -6.2610   22.7580  -29.6700 C   0  0  0  0  0  0  0  0  0  0  0  0
   -5.1180   23.4760  -29.3120 C   0  0  0  0  0  0  0  0  0  0  0  0
   -2.0250   22.5690  -28.0550 C   0  0  0  0  0  0  0  0  0  0  0  0
   -1.7850   21.1884  -25.8826 H   0  0  0  0  0  0  0  0  0  0  0  0
   -2.6719   19.8203  -26.6366 H   0  0  0  0  0  0  0  0  0  0  0  0
   -0.8757   19.8351  -26.6366 H   0  0  0  0  0  0  0  0  0  0  0  0
   -1.4512   19.3951  -29.1975 H   0  0  0  0  0  0  0  0  0  0  0  0
   -1.5349   20.5998  -31.3803 H   0  0  0  0  0  0  0  0  0  0  0  0
   -1.9138   23.0616  -31.4402 H   0  0  0  0  0  0  0  0  0  0  0  0
   -5.1575   25.8379  -31.7862 H   0  0  0  0  0  0  0  0  0  0  0  0
   -7.1857   24.5412  -32.4370 H   0  0  0  0  0  0  0  0  0  0  0  0
   -9.7788   19.6561  -31.6979 H   0  0  0  0  0  0  0  0  0  0  0  0
   -8.9919   17.4986  -32.6601 H   0  0  0  0  0  0  0  0  0  0  0  0
   -3.0990   20.7270  -34.6210 H   0  0  0  0  0  0  0  0  0  0  0  0
   -4.5350   21.4230  -34.1120 H   0  0  0  0  0  0  0  0  0  0  0  0
   -5.8878   21.4010  -32.4170 H   0  0  0  0  0  0  0  0  0  0  0  0
   -6.5848   21.9031  -29.0582 H   0  0  0  0  0  0  0  0  0  0  0  0
   -4.5496   23.1899  -28.4147 H   0  0  0  0  0  0  0  0  0  0  0  0
   -2.1957   23.1181  -27.1172 H   0  0  0  0  0  0  0  0  0  0  0  0
  1  2  1  0
  2  3  2  0
  3  4  1  0
  4  5  2  0
  5  6  1  0
  6  7  1  0
  7  8  2  0
  7  9  1  0
  9 10  1  0
 10 11  2  0
 11 12  1  0
 12 13  2  0
 13 14  1  0
 14 15  2  0
 14 16  2  0
 14 17  1  0
 17 18  2  0
 18 19  1  0
 19 20  2  0
 20 21  1  0
 20 22  1  0
 22 23  1  0
 23 24  1  0
 23 25  2  0
 23 26  2  0
 22 27  2  0
 13 28  1  0
 28 29  2  0
  6 30  2  0
 30  2  1  0
 29 10  1  0
 27 17  1  0
  1 31  1  0
  1 32  1  0
  1 33  1  0
  3 34  1  0
  4 35  1  0
  5 36  1  0
 11 37  1  0
 12 38  1  0
 18 39  1  0
 19 40  1  0
 24 41  1  0
 24 42  1  0
 27 43  1  0
 28 44  1  0
 29 45  1  0
 30 46  1  0
M  CHG  1   9  -1
M  END
>  <UniqueID>  (5) 
5

>  <SMILES>  (5) 
Cc1cccc(C(=O)[N-]c2ccc(S(=O)(=O)c3ccc(Cl)c(S(N)(=O)=O)c3)cc2)c1

>  <Energy>  (5) 
55.07854042105297

>  <Genealogy>  (5) 
Cc1cccc(C(=O)[N-]c2ccc(S(=O)(=O)c3ccc(Cl)c(S(N)(=O)=O)c3)cc2)c1 (protonated)
Cc1cccc(C(=O)[N-]c2ccc(S(=O)(=O)c3ccc(Cl)c(S(N)(=O)=O)c3)cc2)c1 (3D coordinates assigned)
Cc1cccc(C(=O)[N-]c2ccc(S(=O)(=O)c3ccc(Cl)c(S(N)(=O)=O)c3)cc2)c1 (optimized conformer: 55.07854042105297 kcal/mol)

>  <smiles>  (5) 
Cc1cccc(C(=O)Nc2ccc(S(=O)(=O)c3ccc(Cl)c(S(N)(=O)=O)c3)cc2)c1

>  <score_type>  (5) 
oracle

>  <origin>  (5) 
adgpu

>  <m_score__min__energy>  (5) 
-12.460000000000001

>  <m_primary>  (5) 
energy

$$$$
5:0
     RDKit          3D

 40 41  0  0  0  0  0  0  0  0999 V2000
   -9.0810   19.0490  -32.0030 C   0  0  0  0  0  0  0  0  0  0  0  0
   -9.0950   20.5690  -32.1660 C   0  0  0  0  0  0  0  0  0  0  0  0
   -8.1520   21.2820  -31.1850 C   0  0  0  0  0  0  0  0  0  0  0  0
   -7.9930   22.7750  -31.4990 C   0  0  0  0  0  0  0  0  0  0  0  0
   -6.5690   23.2050  -31.2930 C   0  0  0  0  0  0  0  0  0  0  0  0
   -6.2610   24.5320  -30.9690 C   0  0  0  0  0  0  0  0  0  0  0  0
   -4.9240   24.8720  -30.7540 C   0  0  0  0  0  0  0  0  0  0  0  0
   -4.6100   26.0550  -30.4650 O   0  0  0  0  0  0  0  0  0  0  0  0
   -3.9600   23.9210  -30.8560 N   0  0  0  0  0  0  0  0  0  0  0  0
   -4.2750   22.6370  -31.1630 C   0  0  0  0  0  0  0  0  0  0  0  0
   -2.9850   21.4030  -31.2860 S   0  0  0  0  0  0  0  0  0  0  0  0
   -3.1440   21.2510  -33.0950 C   0  0  0  0  0  0  0  0  0  0  0  0
   -4.0380   20.0920  -33.4230 C   0  0  0  0  0  0  0  0  0  0  0  0
   -3.4860   18.8540  -33.7870 C   0  0  0  0  0  0  0  0  0  0  0  0
   -4.3180   17.7820  -34.1230 C   0  0  0  0  0  0  0  0  0  0  0  0
   -5.7100   17.9320  -34.1130 C   0  0  0  0  0  0  0  0  0  0  0  0
   -6.5020   16.8270  -34.4580 O   0  0  0  0  0  0  0  0  0  0  0  0
   -6.3770   15.5350  -33.8710 C   0  0  0  0  0  0  0  0  0  0  0  0
   -6.2640   19.1790  -33.7620 C   0  0  0  0  0  0  0  0  0  0  0  0
   -5.4320   20.2500  -33.4240 C   0  0  0  0  0  0  0  0  0  0  0  0
   -5.5710   22.2850  -31.3730 N   0  0  0  0  0  0  0  0  0  0  0  0
   -9.0787   18.7950  -30.9327 H   0  0  0  0  0  0  0  0  0  0  0  0
   -9.9752   18.6209  -32.4795 H   0  0  0  0  0  0  0  0  0  0  0  0
   -8.1790   18.6374  -32.4795 H   0  0  0  0  0  0  0  0  0  0  0  0
   -8.7857   20.8152  -33.1925 H   0  0  0  0  0  0  0  0  0  0  0  0
  -10.1172   20.9153  -31.9535 H   0  0  0  0  0  0  0  0  0  0  0  0
   -8.5571   21.1772  -30.1677 H   0  0  0  0  0  0  0  0  0  0  0  0
   -7.1604   20.8148  -31.2770 H   0  0  0  0  0  0  0  0  0  0  0  0
   -8.2789   22.9577  -32.5454 H   0  0  0  0  0  0  0  0  0  0  0  0
   -8.6412   23.3525  -30.8235 H   0  0  0  0  0  0  0  0  0  0  0  0
   -7.0544   25.2894  -30.8858 H   0  0  0  0  0  0  0  0  0  0  0  0
   -3.5775   22.1756  -33.5039 H   0  0  0  0  0  0  0  0  0  0  0  0
   -2.1508   21.0846  -33.5376 H   0  0  0  0  0  0  0  0  0  0  0  0
   -2.3936   18.7266  -33.8080 H   0  0  0  0  0  0  0  0  0  0  0  0
   -3.8755   16.8130  -34.3974 H   0  0  0  0  0  0  0  0  0  0  0  0
   -6.3860   15.6278  -32.7750 H   0  0  0  0  0  0  0  0  0  0  0  0
   -7.2182   14.9033  -34.1924 H   0  0  0  0  0  0  0  0  0  0  0  0
   -5.4303   15.0763  -34.1924 H   0  0  0  0  0  0  0  0  0  0  0  0
   -7.3561   19.3102  -33.7539 H   0  0  0  0  0  0  0  0  0  0  0  0
   -5.8726   21.2220  -33.1573 H   0  0  0  0  0  0  0  0  0  0  0  0
  1  2  1  0
  2  3  1  0
  3  4  1  0
  4  5  1  0
  5  6  2  0
  6  7  1  0
  7  8  2  0
  7  9  1  0
  9 10  1  0
 10 11  1  0
 11 12  1  0
 12 13  1  0
 13 14  2  0
 14 15  1  0
 15 16  2  0
 16 17  1  0
 17 18  1  0
 16 19  1  0
 19 20  2  0
 10 21  2  0
 21  5  1  0
 20 13  1  0
  1 22  1  0
  1 23  1  0
  1 24  1  0
  2 25  1  0
  2 26  1  0
  3 27  1  0
  3 28  1  0
  4 29  1  0
  4 30  1  0
  6 31  1  0
 12 32  1  0
 12 33  1  0
 14 34  1  0
 15 35  1  0
 18 36  1  0
 18 37  1  0
 18 38  1  0
 19 39  1  0
 20 40  1  0
M  CHG  1   9  -1
M  END
>  <UniqueID>  (6) 
6

>  <SMILES>  (6) 
CCCCc1cc(=O)[n-]c(SCc2ccc(OC)cc2)n1

>  <Energy>  (6) 
28.887561618402746

>  <Genealogy>  (6) 
CCCCc1cc(=O)[n-]c(SCc2ccc(OC)cc2)n1 (protonated)
CCCCc1cc(=O)[n-]c(SCc2ccc(OC)cc2)n1 (3D coordinates assigned)
CCCCc1cc(=O)[n-]c(SCc2ccc(OC)cc2)n1 (optimized conformer: 28.887561618402746 kcal/mol)

>  <smiles>  (6) 
CCCCc1cc(=O)[nH]c(SCc2ccc(OC)cc2)n1

>  <score_type>  (6) 
oracle

>  <origin>  (6) 
adgpu

>  <m_score__min__energy>  (6) 
-8.2699999999999996

>  <m_primary>  (6) 
energy

$$$$
6:0
     RDKit          3D

 39 41  0  0  0  0  0  0  0  0999 V2000
   -1.7550   25.3170  -29.2400 N   0  0  0  0  0  0  0  0  0  0  0  0
   -3.2430   24.5130  -29.5910 S   0  0  0  0  0  0  0  0  0  0  0  0
   -4.0850   25.3820  -30.4830 O   0  0  0  0  0  0  0  0  0  0  0  0
   -3.9930   24.2660  -28.3120 O   0  0  0  0  0  0  0  0  0  0  0  0
   -2.9110   22.9810  -30.3930 C   0  0  0  0  0  0  0  0  0  0  0  0
   -2.1100   22.0170  -29.7680 C   0  0  0  0  0  0  0  0  0  0  0  0
   -1.8350   20.8060  -30.4110 C   0  0  0  0  0  0  0  0  0  0  0  0
   -2.3730   20.5400  -31.6850 C   0  0  0  0  0  0  0  0  0  0  0  0
   -2.0870   19.3230  -32.3950 N   0  0  0  0  0  0  0  0  0  0  0  0
   -2.9200   18.6150  -33.0990 C   0  0  0  0  0  0  0  0  0  0  0  0
   -4.1990   19.0320  -33.3130 N   0  0  0  0  0  0  0  0  0  0  0  0
   -5.0660   18.3130  -34.0740 C   0  0  0  0  0  0  0  0  0  0  0  0
   -6.4120   18.7870  -34.2370 N   0  0  0  0  0  0  0  0  0  0  0  0
   -7.2270   19.2870  -33.1630 C   0  0  0  0  0  0  0  0  0  0  0  0
   -8.2850   18.5070  -32.6640 C   0  0  0  0  0  0  0  0  0  0  0  0
   -9.1160   19.0020  -31.6570 C   0  0  0  0  0  0  0  0  0  0  0  0
   -8.9110   20.2840  -31.1480 C   0  0  0  0  0  0  0  0  0  0  0  0
   -7.8720   21.0750  -31.6430 C   0  0  0  0  0  0  0  0  0  0  0  0
   -7.0240   20.5880  -32.6510 C   0  0  0  0  0  0  0  0  0  0  0  0
   -5.9480   21.4110  -33.1170 N   0  0  0  0  0  0  0  0  0  0  0  0
   -4.6370   17.1020  -34.6380 C   0  0  0  0  0  0  0  0  0  0  0  0
   -3.3220   16.6960  -34.4230 C   0  0  0  0  0  0  0  0  0  0  0  0
   -2.4910   17.4570  -33.6660 N   0  0  0  0  0  0  0  0  0  0  0  0
   -3.1380   21.5260  -32.3210 C   0  0  0  0  0  0  0  0  0  0  0  0
   -3.4140   22.7350  -31.6770 C   0  0  0  0  0  0  0  0  0  0  0  0
   -1.9950   26.2960  -28.9670 H   0  0  0  0  0  0  0  0  0  0  0  0
   -1.6958   22.2131  -28.7680 H   0  0  0  0  0  0  0  0  0  0  0  0
   -1.1956   20.0579  -29.9195 H   0  0  0  0  0  0  0  0  0  0  0  0
   -6.8420   18.7090  -35.1860 H   0  0  0  0  0  0  0  0  0  0  0  0
   -8.4593   17.4996  -33.0698 H   0  0  0  0  0  0  0  0  0  0  0  0
   -9.9337   18.3797  -31.2645 H   0  0  0  0  0  0  0  0  0  0  0  0
   -9.5682   20.6725  -30.3560 H   0  0  0  0  0  0  0  0  0  0  0  0
   -7.7167   22.0868  -31.2405 H   0  0  0  0  0  0  0  0  0  0  0  0
   -5.0850   20.9790  -33.5190 H   0  0  0  0  0  0  0  0  0  0  0  0
   -6.0070   22.4530  -33.1150 H   0  0  0  0  0  0  0  0  0  0  0  0
   -5.3243   16.4865  -35.2370 H   0  0  0  0  0  0  0  0  0  0  0  0
   -2.9567   15.7582  -34.8669 H   0  0  0  0  0  0  0  0  0  0  0  0
   -3.5245   21.3472  -33.3352 H   0  0  0  0  0  0  0  0  0  0  0  0
   -4.0284   23.4962  -32.1801 H   0  0  0  0  0  0  0  0  0  0  0  0
  1  2  1  0
  2  3  2  0
  2  4  2  0
  2  5  1  0
  5  6  2  0
  6  7  1  0
  7  8  2  0
  8  9  1  0
  9 10  2  3
 10 11  1  0
 11 12  2  0
 12 13  1  0
 13 14  1  0
 14 15  2  0
 15 16  1  0
 16 17  2  0
 17 18  1  0
 18 19  2  0
 19 20  1  0
 12 21  1  0
 21 22  2  0
 22 23  1  0
  8 24  1  0
 24 25  2  0
 25  5  1  0
 23 10  1  0
 19 14  1  0
  1 26  1  0
  6 27  1  0
  7 28  1  0
 13 29  1  0
 15 30  1  0
 16 31  1  0
 17 32  1  0
 18 33  1  0
 20 34  1  0
 20 35  1  0
 21 36  1  0
 22 37  1  0
 24 38  1  0
 25 39  1  0
M  CHG  2   1  -1  23  -1
M  END
>  <UniqueID>  (7) 
7

>  <SMILES>  (7) 
[NH-]S(=O)(=O)c1ccc(N=c2nc(Nc3ccccc3N)cc[n-]2)cc1

>  <Energy>  (7) 
54.55416369808538

>  <Genealogy>  (7) 
[NH-]S(=O)(=O)c1ccc(N=c2nc(Nc3ccccc3N)cc[n-]2)cc1 (protonated)
[NH-]S(=O)(=O)c1ccc(N=c2nc(Nc3ccccc3N)cc[n-]2)cc1 (3D coordinates assigned)
[NH-]S(=O)(=O)c1ccc(N=c2nc(Nc3ccccc3N)cc[n-]2)cc1 (optimized conformer: 54.55416369808538 kcal/mol)

>  <smiles>  (7) 
Nc1ccccc1Nc1cc[nH]c(=Nc2ccc(S(N)(=O)=O)cc2)n1

>  <score_type>  (7) 
oracle

>  <origin>  (7) 
adgpu

>  <m_score__min__energy>  (7) 
-11

>  <m_primary>  (7) 
energy

$$$$
7:0
     RDKit          3D

 37 38  0  0  0  0  0  0  0  0999 V2000
   -8.1390   23.1230  -31.8510 C   0  0  0  0  0  0  0  0  0  0  0  0
   -6.9140   23.7940  -32.4620 C   0  0  0  0  0  0  0  0  0  0  0  0
   -5.6990   23.3750  -31.7580 N   0  0  0  0  0  0  0  0  0  0  0  0
   -5.0450   22.1440  -32.1030 C   0  0  0  0  0  0  0  0  0  0  0  0
   -5.7230   20.9240  -31.9750 C   0  0  0  0  0  0  0  0  0  0  0  0
   -5.0870   19.7230  -32.3030 C   0  0  0  0  0  0  0  0  0  0  0  0
   -3.7560   19.7280  -32.7630 C   0  0  0  0  0  0  0  0  0  0  0  0
   -3.0730   18.5500  -33.1040 O   0  0  0  0  0  0  0  0  0  0  0  0
   -3.3730   17.7480  -34.2410 C   0  0  0  0  0  0  0  0  0  0  0  0
   -3.0820   20.9480  -32.8880 C   0  0  0  0  0  0  0  0  0  0  0  0
   -3.7190   22.1480  -32.5610 C   0  0  0  0  0  0  0  0  0  0  0  0
   -5.1330   24.3050  -30.4020 S   0  0  0  0  0  0  0  0  0  0  0  0
   -4.5860   25.6140  -30.9020 O   0  0  0  0  0  0  0  0  0  0  0  0
   -6.2630   24.5930  -29.4520 O   0  0  0  0  0  0  0  0  0  0  0  0
   -3.8790   23.4060  -29.5440 C   0  0  0  0  0  0  0  0  0  0  0  0
   -4.1310   22.0950  -29.1080 C   0  0  0  0  0  0  0  0  0  0  0  0
   -3.1520   21.3840  -28.4080 C   0  0  0  0  0  0  0  0  0  0  0  0
   -1.9160   21.9760  -28.1360 C   0  0  0  0  0  0  0  0  0  0  0  0
   -1.6590   23.2810  -28.5620 C   0  0  0  0  0  0  0  0  0  0  0  0
   -2.6350   23.9990  -29.2630 C   0  0  0  0  0  0  0  0  0  0  0  0
   -2.3590   25.2990  -29.6690 O   0  0  0  0  0  0  0  0  0  0  0  0
   -8.0691   23.1613  -30.7539 H   0  0  0  0  0  0  0  0  0  0  0  0
   -9.0474   23.6495  -32.1791 H   0  0  0  0  0  0  0  0  0  0  0  0
   -8.1844   22.0741  -32.1791 H   0  0  0  0  0  0  0  0  0  0  0  0
   -6.8355   23.5096  -33.5217 H   0  0  0  0  0  0  0  0  0  0  0  0
   -7.0215   24.8849  -32.3710 H   0  0  0  0  0  0  0  0  0  0  0  0
   -6.7621   20.9114  -31.6142 H   0  0  0  0  0  0  0  0  0  0  0  0
   -5.6282   18.7707  -32.2014 H   0  0  0  0  0  0  0  0  0  0  0  0
   -3.7405   16.7655  -33.9100 H   0  0  0  0  0  0  0  0  0  0  0  0
   -4.1464   18.2440  -34.8458 H   0  0  0  0  0  0  0  0  0  0  0  0
   -2.4639   17.6147  -34.8458 H   0  0  0  0  0  0  0  0  0  0  0  0
   -2.0422   20.9625  -33.2466 H   0  0  0  0  0  0  0  0  0  0  0  0
   -3.1781   23.1004  -32.6632 H   0  0  0  0  0  0  0  0  0  0  0  0
   -5.1033   21.6255  -29.3183 H   0  0  0  0  0  0  0  0  0  0  0  0
   -3.3550   20.3568  -28.0708 H   0  0  0  0  0  0  0  0  0  0  0  0
   -1.1458   21.4146  -27.5867 H   0  0  0  0  0  0  0  0  0  0  0  0
   -0.6860   23.7464  -28.3459 H   0  0  0  0  0  0  0  0  0  0  0  0
  1  2  1  0
  2  3  1  0
  3  4  1  0
  4  5  2  0
  5  6  1  0
  6  7  2  0
  7  8  1  0
  8  9  1  0
  7 10  1  0
 10 11  2  0
  3 12  1  0
 12 13  2  0
 12 14  2  0
 12 15  1  0
 15 16  2  0
 16 17  1  0
 17 18  2  0
 18 19  1  0
 19 20  2  0
 20 21  1  0
 11  4  1  0
 20 15  1  0
  1 22  1  0
  1 23  1  0
  1 24  1  0
  2 25  1  0
  2 26  1  0
  5 27  1  0
  6 28  1  0
  9 29  1  0
  9 30  1  0
  9 31  1  0
 10 32  1  0
 11 33  1  0
 16 34  1  0
 17 35  1  0
 18 36  1  0
 19 37  1  0
M  CHG  1  21  -1
M  END
>  <UniqueID>  (8) 
8

>  <SMILES>  (8) 
CCN(c1ccc(OC)cc1)S(=O)(=O)c1ccccc1[O-]

>  <Energy>  (8) 
39.79717958815555

>  <Genealogy>  (8) 
CCN(c1ccc(OC)cc1)S(=O)(=O)c1ccccc1[O-] (protonated)
CCN(c1ccc(OC)cc1)S(=O)(=O)c1ccccc1[O-] (3D coordinates assigned)
CCN(c1ccc(OC)cc1)S(=O)(=O)c1ccccc1[O-] (optimized conformer: 39.79717958815555 kcal/mol)

>  <smiles>  (8) 
CCN(c1ccc(OC)cc1)S(=O)(=O)c1ccccc1O

>  <score_type>  (8) 
oracle

>  <origin>  (8) 
adgpu

>  <m_score__min__energy>  (8) 
-10.279999999999999

>  <m_primary>  (8) 
energy

$$$$
8:0
     RDKit          3D

 49 51  0  0  0  0  0  0  0  0999 V2000
   -0.2060   23.4150  -24.8790 C   0  0  0  0  0  0  0  0  0  0  0  0
   -0.3710   22.5760  -26.1430 C   0  0  0  0  0  0  0  0  0  0  0  0
   -1.2040   23.3060  -27.1620 C   0  0  0  0  0  0  0  0  0  0  0  0
   -0.6180   24.2680  -27.9990 C   0  0  0  0  0  0  0  0  0  0  0  0
   -1.3860   24.9190  -28.9700 C   0  0  0  0  0  0  0  0  0  0  0  0
   -2.7470   24.6270  -29.1130 C   0  0  0  0  0  0  0  0  0  0  0  0
   -3.4910   25.2990  -30.1410 N   0  0  0  0  0  0  0  0  0  0  0  0
   -4.7120   24.8490  -30.7440 C   0  0  0  0  0  0  0  0  0  0  0  0
   -5.6900   25.6400  -30.8360 O   0  0  0  0  0  0  0  0  0  0  0  0
   -4.8170   23.4780  -31.3160 C   0  0  0  0  0  0  0  0  0  0  0  0
   -3.6650   22.6690  -31.3800 C   0  0  0  0  0  0  0  0  0  0  0  0
   -3.7140   21.3770  -31.9160 C   0  0  0  0  0  0  0  0  0  0  0  0
   -2.5070   20.6050  -31.9540 N   0  0  0  0  0  0  0  0  0  0  0  0
   -1.0020   21.0610  -31.2220 S   0  0  0  0  0  0  0  0  0  0  0  0
   -1.0510   22.5070  -30.8170 O   0  0  0  0  0  0  0  0  0  0  0  0
    0.1120   20.8380  -32.2060 O   0  0  0  0  0  0  0  0  0  0  0  0
   -0.7180   20.0760  -29.7900 C   0  0  0  0  0  0  0  0  0  0  0  0
    0.4020   19.2380  -29.7290 C   0  0  0  0  0  0  0  0  0  0  0  0
    0.6270   18.4490  -28.5990 C   0  0  0  0  0  0  0  0  0  0  0  0
   -0.2570   18.5000  -27.5190 C   0  0  0  0  0  0  0  0  0  0  0  0
   -1.3680   19.3630  -27.5500 C   0  0  0  0  0  0  0  0  0  0  0  0
   -2.3510   19.3880  -26.4050 C   0  0  0  0  0  0  0  0  0  0  0  0
   -3.5230   20.0160  -26.7850 F   0  0  0  0  0  0  0  0  0  0  0  0
   -1.8250   20.0710  -25.3210 F   0  0  0  0  0  0  0  0  0  0  0  0
   -2.6370   18.0910  -26.0230 F   0  0  0  0  0  0  0  0  0  0  0  0
   -1.6020   20.1340  -28.7020 C   0  0  0  0  0  0  0  0  0  0  0  0
   -4.9340   20.8790  -32.3970 C   0  0  0  0  0  0  0  0  0  0  0  0
   -6.0840   21.6660  -32.3410 C   0  0  0  0  0  0  0  0  0  0  0  0
   -6.0380   22.9620  -31.8100 C   0  0  0  0  0  0  0  0  0  0  0  0
   -7.2030   23.7280  -31.7840 O   0  0  0  0  0  0  0  0  0  0  0  0
   -3.3260   23.6370  -28.2990 C   0  0  0  0  0  0  0  0  0  0  0  0
   -2.5590   22.9840  -27.3300 C   0  0  0  0  0  0  0  0  0  0  0  0
   -0.3321   22.7737  -23.9942 H   0  0  0  0  0  0  0  0  0  0  0  0
    0.7978   23.8647  -24.8658 H   0  0  0  0  0  0  0  0  0  0  0  0
   -0.9647   24.2113  -24.8658 H   0  0  0  0  0  0  0  0  0  0  0  0
    0.6211   22.3678  -26.5701 H   0  0  0  0  0  0  0  0  0  0  0  0
   -0.8784   21.6363  -25.8796 H   0  0  0  0  0  0  0  0  0  0  0  0
    0.4494   24.5110  -27.8910 H   0  0  0  0  0  0  0  0  0  0  0  0
   -0.9164   25.6664  -29.6264 H   0  0  0  0  0  0  0  0  0  0  0  0
   -2.7091   23.0603  -31.0015 H   0  0  0  0  0  0  0  0  0  0  0  0
    1.1063   19.2011  -30.5731 H   0  0  0  0  0  0  0  0  0  0  0  0
    1.5033   17.7852  -28.5594 H   0  0  0  0  0  0  0  0  0  0  0  0
   -0.0839   17.8623  -26.6396 H   0  0  0  0  0  0  0  0  0  0  0  0
   -2.4852   20.7879  -28.7508 H   0  0  0  0  0  0  0  0  0  0  0  0
   -4.9838   19.8647  -32.8196 H   0  0  0  0  0  0  0  0  0  0  0  0
   -7.0368   21.2654  -32.7175 H   0  0  0  0  0  0  0  0  0  0  0  0
   -7.2130   24.6720  -31.4120 H   0  0  0  0  0  0  0  0  0  0  0  0
   -4.3869   23.3755  -28.4255 H   0  0  0  0  0  0  0  0  0  0  0  0
   -3.0206   22.2131  -26.6954 H   0  0  0  0  0  0  0  0  0  0  0  0
  1  2  1  0
  2  3  1  0
  3  4  2  0
  4  5  1  0
  5  6  2  0
  6  7  1  0
  7  8  1  0
  8  9  2  0
  8 10  1  0
 10 11  2  0
 11 12  1  0
 12 13  1  0
 13 14  1  0
 14 15  2  0
 14 16  2  0
 14 17  1  0
 17 18  2  0
 18 19  1  0
 19 20  2  0
 20 21  1  0
 21 22  1  0
 22 23  1  0
 22 24  1  0
 22 25  1  0
 21 26  2  0
 12 27  2  0
 27 28  1  0
 28 29  2  0
 29 30  1  0
  6 31  1  0
 31 32  2  0
 32  3  1  0
 29 10  1  0
 26 17  1  0
  1 33  1  0
  1 34  1  0
  1 35  1  0
  2 36  1  0
  2 37  1  0
  4 38  1  0
  5 39  1  0
 11 40  1  0
 18 41  1  0
 19 42  1  0
 20 43  1  0
 26 44  1  0
 27 45  1  0
 28 46  1  0
 30 47  1  0
 31 48  1  0
 32 49  1  0
M  CHG  2   7  -1  13  -1
M  END
>  <UniqueID>  (9) 
9

>  <SMILES>  (9) 
CCc1ccc([N-]C(=O)c2cc([N-]S(=O)(=O)c3cccc(C(F)(F)F)c3)ccc2O)cc1

>  <Energy>  (9) 
58.86606772313625

>  <Genealogy>  (9) 
CCc1ccc([N-]C(=O)c2cc([N-]S(=O)(=O)c3cccc(C(F)(F)F)c3)ccc2O)cc1 (protonated)
CCc1ccc([N-]C(=O)c2cc([N-]S(=O)(=O)c3cccc(C(F)(F)F)c3)ccc2O)cc1 (3D coordinates assigned)
CCc1ccc([N-]C(=O)c2cc([N-]S(=O)(=O)c3cccc(C(F)(F)F)c3)ccc2O)cc1 (optimized conformer: 58.86606772313625 kcal/mol)

>  <smiles>  (9) 
CCc1ccc(NC(=O)c2cc(NS(=O)(=O)c3cccc(C(F)(F)F)c3)ccc2O)cc1

>  <score_type>  (9) 
oracle

>  <origin>  (9) 
adgpu

>  <m_score__min__energy>  (9) 
-11.18

>  <m_primary>  (9) 
energy

$$$$
9:0
     RDKit          3D

 51 54  0  0  0  0  0  0  0  0999 V2000
    4.2790   20.1920  -28.5860 C   0  0  0  0  0  0  0  0  0  0  0  0
    4.2330   19.0770  -27.5920 C   0  0  0  0  0  0  0  0  0  0  0  0
    5.1170   18.9490  -26.5750 N   0  0  0  0  0  0  0  0  0  0  0  0
    4.8040   17.8730  -25.8600 N   0  0  0  0  0  0  0  0  0  0  0  0
    3.7220   17.3150  -26.4290 C   0  0  0  0  0  0  0  0  0  0  0  0
    3.0280   16.1890  -25.9940 C   0  0  0  0  0  0  0  0  0  0  0  0
    1.8910   15.7980  -26.7230 C   0  0  0  0  0  0  0  0  0  0  0  0
    1.4840   16.5270  -27.8620 C   0  0  0  0  0  0  0  0  0  0  0  0
    2.2190   17.6490  -28.2940 C   0  0  0  0  0  0  0  0  0  0  0  0
    1.8170   18.3430  -29.4390 O   0  0  0  0  0  0  0  0  0  0  0  0
    0.7970   19.3070  -29.4710 C   0  0  0  0  0  0  0  0  0  0  0  0
   -0.0760   19.3010  -30.5650 C   0  0  0  0  0  0  0  0  0  0  0  0
   -1.1200   20.2250  -30.6500 C   0  0  0  0  0  0  0  0  0  0  0  0
   -1.2940   21.1940  -29.6480 C   0  0  0  0  0  0  0  0  0  0  0  0
   -2.3750   22.1400  -29.6980 N   0  0  0  0  0  0  0  0  0  0  0  0
   -3.1040   22.4600  -30.8950 C   0  0  0  0  0  0  0  0  0  0  0  0
   -2.5810   22.2480  -32.0230 O   0  0  0  0  0  0  0  0  0  0  0  0
   -4.4350   23.1070  -30.8200 C   0  0  0  0  0  0  0  0  0  0  0  0
   -5.5950   22.3200  -30.9420 C   0  0  0  0  0  0  0  0  0  0  0  0
   -6.8760   22.9020  -30.8830 C   0  0  0  0  0  0  0  0  0  0  0  0
   -8.1280   22.0560  -31.0260 C   0  0  0  0  0  0  0  0  0  0  0  0
   -9.1510   22.7350  -31.9450 C   0  0  0  0  0  0  0  0  0  0  0  0
   -7.7900   20.6460  -31.5240 C   0  0  0  0  0  0  0  0  0  0  0  0
   -6.9840   24.2880  -30.6920 C   0  0  0  0  0  0  0  0  0  0  0  0
   -5.8410   25.0740  -30.5540 C   0  0  0  0  0  0  0  0  0  0  0  0
   -4.5700   24.4950  -30.6070 C   0  0  0  0  0  0  0  0  0  0  0  0
   -3.4550   25.3050  -30.4200 O   0  0  0  0  0  0  0  0  0  0  0  0
   -0.4220   21.2010  -28.5490 C   0  0  0  0  0  0  0  0  0  0  0  0
    0.6240   20.2770  -28.4610 C   0  0  0  0  0  0  0  0  0  0  0  0
    1.4670   20.3530  -27.4010 F   0  0  0  0  0  0  0  0  0  0  0  0
    3.3330   18.0280  -27.5300 C   0  0  0  0  0  0  0  0  0  0  0  0
    4.3187   21.1548  -28.0555 H   0  0  0  0  0  0  0  0  0  0  0  0
    5.1735   20.0839  -29.2171 H   0  0  0  0  0  0  0  0  0  0  0  0
    3.3787   20.1580  -29.2171 H   0  0  0  0  0  0  0  0  0  0  0  0
    3.3582   15.6242  -25.1097 H   0  0  0  0  0  0  0  0  0  0  0  0
    1.3141   14.9175  -26.4037 H   0  0  0  0  0  0  0  0  0  0  0  0
    0.5861   16.2165  -28.4164 H   0  0  0  0  0  0  0  0  0  0  0  0
    0.0616   18.5605  -31.3667 H   0  0  0  0  0  0  0  0  0  0  0  0
   -1.8097   20.1937  -31.5063 H   0  0  0  0  0  0  0  0  0  0  0  0
   -2.5730   22.7050  -28.8410 H   0  0  0  0  0  0  0  0  0  0  0  0
   -5.4998   21.2336  -31.0856 H   0  0  0  0  0  0  0  0  0  0  0  0
   -8.5825   21.9594  -30.0290 H   0  0  0  0  0  0  0  0  0  0  0  0
   -9.9133   23.2410  -31.3344 H   0  0  0  0  0  0  0  0  0  0  0  0
   -8.6400   23.4738  -32.5799 H   0  0  0  0  0  0  0  0  0  0  0  0
   -9.6334   21.9772  -32.5799 H   0  0  0  0  0  0  0  0  0  0  0  0
   -7.6306   19.9812  -30.6623 H   0  0  0  0  0  0  0  0  0  0  0  0
   -8.6218   20.2632  -32.1335 H   0  0  0  0  0  0  0  0  0  0  0  0
   -6.8750   20.6819  -32.1335 H   0  0  0  0  0  0  0  0  0  0  0  0
   -7.9778   24.7577  -30.6509 H   0  0  0  0  0  0  0  0  0  0  0  0
   -5.9402   26.1589  -30.4021 H   0  0  0  0  0  0  0  0  0  0  0  0
   -0.5626   21.9414  -27.7477 H   0  0  0  0  0  0  0  0  0  0  0  0
  1  2  1  0
  2  3  1  0
  3  4  1  0
  4  5  2  0
  5  6  1  0
  6  7  2  0
  7  8  1  0
  8  9  2  0
  9 10  1  0
 10 11  1  0
 11 12  2  0
 12 13  1  0
 13 14  2  0
 14 15  1  0
 15 16  1  0
 16 17  2  0
 16 18  1  0
 18 19  2  0
 19 20  1  0
 20 21  1  0
 21 22  1  0
 21 23  1  0
 20 24  2  0
 24 25  1  0
 25 26  2  0
 26 27  1  0
 14 28  1  0
 28 29  2  0
 29 30  1  0
  9 31  1  0
 31  2  2  0
 31  5  1  0
 29 11  1  0
 26 18  1  0
  1 32  1  0
  1 33  1  0
  1 34  1  0
  6 35  1  0
  7 36  1  0
  8 37  1  0
 12 38  1  0
 13 39  1  0
 15 40  1  0
 19 41  1  0
 21 42  1  0
 22 43  1  0
 22 44  1  0
 22 45  1  0
 23 46  1  0
 23 47  1  0
 23 48  1  0
 24 49  1  0
 25 50  1  0
 28 51  1  0
M  CHG  2   3  -1  27  -1
M  END
>  <UniqueID>  (10) 
10

>  <SMILES>  (10) 
Cc1[n-]nc2cccc(Oc3ccc(NC(=O)c4cc(C(C)C)ccc4[O-])cc3F)c12

>  <Energy>  (10) 
105.94873656874627

>  <Genealogy>  (10) 
Cc1[n-]nc2cccc(Oc3ccc(NC(=O)c4cc(C(C)C)ccc4[O-])cc3F)c12 (protonated)
Cc1[n-]nc2cccc(Oc3ccc(NC(=O)c4cc(C(C)C)ccc4[O-])cc3F)c12 (3D coordinates assigned)
Cc1[n-]nc2cccc(Oc3ccc(NC(=O)c4cc(C(C)C)ccc4[O-])cc3F)c12 (optimized conformer: 105.94873656874627 kcal/mol)

>  <smiles>  (10) 
Cc1[nH]nc2cccc(Oc3ccc(NC(=O)c4cc(C(C)C)ccc4O)cc3F)c12

>  <score_type>  (10) 
oracle

>  <origin>  (10) 
adgpu

>  <m_score__min__energy>  (10) 
-12.42

>  <m_primary>  (10) 
energy

$$$$
10:0
     RDKit          3D

 45 47  0  0  0  0  0  0  0  0999 V2000
   -9.7121   20.4098  -30.5743 H   0  0  0  0  0  0  0  0  0  0  0  0
   -8.9390   20.0240  -31.2550 C   0  0  0  0  0  0  0  0  0  0  0  0
   -8.2390   20.9020  -32.0870 C   0  0  0  0  0  0  0  0  0  0  0  0
   -8.4617   21.9789  -32.0594 H   0  0  0  0  0  0  0  0  0  0  0  0
   -7.2580   20.4160  -32.9530 C   0  0  0  0  0  0  0  0  0  0  0  0
   -6.7136   21.1097  -33.6106 H   0  0  0  0  0  0  0  0  0  0  0  0
   -6.9660   19.0480  -32.9860 C   0  0  0  0  0  0  0  0  0  0  0  0
   -5.7760   18.4210  -34.1210 S   0  0  0  0  0  0  0  0  0  0  0  0
   -5.8130   16.9200  -34.0880 O   0  0  0  0  0  0  0  0  0  0  0  0
   -6.1100   18.8820  -35.5110 O   0  0  0  0  0  0  0  0  0  0  0  0
   -4.1670   18.9940  -33.6870 C   0  0  0  0  0  0  0  0  0  0  0  0
   -3.0330   18.3470  -34.1910 C   0  0  0  0  0  0  0  0  0  0  0  0
   -3.1417   17.4774  -34.8559 H   0  0  0  0  0  0  0  0  0  0  0  0
   -1.7600   18.8130  -33.8440 C   0  0  0  0  0  0  0  0  0  0  0  0
   -0.5380   18.1380  -34.3870 C   0  0  0  0  0  0  0  0  0  0  0  0
    0.0902   17.7910  -33.5534 H   0  0  0  0  0  0  0  0  0  0  0  0
   -0.8377   17.2775  -35.0032 H   0  0  0  0  0  0  0  0  0  0  0  0
    0.0309   18.8498  -35.0032 H   0  0  0  0  0  0  0  0  0  0  0  0
   -1.6430   19.9540  -33.0390 C   0  0  0  0  0  0  0  0  0  0  0  0
   -0.6482   20.3427  -32.7757 H   0  0  0  0  0  0  0  0  0  0  0  0
   -2.7950   20.5990  -32.5700 C   0  0  0  0  0  0  0  0  0  0  0  0
   -2.6580   21.6560  -31.8160 N   0  0  0  0  0  0  0  0  0  0  0  0
   -3.7060   22.4990  -31.3170 C   0  0  0  0  0  0  0  0  0  0  0  0
   -3.5450   23.1210  -30.0770 C   0  0  0  0  0  0  0  0  0  0  0  0
   -2.6264   22.9541  -29.4953 H   0  0  0  0  0  0  0  0  0  0  0  0
   -4.5460   23.9540  -29.5730 C   0  0  0  0  0  0  0  0  0  0  0  0
   -4.4152   24.4271  -28.5886 H   0  0  0  0  0  0  0  0  0  0  0  0
   -5.7200   24.1950  -30.3100 C   0  0  0  0  0  0  0  0  0  0  0  0
   -6.7960   25.0680  -29.7190 C   0  0  0  0  0  0  0  0  0  0  0  0
   -6.7419   25.0241  -28.6212 H   0  0  0  0  0  0  0  0  0  0  0  0
   -6.6500   26.1061  -30.0521 H   0  0  0  0  0  0  0  0  0  0  0  0
   -7.7818   24.7112  -30.0521 H   0  0  0  0  0  0  0  0  0  0  0  0
   -5.8790   23.5850  -31.5770 C   0  0  0  0  0  0  0  0  0  0  0  0
   -7.1200   23.8010  -32.4010 C   0  0  0  0  0  0  0  0  0  0  0  0
   -7.9816   23.9510  -31.7338 H   0  0  0  0  0  0  0  0  0  0  0  0
   -6.9886   24.6898  -33.0357 H   0  0  0  0  0  0  0  0  0  0  0  0
   -7.2967   22.9201  -33.0357 H   0  0  0  0  0  0  0  0  0  0  0  0
   -4.8550   22.7660  -32.0800 C   0  0  0  0  0  0  0  0  0  0  0  0
   -4.9539   22.3280  -33.0842 H   0  0  0  0  0  0  0  0  0  0  0  0
   -4.0270   20.0870  -32.8830 N   0  0  0  0  0  0  0  0  0  0  0  0
   -4.8930   20.5110  -32.4860 H   0  0  0  0  0  0  0  0  0  0  0  0
   -7.6720   18.1700  -32.1490 C   0  0  0  0  0  0  0  0  0  0  0  0
   -7.4485   17.0932  -32.1714 H   0  0  0  0  0  0  0  0  0  0  0  0
   -8.6570   18.6580  -31.2880 C   0  0  0  0  0  0  0  0  0  0  0  0
   -9.2103   17.9659  -30.6362 H   0  0  0  0  0  0  0  0  0  0  0  0
  1  2  1  0
  2  3  2  0
  3  4  1  0
  3  5  1  0
  5  6  1  0
  5  7  2  0
  7  8  1  0
  8  9  2  0
  8 10  2  0
  8 11  1  0
 11 12  2  0
 12 13  1  0
 12 14  1  0
 14 15  1  0
 15 16  1  0
 15 17  1  0
 15 18  1  0
 14 19  2  0
 19 20  1  0
 19 21  1  0
 21 22  2  0
 22 23  1  0
 23 24  2  0
 24 25  1  0
 24 26  1  0
 26 27  1  0
 26 28  2  0
 28 29  1  0
 29 30  1  0
 29 31  1  0
 29 32  1  0
 28 33  1  0
 33 34  1  0
 34 35  1  0
 34 36  1  0
 34 37  1  0
 33 38  2  0
 38 39  1  0
 21 40  1  0
 40 41  1  0
  7 42  1  0
 42 43  1  0
 42 44  2  0
 44 45  1  0
 44  2  1  0
 40 11  1  0
 38 23  1  0
M  END
>  <UniqueID>  (11) 
11

>  <SMILES>  (11) 
Cc1cc(S(=O)(=O)c2ccccc2)[nH]/c(=N\c2ccc(C)c(C)c2)c1

>  <Energy>  (11) 
56.47367412242492

>  <Genealogy>  (11) 
Cc1cc(S(=O)(=O)c2ccccc2)[nH]/c(=N\c2ccc(C)c(C)c2)c1 (cis-trans isomerization)
Cc1cc(S(=O)(=O)c2ccccc2)[nH]/c(=N\c2ccc(C)c(C)c2)c1 (3D coordinates assigned)
Cc1cc(S(=O)(=O)c2ccccc2)[nH]/c(=N\c2ccc(C)c(C)c2)c1 (optimized conformer: 56.47367412242492 kcal/mol)

>  <smiles>  (11) 
Cc1cc(S(=O)(=O)c2ccccc2)[nH]c(=Nc2ccc(C)c(C)c2)c1

>  <score_type>  (11) 
oracle

>  <origin>  (11) 
adgpu

>  <m_score__min__energy>  (11) 
-8.8599999999999994

>  <m_primary>  (11) 
energy

$$$$
11:0
     RDKit          3D

 47 50  0  0  0  0  0  0  0  0999 V2000
   -1.9850   18.4480  -32.8930 Cl  0  0  0  0  0  0  0  0  0  0  0  0
   -1.7420   19.9050  -31.9500 C   0  0  0  0  0  0  0  0  0  0  0  0
   -2.3900   21.0890  -32.3140 C   0  0  0  0  0  0  0  0  0  0  0  0
   -2.1700   22.2620  -31.5850 C   0  0  0  0  0  0  0  0  0  0  0  0
   -1.2830   22.2630  -30.4910 C   0  0  0  0  0  0  0  0  0  0  0  0
   -0.9530   23.4770  -29.7930 N   0  0  0  0  0  0  0  0  0  0  0  0
   -1.4450   23.7800  -28.4440 C   0  0  0  0  0  0  0  0  0  0  0  0
   -2.4940   24.9010  -28.4760 C   0  0  0  0  0  0  0  0  0  0  0  0
   -3.5830   24.5800  -29.3960 N   0  0  0  0  0  0  0  0  0  0  0  0
   -4.3350   23.4670  -29.3930 C   0  0  0  0  0  0  0  0  0  0  0  0
   -5.0940   23.5120  -30.5490 C   0  0  0  0  0  0  0  0  0  0  0  0
   -5.9810   22.4560  -31.0900 C   0  0  0  0  0  0  0  0  0  0  0  0
   -7.3170   22.3390  -30.6640 C   0  0  0  0  0  0  0  0  0  0  0  0
   -8.1290   21.3140  -31.1570 C   0  0  0  0  0  0  0  0  0  0  0  0
   -7.6190   20.3930  -32.0770 C   0  0  0  0  0  0  0  0  0  0  0  0
   -8.6670   19.0830  -32.7100 S   0  0  0  0  0  0  0  0  0  0  0  0
   -7.3340   17.8830  -32.7180 C   0  0  0  0  0  0  0  0  0  0  0  0
   -6.8610   17.3650  -33.9300 C   0  0  0  0  0  0  0  0  0  0  0  0
   -5.8190   16.4320  -33.9350 C   0  0  0  0  0  0  0  0  0  0  0  0
   -5.2410   16.0230  -32.7280 C   0  0  0  0  0  0  0  0  0  0  0  0
   -5.7100   16.5410  -31.5170 C   0  0  0  0  0  0  0  0  0  0  0  0
   -6.7570   17.4690  -31.5100 C   0  0  0  0  0  0  0  0  0  0  0  0
   -6.2940   20.5020  -32.5080 C   0  0  0  0  0  0  0  0  0  0  0  0
   -5.4790   21.5250  -32.0170 C   0  0  0  0  0  0  0  0  0  0  0  0
   -4.7930   24.6570  -31.1990 N   0  0  0  0  0  0  0  0  0  0  0  0
   -3.8730   25.2820  -30.4790 N   0  0  0  0  0  0  0  0  0  0  0  0
   -0.6760   21.0570  -30.1050 C   0  0  0  0  0  0  0  0  0  0  0  0
   -0.8960   19.8870  -30.8370 C   0  0  0  0  0  0  0  0  0  0  0  0
   -3.0741   21.0980  -33.1753 H   0  0  0  0  0  0  0  0  0  0  0  0
   -2.6921   23.1881  -31.8673 H   0  0  0  0  0  0  0  0  0  0  0  0
   -0.6240   24.2920  -30.3610 H   0  0  0  0  0  0  0  0  0  0  0  0
   -1.8999   22.8746  -28.0159 H   0  0  0  0  0  0  0  0  0  0  0  0
   -0.5959   24.1141  -27.8297 H   0  0  0  0  0  0  0  0  0  0  0  0
   -2.9063   25.0355  -27.4651 H   0  0  0  0  0  0  0  0  0  0  0  0
   -2.0065   25.8243  -28.8222 H   0  0  0  0  0  0  0  0  0  0  0  0
   -4.3453   22.6786  -28.6260 H   0  0  0  0  0  0  0  0  0  0  0  0
   -7.7246   23.0586  -29.9387 H   0  0  0  0  0  0  0  0  0  0  0  0
   -9.1729   21.2315  -30.8201 H   0  0  0  0  0  0  0  0  0  0  0  0
   -7.3096   17.6924  -34.8795 H   0  0  0  0  0  0  0  0  0  0  0  0
   -5.4540   16.0199  -34.8873 H   0  0  0  0  0  0  0  0  0  0  0  0
   -4.4175   15.2938  -32.7320 H   0  0  0  0  0  0  0  0  0  0  0  0
   -5.2553   16.2186  -30.5687 H   0  0  0  0  0  0  0  0  0  0  0  0
   -7.1272   17.8735  -30.5564 H   0  0  0  0  0  0  0  0  0  0  0  0
   -5.8921   19.7810  -33.2351 H   0  0  0  0  0  0  0  0  0  0  0  0
   -4.4362   21.6030  -32.3582 H   0  0  0  0  0  0  0  0  0  0  0  0
   -0.0228   21.0330  -29.2203 H   0  0  0  0  0  0  0  0  0  0  0  0
   -0.4029   18.9506  -30.5371 H   0  0  0  0  0  0  0  0  0  0  0  0
  1  2  1  0
  2  3  2  0
  3  4  1  0
  4  5  2  0
  5  6  1  0
  6  7  1  0
  7  8  1  0
  8  9  1  0
  9 10  1  0
 10 11  2  0
 11 12  1  0
 12 13  2  0
 13 14  1  0
 14 15  2  0
 15 16  1  0
 16 17  1  0
 17 18  2  0
 18 19  1  0
 19 20  2  0
 20 21  1  0
 21 22  2  0
 15 23  1  0
 23 24  2  0
 11 25  1  0
 25 26  2  0
  5 27  1  0
 27 28  2  0
 28  2  1  0
 26  9  1  0
 24 12  1  0
 22 17  1  0
  3 29  1  0
  4 30  1  0
  6 31  1  0
  7 32  1  0
  7 33  1  0
  8 34  1  0
  8 35  1  0
 10 36  1  0
 13 37  1  0
 14 38  1  0
 18 39  1  0
 19 40  1  0
 20 41  1  0
 21 42  1  0
 22 43  1  0
 23 44  1  0
 24 45  1  0
 27 46  1  0
 28 47  1  0
M  END
>  <UniqueID>  (12) 
12

>  <SMILES>  (12) 
Clc1ccc(NCCn2cc(-c3ccc(Sc4ccccc4)cc3)nn2)cc1

>  <Energy>  (12) 
76.68938797833424

>  <Genealogy>  (12) 
Clc1ccc(NCCn2cc(-c3ccc(Sc4ccccc4)cc3)nn2)cc1 (3D coordinates assigned)
Clc1ccc(NCCn2cc(-c3ccc(Sc4ccccc4)cc3)nn2)cc1 (optimized conformer: 76.68938797833424 kcal/mol)

>  <smiles>  (12) 
Clc1ccc(NCCn2cc(-c3ccc(Sc4ccccc4)cc3)nn2)cc1

>  <score_type>  (12) 
oracle

>  <origin>  (12) 
adgpu

>  <m_score__min__energy>  (12) 
-9.9600000000000009

>  <m_primary>  (12) 
energy

$$$$
12:0
     RDKit          3D

 58 61  0  0  0  0  0  0  0  0999 V2000
   -1.2680   21.9340  -28.6200 O   0  0  0  0  0  0  0  0  0  0  0  0
   -2.1590   22.8140  -28.7690 C   0  0  0  0  0  0  0  0  0  0  0  0
   -2.7600   23.4650  -27.5610 C   0  0  0  0  0  0  0  0  0  0  0  0
   -1.8970   24.5920  -27.0820 C   0  0  0  0  0  0  0  0  0  0  0  0
   -1.5180   24.9050  -25.4730 S   0  0  0  0  0  0  0  0  0  0  0  0
   -0.6500   26.3010  -25.8510 C   0  0  0  0  0  0  0  0  0  0  0  0
   -0.0020   27.1480  -24.8910 N   0  0  0  0  0  0  0  0  0  0  0  0
    0.5310   26.6560  -23.6330 C   0  0  0  0  0  0  0  0  0  0  0  0
    1.0230   27.8910  -22.8870 C   0  0  0  0  0  0  0  0  0  0  0  0
    1.0650   29.0260  -23.9160 C   0  0  0  0  0  0  0  0  0  0  0  0
    0.1900   28.5750  -25.0790 C   0  0  0  0  0  0  0  0  0  0  0  0
   -0.6410   26.5470  -27.1830 N   0  0  0  0  0  0  0  0  0  0  0  0
   -1.3340   25.5990  -27.8660 C   0  0  0  0  0  0  0  0  0  0  0  0
   -1.4730   25.6450  -29.2510 O   0  0  0  0  0  0  0  0  0  0  0  0
   -2.6320   23.1830  -30.0740 N   0  0  0  0  0  0  0  0  0  0  0  0
   -3.9870   23.2410  -30.5550 C   0  0  0  0  0  0  0  0  0  0  0  0
   -4.7240   22.0890  -30.8960 C   0  0  0  0  0  0  0  0  0  0  0  0
   -6.0360   22.2020  -31.3780 C   0  0  0  0  0  0  0  0  0  0  0  0
   -6.9360   20.7450  -31.8040 S   0  0  0  0  0  0  0  0  0  0  0  0
   -7.5720   20.9180  -33.1550 O   0  0  0  0  0  0  0  0  0  0  0  0
   -8.0300   20.5600  -30.7920 O   0  0  0  0  0  0  0  0  0  0  0  0
   -5.8980   19.3310  -31.7880 N   0  0  0  0  0  0  0  0  0  0  0  0
   -4.8560   19.2960  -32.8330 C   0  0  0  0  0  0  0  0  0  0  0  0
   -5.3680   18.8140  -34.2020 C   0  0  0  0  0  0  0  0  0  0  0  0
   -6.0590   17.4400  -34.1610 C   0  0  0  0  0  0  0  0  0  0  0  0
   -5.4800   16.4370  -33.1530 C   0  0  0  0  0  0  0  0  0  0  0  0
   -5.7710   16.7930  -31.6870 C   0  0  0  0  0  0  0  0  0  0  0  0
   -6.6210   18.0670  -31.5420 C   0  0  0  0  0  0  0  0  0  0  0  0
   -6.6120   23.4690  -31.5390 C   0  0  0  0  0  0  0  0  0  0  0  0
   -5.8810   24.6160  -31.2230 C   0  0  0  0  0  0  0  0  0  0  0  0
   -4.5750   24.5050  -30.7370 C   0  0  0  0  0  0  0  0  0  0  0  0
   -3.8600   25.6580  -30.4320 O   0  0  0  0  0  0  0  0  0  0  0  0
   -3.7549   23.8567  -27.8193 H   0  0  0  0  0  0  0  0  0  0  0  0
   -2.8409   22.7162  -26.7593 H   0  0  0  0  0  0  0  0  0  0  0  0
   -0.2546   26.1462  -23.0560 H   0  0  0  0  0  0  0  0  0  0  0  0
    1.3387   25.9260  -23.7902 H   0  0  0  0  0  0  0  0  0  0  0  0
    0.3313   28.1431  -22.0697 H   0  0  0  0  0  0  0  0  0  0  0  0
    2.0131   27.7200  -22.4394 H   0  0  0  0  0  0  0  0  0  0  0  0
    0.6686   29.9537  -23.4775 H   0  0  0  0  0  0  0  0  0  0  0  0
    2.0943   29.2328  -24.2443 H   0  0  0  0  0  0  0  0  0  0  0  0
   -0.7770   29.0989  -25.0580 H   0  0  0  0  0  0  0  0  0  0  0  0
    0.6555   28.7992  -26.0501 H   0  0  0  0  0  0  0  0  0  0  0  0
   -1.9370   24.8980  -29.7480 H   0  0  0  0  0  0  0  0  0  0  0  0
   -4.2670   21.0948  -30.7833 H   0  0  0  0  0  0  0  0  0  0  0  0
   -4.4495   20.3112  -32.9521 H   0  0  0  0  0  0  0  0  0  0  0  0
   -4.0940   18.5746  -32.5028 H   0  0  0  0  0  0  0  0  0  0  0  0
   -6.0889   19.5529  -34.5819 H   0  0  0  0  0  0  0  0  0  0  0  0
   -4.4876   18.7092  -34.8531 H   0  0  0  0  0  0  0  0  0  0  0  0
   -7.1175   17.6008  -33.9087 H   0  0  0  0  0  0  0  0  0  0  0  0
   -5.9017   16.9939  -35.1541 H   0  0  0  0  0  0  0  0  0  0  0  0
   -5.9118   15.4471  -33.3618 H   0  0  0  0  0  0  0  0  0  0  0  0
   -4.3870   16.4541  -33.2759 H   0  0  0  0  0  0  0  0  0  0  0  0
   -6.3110   15.9550  -31.2221 H   0  0  0  0  0  0  0  0  0  0  0  0
   -4.8061   16.9798  -31.1930 H   0  0  0  0  0  0  0  0  0  0  0  0
   -7.4535   18.0051  -32.2583 H   0  0  0  0  0  0  0  0  0  0  0  0
   -6.9492   18.0998  -30.4926 H   0  0  0  0  0  0  0  0  0  0  0  0
   -7.6417   23.5603  -31.9149 H   0  0  0  0  0  0  0  0  0  0  0  0
   -6.3340   25.6094  -31.3568 H   0  0  0  0  0  0  0  0  0  0  0  0
  1  2  2  0
  2  3  1  0
  3  4  1  0
  4  5  1  0
  5  6  1  0
  6  7  1  0
  7  8  1  0
  8  9  1  0
  9 10  1  0
 10 11  1  0
  6 12  2  0
 12 13  1  0
 13 14  1  0
  2 15  1  0
 15 16  1  0
 16 17  2  0
 17 18  1  0
 18 19  1  0
 19 20  2  0
 19 21  2  0
 19 22  1  0
 22 23  1  0
 23 24  1  0
 24 25  1  0
 25 26  1  0
 26 27  1  0
 27 28  1  0
 18 29  2  0
 29 30  1  0
 30 31  2  0
 31 32  1  0
 13  4  2  0
 31 16  1  0
 11  7  1  0
 28 22  1  0
  3 33  1  0
  3 34  1  0
  8 35  1  0
  8 36  1  0
  9 37  1  0
  9 38  1  0
 10 39  1  0
 10 40  1  0
 11 41  1  0
 11 42  1  0
 14 43  1  0
 17 44  1  0
 23 45  1  0
 23 46  1  0
 24 47  1  0
 24 48  1  0
 25 49  1  0
 25 50  1  0
 26 51  1  0
 26 52  1  0
 27 53  1  0
 27 54  1  0
 28 55  1  0
 28 56  1  0
 29 57  1  0
 30 58  1  0
M  CHG  2  15  -1  32  -1
M  END
>  <UniqueID>  (13) 
13

>  <SMILES>  (13) 
O=C(Cc1sc(N2CCCC2)nc1O)[N-]c1cc(S(=O)(=O)N2CCCCCC2)ccc1[O-]

>  <Energy>  (13) 
99.87740009130493

>  <Genealogy>  (13) 
O=C(Cc1sc(N2CCCC2)nc1O)[N-]c1cc(S(=O)(=O)N2CCCCCC2)ccc1[O-] (protonated)
O=C(Cc1sc(N2CCCC2)nc1O)[N-]c1cc(S(=O)(=O)N2CCCCCC2)ccc1[O-] (3D coordinates assigned)
O=C(Cc1sc(N2CCCC2)nc1O)[N-]c1cc(S(=O)(=O)N2CCCCCC2)ccc1[O-] (nonaromatic ring conformer: 99.87740009130493 kcal/mol)

>  <smiles>  (13) 
O=C(Cc1sc(N2CCCC2)nc1O)Nc1cc(S(=O)(=O)N2CCCCCC2)ccc1O

>  <score_type>  (13) 
oracle

>  <origin>  (13) 
adgpu

>  <m_score__min__energy>  (13) 
-11.26

>  <m_primary>  (13) 
energy

$$$$
13:0
     RDKit          3D

 43 45  0  0  0  0  0  0  0  0999 V2000
   -2.6810   18.7760  -27.0960 C   0  0  0  0  0  0  0  0  0  0  0  0
   -2.4310   20.2070  -27.4820 C   0  0  0  0  0  0  0  0  0  0  0  0
   -3.4840   21.1370  -27.4430 C   0  0  0  0  0  0  0  0  0  0  0  0
   -3.2610   22.4740  -27.7820 C   0  0  0  0  0  0  0  0  0  0  0  0
   -1.9830   22.9010  -28.1610 C   0  0  0  0  0  0  0  0  0  0  0  0
   -1.6760   24.6000  -28.5250 S   0  0  0  0  0  0  0  0  0  0  0  0
   -0.4530   24.7460  -29.3870 O   0  0  0  0  0  0  0  0  0  0  0  0
   -1.4580   25.3320  -27.2310 O   0  0  0  0  0  0  0  0  0  0  0  0
   -3.0390   25.2910  -29.3480 N   0  0  0  0  0  0  0  0  0  0  0  0
   -4.0960   24.5480  -29.9730 C   0  0  0  0  0  0  0  0  0  0  0  0
   -5.4050   25.0100  -29.8060 C   0  0  0  0  0  0  0  0  0  0  0  0
   -6.4800   24.2970  -30.3310 C   0  0  0  0  0  0  0  0  0  0  0  0
   -6.2590   23.1140  -31.0330 C   0  0  0  0  0  0  0  0  0  0  0  0
   -4.9550   22.6410  -31.2410 C   0  0  0  0  0  0  0  0  0  0  0  0
   -4.7260   21.1320  -32.1370 S   0  0  0  0  0  0  0  0  0  0  0  0
   -4.2680   21.4620  -33.5300 O   0  0  0  0  0  0  0  0  0  0  0  0
   -3.6750   20.2830  -31.4790 O   0  0  0  0  0  0  0  0  0  0  0  0
   -6.2370   20.2270  -32.1710 C   0  0  0  0  0  0  0  0  0  0  0  0
   -6.2800   18.9220  -31.6600 C   0  0  0  0  0  0  0  0  0  0  0  0
   -7.4760   18.1980  -31.6800 C   0  0  0  0  0  0  0  0  0  0  0  0
   -8.6330   18.7740  -32.2120 C   0  0  0  0  0  0  0  0  0  0  0  0
   -8.5950   20.0720  -32.7280 C   0  0  0  0  0  0  0  0  0  0  0  0
   -7.4000   20.7990  -32.7100 C   0  0  0  0  0  0  0  0  0  0  0  0
   -3.8570   23.3830  -30.7390 C   0  0  0  0  0  0  0  0  0  0  0  0
   -2.5400   23.0060  -31.0090 O   0  0  0  0  0  0  0  0  0  0  0  0
   -0.9320   21.9790  -28.2130 C   0  0  0  0  0  0  0  0  0  0  0  0
   -1.1450   20.6380  -27.8690 C   0  0  0  0  0  0  0  0  0  0  0  0
    0.3500   19.4380  -27.9270 Br  0  0  0  0  0  0  0  0  0  0  0  0
   -2.6962   18.6893  -25.9995 H   0  0  0  0  0  0  0  0  0  0  0  0
   -3.6496   18.4503  -27.5030 H   0  0  0  0  0  0  0  0  0  0  0  0
   -1.8802   18.1412  -27.5030 H   0  0  0  0  0  0  0  0  0  0  0  0
   -4.4907   20.8100  -27.1435 H   0  0  0  0  0  0  0  0  0  0  0  0
   -4.0925   23.1934  -27.7509 H   0  0  0  0  0  0  0  0  0  0  0  0
   -5.5873   25.9446  -29.2553 H   0  0  0  0  0  0  0  0  0  0  0  0
   -7.5058   24.6687  -30.1911 H   0  0  0  0  0  0  0  0  0  0  0  0
   -7.1145   22.5461  -31.4275 H   0  0  0  0  0  0  0  0  0  0  0  0
   -5.3701   18.4664  -31.2421 H   0  0  0  0  0  0  0  0  0  0  0  0
   -7.5063   17.1749  -31.2770 H   0  0  0  0  0  0  0  0  0  0  0  0
   -9.5743   18.2050  -32.2245 H   0  0  0  0  0  0  0  0  0  0  0  0
   -9.5059   20.5227  -33.1489 H   0  0  0  0  0  0  0  0  0  0  0  0
   -7.3717   21.8199  -33.1186 H   0  0  0  0  0  0  0  0  0  0  0  0
   -1.7300   23.4800  -30.6390 H   0  0  0  0  0  0  0  0  0  0  0  0
    0.0692   22.3097  -28.5264 H   0  0  0  0  0  0  0  0  0  0  0  0
  1  2  1  0
  2  3  2  0
  3  4  1  0
  4  5  2  0
  5  6  1  0
  6  7  2  0
  6  8  2  0
  6  9  1  0
  9 10  1  0
 10 11  2  0
 11 12  1  0
 12 13  2  0
 13 14  1  0
 14 15  1  0
 15 16  2  0
 15 17  2  0
 15 18  1  0
 18 19  2  0
 19 20  1  0
 20 21  2  0
 21 22  1  0
 22 23  2  0
 14 24  2  0
 24 25  1  0
  5 26  1  0
 26 27  2  0
 27 28  1  0
 27  2  1  0
 24 10  1  0
 23 18  1  0
  1 29  1  0
  1 30  1  0
  1 31  1  0
  3 32  1  0
  4 33  1  0
 11 34  1  0
 12 35  1  0
 13 36  1  0
 19 37  1  0
 20 38  1  0
 21 39  1  0
 22 40  1  0
 23 41  1  0
 25 42  1  0
 26 43  1  0
M  CHG  1   9  -1
M  END
>  <UniqueID>  (14) 
14

>  <SMILES>  (14) 
Cc1ccc(S(=O)(=O)[N-]c2cccc(S(=O)(=O)c3ccccc3)c2O)cc1Br

>  <Energy>  (14) 
55.5282299550722

>  <Genealogy>  (14) 
Cc1ccc(S(=O)(=O)[N-]c2cccc(S(=O)(=O)c3ccccc3)c2O)cc1Br (protonated)
Cc1ccc(S(=O)(=O)[N-]c2cccc(S(=O)(=O)c3ccccc3)c2O)cc1Br (3D coordinates assigned)
Cc1ccc(S(=O)(=O)[N-]c2cccc(S(=O)(=O)c3ccccc3)c2O)cc1Br (optimized conformer: 55.5282299550722 kcal/mol)

>  <smiles>  (14) 
Cc1ccc(S(=O)(=O)Nc2cccc(S(=O)(=O)c3ccccc3)c2O)cc1Br

>  <score_type>  (14) 
oracle

>  <origin>  (14) 
adgpu

>  <m_score__min__energy>  (14) 
-12.529999999999999

>  <m_primary>  (14) 
energy

$$$$
14:0
     RDKit          3D

 44 47  0  0  0  0  0  0  0  0999 V2000
   -7.1630   17.4240  -33.0150 C   0  0  0  0  0  0  0  0  0  0  0  0
   -7.3140   18.8630  -32.6230 C   0  0  0  0  0  0  0  0  0  0  0  0
   -8.5800   19.3810  -32.3160 C   0  0  0  0  0  0  0  0  0  0  0  0
   -8.7250   20.7290  -31.9820 C   0  0  0  0  0  0  0  0  0  0  0  0
   -7.6120   21.5730  -31.9640 C   0  0  0  0  0  0  0  0  0  0  0  0
   -6.3330   21.0780  -32.2900 C   0  0  0  0  0  0  0  0  0  0  0  0
   -5.1740   21.9430  -32.2820 N   0  0  0  0  0  0  0  0  0  0  0  0
   -3.9390   21.5650  -32.9770 C   0  0  0  0  0  0  0  0  0  0  0  0
   -5.1370   23.0740  -31.3990 C   0  0  0  0  0  0  0  0  0  0  0  0
   -5.7360   24.2320  -31.7850 N   0  0  0  0  0  0  0  0  0  0  0  0
   -5.7360   25.3310  -30.9860 C   0  0  0  0  0  0  0  0  0  0  0  0
   -5.1270   25.2910  -29.7730 N   0  0  0  0  0  0  0  0  0  0  0  0
   -4.5040   24.1650  -29.3390 C   0  0  0  0  0  0  0  0  0  0  0  0
   -3.8710   24.1530  -28.0930 C   0  0  0  0  0  0  0  0  0  0  0  0
   -3.2110   23.0040  -27.6510 C   0  0  0  0  0  0  0  0  0  0  0  0
   -3.1690   21.8490  -28.4540 C   0  0  0  0  0  0  0  0  0  0  0  0
   -2.4590   20.6310  -27.9840 C   0  0  0  0  0  0  0  0  0  0  0  0
   -3.0770   19.7490  -27.0780 C   0  0  0  0  0  0  0  0  0  0  0  0
   -2.4080   18.6030  -26.6380 C   0  0  0  0  0  0  0  0  0  0  0  0
   -1.1190   18.3240  -27.0970 C   0  0  0  0  0  0  0  0  0  0  0  0
   -0.4950   19.1920  -27.9960 C   0  0  0  0  0  0  0  0  0  0  0  0
   -1.1590   20.3390  -28.4390 C   0  0  0  0  0  0  0  0  0  0  0  0
   -3.8060   21.8640  -29.7080 C   0  0  0  0  0  0  0  0  0  0  0  0
   -4.4850   23.0120  -30.1510 C   0  0  0  0  0  0  0  0  0  0  0  0
   -6.2000   19.7160  -32.6240 C   0  0  0  0  0  0  0  0  0  0  0  0
   -7.0978   16.8023  -32.1099 H   0  0  0  0  0  0  0  0  0  0  0  0
   -8.0335   17.1131  -33.6114 H   0  0  0  0  0  0  0  0  0  0  0  0
   -6.2470   17.3006  -33.6114 H   0  0  0  0  0  0  0  0  0  0  0  0
   -9.4617   18.7236  -32.3383 H   0  0  0  0  0  0  0  0  0  0  0  0
   -9.7193   21.1278  -31.7321 H   0  0  0  0  0  0  0  0  0  0  0  0
   -7.7346   22.6321  -31.6933 H   0  0  0  0  0  0  0  0  0  0  0  0
   -3.1603   21.3267  -32.2375 H   0  0  0  0  0  0  0  0  0  0  0  0
   -4.1281   20.6836  -33.6074 H   0  0  0  0  0  0  0  0  0  0  0  0
   -3.6023   22.4012  -33.6074 H   0  0  0  0  0  0  0  0  0  0  0  0
   -6.2301   26.2545  -31.3223 H   0  0  0  0  0  0  0  0  0  0  0  0
   -3.8926   25.0512  -27.4584 H   0  0  0  0  0  0  0  0  0  0  0  0
   -2.7198   23.0019  -26.6668 H   0  0  0  0  0  0  0  0  0  0  0  0
   -4.0927   19.9627  -26.7138 H   0  0  0  0  0  0  0  0  0  0  0  0
   -2.8980   17.9197  -25.9288 H   0  0  0  0  0  0  0  0  0  0  0  0
   -0.5952   17.4209  -26.7507 H   0  0  0  0  0  0  0  0  0  0  0  0
    0.5210   18.9723  -28.3559 H   0  0  0  0  0  0  0  0  0  0  0  0
   -0.6628   21.0182  -29.1478 H   0  0  0  0  0  0  0  0  0  0  0  0
   -3.7724   20.9696  -30.3474 H   0  0  0  0  0  0  0  0  0  0  0  0
   -5.2101   19.3161  -32.8890 H   0  0  0  0  0  0  0  0  0  0  0  0
  1  2  1  0
  2  3  2  0
  3  4  1  0
  4  5  2  0
  5  6  1  0
  6  7  1  0
  7  8  1  0
  7  9  1  0
  9 10  2  0
 10 11  1  0
 11 12  2  0
 12 13  1  0
 13 14  2  0
 14 15  1  0
 15 16  2  0
 16 17  1  0
 17 18  2  0
 18 19  1  0
 19 20  2  0
 20 21  1  0
 21 22  2  0
 16 23  1  0
 23 24  2  0
  6 25  2  0
 25  2  1  0
 24  9  1  0
 24 13  1  0
 22 17  1  0
  1 26  1  0
  1 27  1  0
  1 28  1  0
  3 29  1  0
  4 30  1  0
  5 31  1  0
  8 32  1  0
  8 33  1  0
  8 34  1  0
 11 35  1  0
 14 36  1  0
 15 37  1  0
 18 38  1  0
 19 39  1  0
 20 40  1  0
 21 41  1  0
 22 42  1  0
 23 43  1  0
 25 44  1  0
M  END
>  <UniqueID>  (15) 
15

>  <SMILES>  (15) 
Cc1cccc(N(C)c2ncnc3ccc(-c4ccccc4)cc23)c1

>  <Energy>  (15) 
66.35387081430865

>  <Genealogy>  (15) 
Cc1cccc(N(C)c2ncnc3ccc(-c4ccccc4)cc23)c1 (3D coordinates assigned)
Cc1cccc(N(C)c2ncnc3ccc(-c4ccccc4)cc23)c1 (optimized conformer: 66.35387081430865 kcal/mol)

>  <smiles>  (15) 
Cc1cccc(N(C)c2ncnc3ccc(-c4ccccc4)cc23)c1

>  <score_type>  (15) 
oracle

>  <origin>  (15) 
adgpu

>  <m_score__min__energy>  (15) 
-9.1400000000000006

>  <m_primary>  (15) 
energy

$$$$
15:0
     RDKit          3D

 38 39  0  0  0  0  0  0  0  0999 V2000
   -0.0340   22.7210  -23.7370 C   0  0  0  0  0  0  0  0  0  0  0  0
   -0.1480   22.9740  -25.2090 C   0  0  0  0  0  0  0  0  0  0  0  0
    0.9660   23.6840  -25.9380 C   0  0  0  0  0  0  0  0  0  0  0  0
   -1.1850   22.4900  -25.8340 N   0  0  0  0  0  0  0  0  0  0  0  0
   -1.4860   22.6400  -27.2290 C   0  0  0  0  0  0  0  0  0  0  0  0
   -1.7870   23.8980  -27.7740 C   0  0  0  0  0  0  0  0  0  0  0  0
   -2.1160   24.0230  -29.1270 C   0  0  0  0  0  0  0  0  0  0  0  0
   -2.4060   25.2790  -29.6480 O   0  0  0  0  0  0  0  0  0  0  0  0
   -2.1540   22.8910  -29.9530 C   0  0  0  0  0  0  0  0  0  0  0  0
   -2.5160   23.0520  -31.3340 N   0  0  0  0  0  0  0  0  0  0  0  0
   -3.6230   22.4350  -32.0070 C   0  0  0  0  0  0  0  0  0  0  0  0
   -3.4090   21.6600  -32.9780 O   0  0  0  0  0  0  0  0  0  0  0  0
   -5.0230   22.7490  -31.6110 C   0  0  0  0  0  0  0  0  0  0  0  0
   -5.9940   21.7260  -31.6380 C   0  0  0  0  0  0  0  0  0  0  0  0
   -7.3270   21.9840  -31.2870 C   0  0  0  0  0  0  0  0  0  0  0  0
   -8.3360   20.8740  -31.2880 C   0  0  0  0  0  0  0  0  0  0  0  0
   -7.6930   23.2690  -30.8690 C   0  0  0  0  0  0  0  0  0  0  0  0
   -6.7450   24.2910  -30.8300 C   0  0  0  0  0  0  0  0  0  0  0  0
   -5.4150   24.0450  -31.1970 C   0  0  0  0  0  0  0  0  0  0  0  0
   -4.4910   25.0880  -31.1370 O   0  0  0  0  0  0  0  0  0  0  0  0
   -1.9120   21.6240  -29.3930 C   0  0  0  0  0  0  0  0  0  0  0  0
   -1.5830   21.5000  -28.0390 C   0  0  0  0  0  0  0  0  0  0  0  0
   -1.3510   20.2390  -27.5010 O   0  0  0  0  0  0  0  0  0  0  0  0
   -0.4248   23.5882  -23.1846 H   0  0  0  0  0  0  0  0  0  0  0  0
   -0.6156   21.8255  -23.4727 H   0  0  0  0  0  0  0  0  0  0  0  0
    1.0221   22.5635  -23.4727 H   0  0  0  0  0  0  0  0  0  0  0  0
    1.6593   24.1259  -25.2071 H   0  0  0  0  0  0  0  0  0  0  0  0
    1.5082   22.9645  -26.5692 H   0  0  0  0  0  0  0  0  0  0  0  0
    0.5427   24.4793  -26.5692 H   0  0  0  0  0  0  0  0  0  0  0  0
   -1.7639   24.7912  -27.1324 H   0  0  0  0  0  0  0  0  0  0  0  0
   -5.7008   20.7095  -31.9392 H   0  0  0  0  0  0  0  0  0  0  0  0
   -8.5831   20.6022  -30.2512 H   0  0  0  0  0  0  0  0  0  0  0  0
   -9.2470   21.2071  -31.8068 H   0  0  0  0  0  0  0  0  0  0  0  0
   -7.9178   19.9988  -31.8068 H   0  0  0  0  0  0  0  0  0  0  0  0
   -8.7318   23.4732  -30.5703 H   0  0  0  0  0  0  0  0  0  0  0  0
   -7.0439   25.2995  -30.5082 H   0  0  0  0  0  0  0  0  0  0  0  0
   -3.4940   24.9230  -31.2210 H   0  0  0  0  0  0  0  0  0  0  0  0
   -1.9818   20.7252  -30.0233 H   0  0  0  0  0  0  0  0  0  0  0  0
  1  2  1  0
  2  3  1  0
  2  4  2  3
  4  5  1  0
  5  6  2  0
  6  7  1  0
  7  8  1  0
  7  9  2  0
  9 10  1  0
 10 11  1  0
 11 12  2  0
 11 13  1  0
 13 14  2  0
 14 15  1  0
 15 16  1  0
 15 17  2  0
 17 18  1  0
 18 19  2  0
 19 20  1  0
  9 21  1  0
 21 22  2  0
 22 23  1  0
 22  5  1  0
 19 13  1  0
  1 24  1  0
  1 25  1  0
  1 26  1  0
  3 27  1  0
  3 28  1  0
  3 29  1  0
  6 30  1  0
 14 31  1  0
 16 32  1  0
 16 33  1  0
 16 34  1  0
 17 35  1  0
 18 36  1  0
 20 37  1  0
 21 38  1  0
M  CHG  3   8  -1  10  -1  23  -1
M  END
>  <UniqueID>  (16) 
16

>  <SMILES>  (16) 
CC(C)=Nc1cc([O-])c([N-]C(=O)c2cc(C)ccc2O)cc1[O-]

>  <Energy>  (16) 
48.321122366868444

>  <Genealogy>  (16) 
CC(C)=Nc1cc([O-])c([N-]C(=O)c2cc(C)ccc2O)cc1[O-] (protonated)
CC(C)=Nc1cc([O-])c([N-]C(=O)c2cc(C)ccc2O)cc1[O-] (3D coordinates assigned)
CC(C)=Nc1cc([O-])c([N-]C(=O)c2cc(C)ccc2O)cc1[O-] (optimized conformer: 48.321122366868444 kcal/mol)

>  <smiles>  (16) 
CC(C)=Nc1cc(O)c(NC(=O)c2cc(C)ccc2O)cc1O

>  <score_type>  (16) 
oracle

>  <origin>  (16) 
adgpu

>  <m_score__min__energy>  (16) 
-12.029999999999999

>  <m_primary>  (16) 
energy

$$$$
16:0
     RDKit          3D

 61 63  0  0  0  0  0  0  0  0999 V2000
   -1.6890   19.9830  -31.7520 C   0  0  0  0  0  0  0  0  0  0  0  0
   -1.5630   20.8560  -30.5720 N   0  0  0  0  0  0  0  0  0  0  0  0
   -0.5600   21.9030  -30.8490 C   0  0  0  0  0  0  0  0  0  0  0  0
   -1.1740   20.0420  -29.3990 C   0  0  0  0  0  0  0  0  0  0  0  0
    0.0760   20.6080  -28.7060 C   0  0  0  0  0  0  0  0  0  0  0  0
   -0.1970   20.7780  -27.2830 N   0  0  0  0  0  0  0  0  0  0  0  0
   -0.6190   22.0190  -26.7110 C   0  0  0  0  0  0  0  0  0  0  0  0
   -0.2320   22.3340  -25.5510 O   0  0  0  0  0  0  0  0  0  0  0  0
   -1.4340   22.9640  -27.5070 C   0  0  0  0  0  0  0  0  0  0  0  0
   -0.8560   24.1170  -28.0640 C   0  0  0  0  0  0  0  0  0  0  0  0
   -1.5880   24.9200  -28.9470 C   0  0  0  0  0  0  0  0  0  0  0  0
   -2.8920   24.5620  -29.3070 C   0  0  0  0  0  0  0  0  0  0  0  0
   -3.5730   25.2960  -30.3370 N   0  0  0  0  0  0  0  0  0  0  0  0
   -4.9830   25.1940  -30.5760 C   0  0  0  0  0  0  0  0  0  0  0  0
   -5.7240   26.1880  -30.3450 O   0  0  0  0  0  0  0  0  0  0  0  0
   -5.5630   23.9580  -31.1370 C   0  0  0  0  0  0  0  0  0  0  0  0
   -7.2080   23.7370  -31.4290 S   0  0  0  0  0  0  0  0  0  0  0  0
   -7.0680   22.2900  -32.2660 C   0  0  0  0  0  0  0  0  0  0  0  0
   -5.7140   21.9590  -32.3530 C   0  0  0  0  0  0  0  0  0  0  0  0
   -5.2310   20.8020  -33.1910 C   0  0  0  0  0  0  0  0  0  0  0  0
   -6.0390   19.5920  -32.9310 N   0  0  0  0  0  0  0  0  0  0  0  0
   -6.1220   18.7190  -34.1310 C   0  0  0  0  0  0  0  0  0  0  0  0
   -5.4260   17.3650  -33.9400 C   0  0  0  0  0  0  0  0  0  0  0  0
   -5.9940   16.6420  -32.7850 N   0  0  0  0  0  0  0  0  0  0  0  0
   -5.1580   15.4790  -32.4510 C   0  0  0  0  0  0  0  0  0  0  0  0
   -6.2310   17.5030  -31.5980 C   0  0  0  0  0  0  0  0  0  0  0  0
   -5.5750   18.8840  -31.7160 C   0  0  0  0  0  0  0  0  0  0  0  0
   -4.8680   22.8910  -31.7120 C   0  0  0  0  0  0  0  0  0  0  0  0
   -3.4350   22.7990  -31.7300 N   0  0  0  0  0  0  0  0  0  0  0  0
   -3.4970   23.4520  -28.6970 C   0  0  0  0  0  0  0  0  0  0  0  0
   -2.7770   22.6620  -27.8040 C   0  0  0  0  0  0  0  0  0  0  0  0
   -1.8390   18.9436  -31.4248 H   0  0  0  0  0  0  0  0  0  0  0  0
   -2.5500   20.3051  -32.3561 H   0  0  0  0  0  0  0  0  0  0  0  0
   -0.7721   20.0485  -32.3561 H   0  0  0  0  0  0  0  0  0  0  0  0
   -0.1762   22.3036  -29.8991 H   0  0  0  0  0  0  0  0  0  0  0  0
    0.2704   21.4715  -31.4271 H   0  0  0  0  0  0  0  0  0  0  0  0
   -1.0267   22.7141  -31.4271 H   0  0  0  0  0  0  0  0  0  0  0  0
   -2.0065   20.0313  -28.6801 H   0  0  0  0  0  0  0  0  0  0  0  0
   -0.9427   19.0248  -29.7479 H   0  0  0  0  0  0  0  0  0  0  0  0
    0.9167   19.9111  -28.8382 H   0  0  0  0  0  0  0  0  0  0  0  0
    0.3352   21.5804  -29.1502 H   0  0  0  0  0  0  0  0  0  0  0  0
    0.1775   24.3904  -27.8049 H   0  0  0  0  0  0  0  0  0  0  0  0
   -1.1368   25.8348  -29.3589 H   0  0  0  0  0  0  0  0  0  0  0  0
   -7.9016   21.7015  -32.6768 H   0  0  0  0  0  0  0  0  0  0  0  0
   -5.3129   21.0685  -34.2551 H   0  0  0  0  0  0  0  0  0  0  0  0
   -4.1840   20.5898  -32.9288 H   0  0  0  0  0  0  0  0  0  0  0  0
   -7.1827   18.5382  -34.3596 H   0  0  0  0  0  0  0  0  0  0  0  0
   -5.6066   19.2397  -34.9515 H   0  0  0  0  0  0  0  0  0  0  0  0
   -5.5619   16.7584  -34.8475 H   0  0  0  0  0  0  0  0  0  0  0  0
   -4.3563   17.5415  -33.7542 H   0  0  0  0  0  0  0  0  0  0  0  0
   -5.0870   15.3803  -31.3577 H   0  0  0  0  0  0  0  0  0  0  0  0
   -5.6101   14.5692  -32.8727 H   0  0  0  0  0  0  0  0  0  0  0  0
   -4.1516   15.6177  -32.8727 H   0  0  0  0  0  0  0  0  0  0  0  0
   -7.3156   17.6399  -31.4758 H   0  0  0  0  0  0  0  0  0  0  0  0
   -5.7793   16.9983  -30.7313 H   0  0  0  0  0  0  0  0  0  0  0  0
   -5.8349   19.4822  -30.8302 H   0  0  0  0  0  0  0  0  0  0  0  0
   -4.4855   18.7488  -31.7848 H   0  0  0  0  0  0  0  0  0  0  0  0
   -2.9540   21.8810  -31.8830 H   0  0  0  0  0  0  0  0  0  0  0  0
   -2.8450   23.6340  -31.5130 H   0  0  0  0  0  0  0  0  0  0  0  0
   -4.5443   23.2050  -28.9252 H   0  0  0  0  0  0  0  0  0  0  0  0
   -3.2606   21.7965  -27.3276 H   0  0  0  0  0  0  0  0  0  0  0  0
  1  2  1  0
  2  3  1  0
  2  4  1  0
  4  5  1  0
  5  6  1  0
  6  7  1  0
  7  8  2  0
  7  9  1  0
  9 10  2  0
 10 11  1  0
 11 12  2  0
 12 13  1  0
 13 14  1  0
 14 15  2  0
 14 16  1  0
 16 17  1  0
 17 18  1  0
 18 19  2  0
 19 20  1  0
 20 21  1  0
 21 22  1  0
 22 23  1  0
 23 24  1  0
 24 25  1  0
 24 26  1  0
 26 27  1  0
 19 28  1  0
 28 29  1  0
 12 30  1  0
 30 31  2  0
 31  9  1  0
 28 16  2  0
 27 21  1  0
  1 32  1  0
  1 33  1  0
  1 34  1  0
  3 35  1  0
  3 36  1  0
  3 37  1  0
  4 38  1  0
  4 39  1  0
  5 40  1  0
  5 41  1  0
 10 42  1  0
 11 43  1  0
 18 44  1  0
 20 45  1  0
 20 46  1  0
 22 47  1  0
 22 48  1  0
 23 49  1  0
 23 50  1  0
 25 51  1  0
 25 52  1  0
 25 53  1  0
 26 54  1  0
 26 55  1  0
 27 56  1  0
 27 57  1  0
 29 58  1  0
 29 59  1  0
 30 60  1  0
 31 61  1  0
M  CHG  2   6  -1  13  -1
M  END
>  <UniqueID>  (17) 
17

>  <SMILES>  (17) 
CN(C)CC[N-]C(=O)c1ccc([N-]C(=O)c2scc(CN3CCN(C)CC3)c2N)cc1

>  <Energy>  (17) 
105.8715714536372

>  <Genealogy>  (17) 
CN(C)CC[N-]C(=O)c1ccc([N-]C(=O)c2scc(CN3CCN(C)CC3)c2N)cc1 (protonated)
CN(C)CC[N-]C(=O)c1ccc([N-]C(=O)c2scc(CN3CCN(C)CC3)c2N)cc1 (3D coordinates assigned)
CN(C)CC[N-]C(=O)c1ccc([N-]C(=O)c2scc(CN3CCN(C)CC3)c2N)cc1 (nonaromatic ring conformer: 105.8715714536372 kcal/mol)

>  <smiles>  (17) 
CN(C)CCNC(=O)c1ccc(NC(=O)c2scc(CN3CCN(C)CC3)c2N)cc1

>  <score_type>  (17) 
oracle

>  <origin>  (17) 
adgpu

>  <m_score__min__energy>  (17) 
-9.7899999999999991

>  <m_primary>  (17) 
energy

$$$$
17:0
     RDKit          3D

 42 45  0  0  0  0  0  0  0  0999 V2000
   -1.2990   27.3470  -28.1940 H   0  0  0  0  0  0  0  0  0  0  0  0
   -1.6110   26.4250  -28.5730 N   0  0  0  0  0  0  0  0  0  0  0  0
   -0.8290   25.3950  -28.5490 C   0  0  0  0  0  0  0  0  0  0  0  0
    0.4190   25.3970  -28.0560 N   0  0  0  0  0  0  0  0  0  0  0  0
    0.8430   24.1710  -28.2180 O   0  0  0  0  0  0  0  0  0  0  0  0
   -0.0300   23.3760  -28.7760 N   0  0  0  0  0  0  0  0  0  0  0  0
   -1.1120   24.1390  -29.0110 C   0  0  0  0  0  0  0  0  0  0  0  0
   -2.3550   23.6680  -29.5560 N   0  0  0  0  0  0  0  0  0  0  0  0
   -3.1920   24.4550  -30.2170 N   0  0  0  0  0  0  0  0  0  0  0  0
   -4.2960   23.7380  -30.5030 C   0  0  0  0  0  0  0  0  0  0  0  0
   -5.4610   24.2900  -31.2180 C   0  0  0  0  0  0  0  0  0  0  0  0
   -5.9610   25.3760  -30.8240 O   0  0  0  0  0  0  0  0  0  0  0  0
   -6.0790   23.6000  -32.3110 N   0  0  0  0  0  0  0  0  0  0  0  0
   -7.0070   22.5110  -32.2050 C   0  0  0  0  0  0  0  0  0  0  0  0
   -6.6170   21.2410  -32.6500 C   0  0  0  0  0  0  0  0  0  0  0  0
   -5.6163   21.0963  -33.0833 H   0  0  0  0  0  0  0  0  0  0  0  0
   -7.4940   20.1560  -32.5460 C   0  0  0  0  0  0  0  0  0  0  0  0
   -7.1865   19.1639  -32.9082 H   0  0  0  0  0  0  0  0  0  0  0  0
   -8.7610   20.3320  -31.9820 C   0  0  0  0  0  0  0  0  0  0  0  0
   -9.4526   19.4799  -31.9067 H   0  0  0  0  0  0  0  0  0  0  0  0
   -9.1490   21.5900  -31.5140 C   0  0  0  0  0  0  0  0  0  0  0  0
  -10.1441   21.7259  -31.0653 H   0  0  0  0  0  0  0  0  0  0  0  0
   -8.2750   22.6760  -31.6150 C   0  0  0  0  0  0  0  0  0  0  0  0
   -8.5783   23.6619  -31.2328 H   0  0  0  0  0  0  0  0  0  0  0  0
   -4.1720   22.4610  -29.9860 C   0  0  0  0  0  0  0  0  0  0  0  0
   -4.9055   21.6423  -30.0283 H   0  0  0  0  0  0  0  0  0  0  0  0
   -2.9200   22.4460  -29.4050 C   0  0  0  0  0  0  0  0  0  0  0  0
   -2.2910   21.2550  -28.7970 C   0  0  0  0  0  0  0  0  0  0  0  0
   -2.7830   20.7410  -27.5890 C   0  0  0  0  0  0  0  0  0  0  0  0
   -3.6217   21.2412  -27.0825 H   0  0  0  0  0  0  0  0  0  0  0  0
   -2.2130   19.5960  -27.0250 C   0  0  0  0  0  0  0  0  0  0  0  0
   -2.5983   19.2087  -26.0702 H   0  0  0  0  0  0  0  0  0  0  0  0
   -1.1560   18.9380  -27.6650 C   0  0  0  0  0  0  0  0  0  0  0  0
   -0.6160   17.7950  -27.0580 O   0  0  0  0  0  0  0  0  0  0  0  0
    0.5470   17.1140  -27.5160 C   0  0  0  0  0  0  0  0  0  0  0  0
    1.1345   16.7700  -26.6520 H   0  0  0  0  0  0  0  0  0  0  0  0
    0.2488   16.2478  -28.1250 H   0  0  0  0  0  0  0  0  0  0  0  0
    1.1564   17.7979  -28.1250 H   0  0  0  0  0  0  0  0  0  0  0  0
   -0.6750   19.4410  -28.8890 C   0  0  0  0  0  0  0  0  0  0  0  0
    0.1521   18.9306  -29.4042 H   0  0  0  0  0  0  0  0  0  0  0  0
   -1.2450   20.5870  -29.4520 C   0  0  0  0  0  0  0  0  0  0  0  0
   -0.8712   20.9672  -30.4141 H   0  0  0  0  0  0  0  0  0  0  0  0
  1  2  1  0
  2  3  2  0
  3  4  1  0
  4  5  1  0
  5  6  1  0
  6  7  2  0
  7  8  1  0
  8  9  1  0
  9 10  2  0
 10 11  1  0
 11 12  2  0
 11 13  1  0
 13 14  1  0
 14 15  2  0
 15 16  1  0
 15 17  1  0
 17 18  1  0
 17 19  2  0
 19 20  1  0
 19 21  1  0
 21 22  1  0
 21 23  2  0
 23 24  1  0
 10 25  1  0
 25 26  1  0
 25 27  2  0
 27 28  1  0
 28 29  2  0
 29 30  1  0
 29 31  1  0
 31 32  1  0
 31 33  2  0
 33 34  1  0
 34 35  1  0
 35 36  1  0
 35 37  1  0
 35 38  1  0
 33 39  1  0
 39 40  1  0
 39 41  2  0
 41 42  1  0
  7  3  1  0
 27  8  1  0
 41 28  1  0
 23 14  1  0
M  CHG  2   4  -1  13  -1
M  END
>  <UniqueID>  (18) 
18

>  <SMILES>  (18) 
[H]/N=c1\[n-]onc1-n1nc(C(=O)[N-]c2ccccc2)cc1-c1ccc(OC)cc1

>  <Energy>  (18) 
125.23387518145779

>  <Genealogy>  (18) 
COc1ccc(-c2cc(C(=O)[N-]c3ccccc3)nn2-c2no[n-]c2=N)cc1 (protonated)
[H]/N=c1\[n-]onc1-n1nc(C(=O)[N-]c2ccccc2)cc1-c1ccc(OC)cc1 (cis-trans isomerization)
[H]/N=c1\[n-]onc1-n1nc(C(=O)[N-]c2ccccc2)cc1-c1ccc(OC)cc1 (3D coordinates assigned)
[H]/N=c1\[n-]onc1-n1nc(C(=O)[N-]c2ccccc2)cc1-c1ccc(OC)cc1 (optimized conformer: 125.23387518145779 kcal/mol)

>  <smiles>  (18) 
COc1ccc(-c2cc(C(=O)Nc3ccccc3)nn2-c2no[nH]c2=N)cc1

>  <score_type>  (18) 
oracle

>  <origin>  (18) 
adgpu

>  <m_score__min__energy>  (18) 
-10.32

>  <m_primary>  (18) 
energy

$$$$
18:0
     RDKit          3D

 47 49  0  0  0  0  0  0  0  0999 V2000
    1.4950   27.7120  -23.0400 C   0  0  0  0  0  0  0  0  0  0  0  0
    1.0310   26.4840  -23.6970 N   0  0  0  0  0  0  0  0  0  0  0  0
    2.0180   26.0230  -24.6830 C   0  0  0  0  0  0  0  0  0  0  0  0
   -0.5060   26.7720  -24.4740 S   0  0  0  0  0  0  0  0  0  0  0  0
   -0.4990   28.1120  -25.1570 O   0  0  0  0  0  0  0  0  0  0  0  0
   -1.6050   26.7660  -23.4480 O   0  0  0  0  0  0  0  0  0  0  0  0
   -0.8270   25.5060  -25.6590 C   0  0  0  0  0  0  0  0  0  0  0  0
   -0.5520   24.1650  -25.3500 C   0  0  0  0  0  0  0  0  0  0  0  0
   -0.7640   23.1660  -26.3040 C   0  0  0  0  0  0  0  0  0  0  0  0
   -1.2590   23.4990  -27.5700 C   0  0  0  0  0  0  0  0  0  0  0  0
   -1.5580   24.8310  -27.8860 C   0  0  0  0  0  0  0  0  0  0  0  0
   -2.0060   25.1510  -29.2100 N   0  0  0  0  0  0  0  0  0  0  0  0
   -3.1230   24.5590  -29.8830 C   0  0  0  0  0  0  0  0  0  0  0  0
   -3.8970   25.2990  -30.5400 O   0  0  0  0  0  0  0  0  0  0  0  0
   -3.3080   23.0650  -29.9420 C   0  0  0  0  0  0  0  0  0  0  0  0
   -3.3730   22.5640  -31.3920 C   0  0  0  0  0  0  0  0  0  0  0  0
   -4.7350   22.1760  -31.7640 N   0  0  0  0  0  0  0  0  0  0  0  0
   -5.2780   20.8540  -31.7610 C   0  0  0  0  0  0  0  0  0  0  0  0
   -4.5870   19.8040  -31.6730 O   0  0  0  0  0  0  0  0  0  0  0  0
   -6.7310   20.9100  -31.8580 C   0  0  0  0  0  0  0  0  0  0  0  0
   -7.6820   19.8920  -31.8830 C   0  0  0  0  0  0  0  0  0  0  0  0
   -9.0370   20.2570  -31.9630 C   0  0  0  0  0  0  0  0  0  0  0  0
   -9.4110   21.6160  -32.0130 C   0  0  0  0  0  0  0  0  0  0  0  0
   -8.4330   22.6250  -31.9820 C   0  0  0  0  0  0  0  0  0  0  0  0
   -7.0960   22.2400  -31.9050 C   0  0  0  0  0  0  0  0  0  0  0  0
   -5.8770   23.0360  -31.8370 C   0  0  0  0  0  0  0  0  0  0  0  0
   -5.8210   24.2960  -31.8240 O   0  0  0  0  0  0  0  0  0  0  0  0
   -1.3180   25.8370  -26.9310 C   0  0  0  0  0  0  0  0  0  0  0  0
    1.4468   27.5845  -21.9485 H   0  0  0  0  0  0  0  0  0  0  0  0
    2.5331   27.9184  -23.3396 H   0  0  0  0  0  0  0  0  0  0  0  0
    0.8528   28.5533  -23.3396 H   0  0  0  0  0  0  0  0  0  0  0  0
    0.9020   25.7410  -22.9740 H   0  0  0  0  0  0  0  0  0  0  0  0
    2.8949   25.6134  -24.1602 H   0  0  0  0  0  0  0  0  0  0  0  0
    1.5689   25.2415  -25.3135 H   0  0  0  0  0  0  0  0  0  0  0  0
    2.3291   26.8690  -25.3135 H   0  0  0  0  0  0  0  0  0  0  0  0
   -0.1684   23.8994  -24.3539 H   0  0  0  0  0  0  0  0  0  0  0  0
   -0.5416   22.1168  -26.0596 H   0  0  0  0  0  0  0  0  0  0  0  0
   -1.4142   22.7106  -28.3212 H   0  0  0  0  0  0  0  0  0  0  0  0
   -2.4620   22.5795  -29.4334 H   0  0  0  0  0  0  0  0  0  0  0  0
   -4.2578   22.8145  -29.4469 H   0  0  0  0  0  0  0  0  0  0  0  0
   -3.0338   23.3667  -32.0633 H   0  0  0  0  0  0  0  0  0  0  0  0
   -2.7251   21.6796  -31.4815 H   0  0  0  0  0  0  0  0  0  0  0  0
   -7.3815   18.8347  -31.8414 H   0  0  0  0  0  0  0  0  0  0  0  0
   -9.8118   19.4766  -31.9868 H   0  0  0  0  0  0  0  0  0  0  0  0
  -10.4749   21.8880  -32.0767 H   0  0  0  0  0  0  0  0  0  0  0  0
   -8.7148   23.6877  -32.0175 H   0  0  0  0  0  0  0  0  0  0  0  0
   -1.5166   26.8890  -27.1835 H   0  0  0  0  0  0  0  0  0  0  0  0
  1  2  1  0
  2  3  1  0
  2  4  1  0
  4  5  2  0
  4  6  2  0
  4  7  1  0
  7  8  2  0
  8  9  1  0
  9 10  2  0
 10 11  1  0
 11 12  1  0
 12 13  1  0
 13 14  2  0
 13 15  1  0
 15 16  1  0
 16 17  1  0
 17 18  1  0
 18 19  2  0
 18 20  1  0
 20 21  2  0
 21 22  1  0
 22 23  2  0
 23 24  1  0
 24 25  2  0
 25 26  1  0
 26 27  2  0
 11 28  2  0
 28  7  1  0
 26 17  1  0
 25 20  1  0
  1 29  1  0
  1 30  1  0
  1 31  1  0
  2 32  1  0
  3 33  1  0
  3 34  1  0
  3 35  1  0
  8 36  1  0
  9 37  1  0
 10 38  1  0
 15 39  1  0
 15 40  1  0
 16 41  1  0
 16 42  1  0
 21 43  1  0
 22 44  1  0
 23 45  1  0
 24 46  1  0
 28 47  1  0
M  CHG  2   2   1  12  -1
M  END
>  <UniqueID>  (19) 
19

>  <SMILES>  (19) 
C[NH+](C)S(=O)(=O)c1cccc([N-]C(=O)CCN2C(=O)c3ccccc3C2=O)c1

>  <Energy>  (19) 
80.1832278758182

>  <Genealogy>  (19) 
C[NH+](C)S(=O)(=O)c1cccc([N-]C(=O)CCN2C(=O)c3ccccc3C2=O)c1 (protonated)
C[NH+](C)S(=O)(=O)c1cccc([N-]C(=O)CCN2C(=O)c3ccccc3C2=O)c1 (3D coordinates assigned)
C[NH+](C)S(=O)(=O)c1cccc([N-]C(=O)CCN2C(=O)c3ccccc3C2=O)c1 (nonaromatic ring conformer: 80.1832278758182 kcal/mol)

>  <smiles>  (19) 
CN(C)S(=O)(=O)c1cccc(NC(=O)CCN2C(=O)c3ccccc3C2=O)c1

>  <score_type>  (19) 
oracle

>  <origin>  (19) 
adgpu

>  <m_score__min__energy>  (19) 
-11.949999999999999

>  <m_primary>  (19) 
energy

$$$$
19:0
     RDKit          3D

 48 51  0  0  0  0  0  0  0  0999 V2000
   -3.7100   20.1080  -33.1440 N   0  0  0  0  0  0  0  0  0  0  0  0
   -4.6900   18.7150  -33.4350 S   0  0  0  0  0  0  0  0  0  0  0  0
   -4.7610   18.4480  -34.9120 O   0  0  0  0  0  0  0  0  0  0  0  0
   -4.0660   17.5280  -32.7560 O   0  0  0  0  0  0  0  0  0  0  0  0
   -6.3140   18.9930  -32.8140 C   0  0  0  0  0  0  0  0  0  0  0  0
   -7.2270   17.9330  -32.7640 C   0  0  0  0  0  0  0  0  0  0  0  0
   -8.5170   18.1380  -32.2690 C   0  0  0  0  0  0  0  0  0  0  0  0
   -8.9040   19.4050  -31.8250 C   0  0  0  0  0  0  0  0  0  0  0  0
   -8.0010   20.4750  -31.8790 C   0  0  0  0  0  0  0  0  0  0  0  0
   -8.4720   22.0640  -31.2910 S   0  0  0  0  0  0  0  0  0  0  0  0
   -9.2870   22.7780  -32.3320 O   0  0  0  0  0  0  0  0  0  0  0  0
   -9.3180   21.9220  -30.0550 O   0  0  0  0  0  0  0  0  0  0  0  0
   -7.0230   22.9930  -30.9280 C   0  0  0  0  0  0  0  0  0  0  0  0
   -7.0060   23.8900  -29.8530 C   0  0  0  0  0  0  0  0  0  0  0  0
   -5.8480   24.6160  -29.5590 C   0  0  0  0  0  0  0  0  0  0  0  0
   -4.6840   24.4360  -30.3280 C   0  0  0  0  0  0  0  0  0  0  0  0
   -3.4820   25.1780  -30.0790 N   0  0  0  0  0  0  0  0  0  0  0  0
   -2.3290   24.7200  -29.3610 C   0  0  0  0  0  0  0  0  0  0  0  0
   -1.6780   25.5080  -28.6230 O   0  0  0  0  0  0  0  0  0  0  0  0
   -1.9440   23.3000  -29.4520 C   0  0  0  0  0  0  0  0  0  0  0  0
   -1.9250   22.6280  -30.6840 C   0  0  0  0  0  0  0  0  0  0  0  0
   -1.5530   21.2830  -30.7220 C   0  0  0  0  0  0  0  0  0  0  0  0
   -1.5320   20.6750  -31.8260 O   0  0  0  0  0  0  0  0  0  0  0  0
   -1.2090   20.6310  -29.5290 C   0  0  0  0  0  0  0  0  0  0  0  0
   -0.8270   19.2770  -29.4950 C   0  0  0  0  0  0  0  0  0  0  0  0
   -0.4960   18.6720  -28.2780 C   0  0  0  0  0  0  0  0  0  0  0  0
   -0.5430   19.4100  -27.0900 C   0  0  0  0  0  0  0  0  0  0  0  0
   -0.9200   20.7550  -27.1140 C   0  0  0  0  0  0  0  0  0  0  0  0
   -1.2530   21.3710  -28.3250 C   0  0  0  0  0  0  0  0  0  0  0  0
   -1.6120   22.6510  -28.3370 O   0  0  0  0  0  0  0  0  0  0  0  0
   -4.7120   23.5490  -31.4130 C   0  0  0  0  0  0  0  0  0  0  0  0
   -5.8700   22.8220  -31.7050 C   0  0  0  0  0  0  0  0  0  0  0  0
   -6.7050   20.2650  -32.3710 C   0  0  0  0  0  0  0  0  0  0  0  0
   -2.7500   19.8820  -33.4850 H   0  0  0  0  0  0  0  0  0  0  0  0
   -3.6400   20.2290  -32.1090 H   0  0  0  0  0  0  0  0  0  0  0  0
   -6.9274   16.9348  -33.1159 H   0  0  0  0  0  0  0  0  0  0  0  0
   -9.2293   17.3007  -32.2287 H   0  0  0  0  0  0  0  0  0  0  0  0
   -9.9194   19.5627  -31.4324 H   0  0  0  0  0  0  0  0  0  0  0  0
   -7.9076   24.0240  -29.2372 H   0  0  0  0  0  0  0  0  0  0  0  0
   -5.8471   25.3309  -28.7230 H   0  0  0  0  0  0  0  0  0  0  0  0
   -2.2002   23.1552  -31.6094 H   0  0  0  0  0  0  0  0  0  0  0  0
   -0.7886   18.6936  -30.4267 H   0  0  0  0  0  0  0  0  0  0  0  0
   -0.1980   17.6134  -28.2548 H   0  0  0  0  0  0  0  0  0  0  0  0
   -0.2825   18.9300  -26.1351 H   0  0  0  0  0  0  0  0  0  0  0  0
   -0.9551   21.3314  -26.1778 H   0  0  0  0  0  0  0  0  0  0  0  0
   -3.8164   23.4240  -32.0393 H   0  0  0  0  0  0  0  0  0  0  0  0
   -5.8757   22.1140  -32.5469 H   0  0  0  0  0  0  0  0  0  0  0  0
   -5.9917   21.1015  -32.4097 H   0  0  0  0  0  0  0  0  0  0  0  0
  1  2  1  0
  2  3  2  0
  2  4  2  0
  2  5  1  0
  5  6  2  0
  6  7  1  0
  7  8  2  0
  8  9  1  0
  9 10  1  0
 10 11  2  0
 10 12  2  0
 10 13  1  0
 13 14  2  0
 14 15  1  0
 15 16  2  0
 16 17  1  0
 17 18  1  0
 18 19  2  0
 18 20  1  0
 20 21  2  0
 21 22  1  0
 22 23  2  0
 22 24  1  0
 24 25  2  0
 25 26  1  0
 26 27  2  0
 27 28  1  0
 28 29  2  0
 29 30  1  0
 16 31  1  0
 31 32  2  0
  9 33  2  0
 33  5  1  0
 32 13  1  0
 30 20  1  0
 29 24  1  0
  1 34  1  0
  1 35  1  0
  6 36  1  0
  7 37  1  0
  8 38  1  0
 14 39  1  0
 15 40  1  0
 21 41  1  0
 25 42  1  0
 26 43  1  0
 27 44  1  0
 28 45  1  0
 31 46  1  0
 32 47  1  0
 33 48  1  0
M  CHG  1  17  -1
M  END
>  <UniqueID>  (20) 
20

>  <SMILES>  (20) 
NS(=O)(=O)c1cccc(S(=O)(=O)c2ccc([N-]C(=O)c3cc(=O)c4ccccc4o3)cc2)c1

>  <Energy>  (20) 
61.73183256033731

>  <Genealogy>  (20) 
NS(=O)(=O)c1cccc(S(=O)(=O)c2ccc([N-]C(=O)c3cc(=O)c4ccccc4o3)cc2)c1 (protonated)
NS(=O)(=O)c1cccc(S(=O)(=O)c2ccc([N-]C(=O)c3cc(=O)c4ccccc4o3)cc2)c1 (3D coordinates assigned)
NS(=O)(=O)c1cccc(S(=O)(=O)c2ccc([N-]C(=O)c3cc(=O)c4ccccc4o3)cc2)c1 (optimized conformer: 61.73183256033731 kcal/mol)

>  <smiles>  (20) 
NS(=O)(=O)c1cccc(S(=O)(=O)c2ccc(NC(=O)c3cc(=O)c4ccccc4o3)cc2)c1

>  <score_type>  (20) 
oracle

>  <origin>  (20) 
adgpu

>  <m_score__min__energy>  (20) 
-12.470000000000001

>  <m_primary>  (20) 
energy

$$$$
20:0
     RDKit          3D

 45 48  0  0  0  0  0  0  0  0999 V2000
   -3.5190   24.8730  -30.7060 O   0  0  0  0  0  0  0  0  0  0  0  0
   -3.8190   23.8010  -30.1130 C   0  0  0  0  0  0  0  0  0  0  0  0
   -3.0350   23.3580  -28.9900 N   0  0  0  0  0  0  0  0  0  0  0  0
   -1.8700   24.0460  -28.5050 C   0  0  0  0  0  0  0  0  0  0  0  0
   -0.5750   23.5310  -28.7040 C   0  0  0  0  0  0  0  0  0  0  0  0
    0.5390   24.2070  -28.1980 C   0  0  0  0  0  0  0  0  0  0  0  0
    0.3720   25.3940  -27.4790 C   0  0  0  0  0  0  0  0  0  0  0  0
    1.4530   26.0470  -26.9850 F   0  0  0  0  0  0  0  0  0  0  0  0
   -0.9130   25.9010  -27.2570 C   0  0  0  0  0  0  0  0  0  0  0  0
   -2.0280   25.2260  -27.7610 C   0  0  0  0  0  0  0  0  0  0  0  0
   -4.9870   23.0240  -30.5880 C   0  0  0  0  0  0  0  0  0  0  0  0
   -4.9450   21.6080  -30.6700 C   0  0  0  0  0  0  0  0  0  0  0  0
   -6.0640   20.8850  -31.1150 C   0  0  0  0  0  0  0  0  0  0  0  0
   -7.2150   21.5910  -31.4660 C   0  0  0  0  0  0  0  0  0  0  0  0
   -7.2720   22.9520  -31.3800 C   0  0  0  0  0  0  0  0  0  0  0  0
   -6.1780   23.6980  -30.9400 C   0  0  0  0  0  0  0  0  0  0  0  0
   -8.6100   23.4490  -31.8120 C   0  0  0  0  0  0  0  0  0  0  0  0
   -9.3610   22.1550  -32.2140 C   0  0  0  0  0  0  0  0  0  0  0  0
   -8.4380   21.0580  -31.9370 N   0  0  0  0  0  0  0  0  0  0  0  0
   -8.7190   19.4040  -32.3710 S   0  0  0  0  0  0  0  0  0  0  0  0
   -9.1310   18.6410  -31.1430 O   0  0  0  0  0  0  0  0  0  0  0  0
   -9.8230   19.3240  -33.3880 O   0  0  0  0  0  0  0  0  0  0  0  0
   -7.2490   18.7280  -33.0620 C   0  0  0  0  0  0  0  0  0  0  0  0
   -6.4730   19.4720  -33.9620 C   0  0  0  0  0  0  0  0  0  0  0  0
   -5.3180   18.9150  -34.5190 C   0  0  0  0  0  0  0  0  0  0  0  0
   -4.9350   17.6130  -34.1810 C   0  0  0  0  0  0  0  0  0  0  0  0
   -5.7050   16.8690  -33.2830 C   0  0  0  0  0  0  0  0  0  0  0  0
   -6.8610   17.4230  -32.7240 C   0  0  0  0  0  0  0  0  0  0  0  0
   -3.3500   22.5240  -28.4470 H   0  0  0  0  0  0  0  0  0  0  0  0
   -0.4391   22.5919  -29.2605 H   0  0  0  0  0  0  0  0  0  0  0  0
    1.5487   23.8042  -28.3659 H   0  0  0  0  0  0  0  0  0  0  0  0
   -1.0457   26.8314  -26.6854 H   0  0  0  0  0  0  0  0  0  0  0  0
   -3.0369   25.6222  -27.5734 H   0  0  0  0  0  0  0  0  0  0  0  0
   -4.0284   21.0720  -30.3827 H   0  0  0  0  0  0  0  0  0  0  0  0
   -6.0335   19.7877  -31.1851 H   0  0  0  0  0  0  0  0  0  0  0  0
   -6.2417   24.7938  -30.8683 H   0  0  0  0  0  0  0  0  0  0  0  0
   -9.1246   23.9624  -30.9864 H   0  0  0  0  0  0  0  0  0  0  0  0
   -8.5521   24.1833  -32.6289 H   0  0  0  0  0  0  0  0  0  0  0  0
  -10.2786   22.0435  -31.6177 H   0  0  0  0  0  0  0  0  0  0  0  0
   -9.6626   22.1735  -33.2717 H   0  0  0  0  0  0  0  0  0  0  0  0
   -6.7734   20.4956  -34.2303 H   0  0  0  0  0  0  0  0  0  0  0  0
   -4.7099   19.5012  -35.2237 H   0  0  0  0  0  0  0  0  0  0  0  0
   -4.0276   17.1746  -34.6220 H   0  0  0  0  0  0  0  0  0  0  0  0
   -5.4014   15.8461  -33.0155 H   0  0  0  0  0  0  0  0  0  0  0  0
   -7.4665   16.8349  -32.0187 H   0  0  0  0  0  0  0  0  0  0  0  0
  1  2  2  0
  2  3  1  0
  3  4  1  0
  4  5  2  0
  5  6  1  0
  6  7  2  0
  7  8  1  0
  7  9  1  0
  9 10  2  0
  2 11  1  0
 11 12  2  0
 12 13  1  0
 13 14  2  0
 14 15  1  0
 15 16  2  0
 15 17  1  0
 17 18  1  0
 18 19  1  0
 19 20  1  0
 20 21  2  0
 20 22  2  0
 20 23  1  0
 23 24  2  0
 24 25  1  0
 25 26  2  0
 26 27  1  0
 27 28  2  0
 10  4  1  0
 16 11  1  0
 28 23  1  0
 19 14  1  0
  3 29  1  0
  5 30  1  0
  6 31  1  0
  9 32  1  0
 10 33  1  0
 12 34  1  0
 13 35  1  0
 16 36  1  0
 17 37  1  0
 17 38  1  0
 18 39  1  0
 18 40  1  0
 24 41  1  0
 25 42  1  0
 26 43  1  0
 27 44  1  0
 28 45  1  0
M  END
>  <UniqueID>  (21) 
21

>  <SMILES>  (21) 
O=C(Nc1ccc(F)cc1)c1ccc2c(c1)CCN2S(=O)(=O)c1ccccc1

>  <Energy>  (21) 
71.33076593083551

>  <Genealogy>  (21) 
O=C(Nc1ccc(F)cc1)c1ccc2c(c1)CCN2S(=O)(=O)c1ccccc1 (3D coordinates assigned)
O=C(Nc1ccc(F)cc1)c1ccc2c(c1)CCN2S(=O)(=O)c1ccccc1 (nonaromatic ring conformer: 71.33076593083551 kcal/mol)

>  <smiles>  (21) 
O=C(Nc1ccc(F)cc1)c1ccc2c(c1)CCN2S(=O)(=O)c1ccccc1

>  <score_type>  (21) 
oracle

>  <origin>  (21) 
adgpu

>  <m_score__min__energy>  (21) 
-9.5500000000000007

>  <m_primary>  (21) 
energy

$$$$
21:0
     RDKit          3D

 58 61  0  0  0  0  0  0  0  0999 V2000
   -5.5610   17.0000  -32.0940 C   0  0  0  0  0  0  0  0  0  0  0  0
   -6.7830   17.1520  -32.9030 N   0  0  0  0  0  0  0  0  0  0  0  0
   -6.4970   17.7580  -34.2210 C   0  0  0  0  0  0  0  0  0  0  0  0
   -6.0800   19.2320  -34.0930 C   0  0  0  0  0  0  0  0  0  0  0  0
   -6.9010   19.9160  -33.0890 N   0  0  0  0  0  0  0  0  0  0  0  0
   -6.3970   21.0950  -32.4360 C   0  0  0  0  0  0  0  0  0  0  0  0
   -7.2850   22.1290  -32.1040 C   0  0  0  0  0  0  0  0  0  0  0  0
   -6.8470   23.2320  -31.3700 C   0  0  0  0  0  0  0  0  0  0  0  0
   -5.5160   23.3110  -30.9420 C   0  0  0  0  0  0  0  0  0  0  0  0
   -4.9780   24.6730  -29.9570 S   0  0  0  0  0  0  0  0  0  0  0  0
   -4.2810   25.6750  -30.8340 O   0  0  0  0  0  0  0  0  0  0  0  0
   -6.1750   25.3460  -29.3430 O   0  0  0  0  0  0  0  0  0  0  0  0
   -3.8870   24.1550  -28.6920 N   0  0  0  0  0  0  0  0  0  0  0  0
   -2.4670   24.3500  -29.0810 C   0  0  0  0  0  0  0  0  0  0  0  0
   -1.7760   23.0440  -29.5020 C   0  0  0  0  0  0  0  0  0  0  0  0
   -1.8190   22.0030  -28.3700 C   0  0  0  0  0  0  0  0  0  0  0  0
   -3.0680   22.1420  -27.4800 C   0  0  0  0  0  0  0  0  0  0  0  0
   -4.2240   22.7830  -28.2520 C   0  0  0  0  0  0  0  0  0  0  0  0
   -4.6190   22.2920  -31.2880 C   0  0  0  0  0  0  0  0  0  0  0  0
   -5.0410   21.1940  -32.0490 C   0  0  0  0  0  0  0  0  0  0  0  0
   -4.0840   20.1880  -32.4060 N   0  0  0  0  0  0  0  0  0  0  0  0
   -2.9390   20.4690  -33.2240 C   0  0  0  0  0  0  0  0  0  0  0  0
   -2.5980   21.6640  -33.4450 O   0  0  0  0  0  0  0  0  0  0  0  0
   -2.1460   19.3730  -33.8050 C   0  0  0  0  0  0  0  0  0  0  0  0
   -0.8100   19.4470  -34.1840 C   0  0  0  0  0  0  0  0  0  0  0  0
   -0.3230   18.2550  -34.7330 C   0  0  0  0  0  0  0  0  0  0  0  0
   -1.2680   17.2400  -34.7910 C   0  0  0  0  0  0  0  0  0  0  0  0
   -2.7120   17.8280  -34.1620 S   0  0  0  0  0  0  0  0  0  0  0  0
   -8.1390   19.2830  -32.6280 C   0  0  0  0  0  0  0  0  0  0  0  0
   -7.8620   17.8450  -32.1500 C   0  0  0  0  0  0  0  0  0  0  0  0
   -5.8220   17.0325  -31.0259 H   0  0  0  0  0  0  0  0  0  0  0  0
   -5.0852   16.0358  -32.3261 H   0  0  0  0  0  0  0  0  0  0  0  0
   -4.8635   17.8183  -32.3261 H   0  0  0  0  0  0  0  0  0  0  0  0
   -5.6813   17.1976  -34.7011 H   0  0  0  0  0  0  0  0  0  0  0  0
   -7.4157   17.7136  -34.8244 H   0  0  0  0  0  0  0  0  0  0  0  0
   -5.0233   19.2838  -33.7919 H   0  0  0  0  0  0  0  0  0  0  0  0
   -6.2238   19.7266  -35.0650 H   0  0  0  0  0  0  0  0  0  0  0  0
   -8.3355   22.0698  -32.4250 H   0  0  0  0  0  0  0  0  0  0  0  0
   -7.5499   24.0424  -31.1267 H   0  0  0  0  0  0  0  0  0  0  0  0
   -2.4281   25.0550  -29.9245 H   0  0  0  0  0  0  0  0  0  0  0  0
   -1.9339   24.7354  -28.1994 H   0  0  0  0  0  0  0  0  0  0  0  0
   -2.2886   22.6352  -30.3853 H   0  0  0  0  0  0  0  0  0  0  0  0
   -0.7234   23.2650  -29.7327 H   0  0  0  0  0  0  0  0  0  0  0  0
   -1.8154   20.9977  -28.8165 H   0  0  0  0  0  0  0  0  0  0  0  0
   -0.9377   22.1691  -27.7330 H   0  0  0  0  0  0  0  0  0  0  0  0
   -3.3760   21.1442  -27.1342 H   0  0  0  0  0  0  0  0  0  0  0  0
   -2.8183   22.7866  -26.6244 H   0  0  0  0  0  0  0  0  0  0  0  0
   -4.4473   22.1686  -29.1367 H   0  0  0  0  0  0  0  0  0  0  0  0
   -5.0962   22.8390  -27.5841 H   0  0  0  0  0  0  0  0  0  0  0  0
   -3.5714   22.3547  -30.9584 H   0  0  0  0  0  0  0  0  0  0  0  0
   -4.1440   19.2610  -31.9270 H   0  0  0  0  0  0  0  0  0  0  0  0
   -0.1968   20.3524  -34.0642 H   0  0  0  0  0  0  0  0  0  0  0  0
    0.7119   18.1340  -35.0855 H   0  0  0  0  0  0  0  0  0  0  0  0
   -1.1008   16.2253  -35.1814 H   0  0  0  0  0  0  0  0  0  0  0  0
   -8.5564   19.8676  -31.7950 H   0  0  0  0  0  0  0  0  0  0  0  0
   -8.8546   19.2496  -33.4627 H   0  0  0  0  0  0  0  0  0  0  0  0
   -7.5733   17.8832  -31.0893 H   0  0  0  0  0  0  0  0  0  0  0  0
   -8.7853   17.2713  -32.3187 H   0  0  0  0  0  0  0  0  0  0  0  0
  1  2  1  0
  2  3  1  0
  3  4  1  0
  4  5  1  0
  5  6  1  0
  6  7  2  0
  7  8  1  0
  8  9  2  0
  9 10  1  0
 10 11  2  0
 10 12  2  0
 10 13  1  0
 13 14  1  0
 14 15  1  0
 15 16  1  0
 16 17  1  0
 17 18  1  0
  9 19  1  0
 19 20  2  0
 20 21  1  0
 21 22  1  0
 22 23  2  0
 22 24  1  0
 24 25  2  0
 25 26  1  0
 26 27  2  0
 27 28  1  0
  5 29  1  0
 29 30  1  0
 30  2  1  0
 20  6  1  0
 28 24  1  0
 18 13  1  0
  1 31  1  0
  1 32  1  0
  1 33  1  0
  3 34  1  0
  3 35  1  0
  4 36  1  0
  4 37  1  0
  7 38  1  0
  8 39  1  0
 14 40  1  0
 14 41  1  0
 15 42  1  0
 15 43  1  0
 16 44  1  0
 16 45  1  0
 17 46  1  0
 17 47  1  0
 18 48  1  0
 18 49  1  0
 19 50  1  0
 21 51  1  0
 25 52  1  0
 26 53  1  0
 27 54  1  0
 29 55  1  0
 29 56  1  0
 30 57  1  0
 30 58  1  0
M  END
>  <UniqueID>  (22) 
22

>  <SMILES>  (22) 
CN1CCN(c2ccc(S(=O)(=O)N3CCCCC3)cc2NC(=O)c2cccs2)CC1

>  <Energy>  (22) 
105.51233159693918

>  <Genealogy>  (22) 
CN1CCN(c2ccc(S(=O)(=O)N3CCCCC3)cc2NC(=O)c2cccs2)CC1 (3D coordinates assigned)
CN1CCN(c2ccc(S(=O)(=O)N3CCCCC3)cc2NC(=O)c2cccs2)CC1 (nonaromatic ring conformer: 105.51233159693918 kcal/mol)

>  <smiles>  (22) 
CN1CCN(c2ccc(S(=O)(=O)N3CCCCC3)cc2NC(=O)c2cccs2)CC1

>  <score_type>  (22) 
oracle

>  <origin>  (22) 
adgpu

>  <m_score__min__energy>  (22) 
-9.8900000000000006

>  <m_primary>  (22) 
energy

$$$$
22:0
     RDKit          3D

 48 51  0  0  0  0  0  0  0  0999 V2000
   -3.1950   19.1330  -32.0240 O   0  0  0  0  0  0  0  0  0  0  0  0
   -4.2140   19.8310  -31.7690 C   0  0  0  0  0  0  0  0  0  0  0  0
   -4.0340   21.2590  -31.4250 C   0  0  0  0  0  0  0  0  0  0  0  0
   -5.0950   22.1690  -31.5670 C   0  0  0  0  0  0  0  0  0  0  0  0
   -4.9190   23.5160  -31.2340 C   0  0  0  0  0  0  0  0  0  0  0  0
   -3.6880   23.9640  -30.7490 C   0  0  0  0  0  0  0  0  0  0  0  0
   -3.5220   25.3050  -30.4230 O   0  0  0  0  0  0  0  0  0  0  0  0
   -2.6280   23.0650  -30.5870 C   0  0  0  0  0  0  0  0  0  0  0  0
   -1.4050   23.5180  -30.0980 O   0  0  0  0  0  0  0  0  0  0  0  0
   -2.8040   21.7140  -30.9200 C   0  0  0  0  0  0  0  0  0  0  0  0
   -5.5230   19.2330  -31.8450 N   0  0  0  0  0  0  0  0  0  0  0  0
   -6.6630   19.9960  -32.3710 C   0  0  0  0  0  0  0  0  0  0  0  0
   -7.6430   19.0670  -33.1050 C   0  0  0  0  0  0  0  0  0  0  0  0
   -6.9380   17.9840  -33.8310 N   0  0  0  0  0  0  0  0  0  0  0  0
   -6.0910   18.4750  -34.9430 C   0  0  0  0  0  0  0  0  0  0  0  0
   -4.6700   18.0310  -34.7850 C   0  0  0  0  0  0  0  0  0  0  0  0
   -4.2680   16.7510  -34.9300 N   0  0  0  0  0  0  0  0  0  0  0  0
   -2.9380   16.8160  -34.7300 C   0  0  0  0  0  0  0  0  0  0  0  0
   -2.5860   18.1290  -34.4760 C   0  0  0  0  0  0  0  0  0  0  0  0
   -1.2390   18.6780  -34.2060 C   0  0  0  0  0  0  0  0  0  0  0  0
   -0.1220   17.8360  -34.0460 C   0  0  0  0  0  0  0  0  0  0  0  0
    1.1420   18.3810  -33.7920 C   0  0  0  0  0  0  0  0  0  0  0  0
    1.3040   19.7640  -33.6950 C   0  0  0  0  0  0  0  0  0  0  0  0
    0.2010   20.6070  -33.8530 C   0  0  0  0  0  0  0  0  0  0  0  0
   -1.0630   20.0700  -34.1070 C   0  0  0  0  0  0  0  0  0  0  0  0
   -3.6800   18.8500  -34.5190 O   0  0  0  0  0  0  0  0  0  0  0  0
   -6.1750   17.0980  -32.9110 C   0  0  0  0  0  0  0  0  0  0  0  0
   -5.7020   17.7960  -31.6190 C   0  0  0  0  0  0  0  0  0  0  0  0
   -6.0687   21.8205  -31.9418 H   0  0  0  0  0  0  0  0  0  0  0  0
   -5.7520   24.2243  -31.3543 H   0  0  0  0  0  0  0  0  0  0  0  0
   -1.1710   24.5030  -30.0830 H   0  0  0  0  0  0  0  0  0  0  0  0
   -1.9734   21.0056  -30.7849 H   0  0  0  0  0  0  0  0  0  0  0  0
   -7.1858   20.4863  -31.5366 H   0  0  0  0  0  0  0  0  0  0  0  0
   -6.2889   20.7488  -33.0805 H   0  0  0  0  0  0  0  0  0  0  0  0
   -8.3252   18.6165  -32.3690 H   0  0  0  0  0  0  0  0  0  0  0  0
   -8.1961   19.6680  -33.8418 H   0  0  0  0  0  0  0  0  0  0  0  0
   -6.4847   18.0834  -35.8925 H   0  0  0  0  0  0  0  0  0  0  0  0
   -6.1128   19.5748  -34.9350 H   0  0  0  0  0  0  0  0  0  0  0  0
   -2.2441   15.9631  -34.7633 H   0  0  0  0  0  0  0  0  0  0  0  0
   -0.2431   16.7453  -34.1209 H   0  0  0  0  0  0  0  0  0  0  0  0
    2.0105   17.7173  -33.6684 H   0  0  0  0  0  0  0  0  0  0  0  0
    2.2984   20.1895  -33.4945 H   0  0  0  0  0  0  0  0  0  0  0  0
    0.3286   21.6969  -33.7771 H   0  0  0  0  0  0  0  0  0  0  0  0
   -1.9266   20.7401  -34.2304 H   0  0  0  0  0  0  0  0  0  0  0  0
   -6.8198   16.2519  -32.6312 H   0  0  0  0  0  0  0  0  0  0  0  0
   -5.2710   16.7800  -33.4511 H   0  0  0  0  0  0  0  0  0  0  0  0
   -6.4539   17.6449  -30.8304 H   0  0  0  0  0  0  0  0  0  0  0  0
   -4.7383   17.3622  -31.3139 H   0  0  0  0  0  0  0  0  0  0  0  0
  1  2  2  0
  2  3  1  0
  3  4  2  0
  4  5  1  0
  5  6  2  0
  6  7  1  0
  6  8  1  0
  8  9  1  0
  8 10  2  0
  2 11  1  0
 11 12  1  0
 12 13  1  0
 13 14  1  0
 14 15  1  0
 15 16  1  0
 16 17  2  0
 17 18  1  0
 18 19  2  0
 19 20  1  0
 20 21  2  0
 21 22  1  0
 22 23  2  0
 23 24  1  0
 24 25  2  0
 19 26  1  0
 14 27  1  0
 27 28  1  0
 10  3  1  0
 28 11  1  0
 26 16  1  0
 25 20  1  0
  4 29  1  0
  5 30  1  0
  9 31  1  0
 10 32  1  0
 12 33  1  0
 12 34  1  0
 13 35  1  0
 13 36  1  0
 15 37  1  0
 15 38  1  0
 18 39  1  0
 21 40  1  0
 22 41  1  0
 23 42  1  0
 24 43  1  0
 25 44  1  0
 27 45  1  0
 27 46  1  0
 28 47  1  0
 28 48  1  0
M  CHG  1   7  -1
M  END
>  <UniqueID>  (23) 
23

>  <SMILES>  (23) 
O=C(c1ccc([O-])c(O)c1)N1CCN(Cc2ncc(-c3ccccc3)o2)CC1

>  <Energy>  (23) 
95.28912459803936

>  <Genealogy>  (23) 
O=C(c1ccc([O-])c(O)c1)N1CCN(Cc2ncc(-c3ccccc3)o2)CC1 (protonated)
O=C(c1ccc([O-])c(O)c1)N1CCN(Cc2ncc(-c3ccccc3)o2)CC1 (3D coordinates assigned)
O=C(c1ccc([O-])c(O)c1)N1CCN(Cc2ncc(-c3ccccc3)o2)CC1 (nonaromatic ring conformer: 95.28912459803936 kcal/mol)

>  <smiles>  (23) 
O=C(c1ccc(O)c(O)c1)N1CCN(Cc2ncc(-c3ccccc3)o2)CC1

>  <score_type>  (23) 
oracle

>  <origin>  (23) 
adgpu

>  <m_score__min__energy>  (23) 
-10.609999999999999

>  <m_primary>  (23) 
energy

$$$$
23:0
     RDKit          3D

 51 54  0  0  0  0  0  0  0  0999 V2000
   -6.0582   16.0969  -35.3393 H   0  0  0  0  0  0  0  0  0  0  0  0
   -5.3130   16.7890  -34.9200 C   0  0  0  0  0  0  0  0  0  0  0  0
   -5.7180   17.8750  -34.2100 N   0  0  0  0  0  0  0  0  0  0  0  0
   -4.8290   18.7520  -33.6720 C   0  0  0  0  0  0  0  0  0  0  0  0
   -5.1929   19.6178  -33.0992 H   0  0  0  0  0  0  0  0  0  0  0  0
   -3.4470   18.5580  -33.8440 C   0  0  0  0  0  0  0  0  0  0  0  0
   -2.4640   19.5100  -33.2650 C   0  0  0  0  0  0  0  0  0  0  0  0
   -1.6780   20.3230  -34.1000 C   0  0  0  0  0  0  0  0  0  0  0  0
   -1.7847   20.2585  -35.1929 H   0  0  0  0  0  0  0  0  0  0  0  0
   -0.7620   21.2120  -33.5370 C   0  0  0  0  0  0  0  0  0  0  0  0
   -0.1455   21.8501  -34.1872 H   0  0  0  0  0  0  0  0  0  0  0  0
   -0.6300   21.2910  -32.1870 N   0  0  0  0  0  0  0  0  0  0  0  0
   -1.3740   20.5210  -31.3450 C   0  0  0  0  0  0  0  0  0  0  0  0
   -1.2320   20.6130  -30.0550 N   0  0  0  0  0  0  0  0  0  0  0  0
   -0.3100   21.5240  -29.3780 C   0  0  0  0  0  0  0  0  0  0  0  0
    0.4949   21.8061  -30.0727 H   0  0  0  0  0  0  0  0  0  0  0  0
    0.1089   21.0152  -28.4973 H   0  0  0  0  0  0  0  0  0  0  0  0
   -1.0300   22.7650  -28.9250 C   0  0  0  0  0  0  0  0  0  0  0  0
   -0.8490   23.2640  -27.6260 C   0  0  0  0  0  0  0  0  0  0  0  0
   -0.1848   22.7382  -26.9243 H   0  0  0  0  0  0  0  0  0  0  0  0
   -1.5100   24.4270  -27.2210 C   0  0  0  0  0  0  0  0  0  0  0  0
   -1.3546   24.8214  -26.2059 H   0  0  0  0  0  0  0  0  0  0  0  0
   -2.3680   25.0900  -28.1030 C   0  0  0  0  0  0  0  0  0  0  0  0
   -2.8787   26.0101  -27.7826 H   0  0  0  0  0  0  0  0  0  0  0  0
   -2.5800   24.5880  -29.3920 C   0  0  0  0  0  0  0  0  0  0  0  0
   -3.4780   25.2780  -30.2690 N   0  0  0  0  0  0  0  0  0  0  0  0
   -4.8950   25.0720  -30.3510 C   0  0  0  0  0  0  0  0  0  0  0  0
   -5.5960   25.2410  -29.3200 O   0  0  0  0  0  0  0  0  0  0  0  0
   -5.5370   24.6590  -31.5660 N   0  0  0  0  0  0  0  0  0  0  0  0
   -6.2710   23.4390  -31.7540 C   0  0  0  0  0  0  0  0  0  0  0  0
   -7.6040   23.3980  -31.3240 C   0  0  0  0  0  0  0  0  0  0  0  0
   -8.0363   24.2656  -30.8041 H   0  0  0  0  0  0  0  0  0  0  0  0
   -8.3880   22.2650  -31.5500 C   0  0  0  0  0  0  0  0  0  0  0  0
   -9.4387   22.2502  -31.2248 H   0  0  0  0  0  0  0  0  0  0  0  0
   -7.8410   21.1530  -32.1870 C   0  0  0  0  0  0  0  0  0  0  0  0
   -8.4657   20.2689  -32.3821 H   0  0  0  0  0  0  0  0  0  0  0  0
   -6.5000   21.1600  -32.5780 C   0  0  0  0  0  0  0  0  0  0  0  0
   -6.0726   20.2764  -33.0746 H   0  0  0  0  0  0  0  0  0  0  0  0
   -5.6920   22.2850  -32.3430 C   0  0  0  0  0  0  0  0  0  0  0  0
   -4.2380   22.2230  -32.7230 C   0  0  0  0  0  0  0  0  0  0  0  0
   -3.6218   22.1967  -31.8122 H   0  0  0  0  0  0  0  0  0  0  0  0
   -4.0527   21.3161  -33.3174 H   0  0  0  0  0  0  0  0  0  0  0  0
   -3.9762   23.1108  -33.3174 H   0  0  0  0  0  0  0  0  0  0  0  0
   -1.8820   23.4440  -29.8120 C   0  0  0  0  0  0  0  0  0  0  0  0
   -2.0032   23.0773  -30.8420 H   0  0  0  0  0  0  0  0  0  0  0  0
   -2.3020   19.6160  -31.8730 C   0  0  0  0  0  0  0  0  0  0  0  0
   -2.9038   18.9884  -31.1992 H   0  0  0  0  0  0  0  0  0  0  0  0
   -3.0190   17.4380  -34.5780 C   0  0  0  0  0  0  0  0  0  0  0  0
   -1.9440   17.2593  -34.7281 H   0  0  0  0  0  0  0  0  0  0  0  0
   -3.9530   16.5520  -35.1170 C   0  0  0  0  0  0  0  0  0  0  0  0
   -3.6196   15.6753  -35.6916 H   0  0  0  0  0  0  0  0  0  0  0  0
  1  2  1  0
  2  3  2  0
  3  4  1  0
  4  5  1  0
  4  6  2  0
  6  7  1  0
  7  8  1  0
  8  9  1  0
  8 10  2  0
 10 11  1  0
 10 12  1  0
 12 13  1  0
 13 14  2  0
 14 15  1  0
 15 16  1  0
 15 17  1  0
 15 18  1  0
 18 19  2  0
 19 20  1  0
 19 21  1  0
 21 22  1  0
 21 23  2  0
 23 24  1  0
 23 25  1  0
 25 26  1  0
 26 27  1  0
 27 28  2  0
 27 29  1  0
 29 30  1  0
 30 31  2  0
 31 32  1  0
 31 33  1  0
 33 34  1  0
 33 35  2  0
 35 36  1  0
 35 37  1  0
 37 38  1  0
 37 39  2  0
 39 40  1  0
 40 41  1  0
 40 42  1  0
 40 43  1  0
 25 44  2  0
 44 45  1  0
 13 46  1  0
 46 47  1  0
  6 48  1  0
 48 49  1  0
 48 50  2  0
 50 51  1  0
 50  2  1  0
 46  7  2  0
 44 18  1  0
 39 30  1  0
M  CHG  3  12  -1  26  -1  29  -1
M  END
>  <UniqueID>  (24) 
24

>  <SMILES>  (24) 
Cc1ccccc1[N-]C(=O)[N-]c1cccc(C/N=c2/cc(-c3cccnc3)cc[n-]2)c1

>  <Energy>  (24) 
70.66619181732364

>  <Genealogy>  (24) 
Cc1ccccc1[N-]C(=O)[N-]c1cccc(CN=c2cc(-c3cccnc3)cc[n-]2)c1 (protonated)
Cc1ccccc1[N-]C(=O)[N-]c1cccc(C/N=c2/cc(-c3cccnc3)cc[n-]2)c1 (cis-trans isomerization)
Cc1ccccc1[N-]C(=O)[N-]c1cccc(C/N=c2/cc(-c3cccnc3)cc[n-]2)c1 (3D coordinates assigned)
Cc1ccccc1[N-]C(=O)[N-]c1cccc(C/N=c2/cc(-c3cccnc3)cc[n-]2)c1 (optimized conformer: 70.66619181732364 kcal/mol)

>  <smiles>  (24) 
Cc1ccccc1NC(=O)Nc1cccc(CN=c2cc(-c3cccnc3)cc[nH]2)c1

>  <score_type>  (24) 
oracle

>  <origin>  (24) 
adgpu

>  <m_score__min__energy>  (24) 
-11.91

>  <m_primary>  (24) 
energy

$$$$
24:0
     RDKit          3D

 49 51  0  0  0  0  0  0  0  0999 V2000
   -5.6990   19.5000  -34.1010 C   0  0  0  0  0  0  0  0  0  0  0  0
   -4.9070   20.1960  -33.0340 C   0  0  0  0  0  0  0  0  0  0  0  0
   -4.2150   21.3800  -33.3320 C   0  0  0  0  0  0  0  0  0  0  0  0
   -3.5050   22.0510  -32.3330 C   0  0  0  0  0  0  0  0  0  0  0  0
   -3.4990   21.5560  -31.0230 C   0  0  0  0  0  0  0  0  0  0  0  0
   -2.7450   22.2240  -30.0070 N   0  0  0  0  0  0  0  0  0  0  0  0
   -3.3730   23.2480  -29.1730 C   0  0  0  0  0  0  0  0  0  0  0  0
   -3.0550   24.6220  -29.6990 C   0  0  0  0  0  0  0  0  0  0  0  0
   -2.0510   25.2290  -29.2420 O   0  0  0  0  0  0  0  0  0  0  0  0
   -3.8700   25.2870  -30.6730 N   0  0  0  0  0  0  0  0  0  0  0  0
   -5.2850   25.6190  -30.5310 C   0  0  0  0  0  0  0  0  0  0  0  0
   -6.1520   24.4180  -30.7990 C   0  0  0  0  0  0  0  0  0  0  0  0
   -6.3310   23.9470  -32.1100 C   0  0  0  0  0  0  0  0  0  0  0  0
   -7.0830   22.7930  -32.3480 C   0  0  0  0  0  0  0  0  0  0  0  0
   -7.6540   22.0960  -31.2800 C   0  0  0  0  0  0  0  0  0  0  0  0
   -7.4820   22.5560  -29.9730 C   0  0  0  0  0  0  0  0  0  0  0  0
   -6.7290   23.7090  -29.7300 C   0  0  0  0  0  0  0  0  0  0  0  0
   -1.0770   21.8060  -29.7780 S   0  0  0  0  0  0  0  0  0  0  0  0
   -0.2440   23.0570  -29.7370 O   0  0  0  0  0  0  0  0  0  0  0  0
   -0.9030   21.0810  -28.4730 O   0  0  0  0  0  0  0  0  0  0  0  0
   -0.5570   20.7630  -31.0960 C   0  0  0  0  0  0  0  0  0  0  0  0
   -0.4250   19.3840  -30.8860 C   0  0  0  0  0  0  0  0  0  0  0  0
   -0.0440   18.5460  -31.9380 C   0  0  0  0  0  0  0  0  0  0  0  0
    0.2010   19.0830  -33.2050 C   0  0  0  0  0  0  0  0  0  0  0  0
    0.0630   20.4560  -33.4220 C   0  0  0  0  0  0  0  0  0  0  0  0
   -0.3180   21.2960  -32.3710 C   0  0  0  0  0  0  0  0  0  0  0  0
   -4.2040   20.3870  -30.7160 C   0  0  0  0  0  0  0  0  0  0  0  0
   -4.9080   19.7100  -31.7170 C   0  0  0  0  0  0  0  0  0  0  0  0
   -6.4467   18.8429  -33.6329 H   0  0  0  0  0  0  0  0  0  0  0  0
   -6.2084   20.2480  -34.7263 H   0  0  0  0  0  0  0  0  0  0  0  0
   -5.0227   18.8987  -34.7263 H   0  0  0  0  0  0  0  0  0  0  0  0
   -4.2316   21.7813  -34.3560 H   0  0  0  0  0  0  0  0  0  0  0  0
   -2.9501   22.9692  -32.5758 H   0  0  0  0  0  0  0  0  0  0  0  0
   -4.4632   23.1013  -29.1785 H   0  0  0  0  0  0  0  0  0  0  0  0
   -2.9845   23.1601  -28.1476 H   0  0  0  0  0  0  0  0  0  0  0  0
   -5.4698   25.9743  -29.5065 H   0  0  0  0  0  0  0  0  0  0  0  0
   -5.5358   26.4016  -31.2622 H   0  0  0  0  0  0  0  0  0  0  0  0
   -5.8774   24.4886  -32.9532 H   0  0  0  0  0  0  0  0  0  0  0  0
   -7.2255   22.4330  -33.3776 H   0  0  0  0  0  0  0  0  0  0  0  0
   -8.2395   21.1842  -31.4691 H   0  0  0  0  0  0  0  0  0  0  0  0
   -7.9391   22.0111  -29.1339 H   0  0  0  0  0  0  0  0  0  0  0  0
   -6.5873   24.0631  -28.6982 H   0  0  0  0  0  0  0  0  0  0  0  0
   -0.6217   18.9596  -29.8904 H   0  0  0  0  0  0  0  0  0  0  0  0
    0.0630   17.4644  -31.7688 H   0  0  0  0  0  0  0  0  0  0  0  0
    0.5028   18.4237  -34.0322 H   0  0  0  0  0  0  0  0  0  0  0  0
    0.2542   20.8767  -34.4202 H   0  0  0  0  0  0  0  0  0  0  0  0
   -0.4304   22.3764  -32.5445 H   0  0  0  0  0  0  0  0  0  0  0  0
   -4.2045   20.0001  -29.6863 H   0  0  0  0  0  0  0  0  0  0  0  0
   -5.4645   18.7935  -31.4715 H   0  0  0  0  0  0  0  0  0  0  0  0
  1  2  1  0
  2  3  2  0
  3  4  1  0
  4  5  2  0
  5  6  1  0
  6  7  1  0
  7  8  1  0
  8  9  2  0
  8 10  1  0
 10 11  1  0
 11 12  1  0
 12 13  2  0
 13 14  1  0
 14 15  2  0
 15 16  1  0
 16 17  2  0
  6 18  1  0
 18 19  2  0
 18 20  2  0
 18 21  1  0
 21 22  2  0
 22 23  1  0
 23 24  2  0
 24 25  1  0
 25 26  2  0
  5 27  1  0
 27 28  2  0
 28  2  1  0
 17 12  1  0
 26 21  1  0
  1 29  1  0
  1 30  1  0
  1 31  1  0
  3 32  1  0
  4 33  1  0
  7 34  1  0
  7 35  1  0
 11 36  1  0
 11 37  1  0
 13 38  1  0
 14 39  1  0
 15 40  1  0
 16 41  1  0
 17 42  1  0
 22 43  1  0
 23 44  1  0
 24 45  1  0
 25 46  1  0
 26 47  1  0
 27 48  1  0
 28 49  1  0
M  CHG  1  10  -1
M  END
>  <UniqueID>  (25) 
25

>  <SMILES>  (25) 
Cc1ccc(N(CC(=O)[N-]Cc2ccccc2)S(=O)(=O)c2ccccc2)cc1

>  <Energy>  (25) 
49.267012126405

>  <Genealogy>  (25) 
Cc1ccc(N(CC(=O)[N-]Cc2ccccc2)S(=O)(=O)c2ccccc2)cc1 (protonated)
Cc1ccc(N(CC(=O)[N-]Cc2ccccc2)S(=O)(=O)c2ccccc2)cc1 (3D coordinates assigned)
Cc1ccc(N(CC(=O)[N-]Cc2ccccc2)S(=O)(=O)c2ccccc2)cc1 (optimized conformer: 49.267012126405 kcal/mol)

>  <smiles>  (25) 
Cc1ccc(N(CC(=O)NCc2ccccc2)S(=O)(=O)c2ccccc2)cc1

>  <score_type>  (25) 
oracle

>  <origin>  (25) 
adgpu

>  <m_score__min__energy>  (25) 
-11.369999999999999

>  <m_primary>  (25) 
energy

$$$$
25:0
     RDKit          3D

 34 37  0  0  0  0  0  0  0  0999 V2000
   -8.7000   19.7790  -31.6360 C   0  0  0  0  0  0  0  0  0  0  0  0
   -7.6470   19.9720  -33.1060 S   0  0  0  0  0  0  0  0  0  0  0  0
   -6.5690   21.1600  -32.3170 C   0  0  0  0  0  0  0  0  0  0  0  0
   -6.7750   22.4960  -32.3630 N   0  0  0  0  0  0  0  0  0  0  0  0
   -5.8060   23.1580  -31.6800 C   0  0  0  0  0  0  0  0  0  0  0  0
   -5.7440   24.5420  -31.5480 C   0  0  0  0  0  0  0  0  0  0  0  0
   -4.7210   25.0960  -30.8360 N   0  0  0  0  0  0  0  0  0  0  0  0
   -3.7510   24.3390  -30.2440 C   0  0  0  0  0  0  0  0  0  0  0  0
   -2.7790   24.9380  -29.5640 O   0  0  0  0  0  0  0  0  0  0  0  0
   -1.7960   24.2720  -28.9590 C   0  0  0  0  0  0  0  0  0  0  0  0
   -0.7880   25.0110  -28.2450 N   0  0  0  0  0  0  0  0  0  0  0  0
    0.4390   24.3970  -27.7700 C   0  0  0  0  0  0  0  0  0  0  0  0
    1.2890   25.5380  -27.2290 C   0  0  0  0  0  0  0  0  0  0  0  0
    0.3360   26.7120  -27.0310 C   0  0  0  0  0  0  0  0  0  0  0  0
   -0.8730   26.4240  -27.9130 C   0  0  0  0  0  0  0  0  0  0  0  0
   -1.7620   22.8690  -29.0260 C   0  0  0  0  0  0  0  0  0  0  0  0
   -2.7590   22.1900  -29.7280 C   0  0  0  0  0  0  0  0  0  0  0  0
   -2.7250   20.9320  -29.7870 O   0  0  0  0  0  0  0  0  0  0  0  0
   -3.7780   22.9260  -30.3550 C   0  0  0  0  0  0  0  0  0  0  0  0
   -4.8340   22.3630  -31.0900 C   0  0  0  0  0  0  0  0  0  0  0  0
   -5.1910   20.7510  -31.4300 S   0  0  0  0  0  0  0  0  0  0  0  0
   -8.0877   19.8912  -30.7291 H   0  0  0  0  0  0  0  0  0  0  0  0
   -9.4865   20.5479  -31.6449 H   0  0  0  0  0  0  0  0  0  0  0  0
   -9.1627   18.7811  -31.6449 H   0  0  0  0  0  0  0  0  0  0  0  0
   -6.5100   25.1808  -32.0118 H   0  0  0  0  0  0  0  0  0  0  0  0
    0.2207   23.6705  -26.9734 H   0  0  0  0  0  0  0  0  0  0  0  0
    0.9564   23.8509  -28.5725 H   0  0  0  0  0  0  0  0  0  0  0  0
    1.7481   25.2522  -26.2711 H   0  0  0  0  0  0  0  0  0  0  0  0
    2.1072   25.7939  -27.9182 H   0  0  0  0  0  0  0  0  0  0  0  0
    0.0315   26.7836  -25.9764 H   0  0  0  0  0  0  0  0  0  0  0  0
    0.8118   27.6671  -27.2983 H   0  0  0  0  0  0  0  0  0  0  0  0
   -1.8048   26.6348  -27.3678 H   0  0  0  0  0  0  0  0  0  0  0  0
   -0.8780   27.0541  -28.8147 H   0  0  0  0  0  0  0  0  0  0  0  0
   -0.9556   22.3099  -28.5289 H   0  0  0  0  0  0  0  0  0  0  0  0
  1  2  1  0
  2  3  1  0
  3  4  2  0
  4  5  1  0
  5  6  2  0
  6  7  1  0
  7  8  2  0
  8  9  1  0
  9 10  1  0
 10 11  1  0
 11 12  1  0
 12 13  1  0
 13 14  1  0
 14 15  1  0
 10 16  2  0
 16 17  1  0
 17 18  2  0
 17 19  1  0
 19 20  2  0
 20 21  1  0
 21  3  1  0
 20  5  1  0
 19  8  1  0
 15 11  1  0
  1 22  1  0
  1 23  1  0
  1 24  1  0
  6 25  1  0
 12 26  1  0
 12 27  1  0
 13 28  1  0
 13 29  1  0
 14 30  1  0
 14 31  1  0
 15 32  1  0
 15 33  1  0
 16 34  1  0
M  END
>  <UniqueID>  (26) 
26

>  <SMILES>  (26) 
CSc1nc2cnc3oc(N4CCCC4)cc(=O)c3c2s1

>  <Energy>  (26) 
74.90808071969225

>  <Genealogy>  (26) 
CSc1nc2cnc3oc(N4CCCC4)cc(=O)c3c2s1 (3D coordinates assigned)
CSc1nc2cnc3oc(N4CCCC4)cc(=O)c3c2s1 (nonaromatic ring conformer: 74.90808071969225 kcal/mol)

>  <smiles>  (26) 
CSc1nc2cnc3oc(N4CCCC4)cc(=O)c3c2s1

>  <score_type>  (26) 
oracle

>  <origin>  (26) 
adgpu

>  <m_score__min__energy>  (26) 
-7.2999999999999998

>  <m_primary>  (26) 
energy

$$$$
26:0
     RDKit          3D

 62 65  0  0  1  0  0  0  0  0999 V2000
   -3.5880   14.1170  -33.3060 C   0  0  0  0  0  0  0  0  0  0  0  0
   -4.0780   14.4880  -34.6210 N   0  0  0  0  0  0  0  0  0  0  0  0
   -2.9690   14.5820  -35.5350 C   0  0  0  0  0  0  0  0  0  0  0  0
   -4.8830   15.6770  -34.5930 C   0  0  0  0  0  0  0  0  0  0  0  0
   -4.0580   16.9140  -34.4240 C   0  0  0  0  0  0  0  0  0  0  0  0
   -4.8390   18.1250  -34.0340 C   0  0  0  0  0  0  0  0  0  0  0  0
   -6.1090   17.8800  -33.4160 N   0  0  0  0  0  0  0  0  0  0  0  0
   -6.6790   18.8300  -32.5240 C   0  0  0  0  0  0  0  0  0  0  0  0
   -7.8100   18.6360  -31.9570 O   0  0  0  0  0  0  0  0  0  0  0  0
   -6.0290   20.0950  -32.1840 C   0  0  0  0  0  0  0  0  0  0  0  0
   -6.8270   21.1530  -31.7960 C   0  0  0  0  0  0  0  0  0  0  0  0
   -6.2070   22.3600  -31.4670 C   0  0  0  0  0  0  0  0  0  0  0  0
   -4.8350   22.4500  -31.5420 C   0  0  0  0  0  0  0  0  0  0  0  0
   -4.2520   23.7060  -31.1920 N   0  0  0  0  0  0  0  0  0  0  0  0
   -3.5040   23.6880  -30.1430 C   0  0  0  0  0  0  0  0  0  0  0  0
   -3.3010   22.5660  -29.4440 N   0  0  0  0  0  0  0  0  0  0  0  0
   -2.5230   22.5580  -28.3580 C   0  0  0  0  0  0  0  0  0  0  0  0
   -1.8620   23.6920  -27.8580 C   0  0  0  0  0  0  0  0  0  0  0  0
   -1.0250   23.6220  -26.6750 C   0  0  0  0  0  0  0  0  0  0  0  0
    0.3170   23.4710  -26.7770 F   0  0  0  0  0  0  0  0  0  0  0  0
   -1.2260   22.2290  -26.3070 F   0  0  0  0  0  0  0  0  0  0  0  0
   -1.5410   24.0960  -25.4890 F   0  0  0  0  0  0  0  0  0  0  0  0
   -2.0980   24.8370  -28.6070 C   0  0  0  0  0  0  0  0  0  0  0  0
   -1.6240   25.9440  -28.3100 N   0  0  0  0  0  0  0  0  0  0  0  0
   -0.8170   26.3130  -27.2650 C   0  0  0  0  0  0  0  0  0  0  0  0
   -1.4790   26.7390  -26.0740 C   0  0  0  0  0  0  0  0  0  0  0  0
   -0.7480   27.0350  -24.9460 C   0  0  0  0  0  0  0  0  0  0  0  0
    0.6240   26.9450  -24.8850 C   0  0  0  0  0  0  0  0  0  0  0  0
    1.2690   26.5320  -26.0390 C   0  0  0  0  0  0  0  0  0  0  0  0
    0.5610   26.2320  -27.1740 C   0  0  0  0  0  0  0  0  0  0  0  0
   -2.9050   24.8020  -29.7180 N   0  0  0  0  0  0  0  0  0  0  0  0
   -4.0290   21.3920  -31.9320 C   0  0  0  0  0  0  0  0  0  0  0  0
   -4.6530   20.1850  -32.2600 C   0  0  0  0  0  0  0  0  0  0  0  0
   -6.8660   16.6680  -33.6650 C   0  0  0  0  0  0  0  0  0  0  0  0
   -5.9070   15.5100  -33.4850 C   0  0  0  0  0  0  0  0  0  0  0  0
   -4.2133   14.5904  -32.5347 H   0  0  0  0  0  0  0  0  0  0  0  0
   -3.6319   13.0237  -33.1934 H   0  0  0  0  0  0  0  0  0  0  0  0
   -2.5475   14.4558  -33.1934 H   0  0  0  0  0  0  0  0  0  0  0  0
   -2.0308   14.6615  -34.9662 H   0  0  0  0  0  0  0  0  0  0  0  0
   -2.9387   13.6832  -36.1684 H   0  0  0  0  0  0  0  0  0  0  0  0
   -3.0904   15.4731  -36.1684 H   0  0  0  0  0  0  0  0  0  0  0  0
   -5.3953   15.8074  -35.5577 H   0  0  0  0  0  0  0  0  0  0  0  0
   -3.3064   16.7229  -33.6439 H   0  0  0  0  0  0  0  0  0  0  0  0
   -3.6104   17.1305  -35.4052 H   0  0  0  0  0  0  0  0  0  0  0  0
   -4.2279   18.7071  -33.3286 H   0  0  0  0  0  0  0  0  0  0  0  0
   -5.0625   18.6500  -34.9744 H   0  0  0  0  0  0  0  0  0  0  0  0
   -7.9209   21.0478  -31.7475 H   0  0  0  0  0  0  0  0  0  0  0  0
   -6.8063   23.2271  -31.1522 H   0  0  0  0  0  0  0  0  0  0  0  0
   -3.7580   21.6650  -29.7510 H   0  0  0  0  0  0  0  0  0  0  0  0
   -2.3922   21.6058  -27.8230 H   0  0  0  0  0  0  0  0  0  0  0  0
   -2.5750   26.8308  -26.0578 H   0  0  0  0  0  0  0  0  0  0  0  0
   -1.2891   27.3608  -24.0454 H   0  0  0  0  0  0  0  0  0  0  0  0
    1.1795   27.1885  -23.9673 H   0  0  0  0  0  0  0  0  0  0  0  0
    2.3654   26.4434  -26.0449 H   0  0  0  0  0  0  0  0  0  0  0  0
    1.1210   25.9082  -28.0637 H   0  0  0  0  0  0  0  0  0  0  0  0
   -3.0820   25.6710  -30.2860 H   0  0  0  0  0  0  0  0  0  0  0  0
   -2.9353   21.4986  -31.9817 H   0  0  0  0  0  0  0  0  0  0  0  0
   -4.0551   19.3170  -32.5749 H   0  0  0  0  0  0  0  0  0  0  0  0
   -7.6971   16.5865  -32.9490 H   0  0  0  0  0  0  0  0  0  0  0  0
   -7.2958   16.6715  -34.6775 H   0  0  0  0  0  0  0  0  0  0  0  0
   -5.4220   15.5585  -32.4989 H   0  0  0  0  0  0  0  0  0  0  0  0
   -6.4176   14.5370  -33.5355 H   0  0  0  0  0  0  0  0  0  0  0  0
  1  2  1  0
  2  3  1  0
  2  4  1  0
  4  5  1  0
  5  6  1  0
  6  7  1  0
  7  8  1  0
  8  9  2  0
  8 10  1  0
 10 11  2  0
 11 12  1  0
 12 13  2  0
 13 14  1  0
 14 15  2  0
 15 16  1  0
 16 17  1  0
 17 18  2  0
 18 19  1  0
 19 20  1  0
 19 21  1  0
 19 22  1  0
 18 23  1  0
 23 24  2  0
 24 25  1  0
 25 26  2  0
 26 27  1  0
 27 28  2  0
 28 29  1  0
 29 30  2  0
 23 31  1  0
 13 32  1  0
 32 33  2  0
  7 34  1  0
 34 35  1  0
 35  4  1  0
 33 10  1  0
 31 15  1  0
 30 25  1  0
  1 36  1  0
  1 37  1  0
  1 38  1  0
  3 39  1  0
  3 40  1  0
  3 41  1  0
  4 42  1  0
  5 43  1  0
  5 44  1  0
  6 45  1  0
  6 46  1  0
 11 47  1  0
 12 48  1  0
 16 49  1  0
 17 50  1  0
 26 51  1  0
 27 52  1  0
 28 53  1  0
 29 54  1  0
 30 55  1  0
 31 56  1  0
 32 57  1  0
 33 58  1  0
 34 59  1  0
 34 60  1  0
 35 61  1  0
 35 62  1  0
M  END
>  <smiles>  (27) 
CN(C)C1CCN(C(=O)c2ccc(N=c3[nH]cc(C(F)(F)F)c(=Nc4ccccc4)[nH]3)cc2)CC1

>  <score_type>  (27) 
oracle

>  <origin>  (27) 
adgpu

>  <m_score__min__energy>  (27) 
-9.7300000000000004

>  <m_primary>  (27) 
energy

$$$$
27:0
     RDKit          3D

 32 33  0  0  0  0  0  0  0  0999 V2000
   -9.1190   18.2210  -31.6820 C   0  0  0  0  0  0  0  0  0  0  0  0
   -9.4550   19.7220  -32.6550 S   0  0  0  0  0  0  0  0  0  0  0  0
   -8.0530   20.6160  -31.9830 C   0  0  0  0  0  0  0  0  0  0  0  0
   -6.7510   20.2580  -32.3510 C   0  0  0  0  0  0  0  0  0  0  0  0
   -5.6580   20.9540  -31.8260 C   0  0  0  0  0  0  0  0  0  0  0  0
   -5.8540   21.9980  -30.9120 C   0  0  0  0  0  0  0  0  0  0  0  0
   -4.7210   22.7240  -30.4140 N   0  0  0  0  0  0  0  0  0  0  0  0
   -4.5940   24.1620  -30.4290 C   0  0  0  0  0  0  0  0  0  0  0  0
   -5.8570   25.1260  -30.8430 S   0  0  0  0  0  0  0  0  0  0  0  0
   -3.3510   24.7830  -30.0680 N   0  0  0  0  0  0  0  0  0  0  0  0
   -2.4550   24.2690  -29.0710 C   0  0  0  0  0  0  0  0  0  0  0  0
   -2.5820   24.6350  -27.7180 C   0  0  0  0  0  0  0  0  0  0  0  0
   -1.6770   24.1470  -26.7680 C   0  0  0  0  0  0  0  0  0  0  0  0
   -0.6340   23.3060  -27.1620 C   0  0  0  0  0  0  0  0  0  0  0  0
   -0.4880   22.9570  -28.5070 C   0  0  0  0  0  0  0  0  0  0  0  0
   -1.3890   23.4440  -29.4600 C   0  0  0  0  0  0  0  0  0  0  0  0
   -7.1650   22.3700  -30.5640 C   0  0  0  0  0  0  0  0  0  0  0  0
   -8.2570   21.6740  -31.0900 C   0  0  0  0  0  0  0  0  0  0  0  0
   -9.1724   18.4597  -30.6095 H   0  0  0  0  0  0  0  0  0  0  0  0
   -9.8672   17.4519  -31.9242 H   0  0  0  0  0  0  0  0  0  0  0  0
   -8.1143   17.8443  -31.9242 H   0  0  0  0  0  0  0  0  0  0  0  0
   -6.5874   19.4280  -33.0541 H   0  0  0  0  0  0  0  0  0  0  0  0
   -4.6376   20.6803  -32.1324 H   0  0  0  0  0  0  0  0  0  0  0  0
   -3.9550   22.1600  -29.9850 H   0  0  0  0  0  0  0  0  0  0  0  0
   -3.0920   25.6720  -30.5530 H   0  0  0  0  0  0  0  0  0  0  0  0
   -3.3952   25.3068  -27.4059 H   0  0  0  0  0  0  0  0  0  0  0  0
   -1.7875   24.4263  -25.7098 H   0  0  0  0  0  0  0  0  0  0  0  0
    0.0726   22.9183  -26.4134 H   0  0  0  0  0  0  0  0  0  0  0  0
    0.3366   22.2983  -28.8171 H   0  0  0  0  0  0  0  0  0  0  0  0
   -1.2610   23.1787  -30.5198 H   0  0  0  0  0  0  0  0  0  0  0  0
   -7.3315   23.2116  -29.8755 H   0  0  0  0  0  0  0  0  0  0  0  0
   -9.2796   21.9586  -30.8013 H   0  0  0  0  0  0  0  0  0  0  0  0
  1  2  1  0
  2  3  1  0
  3  4  2  0
  4  5  1  0
  5  6  2  0
  6  7  1  0
  7  8  1  0
  8  9  2  0
  8 10  1  0
 10 11  1  0
 11 12  2  0
 12 13  1  0
 13 14  2  0
 14 15  1  0
 15 16  2  0
  6 17  1  0
 17 18  2  0
 18  3  1  0
 16 11  1  0
  1 19  1  0
  1 20  1  0
  1 21  1  0
  4 22  1  0
  5 23  1  0
  7 24  1  0
 10 25  1  0
 12 26  1  0
 13 27  1  0
 14 28  1  0
 15 29  1  0
 16 30  1  0
 17 31  1  0
 18 32  1  0
M  END
>  <UniqueID>  (28) 
27

>  <SMILES>  (28) 
CSc1ccc(NC(=S)Nc2ccccc2)cc1

>  <Energy>  (28) 
38.523859752872404

>  <Genealogy>  (28) 
CSc1ccc(NC(=S)Nc2ccccc2)cc1 (3D coordinates assigned)
CSc1ccc(NC(=S)Nc2ccccc2)cc1 (optimized conformer: 38.523859752872404 kcal/mol)

>  <smiles>  (28) 
CSc1ccc(NC(=S)Nc2ccccc2)cc1

>  <score_type>  (28) 
oracle

>  <origin>  (28) 
adgpu

>  <m_score__min__energy>  (28) 
-7.25

>  <m_primary>  (28) 
energy

$$$$
28:0
     RDKit          3D

 43 45  0  0  0  0  0  0  0  0999 V2000
   -0.7200   22.3880  -26.3220 C   0  0  0  0  0  0  0  0  0  0  0  0
   -1.4730   23.1150  -27.3960 C   0  0  0  0  0  0  0  0  0  0  0  0
   -2.7550   22.6870  -27.7750 C   0  0  0  0  0  0  0  0  0  0  0  0
   -3.4710   23.3860  -28.7500 C   0  0  0  0  0  0  0  0  0  0  0  0
   -2.9260   24.5410  -29.3390 C   0  0  0  0  0  0  0  0  0  0  0  0
   -3.6300   25.2750  -30.3520 N   0  0  0  0  0  0  0  0  0  0  0  0
   -5.0400   25.2240  -30.6070 C   0  0  0  0  0  0  0  0  0  0  0  0
   -5.7130   26.2820  -30.4840 O   0  0  0  0  0  0  0  0  0  0  0  0
   -5.7320   23.9610  -30.9570 C   0  0  0  0  0  0  0  0  0  0  0  0
   -6.9020   23.5700  -30.2820 C   0  0  0  0  0  0  0  0  0  0  0  0
   -7.5490   22.3780  -30.6190 C   0  0  0  0  0  0  0  0  0  0  0  0
   -7.0490   21.5680  -31.6480 C   0  0  0  0  0  0  0  0  0  0  0  0
   -7.8620   20.0560  -32.0670 S   0  0  0  0  0  0  0  0  0  0  0  0
   -8.6350   19.5700  -30.8720 O   0  0  0  0  0  0  0  0  0  0  0  0
   -8.8420   20.3200  -33.1770 O   0  0  0  0  0  0  0  0  0  0  0  0
   -6.7540   18.8050  -32.5740 N   0  0  0  0  0  0  0  0  0  0  0  0
   -7.4110   17.5050  -32.6990 C   0  0  0  0  0  0  0  0  0  0  0  0
   -6.5870   16.7030  -33.6950 C   0  0  0  0  0  0  0  0  0  0  0  0
   -5.7820   17.7330  -34.4740 C   0  0  0  0  0  0  0  0  0  0  0  0
   -6.1790   19.0800  -33.8890 C   0  0  0  0  0  0  0  0  0  0  0  0
   -5.8880   21.9580  -32.3290 C   0  0  0  0  0  0  0  0  0  0  0  0
   -5.2390   23.1500  -31.9920 C   0  0  0  0  0  0  0  0  0  0  0  0
   -1.6450   24.9620  -28.9650 C   0  0  0  0  0  0  0  0  0  0  0  0
   -0.9260   24.2630  -27.9900 C   0  0  0  0  0  0  0  0  0  0  0  0
   -1.0702   22.7261  -25.3356 H   0  0  0  0  0  0  0  0  0  0  0  0
   -0.8926   21.3062  -26.4213 H   0  0  0  0  0  0  0  0  0  0  0  0
    0.3551   22.5985  -26.4213 H   0  0  0  0  0  0  0  0  0  0  0  0
   -3.1976   21.7977  -27.3025 H   0  0  0  0  0  0  0  0  0  0  0  0
   -4.4655   23.0314  -29.0584 H   0  0  0  0  0  0  0  0  0  0  0  0
   -7.3107   24.2066  -29.4834 H   0  0  0  0  0  0  0  0  0  0  0  0
   -8.4549   22.0739  -30.0742 H   0  0  0  0  0  0  0  0  0  0  0  0
   -7.4333   16.9945  -31.7249 H   0  0  0  0  0  0  0  0  0  0  0  0
   -8.4517   17.6144  -33.0381 H   0  0  0  0  0  0  0  0  0  0  0  0
   -5.9162   16.0080  -33.1686 H   0  0  0  0  0  0  0  0  0  0  0  0
   -7.2219   16.0945  -34.3557 H   0  0  0  0  0  0  0  0  0  0  0  0
   -4.7039   17.5587  -34.3427 H   0  0  0  0  0  0  0  0  0  0  0  0
   -5.9842   17.6796  -35.5539 H   0  0  0  0  0  0  0  0  0  0  0  0
   -5.2951   19.7272  -33.7900 H   0  0  0  0  0  0  0  0  0  0  0  0
   -6.8986   19.6004  -34.5381 H   0  0  0  0  0  0  0  0  0  0  0  0
   -5.4853   21.3236  -33.1323 H   0  0  0  0  0  0  0  0  0  0  0  0
   -4.3360   23.4545  -32.5415 H   0  0  0  0  0  0  0  0  0  0  0  0
   -1.2006   25.8485  -29.4410 H   0  0  0  0  0  0  0  0  0  0  0  0
    0.0716   24.6142  -27.6877 H   0  0  0  0  0  0  0  0  0  0  0  0
  1  2  1  0
  2  3  2  0
  3  4  1  0
  4  5  2  0
  5  6  1  0
  6  7  1  0
  7  8  2  0
  7  9  1  0
  9 10  2  0
 10 11  1  0
 11 12  2  0
 12 13  1  0
 13 14  2  0
 13 15  2  0
 13 16  1  0
 16 17  1  0
 17 18  1  0
 18 19  1  0
 19 20  1  0
 12 21  1  0
 21 22  2  0
  5 23  1  0
 23 24  2  0
 24  2  1  0
 22  9  1  0
 20 16  1  0
  1 25  1  0
  1 26  1  0
  1 27  1  0
  3 28  1  0
  4 29  1  0
 10 30  1  0
 11 31  1  0
 17 32  1  0
 17 33  1  0
 18 34  1  0
 18 35  1  0
 19 36  1  0
 19 37  1  0
 20 38  1  0
 20 39  1  0
 21 40  1  0
 22 41  1  0
 23 42  1  0
 24 43  1  0
M  CHG  1   6  -1
M  END
>  <UniqueID>  (29) 
28

>  <SMILES>  (29) 
Cc1ccc([N-]C(=O)c2ccc(S(=O)(=O)N3CCCC3)cc2)cc1

>  <Energy>  (29) 
51.28605358052443

>  <Genealogy>  (29) 
Cc1ccc([N-]C(=O)c2ccc(S(=O)(=O)N3CCCC3)cc2)cc1 (protonated)
Cc1ccc([N-]C(=O)c2ccc(S(=O)(=O)N3CCCC3)cc2)cc1 (3D coordinates assigned)
Cc1ccc([N-]C(=O)c2ccc(S(=O)(=O)N3CCCC3)cc2)cc1 (nonaromatic ring conformer: 51.28605358052443 kcal/mol)

>  <smiles>  (29) 
Cc1ccc(NC(=O)c2ccc(S(=O)(=O)N3CCCC3)cc2)cc1

>  <score_type>  (29) 
oracle

>  <origin>  (29) 
adgpu

>  <m_score__min__energy>  (29) 
-11.220000000000001

>  <m_primary>  (29) 
energy

$$$$
29:0
     RDKit          3D

 53 56  0  0  0  0  0  0  0  0999 V2000
   -1.4420   21.6450  -26.5590 C   0  0  0  0  0  0  0  0  0  0  0  0
   -2.0220   22.6000  -27.5680 C   0  0  0  0  0  0  0  0  0  0  0  0
   -3.1120   22.1650  -28.3380 C   0  0  0  0  0  0  0  0  0  0  0  0
   -3.7130   23.0090  -29.2680 C   0  0  0  0  0  0  0  0  0  0  0  0
   -3.2510   24.3120  -29.4410 C   0  0  0  0  0  0  0  0  0  0  0  0
   -3.9130   25.1510  -30.3970 N   0  0  0  0  0  0  0  0  0  0  0  0
   -5.1080   24.8110  -31.1070 C   0  0  0  0  0  0  0  0  0  0  0  0
   -6.2020   25.3630  -30.8130 O   0  0  0  0  0  0  0  0  0  0  0  0
   -5.0380   23.8420  -32.1590 N   0  0  0  0  0  0  0  0  0  0  0  0
   -5.4640   22.4710  -32.0890 C   0  0  0  0  0  0  0  0  0  0  0  0
   -4.5300   21.4240  -32.1400 C   0  0  0  0  0  0  0  0  0  0  0  0
   -4.9460   20.0950  -32.0940 C   0  0  0  0  0  0  0  0  0  0  0  0
   -6.3030   19.7750  -32.0120 C   0  0  0  0  0  0  0  0  0  0  0  0
   -6.7410   18.0690  -31.9580 Cl  0  0  0  0  0  0  0  0  0  0  0  0
   -7.2680   20.8060  -31.9870 C   0  0  0  0  0  0  0  0  0  0  0  0
   -8.6460   20.5180  -31.9190 C   0  0  0  0  0  0  0  0  0  0  0  0
   -9.5850   21.5500  -31.8990 C   0  0  0  0  0  0  0  0  0  0  0  0
   -9.1710   22.8790  -31.9440 C   0  0  0  0  0  0  0  0  0  0  0  0
   -7.8120   23.1890  -32.0100 C   0  0  0  0  0  0  0  0  0  0  0  0
   -6.8440   22.1650  -32.0330 C   0  0  0  0  0  0  0  0  0  0  0  0
   -2.1210   24.7490  -28.7250 C   0  0  0  0  0  0  0  0  0  0  0  0
   -1.6040   26.0190  -28.9670 O   0  0  0  0  0  0  0  0  0  0  0  0
   -1.4930   23.9020  -27.7850 C   0  0  0  0  0  0  0  0  0  0  0  0
   -0.0850   24.5370  -26.8940 S   0  0  0  0  0  0  0  0  0  0  0  0
    0.8950   25.1110  -27.8780 O   0  0  0  0  0  0  0  0  0  0  0  0
    0.6260   23.4670  -26.1150 O   0  0  0  0  0  0  0  0  0  0  0  0
   -0.6270   25.8350  -25.7800 C   0  0  0  0  0  0  0  0  0  0  0  0
   -0.3240   27.2290  -26.3690 C   0  0  0  0  0  0  0  0  0  0  0  0
   -0.1980   28.3130  -25.2800 C   0  0  0  0  0  0  0  0  0  0  0  0
   -0.9870   27.9810  -24.0870 N   0  0  0  0  0  0  0  0  0  0  0  0
   -0.4880   26.7640  -23.4180 C   0  0  0  0  0  0  0  0  0  0  0  0
    0.0180   25.6800  -24.3970 C   0  0  0  0  0  0  0  0  0  0  0  0
   -1.6615   22.0065  -25.5436 H   0  0  0  0  0  0  0  0  0  0  0  0
   -1.8880   20.6491  -26.6981 H   0  0  0  0  0  0  0  0  0  0  0  0
   -0.3527   21.5816  -26.6981 H   0  0  0  0  0  0  0  0  0  0  0  0
   -3.4967   21.1431  -28.2048 H   0  0  0  0  0  0  0  0  0  0  0  0
   -4.5583   22.6446  -29.8702 H   0  0  0  0  0  0  0  0  0  0  0  0
   -3.4574   21.6556  -32.2172 H   0  0  0  0  0  0  0  0  0  0  0  0
   -4.1977   19.2893  -32.1226 H   0  0  0  0  0  0  0  0  0  0  0  0
   -8.9838   19.4718  -31.8814 H   0  0  0  0  0  0  0  0  0  0  0  0
  -10.6578   21.3126  -31.8474 H   0  0  0  0  0  0  0  0  0  0  0  0
   -9.9175   23.6867  -31.9275 H   0  0  0  0  0  0  0  0  0  0  0  0
   -7.4937   24.2414  -32.0444 H   0  0  0  0  0  0  0  0  0  0  0  0
   -1.7165   25.7416  -25.6604 H   0  0  0  0  0  0  0  0  0  0  0  0
    0.6221   27.1782  -26.9279 H   0  0  0  0  0  0  0  0  0  0  0  0
   -1.1641   27.5065  -27.0226 H   0  0  0  0  0  0  0  0  0  0  0  0
    0.8595   28.4078  -24.9926 H   0  0  0  0  0  0  0  0  0  0  0  0
   -0.5817   29.2580  -25.6919 H   0  0  0  0  0  0  0  0  0  0  0  0
   -1.9840   27.8340  -24.3710 H   0  0  0  0  0  0  0  0  0  0  0  0
    0.3424   27.0479  -22.7548 H   0  0  0  0  0  0  0  0  0  0  0  0
   -1.3352   26.3295  -22.8672 H   0  0  0  0  0  0  0  0  0  0  0  0
    1.1096   25.7698  -24.4984 H   0  0  0  0  0  0  0  0  0  0  0  0
   -0.2550   24.6933  -23.9946 H   0  0  0  0  0  0  0  0  0  0  0  0
  1  2  1  0
  2  3  2  0
  3  4  1  0
  4  5  2  0
  5  6  1  0
  6  7  1  0
  7  8  2  0
  7  9  1  0
  9 10  1  0
 10 11  2  0
 11 12  1  0
 12 13  2  0
 13 14  1  0
 13 15  1  0
 15 16  2  0
 16 17  1  0
 17 18  2  0
 18 19  1  0
 19 20  2  0
  5 21  1  0
 21 22  1  0
 21 23  2  0
 23 24  1  0
 24 25  2  0
 24 26  2  0
 24 27  1  0
 27 28  1  0
 28 29  1  0
 29 30  1  0
 30 31  1  0
 31 32  1  0
 23  2  1  0
 32 27  1  0
 20 10  1  0
 20 15  1  0
  1 33  1  0
  1 34  1  0
  1 35  1  0
  3 36  1  0
  4 37  1  0
 11 38  1  0
 12 39  1  0
 16 40  1  0
 17 41  1  0
 18 42  1  0
 19 43  1  0
 27 44  1  0
 28 45  1  0
 28 46  1  0
 29 47  1  0
 29 48  1  0
 30 49  1  0
 31 50  1  0
 31 51  1  0
 32 52  1  0
 32 53  1  0
M  CHG  3   6  -1   9  -1  22  -1
M  END
>  <UniqueID>  (30) 
29

>  <SMILES>  (30) 
Cc1ccc([N-]C(=O)[N-]c2ccc(Cl)c3ccccc23)c([O-])c1S(=O)(=O)C1CCNCC1

>  <Energy>  (30) 
77.30702836049889

>  <Genealogy>  (30) 
Cc1ccc([N-]C(=O)[N-]c2ccc(Cl)c3ccccc23)c([O-])c1S(=O)(=O)C1CCNCC1 (protonated)
Cc1ccc([N-]C(=O)[N-]c2ccc(Cl)c3ccccc23)c([O-])c1S(=O)(=O)C1CCNCC1 (3D coordinates assigned)
Cc1ccc([N-]C(=O)[N-]c2ccc(Cl)c3ccccc23)c([O-])c1S(=O)(=O)C1CCNCC1 (nonaromatic ring conformer: 77.30702836049889 kcal/mol)

>  <smiles>  (30) 
Cc1ccc(NC(=O)Nc2ccc(Cl)c3ccccc23)c(O)c1S(=O)(=O)C1CCNCC1

>  <score_type>  (30) 
oracle

>  <origin>  (30) 
adgpu

>  <m_score__min__energy>  (30) 
-17.710000000000001

>  <m_primary>  (30) 
energy

$$$$
30:0
     RDKit          3D

 34 35  0  0  0  0  0  0  0  0999 V2000
   -8.7710   18.5650  -31.4140 C   0  0  0  0  0  0  0  0  0  0  0  0
   -8.9170   19.3390  -32.6890 C   0  0  0  0  0  0  0  0  0  0  0  0
  -10.0710   19.6340  -33.0950 O   0  0  0  0  0  0  0  0  0  0  0  0
   -7.7850   19.7180  -33.4830 N   0  0  0  0  0  0  0  0  0  0  0  0
   -6.4180   19.7930  -33.0460 C   0  0  0  0  0  0  0  0  0  0  0  0
   -5.9180   20.9910  -32.5060 C   0  0  0  0  0  0  0  0  0  0  0  0
   -4.5840   21.0940  -32.1160 C   0  0  0  0  0  0  0  0  0  0  0  0
   -3.7180   20.0090  -32.2770 C   0  0  0  0  0  0  0  0  0  0  0  0
   -2.0270   20.1440  -31.8060 S   0  0  0  0  0  0  0  0  0  0  0  0
   -1.3240   21.0530  -32.7730 O   0  0  0  0  0  0  0  0  0  0  0  0
   -1.3620   18.7950  -31.8270 O   0  0  0  0  0  0  0  0  0  0  0  0
   -1.9040   20.8100  -30.2090 N   0  0  0  0  0  0  0  0  0  0  0  0
   -1.8590   22.2110  -29.8970 C   0  0  0  0  0  0  0  0  0  0  0  0
   -2.8540   23.1050  -30.3390 C   0  0  0  0  0  0  0  0  0  0  0  0
   -2.7690   24.4660  -30.0270 C   0  0  0  0  0  0  0  0  0  0  0  0
   -3.7500   25.3410  -30.4770 O   0  0  0  0  0  0  0  0  0  0  0  0
   -1.6970   24.9430  -29.2650 C   0  0  0  0  0  0  0  0  0  0  0  0
   -1.6100   26.2950  -28.9510 O   0  0  0  0  0  0  0  0  0  0  0  0
   -0.7100   24.0610  -28.8190 C   0  0  0  0  0  0  0  0  0  0  0  0
   -0.7890   22.7000  -29.1330 C   0  0  0  0  0  0  0  0  0  0  0  0
    0.2050   21.8360  -28.6860 O   0  0  0  0  0  0  0  0  0  0  0  0
   -4.1990   18.8170  -32.8310 C   0  0  0  0  0  0  0  0  0  0  0  0
   -5.5420   18.6940  -33.2350 C   0  0  0  0  0  0  0  0  0  0  0  0
   -5.9930   17.4080  -33.8310 C   0  0  0  0  0  0  0  0  0  0  0  0
   -5.6550   17.0740  -34.9980 O   0  0  0  0  0  0  0  0  0  0  0  0
   -6.8090   16.5470  -33.1050 O   0  0  0  0  0  0  0  0  0  0  0  0
   -8.8988   19.2427  -30.5570 H   0  0  0  0  0  0  0  0  0  0  0  0
   -9.5361   17.7756  -31.3746 H   0  0  0  0  0  0  0  0  0  0  0  0
   -7.7709   18.1086  -31.3746 H   0  0  0  0  0  0  0  0  0  0  0  0
   -6.5870   21.8564  -32.3901 H   0  0  0  0  0  0  0  0  0  0  0  0
   -4.2114   22.0326  -31.6799 H   0  0  0  0  0  0  0  0  0  0  0  0
   -3.7016   22.7312  -30.9321 H   0  0  0  0  0  0  0  0  0  0  0  0
    0.1317   24.4376  -28.2192 H   0  0  0  0  0  0  0  0  0  0  0  0
   -3.5168   17.9627  -32.9527 H   0  0  0  0  0  0  0  0  0  0  0  0
  1  2  1  0
  2  3  2  0
  2  4  1  0
  4  5  1  0
  5  6  2  0
  6  7  1  0
  7  8  2  0
  8  9  1  0
  9 10  2  0
  9 11  2  0
  9 12  1  0
 12 13  1  0
 13 14  2  0
 14 15  1  0
 15 16  1  0
 15 17  2  0
 17 18  1  0
 17 19  1  0
 19 20  2  0
 20 21  1  0
  8 22  1  0
 22 23  2  0
 23 24  1  0
 24 25  2  0
 24 26  1  0
 23  5  1  0
 20 13  1  0
  1 27  1  0
  1 28  1  0
  1 29  1  0
  6 30  1  0
  7 31  1  0
 14 32  1  0
 19 33  1  0
 22 34  1  0
M  CHG  6   4  -1  12  -1  16  -1  18  -1  21  -1  26  -1
M  END
>  <UniqueID>  (31) 
30

>  <SMILES>  (31) 
CC(=O)[N-]c1ccc(S(=O)(=O)[N-]c2cc([O-])c([O-])cc2[O-])cc1C(=O)[O-]

>  <Energy>  (31) 
44.72839046759106

>  <Genealogy>  (31) 
CC(=O)[N-]c1ccc(S(=O)(=O)[N-]c2cc([O-])c([O-])cc2[O-])cc1C(=O)[O-] (protonated)
CC(=O)[N-]c1ccc(S(=O)(=O)[N-]c2cc([O-])c([O-])cc2[O-])cc1C(=O)[O-] (3D coordinates assigned)
CC(=O)[N-]c1ccc(S(=O)(=O)[N-]c2cc([O-])c([O-])cc2[O-])cc1C(=O)[O-] (optimized conformer: 44.72839046759106 kcal/mol)

>  <smiles>  (31) 
CC(=O)Nc1ccc(S(=O)(=O)Nc2cc(O)c(O)cc2O)cc1C(=O)O

>  <score_type>  (31) 
oracle

>  <origin>  (31) 
adgpu

>  <m_score__min__energy>  (31) 
-12.550000000000001

>  <m_primary>  (31) 
energy

$$$$
31:0
     RDKit          3D

 46 49  0  0  0  0  0  0  0  0999 V2000
   -8.8100   21.9860  -31.5220 C   0  0  0  0  0  0  0  0  0  0  0  0
   -7.5270   22.7680  -31.3970 C   0  0  0  0  0  0  0  0  0  0  0  0
   -7.5970   24.0470  -30.8290 C   0  0  0  0  0  0  0  0  0  0  0  0
   -6.4650   24.8450  -30.7290 C   0  0  0  0  0  0  0  0  0  0  0  0
   -5.2290   24.3920  -31.1830 C   0  0  0  0  0  0  0  0  0  0  0  0
   -4.1720   25.3030  -31.1530 O   0  0  0  0  0  0  0  0  0  0  0  0
   -5.1020   23.0670  -31.6780 C   0  0  0  0  0  0  0  0  0  0  0  0
   -6.2650   22.2590  -31.8260 C   0  0  0  0  0  0  0  0  0  0  0  0
   -6.1060   20.8990  -32.4350 C   0  0  0  0  0  0  0  0  0  0  0  0
   -7.0670   20.0870  -32.4820 O   0  0  0  0  0  0  0  0  0  0  0  0
   -4.7990   20.4670  -32.9770 C   0  0  0  0  0  0  0  0  0  0  0  0
   -4.6950   19.2260  -33.6960 N   0  0  0  0  0  0  0  0  0  0  0  0
   -5.8000   18.7810  -34.5560 C   0  0  0  0  0  0  0  0  0  0  0  0
   -6.1560   17.3220  -34.2420 C   0  0  0  0  0  0  0  0  0  0  0  0
   -4.9520   16.4980  -34.0520 N   0  0  0  0  0  0  0  0  0  0  0  0
   -5.0820   15.1570  -33.5420 C   0  0  0  0  0  0  0  0  0  0  0  0
   -4.4570   14.7890  -32.3370 C   0  0  0  0  0  0  0  0  0  0  0  0
   -4.5970   13.4910  -31.8360 C   0  0  0  0  0  0  0  0  0  0  0  0
   -5.3620   12.5500  -32.5300 C   0  0  0  0  0  0  0  0  0  0  0  0
   -5.9920   12.9080  -33.7240 C   0  0  0  0  0  0  0  0  0  0  0  0
   -5.8570   14.2050  -34.2280 C   0  0  0  0  0  0  0  0  0  0  0  0
   -3.6260   17.0750  -34.3110 C   0  0  0  0  0  0  0  0  0  0  0  0
   -3.4850   18.4000  -33.5550 C   0  0  0  0  0  0  0  0  0  0  0  0
   -3.7090   21.2090  -32.7650 C   0  0  0  0  0  0  0  0  0  0  0  0
   -3.7790   22.4680  -32.0150 C   0  0  0  0  0  0  0  0  0  0  0  0
   -2.7020   22.9830  -31.6130 O   0  0  0  0  0  0  0  0  0  0  0  0
   -9.1954   21.7511  -30.5189 H   0  0  0  0  0  0  0  0  0  0  0  0
   -9.5528   22.5851  -32.0692 H   0  0  0  0  0  0  0  0  0  0  0  0
   -8.6179   21.0513  -32.0692 H   0  0  0  0  0  0  0  0  0  0  0  0
   -8.5613   24.4239  -30.4574 H   0  0  0  0  0  0  0  0  0  0  0  0
   -6.5457   25.8483  -30.2853 H   0  0  0  0  0  0  0  0  0  0  0  0
   -3.2760   25.1420  -31.5920 H   0  0  0  0  0  0  0  0  0  0  0  0
   -6.6795   19.4170  -34.3770 H   0  0  0  0  0  0  0  0  0  0  0  0
   -5.4911   18.8583  -35.6089 H   0  0  0  0  0  0  0  0  0  0  0  0
   -6.7578   17.2918  -33.3217 H   0  0  0  0  0  0  0  0  0  0  0  0
   -6.7197   16.9150  -35.0944 H   0  0  0  0  0  0  0  0  0  0  0  0
   -3.8548   15.5262  -31.7857 H   0  0  0  0  0  0  0  0  0  0  0  0
   -4.1039   13.2102  -30.8937 H   0  0  0  0  0  0  0  0  0  0  0  0
   -5.4680   11.5283  -32.1364 H   0  0  0  0  0  0  0  0  0  0  0  0
   -6.5959   12.1676  -34.2691 H   0  0  0  0  0  0  0  0  0  0  0  0
   -6.3597   14.4823  -35.1663 H   0  0  0  0  0  0  0  0  0  0  0  0
   -2.8492   16.3747  -33.9702 H   0  0  0  0  0  0  0  0  0  0  0  0
   -3.5111   17.2562  -35.3899 H   0  0  0  0  0  0  0  0  0  0  0  0
   -3.3176   18.1883  -32.4886 H   0  0  0  0  0  0  0  0  0  0  0  0
   -2.6345   18.9537  -33.9793 H   0  0  0  0  0  0  0  0  0  0  0  0
   -2.7402   20.8697  -33.1603 H   0  0  0  0  0  0  0  0  0  0  0  0
  1  2  1  0
  2  3  2  0
  3  4  1  0
  4  5  2  0
  5  6  1  0
  5  7  1  0
  7  8  2  0
  8  9  1  0
  9 10  2  0
  9 11  1  0
 11 12  1  0
 12 13  1  0
 13 14  1  0
 14 15  1  0
 15 16  1  0
 16 17  2  0
 17 18  1  0
 18 19  2  0
 19 20  1  0
 20 21  2  0
 15 22  1  0
 22 23  1  0
 11 24  2  0
 24 25  1  0
 25 26  2  0
  8  2  1  0
 23 12  1  0
 25  7  1  0
 21 16  1  0
  1 27  1  0
  1 28  1  0
  1 29  1  0
  3 30  1  0
  4 31  1  0
  6 32  1  0
 13 33  1  0
 13 34  1  0
 14 35  1  0
 14 36  1  0
 17 37  1  0
 18 38  1  0
 19 39  1  0
 20 40  1  0
 21 41  1  0
 22 42  1  0
 22 43  1  0
 23 44  1  0
 23 45  1  0
 24 46  1  0
M  END
>  <UniqueID>  (32) 
31

>  <SMILES>  (32) 
Cc1ccc(O)c2c1C(=O)C(N1CCN(c3ccccc3)CC1)=CC2=O

>  <Energy>  (32) 
70.25241031783887

>  <Genealogy>  (32) 
Cc1ccc(O)c2c1C(=O)C(N1CCN(c3ccccc3)CC1)=CC2=O (3D coordinates assigned)
Cc1ccc(O)c2c1C(=O)C(N1CCN(c3ccccc3)CC1)=CC2=O (nonaromatic ring conformer: 70.25241031783887 kcal/mol)

>  <smiles>  (32) 
Cc1ccc(O)c2c1C(=O)C(N1CCN(c3ccccc3)CC1)=CC2=O

>  <score_type>  (32) 
oracle

>  <origin>  (32) 
adgpu

>  <m_score__min__energy>  (32) 
-9.9800000000000004

>  <m_primary>  (32) 
energy

$$$$
32:0
     RDKit          3D

 57 60  0  0  0  0  0  0  0  0999 V2000
   -5.7440   26.5340  -30.1340 O   0  0  0  0  0  0  0  0  0  0  0  0
   -5.2520   25.4210  -30.4610 C   0  0  0  0  0  0  0  0  0  0  0  0
   -3.8240   25.2780  -30.4690 N   0  0  0  0  0  0  0  0  0  0  0  0
   -3.0730   24.1720  -29.9440 C   0  0  0  0  0  0  0  0  0  0  0  0
   -2.9360   22.9650  -30.6560 C   0  0  0  0  0  0  0  0  0  0  0  0
   -2.2160   21.9020  -30.1040 C   0  0  0  0  0  0  0  0  0  0  0  0
   -1.6080   22.0410  -28.8530 C   0  0  0  0  0  0  0  0  0  0  0  0
   -1.6930   23.2560  -28.1580 C   0  0  0  0  0  0  0  0  0  0  0  0
   -0.8820   23.4370  -26.6020 S   0  0  0  0  0  0  0  0  0  0  0  0
   -1.1830   22.2310  -25.7560 O   0  0  0  0  0  0  0  0  0  0  0  0
    0.6080   23.5030  -26.7810 O   0  0  0  0  0  0  0  0  0  0  0  0
   -1.4740   24.8480  -25.7760 N   0  0  0  0  0  0  0  0  0  0  0  0
   -0.7490   25.6410  -25.0350 C   0  0  0  0  0  0  0  0  0  0  0  0
   -1.3090   26.8160  -24.3250 C   0  0  0  0  0  0  0  0  0  0  0  0
   -0.0780   27.4650  -23.6760 C   0  0  0  0  0  0  0  0  0  0  0  0
    1.0850   26.4690  -23.8270 C   0  0  0  0  0  0  0  0  0  0  0  0
    0.6310   25.4620  -24.7650 N   0  0  0  0  0  0  0  0  0  0  0  0
   -2.4230   24.3190  -28.7110 C   0  0  0  0  0  0  0  0  0  0  0  0
   -6.1600   24.2940  -30.7840 C   0  0  0  0  0  0  0  0  0  0  0  0
   -6.6360   23.4390  -29.7750 C   0  0  0  0  0  0  0  0  0  0  0  0
   -7.4610   22.3560  -30.0950 C   0  0  0  0  0  0  0  0  0  0  0  0
   -7.8340   22.1250  -31.4250 C   0  0  0  0  0  0  0  0  0  0  0  0
   -8.8310   20.7270  -31.8190 S   0  0  0  0  0  0  0  0  0  0  0  0
  -10.1700   21.1820  -32.3350 O   0  0  0  0  0  0  0  0  0  0  0  0
   -9.0480   19.9120  -30.5700 O   0  0  0  0  0  0  0  0  0  0  0  0
   -8.0180   19.7530  -33.0170 N   0  0  0  0  0  0  0  0  0  0  0  0
   -7.9970   18.3370  -32.6470 C   0  0  0  0  0  0  0  0  0  0  0  0
   -6.7640   17.7320  -33.3040 C   0  0  0  0  0  0  0  0  0  0  0  0
   -5.8690   18.9100  -33.6600 C   0  0  0  0  0  0  0  0  0  0  0  0
   -6.6160   20.1470  -33.1820 C   0  0  0  0  0  0  0  0  0  0  0  0
   -7.3830   22.9880  -32.4310 C   0  0  0  0  0  0  0  0  0  0  0  0
   -6.5590   24.0710  -32.1120 C   0  0  0  0  0  0  0  0  0  0  0  0
   -3.3968   22.8585  -31.6491 H   0  0  0  0  0  0  0  0  0  0  0  0
   -2.1276   20.9541  -30.6550 H   0  0  0  0  0  0  0  0  0  0  0  0
   -1.0610   21.1945  -28.4123 H   0  0  0  0  0  0  0  0  0  0  0  0
   -2.4890   25.0600  -25.8930 H   0  0  0  0  0  0  0  0  0  0  0  0
   -1.7919   27.5080  -25.0306 H   0  0  0  0  0  0  0  0  0  0  0  0
   -2.0848   26.5443  -23.5940 H   0  0  0  0  0  0  0  0  0  0  0  0
    0.1643   28.4094  -24.1853 H   0  0  0  0  0  0  0  0  0  0  0  0
   -0.2659   27.6928  -22.6164 H   0  0  0  0  0  0  0  0  0  0  0  0
    1.9773   26.9801  -24.2175 H   0  0  0  0  0  0  0  0  0  0  0  0
    1.3608   26.0230  -22.8601 H   0  0  0  0  0  0  0  0  0  0  0  0
    1.2300   24.6670  -25.0740 H   0  0  0  0  0  0  0  0  0  0  0  0
   -2.4857   25.2760  -28.1722 H   0  0  0  0  0  0  0  0  0  0  0  0
   -6.3578   23.6229  -28.7268 H   0  0  0  0  0  0  0  0  0  0  0  0
   -7.8177   21.6842  -29.3004 H   0  0  0  0  0  0  0  0  0  0  0  0
   -8.5160   19.8650  -33.9330 H   0  0  0  0  0  0  0  0  0  0  0  0
   -7.9345   18.2316  -31.5538 H   0  0  0  0  0  0  0  0  0  0  0  0
   -8.9132   17.8272  -32.9797 H   0  0  0  0  0  0  0  0  0  0  0  0
   -6.2492   17.0564  -32.6051 H   0  0  0  0  0  0  0  0  0  0  0  0
   -7.0265   17.1380  -34.1918 H   0  0  0  0  0  0  0  0  0  0  0  0
   -4.8993   18.8246  -33.1478 H   0  0  0  0  0  0  0  0  0  0  0  0
   -5.6589   18.9516  -34.7389 H   0  0  0  0  0  0  0  0  0  0  0  0
   -6.2035   20.4921  -32.2225 H   0  0  0  0  0  0  0  0  0  0  0  0
   -6.5184   20.9721  -33.9029 H   0  0  0  0  0  0  0  0  0  0  0  0
   -7.6782   22.8131  -33.4761 H   0  0  0  0  0  0  0  0  0  0  0  0
   -6.2209   24.7530  -32.9061 H   0  0  0  0  0  0  0  0  0  0  0  0
  1  2  2  0
  2  3  1  0
  3  4  1  0
  4  5  2  0
  5  6  1  0
  6  7  2  0
  7  8  1  0
  8  9  1  0
  9 10  2  0
  9 11  2  0
  9 12  1  0
 12 13  2  3
 13 14  1  0
 14 15  1  0
 15 16  1  0
 16 17  1  0
  8 18  2  0
  2 19  1  0
 19 20  2  0
 20 21  1  0
 21 22  2  0
 22 23  1  0
 23 24  2  0
 23 25  2  0
 23 26  1  0
 26 27  1  0
 27 28  1  0
 28 29  1  0
 29 30  1  0
 22 31  1  0
 31 32  2  0
 18  4  1  0
 32 19  1  0
 17 13  1  0
 30 26  1  0
  5 33  1  0
  6 34  1  0
  7 35  1  0
 12 36  1  0
 14 37  1  0
 14 38  1  0
 15 39  1  0
 15 40  1  0
 16 41  1  0
 16 42  1  0
 17 43  1  0
 18 44  1  0
 20 45  1  0
 21 46  1  0
 26 47  1  0
 27 48  1  0
 27 49  1  0
 28 50  1  0
 28 51  1  0
 29 52  1  0
 29 53  1  0
 30 54  1  0
 30 55  1  0
 31 56  1  0
 32 57  1  0
M  CHG  3   3  -1  12   1  26   1
M  END
>  <UniqueID>  (33) 
32

>  <SMILES>  (33) 
O=C([N-]c1cccc(S(=O)(=O)[NH+]=C2CCCN2)c1)c1ccc(S(=O)(=O)[NH+]2CCCC2)cc1

>  <Energy>  (33) 
75.75966852937253

>  <Genealogy>  (33) 
O=C([N-]c1cccc(S(=O)(=O)[NH+]=C2CCCN2)c1)c1ccc(S(=O)(=O)[NH+]2CCCC2)cc1 (protonated)
O=C([N-]c1cccc(S(=O)(=O)[NH+]=C2CCCN2)c1)c1ccc(S(=O)(=O)[NH+]2CCCC2)cc1 (3D coordinates assigned)
O=C([N-]c1cccc(S(=O)(=O)[NH+]=C2CCCN2)c1)c1ccc(S(=O)(=O)[NH+]2CCCC2)cc1 (nonaromatic ring conformer: 75.75966852937253 kcal/mol)

>  <smiles>  (33) 
O=C(Nc1cccc(S(=O)(=O)N=C2CCCN2)c1)c1ccc(S(=O)(=O)N2CCCC2)cc1

>  <score_type>  (33) 
oracle

>  <origin>  (33) 
adgpu

>  <m_score__min__energy>  (33) 
-12.470000000000001

>  <m_primary>  (33) 
energy

$$$$
33:0
     RDKit          3D

 52 55  0  0  0  0  0  0  0  0999 V2000
   -1.5830   26.0320  -26.3080 C   0  0  0  0  0  0  0  0  0  0  0  0
   -1.4820   24.7810  -27.0610 N   0  0  0  0  0  0  0  0  0  0  0  0
   -1.1480   23.5440  -26.3520 C   0  0  0  0  0  0  0  0  0  0  0  0
   -1.6500   24.8060  -28.4920 C   0  0  0  0  0  0  0  0  0  0  0  0
   -1.2400   25.8060  -29.1430 O   0  0  0  0  0  0  0  0  0  0  0  0
   -2.3080   23.6940  -29.2190 C   0  0  0  0  0  0  0  0  0  0  0  0
   -3.6880   23.4790  -29.0770 C   0  0  0  0  0  0  0  0  0  0  0  0
   -4.3150   22.4260  -29.7500 C   0  0  0  0  0  0  0  0  0  0  0  0
   -3.5660   21.5550  -30.5610 C   0  0  0  0  0  0  0  0  0  0  0  0
   -4.1910   20.4820  -31.2870 N   0  0  0  0  0  0  0  0  0  0  0  0
   -3.9820   20.2300  -32.6830 C   0  0  0  0  0  0  0  0  0  0  0  0
   -3.6390   21.1650  -33.4560 O   0  0  0  0  0  0  0  0  0  0  0  0
   -4.2660   18.8960  -33.2420 C   0  0  0  0  0  0  0  0  0  0  0  0
   -3.3650   17.8570  -32.9580 C   0  0  0  0  0  0  0  0  0  0  0  0
   -3.5700   16.5770  -33.4770 C   0  0  0  0  0  0  0  0  0  0  0  0
   -4.6810   16.3180  -34.2750 C   0  0  0  0  0  0  0  0  0  0  0  0
   -5.5980   17.3340  -34.5510 C   0  0  0  0  0  0  0  0  0  0  0  0
   -5.4070   18.6350  -34.0480 C   0  0  0  0  0  0  0  0  0  0  0  0
   -6.4880   19.6680  -34.2960 C   0  0  0  0  0  0  0  0  0  0  0  0
   -7.2440   19.9410  -33.0700 N   0  0  0  0  0  0  0  0  0  0  0  0
   -8.0690   19.0710  -32.4370 C   0  0  0  0  0  0  0  0  0  0  0  0
   -8.6060   19.6470  -31.2920 C   0  0  0  0  0  0  0  0  0  0  0  0
   -8.0730   20.9170  -31.2400 C   0  0  0  0  0  0  0  0  0  0  0  0
   -8.2570   21.9370  -30.3130 C   0  0  0  0  0  0  0  0  0  0  0  0
   -7.5640   23.1390  -30.5370 C   0  0  0  0  0  0  0  0  0  0  0  0
   -6.7480   23.2760  -31.6300 N   0  0  0  0  0  0  0  0  0  0  0  0
   -6.5740   22.2690  -32.5360 C   0  0  0  0  0  0  0  0  0  0  0  0
   -7.2550   21.0670  -32.3260 C   0  0  0  0  0  0  0  0  0  0  0  0
   -2.1890   21.7730  -30.7050 C   0  0  0  0  0  0  0  0  0  0  0  0
   -1.5620   22.8250  -30.0320 C   0  0  0  0  0  0  0  0  0  0  0  0
   -1.5654   25.8136  -25.2301 H   0  0  0  0  0  0  0  0  0  0  0  0
   -0.7345   26.6836  -26.5640 H   0  0  0  0  0  0  0  0  0  0  0  0
   -2.5250   26.5390  -26.5640 H   0  0  0  0  0  0  0  0  0  0  0  0
   -1.1953   23.7190  -25.2670 H   0  0  0  0  0  0  0  0  0  0  0  0
   -1.8660   22.7578  -26.6282 H   0  0  0  0  0  0  0  0  0  0  0  0
   -0.1318   23.2260  -26.6282 H   0  0  0  0  0  0  0  0  0  0  0  0
   -4.2805   24.1440  -28.4314 H   0  0  0  0  0  0  0  0  0  0  0  0
   -5.3999   22.2781  -29.6445 H   0  0  0  0  0  0  0  0  0  0  0  0
   -4.8900   19.8870  -30.7910 H   0  0  0  0  0  0  0  0  0  0  0  0
   -2.4899   18.0532  -32.3210 H   0  0  0  0  0  0  0  0  0  0  0  0
   -2.8531   15.7727  -33.2552 H   0  0  0  0  0  0  0  0  0  0  0  0
   -4.8367   15.3108  -34.6889 H   0  0  0  0  0  0  0  0  0  0  0  0
   -6.4810   17.1152  -35.1694 H   0  0  0  0  0  0  0  0  0  0  0  0
   -6.0212   20.6005  -34.6461 H   0  0  0  0  0  0  0  0  0  0  0  0
   -7.1806   19.2756  -35.0551 H   0  0  0  0  0  0  0  0  0  0  0  0
   -8.2839   18.0490  -32.7825 H   0  0  0  0  0  0  0  0  0  0  0  0
   -9.3068   19.1875  -30.5794 H   0  0  0  0  0  0  0  0  0  0  0  0
   -8.9165   21.8086  -29.4420 H   0  0  0  0  0  0  0  0  0  0  0  0
   -7.6771   23.9749  -29.8310 H   0  0  0  0  0  0  0  0  0  0  0  0
   -5.9157   22.4005  -33.4074 H   0  0  0  0  0  0  0  0  0  0  0  0
   -1.5968   21.1104  -31.3533 H   0  0  0  0  0  0  0  0  0  0  0  0
   -0.4774   22.9734  -30.1396 H   0  0  0  0  0  0  0  0  0  0  0  0
  1  2  1  0
  2  3  1  0
  2  4  1  0
  4  5  2  0
  4  6  1  0
  6  7  2  0
  7  8  1  0
  8  9  2  0
  9 10  1  0
 10 11  1  0
 11 12  2  0
 11 13  1  0
 13 14  2  0
 14 15  1  0
 15 16  2  0
 16 17  1  0
 17 18  2  0
 18 19  1  0
 19 20  1  0
 20 21  1  0
 21 22  2  0
 22 23  1  0
 23 24  2  0
 24 25  1  0
 25 26  2  0
 26 27  1  0
 27 28  2  0
  9 29  1  0
 29 30  2  0
 30  6  1  0
 18 13  1  0
 28 20  1  0
 28 23  1  0
  1 31  1  0
  1 32  1  0
  1 33  1  0
  3 34  1  0
  3 35  1  0
  3 36  1  0
  7 37  1  0
  8 38  1  0
 10 39  1  0
 14 40  1  0
 15 41  1  0
 16 42  1  0
 17 43  1  0
 19 44  1  0
 19 45  1  0
 21 46  1  0
 22 47  1  0
 24 48  1  0
 25 49  1  0
 27 50  1  0
 29 51  1  0
 30 52  1  0
M  END
>  <UniqueID>  (34) 
33

>  <SMILES>  (34) 
CN(C)C(=O)c1ccc(NC(=O)c2ccccc2Cn2ccc3ccncc32)cc1

>  <Energy>  (34) 
104.46095369318937

>  <Genealogy>  (34) 
CN(C)C(=O)c1ccc(NC(=O)c2ccccc2Cn2ccc3ccncc32)cc1 (3D coordinates assigned)
CN(C)C(=O)c1ccc(NC(=O)c2ccccc2Cn2ccc3ccncc32)cc1 (optimized conformer: 104.46095369318937 kcal/mol)

>  <smiles>  (34) 
CN(C)C(=O)c1ccc(NC(=O)c2ccccc2Cn2ccc3ccncc32)cc1

>  <score_type>  (34) 
oracle

>  <origin>  (34) 
adgpu

>  <m_score__min__energy>  (34) 
-9.7599999999999998

>  <m_primary>  (34) 
energy

$$$$
34:0
     RDKit          3D

 46 49  0  0  0  0  0  0  0  0999 V2000
  -10.0905   21.8727  -30.9086 H   0  0  0  0  0  0  0  0  0  0  0  0
   -9.1400   21.6920  -31.4320 C   0  0  0  0  0  0  0  0  0  0  0  0
   -8.8440   20.4470  -31.8910 N   0  0  0  0  0  0  0  0  0  0  0  0
   -7.6780   20.1860  -32.5400 C   0  0  0  0  0  0  0  0  0  0  0  0
   -7.4653   19.1677  -32.8974 H   0  0  0  0  0  0  0  0  0  0  0  0
   -6.7500   21.2070  -32.7540 C   0  0  0  0  0  0  0  0  0  0  0  0
   -5.8037   20.9961  -33.2737 H   0  0  0  0  0  0  0  0  0  0  0  0
   -7.0340   22.5040  -32.3010 C   0  0  0  0  0  0  0  0  0  0  0  0
   -6.0340   23.6110  -32.4860 C   0  0  0  0  0  0  0  0  0  0  0  0
   -5.4958   23.4598  -33.4333 H   0  0  0  0  0  0  0  0  0  0  0  0
   -6.5646   24.5744  -32.5050 H   0  0  0  0  0  0  0  0  0  0  0  0
   -5.0510   23.6160  -31.3530 C   0  0  0  0  0  0  0  0  0  0  0  0
   -4.6260   24.7970  -30.8310 N   0  0  0  0  0  0  0  0  0  0  0  0
   -3.7800   24.8410  -29.8000 N   0  0  0  0  0  0  0  0  0  0  0  0
   -3.3000   23.7050  -29.2190 C   0  0  0  0  0  0  0  0  0  0  0  0
   -2.4930   23.7530  -28.1990 N   0  0  0  0  0  0  0  0  0  0  0  0
   -1.9220   24.9300  -27.6030 C   0  0  0  0  0  0  0  0  0  0  0  0
   -0.9100   25.6690  -28.2330 C   0  0  0  0  0  0  0  0  0  0  0  0
   -0.5511   25.3650  -29.2274 H   0  0  0  0  0  0  0  0  0  0  0  0
   -0.3540   26.7880  -27.6080 C   0  0  0  0  0  0  0  0  0  0  0  0
    0.4256   27.3654  -28.1265 H   0  0  0  0  0  0  0  0  0  0  0  0
   -0.7770   27.1910  -26.3190 C   0  0  0  0  0  0  0  0  0  0  0  0
   -0.2000   28.3640  -25.6630 N   0  0  0  0  0  0  0  0  0  0  0  0
   -0.4640   29.7080  -26.2200 C   0  0  0  0  0  0  0  0  0  0  0  0
   -0.1374   29.7193  -27.2703 H   0  0  0  0  0  0  0  0  0  0  0  0
   -1.5430   29.8941  -26.1149 H   0  0  0  0  0  0  0  0  0  0  0  0
    0.2600   30.8340  -25.4760 C   0  0  0  0  0  0  0  0  0  0  0  0
    1.2953   30.8994  -25.8418 H   0  0  0  0  0  0  0  0  0  0  0  0
   -0.2744   31.7773  -25.6618 H   0  0  0  0  0  0  0  0  0  0  0  0
    0.2760   30.5930  -24.0890 O   0  0  0  0  0  0  0  0  0  0  0  0
    1.1210   29.4960  -23.8420 C   0  0  0  0  0  0  0  0  0  0  0  0
    2.0874   29.6675  -24.3386 H   0  0  0  0  0  0  0  0  0  0  0  0
    1.2580   29.3973  -22.7550 H   0  0  0  0  0  0  0  0  0  0  0  0
    0.5070   28.1980  -24.3760 C   0  0  0  0  0  0  0  0  0  0  0  0
    1.3135   27.4630  -24.5145 H   0  0  0  0  0  0  0  0  0  0  0  0
   -0.2388   27.8665  -23.6385 H   0  0  0  0  0  0  0  0  0  0  0  0
   -1.7790   26.4170  -25.6890 C   0  0  0  0  0  0  0  0  0  0  0  0
   -2.1311   26.7004  -24.6861 H   0  0  0  0  0  0  0  0  0  0  0  0
   -2.3290   25.2980  -26.3200 C   0  0  0  0  0  0  0  0  0  0  0  0
   -3.0916   24.7003  -25.7993 H   0  0  0  0  0  0  0  0  0  0  0  0
   -3.7250   22.4670  -29.7020 C   0  0  0  0  0  0  0  0  0  0  0  0
   -3.3658   21.5370  -29.2372 H   0  0  0  0  0  0  0  0  0  0  0  0
   -4.6090   22.4190  -30.7790 C   0  0  0  0  0  0  0  0  0  0  0  0
   -4.9548   21.4518  -31.1727 H   0  0  0  0  0  0  0  0  0  0  0  0
   -8.2390   22.7420  -31.6240 C   0  0  0  0  0  0  0  0  0  0  0  0
   -8.4729   23.7485  -31.2469 H   0  0  0  0  0  0  0  0  0  0  0  0
  1  2  1  0
  2  3  2  0
  3  4  1  0
  4  5  1  0
  4  6  2  0
  6  7  1  0
  6  8  1  0
  8  9  1  0
  9 10  1  0
  9 11  1  0
  9 12  1  0
 12 13  2  0
 13 14  1  0
 14 15  1  0
 15 16  2  0
 16 17  1  0
 17 18  2  0
 18 19  1  0
 18 20  1  0
 20 21  1  0
 20 22  2  0
 22 23  1  0
 23 24  1  0
 24 25  1  0
 24 26  1  0
 24 27  1  0
 27 28  1  0
 27 29  1  0
 27 30  1  0
 30 31  1  0
 31 32  1  0
 31 33  1  0
 31 34  1  0
 34 35  1  0
 34 36  1  0
 22 37  1  0
 37 38  1  0
 37 39  2  0
 39 40  1  0
 15 41  1  0
 41 42  1  0
 41 43  2  0
 43 44  1  0
  8 45  2  0
 45 46  1  0
 45  2  1  0
 43 12  1  0
 39 17  1  0
 34 23  1  0
M  CHG  1  14  -1
M  END
>  <UniqueID>  (35) 
34

>  <SMILES>  (35) 
c1cc(Cc2cc/c(=N/c3ccc(N4CCOCC4)cc3)[n-]n2)ccn1

>  <Energy>  (35) 
64.45826222929583

>  <Genealogy>  (35) 
c1cc(Cc2ccc(=Nc3ccc(N4CCOCC4)cc3)[n-]n2)ccn1 (protonated)
c1cc(Cc2cc/c(=N/c3ccc(N4CCOCC4)cc3)[n-]n2)ccn1 (cis-trans isomerization)
c1cc(Cc2cc/c(=N/c3ccc(N4CCOCC4)cc3)[n-]n2)ccn1 (3D coordinates assigned)
c1cc(Cc2cc/c(=N/c3ccc(N4CCOCC4)cc3)[n-]n2)ccn1 (nonaromatic ring conformer: 64.45826222929583 kcal/mol)

>  <smiles>  (35) 
c1cc(Cc2ccc(=Nc3ccc(N4CCOCC4)cc3)[nH]n2)ccn1

>  <score_type>  (35) 
oracle

>  <origin>  (35) 
adgpu

>  <m_score__min__energy>  (35) 
-8.8800000000000008

>  <m_primary>  (35) 
energy

$$$$
35:0
     RDKit          3D

 36 38  0  0  0  0  0  0  0  0999 V2000
   -4.8470   26.0500  -29.6190 H   0  0  0  0  0  0  0  0  0  0  0  0
   -4.2320   25.6740  -30.3300 O   0  0  0  0  0  0  0  0  0  0  0  0
   -3.4950   24.5010  -30.1520 C   0  0  0  0  0  0  0  0  0  0  0  0
   -3.8680   23.2850  -30.7860 C   0  0  0  0  0  0  0  0  0  0  0  0
   -4.9130   23.1520  -31.5580 N   0  0  0  0  0  0  0  0  0  0  0  0
   -5.9400   24.1230  -31.9360 C   0  0  0  0  0  0  0  0  0  0  0  0
   -6.3975   23.8126  -32.8870 H   0  0  0  0  0  0  0  0  0  0  0  0
   -5.4692   25.1114  -32.0430 H   0  0  0  0  0  0  0  0  0  0  0  0
   -7.0300   24.2100  -30.8570 C   0  0  0  0  0  0  0  0  0  0  0  0
   -7.4930   23.2196  -30.7353 H   0  0  0  0  0  0  0  0  0  0  0  0
   -7.7755   24.9528  -31.1771 H   0  0  0  0  0  0  0  0  0  0  0  0
   -6.4770   24.6370  -29.5740 N   0  0  0  0  0  0  0  0  0  0  0  0
   -5.5560   24.1600  -29.4310 H   0  0  0  0  0  0  0  0  0  0  0  0
   -6.2980   25.6680  -29.6090 H   0  0  0  0  0  0  0  0  0  0  0  0
   -3.0970   22.1810  -30.5910 N   0  0  0  0  0  0  0  0  0  0  0  0
   -1.9880   22.1790  -29.8110 C   0  0  0  0  0  0  0  0  0  0  0  0
   -1.4025   21.2555  -29.6910 H   0  0  0  0  0  0  0  0  0  0  0  0
   -1.5870   23.3510  -29.1580 C   0  0  0  0  0  0  0  0  0  0  0  0
   -0.4490   23.4060  -28.3370 C   0  0  0  0  0  0  0  0  0  0  0  0
    0.2560   22.3700  -28.1700 O   0  0  0  0  0  0  0  0  0  0  0  0
   -0.0990   24.5830  -27.7240 N   0  0  0  0  0  0  0  0  0  0  0  0
    1.0760   24.6160  -26.8900 C   0  0  0  0  0  0  0  0  0  0  0  0
    0.9500   24.5890  -25.4930 C   0  0  0  0  0  0  0  0  0  0  0  0
   -0.0482   24.5457  -25.0329 H   0  0  0  0  0  0  0  0  0  0  0  0
    2.0900   24.6170  -24.6840 C   0  0  0  0  0  0  0  0  0  0  0  0
    1.9869   24.5973  -23.5890 H   0  0  0  0  0  0  0  0  0  0  0  0
    3.3620   24.6700  -25.2650 C   0  0  0  0  0  0  0  0  0  0  0  0
    4.4610   24.6970  -24.4710 F   0  0  0  0  0  0  0  0  0  0  0  0
    3.4940   24.6930  -26.6600 C   0  0  0  0  0  0  0  0  0  0  0  0
    5.0850   24.7560  -27.3990 Cl  0  0  0  0  0  0  0  0  0  0  0  0
    2.3530   24.6650  -27.4700 C   0  0  0  0  0  0  0  0  0  0  0  0
    2.4575   24.6815  -28.5649 H   0  0  0  0  0  0  0  0  0  0  0  0
   -0.8660   25.7080  -27.9130 C   0  0  0  0  0  0  0  0  0  0  0  0
   -0.5130   27.1370  -27.1800 S   0  0  0  0  0  0  0  0  0  0  0  0
   -1.9660   25.6560  -28.7060 N   0  0  0  0  0  0  0  0  0  0  0  0
   -2.3480   24.5160  -29.3340 C   0  0  0  0  0  0  0  0  0  0  0  0
  1  2  1  0
  2  3  1  0
  3  4  1  0
  4  5  2  0
  5  6  1  0
  6  7  1  0
  6  8  1  0
  6  9  1  0
  9 10  1  0
  9 11  1  0
  9 12  1  0
 12 13  1  0
 12 14  1  0
  4 15  1  0
 15 16  1  0
 16 17  1  0
 16 18  2  0
 18 19  1  0
 19 20  2  0
 19 21  1  0
 21 22  1  0
 22 23  2  0
 23 24  1  0
 23 25  1  0
 25 26  1  0
 25 27  2  0
 27 28  1  0
 27 29  1  0
 29 30  1  0
 29 31  2  0
 31 32  1  0
 21 33  1  0
 33 34  2  0
 33 35  1  0
 35 36  1  0
 36  3  2  0
 36 18  1  0
 31 22  1  0
M  CHG  2  15  -1  35  -1
M  END
>  <UniqueID>  (36) 
35

>  <SMILES>  (36) 
NCC/N=c1/[n-]cc2c(=O)n(-c3ccc(F)c(Cl)c3)c(=S)[n-]c2c1O

>  <Energy>  (36) 
59.833375526472835

>  <Genealogy>  (36) 
NCCN=c1[n-]cc2c(=O)n(-c3ccc(F)c(Cl)c3)c(=S)[n-]c2c1O (protonated)
NCC/N=c1/[n-]cc2c(=O)n(-c3ccc(F)c(Cl)c3)c(=S)[n-]c2c1O (cis-trans isomerization)
NCC/N=c1/[n-]cc2c(=O)n(-c3ccc(F)c(Cl)c3)c(=S)[n-]c2c1O (3D coordinates assigned)
NCC/N=c1/[n-]cc2c(=O)n(-c3ccc(F)c(Cl)c3)c(=S)[n-]c2c1O (optimized conformer: 59.833375526472835 kcal/mol)

>  <smiles>  (36) 
NCCN=c1[nH]cc2c(=O)n(-c3ccc(F)c(Cl)c3)c(=S)[nH]c2c1O

>  <score_type>  (36) 
oracle

>  <origin>  (36) 
adgpu

>  <m_score__min__energy>  (36) 
-9.3399999999999999

>  <m_primary>  (36) 
energy

$$$$
36:0
     RDKit          3D

 32 34  0  0  0  0  0  0  0  0999 V2000
   -6.5920   24.6360  -29.9160 O   0  0  0  0  0  0  0  0  0  0  0  0
   -5.4700   24.1360  -30.7830 S   0  0  0  0  0  0  0  0  0  0  0  0
   -4.6260   25.3020  -31.2130 O   0  0  0  0  0  0  0  0  0  0  0  0
   -6.1390   23.3640  -32.1880 N   0  0  0  0  0  0  0  0  0  0  0  0
   -7.1440   22.3320  -32.1270 C   0  0  0  0  0  0  0  0  0  0  0  0
   -8.4400   22.6070  -31.6500 C   0  0  0  0  0  0  0  0  0  0  0  0
   -9.4080   21.6010  -31.5910 C   0  0  0  0  0  0  0  0  0  0  0  0
   -9.1050   20.3060  -32.0090 C   0  0  0  0  0  0  0  0  0  0  0  0
   -7.8260   20.0090  -32.4950 C   0  0  0  0  0  0  0  0  0  0  0  0
   -7.4990   18.7150  -32.9210 C   0  0  0  0  0  0  0  0  0  0  0  0
   -6.2160   18.4420  -33.3970 C   0  0  0  0  0  0  0  0  0  0  0  0
   -5.2690   19.4670  -33.4410 C   0  0  0  0  0  0  0  0  0  0  0  0
   -5.5970   20.7190  -33.0250 N   0  0  0  0  0  0  0  0  0  0  0  0
   -6.8410   21.0230  -32.5570 C   0  0  0  0  0  0  0  0  0  0  0  0
   -4.4560   23.0010  -29.8990 C   0  0  0  0  0  0  0  0  0  0  0  0
   -3.8660   21.9210  -30.5730 C   0  0  0  0  0  0  0  0  0  0  0  0
   -3.0690   21.0080  -29.8750 C   0  0  0  0  0  0  0  0  0  0  0  0
   -2.8560   21.1710  -28.5040 C   0  0  0  0  0  0  0  0  0  0  0  0
   -3.4370   22.2480  -27.8290 C   0  0  0  0  0  0  0  0  0  0  0  0
   -4.2350   23.1630  -28.5240 C   0  0  0  0  0  0  0  0  0  0  0  0
   -5.7030   23.6090  -33.1030 H   0  0  0  0  0  0  0  0  0  0  0  0
   -8.6933   23.6253  -31.3201 H   0  0  0  0  0  0  0  0  0  0  0  0
  -10.4147   21.8321  -31.2126 H   0  0  0  0  0  0  0  0  0  0  0  0
   -9.8705   19.5178  -31.9570 H   0  0  0  0  0  0  0  0  0  0  0  0
   -8.2529   17.9150  -32.8803 H   0  0  0  0  0  0  0  0  0  0  0  0
   -5.9531   17.4286  -33.7345 H   0  0  0  0  0  0  0  0  0  0  0  0
   -4.2546   19.2609  -33.8133 H   0  0  0  0  0  0  0  0  0  0  0  0
   -4.0307   21.7921  -31.6529 H   0  0  0  0  0  0  0  0  0  0  0  0
   -2.6096   20.1611  -30.4058 H   0  0  0  0  0  0  0  0  0  0  0  0
   -2.2306   20.4513  -27.9555 H   0  0  0  0  0  0  0  0  0  0  0  0
   -3.2666   22.3764  -26.7499 H   0  0  0  0  0  0  0  0  0  0  0  0
   -4.6898   24.0109  -27.9909 H   0  0  0  0  0  0  0  0  0  0  0  0
  1  2  2  0
  2  3  2  0
  2  4  1  0
  4  5  1  0
  5  6  2  0
  6  7  1  0
  7  8  2  0
  8  9  1  0
  9 10  2  0
 10 11  1  0
 11 12  2  0
 12 13  1  0
 13 14  2  0
  2 15  1  0
 15 16  2  0
 16 17  1  0
 17 18  2  0
 18 19  1  0
 19 20  2  0
 14  5  1  0
 20 15  1  0
 14  9  1  0
  4 21  1  0
  6 22  1  0
  7 23  1  0
  8 24  1  0
 10 25  1  0
 11 26  1  0
 12 27  1  0
 16 28  1  0
 17 29  1  0
 18 30  1  0
 19 31  1  0
 20 32  1  0
M  END
>  <UniqueID>  (37) 
36

>  <SMILES>  (37) 
O=S(=O)(Nc1cccc2cccnc12)c1ccccc1

>  <Energy>  (37) 
41.761281885550666

>  <Genealogy>  (37) 
O=S(=O)(Nc1cccc2cccnc12)c1ccccc1 (3D coordinates assigned)
O=S(=O)(Nc1cccc2cccnc12)c1ccccc1 (optimized conformer: 41.761281885550666 kcal/mol)

>  <smiles>  (37) 
O=S(=O)(Nc1cccc2cccnc12)c1ccccc1

>  <score_type>  (37) 
oracle

>  <origin>  (37) 
adgpu

>  <m_score__min__energy>  (37) 
-8.5199999999999996

>  <m_primary>  (37) 
energy

$$$$
37:0
     RDKit          3D

 60 63  0  0  0  0  0  0  0  0999 V2000
   -0.4660   18.9150  -27.7230 C   0  0  0  0  0  0  0  0  0  0  0  0
   -1.3300   20.1180  -27.9740 C   0  0  0  0  0  0  0  0  0  0  0  0
   -2.6370   20.1670  -27.4680 C   0  0  0  0  0  0  0  0  0  0  0  0
   -3.4360   21.2960  -27.6760 C   0  0  0  0  0  0  0  0  0  0  0  0
   -2.9310   22.4040  -28.3780 C   0  0  0  0  0  0  0  0  0  0  0  0
   -3.7580   23.5610  -28.6110 N   0  0  0  0  0  0  0  0  0  0  0  0
   -4.2060   24.3870  -27.4900 C   0  0  0  0  0  0  0  0  0  0  0  0
   -4.2810   23.9690  -30.2210 S   0  0  0  0  0  0  0  0  0  0  0  0
   -4.7280   25.4040  -30.2540 O   0  0  0  0  0  0  0  0  0  0  0  0
   -3.1550   23.7920  -31.2010 O   0  0  0  0  0  0  0  0  0  0  0  0
   -5.5990   22.8960  -30.6890 C   0  0  0  0  0  0  0  0  0  0  0  0
   -6.9030   23.1620  -30.2520 C   0  0  0  0  0  0  0  0  0  0  0  0
   -7.9590   22.3430  -30.6530 C   0  0  0  0  0  0  0  0  0  0  0  0
   -7.7250   21.2440  -31.4870 C   0  0  0  0  0  0  0  0  0  0  0  0
   -9.1060   20.3040  -32.0390 Cl  0  0  0  0  0  0  0  0  0  0  0  0
   -6.4140   20.9580  -31.9200 C   0  0  0  0  0  0  0  0  0  0  0  0
   -6.1170   19.8070  -32.7910 C   0  0  0  0  0  0  0  0  0  0  0  0
   -6.6280   19.7640  -33.9440 O   0  0  0  0  0  0  0  0  0  0  0  0
   -5.2500   18.7540  -32.3350 N   0  0  0  0  0  0  0  0  0  0  0  0
   -4.6210   17.7960  -33.2090 C   0  0  0  0  0  0  0  0  0  0  0  0
   -5.3410   16.6890  -33.7020 C   0  0  0  0  0  0  0  0  0  0  0  0
   -4.7470   15.7920  -34.5940 C   0  0  0  0  0  0  0  0  0  0  0  0
   -3.4340   15.9920  -35.0170 C   0  0  0  0  0  0  0  0  0  0  0  0
   -2.7140   17.0960  -34.5610 C   0  0  0  0  0  0  0  0  0  0  0  0
   -3.3000   18.0100  -33.6660 C   0  0  0  0  0  0  0  0  0  0  0  0
   -2.5470   19.1520  -33.2230 N   0  0  0  0  0  0  0  0  0  0  0  0
   -3.0610   20.4900  -33.5230 C   0  0  0  0  0  0  0  0  0  0  0  0
   -1.9430   21.5310  -33.3790 C   0  0  0  0  0  0  0  0  0  0  0  0
   -1.2830   21.3960  -32.1330 O   0  0  0  0  0  0  0  0  0  0  0  0
   -0.6160   20.1490  -32.0840 C   0  0  0  0  0  0  0  0  0  0  0  0
   -1.6260   18.9970  -32.0920 C   0  0  0  0  0  0  0  0  0  0  0  0
   -5.3600   21.7980  -31.5260 C   0  0  0  0  0  0  0  0  0  0  0  0
   -1.6150   22.3570  -28.8730 C   0  0  0  0  0  0  0  0  0  0  0  0
   -0.8180   21.2280  -28.6640 C   0  0  0  0  0  0  0  0  0  0  0  0
   -0.3562   18.7621  -26.6392 H   0  0  0  0  0  0  0  0  0  0  0  0
   -0.9341   18.0271  -28.1730 H   0  0  0  0  0  0  0  0  0  0  0  0
    0.5249   19.0749  -28.1730 H   0  0  0  0  0  0  0  0  0  0  0  0
   -3.0366   19.3116  -26.9036 H   0  0  0  0  0  0  0  0  0  0  0  0
   -4.4651   21.3169  -27.2881 H   0  0  0  0  0  0  0  0  0  0  0  0
   -3.9394   23.8954  -26.5428 H   0  0  0  0  0  0  0  0  0  0  0  0
   -3.7183   25.3716  -27.5421 H   0  0  0  0  0  0  0  0  0  0  0  0
   -5.2973   24.5152  -27.5421 H   0  0  0  0  0  0  0  0  0  0  0  0
   -7.0951   24.0195  -29.5904 H   0  0  0  0  0  0  0  0  0  0  0  0
   -8.9814   22.5625  -30.3116 H   0  0  0  0  0  0  0  0  0  0  0  0
   -5.0330   18.7040  -31.3130 H   0  0  0  0  0  0  0  0  0  0  0  0
   -6.3811   16.5295  -33.3813 H   0  0  0  0  0  0  0  0  0  0  0  0
   -5.3168   14.9264  -34.9630 H   0  0  0  0  0  0  0  0  0  0  0  0
   -2.9654   15.2786  -35.7109 H   0  0  0  0  0  0  0  0  0  0  0  0
   -1.6806   17.2533  -34.9035 H   0  0  0  0  0  0  0  0  0  0  0  0
   -3.4450   20.5092  -34.5536 H   0  0  0  0  0  0  0  0  0  0  0  0
   -3.8693   20.7309  -32.8169 H   0  0  0  0  0  0  0  0  0  0  0  0
   -1.2133   21.3901  -34.1900 H   0  0  0  0  0  0  0  0  0  0  0  0
   -2.3891   22.5350  -33.4330 H   0  0  0  0  0  0  0  0  0  0  0  0
    0.0440   20.0573  -32.9592 H   0  0  0  0  0  0  0  0  0  0  0  0
   -0.0269   20.0979  -31.1564 H   0  0  0  0  0  0  0  0  0  0  0  0
   -1.0894   18.0414  -32.1863 H   0  0  0  0  0  0  0  0  0  0  0  0
   -2.1986   19.0093  -31.1528 H   0  0  0  0  0  0  0  0  0  0  0  0
   -4.3381   21.5923  -31.8774 H   0  0  0  0  0  0  0  0  0  0  0  0
   -1.2101   23.2155  -29.4289 H   0  0  0  0  0  0  0  0  0  0  0  0
    0.2149   21.2092  -29.0418 H   0  0  0  0  0  0  0  0  0  0  0  0
  1  2  1  0
  2  3  2  0
  3  4  1  0
  4  5  2  0
  5  6  1  0
  6  7  1  0
  6  8  1  0
  8  9  2  0
  8 10  2  0
  8 11  1  0
 11 12  2  0
 12 13  1  0
 13 14  2  0
 14 15  1  0
 14 16  1  0
 16 17  1  0
 17 18  2  0
 17 19  1  0
 19 20  1  0
 20 21  2  0
 21 22  1  0
 22 23  2  0
 23 24  1  0
 24 25  2  0
 25 26  1  0
 26 27  1  0
 27 28  1  0
 28 29  1  0
 29 30  1  0
 30 31  1  0
 16 32  2  0
  5 33  1  0
 33 34  2  0
 34  2  1  0
 32 11  1  0
 25 20  1  0
 31 26  1  0
  1 35  1  0
  1 36  1  0
  1 37  1  0
  3 38  1  0
  4 39  1  0
  7 40  1  0
  7 41  1  0
  7 42  1  0
 12 43  1  0
 13 44  1  0
 19 45  1  0
 21 46  1  0
 22 47  1  0
 23 48  1  0
 24 49  1  0
 27 50  1  0
 27 51  1  0
 28 52  1  0
 28 53  1  0
 30 54  1  0
 30 55  1  0
 31 56  1  0
 31 57  1  0
 32 58  1  0
 33 59  1  0
 34 60  1  0
M  END
>  <UniqueID>  (38) 
37

>  <SMILES>  (38) 
Cc1ccc(N(C)S(=O)(=O)c2ccc(Cl)c(C(=O)Nc3ccccc3N3CCOCC3)c2)cc1

>  <Energy>  (38) 
83.29437695498369

>  <Genealogy>  (38) 
Cc1ccc(N(C)S(=O)(=O)c2ccc(Cl)c(C(=O)Nc3ccccc3N3CCOCC3)c2)cc1 (3D coordinates assigned)
Cc1ccc(N(C)S(=O)(=O)c2ccc(Cl)c(C(=O)Nc3ccccc3N3CCOCC3)c2)cc1 (nonaromatic ring conformer: 83.29437695498369 kcal/mol)

>  <smiles>  (38) 
Cc1ccc(N(C)S(=O)(=O)c2ccc(Cl)c(C(=O)Nc3ccccc3N3CCOCC3)c2)cc1

>  <score_type>  (38) 
oracle

>  <origin>  (38) 
adgpu

>  <m_score__min__energy>  (38) 
-10.56

>  <m_primary>  (38) 
energy

$$$$
38:0
     RDKit          3D

 46 48  0  0  0  0  0  0  0  0999 V2000
   -6.7970   22.3860  -30.5170 N   0  0  0  0  0  0  0  0  0  0  0  0
   -7.4400   21.3360  -31.2480 C   0  0  0  0  0  0  0  0  0  0  0  0
   -8.7800   21.4750  -31.6350 C   0  0  0  0  0  0  0  0  0  0  0  0
   -9.4140   20.4570  -32.3520 C   0  0  0  0  0  0  0  0  0  0  0  0
   -8.7170   19.2940  -32.6850 C   0  0  0  0  0  0  0  0  0  0  0  0
   -7.3770   19.1390  -32.2990 C   0  0  0  0  0  0  0  0  0  0  0  0
   -6.4880   17.6820  -32.7380 S   0  0  0  0  0  0  0  0  0  0  0  0
   -7.1460   16.9920  -33.9010 O   0  0  0  0  0  0  0  0  0  0  0  0
   -6.4860   16.7480  -31.5600 O   0  0  0  0  0  0  0  0  0  0  0  0
   -4.8390   18.1040  -33.1870 C   0  0  0  0  0  0  0  0  0  0  0  0
   -4.5650   19.3230  -33.8210 C   0  0  0  0  0  0  0  0  0  0  0  0
   -3.2480   19.6760  -34.1290 C   0  0  0  0  0  0  0  0  0  0  0  0
   -2.1890   18.8160  -33.7960 C   0  0  0  0  0  0  0  0  0  0  0  0
   -0.7610   19.2440  -34.0240 C   0  0  0  0  0  0  0  0  0  0  0  0
   -0.2750   20.0760  -32.9240 N   0  0  0  0  0  0  0  0  0  0  0  0
   -0.8570   20.1550  -31.6140 C   0  0  0  0  0  0  0  0  0  0  0  0
   -0.6540   19.2200  -30.7960 O   0  0  0  0  0  0  0  0  0  0  0  0
   -1.6390   21.3330  -31.1830 C   0  0  0  0  0  0  0  0  0  0  0  0
   -1.0560   22.1320  -30.2050 C   0  0  0  0  0  0  0  0  0  0  0  0
   -1.4970   23.3410  -29.6950 C   0  0  0  0  0  0  0  0  0  0  0  0
   -2.6330   24.0790  -30.0100 C   0  0  0  0  0  0  0  0  0  0  0  0
   -2.7520   25.2960  -29.3410 O   0  0  0  0  0  0  0  0  0  0  0  0
   -3.6620   23.7470  -30.9010 C   0  0  0  0  0  0  0  0  0  0  0  0
   -4.5950   24.5920  -30.9940 O   0  0  0  0  0  0  0  0  0  0  0  0
   -3.7780   22.5890  -31.6940 C   0  0  0  0  0  0  0  0  0  0  0  0
   -4.9210   22.4440  -32.4910 O   0  0  0  0  0  0  0  0  0  0  0  0
   -2.8690   21.5380  -31.8090 C   0  0  0  0  0  0  0  0  0  0  0  0
   -2.4710   17.5800  -33.1920 C   0  0  0  0  0  0  0  0  0  0  0  0
   -3.7870   17.2320  -32.8790 C   0  0  0  0  0  0  0  0  0  0  0  0
   -6.7380   20.1650  -31.5830 C   0  0  0  0  0  0  0  0  0  0  0  0
   -5.4360   20.0290  -31.2180 F   0  0  0  0  0  0  0  0  0  0  0  0
   -7.0720   22.5960  -29.5320 H   0  0  0  0  0  0  0  0  0  0  0  0
   -6.0420   22.9620  -30.9500 H   0  0  0  0  0  0  0  0  0  0  0  0
   -9.3343   22.3884  -31.3734 H   0  0  0  0  0  0  0  0  0  0  0  0
  -10.4652   20.5722  -32.6549 H   0  0  0  0  0  0  0  0  0  0  0  0
   -9.2200   18.4967  -33.2518 H   0  0  0  0  0  0  0  0  0  0  0  0
   -5.3893   20.0048  -34.0773 H   0  0  0  0  0  0  0  0  0  0  0  0
   -3.0404   20.6309  -34.6341 H   0  0  0  0  0  0  0  0  0  0  0  0
   -0.1268   18.3488  -34.1038 H   0  0  0  0  0  0  0  0  0  0  0  0
   -0.7186   19.8341  -34.9514 H   0  0  0  0  0  0  0  0  0  0  0  0
   -0.1162   21.7512  -29.7786 H   0  0  0  0  0  0  0  0  0  0  0  0
   -0.8510   23.7854  -28.9236 H   0  0  0  0  0  0  0  0  0  0  0  0
   -5.2980   23.1810  -33.0750 H   0  0  0  0  0  0  0  0  0  0  0  0
   -3.1702   20.7419  -32.5058 H   0  0  0  0  0  0  0  0  0  0  0  0
   -1.6515   16.8825  -32.9643 H   0  0  0  0  0  0  0  0  0  0  0  0
   -3.9979   16.2700  -32.3890 H   0  0  0  0  0  0  0  0  0  0  0  0
  1  2  1  0
  2  3  2  0
  3  4  1  0
  4  5  2  0
  5  6  1  0
  6  7  1  0
  7  8  2  0
  7  9  2  0
  7 10  1  0
 10 11  2  0
 11 12  1  0
 12 13  2  0
 13 14  1  0
 14 15  1  0
 15 16  1  0
 16 17  2  0
 16 18  1  0
 18 19  2  0
 19 20  1  0
 20 21  2  0
 21 22  1  0
 21 23  1  0
 23 24  2  0
 23 25  1  0
 25 26  1  0
 25 27  2  0
 13 28  1  0
 28 29  2  0
  6 30  2  0
 30 31  1  0
 30  2  1  0
 29 10  1  0
 27 18  1  0
  1 32  1  0
  1 33  1  0
  3 34  1  0
  4 35  1  0
  5 36  1  0
 11 37  1  0
 12 38  1  0
 14 39  1  0
 14 40  1  0
 19 41  1  0
 20 42  1  0
 26 43  1  0
 27 44  1  0
 28 45  1  0
 29 46  1  0
M  CHG  2  15  -1  22  -1
M  END
>  <UniqueID>  (39) 
38

>  <SMILES>  (39) 
Nc1cccc(S(=O)(=O)c2ccc(C[N-]C(=O)c3ccc([O-])c(=O)c(O)c3)cc2)c1F

>  <Energy>  (39) 
74.70012982107062

>  <Genealogy>  (39) 
Nc1cccc(S(=O)(=O)c2ccc(C[N-]C(=O)c3ccc([O-])c(=O)c(O)c3)cc2)c1F (protonated)
Nc1cccc(S(=O)(=O)c2ccc(C[N-]C(=O)c3ccc([O-])c(=O)c(O)c3)cc2)c1F (3D coordinates assigned)
Nc1cccc(S(=O)(=O)c2ccc(C[N-]C(=O)c3ccc([O-])c(=O)c(O)c3)cc2)c1F (optimized conformer: 74.70012982107062 kcal/mol)

>  <smiles>  (39) 
Nc1cccc(S(=O)(=O)c2ccc(CNC(=O)c3ccc(O)c(=O)c(O)c3)cc2)c1F

>  <score_type>  (39) 
oracle

>  <origin>  (39) 
adgpu

>  <m_score__min__energy>  (39) 
-11.5

>  <m_primary>  (39) 
energy

$$$$
39:0
     RDKit          3D

 31 32  0  0  0  0  0  0  0  0999 V2000
   -9.9370   17.2400  -31.7830 H   0  0  0  0  0  0  0  0  0  0  0  0
   -9.3880   18.1040  -31.5730 N   0  0  0  0  0  0  0  0  0  0  0  0
   -8.1800   18.2600  -32.0050 C   0  0  0  0  0  0  0  0  0  0  0  0
   -7.5000   19.3960  -31.7110 N   0  0  0  0  0  0  0  0  0  0  0  0
   -6.2260   19.5960  -32.1370 C   0  0  0  0  0  0  0  0  0  0  0  0
   -5.5740   20.8690  -31.7640 C   0  0  0  0  0  0  0  0  0  0  0  0
   -5.9633   21.8065  -32.1876 H   0  0  0  0  0  0  0  0  0  0  0  0
   -4.5260   20.9250  -30.9290 C   0  0  0  0  0  0  0  0  0  0  0  0
   -4.1378   19.9788  -30.5239 H   0  0  0  0  0  0  0  0  0  0  0  0
   -3.8580   22.1840  -30.5180 C   0  0  0  0  0  0  0  0  0  0  0  0
   -2.6250   22.0990  -29.8480 C   0  0  0  0  0  0  0  0  0  0  0  0
   -2.1808   21.1131  -29.6464 H   0  0  0  0  0  0  0  0  0  0  0  0
   -1.9590   23.2560  -29.4360 C   0  0  0  0  0  0  0  0  0  0  0  0
   -0.9902   23.1765  -28.9212 H   0  0  0  0  0  0  0  0  0  0  0  0
   -2.5180   24.5120  -29.6750 C   0  0  0  0  0  0  0  0  0  0  0  0
   -1.8470   25.6580  -29.2620 O   0  0  0  0  0  0  0  0  0  0  0  0
   -3.7520   24.6170  -30.3270 C   0  0  0  0  0  0  0  0  0  0  0  0
   -4.3100   25.8740  -30.5530 O   0  0  0  0  0  0  0  0  0  0  0  0
   -3.8650   26.7210  -30.2180 H   0  0  0  0  0  0  0  0  0  0  0  0
   -4.4220   23.4570  -30.7440 C   0  0  0  0  0  0  0  0  0  0  0  0
   -5.3946   23.5409  -31.2511 H   0  0  0  0  0  0  0  0  0  0  0  0
   -5.6040   18.6120  -32.9400 C   0  0  0  0  0  0  0  0  0  0  0  0
   -4.2960   18.8180  -33.5220 C   0  0  0  0  0  0  0  0  0  0  0  0
   -3.2500   18.9840  -33.9870 N   0  0  0  0  0  0  0  0  0  0  0  0
   -6.3250   17.4380  -33.2240 C   0  0  0  0  0  0  0  0  0  0  0  0
   -5.6260   16.1180  -34.2250 S   0  0  0  0  0  0  0  0  0  0  0  0
   -4.7890   15.3310  -32.8140 C   0  0  0  0  0  0  0  0  0  0  0  0
   -5.2062   15.7233  -31.8748 H   0  0  0  0  0  0  0  0  0  0  0  0
   -4.9426   14.2426  -32.8571 H   0  0  0  0  0  0  0  0  0  0  0  0
   -3.7121   15.5513  -32.8571 H   0  0  0  0  0  0  0  0  0  0  0  0
   -7.5900   17.2920  -32.7510 N   0  0  0  0  0  0  0  0  0  0  0  0
  1  2  1  0
  2  3  2  0
  3  4  1  0
  4  5  2  0
  5  6  1  0
  6  7  1  0
  6  8  2  0
  8  9  1  0
  8 10  1  0
 10 11  2  0
 11 12  1  0
 11 13  1  0
 13 14  1  0
 13 15  2  0
 15 16  1  0
 15 17  1  0
 17 18  1  0
 18 19  1  0
 17 20  2  0
 20 21  1  0
  5 22  1  0
 22 23  1  0
 23 24  3  0
 22 25  2  0
 25 26  1  0
 26 27  1  0
 27 28  1  0
 27 29  1  0
 27 30  1  0
 25 31  1  0
 31  3  1  0
 20 10  1  0
M  CHG  2  16  -1  31  -1
M  END
>  <UniqueID>  (40) 
39

>  <SMILES>  (40) 
[H]/N=c1/nc(/C=C/c2ccc([O-])c(O)c2)c(C#N)c(SC)[n-]1

>  <Energy>  (40) 
36.59548560569372

>  <Genealogy>  (40) 
CSc1[n-]c(=N)nc(C=Cc2ccc([O-])c(O)c2)c1C#N (protonated)
[H]/N=c1/nc(/C=C/c2ccc([O-])c(O)c2)c(C#N)c(SC)[n-]1 (cis-trans isomerization)
[H]/N=c1/nc(/C=C/c2ccc([O-])c(O)c2)c(C#N)c(SC)[n-]1 (3D coordinates assigned)
[H]/N=c1/nc(/C=C/c2ccc([O-])c(O)c2)c(C#N)c(SC)[n-]1 (optimized conformer: 36.59548560569372 kcal/mol)

>  <smiles>  (40) 
CSc1[nH]c(=N)nc(C=Cc2ccc(O)c(O)c2)c1C#N

>  <score_type>  (40) 
oracle

>  <origin>  (40) 
adgpu

>  <m_score__min__energy>  (40) 
-10.529999999999999

>  <m_primary>  (40) 
energy

$$$$
40:0
     RDKit          3D

 38 40  0  0  0  0  0  0  0  0999 V2000
   -5.9370   18.5690  -34.7850 N   0  0  0  0  0  0  0  0  0  0  0  0
   -6.4900   18.5540  -33.4700 C   0  0  0  0  0  0  0  0  0  0  0  0
   -6.5200   17.4680  -32.8300 O   0  0  0  0  0  0  0  0  0  0  0  0
   -7.0210   19.7960  -32.8590 C   0  0  0  0  0  0  0  0  0  0  0  0
   -8.3580   19.8640  -32.4290 C   0  0  0  0  0  0  0  0  0  0  0  0
   -8.8570   21.0350  -31.8570 C   0  0  0  0  0  0  0  0  0  0  0  0
   -8.0290   22.1480  -31.6950 C   0  0  0  0  0  0  0  0  0  0  0  0
   -6.6860   22.0990  -32.1010 C   0  0  0  0  0  0  0  0  0  0  0  0
   -5.8130   23.2830  -31.9180 C   0  0  0  0  0  0  0  0  0  0  0  0
   -6.3310   24.4290  -31.8510 O   0  0  0  0  0  0  0  0  0  0  0  0
   -4.3840   23.1720  -31.8560 N   0  0  0  0  0  0  0  0  0  0  0  0
   -3.5860   23.2470  -30.6640 C   0  0  0  0  0  0  0  0  0  0  0  0
   -2.9970   22.0740  -30.1780 C   0  0  0  0  0  0  0  0  0  0  0  0
   -2.2240   22.0890  -29.0030 C   0  0  0  0  0  0  0  0  0  0  0  0
   -1.6270   20.8350  -28.4760 C   0  0  0  0  0  0  0  0  0  0  0  0
   -2.2570   20.1260  -27.4350 C   0  0  0  0  0  0  0  0  0  0  0  0
   -1.6940   18.9470  -26.9390 C   0  0  0  0  0  0  0  0  0  0  0  0
   -0.4970   18.4620  -27.4740 C   0  0  0  0  0  0  0  0  0  0  0  0
    0.0610   17.2900  -26.9780 O   0  0  0  0  0  0  0  0  0  0  0  0
    0.1380   19.1580  -28.5060 C   0  0  0  0  0  0  0  0  0  0  0  0
   -0.4210   20.3370  -29.0050 C   0  0  0  0  0  0  0  0  0  0  0  0
   -2.0300   23.3080  -28.3320 C   0  0  0  0  0  0  0  0  0  0  0  0
   -2.5900   24.4870  -28.8300 C   0  0  0  0  0  0  0  0  0  0  0  0
   -3.3570   24.4660  -29.9970 C   0  0  0  0  0  0  0  0  0  0  0  0
   -3.8610   25.6610  -30.4960 O   0  0  0  0  0  0  0  0  0  0  0  0
   -6.1950   20.9240  -32.7000 C   0  0  0  0  0  0  0  0  0  0  0  0
   -6.4960   18.9050  -35.5990 H   0  0  0  0  0  0  0  0  0  0  0  0
   -9.0145   18.9890  -32.5442 H   0  0  0  0  0  0  0  0  0  0  0  0
   -9.9070   21.0816  -31.5323 H   0  0  0  0  0  0  0  0  0  0  0  0
   -8.4315   23.0683  -31.2467 H   0  0  0  0  0  0  0  0  0  0  0  0
   -3.1404   21.1286  -30.7217 H   0  0  0  0  0  0  0  0  0  0  0  0
   -3.1987   20.5028  -27.0094 H   0  0  0  0  0  0  0  0  0  0  0  0
   -2.1936   18.3996  -26.1261 H   0  0  0  0  0  0  0  0  0  0  0  0
    1.0802   18.7766  -28.9264 H   0  0  0  0  0  0  0  0  0  0  0  0
    0.0847   20.8801  -29.8170 H   0  0  0  0  0  0  0  0  0  0  0  0
   -1.4332   23.3343  -27.4084 H   0  0  0  0  0  0  0  0  0  0  0  0
   -2.4260   25.4369  -28.3002 H   0  0  0  0  0  0  0  0  0  0  0  0
   -5.1523   20.8869  -33.0483 H   0  0  0  0  0  0  0  0  0  0  0  0
  1  2  1  0
  2  3  2  0
  2  4  1  0
  4  5  2  0
  5  6  1  0
  6  7  2  0
  7  8  1  0
  8  9  1  0
  9 10  2  0
  9 11  1  0
 11 12  1  0
 12 13  2  0
 13 14  1  0
 14 15  1  0
 15 16  2  0
 16 17  1  0
 17 18  2  0
 18 19  1  0
 18 20  1  0
 20 21  2  0
 14 22  2  0
 22 23  1  0
 23 24  2  0
 24 25  1  0
  8 26  2  0
 26  4  1  0
 24 12  1  0
 21 15  1  0
  1 27  1  0
  5 28  1  0
  6 29  1  0
  7 30  1  0
 13 31  1  0
 16 32  1  0
 17 33  1  0
 20 34  1  0
 21 35  1  0
 22 36  1  0
 23 37  1  0
 26 38  1  0
M  CHG  4   1  -1  11  -1  19  -1  25  -1
M  END
>  <UniqueID>  (41) 
40

>  <SMILES>  (41) 
[NH-]C(=O)c1cccc(C(=O)[N-]c2cc(-c3ccc([O-])cc3)ccc2[O-])c1

>  <Energy>  (41) 
55.05185608782411

>  <Genealogy>  (41) 
[NH-]C(=O)c1cccc(C(=O)[N-]c2cc(-c3ccc([O-])cc3)ccc2[O-])c1 (protonated)
[NH-]C(=O)c1cccc(C(=O)[N-]c2cc(-c3ccc([O-])cc3)ccc2[O-])c1 (3D coordinates assigned)
[NH-]C(=O)c1cccc(C(=O)[N-]c2cc(-c3ccc([O-])cc3)ccc2[O-])c1 (optimized conformer: 55.05185608782411 kcal/mol)

>  <smiles>  (41) 
NC(=O)c1cccc(C(=O)Nc2cc(-c3ccc(O)cc3)ccc2O)c1

>  <score_type>  (41) 
oracle

>  <origin>  (41) 
adgpu

>  <m_score__min__energy>  (41) 
-12.35

>  <m_primary>  (41) 
energy

$$$$
41:0
     RDKit          3D

 50 52  0  0  0  0  0  0  0  0999 V2000
   -9.2760   18.4720  -31.7530 C   0  0  0  0  0  0  0  0  0  0  0  0
   -9.2070   19.7190  -32.6450 C   0  0  0  0  0  0  0  0  0  0  0  0
   -8.0300   20.5810  -32.4000 N   0  0  0  0  0  0  0  0  0  0  0  0
   -6.9100   19.8580  -31.7670 C   0  0  0  0  0  0  0  0  0  0  0  0
   -6.3470   18.8330  -32.7150 C   0  0  0  0  0  0  0  0  0  0  0  0
   -6.0760   17.5230  -32.2800 C   0  0  0  0  0  0  0  0  0  0  0  0
   -5.5570   16.5800  -33.1720 C   0  0  0  0  0  0  0  0  0  0  0  0
   -5.3050   16.9350  -34.5020 C   0  0  0  0  0  0  0  0  0  0  0  0
   -5.5710   18.2350  -34.9430 C   0  0  0  0  0  0  0  0  0  0  0  0
   -6.0920   19.1820  -34.0540 C   0  0  0  0  0  0  0  0  0  0  0  0
   -8.4300   22.0450  -31.5230 S   0  0  0  0  0  0  0  0  0  0  0  0
   -9.3650   22.8980  -32.3380 O   0  0  0  0  0  0  0  0  0  0  0  0
   -9.1160   21.6860  -30.2340 O   0  0  0  0  0  0  0  0  0  0  0  0
   -6.9690   22.9530  -31.1300 C   0  0  0  0  0  0  0  0  0  0  0  0
   -7.0320   23.9810  -30.1820 C   0  0  0  0  0  0  0  0  0  0  0  0
   -5.8830   24.7070  -29.8560 C   0  0  0  0  0  0  0  0  0  0  0  0
   -4.6630   24.4280  -30.4860 C   0  0  0  0  0  0  0  0  0  0  0  0
   -3.5110   25.2020  -30.1270 N   0  0  0  0  0  0  0  0  0  0  0  0
   -2.2910   24.7170  -28.9940 S   0  0  0  0  0  0  0  0  0  0  0  0
   -1.0530   25.5390  -29.2150 O   0  0  0  0  0  0  0  0  0  0  0  0
   -2.7900   24.9630  -27.5980 O   0  0  0  0  0  0  0  0  0  0  0  0
   -1.9450   22.9990  -29.1760 C   0  0  0  0  0  0  0  0  0  0  0  0
   -2.6100   22.0470  -28.3850 C   0  0  0  0  0  0  0  0  0  0  0  0
   -2.3260   20.6860  -28.5320 C   0  0  0  0  0  0  0  0  0  0  0  0
   -1.3760   20.2680  -29.4720 C   0  0  0  0  0  0  0  0  0  0  0  0
   -0.7140   21.2120  -30.2660 C   0  0  0  0  0  0  0  0  0  0  0  0
   -0.9960   22.5750  -30.1180 C   0  0  0  0  0  0  0  0  0  0  0  0
   -4.6090   23.4110  -31.4570 C   0  0  0  0  0  0  0  0  0  0  0  0
   -5.7560   22.6740  -31.7710 C   0  0  0  0  0  0  0  0  0  0  0  0
   -9.2592   18.7759  -30.6960 H   0  0  0  0  0  0  0  0  0  0  0  0
  -10.2059   17.9228  -31.9619 H   0  0  0  0  0  0  0  0  0  0  0  0
   -8.4124   17.8235  -31.9619 H   0  0  0  0  0  0  0  0  0  0  0  0
   -9.1803   19.3903  -33.6944 H   0  0  0  0  0  0  0  0  0  0  0  0
  -10.0943   20.3243  -32.4078 H   0  0  0  0  0  0  0  0  0  0  0  0
   -6.1208   20.5755  -31.4980 H   0  0  0  0  0  0  0  0  0  0  0  0
   -7.2783   19.3470  -30.8652 H   0  0  0  0  0  0  0  0  0  0  0  0
   -6.2729   17.2399  -31.2354 H   0  0  0  0  0  0  0  0  0  0  0  0
   -5.3462   15.5567  -32.8277 H   0  0  0  0  0  0  0  0  0  0  0  0
   -4.8971   16.1904  -35.2014 H   0  0  0  0  0  0  0  0  0  0  0  0
   -5.3708   18.5132  -35.9882 H   0  0  0  0  0  0  0  0  0  0  0  0
   -6.3030   20.2034  -34.4035 H   0  0  0  0  0  0  0  0  0  0  0  0
   -7.9881   24.2180  -29.6924 H   0  0  0  0  0  0  0  0  0  0  0  0
   -5.9369   25.5034  -29.0991 H   0  0  0  0  0  0  0  0  0  0  0  0
   -3.3573   22.3739  -27.6469 H   0  0  0  0  0  0  0  0  0  0  0  0
   -2.8483   19.9443  -27.9099 H   0  0  0  0  0  0  0  0  0  0  0  0
   -1.1498   19.1976  -29.5866 H   0  0  0  0  0  0  0  0  0  0  0  0
    0.0288   20.8821  -31.0072 H   0  0  0  0  0  0  0  0  0  0  0  0
   -0.4726   23.3149  -30.7414 H   0  0  0  0  0  0  0  0  0  0  0  0
   -3.6610   23.1945  -31.9713 H   0  0  0  0  0  0  0  0  0  0  0  0
   -5.7046   21.8733  -32.5235 H   0  0  0  0  0  0  0  0  0  0  0  0
  1  2  1  0
  2  3  1  0
  3  4  1  0
  4  5  1  0
  5  6  2  0
  6  7  1  0
  7  8  2  0
  8  9  1  0
  9 10  2  0
  3 11  1  0
 11 12  2  0
 11 13  2  0
 11 14  1  0
 14 15  2  0
 15 16  1  0
 16 17  2  0
 17 18  1  0
 18 19  1  0
 19 20  2  0
 19 21  2  0
 19 22  1  0
 22 23  2  0
 23 24  1  0
 24 25  2  0
 25 26  1  0
 26 27  2  0
 17 28  1  0
 28 29  2  0
 10  5  1  0
 29 14  1  0
 27 22  1  0
  1 30  1  0
  1 31  1  0
  1 32  1  0
  2 33  1  0
  2 34  1  0
  4 35  1  0
  4 36  1  0
  6 37  1  0
  7 38  1  0
  8 39  1  0
  9 40  1  0
 10 41  1  0
 15 42  1  0
 16 43  1  0
 23 44  1  0
 24 45  1  0
 25 46  1  0
 26 47  1  0
 27 48  1  0
 28 49  1  0
 29 50  1  0
M  CHG  1  18  -1
M  END
>  <UniqueID>  (42) 
41

>  <SMILES>  (42) 
CCN(Cc1ccccc1)S(=O)(=O)c1ccc([N-]S(=O)(=O)c2ccccc2)cc1

>  <Energy>  (42) 
56.04826602437027

>  <Genealogy>  (42) 
CCN(Cc1ccccc1)S(=O)(=O)c1ccc([N-]S(=O)(=O)c2ccccc2)cc1 (protonated)
CCN(Cc1ccccc1)S(=O)(=O)c1ccc([N-]S(=O)(=O)c2ccccc2)cc1 (3D coordinates assigned)
CCN(Cc1ccccc1)S(=O)(=O)c1ccc([N-]S(=O)(=O)c2ccccc2)cc1 (optimized conformer: 56.04826602437027 kcal/mol)

>  <smiles>  (42) 
CCN(Cc1ccccc1)S(=O)(=O)c1ccc(NS(=O)(=O)c2ccccc2)cc1

>  <score_type>  (42) 
oracle

>  <origin>  (42) 
adgpu

>  <m_score__min__energy>  (42) 
-11.99

>  <m_primary>  (42) 
energy

$$$$
42:0
     RDKit          3D

 55 59  0  0  0  0  0  0  0  0999 V2000
   -1.3140   17.5090  -34.6660 C   0  0  0  0  0  0  0  0  0  0  0  0
   -0.7240   18.7760  -34.3920 O   0  0  0  0  0  0  0  0  0  0  0  0
   -1.0300   19.5670  -33.2740 C   0  0  0  0  0  0  0  0  0  0  0  0
   -1.6470   20.8030  -33.4830 C   0  0  0  0  0  0  0  0  0  0  0  0
   -1.9720   21.6280  -32.4040 C   0  0  0  0  0  0  0  0  0  0  0  0
   -1.6650   21.2460  -31.0830 C   0  0  0  0  0  0  0  0  0  0  0  0
   -2.0910   22.1490  -29.9160 C   0  0  1  0  0  0  0  0  0  0  0  0
   -2.0830   21.3880  -28.5790 C   0  0  0  0  0  0  0  0  0  0  0  0
   -2.9950   20.3500  -28.2710 C   0  0  0  0  0  0  0  0  0  0  0  0
   -2.9360   19.6910  -27.0400 C   0  0  0  0  0  0  0  0  0  0  0  0
   -1.9760   20.0520  -26.0940 C   0  0  0  0  0  0  0  0  0  0  0  0
   -1.0700   21.0740  -26.3760 C   0  0  0  0  0  0  0  0  0  0  0  0
   -1.1220   21.7380  -27.6040 C   0  0  0  0  0  0  0  0  0  0  0  0
   -1.0860   23.2140  -29.7930 N   0  0  0  0  0  0  0  0  0  0  0  0
   -1.4060   24.5160  -29.3100 C   0  0  0  0  0  0  0  0  0  0  0  0
   -0.4880   25.3070  -28.9700 O   0  0  0  0  0  0  0  0  0  0  0  0
   -2.7680   24.9250  -29.2610 N   0  0  0  0  0  0  0  0  0  0  0  0
   -3.7770   24.0860  -29.8350 C   0  0  0  0  0  0  0  0  0  0  0  0
   -5.0670   24.5970  -30.0280 C   0  0  0  0  0  0  0  0  0  0  0  0
   -6.0640   23.8070  -30.5960 C   0  0  0  0  0  0  0  0  0  0  0  0
   -5.7900   22.4840  -30.9660 C   0  0  0  0  0  0  0  0  0  0  0  0
   -6.8490   21.6360  -31.5580 C   0  0  0  0  0  0  0  0  0  0  0  0
   -8.1620   21.7640  -31.0750 C   0  0  0  0  0  0  0  0  0  0  0  0
   -9.1880   20.9700  -31.5900 C   0  0  0  0  0  0  0  0  0  0  0  0
   -8.9160   20.0390  -32.5920 C   0  0  0  0  0  0  0  0  0  0  0  0
   -7.6200   19.9090  -33.0940 C   0  0  0  0  0  0  0  0  0  0  0  0
   -6.5780   20.7140  -32.6010 C   0  0  0  0  0  0  0  0  0  0  0  0
   -5.1990   20.5620  -33.1880 C   0  0  0  0  0  0  0  0  0  0  0  0
   -4.5020   21.9680  -30.7810 C   0  0  0  0  0  0  0  0  0  0  0  0
   -3.4720   22.7590  -30.2260 C   0  0  0  0  0  0  0  0  0  0  0  0
   -1.0690   19.9820  -30.8780 C   0  0  0  0  0  0  0  0  0  0  0  0
   -0.7460   19.1590  -31.9600 C   0  0  0  0  0  0  0  0  0  0  0  0
   -1.5501   17.0019  -33.7188 H   0  0  0  0  0  0  0  0  0  0  0  0
   -2.2380   17.6524  -35.2454 H   0  0  0  0  0  0  0  0  0  0  0  0
   -0.6096   16.8941  -35.2454 H   0  0  0  0  0  0  0  0  0  0  0  0
   -1.8791   21.1295  -34.5075 H   0  0  0  0  0  0  0  0  0  0  0  0
   -2.4745   22.5891  -32.5880 H   0  0  0  0  0  0  0  0  0  0  0  0
   -3.7579   20.0592  -29.0081 H   0  0  0  0  0  0  0  0  0  0  0  0
   -3.6494   18.8843  -26.8159 H   0  0  0  0  0  0  0  0  0  0  0  0
   -1.9338   19.5307  -25.1263 H   0  0  0  0  0  0  0  0  0  0  0  0
   -0.3130   21.3578  -25.6301 H   0  0  0  0  0  0  0  0  0  0  0  0
   -0.4046   22.5448  -27.8149 H   0  0  0  0  0  0  0  0  0  0  0  0
   -3.0070   25.8790  -28.9080 H   0  0  0  0  0  0  0  0  0  0  0  0
   -5.2946   25.6307  -29.7285 H   0  0  0  0  0  0  0  0  0  0  0  0
   -7.0697   24.2235  -30.7545 H   0  0  0  0  0  0  0  0  0  0  0  0
   -8.3834   22.4961  -30.2844 H   0  0  0  0  0  0  0  0  0  0  0  0
  -10.2126   21.0788  -31.2049 H   0  0  0  0  0  0  0  0  0  0  0  0
   -9.7241   19.4060  -32.9874 H   0  0  0  0  0  0  0  0  0  0  0  0
   -7.4121   19.1703  -33.8821 H   0  0  0  0  0  0  0  0  0  0  0  0
   -4.4617   20.4807  -32.3758 H   0  0  0  0  0  0  0  0  0  0  0  0
   -5.1626   19.6544  -33.8084 H   0  0  0  0  0  0  0  0  0  0  0  0
   -4.9658   21.4399  -33.8084 H   0  0  0  0  0  0  0  0  0  0  0  0
   -4.2885   20.9291  -31.0728 H   0  0  0  0  0  0  0  0  0  0  0  0
   -0.8565   19.6413  -29.8539 H   0  0  0  0  0  0  0  0  0  0  0  0
   -0.2662   18.1853  -31.7818 H   0  0  0  0  0  0  0  0  0  0  0  0
  1  2  1  0
  2  3  1  0
  3  4  2  0
  4  5  1  0
  5  6  2  0
  7  6  1  6
  7  8  1  0
  8  9  2  0
  9 10  1  0
 10 11  2  0
 11 12  1  0
 12 13  2  0
  7 14  1  0
 14 15  1  0
 15 16  2  0
 15 17  1  0
 17 18  1  0
 18 19  2  0
 19 20  1  0
 20 21  2  0
 21 22  1  0
 22 23  2  0
 23 24  1  0
 24 25  2  0
 25 26  1  0
 26 27  2  0
 27 28  1  0
 21 29  1  0
 29 30  2  0
  6 31  1  0
 31 32  2  0
 32  3  1  0
 30  7  1  0
 13  8  1  0
 30 18  1  0
 27 22  1  0
  1 33  1  0
  1 34  1  0
  1 35  1  0
  4 36  1  0
  5 37  1  0
  9 38  1  0
 10 39  1  0
 11 40  1  0
 12 41  1  0
 13 42  1  0
 17 43  1  0
 19 44  1  0
 20 45  1  0
 23 46  1  0
 24 47  1  0
 25 48  1  0
 26 49  1  0
 28 50  1  0
 28 51  1  0
 28 52  1  0
 29 53  1  0
 31 54  1  0
 32 55  1  0
M  CHG  1  14  -1
M  END
>  <UniqueID>  (43) 
42

>  <SMILES>  (43) 
COc1ccc([C@@]2(c3ccccc3)[N-]C(=O)Nc3ccc(-c4ccccc4C)cc32)cc1

>  <Energy>  (43) 
78.47336836690073

>  <Genealogy>  (43) 
COc1ccc(C2(c3ccccc3)[N-]C(=O)Nc3ccc(-c4ccccc4C)cc32)cc1 (protonated)
COc1ccc([C@@]2(c3ccccc3)[N-]C(=O)Nc3ccc(-c4ccccc4C)cc32)cc1 (chirality)
COc1ccc([C@@]2(c3ccccc3)[N-]C(=O)Nc3ccc(-c4ccccc4C)cc32)cc1 (3D coordinates assigned)
COc1ccc([C@@]2(c3ccccc3)[N-]C(=O)Nc3ccc(-c4ccccc4C)cc32)cc1 (nonaromatic ring conformer: 78.47336836690073 kcal/mol)

>  <smiles>  (43) 
COc1ccc(C2(c3ccccc3)NC(=O)Nc3ccc(-c4ccccc4C)cc32)cc1

>  <score_type>  (43) 
oracle

>  <origin>  (43) 
adgpu

>  <m_score__min__energy>  (43) 
-11.74

>  <m_primary>  (43) 
energy

$$$$
43:0
     RDKit          3D

 42 44  0  0  0  0  0  0  0  0999 V2000
   -3.1810   18.8540  -33.8330 C   0  0  0  0  0  0  0  0  0  0  0  0
   -3.7280   20.0990  -33.1380 C   0  0  0  0  0  0  0  0  0  0  0  0
   -5.2090   20.3650  -33.4580 C   0  0  0  0  0  0  0  0  0  0  0  0
   -5.8220   21.3920  -32.5250 C   0  0  0  0  0  0  0  0  0  0  0  0
   -5.1110   22.5370  -32.2930 N   0  0  0  0  0  0  0  0  0  0  0  0
   -5.5260   23.4880  -31.4170 C   0  0  0  0  0  0  0  0  0  0  0  0
   -4.7680   24.6020  -31.2190 N   0  0  0  0  0  0  0  0  0  0  0  0
   -5.1380   25.5760  -30.3460 C   0  0  0  0  0  0  0  0  0  0  0  0
   -6.3240   25.4520  -29.6230 C   0  0  0  0  0  0  0  0  0  0  0  0
   -7.1240   24.3220  -29.8050 C   0  0  0  0  0  0  0  0  0  0  0  0
   -6.7300   23.3210  -30.7110 C   0  0  0  0  0  0  0  0  0  0  0  0
   -7.5010   22.1700  -30.9380 C   0  0  0  0  0  0  0  0  0  0  0  0
   -8.5840   22.0170  -30.3090 O   0  0  0  0  0  0  0  0  0  0  0  0
   -7.0680   21.1930  -31.8620 C   0  0  0  0  0  0  0  0  0  0  0  0
   -8.1030   19.7770  -32.2080 S   0  0  0  0  0  0  0  0  0  0  0  0
   -8.8990   20.0440  -33.4570 O   0  0  0  0  0  0  0  0  0  0  0  0
   -9.0810   19.5210  -31.0970 O   0  0  0  0  0  0  0  0  0  0  0  0
   -7.1210   18.3290  -32.3910 C   0  0  0  0  0  0  0  0  0  0  0  0
   -6.8870   17.7740  -33.6570 C   0  0  0  0  0  0  0  0  0  0  0  0
   -6.0830   16.6370  -33.7880 C   0  0  0  0  0  0  0  0  0  0  0  0
   -5.5200   16.0330  -32.6520 C   0  0  0  0  0  0  0  0  0  0  0  0
   -4.6220   14.8420  -32.7980 C   0  0  0  0  0  0  0  0  0  0  0  0
   -5.7500   16.5960  -31.3880 C   0  0  0  0  0  0  0  0  0  0  0  0
   -6.5540   17.7320  -31.2580 C   0  0  0  0  0  0  0  0  0  0  0  0
   -2.8598   18.1230  -33.0764 H   0  0  0  0  0  0  0  0  0  0  0  0
   -3.9669   18.4099  -34.4616 H   0  0  0  0  0  0  0  0  0  0  0  0
   -2.3223   19.1324  -34.4616 H   0  0  0  0  0  0  0  0  0  0  0  0
   -3.6224   19.9684  -32.0509 H   0  0  0  0  0  0  0  0  0  0  0  0
   -3.1521   20.9609  -33.5062 H   0  0  0  0  0  0  0  0  0  0  0  0
   -5.2873   20.7340  -34.4913 H   0  0  0  0  0  0  0  0  0  0  0  0
   -5.7574   19.4205  -33.3272 H   0  0  0  0  0  0  0  0  0  0  0  0
   -4.2100   22.6930  -32.7990 H   0  0  0  0  0  0  0  0  0  0  0  0
   -4.5014   26.4627  -30.2097 H   0  0  0  0  0  0  0  0  0  0  0  0
   -6.6268   26.2377  -28.9152 H   0  0  0  0  0  0  0  0  0  0  0  0
   -8.0618   24.2148  -29.2401 H   0  0  0  0  0  0  0  0  0  0  0  0
   -7.3367   18.2338  -34.5494 H   0  0  0  0  0  0  0  0  0  0  0  0
   -5.8908   16.2141  -34.7851 H   0  0  0  0  0  0  0  0  0  0  0  0
   -4.3415   14.4700  -31.8016 H   0  0  0  0  0  0  0  0  0  0  0  0
   -5.1499   14.0502  -33.3498 H   0  0  0  0  0  0  0  0  0  0  0  0
   -3.7156   15.1317  -33.3498 H   0  0  0  0  0  0  0  0  0  0  0  0
   -5.2957   16.1416  -30.4952 H   0  0  0  0  0  0  0  0  0  0  0  0
   -6.7422   18.1588  -30.2618 H   0  0  0  0  0  0  0  0  0  0  0  0
  1  2  1  0
  2  3  1  0
  3  4  1  0
  4  5  1  0
  5  6  1  0
  6  7  2  0
  7  8  1  0
  8  9  2  0
  9 10  1  0
 10 11  2  0
 11 12  1  0
 12 13  2  0
 12 14  1  0
 14 15  1  0
 15 16  2  0
 15 17  2  0
 15 18  1  0
 18 19  2  0
 19 20  1  0
 20 21  2  0
 21 22  1  0
 21 23  1  0
 23 24  2  0
 14  4  2  0
 24 18  1  0
 11  6  1  0
  1 25  1  0
  1 26  1  0
  1 27  1  0
  2 28  1  0
  2 29  1  0
  3 30  1  0
  3 31  1  0
  5 32  1  0
  8 33  1  0
  9 34  1  0
 10 35  1  0
 19 36  1  0
 20 37  1  0
 22 38  1  0
 22 39  1  0
 22 40  1  0
 23 41  1  0
 24 42  1  0
M  END
>  <UniqueID>  (44) 
43

>  <SMILES>  (44) 
CCCc1[nH]c2ncccc2c(=O)c1S(=O)(=O)c1ccc(C)cc1

>  <Energy>  (44) 
50.2323173607888

>  <Genealogy>  (44) 
CCCc1[nH]c2ncccc2c(=O)c1S(=O)(=O)c1ccc(C)cc1 (3D coordinates assigned)
CCCc1[nH]c2ncccc2c(=O)c1S(=O)(=O)c1ccc(C)cc1 (optimized conformer: 50.2323173607888 kcal/mol)

>  <smiles>  (44) 
CCCc1[nH]c2ncccc2c(=O)c1S(=O)(=O)c1ccc(C)cc1

>  <score_type>  (44) 
oracle

>  <origin>  (44) 
adgpu

>  <m_score__min__energy>  (44) 
-8.7400000000000002

>  <m_primary>  (44) 
energy

$$$$
44:0
     RDKit          3D

 45 47  0  0  1  0  0  0  0  0999 V2000
   -0.9370   25.9510  -24.8150 C   0  0  0  0  0  0  0  0  0  0  0  0
   -1.2430   25.1140  -25.9870 C   0  0  0  0  0  0  0  0  0  0  0  0
   -1.8680   25.6500  -27.1070 C   0  0  0  0  0  0  0  0  0  0  0  0
   -2.1320   24.8280  -28.1760 C   0  0  0  0  0  0  0  0  0  0  0  0
   -2.7450   25.2300  -29.3420 O   0  0  0  0  0  0  0  0  0  0  0  0
   -3.8050   24.5330  -29.9260 C   0  0  0  0  0  0  0  0  0  0  0  0
   -3.6100   23.4280  -30.7310 C   0  0  0  0  0  0  0  0  0  0  0  0
   -4.6810   22.7400  -31.3100 C   0  0  0  0  0  0  0  0  0  0  0  0
   -5.9720   23.1750  -31.0720 C   0  0  0  0  0  0  0  0  0  0  0  0
   -7.3710   22.3600  -31.7660 S   0  0  0  0  0  0  0  0  0  0  0  0
   -8.3680   23.3460  -32.3070 O   0  0  0  0  0  0  0  0  0  0  0  0
   -8.0860   21.5480  -30.7090 O   0  0  0  0  0  0  0  0  0  0  0  0
   -6.9110   21.2680  -32.9980 N   0  0  0  0  0  0  0  0  0  0  0  0
   -6.7370   20.0200  -32.8380 C   0  0  0  0  0  0  0  0  0  0  0  0
   -6.3650   19.2700  -33.9340 C   0  0  0  0  0  0  0  0  0  0  0  0
   -6.1690   17.9130  -33.7930 C   0  0  0  0  0  0  0  0  0  0  0  0
   -6.3560   17.3950  -32.5690 N   0  0  0  0  0  0  0  0  0  0  0  0
   -6.7230   18.1620  -31.5100 C   0  0  0  0  0  0  0  0  0  0  0  0
   -6.9210   19.4940  -31.6270 N   0  0  0  0  0  0  0  0  0  0  0  0
   -6.1930   24.2830  -30.2660 C   0  0  0  0  0  0  0  0  0  0  0  0
   -5.1060   24.9440  -29.7070 C   0  0  0  0  0  0  0  0  0  0  0  0
   -1.7640   23.4800  -28.1060 C   0  0  0  0  0  0  0  0  0  0  0  0
   -1.1430   22.9540  -26.9920 C   0  0  0  0  0  0  0  0  0  0  0  0
   -0.7770   21.5040  -26.9830 C   0  0  0  0  0  0  0  0  0  0  0  0
   -0.8790   23.7740  -25.9210 C   0  0  0  0  0  0  0  0  0  0  0  0
   -0.2090   23.1960  -24.7260 C   0  0  0  0  0  0  0  0  0  0  0  0
   -1.1443   25.3841  -23.8954 H   0  0  0  0  0  0  0  0  0  0  0  0
    0.1245   26.2387  -24.8370 H   0  0  0  0  0  0  0  0  0  0  0  0
   -1.5626   26.8555  -24.8370 H   0  0  0  0  0  0  0  0  0  0  0  0
   -2.1464   26.7138  -27.1370 H   0  0  0  0  0  0  0  0  0  0  0  0
   -2.5843   23.0795  -30.9220 H   0  0  0  0  0  0  0  0  0  0  0  0
   -4.4986   21.8625  -31.9477 H   0  0  0  0  0  0  0  0  0  0  0  0
   -6.2258   19.7512  -34.9133 H   0  0  0  0  0  0  0  0  0  0  0  0
   -5.8728   17.2832  -34.6448 H   0  0  0  0  0  0  0  0  0  0  0  0
   -6.2100   16.3520  -32.4400 H   0  0  0  0  0  0  0  0  0  0  0  0
   -6.8632   17.6854  -30.5286 H   0  0  0  0  0  0  0  0  0  0  0  0
   -7.2172   24.6340  -30.0718 H   0  0  0  0  0  0  0  0  0  0  0  0
   -5.2869   25.8223  -29.0699 H   0  0  0  0  0  0  0  0  0  0  0  0
   -1.9754   22.8221  -28.9619 H   0  0  0  0  0  0  0  0  0  0  0  0
   -0.6888   21.1545  -25.9437 H   0  0  0  0  0  0  0  0  0  0  0  0
   -1.5573   20.9257  -27.4993 H   0  0  0  0  0  0  0  0  0  0  0  0
    0.1843   21.3653  -27.4993 H   0  0  0  0  0  0  0  0  0  0  0  0
   -0.6749   23.5979  -23.8142 H   0  0  0  0  0  0  0  0  0  0  0  0
   -0.3149   22.1012  -24.7399 H   0  0  0  0  0  0  0  0  0  0  0  0
    0.8584   23.4613  -24.7399 H   0  0  0  0  0  0  0  0  0  0  0  0
  1  2  1  0
  2  3  2  0
  3  4  1  0
  4  5  1  0
  5  6  1  0
  6  7  2  0
  7  8  1  0
  8  9  2  0
  9 10  1  0
 10 11  2  0
 10 12  2  0
 10 13  1  0
 13 14  2  0
 14 15  1  0
 15 16  2  0
 16 17  1  0
 17 18  1  0
 18 19  2  0
  9 20  1  0
 20 21  2  0
  4 22  2  0
 22 23  1  0
 23 24  1  0
 23 25  2  0
 25 26  1  0
 25  2  1  0
 21  6  1  0
 19 14  1  0
  1 27  1  0
  1 28  1  0
  1 29  1  0
  3 30  1  0
  7 31  1  0
  8 32  1  0
 15 33  1  0
 16 34  1  0
 17 35  1  0
 18 36  1  0
 20 37  1  0
 21 38  1  0
 22 39  1  0
 24 40  1  0
 24 41  1  0
 24 42  1  0
 26 43  1  0
 26 44  1  0
 26 45  1  0
M  END
>  <smiles>  (45) 
Cc1cc(Oc2ccc(S(=O)(=O)N=c3cc[nH]cn3)cc2)cc(C)c1C

>  <score_type>  (45) 
oracle

>  <origin>  (45) 
adgpu

>  <m_score__min__energy>  (45) 
-9.1699999999999999

>  <m_primary>  (45) 
energy

$$$$
45:0
     RDKit          3D

 45 49  0  0  0  0  0  0  0  0999 V2000
   -8.5080   21.3250  -32.0190 C   0  0  0  0  0  0  0  0  0  0  0  0
   -8.6820   22.6500  -31.6090 C   0  0  0  0  0  0  0  0  0  0  0  0
   -7.5830   23.4010  -31.1830 C   0  0  0  0  0  0  0  0  0  0  0  0
   -6.2960   22.8310  -31.1610 C   0  0  0  0  0  0  0  0  0  0  0  0
   -5.1320   23.6240  -30.7090 C   0  0  0  0  0  0  0  0  0  0  0  0
   -4.9100   24.9030  -31.0680 N   0  0  0  0  0  0  0  0  0  0  0  0
   -3.8060   25.2310  -30.4720 O   0  0  0  0  0  0  0  0  0  0  0  0
   -3.3570   24.2170  -29.7740 C   0  0  0  0  0  0  0  0  0  0  0  0
   -2.1110   24.2270  -28.9730 C   0  0  0  0  0  0  0  0  0  0  0  0
   -1.6140   25.4460  -28.4820 C   0  0  0  0  0  0  0  0  0  0  0  0
   -0.4760   25.4720  -27.6760 C   0  0  0  0  0  0  0  0  0  0  0  0
    0.1630   24.2760  -27.3600 C   0  0  0  0  0  0  0  0  0  0  0  0
   -0.3120   23.1030  -27.8490 N   0  0  0  0  0  0  0  0  0  0  0  0
   -1.4150   23.0390  -28.6450 C   0  0  0  0  0  0  0  0  0  0  0  0
   -1.8240   21.7640  -29.1640 N   0  0  0  0  0  0  0  0  0  0  0  0
   -1.4940   21.4130  -30.5440 C   0  0  0  0  0  0  0  0  0  0  0  0
   -0.1760   20.6350  -30.5600 C   0  0  0  0  0  0  0  0  0  0  0  0
   -0.1290   19.5680  -29.4890 C   0  0  0  0  0  0  0  0  0  0  0  0
    0.8470   18.5630  -29.5730 C   0  0  0  0  0  0  0  0  0  0  0  0
    0.9580   17.5970  -28.5700 C   0  0  0  0  0  0  0  0  0  0  0  0
    0.1030   17.6300  -27.4680 C   0  0  0  0  0  0  0  0  0  0  0  0
   -0.8640   18.6330  -27.3620 C   0  0  0  0  0  0  0  0  0  0  0  0
   -0.9790   19.6170  -28.3560 C   0  0  0  0  0  0  0  0  0  0  0  0
   -2.0710   20.6510  -28.2440 C   0  0  0  0  0  0  0  0  0  0  0  0
   -4.1700   23.1480  -29.8900 N   0  0  0  0  0  0  0  0  0  0  0  0
   -6.1340   21.4960  -31.5750 C   0  0  0  0  0  0  0  0  0  0  0  0
   -7.2370   20.7490  -32.0010 C   0  0  0  0  0  0  0  0  0  0  0  0
   -9.3736   20.7359  -32.3561 H   0  0  0  0  0  0  0  0  0  0  0  0
   -9.6848   23.1020  -31.6217 H   0  0  0  0  0  0  0  0  0  0  0  0
   -7.7245   24.4438  -30.8629 H   0  0  0  0  0  0  0  0  0  0  0  0
   -2.1259   26.3862  -28.7350 H   0  0  0  0  0  0  0  0  0  0  0  0
   -0.0874   26.4275  -27.2939 H   0  0  0  0  0  0  0  0  0  0  0  0
    1.0531   24.2822  -26.7138 H   0  0  0  0  0  0  0  0  0  0  0  0
   -2.2952   20.7895  -30.9674 H   0  0  0  0  0  0  0  0  0  0  0  0
   -1.3920   22.3283  -31.1455 H   0  0  0  0  0  0  0  0  0  0  0  0
   -0.0597   20.1554  -31.5431 H   0  0  0  0  0  0  0  0  0  0  0  0
    0.6388   21.3472  -30.3629 H   0  0  0  0  0  0  0  0  0  0  0  0
    1.5297   18.5357  -30.4351 H   0  0  0  0  0  0  0  0  0  0  0  0
    1.7211   16.8087  -28.6492 H   0  0  0  0  0  0  0  0  0  0  0  0
    0.1903   16.8656  -26.6818 H   0  0  0  0  0  0  0  0  0  0  0  0
   -1.5394   18.6515  -26.4940 H   0  0  0  0  0  0  0  0  0  0  0  0
   -3.0365   20.1853  -28.4910 H   0  0  0  0  0  0  0  0  0  0  0  0
   -2.0877   21.0389  -27.2148 H   0  0  0  0  0  0  0  0  0  0  0  0
   -5.1343   21.0373  -31.5635 H   0  0  0  0  0  0  0  0  0  0  0  0
   -7.1024   19.7056  -32.3224 H   0  0  0  0  0  0  0  0  0  0  0  0
  1  2  2  0
  2  3  1  0
  3  4  2  0
  4  5  1  0
  5  6  2  0
  6  7  1  0
  7  8  1  0
  8  9  1  0
  9 10  2  0
 10 11  1  0
 11 12  2  0
 12 13  1  0
 13 14  2  0
 14 15  1  0
 15 16  1  0
 16 17  1  0
 17 18  1  0
 18 19  2  0
 19 20  1  0
 20 21  2  0
 21 22  1  0
 22 23  2  0
 23 24  1  0
  8 25  2  0
  4 26  1  0
 26 27  2  0
 27  1  1  0
 25  5  1  0
 14  9  1  0
 24 15  1  0
 23 18  1  0
  1 28  1  0
  2 29  1  0
  3 30  1  0
 10 31  1  0
 11 32  1  0
 12 33  1  0
 16 34  1  0
 16 35  1  0
 17 36  1  0
 17 37  1  0
 19 38  1  0
 20 39  1  0
 21 40  1  0
 22 41  1  0
 24 42  1  0
 24 43  1  0
 26 44  1  0
 27 45  1  0
M  END
>  <UniqueID>  (46) 
44

>  <SMILES>  (46) 
c1ccc(-c2noc(-c3cccnc3N3CCc4ccccc4C3)n2)cc1

>  <Energy>  (46) 
94.31184075979837

>  <Genealogy>  (46) 
c1ccc(-c2noc(-c3cccnc3N3CCc4ccccc4C3)n2)cc1 (3D coordinates assigned)
c1ccc(-c2noc(-c3cccnc3N3CCc4ccccc4C3)n2)cc1 (nonaromatic ring conformer: 94.31184075979837 kcal/mol)

>  <smiles>  (46) 
c1ccc(-c2noc(-c3cccnc3N3CCc4ccccc4C3)n2)cc1

>  <score_type>  (46) 
oracle

>  <origin>  (46) 
adgpu

>  <m_score__min__energy>  (46) 
-9.3599999999999994

>  <m_primary>  (46) 
energy

$$$$
