0:0
     RDKit          3D

 52 55  0  0  0  0  0  0  0  0999 V2000
   -7.1450   17.3980  -32.4770 C   0  0  0  0  0  0  0  0  0  0  0  0
   -7.3950   18.8680  -32.3140 C   0  0  0  0  0  0  0  0  0  0  0  0
   -8.5830   19.4390  -32.7960 C   0  0  0  0  0  0  0  0  0  0  0  0
   -8.8380   20.8020  -32.6150 C   0  0  0  0  0  0  0  0  0  0  0  0
   -7.9110   21.6080  -31.9340 C   0  0  0  0  0  0  0  0  0  0  0  0
   -8.1220   22.9810  -31.7260 C   0  0  0  0  0  0  0  0  0  0  0  0
   -9.1620   23.5510  -32.1500 O   0  0  0  0  0  0  0  0  0  0  0  0
   -7.1610   23.7230  -31.0360 C   0  0  0  0  0  0  0  0  0  0  0  0
   -6.0040   23.0810  -30.5630 C   0  0  0  0  0  0  0  0  0  0  0  0
   -4.9630   23.8300  -29.8300 C   0  0  0  0  0  0  0  0  0  0  0  0
   -4.1580   24.5680  -30.4620 O   0  0  0  0  0  0  0  0  0  0  0  0
   -4.8920   23.7460  -28.3970 N   0  0  0  0  0  0  0  0  0  0  0  0
   -3.7750   24.2110  -27.6200 C   0  0  0  0  0  0  0  0  0  0  0  0
   -3.9340   25.1810  -26.6150 C   0  0  0  0  0  0  0  0  0  0  0  0
   -2.8270   25.6350  -25.8930 C   0  0  0  0  0  0  0  0  0  0  0  0
   -1.5520   25.1410  -26.1780 C   0  0  0  0  0  0  0  0  0  0  0  0
   -1.3740   24.1960  -27.1960 C   0  0  0  0  0  0  0  0  0  0  0  0
    0.2420   23.6010  -27.5840 S   0  0  0  0  0  0  0  0  0  0  0  0
    1.2260   24.1570  -26.5930 O   0  0  0  0  0  0  0  0  0  0  0  0
    0.6350   24.0880  -28.9510 O   0  0  0  0  0  0  0  0  0  0  0  0
    0.3080   21.8540  -27.5450 N   0  0  0  0  0  0  0  0  0  0  0  0
   -0.0410   21.2970  -28.8710 C   0  0  0  0  0  0  0  0  0  0  0  0
   -0.3980   19.8110  -28.7750 C   0  0  0  0  0  0  0  0  0  0  0  0
   -1.6370   19.5950  -27.8870 C   0  0  0  0  0  0  0  0  0  0  0  0
   -1.8270   20.7140  -26.8490 C   0  0  0  0  0  0  0  0  0  0  0  0
   -0.4770   21.3010  -26.4130 C   0  0  0  0  0  0  0  0  0  0  0  0
   -2.4870   23.7360  -27.9130 C   0  0  0  0  0  0  0  0  0  0  0  0
   -5.8370   21.7780  -30.7800 O   0  0  0  0  0  0  0  0  0  0  0  0
   -6.7230   21.0310  -31.4320 C   0  0  0  0  0  0  0  0  0  0  0  0
   -6.4760   19.6680  -31.6190 C   0  0  0  0  0  0  0  0  0  0  0  0
   -7.0650   16.9276  -31.4859 H   0  0  0  0  0  0  0  0  0  0  0  0
   -7.9788   16.9436  -33.0323 H   0  0  0  0  0  0  0  0  0  0  0  0
   -6.2079   17.2448  -33.0323 H   0  0  0  0  0  0  0  0  0  0  0  0
   -9.3183   18.8103  -33.3195 H   0  0  0  0  0  0  0  0  0  0  0  0
   -9.7662   21.2437  -33.0066 H   0  0  0  0  0  0  0  0  0  0  0  0
   -7.3083   24.7995  -30.8644 H   0  0  0  0  0  0  0  0  0  0  0  0
   -5.7340   23.4060  -27.8810 H   0  0  0  0  0  0  0  0  0  0  0  0
   -4.9337   25.5842  -26.3961 H   0  0  0  0  0  0  0  0  0  0  0  0
   -2.9601   26.3835  -25.0980 H   0  0  0  0  0  0  0  0  0  0  0  0
   -0.6851   25.4953  -25.6011 H   0  0  0  0  0  0  0  0  0  0  0  0
   -0.9037   21.8472  -29.2748 H   0  0  0  0  0  0  0  0  0  0  0  0
    0.8321   21.4019  -29.5318 H   0  0  0  0  0  0  0  0  0  0  0  0
   -0.6075   19.4259  -29.7839 H   0  0  0  0  0  0  0  0  0  0  0  0
    0.4515   19.2759  -28.3257 H   0  0  0  0  0  0  0  0  0  0  0  0
   -2.5285   19.5569  -28.5303 H   0  0  0  0  0  0  0  0  0  0  0  0
   -1.4910   18.6536  -27.3371 H   0  0  0  0  0  0  0  0  0  0  0  0
   -2.4400   21.5133  -27.2910 H   0  0  0  0  0  0  0  0  0  0  0  0
   -2.3240   20.2885  -25.9647 H   0  0  0  0  0  0  0  0  0  0  0  0
   -0.6631   22.1075  -25.6885 H   0  0  0  0  0  0  0  0  0  0  0  0
    0.1114   20.4819  -25.9738 H   0  0  0  0  0  0  0  0  0  0  0  0
   -2.3497   22.9947  -28.7140 H   0  0  0  0  0  0  0  0  0  0  0  0
   -5.5548   19.2197  -31.2185 H   0  0  0  0  0  0  0  0  0  0  0  0
  1  2  1  0
  2  3  2  0
  3  4  1  0
  4  5  2  0
  5  6  1  0
  6  7  2  0
  6  8  1  0
  8  9  2  0
  9 10  1  0
 10 11  2  0
 10 12  1  0
 12 13  1  0
 13 14  2  0
 14 15  1  0
 15 16  2  0
 16 17  1  0
 17 18  1  0
 18 19  2  0
 18 20  2  0
 18 21  1  0
 21 22  1  0
 22 23  1  0
 23 24  1  0
 24 25  1  0
 25 26  1  0
 17 27  2  0
  9 28  1  0
 28 29  1  0
 29 30  2  0
 30  2  1  0
 29  5  1  0
 27 13  1  0
 26 21  1  0
  1 31  1  0
  1 32  1  0
  1 33  1  0
  3 34  1  0
  4 35  1  0
  8 36  1  0
 12 37  1  0
 14 38  1  0
 15 39  1  0
 16 40  1  0
 22 41  1  0
 22 42  1  0
 23 43  1  0
 23 44  1  0
 24 45  1  0
 24 46  1  0
 25 47  1  0
 25 48  1  0
 26 49  1  0
 26 50  1  0
 27 51  1  0
 30 52  1  0
M  END
>  <UniqueID>  (1) 
1

>  <SMILES>  (1) 
Cc1ccc2c(=O)cc(C(=O)Nc3cccc(S(=O)(=O)N4CCCCC4)c3)oc2c1

>  <Energy>  (1) 
67.38309878587526

>  <Genealogy>  (1) 
Cc1ccc2c(=O)cc(C(=O)Nc3cccc(S(=O)(=O)N4CCCCC4)c3)oc2c1 (3D coordinates assigned)
Cc1ccc2c(=O)cc(C(=O)Nc3cccc(S(=O)(=O)N4CCCCC4)c3)oc2c1 (nonaromatic ring conformer: 67.38309878587526 kcal/mol)

>  <smiles>  (1) 
Cc1ccc2c(=O)cc(C(=O)Nc3cccc(S(=O)(=O)N4CCCCC4)c3)oc2c1

>  <score_type>  (1) 
oracle

>  <origin>  (1) 
adgpu

>  <m_score__min__energy>  (1) 
-10.75

>  <m_primary>  (1) 
energy

$$$$
1:0
     RDKit          3D

 49 51  0  0  0  0  0  0  0  0999 V2000
   -9.0290   21.5710  -30.5120 C   0  0  0  0  0  0  0  0  0  0  0  0
   -8.5740   21.1760  -32.2300 S   0  0  0  0  0  0  0  0  0  0  0  0
   -6.9070   21.8400  -32.0770 C   0  0  0  0  0  0  0  0  0  0  0  0
   -6.7510   23.1040  -31.4920 C   0  0  0  0  0  0  0  0  0  0  0  0
   -5.4820   23.6930  -31.3700 C   0  0  0  0  0  0  0  0  0  0  0  0
   -5.3260   25.0350  -30.7630 C   0  0  0  0  0  0  0  0  0  0  0  0
   -4.0470   25.6630  -30.7080 N   0  0  0  0  0  0  0  0  0  0  0  0
   -6.3270   25.6380  -30.2860 O   0  0  0  0  0  0  0  0  0  0  0  0
   -4.3610   22.9890  -31.8390 C   0  0  0  0  0  0  0  0  0  0  0  0
   -4.5050   21.7200  -32.4040 C   0  0  0  0  0  0  0  0  0  0  0  0
   -5.7700   21.1280  -32.5210 C   0  0  0  0  0  0  0  0  0  0  0  0
   -5.8920   19.4940  -33.1920 S   0  0  0  0  0  0  0  0  0  0  0  0
   -6.8600   18.6670  -32.3910 O   0  0  0  0  0  0  0  0  0  0  0  0
   -6.4060   19.5760  -34.6030 O   0  0  0  0  0  0  0  0  0  0  0  0
   -4.3180   18.7090  -33.1490 C   0  0  0  0  0  0  0  0  0  0  0  0
   -4.2280   17.3210  -33.3200 C   0  0  0  0  0  0  0  0  0  0  0  0
   -2.9880   16.6820  -33.2300 C   0  0  0  0  0  0  0  0  0  0  0  0
   -1.8340   17.4240  -32.9650 C   0  0  0  0  0  0  0  0  0  0  0  0
   -1.9140   18.8140  -32.8020 C   0  0  0  0  0  0  0  0  0  0  0  0
   -0.4870   19.7570  -32.3880 S   0  0  0  0  0  0  0  0  0  0  0  0
   -0.4010   20.9640  -33.2800 O   0  0  0  0  0  0  0  0  0  0  0  0
    0.7580   18.9360  -32.5810 O   0  0  0  0  0  0  0  0  0  0  0  0
   -0.6220   20.2570  -30.7070 C   0  0  0  0  0  0  0  0  0  0  0  0
   -0.1830   19.4120  -29.6790 C   0  0  0  0  0  0  0  0  0  0  0  0
   -0.3430   19.7900  -28.3440 C   0  0  0  0  0  0  0  0  0  0  0  0
   -0.9530   21.0070  -28.0280 C   0  0  0  0  0  0  0  0  0  0  0  0
   -1.4100   21.8520  -29.0480 C   0  0  0  0  0  0  0  0  0  0  0  0
   -2.1970   23.3740  -28.6460 S   0  0  0  0  0  0  0  0  0  0  0  0
   -1.3280   24.6810  -29.3660 N   0  0  0  0  0  0  0  0  0  0  0  0
   -3.6120   23.3720  -29.1530 O   0  0  0  0  0  0  0  0  0  0  0  0
   -2.2200   23.5490  -27.1530 O   0  0  0  0  0  0  0  0  0  0  0  0
   -1.2330   21.4770  -30.3880 C   0  0  0  0  0  0  0  0  0  0  0  0
   -3.1560   19.4530  -32.9010 C   0  0  0  0  0  0  0  0  0  0  0  0
   -8.3816   21.0090  -29.8228 H   0  0  0  0  0  0  0  0  0  0  0  0
   -8.9014   22.6496  -30.3376 H   0  0  0  0  0  0  0  0  0  0  0  0
  -10.0789   21.2931  -30.3376 H   0  0  0  0  0  0  0  0  0  0  0  0
   -7.6360   23.6429  -31.1228 H   0  0  0  0  0  0  0  0  0  0  0  0
   -3.1990   25.1320  -30.4090 H   0  0  0  0  0  0  0  0  0  0  0  0
   -3.3612   23.4409  -31.7607 H   0  0  0  0  0  0  0  0  0  0  0  0
   -3.6161   21.1793  -32.7610 H   0  0  0  0  0  0  0  0  0  0  0  0
   -5.1348   16.7332  -33.5254 H   0  0  0  0  0  0  0  0  0  0  0  0
   -2.9205   15.5928  -33.3681 H   0  0  0  0  0  0  0  0  0  0  0  0
   -0.8613   16.9166  -32.8842 H   0  0  0  0  0  0  0  0  0  0  0  0
    0.2886   18.4489  -29.9240 H   0  0  0  0  0  0  0  0  0  0  0  0
    0.0118   19.1286  -27.5398 H   0  0  0  0  0  0  0  0  0  0  0  0
   -1.0747   21.3024  -26.9754 H   0  0  0  0  0  0  0  0  0  0  0  0
   -2.0340   25.3030  -29.8200 H   0  0  0  0  0  0  0  0  0  0  0  0
   -1.5757   22.1442  -31.1927 H   0  0  0  0  0  0  0  0  0  0  0  0
   -3.2203   20.5448  -32.7835 H   0  0  0  0  0  0  0  0  0  0  0  0
  1  2  1  0
  2  3  1  0
  3  4  2  0
  4  5  1  0
  5  6  1  0
  6  7  1  0
  6  8  2  0
  5  9  2  0
  9 10  1  0
 10 11  2  0
 11 12  1  0
 12 13  2  0
 12 14  2  0
 12 15  1  0
 15 16  2  0
 16 17  1  0
 17 18  2  0
 18 19  1  0
 19 20  1  0
 20 21  2  0
 20 22  2  0
 20 23  1  0
 23 24  2  0
 24 25  1  0
 25 26  2  0
 26 27  1  0
 27 28  1  0
 28 29  1  0
 28 30  2  0
 28 31  2  0
 27 32  2  0
 19 33  2  0
 11  3  1  0
 33 15  1  0
 32 23  1  0
  1 34  1  0
  1 35  1  0
  1 36  1  0
  4 37  1  0
  7 38  1  0
  9 39  1  0
 10 40  1  0
 16 41  1  0
 17 42  1  0
 18 43  1  0
 24 44  1  0
 25 45  1  0
 26 46  1  0
 29 47  1  0
 32 48  1  0
 33 49  1  0
M  CHG  2   7  -1  29  -1
M  END
>  <UniqueID>  (2) 
2

>  <SMILES>  (2) 
CSc1cc(C([NH-])=O)ccc1S(=O)(=O)c1cccc(S(=O)(=O)c2cccc(S([NH-])(=O)=O)c2)c1

>  <Energy>  (2) 
48.364754480922954

>  <Genealogy>  (2) 
CSc1cc(C([NH-])=O)ccc1S(=O)(=O)c1cccc(S(=O)(=O)c2cccc(S([NH-])(=O)=O)c2)c1 (protonated)
CSc1cc(C([NH-])=O)ccc1S(=O)(=O)c1cccc(S(=O)(=O)c2cccc(S([NH-])(=O)=O)c2)c1 (3D coordinates assigned)
CSc1cc(C([NH-])=O)ccc1S(=O)(=O)c1cccc(S(=O)(=O)c2cccc(S([NH-])(=O)=O)c2)c1 (optimized conformer: 48.364754480922954 kcal/mol)

>  <smiles>  (2) 
CSc1cc(C(N)=O)ccc1S(=O)(=O)c1cccc(S(=O)(=O)c2cccc(S(N)(=O)=O)c2)c1

>  <score_type>  (2) 
oracle

>  <origin>  (2) 
adgpu

>  <m_score__min__energy>  (2) 
-14.08

>  <m_primary>  (2) 
energy

$$$$
2:0
     RDKit          3D

 41 43  0  0  0  0  0  0  0  0999 V2000
   -1.6580   23.1720  -30.0550 O   0  0  0  0  0  0  0  0  0  0  0  0
   -2.1540   24.1550  -29.4430 C   0  0  0  0  0  0  0  0  0  0  0  0
   -3.2370   24.8680  -30.0570 N   0  0  0  0  0  0  0  0  0  0  0  0
   -4.4690   24.2980  -30.5230 C   0  0  0  0  0  0  0  0  0  0  0  0
   -5.6900   24.9870  -30.4120 C   0  0  0  0  0  0  0  0  0  0  0  0
   -6.8740   24.3920  -30.8570 C   0  0  0  0  0  0  0  0  0  0  0  0
   -6.8520   23.1050  -31.4010 C   0  0  0  0  0  0  0  0  0  0  0  0
   -5.6440   22.4050  -31.5010 C   0  0  0  0  0  0  0  0  0  0  0  0
   -5.6310   20.7680  -32.1530 S   0  0  0  0  0  0  0  0  0  0  0  0
   -4.5440   19.9650  -31.4900 O   0  0  0  0  0  0  0  0  0  0  0  0
   -5.3420   20.8360  -33.6260 O   0  0  0  0  0  0  0  0  0  0  0  0
   -7.1840   20.0160  -31.8920 N   0  0  0  0  0  0  0  0  0  0  0  0
   -7.0360   18.5500  -31.8630 C   0  0  0  0  0  0  0  0  0  0  0  0
   -8.4100   17.8560  -31.9420 C   0  0  0  0  0  0  0  0  0  0  0  0
   -9.4560   18.7760  -31.7000 O   0  0  0  0  0  0  0  0  0  0  0  0
   -9.4900   19.7440  -32.7340 C   0  0  0  0  0  0  0  0  0  0  0  0
   -8.1160   20.4140  -32.9560 C   0  0  0  0  0  0  0  0  0  0  0  0
   -4.4580   22.9990  -31.0480 C   0  0  0  0  0  0  0  0  0  0  0  0
   -1.5640   24.5850  -28.1520 C   0  0  0  0  0  0  0  0  0  0  0  0
   -1.4350   23.6620  -27.0970 C   0  0  0  0  0  0  0  0  0  0  0  0
   -0.8870   24.0580  -25.8730 C   0  0  0  0  0  0  0  0  0  0  0  0
   -0.4720   25.3770  -25.6850 C   0  0  0  0  0  0  0  0  0  0  0  0
   -0.6040   26.3050  -26.7190 C   0  0  0  0  0  0  0  0  0  0  0  0
   -1.1480   25.9170  -27.9500 C   0  0  0  0  0  0  0  0  0  0  0  0
   -1.2540   26.8600  -28.9690 O   0  0  0  0  0  0  0  0  0  0  0  0
   -5.7133   25.9959  -29.9742 H   0  0  0  0  0  0  0  0  0  0  0  0
   -7.8256   24.9383  -30.7788 H   0  0  0  0  0  0  0  0  0  0  0  0
   -7.7859   22.6411  -31.7513 H   0  0  0  0  0  0  0  0  0  0  0  0
   -6.4228   18.2331  -32.7195 H   0  0  0  0  0  0  0  0  0  0  0  0
   -6.5523   18.2646  -30.9172 H   0  0  0  0  0  0  0  0  0  0  0  0
   -8.5370   17.4223  -32.9449 H   0  0  0  0  0  0  0  0  0  0  0  0
   -8.4503   17.0691  -31.1744 H   0  0  0  0  0  0  0  0  0  0  0  0
   -9.7989   19.2526  -33.6684 H   0  0  0  0  0  0  0  0  0  0  0  0
  -10.2024   20.5279  -32.4374 H   0  0  0  0  0  0  0  0  0  0  0  0
   -7.7116   20.1014  -33.9300 H   0  0  0  0  0  0  0  0  0  0  0  0
   -8.2402   21.5068  -32.9365 H   0  0  0  0  0  0  0  0  0  0  0  0
   -3.5116   22.4412  -31.1051 H   0  0  0  0  0  0  0  0  0  0  0  0
   -1.7674   22.6227  -27.2363 H   0  0  0  0  0  0  0  0  0  0  0  0
   -0.7828   23.3282  -25.0566 H   0  0  0  0  0  0  0  0  0  0  0  0
   -0.0406   25.6855  -24.7213 H   0  0  0  0  0  0  0  0  0  0  0  0
   -0.2796   27.3450  -26.5667 H   0  0  0  0  0  0  0  0  0  0  0  0
  1  2  2  0
  2  3  1  0
  3  4  1  0
  4  5  2  0
  5  6  1  0
  6  7  2  0
  7  8  1  0
  8  9  1  0
  9 10  2  0
  9 11  2  0
  9 12  1  0
 12 13  1  0
 13 14  1  0
 14 15  1  0
 15 16  1  0
 16 17  1  0
  8 18  2  0
  2 19  1  0
 19 20  2  0
 20 21  1  0
 21 22  2  0
 22 23  1  0
 23 24  2  0
 24 25  1  0
 18  4  1  0
 24 19  1  0
 17 12  1  0
  5 26  1  0
  6 27  1  0
  7 28  1  0
 13 29  1  0
 13 30  1  0
 14 31  1  0
 14 32  1  0
 16 33  1  0
 16 34  1  0
 17 35  1  0
 17 36  1  0
 18 37  1  0
 20 38  1  0
 21 39  1  0
 22 40  1  0
 23 41  1  0
M  CHG  2   3  -1  25  -1
M  END
>  <UniqueID>  (3) 
3

>  <SMILES>  (3) 
O=C([N-]c1cccc(S(=O)(=O)N2CCOCC2)c1)c1ccccc1[O-]

>  <Energy>  (3) 
57.74435944323428

>  <Genealogy>  (3) 
O=C([N-]c1cccc(S(=O)(=O)N2CCOCC2)c1)c1ccccc1[O-] (protonated)
O=C([N-]c1cccc(S(=O)(=O)N2CCOCC2)c1)c1ccccc1[O-] (3D coordinates assigned)
O=C([N-]c1cccc(S(=O)(=O)N2CCOCC2)c1)c1ccccc1[O-] (nonaromatic ring conformer: 57.74435944323428 kcal/mol)

>  <smiles>  (3) 
O=C(Nc1cccc(S(=O)(=O)N2CCOCC2)c1)c1ccccc1O

>  <score_type>  (3) 
oracle

>  <origin>  (3) 
adgpu

>  <m_score__min__energy>  (3) 
-13.33

>  <m_primary>  (3) 
energy

$$$$
3:0
     RDKit          3D

 35 37  0  0  0  0  0  0  0  0999 V2000
   -7.7130   22.9840  -30.5920 O   0  0  0  0  0  0  0  0  0  0  0  0
   -7.0230   22.0320  -31.0400 C   0  0  0  0  0  0  0  0  0  0  0  0
   -7.6060   20.8180  -31.2160 N   0  0  0  0  0  0  0  0  0  0  0  0
   -6.8960   19.7560  -31.6680 C   0  0  0  0  0  0  0  0  0  0  0  0
   -5.5820   19.8970  -31.9710 N   0  0  0  0  0  0  0  0  0  0  0  0
   -4.9430   21.0880  -31.8270 C   0  0  0  0  0  0  0  0  0  0  0  0
   -3.5690   21.1890  -32.2340 N   0  0  0  0  0  0  0  0  0  0  0  0
   -3.2290   21.4360  -33.6420 C   0  0  0  0  0  0  0  0  0  0  0  0
   -2.1860   20.4170  -34.1090 C   0  0  0  0  0  0  0  0  0  0  0  0
   -0.9330   20.3670  -33.1860 C   0  0  0  0  0  0  0  0  0  0  0  0
    0.3350   20.8470  -33.9160 C   0  0  0  0  0  0  0  0  0  0  0  0
    0.0750   21.9970  -34.6810 O   0  0  0  0  0  0  0  0  0  0  0  0
   -1.1250   21.1270  -31.8520 C   0  0  0  0  0  0  0  0  0  0  0  0
   -2.5150   20.8730  -31.2620 C   0  0  0  0  0  0  0  0  0  0  0  0
   -5.6550   22.2050  -31.3320 C   0  0  0  0  0  0  0  0  0  0  0  0
   -4.9830   23.4990  -31.0650 C   0  0  0  0  0  0  0  0  0  0  0  0
   -5.5000   24.7670  -31.2300 C   0  0  0  0  0  0  0  0  0  0  0  0
   -4.5760   25.6690  -30.8470 N   0  0  0  0  0  0  0  0  0  0  0  0
   -3.4950   25.0210  -30.4370 N   0  0  0  0  0  0  0  0  0  0  0  0
   -3.7170   23.6990  -30.5570 C   0  0  0  0  0  0  0  0  0  0  0  0
   -7.3861   18.7787  -31.7892 H   0  0  0  0  0  0  0  0  0  0  0  0
   -4.1348   21.3405  -34.2588 H   0  0  0  0  0  0  0  0  0  0  0  0
   -2.8170   22.4508  -33.7440 H   0  0  0  0  0  0  0  0  0  0  0  0
   -2.6511   19.4203  -34.1239 H   0  0  0  0  0  0  0  0  0  0  0  0
   -1.8475   20.7255  -35.1091 H   0  0  0  0  0  0  0  0  0  0  0  0
   -0.7992   19.3066  -32.9261 H   0  0  0  0  0  0  0  0  0  0  0  0
    1.1116   21.0786  -33.1722 H   0  0  0  0  0  0  0  0  0  0  0  0
    0.6723   20.0473  -34.5918 H   0  0  0  0  0  0  0  0  0  0  0  0
   -0.8710   21.9410  -34.9770 H   0  0  0  0  0  0  0  0  0  0  0  0
   -0.3636   20.7884  -31.1339 H   0  0  0  0  0  0  0  0  0  0  0  0
   -1.0228   22.2045  -32.0485 H   0  0  0  0  0  0  0  0  0  0  0  0
   -2.5958   19.8138  -30.9765 H   0  0  0  0  0  0  0  0  0  0  0  0
   -2.6449   21.5219  -30.3833 H   0  0  0  0  0  0  0  0  0  0  0  0
   -6.5040   25.0033  -31.6123 H   0  0  0  0  0  0  0  0  0  0  0  0
   -3.0029   22.9053  -30.2922 H   0  0  0  0  0  0  0  0  0  0  0  0
  1  2  2  0
  2  3  1  0
  3  4  1  0
  4  5  2  0
  5  6  1  0
  6  7  1  0
  7  8  1  0
  8  9  1  0
  9 10  1  0
 10 11  1  0
 11 12  1  0
 10 13  1  0
 13 14  1  0
  6 15  2  0
 15 16  1  0
 16 17  1  0
 17 18  2  0
 18 19  1  0
 19 20  1  0
 15  2  1  0
 20 16  2  0
 14  7  1  0
  4 21  1  0
  8 22  1  0
  8 23  1  0
  9 24  1  0
  9 25  1  0
 10 26  1  0
 11 27  1  0
 11 28  1  0
 12 29  1  0
 13 30  1  0
 13 31  1  0
 14 32  1  0
 14 33  1  0
 17 34  1  0
 20 35  1  0
M  CHG  2   3  -1  19  -1
M  END
>  <UniqueID>  (4) 
4

>  <SMILES>  (4) 
O=c1[n-]cnc(N2CCC(CO)CC2)c1-c1cn[n-]c1

>  <Energy>  (4) 
78.48926745265825

>  <Genealogy>  (4) 
O=c1[n-]cnc(N2CCC(CO)CC2)c1-c1cn[n-]c1 (protonated)
O=c1[n-]cnc(N2CCC(CO)CC2)c1-c1cn[n-]c1 (3D coordinates assigned)
O=c1[n-]cnc(N2CCC(CO)CC2)c1-c1cn[n-]c1 (nonaromatic ring conformer: 78.48926745265825 kcal/mol)

>  <smiles>  (4) 
O=c1[nH]cnc(N2CCC(CO)CC2)c1-c1cn[nH]c1

>  <score_type>  (4) 
oracle

>  <origin>  (4) 
adgpu

>  <m_score__min__energy>  (4) 
-8.4600000000000009

>  <m_primary>  (4) 
energy

$$$$
4:0
     RDKit          3D

 54 57  0  0  0  0  0  0  0  0999 V2000
   -9.0760   18.4890  -31.2790 C   0  0  0  0  0  0  0  0  0  0  0  0
   -8.9830   19.4660  -32.3090 O   0  0  0  0  0  0  0  0  0  0  0  0
   -8.2700   20.6700  -32.2030 C   0  0  0  0  0  0  0  0  0  0  0  0
   -8.9010   21.8860  -31.8800 C   0  0  0  0  0  0  0  0  0  0  0  0
   -8.1590   23.0660  -31.7840 C   0  0  0  0  0  0  0  0  0  0  0  0
   -6.7730   23.0470  -31.9810 C   0  0  0  0  0  0  0  0  0  0  0  0
   -5.9720   24.2220  -31.8240 N   0  0  0  0  0  0  0  0  0  0  0  0
   -5.0180   24.5990  -30.4270 S   0  0  0  0  0  0  0  0  0  0  0  0
   -5.9190   25.1260  -29.3420 O   0  0  0  0  0  0  0  0  0  0  0  0
   -4.0200   25.6610  -30.7920 O   0  0  0  0  0  0  0  0  0  0  0  0
   -4.1320   23.1850  -29.8580 C   0  0  0  0  0  0  0  0  0  0  0  0
   -4.1820   22.8300  -28.5040 C   0  0  0  0  0  0  0  0  0  0  0  0
   -3.4100   21.7690  -28.0240 C   0  0  0  0  0  0  0  0  0  0  0  0
   -2.5750   21.0500  -28.8940 C   0  0  0  0  0  0  0  0  0  0  0  0
   -1.7250   19.9430  -28.3840 C   0  0  0  0  0  0  0  0  0  0  0  0
   -2.0660   19.2700  -27.1970 C   0  0  0  0  0  0  0  0  0  0  0  0
   -1.2640   18.2290  -26.7180 C   0  0  0  0  0  0  0  0  0  0  0  0
   -0.1060   17.8560  -27.4140 C   0  0  0  0  0  0  0  0  0  0  0  0
    0.2440   18.5200  -28.5930 C   0  0  0  0  0  0  0  0  0  0  0  0
   -0.5640   19.5550  -29.0800 C   0  0  0  0  0  0  0  0  0  0  0  0
   -2.5440   21.4000  -30.2540 C   0  0  0  0  0  0  0  0  0  0  0  0
   -3.3180   22.4570  -30.7330 C   0  0  0  0  0  0  0  0  0  0  0  0
   -6.1490   21.8540  -32.3480 C   0  0  0  0  0  0  0  0  0  0  0  0
   -6.8830   20.6620  -32.4450 C   0  0  0  0  0  0  0  0  0  0  0  0
   -6.2080   19.4420  -32.7910 N   0  0  0  0  0  0  0  0  0  0  0  0
   -5.7320   19.2240  -34.1540 C   0  0  0  0  0  0  0  0  0  0  0  0
   -6.0110   17.7800  -34.6070 C   0  0  0  0  0  0  0  0  0  0  0  0
   -6.0720   16.7800  -33.5180 N   0  0  0  0  0  0  0  0  0  0  0  0
   -5.2990   17.1820  -32.3370 C   0  0  0  0  0  0  0  0  0  0  0  0
   -5.8990   18.4570  -31.7400 C   0  0  0  0  0  0  0  0  0  0  0  0
   -9.0288   18.9847  -30.2981 H   0  0  0  0  0  0  0  0  0  0  0  0
  -10.0296   17.9486  -31.3712 H   0  0  0  0  0  0  0  0  0  0  0  0
   -8.2414   17.7784  -31.3712 H   0  0  0  0  0  0  0  0  0  0  0  0
   -9.9863   21.9075  -31.7018 H   0  0  0  0  0  0  0  0  0  0  0  0
   -8.6661   24.0143  -31.5526 H   0  0  0  0  0  0  0  0  0  0  0  0
   -4.8322   23.3892  -27.8152 H   0  0  0  0  0  0  0  0  0  0  0  0
   -3.4566   21.4957  -26.9595 H   0  0  0  0  0  0  0  0  0  0  0  0
   -2.9690   19.5642  -26.6419 H   0  0  0  0  0  0  0  0  0  0  0  0
   -1.5426   17.7021  -25.7934 H   0  0  0  0  0  0  0  0  0  0  0  0
    0.5269   17.0412  -27.0326 H   0  0  0  0  0  0  0  0  0  0  0  0
    1.1541   18.2296  -29.1384 H   0  0  0  0  0  0  0  0  0  0  0  0
   -0.2897   20.0687  -30.0132 H   0  0  0  0  0  0  0  0  0  0  0  0
   -1.9035   20.8354  -30.9476 H   0  0  0  0  0  0  0  0  0  0  0  0
   -3.2884   22.7189  -31.8010 H   0  0  0  0  0  0  0  0  0  0  0  0
   -5.0703   21.8480  -32.5635 H   0  0  0  0  0  0  0  0  0  0  0  0
   -6.2477   19.9203  -34.8316 H   0  0  0  0  0  0  0  0  0  0  0  0
   -4.6461   19.3975  -34.1797 H   0  0  0  0  0  0  0  0  0  0  0  0
   -6.9765   17.7689  -35.1340 H   0  0  0  0  0  0  0  0  0  0  0  0
   -5.1612   17.4891  -35.2420 H   0  0  0  0  0  0  0  0  0  0  0  0
   -7.0760   16.6380  -33.2380 H   0  0  0  0  0  0  0  0  0  0  0  0
   -5.3301   16.3772  -31.5878 H   0  0  0  0  0  0  0  0  0  0  0  0
   -4.2560   17.3719  -32.6305 H   0  0  0  0  0  0  0  0  0  0  0  0
   -6.8250   18.2012  -31.2042 H   0  0  0  0  0  0  0  0  0  0  0  0
   -5.1634   18.8998  -31.0524 H   0  0  0  0  0  0  0  0  0  0  0  0
  1  2  1  0
  2  3  1  0
  3  4  2  0
  4  5  1  0
  5  6  2  0
  6  7  1  0
  7  8  1  0
  8  9  2  0
  8 10  2  0
  8 11  1  0
 11 12  2  0
 12 13  1  0
 13 14  2  0
 14 15  1  0
 15 16  2  0
 16 17  1  0
 17 18  2  0
 18 19  1  0
 19 20  2  0
 14 21  1  0
 21 22  2  0
  6 23  1  0
 23 24  2  0
 24 25  1  0
 25 26  1  0
 26 27  1  0
 27 28  1  0
 28 29  1  0
 29 30  1  0
 24  3  1  0
 30 25  1  0
 22 11  1  0
 20 15  1  0
  1 31  1  0
  1 32  1  0
  1 33  1  0
  4 34  1  0
  5 35  1  0
 12 36  1  0
 13 37  1  0
 16 38  1  0
 17 39  1  0
 18 40  1  0
 19 41  1  0
 20 42  1  0
 21 43  1  0
 22 44  1  0
 23 45  1  0
 26 46  1  0
 26 47  1  0
 27 48  1  0
 27 49  1  0
 28 50  1  0
 29 51  1  0
 29 52  1  0
 30 53  1  0
 30 54  1  0
M  CHG  1   7  -1
M  END
>  <UniqueID>  (5) 
5

>  <SMILES>  (5) 
COc1ccc([N-]S(=O)(=O)c2ccc(-c3ccccc3)cc2)cc1N1CCNCC1

>  <Energy>  (5) 
77.78910811962609

>  <Genealogy>  (5) 
COc1ccc([N-]S(=O)(=O)c2ccc(-c3ccccc3)cc2)cc1N1CCNCC1 (protonated)
COc1ccc([N-]S(=O)(=O)c2ccc(-c3ccccc3)cc2)cc1N1CCNCC1 (3D coordinates assigned)
COc1ccc([N-]S(=O)(=O)c2ccc(-c3ccccc3)cc2)cc1N1CCNCC1 (nonaromatic ring conformer: 77.78910811962609 kcal/mol)

>  <smiles>  (5) 
COc1ccc(NS(=O)(=O)c2ccc(-c3ccccc3)cc2)cc1N1CCNCC1

>  <score_type>  (5) 
oracle

>  <origin>  (5) 
adgpu

>  <m_score__min__energy>  (5) 
-11.199999999999999

>  <m_primary>  (5) 
energy

$$$$
5:0
     RDKit          3D

 57 60  0  0  0  0  0  0  0  0999 V2000
   -1.7330   22.7690  -30.1560 O   0  0  0  0  0  0  0  0  0  0  0  0
   -2.8010   23.1280  -29.5890 C   0  0  0  0  0  0  0  0  0  0  0  0
   -2.8160   23.3530  -28.1700 N   0  0  0  0  0  0  0  0  0  0  0  0
   -1.6400   23.6380  -27.3930 C   0  0  0  0  0  0  0  0  0  0  0  0
   -1.2240   22.7260  -26.4120 C   0  0  0  0  0  0  0  0  0  0  0  0
   -0.0940   22.9890  -25.6330 C   0  0  0  0  0  0  0  0  0  0  0  0
    0.6320   24.1730  -25.8160 C   0  0  0  0  0  0  0  0  0  0  0  0
    2.0560   24.5090  -24.8240 S   0  0  0  0  0  0  0  0  0  0  0  0
    2.1680   23.4580  -23.7550 O   0  0  0  0  0  0  0  0  0  0  0  0
    3.2840   24.4250  -25.6880 O   0  0  0  0  0  0  0  0  0  0  0  0
    2.0000   26.0840  -24.0680 N   0  0  0  0  0  0  0  0  0  0  0  0
    2.5210   27.1320  -24.9430 C   0  0  0  0  0  0  0  0  0  0  0  0
    1.8670   28.4300  -24.4920 C   0  0  0  0  0  0  0  0  0  0  0  0
    0.6360   28.0080  -23.7040 C   0  0  0  0  0  0  0  0  0  0  0  0
    0.6340   26.4880  -23.7410 C   0  0  0  0  0  0  0  0  0  0  0  0
    0.2010   25.1030  -26.7720 C   0  0  0  0  0  0  0  0  0  0  0  0
   -0.9280   24.8400  -27.5550 C   0  0  0  0  0  0  0  0  0  0  0  0
   -4.0450   23.2430  -30.3870 C   0  0  0  0  0  0  0  0  0  0  0  0
   -4.7340   22.0750  -30.7630 C   0  0  0  0  0  0  0  0  0  0  0  0
   -5.9150   22.1520  -31.5140 C   0  0  0  0  0  0  0  0  0  0  0  0
   -6.7650   20.6850  -31.9990 S   0  0  0  0  0  0  0  0  0  0  0  0
   -8.0290   20.5430  -31.1940 O   0  0  0  0  0  0  0  0  0  0  0  0
   -7.1430   20.8130  -33.4480 O   0  0  0  0  0  0  0  0  0  0  0  0
   -5.7400   19.2790  -31.7920 N   0  0  0  0  0  0  0  0  0  0  0  0
   -6.5220   18.0320  -31.7090 C   0  0  0  0  0  0  0  0  0  0  0  0
   -7.0920   17.6070  -33.0830 C   0  0  0  0  0  0  0  0  0  0  0  0
   -6.4410   18.2190  -34.1830 O   0  0  0  0  0  0  0  0  0  0  0  0
   -5.0470   18.2410  -33.9750 C   0  0  0  0  0  0  0  0  0  0  0  0
   -4.6900   19.2100  -32.8320 C   0  0  0  0  0  0  0  0  0  0  0  0
   -6.4060   23.4020  -31.9070 C   0  0  0  0  0  0  0  0  0  0  0  0
   -5.7240   24.5660  -31.5520 C   0  0  0  0  0  0  0  0  0  0  0  0
   -4.5450   24.4950  -30.8030 C   0  0  0  0  0  0  0  0  0  0  0  0
   -3.8660   25.6730  -30.5070 O   0  0  0  0  0  0  0  0  0  0  0  0
   -3.7140   23.1930  -27.6600 H   0  0  0  0  0  0  0  0  0  0  0  0
   -1.7914   21.7969  -26.2546 H   0  0  0  0  0  0  0  0  0  0  0  0
    0.2271   22.2624  -24.8721 H   0  0  0  0  0  0  0  0  0  0  0  0
    3.6143   27.2020  -24.8441 H   0  0  0  0  0  0  0  0  0  0  0  0
    2.2985   26.9183  -25.9988 H   0  0  0  0  0  0  0  0  0  0  0  0
    2.5537   29.0059  -23.8542 H   0  0  0  0  0  0  0  0  0  0  0  0
    1.6066   29.0751  -25.3441 H   0  0  0  0  0  0  0  0  0  0  0  0
    0.7013   28.3676  -22.6665 H   0  0  0  0  0  0  0  0  0  0  0  0
   -0.2866   28.4287  -24.1305 H   0  0  0  0  0  0  0  0  0  0  0  0
    0.3415   26.0835  -22.7608 H   0  0  0  0  0  0  0  0  0  0  0  0
   -0.0840   26.1070  -24.4822 H   0  0  0  0  0  0  0  0  0  0  0  0
    0.7534   26.0446  -26.9073 H   0  0  0  0  0  0  0  0  0  0  0  0
   -1.2605   25.5769  -28.3010 H   0  0  0  0  0  0  0  0  0  0  0  0
   -4.3418   21.0916  -30.4645 H   0  0  0  0  0  0  0  0  0  0  0  0
   -5.8705   17.2297  -31.3323 H   0  0  0  0  0  0  0  0  0  0  0  0
   -7.3704   18.2099  -31.0319 H   0  0  0  0  0  0  0  0  0  0  0  0
   -6.9873   16.5163  -33.1803 H   0  0  0  0  0  0  0  0  0  0  0  0
   -8.1427   17.9314  -33.1098 H   0  0  0  0  0  0  0  0  0  0  0  0
   -4.7036   17.2293  -33.7131 H   0  0  0  0  0  0  0  0  0  0  0  0
   -4.5538   18.5804  -34.8978 H   0  0  0  0  0  0  0  0  0  0  0  0
   -3.7533   18.8724  -32.3643 H   0  0  0  0  0  0  0  0  0  0  0  0
   -4.5884   20.2147  -33.2682 H   0  0  0  0  0  0  0  0  0  0  0  0
   -7.3319   23.4669  -32.4973 H   0  0  0  0  0  0  0  0  0  0  0  0
   -6.1159   25.5456  -31.8630 H   0  0  0  0  0  0  0  0  0  0  0  0
  1  2  2  0
  2  3  1  0
  3  4  1  0
  4  5  2  0
  5  6  1  0
  6  7  2  0
  7  8  1  0
  8  9  2  0
  8 10  2  0
  8 11  1  0
 11 12  1  0
 12 13  1  0
 13 14  1  0
 14 15  1  0
  7 16  1  0
 16 17  2  0
  2 18  1  0
 18 19  2  0
 19 20  1  0
 20 21  1  0
 21 22  2  0
 21 23  2  0
 21 24  1  0
 24 25  1  0
 25 26  1  0
 26 27  1  0
 27 28  1  0
 28 29  1  0
 20 30  2  0
 30 31  1  0
 31 32  2  0
 32 33  1  0
 17  4  1  0
 32 18  1  0
 15 11  1  0
 29 24  1  0
  3 34  1  0
  5 35  1  0
  6 36  1  0
 12 37  1  0
 12 38  1  0
 13 39  1  0
 13 40  1  0
 14 41  1  0
 14 42  1  0
 15 43  1  0
 15 44  1  0
 16 45  1  0
 17 46  1  0
 19 47  1  0
 25 48  1  0
 25 49  1  0
 26 50  1  0
 26 51  1  0
 28 52  1  0
 28 53  1  0
 29 54  1  0
 29 55  1  0
 30 56  1  0
 31 57  1  0
M  CHG  1  33  -1
M  END
>  <UniqueID>  (6) 
6

>  <SMILES>  (6) 
O=C(Nc1ccc(S(=O)(=O)N2CCCC2)cc1)c1cc(S(=O)(=O)N2CCOCC2)ccc1[O-]

>  <Energy>  (6) 
78.3671521439187

>  <Genealogy>  (6) 
O=C(Nc1ccc(S(=O)(=O)N2CCCC2)cc1)c1cc(S(=O)(=O)N2CCOCC2)ccc1[O-] (protonated)
O=C(Nc1ccc(S(=O)(=O)N2CCCC2)cc1)c1cc(S(=O)(=O)N2CCOCC2)ccc1[O-] (3D coordinates assigned)
O=C(Nc1ccc(S(=O)(=O)N2CCCC2)cc1)c1cc(S(=O)(=O)N2CCOCC2)ccc1[O-] (nonaromatic ring conformer: 78.3671521439187 kcal/mol)

>  <smiles>  (6) 
O=C(Nc1ccc(S(=O)(=O)N2CCCC2)cc1)c1cc(S(=O)(=O)N2CCOCC2)ccc1O

>  <score_type>  (6) 
oracle

>  <origin>  (6) 
adgpu

>  <m_score__min__energy>  (6) 
-11.99

>  <m_primary>  (6) 
energy

$$$$
6:0
     RDKit          3D

 20 21  0  0  0  0  0  0  0  0999 V2000
   -6.8610   24.4310  -30.4670 C   0  0  0  0  0  0  0  0  0  0  0  0
   -6.4020   23.2620  -31.2710 C   0  0  0  0  0  0  0  0  0  0  0  0
   -5.1350   23.0820  -31.7150 N   0  0  0  0  0  0  0  0  0  0  0  0
   -5.1040   21.9750  -32.4550 N   0  0  0  0  0  0  0  0  0  0  0  0
   -3.8880   21.4850  -33.0940 C   0  0  0  0  0  0  0  0  0  0  0  0
   -6.3530   21.4490  -32.5020 C   0  0  0  0  0  0  0  0  0  0  0  0
   -6.8800   20.3210  -33.1470 C   0  0  0  0  0  0  0  0  0  0  0  0
   -5.9650   19.3030  -34.0510 S   0  0  0  0  0  0  0  0  0  0  0  0
   -8.2210   20.0800  -33.0020 N   0  0  0  0  0  0  0  0  0  0  0  0
   -9.0240   20.9090  -32.2580 C   0  0  0  0  0  0  0  0  0  0  0  0
   -8.5030   22.0060  -31.6360 N   0  0  0  0  0  0  0  0  0  0  0  0
   -7.1790   22.2440  -31.7720 C   0  0  0  0  0  0  0  0  0  0  0  0
   -6.7695   24.1980  -29.3959 H   0  0  0  0  0  0  0  0  0  0  0  0
   -6.2400   25.3069  -30.7060 H   0  0  0  0  0  0  0  0  0  0  0  0
   -7.9121   24.6504  -30.7060 H   0  0  0  0  0  0  0  0  0  0  0  0
   -3.1608   21.1920  -32.3224 H   0  0  0  0  0  0  0  0  0  0  0  0
   -4.1287   20.6137  -33.7208 H   0  0  0  0  0  0  0  0  0  0  0  0
   -3.4573   22.2798  -33.7208 H   0  0  0  0  0  0  0  0  0  0  0  0
   -8.6550   19.2500  -33.4650 H   0  0  0  0  0  0  0  0  0  0  0  0
  -10.0971   20.6867  -32.1626 H   0  0  0  0  0  0  0  0  0  0  0  0
  1  2  1  0
  2  3  2  0
  3  4  1  0
  4  5  1  0
  4  6  1  0
  6  7  1  0
  7  8  2  0
  7  9  1  0
  9 10  1  0
 10 11  2  0
 11 12  1  0
 12  2  1  0
 12  6  2  0
  1 13  1  0
  1 14  1  0
  1 15  1  0
  5 16  1  0
  5 17  1  0
  5 18  1  0
  9 19  1  0
 10 20  1  0
M  END
>  <UniqueID>  (7) 
7

>  <SMILES>  (7) 
Cc1nn(C)c2c(=S)[nH]cnc12

>  <Energy>  (7) 
63.99992753769961

>  <Genealogy>  (7) 
Cc1nn(C)c2c(=S)[nH]cnc12 (3D coordinates assigned)
Cc1nn(C)c2c(=S)[nH]cnc12 (optimized conformer: 63.99992753769961 kcal/mol)

>  <smiles>  (7) 
Cc1nn(C)c2c(=S)[nH]cnc12

>  <score_type>  (7) 
oracle

>  <origin>  (7) 
adgpu

>  <m_score__min__energy>  (7) 
-5.3099999999999996

>  <m_primary>  (7) 
energy

$$$$
7:0
     RDKit          3D

 42 44  0  0  1  0  0  0  0  0999 V2000
   -5.5530   15.6190  -34.2280 O   0  0  0  0  0  0  0  0  0  0  0  0
   -4.9180   16.9840  -34.3070 S   0  0  0  0  0  0  0  0  0  0  0  0
   -4.9040   17.4390  -35.7370 O   0  0  0  0  0  0  0  0  0  0  0  0
   -3.3210   16.9860  -33.6360 N   0  0  0  0  0  0  0  0  0  0  0  0
   -2.6870   18.0830  -33.5440 C   0  0  0  0  0  0  0  0  0  0  0  0
   -1.4030   18.0220  -32.9950 C   0  0  0  0  0  0  0  0  0  0  0  0
   -0.6220   19.1500  -32.8470 C   0  0  0  0  0  0  0  0  0  0  0  0
   -1.1590   20.3160  -33.2580 N   0  0  0  0  0  0  0  0  0  0  0  0
   -2.4010   20.3790  -33.7900 C   0  0  0  0  0  0  0  0  0  0  0  0
   -3.1750   19.2730  -33.9390 N   0  0  0  0  0  0  0  0  0  0  0  0
   -5.8410   18.1240  -33.3150 C   0  0  0  0  0  0  0  0  0  0  0  0
   -6.2130   17.8190  -32.0210 C   0  0  0  0  0  0  0  0  0  0  0  0
   -6.9320   18.7610  -31.3110 C   0  0  0  0  0  0  0  0  0  0  0  0
   -7.2780   19.9780  -31.8670 C   0  0  0  0  0  0  0  0  0  0  0  0
   -8.0280   20.9610  -31.1260 N   0  0  0  0  0  0  0  0  0  0  0  0
   -8.0750   22.3140  -31.6260 C   0  0  0  0  0  0  0  0  0  0  0  0
   -6.8340   23.0600  -31.3230 C   0  0  0  0  0  0  0  0  0  0  0  0
   -5.5850   22.6520  -31.7920 C   0  0  0  0  0  0  0  0  0  0  0  0
   -4.4420   23.3840  -31.4820 C   0  0  0  0  0  0  0  0  0  0  0  0
   -4.5800   24.5140  -30.7040 C   0  0  0  0  0  0  0  0  0  0  0  0
   -3.4510   25.2560  -30.3850 O   0  0  0  0  0  0  0  0  0  0  0  0
   -5.7930   24.9520  -30.2200 C   0  0  0  0  0  0  0  0  0  0  0  0
   -5.8810   26.1060  -29.4340 O   0  0  0  0  0  0  0  0  0  0  0  0
   -6.9100   24.2150  -30.5380 C   0  0  0  0  0  0  0  0  0  0  0  0
   -6.8790   20.2260  -33.1630 C   0  0  0  0  0  0  0  0  0  0  0  0
   -6.1590   19.3260  -33.9220 C   0  0  0  0  0  0  0  0  0  0  0  0
   -1.0045   17.0488  -32.6723 H   0  0  0  0  0  0  0  0  0  0  0  0
    0.3884   19.1001  -32.4151 H   0  0  0  0  0  0  0  0  0  0  0  0
   -0.5660   21.1790  -33.1470 H   0  0  0  0  0  0  0  0  0  0  0  0
   -2.7956   21.3542  -34.1113 H   0  0  0  0  0  0  0  0  0  0  0  0
   -5.9445   16.8532  -31.5681 H   0  0  0  0  0  0  0  0  0  0  0  0
   -7.2365   18.5370  -30.2780 H   0  0  0  0  0  0  0  0  0  0  0  0
   -8.5040   20.6340  -30.2560 H   0  0  0  0  0  0  0  0  0  0  0  0
   -8.2146   22.2849  -32.7167 H   0  0  0  0  0  0  0  0  0  0  0  0
   -8.9111   22.8302  -31.1316 H   0  0  0  0  0  0  0  0  0  0  0  0
   -5.5028   21.7462  -32.4107 H   0  0  0  0  0  0  0  0  0  0  0  0
   -3.4539   23.0689  -31.8485 H   0  0  0  0  0  0  0  0  0  0  0  0
   -3.4860   26.0450  -29.7400 H   0  0  0  0  0  0  0  0  0  0  0  0
   -5.3710   26.0870  -28.5620 H   0  0  0  0  0  0  0  0  0  0  0  0
   -7.8910   24.5434  -30.1642 H   0  0  0  0  0  0  0  0  0  0  0  0
   -7.1486   21.1916  -33.6158 H   0  0  0  0  0  0  0  0  0  0  0  0
   -5.8542   19.5522  -34.9544 H   0  0  0  0  0  0  0  0  0  0  0  0
  1  2  2  0
  2  3  2  0
  2  4  1  0
  4  5  2  0
  5  6  1  0
  6  7  2  0
  7  8  1  0
  8  9  1  0
  9 10  2  0
  2 11  1  0
 11 12  2  0
 12 13  1  0
 13 14  2  0
 14 15  1  0
 15 16  1  0
 16 17  1  0
 17 18  2  0
 18 19  1  0
 19 20  2  0
 20 21  1  0
 20 22  1  0
 22 23  1  0
 22 24  2  0
 14 25  1  0
 25 26  2  0
 10  5  1  0
 26 11  1  0
 24 17  1  0
  6 27  1  0
  7 28  1  0
  8 29  1  0
  9 30  1  0
 12 31  1  0
 13 32  1  0
 15 33  1  0
 16 34  1  0
 16 35  1  0
 18 36  1  0
 19 37  1  0
 21 38  1  0
 23 39  1  0
 24 40  1  0
 25 41  1  0
 26 42  1  0
M  END
>  <smiles>  (8) 
O=S(=O)(N=c1cc[nH]cn1)c1ccc(NCc2ccc(O)c(O)c2)cc1

>  <score_type>  (8) 
oracle

>  <origin>  (8) 
adgpu

>  <m_score__min__energy>  (8) 
-8.8800000000000008

>  <m_primary>  (8) 
energy

$$$$
8:0
     RDKit          3D

 39 41  0  0  0  0  0  0  0  0999 V2000
   -2.2490   24.6300  -28.1650 C   0  0  0  0  0  0  0  0  0  0  0  0
   -2.7790   25.2010  -29.3560 O   0  0  0  0  0  0  0  0  0  0  0  0
   -3.8310   24.6470  -30.1010 C   0  0  0  0  0  0  0  0  0  0  0  0
   -5.0370   25.3520  -30.1780 C   0  0  0  0  0  0  0  0  0  0  0  0
   -6.1120   24.8430  -30.9100 C   0  0  0  0  0  0  0  0  0  0  0  0
   -6.0010   23.6180  -31.5830 C   0  0  0  0  0  0  0  0  0  0  0  0
   -7.1250   23.1260  -32.3350 N   0  0  0  0  0  0  0  0  0  0  0  0
   -8.2480   21.9440  -31.7400 S   0  0  0  0  0  0  0  0  0  0  0  0
   -9.6040   22.2060  -32.3330 O   0  0  0  0  0  0  0  0  0  0  0  0
   -8.3380   22.0610  -30.2440 O   0  0  0  0  0  0  0  0  0  0  0  0
   -7.7280   20.3290  -32.2090 C   0  0  0  0  0  0  0  0  0  0  0  0
   -6.7210   20.1700  -33.1690 C   0  0  0  0  0  0  0  0  0  0  0  0
   -6.2920   18.8920  -33.5360 C   0  0  0  0  0  0  0  0  0  0  0  0
   -6.8690   17.7520  -32.9500 C   0  0  0  0  0  0  0  0  0  0  0  0
   -6.4150   16.3980  -33.3350 C   0  0  0  0  0  0  0  0  0  0  0  0
   -7.0760   15.6020  -34.2000 N   0  0  0  0  0  0  0  0  0  0  0  0
   -6.3660   14.5170  -34.2670 O   0  0  0  0  0  0  0  0  0  0  0  0
   -5.3180   14.6300  -33.4900 C   0  0  0  0  0  0  0  0  0  0  0  0
   -4.2960   13.5630  -33.3000 C   0  0  0  0  0  0  0  0  0  0  0  0
   -5.2920   15.8180  -32.8570 N   0  0  0  0  0  0  0  0  0  0  0  0
   -7.8850   17.9170  -31.9910 C   0  0  0  0  0  0  0  0  0  0  0  0
   -8.3110   19.1970  -31.6260 C   0  0  0  0  0  0  0  0  0  0  0  0
   -4.7910   22.9020  -31.5000 C   0  0  0  0  0  0  0  0  0  0  0  0
   -3.7160   23.4140  -30.7680 C   0  0  0  0  0  0  0  0  0  0  0  0
   -2.7029   25.1190  -27.2904 H   0  0  0  0  0  0  0  0  0  0  0  0
   -2.4755   23.5538  -28.1420 H   0  0  0  0  0  0  0  0  0  0  0  0
   -1.1590   24.7758  -28.1420 H   0  0  0  0  0  0  0  0  0  0  0  0
   -5.1394   26.3156  -29.6575 H   0  0  0  0  0  0  0  0  0  0  0  0
   -7.0544   25.4083  -30.9590 H   0  0  0  0  0  0  0  0  0  0  0  0
   -7.2450   23.4330  -33.3270 H   0  0  0  0  0  0  0  0  0  0  0  0
   -6.2656   21.0555  -33.6364 H   0  0  0  0  0  0  0  0  0  0  0  0
   -5.4977   18.7772  -34.2883 H   0  0  0  0  0  0  0  0  0  0  0  0
   -4.1359   13.3959  -32.2246 H   0  0  0  0  0  0  0  0  0  0  0  0
   -4.6473   12.6313  -33.7675 H   0  0  0  0  0  0  0  0  0  0  0  0
   -3.3501   13.8739  -33.7675 H   0  0  0  0  0  0  0  0  0  0  0  0
   -8.3467   17.0336  -31.5258 H   0  0  0  0  0  0  0  0  0  0  0  0
   -9.1080   19.3159  -30.8772 H   0  0  0  0  0  0  0  0  0  0  0  0
   -4.6915   21.9346  -32.0140 H   0  0  0  0  0  0  0  0  0  0  0  0
   -2.7738   22.8489  -30.7132 H   0  0  0  0  0  0  0  0  0  0  0  0
  1  2  1  0
  2  3  1  0
  3  4  2  0
  4  5  1  0
  5  6  2  0
  6  7  1  0
  7  8  1  0
  8  9  2  0
  8 10  2  0
  8 11  1  0
 11 12  2  0
 12 13  1  0
 13 14  2  0
 14 15  1  0
 15 16  2  0
 16 17  1  0
 17 18  1  0
 18 19  1  0
 18 20  2  0
 14 21  1  0
 21 22  2  0
  6 23  1  0
 23 24  2  0
 24  3  1  0
 22 11  1  0
 20 15  1  0
  1 25  1  0
  1 26  1  0
  1 27  1  0
  4 28  1  0
  5 29  1  0
  7 30  1  0
 12 31  1  0
 13 32  1  0
 19 33  1  0
 19 34  1  0
 19 35  1  0
 21 36  1  0
 22 37  1  0
 23 38  1  0
 24 39  1  0
M  END
>  <UniqueID>  (9) 
8

>  <SMILES>  (9) 
COc1ccc(NS(=O)(=O)c2ccc(-c3noc(C)n3)cc2)cc1

>  <Energy>  (9) 
75.19316662107607

>  <Genealogy>  (9) 
COc1ccc(NS(=O)(=O)c2ccc(-c3noc(C)n3)cc2)cc1 (3D coordinates assigned)
COc1ccc(NS(=O)(=O)c2ccc(-c3noc(C)n3)cc2)cc1 (optimized conformer: 75.19316662107607 kcal/mol)

>  <smiles>  (9) 
COc1ccc(NS(=O)(=O)c2ccc(-c3noc(C)n3)cc2)cc1

>  <score_type>  (9) 
oracle

>  <origin>  (9) 
adgpu

>  <m_score__min__energy>  (9) 
-9.2100000000000009

>  <m_primary>  (9) 
energy

$$$$
9:0
     RDKit          3D

 32 33  0  0  0  0  0  0  0  0999 V2000
   -2.2960   25.2990  -29.3140 N   0  0  0  0  0  0  0  0  0  0  0  0
   -1.1580   24.5420  -28.9020 C   0  0  0  0  0  0  0  0  0  0  0  0
   -0.1150   25.1580  -28.5550 O   0  0  0  0  0  0  0  0  0  0  0  0
   -1.2130   23.0510  -28.8800 C   0  0  0  0  0  0  0  0  0  0  0  0
   -0.1040   22.3300  -28.3980 C   0  0  0  0  0  0  0  0  0  0  0  0
   -0.1220   20.9320  -28.3610 C   0  0  0  0  0  0  0  0  0  0  0  0
    1.0070   20.2040  -27.8710 N   0  0  0  0  0  0  0  0  0  0  0  0
   -1.2590   20.2580  -28.8070 C   0  0  0  0  0  0  0  0  0  0  0  0
   -2.3250   20.9580  -29.2690 N   0  0  0  0  0  0  0  0  0  0  0  0
   -2.3410   22.3190  -29.3310 C   0  0  0  0  0  0  0  0  0  0  0  0
   -3.4030   22.9430  -29.7590 N   0  0  0  0  0  0  0  0  0  0  0  0
   -4.6010   22.3530  -30.2930 C   0  0  0  0  0  0  0  0  0  0  0  0
   -4.5620   21.3500  -31.2800 C   0  0  0  0  0  0  0  0  0  0  0  0
   -5.7500   20.8280  -31.8000 C   0  0  0  0  0  0  0  0  0  0  0  0
   -6.9880   21.3180  -31.3620 C   0  0  0  0  0  0  0  0  0  0  0  0
   -8.4840   20.6490  -32.0070 S   0  0  0  0  0  0  0  0  0  0  0  0
   -8.1460   19.7600  -33.4500 N   0  0  0  0  0  0  0  0  0  0  0  0
   -9.1150   19.7380  -30.9920 O   0  0  0  0  0  0  0  0  0  0  0  0
   -9.4460   21.7610  -32.3180 O   0  0  0  0  0  0  0  0  0  0  0  0
   -7.0280   22.3340  -30.3980 C   0  0  0  0  0  0  0  0  0  0  0  0
   -5.8400   22.8560  -29.8780 C   0  0  0  0  0  0  0  0  0  0  0  0
   -2.7120   25.1700  -30.2630 H   0  0  0  0  0  0  0  0  0  0  0  0
    0.7863   22.8721  -28.0467 H   0  0  0  0  0  0  0  0  0  0  0  0
    0.8850   19.2720  -27.4140 H   0  0  0  0  0  0  0  0  0  0  0  0
    1.9740   20.5900  -27.9610 H   0  0  0  0  0  0  0  0  0  0  0  0
   -1.2911   19.1587  -28.7840 H   0  0  0  0  0  0  0  0  0  0  0  0
   -3.5935   20.9758  -31.6433 H   0  0  0  0  0  0  0  0  0  0  0  0
   -5.7131   20.0296  -32.5558 H   0  0  0  0  0  0  0  0  0  0  0  0
   -8.3610   20.3900  -34.2540 H   0  0  0  0  0  0  0  0  0  0  0  0
   -8.8340   18.9740  -33.4920 H   0  0  0  0  0  0  0  0  0  0  0  0
   -7.9966   22.7218  -30.0495 H   0  0  0  0  0  0  0  0  0  0  0  0
   -5.8789   23.6681  -29.1371 H   0  0  0  0  0  0  0  0  0  0  0  0
  1  2  1  0
  2  3  2  0
  2  4  1  0
  4  5  2  0
  5  6  1  0
  6  7  1  0
  6  8  2  0
  8  9  1  0
  9 10  1  0
 10 11  2  3
 11 12  1  0
 12 13  2  0
 13 14  1  0
 14 15  2  0
 15 16  1  0
 16 17  1  0
 16 18  2  0
 16 19  2  0
 15 20  1  0
 20 21  2  0
 10  4  1  0
 21 12  1  0
  1 22  1  0
  5 23  1  0
  7 24  1  0
  7 25  1  0
  8 26  1  0
 13 27  1  0
 14 28  1  0
 17 29  1  0
 17 30  1  0
 20 31  1  0
 21 32  1  0
M  CHG  2   1  -1   9  -1
M  END
>  <UniqueID>  (10) 
9

>  <SMILES>  (10) 
[NH-]C(=O)c1cc(N)c[n-]c1=Nc1ccc(S(N)(=O)=O)cc1

>  <Energy>  (10) 
40.161437706539374

>  <Genealogy>  (10) 
[NH-]C(=O)c1cc(N)c[n-]c1=Nc1ccc(S(N)(=O)=O)cc1 (protonated)
[NH-]C(=O)c1cc(N)c[n-]c1=Nc1ccc(S(N)(=O)=O)cc1 (3D coordinates assigned)
[NH-]C(=O)c1cc(N)c[n-]c1=Nc1ccc(S(N)(=O)=O)cc1 (optimized conformer: 40.161437706539374 kcal/mol)

>  <smiles>  (10) 
NC(=O)c1cc(N)c[nH]c1=Nc1ccc(S(N)(=O)=O)cc1

>  <score_type>  (10) 
oracle

>  <origin>  (10) 
adgpu

>  <m_score__min__energy>  (10) 
-9.5299999999999994

>  <m_primary>  (10) 
energy

$$$$
10:0
     RDKit          3D

 43 45  0  0  0  0  0  0  0  0999 V2000
   -3.3460   18.0610  -34.1580 C   0  0  0  0  0  0  0  0  0  0  0  0
   -4.1210   16.7840  -34.1670 C   0  0  0  0  0  0  0  0  0  0  0  0
   -3.5480   15.5700  -34.0570 N   0  0  0  0  0  0  0  0  0  0  0  0
   -4.5120   14.6610  -34.0970 N   0  0  0  0  0  0  0  0  0  0  0  0
   -4.2710   13.2310  -33.9500 C   0  0  0  0  0  0  0  0  0  0  0  0
   -5.7100   15.2660  -34.2450 C   0  0  0  0  0  0  0  0  0  0  0  0
   -7.0380   14.5710  -34.2080 C   0  0  0  0  0  0  0  0  0  0  0  0
   -5.4930   16.6300  -34.2620 C   0  0  0  0  0  0  0  0  0  0  0  0
   -6.4980   17.6520  -34.2710 N   0  0  0  0  0  0  0  0  0  0  0  0
   -7.2630   18.1820  -32.8100 S   0  0  0  0  0  0  0  0  0  0  0  0
   -8.6840   18.5780  -33.0970 O   0  0  0  0  0  0  0  0  0  0  0  0
   -7.2640   17.0510  -31.8180 O   0  0  0  0  0  0  0  0  0  0  0  0
   -6.3560   19.5240  -32.1170 C   0  0  0  0  0  0  0  0  0  0  0  0
   -6.9580   20.7700  -31.9110 C   0  0  0  0  0  0  0  0  0  0  0  0
   -6.2170   21.8320  -31.3840 C   0  0  0  0  0  0  0  0  0  0  0  0
   -4.8610   21.6570  -31.0460 C   0  0  0  0  0  0  0  0  0  0  0  0
   -4.0670   22.7830  -30.4900 C   0  0  0  0  0  0  0  0  0  0  0  0
   -2.7290   22.5920  -30.0910 C   0  0  0  0  0  0  0  0  0  0  0  0
   -1.9820   23.6580  -29.5770 C   0  0  0  0  0  0  0  0  0  0  0  0
   -2.5580   24.9240  -29.4560 C   0  0  0  0  0  0  0  0  0  0  0  0
   -1.8140   25.9800  -28.9470 O   0  0  0  0  0  0  0  0  0  0  0  0
   -3.8850   25.1250  -29.8470 C   0  0  0  0  0  0  0  0  0  0  0  0
   -4.6370   24.0630  -30.3600 C   0  0  0  0  0  0  0  0  0  0  0  0
   -4.2700   20.3960  -31.2440 C   0  0  0  0  0  0  0  0  0  0  0  0
   -5.0120   19.3400  -31.7740 C   0  0  0  0  0  0  0  0  0  0  0  0
   -3.1590   18.3691  -33.1187 H   0  0  0  0  0  0  0  0  0  0  0  0
   -2.3863   17.9111  -34.6743 H   0  0  0  0  0  0  0  0  0  0  0  0
   -3.9220   18.8431  -34.6743 H   0  0  0  0  0  0  0  0  0  0  0  0
   -4.2278   12.9744  -32.8812 H   0  0  0  0  0  0  0  0  0  0  0  0
   -5.0873   12.6704  -34.4289 H   0  0  0  0  0  0  0  0  0  0  0  0
   -3.3160   12.9690  -34.4289 H   0  0  0  0  0  0  0  0  0  0  0  0
   -7.3401   14.4129  -33.1622 H   0  0  0  0  0  0  0  0  0  0  0  0
   -7.7906   15.1909  -34.7173 H   0  0  0  0  0  0  0  0  0  0  0  0
   -6.9577   13.5993  -34.7173 H   0  0  0  0  0  0  0  0  0  0  0  0
   -7.0070   17.8410  -35.1600 H   0  0  0  0  0  0  0  0  0  0  0  0
   -8.0185   20.9147  -32.1647 H   0  0  0  0  0  0  0  0  0  0  0  0
   -6.6961   22.8105  -31.2324 H   0  0  0  0  0  0  0  0  0  0  0  0
   -2.2683   21.5975  -30.1843 H   0  0  0  0  0  0  0  0  0  0  0  0
   -0.9386   23.4980  -29.2676 H   0  0  0  0  0  0  0  0  0  0  0  0
   -4.3395   26.1221  -29.7509 H   0  0  0  0  0  0  0  0  0  0  0  0
   -5.6810   24.2295  -30.6639 H   0  0  0  0  0  0  0  0  0  0  0  0
   -3.2138   20.2411  -30.9787 H   0  0  0  0  0  0  0  0  0  0  0  0
   -4.5383   18.3584  -31.9229 H   0  0  0  0  0  0  0  0  0  0  0  0
  1  2  1  0
  2  3  2  0
  3  4  1  0
  4  5  1  0
  4  6  1  0
  6  7  1  0
  6  8  2  0
  8  9  1  0
  9 10  1  0
 10 11  2  0
 10 12  2  0
 10 13  1  0
 13 14  2  0
 14 15  1  0
 15 16  2  0
 16 17  1  0
 17 18  2  0
 18 19  1  0
 19 20  2  0
 20 21  1  0
 20 22  1  0
 22 23  2  0
 16 24  1  0
 24 25  2  0
  8  2  1  0
 25 13  1  0
 23 17  1  0
  1 26  1  0
  1 27  1  0
  1 28  1  0
  5 29  1  0
  5 30  1  0
  5 31  1  0
  7 32  1  0
  7 33  1  0
  7 34  1  0
  9 35  1  0
 14 36  1  0
 15 37  1  0
 18 38  1  0
 19 39  1  0
 22 40  1  0
 23 41  1  0
 24 42  1  0
 25 43  1  0
M  CHG  1  21  -1
M  END
>  <UniqueID>  (11) 
10

>  <SMILES>  (11) 
Cc1nn(C)c(C)c1NS(=O)(=O)c1ccc(-c2ccc([O-])cc2)cc1

>  <Energy>  (11) 
83.60831433569828

>  <Genealogy>  (11) 
Cc1nn(C)c(C)c1NS(=O)(=O)c1ccc(-c2ccc([O-])cc2)cc1 (protonated)
Cc1nn(C)c(C)c1NS(=O)(=O)c1ccc(-c2ccc([O-])cc2)cc1 (3D coordinates assigned)
Cc1nn(C)c(C)c1NS(=O)(=O)c1ccc(-c2ccc([O-])cc2)cc1 (optimized conformer: 83.60831433569828 kcal/mol)

>  <smiles>  (11) 
Cc1nn(C)c(C)c1NS(=O)(=O)c1ccc(-c2ccc(O)cc2)cc1

>  <score_type>  (11) 
oracle

>  <origin>  (11) 
adgpu

>  <m_score__min__energy>  (11) 
-9.4900000000000002

>  <m_primary>  (11) 
energy

$$$$
11:0
     RDKit          3D

 45 47  0  0  0  0  0  0  0  0999 V2000
   -5.6460   26.0820  -30.3510 O   0  0  0  0  0  0  0  0  0  0  0  0
   -4.9230   25.1040  -30.6760 C   0  0  0  0  0  0  0  0  0  0  0  0
   -3.5090   25.1840  -30.4530 N   0  0  0  0  0  0  0  0  0  0  0  0
   -2.8240   24.7800  -29.2290 C   0  0  0  0  0  0  0  0  0  0  0  0
   -2.3950   23.3380  -29.2900 C   0  0  0  0  0  0  0  0  0  0  0  0
   -2.3380   22.5720  -28.1130 C   0  0  0  0  0  0  0  0  0  0  0  0
   -1.8880   21.2500  -28.1530 C   0  0  0  0  0  0  0  0  0  0  0  0
   -1.4890   20.6810  -29.3650 C   0  0  0  0  0  0  0  0  0  0  0  0
   -1.5240   21.4400  -30.5430 C   0  0  0  0  0  0  0  0  0  0  0  0
   -1.1210   20.8870  -31.7560 O   0  0  0  0  0  0  0  0  0  0  0  0
   -1.9650   22.7670  -30.5010 C   0  0  0  0  0  0  0  0  0  0  0  0
   -5.5650   23.8940  -31.2190 C   0  0  0  0  0  0  0  0  0  0  0  0
   -6.9560   23.8620  -31.3890 C   0  0  0  0  0  0  0  0  0  0  0  0
   -7.5730   22.7280  -31.9230 C   0  0  0  0  0  0  0  0  0  0  0  0
   -6.8040   21.6280  -32.3080 C   0  0  0  0  0  0  0  0  0  0  0  0
   -5.4100   21.6590  -32.1710 C   0  0  0  0  0  0  0  0  0  0  0  0
   -4.4380   20.2900  -32.7160 S   0  0  0  0  0  0  0  0  0  0  0  0
   -3.6350   19.7650  -31.5580 O   0  0  0  0  0  0  0  0  0  0  0  0
   -3.4770   20.7500  -33.7770 O   0  0  0  0  0  0  0  0  0  0  0  0
   -5.4290   19.0030  -33.3570 N   0  0  0  0  0  0  0  0  0  0  0  0
   -4.5960   17.9850  -34.0120 C   0  0  0  0  0  0  0  0  0  0  0  0
   -5.4860   16.8530  -34.5680 C   0  0  0  0  0  0  0  0  0  0  0  0
   -6.8480   17.0290  -34.2220 O   0  0  0  0  0  0  0  0  0  0  0  0
   -6.9740   17.1440  -32.8180 C   0  0  0  0  0  0  0  0  0  0  0  0
   -6.2330   18.3890  -32.2880 C   0  0  0  0  0  0  0  0  0  0  0  0
   -4.7930   22.7940  -31.6240 C   0  0  0  0  0  0  0  0  0  0  0  0
   -1.9346   25.4125  -29.0911 H   0  0  0  0  0  0  0  0  0  0  0  0
   -3.5215   24.8984  -28.3867 H   0  0  0  0  0  0  0  0  0  0  0  0
   -2.6492   23.0155  -27.1557 H   0  0  0  0  0  0  0  0  0  0  0  0
   -1.8477   20.6558  -27.2282 H   0  0  0  0  0  0  0  0  0  0  0  0
   -1.1469   19.6360  -29.3949 H   0  0  0  0  0  0  0  0  0  0  0  0
   -1.7940   20.5190  -32.4200 H   0  0  0  0  0  0  0  0  0  0  0  0
   -1.9755   23.3682  -31.4221 H   0  0  0  0  0  0  0  0  0  0  0  0
   -7.5637   24.7325  -31.1010 H   0  0  0  0  0  0  0  0  0  0  0  0
   -8.6664   22.7017  -32.0403 H   0  0  0  0  0  0  0  0  0  0  0  0
   -7.2944   20.7339  -32.7203 H   0  0  0  0  0  0  0  0  0  0  0  0
   -4.0370   18.4482  -34.8384 H   0  0  0  0  0  0  0  0  0  0  0  0
   -3.8942   17.5646  -33.2766 H   0  0  0  0  0  0  0  0  0  0  0  0
   -5.3974   16.8379  -35.6643 H   0  0  0  0  0  0  0  0  0  0  0  0
   -5.1438   15.9049  -34.1274 H   0  0  0  0  0  0  0  0  0  0  0  0
   -8.0401   17.2247  -32.5595 H   0  0  0  0  0  0  0  0  0  0  0  0
   -6.5274   16.2515  -32.3554 H   0  0  0  0  0  0  0  0  0  0  0  0
   -6.9690   19.1204  -31.9228 H   0  0  0  0  0  0  0  0  0  0  0  0
   -5.5641   18.0840  -31.4697 H   0  0  0  0  0  0  0  0  0  0  0  0
   -3.6991   22.8220  -31.5120 H   0  0  0  0  0  0  0  0  0  0  0  0
  1  2  2  0
  2  3  1  0
  3  4  1  0
  4  5  1  0
  5  6  2  0
  6  7  1  0
  7  8  2  0
  8  9  1  0
  9 10  1  0
  9 11  2  0
  2 12  1  0
 12 13  2  0
 13 14  1  0
 14 15  2  0
 15 16  1  0
 16 17  1  0
 17 18  2  0
 17 19  2  0
 17 20  1  0
 20 21  1  0
 21 22  1  0
 22 23  1  0
 23 24  1  0
 24 25  1  0
 16 26  2  0
 11  5  1  0
 26 12  1  0
 25 20  1  0
  4 27  1  0
  4 28  1  0
  6 29  1  0
  7 30  1  0
  8 31  1  0
 10 32  1  0
 11 33  1  0
 13 34  1  0
 14 35  1  0
 15 36  1  0
 21 37  1  0
 21 38  1  0
 22 39  1  0
 22 40  1  0
 24 41  1  0
 24 42  1  0
 25 43  1  0
 25 44  1  0
 26 45  1  0
M  CHG  1   3  -1
M  END
>  <UniqueID>  (12) 
11

>  <SMILES>  (12) 
O=C([N-]Cc1cccc(O)c1)c1cccc(S(=O)(=O)N2CCOCC2)c1

>  <Energy>  (12) 
56.391610688204054

>  <Genealogy>  (12) 
O=C([N-]Cc1cccc(O)c1)c1cccc(S(=O)(=O)N2CCOCC2)c1 (protonated)
O=C([N-]Cc1cccc(O)c1)c1cccc(S(=O)(=O)N2CCOCC2)c1 (3D coordinates assigned)
O=C([N-]Cc1cccc(O)c1)c1cccc(S(=O)(=O)N2CCOCC2)c1 (nonaromatic ring conformer: 56.391610688204054 kcal/mol)

>  <smiles>  (12) 
O=C(NCc1cccc(O)c1)c1cccc(S(=O)(=O)N2CCOCC2)c1

>  <score_type>  (12) 
oracle

>  <origin>  (12) 
adgpu

>  <m_score__min__energy>  (12) 
-9.8100000000000005

>  <m_primary>  (12) 
energy

$$$$
12:0
     RDKit          3D

 48 50  0  0  0  0  0  0  0  0999 V2000
   -3.7690   21.7130  -27.8050 N   0  0  0  0  0  0  0  0  0  0  0  0
   -2.7110   20.7520  -27.9060 C   0  0  0  0  0  0  0  0  0  0  0  0
   -2.6750   19.6800  -27.0000 C   0  0  0  0  0  0  0  0  0  0  0  0
   -1.6190   18.7660  -27.0260 C   0  0  0  0  0  0  0  0  0  0  0  0
   -0.5850   18.9180  -27.9510 C   0  0  0  0  0  0  0  0  0  0  0  0
   -0.6140   19.9740  -28.8640 C   0  0  0  0  0  0  0  0  0  0  0  0
   -1.6830   20.8830  -28.8660 C   0  0  0  0  0  0  0  0  0  0  0  0
   -1.6940   22.1980  -30.0990 S   0  0  0  0  0  0  0  0  0  0  0  0
   -1.2350   23.4790  -28.9130 C   0  0  0  0  0  0  0  0  0  0  0  0
    0.0600   23.4450  -28.3750 C   0  0  0  0  0  0  0  0  0  0  0  0
    0.4970   24.4530  -27.5160 C   0  0  0  0  0  0  0  0  0  0  0  0
   -0.3540   25.5090  -27.1860 C   0  0  0  0  0  0  0  0  0  0  0  0
   -1.6530   25.5450  -27.6970 C   0  0  0  0  0  0  0  0  0  0  0  0
   -2.1180   24.5240  -28.5450 C   0  0  0  0  0  0  0  0  0  0  0  0
   -3.5200   24.5760  -29.0050 C   0  0  0  0  0  0  0  0  0  0  0  0
   -4.4050   23.9530  -28.3560 O   0  0  0  0  0  0  0  0  0  0  0  0
   -3.8670   25.2760  -30.2090 N   0  0  0  0  0  0  0  0  0  0  0  0
   -5.2310   25.3100  -30.7290 C   0  0  0  0  0  0  0  0  0  0  0  0
   -5.6260   23.9430  -31.2150 C   0  0  0  0  0  0  0  0  0  0  0  0
   -6.9780   23.5700  -31.2300 C   0  0  0  0  0  0  0  0  0  0  0  0
   -7.3640   22.2960  -31.6780 C   0  0  0  0  0  0  0  0  0  0  0  0
   -8.8200   21.9030  -31.7000 C   0  0  0  0  0  0  0  0  0  0  0  0
   -9.2500   21.6760  -30.4070 F   0  0  0  0  0  0  0  0  0  0  0  0
   -9.5890   22.9060  -32.2630 F   0  0  0  0  0  0  0  0  0  0  0  0
   -9.0060   20.7510  -32.4440 F   0  0  0  0  0  0  0  0  0  0  0  0
   -6.3850   21.4240  -32.1850 C   0  0  0  0  0  0  0  0  0  0  0  0
   -5.0310   21.8020  -32.2180 C   0  0  0  0  0  0  0  0  0  0  0  0
   -3.9890   20.8310  -32.7190 C   0  0  0  0  0  0  0  0  0  0  0  0
   -3.4610   20.1070  -31.6650 F   0  0  0  0  0  0  0  0  0  0  0  0
   -4.5350   19.9400  -33.6250 F   0  0  0  0  0  0  0  0  0  0  0  0
   -2.9730   21.5330  -33.3370 F   0  0  0  0  0  0  0  0  0  0  0  0
   -4.6570   23.0550  -31.7060 C   0  0  0  0  0  0  0  0  0  0  0  0
   -3.8800   22.3210  -26.9650 H   0  0  0  0  0  0  0  0  0  0  0  0
   -4.5130   21.7630  -28.5350 H   0  0  0  0  0  0  0  0  0  0  0  0
   -3.4840   19.5590  -26.2646 H   0  0  0  0  0  0  0  0  0  0  0  0
   -1.6023   17.9255  -26.3166 H   0  0  0  0  0  0  0  0  0  0  0  0
    0.2531   18.2056  -27.9608 H   0  0  0  0  0  0  0  0  0  0  0  0
    0.2067   20.0942  -29.5866 H   0  0  0  0  0  0  0  0  0  0  0  0
    0.7363   22.6166  -28.6327 H   0  0  0  0  0  0  0  0  0  0  0  0
    1.5138   24.4158  -27.0979 H   0  0  0  0  0  0  0  0  0  0  0  0
   -0.0013   26.3130  -26.5233 H   0  0  0  0  0  0  0  0  0  0  0  0
   -2.3190   26.3800  -27.4337 H   0  0  0  0  0  0  0  0  0  0  0  0
   -3.1060   25.6630  -30.8120 H   0  0  0  0  0  0  0  0  0  0  0  0
   -5.9183   25.6262  -29.9305 H   0  0  0  0  0  0  0  0  0  0  0  0
   -5.2825   26.0216  -31.5662 H   0  0  0  0  0  0  0  0  0  0  0  0
   -7.7434   24.2820  -30.8876 H   0  0  0  0  0  0  0  0  0  0  0  0
   -6.6818   20.4336  -32.5606 H   0  0  0  0  0  0  0  0  0  0  0  0
   -3.5954   23.3427  -31.6897 H   0  0  0  0  0  0  0  0  0  0  0  0
  1  2  1  0
  2  3  2  0
  3  4  1  0
  4  5  2  0
  5  6  1  0
  6  7  2  0
  7  8  1  0
  8  9  1  0
  9 10  2  0
 10 11  1  0
 11 12  2  0
 12 13  1  0
 13 14  2  0
 14 15  1  0
 15 16  2  0
 15 17  1  0
 17 18  1  0
 18 19  1  0
 19 20  2  0
 20 21  1  0
 21 22  1  0
 22 23  1  0
 22 24  1  0
 22 25  1  0
 21 26  2  0
 26 27  1  0
 27 28  1  0
 28 29  1  0
 28 30  1  0
 28 31  1  0
 27 32  2  0
  7  2  1  0
 14  9  1  0
 32 19  1  0
  1 33  1  0
  1 34  1  0
  3 35  1  0
  4 36  1  0
  5 37  1  0
  6 38  1  0
 10 39  1  0
 11 40  1  0
 12 41  1  0
 13 42  1  0
 17 43  1  0
 18 44  1  0
 18 45  1  0
 20 46  1  0
 26 47  1  0
 32 48  1  0
M  END
>  <UniqueID>  (13) 
12

>  <SMILES>  (13) 
Nc1ccccc1Sc1ccccc1C(=O)NCc1cc(C(F)(F)F)cc(C(F)(F)F)c1

>  <Energy>  (13) 
50.873817651706176

>  <Genealogy>  (13) 
Nc1ccccc1Sc1ccccc1C(=O)NCc1cc(C(F)(F)F)cc(C(F)(F)F)c1 (3D coordinates assigned)
Nc1ccccc1Sc1ccccc1C(=O)NCc1cc(C(F)(F)F)cc(C(F)(F)F)c1 (optimized conformer: 50.873817651706176 kcal/mol)

>  <smiles>  (13) 
Nc1ccccc1Sc1ccccc1C(=O)NCc1cc(C(F)(F)F)cc(C(F)(F)F)c1

>  <score_type>  (13) 
oracle

>  <origin>  (13) 
adgpu

>  <m_score__min__energy>  (13) 
-9.3399999999999999

>  <m_primary>  (13) 
energy

$$$$
13:0
     RDKit          3D

 43 45  0  0  0  0  0  0  0  0999 V2000
   -2.1690   23.8290  -29.4830 O   0  0  0  0  0  0  0  0  0  0  0  0
   -3.0510   23.0290  -29.8900 C   0  0  0  0  0  0  0  0  0  0  0  0
   -2.6660   21.6840  -30.2110 N   0  0  0  0  0  0  0  0  0  0  0  0
   -2.9630   20.9810  -31.4260 C   0  0  0  0  0  0  0  0  0  0  0  0
   -2.0630   21.0680  -32.4960 C   0  0  0  0  0  0  0  0  0  0  0  0
   -2.3260   20.4030  -33.6960 C   0  0  0  0  0  0  0  0  0  0  0  0
   -3.4940   19.6510  -33.8400 C   0  0  0  0  0  0  0  0  0  0  0  0
   -4.4100   19.5660  -32.7840 C   0  0  0  0  0  0  0  0  0  0  0  0
   -5.8970   18.6380  -32.9760 S   0  0  0  0  0  0  0  0  0  0  0  0
   -5.7730   17.7730  -34.1980 O   0  0  0  0  0  0  0  0  0  0  0  0
   -6.0950   17.7490  -31.7790 O   0  0  0  0  0  0  0  0  0  0  0  0
   -7.2600   19.7160  -33.1560 N   0  0  0  0  0  0  0  0  0  0  0  0
   -6.9440   21.0330  -32.5570 C   0  0  0  0  0  0  0  0  0  0  0  0
   -8.2140   21.8430  -32.2770 C   0  0  0  0  0  0  0  0  0  0  0  0
   -9.1140   21.1240  -31.2580 C   0  0  0  0  0  0  0  0  0  0  0  0
   -8.9060   19.6000  -31.2510 C   0  0  0  0  0  0  0  0  0  0  0  0
   -8.5050   19.0890  -32.6430 C   0  0  0  0  0  0  0  0  0  0  0  0
   -4.1530   20.2470  -31.5870 C   0  0  0  0  0  0  0  0  0  0  0  0
   -4.4550   23.4920  -29.9940 C   0  0  0  0  0  0  0  0  0  0  0  0
   -5.4970   22.6140  -29.6520 C   0  0  0  0  0  0  0  0  0  0  0  0
   -6.8280   23.0370  -29.7110 C   0  0  0  0  0  0  0  0  0  0  0  0
   -7.1310   24.3370  -30.1220 C   0  0  0  0  0  0  0  0  0  0  0  0
   -6.1060   25.2120  -30.4850 C   0  0  0  0  0  0  0  0  0  0  0  0
   -4.7710   24.7950  -30.4340 C   0  0  0  0  0  0  0  0  0  0  0  0
   -3.7720   25.6740  -30.8410 O   0  0  0  0  0  0  0  0  0  0  0  0
   -1.1440   21.6633  -32.3907 H   0  0  0  0  0  0  0  0  0  0  0  0
   -1.6115   20.4718  -34.5295 H   0  0  0  0  0  0  0  0  0  0  0  0
   -3.6949   19.1244  -34.7847 H   0  0  0  0  0  0  0  0  0  0  0  0
   -6.4051   20.8752  -31.6111 H   0  0  0  0  0  0  0  0  0  0  0  0
   -6.3259   21.5970  -33.2710 H   0  0  0  0  0  0  0  0  0  0  0  0
   -7.9314   22.8274  -31.8755 H   0  0  0  0  0  0  0  0  0  0  0  0
   -8.7718   21.9559  -33.2183 H   0  0  0  0  0  0  0  0  0  0  0  0
   -8.8899   21.5140  -30.2542 H   0  0  0  0  0  0  0  0  0  0  0  0
  -10.1585   21.3147  -31.5457 H   0  0  0  0  0  0  0  0  0  0  0  0
   -8.1106   19.3495  -30.5337 H   0  0  0  0  0  0  0  0  0  0  0  0
   -9.8528   19.1200  -30.9625 H   0  0  0  0  0  0  0  0  0  0  0  0
   -8.3517   18.0012  -32.5861 H   0  0  0  0  0  0  0  0  0  0  0  0
   -9.3164   19.3542  -33.3367 H   0  0  0  0  0  0  0  0  0  0  0  0
   -4.8860   20.2078  -30.7677 H   0  0  0  0  0  0  0  0  0  0  0  0
   -5.2639   21.5866  -29.3356 H   0  0  0  0  0  0  0  0  0  0  0  0
   -7.6373   22.3456  -29.4336 H   0  0  0  0  0  0  0  0  0  0  0  0
   -8.1782   24.6715  -30.1596 H   0  0  0  0  0  0  0  0  0  0  0  0
   -6.3485   26.2337  -30.8126 H   0  0  0  0  0  0  0  0  0  0  0  0
  1  2  2  0
  2  3  1  0
  3  4  1  0
  4  5  2  0
  5  6  1  0
  6  7  2  0
  7  8  1  0
  8  9  1  0
  9 10  2  0
  9 11  2  0
  9 12  1  0
 12 13  1  0
 13 14  1  0
 14 15  1  0
 15 16  1  0
 16 17  1  0
  8 18  2  0
  2 19  1  0
 19 20  2  0
 20 21  1  0
 21 22  2  0
 22 23  1  0
 23 24  2  0
 24 25  1  0
 18  4  1  0
 24 19  1  0
 17 12  1  0
  5 26  1  0
  6 27  1  0
  7 28  1  0
 13 29  1  0
 13 30  1  0
 14 31  1  0
 14 32  1  0
 15 33  1  0
 15 34  1  0
 16 35  1  0
 16 36  1  0
 17 37  1  0
 17 38  1  0
 18 39  1  0
 20 40  1  0
 21 41  1  0
 22 42  1  0
 23 43  1  0
M  CHG  2   3  -1  25  -1
M  END
>  <UniqueID>  (14) 
13

>  <SMILES>  (14) 
O=C([N-]c1cccc(S(=O)(=O)N2CCCCC2)c1)c1ccccc1[O-]

>  <Energy>  (14) 
57.24504917914665

>  <Genealogy>  (14) 
O=C([N-]c1cccc(S(=O)(=O)N2CCCCC2)c1)c1ccccc1[O-] (protonated)
O=C([N-]c1cccc(S(=O)(=O)N2CCCCC2)c1)c1ccccc1[O-] (3D coordinates assigned)
O=C([N-]c1cccc(S(=O)(=O)N2CCCCC2)c1)c1ccccc1[O-] (nonaromatic ring conformer: 57.24504917914665 kcal/mol)

>  <smiles>  (14) 
O=C(Nc1cccc(S(=O)(=O)N2CCCCC2)c1)c1ccccc1O

>  <score_type>  (14) 
oracle

>  <origin>  (14) 
adgpu

>  <m_score__min__energy>  (14) 
-13.609999999999999

>  <m_primary>  (14) 
energy

$$$$
14:0
     RDKit          3D

 41 43  0  0  0  0  0  0  0  0999 V2000
   -5.5340   24.8820  -28.7700 O   0  0  0  0  0  0  0  0  0  0  0  0
   -5.1450   24.9220  -30.2200 S   0  0  0  0  0  0  0  0  0  0  0  0
   -5.7050   26.1720  -30.8400 O   0  0  0  0  0  0  0  0  0  0  0  0
   -3.4160   24.9410  -30.3500 N   0  0  0  0  0  0  0  0  0  0  0  0
   -2.5090   24.3150  -29.4320 C   0  0  0  0  0  0  0  0  0  0  0  0
   -2.6780   22.9820  -29.0130 C   0  0  0  0  0  0  0  0  0  0  0  0
   -1.7850   22.4040  -28.0990 C   0  0  0  0  0  0  0  0  0  0  0  0
   -2.0370   20.7490  -27.5400 S   0  0  0  0  0  0  0  0  0  0  0  0
   -3.5140   20.4720  -27.4590 O   0  0  0  0  0  0  0  0  0  0  0  0
   -1.4590   20.5980  -26.1610 O   0  0  0  0  0  0  0  0  0  0  0  0
   -1.2800   19.5910  -28.6100 N   0  0  0  0  0  0  0  0  0  0  0  0
   -0.4770   18.5950  -27.8570 C   0  0  0  0  0  0  0  0  0  0  0  0
    1.0330   18.8650  -27.9290 C   0  0  0  0  0  0  0  0  0  0  0  0
    1.5280   18.8740  -29.3850 C   0  0  0  0  0  0  0  0  0  0  0  0
    0.4560   19.3600  -30.3770 C   0  0  0  0  0  0  0  0  0  0  0  0
   -0.5470   20.2910  -29.6880 C   0  0  0  0  0  0  0  0  0  0  0  0
   -0.7040   23.1550  -27.6200 C   0  0  0  0  0  0  0  0  0  0  0  0
   -0.5260   24.4760  -28.0390 C   0  0  0  0  0  0  0  0  0  0  0  0
   -1.4250   25.0550  -28.9380 C   0  0  0  0  0  0  0  0  0  0  0  0
   -1.2380   26.3740  -29.3390 O   0  0  0  0  0  0  0  0  0  0  0  0
   -5.7910   23.5010  -31.0210 C   0  0  0  0  0  0  0  0  0  0  0  0
   -5.0880   22.6440  -31.8530 C   0  0  0  0  0  0  0  0  0  0  0  0
   -5.8710   21.5900  -32.3370 C   0  0  0  0  0  0  0  0  0  0  0  0
   -7.1850   21.6200  -31.8860 C   0  0  0  0  0  0  0  0  0  0  0  0
   -7.3720   22.9550  -30.8790 S   0  0  0  0  0  0  0  0  0  0  0  0
   -3.5171   22.3889  -29.4055 H   0  0  0  0  0  0  0  0  0  0  0  0
   -0.7877   18.6193  -26.8021 H   0  0  0  0  0  0  0  0  0  0  0  0
   -0.6580   17.6115  -28.3153 H   0  0  0  0  0  0  0  0  0  0  0  0
    1.2447   19.8430  -27.4721 H   0  0  0  0  0  0  0  0  0  0  0  0
    1.5563   18.0626  -27.3884 H   0  0  0  0  0  0  0  0  0  0  0  0
    2.4001   19.5407  -29.4555 H   0  0  0  0  0  0  0  0  0  0  0  0
    1.7830   17.8384  -29.6543 H   0  0  0  0  0  0  0  0  0  0  0  0
    0.9458   19.9034  -31.1984 H   0  0  0  0  0  0  0  0  0  0  0  0
   -0.0864   18.4847  -30.7639 H   0  0  0  0  0  0  0  0  0  0  0  0
   -0.0045   21.1449  -29.2561 H   0  0  0  0  0  0  0  0  0  0  0  0
   -1.2759   20.6312  -30.4383 H   0  0  0  0  0  0  0  0  0  0  0  0
    0.0067   22.7036  -26.9121 H   0  0  0  0  0  0  0  0  0  0  0  0
    0.3244   25.0617  -27.6599 H   0  0  0  0  0  0  0  0  0  0  0  0
   -4.0260   22.7782  -32.1063 H   0  0  0  0  0  0  0  0  0  0  0  0
   -5.4831   20.8116  -33.0106 H   0  0  0  0  0  0  0  0  0  0  0  0
   -7.9701   20.8939  -32.1437 H   0  0  0  0  0  0  0  0  0  0  0  0
  1  2  2  0
  2  3  2  0
  2  4  1  0
  4  5  1  0
  5  6  2  0
  6  7  1  0
  7  8  1  0
  8  9  2  0
  8 10  2  0
  8 11  1  0
 11 12  1  0
 12 13  1  0
 13 14  1  0
 14 15  1  0
 15 16  1  0
  7 17  2  0
 17 18  1  0
 18 19  2  0
 19 20  1  0
  2 21  1  0
 21 22  2  0
 22 23  1  0
 23 24  2  0
 24 25  1  0
 19  5  1  0
 25 21  1  0
 16 11  1  0
  6 26  1  0
 12 27  1  0
 12 28  1  0
 13 29  1  0
 13 30  1  0
 14 31  1  0
 14 32  1  0
 15 33  1  0
 15 34  1  0
 16 35  1  0
 16 36  1  0
 17 37  1  0
 18 38  1  0
 22 39  1  0
 23 40  1  0
 24 41  1  0
M  CHG  2   4  -1  20  -1
M  END
>  <UniqueID>  (15) 
14

>  <SMILES>  (15) 
O=S(=O)([N-]c1cc(S(=O)(=O)N2CCCCC2)ccc1[O-])c1cccs1

>  <Energy>  (15) 
73.12276537999787

>  <Genealogy>  (15) 
O=S(=O)([N-]c1cc(S(=O)(=O)N2CCCCC2)ccc1[O-])c1cccs1 (protonated)
O=S(=O)([N-]c1cc(S(=O)(=O)N2CCCCC2)ccc1[O-])c1cccs1 (3D coordinates assigned)
O=S(=O)([N-]c1cc(S(=O)(=O)N2CCCCC2)ccc1[O-])c1cccs1 (nonaromatic ring conformer: 73.12276537999787 kcal/mol)

>  <smiles>  (15) 
O=S(=O)(Nc1cc(S(=O)(=O)N2CCCCC2)ccc1O)c1cccs1

>  <score_type>  (15) 
oracle

>  <origin>  (15) 
adgpu

>  <m_score__min__energy>  (15) 
-13.050000000000001

>  <m_primary>  (15) 
energy

$$$$
15:0
     RDKit          3D

 33 34  0  0  0  0  0  0  0  0999 V2000
   -3.4880   26.0440  -29.8310 H   0  0  0  0  0  0  0  0  0  0  0  0
   -4.2290   25.8350  -30.4860 O   0  0  0  0  0  0  0  0  0  0  0  0
   -4.7000   24.5420  -30.7290 C   0  0  0  0  0  0  0  0  0  0  0  0
   -5.7840   24.3990  -31.6040 C   0  0  0  0  0  0  0  0  0  0  0  0
   -6.2722   25.2940  -32.0171 H   0  0  0  0  0  0  0  0  0  0  0  0
   -6.2510   23.1320  -31.9570 C   0  0  0  0  0  0  0  0  0  0  0  0
   -7.1036   23.0323  -32.6448 H   0  0  0  0  0  0  0  0  0  0  0  0
   -5.6370   21.9920  -31.4380 C   0  0  0  0  0  0  0  0  0  0  0  0
   -6.2680   20.2590  -31.9330 Br  0  0  0  0  0  0  0  0  0  0  0  0
   -4.5680   22.1180  -30.5450 C   0  0  0  0  0  0  0  0  0  0  0  0
   -4.0864   21.2154  -30.1408 H   0  0  0  0  0  0  0  0  0  0  0  0
   -4.1030   23.3880  -30.1590 C   0  0  0  0  0  0  0  0  0  0  0  0
   -3.0250   23.4450  -29.1510 C   0  0  0  0  0  0  0  0  0  0  0  0
   -2.5139   22.5178  -28.8523 H   0  0  0  0  0  0  0  0  0  0  0  0
   -2.6710   24.5710  -28.6120 N   0  0  0  0  0  0  0  0  0  0  0  0
   -1.6860   24.6810  -27.6060 N   0  0  0  0  0  0  0  0  0  0  0  0
   -2.0800   25.0300  -26.3410 C   0  0  0  0  0  0  0  0  0  0  0  0
   -3.5360   25.2590  -26.0310 C   0  0  0  0  0  0  0  0  0  0  0  0
   -3.6796   25.2816  -24.9406 H   0  0  0  0  0  0  0  0  0  0  0  0
   -3.8563   26.2186  -26.4630 H   0  0  0  0  0  0  0  0  0  0  0  0
   -4.1354   24.4441  -26.4630 H   0  0  0  0  0  0  0  0  0  0  0  0
   -1.1330   25.1460  -25.3150 C   0  0  0  0  0  0  0  0  0  0  0  0
   -1.4572   25.4087  -24.2972 H   0  0  0  0  0  0  0  0  0  0  0  0
    0.2230   24.9290  -25.5800 C   0  0  0  0  0  0  0  0  0  0  0  0
    1.2310   25.0600  -24.4680 C   0  0  0  0  0  0  0  0  0  0  0  0
    0.7172   24.9932  -23.4976 H   0  0  0  0  0  0  0  0  0  0  0  0
    1.9716   24.2506  -24.5472 H   0  0  0  0  0  0  0  0  0  0  0  0
    1.7401   26.0319  -24.5472 H   0  0  0  0  0  0  0  0  0  0  0  0
    0.6200   24.6160  -26.8920 C   0  0  0  0  0  0  0  0  0  0  0  0
    2.0170   24.4190  -27.2140 C   0  0  0  0  0  0  0  0  0  0  0  0
    3.1340   24.2600  -27.4710 N   0  0  0  0  0  0  0  0  0  0  0  0
   -0.3540   24.5100  -27.9000 C   0  0  0  0  0  0  0  0  0  0  0  0
    0.0090   24.2790  -29.0880 O   0  0  0  0  0  0  0  0  0  0  0  0
  1  2  1  0
  2  3  1  0
  3  4  2  0
  4  5  1  0
  4  6  1  0
  6  7  1  0
  6  8  2  0
  8  9  1  0
  8 10  1  0
 10 11  1  0
 10 12  2  0
 12 13  1  0
 13 14  1  0
 13 15  2  0
 15 16  1  0
 16 17  1  0
 17 18  1  0
 18 19  1  0
 18 20  1  0
 18 21  1  0
 17 22  2  0
 22 23  1  0
 22 24  1  0
 24 25  1  0
 25 26  1  0
 25 27  1  0
 25 28  1  0
 24 29  2  0
 29 30  1  0
 30 31  3  0
 29 32  1  0
 32 33  2  0
 12  3  1  0
 32 16  1  0
M  END
>  <UniqueID>  (16) 
15

>  <SMILES>  (16) 
Cc1cc(C)n(/N=C/c2cc(Br)ccc2O)c(=O)c1C#N

>  <Energy>  (16) 
46.819776154427636

>  <Genealogy>  (16) 
Cc1cc(C)n(/N=C/c2cc(Br)ccc2O)c(=O)c1C#N (cis-trans isomerization)
Cc1cc(C)n(/N=C/c2cc(Br)ccc2O)c(=O)c1C#N (3D coordinates assigned)
Cc1cc(C)n(/N=C/c2cc(Br)ccc2O)c(=O)c1C#N (optimized conformer: 46.819776154427636 kcal/mol)

>  <smiles>  (16) 
Cc1cc(C)n(N=Cc2cc(Br)ccc2O)c(=O)c1C#N

>  <score_type>  (16) 
oracle

>  <origin>  (16) 
adgpu

>  <m_score__min__energy>  (16) 
-8.4900000000000002

>  <m_primary>  (16) 
energy

$$$$
16:0
     RDKit          3D

 43 44  0  0  0  0  0  0  0  0999 V2000
   -6.4310   15.0380  -34.9000 H   0  0  0  0  0  0  0  0  0  0  0  0
   -7.0380   15.7990  -34.6180 O   0  0  0  0  0  0  0  0  0  0  0  0
   -6.5470   16.9030  -33.9240 C   0  0  0  0  0  0  0  0  0  0  0  0
   -5.7420   17.8510  -34.5680 C   0  0  0  0  0  0  0  0  0  0  0  0
   -5.4948   17.7269  -35.6327 H   0  0  0  0  0  0  0  0  0  0  0  0
   -5.2510   18.9550  -33.8630 C   0  0  0  0  0  0  0  0  0  0  0  0
   -4.6253   19.6989  -34.3779 H   0  0  0  0  0  0  0  0  0  0  0  0
   -5.5540   19.1190  -32.4960 C   0  0  0  0  0  0  0  0  0  0  0  0
   -5.0720   20.2770  -31.7020 C   0  0  0  0  0  0  0  0  0  0  0  0
   -5.8040   21.0412  -31.4016 H   0  0  0  0  0  0  0  0  0  0  0  0
   -3.7930   20.4440  -31.3300 C   0  0  0  0  0  0  0  0  0  0  0  0
   -3.0611   19.6795  -31.6298 H   0  0  0  0  0  0  0  0  0  0  0  0
   -3.3110   21.6020  -30.5370 C   0  0  0  0  0  0  0  0  0  0  0  0
   -3.6360   22.9290  -30.8670 C   0  0  0  0  0  0  0  0  0  0  0  0
   -4.2615   23.1336  -31.7484 H   0  0  0  0  0  0  0  0  0  0  0  0
   -3.1720   23.9910  -30.0860 C   0  0  0  0  0  0  0  0  0  0  0  0
   -3.4980   25.2920  -30.4560 O   0  0  0  0  0  0  0  0  0  0  0  0
   -2.3860   23.7450  -28.9450 C   0  0  0  0  0  0  0  0  0  0  0  0
   -1.8590   24.8990  -28.1200 C   0  0  0  0  0  0  0  0  0  0  0  0
   -2.0229   25.8395  -28.6665 H   0  0  0  0  0  0  0  0  0  0  0  0
   -0.7843   24.7474  -27.9410 H   0  0  0  0  0  0  0  0  0  0  0  0
   -2.5830   24.9670  -26.7690 C   0  0  0  0  0  0  0  0  0  0  0  0
   -2.6426   23.9518  -26.3498 H   0  0  0  0  0  0  0  0  0  0  0  0
   -3.5819   25.3916  -26.9473 H   0  0  0  0  0  0  0  0  0  0  0  0
   -1.8650   25.8750  -25.7590 C   0  0  0  0  0  0  0  0  0  0  0  0
   -1.7722   25.3356  -24.8048 H   0  0  0  0  0  0  0  0  0  0  0  0
   -2.4640   26.7914  -25.6518 H   0  0  0  0  0  0  0  0  0  0  0  0
   -0.4690   26.2880  -26.2250 C   0  0  0  0  0  0  0  0  0  0  0  0
    0.1690   26.4768  -25.3491 H   0  0  0  0  0  0  0  0  0  0  0  0
   -0.0309   25.4810  -26.8306 H   0  0  0  0  0  0  0  0  0  0  0  0
   -0.5405   27.2035  -26.8306 H   0  0  0  0  0  0  0  0  0  0  0  0
   -2.0490   22.4180  -28.6050 C   0  0  0  0  0  0  0  0  0  0  0  0
   -1.2380   22.1890  -27.4800 O   0  0  0  0  0  0  0  0  0  0  0  0
   -1.3180   21.0410  -26.6420 C   0  0  0  0  0  0  0  0  0  0  0  0
   -1.2962   21.3543  -25.5878 H   0  0  0  0  0  0  0  0  0  0  0  0
   -2.2558   20.5032  -26.8453 H   0  0  0  0  0  0  0  0  0  0  0  0
   -0.4639   20.3784  -26.8453 H   0  0  0  0  0  0  0  0  0  0  0  0
   -2.5280   21.3580  -29.4000 C   0  0  0  0  0  0  0  0  0  0  0  0
   -2.2835   20.3216  -29.1239 H   0  0  0  0  0  0  0  0  0  0  0  0
   -6.3770   18.1700  -31.8650 C   0  0  0  0  0  0  0  0  0  0  0  0
   -6.6400   18.2960  -30.8044 H   0  0  0  0  0  0  0  0  0  0  0  0
   -6.8640   17.0680  -32.5730 C   0  0  0  0  0  0  0  0  0  0  0  0
   -7.4993   16.3276  -32.0649 H   0  0  0  0  0  0  0  0  0  0  0  0
  1  2  1  0
  2  3  1  0
  3  4  2  0
  4  5  1  0
  4  6  1  0
  6  7  1  0
  6  8  2  0
  8  9  1  0
  9 10  1  0
  9 11  2  0
 11 12  1  0
 11 13  1  0
 13 14  2  0
 14 15  1  0
 14 16  1  0
 16 17  1  0
 16 18  2  0
 18 19  1  0
 19 20  1  0
 19 21  1  0
 19 22  1  0
 22 23  1  0
 22 24  1  0
 22 25  1  0
 25 26  1  0
 25 27  1  0
 25 28  1  0
 28 29  1  0
 28 30  1  0
 28 31  1  0
 18 32  1  0
 32 33  1  0
 33 34  1  0
 34 35  1  0
 34 36  1  0
 34 37  1  0
 32 38  2  0
 38 39  1  0
  8 40  1  0
 40 41  1  0
 40 42  2  0
 42 43  1  0
 42  3  1  0
 38 13  1  0
M  CHG  1  17  -1
M  END
>  <UniqueID>  (17) 
16

>  <SMILES>  (17) 
CCCCc1c([O-])cc(/C=C/c2ccc(O)cc2)cc1OC

>  <Energy>  (17) 
42.09309195095273

>  <Genealogy>  (17) 
CCCCc1c([O-])cc(C=Cc2ccc(O)cc2)cc1OC (protonated)
CCCCc1c([O-])cc(/C=C/c2ccc(O)cc2)cc1OC (cis-trans isomerization)
CCCCc1c([O-])cc(/C=C/c2ccc(O)cc2)cc1OC (3D coordinates assigned)
CCCCc1c([O-])cc(/C=C/c2ccc(O)cc2)cc1OC (optimized conformer: 42.09309195095273 kcal/mol)

>  <smiles>  (17) 
CCCCc1c(O)cc(C=Cc2ccc(O)cc2)cc1OC

>  <score_type>  (17) 
oracle

>  <origin>  (17) 
adgpu

>  <m_score__min__energy>  (17) 
-9.5800000000000001

>  <m_primary>  (17) 
energy

$$$$
17:0
     RDKit          3D

 35 37  0  0  0  0  0  0  0  0999 V2000
   -2.0060   25.2040  -29.3210 O   0  0  0  0  0  0  0  0  0  0  0  0
   -3.0720   24.6540  -29.7010 C   0  0  0  0  0  0  0  0  0  0  0  0
   -3.4450   23.4100  -29.1960 C   0  0  0  0  0  0  0  0  0  0  0  0
   -4.6310   22.8260  -29.6350 C   0  0  0  0  0  0  0  0  0  0  0  0
   -5.4270   23.5040  -30.5720 C   0  0  0  0  0  0  0  0  0  0  0  0
   -6.7010   22.9320  -31.0810 C   0  0  0  0  0  0  0  0  0  0  0  0
   -7.7520   23.7580  -31.5240 C   0  0  0  0  0  0  0  0  0  0  0  0
   -8.9360   23.1970  -32.0110 C   0  0  0  0  0  0  0  0  0  0  0  0
   -9.0830   21.8110  -32.0730 C   0  0  0  0  0  0  0  0  0  0  0  0
   -8.0440   20.9740  -31.6510 C   0  0  0  0  0  0  0  0  0  0  0  0
   -8.2210   19.2250  -31.7490 S   0  0  0  0  0  0  0  0  0  0  0  0
   -9.1200   18.7650  -30.6370 O   0  0  0  0  0  0  0  0  0  0  0  0
   -8.8260   18.8290  -33.0670 O   0  0  0  0  0  0  0  0  0  0  0  0
   -6.6750   18.4550  -31.5820 N   0  0  0  0  0  0  0  0  0  0  0  0
   -5.6590   18.4000  -32.5950 C   0  0  0  0  0  0  0  0  0  0  0  0
   -4.4720   19.1510  -32.4910 C   0  0  0  0  0  0  0  0  0  0  0  0
   -3.4950   19.0680  -33.4850 C   0  0  0  0  0  0  0  0  0  0  0  0
   -3.6890   18.2400  -34.5910 C   0  0  0  0  0  0  0  0  0  0  0  0
   -4.8630   17.4930  -34.7060 C   0  0  0  0  0  0  0  0  0  0  0  0
   -5.8490   17.5670  -33.7160 C   0  0  0  0  0  0  0  0  0  0  0  0
   -7.0070   16.8020  -33.8650 O   0  0  0  0  0  0  0  0  0  0  0  0
   -6.8600   21.5350  -31.1520 C   0  0  0  0  0  0  0  0  0  0  0  0
   -5.0030   24.7130  -31.0350 N   0  0  0  0  0  0  0  0  0  0  0  0
   -3.8670   25.2710  -30.6130 N   0  0  0  0  0  0  0  0  0  0  0  0
   -2.8105   22.8953  -28.4595 H   0  0  0  0  0  0  0  0  0  0  0  0
   -4.9410   21.8429  -29.2512 H   0  0  0  0  0  0  0  0  0  0  0  0
   -7.6405   24.8517  -31.4865 H   0  0  0  0  0  0  0  0  0  0  0  0
   -9.7547   23.8506  -32.3465 H   0  0  0  0  0  0  0  0  0  0  0  0
  -10.0181   21.3750  -32.4546 H   0  0  0  0  0  0  0  0  0  0  0  0
   -4.3138   19.8065  -31.6219 H   0  0  0  0  0  0  0  0  0  0  0  0
   -2.5702   19.6568  -33.3959 H   0  0  0  0  0  0  0  0  0  0  0  0
   -2.9173   18.1757  -35.3722 H   0  0  0  0  0  0  0  0  0  0  0  0
   -5.0137   16.8424  -35.5801 H   0  0  0  0  0  0  0  0  0  0  0  0
   -7.8260   16.9360  -33.2840 H   0  0  0  0  0  0  0  0  0  0  0  0
   -6.0468   20.8767  -30.8124 H   0  0  0  0  0  0  0  0  0  0  0  0
  1  2  2  0
  2  3  1  0
  3  4  2  0
  4  5  1  0
  5  6  1  0
  6  7  2  0
  7  8  1  0
  8  9  2  0
  9 10  1  0
 10 11  1  0
 11 12  2  0
 11 13  2  0
 11 14  1  0
 14 15  1  0
 15 16  2  0
 16 17  1  0
 17 18  2  0
 18 19  1  0
 19 20  2  0
 20 21  1  0
 10 22  2  0
  5 23  2  0
 23 24  1  0
 24  2  1  0
 22  6  1  0
 20 15  1  0
  3 25  1  0
  4 26  1  0
  7 27  1  0
  8 28  1  0
  9 29  1  0
 16 30  1  0
 17 31  1  0
 18 32  1  0
 19 33  1  0
 21 34  1  0
 22 35  1  0
M  CHG  2  14  -1  24  -1
M  END
>  <UniqueID>  (18) 
17

>  <SMILES>  (18) 
O=c1ccc(-c2cccc(S(=O)(=O)[N-]c3ccccc3O)c2)n[n-]1

>  <Energy>  (18) 
46.499594002248685

>  <Genealogy>  (18) 
O=c1ccc(-c2cccc(S(=O)(=O)[N-]c3ccccc3O)c2)n[n-]1 (protonated)
O=c1ccc(-c2cccc(S(=O)(=O)[N-]c3ccccc3O)c2)n[n-]1 (3D coordinates assigned)
O=c1ccc(-c2cccc(S(=O)(=O)[N-]c3ccccc3O)c2)n[n-]1 (optimized conformer: 46.499594002248685 kcal/mol)

>  <smiles>  (18) 
O=c1ccc(-c2cccc(S(=O)(=O)Nc3ccccc3O)c2)n[nH]1

>  <score_type>  (18) 
oracle

>  <origin>  (18) 
adgpu

>  <m_score__min__energy>  (18) 
-11.1

>  <m_primary>  (18) 
energy

$$$$
18:0
     RDKit          3D

 60 63  0  0  0  0  0  0  0  0999 V2000
   -6.9120   16.0770  -33.9700 C   0  0  0  0  0  0  0  0  0  0  0  0
   -5.5530   16.6980  -34.0560 C   0  0  0  0  0  0  0  0  0  0  0  0
   -4.4070   15.9910  -34.0170 N   0  0  0  0  0  0  0  0  0  0  0  0
   -3.3980   16.8520  -34.0460 N   0  0  0  0  0  0  0  0  0  0  0  0
   -2.0020   16.4440  -34.0920 C   0  0  0  0  0  0  0  0  0  0  0  0
   -3.8730   18.1150  -34.1130 C   0  0  0  0  0  0  0  0  0  0  0  0
   -3.0340   19.3510  -34.2070 C   0  0  0  0  0  0  0  0  0  0  0  0
   -5.2530   18.0480  -34.0870 C   0  0  0  0  0  0  0  0  0  0  0  0
   -6.1840   19.1300  -34.1660 N   0  0  0  0  0  0  0  0  0  0  0  0
   -6.9470   19.7440  -32.7370 S   0  0  0  0  0  0  0  0  0  0  0  0
   -8.3320   20.2250  -33.0600 O   0  0  0  0  0  0  0  0  0  0  0  0
   -7.0440   18.6460  -31.7200 O   0  0  0  0  0  0  0  0  0  0  0  0
   -5.9710   21.0480  -32.0700 C   0  0  0  0  0  0  0  0  0  0  0  0
   -4.5750   20.9350  -32.0750 C   0  0  0  0  0  0  0  0  0  0  0  0
   -3.7830   21.9450  -31.5250 C   0  0  0  0  0  0  0  0  0  0  0  0
   -4.3750   23.0900  -30.9620 C   0  0  0  0  0  0  0  0  0  0  0  0
   -3.5330   24.1490  -30.3600 C   0  0  0  0  0  0  0  0  0  0  0  0
   -3.8640   25.3610  -30.4780 O   0  0  0  0  0  0  0  0  0  0  0  0
   -2.3080   23.7980  -29.6990 N   0  0  0  0  0  0  0  0  0  0  0  0
   -1.7410   24.4340  -28.5450 C   0  0  0  0  0  0  0  0  0  0  0  0
   -1.3650   25.7910  -28.5610 C   0  0  0  0  0  0  0  0  0  0  0  0
   -0.7910   26.3760  -27.4300 C   0  0  0  0  0  0  0  0  0  0  0  0
   -0.5970   25.6190  -26.2700 C   0  0  0  0  0  0  0  0  0  0  0  0
   -0.9960   24.2800  -26.2330 C   0  0  0  0  0  0  0  0  0  0  0  0
   -1.5810   23.6880  -27.3600 C   0  0  0  0  0  0  0  0  0  0  0  0
   -1.9600   22.3070  -27.3090 N   0  0  0  0  0  0  0  0  0  0  0  0
   -3.2370   21.8830  -27.8900 C   0  0  0  0  0  0  0  0  0  0  0  0
   -3.0800   20.5500  -28.6470 C   0  0  0  0  0  0  0  0  0  0  0  0
   -2.0400   19.6490  -28.0960 N   0  0  0  0  0  0  0  0  0  0  0  0
   -1.7030   19.9380  -26.6990 C   0  0  0  0  0  0  0  0  0  0  0  0
   -1.1310   21.3530  -26.5710 C   0  0  0  0  0  0  0  0  0  0  0  0
   -5.7790   23.1970  -30.9610 C   0  0  0  0  0  0  0  0  0  0  0  0
   -6.5690   22.1830  -31.5100 C   0  0  0  0  0  0  0  0  0  0  0  0
   -7.1907   15.9496  -32.9136 H   0  0  0  0  0  0  0  0  0  0  0  0
   -7.6453   16.7294  -34.4666 H   0  0  0  0  0  0  0  0  0  0  0  0
   -6.8988   15.0956  -34.4666 H   0  0  0  0  0  0  0  0  0  0  0  0
   -1.6188   16.3320  -33.0670 H   0  0  0  0  0  0  0  0  0  0  0  0
   -1.9179   15.4837  -34.6219 H   0  0  0  0  0  0  0  0  0  0  0  0
   -1.4140   17.2079  -34.6219 H   0  0  0  0  0  0  0  0  0  0  0  0
   -2.7919   19.7077  -33.1950 H   0  0  0  0  0  0  0  0  0  0  0  0
   -2.1036   19.1224  -34.7476 H   0  0  0  0  0  0  0  0  0  0  0  0
   -3.5899   20.1313  -34.7476 H   0  0  0  0  0  0  0  0  0  0  0  0
   -6.6860   19.2840  -35.0700 H   0  0  0  0  0  0  0  0  0  0  0  0
   -4.0998   20.0457  -32.5146 H   0  0  0  0  0  0  0  0  0  0  0  0
   -2.6876   21.8444  -31.5321 H   0  0  0  0  0  0  0  0  0  0  0  0
   -1.5240   26.3928  -29.4680 H   0  0  0  0  0  0  0  0  0  0  0  0
   -0.4910   27.4341  -27.4516 H   0  0  0  0  0  0  0  0  0  0  0  0
   -0.1300   26.0779  -25.3861 H   0  0  0  0  0  0  0  0  0  0  0  0
   -0.8503   23.6894  -25.3165 H   0  0  0  0  0  0  0  0  0  0  0  0
   -3.9747   21.7550  -27.0841 H   0  0  0  0  0  0  0  0  0  0  0  0
   -3.5737   22.6531  -28.5997 H   0  0  0  0  0  0  0  0  0  0  0  0
   -4.0442   20.0215  -28.6156 H   0  0  0  0  0  0  0  0  0  0  0  0
   -2.7628   20.8059  -29.6687 H   0  0  0  0  0  0  0  0  0  0  0  0
   -1.1650   19.7320  -28.6770 H   0  0  0  0  0  0  0  0  0  0  0  0
   -2.6104   19.8565  -26.0826 H   0  0  0  0  0  0  0  0  0  0  0  0
   -0.9481   19.2150  -26.3565 H   0  0  0  0  0  0  0  0  0  0  0  0
   -1.1067   21.6394  -25.5092 H   0  0  0  0  0  0  0  0  0  0  0  0
   -0.1137   21.3659  -26.9893 H   0  0  0  0  0  0  0  0  0  0  0  0
   -6.2580   24.0859  -30.5246 H   0  0  0  0  0  0  0  0  0  0  0  0
   -7.6649   22.2773  -31.5020 H   0  0  0  0  0  0  0  0  0  0  0  0
  1  2  1  0
  2  3  2  0
  3  4  1  0
  4  5  1  0
  4  6  1  0
  6  7  1  0
  6  8  2  0
  8  9  1  0
  9 10  1  0
 10 11  2  0
 10 12  2  0
 10 13  1  0
 13 14  2  0
 14 15  1  0
 15 16  2  0
 16 17  1  0
 17 18  2  0
 17 19  1  0
 19 20  1  0
 20 21  2  0
 21 22  1  0
 22 23  2  0
 23 24  1  0
 24 25  2  0
 25 26  1  0
 26 27  1  0
 27 28  1  0
 28 29  1  0
 29 30  1  0
 30 31  1  0
 16 32  1  0
 32 33  2  0
  8  2  1  0
 33 13  1  0
 25 20  1  0
 31 26  1  0
  1 34  1  0
  1 35  1  0
  1 36  1  0
  5 37  1  0
  5 38  1  0
  5 39  1  0
  7 40  1  0
  7 41  1  0
  7 42  1  0
  9 43  1  0
 14 44  1  0
 15 45  1  0
 21 46  1  0
 22 47  1  0
 23 48  1  0
 24 49  1  0
 27 50  1  0
 27 51  1  0
 28 52  1  0
 28 53  1  0
 29 54  1  0
 30 55  1  0
 30 56  1  0
 31 57  1  0
 31 58  1  0
 32 59  1  0
 33 60  1  0
M  CHG  1  19  -1
M  END
>  <UniqueID>  (19) 
18

>  <SMILES>  (19) 
Cc1nn(C)c(C)c1NS(=O)(=O)c1ccc(C(=O)[N-]c2ccccc2N2CCNCC2)cc1

>  <Energy>  (19) 
111.59951328710343

>  <Genealogy>  (19) 
Cc1nn(C)c(C)c1NS(=O)(=O)c1ccc(C(=O)[N-]c2ccccc2N2CCNCC2)cc1 (protonated)
Cc1nn(C)c(C)c1NS(=O)(=O)c1ccc(C(=O)[N-]c2ccccc2N2CCNCC2)cc1 (3D coordinates assigned)
Cc1nn(C)c(C)c1NS(=O)(=O)c1ccc(C(=O)[N-]c2ccccc2N2CCNCC2)cc1 (nonaromatic ring conformer: 111.59951328710343 kcal/mol)

>  <smiles>  (19) 
Cc1nn(C)c(C)c1NS(=O)(=O)c1ccc(C(=O)Nc2ccccc2N2CCNCC2)cc1

>  <score_type>  (19) 
oracle

>  <origin>  (19) 
adgpu

>  <m_score__min__energy>  (19) 
-11.880000000000001

>  <m_primary>  (19) 
energy

$$$$
19:0
     RDKit          3D

 41 43  0  0  0  0  0  0  0  0999 V2000
   -5.8620   14.7890  -34.2600 C   0  0  0  0  0  0  0  0  0  0  0  0
   -5.8020   16.2030  -33.7520 C   0  0  0  0  0  0  0  0  0  0  0  0
   -6.8750   16.7340  -33.0190 C   0  0  0  0  0  0  0  0  0  0  0  0
   -6.8350   18.0450  -32.5350 C   0  0  0  0  0  0  0  0  0  0  0  0
   -7.9360   18.5210  -31.8080 O   0  0  0  0  0  0  0  0  0  0  0  0
   -8.9820   19.3160  -32.3580 C   0  0  0  0  0  0  0  0  0  0  0  0
   -8.6940   20.7570  -32.0870 C   0  0  0  0  0  0  0  0  0  0  0  0
   -9.6150   21.7720  -32.3320 C   0  0  0  0  0  0  0  0  0  0  0  0
   -8.8720   23.2320  -31.9590 S   0  0  0  0  0  0  0  0  0  0  0  0
   -7.4100   22.5180  -31.5130 C   0  0  0  0  0  0  0  0  0  0  0  0
   -6.2010   23.2350  -31.0480 C   0  0  0  0  0  0  0  0  0  0  0  0
   -4.9540   22.5850  -30.9850 C   0  0  0  0  0  0  0  0  0  0  0  0
   -3.8180   23.2720  -30.5420 C   0  0  0  0  0  0  0  0  0  0  0  0
   -3.9140   24.6130  -30.1600 C   0  0  0  0  0  0  0  0  0  0  0  0
   -2.7850   25.2930  -29.7210 O   0  0  0  0  0  0  0  0  0  0  0  0
   -5.1460   25.2680  -30.2200 C   0  0  0  0  0  0  0  0  0  0  0  0
   -6.2840   24.5860  -30.6610 C   0  0  0  0  0  0  0  0  0  0  0  0
   -7.4770   21.1730  -31.6450 N   0  0  0  0  0  0  0  0  0  0  0  0
   -5.7010   18.8360  -32.7900 C   0  0  0  0  0  0  0  0  0  0  0  0
   -4.6270   18.3160  -33.5150 C   0  0  0  0  0  0  0  0  0  0  0  0
   -4.6650   16.9950  -34.0010 C   0  0  0  0  0  0  0  0  0  0  0  0
   -3.5990   16.4410  -34.7300 O   0  0  0  0  0  0  0  0  0  0  0  0
   -2.2530   16.9040  -34.6740 C   0  0  0  0  0  0  0  0  0  0  0  0
   -1.3310   15.7470  -34.8650 C   0  0  0  0  0  0  0  0  0  0  0  0
   -1.5360   14.6660  -34.2530 O   0  0  0  0  0  0  0  0  0  0  0  0
   -0.2100   15.8780  -35.6760 O   0  0  0  0  0  0  0  0  0  0  0  0
   -5.8915   14.0942  -33.4078 H   0  0  0  0  0  0  0  0  0  0  0  0
   -6.7665   14.6573  -34.8719 H   0  0  0  0  0  0  0  0  0  0  0  0
   -4.9719   14.5811  -34.8719 H   0  0  0  0  0  0  0  0  0  0  0  0
   -7.7594   16.1100  -32.8227 H   0  0  0  0  0  0  0  0  0  0  0  0
   -9.0393   19.1495  -33.4438 H   0  0  0  0  0  0  0  0  0  0  0  0
   -9.9413   19.0366  -31.8980 H   0  0  0  0  0  0  0  0  0  0  0  0
  -10.6425   21.6417  -32.7025 H   0  0  0  0  0  0  0  0  0  0  0  0
   -4.8719   21.5302  -31.2859 H   0  0  0  0  0  0  0  0  0  0  0  0
   -2.8479   22.7556  -30.4944 H   0  0  0  0  0  0  0  0  0  0  0  0
   -5.2212   26.3235  -29.9194 H   0  0  0  0  0  0  0  0  0  0  0  0
   -7.2509   25.1086  -30.7059 H   0  0  0  0  0  0  0  0  0  0  0  0
   -5.6597   19.8698  -32.4164 H   0  0  0  0  0  0  0  0  0  0  0  0
   -3.7442   18.9433  -33.7080 H   0  0  0  0  0  0  0  0  0  0  0  0
   -2.0847   17.6445  -35.4698 H   0  0  0  0  0  0  0  0  0  0  0  0
   -2.0624   17.3727  -33.6973 H   0  0  0  0  0  0  0  0  0  0  0  0
  1  2  1  0
  2  3  2  0
  3  4  1  0
  4  5  1  0
  5  6  1  0
  6  7  1  0
  7  8  2  0
  8  9  1  0
  9 10  1  0
 10 11  1  0
 11 12  2  0
 12 13  1  0
 13 14  2  0
 14 15  1  0
 14 16  1  0
 16 17  2  0
 10 18  2  0
  4 19  2  0
 19 20  1  0
 20 21  2  0
 21 22  1  0
 22 23  1  0
 23 24  1  0
 24 25  2  0
 24 26  1  0
 21  2  1  0
 18  7  1  0
 17 11  1  0
  1 27  1  0
  1 28  1  0
  1 29  1  0
  3 30  1  0
  6 31  1  0
  6 32  1  0
  8 33  1  0
 12 34  1  0
 13 35  1  0
 16 36  1  0
 17 37  1  0
 19 38  1  0
 20 39  1  0
 23 40  1  0
 23 41  1  0
M  CHG  2  15  -1  26  -1
M  END
>  <UniqueID>  (20) 
19

>  <SMILES>  (20) 
Cc1cc(OCc2csc(-c3ccc([O-])cc3)n2)ccc1OCC(=O)[O-]

>  <Energy>  (20) 
70.60227618810735

>  <Genealogy>  (20) 
Cc1cc(OCc2csc(-c3ccc([O-])cc3)n2)ccc1OCC(=O)[O-] (protonated)
Cc1cc(OCc2csc(-c3ccc([O-])cc3)n2)ccc1OCC(=O)[O-] (3D coordinates assigned)
Cc1cc(OCc2csc(-c3ccc([O-])cc3)n2)ccc1OCC(=O)[O-] (optimized conformer: 70.60227618810735 kcal/mol)

>  <smiles>  (20) 
Cc1cc(OCc2csc(-c3ccc(O)cc3)n2)ccc1OCC(=O)O

>  <score_type>  (20) 
oracle

>  <origin>  (20) 
adgpu

>  <m_score__min__energy>  (20) 
-11.42

>  <m_primary>  (20) 
energy

$$$$
20:0
     RDKit          3D

 65 69  0  0  0  0  0  0  0  0999 V2000
   -4.5620   19.7830  -31.1610 H   0  0  0  0  0  0  0  0  0  0  0  0
   -4.1120   20.3540  -30.4130 N   0  0  0  0  0  0  0  0  0  0  0  0
   -4.0520   21.6500  -30.4360 C   0  0  0  0  0  0  0  0  0  0  0  0
   -3.4020   22.2980  -29.4380 N   0  0  0  0  0  0  0  0  0  0  0  0
   -3.2710   23.6510  -29.4410 C   0  0  0  0  0  0  0  0  0  0  0  0
   -2.5650   24.3410  -28.3350 C   0  0  0  0  0  0  0  0  0  0  0  0
   -3.2860   24.9120  -27.2740 C   0  0  0  0  0  0  0  0  0  0  0  0
   -4.3838   24.8441  -27.2603 H   0  0  0  0  0  0  0  0  0  0  0  0
   -2.6190   25.5650  -26.2370 C   0  0  0  0  0  0  0  0  0  0  0  0
   -3.1969   26.0169  -25.4174 H   0  0  0  0  0  0  0  0  0  0  0  0
   -1.2210   25.6510  -26.2290 C   0  0  0  0  0  0  0  0  0  0  0  0
   -0.5630   26.3440  -25.1590 N   0  0  0  0  0  0  0  0  0  0  0  0
   -0.9240   27.7370  -24.8860 C   0  0  0  0  0  0  0  0  0  0  0  0
   -1.1171   28.2582  -25.8352 H   0  0  0  0  0  0  0  0  0  0  0  0
   -1.8287   27.7648  -24.2609 H   0  0  0  0  0  0  0  0  0  0  0  0
    0.2260   28.4290  -24.1490 C   0  0  0  0  0  0  0  0  0  0  0  0
    1.0846   28.5250  -24.8298 H   0  0  0  0  0  0  0  0  0  0  0  0
   -0.1138   29.4217  -23.8186 H   0  0  0  0  0  0  0  0  0  0  0  0
    0.6170   27.6810  -23.0110 O   0  0  0  0  0  0  0  0  0  0  0  0
    1.1480   26.4320  -23.4150 C   0  0  0  0  0  0  0  0  0  0  0  0
    1.9685   26.6021  -24.1277 H   0  0  0  0  0  0  0  0  0  0  0  0
    1.5184   25.9012  -22.5256 H   0  0  0  0  0  0  0  0  0  0  0  0
    0.0700   25.5760  -24.0850 C   0  0  0  0  0  0  0  0  0  0  0  0
    0.5297   24.6689  -24.5043 H   0  0  0  0  0  0  0  0  0  0  0  0
   -0.6883   25.2913  -23.3407 H   0  0  0  0  0  0  0  0  0  0  0  0
   -0.4810   25.0570  -27.2760 C   0  0  0  0  0  0  0  0  0  0  0  0
    1.2880   25.0700  -27.2820 S   0  0  0  0  0  0  0  0  0  0  0  0
    1.8060   24.5310  -28.5860 O   0  0  0  0  0  0  0  0  0  0  0  0
    1.7880   26.4790  -27.1210 O   0  0  0  0  0  0  0  0  0  0  0  0
    1.8820   24.1050  -25.9770 N   0  0  0  0  0  0  0  0  0  0  0  0
    2.8870   23.9040  -26.1790 H   0  0  0  0  0  0  0  0  0  0  0  0
   -1.1610   24.4230  -28.3260 C   0  0  0  0  0  0  0  0  0  0  0  0
   -0.5875   23.9831  -29.1552 H   0  0  0  0  0  0  0  0  0  0  0  0
   -3.7960   24.3620  -30.4740 N   0  0  0  0  0  0  0  0  0  0  0  0
   -4.4530   23.7560  -31.4620 N   0  0  0  0  0  0  0  0  0  0  0  0
   -4.6140   22.4060  -31.4830 C   0  0  0  0  0  0  0  0  0  0  0  0
   -5.4150   21.8070  -32.5120 N   0  0  0  0  0  0  0  0  0  0  0  0
   -6.8630   22.0140  -32.5060 C   0  0  0  0  0  0  0  0  0  0  0  0
   -7.1272   22.7722  -31.7541 H   0  0  0  0  0  0  0  0  0  0  0  0
   -7.1999   22.3637  -33.4930 H   0  0  0  0  0  0  0  0  0  0  0  0
   -7.5360   20.6870  -32.1600 C   0  0  0  0  0  0  0  0  0  0  0  0
   -7.2178   20.3826  -31.1520 H   0  0  0  0  0  0  0  0  0  0  0  0
   -8.6239   20.8410  -32.2120 H   0  0  0  0  0  0  0  0  0  0  0  0
   -7.1870   19.6030  -33.1180 N   0  0  0  0  0  0  0  0  0  0  0  0
   -7.9890   19.5160  -33.7870 H   0  0  0  0  0  0  0  0  0  0  0  0
   -7.0980   18.0550  -32.3010 S   0  0  0  0  0  0  0  0  0  0  0  0
   -6.4970   18.2450  -30.9370 O   0  0  0  0  0  0  0  0  0  0  0  0
   -8.4890   17.5110  -32.1230 O   0  0  0  0  0  0  0  0  0  0  0  0
   -6.1350   16.8790  -33.2010 C   0  0  0  0  0  0  0  0  0  0  0  0
   -6.7520   15.7840  -33.8280 C   0  0  0  0  0  0  0  0  0  0  0  0
   -7.8451   15.6700  -33.7820 H   0  0  0  0  0  0  0  0  0  0  0  0
   -5.9810   14.8390  -34.5100 C   0  0  0  0  0  0  0  0  0  0  0  0
   -6.4675   13.9789  -34.9933 H   0  0  0  0  0  0  0  0  0  0  0  0
   -4.5920   14.9850  -34.5790 C   0  0  0  0  0  0  0  0  0  0  0  0
   -3.9863   14.2381  -35.1130 H   0  0  0  0  0  0  0  0  0  0  0  0
   -3.9740   16.0790  -33.9700 C   0  0  0  0  0  0  0  0  0  0  0  0
   -2.8817   16.1955  -34.0282 H   0  0  0  0  0  0  0  0  0  0  0  0
   -4.7420   17.0270  -33.2860 C   0  0  0  0  0  0  0  0  0  0  0  0
   -4.2526   17.8913  -32.8132 H   0  0  0  0  0  0  0  0  0  0  0  0
   -5.9770   19.8510  -33.9480 C   0  0  0  0  0  0  0  0  0  0  0  0
   -5.5627   18.8797  -34.2561 H   0  0  0  0  0  0  0  0  0  0  0  0
   -6.2957   20.4633  -34.8045 H   0  0  0  0  0  0  0  0  0  0  0  0
   -4.8740   20.6400  -33.2180 C   0  0  0  0  0  0  0  0  0  0  0  0
   -4.3857   19.9773  -32.4883 H   0  0  0  0  0  0  0  0  0  0  0  0
   -4.1553   20.9982  -33.9698 H   0  0  0  0  0  0  0  0  0  0  0  0
  1  2  1  0
  2  3  2  0
  3  4  1  0
  4  5  1  0
  5  6  1  0
  6  7  2  0
  7  8  1  0
  7  9  1  0
  9 10  1  0
  9 11  2  0
 11 12  1  0
 12 13  1  0
 13 14  1  0
 13 15  1  0
 13 16  1  0
 16 17  1  0
 16 18  1  0
 16 19  1  0
 19 20  1  0
 20 21  1  0
 20 22  1  0
 20 23  1  0
 23 24  1  0
 23 25  1  0
 11 26  1  0
 26 27  1  0
 27 28  2  0
 27 29  2  0
 27 30  1  0
 30 31  1  0
 26 32  2  0
 32 33  1  0
  5 34  2  0
 34 35  1  0
 35 36  2  0
 36 37  1  0
 37 38  1  0
 38 39  1  0
 38 40  1  0
 38 41  1  0
 41 42  1  0
 41 43  1  0
 41 44  1  0
 44 45  1  0
 44 46  1  0
 46 47  2  0
 46 48  2  0
 46 49  1  0
 49 50  2  0
 50 51  1  0
 50 52  1  0
 52 53  1  0
 52 54  2  0
 54 55  1  0
 54 56  1  0
 56 57  1  0
 56 58  2  0
 58 59  1  0
 44 60  1  0
 60 61  1  0
 60 62  1  0
 60 63  1  0
 63 64  1  0
 63 65  1  0
 36  3  1  0
 63 37  1  0
 32  6  1  0
 58 49  1  0
 23 12  1  0
M  CHG  3   4  -1  30  -1  44   1
M  END
>  <UniqueID>  (21) 
20

>  <SMILES>  (21) 
[H]/N=c1/[n-]c(-c2ccc(N3CCOCC3)c(S([NH-])(=O)=O)c2)nnc1N1CC[NH+](S(=O)(=O)c2ccccc2)CC1

>  <Energy>  (21) 
92.28630295448731

>  <Genealogy>  (21) 
N=c1[n-]c(-c2ccc(N3CCOCC3)c(S([NH-])(=O)=O)c2)nnc1N1CC[NH+](S(=O)(=O)c2ccccc2)CC1 (protonated)
[H]/N=c1/[n-]c(-c2ccc(N3CCOCC3)c(S([NH-])(=O)=O)c2)nnc1N1CC[NH+](S(=O)(=O)c2ccccc2)CC1 (cis-trans isomerization)
[H]/N=c1/[n-]c(-c2ccc(N3CCOCC3)c(S([NH-])(=O)=O)c2)nnc1N1CC[NH+](S(=O)(=O)c2ccccc2)CC1 (3D coordinates assigned)
[H]/N=c1/[n-]c(-c2ccc(N3CCOCC3)c(S([NH-])(=O)=O)c2)nnc1N1CC[NH+](S(=O)(=O)c2ccccc2)CC1 (nonaromatic ring conformer: 92.28630295448731 kcal/mol)

>  <smiles>  (21) 
N=c1[nH]c(-c2ccc(N3CCOCC3)c(S(N)(=O)=O)c2)nnc1N1CCN(S(=O)(=O)c2ccccc2)CC1

>  <score_type>  (21) 
oracle

>  <origin>  (21) 
adgpu

>  <m_score__min__energy>  (21) 
-10.92

>  <m_primary>  (21) 
energy

$$$$
21:0
     RDKit          3D

 64 68  0  0  0  0  0  0  0  0999 V2000
    0.6450   22.6660  -36.0740 C   0  0  0  0  0  0  0  0  0  0  0  0
    0.6230   22.2500  -34.7120 O   0  0  0  0  0  0  0  0  0  0  0  0
    0.1100   21.0150  -34.3050 C   0  0  0  0  0  0  0  0  0  0  0  0
    0.6580   20.3720  -33.1970 C   0  0  0  0  0  0  0  0  0  0  0  0
    0.1490   19.1360  -32.8040 C   0  0  0  0  0  0  0  0  0  0  0  0
   -0.8980   18.5640  -33.5320 C   0  0  0  0  0  0  0  0  0  0  0  0
   -1.3560   17.3970  -33.1900 N   0  0  0  0  0  0  0  0  0  0  0  0
   -2.6200   16.5530  -34.0270 S   0  0  0  0  0  0  0  0  0  0  0  0
   -2.5280   15.0950  -33.6740 O   0  0  0  0  0  0  0  0  0  0  0  0
   -2.4300   16.7080  -35.5120 O   0  0  0  0  0  0  0  0  0  0  0  0
   -4.2070   17.1540  -33.5580 C   0  0  0  0  0  0  0  0  0  0  0  0
   -4.8000   18.2280  -34.2340 C   0  0  0  0  0  0  0  0  0  0  0  0
   -6.0420   18.7180  -33.8170 C   0  0  0  0  0  0  0  0  0  0  0  0
   -6.7070   18.1450  -32.7250 C   0  0  0  0  0  0  0  0  0  0  0  0
   -7.9830   18.6810  -32.3400 N   0  0  0  0  0  0  0  0  0  0  0  0
   -8.4410   20.0340  -32.4820 C   0  0  0  0  0  0  0  0  0  0  0  0
   -9.5160   20.2820  -33.0940 O   0  0  0  0  0  0  0  0  0  0  0  0
   -7.6840   21.1410  -31.8500 C   0  0  0  0  0  0  0  0  0  0  0  0
   -8.1690   21.7620  -30.6840 C   0  0  0  0  0  0  0  0  0  0  0  0
   -7.4460   22.7930  -30.0760 C   0  0  0  0  0  0  0  0  0  0  0  0
   -6.2270   23.2180  -30.6230 C   0  0  0  0  0  0  0  0  0  0  0  0
   -5.2760   24.4770  -29.8420 S   0  0  0  0  0  0  0  0  0  0  0  0
   -6.1650   25.6260  -29.4500 O   0  0  0  0  0  0  0  0  0  0  0  0
   -4.2470   24.9760  -30.8200 O   0  0  0  0  0  0  0  0  0  0  0  0
   -4.4890   23.8270  -28.4190 N   0  0  2  0  0  0  0  0  0  0  0  0
   -3.2030   24.5520  -28.1700 C   0  0  0  0  0  0  0  0  0  0  0  0
   -2.0340   23.6420  -27.7550 C   0  0  0  0  0  0  0  0  0  0  0  0
   -1.9190   22.5230  -28.7440 C   0  0  0  0  0  0  0  0  0  0  0  0
   -0.6820   22.0900  -29.2420 C   0  0  0  0  0  0  0  0  0  0  0  0
   -0.6330   21.0370  -30.1640 C   0  0  0  0  0  0  0  0  0  0  0  0
   -1.8150   20.4120  -30.5770 C   0  0  0  0  0  0  0  0  0  0  0  0
   -3.0480   20.8350  -30.0710 C   0  0  0  0  0  0  0  0  0  0  0  0
   -3.1010   21.8990  -29.1570 C   0  0  0  0  0  0  0  0  0  0  0  0
   -4.3920   22.3460  -28.5230 C   0  0  0  0  0  0  0  0  0  0  0  0
   -5.7470   22.6110  -31.7890 C   0  0  0  0  0  0  0  0  0  0  0  0
   -6.4690   21.5850  -32.4020 C   0  0  0  0  0  0  0  0  0  0  0  0
   -6.1160   17.0540  -32.0580 C   0  0  0  0  0  0  0  0  0  0  0  0
   -4.8720   16.5690  -32.4730 C   0  0  0  0  0  0  0  0  0  0  0  0
   -1.4090   19.2380  -34.5980 N   0  0  0  0  0  0  0  0  0  0  0  0
   -0.9210   20.4230  -34.9730 N   0  0  0  0  0  0  0  0  0  0  0  0
    0.7030   23.7634  -36.1213 H   0  0  0  0  0  0  0  0  0  0  0  0
    1.5214   22.2305  -36.5763 H   0  0  0  0  0  0  0  0  0  0  0  0
   -0.2724   22.3253  -36.5763 H   0  0  0  0  0  0  0  0  0  0  0  0
    1.4843   20.8356  -32.6381 H   0  0  0  0  0  0  0  0  0  0  0  0
    0.5669   18.6156  -31.9296 H   0  0  0  0  0  0  0  0  0  0  0  0
   -4.2886   18.6863  -35.0933 H   0  0  0  0  0  0  0  0  0  0  0  0
   -6.5015   19.5621  -34.3521 H   0  0  0  0  0  0  0  0  0  0  0  0
   -9.1240   21.4339  -30.2476 H   0  0  0  0  0  0  0  0  0  0  0  0
   -7.8349   23.2722  -29.1655 H   0  0  0  0  0  0  0  0  0  0  0  0
   -5.1310   24.0340  -27.6180 H   0  0  0  0  0  0  0  0  0  0  0  0
   -2.9194   25.0778  -29.0937 H   0  0  0  0  0  0  0  0  0  0  0  0
   -3.3846   25.2359  -27.3278 H   0  0  0  0  0  0  0  0  0  0  0  0
   -1.0997   24.2225  -27.7432 H   0  0  0  0  0  0  0  0  0  0  0  0
   -2.2159   23.2349  -26.7494 H   0  0  0  0  0  0  0  0  0  0  0  0
    0.2472   22.5759  -28.9096 H   0  0  0  0  0  0  0  0  0  0  0  0
    0.3351   20.7010  -30.5638 H   0  0  0  0  0  0  0  0  0  0  0  0
   -1.7740   19.5856  -31.3018 H   0  0  0  0  0  0  0  0  0  0  0  0
   -3.9748   20.3348  -30.3886 H   0  0  0  0  0  0  0  0  0  0  0  0
   -5.2308   21.9789  -29.1326 H   0  0  0  0  0  0  0  0  0  0  0  0
   -4.4252   21.9350  -27.5032 H   0  0  0  0  0  0  0  0  0  0  0  0
   -4.7941   22.9445  -32.2257 H   0  0  0  0  0  0  0  0  0  0  0  0
   -6.0851   21.1210  -33.3225 H   0  0  0  0  0  0  0  0  0  0  0  0
   -6.6339   16.5830  -31.2095 H   0  0  0  0  0  0  0  0  0  0  0  0
   -4.4121   15.7216  -31.9434 H   0  0  0  0  0  0  0  0  0  0  0  0
  1  2  1  0
  2  3  1  0
  3  4  1  0
  4  5  2  0
  5  6  1  0
  6  7  2  3
  7  8  1  0
  8  9  2  0
  8 10  2  0
  8 11  1  0
 11 12  2  0
 12 13  1  0
 13 14  2  0
 14 15  1  0
 15 16  1  0
 16 17  2  0
 16 18  1  0
 18 19  2  0
 19 20  1  0
 20 21  2  0
 21 22  1  0
 22 23  2  0
 22 24  2  0
 22 25  1  0
 25 26  1  0
 26 27  1  0
 27 28  1  0
 28 29  2  0
 29 30  1  0
 30 31  2  0
 31 32  1  0
 32 33  2  0
 33 34  1  0
 21 35  1  0
 35 36  2  0
 14 37  1  0
 37 38  2  0
  6 39  1  0
 39 40  1  0
 40  3  2  0
 38 11  1  0
 36 18  1  0
 34 25  1  0
 33 28  1  0
  1 41  1  0
  1 42  1  0
  1 43  1  0
  4 44  1  0
  5 45  1  0
 12 46  1  0
 13 47  1  0
 19 48  1  0
 20 49  1  0
 25 50  1  1
 26 51  1  0
 26 52  1  0
 27 53  1  0
 27 54  1  0
 29 55  1  0
 30 56  1  0
 31 57  1  0
 32 58  1  0
 34 59  1  0
 34 60  1  0
 35 61  1  0
 36 62  1  0
 37 63  1  0
 38 64  1  0
M  CHG  3  15  -1  25   1  39  -1
M  END
>  <UniqueID>  (22) 
21

>  <SMILES>  (22) 
COc1ccc(=NS(=O)(=O)c2ccc([N-]C(=O)c3ccc(S(=O)(=O)[N@@H+]4CCc5ccccc5C4)cc3)cc2)[n-]n1

>  <Energy>  (22) 
87.20870133110971

>  <Genealogy>  (22) 
COc1ccc(=NS(=O)(=O)c2ccc([N-]C(=O)c3ccc(S(=O)(=O)[NH+]4CCc5ccccc5C4)cc3)cc2)[n-]n1 (protonated)
COc1ccc(=NS(=O)(=O)c2ccc([N-]C(=O)c3ccc(S(=O)(=O)[N@@H+]4CCc5ccccc5C4)cc3)cc2)[n-]n1 (chirality)
COc1ccc(=NS(=O)(=O)c2ccc([N-]C(=O)c3ccc(S(=O)(=O)[N@@H+]4CCc5ccccc5C4)cc3)cc2)[n-]n1 (3D coordinates assigned)
COc1ccc(=NS(=O)(=O)c2ccc([N-]C(=O)c3ccc(S(=O)(=O)[N@@H+]4CCc5ccccc5C4)cc3)cc2)[n-]n1 (nonaromatic ring conformer: 87.20870133110971 kcal/mol)

>  <smiles>  (22) 
COc1ccc(=NS(=O)(=O)c2ccc(NC(=O)c3ccc(S(=O)(=O)N4CCc5ccccc5C4)cc3)cc2)[nH]n1

>  <score_type>  (22) 
oracle

>  <origin>  (22) 
adgpu

>  <m_score__min__energy>  (22) 
-13.119999999999999

>  <m_primary>  (22) 
energy

$$$$
22:0
     RDKit          3D

 56 59  0  0  0  0  0  0  0  0999 V2000
   -8.8070   18.9860  -32.0260 C   0  0  0  0  0  0  0  0  0  0  0  0
   -7.3460   18.9170  -32.1840 N   0  0  0  0  0  0  0  0  0  0  0  0
   -6.9370   17.6190  -32.7400 C   0  0  0  0  0  0  0  0  0  0  0  0
   -6.7990   20.0630  -32.9450 C   0  0  0  0  0  0  0  0  0  0  0  0
   -6.8410   21.3770  -32.1920 C   0  0  0  0  0  0  0  0  0  0  0  0
   -7.9570   22.2220  -32.3070 C   0  0  0  0  0  0  0  0  0  0  0  0
   -7.9980   23.4310  -31.6110 C   0  0  0  0  0  0  0  0  0  0  0  0
   -6.9290   23.8120  -30.7990 C   0  0  0  0  0  0  0  0  0  0  0  0
   -5.7990   22.9860  -30.6750 C   0  0  0  0  0  0  0  0  0  0  0  0
   -4.6570   23.3940  -29.8150 C   0  0  0  0  0  0  0  0  0  0  0  0
   -4.3320   22.6670  -28.6580 C   0  0  0  0  0  0  0  0  0  0  0  0
   -3.2620   23.0630  -27.8550 C   0  0  0  0  0  0  0  0  0  0  0  0
   -2.5110   24.1960  -28.2080 C   0  0  0  0  0  0  0  0  0  0  0  0
   -1.3990   24.6380  -27.4040 N   0  0  0  0  0  0  0  0  0  0  0  0
   -1.1980   24.0570  -26.0670 C   0  0  0  0  0  0  0  0  0  0  0  0
    0.2950   23.8800  -25.7810 C   0  0  0  0  0  0  0  0  0  0  0  0
    1.0000   25.1250  -26.0940 N   0  0  0  0  0  0  0  0  0  0  0  0
    1.4620   25.9860  -25.0380 C   0  0  0  0  0  0  0  0  0  0  0  0
    2.7830   25.9860  -24.7070 N   0  0  0  0  0  0  0  0  0  0  0  0
    3.2820   26.7770  -23.7200 C   0  0  0  0  0  0  0  0  0  0  0  0
    2.4340   27.6220  -23.0080 C   0  0  0  0  0  0  0  0  0  0  0  0
    1.0710   27.6380  -23.3110 C   0  0  0  0  0  0  0  0  0  0  0  0
    0.5710   26.8170  -24.3270 C   0  0  0  0  0  0  0  0  0  0  0  0
   -0.8470   26.7970  -24.5890 C   0  0  0  0  0  0  0  0  0  0  0  0
   -1.9850   26.7780  -24.8010 N   0  0  0  0  0  0  0  0  0  0  0  0
    0.8470   25.6480  -27.4530 C   0  0  0  0  0  0  0  0  0  0  0  0
   -0.6390   25.8460  -27.7630 C   0  0  0  0  0  0  0  0  0  0  0  0
   -2.8390   24.8810  -29.3370 N   0  0  0  0  0  0  0  0  0  0  0  0
   -3.8750   24.5150  -30.1370 C   0  0  0  0  0  0  0  0  0  0  0  0
   -5.7630   21.7690  -31.3810 C   0  0  0  0  0  0  0  0  0  0  0  0
   -9.0599   18.9979  -30.9555 H   0  0  0  0  0  0  0  0  0  0  0  0
   -9.1844   19.9030  -32.5022 H   0  0  0  0  0  0  0  0  0  0  0  0
   -9.2691   18.1087  -32.5022 H   0  0  0  0  0  0  0  0  0  0  0  0
   -6.7171   16.9212  -31.9186 H   0  0  0  0  0  0  0  0  0  0  0  0
   -7.7506   17.2124  -33.3587 H   0  0  0  0  0  0  0  0  0  0  0  0
   -6.0373   17.7522  -33.3587 H   0  0  0  0  0  0  0  0  0  0  0  0
   -5.7515   19.8423  -33.1980 H   0  0  0  0  0  0  0  0  0  0  0  0
   -7.4322   20.1856  -33.8361 H   0  0  0  0  0  0  0  0  0  0  0  0
   -8.8018   21.9298  -32.9480 H   0  0  0  0  0  0  0  0  0  0  0  0
   -8.8767   24.0863  -31.7029 H   0  0  0  0  0  0  0  0  0  0  0  0
   -6.9712   24.7655  -30.2522 H   0  0  0  0  0  0  0  0  0  0  0  0
   -4.9239   21.7813  -28.3837 H   0  0  0  0  0  0  0  0  0  0  0  0
   -3.0080   22.4910  -26.9504 H   0  0  0  0  0  0  0  0  0  0  0  0
   -1.6349   24.7266  -25.3115 H   0  0  0  0  0  0  0  0  0  0  0  0
   -1.6878   23.0728  -26.0284 H   0  0  0  0  0  0  0  0  0  0  0  0
    0.4387   23.6337  -24.7186 H   0  0  0  0  0  0  0  0  0  0  0  0
    0.6945   23.0648  -26.4021 H   0  0  0  0  0  0  0  0  0  0  0  0
    4.3560   26.7496  -23.4837 H   0  0  0  0  0  0  0  0  0  0  0  0
    2.8342   28.2705  -22.2147 H   0  0  0  0  0  0  0  0  0  0  0  0
    0.3906   28.2962  -22.7507 H   0  0  0  0  0  0  0  0  0  0  0  0
    1.3697   26.6124  -27.5351 H   0  0  0  0  0  0  0  0  0  0  0  0
    1.2776   24.9335  -28.1699 H   0  0  0  0  0  0  0  0  0  0  0  0
   -1.0201   26.7003  -27.1843 H   0  0  0  0  0  0  0  0  0  0  0  0
   -0.7583   26.0381  -28.8395 H   0  0  0  0  0  0  0  0  0  0  0  0
   -4.1019   25.0995  -31.0408 H   0  0  0  0  0  0  0  0  0  0  0  0
   -4.8808   21.1174  -31.2968 H   0  0  0  0  0  0  0  0  0  0  0  0
  1  2  1  0
  2  3  1  0
  2  4  1  0
  4  5  1  0
  5  6  2  0
  6  7  1  0
  7  8  2  0
  8  9  1  0
  9 10  1  0
 10 11  2  0
 11 12  1  0
 12 13  2  0
 13 14  1  0
 14 15  1  0
 15 16  1  0
 16 17  1  0
 17 18  1  0
 18 19  2  0
 19 20  1  0
 20 21  2  0
 21 22  1  0
 22 23  2  0
 23 24  1  0
 24 25  3  0
 17 26  1  0
 26 27  1  0
 13 28  1  0
 28 29  2  0
  9 30  2  0
 30  5  1  0
 29 10  1  0
 27 14  1  0
 23 18  1  0
  1 31  1  0
  1 32  1  0
  1 33  1  0
  3 34  1  0
  3 35  1  0
  3 36  1  0
  4 37  1  0
  4 38  1  0
  6 39  1  0
  7 40  1  0
  8 41  1  0
 11 42  1  0
 12 43  1  0
 15 44  1  0
 15 45  1  0
 16 46  1  0
 16 47  1  0
 20 48  1  0
 21 49  1  0
 22 50  1  0
 26 51  1  0
 26 52  1  0
 27 53  1  0
 27 54  1  0
 29 55  1  0
 30 56  1  0
M  END
>  <UniqueID>  (23) 
22

>  <SMILES>  (23) 
CN(C)Cc1cccc(-c2ccc(N3CCN(c4ncccc4C#N)CC3)nc2)c1

>  <Energy>  (23) 
74.73303950689638

>  <Genealogy>  (23) 
CN(C)Cc1cccc(-c2ccc(N3CCN(c4ncccc4C#N)CC3)nc2)c1 (3D coordinates assigned)
CN(C)Cc1cccc(-c2ccc(N3CCN(c4ncccc4C#N)CC3)nc2)c1 (nonaromatic ring conformer: 74.73303950689638 kcal/mol)

>  <smiles>  (23) 
CN(C)Cc1cccc(-c2ccc(N3CCN(c4ncccc4C#N)CC3)nc2)c1

>  <score_type>  (23) 
oracle

>  <origin>  (23) 
adgpu

>  <m_score__min__energy>  (23) 
-8.8900000000000006

>  <m_primary>  (23) 
energy

$$$$
23:0
     RDKit          3D

 52 56  0  0  0  0  0  0  0  0999 V2000
    2.8490   29.2170  -33.5270 N   0  0  0  0  0  0  0  0  0  0  0  0
    2.5060   28.7330  -34.8250 C   0  0  0  0  0  0  0  0  0  0  0  0
    2.1130   29.5510  -35.7010 O   0  0  0  0  0  0  0  0  0  0  0  0
    2.6080   27.2890  -35.1430 C   0  0  0  0  0  0  0  0  0  0  0  0
    3.8010   26.5850  -34.9000 C   0  0  0  0  0  0  0  0  0  0  0  0
    3.8940   25.2230  -35.2010 C   0  0  0  0  0  0  0  0  0  0  0  0
    2.7910   24.5380  -35.7380 C   0  0  0  0  0  0  0  0  0  0  0  0
    2.8510   23.1750  -36.0660 O   0  0  0  0  0  0  0  0  0  0  0  0
    1.9350   22.1970  -35.6540 C   0  0  0  0  0  0  0  0  0  0  0  0
    0.7300   22.0670  -36.3500 C   0  0  0  0  0  0  0  0  0  0  0  0
   -0.2170   21.1150  -35.9610 C   0  0  0  0  0  0  0  0  0  0  0  0
    0.0230   20.2830  -34.8540 C   0  0  0  0  0  0  0  0  0  0  0  0
   -0.9780   19.2750  -34.4410 C   0  0  0  0  0  0  0  0  0  0  0  0
   -2.2990   19.5620  -34.2910 N   0  0  0  0  0  0  0  0  0  0  0  0
   -2.8160   18.3840  -33.9180 C   0  0  0  0  0  0  0  0  0  0  0  0
   -4.1450   18.0910  -33.6270 C   0  0  0  0  0  0  0  0  0  0  0  0
   -4.4570   16.7700  -33.2540 C   0  0  0  0  0  0  0  0  0  0  0  0
   -3.4420   15.7790  -33.1730 C   0  0  0  0  0  0  0  0  0  0  0  0
   -3.7750   14.4260  -32.8020 N   0  0  0  0  0  0  0  0  0  0  0  0
   -5.0840   13.8650  -33.1570 C   0  0  0  0  0  0  0  0  0  0  0  0
   -5.3680   12.5960  -32.3400 C   0  0  0  0  0  0  0  0  0  0  0  0
   -4.9110   12.7640  -30.9550 N   0  0  0  0  0  0  0  0  0  0  0  0
   -3.4460   12.9320  -30.8570 C   0  0  0  0  0  0  0  0  0  0  0  0
   -2.8070   13.5710  -32.1060 C   0  0  0  0  0  0  0  0  0  0  0  0
   -2.1060   16.1250  -33.4870 C   0  0  0  0  0  0  0  0  0  0  0  0
   -1.8400   17.4410  -33.8520 C   0  0  0  0  0  0  0  0  0  0  0  0
   -0.6560   17.9790  -34.1800 N   0  0  0  0  0  0  0  0  0  0  0  0
    1.2270   20.4280  -34.1420 C   0  0  0  0  0  0  0  0  0  0  0  0
    2.1720   21.3810  -34.5340 C   0  0  0  0  0  0  0  0  0  0  0  0
    1.6110   25.2400  -35.9990 C   0  0  0  0  0  0  0  0  0  0  0  0
    1.5150   26.6020  -35.7000 C   0  0  0  0  0  0  0  0  0  0  0  0
    2.5720   28.6930  -32.6680 H   0  0  0  0  0  0  0  0  0  0  0  0
    4.6669   27.1097  -34.4701 H   0  0  0  0  0  0  0  0  0  0  0  0
    4.8355   24.6848  -35.0165 H   0  0  0  0  0  0  0  0  0  0  0  0
    0.5249   22.7195  -37.2115 H   0  0  0  0  0  0  0  0  0  0  0  0
   -1.1562   21.0165  -36.5251 H   0  0  0  0  0  0  0  0  0  0  0  0
   -4.9246   18.8648  -33.6864 H   0  0  0  0  0  0  0  0  0  0  0  0
   -5.4984   16.5019  -33.0226 H   0  0  0  0  0  0  0  0  0  0  0  0
   -5.8653   14.6110  -32.9494 H   0  0  0  0  0  0  0  0  0  0  0  0
   -5.0803   13.6051  -34.2259 H   0  0  0  0  0  0  0  0  0  0  0  0
   -6.4501   12.3981  -32.3428 H   0  0  0  0  0  0  0  0  0  0  0  0
   -4.8274   11.7522  -32.7935 H   0  0  0  0  0  0  0  0  0  0  0  0
   -5.3760   13.6130  -30.5530 H   0  0  0  0  0  0  0  0  0  0  0  0
   -3.2278   13.5726  -29.9898 H   0  0  0  0  0  0  0  0  0  0  0  0
   -3.0145   11.9251  -30.7565 H   0  0  0  0  0  0  0  0  0  0  0  0
   -1.9431   14.1788  -31.7991 H   0  0  0  0  0  0  0  0  0  0  0  0
   -2.4861   12.7704  -32.7888 H   0  0  0  0  0  0  0  0  0  0  0  0
   -1.3018   15.3757  -33.4437 H   0  0  0  0  0  0  0  0  0  0  0  0
    1.4267   19.7872  -33.2705 H   0  0  0  0  0  0  0  0  0  0  0  0
    3.1056   21.4929  -33.9632 H   0  0  0  0  0  0  0  0  0  0  0  0
    0.7514   24.7167  -36.4431 H   0  0  0  0  0  0  0  0  0  0  0  0
    0.5773   27.1404  -35.9020 H   0  0  0  0  0  0  0  0  0  0  0  0
  1  2  1  0
  2  3  2  0
  2  4  1  0
  4  5  2  0
  5  6  1  0
  6  7  2  0
  7  8  1  0
  8  9  1  0
  9 10  2  0
 10 11  1  0
 11 12  2  0
 12 13  1  0
 13 14  2  0
 14 15  1  0
 15 16  2  0
 16 17  1  0
 17 18  2  0
 18 19  1  0
 19 20  1  0
 20 21  1  0
 21 22  1  0
 22 23  1  0
 23 24  1  0
 18 25  1  0
 25 26  2  0
 26 27  1  0
 12 28  1  0
 28 29  2  0
  7 30  1  0
 30 31  2  0
 31  4  1  0
 29  9  1  0
 27 13  1  0
 26 15  1  0
 24 19  1  0
  1 32  1  0
  5 33  1  0
  6 34  1  0
 10 35  1  0
 11 36  1  0
 16 37  1  0
 17 38  1  0
 20 39  1  0
 20 40  1  0
 21 41  1  0
 21 42  1  0
 22 43  1  0
 23 44  1  0
 23 45  1  0
 24 46  1  0
 24 47  1  0
 25 48  1  0
 28 49  1  0
 29 50  1  0
 30 51  1  0
 31 52  1  0
M  CHG  2   1  -1  27  -1
M  END
>  <UniqueID>  (24) 
23

>  <SMILES>  (24) 
[NH-]C(=O)c1ccc(Oc2ccc(-c3nc4ccc(N5CCNCC5)cc4[n-]3)cc2)cc1

>  <Energy>  (24) 
108.14959363719638

>  <Genealogy>  (24) 
[NH-]C(=O)c1ccc(Oc2ccc(-c3nc4ccc(N5CCNCC5)cc4[n-]3)cc2)cc1 (protonated)
[NH-]C(=O)c1ccc(Oc2ccc(-c3nc4ccc(N5CCNCC5)cc4[n-]3)cc2)cc1 (3D coordinates assigned)
[NH-]C(=O)c1ccc(Oc2ccc(-c3nc4ccc(N5CCNCC5)cc4[n-]3)cc2)cc1 (nonaromatic ring conformer: 108.14959363719638 kcal/mol)

>  <smiles>  (24) 
NC(=O)c1ccc(Oc2ccc(-c3nc4ccc(N5CCNCC5)cc4[nH]3)cc2)cc1

>  <score_type>  (24) 
oracle

>  <origin>  (24) 
adgpu

>  <m_score__min__energy>  (24) 
-9.0899999999999999

>  <m_primary>  (24) 
energy

$$$$
24:0
     RDKit          3D

 41 43  0  0  0  0  0  0  0  0999 V2000
   -4.3120   25.3560  -30.9240 O   0  0  0  0  0  0  0  0  0  0  0  0
   -4.9800   24.3500  -30.0290 S   0  0  0  0  0  0  0  0  0  0  0  0
   -6.0570   25.0690  -29.2650 O   0  0  0  0  0  0  0  0  0  0  0  0
   -3.7890   23.7270  -28.8830 C   0  0  0  0  0  0  0  0  0  0  0  0
   -2.7020   24.5170  -28.4860 C   0  0  0  0  0  0  0  0  0  0  0  0
   -1.7680   24.0130  -27.5800 C   0  0  0  0  0  0  0  0  0  0  0  0
   -1.9270   22.7160  -27.0850 C   0  0  0  0  0  0  0  0  0  0  0  0
   -2.9800   21.9590  -27.4880 N   0  0  0  0  0  0  0  0  0  0  0  0
   -3.9030   22.4280  -28.3690 C   0  0  0  0  0  0  0  0  0  0  0  0
   -5.6960   23.0710  -30.9990 N   0  0  0  0  0  0  0  0  0  0  0  0
   -7.1570   23.2620  -31.1160 C   0  0  0  0  0  0  0  0  0  0  0  0
   -7.8390   21.9850  -31.5320 C   0  0  0  0  0  0  0  0  0  0  0  0
   -7.1130   20.7840  -31.5890 C   0  0  0  0  0  0  0  0  0  0  0  0
   -7.7410   19.5990  -31.9850 C   0  0  0  0  0  0  0  0  0  0  0  0
   -9.0940   19.6070  -32.3350 C   0  0  0  0  0  0  0  0  0  0  0  0
   -9.8190   20.8000  -32.2950 C   0  0  0  0  0  0  0  0  0  0  0  0
   -9.1950   21.9870  -31.9010 C   0  0  0  0  0  0  0  0  0  0  0  0
   -5.0750   23.0230  -32.3390 C   0  0  0  0  0  0  0  0  0  0  0  0
   -3.8920   22.0980  -32.3490 C   0  0  0  0  0  0  0  0  0  0  0  0
   -3.8980   20.9320  -33.1300 C   0  0  0  0  0  0  0  0  0  0  0  0
   -2.7880   20.0850  -33.1040 C   0  0  0  0  0  0  0  0  0  0  0  0
   -1.6920   20.3990  -32.2980 C   0  0  0  0  0  0  0  0  0  0  0  0
   -1.7260   21.5600  -31.5230 C   0  0  0  0  0  0  0  0  0  0  0  0
   -2.8150   22.3730  -31.5610 N   0  0  0  0  0  0  0  0  0  0  0  0
   -2.5850   25.5341  -28.8884 H   0  0  0  0  0  0  0  0  0  0  0  0
   -0.9158   24.6300  -27.2590 H   0  0  0  0  0  0  0  0  0  0  0  0
   -1.1989   22.3079  -26.3685 H   0  0  0  0  0  0  0  0  0  0  0  0
   -4.7411   21.7867  -28.6792 H   0  0  0  0  0  0  0  0  0  0  0  0
   -7.5566   23.5821  -30.1424 H   0  0  0  0  0  0  0  0  0  0  0  0
   -7.3492   24.0267  -31.8830 H   0  0  0  0  0  0  0  0  0  0  0  0
   -6.0462   20.7755  -31.3211 H   0  0  0  0  0  0  0  0  0  0  0  0
   -7.1696   18.6597  -32.0211 H   0  0  0  0  0  0  0  0  0  0  0  0
   -9.5880   18.6734  -32.6421 H   0  0  0  0  0  0  0  0  0  0  0  0
  -10.8830   20.8055  -32.5741 H   0  0  0  0  0  0  0  0  0  0  0  0
   -9.7674   22.9261  -31.8797 H   0  0  0  0  0  0  0  0  0  0  0  0
   -5.8177   22.6656  -33.0675 H   0  0  0  0  0  0  0  0  0  0  0  0
   -4.7325   24.0342  -32.6039 H   0  0  0  0  0  0  0  0  0  0  0  0
   -4.7685   20.6876  -33.7565 H   0  0  0  0  0  0  0  0  0  0  0  0
   -2.7772   19.1720  -33.7175 H   0  0  0  0  0  0  0  0  0  0  0  0
   -0.8120   19.7394  -32.2738 H   0  0  0  0  0  0  0  0  0  0  0  0
   -0.8706   21.8171  -30.8809 H   0  0  0  0  0  0  0  0  0  0  0  0
  1  2  2  0
  2  3  2  0
  2  4  1  0
  4  5  2  0
  5  6  1  0
  6  7  2  0
  7  8  1  0
  8  9  2  0
  2 10  1  0
 10 11  1  0
 11 12  1  0
 12 13  2  0
 13 14  1  0
 14 15  2  0
 15 16  1  0
 16 17  2  0
 10 18  1  0
 18 19  1  0
 19 20  2  0
 20 21  1  0
 21 22  2  0
 22 23  1  0
 23 24  2  0
  9  4  1  0
 17 12  1  0
 24 19  1  0
  5 25  1  0
  6 26  1  0
  7 27  1  0
  9 28  1  0
 11 29  1  0
 11 30  1  0
 13 31  1  0
 14 32  1  0
 15 33  1  0
 16 34  1  0
 17 35  1  0
 18 36  1  0
 18 37  1  0
 20 38  1  0
 21 39  1  0
 22 40  1  0
 23 41  1  0
M  END
>  <UniqueID>  (25) 
24

>  <SMILES>  (25) 
O=S(=O)(c1cccnc1)N(Cc1ccccc1)Cc1ccccn1

>  <Energy>  (25) 
44.47337586738085

>  <Genealogy>  (25) 
O=S(=O)(c1cccnc1)N(Cc1ccccc1)Cc1ccccn1 (3D coordinates assigned)
O=S(=O)(c1cccnc1)N(Cc1ccccc1)Cc1ccccn1 (optimized conformer: 44.47337586738085 kcal/mol)

>  <smiles>  (25) 
O=S(=O)(c1cccnc1)N(Cc1ccccc1)Cc1ccccn1

>  <score_type>  (25) 
oracle

>  <origin>  (25) 
adgpu

>  <m_score__min__energy>  (25) 
-8.2200000000000006

>  <m_primary>  (25) 
energy

$$$$
25:0
     RDKit          3D

 53 55  0  0  1  0  0  0  0  0999 V2000
   -9.7060   21.4060  -31.9570 C   0  0  0  0  0  0  0  0  0  0  0  0
   -9.3870   19.9780  -32.3520 C   0  0  0  0  0  0  0  0  0  0  0  0
   -8.0240   19.5540  -31.9490 C   0  0  0  0  0  0  0  0  0  0  0  0
   -6.9180   20.0250  -32.7020 N   0  0  0  0  0  0  0  0  0  0  0  0
   -6.4180   19.5310  -33.9520 C   0  0  0  0  0  0  0  0  0  0  0  0
   -5.5970   18.3100  -33.9050 C   0  0  0  0  0  0  0  0  0  0  0  0
   -6.0790   17.0250  -33.9810 C   0  0  0  0  0  0  0  0  0  0  0  0
   -5.2090   15.9370  -33.9280 C   0  0  0  0  0  0  0  0  0  0  0  0
   -3.8360   16.1370  -33.7970 C   0  0  0  0  0  0  0  0  0  0  0  0
   -3.3390   17.4240  -33.7210 C   0  0  0  0  0  0  0  0  0  0  0  0
   -1.9970   17.7220  -33.5900 O   0  0  0  0  0  0  0  0  0  0  0  0
   -1.5420   18.9340  -33.1590 C   0  0  0  0  0  0  0  0  0  0  0  0
   -1.3210   19.2700  -31.8400 C   0  0  0  0  0  0  0  0  0  0  0  0
   -0.8560   20.5400  -31.5310 C   0  0  0  0  0  0  0  0  0  0  0  0
   -0.6050   21.4860  -32.4960 C   0  0  0  0  0  0  0  0  0  0  0  0
   -0.8230   21.1590  -33.8160 C   0  0  0  0  0  0  0  0  0  0  0  0
   -1.2840   19.9010  -34.1360 C   0  0  0  0  0  0  0  0  0  0  0  0
   -4.2140   18.4960  -33.7750 C   0  0  0  0  0  0  0  0  0  0  0  0
   -6.1880   21.1510  -32.1390 C   0  0  0  0  0  0  0  0  0  0  0  0
   -4.8600   21.2800  -32.3020 N   0  0  0  0  0  0  0  0  0  0  0  0
   -4.1700   22.3190  -31.7830 C   0  0  0  0  0  0  0  0  0  0  0  0
   -4.8320   23.2920  -31.0580 C   0  0  0  0  0  0  0  0  0  0  0  0
   -4.0470   24.3850  -30.5220 C   0  0  0  0  0  0  0  0  0  0  0  0
   -4.1870   25.7060  -30.8630 O   0  0  0  0  0  0  0  0  0  0  0  0
   -3.1260   24.1000  -29.6390 N   0  0  0  0  0  0  0  0  0  0  0  0
   -2.3570   25.1080  -29.1040 O   0  0  0  0  0  0  0  0  0  0  0  0
   -6.1800   23.1590  -30.8950 C   0  0  0  0  0  0  0  0  0  0  0  0
   -6.9310   24.1680  -30.1350 C   0  0  0  0  0  0  0  0  0  0  0  0
   -6.8100   22.1080  -31.4320 N   0  0  0  0  0  0  0  0  0  0  0  0
   -9.7242   21.4877  -30.8602 H   0  0  0  0  0  0  0  0  0  0  0  0
   -8.9361   22.0792  -32.3621 H   0  0  0  0  0  0  0  0  0  0  0  0
  -10.6892   21.6876  -32.3621 H   0  0  0  0  0  0  0  0  0  0  0  0
  -10.1177   19.3104  -31.8720 H   0  0  0  0  0  0  0  0  0  0  0  0
   -9.4371   19.9220  -33.4494 H   0  0  0  0  0  0  0  0  0  0  0  0
   -7.8746   19.8853  -30.9108 H   0  0  0  0  0  0  0  0  0  0  0  0
   -8.0199   18.4668  -32.1161 H   0  0  0  0  0  0  0  0  0  0  0  0
   -7.2840   19.3245  -34.5981 H   0  0  0  0  0  0  0  0  0  0  0  0
   -5.7426   20.3167  -34.3214 H   0  0  0  0  0  0  0  0  0  0  0  0
   -7.1606   16.8536  -34.0845 H   0  0  0  0  0  0  0  0  0  0  0  0
   -5.6088   14.9141  -33.9900 H   0  0  0  0  0  0  0  0  0  0  0  0
   -3.1526   15.2761  -33.7544 H   0  0  0  0  0  0  0  0  0  0  0  0
   -1.5115   18.5384  -31.0409 H   0  0  0  0  0  0  0  0  0  0  0  0
   -0.6820   20.7991  -30.4762 H   0  0  0  0  0  0  0  0  0  0  0  0
   -0.2371   22.4851  -32.2194 H   0  0  0  0  0  0  0  0  0  0  0  0
   -0.6304   21.8969  -34.6088 H   0  0  0  0  0  0  0  0  0  0  0  0
   -1.4546   19.6490  -35.1931 H   0  0  0  0  0  0  0  0  0  0  0  0
   -3.8137   19.5188  -33.7144 H   0  0  0  0  0  0  0  0  0  0  0  0
   -3.0832   22.3906  -31.9371 H   0  0  0  0  0  0  0  0  0  0  0  0
   -3.8670   26.4820  -30.3010 H   0  0  0  0  0  0  0  0  0  0  0  0
   -2.6000   26.0560  -29.3370 H   0  0  0  0  0  0  0  0  0  0  0  0
   -6.7981   23.9895  -29.0577 H   0  0  0  0  0  0  0  0  0  0  0  0
   -6.5580   25.1711  -30.3892 H   0  0  0  0  0  0  0  0  0  0  0  0
   -7.9990   24.0986  -30.3892 H   0  0  0  0  0  0  0  0  0  0  0  0
  1  2  1  0
  2  3  1  0
  3  4  1  0
  4  5  1  0
  5  6  1  0
  6  7  2  0
  7  8  1  0
  8  9  2  0
  9 10  1  0
 10 11  1  0
 11 12  1  0
 12 13  2  0
 13 14  1  0
 14 15  2  0
 15 16  1  0
 16 17  2  0
 10 18  2  0
  4 19  1  0
 19 20  2  0
 20 21  1  0
 21 22  2  0
 22 23  1  0
 23 24  1  0
 23 25  2  0
 25 26  1  0
 22 27  1  0
 27 28  1  0
 27 29  2  0
 18  6  1  0
 29 19  1  0
 17 12  1  0
  1 30  1  0
  1 31  1  0
  1 32  1  0
  2 33  1  0
  2 34  1  0
  3 35  1  0
  3 36  1  0
  5 37  1  0
  5 38  1  0
  7 39  1  0
  8 40  1  0
  9 41  1  0
 13 42  1  0
 14 43  1  0
 15 44  1  0
 16 45  1  0
 17 46  1  0
 18 47  1  0
 21 48  1  0
 24 49  1  0
 26 50  1  0
 28 51  1  0
 28 52  1  0
 28 53  1  0
M  END
>  <smiles>  (26) 
CCCN(Cc1cccc(Oc2ccccc2)c1)c1ncc(C(O)=NO)c(C)n1

>  <score_type>  (26) 
oracle

>  <origin>  (26) 
adgpu

>  <m_score__min__energy>  (26) 
-9.7300000000000004

>  <m_primary>  (26) 
energy

$$$$
26:0
     RDKit          3D

 46 49  0  0  0  0  0  0  0  0999 V2000
    0.1820   24.5990  -27.4240 C   0  0  0  0  0  0  0  0  0  0  0  0
   -1.1230   24.6230  -28.1490 C   0  0  0  0  0  0  0  0  0  0  0  0
   -1.4900   25.5990  -29.0070 N   0  0  0  0  0  0  0  0  0  0  0  0
   -2.6830   25.2990  -29.4390 O   0  0  0  0  0  0  0  0  0  0  0  0
   -3.1000   24.1770  -28.9010 C   0  0  0  0  0  0  0  0  0  0  0  0
   -4.2560   23.6340  -29.1240 N   0  0  0  0  0  0  0  0  0  0  0  0
   -5.4220   24.3400  -30.1900 S   0  0  0  0  0  0  0  0  0  0  0  0
   -6.4040   25.1620  -29.4010 O   0  0  0  0  0  0  0  0  0  0  0  0
   -4.7320   25.2250  -31.1890 O   0  0  0  0  0  0  0  0  0  0  0  0
   -6.2770   23.0530  -31.0320 C   0  0  0  0  0  0  0  0  0  0  0  0
   -7.6400   22.8390  -30.7950 C   0  0  0  0  0  0  0  0  0  0  0  0
   -8.3170   21.8070  -31.4520 C   0  0  0  0  0  0  0  0  0  0  0  0
   -7.6350   20.9680  -32.3550 C   0  0  0  0  0  0  0  0  0  0  0  0
   -8.3020   19.8970  -33.0480 N   0  0  0  0  0  0  0  0  0  0  0  0
   -8.2750   18.5060  -32.5920 C   0  0  0  0  0  0  0  0  0  0  0  0
   -6.9480   17.8700  -32.9050 C   0  0  0  0  0  0  0  0  0  0  0  0
   -6.3070   17.0480  -31.9420 C   0  0  0  0  0  0  0  0  0  0  0  0
   -5.0840   16.4190  -32.2400 C   0  0  0  0  0  0  0  0  0  0  0  0
   -4.5420   16.6210  -33.5060 C   0  0  0  0  0  0  0  0  0  0  0  0
   -5.1570   17.3950  -34.4360 C   0  0  0  0  0  0  0  0  0  0  0  0
   -6.3660   18.0350  -34.1810 C   0  0  0  0  0  0  0  0  0  0  0  0
   -4.4010   17.4110  -35.5920 O   0  0  0  0  0  0  0  0  0  0  0  0
   -3.2390   16.5980  -35.3740 C   0  0  0  0  0  0  0  0  0  0  0  0
   -3.3690   16.1140  -34.0300 O   0  0  0  0  0  0  0  0  0  0  0  0
   -6.2670   21.1860  -32.5810 C   0  0  0  0  0  0  0  0  0  0  0  0
   -5.5910   22.2170  -31.9230 C   0  0  0  0  0  0  0  0  0  0  0  0
   -2.1260   23.6760  -28.0670 C   0  0  0  0  0  0  0  0  0  0  0  0
   -2.1950   22.4720  -27.1820 C   0  0  0  0  0  0  0  0  0  0  0  0
   -0.0010   24.6024  -26.3393 H   0  0  0  0  0  0  0  0  0  0  0  0
    0.7377   23.6905  -27.6993 H   0  0  0  0  0  0  0  0  0  0  0  0
    0.7708   25.4865  -27.6993 H   0  0  0  0  0  0  0  0  0  0  0  0
   -8.1809   23.4858  -30.0886 H   0  0  0  0  0  0  0  0  0  0  0  0
   -9.3890   21.6492  -31.2625 H   0  0  0  0  0  0  0  0  0  0  0  0
   -8.8320   20.1300  -33.9210 H   0  0  0  0  0  0  0  0  0  0  0  0
   -8.4410   18.4790  -31.5049 H   0  0  0  0  0  0  0  0  0  0  0  0
   -9.0667   17.9474  -33.1127 H   0  0  0  0  0  0  0  0  0  0  0  0
   -6.7698   16.9014  -30.9549 H   0  0  0  0  0  0  0  0  0  0  0  0
   -4.5733   15.7886  -31.4971 H   0  0  0  0  0  0  0  0  0  0  0  0
   -6.8539   18.6512  -34.9506 H   0  0  0  0  0  0  0  0  0  0  0  0
   -3.2150   15.7597  -36.0858 H   0  0  0  0  0  0  0  0  0  0  0  0
   -2.3068   17.1633  -35.5203 H   0  0  0  0  0  0  0  0  0  0  0  0
   -5.7214   20.5386  -33.2833 H   0  0  0  0  0  0  0  0  0  0  0  0
   -4.5174   22.3727  -32.1050 H   0  0  0  0  0  0  0  0  0  0  0  0
   -2.1768   22.7894  -26.1290 H   0  0  0  0  0  0  0  0  0  0  0  0
   -3.1261   21.9220  -27.3831 H   0  0  0  0  0  0  0  0  0  0  0  0
   -1.3328   21.8192  -27.3831 H   0  0  0  0  0  0  0  0  0  0  0  0
  1  2  1  0
  2  3  1  0
  3  4  1  0
  4  5  1  0
  5  6  2  3
  6  7  1  0
  7  8  2  0
  7  9  2  0
  7 10  1  0
 10 11  2  0
 11 12  1  0
 12 13  2  0
 13 14  1  0
 14 15  1  0
 15 16  1  0
 16 17  2  0
 17 18  1  0
 18 19  2  0
 19 20  1  0
 20 21  2  0
 20 22  1  0
 22 23  1  0
 23 24  1  0
 13 25  1  0
 25 26  2  0
  5 27  1  0
 27 28  1  0
 27  2  2  0
 26 10  1  0
 21 16  1  0
 24 19  1  0
  1 29  1  0
  1 30  1  0
  1 31  1  0
 11 32  1  0
 12 33  1  0
 14 34  1  0
 15 35  1  0
 15 36  1  0
 17 37  1  0
 18 38  1  0
 21 39  1  0
 23 40  1  0
 23 41  1  0
 25 42  1  0
 26 43  1  0
 28 44  1  0
 28 45  1  0
 28 46  1  0
M  CHG  1   3  -1
M  END
>  <UniqueID>  (27) 
25

>  <SMILES>  (27) 
Cc1[n-]oc(=NS(=O)(=O)c2ccc(NCc3ccc4c(c3)OCO4)cc2)c1C

>  <Energy>  (27) 
109.95818033997057

>  <Genealogy>  (27) 
Cc1[n-]oc(=NS(=O)(=O)c2ccc(NCc3ccc4c(c3)OCO4)cc2)c1C (protonated)
Cc1[n-]oc(=NS(=O)(=O)c2ccc(NCc3ccc4c(c3)OCO4)cc2)c1C (3D coordinates assigned)
Cc1[n-]oc(=NS(=O)(=O)c2ccc(NCc3ccc4c(c3)OCO4)cc2)c1C (nonaromatic ring conformer: 109.95818033997057 kcal/mol)

>  <smiles>  (27) 
Cc1[nH]oc(=NS(=O)(=O)c2ccc(NCc3ccc4c(c3)OCO4)cc2)c1C

>  <score_type>  (27) 
oracle

>  <origin>  (27) 
adgpu

>  <m_score__min__energy>  (27) 
-12.880000000000001

>  <m_primary>  (27) 
energy

$$$$
27:0
     RDKit          3D

 31 33  0  0  0  0  0  0  0  0999 V2000
   -9.0790   19.3230  -32.6480 C   0  0  0  0  0  0  0  0  0  0  0  0
   -7.9380   20.1920  -32.3800 N   0  0  0  0  0  0  0  0  0  0  0  0
   -8.0430   21.3640  -31.7820 N   0  0  0  0  0  0  0  0  0  0  0  0
   -6.7860   21.8370  -31.6710 C   0  0  0  0  0  0  0  0  0  0  0  0
   -6.4460   23.1340  -31.0480 C   0  0  0  0  0  0  0  0  0  0  0  0
   -7.4420   23.9090  -30.4250 C   0  0  0  0  0  0  0  0  0  0  0  0
   -7.1200   25.1350  -29.8350 C   0  0  0  0  0  0  0  0  0  0  0  0
   -5.8020   25.5990  -29.8600 C   0  0  0  0  0  0  0  0  0  0  0  0
   -4.8040   24.8380  -30.4750 C   0  0  0  0  0  0  0  0  0  0  0  0
   -3.4940   25.3000  -30.4990 O   0  0  0  0  0  0  0  0  0  0  0  0
   -5.1230   23.6100  -31.0660 C   0  0  0  0  0  0  0  0  0  0  0  0
   -5.8680   20.9890  -32.1890 N   0  0  0  0  0  0  0  0  0  0  0  0
   -6.6310   19.9720  -32.6380 C   0  0  0  0  0  0  0  0  0  0  0  0
   -6.0600   18.7730  -33.2900 C   0  0  0  0  0  0  0  0  0  0  0  0
   -4.8470   18.8770  -33.9920 C   0  0  0  0  0  0  0  0  0  0  0  0
   -4.3010   17.7590  -34.6290 C   0  0  0  0  0  0  0  0  0  0  0  0
   -4.9660   16.5310  -34.5820 C   0  0  0  0  0  0  0  0  0  0  0  0
   -6.1840   16.4220  -33.9060 C   0  0  0  0  0  0  0  0  0  0  0  0
   -6.8540   15.2050  -33.8750 O   0  0  0  0  0  0  0  0  0  0  0  0
   -6.7340   17.5390  -33.2660 C   0  0  0  0  0  0  0  0  0  0  0  0
   -9.5173   18.9892  -31.6959 H   0  0  0  0  0  0  0  0  0  0  0  0
   -9.8341   19.8768  -33.2251 H   0  0  0  0  0  0  0  0  0  0  0  0
   -8.7458   18.4478  -33.2251 H   0  0  0  0  0  0  0  0  0  0  0  0
   -8.4807   23.5478  -30.4021 H   0  0  0  0  0  0  0  0  0  0  0  0
   -7.9047   25.7348  -29.3508 H   0  0  0  0  0  0  0  0  0  0  0  0
   -5.5499   26.5637  -29.3954 H   0  0  0  0  0  0  0  0  0  0  0  0
   -4.3340   23.0137  -31.5475 H   0  0  0  0  0  0  0  0  0  0  0  0
   -4.3243   19.8437  -34.0405 H   0  0  0  0  0  0  0  0  0  0  0  0
   -3.3462   17.8461  -35.1682 H   0  0  0  0  0  0  0  0  0  0  0  0
   -4.5308   15.6504  -35.0770 H   0  0  0  0  0  0  0  0  0  0  0  0
   -7.6973   17.4511  -32.7422 H   0  0  0  0  0  0  0  0  0  0  0  0
  1  2  1  0
  2  3  1  0
  3  4  2  0
  4  5  1  0
  5  6  2  0
  6  7  1  0
  7  8  2  0
  8  9  1  0
  9 10  1  0
  9 11  2  0
  4 12  1  0
 12 13  2  0
 13 14  1  0
 14 15  2  0
 15 16  1  0
 16 17  2  0
 17 18  1  0
 18 19  1  0
 18 20  2  0
 13  2  1  0
 20 14  1  0
 11  5  1  0
  1 21  1  0
  1 22  1  0
  1 23  1  0
  6 24  1  0
  7 25  1  0
  8 26  1  0
 11 27  1  0
 15 28  1  0
 16 29  1  0
 17 30  1  0
 20 31  1  0
M  CHG  2  10  -1  19  -1
M  END
>  <UniqueID>  (28) 
26

>  <SMILES>  (28) 
Cn1nc(-c2cccc([O-])c2)nc1-c1cccc([O-])c1

>  <Energy>  (28) 
71.47429809812546

>  <Genealogy>  (28) 
Cn1nc(-c2cccc([O-])c2)nc1-c1cccc([O-])c1 (protonated)
Cn1nc(-c2cccc([O-])c2)nc1-c1cccc([O-])c1 (3D coordinates assigned)
Cn1nc(-c2cccc([O-])c2)nc1-c1cccc([O-])c1 (optimized conformer: 71.47429809812546 kcal/mol)

>  <smiles>  (28) 
Cn1nc(-c2cccc(O)c2)nc1-c1cccc(O)c1

>  <score_type>  (28) 
oracle

>  <origin>  (28) 
adgpu

>  <m_score__min__energy>  (28) 
-10.74

>  <m_primary>  (28) 
energy

$$$$
28:0
     RDKit          3D

 50 53  0  0  0  0  0  0  0  0999 V2000
   -5.7550   16.4450  -30.8710 N   0  0  0  0  0  0  0  0  0  0  0  0
   -5.3600   16.6350  -32.2370 C   0  0  0  0  0  0  0  0  0  0  0  0
   -5.1890   15.5000  -33.0470 C   0  0  0  0  0  0  0  0  0  0  0  0
   -4.8360   15.6290  -34.3890 C   0  0  0  0  0  0  0  0  0  0  0  0
   -4.6420   16.8920  -34.9410 C   0  0  0  0  0  0  0  0  0  0  0  0
   -4.8000   18.0320  -34.1510 C   0  0  0  0  0  0  0  0  0  0  0  0
   -5.1620   17.9260  -32.7940 C   0  0  0  0  0  0  0  0  0  0  0  0
   -5.3030   19.1140  -31.9850 N   0  0  0  0  0  0  0  0  0  0  0  0
   -5.4830   20.4640  -32.5280 C   0  0  0  0  0  0  0  0  0  0  0  0
   -6.8440   21.0360  -32.1810 C   0  0  0  0  0  0  0  0  0  0  0  0
   -7.9900   20.3970  -32.6910 C   0  0  0  0  0  0  0  0  0  0  0  0
   -9.2670   20.8620  -32.3770 C   0  0  0  0  0  0  0  0  0  0  0  0
   -9.4240   21.9740  -31.5520 C   0  0  0  0  0  0  0  0  0  0  0  0
   -8.3030   22.6330  -31.0480 C   0  0  0  0  0  0  0  0  0  0  0  0
   -7.0060   22.1870  -31.3620 C   0  0  0  0  0  0  0  0  0  0  0  0
   -5.8560   22.9320  -30.8030 C   0  0  0  0  0  0  0  0  0  0  0  0
   -5.8250   24.3340  -30.8400 C   0  0  0  0  0  0  0  0  0  0  0  0
   -4.7370   25.0310  -30.3050 C   0  0  0  0  0  0  0  0  0  0  0  0
   -3.6660   24.3350  -29.7190 C   0  0  0  0  0  0  0  0  0  0  0  0
   -2.5430   25.0280  -29.1490 N   0  0  0  0  0  0  0  0  0  0  0  0
   -2.2220   25.0090  -27.7480 C   0  0  0  0  0  0  0  0  0  0  0  0
   -3.0830   24.6390  -26.9050 O   0  0  0  0  0  0  0  0  0  0  0  0
   -0.9050   25.4590  -27.2670 C   0  0  0  0  0  0  0  0  0  0  0  0
   -0.6000   25.9060  -25.9940 C   0  0  0  0  0  0  0  0  0  0  0  0
    0.7420   26.2210  -26.0240 C   0  0  0  0  0  0  0  0  0  0  0  0
    1.1720   25.9480  -27.3050 C   0  0  0  0  0  0  0  0  0  0  0  0
    0.1690   25.4980  -28.0220 O   0  0  0  0  0  0  0  0  0  0  0  0
   -3.7230   22.9350  -29.6400 C   0  0  0  0  0  0  0  0  0  0  0  0
   -4.8060   22.2380  -30.1840 C   0  0  0  0  0  0  0  0  0  0  0  0
   -5.4520   15.6290  -30.3010 H   0  0  0  0  0  0  0  0  0  0  0  0
   -6.3200   17.1740  -30.3800 H   0  0  0  0  0  0  0  0  0  0  0  0
   -5.3354   14.4981  -32.6171 H   0  0  0  0  0  0  0  0  0  0  0  0
   -4.7105   14.7317  -35.0127 H   0  0  0  0  0  0  0  0  0  0  0  0
   -4.3640   16.9919  -36.0006 H   0  0  0  0  0  0  0  0  0  0  0  0
   -4.6397   19.0260  -34.5940 H   0  0  0  0  0  0  0  0  0  0  0  0
   -5.2250   19.0450  -30.9470 H   0  0  0  0  0  0  0  0  0  0  0  0
   -4.7047   21.1211  -32.1128 H   0  0  0  0  0  0  0  0  0  0  0  0
   -5.4077   20.4037  -33.6238 H   0  0  0  0  0  0  0  0  0  0  0  0
   -7.8770   19.5200  -33.3453 H   0  0  0  0  0  0  0  0  0  0  0  0
  -10.1523   20.3497  -32.7816 H   0  0  0  0  0  0  0  0  0  0  0  0
  -10.4326   22.3322  -31.2982 H   0  0  0  0  0  0  0  0  0  0  0  0
   -8.4342   23.5107  -30.3981 H   0  0  0  0  0  0  0  0  0  0  0  0
   -6.6608   24.8880  -31.2922 H   0  0  0  0  0  0  0  0  0  0  0  0
   -4.7195   26.1302  -30.3431 H   0  0  0  0  0  0  0  0  0  0  0  0
   -1.9960   25.6630  -29.7730 H   0  0  0  0  0  0  0  0  0  0  0  0
   -1.2846   25.9921  -25.1373 H   0  0  0  0  0  0  0  0  0  0  0  0
    1.3477   26.6116  -25.1930 H   0  0  0  0  0  0  0  0  0  0  0  0
    2.2001   26.0864  -27.6709 H   0  0  0  0  0  0  0  0  0  0  0  0
   -2.9100   22.3822  -29.1466 H   0  0  0  0  0  0  0  0  0  0  0  0
   -4.8348   21.1399  -30.1263 H   0  0  0  0  0  0  0  0  0  0  0  0
  1  2  1  0
  2  3  2  0
  3  4  1  0
  4  5  2  0
  5  6  1  0
  6  7  2  0
  7  8  1  0
  8  9  1  0
  9 10  1  0
 10 11  2  0
 11 12  1  0
 12 13  2  0
 13 14  1  0
 14 15  2  0
 15 16  1  0
 16 17  2  0
 17 18  1  0
 18 19  2  0
 19 20  1  0
 20 21  1  0
 21 22  2  0
 21 23  1  0
 23 24  2  0
 24 25  1  0
 25 26  2  0
 26 27  1  0
 19 28  1  0
 28 29  2  0
  7  2  1  0
 15 10  1  0
 29 16  1  0
 27 23  1  0
  1 30  1  0
  1 31  1  0
  3 32  1  0
  4 33  1  0
  5 34  1  0
  6 35  1  0
  8 36  1  0
  9 37  1  0
  9 38  1  0
 11 39  1  0
 12 40  1  0
 13 41  1  0
 14 42  1  0
 17 43  1  0
 18 44  1  0
 20 45  1  0
 24 46  1  0
 25 47  1  0
 26 48  1  0
 28 49  1  0
 29 50  1  0
M  END
>  <UniqueID>  (29) 
27

>  <SMILES>  (29) 
Nc1ccccc1NCc1ccccc1-c1ccc(NC(=O)c2ccco2)cc1

>  <Energy>  (29) 
91.04141328437917

>  <Genealogy>  (29) 
Nc1ccccc1NCc1ccccc1-c1ccc(NC(=O)c2ccco2)cc1 (3D coordinates assigned)
Nc1ccccc1NCc1ccccc1-c1ccc(NC(=O)c2ccco2)cc1 (optimized conformer: 91.04141328437917 kcal/mol)

>  <smiles>  (29) 
Nc1ccccc1NCc1ccccc1-c1ccc(NC(=O)c2ccco2)cc1

>  <score_type>  (29) 
oracle

>  <origin>  (29) 
adgpu

>  <m_score__min__energy>  (29) 
-9.1600000000000001

>  <m_primary>  (29) 
energy

$$$$
29:0
     RDKit          3D

 40 42  0  0  0  0  0  0  0  0999 V2000
   -8.8370   18.2050  -31.2200 N   0  0  0  0  0  0  0  0  0  0  0  0
   -8.4310   18.9190  -32.3890 C   0  0  0  0  0  0  0  0  0  0  0  0
   -9.2620   19.6670  -32.9710 O   0  0  0  0  0  0  0  0  0  0  0  0
   -7.0550   18.7860  -32.9180 C   0  0  0  0  0  0  0  0  0  0  0  0
   -6.1780   19.8840  -32.9410 C   0  0  0  0  0  0  0  0  0  0  0  0
   -4.8800   19.7260  -33.4560 C   0  0  0  0  0  0  0  0  0  0  0  0
   -3.9610   20.7850  -33.4890 O   0  0  0  0  0  0  0  0  0  0  0  0
   -3.3710   21.3870  -32.3670 C   0  0  0  0  0  0  0  0  0  0  0  0
   -2.4050   20.7250  -31.5910 C   0  0  0  0  0  0  0  0  0  0  0  0
   -1.8520   21.3540  -30.4730 C   0  0  0  0  0  0  0  0  0  0  0  0
   -2.2650   22.6390  -30.1120 C   0  0  0  0  0  0  0  0  0  0  0  0
   -3.2460   23.3040  -30.8700 C   0  0  0  0  0  0  0  0  0  0  0  0
   -3.7030   24.6230  -30.5380 N   0  0  0  0  0  0  0  0  0  0  0  0
   -5.2670   25.0050  -29.8950 S   0  0  0  0  0  0  0  0  0  0  0  0
   -5.2270   24.8770  -28.3980 O   0  0  0  0  0  0  0  0  0  0  0  0
   -5.6140   26.4220  -30.2570 O   0  0  0  0  0  0  0  0  0  0  0  0
   -6.4720   23.8880  -30.5290 C   0  0  0  0  0  0  0  0  0  0  0  0
   -6.8450   23.9410  -31.8800 C   0  0  0  0  0  0  0  0  0  0  0  0
   -7.7970   23.0480  -32.3810 C   0  0  0  0  0  0  0  0  0  0  0  0
   -8.3820   22.1000  -31.5350 C   0  0  0  0  0  0  0  0  0  0  0  0
   -8.0150   22.0470  -30.1870 C   0  0  0  0  0  0  0  0  0  0  0  0
   -7.0650   22.9400  -29.6830 C   0  0  0  0  0  0  0  0  0  0  0  0
   -3.7970   22.6650  -31.9880 C   0  0  0  0  0  0  0  0  0  0  0  0
   -4.4740   18.4690  -33.9080 C   0  0  0  0  0  0  0  0  0  0  0  0
   -5.3700   17.4000  -33.8710 C   0  0  0  0  0  0  0  0  0  0  0  0
   -6.6260   17.5800  -33.3830 N   0  0  0  0  0  0  0  0  0  0  0  0
   -9.8100   18.3090  -30.8560 H   0  0  0  0  0  0  0  0  0  0  0  0
   -8.1790   17.5740  -30.7100 H   0  0  0  0  0  0  0  0  0  0  0  0
   -6.5058   20.8617  -32.5580 H   0  0  0  0  0  0  0  0  0  0  0  0
   -2.0834   19.7092  -31.8643 H   0  0  0  0  0  0  0  0  0  0  0  0
   -1.0884   20.8356  -29.8745 H   0  0  0  0  0  0  0  0  0  0  0  0
   -1.8224   23.1315  -29.2336 H   0  0  0  0  0  0  0  0  0  0  0  0
   -6.3876   24.6867  -32.5468 H   0  0  0  0  0  0  0  0  0  0  0  0
   -8.0862   23.0910  -33.4414 H   0  0  0  0  0  0  0  0  0  0  0  0
   -9.1301   21.3969  -31.9299 H   0  0  0  0  0  0  0  0  0  0  0  0
   -8.4747   21.3012  -29.5218 H   0  0  0  0  0  0  0  0  0  0  0  0
   -6.7821   22.8989  -28.6208 H   0  0  0  0  0  0  0  0  0  0  0  0
   -4.5748   23.1744  -32.5758 H   0  0  0  0  0  0  0  0  0  0  0  0
   -3.4534   18.3222  -34.2912 H   0  0  0  0  0  0  0  0  0  0  0  0
   -5.0596   16.4103  -34.2372 H   0  0  0  0  0  0  0  0  0  0  0  0
  1  2  1  0
  2  3  2  0
  2  4  1  0
  4  5  2  0
  5  6  1  0
  6  7  1  0
  7  8  1  0
  8  9  2  0
  9 10  1  0
 10 11  2  0
 11 12  1  0
 12 13  1  0
 13 14  1  0
 14 15  2  0
 14 16  2  0
 14 17  1  0
 17 18  2  0
 18 19  1  0
 19 20  2  0
 20 21  1  0
 21 22  2  0
 12 23  2  0
  6 24  2  0
 24 25  1  0
 25 26  2  0
 26  4  1  0
 23  8  1  0
 22 17  1  0
  1 27  1  0
  1 28  1  0
  5 29  1  0
  9 30  1  0
 10 31  1  0
 11 32  1  0
 18 33  1  0
 19 34  1  0
 20 35  1  0
 21 36  1  0
 22 37  1  0
 23 38  1  0
 24 39  1  0
 25 40  1  0
M  CHG  1  13  -1
M  END
>  <UniqueID>  (30) 
28

>  <SMILES>  (30) 
NC(=O)c1cc(Oc2cccc([N-]S(=O)(=O)c3ccccc3)c2)ccn1

>  <Energy>  (30) 
51.86043377014313

>  <Genealogy>  (30) 
NC(=O)c1cc(Oc2cccc([N-]S(=O)(=O)c3ccccc3)c2)ccn1 (protonated)
NC(=O)c1cc(Oc2cccc([N-]S(=O)(=O)c3ccccc3)c2)ccn1 (3D coordinates assigned)
NC(=O)c1cc(Oc2cccc([N-]S(=O)(=O)c3ccccc3)c2)ccn1 (optimized conformer: 51.86043377014313 kcal/mol)

>  <smiles>  (30) 
NC(=O)c1cc(Oc2cccc(NS(=O)(=O)c3ccccc3)c2)ccn1

>  <score_type>  (30) 
oracle

>  <origin>  (30) 
adgpu

>  <m_score__min__energy>  (30) 
-10.48

>  <m_primary>  (30) 
energy

$$$$
30:0
     RDKit          3D

 36 37  0  0  0  0  0  0  0  0999 V2000
   -7.2800   18.6090  -32.8000 C   0  0  0  0  0  0  0  0  0  0  0  0
   -6.3930   19.3790  -33.6820 N   0  0  0  0  0  0  0  0  0  0  0  0
   -5.6620   18.4750  -34.5780 C   0  0  0  0  0  0  0  0  0  0  0  0
   -5.2660   20.3050  -32.7220 S   0  0  0  0  0  0  0  0  0  0  0  0
   -4.7390   19.4560  -31.5980 O   0  0  0  0  0  0  0  0  0  0  0  0
   -4.1010   20.7070  -33.5830 O   0  0  0  0  0  0  0  0  0  0  0  0
   -6.0170   21.7540  -32.0470 C   0  0  0  0  0  0  0  0  0  0  0  0
   -7.4080   21.8250  -31.8950 C   0  0  0  0  0  0  0  0  0  0  0  0
   -8.0000   22.9760  -31.3720 C   0  0  0  0  0  0  0  0  0  0  0  0
   -7.2070   24.0600  -30.9860 C   0  0  0  0  0  0  0  0  0  0  0  0
   -5.8090   23.9940  -31.1090 C   0  0  0  0  0  0  0  0  0  0  0  0
   -4.9690   25.1370  -30.6830 C   0  0  0  0  0  0  0  0  0  0  0  0
   -5.4930   26.2730  -30.5370 O   0  0  0  0  0  0  0  0  0  0  0  0
   -3.5560   24.9960  -30.4760 N   0  0  0  0  0  0  0  0  0  0  0  0
   -2.9400   24.3720  -29.3400 C   0  0  0  0  0  0  0  0  0  0  0  0
   -3.4970   23.2250  -28.7430 C   0  0  0  0  0  0  0  0  0  0  0  0
   -2.8900   22.6470  -27.6250 C   0  0  0  0  0  0  0  0  0  0  0  0
   -1.7290   23.2110  -27.0900 C   0  0  0  0  0  0  0  0  0  0  0  0
   -1.1810   24.3600  -27.6650 C   0  0  0  0  0  0  0  0  0  0  0  0
   -1.7880   24.9460  -28.7820 C   0  0  0  0  0  0  0  0  0  0  0  0
   -1.2360   26.0930  -29.3400 O   0  0  0  0  0  0  0  0  0  0  0  0
   -5.2230   22.8410  -31.6570 C   0  0  0  0  0  0  0  0  0  0  0  0
   -7.0312   18.8250  -31.7505 H   0  0  0  0  0  0  0  0  0  0  0  0
   -8.3253   18.8909  -32.9945 H   0  0  0  0  0  0  0  0  0  0  0  0
   -7.1478   17.5344  -32.9945 H   0  0  0  0  0  0  0  0  0  0  0  0
   -5.0813   17.7569  -33.9804 H   0  0  0  0  0  0  0  0  0  0  0  0
   -6.3768   17.9306  -35.2125 H   0  0  0  0  0  0  0  0  0  0  0  0
   -4.9800   19.0600  -35.2125 H   0  0  0  0  0  0  0  0  0  0  0  0
   -8.0358   20.9708  -32.1888 H   0  0  0  0  0  0  0  0  0  0  0  0
   -9.0933   23.0298  -31.2635 H   0  0  0  0  0  0  0  0  0  0  0  0
   -7.6793   24.9686  -30.5842 H   0  0  0  0  0  0  0  0  0  0  0  0
   -4.4141   22.7819  -29.1585 H   0  0  0  0  0  0  0  0  0  0  0  0
   -3.3263   21.7476  -27.1659 H   0  0  0  0  0  0  0  0  0  0  0  0
   -1.2463   22.7500  -26.2156 H   0  0  0  0  0  0  0  0  0  0  0  0
   -0.2700   24.8056  -27.2389 H   0  0  0  0  0  0  0  0  0  0  0  0
   -4.1312   22.7908  -31.7811 H   0  0  0  0  0  0  0  0  0  0  0  0
  1  2  1  0
  2  3  1  0
  2  4  1  0
  4  5  2  0
  4  6  2  0
  4  7  1  0
  7  8  2  0
  8  9  1  0
  9 10  2  0
 10 11  1  0
 11 12  1  0
 12 13  2  0
 12 14  1  0
 14 15  1  0
 15 16  2  0
 16 17  1  0
 17 18  2  0
 18 19  1  0
 19 20  2  0
 20 21  1  0
 11 22  2  0
 22  7  1  0
 20 15  1  0
  1 23  1  0
  1 24  1  0
  1 25  1  0
  3 26  1  0
  3 27  1  0
  3 28  1  0
  8 29  1  0
  9 30  1  0
 10 31  1  0
 16 32  1  0
 17 33  1  0
 18 34  1  0
 19 35  1  0
 22 36  1  0
M  CHG  2  14  -1  21  -1
M  END
>  <UniqueID>  (31) 
29

>  <SMILES>  (31) 
CN(C)S(=O)(=O)c1cccc(C(=O)[N-]c2ccccc2[O-])c1

>  <Energy>  (31) 
39.1482121454324

>  <Genealogy>  (31) 
CN(C)S(=O)(=O)c1cccc(C(=O)[N-]c2ccccc2[O-])c1 (protonated)
CN(C)S(=O)(=O)c1cccc(C(=O)[N-]c2ccccc2[O-])c1 (3D coordinates assigned)
CN(C)S(=O)(=O)c1cccc(C(=O)[N-]c2ccccc2[O-])c1 (optimized conformer: 39.1482121454324 kcal/mol)

>  <smiles>  (31) 
CN(C)S(=O)(=O)c1cccc(C(=O)Nc2ccccc2O)c1

>  <score_type>  (31) 
oracle

>  <origin>  (31) 
adgpu

>  <m_score__min__energy>  (31) 
-13.23

>  <m_primary>  (31) 
energy

$$$$
31:0
     RDKit          3D

 60 63  0  0  0  0  0  0  0  0999 V2000
   -9.0860   20.4200  -31.6300 C   0  0  0  0  0  0  0  0  0  0  0  0
   -7.9820   21.3960  -31.3210 C   0  0  0  0  0  0  0  0  0  0  0  0
   -8.0610   22.1820  -30.1570 C   0  0  0  0  0  0  0  0  0  0  0  0
   -7.0540   23.0960  -29.8460 C   0  0  0  0  0  0  0  0  0  0  0  0
   -5.9500   23.2410  -30.6910 C   0  0  0  0  0  0  0  0  0  0  0  0
   -4.7030   24.4280  -30.3250 S   0  0  0  0  0  0  0  0  0  0  0  0
   -4.8420   24.8720  -28.8960 O   0  0  0  0  0  0  0  0  0  0  0  0
   -4.8470   25.6290  -31.2160 O   0  0  0  0  0  0  0  0  0  0  0  0
   -3.1390   23.7240  -30.5530 N   0  0  0  0  0  0  0  0  0  0  0  0
   -2.7210   22.6050  -29.7700 C   0  0  0  0  0  0  0  0  0  0  0  0
   -3.4750   22.2310  -28.6490 C   0  0  0  0  0  0  0  0  0  0  0  0
   -3.1420   21.0770  -27.9330 C   0  0  0  0  0  0  0  0  0  0  0  0
   -2.0620   20.2890  -28.3360 C   0  0  0  0  0  0  0  0  0  0  0  0
   -1.3030   20.6590  -29.4510 C   0  0  0  0  0  0  0  0  0  0  0  0
   -1.6060   21.8300  -30.1580 C   0  0  0  0  0  0  0  0  0  0  0  0
   -0.8280   22.1570  -31.3170 N   0  0  0  0  0  0  0  0  0  0  0  0
   -0.5060   21.2370  -32.3680 C   0  0  0  0  0  0  0  0  0  0  0  0
    0.6820   21.1540  -32.7860 O   0  0  0  0  0  0  0  0  0  0  0  0
   -1.5580   20.3690  -32.9460 C   0  0  0  0  0  0  0  0  0  0  0  0
   -2.9120   20.7430  -32.8830 C   0  0  0  0  0  0  0  0  0  0  0  0
   -3.8980   19.9330  -33.4510 C   0  0  0  0  0  0  0  0  0  0  0  0
   -3.5510   18.7360  -34.0870 C   0  0  0  0  0  0  0  0  0  0  0  0
   -4.8010   17.7420  -34.8300 S   0  0  0  0  0  0  0  0  0  0  0  0
   -4.2040   17.0260  -36.0090 O   0  0  0  0  0  0  0  0  0  0  0  0
   -5.9250   18.6140  -35.3210 O   0  0  0  0  0  0  0  0  0  0  0  0
   -5.3940   16.5760  -33.6660 N   0  0  0  0  0  0  0  0  0  0  0  0
   -6.8620   16.5670  -33.6520 C   0  0  0  0  0  0  0  0  0  0  0  0
   -7.3300   17.5390  -32.5820 C   0  0  0  0  0  0  0  0  0  0  0  0
   -6.1230   17.7760  -31.6930 C   0  0  0  0  0  0  0  0  0  0  0  0
   -4.9970   16.9550  -32.3060 C   0  0  0  0  0  0  0  0  0  0  0  0
   -2.2050   18.3570  -34.1560 C   0  0  0  0  0  0  0  0  0  0  0  0
   -1.2150   19.1670  -33.5920 C   0  0  0  0  0  0  0  0  0  0  0  0
   -5.8640   22.4720  -31.8590 C   0  0  0  0  0  0  0  0  0  0  0  0
   -6.8720   21.5480  -32.1850 C   0  0  0  0  0  0  0  0  0  0  0  0
   -6.7470   20.7310  -33.4460 C   0  0  0  0  0  0  0  0  0  0  0  0
   -9.5143   20.0413  -30.6902 H   0  0  0  0  0  0  0  0  0  0  0  0
   -9.8700   20.9257  -32.2128 H   0  0  0  0  0  0  0  0  0  0  0  0
   -8.6803   19.5799  -32.2128 H   0  0  0  0  0  0  0  0  0  0  0  0
   -8.9255   22.0748  -29.4853 H   0  0  0  0  0  0  0  0  0  0  0  0
   -7.1290   23.7046  -28.9328 H   0  0  0  0  0  0  0  0  0  0  0  0
   -4.3300   22.8463  -28.3321 H   0  0  0  0  0  0  0  0  0  0  0  0
   -3.7321   20.7893  -27.0504 H   0  0  0  0  0  0  0  0  0  0  0  0
   -1.8080   19.3768  -27.7763 H   0  0  0  0  0  0  0  0  0  0  0  0
   -0.4631   20.0268  -29.7748 H   0  0  0  0  0  0  0  0  0  0  0  0
   -3.1968   21.6803  -32.3827 H   0  0  0  0  0  0  0  0  0  0  0  0
   -4.9536   20.2379  -33.3980 H   0  0  0  0  0  0  0  0  0  0  0  0
   -7.2461   16.8803  -34.6340 H   0  0  0  0  0  0  0  0  0  0  0  0
   -7.2348   15.5548  -33.4366 H   0  0  0  0  0  0  0  0  0  0  0  0
   -7.6621   18.4829  -33.0389 H   0  0  0  0  0  0  0  0  0  0  0  0
   -8.1832   17.1402  -32.0137 H   0  0  0  0  0  0  0  0  0  0  0  0
   -5.8579   18.8435  -31.6817 H   0  0  0  0  0  0  0  0  0  0  0  0
   -6.3204   17.4831  -30.6513 H   0  0  0  0  0  0  0  0  0  0  0  0
   -4.0753   17.5544  -32.3406 H   0  0  0  0  0  0  0  0  0  0  0  0
   -4.8093   16.0560  -31.7006 H   0  0  0  0  0  0  0  0  0  0  0  0
   -1.9253   17.4180  -34.6561 H   0  0  0  0  0  0  0  0  0  0  0  0
   -0.1598   18.8623  -33.6537 H   0  0  0  0  0  0  0  0  0  0  0  0
   -4.9989   22.5925  -32.5277 H   0  0  0  0  0  0  0  0  0  0  0  0
   -6.5854   19.6749  -33.1841 H   0  0  0  0  0  0  0  0  0  0  0  0
   -7.6700   20.8252  -34.0369 H   0  0  0  0  0  0  0  0  0  0  0  0
   -5.8944   21.0968  -34.0369 H   0  0  0  0  0  0  0  0  0  0  0  0
  1  2  1  0
  2  3  2  0
  3  4  1  0
  4  5  2  0
  5  6  1  0
  6  7  2  0
  6  8  2  0
  6  9  1  0
  9 10  1  0
 10 11  2  0
 11 12  1  0
 12 13  2  0
 13 14  1  0
 14 15  2  0
 15 16  1  0
 16 17  1  0
 17 18  2  0
 17 19  1  0
 19 20  2  0
 20 21  1  0
 21 22  2  0
 22 23  1  0
 23 24  2  0
 23 25  2  0
 23 26  1  0
 26 27  1  0
 27 28  1  0
 28 29  1  0
 29 30  1  0
 22 31  1  0
 31 32  2  0
  5 33  1  0
 33 34  2  0
 34 35  1  0
 34  2  1  0
 15 10  1  0
 32 19  1  0
 30 26  1  0
  1 36  1  0
  1 37  1  0
  1 38  1  0
  3 39  1  0
  4 40  1  0
 11 41  1  0
 12 42  1  0
 13 43  1  0
 14 44  1  0
 20 45  1  0
 21 46  1  0
 27 47  1  0
 27 48  1  0
 28 49  1  0
 28 50  1  0
 29 51  1  0
 29 52  1  0
 30 53  1  0
 30 54  1  0
 31 55  1  0
 32 56  1  0
 33 57  1  0
 35 58  1  0
 35 59  1  0
 35 60  1  0
M  CHG  2   9  -1  16  -1
M  END
>  <UniqueID>  (32) 
30

>  <SMILES>  (32) 
Cc1ccc(S(=O)(=O)[N-]c2ccccc2[N-]C(=O)c2ccc(S(=O)(=O)N3CCCC3)cc2)cc1C

>  <Energy>  (32) 
79.40077797896159

>  <Genealogy>  (32) 
Cc1ccc(S(=O)(=O)[N-]c2ccccc2[N-]C(=O)c2ccc(S(=O)(=O)N3CCCC3)cc2)cc1C (protonated)
Cc1ccc(S(=O)(=O)[N-]c2ccccc2[N-]C(=O)c2ccc(S(=O)(=O)N3CCCC3)cc2)cc1C (3D coordinates assigned)
Cc1ccc(S(=O)(=O)[N-]c2ccccc2[N-]C(=O)c2ccc(S(=O)(=O)N3CCCC3)cc2)cc1C (nonaromatic ring conformer: 79.40077797896159 kcal/mol)

>  <smiles>  (32) 
Cc1ccc(S(=O)(=O)Nc2ccccc2NC(=O)c2ccc(S(=O)(=O)N3CCCC3)cc2)cc1C

>  <score_type>  (32) 
oracle

>  <origin>  (32) 
adgpu

>  <m_score__min__energy>  (32) 
-12.609999999999999

>  <m_primary>  (32) 
energy

$$$$
32:0
     RDKit          3D

 67 70  0  0  0  0  0  0  0  0999 V2000
   -1.2340   18.6830  -27.7120 C   0  0  0  0  0  0  0  0  0  0  0  0
   -0.9770   20.1320  -28.0360 C   0  0  0  0  0  0  0  0  0  0  0  0
   -1.0920   21.0700  -26.9970 C   0  0  0  0  0  0  0  0  0  0  0  0
   -0.8450   22.4220  -27.2260 C   0  0  0  0  0  0  0  0  0  0  0  0
   -0.4640   22.8710  -28.4900 C   0  0  0  0  0  0  0  0  0  0  0  0
   -0.2290   24.2750  -28.6700 N   0  0  0  0  0  0  0  0  0  0  0  0
   -1.2260   25.2830  -28.8810 C   0  0  0  0  0  0  0  0  0  0  0  0
   -0.8690   26.4130  -29.3050 O   0  0  0  0  0  0  0  0  0  0  0  0
   -2.6160   25.0480  -28.6190 N   0  0  0  0  0  0  0  0  0  0  0  0
   -3.5250   24.3010  -29.4390 C   0  0  0  0  0  0  0  0  0  0  0  0
   -4.5370   24.9290  -30.1840 C   0  0  0  0  0  0  0  0  0  0  0  0
   -5.4210   24.1660  -30.9520 C   0  0  0  0  0  0  0  0  0  0  0  0
   -5.3320   22.7680  -30.9540 C   0  0  0  0  0  0  0  0  0  0  0  0
   -6.4950   21.7970  -31.8530 S   0  0  0  0  0  0  0  0  0  0  0  0
   -7.4530   21.1330  -30.9010 O   0  0  0  0  0  0  0  0  0  0  0  0
   -7.2780   22.7020  -32.7670 O   0  0  0  0  0  0  0  0  0  0  0  0
   -5.6490   20.5900  -32.7960 N   0  0  0  0  0  0  0  0  0  0  0  0
   -5.0480   19.5500  -31.9240 C   0  0  0  0  0  0  0  0  0  0  0  0
   -5.8080   18.2180  -31.9840 C   0  0  0  0  0  0  0  0  0  0  0  0
   -5.8480   17.6840  -33.3640 N   0  0  0  0  0  0  0  0  0  0  0  0
   -6.8970   16.6610  -33.4830 C   0  0  0  0  0  0  0  0  0  0  0  0
   -5.9940   18.7340  -34.4050 C   0  0  0  0  0  0  0  0  0  0  0  0
   -6.5470   20.0500  -33.8370 C   0  0  0  0  0  0  0  0  0  0  0  0
   -4.3440   22.1400  -30.1880 C   0  0  0  0  0  0  0  0  0  0  0  0
   -3.4450   22.9020  -29.4360 C   0  0  0  0  0  0  0  0  0  0  0  0
   -0.3870   21.9550  -29.5560 C   0  0  0  0  0  0  0  0  0  0  0  0
   -0.1160   22.4200  -30.8390 O   0  0  0  0  0  0  0  0  0  0  0  0
   -0.6150   20.5770  -29.3390 C   0  0  0  0  0  0  0  0  0  0  0  0
   -0.4920   19.4800  -30.7390 S   0  0  0  0  0  0  0  0  0  0  0  0
   -0.3760   18.0410  -30.3270 O   0  0  0  0  0  0  0  0  0  0  0  0
    0.7570   19.8330  -31.4990 O   0  0  0  0  0  0  0  0  0  0  0  0
   -1.9260   19.7250  -31.8060 C   0  0  0  0  0  0  0  0  0  0  0  0
   -1.9450   18.7580  -33.0040 C   0  0  0  0  0  0  0  0  0  0  0  0
   -1.0200   19.2140  -34.1470 C   0  0  0  0  0  0  0  0  0  0  0  0
   -1.3050   20.5940  -34.5550 N   0  0  0  0  0  0  0  0  0  0  0  0
   -1.1250   21.5240  -33.4330 C   0  0  0  0  0  0  0  0  0  0  0  0
   -2.0690   21.1870  -32.2690 C   0  0  0  0  0  0  0  0  0  0  0  0
   -1.2576   18.5500  -26.6203 H   0  0  0  0  0  0  0  0  0  0  0  0
   -2.2004   18.3775  -28.1396 H   0  0  0  0  0  0  0  0  0  0  0  0
   -0.4317   18.0638  -28.1396 H   0  0  0  0  0  0  0  0  0  0  0  0
   -1.3805   20.7332  -25.9904 H   0  0  0  0  0  0  0  0  0  0  0  0
   -0.9516   23.1423  -26.4015 H   0  0  0  0  0  0  0  0  0  0  0  0
   -4.6340   26.0245  -30.1628 H   0  0  0  0  0  0  0  0  0  0  0  0
   -6.1908   24.6660  -31.5582 H   0  0  0  0  0  0  0  0  0  0  0  0
   -4.0100   19.3781  -32.2448 H   0  0  0  0  0  0  0  0  0  0  0  0
   -5.0972   19.9152  -30.8876 H   0  0  0  0  0  0  0  0  0  0  0  0
   -5.3051   17.4887  -31.3319 H   0  0  0  0  0  0  0  0  0  0  0  0
   -6.8411   18.3920  -31.6487 H   0  0  0  0  0  0  0  0  0  0  0  0
   -7.2187   16.3472  -32.4790 H   0  0  0  0  0  0  0  0  0  0  0  0
   -7.7557   17.0781  -34.0295 H   0  0  0  0  0  0  0  0  0  0  0  0
   -6.5015   15.7921  -34.0295 H   0  0  0  0  0  0  0  0  0  0  0  0
   -5.0075   18.9288  -34.8509 H   0  0  0  0  0  0  0  0  0  0  0  0
   -6.7099   18.3655  -35.1545 H   0  0  0  0  0  0  0  0  0  0  0  0
   -6.6381   20.7842  -34.6511 H   0  0  0  0  0  0  0  0  0  0  0  0
   -7.5312   19.8538  -33.3867 H   0  0  0  0  0  0  0  0  0  0  0  0
   -4.2743   21.0423  -30.1774 H   0  0  0  0  0  0  0  0  0  0  0  0
   -2.6699   22.4002  -28.8381 H   0  0  0  0  0  0  0  0  0  0  0  0
   -2.8035   19.4891  -31.1860 H   0  0  0  0  0  0  0  0  0  0  0  0
   -1.6181   17.7653  -32.6608 H   0  0  0  0  0  0  0  0  0  0  0  0
   -2.9724   18.7334  -33.3963 H   0  0  0  0  0  0  0  0  0  0  0  0
    0.0245   19.1506  -33.8077 H   0  0  0  0  0  0  0  0  0  0  0  0
   -1.1928   18.5570  -35.0121 H   0  0  0  0  0  0  0  0  0  0  0  0
   -2.2960   20.6520  -34.8930 H   0  0  0  0  0  0  0  0  0  0  0  0
   -0.0851   21.4619  -33.0799 H   0  0  0  0  0  0  0  0  0  0  0  0
   -1.3577   22.5400  -33.7846 H   0  0  0  0  0  0  0  0  0  0  0  0
   -1.8380   21.8505  -31.4226 H   0  0  0  0  0  0  0  0  0  0  0  0
   -3.1015   21.3296  -32.6205 H   0  0  0  0  0  0  0  0  0  0  0  0
  1  2  1  0
  2  3  2  0
  3  4  1  0
  4  5  2  0
  5  6  1  0
  6  7  1  0
  7  8  2  0
  7  9  1  0
  9 10  1  0
 10 11  2  0
 11 12  1  0
 12 13  2  0
 13 14  1  0
 14 15  2  0
 14 16  2  0
 14 17  1  0
 17 18  1  0
 18 19  1  0
 19 20  1  0
 20 21  1  0
 20 22  1  0
 22 23  1  0
 13 24  1  0
 24 25  2  0
  5 26  1  0
 26 27  1  0
 26 28  2  0
 28 29  1  0
 29 30  2  0
 29 31  2  0
 29 32  1  0
 32 33  1  0
 33 34  1  0
 34 35  1  0
 35 36  1  0
 36 37  1  0
 28  2  1  0
 37 32  1  0
 25 10  1  0
 23 17  1  0
  1 38  1  0
  1 39  1  0
  1 40  1  0
  3 41  1  0
  4 42  1  0
 11 43  1  0
 12 44  1  0
 18 45  1  0
 18 46  1  0
 19 47  1  0
 19 48  1  0
 21 49  1  0
 21 50  1  0
 21 51  1  0
 22 52  1  0
 22 53  1  0
 23 54  1  0
 23 55  1  0
 24 56  1  0
 25 57  1  0
 32 58  1  0
 33 59  1  0
 33 60  1  0
 34 61  1  0
 34 62  1  0
 35 63  1  0
 36 64  1  0
 36 65  1  0
 37 66  1  0
 37 67  1  0
M  CHG  3   6  -1   9  -1  27  -1
M  END
>  <UniqueID>  (33) 
31

>  <SMILES>  (33) 
Cc1ccc([N-]C(=O)[N-]c2ccc(S(=O)(=O)N3CCN(C)CC3)cc2)c([O-])c1S(=O)(=O)C1CCNCC1

>  <Energy>  (33) 
87.3234874920181

>  <Genealogy>  (33) 
Cc1ccc([N-]C(=O)[N-]c2ccc(S(=O)(=O)N3CCN(C)CC3)cc2)c([O-])c1S(=O)(=O)C1CCNCC1 (protonated)
Cc1ccc([N-]C(=O)[N-]c2ccc(S(=O)(=O)N3CCN(C)CC3)cc2)c([O-])c1S(=O)(=O)C1CCNCC1 (3D coordinates assigned)
Cc1ccc([N-]C(=O)[N-]c2ccc(S(=O)(=O)N3CCN(C)CC3)cc2)c([O-])c1S(=O)(=O)C1CCNCC1 (nonaromatic ring conformer: 87.3234874920181 kcal/mol)

>  <smiles>  (33) 
Cc1ccc(NC(=O)Nc2ccc(S(=O)(=O)N3CCN(C)CC3)cc2)c(O)c1S(=O)(=O)C1CCNCC1

>  <score_type>  (33) 
oracle

>  <origin>  (33) 
adgpu

>  <m_score__min__energy>  (33) 
-17.719999999999999

>  <m_primary>  (33) 
energy

$$$$
33:0
     RDKit          3D

 53 55  0  0  0  0  0  0  0  0999 V2000
   -0.1150   26.1200  -24.9490 C   0  0  0  0  0  0  0  0  0  0  0  0
    0.5930   26.2730  -26.3100 C   0  0  0  0  0  0  0  0  0  0  0  0
    0.7660   27.7710  -26.6220 C   0  0  0  0  0  0  0  0  0  0  0  0
    1.9750   25.5950  -26.2380 C   0  0  0  0  0  0  0  0  0  0  0  0
   -0.2310   25.6210  -27.4020 C   0  0  0  0  0  0  0  0  0  0  0  0
   -1.6040   25.7040  -27.5590 C   0  0  0  0  0  0  0  0  0  0  0  0
   -1.8360   24.9500  -28.6840 C   0  0  0  0  0  0  0  0  0  0  0  0
   -3.0100   24.7510  -29.2080 N   0  0  0  0  0  0  0  0  0  0  0  0
   -3.2910   23.9730  -30.3810 C   0  0  0  0  0  0  0  0  0  0  0  0
   -4.2170   24.3090  -31.1710 O   0  0  0  0  0  0  0  0  0  0  0  0
   -2.4770   22.8280  -30.6660 N   0  0  0  0  0  0  0  0  0  0  0  0
   -2.7700   21.8690  -31.6970 C   0  0  0  0  0  0  0  0  0  0  0  0
   -1.7830   21.5470  -32.6400 C   0  0  0  0  0  0  0  0  0  0  0  0
   -2.0460   20.6160  -33.6470 C   0  0  0  0  0  0  0  0  0  0  0  0
   -3.2910   19.9890  -33.7140 C   0  0  0  0  0  0  0  0  0  0  0  0
   -4.2810   20.2820  -32.7660 C   0  0  0  0  0  0  0  0  0  0  0  0
   -5.8590   19.4970  -32.8530 S   0  0  0  0  0  0  0  0  0  0  0  0
   -5.8860   18.5630  -34.0320 O   0  0  0  0  0  0  0  0  0  0  0  0
   -6.0780   18.6810  -31.6090 O   0  0  0  0  0  0  0  0  0  0  0  0
   -7.1470   20.6700  -33.0130 N   0  0  0  0  0  0  0  0  0  0  0  0
   -6.8600   21.8610  -32.1850 C   0  0  0  0  0  0  0  0  0  0  0  0
   -8.1170   22.7110  -31.9750 C   0  0  0  0  0  0  0  0  0  0  0  0
   -9.1990   21.9200  -31.2170 C   0  0  0  0  0  0  0  0  0  0  0  0
   -9.0630   20.3980  -31.3990 C   0  0  0  0  0  0  0  0  0  0  0  0
   -8.4790   20.0560  -32.7780 C   0  0  0  0  0  0  0  0  0  0  0  0
   -4.0110   21.2090  -31.7490 C   0  0  0  0  0  0  0  0  0  0  0  0
   -0.6810   24.4520  -29.1670 N   0  0  0  0  0  0  0  0  0  0  0  0
    0.2590   24.8770  -28.3730 O   0  0  0  0  0  0  0  0  0  0  0  0
    0.6115   26.2770  -24.1381 H   0  0  0  0  0  0  0  0  0  0  0  0
   -0.9205   26.8648  -24.8689 H   0  0  0  0  0  0  0  0  0  0  0  0
   -0.5411   25.1090  -24.8689 H   0  0  0  0  0  0  0  0  0  0  0  0
    0.8313   28.3364  -25.6807 H   0  0  0  0  0  0  0  0  0  0  0  0
    1.6874   27.9203  -27.2041 H   0  0  0  0  0  0  0  0  0  0  0  0
   -0.0971   28.1264  -27.2041 H   0  0  0  0  0  0  0  0  0  0  0  0
    2.2603   25.4550  -25.1849 H   0  0  0  0  0  0  0  0  0  0  0  0
    1.9300   24.6167  -26.7388 H   0  0  0  0  0  0  0  0  0  0  0  0
    2.7212   26.2293  -26.7388 H   0  0  0  0  0  0  0  0  0  0  0  0
   -2.3322   26.2426  -26.9348 H   0  0  0  0  0  0  0  0  0  0  0  0
   -1.5710   22.7410  -30.1530 H   0  0  0  0  0  0  0  0  0  0  0  0
   -0.7964   22.0304  -32.5861 H   0  0  0  0  0  0  0  0  0  0  0  0
   -1.2702   20.3763  -34.3890 H   0  0  0  0  0  0  0  0  0  0  0  0
   -3.4961   19.2622  -34.5138 H   0  0  0  0  0  0  0  0  0  0  0  0
   -6.4816   21.5333  -31.2055 H   0  0  0  0  0  0  0  0  0  0  0  0
   -6.1107   22.4738  -32.7074 H   0  0  0  0  0  0  0  0  0  0  0  0
   -7.8525   23.6064  -31.3934 H   0  0  0  0  0  0  0  0  0  0  0  0
   -8.5163   22.9947  -32.9599 H   0  0  0  0  0  0  0  0  0  0  0  0
   -9.1194   22.1542  -30.1452 H   0  0  0  0  0  0  0  0  0  0  0  0
  -10.1751   22.2167  -31.6283 H   0  0  0  0  0  0  0  0  0  0  0  0
   -8.3974   20.0009  -30.6184 H   0  0  0  0  0  0  0  0  0  0  0  0
  -10.0628   19.9461  -31.3211 H   0  0  0  0  0  0  0  0  0  0  0  0
   -8.3798   18.9632  -32.8554 H   0  0  0  0  0  0  0  0  0  0  0  0
   -9.1660   20.4607  -33.5357 H   0  0  0  0  0  0  0  0  0  0  0  0
   -4.7750   21.4215  -30.9867 H   0  0  0  0  0  0  0  0  0  0  0  0
  1  2  1  0
  2  3  1  0
  2  4  1  0
  2  5  1  0
  5  6  2  0
  6  7  1  0
  7  8  2  3
  8  9  1  0
  9 10  2  0
  9 11  1  0
 11 12  1  0
 12 13  2  0
 13 14  1  0
 14 15  2  0
 15 16  1  0
 16 17  1  0
 17 18  2  0
 17 19  2  0
 17 20  1  0
 20 21  1  0
 21 22  1  0
 22 23  1  0
 23 24  1  0
 24 25  1  0
 16 26  2  0
  7 27  1  0
 27 28  1  0
 28  5  1  0
 26 12  1  0
 25 20  1  0
  1 29  1  0
  1 30  1  0
  1 31  1  0
  3 32  1  0
  3 33  1  0
  3 34  1  0
  4 35  1  0
  4 36  1  0
  4 37  1  0
  6 38  1  0
 11 39  1  0
 13 40  1  0
 14 41  1  0
 15 42  1  0
 21 43  1  0
 21 44  1  0
 22 45  1  0
 22 46  1  0
 23 47  1  0
 23 48  1  0
 24 49  1  0
 24 50  1  0
 25 51  1  0
 25 52  1  0
 26 53  1  0
M  CHG  1  27  -1
M  END
>  <UniqueID>  (34) 
32

>  <SMILES>  (34) 
CC(C)(C)c1cc(=NC(=O)Nc2cccc(S(=O)(=O)N3CCCCC3)c2)[n-]o1

>  <Energy>  (34) 
88.90432785455447

>  <Genealogy>  (34) 
CC(C)(C)c1cc(=NC(=O)Nc2cccc(S(=O)(=O)N3CCCCC3)c2)[n-]o1 (protonated)
CC(C)(C)c1cc(=NC(=O)Nc2cccc(S(=O)(=O)N3CCCCC3)c2)[n-]o1 (3D coordinates assigned)
CC(C)(C)c1cc(=NC(=O)Nc2cccc(S(=O)(=O)N3CCCCC3)c2)[n-]o1 (nonaromatic ring conformer: 88.90432785455447 kcal/mol)

>  <smiles>  (34) 
CC(C)(C)c1cc(=NC(=O)Nc2cccc(S(=O)(=O)N3CCCCC3)c2)[nH]o1

>  <score_type>  (34) 
oracle

>  <origin>  (34) 
adgpu

>  <m_score__min__energy>  (34) 
-10.82

>  <m_primary>  (34) 
energy

$$$$
34:0
     RDKit          3D

 61 64  0  0  0  0  0  0  0  0999 V2000
   -6.4370   24.5360  -30.9890 C   0  0  0  0  0  0  0  0  0  0  0  0
   -6.9200   23.1720  -31.3760 C   0  0  0  0  0  0  0  0  0  0  0  0
   -6.0670   22.0670  -31.2660 C   0  0  0  0  0  0  0  0  0  0  0  0
   -6.5370   20.7850  -31.5640 C   0  0  0  0  0  0  0  0  0  0  0  0
   -7.8660   20.5920  -31.9600 C   0  0  0  0  0  0  0  0  0  0  0  0
   -8.4470   18.9650  -32.2950 S   0  0  0  0  0  0  0  0  0  0  0  0
   -8.4440   18.1380  -31.0380 O   0  0  0  0  0  0  0  0  0  0  0  0
   -9.8430   19.0540  -32.8430 O   0  0  0  0  0  0  0  0  0  0  0  0
   -7.3900   18.2400  -33.4590 N   0  0  0  0  0  0  0  0  0  0  0  0
   -5.9590   18.2500  -33.4030 C   0  0  0  0  0  0  0  0  0  0  0  0
   -5.3050   17.1340  -32.8700 C   0  0  0  0  0  0  0  0  0  0  0  0
   -3.9170   17.1140  -32.7570 C   0  0  0  0  0  0  0  0  0  0  0  0
   -3.1410   18.2040  -33.1950 C   0  0  0  0  0  0  0  0  0  0  0  0
   -1.6660   18.1650  -33.0320 C   0  0  0  0  0  0  0  0  0  0  0  0
   -0.9690   17.3840  -33.7350 O   0  0  0  0  0  0  0  0  0  0  0  0
   -1.0430   18.9840  -32.0310 N   0  0  0  0  0  0  0  0  0  0  0  0
   -1.5180   20.2150  -31.4650 C   0  0  0  0  0  0  0  0  0  0  0  0
   -0.5920   21.2410  -31.2350 C   0  0  0  0  0  0  0  0  0  0  0  0
   -0.9910   22.4360  -30.6300 C   0  0  0  0  0  0  0  0  0  0  0  0
   -2.3260   22.6230  -30.2500 C   0  0  0  0  0  0  0  0  0  0  0  0
   -2.8340   24.1140  -29.4650 S   0  0  0  0  0  0  0  0  0  0  0  0
   -3.8130   23.8620  -28.3570 O   0  0  0  0  0  0  0  0  0  0  0  0
   -3.5290   24.9460  -30.5050 O   0  0  0  0  0  0  0  0  0  0  0  0
   -1.4700   25.0270  -28.8830 N   0  0  0  0  0  0  0  0  0  0  0  0
   -0.6160   24.8940  -27.9020 C   0  0  0  0  0  0  0  0  0  0  0  0
    0.2740   25.9130  -27.7540 N   0  0  0  0  0  0  0  0  0  0  0  0
    1.1870   25.9780  -26.7550 C   0  0  0  0  0  0  0  0  0  0  0  0
    1.2330   24.9750  -25.7890 C   0  0  0  0  0  0  0  0  0  0  0  0
    2.2330   25.0270  -24.6710 C   0  0  0  0  0  0  0  0  0  0  0  0
    0.3740   23.8830  -25.9180 C   0  0  0  0  0  0  0  0  0  0  0  0
   -0.5520   23.8020  -26.9780 C   0  0  0  0  0  0  0  0  0  0  0  0
   -1.3830   22.5500  -27.0440 C   0  0  0  0  0  0  0  0  0  0  0  0
   -3.2540   21.5950  -30.4630 C   0  0  0  0  0  0  0  0  0  0  0  0
   -2.8530   20.3940  -31.0580 C   0  0  0  0  0  0  0  0  0  0  0  0
   -3.8030   19.3280  -33.7490 C   0  0  0  0  0  0  0  0  0  0  0  0
   -3.0880   20.4440  -34.1810 O   0  0  0  0  0  0  0  0  0  0  0  0
   -5.1970   19.3390  -33.8630 C   0  0  0  0  0  0  0  0  0  0  0  0
   -8.7210   21.6960  -32.0660 C   0  0  0  0  0  0  0  0  0  0  0  0
   -8.2520   22.9800  -31.7680 C   0  0  0  0  0  0  0  0  0  0  0  0
   -6.4082   24.6173  -29.8924 H   0  0  0  0  0  0  0  0  0  0  0  0
   -5.4274   24.6964  -31.3952 H   0  0  0  0  0  0  0  0  0  0  0  0
   -7.1207   25.2960  -31.3952 H   0  0  0  0  0  0  0  0  0  0  0  0
   -5.0246   22.2083  -30.9443 H   0  0  0  0  0  0  0  0  0  0  0  0
   -5.8587   19.9224  -31.4870 H   0  0  0  0  0  0  0  0  0  0  0  0
   -5.8919   16.2651  -32.5374 H   0  0  0  0  0  0  0  0  0  0  0  0
   -3.4206   16.2351  -32.3198 H   0  0  0  0  0  0  0  0  0  0  0  0
    0.4580   21.1048  -31.5332 H   0  0  0  0  0  0  0  0  0  0  0  0
   -0.2538   23.2327  -30.4516 H   0  0  0  0  0  0  0  0  0  0  0  0
    1.8911   26.8217  -26.7067 H   0  0  0  0  0  0  0  0  0  0  0  0
    1.7058   24.9996  -23.7059 H   0  0  0  0  0  0  0  0  0  0  0  0
    2.9097   24.1628  -24.7438 H   0  0  0  0  0  0  0  0  0  0  0  0
    2.8164   25.9567  -24.7438 H   0  0  0  0  0  0  0  0  0  0  0  0
    0.4202   23.0699  -25.1786 H   0  0  0  0  0  0  0  0  0  0  0  0
   -1.6107   22.2069  -26.0240 H   0  0  0  0  0  0  0  0  0  0  0  0
   -2.3213   22.7604  -27.5781 H   0  0  0  0  0  0  0  0  0  0  0  0
   -0.8247   21.7671  -27.5781 H   0  0  0  0  0  0  0  0  0  0  0  0
   -4.3027   21.7329  -30.1610 H   0  0  0  0  0  0  0  0  0  0  0  0
   -3.5844   19.5862  -31.2083 H   0  0  0  0  0  0  0  0  0  0  0  0
   -5.7010   20.2056  -34.3157 H   0  0  0  0  0  0  0  0  0  0  0  0
   -9.7642   21.5533  -32.3844 H   0  0  0  0  0  0  0  0  0  0  0  0
   -8.9312   23.8422  -31.8416 H   0  0  0  0  0  0  0  0  0  0  0  0
  1  2  1  0
  2  3  2  0
  3  4  1  0
  4  5  2  0
  5  6  1  0
  6  7  2  0
  6  8  2  0
  6  9  1  0
  9 10  1  0
 10 11  2  0
 11 12  1  0
 12 13  2  0
 13 14  1  0
 14 15  2  0
 14 16  1  0
 16 17  1  0
 17 18  2  0
 18 19  1  0
 19 20  2  0
 20 21  1  0
 21 22  2  0
 21 23  2  0
 21 24  1  0
 24 25  2  3
 25 26  1  0
 26 27  1  0
 27 28  2  0
 28 29  1  0
 28 30  1  0
 30 31  2  0
 31 32  1  0
 20 33  1  0
 33 34  2  0
 13 35  1  0
 35 36  1  0
 35 37  2  0
  5 38  1  0
 38 39  2  0
 39  2  1  0
 37 10  1  0
 34 17  1  0
 31 25  1  0
  1 40  1  0
  1 41  1  0
  1 42  1  0
  3 43  1  0
  4 44  1  0
 11 45  1  0
 12 46  1  0
 18 47  1  0
 19 48  1  0
 27 49  1  0
 29 50  1  0
 29 51  1  0
 29 52  1  0
 30 53  1  0
 32 54  1  0
 32 55  1  0
 32 56  1  0
 33 57  1  0
 34 58  1  0
 37 59  1  0
 38 60  1  0
 39 61  1  0
M  CHG  4   9  -1  16  -1  26  -1  36  -1
M  END
>  <UniqueID>  (35) 
33

>  <SMILES>  (35) 
Cc1ccc(S(=O)(=O)[N-]c2ccc(C(=O)[N-]c3ccc(S(=O)(=O)N=c4[n-]cc(C)cc4C)cc3)c([O-])c2)cc1

>  <Energy>  (35) 
94.70357496799

>  <Genealogy>  (35) 
Cc1ccc(S(=O)(=O)[N-]c2ccc(C(=O)[N-]c3ccc(S(=O)(=O)N=c4[n-]cc(C)cc4C)cc3)c([O-])c2)cc1 (protonated)
Cc1ccc(S(=O)(=O)[N-]c2ccc(C(=O)[N-]c3ccc(S(=O)(=O)N=c4[n-]cc(C)cc4C)cc3)c([O-])c2)cc1 (3D coordinates assigned)
Cc1ccc(S(=O)(=O)[N-]c2ccc(C(=O)[N-]c3ccc(S(=O)(=O)N=c4[n-]cc(C)cc4C)cc3)c([O-])c2)cc1 (optimized conformer: 94.70357496799 kcal/mol)

>  <smiles>  (35) 
Cc1ccc(S(=O)(=O)Nc2ccc(C(=O)Nc3ccc(S(=O)(=O)N=c4[nH]cc(C)cc4C)cc3)c(O)c2)cc1

>  <score_type>  (35) 
oracle

>  <origin>  (35) 
adgpu

>  <m_score__min__energy>  (35) 
-14.81

>  <m_primary>  (35) 
energy

$$$$
35:0
     RDKit          3D

 58 60  0  0  0  0  0  0  0  0999 V2000
   -4.1720   14.1570  -32.8720 C   0  0  0  0  0  0  0  0  0  0  0  0
   -4.5330   15.5770  -33.1930 C   0  0  0  0  0  0  0  0  0  0  0  0
   -3.6770   16.3650  -33.9730 C   0  0  0  0  0  0  0  0  0  0  0  0
   -4.0320   17.6720  -34.3080 C   0  0  0  0  0  0  0  0  0  0  0  0
   -5.2620   18.2070  -33.8860 C   0  0  0  0  0  0  0  0  0  0  0  0
   -5.6320   19.5240  -34.2070 O   0  0  0  0  0  0  0  0  0  0  0  0
   -5.5140   20.6280  -33.3510 C   0  0  0  0  0  0  0  0  0  0  0  0
   -4.2940   21.2950  -33.1670 C   0  0  0  0  0  0  0  0  0  0  0  0
   -4.2140   22.3900  -32.3050 C   0  0  0  0  0  0  0  0  0  0  0  0
   -5.3490   22.8460  -31.6210 C   0  0  0  0  0  0  0  0  0  0  0  0
   -5.1340   24.1740  -30.4720 S   0  0  0  0  0  0  0  0  0  0  0  0
   -3.8670   24.9090  -30.8050 O   0  0  0  0  0  0  0  0  0  0  0  0
   -6.2710   25.1550  -30.5150 O   0  0  0  0  0  0  0  0  0  0  0  0
   -5.0030   23.5030  -28.8830 N   0  0  0  0  0  0  0  0  0  0  0  0
   -3.7230   23.1230  -28.3770 C   0  0  0  0  0  0  0  0  0  0  0  0
   -2.9790   22.0210  -28.7500 C   0  0  0  0  0  0  0  0  0  0  0  0
   -3.3800   20.9610  -29.7240 C   0  0  0  0  0  0  0  0  0  0  0  0
   -1.8840   21.9430  -27.9660 N   0  0  0  0  0  0  0  0  0  0  0  0
   -1.9080   22.9770  -27.1370 N   0  0  0  0  0  0  0  0  0  0  0  0
   -0.8920   23.2140  -26.1170 C   0  0  0  0  0  0  0  0  0  0  0  0
   -3.0110   23.7240  -27.3600 C   0  0  0  0  0  0  0  0  0  0  0  0
   -3.4100   24.9340  -26.5740 C   0  0  0  0  0  0  0  0  0  0  0  0
   -6.5860   22.1940  -31.8240 C   0  0  0  0  0  0  0  0  0  0  0  0
   -7.7800   22.6300  -31.1620 N   0  0  0  0  0  0  0  0  0  0  0  0
   -7.9660   22.3050  -29.7490 C   0  0  0  0  0  0  0  0  0  0  0  0
   -8.9180   23.0740  -31.9650 C   0  0  0  0  0  0  0  0  0  0  0  0
   -6.6560   21.0980  -32.6970 C   0  0  0  0  0  0  0  0  0  0  0  0
   -6.1210   17.4250  -33.0910 C   0  0  0  0  0  0  0  0  0  0  0  0
   -7.4430   17.9780  -32.6360 C   0  0  0  0  0  0  0  0  0  0  0  0
   -5.7620   16.1060  -32.7690 C   0  0  0  0  0  0  0  0  0  0  0  0
   -4.1384   14.0250  -31.7805 H   0  0  0  0  0  0  0  0  0  0  0  0
   -4.9269   13.4810  -33.3001 H   0  0  0  0  0  0  0  0  0  0  0  0
   -3.1860   13.9236  -33.3001 H   0  0  0  0  0  0  0  0  0  0  0  0
   -2.7199   15.9512  -34.3232 H   0  0  0  0  0  0  0  0  0  0  0  0
   -3.3449   18.2883  -34.9064 H   0  0  0  0  0  0  0  0  0  0  0  0
   -3.3967   20.9539  -33.7041 H   0  0  0  0  0  0  0  0  0  0  0  0
   -3.2502   22.9002  -32.1611 H   0  0  0  0  0  0  0  0  0  0  0  0
   -5.7420   23.7680  -28.1960 H   0  0  0  0  0  0  0  0  0  0  0  0
   -3.7176   20.0687  -29.1765 H   0  0  0  0  0  0  0  0  0  0  0  0
   -4.1988   21.3348  -30.3563 H   0  0  0  0  0  0  0  0  0  0  0  0
   -2.5188   20.6992  -30.3563 H   0  0  0  0  0  0  0  0  0  0  0  0
   -1.3427   23.1089  -25.1191 H   0  0  0  0  0  0  0  0  0  0  0  0
   -0.0796   22.4812  -26.2314 H   0  0  0  0  0  0  0  0  0  0  0  0
   -0.4877   24.2306  -26.2314 H   0  0  0  0  0  0  0  0  0  0  0  0
   -3.3372   24.7132  -25.4988 H   0  0  0  0  0  0  0  0  0  0  0  0
   -2.7400   25.7702  -26.8228 H   0  0  0  0  0  0  0  0  0  0  0  0
   -4.4460   25.2077  -26.8228 H   0  0  0  0  0  0  0  0  0  0  0  0
   -7.5147   23.0936  -29.1289 H   0  0  0  0  0  0  0  0  0  0  0  0
   -9.0411   22.2346  -29.5274 H   0  0  0  0  0  0  0  0  0  0  0  0
   -7.4821   21.3423  -29.5274 H   0  0  0  0  0  0  0  0  0  0  0  0
   -9.7342   23.3924  -31.2998 H   0  0  0  0  0  0  0  0  0  0  0  0
   -8.6116   23.9186  -32.5997 H   0  0  0  0  0  0  0  0  0  0  0  0
   -9.2645   22.2451  -32.5997 H   0  0  0  0  0  0  0  0  0  0  0  0
   -7.6227   20.6020  -32.8690 H   0  0  0  0  0  0  0  0  0  0  0  0
   -7.4759   17.9917  -31.5366 H   0  0  0  0  0  0  0  0  0  0  0  0
   -7.5636   19.0020  -33.0193 H   0  0  0  0  0  0  0  0  0  0  0  0
   -8.2568   17.3448  -33.0193 H   0  0  0  0  0  0  0  0  0  0  0  0
   -6.4499   15.4821  -32.1794 H   0  0  0  0  0  0  0  0  0  0  0  0
  1  2  1  0
  2  3  2  0
  3  4  1  0
  4  5  2  0
  5  6  1  0
  6  7  1  0
  7  8  2  0
  8  9  1  0
  9 10  2  0
 10 11  1  0
 11 12  2  0
 11 13  2  0
 11 14  1  0
 14 15  1  0
 15 16  1  0
 16 17  1  0
 16 18  2  0
 18 19  1  0
 19 20  1  0
 19 21  1  0
 21 22  1  0
 10 23  1  0
 23 24  1  0
 24 25  1  0
 24 26  1  0
 23 27  2  0
  5 28  1  0
 28 29  1  0
 28 30  2  0
 30  2  1  0
 27  7  1  0
 21 15  2  0
  1 31  1  0
  1 32  1  0
  1 33  1  0
  3 34  1  0
  4 35  1  0
  8 36  1  0
  9 37  1  0
 14 38  1  0
 17 39  1  0
 17 40  1  0
 17 41  1  0
 20 42  1  0
 20 43  1  0
 20 44  1  0
 22 45  1  0
 22 46  1  0
 22 47  1  0
 25 48  1  0
 25 49  1  0
 25 50  1  0
 26 51  1  0
 26 52  1  0
 26 53  1  0
 27 54  1  0
 29 55  1  0
 29 56  1  0
 29 57  1  0
 30 58  1  0
M  END
>  <UniqueID>  (36) 
34

>  <SMILES>  (36) 
Cc1ccc(Oc2ccc(S(=O)(=O)Nc3c(C)nn(C)c3C)c(N(C)C)c2)c(C)c1

>  <Energy>  (36) 
103.03231339420348

>  <Genealogy>  (36) 
Cc1ccc(Oc2ccc(S(=O)(=O)Nc3c(C)nn(C)c3C)c(N(C)C)c2)c(C)c1 (3D coordinates assigned)
Cc1ccc(Oc2ccc(S(=O)(=O)Nc3c(C)nn(C)c3C)c(N(C)C)c2)c(C)c1 (optimized conformer: 103.03231339420348 kcal/mol)

>  <smiles>  (36) 
Cc1ccc(Oc2ccc(S(=O)(=O)Nc3c(C)nn(C)c3C)c(N(C)C)c2)c(C)c1

>  <score_type>  (36) 
oracle

>  <origin>  (36) 
adgpu

>  <m_score__min__energy>  (36) 
-9.5500000000000007

>  <m_primary>  (36) 
energy

$$$$
36:0
     RDKit          3D

 56 59  0  0  0  0  0  0  0  0999 V2000
   -1.8050   23.5660  -30.1410 O   0  0  0  0  0  0  0  0  0  0  0  0
   -2.8510   23.0480  -29.6670 C   0  0  0  0  0  0  0  0  0  0  0  0
   -2.7420   22.2340  -28.4930 N   0  0  0  0  0  0  0  0  0  0  0  0
   -1.9590   21.0370  -28.3940 C   0  0  0  0  0  0  0  0  0  0  0  0
   -1.9800   20.3070  -27.2010 C   0  0  0  0  0  0  0  0  0  0  0  0
   -1.2510   19.1210  -27.0890 C   0  0  0  0  0  0  0  0  0  0  0  0
   -0.5160   18.6430  -28.1760 C   0  0  0  0  0  0  0  0  0  0  0  0
   -0.5000   19.3540  -29.3860 C   0  0  0  0  0  0  0  0  0  0  0  0
    0.3520   18.7000  -30.7900 S   0  0  0  0  0  0  0  0  0  0  0  0
    0.3090   17.1970  -30.7360 O   0  0  0  0  0  0  0  0  0  0  0  0
    1.7950   19.1240  -30.7290 O   0  0  0  0  0  0  0  0  0  0  0  0
   -0.3280   19.2410  -32.3080 N   0  0  0  0  0  0  0  0  0  0  0  0
   -0.1220   20.6800  -32.5300 C   0  0  0  0  0  0  0  0  0  0  0  0
   -1.4860   21.3140  -32.7500 C   0  0  0  0  0  0  0  0  0  0  0  0
   -2.3800   20.1570  -33.1230 C   0  0  0  0  0  0  0  0  0  0  0  0
   -1.7710   18.9910  -32.3780 C   0  0  0  0  0  0  0  0  0  0  0  0
   -1.2240   20.5510  -29.4910 C   0  0  0  0  0  0  0  0  0  0  0  0
   -4.1440   23.2200  -30.3740 C   0  0  0  0  0  0  0  0  0  0  0  0
   -4.9180   22.0920  -30.6980 C   0  0  0  0  0  0  0  0  0  0  0  0
   -6.1080   22.2250  -31.4250 C   0  0  0  0  0  0  0  0  0  0  0  0
   -7.0490   20.8030  -31.8730 S   0  0  0  0  0  0  0  0  0  0  0  0
   -7.8780   21.1280  -33.0840 O   0  0  0  0  0  0  0  0  0  0  0  0
   -7.9730   20.4230  -30.7480 O   0  0  0  0  0  0  0  0  0  0  0  0
   -5.9710   19.4760  -32.2350 N   0  0  0  0  0  0  0  0  0  0  0  0
   -6.4960   18.1950  -31.7110 C   0  0  0  0  0  0  0  0  0  0  0  0
   -7.0380   17.2860  -32.8290 C   0  0  0  0  0  0  0  0  0  0  0  0
   -6.0650   16.9790  -33.8170 O   0  0  0  0  0  0  0  0  0  0  0  0
   -5.1740   18.0520  -34.0970 C   0  0  0  0  0  0  0  0  0  0  0  0
   -5.6980   19.4370  -33.6840 C   0  0  0  0  0  0  0  0  0  0  0  0
   -6.5310   23.4960  -31.8310 C   0  0  0  0  0  0  0  0  0  0  0  0
   -5.7800   24.6250  -31.4990 C   0  0  0  0  0  0  0  0  0  0  0  0
   -4.5890   24.4950  -30.7770 C   0  0  0  0  0  0  0  0  0  0  0  0
   -3.8630   25.6390  -30.4600 O   0  0  0  0  0  0  0  0  0  0  0  0
   -2.5729   20.6684  -26.3478 H   0  0  0  0  0  0  0  0  0  0  0  0
   -1.2558   18.5617  -26.1418 H   0  0  0  0  0  0  0  0  0  0  0  0
    0.0525   17.7058  -28.0835 H   0  0  0  0  0  0  0  0  0  0  0  0
    0.3623   21.1291  -31.6504 H   0  0  0  0  0  0  0  0  0  0  0  0
    0.5253   20.8461  -33.4037 H   0  0  0  0  0  0  0  0  0  0  0  0
   -1.8422   21.8008  -31.8301 H   0  0  0  0  0  0  0  0  0  0  0  0
   -1.4659   22.0956  -33.5237 H   0  0  0  0  0  0  0  0  0  0  0  0
   -3.4144   20.3369  -32.7950 H   0  0  0  0  0  0  0  0  0  0  0  0
   -2.4374   19.9907  -34.2088 H   0  0  0  0  0  0  0  0  0  0  0  0
   -2.1939   18.9265  -31.3646 H   0  0  0  0  0  0  0  0  0  0  0  0
   -1.9829   18.0409  -32.8903 H   0  0  0  0  0  0  0  0  0  0  0  0
   -1.2171   21.1130  -30.4366 H   0  0  0  0  0  0  0  0  0  0  0  0
   -4.5854   21.0938  -30.3770 H   0  0  0  0  0  0  0  0  0  0  0  0
   -5.6847   17.6675  -31.1880 H   0  0  0  0  0  0  0  0  0  0  0  0
   -7.3289   18.4253  -31.0304 H   0  0  0  0  0  0  0  0  0  0  0  0
   -7.3874   16.3458  -32.3775 H   0  0  0  0  0  0  0  0  0  0  0  0
   -7.8530   17.8302  -33.3286 H   0  0  0  0  0  0  0  0  0  0  0  0
   -4.2323   17.8663  -33.5598 H   0  0  0  0  0  0  0  0  0  0  0  0
   -5.0468   18.0775  -35.1893 H   0  0  0  0  0  0  0  0  0  0  0  0
   -4.9428   20.1979  -33.9305 H   0  0  0  0  0  0  0  0  0  0  0  0
   -6.6327   19.6398  -34.2273 H   0  0  0  0  0  0  0  0  0  0  0  0
   -7.4578   23.6056  -32.4133 H   0  0  0  0  0  0  0  0  0  0  0  0
   -6.1268   25.6225  -31.8069 H   0  0  0  0  0  0  0  0  0  0  0  0
  1  2  2  0
  2  3  1  0
  3  4  1  0
  4  5  2  0
  5  6  1  0
  6  7  2  0
  7  8  1  0
  8  9  1  0
  9 10  2  0
  9 11  2  0
  9 12  1  0
 12 13  1  0
 13 14  1  0
 14 15  1  0
 15 16  1  0
  8 17  2  0
  2 18  1  0
 18 19  2  0
 19 20  1  0
 20 21  1  0
 21 22  2  0
 21 23  2  0
 21 24  1  0
 24 25  1  0
 25 26  1  0
 26 27  1  0
 27 28  1  0
 28 29  1  0
 20 30  2  0
 30 31  1  0
 31 32  2  0
 32 33  1  0
 17  4  1  0
 32 18  1  0
 16 12  1  0
 29 24  1  0
  5 34  1  0
  6 35  1  0
  7 36  1  0
 13 37  1  0
 13 38  1  0
 14 39  1  0
 14 40  1  0
 15 41  1  0
 15 42  1  0
 16 43  1  0
 16 44  1  0
 17 45  1  0
 19 46  1  0
 25 47  1  0
 25 48  1  0
 26 49  1  0
 26 50  1  0
 28 51  1  0
 28 52  1  0
 29 53  1  0
 29 54  1  0
 30 55  1  0
 31 56  1  0
M  CHG  2   3  -1  33  -1
M  END
>  <UniqueID>  (37) 
35

>  <SMILES>  (37) 
O=C([N-]c1cccc(S(=O)(=O)N2CCCC2)c1)c1cc(S(=O)(=O)N2CCOCC2)ccc1[O-]

>  <Energy>  (37) 
75.59799909577443

>  <Genealogy>  (37) 
O=C([N-]c1cccc(S(=O)(=O)N2CCCC2)c1)c1cc(S(=O)(=O)N2CCOCC2)ccc1[O-] (protonated)
O=C([N-]c1cccc(S(=O)(=O)N2CCCC2)c1)c1cc(S(=O)(=O)N2CCOCC2)ccc1[O-] (3D coordinates assigned)
O=C([N-]c1cccc(S(=O)(=O)N2CCCC2)c1)c1cc(S(=O)(=O)N2CCOCC2)ccc1[O-] (nonaromatic ring conformer: 75.59799909577443 kcal/mol)

>  <smiles>  (37) 
O=C(Nc1cccc(S(=O)(=O)N2CCCC2)c1)c1cc(S(=O)(=O)N2CCOCC2)ccc1O

>  <score_type>  (37) 
oracle

>  <origin>  (37) 
adgpu

>  <m_score__min__energy>  (37) 
-15.02

>  <m_primary>  (37) 
energy

$$$$
37:0
     RDKit          3D

 48 50  0  0  0  0  0  0  0  0999 V2000
   -0.1400   19.1550  -29.2350 O   0  0  0  0  0  0  0  0  0  0  0  0
   -1.1040   19.9590  -29.1220 C   0  0  0  0  0  0  0  0  0  0  0  0
   -1.9270   19.9860  -27.8970 C   0  0  0  0  0  0  0  0  0  0  0  0
   -2.7090   21.0040  -27.5030 C   0  0  0  0  0  0  0  0  0  0  0  0
   -3.0220   22.2010  -28.3110 C   0  0  0  0  0  0  0  0  0  0  0  0
   -4.2740   22.3530  -28.9320 C   0  0  0  0  0  0  0  0  0  0  0  0
   -4.5620   23.5090  -29.6630 C   0  0  0  0  0  0  0  0  0  0  0  0
   -3.6150   24.5320  -29.7600 C   0  0  0  0  0  0  0  0  0  0  0  0
   -3.9090   25.6780  -30.4910 O   0  0  0  0  0  0  0  0  0  0  0  0
   -2.3760   24.4060  -29.1180 C   0  0  0  0  0  0  0  0  0  0  0  0
   -1.4410   25.4340  -29.2090 O   0  0  0  0  0  0  0  0  0  0  0  0
   -2.0870   23.2440  -28.3860 C   0  0  0  0  0  0  0  0  0  0  0  0
   -1.4240   20.8630  -30.1870 N   0  0  0  0  0  0  0  0  0  0  0  0
   -2.1070   20.5240  -31.4030 C   0  0  0  0  0  0  0  0  0  0  0  0
   -1.3630   20.4040  -32.5830 C   0  0  0  0  0  0  0  0  0  0  0  0
   -1.9910   20.0430  -33.7780 C   0  0  0  0  0  0  0  0  0  0  0  0
   -3.3670   19.8060  -33.8040 C   0  0  0  0  0  0  0  0  0  0  0  0
   -4.1290   19.9520  -32.6360 C   0  0  0  0  0  0  0  0  0  0  0  0
   -5.8640   19.6290  -32.6560 S   0  0  0  0  0  0  0  0  0  0  0  0
   -6.3680   19.7210  -34.0700 O   0  0  0  0  0  0  0  0  0  0  0  0
   -6.1180   18.2320  -32.1620 O   0  0  0  0  0  0  0  0  0  0  0  0
   -6.7350   20.7640  -31.6500 N   0  0  0  0  0  0  0  0  0  0  0  0
   -6.6690   22.1210  -32.2330 C   0  0  0  0  0  0  0  0  0  0  0  0
   -7.7240   23.0450  -31.6170 C   0  0  0  0  0  0  0  0  0  0  0  0
   -9.1470   22.5310  -31.9010 C   0  0  0  0  0  0  0  0  0  0  0  0
   -9.1940   21.0140  -32.1480 C   0  0  0  0  0  0  0  0  0  0  0  0
   -8.1080   20.2870  -31.3400 C   0  0  0  0  0  0  0  0  0  0  0  0
   -3.5000   20.3350  -31.4440 C   0  0  0  0  0  0  0  0  0  0  0  0
   -1.8972   19.0958  -27.2515 H   0  0  0  0  0  0  0  0  0  0  0  0
   -3.1522   20.9419  -26.4981 H   0  0  0  0  0  0  0  0  0  0  0  0
   -5.0300   21.5590  -28.8423 H   0  0  0  0  0  0  0  0  0  0  0  0
   -5.5362   23.6137  -30.1630 H   0  0  0  0  0  0  0  0  0  0  0  0
   -1.6110   26.2550  -29.7790 H   0  0  0  0  0  0  0  0  0  0  0  0
   -1.1212   23.1505  -27.8678 H   0  0  0  0  0  0  0  0  0  0  0  0
   -0.2797   20.5947  -32.5693 H   0  0  0  0  0  0  0  0  0  0  0  0
   -1.4000   19.9453  -34.7006 H   0  0  0  0  0  0  0  0  0  0  0  0
   -3.8542   19.5041  -34.7429 H   0  0  0  0  0  0  0  0  0  0  0  0
   -5.6705   22.5429  -32.0460 H   0  0  0  0  0  0  0  0  0  0  0  0
   -6.8638   22.0441  -33.3129 H   0  0  0  0  0  0  0  0  0  0  0  0
   -7.5695   23.0911  -30.5289 H   0  0  0  0  0  0  0  0  0  0  0  0
   -7.6179   24.0436  -32.0660 H   0  0  0  0  0  0  0  0  0  0  0  0
   -9.7848   22.7663  -31.0362 H   0  0  0  0  0  0  0  0  0  0  0  0
   -9.5019   23.0269  -32.8165 H   0  0  0  0  0  0  0  0  0  0  0  0
  -10.1809   20.6318  -31.8482 H   0  0  0  0  0  0  0  0  0  0  0  0
   -9.0158   20.8290  -33.2176 H   0  0  0  0  0  0  0  0  0  0  0  0
   -8.3013   20.4479  -30.2692 H   0  0  0  0  0  0  0  0  0  0  0  0
   -8.1547   19.2219  -31.6107 H   0  0  0  0  0  0  0  0  0  0  0  0
   -4.0995   20.4888  -30.5346 H   0  0  0  0  0  0  0  0  0  0  0  0
  1  2  2  0
  2  3  1  0
  3  4  2  3
  4  5  1  0
  5  6  2  0
  6  7  1  0
  7  8  2  0
  8  9  1  0
  8 10  1  0
 10 11  1  0
 10 12  2  0
  2 13  1  0
 13 14  1  0
 14 15  2  0
 15 16  1  0
 16 17  2  0
 17 18  1  0
 18 19  1  0
 19 20  2  0
 19 21  2  0
 19 22  1  0
 22 23  1  0
 23 24  1  0
 24 25  1  0
 25 26  1  0
 26 27  1  0
 18 28  2  0
 12  5  1  0
 28 14  1  0
 27 22  1  0
  3 29  1  0
  4 30  1  0
  6 31  1  0
  7 32  1  0
 11 33  1  0
 12 34  1  0
 15 35  1  0
 16 36  1  0
 17 37  1  0
 23 38  1  0
 23 39  1  0
 24 40  1  0
 24 41  1  0
 25 42  1  0
 25 43  1  0
 26 44  1  0
 26 45  1  0
 27 46  1  0
 27 47  1  0
 28 48  1  0
M  CHG  2   9  -1  13  -1
M  END
>  <UniqueID>  (38) 
36

>  <SMILES>  (38) 
O=C(C=Cc1ccc([O-])c(O)c1)[N-]c1cccc(S(=O)(=O)N2CCCCC2)c1

>  <Energy>  (38) 
63.801896978290166

>  <Genealogy>  (38) 
O=C(C=Cc1ccc([O-])c(O)c1)[N-]c1cccc(S(=O)(=O)N2CCCCC2)c1 (protonated)
O=C(C=Cc1ccc([O-])c(O)c1)[N-]c1cccc(S(=O)(=O)N2CCCCC2)c1 (3D coordinates assigned)
O=C(C=Cc1ccc([O-])c(O)c1)[N-]c1cccc(S(=O)(=O)N2CCCCC2)c1 (nonaromatic ring conformer: 63.801896978290166 kcal/mol)

>  <smiles>  (38) 
O=C(C=Cc1ccc(O)c(O)c1)Nc1cccc(S(=O)(=O)N2CCCCC2)c1

>  <score_type>  (38) 
oracle

>  <origin>  (38) 
adgpu

>  <m_score__min__energy>  (38) 
-12.84

>  <m_primary>  (38) 
energy

$$$$
38:0
     RDKit          3D

 43 46  0  0  0  0  0  0  0  0999 V2000
   -3.2130   19.6580  -25.8570 H   0  0  0  0  0  0  0  0  0  0  0  0
   -2.2510   19.7860  -26.1420 O   0  0  0  0  0  0  0  0  0  0  0  0
   -1.9110   20.5570  -27.2540 C   0  0  0  0  0  0  0  0  0  0  0  0
   -1.5780   19.9300  -28.4620 C   0  0  0  0  0  0  0  0  0  0  0  0
   -1.5732   18.8319  -28.5271 H   0  0  0  0  0  0  0  0  0  0  0  0
   -1.2520   20.6960  -29.5840 C   0  0  0  0  0  0  0  0  0  0  0  0
   -1.0045   20.2007  -30.5345 H   0  0  0  0  0  0  0  0  0  0  0  0
   -1.2400   22.0900  -29.5000 C   0  0  0  0  0  0  0  0  0  0  0  0
   -0.9802   22.6900  -30.3846 H   0  0  0  0  0  0  0  0  0  0  0  0
   -1.5580   22.7280  -28.2920 C   0  0  0  0  0  0  0  0  0  0  0  0
   -1.5070   24.4870  -28.2120 S   0  0  0  0  0  0  0  0  0  0  0  0
   -1.8260   24.9460  -26.8170 O   0  0  0  0  0  0  0  0  0  0  0  0
   -0.1180   24.9470  -28.5690 O   0  0  0  0  0  0  0  0  0  0  0  0
   -2.6150   25.2130  -29.3350 N   0  0  0  0  0  0  0  0  0  0  0  0
   -3.8830   24.6720  -29.7350 C   0  0  0  0  0  0  0  0  0  0  0  0
   -4.5750   25.2960  -30.7850 C   0  0  0  0  0  0  0  0  0  0  0  0
   -4.1478   26.1883  -31.2660 H   0  0  0  0  0  0  0  0  0  0  0  0
   -5.8030   24.7920  -31.2240 C   0  0  0  0  0  0  0  0  0  0  0  0
   -6.3480   25.3036  -32.0310 H   0  0  0  0  0  0  0  0  0  0  0  0
   -6.3410   23.6410  -30.6420 C   0  0  0  0  0  0  0  0  0  0  0  0
   -7.6120   23.1560  -31.0950 N   0  0  0  0  0  0  0  0  0  0  0  0
   -7.9200   22.0580  -31.7380 C   0  0  0  0  0  0  0  0  0  0  0  0
   -9.2850   21.7350  -31.7790 C   0  0  0  0  0  0  0  0  0  0  0  0
  -10.0281   22.4549  -31.4055 H   0  0  0  0  0  0  0  0  0  0  0  0
   -9.7050   20.5100  -32.2890 C   0  0  0  0  0  0  0  0  0  0  0  0
  -10.7765   20.2615  -32.3038 H   0  0  0  0  0  0  0  0  0  0  0  0
   -8.7990   19.6210  -32.7680 N   0  0  0  0  0  0  0  0  0  0  0  0
   -7.4710   19.9060  -32.8200 C   0  0  0  0  0  0  0  0  0  0  0  0
   -6.6010   18.9600  -33.3710 C   0  0  0  0  0  0  0  0  0  0  0  0
   -6.9827   17.9732  -33.6720 H   0  0  0  0  0  0  0  0  0  0  0  0
   -5.2490   19.2650  -33.5400 C   0  0  0  0  0  0  0  0  0  0  0  0
   -4.1590   18.0780  -34.2350 Cl  0  0  0  0  0  0  0  0  0  0  0  0
   -4.7730   20.5330  -33.2030 C   0  0  0  0  0  0  0  0  0  0  0  0
   -3.7167   20.7861  -33.3767 H   0  0  0  0  0  0  0  0  0  0  0  0
   -5.6350   21.4830  -32.6450 C   0  0  0  0  0  0  0  0  0  0  0  0
   -5.2589   22.4928  -32.4237 H   0  0  0  0  0  0  0  0  0  0  0  0
   -6.9850   21.1630  -32.3610 C   0  0  0  0  0  0  0  0  0  0  0  0
   -5.6770   23.0390  -29.5560 C   0  0  0  0  0  0  0  0  0  0  0  0
   -6.1267   22.1707  -29.0521 H   0  0  0  0  0  0  0  0  0  0  0  0
   -4.4470   23.5410  -29.1150 C   0  0  0  0  0  0  0  0  0  0  0  0
   -3.9204   23.0510  -28.2828 H   0  0  0  0  0  0  0  0  0  0  0  0
   -1.9040   21.9550  -27.1720 C   0  0  0  0  0  0  0  0  0  0  0  0
   -2.1706   22.4496  -26.2263 H   0  0  0  0  0  0  0  0  0  0  0  0
  1  2  1  0
  2  3  1  0
  3  4  2  0
  4  5  1  0
  4  6  1  0
  6  7  1  0
  6  8  2  0
  8  9  1  0
  8 10  1  0
 10 11  1  0
 11 12  2  0
 11 13  2  0
 11 14  1  0
 14 15  1  0
 15 16  2  0
 16 17  1  0
 16 18  1  0
 18 19  1  0
 18 20  2  0
 20 21  1  0
 21 22  2  0
 22 23  1  0
 23 24  1  0
 23 25  2  0
 25 26  1  0
 25 27  1  0
 27 28  1  0
 28 29  2  0
 29 30  1  0
 29 31  1  0
 31 32  1  0
 31 33  2  0
 33 34  1  0
 33 35  1  0
 35 36  1  0
 35 37  2  0
 20 38  1  0
 38 39  1  0
 38 40  2  0
 40 41  1  0
 10 42  2  0
 42 43  1  0
 42  3  1  0
 40 15  1  0
 37 22  1  0
 37 28  1  0
M  CHG  2  14  -1  27  -1
M  END
>  <UniqueID>  (39) 
37

>  <SMILES>  (39) 
O=S(=O)([N-]c1ccc(/N=c2/cc[n-]c3cc(Cl)ccc23)cc1)c1cccc(O)c1

>  <Energy>  (39) 
74.41949993212343

>  <Genealogy>  (39) 
O=S(=O)([N-]c1ccc(N=c2cc[n-]c3cc(Cl)ccc23)cc1)c1cccc(O)c1 (protonated)
O=S(=O)([N-]c1ccc(/N=c2/cc[n-]c3cc(Cl)ccc23)cc1)c1cccc(O)c1 (cis-trans isomerization)
O=S(=O)([N-]c1ccc(/N=c2/cc[n-]c3cc(Cl)ccc23)cc1)c1cccc(O)c1 (3D coordinates assigned)
O=S(=O)([N-]c1ccc(/N=c2/cc[n-]c3cc(Cl)ccc23)cc1)c1cccc(O)c1 (optimized conformer: 74.41949993212343 kcal/mol)

>  <smiles>  (39) 
O=S(=O)(Nc1ccc(N=c2cc[nH]c3cc(Cl)ccc23)cc1)c1cccc(O)c1

>  <score_type>  (39) 
oracle

>  <origin>  (39) 
adgpu

>  <m_score__min__energy>  (39) 
-11.85

>  <m_primary>  (39) 
energy

$$$$
39:0
     RDKit          3D

 51 54  0  0  0  0  0  0  0  0999 V2000
   -6.4650   17.6070  -31.2560 C   0  0  0  0  0  0  0  0  0  0  0  0
   -6.9000   18.4850  -32.2880 O   0  0  0  0  0  0  0  0  0  0  0  0
   -7.5020   19.7350  -32.0700 C   0  0  0  0  0  0  0  0  0  0  0  0
   -8.7830   19.8560  -31.4930 C   0  0  0  0  0  0  0  0  0  0  0  0
   -9.3520   21.1190  -31.2980 C   0  0  0  0  0  0  0  0  0  0  0  0
   -8.6500   22.2690  -31.6660 C   0  0  0  0  0  0  0  0  0  0  0  0
   -7.3800   22.1600  -32.2380 C   0  0  0  0  0  0  0  0  0  0  0  0
   -6.8040   20.8980  -32.4400 C   0  0  0  0  0  0  0  0  0  0  0  0
   -5.1830   20.7860  -33.2050 S   0  0  0  0  0  0  0  0  0  0  0  0
   -4.3770   21.6740  -31.8720 C   0  0  0  0  0  0  0  0  0  0  0  0
   -4.6410   23.0350  -31.6810 C   0  0  0  0  0  0  0  0  0  0  0  0
   -4.0030   23.7360  -30.6540 C   0  0  0  0  0  0  0  0  0  0  0  0
   -3.0850   23.0840  -29.8080 C   0  0  0  0  0  0  0  0  0  0  0  0
   -2.3920   23.8350  -28.7300 C   0  0  0  0  0  0  0  0  0  0  0  0
   -3.0450   24.1290  -27.5220 C   0  0  0  0  0  0  0  0  0  0  0  0
   -2.3900   24.8530  -26.5240 C   0  0  0  0  0  0  0  0  0  0  0  0
   -1.0760   25.2970  -26.7400 C   0  0  0  0  0  0  0  0  0  0  0  0
   -0.3700   26.0480  -25.7340 N   0  0  0  0  0  0  0  0  0  0  0  0
   -1.0830   26.9320  -24.8010 C   0  0  0  0  0  0  0  0  0  0  0  0
   -0.4930   26.8270  -23.3790 C   0  0  0  0  0  0  0  0  0  0  0  0
    0.9140   26.3760  -23.3560 N   0  0  0  0  0  0  0  0  0  0  0  0
    1.6640   26.8040  -24.5450 C   0  0  0  0  0  0  0  0  0  0  0  0
    1.0950   26.1280  -25.8010 C   0  0  0  0  0  0  0  0  0  0  0  0
   -0.4520   24.9830  -27.9090 N   0  0  0  0  0  0  0  0  0  0  0  0
   -1.0670   24.2740  -28.8930 C   0  0  0  0  0  0  0  0  0  0  0  0
   -2.8280   21.7140  -30.0090 C   0  0  0  0  0  0  0  0  0  0  0  0
   -3.4700   21.0160  -31.0360 C   0  0  0  0  0  0  0  0  0  0  0  0
   -6.6868   18.0547  -30.2760 H   0  0  0  0  0  0  0  0  0  0  0  0
   -6.9908   16.6451  -31.3471 H   0  0  0  0  0  0  0  0  0  0  0  0
   -5.3812   17.4425  -31.3471 H   0  0  0  0  0  0  0  0  0  0  0  0
   -9.3371   18.9536  -31.1950 H   0  0  0  0  0  0  0  0  0  0  0  0
  -10.3545   21.2066  -30.8539 H   0  0  0  0  0  0  0  0  0  0  0  0
   -9.0973   23.2610  -31.5054 H   0  0  0  0  0  0  0  0  0  0  0  0
   -6.8306   23.0669  -32.5306 H   0  0  0  0  0  0  0  0  0  0  0  0
   -5.3521   23.5540  -32.3405 H   0  0  0  0  0  0  0  0  0  0  0  0
   -4.2193   24.8042  -30.5054 H   0  0  0  0  0  0  0  0  0  0  0  0
   -4.0781   23.7870  -27.3612 H   0  0  0  0  0  0  0  0  0  0  0  0
   -2.9002   25.0740  -25.5749 H   0  0  0  0  0  0  0  0  0  0  0  0
   -0.9946   27.9710  -25.1513 H   0  0  0  0  0  0  0  0  0  0  0  0
   -2.1389   26.6256  -24.7657 H   0  0  0  0  0  0  0  0  0  0  0  0
   -0.5487   27.8181  -22.9050 H   0  0  0  0  0  0  0  0  0  0  0  0
   -1.0834   26.0722  -22.8389 H   0  0  0  0  0  0  0  0  0  0  0  0
    1.3820   26.7680  -22.5050 H   0  0  0  0  0  0  0  0  0  0  0  0
    0.9450   25.3310  -23.2850 H   0  0  0  0  0  0  0  0  0  0  0  0
    1.5839   27.8959  -24.6518 H   0  0  0  0  0  0  0  0  0  0  0  0
    2.7189   26.5151  -24.4279 H   0  0  0  0  0  0  0  0  0  0  0  0
    1.3838   26.7125  -26.6870 H   0  0  0  0  0  0  0  0  0  0  0  0
    1.5005   25.1075  -25.8656 H   0  0  0  0  0  0  0  0  0  0  0  0
   -0.5244   24.0429  -29.8215 H   0  0  0  0  0  0  0  0  0  0  0  0
   -2.1172   21.1896  -29.3534 H   0  0  0  0  0  0  0  0  0  0  0  0
   -3.2611   19.9466  -31.1867 H   0  0  0  0  0  0  0  0  0  0  0  0
  1  2  1  0
  2  3  1  0
  3  4  2  0
  4  5  1  0
  5  6  2  0
  6  7  1  0
  7  8  2  0
  8  9  1  0
  9 10  1  0
 10 11  2  0
 11 12  1  0
 12 13  2  0
 13 14  1  0
 14 15  2  0
 15 16  1  0
 16 17  2  0
 17 18  1  0
 18 19  1  0
 19 20  1  0
 20 21  1  0
 21 22  1  0
 22 23  1  0
 17 24  1  0
 24 25  2  0
 13 26  1  0
 26 27  2  0
  8  3  1  0
 27 10  1  0
 25 14  1  0
 23 18  1  0
  1 28  1  0
  1 29  1  0
  1 30  1  0
  4 31  1  0
  5 32  1  0
  6 33  1  0
  7 34  1  0
 11 35  1  0
 12 36  1  0
 15 37  1  0
 16 38  1  0
 19 39  1  0
 19 40  1  0
 20 41  1  0
 20 42  1  0
 21 43  1  0
 21 44  1  0
 22 45  1  0
 22 46  1  0
 23 47  1  0
 23 48  1  0
 25 49  1  0
 26 50  1  0
 27 51  1  0
M  CHG  1  21   1
M  END
>  <UniqueID>  (40) 
38

>  <SMILES>  (40) 
COc1ccccc1Sc1ccc(-c2ccc(N3CC[NH2+]CC3)nc2)cc1

>  <Energy>  (40) 
62.499703447581076

>  <Genealogy>  (40) 
COc1ccccc1Sc1ccc(-c2ccc(N3CC[NH2+]CC3)nc2)cc1 (protonated)
COc1ccccc1Sc1ccc(-c2ccc(N3CC[NH2+]CC3)nc2)cc1 (3D coordinates assigned)
COc1ccccc1Sc1ccc(-c2ccc(N3CC[NH2+]CC3)nc2)cc1 (nonaromatic ring conformer: 62.499703447581076 kcal/mol)

>  <smiles>  (40) 
COc1ccccc1Sc1ccc(-c2ccc(N3CCNCC3)nc2)cc1

>  <score_type>  (40) 
oracle

>  <origin>  (40) 
adgpu

>  <m_score__min__energy>  (40) 
-9.7400000000000002

>  <m_primary>  (40) 
energy

$$$$
40:0
     RDKit          3D

 38 40  0  0  0  0  0  0  0  0999 V2000
   -5.4200   19.2380  -33.4220 O   0  0  0  0  0  0  0  0  0  0  0  0
   -5.5810   20.4490  -33.1080 C   0  0  0  0  0  0  0  0  0  0  0  0
   -4.5170   21.3870  -33.3120 N   0  0  0  0  0  0  0  0  0  0  0  0
   -3.1860   21.2650  -32.7900 C   0  0  0  0  0  0  0  0  0  0  0  0
   -2.3000   20.2700  -33.2530 C   0  0  0  0  0  0  0  0  0  0  0  0
   -2.6980   19.3500  -34.2170 O   0  0  0  0  0  0  0  0  0  0  0  0
   -1.0110   20.1750  -32.7200 C   0  0  0  0  0  0  0  0  0  0  0  0
   -0.6030   21.0490  -31.7110 C   0  0  0  0  0  0  0  0  0  0  0  0
   -1.4860   22.0100  -31.2200 C   0  0  0  0  0  0  0  0  0  0  0  0
   -2.7910   22.1070  -31.7340 C   0  0  0  0  0  0  0  0  0  0  0  0
   -3.7090   23.1000  -31.2510 N   0  0  0  0  0  0  0  0  0  0  0  0
   -3.4040   24.1570  -30.3310 C   0  0  0  0  0  0  0  0  0  0  0  0
   -3.8540   25.3100  -30.5690 O   0  0  0  0  0  0  0  0  0  0  0  0
   -2.6410   23.9150  -29.0820 C   0  0  0  0  0  0  0  0  0  0  0  0
   -2.8790   22.7530  -28.3270 C   0  0  0  0  0  0  0  0  0  0  0  0
   -2.1710   22.5160  -27.1450 C   0  0  0  0  0  0  0  0  0  0  0  0
   -1.2230   23.4400  -26.7010 C   0  0  0  0  0  0  0  0  0  0  0  0
   -0.9830   24.6040  -27.4360 C   0  0  0  0  0  0  0  0  0  0  0  0
   -1.6860   24.8460  -28.6220 C   0  0  0  0  0  0  0  0  0  0  0  0
   -1.4160   26.0060  -29.3410 O   0  0  0  0  0  0  0  0  0  0  0  0
   -6.8850   20.9090  -32.5770 C   0  0  0  0  0  0  0  0  0  0  0  0
   -7.0370   22.2180  -32.0800 C   0  0  0  0  0  0  0  0  0  0  0  0
   -8.2690   22.6480  -31.5790 C   0  0  0  0  0  0  0  0  0  0  0  0
   -9.3630   21.7790  -31.5670 C   0  0  0  0  0  0  0  0  0  0  0  0
   -9.2260   20.4780  -32.0570 C   0  0  0  0  0  0  0  0  0  0  0  0
   -7.9960   20.0430  -32.5600 C   0  0  0  0  0  0  0  0  0  0  0  0
   -0.3166   19.4096  -33.0967 H   0  0  0  0  0  0  0  0  0  0  0  0
    0.4161   20.9796  -31.3028 H   0  0  0  0  0  0  0  0  0  0  0  0
   -1.1594   22.6968  -30.4252 H   0  0  0  0  0  0  0  0  0  0  0  0
   -3.6286   22.0243  -28.6692 H   0  0  0  0  0  0  0  0  0  0  0  0
   -2.3609   21.6011  -26.5645 H   0  0  0  0  0  0  0  0  0  0  0  0
   -0.6648   23.2515  -25.7721 H   0  0  0  0  0  0  0  0  0  0  0  0
   -0.2391   25.3326  -27.0814 H   0  0  0  0  0  0  0  0  0  0  0  0
   -6.1797   22.9072  -32.0862 H   0  0  0  0  0  0  0  0  0  0  0  0
   -8.3775   23.6725  -31.1934 H   0  0  0  0  0  0  0  0  0  0  0  0
  -10.3316   22.1191  -31.1719 H   0  0  0  0  0  0  0  0  0  0  0  0
  -10.0876   19.7943  -32.0471 H   0  0  0  0  0  0  0  0  0  0  0  0
   -7.8952   19.0175  -32.9451 H   0  0  0  0  0  0  0  0  0  0  0  0
  1  2  2  0
  2  3  1  0
  3  4  1  0
  4  5  2  0
  5  6  1  0
  5  7  1  0
  7  8  2  0
  8  9  1  0
  9 10  2  0
 10 11  1  0
 11 12  1  0
 12 13  2  0
 12 14  1  0
 14 15  2  0
 15 16  1  0
 16 17  2  0
 17 18  1  0
 18 19  2  0
 19 20  1  0
  2 21  1  0
 21 22  2  0
 22 23  1  0
 23 24  2  0
 24 25  1  0
 25 26  2  0
 10  4  1  0
 19 14  1  0
 26 21  1  0
  7 27  1  0
  8 28  1  0
  9 29  1  0
 15 30  1  0
 16 31  1  0
 17 32  1  0
 18 33  1  0
 22 34  1  0
 23 35  1  0
 24 36  1  0
 25 37  1  0
 26 38  1  0
M  CHG  4   3  -1   6  -1  11  -1  20  -1
M  END
>  <UniqueID>  (41) 
39

>  <SMILES>  (41) 
O=C([N-]c1c([O-])cccc1[N-]C(=O)c1ccccc1[O-])c1ccccc1

>  <Energy>  (41) 
56.05835851639154

>  <Genealogy>  (41) 
O=C([N-]c1c([O-])cccc1[N-]C(=O)c1ccccc1[O-])c1ccccc1 (protonated)
O=C([N-]c1c([O-])cccc1[N-]C(=O)c1ccccc1[O-])c1ccccc1 (3D coordinates assigned)
O=C([N-]c1c([O-])cccc1[N-]C(=O)c1ccccc1[O-])c1ccccc1 (optimized conformer: 56.05835851639154 kcal/mol)

>  <smiles>  (41) 
O=C(Nc1c(O)cccc1NC(=O)c1ccccc1O)c1ccccc1

>  <score_type>  (41) 
oracle

>  <origin>  (41) 
adgpu

>  <m_score__min__energy>  (41) 
-13.529999999999999

>  <m_primary>  (41) 
energy

$$$$
41:0
     RDKit          3D

 46 48  0  0  0  0  0  0  0  0999 V2000
   -7.0300   13.7710  -34.5850 C   0  0  0  0  0  0  0  0  0  0  0  0
   -7.2800   15.1230  -34.2140 O   0  0  0  0  0  0  0  0  0  0  0  0
   -6.2900   16.1110  -34.1130 C   0  0  0  0  0  0  0  0  0  0  0  0
   -4.9530   15.7290  -34.2730 C   0  0  0  0  0  0  0  0  0  0  0  0
   -3.9280   16.6730  -34.1760 C   0  0  0  0  0  0  0  0  0  0  0  0
   -4.2250   18.0270  -33.9380 C   0  0  0  0  0  0  0  0  0  0  0  0
   -3.1460   19.0370  -33.8200 C   0  0  0  0  0  0  0  0  0  0  0  0
   -2.1430   18.9480  -34.5800 O   0  0  0  0  0  0  0  0  0  0  0  0
   -3.2040   20.1510  -32.8420 C   0  0  0  0  0  0  0  0  0  0  0  0
   -2.6100   20.0340  -31.5740 C   0  0  0  0  0  0  0  0  0  0  0  0
   -2.6640   21.0930  -30.6640 C   0  0  0  0  0  0  0  0  0  0  0  0
   -3.3060   22.2980  -31.0050 C   0  0  0  0  0  0  0  0  0  0  0  0
   -3.3660   23.3920  -30.0640 N   0  0  0  0  0  0  0  0  0  0  0  0
   -2.2580   23.6350  -29.1380 C   0  0  0  0  0  0  0  0  0  0  0  0
   -4.7610   24.4360  -30.0080 S   0  0  0  0  0  0  0  0  0  0  0  0
   -4.9840   24.8860  -28.5890 O   0  0  0  0  0  0  0  0  0  0  0  0
   -4.5220   25.6580  -30.8510 O   0  0  0  0  0  0  0  0  0  0  0  0
   -6.1800   23.5820  -30.6110 C   0  0  0  0  0  0  0  0  0  0  0  0
   -6.6550   23.8100  -31.9120 C   0  0  0  0  0  0  0  0  0  0  0  0
   -7.7850   23.1290  -32.3760 C   0  0  0  0  0  0  0  0  0  0  0  0
   -8.4440   22.2170  -31.5470 C   0  0  0  0  0  0  0  0  0  0  0  0
   -7.9730   21.9840  -30.2510 C   0  0  0  0  0  0  0  0  0  0  0  0
   -6.8450   22.6660  -29.7830 C   0  0  0  0  0  0  0  0  0  0  0  0
   -3.8730   22.4230  -32.2840 C   0  0  0  0  0  0  0  0  0  0  0  0
   -3.8190   21.3640  -33.1930 C   0  0  0  0  0  0  0  0  0  0  0  0
   -5.5660   18.4070  -33.7610 C   0  0  0  0  0  0  0  0  0  0  0  0
   -6.5910   17.4600  -33.8510 C   0  0  0  0  0  0  0  0  0  0  0  0
   -6.9165   13.1572  -33.6792 H   0  0  0  0  0  0  0  0  0  0  0  0
   -7.8734   13.3924  -35.1812 H   0  0  0  0  0  0  0  0  0  0  0  0
   -6.1070   13.7190  -35.1812 H   0  0  0  0  0  0  0  0  0  0  0  0
   -4.7073   14.6763  -34.4769 H   0  0  0  0  0  0  0  0  0  0  0  0
   -2.8808   16.3551  -34.2866 H   0  0  0  0  0  0  0  0  0  0  0  0
   -2.0982   19.1010  -31.2954 H   0  0  0  0  0  0  0  0  0  0  0  0
   -2.2006   20.9838  -29.6724 H   0  0  0  0  0  0  0  0  0  0  0  0
   -2.6212   23.5554  -28.1027 H   0  0  0  0  0  0  0  0  0  0  0  0
   -1.4678   22.8888  -29.3078 H   0  0  0  0  0  0  0  0  0  0  0  0
   -1.8526   24.6434  -29.3078 H   0  0  0  0  0  0  0  0  0  0  0  0
   -6.1375   24.5256  -32.5678 H   0  0  0  0  0  0  0  0  0  0  0  0
   -8.1558   23.3115  -33.3954 H   0  0  0  0  0  0  0  0  0  0  0  0
   -9.3328   21.6827  -31.9138 H   0  0  0  0  0  0  0  0  0  0  0  0
   -8.4898   21.2641  -29.5994 H   0  0  0  0  0  0  0  0  0  0  0  0
   -6.4783   22.4833  -28.7621 H   0  0  0  0  0  0  0  0  0  0  0  0
   -4.3643   23.3640  -32.5725 H   0  0  0  0  0  0  0  0  0  0  0  0
   -4.2622   21.4810  -34.1930 H   0  0  0  0  0  0  0  0  0  0  0  0
   -5.8117   19.4582  -33.5499 H   0  0  0  0  0  0  0  0  0  0  0  0
   -7.6374   17.7713  -33.7163 H   0  0  0  0  0  0  0  0  0  0  0  0
  1  2  1  0
  2  3  1  0
  3  4  2  0
  4  5  1  0
  5  6  2  0
  6  7  1  0
  7  8  2  0
  7  9  1  0
  9 10  2  0
 10 11  1  0
 11 12  2  0
 12 13  1  0
 13 14  1  0
 13 15  1  0
 15 16  2  0
 15 17  2  0
 15 18  1  0
 18 19  2  0
 19 20  1  0
 20 21  2  0
 21 22  1  0
 22 23  2  0
 12 24  1  0
 24 25  2  0
  6 26  1  0
 26 27  2  0
 27  3  1  0
 25  9  1  0
 23 18  1  0
  1 28  1  0
  1 29  1  0
  1 30  1  0
  4 31  1  0
  5 32  1  0
 10 33  1  0
 11 34  1  0
 14 35  1  0
 14 36  1  0
 14 37  1  0
 19 38  1  0
 20 39  1  0
 21 40  1  0
 22 41  1  0
 23 42  1  0
 24 43  1  0
 25 44  1  0
 26 45  1  0
 27 46  1  0
M  END
>  <UniqueID>  (42) 
40

>  <SMILES>  (42) 
COc1ccc(C(=O)c2ccc(N(C)S(=O)(=O)c3ccccc3)cc2)cc1

>  <Energy>  (42) 
58.555066966874584

>  <Genealogy>  (42) 
COc1ccc(C(=O)c2ccc(N(C)S(=O)(=O)c3ccccc3)cc2)cc1 (3D coordinates assigned)
COc1ccc(C(=O)c2ccc(N(C)S(=O)(=O)c3ccccc3)cc2)cc1 (optimized conformer: 58.555066966874584 kcal/mol)

>  <smiles>  (42) 
COc1ccc(C(=O)c2ccc(N(C)S(=O)(=O)c3ccccc3)cc2)cc1

>  <score_type>  (42) 
oracle

>  <origin>  (42) 
adgpu

>  <m_score__min__energy>  (42) 
-9.1999999999999993

>  <m_primary>  (42) 
energy

$$$$
42:0
     RDKit          3D

 67 70  0  0  0  0  0  0  0  0999 V2000
   -9.5020   19.7430  -32.2880 C   0  0  0  0  0  0  0  0  0  0  0  0
   -8.2510   20.5440  -32.0460 C   0  0  0  0  0  0  0  0  0  0  0  0
   -8.3620   21.9440  -31.9910 C   0  0  0  0  0  0  0  0  0  0  0  0
   -7.2390   22.7450  -31.7940 C   0  0  0  0  0  0  0  0  0  0  0  0
   -5.9760   22.1650  -31.6340 C   0  0  0  0  0  0  0  0  0  0  0  0
   -4.8010   22.9790  -31.4930 N   0  0  0  0  0  0  0  0  0  0  0  0
   -4.7550   24.2110  -30.7510 C   0  0  0  0  0  0  0  0  0  0  0  0
   -5.8170   24.7690  -30.3680 O   0  0  0  0  0  0  0  0  0  0  0  0
   -3.5010   24.8390  -30.4630 N   0  0  0  0  0  0  0  0  0  0  0  0
   -2.7610   24.6530  -29.2490 C   0  0  0  0  0  0  0  0  0  0  0  0
   -3.4000   24.2560  -28.0620 C   0  0  0  0  0  0  0  0  0  0  0  0
   -2.6570   24.0520  -26.8980 C   0  0  0  0  0  0  0  0  0  0  0  0
   -1.2670   24.2400  -26.9050 C   0  0  0  0  0  0  0  0  0  0  0  0
   -0.3170   23.8860  -25.4600 S   0  0  0  0  0  0  0  0  0  0  0  0
   -0.8060   22.6040  -24.8440 O   0  0  0  0  0  0  0  0  0  0  0  0
    1.1240   23.6960  -25.8480 O   0  0  0  0  0  0  0  0  0  0  0  0
   -0.4410   25.1740  -24.2820 N   0  0  0  0  0  0  0  0  0  0  0  0
   -1.5260   26.1200  -24.6220 C   0  0  0  0  0  0  0  0  0  0  0  0
   -0.9820   27.4420  -25.1960 C   0  0  0  0  0  0  0  0  0  0  0  0
   -0.0960   28.1150  -24.3130 O   0  0  0  0  0  0  0  0  0  0  0  0
    0.6850   27.2430  -23.5050 C   0  0  0  0  0  0  0  0  0  0  0  0
    0.8650   25.8350  -24.0970 C   0  0  0  0  0  0  0  0  0  0  0  0
   -0.6370   24.6860  -28.0760 C   0  0  0  0  0  0  0  0  0  0  0  0
   -1.3840   24.9020  -29.2390 C   0  0  0  0  0  0  0  0  0  0  0  0
   -5.8470   20.7680  -31.6870 C   0  0  0  0  0  0  0  0  0  0  0  0
   -4.5810   20.2030  -31.5530 O   0  0  0  0  0  0  0  0  0  0  0  0
   -6.9750   19.9410  -31.8690 C   0  0  0  0  0  0  0  0  0  0  0  0
   -6.7170   18.1790  -31.9220 S   0  0  0  0  0  0  0  0  0  0  0  0
   -6.3670   17.7000  -30.5410 O   0  0  0  0  0  0  0  0  0  0  0  0
   -7.9440   17.4340  -32.3670 O   0  0  0  0  0  0  0  0  0  0  0  0
   -5.3560   17.8160  -33.0330 C   0  0  0  0  0  0  0  0  0  0  0  0
   -5.8190   17.8520  -34.4930 C   0  0  0  0  0  0  0  0  0  0  0  0
   -4.6300   17.6200  -35.4470 C   0  0  0  0  0  0  0  0  0  0  0  0
   -3.6530   16.6080  -34.9680 N   0  0  0  0  0  0  0  0  0  0  0  0
   -2.3700   17.2080  -34.5660 C   0  0  0  0  0  0  0  0  0  0  0  0
   -4.1910   15.7030  -33.9310 C   0  0  0  0  0  0  0  0  0  0  0  0
   -4.7050   16.4580  -32.6880 C   0  0  0  0  0  0  0  0  0  0  0  0
   -9.9472   19.4579  -31.3234 H   0  0  0  0  0  0  0  0  0  0  0  0
  -10.2209   20.3492  -32.8588 H   0  0  0  0  0  0  0  0  0  0  0  0
   -9.2523   18.8364  -32.8588 H   0  0  0  0  0  0  0  0  0  0  0  0
   -9.3498   22.4142  -32.1051 H   0  0  0  0  0  0  0  0  0  0  0  0
   -7.3461   23.8394  -31.7641 H   0  0  0  0  0  0  0  0  0  0  0  0
   -3.9040   22.5940  -31.8640 H   0  0  0  0  0  0  0  0  0  0  0  0
   -4.4896   24.1055  -28.0501 H   0  0  0  0  0  0  0  0  0  0  0  0
   -3.1634   23.7427  -25.9718 H   0  0  0  0  0  0  0  0  0  0  0  0
   -2.1833   25.6523  -25.3698 H   0  0  0  0  0  0  0  0  0  0  0  0
   -2.0756   26.3522  -23.6978 H   0  0  0  0  0  0  0  0  0  0  0  0
   -0.4440   27.2221  -26.1299 H   0  0  0  0  0  0  0  0  0  0  0  0
   -1.8441   28.1051  -25.3608 H   0  0  0  0  0  0  0  0  0  0  0  0
    1.6802   27.6925  -23.3730 H   0  0  0  0  0  0  0  0  0  0  0  0
    0.1454   27.1218  -22.5541 H   0  0  0  0  0  0  0  0  0  0  0  0
    1.3699   25.9151  -25.0710 H   0  0  0  0  0  0  0  0  0  0  0  0
    1.4690   25.2343  -23.4011 H   0  0  0  0  0  0  0  0  0  0  0  0
    0.4481   24.8666  -28.0800 H   0  0  0  0  0  0  0  0  0  0  0  0
   -0.8870   25.2690  -30.1491 H   0  0  0  0  0  0  0  0  0  0  0  0
   -4.5920   18.5963  -32.9011 H   0  0  0  0  0  0  0  0  0  0  0  0
   -6.5698   17.0642  -34.6534 H   0  0  0  0  0  0  0  0  0  0  0  0
   -6.2531   18.8408  -34.7024 H   0  0  0  0  0  0  0  0  0  0  0  0
   -5.0262   17.2849  -36.4169 H   0  0  0  0  0  0  0  0  0  0  0  0
   -4.0883   18.5749  -35.5148 H   0  0  0  0  0  0  0  0  0  0  0  0
   -2.3070   17.2375  -33.4682 H   0  0  0  0  0  0  0  0  0  0  0  0
   -1.5418   16.6038  -34.9647 H   0  0  0  0  0  0  0  0  0  0  0  0
   -2.3027   18.2310  -34.9647 H   0  0  0  0  0  0  0  0  0  0  0  0
   -5.0239   15.1290  -34.3631 H   0  0  0  0  0  0  0  0  0  0  0  0
   -3.3701   15.0475  -33.6048 H   0  0  0  0  0  0  0  0  0  0  0  0
   -5.4520   15.8300  -32.1805 H   0  0  0  0  0  0  0  0  0  0  0  0
   -3.8363   16.6634  -32.0452 H   0  0  0  0  0  0  0  0  0  0  0  0
  1  2  1  0
  2  3  2  0
  3  4  1  0
  4  5  2  0
  5  6  1  0
  6  7  1  0
  7  8  2  0
  7  9  1  0
  9 10  1  0
 10 11  2  0
 11 12  1  0
 12 13  2  0
 13 14  1  0
 14 15  2  0
 14 16  2  0
 14 17  1  0
 17 18  1  0
 18 19  1  0
 19 20  1  0
 20 21  1  0
 21 22  1  0
 13 23  1  0
 23 24  2  0
  5 25  1  0
 25 26  1  0
 25 27  2  0
 27 28  1  0
 28 29  2  0
 28 30  2  0
 28 31  1  0
 31 32  1  0
 32 33  1  0
 33 34  1  0
 34 35  1  0
 34 36  1  0
 36 37  1  0
 27  2  1  0
 37 31  1  0
 24 10  1  0
 22 17  1  0
  1 38  1  0
  1 39  1  0
  1 40  1  0
  3 41  1  0
  4 42  1  0
  6 43  1  0
 11 44  1  0
 12 45  1  0
 18 46  1  0
 18 47  1  0
 19 48  1  0
 19 49  1  0
 21 50  1  0
 21 51  1  0
 22 52  1  0
 22 53  1  0
 23 54  1  0
 24 55  1  0
 31 56  1  0
 32 57  1  0
 32 58  1  0
 33 59  1  0
 33 60  1  0
 35 61  1  0
 35 62  1  0
 35 63  1  0
 36 64  1  0
 36 65  1  0
 37 66  1  0
 37 67  1  0
M  CHG  2   9  -1  26  -1
M  END
>  <UniqueID>  (43) 
41

>  <SMILES>  (43) 
Cc1ccc(NC(=O)[N-]c2ccc(S(=O)(=O)N3CCOCC3)cc2)c([O-])c1S(=O)(=O)C1CCN(C)CC1

>  <Energy>  (43) 
98.39876807103279

>  <Genealogy>  (43) 
Cc1ccc(NC(=O)[N-]c2ccc(S(=O)(=O)N3CCOCC3)cc2)c([O-])c1S(=O)(=O)C1CCN(C)CC1 (protonated)
Cc1ccc(NC(=O)[N-]c2ccc(S(=O)(=O)N3CCOCC3)cc2)c([O-])c1S(=O)(=O)C1CCN(C)CC1 (3D coordinates assigned)
Cc1ccc(NC(=O)[N-]c2ccc(S(=O)(=O)N3CCOCC3)cc2)c([O-])c1S(=O)(=O)C1CCN(C)CC1 (nonaromatic ring conformer: 98.39876807103279 kcal/mol)

>  <smiles>  (43) 
Cc1ccc(NC(=O)Nc2ccc(S(=O)(=O)N3CCOCC3)cc2)c(O)c1S(=O)(=O)C1CCN(C)CC1

>  <score_type>  (43) 
oracle

>  <origin>  (43) 
adgpu

>  <m_score__min__energy>  (43) 
-13.26

>  <m_primary>  (43) 
energy

$$$$
43:0
     RDKit          3D

 48 50  0  0  0  0  0  0  0  0999 V2000
   -5.1900   23.5220  -29.2740 C   0  0  0  0  0  0  0  0  0  0  0  0
   -5.2360   24.8570  -30.4540 S   0  0  0  0  0  0  0  0  0  0  0  0
   -3.8430   25.3040  -30.8050 O   0  0  0  0  0  0  0  0  0  0  0  0
   -5.9730   26.0140  -29.8430 O   0  0  0  0  0  0  0  0  0  0  0  0
   -6.0750   24.3600  -31.8870 N   0  0  0  0  0  0  0  0  0  0  0  0
   -6.9870   23.2580  -31.9880 C   0  0  0  0  0  0  0  0  0  0  0  0
   -8.3790   23.4240  -31.8870 C   0  0  0  0  0  0  0  0  0  0  0  0
   -9.2260   22.3200  -31.9900 C   0  0  0  0  0  0  0  0  0  0  0  0
   -8.6970   21.0430  -32.1930 C   0  0  0  0  0  0  0  0  0  0  0  0
   -7.3080   20.8550  -32.3010 C   0  0  0  0  0  0  0  0  0  0  0  0
   -6.7620   19.4890  -32.4900 C   0  0  0  0  0  0  0  0  0  0  0  0
   -6.3560   18.8510  -31.4810 O   0  0  0  0  0  0  0  0  0  0  0  0
   -6.6740   18.8950  -33.7980 N   0  0  0  0  0  0  0  0  0  0  0  0
   -6.0550   17.6230  -34.0520 C   0  0  0  0  0  0  0  0  0  0  0  0
   -6.8180   16.4530  -33.9390 C   0  0  0  0  0  0  0  0  0  0  0  0
   -6.2370   15.2040  -34.1700 C   0  0  0  0  0  0  0  0  0  0  0  0
   -4.8780   15.1070  -34.4950 C   0  0  0  0  0  0  0  0  0  0  0  0
   -4.1470   13.5290  -34.7730 S   0  0  0  0  0  0  0  0  0  0  0  0
   -2.7650   13.7140  -35.3320 O   0  0  0  0  0  0  0  0  0  0  0  0
   -4.9680   12.7680  -35.7770 O   0  0  0  0  0  0  0  0  0  0  0  0
   -4.0440   12.6500  -33.2680 N   0  0  0  0  0  0  0  0  0  0  0  0
   -3.6440   13.5220  -32.1650 C   0  0  0  0  0  0  0  0  0  0  0  0
   -4.2210   12.9100  -30.8980 C   0  0  0  0  0  0  0  0  0  0  0  0
   -5.3410   11.9940  -31.3660 C   0  0  0  0  0  0  0  0  0  0  0  0
   -5.3440   12.1030  -32.8840 C   0  0  0  0  0  0  0  0  0  0  0  0
   -4.1010   16.2720  -34.5750 C   0  0  0  0  0  0  0  0  0  0  0  0
   -4.6860   17.5230  -34.3540 C   0  0  0  0  0  0  0  0  0  0  0  0
   -6.4610   21.9750  -32.1890 C   0  0  0  0  0  0  0  0  0  0  0  0
   -5.2042   23.9336  -28.2540 H   0  0  0  0  0  0  0  0  0  0  0  0
   -6.0663   22.8733  -29.4199 H   0  0  0  0  0  0  0  0  0  0  0  0
   -4.2711   22.9352  -29.4199 H   0  0  0  0  0  0  0  0  0  0  0  0
   -8.8017   24.4267  -31.7264 H   0  0  0  0  0  0  0  0  0  0  0  0
  -10.3147   22.4557  -31.9110 H   0  0  0  0  0  0  0  0  0  0  0  0
   -9.3724   20.1781  -32.2689 H   0  0  0  0  0  0  0  0  0  0  0  0
   -7.0040   19.4310  -34.6280 H   0  0  0  0  0  0  0  0  0  0  0  0
   -7.8817   16.5187  -33.6665 H   0  0  0  0  0  0  0  0  0  0  0  0
   -6.8491   14.2930  -34.0964 H   0  0  0  0  0  0  0  0  0  0  0  0
   -2.5471   13.5706  -32.0979 H   0  0  0  0  0  0  0  0  0  0  0  0
   -4.0135   14.5472  -32.3149 H   0  0  0  0  0  0  0  0  0  0  0  0
   -3.4510   12.3344  -30.3634 H   0  0  0  0  0  0  0  0  0  0  0  0
   -4.5857   13.6793  -30.2014 H   0  0  0  0  0  0  0  0  0  0  0  0
   -5.1456   10.9572  -31.0549 H   0  0  0  0  0  0  0  0  0  0  0  0
   -6.3111   12.2797  -30.9333 H   0  0  0  0  0  0  0  0  0  0  0  0
   -5.4857   11.1099  -33.3352 H   0  0  0  0  0  0  0  0  0  0  0  0
   -6.1637   12.7483  -33.2329 H   0  0  0  0  0  0  0  0  0  0  0  0
   -3.0292   16.2016  -34.8121 H   0  0  0  0  0  0  0  0  0  0  0  0
   -4.0716   18.4332  -34.4169 H   0  0  0  0  0  0  0  0  0  0  0  0
   -5.3716   21.8405  -32.2603 H   0  0  0  0  0  0  0  0  0  0  0  0
  1  2  1  0
  2  3  2  0
  2  4  2  0
  2  5  1  0
  5  6  1  0
  6  7  2  0
  7  8  1  0
  8  9  2  0
  9 10  1  0
 10 11  1  0
 11 12  2  0
 11 13  1  0
 13 14  1  0
 14 15  2  0
 15 16  1  0
 16 17  2  0
 17 18  1  0
 18 19  2  0
 18 20  2  0
 18 21  1  0
 21 22  1  0
 22 23  1  0
 23 24  1  0
 24 25  1  0
 17 26  1  0
 26 27  2  0
 10 28  2  0
 28  6  1  0
 27 14  1  0
 25 21  1  0
  1 29  1  0
  1 30  1  0
  1 31  1  0
  7 32  1  0
  8 33  1  0
  9 34  1  0
 13 35  1  0
 15 36  1  0
 16 37  1  0
 22 38  1  0
 22 39  1  0
 23 40  1  0
 23 41  1  0
 24 42  1  0
 24 43  1  0
 25 44  1  0
 25 45  1  0
 26 46  1  0
 27 47  1  0
 28 48  1  0
M  CHG  1   5  -1
M  END
>  <UniqueID>  (44) 
42

>  <SMILES>  (44) 
CS(=O)(=O)[N-]c1cccc(C(=O)Nc2ccc(S(=O)(=O)N3CCCC3)cc2)c1

>  <Energy>  (44) 
55.950266253230005

>  <Genealogy>  (44) 
CS(=O)(=O)[N-]c1cccc(C(=O)Nc2ccc(S(=O)(=O)N3CCCC3)cc2)c1 (protonated)
CS(=O)(=O)[N-]c1cccc(C(=O)Nc2ccc(S(=O)(=O)N3CCCC3)cc2)c1 (3D coordinates assigned)
CS(=O)(=O)[N-]c1cccc(C(=O)Nc2ccc(S(=O)(=O)N3CCCC3)cc2)c1 (nonaromatic ring conformer: 55.950266253230005 kcal/mol)

>  <smiles>  (44) 
CS(=O)(=O)Nc1cccc(C(=O)Nc2ccc(S(=O)(=O)N3CCCC3)cc2)c1

>  <score_type>  (44) 
oracle

>  <origin>  (44) 
adgpu

>  <m_score__min__energy>  (44) 
-10.359999999999999

>  <m_primary>  (44) 
energy

$$$$
44:0
     RDKit          3D

 40 42  0  0  0  0  0  0  0  0999 V2000
   -1.9460   24.9310  -28.8860 C   0  0  0  0  0  0  0  0  0  0  0  0
   -3.2110   24.3360  -29.4040 C   0  0  0  0  0  0  0  0  0  0  0  0
   -3.7580   23.2540  -28.7940 N   0  0  0  0  0  0  0  0  0  0  0  0
   -4.8900   22.6840  -29.2780 C   0  0  0  0  0  0  0  0  0  0  0  0
   -5.4940   23.2140  -30.4280 C   0  0  0  0  0  0  0  0  0  0  0  0
   -6.7300   22.6360  -31.0150 C   0  0  0  0  0  0  0  0  0  0  0  0
   -7.8150   23.4530  -31.3900 C   0  0  0  0  0  0  0  0  0  0  0  0
   -8.9640   22.8890  -31.9510 C   0  0  0  0  0  0  0  0  0  0  0  0
   -9.0440   21.5100  -32.1510 C   0  0  0  0  0  0  0  0  0  0  0  0
   -7.9700   20.6840  -31.8010 C   0  0  0  0  0  0  0  0  0  0  0  0
   -8.0570   18.9430  -32.0860 S   0  0  0  0  0  0  0  0  0  0  0  0
   -7.5590   18.2160  -30.8680 O   0  0  0  0  0  0  0  0  0  0  0  0
   -9.4910   18.5490  -32.3080 O   0  0  0  0  0  0  0  0  0  0  0  0
   -7.1080   18.4730  -33.4770 N   0  0  0  0  0  0  0  0  0  0  0  0
   -6.4530   17.1680  -33.2370 C   0  0  0  0  0  0  0  0  0  0  0  0
   -5.3080   16.9270  -34.2260 C   0  0  0  0  0  0  0  0  0  0  0  0
   -4.2060   17.9880  -34.0660 C   0  0  0  0  0  0  0  0  0  0  0  0
   -4.7340   19.3120  -33.4870 C   0  0  0  0  0  0  0  0  0  0  0  0
   -6.1920   19.5590  -33.9050 C   0  0  0  0  0  0  0  0  0  0  0  0
   -6.8190   21.2490  -31.2310 C   0  0  0  0  0  0  0  0  0  0  0  0
   -4.8990   24.2830  -31.0250 N   0  0  0  0  0  0  0  0  0  0  0  0
   -3.7870   24.8280  -30.5300 N   0  0  0  0  0  0  0  0  0  0  0  0
   -1.9610   24.9240  -27.7861 H   0  0  0  0  0  0  0  0  0  0  0  0
   -1.0896   24.3413  -29.2448 H   0  0  0  0  0  0  0  0  0  0  0  0
   -1.8541   25.9668  -29.2448 H   0  0  0  0  0  0  0  0  0  0  0  0
   -5.3311   21.8124  -28.7723 H   0  0  0  0  0  0  0  0  0  0  0  0
   -7.7573   24.5412  -31.2403 H   0  0  0  0  0  0  0  0  0  0  0  0
   -9.8082   23.5341  -32.2359 H   0  0  0  0  0  0  0  0  0  0  0  0
   -9.9543   21.0710  -32.5852 H   0  0  0  0  0  0  0  0  0  0  0  0
   -6.0509   17.1523  -32.2132 H   0  0  0  0  0  0  0  0  0  0  0  0
   -7.2020   16.3742  -33.3744 H   0  0  0  0  0  0  0  0  0  0  0  0
   -4.8778   15.9315  -34.0419 H   0  0  0  0  0  0  0  0  0  0  0  0
   -5.7096   16.9915  -35.2481 H   0  0  0  0  0  0  0  0  0  0  0  0
   -3.4326   17.5927  -33.3911 H   0  0  0  0  0  0  0  0  0  0  0  0
   -3.8031   18.2012  -35.0671 H   0  0  0  0  0  0  0  0  0  0  0  0
   -4.6774   19.2714  -32.3892 H   0  0  0  0  0  0  0  0  0  0  0  0
   -4.1158   20.1339  -33.8771 H   0  0  0  0  0  0  0  0  0  0  0  0
   -6.5314   20.5027  -33.4532 H   0  0  0  0  0  0  0  0  0  0  0  0
   -6.2179   19.5983  -35.0040 H   0  0  0  0  0  0  0  0  0  0  0  0
   -5.9767   20.5998  -30.9499 H   0  0  0  0  0  0  0  0  0  0  0  0
  1  2  1  0
  2  3  2  0
  3  4  1  0
  4  5  2  0
  5  6  1  0
  6  7  2  0
  7  8  1  0
  8  9  2  0
  9 10  1  0
 10 11  1  0
 11 12  2  0
 11 13  2  0
 11 14  1  0
 14 15  1  0
 15 16  1  0
 16 17  1  0
 17 18  1  0
 18 19  1  0
 10 20  2  0
  5 21  1  0
 21 22  2  0
 22  2  1  0
 20  6  1  0
 19 14  1  0
  1 23  1  0
  1 24  1  0
  1 25  1  0
  4 26  1  0
  7 27  1  0
  8 28  1  0
  9 29  1  0
 15 30  1  0
 15 31  1  0
 16 32  1  0
 16 33  1  0
 17 34  1  0
 17 35  1  0
 18 36  1  0
 18 37  1  0
 19 38  1  0
 19 39  1  0
 20 40  1  0
M  END
>  <UniqueID>  (45) 
43

>  <SMILES>  (45) 
Cc1ncc(-c2cccc(S(=O)(=O)N3CCCCC3)c2)nn1

>  <Energy>  (45) 
49.901647651564545

>  <Genealogy>  (45) 
Cc1ncc(-c2cccc(S(=O)(=O)N3CCCCC3)c2)nn1 (3D coordinates assigned)
Cc1ncc(-c2cccc(S(=O)(=O)N3CCCCC3)c2)nn1 (nonaromatic ring conformer: 49.901647651564545 kcal/mol)

>  <smiles>  (45) 
Cc1ncc(-c2cccc(S(=O)(=O)N3CCCCC3)c2)nn1

>  <score_type>  (45) 
oracle

>  <origin>  (45) 
adgpu

>  <m_score__min__energy>  (45) 
-9.1999999999999993

>  <m_primary>  (45) 
energy

$$$$
45:0
     RDKit          3D

 55 58  0  0  0  0  0  0  0  0999 V2000
   -6.9100   25.6450  -29.4900 O   0  0  0  0  0  0  0  0  0  0  0  0
   -5.5630   25.0680  -29.8270 S   0  0  0  0  0  0  0  0  0  0  0  0
   -4.7310   26.1360  -30.4830 O   0  0  0  0  0  0  0  0  0  0  0  0
   -4.7810   24.5580  -28.3630 N   0  0  0  0  0  0  0  0  0  0  0  0
   -3.6930   23.6300  -28.3480 C   0  0  0  0  0  0  0  0  0  0  0  0
   -3.8660   22.3270  -27.8610 C   0  0  0  0  0  0  0  0  0  0  0  0
   -2.7820   21.4420  -27.7800 C   0  0  0  0  0  0  0  0  0  0  0  0
   -1.5010   21.8720  -28.2040 C   0  0  0  0  0  0  0  0  0  0  0  0
   -1.3510   23.1520  -28.7600 C   0  0  0  0  0  0  0  0  0  0  0  0
   -2.4400   24.0310  -28.8300 C   0  0  0  0  0  0  0  0  0  0  0  0
   -2.2780   25.3120  -29.3600 O   0  0  0  0  0  0  0  0  0  0  0  0
   -0.3040   20.9480  -28.1670 C   0  0  0  0  0  0  0  0  0  0  0  0
   -0.4920   19.7900  -27.1820 C   0  0  0  0  0  0  0  0  0  0  0  0
   -1.8460   19.1130  -27.4120 C   0  0  0  0  0  0  0  0  0  0  0  0
   -2.9900   20.0930  -27.1280 C   0  0  0  0  0  0  0  0  0  0  0  0
   -5.7710   23.7200  -30.9460 C   0  0  0  0  0  0  0  0  0  0  0  0
   -6.9920   23.5480  -31.6150 C   0  0  0  0  0  0  0  0  0  0  0  0
   -7.1900   22.4390  -32.4410 C   0  0  0  0  0  0  0  0  0  0  0  0
   -6.1730   21.4940  -32.6020 C   0  0  0  0  0  0  0  0  0  0  0  0
   -4.9480   21.6580  -31.9380 C   0  0  0  0  0  0  0  0  0  0  0  0
   -3.6590   20.4700  -32.1100 S   0  0  0  0  0  0  0  0  0  0  0  0
   -3.1750   20.0870  -30.7370 O   0  0  0  0  0  0  0  0  0  0  0  0
   -4.1830   19.2430  -32.8070 O   0  0  0  0  0  0  0  0  0  0  0  0
   -2.3570   21.1810  -33.0400 N   0  0  0  0  0  0  0  0  0  0  0  0
   -1.9850   20.3390  -34.2070 C   0  0  0  0  0  0  0  0  0  0  0  0
   -0.5340   19.8250  -34.1730 C   0  0  0  0  0  0  0  0  0  0  0  0
   -0.1850   19.3120  -32.7770 C   0  0  0  0  0  0  0  0  0  0  0  0
   -0.3820   20.3930  -31.6980 C   0  0  0  0  0  0  0  0  0  0  0  0
   -1.2250   21.5880  -32.1840 C   0  0  0  0  0  0  0  0  0  0  0  0
   -4.7490   22.7750  -31.1140 C   0  0  0  0  0  0  0  0  0  0  0  0
   -4.8640   21.9951  -27.5387 H   0  0  0  0  0  0  0  0  0  0  0  0
   -0.3699   23.4679  -29.1442 H   0  0  0  0  0  0  0  0  0  0  0  0
   -3.0230   25.9970  -29.3340 H   0  0  0  0  0  0  0  0  0  0  0  0
   -0.1460   20.5337  -29.1737 H   0  0  0  0  0  0  0  0  0  0  0  0
    0.5638   21.5356  -27.8329 H   0  0  0  0  0  0  0  0  0  0  0  0
    0.3118   19.0537  -27.3295 H   0  0  0  0  0  0  0  0  0  0  0  0
   -0.4579   20.1836  -26.1554 H   0  0  0  0  0  0  0  0  0  0  0  0
   -1.9093   18.7754  -28.4570 H   0  0  0  0  0  0  0  0  0  0  0  0
   -1.9352   18.2541  -26.7306 H   0  0  0  0  0  0  0  0  0  0  0  0
   -3.9267   19.6595  -27.5084 H   0  0  0  0  0  0  0  0  0  0  0  0
   -3.0265   20.2531  -26.0403 H   0  0  0  0  0  0  0  0  0  0  0  0
   -7.7957   24.2884  -31.4888 H   0  0  0  0  0  0  0  0  0  0  0  0
   -8.1481   22.3093  -32.9657 H   0  0  0  0  0  0  0  0  0  0  0  0
   -6.3333   20.6201  -33.2505 H   0  0  0  0  0  0  0  0  0  0  0  0
   -2.6589   19.4701  -34.2351 H   0  0  0  0  0  0  0  0  0  0  0  0
   -2.0757   20.9754  -35.0996 H   0  0  0  0  0  0  0  0  0  0  0  0
   -0.4222   19.0061  -34.8988 H   0  0  0  0  0  0  0  0  0  0  0  0
    0.1443   20.6520  -34.4299 H   0  0  0  0  0  0  0  0  0  0  0  0
   -0.8320   18.4540  -32.5421 H   0  0  0  0  0  0  0  0  0  0  0  0
    0.8762   19.0224  -32.7774 H   0  0  0  0  0  0  0  0  0  0  0  0
   -0.8874   19.9368  -30.8340 H   0  0  0  0  0  0  0  0  0  0  0  0
    0.6140   20.7799  -31.4366 H   0  0  0  0  0  0  0  0  0  0  0  0
   -1.6218   22.1182  -31.3057 H   0  0  0  0  0  0  0  0  0  0  0  0
   -0.5686   22.2317  -32.7880 H   0  0  0  0  0  0  0  0  0  0  0  0
   -3.7873   22.9104  -30.5974 H   0  0  0  0  0  0  0  0  0  0  0  0
  1  2  2  0
  2  3  2  0
  2  4  1  0
  4  5  1  0
  5  6  2  0
  6  7  1  0
  7  8  2  0
  8  9  1  0
  9 10  2  0
 10 11  1  0
  8 12  1  0
 12 13  1  0
 13 14  1  0
 14 15  1  0
  2 16  1  0
 16 17  2  0
 17 18  1  0
 18 19  2  0
 19 20  1  0
 20 21  1  0
 21 22  2  0
 21 23  2  0
 21 24  1  0
 24 25  1  0
 25 26  1  0
 26 27  1  0
 27 28  1  0
 28 29  1  0
 20 30  2  0
 10  5  1  0
 30 16  1  0
 15  7  1  0
 29 24  1  0
  6 31  1  0
  9 32  1  0
 11 33  1  0
 12 34  1  0
 12 35  1  0
 13 36  1  0
 13 37  1  0
 14 38  1  0
 14 39  1  0
 15 40  1  0
 15 41  1  0
 17 42  1  0
 18 43  1  0
 19 44  1  0
 25 45  1  0
 25 46  1  0
 26 47  1  0
 26 48  1  0
 27 49  1  0
 27 50  1  0
 28 51  1  0
 28 52  1  0
 29 53  1  0
 29 54  1  0
 30 55  1  0
M  CHG  1   4  -1
M  END
>  <UniqueID>  (46) 
44

>  <SMILES>  (46) 
O=S(=O)([N-]c1cc2c(cc1O)CCCC2)c1cccc(S(=O)(=O)N2CCCCC2)c1

>  <Energy>  (46) 
70.41367996134232

>  <Genealogy>  (46) 
O=S(=O)([N-]c1cc2c(cc1O)CCCC2)c1cccc(S(=O)(=O)N2CCCCC2)c1 (protonated)
O=S(=O)([N-]c1cc2c(cc1O)CCCC2)c1cccc(S(=O)(=O)N2CCCCC2)c1 (3D coordinates assigned)
O=S(=O)([N-]c1cc2c(cc1O)CCCC2)c1cccc(S(=O)(=O)N2CCCCC2)c1 (nonaromatic ring conformer: 70.41367996134232 kcal/mol)

>  <smiles>  (46) 
O=S(=O)(Nc1cc2c(cc1O)CCCC2)c1cccc(S(=O)(=O)N2CCCCC2)c1

>  <score_type>  (46) 
oracle

>  <origin>  (46) 
adgpu

>  <m_score__min__energy>  (46) 
-13.039999999999999

>  <m_primary>  (46) 
energy

$$$$
46:0
     RDKit          3D

 39 41  0  0  0  0  0  0  0  0999 V2000
   -0.8860   26.1300  -27.8360 C   0  0  0  0  0  0  0  0  0  0  0  0
   -1.6820   24.9280  -28.2300 C   0  0  0  0  0  0  0  0  0  0  0  0
   -1.6270   23.7580  -27.4640 C   0  0  0  0  0  0  0  0  0  0  0  0
   -2.3740   22.6530  -27.8790 C   0  0  0  0  0  0  0  0  0  0  0  0
   -2.3330   21.3750  -27.1040 C   0  0  0  0  0  0  0  0  0  0  0  0
   -3.1190   22.7320  -29.0130 N   0  0  0  0  0  0  0  0  0  0  0  0
   -3.1690   23.8780  -29.7480 C   0  0  0  0  0  0  0  0  0  0  0  0
   -3.8650   23.9450  -30.8450 N   0  0  0  0  0  0  0  0  0  0  0  0
   -4.7160   22.9210  -31.3840 C   0  0  0  0  0  0  0  0  0  0  0  0
   -6.1160   23.0500  -31.3410 C   0  0  0  0  0  0  0  0  0  0  0  0
   -6.9310   22.0990  -31.9600 C   0  0  0  0  0  0  0  0  0  0  0  0
   -8.3640   22.2270  -31.9160 C   0  0  0  0  0  0  0  0  0  0  0  0
   -9.5160   22.3310  -31.8810 N   0  0  0  0  0  0  0  0  0  0  0  0
   -6.3380   21.0370  -32.6420 C   0  0  0  0  0  0  0  0  0  0  0  0
   -4.9850   20.9360  -32.6970 N   0  0  0  0  0  0  0  0  0  0  0  0
   -4.1580   21.8350  -32.0920 C   0  0  0  0  0  0  0  0  0  0  0  0
   -2.7340   21.6460  -32.1880 N   0  0  0  0  0  0  0  0  0  0  0  0
   -1.9030   21.2060  -31.0760 C   0  0  0  0  0  0  0  0  0  0  0  0
   -0.5270   20.9320  -31.6660 C   0  0  0  0  0  0  0  0  0  0  0  0
   -0.7340   20.8180  -33.1730 C   0  0  2  0  0  0  0  0  0  0  0  0
    0.3090   21.4130  -33.8630 F   0  0  0  0  0  0  0  0  0  0  0  0
   -2.0540   21.5170  -33.4700 C   0  0  0  0  0  0  0  0  0  0  0  0
   -2.4440   24.9580  -29.3560 N   0  0  0  0  0  0  0  0  0  0  0  0
   -0.8417   26.1969  -26.7389 H   0  0  0  0  0  0  0  0  0  0  0  0
    0.1336   26.0430  -28.2395 H   0  0  0  0  0  0  0  0  0  0  0  0
   -1.3641   27.0348  -28.2395 H   0  0  0  0  0  0  0  0  0  0  0  0
   -1.0092   23.7096  -26.5552 H   0  0  0  0  0  0  0  0  0  0  0  0
   -2.3402   21.5989  -26.0270 H   0  0  0  0  0  0  0  0  0  0  0  0
   -3.2120   20.7642  -27.3574 H   0  0  0  0  0  0  0  0  0  0  0  0
   -1.4166   20.8218  -27.3574 H   0  0  0  0  0  0  0  0  0  0  0  0
   -6.5713   23.9037  -30.8175 H   0  0  0  0  0  0  0  0  0  0  0  0
   -6.9664   20.2810  -33.1355 H   0  0  0  0  0  0  0  0  0  0  0  0
   -1.8410   21.9930  -30.3100 H   0  0  0  0  0  0  0  0  0  0  0  0
   -2.3194   20.3113  -30.5901 H   0  0  0  0  0  0  0  0  0  0  0  0
    0.1599   21.7597  -31.4356 H   0  0  0  0  0  0  0  0  0  0  0  0
   -0.0835   20.0160  -31.2486 H   0  0  0  0  0  0  0  0  0  0  0  0
   -0.7581   19.7664  -33.4947 H   0  0  0  0  0  0  0  0  0  0  0  0
   -1.8715   22.5094  -33.9080 H   0  0  0  0  0  0  0  0  0  0  0  0
   -2.6584   20.9492  -34.1927 H   0  0  0  0  0  0  0  0  0  0  0  0
  1  2  1  0
  2  3  1  0
  3  4  2  0
  4  5  1  0
  4  6  1  0
  6  7  1  0
  7  8  2  3
  8  9  1  0
  9 10  2  0
 10 11  1  0
 11 12  1  0
 12 13  3  0
 11 14  2  0
 14 15  1  0
 15 16  2  0
 16 17  1  0
 17 18  1  0
 18 19  1  0
 19 20  1  0
 20 21  1  0
 20 22  1  0
  7 23  1  0
 23  2  2  0
 16  9  1  0
 22 17  1  0
  1 24  1  0
  1 25  1  0
  1 26  1  0
  3 27  1  0
  5 28  1  0
  5 29  1  0
  5 30  1  0
 10 31  1  0
 14 32  1  0
 18 33  1  0
 18 34  1  0
 19 35  1  0
 19 36  1  0
 20 37  1  6
 22 38  1  0
 22 39  1  0
M  CHG  1   6  -1
M  END
>  <UniqueID>  (47) 
45

>  <SMILES>  (47) 
Cc1cc(C)[n-]c(=Nc2cc(C#N)cnc2N2CC[C@H](F)C2)n1

>  <Energy>  (47) 
49.17915941719606

>  <Genealogy>  (47) 
Cc1cc(C)[n-]c(=Nc2cc(C#N)cnc2N2CCC(F)C2)n1 (protonated)
Cc1cc(C)[n-]c(=Nc2cc(C#N)cnc2N2CC[C@H](F)C2)n1 (chirality)
Cc1cc(C)[n-]c(=Nc2cc(C#N)cnc2N2CC[C@H](F)C2)n1 (3D coordinates assigned)
Cc1cc(C)[n-]c(=Nc2cc(C#N)cnc2N2CC[C@H](F)C2)n1 (nonaromatic ring conformer: 49.17915941719606 kcal/mol)

>  <smiles>  (47) 
Cc1cc(C)[nH]c(=Nc2cc(C#N)cnc2N2CCC(F)C2)n1

>  <score_type>  (47) 
oracle

>  <origin>  (47) 
adgpu

>  <m_score__min__energy>  (47) 
-8.3499999999999996

>  <m_primary>  (47) 
energy

$$$$
47:0
     RDKit          3D

 45 47  0  0  0  0  0  0  0  0999 V2000
   -8.1560   19.4580  -31.3240 O   0  0  0  0  0  0  0  0  0  0  0  0
   -7.8980   19.9870  -32.4390 C   0  0  0  0  0  0  0  0  0  0  0  0
   -8.3420   21.3160  -32.7200 N   0  0  0  0  0  0  0  0  0  0  0  0
   -8.6340   22.4810  -31.4740 S   0  0  0  0  0  0  0  0  0  0  0  0
   -9.5190   23.5740  -32.0050 O   0  0  0  0  0  0  0  0  0  0  0  0
   -9.3370   21.8130  -30.3260 O   0  0  0  0  0  0  0  0  0  0  0  0
   -7.1020   23.1400  -30.9100 C   0  0  0  0  0  0  0  0  0  0  0  0
   -6.8930   24.5240  -30.8690 C   0  0  0  0  0  0  0  0  0  0  0  0
   -5.6670   25.0400  -30.4390 C   0  0  0  0  0  0  0  0  0  0  0  0
   -4.6300   24.1740  -30.0410 C   0  0  0  0  0  0  0  0  0  0  0  0
   -3.3550   24.6700  -29.5920 N   0  0  0  0  0  0  0  0  0  0  0  0
   -2.3230   23.8500  -28.9520 C   0  0  0  0  0  0  0  0  0  0  0  0
   -1.6380   24.6170  -27.8490 C   0  0  0  0  0  0  0  0  0  0  0  0
   -1.5280   24.0580  -26.5640 C   0  0  0  0  0  0  0  0  0  0  0  0
   -0.8900   24.7620  -25.5380 C   0  0  0  0  0  0  0  0  0  0  0  0
   -0.3650   26.0330  -25.7830 C   0  0  0  0  0  0  0  0  0  0  0  0
   -0.4790   26.6040  -27.0520 C   0  0  0  0  0  0  0  0  0  0  0  0
   -1.1150   25.9050  -28.0840 C   0  0  0  0  0  0  0  0  0  0  0  0
   -1.2270   26.4960  -29.3380 O   0  0  0  0  0  0  0  0  0  0  0  0
   -4.8440   22.7880  -30.0990 C   0  0  0  0  0  0  0  0  0  0  0  0
   -6.0700   22.2750  -30.5290 C   0  0  0  0  0  0  0  0  0  0  0  0
   -7.2010   19.2510  -33.4530 N   0  0  0  0  0  0  0  0  0  0  0  0
   -6.5440   17.9920  -33.2300 C   0  0  0  0  0  0  0  0  0  0  0  0
   -6.0780   17.6750  -31.9440 C   0  0  0  0  0  0  0  0  0  0  0  0
   -5.4550   16.4480  -31.6980 C   0  0  0  0  0  0  0  0  0  0  0  0
   -5.3040   15.5210  -32.7320 C   0  0  0  0  0  0  0  0  0  0  0  0
   -5.7860   15.8150  -34.0110 C   0  0  0  0  0  0  0  0  0  0  0  0
   -6.4090   17.0420  -34.2600 C   0  0  0  0  0  0  0  0  0  0  0  0
   -7.6973   25.2084  -31.1766 H   0  0  0  0  0  0  0  0  0  0  0  0
   -5.5113   26.1286  -30.4113 H   0  0  0  0  0  0  0  0  0  0  0  0
   -3.1180   25.6710  -29.7770 H   0  0  0  0  0  0  0  0  0  0  0  0
   -2.7898   22.9485  -28.5284 H   0  0  0  0  0  0  0  0  0  0  0  0
   -1.5731   23.5735  -29.7078 H   0  0  0  0  0  0  0  0  0  0  0  0
   -1.9464   23.0605  -26.3643 H   0  0  0  0  0  0  0  0  0  0  0  0
   -0.8015   24.3145  -24.5371 H   0  0  0  0  0  0  0  0  0  0  0  0
    0.1387   26.5845  -24.9755 H   0  0  0  0  0  0  0  0  0  0  0  0
   -0.0676   27.6065  -27.2411 H   0  0  0  0  0  0  0  0  0  0  0  0
   -4.0388   22.0994  -29.8031 H   0  0  0  0  0  0  0  0  0  0  0  0
   -6.2249   21.1867  -30.5683 H   0  0  0  0  0  0  0  0  0  0  0  0
   -7.2510   19.6160  -34.4320 H   0  0  0  0  0  0  0  0  0  0  0  0
   -6.2041   18.3974  -31.1241 H   0  0  0  0  0  0  0  0  0  0  0  0
   -5.0835   16.2124  -30.6898 H   0  0  0  0  0  0  0  0  0  0  0  0
   -4.8057   14.5594  -32.5399 H   0  0  0  0  0  0  0  0  0  0  0  0
   -5.6751   15.0805  -34.8223 H   0  0  0  0  0  0  0  0  0  0  0  0
   -6.7953   17.2658  -35.2653 H   0  0  0  0  0  0  0  0  0  0  0  0
  1  2  2  0
  2  3  1  0
  3  4  1  0
  4  5  2  0
  4  6  2  0
  4  7  1  0
  7  8  2  0
  8  9  1  0
  9 10  2  0
 10 11  1  0
 11 12  1  0
 12 13  1  0
 13 14  2  0
 14 15  1  0
 15 16  2  0
 16 17  1  0
 17 18  2  0
 18 19  1  0
 10 20  1  0
 20 21  2  0
  2 22  1  0
 22 23  1  0
 23 24  2  0
 24 25  1  0
 25 26  2  0
 26 27  1  0
 27 28  2  0
 21  7  1  0
 28 23  1  0
 18 13  1  0
  8 29  1  0
  9 30  1  0
 11 31  1  0
 12 32  1  0
 12 33  1  0
 14 34  1  0
 15 35  1  0
 16 36  1  0
 17 37  1  0
 20 38  1  0
 21 39  1  0
 22 40  1  0
 24 41  1  0
 25 42  1  0
 26 43  1  0
 27 44  1  0
 28 45  1  0
M  CHG  2   3  -1  19  -1
M  END
>  <UniqueID>  (48) 
46

>  <SMILES>  (48) 
O=C([N-]S(=O)(=O)c1ccc(NCc2ccccc2[O-])cc1)Nc1ccccc1

>  <Energy>  (48) 
52.751223119155185

>  <Genealogy>  (48) 
O=C([N-]S(=O)(=O)c1ccc(NCc2ccccc2[O-])cc1)Nc1ccccc1 (protonated)
O=C([N-]S(=O)(=O)c1ccc(NCc2ccccc2[O-])cc1)Nc1ccccc1 (3D coordinates assigned)
O=C([N-]S(=O)(=O)c1ccc(NCc2ccccc2[O-])cc1)Nc1ccccc1 (optimized conformer: 52.751223119155185 kcal/mol)

>  <smiles>  (48) 
O=C(Nc1ccccc1)NS(=O)(=O)c1ccc(NCc2ccccc2O)cc1

>  <score_type>  (48) 
oracle

>  <origin>  (48) 
adgpu

>  <m_score__min__energy>  (48) 
-12.470000000000001

>  <m_primary>  (48) 
energy

$$$$
48:0
     RDKit          3D

 61 64  0  0  0  0  0  0  0  0999 V2000
   -5.9090   20.4050  -31.6240 C   0  0  0  0  0  0  0  0  0  0  0  0
   -7.3500   20.3880  -31.8970 N   0  0  0  0  0  0  0  0  0  0  0  0
   -8.1030   19.2770  -32.0820 C   0  0  0  0  0  0  0  0  0  0  0  0
   -7.6270   17.8580  -31.9060 C   0  0  0  0  0  0  0  0  0  0  0  0
   -6.5020   17.5810  -32.8110 N   0  0  0  0  0  0  0  0  0  0  0  0
   -6.3580   18.4220  -34.0110 C   0  0  0  0  0  0  0  0  0  0  0  0
   -5.4020   17.8080  -35.0380 C   0  0  0  0  0  0  0  0  0  0  0  0
   -4.0780   17.4400  -34.3750 C   0  0  0  0  0  0  0  0  0  0  0  0
   -4.2970   16.3630  -33.3120 C   0  0  0  0  0  0  0  0  0  0  0  0
   -5.4220   16.7190  -32.3820 C   0  0  0  0  0  0  0  0  0  0  0  0
   -5.4480   16.1860  -31.2400 O   0  0  0  0  0  0  0  0  0  0  0  0
   -9.4150   19.6270  -32.3390 C   0  0  0  0  0  0  0  0  0  0  0  0
   -9.4690   21.0010  -32.3040 C   0  0  0  0  0  0  0  0  0  0  0  0
   -8.1910   21.4460  -32.0150 C   0  0  0  0  0  0  0  0  0  0  0  0
   -7.8380   22.9040  -31.7980 C   0  0  0  0  0  0  0  0  0  0  0  0
   -6.5770   23.1170  -31.0400 N   0  0  0  0  0  0  0  0  0  0  0  0
   -5.4220   23.3710  -31.9250 C   0  0  0  0  0  0  0  0  0  0  0  0
   -4.1120   23.2200  -31.1430 C   0  0  0  0  0  0  0  0  0  0  0  0
   -4.2760   23.6270  -29.7400 N   0  0  0  0  0  0  0  0  0  0  0  0
   -3.2740   23.2520  -28.7770 C   0  0  0  0  0  0  0  0  0  0  0  0
   -2.4350   24.2280  -28.2190 C   0  0  0  0  0  0  0  0  0  0  0  0
   -1.4820   23.8750  -27.2610 C   0  0  0  0  0  0  0  0  0  0  0  0
   -1.3550   22.5460  -26.8540 C   0  0  0  0  0  0  0  0  0  0  0  0
   -2.1710   21.5480  -27.4170 C   0  0  0  0  0  0  0  0  0  0  0  0
   -2.0740   20.1190  -26.9470 C   0  0  0  0  0  0  0  0  0  0  0  0
   -1.1870   19.4110  -27.7390 F   0  0  0  0  0  0  0  0  0  0  0  0
   -3.3210   19.5270  -27.0290 F   0  0  0  0  0  0  0  0  0  0  0  0
   -1.6290   20.0580  -25.6380 F   0  0  0  0  0  0  0  0  0  0  0  0
   -3.1460   21.9160  -28.3620 C   0  0  0  0  0  0  0  0  0  0  0  0
   -5.3600   24.5360  -29.3440 C   0  0  0  0  0  0  0  0  0  0  0  0
   -6.7020   24.1950  -30.0330 C   0  0  0  0  0  0  0  0  0  0  0  0
   -5.7418   20.4070  -30.5368 H   0  0  0  0  0  0  0  0  0  0  0  0
   -5.4417   19.5123  -32.0652 H   0  0  0  0  0  0  0  0  0  0  0  0
   -5.4628   21.3085  -32.0652 H   0  0  0  0  0  0  0  0  0  0  0  0
   -7.3006   17.7112  -30.8659 H   0  0  0  0  0  0  0  0  0  0  0  0
   -8.4535   17.1716  -32.1422 H   0  0  0  0  0  0  0  0  0  0  0  0
   -7.3466   18.5458  -34.4773 H   0  0  0  0  0  0  0  0  0  0  0  0
   -5.9391   19.3893  -33.6965 H   0  0  0  0  0  0  0  0  0  0  0  0
   -5.8591   16.9023  -35.4631 H   0  0  0  0  0  0  0  0  0  0  0  0
   -5.2116   18.5431  -35.8339 H   0  0  0  0  0  0  0  0  0  0  0  0
   -3.3833   17.0600  -35.1385 H   0  0  0  0  0  0  0  0  0  0  0  0
   -3.6576   18.3359  -33.8948 H   0  0  0  0  0  0  0  0  0  0  0  0
   -4.5351   15.4124  -33.8117 H   0  0  0  0  0  0  0  0  0  0  0  0
   -3.3756   16.2765  -32.7174 H   0  0  0  0  0  0  0  0  0  0  0  0
  -10.2525   18.9409  -32.5335 H   0  0  0  0  0  0  0  0  0  0  0  0
  -10.3580   21.6264  -32.4733 H   0  0  0  0  0  0  0  0  0  0  0  0
   -7.7349   23.3846  -32.7821 H   0  0  0  0  0  0  0  0  0  0  0  0
   -8.6480   23.3401  -31.1950 H   0  0  0  0  0  0  0  0  0  0  0  0
   -6.4020   22.2210  -30.5240 H   0  0  0  0  0  0  0  0  0  0  0  0
   -5.4348   22.6494  -32.7551 H   0  0  0  0  0  0  0  0  0  0  0  0
   -5.4894   24.3964  -32.3174 H   0  0  0  0  0  0  0  0  0  0  0  0
   -3.7948   22.1672  -31.1757 H   0  0  0  0  0  0  0  0  0  0  0  0
   -3.3549   23.8699  -31.6062 H   0  0  0  0  0  0  0  0  0  0  0  0
   -2.5282   25.2767  -28.5376 H   0  0  0  0  0  0  0  0  0  0  0  0
   -0.8297   24.6465  -26.8260 H   0  0  0  0  0  0  0  0  0  0  0  0
   -0.6123   22.2774  -26.0883 H   0  0  0  0  0  0  0  0  0  0  0  0
   -3.8151   21.1496  -28.7803 H   0  0  0  0  0  0  0  0  0  0  0  0
   -5.4960   24.4689  -28.2545 H   0  0  0  0  0  0  0  0  0  0  0  0
   -5.0740   25.5517  -29.6547 H   0  0  0  0  0  0  0  0  0  0  0  0
   -7.4197   23.8745  -29.2635 H   0  0  0  0  0  0  0  0  0  0  0  0
   -7.0412   25.0995  -30.5592 H   0  0  0  0  0  0  0  0  0  0  0  0
  1  2  1  0
  2  3  1  0
  3  4  1  0
  4  5  1  0
  5  6  1  0
  6  7  1  0
  7  8  1  0
  8  9  1  0
  9 10  1  0
 10 11  2  0
  3 12  2  0
 12 13  1  0
 13 14  2  0
 14 15  1  0
 15 16  1  0
 16 17  1  0
 17 18  1  0
 18 19  1  0
 19 20  1  0
 20 21  2  0
 21 22  1  0
 22 23  2  0
 23 24  1  0
 24 25  1  0
 25 26  1  0
 25 27  1  0
 25 28  1  0
 24 29  2  0
 19 30  1  0
 30 31  1  0
 14  2  1  0
 31 16  1  0
 10  5  1  0
 29 20  1  0
  1 32  1  0
  1 33  1  0
  1 34  1  0
  4 35  1  0
  4 36  1  0
  6 37  1  0
  6 38  1  0
  7 39  1  0
  7 40  1  0
  8 41  1  0
  8 42  1  0
  9 43  1  0
  9 44  1  0
 12 45  1  0
 13 46  1  0
 15 47  1  0
 15 48  1  0
 16 49  1  0
 17 50  1  0
 17 51  1  0
 18 52  1  0
 18 53  1  0
 21 54  1  0
 22 55  1  0
 23 56  1  0
 29 57  1  0
 30 58  1  0
 30 59  1  0
 31 60  1  0
 31 61  1  0
M  CHG  1  16   1
M  END
>  <UniqueID>  (49) 
47

>  <SMILES>  (49) 
Cn1c(CN2CCCCC2=O)ccc1C[NH+]1CCN(c2cccc(C(F)(F)F)c2)CC1

>  <Energy>  (49) 
97.95648940074143

>  <Genealogy>  (49) 
Cn1c(CN2CCCCC2=O)ccc1C[NH+]1CCN(c2cccc(C(F)(F)F)c2)CC1 (protonated)
Cn1c(CN2CCCCC2=O)ccc1C[NH+]1CCN(c2cccc(C(F)(F)F)c2)CC1 (3D coordinates assigned)
Cn1c(CN2CCCCC2=O)ccc1C[NH+]1CCN(c2cccc(C(F)(F)F)c2)CC1 (nonaromatic ring conformer: 97.95648940074143 kcal/mol)

>  <smiles>  (49) 
Cn1c(CN2CCN(c3cccc(C(F)(F)F)c3)CC2)ccc1CN1CCCCC1=O

>  <score_type>  (49) 
oracle

>  <origin>  (49) 
adgpu

>  <m_score__min__energy>  (49) 
-7.8499999999999996

>  <m_primary>  (49) 
energy

$$$$
