0:0
     RDKit          3D

 27 28  0  0  0  0  0  0  0  0999 V2000
   -3.6680   24.0030  -28.2200 O   0  0  0  0  0  0  0  0  0  0  0  0
   -3.1110   24.5750  -29.1980 C   0  0  0  0  0  0  0  0  0  0  0  0
   -3.7380   24.5710  -30.4840 N   0  0  0  0  0  0  0  0  0  0  0  0
   -4.9140   23.8220  -30.8100 C   0  0  0  0  0  0  0  0  0  0  0  0
   -4.7680   22.6130  -31.5020 C   0  0  0  0  0  0  0  0  0  0  0  0
   -5.8890   21.8500  -31.8420 C   0  0  0  0  0  0  0  0  0  0  0  0
   -7.1660   22.2820  -31.4740 C   0  0  0  0  0  0  0  0  0  0  0  0
   -8.6970   21.2360  -31.9360 Br  0  0  0  0  0  0  0  0  0  0  0  0
   -7.3210   23.4700  -30.7540 C   0  0  0  0  0  0  0  0  0  0  0  0
   -6.2030   24.2400  -30.4100 C   0  0  0  0  0  0  0  0  0  0  0  0
   -6.4490   25.6610  -29.4010 Cl  0  0  0  0  0  0  0  0  0  0  0  0
   -1.8860   25.2950  -29.0150 N   0  0  0  0  0  0  0  0  0  0  0  0
   -1.1120   25.2540  -27.8060 C   0  0  0  0  0  0  0  0  0  0  0  0
   -1.5390   25.9970  -26.6940 C   0  0  0  0  0  0  0  0  0  0  0  0
   -0.7980   25.9860  -25.5090 C   0  0  0  0  0  0  0  0  0  0  0  0
    0.3850   25.2470  -25.4300 C   0  0  0  0  0  0  0  0  0  0  0  0
    1.1040   25.2400  -24.2800 F   0  0  0  0  0  0  0  0  0  0  0  0
    0.8340   24.5270  -26.5400 C   0  0  0  0  0  0  0  0  0  0  0  0
    0.0960   24.5330  -27.7280 C   0  0  0  0  0  0  0  0  0  0  0  0
    0.5870   23.8790  -28.8110 F   0  0  0  0  0  0  0  0  0  0  0  0
   -3.7636   22.2612  -31.7801 H   0  0  0  0  0  0  0  0  0  0  0  0
   -5.7658   20.9096  -32.3992 H   0  0  0  0  0  0  0  0  0  0  0  0
   -8.3265   23.8019  -30.4560 H   0  0  0  0  0  0  0  0  0  0  0  0
   -1.6140   25.9830  -29.7550 H   0  0  0  0  0  0  0  0  0  0  0  0
   -2.4625   26.5915  -26.7557 H   0  0  0  0  0  0  0  0  0  0  0  0
   -1.1466   26.5598  -24.6377 H   0  0  0  0  0  0  0  0  0  0  0  0
    1.7708   23.9537  -26.4793 H   0  0  0  0  0  0  0  0  0  0  0  0
  1  2  2  0
  2  3  1  0
  3  4  1  0
  4  5  2  0
  5  6  1  0
  6  7  2  0
  7  8  1  0
  7  9  1  0
  9 10  2  0
 10 11  1  0
  2 12  1  0
 12 13  1  0
 13 14  2  0
 14 15  1  0
 15 16  2  0
 16 17  1  0
 16 18  1  0
 18 19  2  0
 19 20  1  0
 10  4  1  0
 19 13  1  0
  5 21  1  0
  6 22  1  0
  9 23  1  0
 12 24  1  0
 14 25  1  0
 15 26  1  0
 18 27  1  0
M  CHG  1   3  -1
M  END
>  <UniqueID>  (1) 
1

>  <SMILES>  (1) 
O=C([N-]c1ccc(Br)cc1Cl)Nc1ccc(F)cc1F

>  <Energy>  (1) 
38.83592528207427

>  <Genealogy>  (1) 
O=C([N-]c1ccc(Br)cc1Cl)Nc1ccc(F)cc1F (protonated)
O=C([N-]c1ccc(Br)cc1Cl)Nc1ccc(F)cc1F (3D coordinates assigned)
O=C([N-]c1ccc(Br)cc1Cl)Nc1ccc(F)cc1F (optimized conformer: 38.83592528207427 kcal/mol)

>  <smiles>  (1) 
O=C(Nc1ccc(F)cc1F)Nc1ccc(Br)cc1Cl

>  <score_type>  (1) 
oracle

>  <origin>  (1) 
adgpu

>  <m_score__min__energy>  (1) 
-9.0700000000000003

>  <m_primary>  (1) 
energy

$$$$
1:0
     RDKit          3D

 31 33  0  0  0  0  0  0  0  0999 V2000
   -0.7760   24.4590  -28.9760 O   0  0  0  0  0  0  0  0  0  0  0  0
   -1.8950   24.0340  -29.3740 C   0  0  0  0  0  0  0  0  0  0  0  0
   -2.8650   24.9240  -29.6810 N   0  0  0  0  0  0  0  0  0  0  0  0
   -4.0850   24.5110  -30.0950 C   0  0  0  0  0  0  0  0  0  0  0  0
   -5.2020   25.6560  -30.4750 S   0  0  0  0  0  0  0  0  0  0  0  0
   -4.3490   23.1700  -30.2080 N   0  0  0  0  0  0  0  0  0  0  0  0
   -5.6390   22.6960  -30.6430 C   0  0  0  0  0  0  0  0  0  0  0  0
   -5.7940   22.1490  -31.9250 C   0  0  0  0  0  0  0  0  0  0  0  0
   -7.0440   21.6830  -32.3440 C   0  0  0  0  0  0  0  0  0  0  0  0
   -8.1450   21.7600  -31.4850 C   0  0  0  0  0  0  0  0  0  0  0  0
   -9.7120   21.1750  -32.0110 Cl  0  0  0  0  0  0  0  0  0  0  0  0
   -7.9940   22.3000  -30.2030 C   0  0  0  0  0  0  0  0  0  0  0  0
   -6.7450   22.7660  -29.7820 C   0  0  0  0  0  0  0  0  0  0  0  0
   -3.3660   22.2640  -29.9050 C   0  0  0  0  0  0  0  0  0  0  0  0
   -3.5960   21.0260  -30.0180 O   0  0  0  0  0  0  0  0  0  0  0  0
   -2.1340   22.6930  -29.4840 N   0  0  0  0  0  0  0  0  0  0  0  0
   -1.1020   21.7390  -29.1590 C   0  0  0  0  0  0  0  0  0  0  0  0
   -0.5070   20.9660  -30.1680 C   0  0  0  0  0  0  0  0  0  0  0  0
    0.4940   20.0420  -29.8510 C   0  0  0  0  0  0  0  0  0  0  0  0
    0.9080   19.8850  -28.5240 C   0  0  0  0  0  0  0  0  0  0  0  0
    2.1640   18.7270  -28.1280 Cl  0  0  0  0  0  0  0  0  0  0  0  0
    0.3190   20.6530  -27.5130 C   0  0  0  0  0  0  0  0  0  0  0  0
   -0.6810   21.5770  -27.8280 C   0  0  0  0  0  0  0  0  0  0  0  0
   -4.9299   22.0864  -32.6028 H   0  0  0  0  0  0  0  0  0  0  0  0
   -7.1615   21.2553  -33.3506 H   0  0  0  0  0  0  0  0  0  0  0  0
   -8.8589   22.3579  -29.5258 H   0  0  0  0  0  0  0  0  0  0  0  0
   -6.6288   23.1887  -28.7731 H   0  0  0  0  0  0  0  0  0  0  0  0
   -0.8293   21.0873  -31.2127 H   0  0  0  0  0  0  0  0  0  0  0  0
    0.9561   19.4382  -30.6459 H   0  0  0  0  0  0  0  0  0  0  0  0
    0.6436   20.5292  -26.4693 H   0  0  0  0  0  0  0  0  0  0  0  0
   -1.1405   22.1799  -27.0309 H   0  0  0  0  0  0  0  0  0  0  0  0
  1  2  2  0
  2  3  1  0
  3  4  1  0
  4  5  2  0
  4  6  1  0
  6  7  1  0
  7  8  2  0
  8  9  1  0
  9 10  2  0
 10 11  1  0
 10 12  1  0
 12 13  2  0
  6 14  1  0
 14 15  2  0
 14 16  1  0
 16 17  1  0
 17 18  2  0
 18 19  1  0
 19 20  2  0
 20 21  1  0
 20 22  1  0
 22 23  2  0
 16  2  1  0
 23 17  1  0
 13  7  1  0
  8 24  1  0
  9 25  1  0
 12 26  1  0
 13 27  1  0
 18 28  1  0
 19 29  1  0
 22 30  1  0
 23 31  1  0
M  CHG  1   3  -1
M  END
>  <UniqueID>  (2) 
2

>  <SMILES>  (2) 
O=c1[n-]c(=S)n(-c2ccc(Cl)cc2)c(=O)n1-c1ccc(Cl)cc1

>  <Energy>  (2) 
55.75000968856254

>  <Genealogy>  (2) 
O=c1[n-]c(=S)n(-c2ccc(Cl)cc2)c(=O)n1-c1ccc(Cl)cc1 (protonated)
O=c1[n-]c(=S)n(-c2ccc(Cl)cc2)c(=O)n1-c1ccc(Cl)cc1 (3D coordinates assigned)
O=c1[n-]c(=S)n(-c2ccc(Cl)cc2)c(=O)n1-c1ccc(Cl)cc1 (optimized conformer: 55.75000968856254 kcal/mol)

>  <smiles>  (2) 
O=c1[nH]c(=S)n(-c2ccc(Cl)cc2)c(=O)n1-c1ccc(Cl)cc1

>  <score_type>  (2) 
oracle

>  <origin>  (2) 
adgpu

>  <m_score__min__energy>  (2) 
-8.2300000000000004

>  <m_primary>  (2) 
energy

$$$$
2:0
     RDKit          3D

 31 32  0  0  0  0  0  0  0  0999 V2000
   -5.8870   24.1580  -31.1680 C   0  0  0  0  0  0  0  0  0  0  0  0
   -6.2430   23.4870  -32.3410 C   0  0  0  0  0  0  0  0  0  0  0  0
   -7.1580   22.4310  -32.2940 C   0  0  0  0  0  0  0  0  0  0  0  0
   -7.7230   22.0370  -31.0680 C   0  0  0  0  0  0  0  0  0  0  0  0
   -8.7360   20.9230  -31.0160 C   0  0  0  0  0  0  0  0  0  0  0  0
   -9.5250   20.8070  -32.3290 C   0  0  0  0  0  0  0  0  0  0  0  0
   -9.0480   19.6820  -33.1550 N   0  0  0  0  0  0  0  0  0  0  0  0
   -8.3440   18.6710  -32.3490 C   0  0  0  0  0  0  0  0  0  0  0  0
   -7.0460   18.2600  -32.9840 C   0  0  0  0  0  0  0  0  0  0  0  0
   -6.5270   16.9720  -33.0210 C   0  0  0  0  0  0  0  0  0  0  0  0
   -5.3260   16.8820  -33.7340 C   0  0  0  0  0  0  0  0  0  0  0  0
   -4.9010   18.0930  -34.2640 C   0  0  0  0  0  0  0  0  0  0  0  0
   -6.0230   19.2760  -33.8490 S   0  0  0  0  0  0  0  0  0  0  0  0
   -7.3650   22.7220  -29.8950 C   0  0  0  0  0  0  0  0  0  0  0  0
   -6.4480   23.7780  -29.9460 C   0  0  0  0  0  0  0  0  0  0  0  0
   -5.1643   24.9863  -31.2067 H   0  0  0  0  0  0  0  0  0  0  0  0
   -5.8028   23.7901  -33.3024 H   0  0  0  0  0  0  0  0  0  0  0  0
   -7.4371   21.9063  -33.2196 H   0  0  0  0  0  0  0  0  0  0  0  0
   -8.2120   19.9738  -30.8305 H   0  0  0  0  0  0  0  0  0  0  0  0
   -9.4482   21.1462  -30.2079 H   0  0  0  0  0  0  0  0  0  0  0  0
  -10.5880   20.6505  -32.0934 H   0  0  0  0  0  0  0  0  0  0  0  0
   -9.3800   21.7364  -32.8992 H   0  0  0  0  0  0  0  0  0  0  0  0
   -9.8510   19.2310  -33.6540 H   0  0  0  0  0  0  0  0  0  0  0  0
   -8.3790   20.0490  -33.8720 H   0  0  0  0  0  0  0  0  0  0  0  0
   -8.1369   19.0899  -31.3532 H   0  0  0  0  0  0  0  0  0  0  0  0
   -8.9871   17.7816  -32.2763 H   0  0  0  0  0  0  0  0  0  0  0  0
   -7.0110   16.1100  -32.5387 H   0  0  0  0  0  0  0  0  0  0  0  0
   -4.7712   15.9409  -33.8624 H   0  0  0  0  0  0  0  0  0  0  0  0
   -3.9866   18.2518  -34.8545 H   0  0  0  0  0  0  0  0  0  0  0  0
   -7.8074   22.4271  -28.9320 H   0  0  0  0  0  0  0  0  0  0  0  0
   -6.1688   24.3089  -29.0239 H   0  0  0  0  0  0  0  0  0  0  0  0
  1  2  2  0
  2  3  1  0
  3  4  2  0
  4  5  1  0
  5  6  1  0
  6  7  1  0
  7  8  1  0
  8  9  1  0
  9 10  2  0
 10 11  1  0
 11 12  2  0
 12 13  1  0
  4 14  1  0
 14 15  2  0
 15  1  1  0
 13  9  1  0
  1 16  1  0
  2 17  1  0
  3 18  1  0
  5 19  1  0
  5 20  1  0
  6 21  1  0
  6 22  1  0
  7 23  1  0
  7 24  1  0
  8 25  1  0
  8 26  1  0
 10 27  1  0
 11 28  1  0
 12 29  1  0
 14 30  1  0
 15 31  1  0
M  CHG  1   7   1
M  END
>  <UniqueID>  (3) 
3

>  <SMILES>  (3) 
c1ccc(CC[NH2+]Cc2cccs2)cc1

>  <Energy>  (3) 
53.01882390841434

>  <Genealogy>  (3) 
c1ccc(CC[NH2+]Cc2cccs2)cc1 (protonated)
c1ccc(CC[NH2+]Cc2cccs2)cc1 (3D coordinates assigned)
c1ccc(CC[NH2+]Cc2cccs2)cc1 (optimized conformer: 53.01882390841434 kcal/mol)

>  <smiles>  (3) 
c1ccc(CCNCc2cccs2)cc1

>  <score_type>  (3) 
oracle

>  <origin>  (3) 
adgpu

>  <m_score__min__energy>  (3) 
-5.9000000000000004

>  <m_primary>  (3) 
energy

$$$$
3:0
     RDKit          3D

 38 41  0  0  1  0  0  0  0  0999 V2000
   -2.0640   23.2790  -29.7600 C   0  0  0  0  0  0  0  0  0  0  0  0
   -3.5180   23.0220  -30.0410 C   0  0  2  0  0  0  0  0  0  0  0  0
   -3.7600   22.8270  -31.3990 O   0  0  0  0  0  0  0  0  0  0  0  0
   -5.0950   23.1120  -31.6400 C   0  0  1  0  0  0  0  0  0  0  0  0
   -5.8410   21.9510  -32.0540 N   0  0  0  0  0  0  0  0  0  0  0  0
   -5.2890   20.8230  -32.5690 C   0  0  0  0  0  0  0  0  0  0  0  0
   -6.3230   19.9080  -32.8540 C   0  0  0  0  0  0  0  0  0  0  0  0
   -6.0440   18.6190  -33.4340 C   0  0  0  0  0  0  0  0  0  0  0  0
   -6.3320   17.3300  -33.1310 C   0  0  0  0  0  0  0  0  0  0  0  0
   -5.7880   16.4780  -34.0630 N   0  0  0  0  0  0  0  0  0  0  0  0
   -5.1680   17.2900  -34.9260 C   0  0  0  0  0  0  0  0  0  0  0  0
   -5.3210   18.5200  -34.5560 O   0  0  0  0  0  0  0  0  0  0  0  0
   -7.4510   20.5640  -32.4840 C   0  0  0  0  0  0  0  0  0  0  0  0
   -8.7790   20.2250  -32.5230 C   0  0  0  0  0  0  0  0  0  0  0  0
   -9.1600   19.1110  -32.9800 N   0  0  0  0  0  0  0  0  0  0  0  0
   -9.7070   21.0950  -32.0930 N   0  0  0  0  0  0  0  0  0  0  0  0
   -9.4170   22.3160  -31.6110 C   0  0  0  0  0  0  0  0  0  0  0  0
   -8.1220   22.6770  -31.5630 N   0  0  0  0  0  0  0  0  0  0  0  0
   -7.1710   21.8290  -31.9860 C   0  0  0  0  0  0  0  0  0  0  0  0
   -5.6810   23.7290  -30.3950 C   0  0  1  0  0  0  0  0  0  0  0  0
   -6.2380   22.8380  -29.5140 O   0  0  0  0  0  0  0  0  0  0  0  0
   -4.3800   24.2340  -29.7510 C   0  0  2  0  0  0  0  0  0  0  0  0
   -3.8670   25.3030  -30.4740 O   0  0  0  0  0  0  0  0  0  0  0  0
   -1.9002   23.3079  -28.6726 H   0  0  0  0  0  0  0  0  0  0  0  0
   -1.4575   22.4741  -30.2009 H   0  0  0  0  0  0  0  0  0  0  0  0
   -1.7702   24.2430  -30.2009 H   0  0  0  0  0  0  0  0  0  0  0  0
   -3.7541   22.1492  -29.4145 H   0  0  0  0  0  0  0  0  0  0  0  0
   -5.1618   23.8210  -32.4783 H   0  0  0  0  0  0  0  0  0  0  0  0
   -4.2153   20.6516  -32.7359 H   0  0  0  0  0  0  0  0  0  0  0  0
   -6.9205   17.0092  -32.2588 H   0  0  0  0  0  0  0  0  0  0  0  0
   -4.6118   16.9614  -35.8163 H   0  0  0  0  0  0  0  0  0  0  0  0
  -10.1470   18.7960  -33.0370 H   0  0  0  0  0  0  0  0  0  0  0  0
  -10.7170   20.8250  -32.1260 H   0  0  0  0  0  0  0  0  0  0  0  0
  -10.2107   22.9960  -31.2679 H   0  0  0  0  0  0  0  0  0  0  0  0
   -6.4881   24.4402  -30.6247 H   0  0  0  0  0  0  0  0  0  0  0  0
   -7.2200   22.7450  -29.5970 H   0  0  0  0  0  0  0  0  0  0  0  0
   -4.4649   24.5655  -28.7056 H   0  0  0  0  0  0  0  0  0  0  0  0
   -3.4830   24.9210  -31.3060 H   0  0  0  0  0  0  0  0  0  0  0  0
  1  2  1  0
  2  3  1  0
  3  4  1  0
  4  5  1  0
  5  6  1  0
  6  7  2  0
  7  8  1  0
  8  9  2  0
  9 10  1  0
 10 11  2  0
 11 12  1  0
  7 13  1  0
 13 14  1  0
 14 15  2  3
 14 16  1  0
 16 17  1  0
 17 18  2  0
 18 19  1  0
  4 20  1  0
 20 21  1  0
 20 22  1  0
 22 23  1  0
 22  2  1  0
 19  5  1  0
 12  8  1  0
 19 13  2  0
  1 24  1  0
  1 25  1  0
  1 26  1  0
  2 27  1  1
  4 28  1  6
  6 29  1  0
  9 30  1  0
 11 31  1  0
 15 32  1  0
 16 33  1  0
 17 34  1  0
 20 35  1  6
 21 36  1  0
 22 37  1  1
 23 38  1  0
M  END
>  <smiles>  (4) 
CC1OC(n2cc(-c3cnco3)c3c(=N)[nH]cnc32)C(O)C1O

>  <score_type>  (4) 
oracle

>  <origin>  (4) 
adgpu

>  <m_score__min__energy>  (4) 
-7.8200000000000003

>  <m_primary>  (4) 
energy

$$$$
4:0
     RDKit          3D

 25 26  0  0  0  0  0  0  0  0999 V2000
   -3.9380   20.3750  -32.6650 C   0  0  0  0  0  0  0  0  0  0  0  0
   -3.7850   20.0810  -30.8740 S   0  0  0  0  0  0  0  0  0  0  0  0
   -3.1830   21.7350  -30.5220 C   0  0  0  0  0  0  0  0  0  0  0  0
   -1.6580   22.0690  -29.8940 S   0  0  0  0  0  0  0  0  0  0  0  0
   -1.9430   23.7230  -29.7700 C   0  0  0  0  0  0  0  0  0  0  0  0
   -0.9640   24.7010  -29.2680 C   0  0  0  0  0  0  0  0  0  0  0  0
    0.1270   24.3060  -28.7810 O   0  0  0  0  0  0  0  0  0  0  0  0
   -1.2290   26.0630  -29.3250 O   0  0  0  0  0  0  0  0  0  0  0  0
   -3.1980   24.0220  -30.1860 N   0  0  0  0  0  0  0  0  0  0  0  0
   -3.7070   25.3010  -30.2050 O   0  0  0  0  0  0  0  0  0  0  0  0
   -3.9020   22.9310  -30.6050 C   0  0  0  0  0  0  0  0  0  0  0  0
   -5.3220   23.0170  -31.0130 C   0  0  0  0  0  0  0  0  0  0  0  0
   -6.3360   22.6800  -30.1000 C   0  0  0  0  0  0  0  0  0  0  0  0
   -7.6800   22.7580  -30.4760 C   0  0  0  0  0  0  0  0  0  0  0  0
   -8.0240   23.1760  -31.7640 C   0  0  0  0  0  0  0  0  0  0  0  0
   -7.0230   23.5190  -32.6770 C   0  0  0  0  0  0  0  0  0  0  0  0
   -5.6770   23.4420  -32.3040 C   0  0  0  0  0  0  0  0  0  0  0  0
   -4.4396   21.3388  -32.8368 H   0  0  0  0  0  0  0  0  0  0  0  0
   -2.9367   20.3965  -33.1199 H   0  0  0  0  0  0  0  0  0  0  0  0
   -4.5301   19.5673  -33.1199 H   0  0  0  0  0  0  0  0  0  0  0  0
   -6.0705   22.3530  -29.0838 H   0  0  0  0  0  0  0  0  0  0  0  0
   -8.4680   22.4899  -29.7568 H   0  0  0  0  0  0  0  0  0  0  0  0
   -9.0820   23.2351  -32.0593 H   0  0  0  0  0  0  0  0  0  0  0  0
   -7.2940   23.8500  -33.6904 H   0  0  0  0  0  0  0  0  0  0  0  0
   -4.8927   23.7156  -33.0251 H   0  0  0  0  0  0  0  0  0  0  0  0
  1  2  1  0
  2  3  1  0
  3  4  1  0
  4  5  1  0
  5  6  1  0
  6  7  2  0
  6  8  1  0
  5  9  2  0
  9 10  1  0
  9 11  1  0
 11 12  1  0
 12 13  2  0
 13 14  1  0
 14 15  2  0
 15 16  1  0
 16 17  2  0
 11  3  2  0
 17 12  1  0
  1 18  1  0
  1 19  1  0
  1 20  1  0
 13 21  1  0
 14 22  1  0
 15 23  1  0
 16 24  1  0
 17 25  1  0
M  CHG  3   8  -1   9   1  10  -1
M  END
>  <UniqueID>  (5) 
4

>  <SMILES>  (5) 
CSc1sc(C(=O)[O-])[n+]([O-])c1-c1ccccc1

>  <Energy>  (5) 
58.617391944029706

>  <Genealogy>  (5) 
CSc1sc(C(=O)[O-])[n+]([O-])c1-c1ccccc1 (protonated)
CSc1sc(C(=O)[O-])[n+]([O-])c1-c1ccccc1 (3D coordinates assigned)
CSc1sc(C(=O)[O-])[n+]([O-])c1-c1ccccc1 (optimized conformer: 58.617391944029706 kcal/mol)

>  <smiles>  (5) 
CSc1sc(C(=O)O)[n+]([O-])c1-c1ccccc1

>  <score_type>  (5) 
oracle

>  <origin>  (5) 
adgpu

>  <m_score__min__energy>  (5) 
-8.9499999999999993

>  <m_primary>  (5) 
energy

$$$$
5:0
     RDKit          3D

 33 35  0  0  0  0  0  0  0  0999 V2000
    0.0771   27.0826  -27.0342 H   0  0  0  0  0  0  0  0  0  0  0  0
   -0.1420   26.0100  -27.1410 C   0  0  0  0  0  0  0  0  0  0  0  0
    0.1410   25.0570  -26.2300 N   0  0  0  0  0  0  0  0  0  0  0  0
   -0.2900   23.9080  -26.7960 C   0  0  0  0  0  0  0  0  0  0  0  0
   -0.1730   22.7650  -26.1780 N   0  0  0  0  0  0  0  0  0  0  0  0
   -0.4570   21.4650  -26.7060 C   0  0  0  0  0  0  0  0  0  0  0  0
    0.4370   20.8430  -27.5910 C   0  0  0  0  0  0  0  0  0  0  0  0
    1.3713   21.3496  -27.8746 H   0  0  0  0  0  0  0  0  0  0  0  0
    0.1410   19.5790  -28.1130 C   0  0  0  0  0  0  0  0  0  0  0  0
    0.8336   19.1011  -28.8215 H   0  0  0  0  0  0  0  0  0  0  0  0
   -1.0340   18.9230  -27.7350 C   0  0  0  0  0  0  0  0  0  0  0  0
   -1.2716   17.9347  -28.1555 H   0  0  0  0  0  0  0  0  0  0  0  0
   -1.9080   19.5230  -26.8220 C   0  0  0  0  0  0  0  0  0  0  0  0
   -3.3810   18.6990  -26.3460 Cl  0  0  0  0  0  0  0  0  0  0  0  0
   -1.6120   20.7860  -26.2960 C   0  0  0  0  0  0  0  0  0  0  0  0
   -2.2872   21.2462  -25.5596 H   0  0  0  0  0  0  0  0  0  0  0  0
   -0.8400   24.0970  -28.0280 N   0  0  0  0  0  0  0  0  0  0  0  0
   -1.5980   23.1930  -28.8490 C   0  0  0  0  0  0  0  0  0  0  0  0
   -0.9590   22.5210  -29.9030 C   0  0  0  0  0  0  0  0  0  0  0  0
    0.1161   22.6752  -30.0771 H   0  0  0  0  0  0  0  0  0  0  0  0
   -1.6790   21.6580  -30.7320 C   0  0  0  0  0  0  0  0  0  0  0  0
   -0.8780   20.8610  -32.0730 Cl  0  0  0  0  0  0  0  0  0  0  0  0
   -3.0370   21.4350  -30.4950 C   0  0  0  0  0  0  0  0  0  0  0  0
   -3.6030   20.7524  -31.1459 H   0  0  0  0  0  0  0  0  0  0  0  0
   -3.6780   22.0770  -29.4330 C   0  0  0  0  0  0  0  0  0  0  0  0
   -4.7433   21.8818  -29.2403 H   0  0  0  0  0  0  0  0  0  0  0  0
   -2.9730   22.9700  -28.6090 C   0  0  0  0  0  0  0  0  0  0  0  0
   -3.6910   23.6490  -27.4750 C   0  0  0  0  0  0  0  0  0  0  0  0
   -3.2979   23.2773  -26.5172 H   0  0  0  0  0  0  0  0  0  0  0  0
   -3.5329   24.7357  -27.5392 H   0  0  0  0  0  0  0  0  0  0  0  0
   -4.7672   23.4306  -27.5392 H   0  0  0  0  0  0  0  0  0  0  0  0
   -0.7480   25.4230  -28.2230 C   0  0  0  0  0  0  0  0  0  0  0  0
   -1.2410   26.0940  -29.3360 O   0  0  0  0  0  0  0  0  0  0  0  0
  1  2  1  0
  2  3  1  0
  3  4  1  0
  4  5  2  0
  5  6  1  0
  6  7  2  0
  7  8  1  0
  7  9  1  0
  9 10  1  0
  9 11  2  0
 11 12  1  0
 11 13  1  0
 13 14  1  0
 13 15  2  0
 15 16  1  0
  4 17  1  0
 17 18  1  0
 18 19  2  0
 19 20  1  0
 19 21  1  0
 21 22  1  0
 21 23  2  0
 23 24  1  0
 23 25  1  0
 25 26  1  0
 25 27  2  0
 27 28  1  0
 28 29  1  0
 28 30  1  0
 28 31  1  0
 17 32  1  0
 32 33  1  0
 32  2  2  0
 15  6  1  0
 27 18  1  0
M  CHG  2   3  -1  33  -1
M  END
>  <UniqueID>  (6) 
5

>  <SMILES>  (6) 
Cc1ccc(Cl)cc1-n1c([O-])c[n-]/c1=N/c1cccc(Cl)c1

>  <Energy>  (6) 
81.99969868562069

>  <Genealogy>  (6) 
Cc1ccc(Cl)cc1-n1c([O-])c[n-]c1=Nc1cccc(Cl)c1 (protonated)
Cc1ccc(Cl)cc1-n1c([O-])c[n-]/c1=N/c1cccc(Cl)c1 (cis-trans isomerization)
Cc1ccc(Cl)cc1-n1c([O-])c[n-]/c1=N/c1cccc(Cl)c1 (3D coordinates assigned)
Cc1ccc(Cl)cc1-n1c([O-])c[n-]/c1=N/c1cccc(Cl)c1 (optimized conformer: 81.99969868562069 kcal/mol)

>  <smiles>  (6) 
Cc1ccc(Cl)cc1-n1c(O)c[nH]c1=Nc1cccc(Cl)c1

>  <score_type>  (6) 
oracle

>  <origin>  (6) 
adgpu

>  <m_score__min__energy>  (6) 
-10

>  <m_primary>  (6) 
energy

$$$$
6:0
     RDKit          3D

 48 51  0  0  0  0  0  0  0  0999 V2000
   -6.6990   15.6560  -34.1680 C   0  0  0  0  0  0  0  0  0  0  0  0
   -6.1170   16.9250  -33.6200 C   0  0  0  0  0  0  0  0  0  0  0  0
   -6.2090   17.2100  -32.2490 C   0  0  0  0  0  0  0  0  0  0  0  0
   -5.6980   18.4090  -31.7430 C   0  0  0  0  0  0  0  0  0  0  0  0
   -5.1030   19.3430  -32.6030 C   0  0  0  0  0  0  0  0  0  0  0  0
   -4.5400   20.5990  -32.0610 C   0  0  0  0  0  0  0  0  0  0  0  0
   -5.2580   21.7550  -31.7610 C   0  0  0  0  0  0  0  0  0  0  0  0
   -6.7200   21.9810  -31.8260 C   0  0  0  0  0  0  0  0  0  0  0  0
   -7.2250   23.2210  -32.2530 C   0  0  0  0  0  0  0  0  0  0  0  0
   -8.6050   23.4370  -32.3180 C   0  0  0  0  0  0  0  0  0  0  0  0
   -9.4910   22.4210  -31.9520 C   0  0  0  0  0  0  0  0  0  0  0  0
   -8.9980   21.1880  -31.5170 C   0  0  0  0  0  0  0  0  0  0  0  0
   -7.6200   20.9680  -31.4500 C   0  0  0  0  0  0  0  0  0  0  0  0
   -4.2970   22.6380  -31.3050 C   0  0  0  0  0  0  0  0  0  0  0  0
   -4.5150   23.8010  -30.8710 O   0  0  0  0  0  0  0  0  0  0  0  0
   -3.0800   22.0600  -31.3450 N   0  0  0  0  0  0  0  0  0  0  0  0
   -1.8320   22.6540  -30.8520 C   0  0  0  0  0  0  0  0  0  0  0  0
   -2.0690   23.3290  -29.5330 C   0  0  0  0  0  0  0  0  0  0  0  0
   -2.8400   22.7130  -28.5350 C   0  0  0  0  0  0  0  0  0  0  0  0
   -3.0530   23.3800  -27.3270 C   0  0  0  0  0  0  0  0  0  0  0  0
   -2.4990   24.6450  -27.1240 C   0  0  0  0  0  0  0  0  0  0  0  0
   -1.7360   25.2270  -28.1390 C   0  0  0  0  0  0  0  0  0  0  0  0
   -1.5410   24.5640  -29.3090 N   0  0  0  0  0  0  0  0  0  0  0  0
   -3.2230   20.8220  -31.8130 N   0  0  0  0  0  0  0  0  0  0  0  0
   -2.1340   19.8550  -31.9830 C   0  0  0  0  0  0  0  0  0  0  0  0
   -5.0220   19.0630  -33.9760 C   0  0  0  0  0  0  0  0  0  0  0  0
   -5.5340   17.8650  -34.4810 C   0  0  0  0  0  0  0  0  0  0  0  0
   -6.9993   15.0013  -33.3366 H   0  0  0  0  0  0  0  0  0  0  0  0
   -7.5787   15.8924  -34.7847 H   0  0  0  0  0  0  0  0  0  0  0  0
   -5.9459   15.1436  -34.7847 H   0  0  0  0  0  0  0  0  0  0  0  0
   -6.6850   16.4873  -31.5699 H   0  0  0  0  0  0  0  0  0  0  0  0
   -5.7630   18.6205  -30.6655 H   0  0  0  0  0  0  0  0  0  0  0  0
   -6.5312   24.0258  -32.5375 H   0  0  0  0  0  0  0  0  0  0  0  0
   -8.9934   24.4084  -32.6578 H   0  0  0  0  0  0  0  0  0  0  0  0
  -10.5764   22.5915  -32.0062 H   0  0  0  0  0  0  0  0  0  0  0  0
   -9.6962   20.3891  -31.2268 H   0  0  0  0  0  0  0  0  0  0  0  0
   -7.2371   19.9975  -31.1014 H   0  0  0  0  0  0  0  0  0  0  0  0
   -1.0776   21.8635  -30.7260 H   0  0  0  0  0  0  0  0  0  0  0  0
   -1.4755   23.3986  -31.5790 H   0  0  0  0  0  0  0  0  0  0  0  0
   -3.2719   21.7153  -28.7027 H   0  0  0  0  0  0  0  0  0  0  0  0
   -3.6563   22.9094  -26.5367 H   0  0  0  0  0  0  0  0  0  0  0  0
   -2.6615   25.1776  -26.1753 H   0  0  0  0  0  0  0  0  0  0  0  0
   -1.2927   26.2228  -27.9911 H   0  0  0  0  0  0  0  0  0  0  0  0
   -1.7718   19.5333  -30.9954 H   0  0  0  0  0  0  0  0  0  0  0  0
   -2.5030   18.9815  -32.5406 H   0  0  0  0  0  0  0  0  0  0  0  0
   -1.3103   20.3247  -32.5406 H   0  0  0  0  0  0  0  0  0  0  0  0
   -4.5538   19.7892  -34.6568 H   0  0  0  0  0  0  0  0  0  0  0  0
   -5.4793   17.6584  -35.5600 H   0  0  0  0  0  0  0  0  0  0  0  0
  1  2  1  0
  2  3  2  0
  3  4  1  0
  4  5  2  0
  5  6  1  0
  6  7  2  0
  7  8  1  0
  8  9  2  0
  9 10  1  0
 10 11  2  0
 11 12  1  0
 12 13  2  0
  7 14  1  0
 14 15  2  0
 14 16  1  0
 16 17  1  0
 17 18  1  0
 18 19  2  0
 19 20  1  0
 20 21  2  0
 21 22  1  0
 22 23  2  0
 16 24  1  0
 24 25  1  0
  5 26  1  0
 26 27  2  0
 27  2  1  0
 24  6  1  0
 13  8  1  0
 23 18  1  0
  1 28  1  0
  1 29  1  0
  1 30  1  0
  3 31  1  0
  4 32  1  0
  9 33  1  0
 10 34  1  0
 11 35  1  0
 12 36  1  0
 13 37  1  0
 17 38  1  0
 17 39  1  0
 19 40  1  0
 20 41  1  0
 21 42  1  0
 22 43  1  0
 25 44  1  0
 25 45  1  0
 25 46  1  0
 26 47  1  0
 27 48  1  0
M  END
>  <UniqueID>  (7) 
6

>  <SMILES>  (7) 
Cc1ccc(-c2c(-c3ccccc3)c(=O)n(Cc3ccccn3)n2C)cc1

>  <Energy>  (7) 
94.63239237733387

>  <Genealogy>  (7) 
Cc1ccc(-c2c(-c3ccccc3)c(=O)n(Cc3ccccn3)n2C)cc1 (3D coordinates assigned)
Cc1ccc(-c2c(-c3ccccc3)c(=O)n(Cc3ccccn3)n2C)cc1 (optimized conformer: 94.63239237733387 kcal/mol)

>  <smiles>  (7) 
Cc1ccc(-c2c(-c3ccccc3)c(=O)n(Cc3ccccn3)n2C)cc1

>  <score_type>  (7) 
oracle

>  <origin>  (7) 
adgpu

>  <m_score__min__energy>  (7) 
-9.0299999999999994

>  <m_primary>  (7) 
energy

$$$$
7:0
     RDKit          3D

 28 30  0  0  0  0  0  0  0  0999 V2000
    0.2830   25.5130  -25.4150 F   0  0  0  0  0  0  0  0  0  0  0  0
   -0.6330   25.2630  -26.3830 C   0  0  0  0  0  0  0  0  0  0  0  0
   -1.9780   25.0910  -26.0460 C   0  0  0  0  0  0  0  0  0  0  0  0
   -2.9230   24.8330  -27.0420 C   0  0  0  0  0  0  0  0  0  0  0  0
   -2.5340   24.7450  -28.3930 C   0  0  0  0  0  0  0  0  0  0  0  0
   -3.5510   24.4690  -29.4380 C   0  0  0  0  0  0  0  0  0  0  0  0
   -4.3780   23.3640  -29.5280 C   0  0  0  0  0  0  0  0  0  0  0  0
   -5.1270   23.5900  -30.6700 C   0  0  0  0  0  0  0  0  0  0  0  0
   -6.1790   22.7120  -31.2400 C   0  0  0  0  0  0  0  0  0  0  0  0
   -7.5130   22.8480  -30.8090 C   0  0  0  0  0  0  0  0  0  0  0  0
   -8.5150   22.0280  -31.3370 C   0  0  0  0  0  0  0  0  0  0  0  0
   -8.2000   21.0650  -32.2980 C   0  0  0  0  0  0  0  0  0  0  0  0
   -6.8820   20.9200  -32.7340 C   0  0  0  0  0  0  0  0  0  0  0  0
   -6.5770   19.9850  -33.6680 F   0  0  0  0  0  0  0  0  0  0  0  0
   -5.8740   21.7370  -32.2100 C   0  0  0  0  0  0  0  0  0  0  0  0
   -4.7570   24.7640  -31.2180 N   0  0  0  0  0  0  0  0  0  0  0  0
   -3.8010   25.2970  -30.4720 N   0  0  0  0  0  0  0  0  0  0  0  0
   -1.1750   24.9200  -28.7190 C   0  0  0  0  0  0  0  0  0  0  0  0
   -0.2330   25.1780  -27.7190 C   0  0  0  0  0  0  0  0  0  0  0  0
   -2.2934   25.1589  -24.9944 H   0  0  0  0  0  0  0  0  0  0  0  0
   -3.9799   24.6974  -26.7689 H   0  0  0  0  0  0  0  0  0  0  0  0
   -4.4289   22.5017  -28.8470 H   0  0  0  0  0  0  0  0  0  0  0  0
   -7.7683   23.6042  -30.0521 H   0  0  0  0  0  0  0  0  0  0  0  0
   -9.5541   22.1418  -30.9945 H   0  0  0  0  0  0  0  0  0  0  0  0
   -8.9902   20.4210  -32.7112 H   0  0  0  0  0  0  0  0  0  0  0  0
   -4.8373   21.6172  -32.5576 H   0  0  0  0  0  0  0  0  0  0  0  0
   -0.8525   24.8531  -29.7685 H   0  0  0  0  0  0  0  0  0  0  0  0
    0.8257   25.3144  -27.9845 H   0  0  0  0  0  0  0  0  0  0  0  0
  1  2  1  0
  2  3  2  0
  3  4  1  0
  4  5  2  0
  5  6  1  0
  6  7  2  0
  7  8  1  0
  8  9  1  0
  9 10  2  0
 10 11  1  0
 11 12  2  0
 12 13  1  0
 13 14  1  0
 13 15  2  0
  8 16  2  0
 16 17  1  0
  5 18  1  0
 18 19  2  0
 19  2  1  0
 17  6  1  0
 15  9  1  0
  3 20  1  0
  4 21  1  0
  7 22  1  0
 10 23  1  0
 11 24  1  0
 12 25  1  0
 15 26  1  0
 18 27  1  0
 19 28  1  0
M  CHG  1  17  -1
M  END
>  <UniqueID>  (8) 
7

>  <SMILES>  (8) 
Fc1ccc(-c2cc(-c3cccc(F)c3)n[n-]2)cc1

>  <Energy>  (8) 
63.33087692554962

>  <Genealogy>  (8) 
Fc1ccc(-c2cc(-c3cccc(F)c3)n[n-]2)cc1 (protonated)
Fc1ccc(-c2cc(-c3cccc(F)c3)n[n-]2)cc1 (3D coordinates assigned)
Fc1ccc(-c2cc(-c3cccc(F)c3)n[n-]2)cc1 (optimized conformer: 63.33087692554962 kcal/mol)

>  <smiles>  (8) 
Fc1ccc(-c2cc(-c3cccc(F)c3)n[nH]2)cc1

>  <score_type>  (8) 
oracle

>  <origin>  (8) 
adgpu

>  <m_score__min__energy>  (8) 
-9.0800000000000001

>  <m_primary>  (8) 
energy

$$$$
8:0
     RDKit          3D

 38 39  0  0  0  0  0  0  0  0999 V2000
   -2.3340   19.8580  -27.0310 C   0  0  0  0  0  0  0  0  0  0  0  0
   -1.6660   21.0760  -27.3430 O   0  0  0  0  0  0  0  0  0  0  0  0
   -2.1990   22.0840  -28.1600 C   0  0  0  0  0  0  0  0  0  0  0  0
   -2.8190   23.1790  -27.5490 C   0  0  0  0  0  0  0  0  0  0  0  0
   -3.3640   24.2090  -28.3210 C   0  0  0  0  0  0  0  0  0  0  0  0
   -3.2810   24.1700  -29.7170 C   0  0  0  0  0  0  0  0  0  0  0  0
   -3.8690   25.2400  -30.4690 N   0  0  0  0  0  0  0  0  0  0  0  0
   -5.2660   25.5420  -30.5810 C   0  0  0  0  0  0  0  0  0  0  0  0
   -5.7380   26.6070  -30.0990 O   0  0  0  0  0  0  0  0  0  0  0  0
   -6.1910   24.5460  -31.2080 C   0  0  0  0  0  0  0  0  0  0  0  0
   -5.4320   23.4260  -31.7650 N   0  0  0  0  0  0  0  0  0  0  0  0
   -5.9930   22.1390  -32.0910 C   0  0  0  0  0  0  0  0  0  0  0  0
   -5.2120   21.0960  -32.6240 C   0  0  0  0  0  0  0  0  0  0  0  0
   -5.7910   19.8610  -32.9250 C   0  0  0  0  0  0  0  0  0  0  0  0
   -7.1550   19.6400  -32.7070 C   0  0  0  0  0  0  0  0  0  0  0  0
   -7.6860   18.3820  -33.0260 O   0  0  0  0  0  0  0  0  0  0  0  0
   -6.9070   17.2030  -33.2070 C   0  0  0  0  0  0  0  0  0  0  0  0
   -7.9420   20.6820  -32.1830 C   0  0  0  0  0  0  0  0  0  0  0  0
   -7.3640   21.9180  -31.8810 C   0  0  0  0  0  0  0  0  0  0  0  0
   -2.6790   23.0610  -30.3380 C   0  0  0  0  0  0  0  0  0  0  0  0
   -2.1350   22.0300  -29.5660 C   0  0  0  0  0  0  0  0  0  0  0  0
   -2.3967   19.7436  -25.9388 H   0  0  0  0  0  0  0  0  0  0  0  0
   -3.3482   19.8766  -27.4566 H   0  0  0  0  0  0  0  0  0  0  0  0
   -1.7732   19.0128  -27.4566 H   0  0  0  0  0  0  0  0  0  0  0  0
   -2.8782   23.2300  -26.4518 H   0  0  0  0  0  0  0  0  0  0  0  0
   -3.8619   25.0565  -27.8272 H   0  0  0  0  0  0  0  0  0  0  0  0
   -6.8878   24.1681  -30.4453 H   0  0  0  0  0  0  0  0  0  0  0  0
   -6.7487   25.0377  -32.0187 H   0  0  0  0  0  0  0  0  0  0  0  0
   -4.4210   23.5960  -31.9760 H   0  0  0  0  0  0  0  0  0  0  0  0
   -4.1386   21.2547  -32.8046 H   0  0  0  0  0  0  0  0  0  0  0  0
   -5.1680   19.0539  -33.3377 H   0  0  0  0  0  0  0  0  0  0  0  0
   -6.6339   16.7896  -32.2249 H   0  0  0  0  0  0  0  0  0  0  0  0
   -7.4922   16.4594  -33.7679 H   0  0  0  0  0  0  0  0  0  0  0  0
   -5.9935   17.4496  -33.7679 H   0  0  0  0  0  0  0  0  0  0  0  0
   -9.0167   20.5231  -32.0103 H   0  0  0  0  0  0  0  0  0  0  0  0
   -7.9895   22.7264  -31.4745 H   0  0  0  0  0  0  0  0  0  0  0  0
   -2.6360   23.0045  -31.4357 H   0  0  0  0  0  0  0  0  0  0  0  0
   -1.6545   21.1722  -30.0593 H   0  0  0  0  0  0  0  0  0  0  0  0
  1  2  1  0
  2  3  1  0
  3  4  2  0
  4  5  1  0
  5  6  2  0
  6  7  1  0
  7  8  1  0
  8  9  2  0
  8 10  1  0
 10 11  1  0
 11 12  1  0
 12 13  2  0
 13 14  1  0
 14 15  2  0
 15 16  1  0
 16 17  1  0
 15 18  1  0
 18 19  2  0
  6 20  1  0
 20 21  2  0
 21  3  1  0
 19 12  1  0
  1 22  1  0
  1 23  1  0
  1 24  1  0
  4 25  1  0
  5 26  1  0
 10 27  1  0
 10 28  1  0
 11 29  1  0
 13 30  1  0
 14 31  1  0
 17 32  1  0
 17 33  1  0
 17 34  1  0
 18 35  1  0
 19 36  1  0
 20 37  1  0
 21 38  1  0
M  CHG  1   7  -1
M  END
>  <UniqueID>  (9) 
8

>  <SMILES>  (9) 
COc1ccc([N-]C(=O)CNc2ccc(OC)cc2)cc1

>  <Energy>  (9) 
38.88734692220442

>  <Genealogy>  (9) 
COc1ccc([N-]C(=O)CNc2ccc(OC)cc2)cc1 (protonated)
COc1ccc([N-]C(=O)CNc2ccc(OC)cc2)cc1 (3D coordinates assigned)
COc1ccc([N-]C(=O)CNc2ccc(OC)cc2)cc1 (optimized conformer: 38.88734692220442 kcal/mol)

>  <smiles>  (9) 
COc1ccc(NCC(=O)Nc2ccc(OC)cc2)cc1

>  <score_type>  (9) 
oracle

>  <origin>  (9) 
adgpu

>  <m_score__min__energy>  (9) 
-7.5499999999999998

>  <m_primary>  (9) 
energy

$$$$
9:0
     RDKit          3D

 29 29  0  0  0  0  0  0  0  0999 V2000
   -9.1320   21.4120  -31.2490 C   0  0  0  0  0  0  0  0  0  0  0  0
   -7.9650   21.9630  -31.9460 N   0  0  0  0  0  0  0  0  0  0  0  0
   -7.8360   23.4240  -32.0750 C   0  0  0  0  0  0  0  0  0  0  0  0
   -6.5710   23.9450  -31.3710 C   0  0  0  0  0  0  0  0  0  0  0  0
   -5.3650   23.7330  -32.1680 N   0  0  0  0  0  0  0  0  0  0  0  0
   -7.0270   21.0520  -32.5600 C   0  0  0  0  0  0  0  0  0  0  0  0
   -5.7890   21.2670  -32.4490 O   0  0  0  0  0  0  0  0  0  0  0  0
   -7.4780   19.9250  -33.3320 N   0  0  0  0  0  0  0  0  0  0  0  0
   -6.6760   18.7560  -33.5760 C   0  0  0  0  0  0  0  0  0  0  0  0
   -5.7270   18.7740  -34.6110 C   0  0  0  0  0  0  0  0  0  0  0  0
   -4.9510   17.6420  -34.8810 C   0  0  0  0  0  0  0  0  0  0  0  0
   -5.1260   16.4780  -34.1280 C   0  0  0  0  0  0  0  0  0  0  0  0
   -4.3740   15.3810  -34.3920 F   0  0  0  0  0  0  0  0  0  0  0  0
   -6.0810   16.4420  -33.1090 C   0  0  0  0  0  0  0  0  0  0  0  0
   -6.8580   17.5730  -32.8360 C   0  0  0  0  0  0  0  0  0  0  0  0
   -8.9781   21.4847  -30.1622 H   0  0  0  0  0  0  0  0  0  0  0  0
  -10.0300   21.9812  -31.5310 H   0  0  0  0  0  0  0  0  0  0  0  0
   -9.2631   20.3569  -31.5310 H   0  0  0  0  0  0  0  0  0  0  0  0
   -7.7837   23.6849  -33.1423 H   0  0  0  0  0  0  0  0  0  0  0  0
   -8.7114   23.8901  -31.5992 H   0  0  0  0  0  0  0  0  0  0  0  0
   -6.6878   25.0231  -31.1862 H   0  0  0  0  0  0  0  0  0  0  0  0
   -6.4552   23.3861  -30.4307 H   0  0  0  0  0  0  0  0  0  0  0  0
   -4.7600   23.0210  -31.6970 H   0  0  0  0  0  0  0  0  0  0  0  0
   -5.6390   23.3630  -33.1060 H   0  0  0  0  0  0  0  0  0  0  0  0
   -8.3840   20.0030  -33.8420 H   0  0  0  0  0  0  0  0  0  0  0  0
   -5.5930   19.6845  -35.2135 H   0  0  0  0  0  0  0  0  0  0  0  0
   -4.2025   17.6681  -35.6866 H   0  0  0  0  0  0  0  0  0  0  0  0
   -6.2222   15.5234  -32.5206 H   0  0  0  0  0  0  0  0  0  0  0  0
   -7.6151   17.5373  -32.0388 H   0  0  0  0  0  0  0  0  0  0  0  0
  1  2  1  0
  2  3  1  0
  3  4  1  0
  4  5  1  0
  2  6  1  0
  6  7  2  0
  6  8  1  0
  8  9  1  0
  9 10  2  0
 10 11  1  0
 11 12  2  0
 12 13  1  0
 12 14  1  0
 14 15  2  0
 15  9  1  0
  1 16  1  0
  1 17  1  0
  1 18  1  0
  3 19  1  0
  3 20  1  0
  4 21  1  0
  4 22  1  0
  5 23  1  0
  5 24  1  0
  8 25  1  0
 10 26  1  0
 11 27  1  0
 14 28  1  0
 15 29  1  0
M  END
>  <UniqueID>  (10) 
9

>  <SMILES>  (10) 
CN(CCN)C(=O)Nc1ccc(F)cc1

>  <Energy>  (10) 
27.456938530152826

>  <Genealogy>  (10) 
CN(CCN)C(=O)Nc1ccc(F)cc1 (3D coordinates assigned)
CN(CCN)C(=O)Nc1ccc(F)cc1 (optimized conformer: 27.456938530152826 kcal/mol)

>  <smiles>  (10) 
CN(CCN)C(=O)Nc1ccc(F)cc1

>  <score_type>  (10) 
oracle

>  <origin>  (10) 
adgpu

>  <m_score__min__energy>  (10) 
-5.1200000000000001

>  <m_primary>  (10) 
energy

$$$$
10:0
     RDKit          3D

 34 36  0  0  0  0  0  0  0  0999 V2000
    1.0800   25.8110  -25.4700 C   0  0  0  0  0  0  0  0  0  0  0  0
    1.0910   25.6840  -26.8870 O   0  0  0  0  0  0  0  0  0  0  0  0
    0.0350   25.1160  -27.6040 C   0  0  0  0  0  0  0  0  0  0  0  0
   -1.2780   25.4760  -27.2930 C   0  0  0  0  0  0  0  0  0  0  0  0
   -2.3350   24.9110  -28.0100 C   0  0  0  0  0  0  0  0  0  0  0  0
   -2.0730   23.9960  -29.0440 C   0  0  0  0  0  0  0  0  0  0  0  0
   -3.1350   23.3720  -29.7880 N   0  0  0  0  0  0  0  0  0  0  0  0
   -4.1550   24.1000  -30.4920 C   0  0  0  0  0  0  0  0  0  0  0  0
   -3.9440   25.2950  -30.8410 O   0  0  0  0  0  0  0  0  0  0  0  0
   -5.4260   23.4430  -30.8820 C   0  0  0  0  0  0  0  0  0  0  0  0
   -6.6210   24.1820  -30.8550 C   0  0  0  0  0  0  0  0  0  0  0  0
   -7.7970   23.6090  -31.2140 N   0  0  0  0  0  0  0  0  0  0  0  0
   -7.8770   22.3100  -31.6040 C   0  0  0  0  0  0  0  0  0  0  0  0
   -9.1140   21.7670  -31.9670 C   0  0  0  0  0  0  0  0  0  0  0  0
   -9.2030   20.4290  -32.3620 C   0  0  0  0  0  0  0  0  0  0  0  0
   -8.0570   19.6300  -32.3950 C   0  0  0  0  0  0  0  0  0  0  0  0
   -6.8160   20.1630  -32.0340 C   0  0  0  0  0  0  0  0  0  0  0  0
   -6.7120   21.5100  -31.6360 C   0  0  0  0  0  0  0  0  0  0  0  0
   -5.4810   22.0840  -31.2620 C   0  0  0  0  0  0  0  0  0  0  0  0
   -4.4350   21.3770  -31.2450 O   0  0  0  0  0  0  0  0  0  0  0  0
   -0.7410   23.6480  -29.3090 C   0  0  0  0  0  0  0  0  0  0  0  0
    0.2700   24.2120  -28.5970 N   0  0  0  0  0  0  0  0  0  0  0  0
    1.1663   24.8147  -25.0119 H   0  0  0  0  0  0  0  0  0  0  0  0
    1.9274   26.4358  -25.1513 H   0  0  0  0  0  0  0  0  0  0  0  0
    0.1378   26.2808  -25.1513 H   0  0  0  0  0  0  0  0  0  0  0  0
   -1.4783   26.1995  -26.4890 H   0  0  0  0  0  0  0  0  0  0  0  0
   -3.3726   25.1822  -27.7654 H   0  0  0  0  0  0  0  0  0  0  0  0
   -3.1020   22.3350  -29.9130 H   0  0  0  0  0  0  0  0  0  0  0  0
   -6.6026   25.2357  -30.5396 H   0  0  0  0  0  0  0  0  0  0  0  0
  -10.0177   22.3936  -31.9416 H   0  0  0  0  0  0  0  0  0  0  0  0
  -10.1768   20.0044  -32.6473 H   0  0  0  0  0  0  0  0  0  0  0  0
   -8.1316   18.5776  -32.7062 H   0  0  0  0  0  0  0  0  0  0  0  0
   -5.9180   19.5283  -32.0609 H   0  0  0  0  0  0  0  0  0  0  0  0
   -0.5131   22.9150  -30.0969 H   0  0  0  0  0  0  0  0  0  0  0  0
  1  2  1  0
  2  3  1  0
  3  4  2  0
  4  5  1  0
  5  6  2  0
  6  7  1  0
  7  8  1  0
  8  9  2  0
  8 10  1  0
 10 11  2  0
 11 12  1  0
 12 13  1  0
 13 14  2  0
 14 15  1  0
 15 16  2  0
 16 17  1  0
 17 18  2  0
 18 19  1  0
 19 20  2  0
  6 21  1  0
 21 22  2  0
 22  3  1  0
 19 10  1  0
 18 13  1  0
  1 23  1  0
  1 24  1  0
  1 25  1  0
  4 26  1  0
  5 27  1  0
  7 28  1  0
 11 29  1  0
 14 30  1  0
 15 31  1  0
 16 32  1  0
 17 33  1  0
 21 34  1  0
M  CHG  1  12  -1
M  END
>  <UniqueID>  (11) 
10

>  <SMILES>  (11) 
COc1ccc(NC(=O)c2c[n-]c3ccccc3c2=O)cn1

>  <Energy>  (11) 
47.77057452577029

>  <Genealogy>  (11) 
COc1ccc(NC(=O)c2c[n-]c3ccccc3c2=O)cn1 (protonated)
COc1ccc(NC(=O)c2c[n-]c3ccccc3c2=O)cn1 (3D coordinates assigned)
COc1ccc(NC(=O)c2c[n-]c3ccccc3c2=O)cn1 (optimized conformer: 47.77057452577029 kcal/mol)

>  <smiles>  (11) 
COc1ccc(NC(=O)c2c[nH]c3ccccc3c2=O)cn1

>  <score_type>  (11) 
oracle

>  <origin>  (11) 
adgpu

>  <m_score__min__energy>  (11) 
-7.6500000000000004

>  <m_primary>  (11) 
energy

$$$$
11:0
     RDKit          3D

 39 40  0  0  0  0  0  0  0  0999 V2000
   -0.6526   19.0494  -27.5867 H   0  0  0  0  0  0  0  0  0  0  0  0
   -1.3170   19.9020  -27.7910 C   0  0  0  0  0  0  0  0  0  0  0  0
   -2.6240   19.9180  -27.1010 C   0  0  0  0  0  0  0  0  0  0  0  0
   -3.4470   20.8260  -27.3880 O   0  0  0  0  0  0  0  0  0  0  0  0
   -3.0370   18.8530  -26.1280 C   0  0  0  0  0  0  0  0  0  0  0  0
   -2.8948   19.2198  -25.1007 H   0  0  0  0  0  0  0  0  0  0  0  0
   -4.0969   18.6040  -26.2850 H   0  0  0  0  0  0  0  0  0  0  0  0
   -2.4221   17.9545  -26.2850 H   0  0  0  0  0  0  0  0  0  0  0  0
   -0.8690   20.8360  -28.6450 C   0  0  0  0  0  0  0  0  0  0  0  0
    0.1843   20.7754  -28.9564 H   0  0  0  0  0  0  0  0  0  0  0  0
   -1.6810   21.9390  -29.1990 C   0  0  0  0  0  0  0  0  0  0  0  0
   -2.6680   21.6980  -30.1650 C   0  0  0  0  0  0  0  0  0  0  0  0
   -2.8589   20.6705  -30.5081 H   0  0  0  0  0  0  0  0  0  0  0  0
   -3.4090   22.7550  -30.6930 C   0  0  0  0  0  0  0  0  0  0  0  0
   -4.1912   22.5541  -31.4398 H   0  0  0  0  0  0  0  0  0  0  0  0
   -3.1630   24.0770  -30.2770 C   0  0  0  0  0  0  0  0  0  0  0  0
   -3.9040   25.1670  -30.7660 O   0  0  0  0  0  0  0  0  0  0  0  0
   -5.2730   25.4380  -30.4620 C   0  0  0  0  0  0  0  0  0  0  0  0
   -5.3644   25.6778  -29.3924 H   0  0  0  0  0  0  0  0  0  0  0  0
   -5.6090   26.2876  -31.0746 H   0  0  0  0  0  0  0  0  0  0  0  0
   -6.1360   24.2450  -30.7760 C   0  0  0  0  0  0  0  0  0  0  0  0
   -6.7960   23.5610  -29.7410 C   0  0  0  0  0  0  0  0  0  0  0  0
   -6.6804   23.8987  -28.7005 H   0  0  0  0  0  0  0  0  0  0  0  0
   -7.5990   22.4530  -30.0280 C   0  0  0  0  0  0  0  0  0  0  0  0
   -8.1084   21.9177  -29.2132 H   0  0  0  0  0  0  0  0  0  0  0  0
   -7.7550   22.0250  -31.3490 C   0  0  0  0  0  0  0  0  0  0  0  0
   -8.3841   21.1509  -31.5730 H   0  0  0  0  0  0  0  0  0  0  0  0
   -7.1120   22.7070  -32.3860 C   0  0  0  0  0  0  0  0  0  0  0  0
   -7.2379   22.3708  -33.4258 H   0  0  0  0  0  0  0  0  0  0  0  0
   -6.3090   23.8160  -32.1030 C   0  0  0  0  0  0  0  0  0  0  0  0
   -5.8107   24.3549  -32.9223 H   0  0  0  0  0  0  0  0  0  0  0  0
   -2.1470   24.3300  -29.3430 C   0  0  0  0  0  0  0  0  0  0  0  0
   -1.9110   25.6610  -28.9610 O   0  0  0  0  0  0  0  0  0  0  0  0
   -1.2180   26.0500  -27.7790 C   0  0  0  0  0  0  0  0  0  0  0  0
   -1.7901   25.7289  -26.8961 H   0  0  0  0  0  0  0  0  0  0  0  0
   -0.2247   25.5776  -27.7640 H   0  0  0  0  0  0  0  0  0  0  0  0
   -1.1040   27.1440  -27.7640 H   0  0  0  0  0  0  0  0  0  0  0  0
   -1.4010   23.2570  -28.8160 C   0  0  0  0  0  0  0  0  0  0  0  0
   -0.5920   23.4560  -28.0978 H   0  0  0  0  0  0  0  0  0  0  0  0
  1  2  1  0
  2  3  1  0
  3  4  2  0
  3  5  1  0
  5  6  1  0
  5  7  1  0
  5  8  1  0
  2  9  2  0
  9 10  1  0
  9 11  1  0
 11 12  2  0
 12 13  1  0
 12 14  1  0
 14 15  1  0
 14 16  2  0
 16 17  1  0
 17 18  1  0
 18 19  1  0
 18 20  1  0
 18 21  1  0
 21 22  2  0
 22 23  1  0
 22 24  1  0
 24 25  1  0
 24 26  2  0
 26 27  1  0
 26 28  1  0
 28 29  1  0
 28 30  2  0
 30 31  1  0
 16 32  1  0
 32 33  1  0
 33 34  1  0
 34 35  1  0
 34 36  1  0
 34 37  1  0
 32 38  2  0
 38 39  1  0
 38 11  1  0
 30 21  1  0
M  END
>  <UniqueID>  (12) 
11

>  <SMILES>  (12) 
COc1cc(/C=C\C(C)=O)ccc1OCc1ccccc1

>  <Energy>  (12) 
45.9743586114396

>  <Genealogy>  (12) 
COc1cc(/C=C\C(C)=O)ccc1OCc1ccccc1 (cis-trans isomerization)
COc1cc(/C=C\C(C)=O)ccc1OCc1ccccc1 (3D coordinates assigned)
COc1cc(/C=C\C(C)=O)ccc1OCc1ccccc1 (optimized conformer: 45.9743586114396 kcal/mol)

>  <smiles>  (12) 
COc1cc(C=CC(C)=O)ccc1OCc1ccccc1

>  <score_type>  (12) 
oracle

>  <origin>  (12) 
adgpu

>  <m_score__min__energy>  (12) 
-8.3200000000000003

>  <m_primary>  (12) 
energy

$$$$
12:0
     RDKit          3D

 41 43  0  0  1  0  0  0  0  0999 V2000
   -7.8160   18.1950  -31.9790 C   0  0  0  0  0  0  0  0  0  0  0  0
   -8.9820   19.1200  -31.6990 C   0  0  0  0  0  0  0  0  0  0  0  0
   -8.8500   20.3590  -32.3280 O   0  0  0  0  0  0  0  0  0  0  0  0
   -7.9440   21.3540  -31.9840 C   0  0  0  0  0  0  0  0  0  0  0  0
   -6.6930   21.2720  -32.5970 C   0  0  0  0  0  0  0  0  0  0  0  0
   -5.7130   22.2060  -32.3320 C   0  0  0  0  0  0  0  0  0  0  0  0
   -5.9930   23.2380  -31.4370 C   0  0  0  0  0  0  0  0  0  0  0  0
   -4.9620   24.1680  -31.1980 N   0  0  0  0  0  0  0  0  0  0  0  0
   -4.2480   24.0370  -30.1110 C   0  0  0  0  0  0  0  0  0  0  0  0
   -4.4990   23.0280  -29.2390 N   0  0  0  0  0  0  0  0  0  0  0  0
   -3.7610   22.8820  -28.1030 C   0  0  0  0  0  0  0  0  0  0  0  0
   -2.7540   23.8080  -27.8940 C   0  0  0  0  0  0  0  0  0  0  0  0
   -2.0110   23.6670  -26.7570 F   0  0  0  0  0  0  0  0  0  0  0  0
   -2.4820   24.8370  -28.7630 C   0  0  0  0  0  0  0  0  0  0  0  0
   -1.5330   25.6890  -28.5380 N   0  0  0  0  0  0  0  0  0  0  0  0
   -0.7230   25.5870  -27.3590 C   0  0  0  0  0  0  0  0  0  0  0  0
   -1.0850   26.2340  -26.1900 C   0  0  0  0  0  0  0  0  0  0  0  0
   -0.3180   26.1460  -25.0460 C   0  0  0  0  0  0  0  0  0  0  0  0
    0.8290   25.3850  -25.1120 C   0  0  0  0  0  0  0  0  0  0  0  0
    1.6430   25.2460  -24.0250 F   0  0  0  0  0  0  0  0  0  0  0  0
    1.2000   24.7360  -26.2680 C   0  0  0  0  0  0  0  0  0  0  0  0
    0.4330   24.8210  -27.4210 C   0  0  0  0  0  0  0  0  0  0  0  0
   -3.2440   24.9310  -29.8660 N   0  0  0  0  0  0  0  0  0  0  0  0
   -7.2420   23.3110  -30.8320 C   0  0  0  0  0  0  0  0  0  0  0  0
   -8.2350   22.3700  -31.0960 C   0  0  0  0  0  0  0  0  0  0  0  0
   -7.3835   17.8519  -31.0276 H   0  0  0  0  0  0  0  0  0  0  0  0
   -8.1670   17.3270  -32.5564 H   0  0  0  0  0  0  0  0  0  0  0  0
   -7.0506   18.7343  -32.5564 H   0  0  0  0  0  0  0  0  0  0  0  0
   -9.9052   18.6405  -32.0564 H   0  0  0  0  0  0  0  0  0  0  0  0
   -9.0104   19.2996  -30.6141 H   0  0  0  0  0  0  0  0  0  0  0  0
   -6.4857   20.4521  -33.3005 H   0  0  0  0  0  0  0  0  0  0  0  0
   -4.7285   22.1379  -32.8179 H   0  0  0  0  0  0  0  0  0  0  0  0
   -5.2810   22.3430  -29.4450 H   0  0  0  0  0  0  0  0  0  0  0  0
   -3.9558   22.0691  -27.3880 H   0  0  0  0  0  0  0  0  0  0  0  0
   -2.0072   26.8334  -26.1724 H   0  0  0  0  0  0  0  0  0  0  0  0
   -0.6102   26.6621  -24.1196 H   0  0  0  0  0  0  0  0  0  0  0  0
    2.1232   24.1380  -26.2777 H   0  0  0  0  0  0  0  0  0  0  0  0
    0.7285   24.3032  -28.3454 H   0  0  0  0  0  0  0  0  0  0  0  0
   -3.1130   25.6660  -30.5690 H   0  0  0  0  0  0  0  0  0  0  0  0
   -7.4514   24.1304  -30.1286 H   0  0  0  0  0  0  0  0  0  0  0  0
   -9.2205   22.4347  -30.6117 H   0  0  0  0  0  0  0  0  0  0  0  0
  1  2  1  0
  2  3  1  0
  3  4  1  0
  4  5  2  0
  5  6  1  0
  6  7  2  0
  7  8  1  0
  8  9  2  0
  9 10  1  0
 10 11  1  0
 11 12  2  0
 12 13  1  0
 12 14  1  0
 14 15  2  0
 15 16  1  0
 16 17  2  0
 17 18  1  0
 18 19  2  0
 19 20  1  0
 19 21  1  0
 21 22  2  0
 14 23  1  0
  7 24  1  0
 24 25  2  0
 25  4  1  0
 23  9  1  0
 22 16  1  0
  1 26  1  0
  1 27  1  0
  1 28  1  0
  2 29  1  0
  2 30  1  0
  5 31  1  0
  6 32  1  0
 10 33  1  0
 11 34  1  0
 17 35  1  0
 18 36  1  0
 21 37  1  0
 22 38  1  0
 23 39  1  0
 24 40  1  0
 25 41  1  0
M  END
>  <smiles>  (13) 
CCOc1ccc(N=c2[nH]cc(F)c(=Nc3ccc(F)cc3)[nH]2)cc1

>  <score_type>  (13) 
oracle

>  <origin>  (13) 
adgpu

>  <m_score__min__energy>  (13) 
-8.0099999999999998

>  <m_primary>  (13) 
energy

$$$$
13:0
     RDKit          3D

 32 33  0  0  0  0  0  0  0  0999 V2000
   -6.9130   14.9780  -34.2170 C   0  0  0  0  0  0  0  0  0  0  0  0
   -6.1870   16.2360  -33.8430 C   0  0  0  0  0  0  0  0  0  0  0  0
   -5.7050   17.0980  -34.8410 C   0  0  0  0  0  0  0  0  0  0  0  0
   -5.0640   18.2890  -34.4930 C   0  0  0  0  0  0  0  0  0  0  0  0
   -4.9060   18.6430  -33.1440 C   0  0  0  0  0  0  0  0  0  0  0  0
   -4.2300   19.9380  -32.7790 C   0  0  0  0  0  0  0  0  0  0  0  0
   -5.0320   21.0800  -33.2250 N   0  0  0  0  0  0  0  0  0  0  0  0
   -5.7610   21.9480  -32.3320 C   0  0  0  0  0  0  0  0  0  0  0  0
   -5.1600   23.1080  -31.8040 C   0  0  0  0  0  0  0  0  0  0  0  0
   -5.8630   23.9570  -30.9310 C   0  0  0  0  0  0  0  0  0  0  0  0
   -5.2400   25.1380  -30.3910 N   0  0  0  0  0  0  0  0  0  0  0  0
   -5.9270   26.0280  -29.8490 O   0  0  0  0  0  0  0  0  0  0  0  0
   -3.8770   25.3070  -30.4680 O   0  0  0  0  0  0  0  0  0  0  0  0
   -7.1870   23.6380  -30.5930 C   0  0  0  0  0  0  0  0  0  0  0  0
   -7.7950   22.4960  -31.1140 C   0  0  0  0  0  0  0  0  0  0  0  0
   -7.0940   21.6510  -31.9790 C   0  0  0  0  0  0  0  0  0  0  0  0
   -7.9890   20.0760  -32.6120 Br  0  0  0  0  0  0  0  0  0  0  0  0
   -5.3990   17.7870  -32.1470 C   0  0  0  0  0  0  0  0  0  0  0  0
   -6.0430   16.5950  -32.4950 C   0  0  0  0  0  0  0  0  0  0  0  0
   -7.2197   14.4465  -33.3041 H   0  0  0  0  0  0  0  0  0  0  0  0
   -7.8038   15.2314  -34.8106 H   0  0  0  0  0  0  0  0  0  0  0  0
   -6.2480   14.3335  -34.8106 H   0  0  0  0  0  0  0  0  0  0  0  0
   -5.8328   16.8342  -35.9012 H   0  0  0  0  0  0  0  0  0  0  0  0
   -4.6806   18.9538  -35.2810 H   0  0  0  0  0  0  0  0  0  0  0  0
   -4.1070   19.9867  -31.6870 H   0  0  0  0  0  0  0  0  0  0  0  0
   -3.2484   19.9782  -33.2738 H   0  0  0  0  0  0  0  0  0  0  0  0
   -5.1240   21.2130  -34.2550 H   0  0  0  0  0  0  0  0  0  0  0  0
   -4.1237   23.3534  -32.0793 H   0  0  0  0  0  0  0  0  0  0  0  0
   -7.7496   24.2935  -29.9120 H   0  0  0  0  0  0  0  0  0  0  0  0
   -8.8341   22.2585  -30.8421 H   0  0  0  0  0  0  0  0  0  0  0  0
   -5.2784   18.0547  -31.0869 H   0  0  0  0  0  0  0  0  0  0  0  0
   -6.4383   15.9362  -31.7077 H   0  0  0  0  0  0  0  0  0  0  0  0
  1  2  1  0
  2  3  2  0
  3  4  1  0
  4  5  2  0
  5  6  1  0
  6  7  1  0
  7  8  1  0
  8  9  2  0
  9 10  1  0
 10 11  1  0
 11 12  2  0
 11 13  1  0
 10 14  2  0
 14 15  1  0
 15 16  2  0
 16 17  1  0
  5 18  1  0
 18 19  2  0
 19  2  1  0
 16  8  1  0
  1 20  1  0
  1 21  1  0
  1 22  1  0
  3 23  1  0
  4 24  1  0
  6 25  1  0
  6 26  1  0
  7 27  1  0
  9 28  1  0
 14 29  1  0
 15 30  1  0
 18 31  1  0
 19 32  1  0
M  CHG  2  11   1  13  -1
M  END
>  <UniqueID>  (14) 
12

>  <SMILES>  (14) 
Cc1ccc(CNc2cc([N+](=O)[O-])ccc2Br)cc1

>  <Energy>  (14) 
33.64653486086381

>  <Genealogy>  (14) 
Cc1ccc(CNc2cc([N+](=O)[O-])ccc2Br)cc1 (3D coordinates assigned)
Cc1ccc(CNc2cc([N+](=O)[O-])ccc2Br)cc1 (optimized conformer: 33.64653486086381 kcal/mol)

>  <smiles>  (14) 
Cc1ccc(CNc2cc([N+](=O)[O-])ccc2Br)cc1

>  <score_type>  (14) 
oracle

>  <origin>  (14) 
adgpu

>  <m_score__min__energy>  (14) 
-8.3699999999999992

>  <m_primary>  (14) 
energy

$$$$
14:0
     RDKit          3D

 40 41  0  0  0  0  0  0  0  0999 V2000
   -1.5220   25.2780  -28.5930 C   0  0  0  0  0  0  0  0  0  0  0  0
   -2.6570   24.3490  -29.0110 C   0  0  0  0  0  0  0  0  0  0  0  0
   -3.4260   24.9290  -30.1130 N   0  0  0  0  0  0  0  0  0  0  0  0
   -4.7830   24.5580  -30.4360 C   0  0  0  0  0  0  0  0  0  0  0  0
   -5.8610   25.2890  -29.9050 C   0  0  0  0  0  0  0  0  0  0  0  0
   -7.1740   24.9070  -30.1610 C   0  0  0  0  0  0  0  0  0  0  0  0
   -7.4380   23.7780  -30.9300 C   0  0  0  0  0  0  0  0  0  0  0  0
   -6.3910   23.0200  -31.4730 C   0  0  0  0  0  0  0  0  0  0  0  0
   -6.7290   21.7910  -32.2260 C   0  0  0  0  0  0  0  0  0  0  0  0
   -5.9190   21.3430  -33.0830 O   0  0  0  0  0  0  0  0  0  0  0  0
   -7.9610   21.0990  -31.9720 N   0  0  0  0  0  0  0  0  0  0  0  0
   -8.3680   19.9230  -32.7390 C   0  0  0  0  0  0  0  0  0  0  0  0
   -7.2920   18.8740  -32.6910 C   0  0  0  0  0  0  0  0  0  0  0  0
   -6.4970   18.6100  -33.8190 C   0  0  0  0  0  0  0  0  0  0  0  0
   -5.5190   17.6110  -33.7730 C   0  0  0  0  0  0  0  0  0  0  0  0
   -5.3300   16.8680  -32.6050 C   0  0  0  0  0  0  0  0  0  0  0  0
   -6.1200   17.1210  -31.4800 C   0  0  0  0  0  0  0  0  0  0  0  0
   -7.1000   18.1180  -31.5220 C   0  0  0  0  0  0  0  0  0  0  0  0
   -5.0460   23.4340  -31.2650 C   0  0  0  0  0  0  0  0  0  0  0  0
   -3.9020   22.7050  -31.9350 C   0  0  0  0  0  0  0  0  0  0  0  0
   -1.4691   25.3213  -27.4951 H   0  0  0  0  0  0  0  0  0  0  0  0
   -0.5703   24.8964  -28.9912 H   0  0  0  0  0  0  0  0  0  0  0  0
   -1.7080   26.2864  -28.9912 H   0  0  0  0  0  0  0  0  0  0  0  0
   -2.2343   23.3862  -29.3341 H   0  0  0  0  0  0  0  0  0  0  0  0
   -3.3280   24.2042  -28.1515 H   0  0  0  0  0  0  0  0  0  0  0  0
   -2.9520   25.6650  -30.6840 H   0  0  0  0  0  0  0  0  0  0  0  0
   -5.6637   26.1726  -29.2803 H   0  0  0  0  0  0  0  0  0  0  0  0
   -8.0065   25.4997  -29.7539 H   0  0  0  0  0  0  0  0  0  0  0  0
   -8.4798   23.4767  -31.1140 H   0  0  0  0  0  0  0  0  0  0  0  0
   -8.6240   21.4740  -31.2570 H   0  0  0  0  0  0  0  0  0  0  0  0
   -9.2946   19.5129  -32.3110 H   0  0  0  0  0  0  0  0  0  0  0  0
   -8.5359   20.2174  -33.7855 H   0  0  0  0  0  0  0  0  0  0  0  0
   -6.6442   19.1909  -34.7414 H   0  0  0  0  0  0  0  0  0  0  0  0
   -4.8975   17.4100  -34.6581 H   0  0  0  0  0  0  0  0  0  0  0  0
   -4.5594   16.0838  -32.5707 H   0  0  0  0  0  0  0  0  0  0  0  0
   -5.9708   16.5355  -30.5608 H   0  0  0  0  0  0  0  0  0  0  0  0
   -7.7231   18.3112  -30.6363 H   0  0  0  0  0  0  0  0  0  0  0  0
   -3.2374   22.2815  -31.1675 H   0  0  0  0  0  0  0  0  0  0  0  0
   -4.3011   21.8943  -32.5623 H   0  0  0  0  0  0  0  0  0  0  0  0
   -3.3357   23.4092  -32.5623 H   0  0  0  0  0  0  0  0  0  0  0  0
  1  2  1  0
  2  3  1  0
  3  4  1  0
  4  5  2  0
  5  6  1  0
  6  7  2  0
  7  8  1  0
  8  9  1  0
  9 10  2  0
  9 11  1  0
 11 12  1  0
 12 13  1  0
 13 14  2  0
 14 15  1  0
 15 16  2  0
 16 17  1  0
 17 18  2  0
  8 19  2  0
 19 20  1  0
 19  4  1  0
 18 13  1  0
  1 21  1  0
  1 22  1  0
  1 23  1  0
  2 24  1  0
  2 25  1  0
  3 26  1  0
  5 27  1  0
  6 28  1  0
  7 29  1  0
 11 30  1  0
 12 31  1  0
 12 32  1  0
 14 33  1  0
 15 34  1  0
 16 35  1  0
 17 36  1  0
 18 37  1  0
 20 38  1  0
 20 39  1  0
 20 40  1  0
M  END
>  <UniqueID>  (15) 
13

>  <SMILES>  (15) 
CCNc1cccc(C(=O)NCc2ccccc2)c1C

>  <Energy>  (15) 
43.06367040976424

>  <Genealogy>  (15) 
CCNc1cccc(C(=O)NCc2ccccc2)c1C (3D coordinates assigned)
CCNc1cccc(C(=O)NCc2ccccc2)c1C (optimized conformer: 43.06367040976424 kcal/mol)

>  <smiles>  (15) 
CCNc1cccc(C(=O)NCc2ccccc2)c1C

>  <score_type>  (15) 
oracle

>  <origin>  (15) 
adgpu

>  <m_score__min__energy>  (15) 
-7.75

>  <m_primary>  (15) 
energy

$$$$
15:0
     RDKit          3D

 33 34  0  0  0  0  0  0  0  0999 V2000
   -2.5060   21.5250  -32.1700 C   0  0  0  0  0  0  0  0  0  0  0  0
   -2.8790   22.4830  -31.1210 N   0  0  0  0  0  0  0  0  0  0  0  0
   -1.9130   22.8200  -30.0690 C   0  0  0  0  0  0  0  0  0  0  0  0
   -4.2010   23.0740  -31.1490 C   0  0  0  0  0  0  0  0  0  0  0  0
   -5.3430   22.3230  -31.4890 C   0  0  0  0  0  0  0  0  0  0  0  0
   -6.6010   22.9520  -31.4960 C   0  0  0  0  0  0  0  0  0  0  0  0
   -7.8090   22.2340  -31.8440 N   0  0  0  0  0  0  0  0  0  0  0  0
   -9.0960   22.9270  -31.9700 C   0  0  0  0  0  0  0  0  0  0  0  0
   -7.7490   20.8180  -32.1030 C   0  0  0  0  0  0  0  0  0  0  0  0
   -8.5320   19.9240  -31.3530 C   0  0  0  0  0  0  0  0  0  0  0  0
   -8.4700   18.5500  -31.6060 C   0  0  0  0  0  0  0  0  0  0  0  0
   -7.6280   18.0590  -32.6070 C   0  0  0  0  0  0  0  0  0  0  0  0
   -6.8440   18.9420  -33.3570 C   0  0  0  0  0  0  0  0  0  0  0  0
   -6.9040   20.3160  -33.1070 C   0  0  0  0  0  0  0  0  0  0  0  0
   -6.6750   24.2730  -31.1770 N   0  0  0  0  0  0  0  0  0  0  0  0
   -5.5710   24.9880  -30.8500 C   0  0  0  0  0  0  0  0  0  0  0  0
   -4.3530   24.3900  -30.8390 N   0  0  0  0  0  0  0  0  0  0  0  0
   -2.1441   20.5956  -31.7060 H   0  0  0  0  0  0  0  0  0  0  0  0
   -3.3842   21.3051  -32.7948 H   0  0  0  0  0  0  0  0  0  0  0  0
   -1.7103   21.9568  -32.7948 H   0  0  0  0  0  0  0  0  0  0  0  0
   -2.3736   22.6593  -29.0831 H   0  0  0  0  0  0  0  0  0  0  0  0
   -1.0248   22.1786  -30.1677 H   0  0  0  0  0  0  0  0  0  0  0  0
   -1.6165   23.8747  -30.1677 H   0  0  0  0  0  0  0  0  0  0  0  0
   -5.2521   21.2573  -31.7460 H   0  0  0  0  0  0  0  0  0  0  0  0
   -9.4961   23.1424  -30.9682 H   0  0  0  0  0  0  0  0  0  0  0  0
   -8.9526   23.8699  -32.5181 H   0  0  0  0  0  0  0  0  0  0  0  0
   -9.8042   22.2883  -32.5181 H   0  0  0  0  0  0  0  0  0  0  0  0
   -9.1962   20.3064  -30.5639 H   0  0  0  0  0  0  0  0  0  0  0  0
   -9.0851   17.8547  -31.0160 H   0  0  0  0  0  0  0  0  0  0  0  0
   -7.5816   16.9780  -32.8053 H   0  0  0  0  0  0  0  0  0  0  0  0
   -6.1799   18.5549  -34.1439 H   0  0  0  0  0  0  0  0  0  0  0  0
   -6.2867   21.0075  -33.6992 H   0  0  0  0  0  0  0  0  0  0  0  0
   -5.6624   26.0537  -30.5934 H   0  0  0  0  0  0  0  0  0  0  0  0
  1  2  1  0
  2  3  1  0
  2  4  1  0
  4  5  2  0
  5  6  1  0
  6  7  1  0
  7  8  1  0
  7  9  1  0
  9 10  2  0
 10 11  1  0
 11 12  2  0
 12 13  1  0
 13 14  2  0
  6 15  2  0
 15 16  1  0
 16 17  2  0
 17  4  1  0
 14  9  1  0
  1 18  1  0
  1 19  1  0
  1 20  1  0
  3 21  1  0
  3 22  1  0
  3 23  1  0
  5 24  1  0
  8 25  1  0
  8 26  1  0
  8 27  1  0
 10 28  1  0
 11 29  1  0
 12 30  1  0
 13 31  1  0
 14 32  1  0
 16 33  1  0
M  END
>  <UniqueID>  (16) 
14

>  <SMILES>  (16) 
CN(C)c1cc(N(C)c2ccccc2)ncn1

>  <Energy>  (16) 
40.775255506988685

>  <Genealogy>  (16) 
CN(C)c1cc(N(C)c2ccccc2)ncn1 (3D coordinates assigned)
CN(C)c1cc(N(C)c2ccccc2)ncn1 (optimized conformer: 40.775255506988685 kcal/mol)

>  <smiles>  (16) 
CN(C)c1cc(N(C)c2ccccc2)ncn1

>  <score_type>  (16) 
oracle

>  <origin>  (16) 
adgpu

>  <m_score__min__energy>  (16) 
-6.5

>  <m_primary>  (16) 
energy

$$$$
16:0
     RDKit          3D

 41 44  0  0  0  0  0  0  0  0999 V2000
   -2.6410   18.5640  -26.2420 C   0  0  0  0  0  0  0  0  0  0  0  0
   -1.8110   19.4650  -27.1100 C   0  0  0  0  0  0  0  0  0  0  0  0
   -2.3290   20.6890  -27.5650 C   0  0  0  0  0  0  0  0  0  0  0  0
   -1.5640   21.5260  -28.3960 C   0  0  0  0  0  0  0  0  0  0  0  0
   -2.1130   22.8240  -28.8520 C   0  0  0  0  0  0  0  0  0  0  0  0
   -1.5760   24.1110  -28.7160 C   0  0  0  0  0  0  0  0  0  0  0  0
   -0.2820   24.4860  -28.0650 C   0  0  0  0  0  0  0  0  0  0  0  0
   -2.4160   25.0140  -29.2770 N   0  0  0  0  0  0  0  0  0  0  0  0
   -3.4470   24.3510  -29.7710 N   0  0  0  0  0  0  0  0  0  0  0  0
   -4.5270   24.8470  -30.4250 C   0  0  0  0  0  0  0  0  0  0  0  0
   -4.6410   26.0830  -30.6440 O   0  0  0  0  0  0  0  0  0  0  0  0
   -5.5110   23.9470  -30.8560 C   0  0  0  0  0  0  0  0  0  0  0  0
   -5.3440   22.5630  -30.5840 C   0  0  0  0  0  0  0  0  0  0  0  0
   -6.3490   21.5580  -31.0170 C   0  0  0  0  0  0  0  0  0  0  0  0
   -7.7180   21.8130  -30.8250 C   0  0  0  0  0  0  0  0  0  0  0  0
   -8.6770   20.8850  -31.2330 C   0  0  0  0  0  0  0  0  0  0  0  0
   -8.2890   19.6890  -31.8450 C   0  0  0  0  0  0  0  0  0  0  0  0
   -9.5280   18.5470  -32.3460 Cl  0  0  0  0  0  0  0  0  0  0  0  0
   -6.9260   19.4260  -32.0540 C   0  0  0  0  0  0  0  0  0  0  0  0
   -6.3950   17.9440  -32.8370 Cl  0  0  0  0  0  0  0  0  0  0  0  0
   -5.9640   20.3580  -31.6440 C   0  0  0  0  0  0  0  0  0  0  0  0
   -4.2230   22.1380  -29.9250 N   0  0  0  0  0  0  0  0  0  0  0  0
   -3.2930   23.0440  -29.5370 C   0  0  0  0  0  0  0  0  0  0  0  0
   -0.2710   21.1250  -28.7650 C   0  0  0  0  0  0  0  0  0  0  0  0
    0.2440   19.9040  -28.3240 C   0  0  0  0  0  0  0  0  0  0  0  0
   -0.5220   19.0720  -27.5030 C   0  0  0  0  0  0  0  0  0  0  0  0
   -0.0070   17.8870  -27.0900 F   0  0  0  0  0  0  0  0  0  0  0  0
   -2.4375   18.7849  -25.1838 H   0  0  0  0  0  0  0  0  0  0  0  0
   -3.7074   18.7320  -26.4531 H   0  0  0  0  0  0  0  0  0  0  0  0
   -2.3862   17.5149  -26.4531 H   0  0  0  0  0  0  0  0  0  0  0  0
   -3.3429   20.9954  -27.2682 H   0  0  0  0  0  0  0  0  0  0  0  0
   -0.3983   24.4523  -26.9717 H   0  0  0  0  0  0  0  0  0  0  0  0
    0.5018   23.7780  -28.3724 H   0  0  0  0  0  0  0  0  0  0  0  0
    0.0018   25.5033  -28.3724 H   0  0  0  0  0  0  0  0  0  0  0  0
   -2.2830   26.0490  -29.3260 H   0  0  0  0  0  0  0  0  0  0  0  0
   -6.3989   24.3068  -31.3965 H   0  0  0  0  0  0  0  0  0  0  0  0
   -8.0361   22.7523  -30.3490 H   0  0  0  0  0  0  0  0  0  0  0  0
   -9.7446   21.0956  -31.0722 H   0  0  0  0  0  0  0  0  0  0  0  0
   -4.8972   20.1501  -31.8137 H   0  0  0  0  0  0  0  0  0  0  0  0
    0.3411   21.7766  -29.4059 H   0  0  0  0  0  0  0  0  0  0  0  0
    1.2565   19.5960  -28.6240 H   0  0  0  0  0  0  0  0  0  0  0  0
  1  2  1  0
  2  3  2  0
  3  4  1  0
  4  5  1  0
  5  6  2  0
  6  7  1  0
  6  8  1  0
  8  9  1  0
  9 10  1  0
 10 11  2  0
 10 12  1  0
 12 13  2  0
 13 14  1  0
 14 15  2  0
 15 16  1  0
 16 17  2  0
 17 18  1  0
 17 19  1  0
 19 20  1  0
 19 21  2  0
 13 22  1  0
 22 23  2  0
  4 24  2  0
 24 25  1  0
 25 26  2  0
 26 27  1  0
 26  2  1  0
 23  5  1  0
 23  9  1  0
 21 14  1  0
  1 28  1  0
  1 29  1  0
  1 30  1  0
  3 31  1  0
  7 32  1  0
  7 33  1  0
  7 34  1  0
  8 35  1  0
 12 36  1  0
 15 37  1  0
 16 38  1  0
 21 39  1  0
 24 40  1  0
 25 41  1  0
M  END
>  <UniqueID>  (17) 
15

>  <SMILES>  (17) 
Cc1cc(-c2c(C)[nH]n3c(=O)cc(-c4ccc(Cl)c(Cl)c4)nc23)ccc1F

>  <Energy>  (17) 
91.98998070241736

>  <Genealogy>  (17) 
Cc1cc(-c2c(C)[nH]n3c(=O)cc(-c4ccc(Cl)c(Cl)c4)nc23)ccc1F (3D coordinates assigned)
Cc1cc(-c2c(C)[nH]n3c(=O)cc(-c4ccc(Cl)c(Cl)c4)nc23)ccc1F (optimized conformer: 91.98998070241736 kcal/mol)

>  <smiles>  (17) 
Cc1cc(-c2c(C)[nH]n3c(=O)cc(-c4ccc(Cl)c(Cl)c4)nc23)ccc1F

>  <score_type>  (17) 
oracle

>  <origin>  (17) 
adgpu

>  <m_score__min__energy>  (17) 
-10.01

>  <m_primary>  (17) 
energy

$$$$
17:0
     RDKit          3D

 46 49  0  0  0  0  0  0  0  0999 V2000
   -3.3080   24.5490  -29.3290 C   0  0  0  0  0  0  0  0  0  0  0  0
   -3.8410   25.2670  -30.4230 O   0  0  0  0  0  0  0  0  0  0  0  0
   -5.1220   24.7680  -30.7610 C   0  0  0  0  0  0  0  0  0  0  0  0
   -5.0050   23.4290  -31.4340 C   0  0  0  0  0  0  0  0  0  0  0  0
   -6.0790   22.5420  -31.4610 C   0  0  0  0  0  0  0  0  0  0  0  0
   -5.9270   21.2900  -32.0690 C   0  0  0  0  0  0  0  0  0  0  0  0
   -7.0740   20.3480  -32.1090 C   0  0  0  0  0  0  0  0  0  0  0  0
   -6.8680   18.9700  -31.9120 C   0  0  0  0  0  0  0  0  0  0  0  0
   -7.9460   18.0810  -31.9440 C   0  0  0  0  0  0  0  0  0  0  0  0
   -9.2400   18.5580  -32.1680 C   0  0  0  0  0  0  0  0  0  0  0  0
   -9.4590   19.9250  -32.3580 C   0  0  0  0  0  0  0  0  0  0  0  0
   -8.3830   20.8180  -32.3260 C   0  0  0  0  0  0  0  0  0  0  0  0
   -4.6710   20.9550  -32.6140 C   0  0  0  0  0  0  0  0  0  0  0  0
   -4.5010   19.8260  -33.1500 O   0  0  0  0  0  0  0  0  0  0  0  0
   -3.6380   21.8570  -32.5450 N   0  0  0  0  0  0  0  0  0  0  0  0
   -2.2940   21.5490  -33.0520 C   0  0  0  0  0  0  0  0  0  0  0  0
   -1.6290   20.5100  -32.1690 C   0  0  0  0  0  0  0  0  0  0  0  0
   -1.3950   19.2390  -32.7240 C   0  0  0  0  0  0  0  0  0  0  0  0
   -0.7320   18.2600  -31.9880 C   0  0  0  0  0  0  0  0  0  0  0  0
   -0.3020   18.5260  -30.7300 N   0  0  0  0  0  0  0  0  0  0  0  0
   -0.4950   19.7380  -30.1450 C   0  0  0  0  0  0  0  0  0  0  0  0
   -0.0260   19.9530  -28.8440 C   0  0  0  0  0  0  0  0  0  0  0  0
   -0.2150   21.1890  -28.2240 C   0  0  0  0  0  0  0  0  0  0  0  0
   -0.8730   22.2170  -28.9000 C   0  0  0  0  0  0  0  0  0  0  0  0
   -1.3460   22.0170  -30.2000 C   0  0  0  0  0  0  0  0  0  0  0  0
   -1.1660   20.7750  -30.8490 C   0  0  0  0  0  0  0  0  0  0  0  0
   -3.8190   23.0500  -31.9720 N   0  0  0  0  0  0  0  0  0  0  0  0
   -3.6483   25.0074  -28.3888 H   0  0  0  0  0  0  0  0  0  0  0  0
   -3.6515   23.5050  -29.3733 H   0  0  0  0  0  0  0  0  0  0  0  0
   -2.2092   24.5756  -29.3733 H   0  0  0  0  0  0  0  0  0  0  0  0
   -5.7222   24.6616  -29.8453 H   0  0  0  0  0  0  0  0  0  0  0  0
   -5.6069   25.4725  -31.4527 H   0  0  0  0  0  0  0  0  0  0  0  0
   -7.0407   22.8236  -31.0073 H   0  0  0  0  0  0  0  0  0  0  0  0
   -5.8516   18.5899  -31.7316 H   0  0  0  0  0  0  0  0  0  0  0  0
   -7.7755   17.0049  -31.7927 H   0  0  0  0  0  0  0  0  0  0  0  0
  -10.0871   17.8568  -32.1948 H   0  0  0  0  0  0  0  0  0  0  0  0
  -10.4785   20.2991  -32.5329 H   0  0  0  0  0  0  0  0  0  0  0  0
   -8.5607   21.8938  -32.4712 H   0  0  0  0  0  0  0  0  0  0  0  0
   -2.3726   21.1585  -34.0773 H   0  0  0  0  0  0  0  0  0  0  0  0
   -1.6881   22.4671  -33.0465 H   0  0  0  0  0  0  0  0  0  0  0  0
   -1.7377   19.0169  -33.7454 H   0  0  0  0  0  0  0  0  0  0  0  0
   -0.5566   17.2676  -32.4288 H   0  0  0  0  0  0  0  0  0  0  0  0
    0.4935   19.1449  -28.3082 H   0  0  0  0  0  0  0  0  0  0  0  0
    0.1552   21.3529  -27.2012 H   0  0  0  0  0  0  0  0  0  0  0  0
   -1.0202   23.1895  -28.4075 H   0  0  0  0  0  0  0  0  0  0  0  0
   -1.8635   22.8347  -30.7230 H   0  0  0  0  0  0  0  0  0  0  0  0
  1  2  1  0
  2  3  1  0
  3  4  1  0
  4  5  1  0
  5  6  2  0
  6  7  1  0
  7  8  2  0
  8  9  1  0
  9 10  2  0
 10 11  1  0
 11 12  2  0
  6 13  1  0
 13 14  2  0
 13 15  1  0
 15 16  1  0
 16 17  1  0
 17 18  2  0
 18 19  1  0
 19 20  2  0
 20 21  1  0
 21 22  2  0
 22 23  1  0
 23 24  2  0
 24 25  1  0
 25 26  2  0
 15 27  1  0
 27  4  2  0
 12  7  1  0
 26 17  1  0
 26 21  1  0
  1 28  1  0
  1 29  1  0
  1 30  1  0
  3 31  1  0
  3 32  1  0
  5 33  1  0
  8 34  1  0
  9 35  1  0
 10 36  1  0
 11 37  1  0
 12 38  1  0
 16 39  1  0
 16 40  1  0
 18 41  1  0
 19 42  1  0
 22 43  1  0
 23 44  1  0
 24 45  1  0
 25 46  1  0
M  END
>  <UniqueID>  (18) 
16

>  <SMILES>  (18) 
COCc1cc(-c2ccccc2)c(=O)n(Cc2ccnc3ccccc23)n1

>  <Energy>  (18) 
66.17328698674496

>  <Genealogy>  (18) 
COCc1cc(-c2ccccc2)c(=O)n(Cc2ccnc3ccccc23)n1 (3D coordinates assigned)
COCc1cc(-c2ccccc2)c(=O)n(Cc2ccnc3ccccc23)n1 (optimized conformer: 66.17328698674496 kcal/mol)

>  <smiles>  (18) 
COCc1cc(-c2ccccc2)c(=O)n(Cc2ccnc3ccccc23)n1

>  <score_type>  (18) 
oracle

>  <origin>  (18) 
adgpu

>  <m_score__min__energy>  (18) 
-9.2899999999999991

>  <m_primary>  (18) 
energy

$$$$
18:0
     RDKit          3D

 38 41  0  0  0  0  0  0  0  0999 V2000
   -4.2940   24.9180  -26.2560 O   0  0  0  0  0  0  0  0  0  0  0  0
   -3.3770   24.5410  -27.0340 C   0  0  0  0  0  0  0  0  0  0  0  0
   -2.0500   24.8630  -26.7420 C   0  0  0  0  0  0  0  0  0  0  0  0
   -1.0340   24.4560  -27.6180 C   0  0  0  0  0  0  0  0  0  0  0  0
    0.3830   24.8010  -27.3920 C   0  0  0  0  0  0  0  0  0  0  0  0
    0.9170   25.5010  -26.3210 C   0  0  0  0  0  0  0  0  0  0  0  0
    2.2700   25.5910  -26.5730 C   0  0  0  0  0  0  0  0  0  0  0  0
    2.4830   24.9320  -27.7640 C   0  0  0  0  0  0  0  0  0  0  0  0
    1.3410   24.4800  -28.2310 O   0  0  0  0  0  0  0  0  0  0  0  0
   -1.3440   23.7540  -28.7090 O   0  0  0  0  0  0  0  0  0  0  0  0
   -2.5930   23.4180  -29.0230 C   0  0  0  0  0  0  0  0  0  0  0  0
   -2.8370   22.6940  -30.1980 C   0  0  0  0  0  0  0  0  0  0  0  0
   -4.1420   22.3710  -30.5800 C   0  0  0  0  0  0  0  0  0  0  0  0
   -4.3150   21.6160  -31.7540 O   0  0  0  0  0  0  0  0  0  0  0  0
   -5.3550   21.8070  -32.7160 C   0  0  0  0  0  0  0  0  0  0  0  0
   -6.4790   20.8410  -32.4160 C   0  0  0  0  0  0  0  0  0  0  0  0
   -6.3460   19.4510  -32.6860 C   0  0  0  0  0  0  0  0  0  0  0  0
   -4.8720   18.7560  -33.3600 Cl  0  0  0  0  0  0  0  0  0  0  0  0
   -7.4150   18.5850  -32.4430 C   0  0  0  0  0  0  0  0  0  0  0  0
   -8.6270   19.0670  -31.9490 C   0  0  0  0  0  0  0  0  0  0  0  0
   -8.7780   20.4320  -31.6990 C   0  0  0  0  0  0  0  0  0  0  0  0
   -7.7220   21.3150  -31.9340 C   0  0  0  0  0  0  0  0  0  0  0  0
   -8.0100   23.0310  -31.6470 Cl  0  0  0  0  0  0  0  0  0  0  0  0
   -5.2200   22.8000  -29.7830 C   0  0  0  0  0  0  0  0  0  0  0  0
   -4.9830   23.5000  -28.5920 C   0  0  0  0  0  0  0  0  0  0  0  0
   -3.6680   23.8200  -28.2070 C   0  0  0  0  0  0  0  0  0  0  0  0
   -1.8040   25.4310  -25.8327 H   0  0  0  0  0  0  0  0  0  0  0  0
    0.3747   25.9011  -25.4516 H   0  0  0  0  0  0  0  0  0  0  0  0
    3.0267   26.0887  -25.9488 H   0  0  0  0  0  0  0  0  0  0  0  0
    3.4612   24.8036  -28.2504 H   0  0  0  0  0  0  0  0  0  0  0  0
   -1.9920   22.3765  -30.8265 H   0  0  0  0  0  0  0  0  0  0  0  0
   -5.7291   22.8397  -32.6561 H   0  0  0  0  0  0  0  0  0  0  0  0
   -4.9658   21.6250  -33.7286 H   0  0  0  0  0  0  0  0  0  0  0  0
   -7.2994   17.5097  -32.6438 H   0  0  0  0  0  0  0  0  0  0  0  0
   -9.4600   18.3747  -31.7573 H   0  0  0  0  0  0  0  0  0  0  0  0
   -9.7349   20.8145  -31.3144 H   0  0  0  0  0  0  0  0  0  0  0  0
   -6.2524   22.5851  -30.0960 H   0  0  0  0  0  0  0  0  0  0  0  0
   -5.8285   23.8004  -27.9557 H   0  0  0  0  0  0  0  0  0  0  0  0
  1  2  2  0
  2  3  1  0
  3  4  2  0
  4  5  1  0
  5  6  2  0
  6  7  1  0
  7  8  2  0
  8  9  1  0
  4 10  1  0
 10 11  1  0
 11 12  2  0
 12 13  1  0
 13 14  1  0
 14 15  1  0
 15 16  1  0
 16 17  2  0
 17 18  1  0
 17 19  1  0
 19 20  2  0
 20 21  1  0
 21 22  2  0
 22 23  1  0
 13 24  2  0
 24 25  1  0
 25 26  2  0
 26  2  1  0
  9  5  1  0
 26 11  1  0
 22 16  1  0
  3 27  1  0
  6 28  1  0
  7 29  1  0
  8 30  1  0
 12 31  1  0
 15 32  1  0
 15 33  1  0
 19 34  1  0
 20 35  1  0
 21 36  1  0
 24 37  1  0
 25 38  1  0
M  END
>  <UniqueID>  (19) 
17

>  <SMILES>  (19) 
O=c1cc(-c2ccco2)oc2cc(OCc3c(Cl)cccc3Cl)ccc12

>  <Energy>  (19) 
78.67147870769513

>  <Genealogy>  (19) 
O=c1cc(-c2ccco2)oc2cc(OCc3c(Cl)cccc3Cl)ccc12 (3D coordinates assigned)
O=c1cc(-c2ccco2)oc2cc(OCc3c(Cl)cccc3Cl)ccc12 (optimized conformer: 78.67147870769513 kcal/mol)

>  <smiles>  (19) 
O=c1cc(-c2ccco2)oc2cc(OCc3c(Cl)cccc3Cl)ccc12

>  <score_type>  (19) 
oracle

>  <origin>  (19) 
adgpu

>  <m_score__min__energy>  (19) 
-8.3200000000000003

>  <m_primary>  (19) 
energy

$$$$
19:0
     RDKit          3D

 32 33  0  0  0  0  0  0  0  0999 V2000
   -6.6630   18.0800  -31.4360 C   0  0  0  0  0  0  0  0  0  0  0  0
   -7.8210   18.3060  -32.4130 C   0  0  0  0  0  0  0  0  0  0  0  0
   -7.7720   19.6590  -33.0340 N   0  0  0  0  0  0  0  0  0  0  0  0
   -6.4030   20.0420  -33.4520 C   0  0  0  0  0  0  0  0  0  0  0  0
   -5.7500   18.9960  -34.3580 C   0  0  0  0  0  0  0  0  0  0  0  0
   -8.3800   20.8620  -31.9140 S   0  0  0  0  0  0  0  0  0  0  0  0
   -8.7250   20.2040  -30.6060 O   0  0  0  0  0  0  0  0  0  0  0  0
   -9.6370   21.4780  -32.4660 O   0  0  0  0  0  0  0  0  0  0  0  0
   -7.1880   22.1320  -31.6360 C   0  0  0  0  0  0  0  0  0  0  0  0
   -7.4050   23.4390  -32.1420 C   0  0  0  0  0  0  0  0  0  0  0  0
   -6.4640   24.4620  -31.9150 C   0  0  0  0  0  0  0  0  0  0  0  0
   -5.3250   24.1410  -31.1830 C   0  0  0  0  0  0  0  0  0  0  0  0
   -4.3050   24.9500  -30.8470 N   0  0  0  0  0  0  0  0  0  0  0  0
   -3.5070   24.1000  -30.1500 C   0  0  0  0  0  0  0  0  0  0  0  0
   -2.4130   24.4570  -29.6410 O   0  0  0  0  0  0  0  0  0  0  0  0
   -3.9780   22.8680  -30.0540 O   0  0  0  0  0  0  0  0  0  0  0  0
   -5.1140   22.8860  -30.6970 C   0  0  0  0  0  0  0  0  0  0  0  0
   -6.0170   21.8470  -30.9000 C   0  0  0  0  0  0  0  0  0  0  0  0
   -7.0350   18.1526  -30.4034 H   0  0  0  0  0  0  0  0  0  0  0  0
   -6.2333   17.0810  -31.6015 H   0  0  0  0  0  0  0  0  0  0  0  0
   -5.8892   18.8441  -31.6015 H   0  0  0  0  0  0  0  0  0  0  0  0
   -7.7674   17.5481  -33.2085 H   0  0  0  0  0  0  0  0  0  0  0  0
   -8.7618   18.2253  -31.8488 H   0  0  0  0  0  0  0  0  0  0  0  0
   -8.4010   19.7060  -33.8690 H   0  0  0  0  0  0  0  0  0  0  0  0
   -6.4549   20.9964  -33.9964 H   0  0  0  0  0  0  0  0  0  0  0  0
   -5.7885   20.1260  -32.5435 H   0  0  0  0  0  0  0  0  0  0  0  0
   -5.2683   18.2245  -33.7393 H   0  0  0  0  0  0  0  0  0  0  0  0
   -6.5180   18.5302  -34.9930 H   0  0  0  0  0  0  0  0  0  0  0  0
   -4.9942   19.4814  -34.9930 H   0  0  0  0  0  0  0  0  0  0  0  0
   -8.3171   23.6558  -32.7173 H   0  0  0  0  0  0  0  0  0  0  0  0
   -6.6238   25.4789  -32.3027 H   0  0  0  0  0  0  0  0  0  0  0  0
   -5.8256   20.8398  -30.5015 H   0  0  0  0  0  0  0  0  0  0  0  0
  1  2  1  0
  2  3  1  0
  3  4  1  0
  4  5  1  0
  3  6  1  0
  6  7  2  0
  6  8  2  0
  6  9  1  0
  9 10  2  0
 10 11  1  0
 11 12  2  0
 12 13  1  0
 13 14  1  0
 14 15  2  0
 14 16  1  0
 16 17  1  0
 17 18  2  0
 18  9  1  0
 17 12  1  0
  1 19  1  0
  1 20  1  0
  1 21  1  0
  2 22  1  0
  2 23  1  0
  3 24  1  0
  4 25  1  0
  4 26  1  0
  5 27  1  0
  5 28  1  0
  5 29  1  0
 10 30  1  0
 11 31  1  0
 18 32  1  0
M  CHG  2   3   1  13  -1
M  END
>  <UniqueID>  (20) 
18

>  <SMILES>  (20) 
CC[NH+](CC)S(=O)(=O)c1ccc2[n-]c(=O)oc2c1

>  <Energy>  (20) 
69.04398028275602

>  <Genealogy>  (20) 
CC[NH+](CC)S(=O)(=O)c1ccc2[n-]c(=O)oc2c1 (protonated)
CC[NH+](CC)S(=O)(=O)c1ccc2[n-]c(=O)oc2c1 (3D coordinates assigned)
CC[NH+](CC)S(=O)(=O)c1ccc2[n-]c(=O)oc2c1 (optimized conformer: 69.04398028275602 kcal/mol)

>  <smiles>  (20) 
CCN(CC)S(=O)(=O)c1ccc2[nH]c(=O)oc2c1

>  <score_type>  (20) 
oracle

>  <origin>  (20) 
adgpu

>  <m_score__min__energy>  (20) 
-7.6399999999999997

>  <m_primary>  (20) 
energy

$$$$
20:0
     RDKit          3D

 36 39  0  0  0  0  0  0  0  0999 V2000
   -9.3630   18.8640  -32.3290 C   0  0  0  0  0  0  0  0  0  0  0  0
   -9.2390   20.2510  -32.6270 O   0  0  0  0  0  0  0  0  0  0  0  0
   -8.1910   21.0670  -32.1750 C   0  0  0  0  0  0  0  0  0  0  0  0
   -8.4470   21.9560  -31.1270 C   0  0  0  0  0  0  0  0  0  0  0  0
   -7.4370   22.7910  -30.6380 C   0  0  0  0  0  0  0  0  0  0  0  0
   -6.1480   22.7470  -31.1950 C   0  0  0  0  0  0  0  0  0  0  0  0
   -5.0780   23.6290  -30.6810 C   0  0  0  0  0  0  0  0  0  0  0  0
   -4.8080   24.8520  -31.1810 N   0  0  0  0  0  0  0  0  0  0  0  0
   -3.8180   25.2950  -30.4680 O   0  0  0  0  0  0  0  0  0  0  0  0
   -3.4850   24.4000  -29.5700 C   0  0  0  0  0  0  0  0  0  0  0  0
   -2.3990   24.5800  -28.5960 C   0  0  0  0  0  0  0  0  0  0  0  0
   -2.1630   23.6310  -27.5890 C   0  0  0  0  0  0  0  0  0  0  0  0
   -1.1190   23.8360  -26.6780 C   0  0  0  0  0  0  0  0  0  0  0  0
   -0.8580   22.9060  -25.6600 C   0  0  0  0  0  0  0  0  0  0  0  0
    0.1890   23.1260  -24.7600 C   0  0  0  0  0  0  0  0  0  0  0  0
    0.9790   24.2750  -24.8680 C   0  0  0  0  0  0  0  0  0  0  0  0
    0.7300   25.2090  -25.8780 C   0  0  0  0  0  0  0  0  0  0  0  0
   -0.3190   24.9950  -26.7870 C   0  0  0  0  0  0  0  0  0  0  0  0
   -0.5900   25.9160  -27.8080 C   0  0  0  0  0  0  0  0  0  0  0  0
   -1.6110   25.6880  -28.6760 N   0  0  0  0  0  0  0  0  0  0  0  0
   -4.2610   23.3030  -29.6560 N   0  0  0  0  0  0  0  0  0  0  0  0
   -5.8900   21.8530  -32.2480 C   0  0  0  0  0  0  0  0  0  0  0  0
   -6.9000   21.0200  -32.7340 C   0  0  0  0  0  0  0  0  0  0  0  0
   -9.3756   18.7230  -31.2381 H   0  0  0  0  0  0  0  0  0  0  0  0
  -10.2992   18.4788  -32.7593 H   0  0  0  0  0  0  0  0  0  0  0  0
   -8.5100   18.3188  -32.7593 H   0  0  0  0  0  0  0  0  0  0  0  0
   -9.4523   21.9993  -30.6827 H   0  0  0  0  0  0  0  0  0  0  0  0
   -7.6531   23.4858  -29.8130 H   0  0  0  0  0  0  0  0  0  0  0  0
   -2.7935   22.7326  -27.5158 H   0  0  0  0  0  0  0  0  0  0  0  0
   -1.4784   22.0021  -25.5700 H   0  0  0  0  0  0  0  0  0  0  0  0
    0.3919   22.3935  -23.9649 H   0  0  0  0  0  0  0  0  0  0  0  0
    1.7996   24.4445  -24.1554 H   0  0  0  0  0  0  0  0  0  0  0  0
    1.3549   26.1104  -25.9606 H   0  0  0  0  0  0  0  0  0  0  0  0
    0.0236   26.8236  -27.9070 H   0  0  0  0  0  0  0  0  0  0  0  0
   -4.8849   21.8090  -32.6928 H   0  0  0  0  0  0  0  0  0  0  0  0
   -6.6856   20.3235  -33.5580 H   0  0  0  0  0  0  0  0  0  0  0  0
  1  2  1  0
  2  3  1  0
  3  4  2  0
  4  5  1  0
  5  6  2  0
  6  7  1  0
  7  8  2  0
  8  9  1  0
  9 10  1  0
 10 11  1  0
 11 12  2  0
 12 13  1  0
 13 14  2  0
 14 15  1  0
 15 16  2  0
 16 17  1  0
 17 18  2  0
 18 19  1  0
 19 20  2  0
 10 21  2  0
  6 22  1  0
 22 23  2  0
 23  3  1  0
 21  7  1  0
 20 11  1  0
 18 13  1  0
  1 24  1  0
  1 25  1  0
  1 26  1  0
  4 27  1  0
  5 28  1  0
 12 29  1  0
 14 30  1  0
 15 31  1  0
 16 32  1  0
 17 33  1  0
 19 34  1  0
 22 35  1  0
 23 36  1  0
M  END
>  <UniqueID>  (21) 
19

>  <SMILES>  (21) 
COc1ccc(-c2noc(-c3cc4ccccc4cn3)n2)cc1

>  <Energy>  (21) 
77.02669209329241

>  <Genealogy>  (21) 
COc1ccc(-c2noc(-c3cc4ccccc4cn3)n2)cc1 (3D coordinates assigned)
COc1ccc(-c2noc(-c3cc4ccccc4cn3)n2)cc1 (optimized conformer: 77.02669209329241 kcal/mol)

>  <smiles>  (21) 
COc1ccc(-c2noc(-c3cc4ccccc4cn3)n2)cc1

>  <score_type>  (21) 
oracle

>  <origin>  (21) 
adgpu

>  <m_score__min__energy>  (21) 
-8.9299999999999997

>  <m_primary>  (21) 
energy

$$$$
21:0
     RDKit          3D

 32 34  0  0  0  0  0  0  0  0999 V2000
   -5.1680   12.2790  -32.8430 C   0  0  0  0  0  0  0  0  0  0  0  0
   -5.1800   13.3400  -33.7940 O   0  0  0  0  0  0  0  0  0  0  0  0
   -5.4960   14.6720  -33.4890 C   0  0  0  0  0  0  0  0  0  0  0  0
   -4.8220   15.4000  -32.4930 C   0  0  0  0  0  0  0  0  0  0  0  0
   -5.1750   16.7270  -32.2270 C   0  0  0  0  0  0  0  0  0  0  0  0
   -6.2070   17.3520  -32.9480 C   0  0  0  0  0  0  0  0  0  0  0  0
   -6.5680   18.7610  -32.6510 C   0  0  0  0  0  0  0  0  0  0  0  0
   -7.8220   19.3360  -32.7240 C   0  0  0  0  0  0  0  0  0  0  0  0
   -7.7140   20.6270  -32.3750 N   0  0  0  0  0  0  0  0  0  0  0  0
   -6.4060   20.8180  -32.0970 C   0  0  0  0  0  0  0  0  0  0  0  0
   -5.8130   22.1080  -31.6620 C   0  0  0  0  0  0  0  0  0  0  0  0
   -4.4260   22.3210  -31.6390 C   0  0  0  0  0  0  0  0  0  0  0  0
   -3.9250   23.5170  -31.2350 N   0  0  0  0  0  0  0  0  0  0  0  0
   -4.7450   24.5260  -30.8470 C   0  0  0  0  0  0  0  0  0  0  0  0
   -4.2400   25.6540  -30.4670 N   0  0  0  0  0  0  0  0  0  0  0  0
   -6.0920   24.3470  -30.8600 N   0  0  0  0  0  0  0  0  0  0  0  0
   -6.6380   23.1680  -31.2570 C   0  0  0  0  0  0  0  0  0  0  0  0
   -5.6760   19.6920  -32.2560 N   0  0  0  0  0  0  0  0  0  0  0  0
   -6.8790   16.6180  -33.9430 C   0  0  0  0  0  0  0  0  0  0  0  0
   -6.5230   15.2920  -34.2070 C   0  0  0  0  0  0  0  0  0  0  0  0
   -5.1727   12.6981  -31.8260 H   0  0  0  0  0  0  0  0  0  0  0  0
   -6.0591   11.6497  -32.9844 H   0  0  0  0  0  0  0  0  0  0  0  0
   -4.2629   11.6701  -32.9844 H   0  0  0  0  0  0  0  0  0  0  0  0
   -4.0129   14.9236  -31.9200 H   0  0  0  0  0  0  0  0  0  0  0  0
   -4.6398   17.2869  -31.4460 H   0  0  0  0  0  0  0  0  0  0  0  0
   -8.7498   18.8234  -33.0178 H   0  0  0  0  0  0  0  0  0  0  0  0
   -8.4960   21.3160  -32.3360 H   0  0  0  0  0  0  0  0  0  0  0  0
   -3.7426   21.5168  -31.9491 H   0  0  0  0  0  0  0  0  0  0  0  0
   -4.8470   26.4490  -30.1620 H   0  0  0  0  0  0  0  0  0  0  0  0
   -7.7310   23.0441  -31.2609 H   0  0  0  0  0  0  0  0  0  0  0  0
   -7.6897   17.0907  -34.5168 H   0  0  0  0  0  0  0  0  0  0  0  0
   -7.0567   14.7305  -34.9880 H   0  0  0  0  0  0  0  0  0  0  0  0
  1  2  1  0
  2  3  1  0
  3  4  2  0
  4  5  1  0
  5  6  2  0
  6  7  1  0
  7  8  2  0
  8  9  1  0
  9 10  1  0
 10 11  1  0
 11 12  1  0
 12 13  2  0
 13 14  1  0
 14 15  2  3
 14 16  1  0
 16 17  1  0
 10 18  2  0
  6 19  1  0
 19 20  2  0
 20  3  1  0
 18  7  1  0
 17 11  2  0
  1 21  1  0
  1 22  1  0
  1 23  1  0
  4 24  1  0
  5 25  1  0
  8 26  1  0
  9 27  1  0
 12 28  1  0
 15 29  1  0
 17 30  1  0
 19 31  1  0
 20 32  1  0
M  CHG  1  16  -1
M  END
>  <UniqueID>  (22) 
20

>  <SMILES>  (22) 
COc1ccc(-c2c[nH]c(-c3cnc(=N)[n-]c3)n2)cc1

>  <Energy>  (22) 
66.34289052802113

>  <Genealogy>  (22) 
COc1ccc(-c2c[nH]c(-c3cnc(=N)[n-]c3)n2)cc1 (protonated)
COc1ccc(-c2c[nH]c(-c3cnc(=N)[n-]c3)n2)cc1 (3D coordinates assigned)
COc1ccc(-c2c[nH]c(-c3cnc(=N)[n-]c3)n2)cc1 (optimized conformer: 66.34289052802113 kcal/mol)

>  <smiles>  (22) 
COc1ccc(-c2c[nH]c(-c3cnc(=N)[nH]c3)n2)cc1

>  <score_type>  (22) 
oracle

>  <origin>  (22) 
adgpu

>  <m_score__min__energy>  (22) 
-7.6200000000000001

>  <m_primary>  (22) 
energy

$$$$
22:0
     RDKit          3D

 30 32  0  0  0  0  0  0  0  0999 V2000
   -0.0550   25.6880  -26.4750 C   0  0  0  0  0  0  0  0  0  0  0  0
   -1.2920   25.3170  -27.2370 C   0  0  0  0  0  0  0  0  0  0  0  0
   -2.4520   24.9180  -26.5630 C   0  0  0  0  0  0  0  0  0  0  0  0
   -3.5850   24.5390  -27.2840 C   0  0  0  0  0  0  0  0  0  0  0  0
   -3.5490   24.5460  -28.6890 C   0  0  0  0  0  0  0  0  0  0  0  0
   -4.7170   24.1560  -29.5040 C   0  0  0  0  0  0  0  0  0  0  0  0
   -5.7120   24.9860  -30.0190 C   0  0  0  0  0  0  0  0  0  0  0  0
   -6.6890   24.3030  -30.7560 C   0  0  0  0  0  0  0  0  0  0  0  0
   -6.4800   22.9250  -30.8320 C   0  0  0  0  0  0  0  0  0  0  0  0
   -7.3290   21.9260  -31.5350 C   0  0  0  0  0  0  0  0  0  0  0  0
   -6.7480   20.9820  -32.4010 C   0  0  0  0  0  0  0  0  0  0  0  0
   -7.5540   20.0480  -33.0560 C   0  0  0  0  0  0  0  0  0  0  0  0
   -8.8980   20.0480  -32.8580 N   0  0  0  0  0  0  0  0  0  0  0  0
   -9.4930   20.9440  -32.0290 C   0  0  0  0  0  0  0  0  0  0  0  0
   -8.7250   21.8960  -31.3540 C   0  0  0  0  0  0  0  0  0  0  0  0
   -5.0690   22.5800  -29.9740 S   0  0  0  0  0  0  0  0  0  0  0  0
   -2.4010   24.9220  -29.3180 N   0  0  0  0  0  0  0  0  0  0  0  0
   -1.2860   25.2960  -28.6370 C   0  0  0  0  0  0  0  0  0  0  0  0
   -0.2573   25.6273  -25.3955 H   0  0  0  0  0  0  0  0  0  0  0  0
    0.7579   24.9941  -26.7353 H   0  0  0  0  0  0  0  0  0  0  0  0
    0.2419   26.7147  -26.7353 H   0  0  0  0  0  0  0  0  0  0  0  0
   -2.4705   24.9032  -25.4633 H   0  0  0  0  0  0  0  0  0  0  0  0
   -4.5012   24.2365  -26.7557 H   0  0  0  0  0  0  0  0  0  0  0  0
   -5.7286   26.0746  -29.8616 H   0  0  0  0  0  0  0  0  0  0  0  0
   -7.5432   24.8072  -31.2315 H   0  0  0  0  0  0  0  0  0  0  0  0
   -5.6599   20.9793  -32.5622 H   0  0  0  0  0  0  0  0  0  0  0  0
   -7.0993   19.3106  -33.7339 H   0  0  0  0  0  0  0  0  0  0  0  0
  -10.5837   20.9201  -31.8884 H   0  0  0  0  0  0  0  0  0  0  0  0
   -9.2097   22.6203  -30.6828 H   0  0  0  0  0  0  0  0  0  0  0  0
   -0.3773   25.5827  -29.1866 H   0  0  0  0  0  0  0  0  0  0  0  0
  1  2  1  0
  2  3  2  0
  3  4  1  0
  4  5  2  0
  5  6  1  0
  6  7  2  0
  7  8  1  0
  8  9  2  0
  9 10  1  0
 10 11  2  0
 11 12  1  0
 12 13  2  0
 13 14  1  0
 14 15  2  0
  9 16  1  0
  5 17  1  0
 17 18  2  0
 18  2  1  0
 16  6  1  0
 15 10  1  0
  1 19  1  0
  1 20  1  0
  1 21  1  0
  3 22  1  0
  4 23  1  0
  7 24  1  0
  8 25  1  0
 11 26  1  0
 12 27  1  0
 14 28  1  0
 15 29  1  0
 18 30  1  0
M  END
>  <UniqueID>  (23) 
21

>  <SMILES>  (23) 
Cc1ccc(-c2ccc(-c3ccncc3)s2)nc1

>  <Energy>  (23) 
62.92484222440416

>  <Genealogy>  (23) 
Cc1ccc(-c2ccc(-c3ccncc3)s2)nc1 (3D coordinates assigned)
Cc1ccc(-c2ccc(-c3ccncc3)s2)nc1 (optimized conformer: 62.92484222440416 kcal/mol)

>  <smiles>  (23) 
Cc1ccc(-c2ccc(-c3ccncc3)s2)nc1

>  <score_type>  (23) 
oracle

>  <origin>  (23) 
adgpu

>  <m_score__min__energy>  (23) 
-7.1799999999999997

>  <m_primary>  (23) 
energy

$$$$
23:0
     RDKit          3D

 45 48  0  0  0  0  0  0  0  0999 V2000
   -1.6810   22.3150  -27.1360 O   0  0  0  0  0  0  0  0  0  0  0  0
   -2.2280   23.0100  -28.0390 C   0  0  0  0  0  0  0  0  0  0  0  0
   -2.8690   22.3700  -29.1080 C   0  0  0  0  0  0  0  0  0  0  0  0
   -2.9770   20.6120  -29.1500 Cl  0  0  0  0  0  0  0  0  0  0  0  0
   -3.4410   23.1490  -30.1240 C   0  0  0  0  0  0  0  0  0  0  0  0
   -4.1080   22.5460  -31.2420 N   0  0  0  0  0  0  0  0  0  0  0  0
   -5.5500   22.7530  -31.4370 C   0  0  0  0  0  0  0  0  0  0  0  0
   -6.2320   21.4220  -31.7810 C   0  0  0  0  0  0  0  0  0  0  0  0
   -5.4500   20.6440  -32.7550 N   0  0  0  0  0  0  0  0  0  0  0  0
   -5.8760   19.3140  -33.1070 C   0  0  0  0  0  0  0  0  0  0  0  0
   -6.8350   18.6440  -32.3270 C   0  0  0  0  0  0  0  0  0  0  0  0
   -7.2480   17.3530  -32.6730 C   0  0  0  0  0  0  0  0  0  0  0  0
   -6.7020   16.7190  -33.7940 C   0  0  0  0  0  0  0  0  0  0  0  0
   -5.7370   17.3710  -34.5670 C   0  0  0  0  0  0  0  0  0  0  0  0
   -5.3250   18.6640  -34.2250 C   0  0  0  0  0  0  0  0  0  0  0  0
   -4.2130   21.2020  -33.3170 C   0  0  0  0  0  0  0  0  0  0  0  0
   -3.3300   21.7360  -32.1860 C   0  0  0  0  0  0  0  0  0  0  0  0
   -3.3550   24.5370  -30.0330 C   0  0  0  0  0  0  0  0  0  0  0  0
   -2.7270   25.1070  -28.9750 N   0  0  0  0  0  0  0  0  0  0  0  0
   -2.1830   24.3800  -27.9930 N   0  0  0  0  0  0  0  0  0  0  0  0
   -1.5420   25.0800  -26.9090 C   0  0  0  0  0  0  0  0  0  0  0  0
   -2.3200   25.6930  -25.9100 C   0  0  0  0  0  0  0  0  0  0  0  0
   -1.7080   26.3600  -24.8460 C   0  0  0  0  0  0  0  0  0  0  0  0
   -0.3120   26.4100  -24.7590 C   0  0  0  0  0  0  0  0  0  0  0  0
    0.4530   27.2480  -23.4220 Cl  0  0  0  0  0  0  0  0  0  0  0  0
    0.4710   25.7850  -25.7360 C   0  0  0  0  0  0  0  0  0  0  0  0
   -0.1370   25.1200  -26.8030 C   0  0  0  0  0  0  0  0  0  0  0  0
   -5.9877   23.1579  -30.5126 H   0  0  0  0  0  0  0  0  0  0  0  0
   -5.7034   23.4607  -32.2650 H   0  0  0  0  0  0  0  0  0  0  0  0
   -6.3439   20.8306  -30.8603 H   0  0  0  0  0  0  0  0  0  0  0  0
   -7.2118   21.6450  -32.2286 H   0  0  0  0  0  0  0  0  0  0  0  0
   -7.2622   19.1369  -31.4412 H   0  0  0  0  0  0  0  0  0  0  0  0
   -8.0031   16.8358  -32.0628 H   0  0  0  0  0  0  0  0  0  0  0  0
   -7.0325   15.7061  -34.0675 H   0  0  0  0  0  0  0  0  0  0  0  0
   -5.3018   16.8683  -35.4433 H   0  0  0  0  0  0  0  0  0  0  0  0
   -4.5653   19.1748  -34.8348 H   0  0  0  0  0  0  0  0  0  0  0  0
   -3.6719   20.4156  -33.8636 H   0  0  0  0  0  0  0  0  0  0  0  0
   -4.4623   22.0236  -34.0046 H   0  0  0  0  0  0  0  0  0  0  0  0
   -2.8843   20.8867  -31.6474 H   0  0  0  0  0  0  0  0  0  0  0  0
   -2.5468   22.3707  -32.6260 H   0  0  0  0  0  0  0  0  0  0  0  0
   -3.7958   25.1690  -30.8180 H   0  0  0  0  0  0  0  0  0  0  0  0
   -3.4175   25.6468  -25.9671 H   0  0  0  0  0  0  0  0  0  0  0  0
   -2.3241   26.8466  -24.0755 H   0  0  0  0  0  0  0  0  0  0  0  0
    1.5681   25.8176  -25.6634 H   0  0  0  0  0  0  0  0  0  0  0  0
    0.4836   24.6250  -27.5645 H   0  0  0  0  0  0  0  0  0  0  0  0
  1  2  2  0
  2  3  1  0
  3  4  1  0
  3  5  2  0
  5  6  1  0
  6  7  1  0
  7  8  1  0
  8  9  1  0
  9 10  1  0
 10 11  2  0
 11 12  1  0
 12 13  2  0
 13 14  1  0
 14 15  2  0
  9 16  1  0
 16 17  1  0
  5 18  1  0
 18 19  2  0
 19 20  1  0
 20 21  1  0
 21 22  2  0
 22 23  1  0
 23 24  2  0
 24 25  1  0
 24 26  1  0
 26 27  2  0
 20  2  1  0
 27 21  1  0
 17  6  1  0
 15 10  1  0
  7 28  1  0
  7 29  1  0
  8 30  1  0
  8 31  1  0
 11 32  1  0
 12 33  1  0
 13 34  1  0
 14 35  1  0
 15 36  1  0
 16 37  1  0
 16 38  1  0
 17 39  1  0
 17 40  1  0
 18 41  1  0
 22 42  1  0
 23 43  1  0
 26 44  1  0
 27 45  1  0
M  END
>  <UniqueID>  (24) 
22

>  <SMILES>  (24) 
O=c1c(Cl)c(N2CCN(c3ccccc3)CC2)cnn1-c1ccc(Cl)cc1

>  <Energy>  (24) 
67.76369897844046

>  <Genealogy>  (24) 
O=c1c(Cl)c(N2CCN(c3ccccc3)CC2)cnn1-c1ccc(Cl)cc1 (3D coordinates assigned)
O=c1c(Cl)c(N2CCN(c3ccccc3)CC2)cnn1-c1ccc(Cl)cc1 (nonaromatic ring conformer: 67.76369897844046 kcal/mol)

>  <smiles>  (24) 
O=c1c(Cl)c(N2CCN(c3ccccc3)CC2)cnn1-c1ccc(Cl)cc1

>  <score_type>  (24) 
oracle

>  <origin>  (24) 
adgpu

>  <m_score__min__energy>  (24) 
-8.2699999999999996

>  <m_primary>  (24) 
energy

$$$$
24:0
     RDKit          3D

 47 50  0  0  0  0  0  0  0  0999 V2000
   -8.7450   18.5240  -31.5960 C   0  0  0  0  0  0  0  0  0  0  0  0
   -8.0690   19.2020  -32.7930 C   0  0  0  0  0  0  0  0  0  0  0  0
   -6.9640   18.3790  -33.3550 N   0  0  0  0  0  0  0  0  0  0  0  0
   -6.1400   19.1430  -34.3420 C   0  0  0  0  0  0  0  0  0  0  0  0
   -4.7730   19.6040  -33.7990 C   0  0  0  0  0  0  0  0  0  0  0  0
   -4.8660   19.8970  -32.3690 N   0  0  0  0  0  0  0  0  0  0  0  0
   -4.7720   21.2560  -31.9100 C   0  0  0  0  0  0  0  0  0  0  0  0
   -5.9080   21.9040  -31.5320 N   0  0  0  0  0  0  0  0  0  0  0  0
   -5.8750   23.1550  -31.0080 C   0  0  0  0  0  0  0  0  0  0  0  0
   -7.0560   23.7990  -30.6220 C   0  0  0  0  0  0  0  0  0  0  0  0
   -6.9990   25.0840  -30.0700 C   0  0  0  0  0  0  0  0  0  0  0  0
   -5.7650   25.7230  -29.9020 C   0  0  0  0  0  0  0  0  0  0  0  0
   -4.5820   25.0810  -30.2850 C   0  0  0  0  0  0  0  0  0  0  0  0
   -4.6350   23.7970  -30.8390 C   0  0  0  0  0  0  0  0  0  0  0  0
   -3.4990   23.1620  -31.2260 N   0  0  0  0  0  0  0  0  0  0  0  0
   -3.5270   21.9150  -31.7700 C   0  0  0  0  0  0  0  0  0  0  0  0
   -2.2560   21.3190  -32.2350 C   0  0  0  0  0  0  0  0  0  0  0  0
   -1.9930   21.1630  -33.6080 C   0  0  0  0  0  0  0  0  0  0  0  0
   -0.7800   20.6150  -34.0350 C   0  0  0  0  0  0  0  0  0  0  0  0
    0.1850   20.2330  -33.0980 C   0  0  0  0  0  0  0  0  0  0  0  0
   -0.0600   20.4050  -31.7330 C   0  0  0  0  0  0  0  0  0  0  0  0
   -1.2720   20.9530  -31.3020 C   0  0  0  0  0  0  0  0  0  0  0  0
   -5.3870   18.8570  -31.4730 C   0  0  0  0  0  0  0  0  0  0  0  0
   -6.1420   17.7820  -32.2750 C   0  0  0  0  0  0  0  0  0  0  0  0
   -8.3349   18.9353  -30.6619 H   0  0  0  0  0  0  0  0  0  0  0  0
   -9.8286   18.7092  -31.6336 H   0  0  0  0  0  0  0  0  0  0  0  0
   -8.5566   17.4409  -31.6336 H   0  0  0  0  0  0  0  0  0  0  0  0
   -8.8217   19.3677  -33.5778 H   0  0  0  0  0  0  0  0  0  0  0  0
   -7.6385   20.1522  -32.4440 H   0  0  0  0  0  0  0  0  0  0  0  0
   -7.3950   17.5700  -33.8630 H   0  0  0  0  0  0  0  0  0  0  0  0
   -5.9648   18.4997  -35.2169 H   0  0  0  0  0  0  0  0  0  0  0  0
   -6.7058   20.0532  -34.5898 H   0  0  0  0  0  0  0  0  0  0  0  0
   -4.0319   18.8069  -33.9584 H   0  0  0  0  0  0  0  0  0  0  0  0
   -4.4664   20.5164  -34.3314 H   0  0  0  0  0  0  0  0  0  0  0  0
   -8.0261   23.2969  -30.7520 H   0  0  0  0  0  0  0  0  0  0  0  0
   -7.9261   25.5929  -29.7675 H   0  0  0  0  0  0  0  0  0  0  0  0
   -5.7250   26.7328  -29.4676 H   0  0  0  0  0  0  0  0  0  0  0  0
   -3.6131   25.5843  -30.1510 H   0  0  0  0  0  0  0  0  0  0  0  0
   -2.7448   21.4734  -34.3486 H   0  0  0  0  0  0  0  0  0  0  0  0
   -0.5844   20.4841  -35.1095 H   0  0  0  0  0  0  0  0  0  0  0  0
    1.1370   19.7971  -33.4353 H   0  0  0  0  0  0  0  0  0  0  0  0
    0.7016   20.1089  -30.9966 H   0  0  0  0  0  0  0  0  0  0  0  0
   -1.4557   21.0982  -30.2272 H   0  0  0  0  0  0  0  0  0  0  0  0
   -4.5486   18.3871  -30.9380 H   0  0  0  0  0  0  0  0  0  0  0  0
   -6.0822   19.3201  -30.7573 H   0  0  0  0  0  0  0  0  0  0  0  0
   -5.4111   17.0927  -32.7230 H   0  0  0  0  0  0  0  0  0  0  0  0
   -6.8150   17.2503  -31.5863 H   0  0  0  0  0  0  0  0  0  0  0  0
  1  2  1  0
  2  3  1  0
  3  4  1  0
  4  5  1  0
  5  6  1  0
  6  7  1  0
  7  8  2  0
  8  9  1  0
  9 10  2  0
 10 11  1  0
 11 12  2  0
 12 13  1  0
 13 14  2  0
 14 15  1  0
 15 16  2  0
 16 17  1  0
 17 18  2  0
 18 19  1  0
 19 20  2  0
 20 21  1  0
 21 22  2  0
  6 23  1  0
 23 24  1  0
 24  3  1  0
 16  7  1  0
 22 17  1  0
 14  9  1  0
  1 25  1  0
  1 26  1  0
  1 27  1  0
  2 28  1  0
  2 29  1  0
  3 30  1  0
  4 31  1  0
  4 32  1  0
  5 33  1  0
  5 34  1  0
 10 35  1  0
 11 36  1  0
 12 37  1  0
 13 38  1  0
 18 39  1  0
 19 40  1  0
 20 41  1  0
 21 42  1  0
 22 43  1  0
 23 44  1  0
 23 45  1  0
 24 46  1  0
 24 47  1  0
M  CHG  1   3   1
M  END
>  <UniqueID>  (25) 
23

>  <SMILES>  (25) 
CC[NH+]1CCN(c2nc3ccccc3nc2-c2ccccc2)CC1

>  <Energy>  (25) 
71.14620534537224

>  <Genealogy>  (25) 
CC[NH+]1CCN(c2nc3ccccc3nc2-c2ccccc2)CC1 (protonated)
CC[NH+]1CCN(c2nc3ccccc3nc2-c2ccccc2)CC1 (3D coordinates assigned)
CC[NH+]1CCN(c2nc3ccccc3nc2-c2ccccc2)CC1 (nonaromatic ring conformer: 71.14620534537224 kcal/mol)

>  <smiles>  (25) 
CCN1CCN(c2nc3ccccc3nc2-c2ccccc2)CC1

>  <score_type>  (25) 
oracle

>  <origin>  (25) 
adgpu

>  <m_score__min__energy>  (25) 
-7.0700000000000003

>  <m_primary>  (25) 
energy

$$$$
25:0
     RDKit          3D

 44 46  0  0  0  0  0  0  0  0999 V2000
   -8.7680   20.0320  -32.7310 C   0  0  0  0  0  0  0  0  0  0  0  0
   -8.8880   20.3550  -31.2420 C   0  0  0  0  0  0  0  0  0  0  0  0
   -8.9320   21.8680  -30.9520 C   0  0  0  0  0  0  0  0  0  0  0  0
   -7.5540   22.4840  -30.6750 C   0  0  0  0  0  0  0  0  0  0  0  0
   -6.8640   23.2960  -32.1630 S   0  0  0  0  0  0  0  0  0  0  0  0
   -5.1990   23.4460  -31.5070 C   0  0  0  0  0  0  0  0  0  0  0  0
   -4.7480   24.5410  -30.8660 N   0  0  0  0  0  0  0  0  0  0  0  0
   -3.4890   24.2980  -30.5260 N   0  0  0  0  0  0  0  0  0  0  0  0
   -3.1890   23.0630  -30.9750 C   0  0  0  0  0  0  0  0  0  0  0  0
   -1.8720   22.3870  -30.7220 C   0  0  0  0  0  0  0  0  0  0  0  0
   -1.9450   21.5250  -29.4880 C   0  0  0  0  0  0  0  0  0  0  0  0
   -3.0150   21.6670  -28.5890 C   0  0  0  0  0  0  0  0  0  0  0  0
   -3.1100   20.8360  -27.4680 C   0  0  0  0  0  0  0  0  0  0  0  0
   -2.1410   19.8570  -27.2390 C   0  0  0  0  0  0  0  0  0  0  0  0
   -1.0700   19.7110  -28.1260 C   0  0  0  0  0  0  0  0  0  0  0  0
   -0.9690   20.5440  -29.2440 C   0  0  0  0  0  0  0  0  0  0  0  0
   -4.2460   22.5010  -31.5960 N   0  0  0  0  0  0  0  0  0  0  0  0
   -4.3430   21.1940  -32.1750 C   0  0  0  0  0  0  0  0  0  0  0  0
   -3.4700   20.8130  -33.2030 C   0  0  0  0  0  0  0  0  0  0  0  0
   -3.5340   19.5210  -33.7340 C   0  0  0  0  0  0  0  0  0  0  0  0
   -4.4650   18.6040  -33.2380 C   0  0  0  0  0  0  0  0  0  0  0  0
   -5.3350   18.9780  -32.2080 C   0  0  0  0  0  0  0  0  0  0  0  0
   -6.4910   17.8240  -31.5720 Cl  0  0  0  0  0  0  0  0  0  0  0  0
   -5.2750   20.2720  -31.6790 C   0  0  0  0  0  0  0  0  0  0  0  0
   -8.3873   19.0074  -32.8544 H   0  0  0  0  0  0  0  0  0  0  0  0
   -9.7571   20.1153  -33.2051 H   0  0  0  0  0  0  0  0  0  0  0  0
   -8.0732   20.7409  -33.2051 H   0  0  0  0  0  0  0  0  0  0  0  0
   -9.8122   19.8982  -30.8583 H   0  0  0  0  0  0  0  0  0  0  0  0
   -7.9923   19.9525  -30.7464 H   0  0  0  0  0  0  0  0  0  0  0  0
   -9.3705   22.3759  -31.8236 H   0  0  0  0  0  0  0  0  0  0  0  0
   -9.5332   22.0030  -30.0408 H   0  0  0  0  0  0  0  0  0  0  0  0
   -7.6522   23.2316  -29.8741 H   0  0  0  0  0  0  0  0  0  0  0  0
   -6.8704   21.6752  -30.3776 H   0  0  0  0  0  0  0  0  0  0  0  0
   -1.6167   21.7579  -31.5875 H   0  0  0  0  0  0  0  0  0  0  0  0
   -1.1019   23.1577  -30.5704 H   0  0  0  0  0  0  0  0  0  0  0  0
   -3.7817   22.4353  -28.7675 H   0  0  0  0  0  0  0  0  0  0  0  0
   -3.9488   20.9538  -26.7662 H   0  0  0  0  0  0  0  0  0  0  0  0
   -2.2203   19.2002  -26.3602 H   0  0  0  0  0  0  0  0  0  0  0  0
   -0.3066   18.9403  -27.9439 H   0  0  0  0  0  0  0  0  0  0  0  0
   -0.1215   20.4310  -29.9360 H   0  0  0  0  0  0  0  0  0  0  0  0
   -2.7335   21.5312  -33.5926 H   0  0  0  0  0  0  0  0  0  0  0  0
   -2.8504   19.2257  -34.5436 H   0  0  0  0  0  0  0  0  0  0  0  0
   -4.5137   17.5883  -33.6574 H   0  0  0  0  0  0  0  0  0  0  0  0
   -5.9613   20.5666  -30.8714 H   0  0  0  0  0  0  0  0  0  0  0  0
  1  2  1  0
  2  3  1  0
  3  4  1  0
  4  5  1  0
  5  6  1  0
  6  7  2  0
  7  8  1  0
  8  9  2  0
  9 10  1  0
 10 11  1  0
 11 12  2  0
 12 13  1  0
 13 14  2  0
 14 15  1  0
 15 16  2  0
  9 17  1  0
 17 18  1  0
 18 19  2  0
 19 20  1  0
 20 21  2  0
 21 22  1  0
 22 23  1  0
 22 24  2  0
 17  6  1  0
 24 18  1  0
 16 11  1  0
  1 25  1  0
  1 26  1  0
  1 27  1  0
  2 28  1  0
  2 29  1  0
  3 30  1  0
  3 31  1  0
  4 32  1  0
  4 33  1  0
 10 34  1  0
 10 35  1  0
 12 36  1  0
 13 37  1  0
 14 38  1  0
 15 39  1  0
 16 40  1  0
 19 41  1  0
 20 42  1  0
 21 43  1  0
 24 44  1  0
M  END
>  <UniqueID>  (26) 
24

>  <SMILES>  (26) 
CCCCSc1nnc(Cc2ccccc2)n1-c1cccc(Cl)c1

>  <Energy>  (26) 
76.96013363603443

>  <Genealogy>  (26) 
CCCCSc1nnc(Cc2ccccc2)n1-c1cccc(Cl)c1 (3D coordinates assigned)
CCCCSc1nnc(Cc2ccccc2)n1-c1cccc(Cl)c1 (optimized conformer: 76.96013363603443 kcal/mol)

>  <smiles>  (26) 
CCCCSc1nnc(Cc2ccccc2)n1-c1cccc(Cl)c1

>  <score_type>  (26) 
oracle

>  <origin>  (26) 
adgpu

>  <m_score__min__energy>  (26) 
-8.7400000000000002

>  <m_primary>  (26) 
energy

$$$$
26:0
     RDKit          3D

 32 33  0  0  0  0  0  0  0  0999 V2000
   -1.4820   26.1580  -26.1060 C   0  0  0  0  0  0  0  0  0  0  0  0
   -1.8740   24.8210  -26.7390 C   0  0  0  0  0  0  0  0  0  0  0  0
   -3.3950   24.6640  -26.7760 C   0  0  0  0  0  0  0  0  0  0  0  0
   -1.1940   24.6880  -28.3940 S   0  0  0  0  0  0  0  0  0  0  0  0
    0.2490   24.2730  -28.3070 O   0  0  0  0  0  0  0  0  0  0  0  0
   -1.2440   26.0280  -29.0750 O   0  0  0  0  0  0  0  0  0  0  0  0
   -2.1360   23.5080  -29.3310 C   0  0  0  0  0  0  0  0  0  0  0  0
   -1.8610   22.1240  -29.2310 C   0  0  0  0  0  0  0  0  0  0  0  0
   -0.5740   21.4890  -28.2110 Cl  0  0  0  0  0  0  0  0  0  0  0  0
   -2.6110   21.2060  -29.9710 C   0  0  0  0  0  0  0  0  0  0  0  0
   -3.6120   21.6440  -30.8350 C   0  0  0  0  0  0  0  0  0  0  0  0
   -3.8600   23.0080  -30.9930 C   0  0  0  0  0  0  0  0  0  0  0  0
   -4.8910   23.4240  -31.9010 N   0  0  0  0  0  0  0  0  0  0  0  0
   -6.1570   23.1470  -31.7800 C   0  0  0  0  0  0  0  0  0  0  0  0
   -6.7640   22.4840  -30.7240 C   0  0  0  0  0  0  0  0  0  0  0  0
   -8.1010   22.4860  -31.0630 C   0  0  0  0  0  0  0  0  0  0  0  0
   -8.2510   23.1200  -32.2410 N   0  0  0  0  0  0  0  0  0  0  0  0
   -7.0740   23.5320  -32.6840 N   0  0  0  0  0  0  0  0  0  0  0  0
   -3.1440   23.9420  -30.2200 C   0  0  0  0  0  0  0  0  0  0  0  0
   -3.4480   25.2950  -30.3370 O   0  0  0  0  0  0  0  0  0  0  0  0
   -1.5088   26.0667  -25.0101 H   0  0  0  0  0  0  0  0  0  0  0  0
   -0.4659   26.4315  -26.4264 H   0  0  0  0  0  0  0  0  0  0  0  0
   -2.1896   26.9369  -26.4264 H   0  0  0  0  0  0  0  0  0  0  0  0
   -1.4571   24.0124  -26.1206 H   0  0  0  0  0  0  0  0  0  0  0  0
   -3.7846   24.6238  -25.7481 H   0  0  0  0  0  0  0  0  0  0  0  0
   -3.8394   25.5210  -27.3033 H   0  0  0  0  0  0  0  0  0  0  0  0
   -3.6549   23.7343  -27.3033 H   0  0  0  0  0  0  0  0  0  0  0  0
   -2.4094   20.1293  -29.8704 H   0  0  0  0  0  0  0  0  0  0  0  0
   -4.2102   20.9107  -31.3957 H   0  0  0  0  0  0  0  0  0  0  0  0
   -6.2908   22.0571  -29.8274 H   0  0  0  0  0  0  0  0  0  0  0  0
   -8.9125   22.0419  -30.4678 H   0  0  0  0  0  0  0  0  0  0  0  0
   -9.1540   23.2780  -32.7400 H   0  0  0  0  0  0  0  0  0  0  0  0
  1  2  1  0
  2  3  1  0
  2  4  1  0
  4  5  2  0
  4  6  2  0
  4  7  1  0
  7  8  2  0
  8  9  1  0
  8 10  1  0
 10 11  2  0
 11 12  1  0
 12 13  1  0
 13 14  2  3
 14 15  1  0
 15 16  2  0
 16 17  1  0
 17 18  1  0
 12 19  2  0
 19 20  1  0
 19  7  1  0
 18 14  1  0
  1 21  1  0
  1 22  1  0
  1 23  1  0
  2 24  1  0
  3 25  1  0
  3 26  1  0
  3 27  1  0
 10 28  1  0
 11 29  1  0
 15 30  1  0
 16 31  1  0
 17 32  1  0
M  CHG  2  18  -1  20  -1
M  END
>  <UniqueID>  (27) 
25

>  <SMILES>  (27) 
CC(C)S(=O)(=O)c1c(Cl)ccc(N=c2cc[nH][n-]2)c1[O-]

>  <Energy>  (27) 
66.74858043199258

>  <Genealogy>  (27) 
CC(C)S(=O)(=O)c1c(Cl)ccc(N=c2cc[nH][n-]2)c1[O-] (protonated)
CC(C)S(=O)(=O)c1c(Cl)ccc(N=c2cc[nH][n-]2)c1[O-] (3D coordinates assigned)
CC(C)S(=O)(=O)c1c(Cl)ccc(N=c2cc[nH][n-]2)c1[O-] (optimized conformer: 66.74858043199258 kcal/mol)

>  <smiles>  (27) 
CC(C)S(=O)(=O)c1c(Cl)ccc(N=c2cc[nH][nH]2)c1O

>  <score_type>  (27) 
oracle

>  <origin>  (27) 
adgpu

>  <m_score__min__energy>  (27) 
-10.92

>  <m_primary>  (27) 
energy

$$$$
27:0
     RDKit          3D

 30 31  0  0  0  0  0  0  0  0999 V2000
   -3.5730   23.9200  -30.8490 O   0  0  0  0  0  0  0  0  0  0  0  0
   -4.9780   24.3280  -30.5070 S   0  0  0  0  0  0  0  0  0  0  0  0
   -5.2810   25.6250  -31.2060 O   0  0  0  0  0  0  0  0  0  0  0  0
   -5.1010   24.5530  -28.7840 N   0  0  0  0  0  0  0  0  0  0  0  0
   -4.1330   23.7280  -28.0470 C   0  0  0  0  0  0  0  0  0  0  0  0
   -2.9530   24.5250  -27.5450 C   0  0  0  0  0  0  0  0  0  0  0  0
   -1.7790   24.6170  -28.3130 C   0  0  0  0  0  0  0  0  0  0  0  0
   -0.6820   25.3440  -27.8400 C   0  0  0  0  0  0  0  0  0  0  0  0
   -0.7510   25.9870  -26.6010 C   0  0  0  0  0  0  0  0  0  0  0  0
   -1.9160   25.9060  -25.8350 C   0  0  0  0  0  0  0  0  0  0  0  0
   -3.0150   25.1810  -26.3040 C   0  0  0  0  0  0  0  0  0  0  0  0
   -6.0770   23.0650  -31.0590 C   0  0  0  0  0  0  0  0  0  0  0  0
   -5.6910   22.2220  -32.1100 C   0  0  0  0  0  0  0  0  0  0  0  0
   -6.5490   21.2090  -32.5510 C   0  0  0  0  0  0  0  0  0  0  0  0
   -7.7980   21.0360  -31.9450 C   0  0  0  0  0  0  0  0  0  0  0  0
   -8.8730   19.7640  -32.4950 Cl  0  0  0  0  0  0  0  0  0  0  0  0
   -8.1880   21.8790  -30.8980 C   0  0  0  0  0  0  0  0  0  0  0  0
   -7.3330   22.8910  -30.4570 C   0  0  0  0  0  0  0  0  0  0  0  0
   -6.0740   24.3000  -28.4940 H   0  0  0  0  0  0  0  0  0  0  0  0
   -4.6426   23.2725  -27.1851 H   0  0  0  0  0  0  0  0  0  0  0  0
   -3.7488   22.9659  -28.7409 H   0  0  0  0  0  0  0  0  0  0  0  0
   -1.7231   24.1150  -29.2902 H   0  0  0  0  0  0  0  0  0  0  0  0
    0.2355   25.4098  -28.4433 H   0  0  0  0  0  0  0  0  0  0  0  0
    0.1129   26.5573  -26.2289 H   0  0  0  0  0  0  0  0  0  0  0  0
   -1.9687   26.4138  -24.8607 H   0  0  0  0  0  0  0  0  0  0  0  0
   -3.9321   25.1237  -25.6992 H   0  0  0  0  0  0  0  0  0  0  0  0
   -4.7103   22.3574  -32.5896 H   0  0  0  0  0  0  0  0  0  0  0  0
   -6.2414   20.5481  -33.3748 H   0  0  0  0  0  0  0  0  0  0  0  0
   -9.1702   21.7440  -30.4215 H   0  0  0  0  0  0  0  0  0  0  0  0
   -7.6445   23.5534  -29.6359 H   0  0  0  0  0  0  0  0  0  0  0  0
  1  2  2  0
  2  3  2  0
  2  4  1  0
  4  5  1  0
  5  6  1  0
  6  7  2  0
  7  8  1  0
  8  9  2  0
  9 10  1  0
 10 11  2  0
  2 12  1  0
 12 13  2  0
 13 14  1  0
 14 15  2  0
 15 16  1  0
 15 17  1  0
 17 18  2  0
 11  6  1  0
 18 12  1  0
  4 19  1  0
  5 20  1  0
  5 21  1  0
  7 22  1  0
  8 23  1  0
  9 24  1  0
 10 25  1  0
 11 26  1  0
 13 27  1  0
 14 28  1  0
 17 29  1  0
 18 30  1  0
M  END
>  <UniqueID>  (28) 
26

>  <SMILES>  (28) 
O=S(=O)(NCc1ccccc1)c1ccc(Cl)cc1

>  <Energy>  (28) 
28.964468397776937

>  <Genealogy>  (28) 
O=S(=O)(NCc1ccccc1)c1ccc(Cl)cc1 (3D coordinates assigned)
O=S(=O)(NCc1ccccc1)c1ccc(Cl)cc1 (optimized conformer: 28.964468397776937 kcal/mol)

>  <smiles>  (28) 
O=S(=O)(NCc1ccccc1)c1ccc(Cl)cc1

>  <score_type>  (28) 
oracle

>  <origin>  (28) 
adgpu

>  <m_score__min__energy>  (28) 
-8.3000000000000007

>  <m_primary>  (28) 
energy

$$$$
28:0
     RDKit          3D

 45 47  0  0  0  0  0  0  0  0999 V2000
   -9.4940   22.2900  -31.5450 C   0  0  0  0  0  0  0  0  0  0  0  0
   -8.2050   21.6750  -31.9830 C   0  0  0  0  0  0  0  0  0  0  0  0
   -8.0640   20.3640  -32.2560 N   0  0  0  0  0  0  0  0  0  0  0  0
   -6.7920   20.1470  -32.5560 N   0  0  0  0  0  0  0  0  0  0  0  0
   -6.2980   18.8570  -32.9490 C   0  0  0  0  0  0  0  0  0  0  0  0
   -5.8840   18.6090  -34.2690 C   0  0  0  0  0  0  0  0  0  0  0  0
   -5.4050   17.3480  -34.6310 C   0  0  0  0  0  0  0  0  0  0  0  0
   -5.3220   16.3300  -33.6780 C   0  0  0  0  0  0  0  0  0  0  0  0
   -5.7100   16.5750  -32.3590 C   0  0  0  0  0  0  0  0  0  0  0  0
   -6.1890   17.8360  -31.9930 C   0  0  0  0  0  0  0  0  0  0  0  0
   -6.1030   21.3120  -32.4930 C   0  0  0  0  0  0  0  0  0  0  0  0
   -4.6340   21.4690  -32.7620 C   0  0  0  0  0  0  0  0  0  0  0  0
   -6.9840   22.3160  -32.1160 C   0  0  0  0  0  0  0  0  0  0  0  0
   -6.7090   23.7930  -31.9920 C   0  0  0  0  0  0  0  0  0  0  0  0
   -6.6260   24.2500  -30.5270 C   0  0  0  0  0  0  0  0  0  0  0  0
   -5.2170   24.5310  -30.0910 C   0  0  0  0  0  0  0  0  0  0  0  0
   -4.4490   25.1690  -30.8600 O   0  0  0  0  0  0  0  0  0  0  0  0
   -4.7720   24.1140  -28.7890 N   0  0  0  0  0  0  0  0  0  0  0  0
   -3.4180   24.2000  -28.3080 C   0  0  0  0  0  0  0  0  0  0  0  0
   -2.3610   23.9760  -29.2060 C   0  0  0  0  0  0  0  0  0  0  0  0
   -1.0330   24.0850  -28.7820 C   0  0  0  0  0  0  0  0  0  0  0  0
   -0.7460   24.4370  -27.4610 C   0  0  0  0  0  0  0  0  0  0  0  0
    0.9210   24.5810  -26.9310 Cl  0  0  0  0  0  0  0  0  0  0  0  0
   -1.7890   24.6850  -26.5640 C   0  0  0  0  0  0  0  0  0  0  0  0
   -3.1180   24.5730  -26.9840 C   0  0  0  0  0  0  0  0  0  0  0  0
   -9.5359   22.3100  -30.4460 H   0  0  0  0  0  0  0  0  0  0  0  0
   -9.5609   23.3170  -31.9332 H   0  0  0  0  0  0  0  0  0  0  0  0
  -10.3344   21.6958  -31.9332 H   0  0  0  0  0  0  0  0  0  0  0  0
   -5.9374   19.4111  -35.0198 H   0  0  0  0  0  0  0  0  0  0  0  0
   -5.0926   17.1562  -35.6681 H   0  0  0  0  0  0  0  0  0  0  0  0
   -4.9510   15.3354  -33.9665 H   0  0  0  0  0  0  0  0  0  0  0  0
   -5.6386   15.7749  -31.6075 H   0  0  0  0  0  0  0  0  0  0  0  0
   -6.4819   18.0288  -30.9504 H   0  0  0  0  0  0  0  0  0  0  0  0
   -4.0906   21.5271  -31.8074 H   0  0  0  0  0  0  0  0  0  0  0  0
   -4.2722   20.6044  -33.3378 H   0  0  0  0  0  0  0  0  0  0  0  0
   -4.4631   22.3905  -33.3378 H   0  0  0  0  0  0  0  0  0  0  0  0
   -5.7528   24.0176  -32.4873 H   0  0  0  0  0  0  0  0  0  0  0  0
   -7.5431   24.3315  -32.4657 H   0  0  0  0  0  0  0  0  0  0  0  0
   -7.2212   25.1676  -30.4095 H   0  0  0  0  0  0  0  0  0  0  0  0
   -7.0132   23.4335  -29.8999 H   0  0  0  0  0  0  0  0  0  0  0  0
   -5.5010   23.7780  -28.1200 H   0  0  0  0  0  0  0  0  0  0  0  0
   -2.5799   23.7127  -30.2513 H   0  0  0  0  0  0  0  0  0  0  0  0
   -0.2131   23.8933  -29.4898 H   0  0  0  0  0  0  0  0  0  0  0  0
   -1.5638   24.9689  -25.5254 H   0  0  0  0  0  0  0  0  0  0  0  0
   -3.9342   24.7776  -26.2755 H   0  0  0  0  0  0  0  0  0  0  0  0
  1  2  1  0
  2  3  2  0
  3  4  1  0
  4  5  1  0
  5  6  2  0
  6  7  1  0
  7  8  2  0
  8  9  1  0
  9 10  2  0
  4 11  1  0
 11 12  1  0
 11 13  2  0
 13 14  1  0
 14 15  1  0
 15 16  1  0
 16 17  2  0
 16 18  1  0
 18 19  1  0
 19 20  2  0
 20 21  1  0
 21 22  2  0
 22 23  1  0
 22 24  1  0
 24 25  2  0
 13  2  1  0
 25 19  1  0
 10  5  1  0
  1 26  1  0
  1 27  1  0
  1 28  1  0
  6 29  1  0
  7 30  1  0
  8 31  1  0
  9 32  1  0
 10 33  1  0
 12 34  1  0
 12 35  1  0
 12 36  1  0
 14 37  1  0
 14 38  1  0
 15 39  1  0
 15 40  1  0
 18 41  1  0
 20 42  1  0
 21 43  1  0
 24 44  1  0
 25 45  1  0
M  END
>  <UniqueID>  (29) 
27

>  <SMILES>  (29) 
Cc1nn(-c2ccccc2)c(C)c1CCC(=O)Nc1ccc(Cl)cc1

>  <Energy>  (29) 
78.87062375309483

>  <Genealogy>  (29) 
Cc1nn(-c2ccccc2)c(C)c1CCC(=O)Nc1ccc(Cl)cc1 (3D coordinates assigned)
Cc1nn(-c2ccccc2)c(C)c1CCC(=O)Nc1ccc(Cl)cc1 (optimized conformer: 78.87062375309483 kcal/mol)

>  <smiles>  (29) 
Cc1nn(-c2ccccc2)c(C)c1CCC(=O)Nc1ccc(Cl)cc1

>  <score_type>  (29) 
oracle

>  <origin>  (29) 
adgpu

>  <m_score__min__energy>  (29) 
-10.02

>  <m_primary>  (29) 
energy

$$$$
29:0
     RDKit          3D

 31 32  0  0  0  0  0  0  0  0999 V2000
   -3.3050   23.6960  -28.9170 O   0  0  0  0  0  0  0  0  0  0  0  0
   -3.0680   24.8190  -29.4330 C   0  0  0  0  0  0  0  0  0  0  0  0
   -3.8590   25.2960  -30.5230 N   0  0  0  0  0  0  0  0  0  0  0  0
   -5.1970   24.8110  -30.8340 C   0  0  0  0  0  0  0  0  0  0  0  0
   -5.1060   23.4910  -31.6040 C   0  0  0  0  0  0  0  0  0  0  0  0
   -6.4550   22.8390  -31.7330 C   0  0  0  0  0  0  0  0  0  0  0  0
   -6.5970   21.4510  -31.5820 C   0  0  0  0  0  0  0  0  0  0  0  0
   -7.8690   20.8810  -31.6490 C   0  0  0  0  0  0  0  0  0  0  0  0
   -8.9830   21.6940  -31.8640 C   0  0  0  0  0  0  0  0  0  0  0  0
   -8.8070   23.0720  -32.0050 C   0  0  0  0  0  0  0  0  0  0  0  0
   -7.5600   23.6110  -31.9300 N   0  0  0  0  0  0  0  0  0  0  0  0
   -1.9750   25.6030  -28.9460 N   0  0  0  0  0  0  0  0  0  0  0  0
   -1.3780   25.4010  -27.6590 C   0  0  0  0  0  0  0  0  0  0  0  0
   -1.5810   26.3650  -26.6630 C   0  0  0  0  0  0  0  0  0  0  0  0
   -1.0530   26.1800  -25.3830 C   0  0  0  0  0  0  0  0  0  0  0  0
   -0.3020   25.0370  -25.0940 C   0  0  0  0  0  0  0  0  0  0  0  0
   -0.0660   24.0850  -26.0890 C   0  0  0  0  0  0  0  0  0  0  0  0
   -0.5920   24.2620  -27.3750 C   0  0  0  0  0  0  0  0  0  0  0  0
   -0.1900   23.0830  -28.6170 Cl  0  0  0  0  0  0  0  0  0  0  0  0
   -5.7534   24.6503  -29.8988 H   0  0  0  0  0  0  0  0  0  0  0  0
   -5.7180   25.5564  -31.4528 H   0  0  0  0  0  0  0  0  0  0  0  0
   -4.7065   23.6896  -32.6095 H   0  0  0  0  0  0  0  0  0  0  0  0
   -4.4434   22.8106  -31.0491 H   0  0  0  0  0  0  0  0  0  0  0  0
   -5.7135   20.8180  -31.4123 H   0  0  0  0  0  0  0  0  0  0  0  0
   -7.9934   19.7943  -31.5327 H   0  0  0  0  0  0  0  0  0  0  0  0
   -9.9894   21.2536  -31.9218 H   0  0  0  0  0  0  0  0  0  0  0  0
   -9.6773   23.7224  -32.1769 H   0  0  0  0  0  0  0  0  0  0  0  0
   -2.1594   27.2727  -26.8901 H   0  0  0  0  0  0  0  0  0  0  0  0
   -1.2284   26.9344  -24.6019 H   0  0  0  0  0  0  0  0  0  0  0  0
    0.1034   24.8870  -24.0825 H   0  0  0  0  0  0  0  0  0  0  0  0
    0.5355   23.1926  -25.8614 H   0  0  0  0  0  0  0  0  0  0  0  0
  1  2  2  0
  2  3  1  0
  3  4  1  0
  4  5  1  0
  5  6  1  0
  6  7  2  0
  7  8  1  0
  8  9  2  0
  9 10  1  0
 10 11  2  0
  2 12  1  0
 12 13  1  0
 13 14  2  0
 14 15  1  0
 15 16  2  0
 16 17  1  0
 17 18  2  0
 18 19  1  0
 11  6  1  0
 18 13  1  0
  4 20  1  0
  4 21  1  0
  5 22  1  0
  5 23  1  0
  7 24  1  0
  8 25  1  0
  9 26  1  0
 10 27  1  0
 14 28  1  0
 15 29  1  0
 16 30  1  0
 17 31  1  0
M  CHG  2   3  -1  12  -1
M  END
>  <UniqueID>  (30) 
28

>  <SMILES>  (30) 
O=C([N-]CCc1ccccn1)[N-]c1ccccc1Cl

>  <Energy>  (30) 
32.22175846873946

>  <Genealogy>  (30) 
O=C([N-]CCc1ccccn1)[N-]c1ccccc1Cl (protonated)
O=C([N-]CCc1ccccn1)[N-]c1ccccc1Cl (3D coordinates assigned)
O=C([N-]CCc1ccccn1)[N-]c1ccccc1Cl (optimized conformer: 32.22175846873946 kcal/mol)

>  <smiles>  (30) 
O=C(NCCc1ccccn1)Nc1ccccc1Cl

>  <score_type>  (30) 
oracle

>  <origin>  (30) 
adgpu

>  <m_score__min__energy>  (30) 
-9.8300000000000001

>  <m_primary>  (30) 
energy

$$$$
30:0
     RDKit          3D

 45 47  0  0  0  0  0  0  0  0999 V2000
   -1.0800   25.5250  -27.8740 C   0  0  0  0  0  0  0  0  0  0  0  0
   -1.9900   25.6390  -28.9640 O   0  0  0  0  0  0  0  0  0  0  0  0
   -2.6000   24.5500  -29.6020 C   0  0  0  0  0  0  0  0  0  0  0  0
   -1.9610   23.3050  -29.7500 C   0  0  0  0  0  0  0  0  0  0  0  0
   -2.6130   22.2490  -30.3950 C   0  0  0  0  0  0  0  0  0  0  0  0
   -3.9160   22.4120  -30.8950 C   0  0  0  0  0  0  0  0  0  0  0  0
   -4.5930   21.2890  -31.5840 C   0  0  0  0  0  0  0  0  0  0  0  0
   -5.0330   20.3200  -30.9040 O   0  0  0  0  0  0  0  0  0  0  0  0
   -4.7650   21.2880  -33.0110 N   0  0  0  0  0  0  0  0  0  0  0  0
   -5.1960   20.0890  -33.7390 C   0  0  1  0  0  0  0  0  0  0  0  0
   -4.1000   19.0050  -33.6870 C   0  0  0  0  0  0  0  0  0  0  0  0
   -2.7550   19.5880  -33.3340 C   0  0  0  0  0  0  0  0  0  0  0  0
   -2.1170   20.4790  -34.2120 C   0  0  0  0  0  0  0  0  0  0  0  0
   -0.8520   20.9880  -33.9030 C   0  0  0  0  0  0  0  0  0  0  0  0
   -0.2110   20.6050  -32.7210 C   0  0  0  0  0  0  0  0  0  0  0  0
   -0.8350   19.7100  -31.8470 C   0  0  0  0  0  0  0  0  0  0  0  0
   -2.1010   19.2000  -32.1520 C   0  0  0  0  0  0  0  0  0  0  0  0
   -6.4950   19.5750  -33.1640 C   0  0  0  0  0  0  0  0  0  0  0  0
   -6.6300   18.2380  -32.7520 C   0  0  0  0  0  0  0  0  0  0  0  0
   -7.8580   17.7940  -32.2600 C   0  0  0  0  0  0  0  0  0  0  0  0
   -8.9370   18.6750  -32.1860 C   0  0  0  0  0  0  0  0  0  0  0  0
   -8.7710   19.9950  -32.6100 C   0  0  0  0  0  0  0  0  0  0  0  0
   -7.5680   20.4110  -33.0870 N   0  0  0  0  0  0  0  0  0  0  0  0
   -4.5450   23.6620  -30.7560 C   0  0  0  0  0  0  0  0  0  0  0  0
   -3.8920   24.7160  -30.1120 C   0  0  0  0  0  0  0  0  0  0  0  0
   -1.6332   25.5943  -26.9257 H   0  0  0  0  0  0  0  0  0  0  0  0
   -0.5637   24.5552  -27.9273 H   0  0  0  0  0  0  0  0  0  0  0  0
   -0.3404   26.3375  -27.9273 H   0  0  0  0  0  0  0  0  0  0  0  0
   -0.9438   23.1616  -29.3565 H   0  0  0  0  0  0  0  0  0  0  0  0
   -2.1012   21.2824  -30.5119 H   0  0  0  0  0  0  0  0  0  0  0  0
   -4.6120   22.1760  -33.5400 H   0  0  0  0  0  0  0  0  0  0  0  0
   -5.3634   20.3509  -34.7942 H   0  0  0  0  0  0  0  0  0  0  0  0
   -4.3743   18.2569  -32.9287 H   0  0  0  0  0  0  0  0  0  0  0  0
   -4.0239   18.5464  -34.6839 H   0  0  0  0  0  0  0  0  0  0  0  0
   -2.6144   20.7777  -35.1465 H   0  0  0  0  0  0  0  0  0  0  0  0
   -0.3601   21.6912  -34.5912 H   0  0  0  0  0  0  0  0  0  0  0  0
    0.7836   21.0076  -32.4789 H   0  0  0  0  0  0  0  0  0  0  0  0
   -0.3296   19.4065  -30.9183 H   0  0  0  0  0  0  0  0  0  0  0  0
   -2.5868   18.4924  -31.4641 H   0  0  0  0  0  0  0  0  0  0  0  0
   -5.7757   17.5481  -32.8168 H   0  0  0  0  0  0  0  0  0  0  0  0
   -7.9750   16.7509  -31.9310 H   0  0  0  0  0  0  0  0  0  0  0  0
   -9.9080   18.3336  -31.7979 H   0  0  0  0  0  0  0  0  0  0  0  0
   -9.6146   20.6990  -32.5580 H   0  0  0  0  0  0  0  0  0  0  0  0
   -5.5583   23.8110  -31.1572 H   0  0  0  0  0  0  0  0  0  0  0  0
   -4.3990   25.6863  -30.0049 H   0  0  0  0  0  0  0  0  0  0  0  0
  1  2  1  0
  2  3  1  0
  3  4  2  0
  4  5  1  0
  5  6  2  0
  6  7  1  0
  7  8  2  0
  7  9  1  0
  9 10  1  0
 10 11  1  0
 11 12  1  0
 12 13  2  0
 13 14  1  0
 14 15  2  0
 15 16  1  0
 16 17  2  0
 10 18  1  0
 18 19  2  0
 19 20  1  0
 20 21  2  0
 21 22  1  0
 22 23  2  0
  6 24  1  0
 24 25  2  0
 25  3  1  0
 17 12  1  0
 23 18  1  0
  1 26  1  0
  1 27  1  0
  1 28  1  0
  4 29  1  0
  5 30  1  0
  9 31  1  0
 10 32  1  6
 11 33  1  0
 11 34  1  0
 13 35  1  0
 14 36  1  0
 15 37  1  0
 16 38  1  0
 17 39  1  0
 19 40  1  0
 20 41  1  0
 21 42  1  0
 22 43  1  0
 24 44  1  0
 25 45  1  0
M  END
>  <UniqueID>  (31) 
29

>  <SMILES>  (31) 
COc1ccc(C(=O)N[C@@H](Cc2ccccc2)c2ccccn2)cc1

>  <Energy>  (31) 
45.59220059912959

>  <Genealogy>  (31) 
COc1ccc(C(=O)N[C@@H](Cc2ccccc2)c2ccccn2)cc1 (chirality)
COc1ccc(C(=O)N[C@@H](Cc2ccccc2)c2ccccn2)cc1 (3D coordinates assigned)
COc1ccc(C(=O)N[C@@H](Cc2ccccc2)c2ccccn2)cc1 (optimized conformer: 45.59220059912959 kcal/mol)

>  <smiles>  (31) 
COc1ccc(C(=O)NC(Cc2ccccc2)c2ccccn2)cc1

>  <score_type>  (31) 
oracle

>  <origin>  (31) 
adgpu

>  <m_score__min__energy>  (31) 
-7.8899999999999997

>  <m_primary>  (31) 
energy

$$$$
31:0
     RDKit          3D

 43 45  0  0  0  0  0  0  0  0999 V2000
   -2.4130   21.3950  -31.7380 C   0  0  0  0  0  0  0  0  0  0  0  0
   -3.4450   22.1450  -32.3710 O   0  0  0  0  0  0  0  0  0  0  0  0
   -4.8200   21.8810  -32.2450 C   0  0  0  0  0  0  0  0  0  0  0  0
   -5.4640   20.9300  -33.0630 C   0  0  0  0  0  0  0  0  0  0  0  0
   -6.8380   20.7150  -32.9550 C   0  0  0  0  0  0  0  0  0  0  0  0
   -7.5910   21.4450  -32.0350 C   0  0  0  0  0  0  0  0  0  0  0  0
   -9.3200   21.1770  -31.9080 Cl  0  0  0  0  0  0  0  0  0  0  0  0
   -6.9660   22.3850  -31.2120 C   0  0  0  0  0  0  0  0  0  0  0  0
   -5.5790   22.6030  -31.2950 C   0  0  0  0  0  0  0  0  0  0  0  0
   -4.9490   23.5990  -30.3960 C   0  0  0  0  0  0  0  0  0  0  0  0
   -4.6230   24.7270  -30.8560 O   0  0  0  0  0  0  0  0  0  0  0  0
   -4.7750   23.3190  -28.9970 N   0  0  0  0  0  0  0  0  0  0  0  0
   -3.8460   24.0170  -28.1490 C   0  0  0  0  0  0  0  0  0  0  0  0
   -4.2420   24.5470  -26.9090 C   0  0  0  0  0  0  0  0  0  0  0  0
   -3.3260   25.2440  -26.1150 C   0  0  0  0  0  0  0  0  0  0  0  0
   -2.0060   25.4370  -26.5520 C   0  0  0  0  0  0  0  0  0  0  0  0
   -1.0650   26.1470  -25.7250 N   0  0  0  0  0  0  0  0  0  0  0  0
   -0.4690   27.4060  -26.1960 C   0  0  0  0  0  0  0  0  0  0  0  0
   -0.2140   28.3850  -25.0240 C   0  0  0  0  0  0  0  0  0  0  0  0
   -0.4600   27.8210  -23.7460 O   0  0  0  0  0  0  0  0  0  0  0  0
    0.1760   26.5660  -23.6410 C   0  0  0  0  0  0  0  0  0  0  0  0
   -0.5880   25.5390  -24.4770 C   0  0  0  0  0  0  0  0  0  0  0  0
   -1.6180   24.9200  -27.7980 C   0  0  0  0  0  0  0  0  0  0  0  0
   -2.5320   24.2250  -28.5930 C   0  0  0  0  0  0  0  0  0  0  0  0
   -2.5202   21.4729  -30.6460 H   0  0  0  0  0  0  0  0  0  0  0  0
   -2.4889   20.3399  -32.0395 H   0  0  0  0  0  0  0  0  0  0  0  0
   -1.4328   21.7929  -32.0395 H   0  0  0  0  0  0  0  0  0  0  0  0
   -4.8776   20.3525  -33.7928 H   0  0  0  0  0  0  0  0  0  0  0  0
   -7.3288   19.9683  -33.5966 H   0  0  0  0  0  0  0  0  0  0  0  0
   -7.5651   22.9609  -30.4913 H   0  0  0  0  0  0  0  0  0  0  0  0
   -5.4300   22.6360  -28.5530 H   0  0  0  0  0  0  0  0  0  0  0  0
   -5.2770   24.4129  -26.5616 H   0  0  0  0  0  0  0  0  0  0  0  0
   -3.6422   25.6442  -25.1404 H   0  0  0  0  0  0  0  0  0  0  0  0
    0.4876   27.1852  -26.6922 H   0  0  0  0  0  0  0  0  0  0  0  0
   -1.1722   27.8807  -26.8961 H   0  0  0  0  0  0  0  0  0  0  0  0
    0.8365   28.7088  -25.0643 H   0  0  0  0  0  0  0  0  0  0  0  0
   -0.9164   29.2226  -25.1463 H   0  0  0  0  0  0  0  0  0  0  0  0
    1.2088   26.6456  -24.0112 H   0  0  0  0  0  0  0  0  0  0  0  0
    0.1888   26.2471  -22.5883 H   0  0  0  0  0  0  0  0  0  0  0  0
    0.0792   24.6977  -24.7157 H   0  0  0  0  0  0  0  0  0  0  0  0
   -1.4542   25.1830  -23.9000 H   0  0  0  0  0  0  0  0  0  0  0  0
   -0.5861   25.0634  -28.1510 H   0  0  0  0  0  0  0  0  0  0  0  0
   -2.2192   23.8381  -29.5741 H   0  0  0  0  0  0  0  0  0  0  0  0
  1  2  1  0
  2  3  1  0
  3  4  2  0
  4  5  1  0
  5  6  2  0
  6  7  1  0
  6  8  1  0
  8  9  2  0
  9 10  1  0
 10 11  2  0
 10 12  1  0
 12 13  1  0
 13 14  2  0
 14 15  1  0
 15 16  2  0
 16 17  1  0
 17 18  1  0
 18 19  1  0
 19 20  1  0
 20 21  1  0
 21 22  1  0
 16 23  1  0
 23 24  2  0
  9  3  1  0
 24 13  1  0
 22 17  1  0
  1 25  1  0
  1 26  1  0
  1 27  1  0
  4 28  1  0
  5 29  1  0
  8 30  1  0
 12 31  1  0
 14 32  1  0
 15 33  1  0
 18 34  1  0
 18 35  1  0
 19 36  1  0
 19 37  1  0
 21 38  1  0
 21 39  1  0
 22 40  1  0
 22 41  1  0
 23 42  1  0
 24 43  1  0
M  END
>  <UniqueID>  (32) 
30

>  <SMILES>  (32) 
COc1ccc(Cl)cc1C(=O)Nc1ccc(N2CCOCC2)cc1

>  <Energy>  (32) 
61.84317857019126

>  <Genealogy>  (32) 
COc1ccc(Cl)cc1C(=O)Nc1ccc(N2CCOCC2)cc1 (3D coordinates assigned)
COc1ccc(Cl)cc1C(=O)Nc1ccc(N2CCOCC2)cc1 (nonaromatic ring conformer: 61.84317857019126 kcal/mol)

>  <smiles>  (32) 
COc1ccc(Cl)cc1C(=O)Nc1ccc(N2CCOCC2)cc1

>  <score_type>  (32) 
oracle

>  <origin>  (32) 
adgpu

>  <m_score__min__energy>  (32) 
-8.1199999999999992

>  <m_primary>  (32) 
energy

$$$$
32:0
     RDKit          3D

 35 38  0  0  0  0  0  0  0  0999 V2000
   -3.8780   21.1900  -30.0860 N   0  0  0  0  0  0  0  0  0  0  0  0
   -4.4090   22.5030  -30.3030 C   0  0  0  0  0  0  0  0  0  0  0  0
   -3.7610   23.6920  -29.9890 C   0  0  0  0  0  0  0  0  0  0  0  0
   -2.5300   23.8900  -29.2010 C   0  0  0  0  0  0  0  0  0  0  0  0
   -1.8230   22.8530  -28.6770 N   0  0  0  0  0  0  0  0  0  0  0  0
   -0.7780   23.4690  -28.0960 C   0  0  0  0  0  0  0  0  0  0  0  0
    0.2810   22.8820  -27.4060 C   0  0  0  0  0  0  0  0  0  0  0  0
    1.2810   23.7350  -26.8990 C   0  0  0  0  0  0  0  0  0  0  0  0
    1.1980   25.1330  -27.0950 C   0  0  0  0  0  0  0  0  0  0  0  0
    0.1140   25.6900  -27.8010 C   0  0  0  0  0  0  0  0  0  0  0  0
   -0.8580   24.8160  -28.2820 C   0  0  0  0  0  0  0  0  0  0  0  0
   -1.9600   25.1020  -28.9840 N   0  0  0  0  0  0  0  0  0  0  0  0
   -4.5140   24.6860  -30.5810 C   0  0  0  0  0  0  0  0  0  0  0  0
   -4.2530   26.0500  -30.5410 O   0  0  0  0  0  0  0  0  0  0  0  0
   -5.5850   24.0930  -31.2120 C   0  0  0  0  0  0  0  0  0  0  0  0
   -5.5230   22.7570  -31.0350 N   0  0  0  0  0  0  0  0  0  0  0  0
   -6.4750   21.8090  -31.5470 C   0  0  0  0  0  0  0  0  0  0  0  0
   -7.8060   21.8200  -31.0960 C   0  0  0  0  0  0  0  0  0  0  0  0
   -8.7340   20.9110  -31.6130 C   0  0  0  0  0  0  0  0  0  0  0  0
   -8.3440   19.9920  -32.5920 C   0  0  0  0  0  0  0  0  0  0  0  0
   -9.2450   19.1130  -33.0940 F   0  0  0  0  0  0  0  0  0  0  0  0
   -7.0250   19.9850  -33.0580 C   0  0  0  0  0  0  0  0  0  0  0  0
   -6.0950   20.8930  -32.5420 C   0  0  0  0  0  0  0  0  0  0  0  0
   -4.2700   20.3620  -30.5820 H   0  0  0  0  0  0  0  0  0  0  0  0
   -2.9960   21.0490  -29.5490 H   0  0  0  0  0  0  0  0  0  0  0  0
    0.3341   21.7927  -27.2625 H   0  0  0  0  0  0  0  0  0  0  0  0
    2.1324   23.3106  -26.3468 H   0  0  0  0  0  0  0  0  0  0  0  0
    1.9845   25.7891  -26.6938 H   0  0  0  0  0  0  0  0  0  0  0  0
    0.0379   26.7748  -27.9664 H   0  0  0  0  0  0  0  0  0  0  0  0
   -2.2650   26.0380  -29.3300 H   0  0  0  0  0  0  0  0  0  0  0  0
   -6.3679   24.6251  -31.7723 H   0  0  0  0  0  0  0  0  0  0  0  0
   -8.1192   22.5473  -30.3325 H   0  0  0  0  0  0  0  0  0  0  0  0
   -9.7721   20.9188  -31.2492 H   0  0  0  0  0  0  0  0  0  0  0  0
   -6.7191   19.2646  -33.8310 H   0  0  0  0  0  0  0  0  0  0  0  0
   -5.0609   20.8900  -32.9170 H   0  0  0  0  0  0  0  0  0  0  0  0
  1  2  1  0
  2  3  2  0
  3  4  1  0
  4  5  2  0
  5  6  1  0
  6  7  2  0
  7  8  1  0
  8  9  2  0
  9 10  1  0
 10 11  2  0
 11 12  1  0
  3 13  1  0
 13 14  1  0
 13 15  2  0
 15 16  1  0
 16 17  1  0
 17 18  2  0
 18 19  1  0
 19 20  2  0
 20 21  1  0
 20 22  1  0
 22 23  2  0
 16  2  1  0
 23 17  1  0
 12  4  1  0
 11  6  1  0
  1 24  1  0
  1 25  1  0
  7 26  1  0
  8 27  1  0
  9 28  1  0
 10 29  1  0
 12 30  1  0
 15 31  1  0
 18 32  1  0
 19 33  1  0
 22 34  1  0
 23 35  1  0
M  CHG  1  14  -1
M  END
>  <UniqueID>  (33) 
31

>  <SMILES>  (33) 
Nc1c(-c2nc3ccccc3[nH]2)c([O-])cn1-c1ccc(F)cc1

>  <Energy>  (33) 
113.07921446678736

>  <Genealogy>  (33) 
Nc1c(-c2nc3ccccc3[nH]2)c([O-])cn1-c1ccc(F)cc1 (protonated)
Nc1c(-c2nc3ccccc3[nH]2)c([O-])cn1-c1ccc(F)cc1 (3D coordinates assigned)
Nc1c(-c2nc3ccccc3[nH]2)c([O-])cn1-c1ccc(F)cc1 (optimized conformer: 113.07921446678736 kcal/mol)

>  <smiles>  (33) 
Nc1c(-c2nc3ccccc3[nH]2)c(O)cn1-c1ccc(F)cc1

>  <score_type>  (33) 
oracle

>  <origin>  (33) 
adgpu

>  <m_score__min__energy>  (33) 
-9.4700000000000006

>  <m_primary>  (33) 
energy

$$$$
33:0
     RDKit          3D

 38 40  0  0  0  0  0  0  0  0999 V2000
    1.5030   24.3150  -26.8470 C   0  0  0  0  0  0  0  0  0  0  0  0
    1.1480   24.1620  -28.2180 O   0  0  0  0  0  0  0  0  0  0  0  0
   -0.1690   24.0520  -28.6880 C   0  0  0  0  0  0  0  0  0  0  0  0
   -0.5710   23.0360  -29.5760 C   0  0  0  0  0  0  0  0  0  0  0  0
   -1.8960   22.9690  -30.0160 C   0  0  0  0  0  0  0  0  0  0  0  0
   -2.8400   23.9130  -29.5790 C   0  0  0  0  0  0  0  0  0  0  0  0
   -4.2410   23.8480  -30.0430 C   0  0  0  0  0  0  0  0  0  0  0  0
   -5.1720   23.0280  -29.5060 N   0  0  0  0  0  0  0  0  0  0  0  0
   -6.2740   23.3080  -30.2260 C   0  0  0  0  0  0  0  0  0  0  0  0
   -7.5880   22.6140  -30.0460 C   0  0  0  0  0  0  0  0  0  0  0  0
   -8.1240   22.2070  -31.3510 N   0  0  0  0  0  0  0  0  0  0  0  0
   -9.1020   23.0580  -32.0380 C   0  0  0  0  0  0  0  0  0  0  0  0
   -7.7370   20.9490  -31.9420 C   0  0  0  0  0  0  0  0  0  0  0  0
   -6.6770   20.8850  -32.7950 N   0  0  0  0  0  0  0  0  0  0  0  0
   -6.2940   19.7090  -33.3570 C   0  0  0  0  0  0  0  0  0  0  0  0
   -6.9930   18.5390  -33.0610 C   0  0  0  0  0  0  0  0  0  0  0  0
   -6.4760   16.8710  -33.8340 Br  0  0  0  0  0  0  0  0  0  0  0  0
   -8.0770   18.6150  -32.1880 C   0  0  0  0  0  0  0  0  0  0  0  0
   -8.4270   19.8110  -31.6470 N   0  0  0  0  0  0  0  0  0  0  0  0
   -5.9820   24.2660  -31.1700 C   0  0  0  0  0  0  0  0  0  0  0  0
   -4.7190   24.5800  -31.0260 O   0  0  0  0  0  0  0  0  0  0  0  0
   -2.4350   24.9240  -28.6940 C   0  0  0  0  0  0  0  0  0  0  0  0
   -1.1110   24.9900  -28.2540 C   0  0  0  0  0  0  0  0  0  0  0  0
    0.6777   23.9593  -26.2127 H   0  0  0  0  0  0  0  0  0  0  0  0
    2.4082   23.7271  -26.6348 H   0  0  0  0  0  0  0  0  0  0  0  0
    1.6972   25.3767  -26.6348 H   0  0  0  0  0  0  0  0  0  0  0  0
    0.1604   22.2921  -29.9248 H   0  0  0  0  0  0  0  0  0  0  0  0
   -2.2016   22.1715  -30.7093 H   0  0  0  0  0  0  0  0  0  0  0  0
   -7.4462   21.7231  -29.4166 H   0  0  0  0  0  0  0  0  0  0  0  0
   -8.2970   23.3028  -29.5634 H   0  0  0  0  0  0  0  0  0  0  0  0
   -9.7127   23.5894  -31.2933 H   0  0  0  0  0  0  0  0  0  0  0  0
   -8.5737   23.7888  -32.6679 H   0  0  0  0  0  0  0  0  0  0  0  0
   -9.7528   22.4337  -32.6679 H   0  0  0  0  0  0  0  0  0  0  0  0
   -5.4350   19.6797  -34.0435 H   0  0  0  0  0  0  0  0  0  0  0  0
   -8.6478   17.7086  -31.9377 H   0  0  0  0  0  0  0  0  0  0  0  0
   -6.6796   24.6890  -31.9079 H   0  0  0  0  0  0  0  0  0  0  0  0
   -3.1648   25.6692  -28.3446 H   0  0  0  0  0  0  0  0  0  0  0  0
   -0.8065   25.7871  -27.5598 H   0  0  0  0  0  0  0  0  0  0  0  0
  1  2  1  0
  2  3  1  0
  3  4  2  0
  4  5  1  0
  5  6  2  0
  6  7  1  0
  7  8  2  0
  8  9  1  0
  9 10  1  0
 10 11  1  0
 11 12  1  0
 11 13  1  0
 13 14  2  0
 14 15  1  0
 15 16  2  0
 16 17  1  0
 16 18  1  0
 18 19  2  0
  9 20  2  0
 20 21  1  0
  6 22  1  0
 22 23  2  0
 23  3  1  0
 21  7  1  0
 19 13  1  0
  1 24  1  0
  1 25  1  0
  1 26  1  0
  4 27  1  0
  5 28  1  0
 10 29  1  0
 10 30  1  0
 12 31  1  0
 12 32  1  0
 12 33  1  0
 15 34  1  0
 18 35  1  0
 20 36  1  0
 22 37  1  0
 23 38  1  0
M  END
>  <UniqueID>  (34) 
32

>  <SMILES>  (34) 
COc1ccc(-c2nc(CN(C)c3ncc(Br)cn3)co2)cc1

>  <Energy>  (34) 
66.90511581049282

>  <Genealogy>  (34) 
COc1ccc(-c2nc(CN(C)c3ncc(Br)cn3)co2)cc1 (3D coordinates assigned)
COc1ccc(-c2nc(CN(C)c3ncc(Br)cn3)co2)cc1 (optimized conformer: 66.90511581049282 kcal/mol)

>  <smiles>  (34) 
COc1ccc(-c2nc(CN(C)c3ncc(Br)cn3)co2)cc1

>  <score_type>  (34) 
oracle

>  <origin>  (34) 
adgpu

>  <m_score__min__energy>  (34) 
-7.7000000000000002

>  <m_primary>  (34) 
energy

$$$$
34:0
     RDKit          3D

 24 25  0  0  0  0  0  0  0  0999 V2000
   -2.4830   24.5740  -29.3340 C   0  0  0  0  0  0  0  0  0  0  0  0
   -3.4680   24.8110  -30.3350 O   0  0  0  0  0  0  0  0  0  0  0  0
   -4.3920   23.8800  -30.8390 C   0  0  0  0  0  0  0  0  0  0  0  0
   -3.8910   22.9170  -31.6060 O   0  0  0  0  0  0  0  0  0  0  0  0
   -4.6150   21.9470  -32.1450 C   0  0  0  0  0  0  0  0  0  0  0  0
   -4.0370   21.0790  -32.8550 O   0  0  0  0  0  0  0  0  0  0  0  0
   -5.9980   21.8860  -31.9210 C   0  0  0  0  0  0  0  0  0  0  0  0
   -6.7880   20.8600  -32.4730 C   0  0  0  0  0  0  0  0  0  0  0  0
   -8.1680   20.8180  -32.2350 C   0  0  0  0  0  0  0  0  0  0  0  0
   -9.0100   19.7430  -32.8570 C   0  0  0  0  0  0  0  0  0  0  0  0
   -8.7650   21.8250  -31.4690 C   0  0  0  0  0  0  0  0  0  0  0  0
   -7.9920   22.8490  -30.9180 C   0  0  0  0  0  0  0  0  0  0  0  0
   -6.5980   22.8940  -31.1310 C   0  0  0  0  0  0  0  0  0  0  0  0
   -5.7900   23.9200  -30.5890 C   0  0  0  0  0  0  0  0  0  0  0  0
   -6.5460   25.2590  -29.7130 Cl  0  0  0  0  0  0  0  0  0  0  0  0
   -2.9381   24.6835  -28.3386 H   0  0  0  0  0  0  0  0  0  0  0  0
   -2.0852   23.5545  -29.4452 H   0  0  0  0  0  0  0  0  0  0  0  0
   -1.6650   25.3009  -29.4452 H   0  0  0  0  0  0  0  0  0  0  0  0
   -6.3180   20.0850  -33.0963 H   0  0  0  0  0  0  0  0  0  0  0  0
   -9.4808   19.1419  -32.0652 H   0  0  0  0  0  0  0  0  0  0  0  0
   -9.7903   20.2033  -33.4809 H   0  0  0  0  0  0  0  0  0  0  0  0
   -8.3761   19.0957  -33.4809 H   0  0  0  0  0  0  0  0  0  0  0  0
   -9.8518   21.8100  -31.2995 H   0  0  0  0  0  0  0  0  0  0  0  0
   -8.4751   23.6291  -30.3113 H   0  0  0  0  0  0  0  0  0  0  0  0
  1  2  1  0
  2  3  1  0
  3  4  1  0
  4  5  1  0
  5  6  2  0
  5  7  1  0
  7  8  2  0
  8  9  1  0
  9 10  1  0
  9 11  2  0
 11 12  1  0
 12 13  2  0
 13 14  1  0
 14 15  1  0
 14  3  2  0
 13  7  1  0
  1 16  1  0
  1 17  1  0
  1 18  1  0
  8 19  1  0
 10 20  1  0
 10 21  1  0
 10 22  1  0
 11 23  1  0
 12 24  1  0
M  END
>  <UniqueID>  (35) 
33

>  <SMILES>  (35) 
COc1oc(=O)c2cc(C)ccc2c1Cl

>  <Energy>  (35) 
38.44564100448618

>  <Genealogy>  (35) 
COc1oc(=O)c2cc(C)ccc2c1Cl (3D coordinates assigned)
COc1oc(=O)c2cc(C)ccc2c1Cl (optimized conformer: 38.44564100448618 kcal/mol)

>  <smiles>  (35) 
COc1oc(=O)c2cc(C)ccc2c1Cl

>  <score_type>  (35) 
oracle

>  <origin>  (35) 
adgpu

>  <m_score__min__energy>  (35) 
-6.7300000000000004

>  <m_primary>  (35) 
energy

$$$$
35:0
     RDKit          3D

 39 41  0  0  0  0  0  0  0  0999 V2000
   -3.4730   14.4000  -33.9510 C   0  0  0  0  0  0  0  0  0  0  0  0
   -4.0650   15.3770  -34.7980 O   0  0  0  0  0  0  0  0  0  0  0  0
   -4.7220   16.4910  -34.2750 C   0  0  0  0  0  0  0  0  0  0  0  0
   -6.0870   16.4150  -33.9650 C   0  0  0  0  0  0  0  0  0  0  0  0
   -6.9820   14.9270  -34.2310 Cl  0  0  0  0  0  0  0  0  0  0  0  0
   -6.7510   17.5290  -33.4410 C   0  0  0  0  0  0  0  0  0  0  0  0
   -6.0640   18.7370  -33.2220 C   0  0  0  0  0  0  0  0  0  0  0  0
   -6.7880   19.9050  -32.6590 C   0  0  0  0  0  0  0  0  0  0  0  0
   -8.1920   19.9630  -32.6290 C   0  0  0  0  0  0  0  0  0  0  0  0
   -8.8200   21.0810  -32.0830 C   0  0  0  0  0  0  0  0  0  0  0  0
   -8.0600   22.1290  -31.5650 C   0  0  0  0  0  0  0  0  0  0  0  0
   -6.6560   22.0490  -31.5950 C   0  0  0  0  0  0  0  0  0  0  0  0
   -5.8260   23.1080  -31.0640 N   0  0  0  0  0  0  0  0  0  0  0  0
   -6.4240   24.1660  -30.2370 C   0  0  0  0  0  0  0  0  0  0  0  0
   -5.7180   25.5150  -30.4740 C   0  0  0  0  0  0  0  0  0  0  0  0
   -4.2480   25.4300  -30.6120 N   0  0  0  0  0  0  0  0  0  0  0  0
   -3.6930   24.1070  -30.3000 C   0  0  0  0  0  0  0  0  0  0  0  0
   -4.3600   23.0260  -31.1560 C   0  0  0  0  0  0  0  0  0  0  0  0
   -6.0740   20.9420  -32.1380 N   0  0  0  0  0  0  0  0  0  0  0  0
   -4.6880   18.7970  -33.5160 C   0  0  0  0  0  0  0  0  0  0  0  0
   -4.0210   17.6830  -34.0390 C   0  0  0  0  0  0  0  0  0  0  0  0
   -2.2970   17.7910  -34.3610 Cl  0  0  0  0  0  0  0  0  0  0  0  0
   -3.6405   14.6764  -32.8995 H   0  0  0  0  0  0  0  0  0  0  0  0
   -3.9284   13.4185  -34.1492 H   0  0  0  0  0  0  0  0  0  0  0  0
   -2.3922   14.3494  -34.1492 H   0  0  0  0  0  0  0  0  0  0  0  0
   -7.8215   17.4598  -33.1976 H   0  0  0  0  0  0  0  0  0  0  0  0
   -8.7901   19.1330  -33.0331 H   0  0  0  0  0  0  0  0  0  0  0  0
   -9.9184   21.1368  -32.0606 H   0  0  0  0  0  0  0  0  0  0  0  0
   -8.5551   23.0125  -31.1357 H   0  0  0  0  0  0  0  0  0  0  0  0
   -7.4885   24.2665  -30.4953 H   0  0  0  0  0  0  0  0  0  0  0  0
   -6.3096   23.8910  -29.1781 H   0  0  0  0  0  0  0  0  0  0  0  0
   -6.1234   25.9559  -31.3967 H   0  0  0  0  0  0  0  0  0  0  0  0
   -5.9102   26.1263  -29.5799 H   0  0  0  0  0  0  0  0  0  0  0  0
   -3.9850   25.6690  -31.5970 H   0  0  0  0  0  0  0  0  0  0  0  0
   -2.6117   24.1119  -30.5021 H   0  0  0  0  0  0  0  0  0  0  0  0
   -3.8813   23.8851  -29.2392 H   0  0  0  0  0  0  0  0  0  0  0  0
   -4.0577   23.1609  -32.2050 H   0  0  0  0  0  0  0  0  0  0  0  0
   -4.0410   22.0405  -30.7857 H   0  0  0  0  0  0  0  0  0  0  0  0
   -4.1320   19.7283  -33.3329 H   0  0  0  0  0  0  0  0  0  0  0  0
  1  2  1  0
  2  3  1  0
  3  4  2  0
  4  5  1  0
  4  6  1  0
  6  7  2  0
  7  8  1  0
  8  9  2  0
  9 10  1  0
 10 11  2  0
 11 12  1  0
 12 13  1  0
 13 14  1  0
 14 15  1  0
 15 16  1  0
 16 17  1  0
 17 18  1  0
 12 19  2  0
  7 20  1  0
 20 21  2  0
 21 22  1  0
 21  3  1  0
 19  8  1  0
 18 13  1  0
  1 23  1  0
  1 24  1  0
  1 25  1  0
  6 26  1  0
  9 27  1  0
 10 28  1  0
 11 29  1  0
 14 30  1  0
 14 31  1  0
 15 32  1  0
 15 33  1  0
 16 34  1  0
 17 35  1  0
 17 36  1  0
 18 37  1  0
 18 38  1  0
 20 39  1  0
M  END
>  <UniqueID>  (36) 
34

>  <SMILES>  (36) 
COc1c(Cl)cc(-c2cccc(N3CCNCC3)n2)cc1Cl

>  <Energy>  (36) 
57.56246646823362

>  <Genealogy>  (36) 
COc1c(Cl)cc(-c2cccc(N3CCNCC3)n2)cc1Cl (3D coordinates assigned)
COc1c(Cl)cc(-c2cccc(N3CCNCC3)n2)cc1Cl (nonaromatic ring conformer: 57.56246646823362 kcal/mol)

>  <smiles>  (36) 
COc1c(Cl)cc(-c2cccc(N3CCNCC3)n2)cc1Cl

>  <score_type>  (36) 
oracle

>  <origin>  (36) 
adgpu

>  <m_score__min__energy>  (36) 
-8.7699999999999996

>  <m_primary>  (36) 
energy

$$$$
36:0
     RDKit          3D

 38 40  0  0  0  0  0  0  0  0999 V2000
   -7.3330   21.2480  -31.7210 C   0  0  0  0  0  0  0  0  0  0  0  0
   -6.0900   20.7740  -32.4030 C   0  0  0  0  0  0  0  0  0  0  0  0
   -6.0940   19.9040  -33.4320 N   0  0  0  0  0  0  0  0  0  0  0  0
   -4.8530   19.7130  -33.7770 O   0  0  0  0  0  0  0  0  0  0  0  0
   -4.0350   20.4080  -33.0210 C   0  0  0  0  0  0  0  0  0  0  0  0
   -2.5490   20.3930  -33.1720 C   0  0  0  0  0  0  0  0  0  0  0  0
   -4.7830   21.1250  -32.1030 C   0  0  0  0  0  0  0  0  0  0  0  0
   -4.3030   22.0450  -31.0490 C   0  0  0  0  0  0  0  0  0  0  0  0
   -3.7990   21.5390  -29.8420 C   0  0  0  0  0  0  0  0  0  0  0  0
   -3.3450   22.4070  -28.8450 C   0  0  0  0  0  0  0  0  0  0  0  0
   -3.4020   23.7950  -29.0330 C   0  0  0  0  0  0  0  0  0  0  0  0
   -2.9200   24.6610  -27.9960 N   0  0  0  0  0  0  0  0  0  0  0  0
   -1.7140   24.3980  -27.2550 C   0  0  0  0  0  0  0  0  0  0  0  0
   -1.0130   23.3890  -27.5400 O   0  0  0  0  0  0  0  0  0  0  0  0
   -1.2710   25.2940  -26.1590 C   0  0  0  0  0  0  0  0  0  0  0  0
   -0.8800   24.7840  -24.9050 C   0  0  0  0  0  0  0  0  0  0  0  0
   -0.4710   25.6510  -23.8860 C   0  0  0  0  0  0  0  0  0  0  0  0
   -0.4550   27.0300  -24.1020 C   0  0  0  0  0  0  0  0  0  0  0  0
   -0.8530   27.5480  -25.3360 C   0  0  0  0  0  0  0  0  0  0  0  0
   -1.2640   26.6870  -26.3580 C   0  0  0  0  0  0  0  0  0  0  0  0
   -3.8770   24.3050  -30.2560 C   0  0  0  0  0  0  0  0  0  0  0  0
   -3.8720   25.6740  -30.5030 O   0  0  0  0  0  0  0  0  0  0  0  0
   -4.3340   23.4340  -31.2500 C   0  0  0  0  0  0  0  0  0  0  0  0
   -7.1958   21.1957  -30.6308 H   0  0  0  0  0  0  0  0  0  0  0  0
   -7.5389   22.2877  -32.0152 H   0  0  0  0  0  0  0  0  0  0  0  0
   -8.1789   20.6093  -32.0152 H   0  0  0  0  0  0  0  0  0  0  0  0
   -2.0794   20.3883  -32.1773 H   0  0  0  0  0  0  0  0  0  0  0  0
   -2.2457   19.4917  -33.7250 H   0  0  0  0  0  0  0  0  0  0  0  0
   -2.2276   21.2879  -33.7250 H   0  0  0  0  0  0  0  0  0  0  0  0
   -3.7607   20.4518  -29.6789 H   0  0  0  0  0  0  0  0  0  0  0  0
   -2.9405   21.9985  -27.9072 H   0  0  0  0  0  0  0  0  0  0  0  0
   -3.4310   25.5600  -27.8530 H   0  0  0  0  0  0  0  0  0  0  0  0
   -0.8964   23.6987  -24.7264 H   0  0  0  0  0  0  0  0  0  0  0  0
   -0.1611   25.2448  -22.9118 H   0  0  0  0  0  0  0  0  0  0  0  0
   -0.1288   27.7086  -23.3000 H   0  0  0  0  0  0  0  0  0  0  0  0
   -0.8432   28.6350  -25.5043 H   0  0  0  0  0  0  0  0  0  0  0  0
   -1.5844   27.1017  -27.3251 H   0  0  0  0  0  0  0  0  0  0  0  0
   -4.7206   23.8402  -32.1963 H   0  0  0  0  0  0  0  0  0  0  0  0
  1  2  1  0
  2  3  2  0
  3  4  1  0
  4  5  1  0
  5  6  1  0
  5  7  2  0
  7  8  1  0
  8  9  2  0
  9 10  1  0
 10 11  2  0
 11 12  1  0
 12 13  1  0
 13 14  2  0
 13 15  1  0
 15 16  2  0
 16 17  1  0
 17 18  2  0
 18 19  1  0
 19 20  2  0
 11 21  1  0
 21 22  1  0
 21 23  2  0
  7  2  1  0
 23  8  1  0
 20 15  1  0
  1 24  1  0
  1 25  1  0
  1 26  1  0
  6 27  1  0
  6 28  1  0
  6 29  1  0
  9 30  1  0
 10 31  1  0
 12 32  1  0
 16 33  1  0
 17 34  1  0
 18 35  1  0
 19 36  1  0
 20 37  1  0
 23 38  1  0
M  CHG  1  22  -1
M  END
>  <UniqueID>  (37) 
35

>  <SMILES>  (37) 
Cc1noc(C)c1-c1ccc(NC(=O)c2ccccc2)c([O-])c1

>  <Energy>  (37) 
82.6902835257521

>  <Genealogy>  (37) 
Cc1noc(C)c1-c1ccc(NC(=O)c2ccccc2)c([O-])c1 (protonated)
Cc1noc(C)c1-c1ccc(NC(=O)c2ccccc2)c([O-])c1 (3D coordinates assigned)
Cc1noc(C)c1-c1ccc(NC(=O)c2ccccc2)c([O-])c1 (optimized conformer: 82.6902835257521 kcal/mol)

>  <smiles>  (37) 
Cc1noc(C)c1-c1ccc(NC(=O)c2ccccc2)c(O)c1

>  <score_type>  (37) 
oracle

>  <origin>  (37) 
adgpu

>  <m_score__min__energy>  (37) 
-11.07

>  <m_primary>  (37) 
energy

$$$$
37:0
     RDKit          3D

 27 28  0  0  0  0  0  0  0  0999 V2000
   -4.2140   20.0040  -30.7950 O   0  0  0  0  0  0  0  0  0  0  0  0
   -4.4560   21.1430  -31.2750 C   0  0  0  0  0  0  0  0  0  0  0  0
   -5.3570   21.2400  -32.3900 N   0  0  0  0  0  0  0  0  0  0  0  0
   -6.7820   21.0750  -32.3380 C   0  0  0  0  0  0  0  0  0  0  0  0
   -7.5470   22.1210  -31.8080 C   0  0  0  0  0  0  0  0  0  0  0  0
   -8.9260   21.9790  -31.6440 C   0  0  0  0  0  0  0  0  0  0  0  0
   -9.5550   20.7930  -32.0170 C   0  0  0  0  0  0  0  0  0  0  0  0
   -8.8120   19.7540  -32.5820 C   0  0  0  0  0  0  0  0  0  0  0  0
   -7.4250   19.8880  -32.7740 C   0  0  0  0  0  0  0  0  0  0  0  0
   -6.7040   18.8500  -33.4590 N   0  0  0  0  0  0  0  0  0  0  0  0
   -6.0910   19.1030  -34.5160 O   0  0  0  0  0  0  0  0  0  0  0  0
   -6.5270   17.6210  -32.8650 O   0  0  0  0  0  0  0  0  0  0  0  0
   -3.7970   22.3320  -30.6880 C   0  0  0  0  0  0  0  0  0  0  0  0
   -2.6120   22.1820  -29.9470 C   0  0  0  0  0  0  0  0  0  0  0  0
   -1.9850   23.2960  -29.3810 C   0  0  0  0  0  0  0  0  0  0  0  0
   -2.5290   24.5720  -29.5590 C   0  0  0  0  0  0  0  0  0  0  0  0
   -1.9020   25.6750  -28.9900 O   0  0  0  0  0  0  0  0  0  0  0  0
   -3.6970   24.7360  -30.3100 C   0  0  0  0  0  0  0  0  0  0  0  0
   -4.2350   26.0030  -30.4990 O   0  0  0  0  0  0  0  0  0  0  0  0
   -4.3250   23.6210  -30.8780 C   0  0  0  0  0  0  0  0  0  0  0  0
   -7.0573   23.0625  -31.5184 H   0  0  0  0  0  0  0  0  0  0  0  0
   -9.5167   22.8043  -31.2198 H   0  0  0  0  0  0  0  0  0  0  0  0
  -10.6382   20.6748  -31.8663 H   0  0  0  0  0  0  0  0  0  0  0  0
   -9.3160   18.8226  -32.8795 H   0  0  0  0  0  0  0  0  0  0  0  0
   -2.1752   21.1816  -29.8116 H   0  0  0  0  0  0  0  0  0  0  0  0
   -1.0628   23.1687  -28.7950 H   0  0  0  0  0  0  0  0  0  0  0  0
   -5.2379   23.7545  -31.4771 H   0  0  0  0  0  0  0  0  0  0  0  0
  1  2  2  0
  2  3  1  0
  3  4  1  0
  4  5  2  0
  5  6  1  0
  6  7  2  0
  7  8  1  0
  8  9  2  0
  9 10  1  0
 10 11  2  0
 10 12  1  0
  2 13  1  0
 13 14  2  0
 14 15  1  0
 15 16  2  0
 16 17  1  0
 16 18  1  0
 18 19  1  0
 18 20  2  0
  9  4  1  0
 20 13  1  0
  5 21  1  0
  6 22  1  0
  7 23  1  0
  8 24  1  0
 14 25  1  0
 15 26  1  0
 20 27  1  0
M  CHG  5   3  -1  10   1  12  -1  17  -1  19  -1
M  END
>  <UniqueID>  (38) 
36

>  <SMILES>  (38) 
O=C([N-]c1ccccc1[N+](=O)[O-])c1ccc([O-])c([O-])c1

>  <Energy>  (38) 
41.28747053773269

>  <Genealogy>  (38) 
O=C([N-]c1ccccc1[N+](=O)[O-])c1ccc([O-])c([O-])c1 (protonated)
O=C([N-]c1ccccc1[N+](=O)[O-])c1ccc([O-])c([O-])c1 (3D coordinates assigned)
O=C([N-]c1ccccc1[N+](=O)[O-])c1ccc([O-])c([O-])c1 (optimized conformer: 41.28747053773269 kcal/mol)

>  <smiles>  (38) 
O=C(Nc1ccccc1[N+](=O)[O-])c1ccc(O)c(O)c1

>  <score_type>  (38) 
oracle

>  <origin>  (38) 
adgpu

>  <m_score__min__energy>  (38) 
-12.220000000000001

>  <m_primary>  (38) 
energy

$$$$
38:0
     RDKit          3D

 36 38  0  0  0  0  0  0  0  0999 V2000
   -5.0790   25.4610  -30.4520 C   0  0  0  0  0  0  0  0  0  0  0  0
   -3.7130   25.0590  -30.4510 O   0  0  0  0  0  0  0  0  0  0  0  0
   -3.2700   23.7260  -30.5110 C   0  0  0  0  0  0  0  0  0  0  0  0
   -3.8880   22.7850  -31.3610 C   0  0  0  0  0  0  0  0  0  0  0  0
   -3.4450   21.4590  -31.3970 C   0  0  0  0  0  0  0  0  0  0  0  0
   -4.2080   20.2900  -32.4720 S   0  0  0  0  0  0  0  0  0  0  0  0
   -4.6920   19.0920  -31.7020 O   0  0  0  0  0  0  0  0  0  0  0  0
   -3.1980   19.8410  -33.4900 O   0  0  0  0  0  0  0  0  0  0  0  0
   -5.5550   21.0230  -33.2840 N   0  0  0  0  0  0  0  0  0  0  0  0
   -6.8810   21.1060  -32.7290 C   0  0  0  0  0  0  0  0  0  0  0  0
   -7.3560   22.2770  -32.1050 C   0  0  0  0  0  0  0  0  0  0  0  0
   -8.6520   22.3230  -31.5830 C   0  0  0  0  0  0  0  0  0  0  0  0
   -9.4850   21.2060  -31.6730 C   0  0  0  0  0  0  0  0  0  0  0  0
   -9.0210   20.0370  -32.2830 C   0  0  0  0  0  0  0  0  0  0  0  0
   -7.7260   19.9870  -32.8060 C   0  0  0  0  0  0  0  0  0  0  0  0
   -2.3860   21.0610  -30.5790 C   0  0  0  0  0  0  0  0  0  0  0  0
   -1.7640   21.9800  -29.7360 C   0  0  0  0  0  0  0  0  0  0  0  0
   -2.1920   23.3200  -29.6910 C   0  0  0  0  0  0  0  0  0  0  0  0
   -1.5280   24.2610  -28.8220 N   0  0  0  0  0  0  0  0  0  0  0  0
   -2.0580   24.9940  -27.8250 C   0  0  0  0  0  0  0  0  0  0  0  0
   -1.0970   25.7390  -27.2480 N   0  0  0  0  0  0  0  0  0  0  0  0
    0.0160   25.4450  -27.9050 N   0  0  0  0  0  0  0  0  0  0  0  0
   -0.2390   24.5560  -28.8510 N   0  0  0  0  0  0  0  0  0  0  0  0
   -5.4314   25.5647  -29.4152 H   0  0  0  0  0  0  0  0  0  0  0  0
   -5.1768   26.4260  -30.9708 H   0  0  0  0  0  0  0  0  0  0  0  0
   -5.6840   24.7028  -30.9708 H   0  0  0  0  0  0  0  0  0  0  0  0
   -4.7261   23.0971  -32.0014 H   0  0  0  0  0  0  0  0  0  0  0  0
   -5.3590   21.4880  -34.1980 H   0  0  0  0  0  0  0  0  0  0  0  0
   -6.7036   23.1593  -32.0283 H   0  0  0  0  0  0  0  0  0  0  0  0
   -9.0165   23.2416  -31.1001 H   0  0  0  0  0  0  0  0  0  0  0  0
  -10.5055   21.2459  -31.2642 H   0  0  0  0  0  0  0  0  0  0  0  0
   -9.6757   19.1557  -32.3514 H   0  0  0  0  0  0  0  0  0  0  0  0
   -7.3655   19.0632  -33.2821 H   0  0  0  0  0  0  0  0  0  0  0  0
   -2.0408   20.0168  -30.6000 H   0  0  0  0  0  0  0  0  0  0  0  0
   -0.9289   21.6543  -29.0984 H   0  0  0  0  0  0  0  0  0  0  0  0
   -3.1168   24.9854  -27.5269 H   0  0  0  0  0  0  0  0  0  0  0  0
  1  2  1  0
  2  3  1  0
  3  4  2  0
  4  5  1  0
  5  6  1  0
  6  7  2  0
  6  8  2  0
  6  9  1  0
  9 10  1  0
 10 11  2  0
 11 12  1  0
 12 13  2  0
 13 14  1  0
 14 15  2  0
  5 16  2  0
 16 17  1  0
 17 18  2  0
 18 19  1  0
 19 20  1  0
 20 21  2  0
 21 22  1  0
 22 23  2  0
 18  3  1  0
 23 19  1  0
 15 10  1  0
  1 24  1  0
  1 25  1  0
  1 26  1  0
  4 27  1  0
  9 28  1  0
 11 29  1  0
 12 30  1  0
 13 31  1  0
 14 32  1  0
 15 33  1  0
 16 34  1  0
 17 35  1  0
 20 36  1  0
M  END
>  <UniqueID>  (39) 
37

>  <SMILES>  (39) 
COc1cc(S(=O)(=O)Nc2ccccc2)ccc1-n1cnnn1

>  <Energy>  (39) 
83.9942477185686

>  <Genealogy>  (39) 
COc1cc(S(=O)(=O)Nc2ccccc2)ccc1-n1cnnn1 (3D coordinates assigned)
COc1cc(S(=O)(=O)Nc2ccccc2)ccc1-n1cnnn1 (optimized conformer: 83.9942477185686 kcal/mol)

>  <smiles>  (39) 
COc1cc(S(=O)(=O)Nc2ccccc2)ccc1-n1cnnn1

>  <score_type>  (39) 
oracle

>  <origin>  (39) 
adgpu

>  <m_score__min__energy>  (39) 
-8.7799999999999994

>  <m_primary>  (39) 
energy

$$$$
39:0
     RDKit          3D

 31 33  0  0  0  0  0  0  0  0999 V2000
   -4.2180   26.1360  -29.9660 H   0  0  0  0  0  0  0  0  0  0  0  0
   -3.8940   25.3000  -30.5040 N   0  0  0  0  0  0  0  0  0  0  0  0
   -4.6780   24.2960  -30.7260 C   0  0  0  0  0  0  0  0  0  0  0  0
   -4.2190   23.2260  -31.4260 N   0  0  0  0  0  0  0  0  0  0  0  0
   -5.0090   22.1480  -31.6810 C   0  0  0  0  0  0  0  0  0  0  0  0
   -4.4090   21.0020  -32.4020 C   0  0  0  0  0  0  0  0  0  0  0  0
   -3.1660   20.4920  -31.9900 C   0  0  0  0  0  0  0  0  0  0  0  0
   -2.6398   20.9512  -31.1401 H   0  0  0  0  0  0  0  0  0  0  0  0
   -2.5950   19.4020  -32.6570 C   0  0  0  0  0  0  0  0  0  0  0  0
   -1.6165   19.0142  -32.3375 H   0  0  0  0  0  0  0  0  0  0  0  0
   -3.2650   18.8060  -33.7270 C   0  0  0  0  0  0  0  0  0  0  0  0
   -2.8116   17.9530  -34.2531 H   0  0  0  0  0  0  0  0  0  0  0  0
   -4.5120   19.2930  -34.1300 C   0  0  0  0  0  0  0  0  0  0  0  0
   -5.0413   18.8198  -34.9702 H   0  0  0  0  0  0  0  0  0  0  0  0
   -5.0870   20.3810  -33.4660 C   0  0  0  0  0  0  0  0  0  0  0  0
   -6.0743   20.7528  -33.7774 H   0  0  0  0  0  0  0  0  0  0  0  0
   -6.3500   22.1500  -31.2270 C   0  0  0  0  0  0  0  0  0  0  0  0
   -7.3120   21.0690  -31.5480 C   0  0  0  0  0  0  0  0  0  0  0  0
   -8.5720   21.3720  -32.0930 C   0  0  0  0  0  0  0  0  0  0  0  0
   -8.8491   22.4197  -32.2813 H   0  0  0  0  0  0  0  0  0  0  0  0
   -9.4750   20.3480  -32.3970 C   0  0  0  0  0  0  0  0  0  0  0  0
  -10.4560   20.5909  -32.8313 H   0  0  0  0  0  0  0  0  0  0  0  0
   -9.1310   19.0160  -32.1490 C   0  0  0  0  0  0  0  0  0  0  0  0
   -9.8409   18.2109  -32.3897 H   0  0  0  0  0  0  0  0  0  0  0  0
   -7.8870   18.7070  -31.5960 C   0  0  0  0  0  0  0  0  0  0  0  0
   -7.6195   17.6584  -31.3989 H   0  0  0  0  0  0  0  0  0  0  0  0
   -6.9800   19.7270  -31.2920 C   0  0  0  0  0  0  0  0  0  0  0  0
   -6.0034   19.4785  -30.8510 H   0  0  0  0  0  0  0  0  0  0  0  0
   -6.7880   23.2610  -30.4910 C   0  0  0  0  0  0  0  0  0  0  0  0
   -7.8154   23.2866  -30.0989 H   0  0  0  0  0  0  0  0  0  0  0  0
   -5.9520   24.3040  -30.2600 N   0  0  0  0  0  0  0  0  0  0  0  0
  1  2  1  0
  2  3  2  0
  3  4  1  0
  4  5  2  0
  5  6  1  0
  6  7  2  0
  7  8  1  0
  7  9  1  0
  9 10  1  0
  9 11  2  0
 11 12  1  0
 11 13  1  0
 13 14  1  0
 13 15  2  0
 15 16  1  0
  5 17  1  0
 17 18  1  0
 18 19  2  0
 19 20  1  0
 19 21  1  0
 21 22  1  0
 21 23  2  0
 23 24  1  0
 23 25  1  0
 25 26  1  0
 25 27  2  0
 27 28  1  0
 17 29  2  0
 29 30  1  0
 29 31  1  0
 31  3  1  0
 15  6  1  0
 27 18  1  0
M  CHG  1  31  -1
M  END
>  <UniqueID>  (40) 
38

>  <SMILES>  (40) 
[H]/N=c1/nc(-c2ccccc2)c(-c2ccccc2)c[n-]1

>  <Energy>  (40) 
46.61303545555533

>  <Genealogy>  (40) 
N=c1nc(-c2ccccc2)c(-c2ccccc2)c[n-]1 (protonated)
[H]/N=c1/nc(-c2ccccc2)c(-c2ccccc2)c[n-]1 (cis-trans isomerization)
[H]/N=c1/nc(-c2ccccc2)c(-c2ccccc2)c[n-]1 (3D coordinates assigned)
[H]/N=c1/nc(-c2ccccc2)c(-c2ccccc2)c[n-]1 (optimized conformer: 46.61303545555533 kcal/mol)

>  <smiles>  (40) 
N=c1nc(-c2ccccc2)c(-c2ccccc2)c[nH]1

>  <score_type>  (40) 
oracle

>  <origin>  (40) 
adgpu

>  <m_score__min__energy>  (40) 
-9.1099999999999994

>  <m_primary>  (40) 
energy

$$$$
40:0
     RDKit          3D

 34 36  0  0  0  0  0  0  0  0999 V2000
   -3.9131   15.9381  -34.6471 H   0  0  0  0  0  0  0  0  0  0  0  0
   -4.7210   16.5920  -34.2870 C   0  0  0  0  0  0  0  0  0  0  0  0
   -5.4710   16.2240  -33.1680 C   0  0  0  0  0  0  0  0  0  0  0  0
   -5.2468   15.2845  -32.6417 H   0  0  0  0  0  0  0  0  0  0  0  0
   -6.5070   17.0480  -32.7150 C   0  0  0  0  0  0  0  0  0  0  0  0
   -7.0841   16.7632  -31.8229 H   0  0  0  0  0  0  0  0  0  0  0  0
   -6.8130   18.2410  -33.3980 C   0  0  0  0  0  0  0  0  0  0  0  0
   -7.8500   19.1320  -32.9510 N   0  0  0  0  0  0  0  0  0  0  0  0
   -7.6960   20.3270  -32.4570 C   0  0  0  0  0  0  0  0  0  0  0  0
   -6.4550   20.8360  -32.2290 N   0  0  0  0  0  0  0  0  0  0  0  0
   -6.2710   22.0740  -31.6920 C   0  0  0  0  0  0  0  0  0  0  0  0
   -7.4000   22.8430  -31.3620 C   0  0  0  0  0  0  0  0  0  0  0  0
   -7.2320   24.1190  -30.8270 C   0  0  0  0  0  0  0  0  0  0  0  0
   -8.1108   24.7244  -30.5602 H   0  0  0  0  0  0  0  0  0  0  0  0
   -5.9460   24.6280  -30.6300 C   0  0  0  0  0  0  0  0  0  0  0  0
   -5.7600   26.0200  -30.0870 C   0  0  0  0  0  0  0  0  0  0  0  0
   -5.7642   25.9883  -28.9875 H   0  0  0  0  0  0  0  0  0  0  0  0
   -4.7997   26.4254  -30.4384 H   0  0  0  0  0  0  0  0  0  0  0  0
   -6.5802   26.6633  -30.4384 H   0  0  0  0  0  0  0  0  0  0  0  0
   -4.8330   23.8390  -30.9850 C   0  0  0  0  0  0  0  0  0  0  0  0
   -3.6720   24.3150  -30.8430 O   0  0  0  0  0  0  0  0  0  0  0  0
   -5.0070   22.5680  -31.4810 N   0  0  0  0  0  0  0  0  0  0  0  0
   -3.8360   21.7570  -31.8660 C   0  0  0  0  0  0  0  0  0  0  0  0
   -3.3226   21.4014  -30.9605 H   0  0  0  0  0  0  0  0  0  0  0  0
   -4.1676   20.8941  -32.4623 H   0  0  0  0  0  0  0  0  0  0  0  0
   -3.1449   22.3709  -32.4623 H   0  0  0  0  0  0  0  0  0  0  0  0
   -8.6690   22.3040  -31.5890 C   0  0  0  0  0  0  0  0  0  0  0  0
   -9.5671   22.8857  -31.3339 H   0  0  0  0  0  0  0  0  0  0  0  0
   -8.7940   21.0610  -32.1250 N   0  0  0  0  0  0  0  0  0  0  0  0
   -9.7510   20.6720  -32.2850 H   0  0  0  0  0  0  0  0  0  0  0  0
   -6.0330   18.6160  -34.5000 C   0  0  0  0  0  0  0  0  0  0  0  0
   -6.2370   19.5660  -35.0155 H   0  0  0  0  0  0  0  0  0  0  0  0
   -4.9970   17.7910  -34.9490 C   0  0  0  0  0  0  0  0  0  0  0  0
   -4.3991   18.0862  -35.8238 H   0  0  0  0  0  0  0  0  0  0  0  0
  1  2  1  0
  2  3  2  0
  3  4  1  0
  3  5  1  0
  5  6  1  0
  5  7  2  0
  7  8  1  0
  8  9  2  0
  9 10  1  0
 10 11  2  0
 11 12  1  0
 12 13  1  0
 13 14  1  0
 13 15  2  0
 15 16  1  0
 16 17  1  0
 16 18  1  0
 16 19  1  0
 15 20  1  0
 20 21  2  0
 20 22  1  0
 22 23  1  0
 23 24  1  0
 23 25  1  0
 23 26  1  0
 12 27  2  0
 27 28  1  0
 27 29  1  0
 29 30  1  0
  7 31  1  0
 31 32  1  0
 31 33  2  0
 33 34  1  0
 33  2  1  0
 29  9  1  0
 22 11  1  0
M  END
>  <UniqueID>  (41) 
39

>  <SMILES>  (41) 
Cc1cc2c[nH]/c(=N/c3ccccc3)nc2n(C)c1=O

>  <Energy>  (41) 
49.595463115302394

>  <Genealogy>  (41) 
Cc1cc2c[nH]/c(=N/c3ccccc3)nc2n(C)c1=O (cis-trans isomerization)
Cc1cc2c[nH]/c(=N/c3ccccc3)nc2n(C)c1=O (3D coordinates assigned)
Cc1cc2c[nH]/c(=N/c3ccccc3)nc2n(C)c1=O (optimized conformer: 49.595463115302394 kcal/mol)

>  <smiles>  (41) 
Cc1cc2c[nH]c(=Nc3ccccc3)nc2n(C)c1=O

>  <score_type>  (41) 
oracle

>  <origin>  (41) 
adgpu

>  <m_score__min__energy>  (41) 
-8.1300000000000008

>  <m_primary>  (41) 
energy

$$$$
41:0
     RDKit          3D

 37 39  0  0  0  0  0  0  0  0999 V2000
   -7.6280   18.1420  -32.3980 C   0  0  0  0  0  0  0  0  0  0  0  0
   -6.7660   19.0370  -33.0380 C   0  0  0  0  0  0  0  0  0  0  0  0
   -6.9960   20.4130  -32.9550 C   0  0  0  0  0  0  0  0  0  0  0  0
   -8.0990   20.9050  -32.2360 C   0  0  0  0  0  0  0  0  0  0  0  0
   -8.3500   22.3870  -32.1370 C   0  0  0  0  0  0  0  0  0  0  0  0
   -7.1310   23.1400  -32.4350 N   0  0  0  0  0  0  0  0  0  0  0  0
   -6.1430   23.5150  -31.4550 C   0  0  0  0  0  0  0  0  0  0  0  0
   -6.3430   24.5920  -30.5720 C   0  0  0  0  0  0  0  0  0  0  0  0
   -5.3660   24.9260  -29.6290 C   0  0  0  0  0  0  0  0  0  0  0  0
   -4.1690   24.1950  -29.5510 C   0  0  0  0  0  0  0  0  0  0  0  0
   -3.1310   24.5490  -28.5480 C   0  0  0  0  0  0  0  0  0  0  0  0
   -3.4440   24.5870  -27.1760 C   0  0  0  0  0  0  0  0  0  0  0  0
   -2.4660   24.9210  -26.2350 C   0  0  0  0  0  0  0  0  0  0  0  0
   -1.1660   25.2180  -26.6500 C   0  0  0  0  0  0  0  0  0  0  0  0
   -0.8420   25.1830  -28.0080 C   0  0  0  0  0  0  0  0  0  0  0  0
   -1.8170   24.8520  -28.9540 C   0  0  0  0  0  0  0  0  0  0  0  0
   -3.9680   23.1240  -30.4390 C   0  0  0  0  0  0  0  0  0  0  0  0
   -4.9450   22.7910  -31.3810 C   0  0  0  0  0  0  0  0  0  0  0  0
   -8.9530   19.9990  -31.5850 C   0  0  0  0  0  0  0  0  0  0  0  0
   -8.7200   18.6230  -31.6710 C   0  0  0  0  0  0  0  0  0  0  0  0
   -7.4467   17.0592  -32.4666 H   0  0  0  0  0  0  0  0  0  0  0  0
   -5.9051   18.6577  -33.6080 H   0  0  0  0  0  0  0  0  0  0  0  0
   -6.3110   21.1139  -33.4544 H   0  0  0  0  0  0  0  0  0  0  0  0
   -9.1334   22.6692  -32.8558 H   0  0  0  0  0  0  0  0  0  0  0  0
   -8.6695   22.6235  -31.1113 H   0  0  0  0  0  0  0  0  0  0  0  0
   -6.9540   23.3810  -33.4370 H   0  0  0  0  0  0  0  0  0  0  0  0
   -7.2742   25.1752  -30.6238 H   0  0  0  0  0  0  0  0  0  0  0  0
   -5.5362   25.7684  -28.9424 H   0  0  0  0  0  0  0  0  0  0  0  0
   -4.4655   24.3522  -26.8422 H   0  0  0  0  0  0  0  0  0  0  0  0
   -2.7208   24.9500  -25.1653 H   0  0  0  0  0  0  0  0  0  0  0  0
   -0.3976   25.4794  -25.9076 H   0  0  0  0  0  0  0  0  0  0  0  0
    0.1823   25.4163  -28.3341 H   0  0  0  0  0  0  0  0  0  0  0  0
   -1.5560   24.8281  -30.0223 H   0  0  0  0  0  0  0  0  0  0  0  0
   -3.0347   22.5437  -30.3920 H   0  0  0  0  0  0  0  0  0  0  0  0
   -4.7722   21.9523  -32.0714 H   0  0  0  0  0  0  0  0  0  0  0  0
   -9.8091   20.3740  -31.0049 H   0  0  0  0  0  0  0  0  0  0  0  0
   -9.3971   17.9185  -31.1658 H   0  0  0  0  0  0  0  0  0  0  0  0
  1  2  2  0
  2  3  1  0
  3  4  2  0
  4  5  1  0
  5  6  1  0
  6  7  1  0
  7  8  2  0
  8  9  1  0
  9 10  2  0
 10 11  1  0
 11 12  2  0
 12 13  1  0
 13 14  2  0
 14 15  1  0
 15 16  2  0
 10 17  1  0
 17 18  2  0
  4 19  1  0
 19 20  2  0
 20  1  1  0
 18  7  1  0
 16 11  1  0
  1 21  1  0
  2 22  1  0
  3 23  1  0
  5 24  1  0
  5 25  1  0
  6 26  1  0
  8 27  1  0
  9 28  1  0
 12 29  1  0
 13 30  1  0
 14 31  1  0
 15 32  1  0
 16 33  1  0
 17 34  1  0
 18 35  1  0
 19 36  1  0
 20 37  1  0
M  END
>  <UniqueID>  (42) 
40

>  <SMILES>  (42) 
c1ccc(CNc2ccc(-c3ccccc3)cc2)cc1

>  <Energy>  (42) 
44.231232989403374

>  <Genealogy>  (42) 
c1ccc(CNc2ccc(-c3ccccc3)cc2)cc1 (3D coordinates assigned)
c1ccc(CNc2ccc(-c3ccccc3)cc2)cc1 (optimized conformer: 44.231232989403374 kcal/mol)

>  <smiles>  (42) 
c1ccc(CNc2ccc(-c3ccccc3)cc2)cc1

>  <score_type>  (42) 
oracle

>  <origin>  (42) 
adgpu

>  <m_score__min__energy>  (42) 
-8.3499999999999996

>  <m_primary>  (42) 
energy

$$$$
42:0
     RDKit          3D

 34 35  0  0  0  0  0  0  0  0999 V2000
   -6.5090   25.6060  -29.3880 Cl  0  0  0  0  0  0  0  0  0  0  0  0
   -5.5130   24.4850  -30.2970 C   0  0  0  0  0  0  0  0  0  0  0  0
   -4.2110   24.2000  -29.8720 C   0  0  0  0  0  0  0  0  0  0  0  0
   -3.4170   23.3030  -30.5930 C   0  0  0  0  0  0  0  0  0  0  0  0
   -3.9220   22.6830  -31.7480 C   0  0  0  0  0  0  0  0  0  0  0  0
   -3.0850   21.6850  -32.5080 C   0  0  0  0  0  0  0  0  0  0  0  0
   -3.8110   21.1100  -33.6550 N   0  0  0  0  0  0  0  0  0  0  0  0
   -4.1860   19.6900  -33.4630 C   0  0  0  0  0  0  0  0  0  0  0  0
   -5.4880   19.2990  -34.1920 C   0  0  0  0  0  0  0  0  0  0  0  0
   -6.6930   19.3580  -33.2880 C   0  0  0  0  0  0  0  0  0  0  0  0
   -7.2700   20.5970  -32.9590 C   0  0  0  0  0  0  0  0  0  0  0  0
   -8.3800   20.6540  -32.1100 C   0  0  0  0  0  0  0  0  0  0  0  0
   -8.9210   19.4780  -31.5850 C   0  0  0  0  0  0  0  0  0  0  0  0
   -8.3540   18.2410  -31.9080 C   0  0  0  0  0  0  0  0  0  0  0  0
   -7.2440   18.1800  -32.7560 C   0  0  0  0  0  0  0  0  0  0  0  0
   -5.2280   22.9770  -32.1720 C   0  0  0  0  0  0  0  0  0  0  0  0
   -6.0200   23.8730  -31.4480 C   0  0  0  0  0  0  0  0  0  0  0  0
   -3.8109   24.6829  -28.9683 H   0  0  0  0  0  0  0  0  0  0  0  0
   -2.3938   23.0821  -30.2548 H   0  0  0  0  0  0  0  0  0  0  0  0
   -2.1804   22.1898  -32.8780 H   0  0  0  0  0  0  0  0  0  0  0  0
   -2.8319   20.8635  -31.8217 H   0  0  0  0  0  0  0  0  0  0  0  0
   -3.1690   21.1620  -34.4810 H   0  0  0  0  0  0  0  0  0  0  0  0
   -4.6390   21.7040  -33.8880 H   0  0  0  0  0  0  0  0  0  0  0  0
   -3.3696   19.0587  -33.8437 H   0  0  0  0  0  0  0  0  0  0  0  0
   -4.3578   19.5410  -32.3868 H   0  0  0  0  0  0  0  0  0  0  0  0
   -5.6432   19.9907  -35.0331 H   0  0  0  0  0  0  0  0  0  0  0  0
   -5.3794   18.2607  -34.5386 H   0  0  0  0  0  0  0  0  0  0  0  0
   -6.8469   21.5251  -33.3708 H   0  0  0  0  0  0  0  0  0  0  0  0
   -8.8275   21.6261  -31.8554 H   0  0  0  0  0  0  0  0  0  0  0  0
   -9.7937   19.5249  -30.9170 H   0  0  0  0  0  0  0  0  0  0  0  0
   -8.7815   17.3156  -31.4947 H   0  0  0  0  0  0  0  0  0  0  0  0
   -6.8001   17.2055  -33.0078 H   0  0  0  0  0  0  0  0  0  0  0  0
   -5.6298   22.5000  -33.0781 H   0  0  0  0  0  0  0  0  0  0  0  0
   -7.0432   24.0970  -31.7839 H   0  0  0  0  0  0  0  0  0  0  0  0
  1  2  1  0
  2  3  2  0
  3  4  1  0
  4  5  2  0
  5  6  1  0
  6  7  1  0
  7  8  1  0
  8  9  1  0
  9 10  1  0
 10 11  2  0
 11 12  1  0
 12 13  2  0
 13 14  1  0
 14 15  2  0
  5 16  1  0
 16 17  2  0
 17  2  1  0
 15 10  1  0
  3 18  1  0
  4 19  1  0
  6 20  1  0
  6 21  1  0
  7 22  1  0
  7 23  1  0
  8 24  1  0
  8 25  1  0
  9 26  1  0
  9 27  1  0
 11 28  1  0
 12 29  1  0
 13 30  1  0
 14 31  1  0
 15 32  1  0
 16 33  1  0
 17 34  1  0
M  CHG  1   7   1
M  END
>  <UniqueID>  (43) 
41

>  <SMILES>  (43) 
Clc1ccc(C[NH2+]CCc2ccccc2)cc1

>  <Energy>  (43) 
33.29400883075965

>  <Genealogy>  (43) 
Clc1ccc(C[NH2+]CCc2ccccc2)cc1 (protonated)
Clc1ccc(C[NH2+]CCc2ccccc2)cc1 (3D coordinates assigned)
Clc1ccc(C[NH2+]CCc2ccccc2)cc1 (optimized conformer: 33.29400883075965 kcal/mol)

>  <smiles>  (43) 
Clc1ccc(CNCCc2ccccc2)cc1

>  <score_type>  (43) 
oracle

>  <origin>  (43) 
adgpu

>  <m_score__min__energy>  (43) 
-6.5700000000000003

>  <m_primary>  (43) 
energy

$$$$
43:0
     RDKit          3D

 30 32  0  0  0  0  0  0  0  0999 V2000
   -0.3900   21.1450  -29.2510 C   0  0  0  0  0  0  0  0  0  0  0  0
   -1.3710   22.2370  -29.5850 C   0  0  0  0  0  0  0  0  0  0  0  0
   -1.1970   23.5110  -29.0270 C   0  0  0  0  0  0  0  0  0  0  0  0
   -2.1050   24.5270  -29.3350 C   0  0  0  0  0  0  0  0  0  0  0  0
   -1.9560   25.6740  -28.8390 O   0  0  0  0  0  0  0  0  0  0  0  0
   -3.1250   24.2930  -30.1520 O   0  0  0  0  0  0  0  0  0  0  0  0
   -3.3400   23.1060  -30.7110 C   0  0  0  0  0  0  0  0  0  0  0  0
   -4.4380   22.9370  -31.5590 C   0  0  0  0  0  0  0  0  0  0  0  0
   -4.6920   21.6890  -32.1570 C   0  0  0  0  0  0  0  0  0  0  0  0
   -5.7800   21.4820  -33.0160 O   0  0  0  0  0  0  0  0  0  0  0  0
   -6.9060   20.7110  -32.7020 C   0  0  0  0  0  0  0  0  0  0  0  0
   -6.9830   19.3480  -33.0490 C   0  0  0  0  0  0  0  0  0  0  0  0
   -5.7040   18.5520  -33.9560 Cl  0  0  0  0  0  0  0  0  0  0  0  0
   -8.1290   18.6220  -32.7100 C   0  0  0  0  0  0  0  0  0  0  0  0
   -9.1590   19.2310  -32.0670 N   0  0  0  0  0  0  0  0  0  0  0  0
   -9.1180   20.5490  -31.7380 C   0  0  0  0  0  0  0  0  0  0  0  0
   -7.9930   21.3150  -32.0560 C   0  0  0  0  0  0  0  0  0  0  0  0
   -7.9480   23.0170  -31.6210 Cl  0  0  0  0  0  0  0  0  0  0  0  0
   -3.8230   20.6220  -31.9100 C   0  0  0  0  0  0  0  0  0  0  0  0
   -2.7220   20.7800  -31.0640 C   0  0  0  0  0  0  0  0  0  0  0  0
   -2.4670   22.0210  -30.4510 C   0  0  0  0  0  0  0  0  0  0  0  0
   -0.3048   21.0502  -28.1584 H   0  0  0  0  0  0  0  0  0  0  0  0
   -0.7423   20.1932  -29.6753 H   0  0  0  0  0  0  0  0  0  0  0  0
    0.5939   21.3937  -29.6753 H   0  0  0  0  0  0  0  0  0  0  0  0
   -0.3517   23.7093  -28.3516 H   0  0  0  0  0  0  0  0  0  0  0  0
   -5.1083   23.7856  -31.7603 H   0  0  0  0  0  0  0  0  0  0  0  0
   -8.1967   17.5541  -32.9649 H   0  0  0  0  0  0  0  0  0  0  0  0
   -9.9708   21.0132  -31.2211 H   0  0  0  0  0  0  0  0  0  0  0  0
   -4.0079   19.6480  -32.3866 H   0  0  0  0  0  0  0  0  0  0  0  0
   -2.0505   19.9292  -30.8760 H   0  0  0  0  0  0  0  0  0  0  0  0
  1  2  1  0
  2  3  2  0
  3  4  1  0
  4  5  2  0
  4  6  1  0
  6  7  1  0
  7  8  2  0
  8  9  1  0
  9 10  1  0
 10 11  1  0
 11 12  2  0
 12 13  1  0
 12 14  1  0
 14 15  2  0
 15 16  1  0
 16 17  2  0
 17 18  1  0
  9 19  2  0
 19 20  1  0
 20 21  2  0
 21  2  1  0
 21  7  1  0
 17 11  1  0
  1 22  1  0
  1 23  1  0
  1 24  1  0
  3 25  1  0
  8 26  1  0
 14 27  1  0
 16 28  1  0
 19 29  1  0
 20 30  1  0
M  END
>  <UniqueID>  (44) 
42

>  <SMILES>  (44) 
Cc1cc(=O)oc2cc(Oc3c(Cl)cncc3Cl)ccc12

>  <Energy>  (44) 
47.69698888428345

>  <Genealogy>  (44) 
Cc1cc(=O)oc2cc(Oc3c(Cl)cncc3Cl)ccc12 (3D coordinates assigned)
Cc1cc(=O)oc2cc(Oc3c(Cl)cncc3Cl)ccc12 (optimized conformer: 47.69698888428345 kcal/mol)

>  <smiles>  (44) 
Cc1cc(=O)oc2cc(Oc3c(Cl)cncc3Cl)ccc12

>  <score_type>  (44) 
oracle

>  <origin>  (44) 
adgpu

>  <m_score__min__energy>  (44) 
-7.4800000000000004

>  <m_primary>  (44) 
energy

$$$$
44:0
     RDKit          3D

 36 38  0  0  0  0  0  0  0  0999 V2000
   -1.0490   24.3110  -28.6620 C   0  0  0  0  0  0  0  0  0  0  0  0
   -2.3570   24.2700  -29.3790 C   0  0  0  0  0  0  0  0  0  0  0  0
   -2.8580   23.1870  -30.0740 C   0  0  0  0  0  0  0  0  0  0  0  0
   -4.0720   23.6040  -30.5880 C   0  0  0  0  0  0  0  0  0  0  0  0
   -4.9900   22.8040  -31.4270 C   0  0  0  0  0  0  0  0  0  0  0  0
   -4.6010   22.3820  -32.5500 O   0  0  0  0  0  0  0  0  0  0  0  0
   -6.3310   22.5370  -30.9870 N   0  0  0  0  0  0  0  0  0  0  0  0
   -7.1700   21.5120  -31.5520 C   0  0  0  0  0  0  0  0  0  0  0  0
   -8.5620   21.6310  -31.4490 C   0  0  0  0  0  0  0  0  0  0  0  0
   -9.3940   20.6390  -31.9700 C   0  0  0  0  0  0  0  0  0  0  0  0
   -8.8460   19.5130  -32.5890 C   0  0  0  0  0  0  0  0  0  0  0  0
   -7.4500   19.3620  -32.6890 C   0  0  0  0  0  0  0  0  0  0  0  0
   -6.8650   18.1960  -33.3070 N   0  0  0  0  0  0  0  0  0  0  0  0
   -5.8840   18.1690  -34.2350 C   0  0  0  0  0  0  0  0  0  0  0  0
   -5.6130   16.8550  -34.5480 C   0  0  0  0  0  0  0  0  0  0  0  0
   -6.4740   16.1210  -33.7600 C   0  0  0  0  0  0  0  0  0  0  0  0
   -7.2220   16.9540  -33.0140 N   0  0  0  0  0  0  0  0  0  0  0  0
   -6.6200   20.3660  -32.1540 C   0  0  0  0  0  0  0  0  0  0  0  0
   -4.2240   24.9230  -30.1750 C   0  0  0  0  0  0  0  0  0  0  0  0
   -5.3700   25.8330  -30.4740 C   0  0  0  0  0  0  0  0  0  0  0  0
   -3.1850   25.2860  -29.4590 O   0  0  0  0  0  0  0  0  0  0  0  0
   -1.2257   24.3055  -27.5763 H   0  0  0  0  0  0  0  0  0  0  0  0
   -0.4504   23.4312  -28.9406 H   0  0  0  0  0  0  0  0  0  0  0  0
   -0.5067   25.2266  -28.9406 H   0  0  0  0  0  0  0  0  0  0  0  0
   -2.3893   22.1991  -30.1937 H   0  0  0  0  0  0  0  0  0  0  0  0
   -6.7610   23.1870  -30.2920 H   0  0  0  0  0  0  0  0  0  0  0  0
   -9.0013   22.5103  -30.9552 H   0  0  0  0  0  0  0  0  0  0  0  0
  -10.4862   20.7443  -31.8929 H   0  0  0  0  0  0  0  0  0  0  0  0
   -9.5100   18.7389  -33.0012 H   0  0  0  0  0  0  0  0  0  0  0  0
   -5.3852   19.0485  -34.6682 H   0  0  0  0  0  0  0  0  0  0  0  0
   -4.8730   16.4752  -35.2678 H   0  0  0  0  0  0  0  0  0  0  0  0
   -6.5393   15.0231  -33.7438 H   0  0  0  0  0  0  0  0  0  0  0  0
   -5.5272   20.2525  -32.2076 H   0  0  0  0  0  0  0  0  0  0  0  0
   -5.8139   26.1855  -29.5313 H   0  0  0  0  0  0  0  0  0  0  0  0
   -5.0115   26.6952  -31.0555 H   0  0  0  0  0  0  0  0  0  0  0  0
   -6.1286   25.2885  -31.0555 H   0  0  0  0  0  0  0  0  0  0  0  0
  1  2  1  0
  2  3  2  0
  3  4  1  0
  4  5  1  0
  5  6  2  0
  5  7  1  0
  7  8  1  0
  8  9  2  0
  9 10  1  0
 10 11  2  0
 11 12  1  0
 12 13  1  0
 13 14  1  0
 14 15  2  0
 15 16  1  0
 16 17  2  0
 12 18  2  0
  4 19  2  0
 19 20  1  0
 19 21  1  0
 21  2  1  0
 18  8  1  0
 17 13  1  0
  1 22  1  0
  1 23  1  0
  1 24  1  0
  3 25  1  0
  7 26  1  0
  9 27  1  0
 10 28  1  0
 11 29  1  0
 14 30  1  0
 15 31  1  0
 16 32  1  0
 18 33  1  0
 20 34  1  0
 20 35  1  0
 20 36  1  0
M  END
>  <UniqueID>  (45) 
43

>  <SMILES>  (45) 
Cc1cc(C(=O)Nc2cccc(-n3cccn3)c2)c(C)o1

>  <Energy>  (45) 
98.05412399560981

>  <Genealogy>  (45) 
Cc1cc(C(=O)Nc2cccc(-n3cccn3)c2)c(C)o1 (3D coordinates assigned)
Cc1cc(C(=O)Nc2cccc(-n3cccn3)c2)c(C)o1 (optimized conformer: 98.05412399560981 kcal/mol)

>  <smiles>  (45) 
Cc1cc(C(=O)Nc2cccc(-n3cccn3)c2)c(C)o1

>  <score_type>  (45) 
oracle

>  <origin>  (45) 
adgpu

>  <m_score__min__energy>  (45) 
-7.9699999999999998

>  <m_primary>  (45) 
energy

$$$$
45:0
     RDKit          3D

 41 43  0  0  0  0  0  0  0  0999 V2000
   -7.3920   24.8920  -30.2870 O   0  0  0  0  0  0  0  0  0  0  0  0
   -6.2250   24.7080  -30.7260 C   0  0  0  0  0  0  0  0  0  0  0  0
   -5.1520   25.6920  -30.3870 C   0  0  0  0  0  0  0  0  0  0  0  0
   -3.8530   25.1020  -30.6810 N   0  0  0  0  0  0  0  0  0  0  0  0
   -2.9510   24.5470  -29.7120 C   0  0  0  0  0  0  0  0  0  0  0  0
   -1.9880   25.2620  -29.3220 O   0  0  0  0  0  0  0  0  0  0  0  0
   -3.0970   23.1210  -29.1950 C   0  0  1  0  0  0  0  0  0  0  0  0
   -3.7220   22.1920  -30.2450 C   0  0  0  0  0  0  0  0  0  0  0  0
   -2.7280   21.7550  -31.2860 C   0  0  0  0  0  0  0  0  0  0  0  0
   -3.1910   21.2350  -32.5080 C   0  0  0  0  0  0  0  0  0  0  0  0
   -2.2850   20.7700  -33.4640 C   0  0  0  0  0  0  0  0  0  0  0  0
   -0.9120   20.8130  -33.2100 C   0  0  0  0  0  0  0  0  0  0  0  0
   -0.4420   21.3060  -31.9890 C   0  0  0  0  0  0  0  0  0  0  0  0
   -1.3430   21.7670  -31.0120 C   0  0  0  0  0  0  0  0  0  0  0  0
   -0.7970   22.3440  -29.7250 C   0  0  0  0  0  0  0  0  0  0  0  0
   -1.8280   22.5560  -28.6930 N   0  0  0  0  0  0  0  0  0  0  0  0
   -5.9400   23.6210  -31.6200 N   0  0  0  0  0  0  0  0  0  0  0  0
   -6.8480   22.5380  -31.8880 C   0  0  0  0  0  0  0  0  0  0  0  0
   -6.3450   21.3220  -32.3780 C   0  0  0  0  0  0  0  0  0  0  0  0
   -7.2010   20.2410  -32.6120 C   0  0  0  0  0  0  0  0  0  0  0  0
   -8.5680   20.3610  -32.3420 C   0  0  0  0  0  0  0  0  0  0  0  0
   -9.0760   21.5600  -31.8340 C   0  0  0  0  0  0  0  0  0  0  0  0
   -8.2220   22.6450  -31.6010 C   0  0  0  0  0  0  0  0  0  0  0  0
   -5.2862   26.6043  -30.9867 H   0  0  0  0  0  0  0  0  0  0  0  0
   -5.2089   25.9486  -29.3189 H   0  0  0  0  0  0  0  0  0  0  0  0
   -3.7838   23.1861  -28.3382 H   0  0  0  0  0  0  0  0  0  0  0  0
   -4.1174   21.2999  -29.7372 H   0  0  0  0  0  0  0  0  0  0  0  0
   -4.5199   22.7509  -30.7559 H   0  0  0  0  0  0  0  0  0  0  0  0
   -4.2712   21.1943  -32.7117 H   0  0  0  0  0  0  0  0  0  0  0  0
   -2.6537   20.3688  -34.4196 H   0  0  0  0  0  0  0  0  0  0  0  0
   -0.2006   20.4590  -33.9707 H   0  0  0  0  0  0  0  0  0  0  0  0
    0.6397   21.3336  -31.7910 H   0  0  0  0  0  0  0  0  0  0  0  0
   -0.0415   21.6514  -29.3256 H   0  0  0  0  0  0  0  0  0  0  0  0
   -0.3724   23.3297  -29.9662 H   0  0  0  0  0  0  0  0  0  0  0  0
   -1.4410   23.1940  -27.9580 H   0  0  0  0  0  0  0  0  0  0  0  0
   -5.0530   23.6640  -32.1700 H   0  0  0  0  0  0  0  0  0  0  0  0
   -5.2686   21.2188  -32.5795 H   0  0  0  0  0  0  0  0  0  0  0  0
   -6.7992   19.2968  -33.0082 H   0  0  0  0  0  0  0  0  0  0  0  0
   -9.2427   19.5126  -32.5292 H   0  0  0  0  0  0  0  0  0  0  0  0
  -10.1504   21.6516  -31.6165 H   0  0  0  0  0  0  0  0  0  0  0  0
   -8.6258   23.5832  -31.1927 H   0  0  0  0  0  0  0  0  0  0  0  0
  1  2  2  0
  2  3  1  0
  3  4  1  0
  4  5  1  0
  5  6  2  0
  5  7  1  0
  7  8  1  0
  8  9  1  0
  9 10  2  0
 10 11  1  0
 11 12  2  0
 12 13  1  0
 13 14  2  0
 14 15  1  0
 15 16  1  0
  2 17  1  0
 17 18  1  0
 18 19  2  0
 19 20  1  0
 20 21  2  0
 21 22  1  0
 22 23  2  0
 16  7  1  0
 23 18  1  0
 14  9  1  0
  3 24  1  0
  3 25  1  0
  7 26  1  1
  8 27  1  0
  8 28  1  0
 10 29  1  0
 11 30  1  0
 12 31  1  0
 13 32  1  0
 15 33  1  0
 15 34  1  0
 16 35  1  0
 17 36  1  0
 19 37  1  0
 20 38  1  0
 21 39  1  0
 22 40  1  0
 23 41  1  0
M  CHG  1   4  -1
M  END
>  <UniqueID>  (46) 
44

>  <SMILES>  (46) 
O=C(C[N-]C(=O)[C@H]1Cc2ccccc2CN1)Nc1ccccc1

>  <Energy>  (46) 
49.74123962582926

>  <Genealogy>  (46) 
O=C(C[N-]C(=O)C1Cc2ccccc2CN1)Nc1ccccc1 (protonated)
O=C(C[N-]C(=O)[C@H]1Cc2ccccc2CN1)Nc1ccccc1 (chirality)
O=C(C[N-]C(=O)[C@H]1Cc2ccccc2CN1)Nc1ccccc1 (3D coordinates assigned)
O=C(C[N-]C(=O)[C@H]1Cc2ccccc2CN1)Nc1ccccc1 (nonaromatic ring conformer: 49.74123962582926 kcal/mol)

>  <smiles>  (46) 
O=C(CNC(=O)C1Cc2ccccc2CN1)Nc1ccccc1

>  <score_type>  (46) 
oracle

>  <origin>  (46) 
adgpu

>  <m_score__min__energy>  (46) 
-10.34

>  <m_primary>  (46) 
energy

$$$$
46:0
     RDKit          3D

 39 41  0  0  0  0  0  0  0  0999 V2000
    1.8950   25.0080  -24.4620 C   0  0  0  0  0  0  0  0  0  0  0  0
    1.3130   23.8560  -25.2880 C   0  0  0  0  0  0  0  0  0  0  0  0
   -0.0950   23.5180  -24.8040 C   0  0  0  0  0  0  0  0  0  0  0  0
    1.2450   24.2220  -26.6690 O   0  0  0  0  0  0  0  0  0  0  0  0
    0.0980   24.1750  -27.4810 C   0  0  0  0  0  0  0  0  0  0  0  0
   -0.2350   23.0480  -28.2580 C   0  0  0  0  0  0  0  0  0  0  0  0
   -1.3880   23.0490  -29.0480 C   0  0  0  0  0  0  0  0  0  0  0  0
   -2.2320   24.1700  -29.0730 C   0  0  0  0  0  0  0  0  0  0  0  0
   -3.4510   24.1750  -29.9060 C   0  0  0  0  0  0  0  0  0  0  0  0
   -4.2740   23.1180  -30.0540 N   0  0  0  0  0  0  0  0  0  0  0  0
   -5.2100   23.6200  -30.8890 C   0  0  0  0  0  0  0  0  0  0  0  0
   -6.3720   22.8490  -31.3810 C   0  0  0  0  0  0  0  0  0  0  0  0
   -7.6390   23.4450  -31.4700 C   0  0  0  0  0  0  0  0  0  0  0  0
   -8.7220   22.7000  -31.9360 C   0  0  0  0  0  0  0  0  0  0  0  0
   -8.5510   21.4030  -32.3040 N   0  0  0  0  0  0  0  0  0  0  0  0
   -7.3370   20.7890  -32.2320 C   0  0  0  0  0  0  0  0  0  0  0  0
   -7.1950   19.3540  -32.6470 C   0  0  0  0  0  0  0  0  0  0  0  0
   -6.4460   18.6700  -31.7060 F   0  0  0  0  0  0  0  0  0  0  0  0
   -8.4460   18.7720  -32.7440 F   0  0  0  0  0  0  0  0  0  0  0  0
   -6.5620   19.2630  -33.8750 F   0  0  0  0  0  0  0  0  0  0  0  0
   -6.2250   21.5060  -31.7670 C   0  0  0  0  0  0  0  0  0  0  0  0
   -4.9650   24.9030  -31.2220 N   0  0  0  0  0  0  0  0  0  0  0  0
   -3.8700   25.2080  -30.5960 O   0  0  0  0  0  0  0  0  0  0  0  0
   -1.9030   25.2900  -28.2950 C   0  0  0  0  0  0  0  0  0  0  0  0
   -0.7500   25.2920  -27.5050 C   0  0  0  0  0  0  0  0  0  0  0  0
   -0.3720   26.7160  -26.5440 Cl  0  0  0  0  0  0  0  0  0  0  0  0
    1.7822   24.7847  -23.3908 H   0  0  0  0  0  0  0  0  0  0  0  0
    2.9620   25.1281  -24.7011 H   0  0  0  0  0  0  0  0  0  0  0  0
    1.3587   25.9381  -24.7011 H   0  0  0  0  0  0  0  0  0  0  0  0
    1.9691   22.9815  -25.1662 H   0  0  0  0  0  0  0  0  0  0  0  0
   -0.1135   23.5136  -23.7042 H   0  0  0  0  0  0  0  0  0  0  0  0
   -0.8026   24.2718  -25.1796 H   0  0  0  0  0  0  0  0  0  0  0  0
   -0.3833   22.5251  -25.1796 H   0  0  0  0  0  0  0  0  0  0  0  0
    0.4164   22.1618  -28.2428 H   0  0  0  0  0  0  0  0  0  0  0  0
   -1.6356   22.1652  -29.6543 H   0  0  0  0  0  0  0  0  0  0  0  0
   -7.7776   24.4952  -31.1736 H   0  0  0  0  0  0  0  0  0  0  0  0
   -9.7172   23.1634  -32.0059 H   0  0  0  0  0  0  0  0  0  0  0  0
   -5.2409   21.0185  -31.7047 H   0  0  0  0  0  0  0  0  0  0  0  0
   -2.5578   26.1738  -28.3068 H   0  0  0  0  0  0  0  0  0  0  0  0
  1  2  1  0
  2  3  1  0
  2  4  1  0
  4  5  1  0
  5  6  2  0
  6  7  1  0
  7  8  2  0
  8  9  1  0
  9 10  2  0
 10 11  1  0
 11 12  1  0
 12 13  2  0
 13 14  1  0
 14 15  2  0
 15 16  1  0
 16 17  1  0
 17 18  1  0
 17 19  1  0
 17 20  1  0
 16 21  2  0
 11 22  2  0
 22 23  1  0
  8 24  1  0
 24 25  2  0
 25 26  1  0
 25  5  1  0
 23  9  1  0
 21 12  1  0
  1 27  1  0
  1 28  1  0
  1 29  1  0
  2 30  1  0
  3 31  1  0
  3 32  1  0
  3 33  1  0
  6 34  1  0
  7 35  1  0
 13 36  1  0
 14 37  1  0
 21 38  1  0
 24 39  1  0
M  END
>  <UniqueID>  (47) 
45

>  <SMILES>  (47) 
CC(C)Oc1ccc(-c2nc(-c3ccnc(C(F)(F)F)c3)no2)cc1Cl

>  <Energy>  (47) 
71.3851294433225

>  <Genealogy>  (47) 
CC(C)Oc1ccc(-c2nc(-c3ccnc(C(F)(F)F)c3)no2)cc1Cl (3D coordinates assigned)
CC(C)Oc1ccc(-c2nc(-c3ccnc(C(F)(F)F)c3)no2)cc1Cl (optimized conformer: 71.3851294433225 kcal/mol)

>  <smiles>  (47) 
CC(C)Oc1ccc(-c2nc(-c3ccnc(C(F)(F)F)c3)no2)cc1Cl

>  <score_type>  (47) 
oracle

>  <origin>  (47) 
adgpu

>  <m_score__min__energy>  (47) 
-8.2799999999999994

>  <m_primary>  (47) 
energy

$$$$
47:0
     RDKit          3D

 24 25  0  0  0  0  0  0  0  0999 V2000
   -4.0170   25.3210  -30.2150 N   0  0  0  0  0  0  0  0  0  0  0  0
   -4.6440   24.2480  -30.5780 C   0  0  0  0  0  0  0  0  0  0  0  0
   -4.1780   23.4260  -31.5460 N   0  0  0  0  0  0  0  0  0  0  0  0
   -4.8520   22.3110  -31.9070 C   0  0  0  0  0  0  0  0  0  0  0  0
   -4.2450   21.2420  -33.1660 Cl  0  0  0  0  0  0  0  0  0  0  0  0
   -6.0400   22.0250  -31.2620 C   0  0  0  0  0  0  0  0  0  0  0  0
   -6.7820   20.8210  -31.6440 C   0  0  0  0  0  0  0  0  0  0  0  0
   -6.2210   19.5550  -31.5450 C   0  0  0  0  0  0  0  0  0  0  0  0
   -6.9890   18.4510  -31.9270 C   0  0  0  0  0  0  0  0  0  0  0  0
   -8.2770   18.6320  -32.3920 C   0  0  0  0  0  0  0  0  0  0  0  0
   -8.8440   19.8840  -32.4940 C   0  0  0  0  0  0  0  0  0  0  0  0
   -8.0710   20.9880  -32.1090 C   0  0  0  0  0  0  0  0  0  0  0  0
   -6.5230   22.8610  -30.2720 C   0  0  0  0  0  0  0  0  0  0  0  0
   -7.6280   22.6130  -29.6600 N   0  0  0  0  0  0  0  0  0  0  0  0
   -5.8030   23.9590  -29.9570 N   0  0  0  0  0  0  0  0  0  0  0  0
   -3.1130   25.6160  -30.6460 H   0  0  0  0  0  0  0  0  0  0  0  0
   -3.2620   23.6550  -32.0360 H   0  0  0  0  0  0  0  0  0  0  0  0
   -5.1939   19.4233  -31.1738 H   0  0  0  0  0  0  0  0  0  0  0  0
   -6.5672   17.4375  -31.8572 H   0  0  0  0  0  0  0  0  0  0  0  0
   -8.8667   17.7522  -32.6892 H   0  0  0  0  0  0  0  0  0  0  0  0
   -9.8712   20.0128  -32.8660 H   0  0  0  0  0  0  0  0  0  0  0  0
   -8.4967   21.9999  -32.1782 H   0  0  0  0  0  0  0  0  0  0  0  0
   -8.0170   23.2230  -28.9100 H   0  0  0  0  0  0  0  0  0  0  0  0
   -6.1490   24.6040  -29.2130 H   0  0  0  0  0  0  0  0  0  0  0  0
  1  2  2  3
  2  3  1  0
  3  4  1  0
  4  5  1  0
  4  6  2  0
  6  7  1  0
  7  8  2  0
  8  9  1  0
  9 10  2  0
 10 11  1  0
 11 12  2  0
  6 13  1  0
 13 14  2  3
 13 15  1  0
 15  2  1  0
 12  7  1  0
  1 16  1  0
  3 17  1  0
  8 18  1  0
  9 19  1  0
 10 20  1  0
 11 21  1  0
 12 22  1  0
 14 23  1  0
 15 24  1  0
M  END
>  <smiles>  (48) 
N=c1[nH]c(Cl)c(-c2ccccc2)c(=N)[nH]1

>  <score_type>  (48) 
oracle

>  <origin>  (48) 
adgpu

>  <m_score__min__energy>  (48) 
-6.3799999999999999

>  <m_primary>  (48) 
energy

$$$$
48:0
     RDKit          3D

 35 37  0  0  0  0  0  0  0  0999 V2000
   -7.8070   23.4730  -31.6160 C   0  0  0  0  0  0  0  0  0  0  0  0
   -8.4660   22.2690  -31.9880 O   0  0  0  0  0  0  0  0  0  0  0  0
   -7.7880   21.0600  -32.1670 C   0  0  0  0  0  0  0  0  0  0  0  0
   -6.4040   21.0720  -32.3650 C   0  0  0  0  0  0  0  0  0  0  0  0
   -5.7180   19.8640  -32.5600 C   0  0  0  0  0  0  0  0  0  0  0  0
   -4.2520   19.8730  -32.7500 C   0  0  0  0  0  0  0  0  0  0  0  0
   -3.6270   19.0620  -33.6230 N   0  0  0  0  0  0  0  0  0  0  0  0
   -2.3360   19.4460  -33.5620 C   0  0  0  0  0  0  0  0  0  0  0  0
   -1.2520   18.7790  -34.3380 C   0  0  0  0  0  0  0  0  0  0  0  0
   -2.1020   20.4400  -32.6800 N   0  0  0  0  0  0  0  0  0  0  0  0
   -3.3140   20.7130  -32.1640 C   0  0  0  0  0  0  0  0  0  0  0  0
   -3.5170   21.6960  -31.0790 C   0  0  0  0  0  0  0  0  0  0  0  0
   -3.5740   21.2910  -29.7350 C   0  0  0  0  0  0  0  0  0  0  0  0
   -3.7480   22.2350  -28.7200 C   0  0  0  0  0  0  0  0  0  0  0  0
   -3.8520   23.5920  -29.0350 C   0  0  0  0  0  0  0  0  0  0  0  0
   -3.7730   24.0110  -30.3700 C   0  0  0  0  0  0  0  0  0  0  0  0
   -3.8660   25.3620  -30.6970 O   0  0  0  0  0  0  0  0  0  0  0  0
   -3.5990   23.0640  -31.3870 C   0  0  0  0  0  0  0  0  0  0  0  0
   -6.4360   18.6590  -32.5160 C   0  0  0  0  0  0  0  0  0  0  0  0
   -7.8180   18.6870  -32.3160 C   0  0  0  0  0  0  0  0  0  0  0  0
   -8.4580   19.8740  -32.1500 N   0  0  0  0  0  0  0  0  0  0  0  0
   -7.7673   23.5455  -30.5191 H   0  0  0  0  0  0  0  0  0  0  0  0
   -6.7841   23.4712  -32.0206 H   0  0  0  0  0  0  0  0  0  0  0  0
   -8.3598   24.3337  -32.0206 H   0  0  0  0  0  0  0  0  0  0  0  0
   -5.8550   22.0252  -32.3679 H   0  0  0  0  0  0  0  0  0  0  0  0
   -0.5256   18.3320  -33.6434 H   0  0  0  0  0  0  0  0  0  0  0  0
   -1.6859   17.9915  -34.9716 H   0  0  0  0  0  0  0  0  0  0  0  0
   -0.7446   19.5213  -34.9716 H   0  0  0  0  0  0  0  0  0  0  0  0
   -3.4811   20.2249  -29.4805 H   0  0  0  0  0  0  0  0  0  0  0  0
   -3.8032   21.9092  -27.6708 H   0  0  0  0  0  0  0  0  0  0  0  0
   -3.9960   24.3324  -28.2344 H   0  0  0  0  0  0  0  0  0  0  0  0
   -4.1860   25.6640  -31.6090 H   0  0  0  0  0  0  0  0  0  0  0  0
   -3.5261   23.3937  -32.4339 H   0  0  0  0  0  0  0  0  0  0  0  0
   -5.9137   17.6986  -32.6382 H   0  0  0  0  0  0  0  0  0  0  0  0
   -8.3889   17.7471  -32.2929 H   0  0  0  0  0  0  0  0  0  0  0  0
  1  2  1  0
  2  3  1  0
  3  4  2  0
  4  5  1  0
  5  6  1  0
  6  7  1  0
  7  8  2  0
  8  9  1  0
  8 10  1  0
 10 11  1  0
 11 12  1  0
 12 13  2  0
 13 14  1  0
 14 15  2  0
 15 16  1  0
 16 17  1  0
 16 18  2  0
  5 19  2  0
 19 20  1  0
 20 21  2  0
 21  3  1  0
 11  6  2  0
 18 12  1  0
  1 22  1  0
  1 23  1  0
  1 24  1  0
  4 25  1  0
  9 26  1  0
  9 27  1  0
  9 28  1  0
 13 29  1  0
 14 30  1  0
 15 31  1  0
 17 32  1  0
 18 33  1  0
 19 34  1  0
 20 35  1  0
M  CHG  1  10  -1
M  END
>  <UniqueID>  (49) 
46

>  <SMILES>  (49) 
COc1cc(-c2nc(C)[n-]c2-c2cccc(O)c2)ccn1

>  <Energy>  (49) 
69.67921443456659

>  <Genealogy>  (49) 
COc1cc(-c2nc(C)[n-]c2-c2cccc(O)c2)ccn1 (protonated)
COc1cc(-c2nc(C)[n-]c2-c2cccc(O)c2)ccn1 (3D coordinates assigned)
COc1cc(-c2nc(C)[n-]c2-c2cccc(O)c2)ccn1 (optimized conformer: 69.67921443456659 kcal/mol)

>  <smiles>  (49) 
COc1cc(-c2nc(C)[nH]c2-c2cccc(O)c2)ccn1

>  <score_type>  (49) 
oracle

>  <origin>  (49) 
adgpu

>  <m_score__min__energy>  (49) 
-8.0299999999999994

>  <m_primary>  (49) 
energy

$$$$
