0:0
     RDKit          3D

 51 53  0  0  0  0  0  0  0  0999 V2000
   -0.8060   21.5740  -34.1250 C   0  0  0  0  0  0  0  0  0  0  0  0
   -1.0160   20.7340  -32.9460 N   0  0  0  0  0  0  0  0  0  0  0  0
   -0.1090   20.8390  -31.8050 C   0  0  0  0  0  0  0  0  0  0  0  0
   -2.2710   20.0550  -32.7950 C   0  0  0  0  0  0  0  0  0  0  0  0
   -2.5090   18.9020  -33.5560 C   0  0  0  0  0  0  0  0  0  0  0  0
   -3.6910   18.1780  -33.3970 C   0  0  0  0  0  0  0  0  0  0  0  0
   -4.6510   18.5950  -32.4710 C   0  0  0  0  0  0  0  0  0  0  0  0
   -6.1370   17.6670  -32.2880 S   0  0  0  0  0  0  0  0  0  0  0  0
   -6.0560   16.4530  -33.1690 O   0  0  0  0  0  0  0  0  0  0  0  0
   -6.3020   17.2270  -30.8590 O   0  0  0  0  0  0  0  0  0  0  0  0
   -7.5010   18.6550  -32.7560 N   0  0  0  0  0  0  0  0  0  0  0  0
   -7.0630   19.8310  -33.5490 C   0  0  0  0  0  0  0  0  0  0  0  0
   -7.0440   21.1330  -32.7340 C   0  0  0  0  0  0  0  0  0  0  0  0
   -8.4330   21.4430  -32.1500 C   0  0  0  0  0  0  0  0  0  0  0  0
   -9.2410   20.1720  -31.8280 C   0  0  0  0  0  0  0  0  0  0  0  0
   -8.3130   18.9820  -31.5630 C   0  0  0  0  0  0  0  0  0  0  0  0
   -4.4250   19.7480  -31.7080 C   0  0  0  0  0  0  0  0  0  0  0  0
   -3.2440   20.4980  -31.8650 C   0  0  0  0  0  0  0  0  0  0  0  0
   -3.0710   21.7410  -31.0710 C   0  0  0  0  0  0  0  0  0  0  0  0
   -2.4050   21.7250  -30.0000 O   0  0  0  0  0  0  0  0  0  0  0  0
   -3.6890   22.9580  -31.5120 N   0  0  0  0  0  0  0  0  0  0  0  0
   -4.8150   23.6150  -30.9110 C   0  0  0  0  0  0  0  0  0  0  0  0
   -5.9990   22.9220  -30.5940 C   0  0  0  0  0  0  0  0  0  0  0  0
   -7.0660   23.5910  -29.9860 C   0  0  0  0  0  0  0  0  0  0  0  0
   -6.9570   24.9480  -29.6770 C   0  0  0  0  0  0  0  0  0  0  0  0
   -5.7770   25.6380  -29.9640 C   0  0  0  0  0  0  0  0  0  0  0  0
   -4.7060   24.9740  -30.5720 C   0  0  0  0  0  0  0  0  0  0  0  0
   -3.5340   25.6710  -30.8470 O   0  0  0  0  0  0  0  0  0  0  0  0
   -0.5506   22.5955  -33.8067 H   0  0  0  0  0  0  0  0  0  0  0  0
    0.0166   21.1613  -34.7275 H   0  0  0  0  0  0  0  0  0  0  0  0
   -1.7261   21.5969  -34.7275 H   0  0  0  0  0  0  0  0  0  0  0  0
   -0.6858   20.7722  -30.8707 H   0  0  0  0  0  0  0  0  0  0  0  0
    0.6240   20.0197  -31.8427 H   0  0  0  0  0  0  0  0  0  0  0  0
    0.4175   21.8041  -31.8427 H   0  0  0  0  0  0  0  0  0  0  0  0
   -1.7572   18.5651  -34.2849 H   0  0  0  0  0  0  0  0  0  0  0  0
   -3.8677   17.2766  -34.0021 H   0  0  0  0  0  0  0  0  0  0  0  0
   -6.0480   19.6399  -33.9275 H   0  0  0  0  0  0  0  0  0  0  0  0
   -7.7880   19.9651  -34.3653 H   0  0  0  0  0  0  0  0  0  0  0  0
   -6.3229   21.0301  -31.9098 H   0  0  0  0  0  0  0  0  0  0  0  0
   -6.7543   21.9580  -33.4015 H   0  0  0  0  0  0  0  0  0  0  0  0
   -8.3038   22.0217  -31.2235 H   0  0  0  0  0  0  0  0  0  0  0  0
   -8.9932   22.0088  -32.9090 H   0  0  0  0  0  0  0  0  0  0  0  0
   -9.8563   20.3540  -30.9345 H   0  0  0  0  0  0  0  0  0  0  0  0
   -9.8773   19.9335  -32.6930 H   0  0  0  0  0  0  0  0  0  0  0  0
   -7.6401   19.2315  -30.7294 H   0  0  0  0  0  0  0  0  0  0  0  0
   -8.9329   18.1076  -31.3157 H   0  0  0  0  0  0  0  0  0  0  0  0
   -5.1803   20.0715  -30.9766 H   0  0  0  0  0  0  0  0  0  0  0  0
   -6.0850   21.8501  -30.8255 H   0  0  0  0  0  0  0  0  0  0  0  0
   -7.9927   23.0470  -29.7508 H   0  0  0  0  0  0  0  0  0  0  0  0
   -7.8010   25.4742  -29.2072 H   0  0  0  0  0  0  0  0  0  0  0  0
   -5.6896   26.7051  -29.7116 H   0  0  0  0  0  0  0  0  0  0  0  0
  1  2  1  0
  2  3  1  0
  2  4  1  0
  4  5  2  0
  5  6  1  0
  6  7  2  0
  7  8  1  0
  8  9  2  0
  8 10  2  0
  8 11  1  0
 11 12  1  0
 12 13  1  0
 13 14  1  0
 14 15  1  0
 15 16  1  0
  7 17  1  0
 17 18  2  0
 18 19  1  0
 19 20  2  0
 19 21  1  0
 21 22  1  0
 22 23  2  0
 23 24  1  0
 24 25  2  0
 25 26  1  0
 26 27  2  0
 27 28  1  0
 18  4  1  0
 27 22  1  0
 16 11  1  0
  1 29  1  0
  1 30  1  0
  1 31  1  0
  3 32  1  0
  3 33  1  0
  3 34  1  0
  5 35  1  0
  6 36  1  0
 12 37  1  0
 12 38  1  0
 13 39  1  0
 13 40  1  0
 14 41  1  0
 14 42  1  0
 15 43  1  0
 15 44  1  0
 16 45  1  0
 16 46  1  0
 17 47  1  0
 23 48  1  0
 24 49  1  0
 25 50  1  0
 26 51  1  0
M  CHG  2  21  -1  28  -1
M  END
>  <UniqueID>  (1) 
1

>  <SMILES>  (1) 
CN(C)c1ccc(S(=O)(=O)N2CCCCC2)cc1C(=O)[N-]c1ccccc1[O-]

>  <Energy>  (1) 
67.77354946252646

>  <Genealogy>  (1) 
CN(C)c1ccc(S(=O)(=O)N2CCCCC2)cc1C(=O)[N-]c1ccccc1[O-] (protonated)
CN(C)c1ccc(S(=O)(=O)N2CCCCC2)cc1C(=O)[N-]c1ccccc1[O-] (3D coordinates assigned)
CN(C)c1ccc(S(=O)(=O)N2CCCCC2)cc1C(=O)[N-]c1ccccc1[O-] (nonaromatic ring conformer: 67.77354946252646 kcal/mol)

>  <smiles>  (1) 
CN(C)c1ccc(S(=O)(=O)N2CCCCC2)cc1C(=O)Nc1ccccc1O

>  <score_type>  (1) 
oracle

>  <origin>  (1) 
adgpu

>  <m_score__min__energy>  (1) 
-12.83

>  <m_primary>  (1) 
energy

$$$$
1:0
     RDKit          3D

 59 62  0  0  0  0  0  0  0  0999 V2000
   -3.1690   19.5710  -32.2150 O   0  0  0  0  0  0  0  0  0  0  0  0
   -3.1730   20.7590  -32.6340 C   0  0  0  0  0  0  0  0  0  0  0  0
   -4.1670   21.6650  -32.1330 N   0  0  0  0  0  0  0  0  0  0  0  0
   -3.9910   22.7100  -31.3720 C   0  0  0  0  0  0  0  0  0  0  0  0
   -2.7400   23.0140  -30.7960 C   0  0  0  0  0  0  0  0  0  0  0  0
   -2.6060   24.1370  -29.9790 C   0  0  0  0  0  0  0  0  0  0  0  0
   -3.6790   24.9280  -29.7260 N   0  0  0  0  0  0  0  0  0  0  0  0
   -4.9030   24.6570  -30.2460 C   0  0  0  0  0  0  0  0  0  0  0  0
   -5.0950   23.5400  -31.0730 C   0  0  0  0  0  0  0  0  0  0  0  0
   -6.7180   23.2190  -31.7190 S   0  0  0  0  0  0  0  0  0  0  0  0
   -6.8370   23.7920  -33.1040 O   0  0  0  0  0  0  0  0  0  0  0  0
   -7.7360   23.9080  -30.8510 O   0  0  0  0  0  0  0  0  0  0  0  0
   -7.0730   21.5090  -31.7650 N   0  0  0  0  0  0  0  0  0  0  0  0
   -8.4960   21.2680  -31.4770 C   0  0  0  0  0  0  0  0  0  0  0  0
   -8.7590   19.7620  -31.2820 C   0  0  0  0  0  0  0  0  0  0  0  0
   -7.6880   18.8860  -31.9510 C   0  0  0  0  0  0  0  0  0  0  0  0
   -7.2200   19.5040  -33.2710 C   0  0  0  0  0  0  0  0  0  0  0  0
   -6.6970   20.9450  -33.0790 C   0  0  0  0  0  0  0  0  0  0  0  0
   -2.2890   21.1540  -33.6940 N   0  0  0  0  0  0  0  0  0  0  0  0
   -1.0940   20.4350  -34.0490 C   0  0  0  0  0  0  0  0  0  0  0  0
   -0.9740   19.0620  -33.7770 C   0  0  0  0  0  0  0  0  0  0  0  0
    0.1970   18.3800  -34.1040 C   0  0  0  0  0  0  0  0  0  0  0  0
    1.2650   19.0580  -34.6920 C   0  0  0  0  0  0  0  0  0  0  0  0
    1.1800   20.4350  -34.9510 C   0  0  0  0  0  0  0  0  0  0  0  0
    2.5190   21.3420  -35.6930 S   0  0  0  0  0  0  0  0  0  0  0  0
    3.8090   20.7880  -35.1560 O   0  0  0  0  0  0  0  0  0  0  0  0
    2.4760   21.1030  -37.1760 O   0  0  0  0  0  0  0  0  0  0  0  0
    2.5210   23.0740  -35.4370 N   0  0  0  0  0  0  0  0  0  0  0  0
    3.8670   23.6510  -35.3840 C   0  0  0  0  0  0  0  0  0  0  0  0
    3.8590   24.9330  -36.2110 C   0  0  0  0  0  0  0  0  0  0  0  0
    2.4180   25.1440  -36.6310 C   0  0  0  0  0  0  0  0  0  0  0  0
    1.7460   23.7970  -36.4470 C   0  0  0  0  0  0  0  0  0  0  0  0
   -0.0090   21.1200  -34.6250 C   0  0  0  0  0  0  0  0  0  0  0  0
   -0.1190   22.4830  -34.8860 O   0  0  0  0  0  0  0  0  0  0  0  0
   -1.8718   22.3671  -30.9905 H   0  0  0  0  0  0  0  0  0  0  0  0
   -1.6280   24.3817  -29.5389 H   0  0  0  0  0  0  0  0  0  0  0  0
   -5.7515   25.3186  -30.0172 H   0  0  0  0  0  0  0  0  0  0  0  0
   -8.7760   21.8063  -30.5595 H   0  0  0  0  0  0  0  0  0  0  0  0
   -9.0968   21.6274  -32.3254 H   0  0  0  0  0  0  0  0  0  0  0  0
   -8.7713   19.5427  -30.2041 H   0  0  0  0  0  0  0  0  0  0  0  0
   -9.7248   19.5276  -31.7535 H   0  0  0  0  0  0  0  0  0  0  0  0
   -6.8268   18.7902  -31.2733 H   0  0  0  0  0  0  0  0  0  0  0  0
   -8.1243   17.8984  -32.1616 H   0  0  0  0  0  0  0  0  0  0  0  0
   -6.4115   18.8847  -33.6867 H   0  0  0  0  0  0  0  0  0  0  0  0
   -8.0815   19.5422  -33.9539 H   0  0  0  0  0  0  0  0  0  0  0  0
   -5.6000   20.9366  -33.1593 H   0  0  0  0  0  0  0  0  0  0  0  0
   -7.1525   21.5744  -33.8577 H   0  0  0  0  0  0  0  0  0  0  0  0
   -2.5740   21.9720  -34.2790 H   0  0  0  0  0  0  0  0  0  0  0  0
   -1.8078   18.5226  -33.3039 H   0  0  0  0  0  0  0  0  0  0  0  0
    0.2792   17.3027  -33.8975 H   0  0  0  0  0  0  0  0  0  0  0  0
    2.1813   18.5091  -34.9549 H   0  0  0  0  0  0  0  0  0  0  0  0
    4.1351   23.8798  -34.3420 H   0  0  0  0  0  0  0  0  0  0  0  0
    4.6051   22.9405  -35.7845 H   0  0  0  0  0  0  0  0  0  0  0  0
    4.2098   25.7817  -35.6055 H   0  0  0  0  0  0  0  0  0  0  0  0
    4.5277   24.8578  -37.0812 H   0  0  0  0  0  0  0  0  0  0  0  0
    1.9388   25.9036  -35.9958 H   0  0  0  0  0  0  0  0  0  0  0  0
    2.3415   25.5021  -37.6683 H   0  0  0  0  0  0  0  0  0  0  0  0
    0.7101   23.9341  -36.1034 H   0  0  0  0  0  0  0  0  0  0  0  0
    1.7130   23.2389  -37.3943 H   0  0  0  0  0  0  0  0  0  0  0  0
  1  2  2  0
  2  3  1  0
  3  4  2  3
  4  5  1  0
  5  6  2  0
  6  7  1  0
  7  8  1  0
  8  9  2  0
  9 10  1  0
 10 11  2  0
 10 12  2  0
 10 13  1  0
 13 14  1  0
 14 15  1  0
 15 16  1  0
 16 17  1  0
 17 18  1  0
  2 19  1  0
 19 20  1  0
 20 21  2  0
 21 22  1  0
 22 23  2  0
 23 24  1  0
 24 25  1  0
 25 26  2  0
 25 27  2  0
 25 28  1  0
 28 29  1  0
 29 30  1  0
 30 31  1  0
 31 32  1  0
 24 33  2  0
 33 34  1  0
  9  4  1  0
 18 13  1  0
 33 20  1  0
 32 28  1  0
  5 35  1  0
  6 36  1  0
  8 37  1  0
 14 38  1  0
 14 39  1  0
 15 40  1  0
 15 41  1  0
 16 42  1  0
 16 43  1  0
 17 44  1  0
 17 45  1  0
 18 46  1  0
 18 47  1  0
 19 48  1  0
 21 49  1  0
 22 50  1  0
 23 51  1  0
 29 52  1  0
 29 53  1  0
 30 54  1  0
 30 55  1  0
 31 56  1  0
 31 57  1  0
 32 58  1  0
 32 59  1  0
M  CHG  2   7  -1  34  -1
M  END
>  <UniqueID>  (2) 
2

>  <SMILES>  (2) 
O=C(N=c1cc[n-]cc1S(=O)(=O)N1CCCCC1)Nc1cccc(S(=O)(=O)N2CCCC2)c1[O-]

>  <Energy>  (2) 
82.89253134925423

>  <Genealogy>  (2) 
O=C(N=c1cc[n-]cc1S(=O)(=O)N1CCCCC1)Nc1cccc(S(=O)(=O)N2CCCC2)c1[O-] (protonated)
O=C(N=c1cc[n-]cc1S(=O)(=O)N1CCCCC1)Nc1cccc(S(=O)(=O)N2CCCC2)c1[O-] (3D coordinates assigned)
O=C(N=c1cc[n-]cc1S(=O)(=O)N1CCCCC1)Nc1cccc(S(=O)(=O)N2CCCC2)c1[O-] (nonaromatic ring conformer: 82.89253134925423 kcal/mol)

>  <smiles>  (2) 
O=C(N=c1cc[nH]cc1S(=O)(=O)N1CCCCC1)Nc1cccc(S(=O)(=O)N2CCCC2)c1O

>  <score_type>  (2) 
oracle

>  <origin>  (2) 
adgpu

>  <m_score__min__energy>  (2) 
-12.19

>  <m_primary>  (2) 
energy

$$$$
2:0
     RDKit          3D

 49 52  0  0  0  0  0  0  0  0999 V2000
   -0.4090   24.9160  -26.8290 O   0  0  0  0  0  0  0  0  0  0  0  0
   -0.4750   23.7790  -27.8120 S   0  0  0  0  0  0  0  0  0  0  0  0
    0.4350   24.1100  -28.9610 O   0  0  0  0  0  0  0  0  0  0  0  0
   -2.1290   23.6280  -28.4070 C   0  0  0  0  0  0  0  0  0  0  0  0
   -3.2000   24.1300  -27.6550 C   0  0  0  0  0  0  0  0  0  0  0  0
   -4.5070   24.0270  -28.1360 C   0  0  0  0  0  0  0  0  0  0  0  0
   -4.7580   23.4430  -29.3860 C   0  0  0  0  0  0  0  0  0  0  0  0
   -6.4000   23.4210  -30.0390 S   0  0  0  0  0  0  0  0  0  0  0  0
   -7.1870   22.3380  -29.3540 O   0  0  0  0  0  0  0  0  0  0  0  0
   -7.0510   24.7360  -29.7120 O   0  0  0  0  0  0  0  0  0  0  0  0
   -6.4540   23.1920  -31.7790 N   0  0  0  0  0  0  0  0  0  0  0  0
   -7.7820   23.4340  -32.3720 C   0  0  0  0  0  0  0  0  0  0  0  0
   -8.8150   22.3670  -31.9810 C   0  0  0  0  0  0  0  0  0  0  0  0
   -8.2400   20.9740  -31.9350 C   0  0  0  0  0  0  0  0  0  0  0  0
   -9.1030   19.8870  -31.7230 C   0  0  0  0  0  0  0  0  0  0  0  0
   -8.5930   18.5920  -31.6040 C   0  0  0  0  0  0  0  0  0  0  0  0
   -7.2180   18.3700  -31.7010 C   0  0  0  0  0  0  0  0  0  0  0  0
   -6.3490   19.4430  -31.9080 C   0  0  0  0  0  0  0  0  0  0  0  0
   -6.8480   20.7520  -32.0020 C   0  0  0  0  0  0  0  0  0  0  0  0
   -5.8910   21.9000  -32.2090 C   0  0  0  0  0  0  0  0  0  0  0  0
   -3.6900   22.9040  -30.1190 C   0  0  0  0  0  0  0  0  0  0  0  0
   -2.3820   23.0080  -29.6380 C   0  0  0  0  0  0  0  0  0  0  0  0
    0.0810   22.3110  -27.0350 N   0  0  0  0  0  0  0  0  0  0  0  0
    0.2550   21.2300  -28.0110 C   0  0  0  0  0  0  0  0  0  0  0  0
   -0.9830   20.3460  -27.9730 C   0  0  0  0  0  0  0  0  0  0  0  0
   -1.7260   20.7290  -26.7090 C   0  0  0  0  0  0  0  0  0  0  0  0
   -0.8960   21.8260  -26.0560 C   0  0  0  0  0  0  0  0  0  0  0  0
   -3.0103   24.6070  -26.6821 H   0  0  0  0  0  0  0  0  0  0  0  0
   -5.3440   24.4060  -27.5312 H   0  0  0  0  0  0  0  0  0  0  0  0
   -8.1448   24.4151  -32.0316 H   0  0  0  0  0  0  0  0  0  0  0  0
   -7.6669   23.3967  -33.4653 H   0  0  0  0  0  0  0  0  0  0  0  0
   -9.2135   22.6140  -30.9859 H   0  0  0  0  0  0  0  0  0  0  0  0
   -9.5991   22.3722  -32.7524 H   0  0  0  0  0  0  0  0  0  0  0  0
  -10.1875   20.0562  -31.6502 H   0  0  0  0  0  0  0  0  0  0  0  0
   -9.2754   17.7462  -31.4337 H   0  0  0  0  0  0  0  0  0  0  0  0
   -6.8189   17.3486  -31.6142 H   0  0  0  0  0  0  0  0  0  0  0  0
   -5.2677   19.2619  -31.9979 H   0  0  0  0  0  0  0  0  0  0  0  0
   -4.9760   21.7045  -31.6306 H   0  0  0  0  0  0  0  0  0  0  0  0
   -5.6827   21.9697  -33.2868 H   0  0  0  0  0  0  0  0  0  0  0  0
   -3.8830   22.3975  -31.0762 H   0  0  0  0  0  0  0  0  0  0  0  0
   -1.5475   22.6015  -30.2282 H   0  0  0  0  0  0  0  0  0  0  0  0
    0.3776   21.6548  -29.0182 H   0  0  0  0  0  0  0  0  0  0  0  0
    1.1496   20.6389  -27.7654 H   0  0  0  0  0  0  0  0  0  0  0  0
   -1.6115   20.5290  -28.8570 H   0  0  0  0  0  0  0  0  0  0  0  0
   -0.7181   19.2784  -27.9789 H   0  0  0  0  0  0  0  0  0  0  0  0
   -2.7309   21.1034  -26.9539 H   0  0  0  0  0  0  0  0  0  0  0  0
   -1.8560   19.8665  -26.0388 H   0  0  0  0  0  0  0  0  0  0  0  0
   -1.5517   22.6525  -25.7446 H   0  0  0  0  0  0  0  0  0  0  0  0
   -0.3787   21.4315  -25.1690 H   0  0  0  0  0  0  0  0  0  0  0  0
  1  2  2  0
  2  3  2  0
  2  4  1  0
  4  5  2  0
  5  6  1  0
  6  7  2  0
  7  8  1  0
  8  9  2  0
  8 10  2  0
  8 11  1  0
 11 12  1  0
 12 13  1  0
 13 14  1  0
 14 15  2  0
 15 16  1  0
 16 17  2  0
 17 18  1  0
 18 19  2  0
 19 20  1  0
  7 21  1  0
 21 22  2  0
  2 23  1  0
 23 24  1  0
 24 25  1  0
 25 26  1  0
 26 27  1  0
 22  4  1  0
 27 23  1  0
 20 11  1  0
 19 14  1  0
  5 28  1  0
  6 29  1  0
 12 30  1  0
 12 31  1  0
 13 32  1  0
 13 33  1  0
 15 34  1  0
 16 35  1  0
 17 36  1  0
 18 37  1  0
 20 38  1  0
 20 39  1  0
 21 40  1  0
 22 41  1  0
 24 42  1  0
 24 43  1  0
 25 44  1  0
 25 45  1  0
 26 46  1  0
 26 47  1  0
 27 48  1  0
 27 49  1  0
M  END
>  <UniqueID>  (3) 
3

>  <SMILES>  (3) 
O=S(=O)(c1ccc(S(=O)(=O)N2CCc3ccccc3C2)cc1)N1CCCC1

>  <Energy>  (3) 
54.21445053471318

>  <Genealogy>  (3) 
O=S(=O)(c1ccc(S(=O)(=O)N2CCc3ccccc3C2)cc1)N1CCCC1 (3D coordinates assigned)
O=S(=O)(c1ccc(S(=O)(=O)N2CCc3ccccc3C2)cc1)N1CCCC1 (nonaromatic ring conformer: 54.21445053471318 kcal/mol)

>  <smiles>  (3) 
O=S(=O)(c1ccc(S(=O)(=O)N2CCc3ccccc3C2)cc1)N1CCCC1

>  <score_type>  (3) 
oracle

>  <origin>  (3) 
adgpu

>  <m_score__min__energy>  (3) 
-9.8499999999999996

>  <m_primary>  (3) 
energy

$$$$
3:0
     RDKit          3D

 66 70  0  0  0  0  0  0  0  0999 V2000
    1.3840   27.1410  -23.4530 C   0  0  0  0  0  0  0  0  0  0  0  0
   -0.0160   27.3160  -23.8770 N   0  0  0  0  0  0  0  0  0  0  0  0
   -0.1670   28.5220  -24.7350 C   0  0  0  0  0  0  0  0  0  0  0  0
   -0.0650   28.1940  -26.2330 C   0  0  0  0  0  0  0  0  0  0  0  0
   -1.1660   27.2040  -26.6710 C   0  0  0  0  0  0  0  0  0  0  0  0
   -0.6790   26.3870  -27.8410 C   0  0  0  0  0  0  0  0  0  0  0  0
   -1.2220   26.5050  -28.9740 O   0  0  0  0  0  0  0  0  0  0  0  0
    0.3210   25.3840  -27.6250 N   0  0  0  0  0  0  0  0  0  0  0  0
    0.0650   23.9760  -27.5330 C   0  0  0  0  0  0  0  0  0  0  0  0
    0.2070   23.2830  -26.3220 C   0  0  0  0  0  0  0  0  0  0  0  0
   -0.0290   21.9090  -26.2670 C   0  0  0  0  0  0  0  0  0  0  0  0
   -0.4100   21.2070  -27.4190 C   0  0  0  0  0  0  0  0  0  0  0  0
   -0.5710   19.8230  -27.3550 O   0  0  0  0  0  0  0  0  0  0  0  0
   -0.5960   21.9010  -28.6360 C   0  0  0  0  0  0  0  0  0  0  0  0
   -0.9700   21.1980  -29.8870 C   0  0  0  0  0  0  0  0  0  0  0  0
   -0.0980   20.7340  -30.8790 C   0  0  0  0  0  0  0  0  0  0  0  0
   -0.7790   20.1870  -31.9690 C   0  0  0  0  0  0  0  0  0  0  0  0
   -0.1890   19.7520  -33.1110 N   0  0  0  0  0  0  0  0  0  0  0  0
   -0.9640   19.3140  -34.1460 C   0  0  0  0  0  0  0  0  0  0  0  0
   -0.4030   18.8930  -35.2310 N   0  0  0  0  0  0  0  0  0  0  0  0
   -2.3280   19.3230  -34.0360 N   0  0  0  0  0  0  0  0  0  0  0  0
   -2.9520   19.7390  -32.8940 C   0  0  0  0  0  0  0  0  0  0  0  0
   -4.3850   19.7760  -32.8310 N   0  0  0  0  0  0  0  0  0  0  0  0
   -5.0880   21.0250  -33.1320 C   0  0  0  0  0  0  0  0  0  0  0  0
   -6.5420   20.9430  -32.6570 C   0  0  0  0  0  0  0  0  0  0  0  0
   -7.2480   19.7940  -33.2620 N   0  0  0  0  0  0  0  0  0  0  0  0
   -8.7280   19.4680  -32.3900 S   0  0  0  0  0  0  0  0  0  0  0  0
   -9.1280   20.7870  -31.2570 C   0  0  0  0  0  0  0  0  0  0  0  0
   -9.8600   19.3050  -33.3640 O   0  0  0  0  0  0  0  0  0  0  0  0
   -8.5730   18.1910  -31.6140 O   0  0  0  0  0  0  0  0  0  0  0  0
   -6.4320   18.5640  -33.4230 C   0  0  0  0  0  0  0  0  0  0  0  0
   -5.1630   18.5610  -32.5610 C   0  0  0  0  0  0  0  0  0  0  0  0
   -2.1520   20.1810  -31.8400 C   0  0  0  0  0  0  0  0  0  0  0  0
   -2.5680   20.8870  -30.3730 S   0  0  0  0  0  0  0  0  0  0  0  0
   -0.3630   23.2880  -28.6730 C   0  0  0  0  0  0  0  0  0  0  0  0
   -1.6590   26.3250  -25.4930 C   0  0  0  0  0  0  0  0  0  0  0  0
   -0.5230   26.0630  -24.4930 C   0  0  0  0  0  0  0  0  0  0  0  0
    1.4363   27.1345  -22.3543 H   0  0  0  0  0  0  0  0  0  0  0  0
    1.7691   26.1877  -23.8441 H   0  0  0  0  0  0  0  0  0  0  0  0
    1.9919   27.9701  -23.8441 H   0  0  0  0  0  0  0  0  0  0  0  0
   -1.1506   28.9738  -24.5388 H   0  0  0  0  0  0  0  0  0  0  0  0
    0.6519   29.2135  -24.4874 H   0  0  0  0  0  0  0  0  0  0  0  0
   -0.1701   29.1242  -26.8107 H   0  0  0  0  0  0  0  0  0  0  0  0
    0.9134   27.7267  -26.4185 H   0  0  0  0  0  0  0  0  0  0  0  0
   -2.0458   27.7771  -26.9989 H   0  0  0  0  0  0  0  0  0  0  0  0
    0.5055   23.8247  -25.4123 H   0  0  0  0  0  0  0  0  0  0  0  0
    0.0847   21.3729  -25.3132 H   0  0  0  0  0  0  0  0  0  0  0  0
   -0.3910   19.2280  -28.1550 H   0  0  0  0  0  0  0  0  0  0  0  0
    0.9981   20.7934  -30.8082 H   0  0  0  0  0  0  0  0  0  0  0  0
   -0.9680   18.5500  -36.0400 H   0  0  0  0  0  0  0  0  0  0  0  0
   -4.5848   21.8577  -32.6188 H   0  0  0  0  0  0  0  0  0  0  0  0
   -5.0751   21.1904  -34.2194 H   0  0  0  0  0  0  0  0  0  0  0  0
   -6.5544   20.8335  -31.5625 H   0  0  0  0  0  0  0  0  0  0  0  0
   -7.0572   21.8646  -32.9655 H   0  0  0  0  0  0  0  0  0  0  0  0
   -9.0191   20.4278  -30.2230 H   0  0  0  0  0  0  0  0  0  0  0  0
   -8.4463   21.6338  -31.4247 H   0  0  0  0  0  0  0  0  0  0  0  0
  -10.1653   21.1125  -31.4247 H   0  0  0  0  0  0  0  0  0  0  0  0
   -7.0477   17.6971  -33.1411 H   0  0  0  0  0  0  0  0  0  0  0  0
   -6.1119   18.5205  -34.4745 H   0  0  0  0  0  0  0  0  0  0  0  0
   -5.4423   18.5333  -31.4974 H   0  0  0  0  0  0  0  0  0  0  0  0
   -4.5568   17.6759  -32.8042 H   0  0  0  0  0  0  0  0  0  0  0  0
   -0.5197   23.8392  -29.6120 H   0  0  0  0  0  0  0  0  0  0  0  0
   -2.4812   26.8423  -24.9769 H   0  0  0  0  0  0  0  0  0  0  0  0
   -2.0041   25.3606  -25.8940 H   0  0  0  0  0  0  0  0  0  0  0  0
   -0.8977   25.4033  -23.6965 H   0  0  0  0  0  0  0  0  0  0  0  0
    0.3085   25.5967  -25.0418 H   0  0  0  0  0  0  0  0  0  0  0  0
  1  2  1  0
  2  3  1  0
  3  4  1  0
  4  5  1  0
  5  6  1  0
  6  7  2  0
  6  8  1  0
  8  9  1  0
  9 10  2  0
 10 11  1  0
 11 12  2  0
 12 13  1  0
 12 14  1  0
 14 15  1  0
 15 16  2  0
 16 17  1  0
 17 18  2  0
 18 19  1  0
 19 20  2  3
 19 21  1  0
 21 22  1  0
 22 23  1  0
 23 24  1  0
 24 25  1  0
 25 26  1  0
 26 27  1  0
 27 28  1  0
 27 29  2  0
 27 30  2  0
 26 31  1  0
 31 32  1  0
 22 33  2  0
 33 34  1  0
 14 35  2  0
  5 36  1  0
 36 37  1  0
 37  2  1  0
 35  9  1  0
 34 15  1  0
 33 17  1  0
 32 23  1  0
  1 38  1  0
  1 39  1  0
  1 40  1  0
  3 41  1  0
  3 42  1  0
  4 43  1  0
  4 44  1  0
  5 45  1  0
 10 46  1  0
 11 47  1  0
 13 48  1  0
 16 49  1  0
 20 50  1  0
 24 51  1  0
 24 52  1  0
 25 53  1  0
 25 54  1  0
 28 55  1  0
 28 56  1  0
 28 57  1  0
 31 58  1  0
 31 59  1  0
 32 60  1  0
 32 61  1  0
 35 62  1  0
 36 63  1  0
 36 64  1  0
 37 65  1  0
 37 66  1  0
M  CHG  2   8  -1  21  -1
M  END
>  <UniqueID>  (4) 
4

>  <SMILES>  (4) 
CN1CCC(C(=O)[N-]c2ccc(O)c(-c3cc4nc(=N)[n-]c(N5CCN(S(C)(=O)=O)CC5)c4s3)c2)CC1

>  <Energy>  (4) 
123.21015378450986

>  <Genealogy>  (4) 
CN1CCC(C(=O)[N-]c2ccc(O)c(-c3cc4nc(=N)[n-]c(N5CCN(S(C)(=O)=O)CC5)c4s3)c2)CC1 (protonated)
CN1CCC(C(=O)[N-]c2ccc(O)c(-c3cc4nc(=N)[n-]c(N5CCN(S(C)(=O)=O)CC5)c4s3)c2)CC1 (3D coordinates assigned)
CN1CCC(C(=O)[N-]c2ccc(O)c(-c3cc4nc(=N)[n-]c(N5CCN(S(C)(=O)=O)CC5)c4s3)c2)CC1 (nonaromatic ring conformer: 123.21015378450986 kcal/mol)

>  <smiles>  (4) 
CN1CCC(C(=O)Nc2ccc(O)c(-c3cc4nc(=N)[nH]c(N5CCN(S(C)(=O)=O)CC5)c4s3)c2)CC1

>  <score_type>  (4) 
oracle

>  <origin>  (4) 
adgpu

>  <m_score__min__energy>  (4) 
-11.57

>  <m_primary>  (4) 
energy

$$$$
4:0
     RDKit          3D

 86 91  0  0  0  0  0  0  0  0999 V2000
   -3.1238   19.5112  -28.6809 H   0  0  0  0  0  0  0  0  0  0  0  0
   -2.7070   20.3910  -29.1930 C   0  0  0  0  0  0  0  0  0  0  0  0
   -1.6110   20.2470  -30.0480 C   0  0  0  0  0  0  0  0  0  0  0  0
   -1.1695   19.2530  -30.2125 H   0  0  0  0  0  0  0  0  0  0  0  0
   -1.0730   21.3690  -30.6970 C   0  0  0  0  0  0  0  0  0  0  0  0
    0.0360   21.2290  -31.5900 N   0  0  0  0  0  0  0  0  0  0  0  0
   -0.0190   21.1650  -32.8920 C   0  0  0  0  0  0  0  0  0  0  0  0
    1.0930   21.2040  -33.7050 C   0  0  0  0  0  0  0  0  0  0  0  0
    2.1505   21.2709  -33.4097 H   0  0  0  0  0  0  0  0  0  0  0  0
    0.5630   21.1390  -34.9800 C   0  0  0  0  0  0  0  0  0  0  0  0
    1.3310   21.1460  -36.1910 N   0  0  0  0  0  0  0  0  0  0  0  0
    1.5720   22.0750  -36.6030 H   0  0  0  0  0  0  0  0  0  0  0  0
    1.8950   19.9500  -36.8370 C   0  0  1  0  0  0  0  0  0  0  0  0
    2.5623   20.2820  -37.6460 H   0  0  0  0  0  0  0  0  0  0  0  0
    2.7960   19.1520  -35.8640 C   0  0  0  0  0  0  0  0  0  0  0  0
    3.2477   19.8628  -35.1564 H   0  0  0  0  0  0  0  0  0  0  0  0
    3.5350   18.6285  -36.4883 H   0  0  0  0  0  0  0  0  0  0  0  0
    2.0710   18.0640  -35.0510 C   0  0  0  0  0  0  0  0  0  0  0  0
    1.5549   18.5510  -34.2105 H   0  0  0  0  0  0  0  0  0  0  0  0
    2.8434   17.3500  -34.7291 H   0  0  0  0  0  0  0  0  0  0  0  0
    1.0220   17.2440  -35.8540 C   0  0  2  0  0  0  0  0  0  0  0  0
    0.0336   17.5073  -35.4494 H   0  0  0  0  0  0  0  0  0  0  0  0
    1.2640   15.8090  -35.6860 N   0  0  0  0  0  0  0  0  0  0  0  0
    1.9920   15.5140  -36.3780 H   0  0  0  0  0  0  0  0  0  0  0  0
    0.3920   15.2960  -35.9550 H   0  0  0  0  0  0  0  0  0  0  0  0
    1.0160   17.5970  -37.3510 C   0  0  0  0  0  0  0  0  0  0  0  0
    0.1998   17.0517  -37.8475 H   0  0  0  0  0  0  0  0  0  0  0  0
    1.9852   17.3114  -37.7859 H   0  0  0  0  0  0  0  0  0  0  0  0
    0.8100   19.1030  -37.5510 C   0  0  0  0  0  0  0  0  0  0  0  0
   -0.1756   19.3808  -37.1492 H   0  0  0  0  0  0  0  0  0  0  0  0
    0.8798   19.3099  -38.6291 H   0  0  0  0  0  0  0  0  0  0  0  0
   -0.7790   21.0580  -34.9290 N   0  0  0  0  0  0  0  0  0  0  0  0
   -1.1380   21.0710  -33.6550 N   0  0  0  0  0  0  0  0  0  0  0  0
   -2.4830   20.7800  -33.2580 C   0  0  0  0  0  0  0  0  0  0  0  0
   -3.3100   21.7960  -32.7660 C   0  0  0  0  0  0  0  0  0  0  0  0
   -2.9444   22.8330  -32.7348 H   0  0  0  0  0  0  0  0  0  0  0  0
   -4.5960   21.4990  -32.3150 C   0  0  0  0  0  0  0  0  0  0  0  0
   -5.2443   22.3064  -31.9440 H   0  0  0  0  0  0  0  0  0  0  0  0
   -5.0690   20.1780  -32.3310 C   0  0  0  0  0  0  0  0  0  0  0  0
   -6.4270   19.8970  -31.8160 C   0  0  0  0  0  0  0  0  0  0  0  0
   -6.6300   18.8050  -31.2210 O   0  0  0  0  0  0  0  0  0  0  0  0
   -7.5040   20.8490  -31.9660 N   0  0  0  0  0  0  0  0  0  0  0  0
   -7.2620   22.2020  -32.4840 C   0  0  0  0  0  0  0  0  0  0  0  0
   -6.2314   22.5035  -32.2452 H   0  0  0  0  0  0  0  0  0  0  0  0
   -7.4100   22.2007  -33.5740 H   0  0  0  0  0  0  0  0  0  0  0  0
   -8.2400   23.1950  -31.8480 C   0  0  0  0  0  0  0  0  0  0  0  0
   -7.9899   23.3138  -30.7834 H   0  0  0  0  0  0  0  0  0  0  0  0
   -8.1536   24.1567  -32.3750 H   0  0  0  0  0  0  0  0  0  0  0  0
   -9.5740   22.7390  -31.9610 O   0  0  0  0  0  0  0  0  0  0  0  0
   -9.7340   21.5480  -31.2170 C   0  0  0  0  0  0  0  0  0  0  0  0
   -9.4075   21.7223  -30.1811 H   0  0  0  0  0  0  0  0  0  0  0  0
  -10.7945   21.2567  -31.2378 H   0  0  0  0  0  0  0  0  0  0  0  0
   -8.9010   20.4190  -31.8230 C   0  0  0  0  0  0  0  0  0  0  0  0
   -8.9460   19.5389  -31.1647 H   0  0  0  0  0  0  0  0  0  0  0  0
   -9.3043   20.1635  -32.8140 H   0  0  0  0  0  0  0  0  0  0  0  0
   -4.2330   19.1440  -32.8140 C   0  0  0  0  0  0  0  0  0  0  0  0
   -4.6980   17.7110  -32.8470 C   0  0  0  0  0  0  0  0  0  0  0  0
   -4.8182   17.3407  -31.8182 H   0  0  0  0  0  0  0  0  0  0  0  0
   -5.6619   17.6503  -33.3735 H   0  0  0  0  0  0  0  0  0  0  0  0
   -3.9533   17.0959  -33.3735 H   0  0  0  0  0  0  0  0  0  0  0  0
   -2.9420   19.4580  -33.2690 C   0  0  0  0  0  0  0  0  0  0  0  0
   -2.2849   18.6566  -33.6378 H   0  0  0  0  0  0  0  0  0  0  0  0
   -1.6590   22.6260  -30.5110 C   0  0  0  0  0  0  0  0  0  0  0  0
   -1.2626   23.5001  -31.0484 H   0  0  0  0  0  0  0  0  0  0  0  0
   -2.7500   22.7760  -29.6420 C   0  0  0  0  0  0  0  0  0  0  0  0
   -3.4210   24.3750  -29.3320 S   0  0  0  0  0  0  0  0  0  0  0  0
   -3.5430   25.1170  -30.6350 O   0  0  0  0  0  0  0  0  0  0  0  0
   -4.7940   24.2410  -28.7320 O   0  0  0  0  0  0  0  0  0  0  0  0
   -2.3630   25.2520  -28.2510 N   0  0  0  0  0  0  0  0  0  0  0  0
   -0.9500   24.9210  -28.5500 C   0  0  0  0  0  0  0  0  0  0  0  0
   -0.8702   23.8363  -28.7144 H   0  0  0  0  0  0  0  0  0  0  0  0
   -0.6580   25.4915  -29.4440 H   0  0  0  0  0  0  0  0  0  0  0  0
    0.0110   25.3190  -27.4100 C   0  0  0  0  0  0  0  0  0  0  0  0
    0.2460   24.4261  -26.8121 H   0  0  0  0  0  0  0  0  0  0  0  0
    0.9230   25.7405  -27.8578 H   0  0  0  0  0  0  0  0  0  0  0  0
   -0.6110   26.3780  -26.4990 C   0  0  0  0  0  0  0  0  0  0  0  0
    0.0895   26.6063  -25.6822 H   0  0  0  0  0  0  0  0  0  0  0  0
   -0.8132   27.2794  -27.0962 H   0  0  0  0  0  0  0  0  0  0  0  0
   -1.9370   25.8790  -25.9000 C   0  0  0  0  0  0  0  0  0  0  0  0
   -1.7209   25.3375  -24.9672 H   0  0  0  0  0  0  0  0  0  0  0  0
   -2.5736   26.7578  -25.7198 H   0  0  0  0  0  0  0  0  0  0  0  0
   -2.6980   24.9380  -26.8520 C   0  0  0  0  0  0  0  0  0  0  0  0
   -2.4167   23.8968  -26.6357 H   0  0  0  0  0  0  0  0  0  0  0  0
   -3.7794   25.0731  -26.7024 H   0  0  0  0  0  0  0  0  0  0  0  0
   -3.2740   21.6520  -28.9880 C   0  0  0  0  0  0  0  0  0  0  0  0
   -4.1341   21.7629  -28.3114 H   0  0  0  0  0  0  0  0  0  0  0  0
  1  2  1  0
  2  3  2  0
  3  4  1  0
  3  5  1  0
  5  6  1  0
  6  7  2  0
  7  8  1  0
  8  9  1  0
  8 10  2  0
 10 11  1  0
 11 12  1  0
 11 13  1  0
 13 14  1  6
 13 15  1  0
 15 16  1  0
 15 17  1  0
 15 18  1  0
 18 19  1  0
 18 20  1  0
 18 21  1  0
 21 22  1  1
 21 23  1  0
 23 24  1  0
 23 25  1  0
 21 26  1  0
 26 27  1  0
 26 28  1  0
 26 29  1  0
 29 30  1  0
 29 31  1  0
 10 32  1  0
 32 33  1  0
 33 34  1  0
 34 35  2  0
 35 36  1  0
 35 37  1  0
 37 38  1  0
 37 39  2  0
 39 40  1  0
 40 41  2  0
 40 42  1  0
 42 43  1  0
 43 44  1  0
 43 45  1  0
 43 46  1  0
 46 47  1  0
 46 48  1  0
 46 49  1  0
 49 50  1  0
 50 51  1  0
 50 52  1  0
 50 53  1  0
 53 54  1  0
 53 55  1  0
 39 56  1  0
 56 57  1  0
 57 58  1  0
 57 59  1  0
 57 60  1  0
 56 61  2  0
 61 62  1  0
  5 63  2  0
 63 64  1  0
 63 65  1  0
 65 66  1  0
 66 67  2  0
 66 68  2  0
 66 69  1  0
 69 70  1  0
 70 71  1  0
 70 72  1  0
 70 73  1  0
 73 74  1  0
 73 75  1  0
 73 76  1  0
 76 77  1  0
 76 78  1  0
 76 79  1  0
 79 80  1  0
 79 81  1  0
 79 82  1  0
 82 83  1  0
 82 84  1  0
 65 85  2  0
 85 86  1  0
 85  2  1  0
 33  7  1  0
 61 34  1  0
 82 69  1  0
 29 13  1  0
 53 42  1  0
M  CHG  1  32  -1
M  END
>  <UniqueID>  (5) 
5

>  <SMILES>  (5) 
Cc1cc(-n2[n-]c(NC3CCC(N)CC3)c/c2=N/c2cccc(S(=O)(=O)N3CCCCC3)c2)ccc1C(=O)N1CCOCC1

>  <Energy>  (5) 
147.0382334032098

>  <Genealogy>  (5) 
Cc1cc(-n2[n-]c(NC3CCC(N)CC3)cc2=Nc2cccc(S(=O)(=O)N3CCCCC3)c2)ccc1C(=O)N1CCOCC1 (protonated)
Cc1cc(-n2[n-]c(NC3CCC(N)CC3)c/c2=N/c2cccc(S(=O)(=O)N3CCCCC3)c2)ccc1C(=O)N1CCOCC1 (cis-trans isomerization)
Cc1cc(-n2[n-]c(NC3CCC(N)CC3)c/c2=N/c2cccc(S(=O)(=O)N3CCCCC3)c2)ccc1C(=O)N1CCOCC1 (3D coordinates assigned)
Cc1cc(-n2[n-]c(NC3CCC(N)CC3)c/c2=N/c2cccc(S(=O)(=O)N3CCCCC3)c2)ccc1C(=O)N1CCOCC1 (nonaromatic ring conformer: 147.0382334032098 kcal/mol)

>  <smiles>  (5) 
Cc1cc(-n2[nH]c(NC3CCC(N)CC3)cc2=Nc2cccc(S(=O)(=O)N3CCCCC3)c2)ccc1C(=O)N1CCOCC1

>  <score_type>  (5) 
oracle

>  <origin>  (5) 
adgpu

>  <m_score__min__energy>  (5) 
-11.57

>  <m_primary>  (5) 
energy

$$$$
5:0
     RDKit          3D

 41 43  0  0  0  0  0  0  0  0999 V2000
   -2.2480   17.0620  -33.9530 C   0  0  0  0  0  0  0  0  0  0  0  0
   -3.5460   16.9880  -34.5360 O   0  0  0  0  0  0  0  0  0  0  0  0
   -4.6940   17.5880  -33.9970 C   0  0  0  0  0  0  0  0  0  0  0  0
   -5.2650   18.7470  -34.5570 C   0  0  0  0  0  0  0  0  0  0  0  0
   -6.4090   19.3140  -33.9920 C   0  0  0  0  0  0  0  0  0  0  0  0
   -6.9940   18.7400  -32.8600 C   0  0  0  0  0  0  0  0  0  0  0  0
   -8.4560   19.4360  -32.1660 S   0  0  0  0  0  0  0  0  0  0  0  0
   -8.7150   18.8230  -30.8180 O   0  0  0  0  0  0  0  0  0  0  0  0
   -9.6220   19.1450  -33.0690 O   0  0  0  0  0  0  0  0  0  0  0  0
   -8.2640   21.1500  -31.9960 N   0  0  0  0  0  0  0  0  0  0  0  0
   -9.3150   22.1350  -32.2430 C   0  0  0  0  0  0  0  0  0  0  0  0
   -8.6700   23.5150  -31.9620 C   0  0  0  0  0  0  0  0  0  0  0  0
   -7.2740   23.1710  -31.5660 C   0  0  0  0  0  0  0  0  0  0  0  0
   -6.2440   24.0400  -31.2000 C   0  0  0  0  0  0  0  0  0  0  0  0
   -4.9850   23.4990  -30.8590 C   0  0  0  0  0  0  0  0  0  0  0  0
   -3.8680   24.3860  -30.4660 C   0  0  0  0  0  0  0  0  0  0  0  0
   -3.8650   25.5990  -30.8040 O   0  0  0  0  0  0  0  0  0  0  0  0
   -2.8060   23.8920  -29.7170 O   0  0  0  0  0  0  0  0  0  0  0  0
   -4.8010   22.0950  -30.8960 C   0  0  0  0  0  0  0  0  0  0  0  0
   -5.8560   21.2460  -31.2680 C   0  0  0  0  0  0  0  0  0  0  0  0
   -7.0840   21.8190  -31.5980 C   0  0  0  0  0  0  0  0  0  0  0  0
   -6.4370   17.5830  -32.3020 C   0  0  0  0  0  0  0  0  0  0  0  0
   -5.2850   17.0010  -32.8660 C   0  0  0  0  0  0  0  0  0  0  0  0
   -4.6990   15.8420  -32.3330 O   0  0  0  0  0  0  0  0  0  0  0  0
   -4.7310   14.5620  -32.9550 C   0  0  0  0  0  0  0  0  0  0  0  0
   -2.3376   17.0569  -32.8567 H   0  0  0  0  0  0  0  0  0  0  0  0
   -1.6510   16.1964  -34.2761 H   0  0  0  0  0  0  0  0  0  0  0  0
   -1.7533   17.9898  -34.2761 H   0  0  0  0  0  0  0  0  0  0  0  0
   -4.8072   19.2082  -35.4445 H   0  0  0  0  0  0  0  0  0  0  0  0
   -6.8516   20.2161  -34.4396 H   0  0  0  0  0  0  0  0  0  0  0  0
   -9.6575   22.0770  -33.2867 H   0  0  0  0  0  0  0  0  0  0  0  0
  -10.1938   21.9599  -31.6050 H   0  0  0  0  0  0  0  0  0  0  0  0
   -8.6793   24.1446  -32.8639 H   0  0  0  0  0  0  0  0  0  0  0  0
   -9.2051   24.0898  -31.1918 H   0  0  0  0  0  0  0  0  0  0  0  0
   -6.4105   25.1271  -31.1777 H   0  0  0  0  0  0  0  0  0  0  0  0
   -3.8234   21.6660  -30.6311 H   0  0  0  0  0  0  0  0  0  0  0  0
   -5.7172   20.1552  -31.2984 H   0  0  0  0  0  0  0  0  0  0  0  0
   -6.9024   17.1252  -31.4167 H   0  0  0  0  0  0  0  0  0  0  0  0
   -4.7506   13.7793  -32.1824 H   0  0  0  0  0  0  0  0  0  0  0  0
   -5.6314   14.4812  -33.5816 H   0  0  0  0  0  0  0  0  0  0  0  0
   -3.8357   14.4364  -33.5816 H   0  0  0  0  0  0  0  0  0  0  0  0
  1  2  1  0
  2  3  1  0
  3  4  2  0
  4  5  1  0
  5  6  2  0
  6  7  1  0
  7  8  2  0
  7  9  2  0
  7 10  1  0
 10 11  1  0
 11 12  1  0
 12 13  1  0
 13 14  2  0
 14 15  1  0
 15 16  1  0
 16 17  2  0
 16 18  1  0
 15 19  2  0
 19 20  1  0
 20 21  2  0
  6 22  1  0
 22 23  2  0
 23 24  1  0
 24 25  1  0
 23  3  1  0
 21 10  1  0
 21 13  1  0
  1 26  1  0
  1 27  1  0
  1 28  1  0
  4 29  1  0
  5 30  1  0
 11 31  1  0
 11 32  1  0
 12 33  1  0
 12 34  1  0
 14 35  1  0
 19 36  1  0
 20 37  1  0
 22 38  1  0
 25 39  1  0
 25 40  1  0
 25 41  1  0
M  CHG  1  18  -1
M  END
>  <UniqueID>  (6) 
6

>  <SMILES>  (6) 
COc1ccc(S(=O)(=O)N2CCc3cc(C(=O)[O-])ccc32)cc1OC

>  <Energy>  (6) 
58.17955698932457

>  <Genealogy>  (6) 
COc1ccc(S(=O)(=O)N2CCc3cc(C(=O)[O-])ccc32)cc1OC (protonated)
COc1ccc(S(=O)(=O)N2CCc3cc(C(=O)[O-])ccc32)cc1OC (3D coordinates assigned)
COc1ccc(S(=O)(=O)N2CCc3cc(C(=O)[O-])ccc32)cc1OC (nonaromatic ring conformer: 58.17955698932457 kcal/mol)

>  <smiles>  (6) 
COc1ccc(S(=O)(=O)N2CCc3cc(C(=O)O)ccc32)cc1OC

>  <score_type>  (6) 
oracle

>  <origin>  (6) 
adgpu

>  <m_score__min__energy>  (6) 
-10.449999999999999

>  <m_primary>  (6) 
energy

$$$$
6:0
     RDKit          3D

 57 60  0  0  0  0  0  0  0  0999 V2000
   -2.5480   21.0240  -29.8410 O   0  0  0  0  0  0  0  0  0  0  0  0
   -2.3540   22.3540  -30.5140 S   0  0  0  0  0  0  0  0  0  0  0  0
   -1.3110   23.1230  -29.7530 O   0  0  0  0  0  0  0  0  0  0  0  0
   -1.8040   22.0830  -32.1330 N   0  0  0  0  0  0  0  0  0  0  0  0
   -0.6610   21.2780  -32.4240 C   0  0  0  0  0  0  0  0  0  0  0  0
   -0.1520   20.4010  -31.4540 C   0  0  0  0  0  0  0  0  0  0  0  0
    0.9590   19.5970  -31.7390 C   0  0  0  0  0  0  0  0  0  0  0  0
    1.5900   18.4990  -30.5140 S   0  0  0  0  0  0  0  0  0  0  0  0
    2.3670   19.2770  -29.4870 O   0  0  0  0  0  0  0  0  0  0  0  0
    2.5230   17.5260  -31.1790 O   0  0  0  0  0  0  0  0  0  0  0  0
    0.2860   17.6180  -29.7450 N   0  0  0  0  0  0  0  0  0  0  0  0
   -0.4740   18.4840  -28.8390 C   0  0  0  0  0  0  0  0  0  0  0  0
    0.1470   18.3750  -27.4560 C   0  0  0  0  0  0  0  0  0  0  0  0
    0.9160   17.0700  -27.4670 C   0  0  0  0  0  0  0  0  0  0  0  0
    0.8260   16.5480  -28.8960 C   0  0  0  0  0  0  0  0  0  0  0  0
    1.5790   19.6930  -32.9930 C   0  0  0  0  0  0  0  0  0  0  0  0
    1.0940   20.5870  -33.9510 C   0  0  0  0  0  0  0  0  0  0  0  0
   -0.0210   21.3840  -33.6730 C   0  0  0  0  0  0  0  0  0  0  0  0
   -0.4830   22.2630  -34.6530 O   0  0  0  0  0  0  0  0  0  0  0  0
   -3.8830   23.2380  -30.5000 C   0  0  0  0  0  0  0  0  0  0  0  0
   -5.0600   22.5950  -30.9120 C   0  0  0  0  0  0  0  0  0  0  0  0
   -6.2790   23.2870  -30.9390 C   0  0  0  0  0  0  0  0  0  0  0  0
   -7.7520   22.4630  -31.4590 S   0  0  0  0  0  0  0  0  0  0  0  0
   -8.5780   22.1230  -30.2500 O   0  0  0  0  0  0  0  0  0  0  0  0
   -8.5550   23.3970  -32.3220 O   0  0  0  0  0  0  0  0  0  0  0  0
   -7.4290   20.9950  -32.3510 N   0  0  0  0  0  0  0  0  0  0  0  0
   -8.6430   20.2210  -32.6140 C   0  0  0  0  0  0  0  0  0  0  0  0
   -8.2230   18.7570  -32.6980 C   0  0  0  0  0  0  0  0  0  0  0  0
   -6.7930   18.7150  -32.1810 C   0  0  0  0  0  0  0  0  0  0  0  0
   -6.5400   20.0990  -31.6190 C   0  0  0  0  0  0  0  0  0  0  0  0
   -6.3200   24.6290  -30.5390 C   0  0  0  0  0  0  0  0  0  0  0  0
   -5.1500   25.2780  -30.1380 C   0  0  0  0  0  0  0  0  0  0  0  0
   -3.9330   24.5920  -30.1210 C   0  0  0  0  0  0  0  0  0  0  0  0
   -2.7780   25.2660  -29.7370 O   0  0  0  0  0  0  0  0  0  0  0  0
   -0.6283   20.3446  -30.4641 H   0  0  0  0  0  0  0  0  0  0  0  0
   -0.4252   19.5256  -29.1893 H   0  0  0  0  0  0  0  0  0  0  0  0
   -1.5293   18.1751  -28.8100 H   0  0  0  0  0  0  0  0  0  0  0  0
    0.8253   19.2208  -27.2701 H   0  0  0  0  0  0  0  0  0  0  0  0
   -0.6133   18.3972  -26.6613 H   0  0  0  0  0  0  0  0  0  0  0  0
    1.9659   17.2415  -27.1871 H   0  0  0  0  0  0  0  0  0  0  0  0
    0.5023   16.3498  -26.7457 H   0  0  0  0  0  0  0  0  0  0  0  0
    1.8269   16.2611  -29.2508 H   0  0  0  0  0  0  0  0  0  0  0  0
    0.1709   15.6653  -28.9364 H   0  0  0  0  0  0  0  0  0  0  0  0
    2.4503   19.0623  -33.2233 H   0  0  0  0  0  0  0  0  0  0  0  0
    1.5917   20.6643  -34.9289 H   0  0  0  0  0  0  0  0  0  0  0  0
   -1.4590   22.5260  -34.7280 H   0  0  0  0  0  0  0  0  0  0  0  0
   -5.0260   21.5385  -31.2165 H   0  0  0  0  0  0  0  0  0  0  0  0
   -9.3659   20.3612  -31.7969 H   0  0  0  0  0  0  0  0  0  0  0  0
   -9.1247   20.5475  -33.5475 H   0  0  0  0  0  0  0  0  0  0  0  0
   -8.8770   18.1327  -32.0714 H   0  0  0  0  0  0  0  0  0  0  0  0
   -8.2977   18.3689  -33.7246 H   0  0  0  0  0  0  0  0  0  0  0  0
   -6.6881   17.9530  -31.3946 H   0  0  0  0  0  0  0  0  0  0  0  0
   -6.0748   18.4518  -32.9715 H   0  0  0  0  0  0  0  0  0  0  0  0
   -6.7717   20.1239  -30.5440 H   0  0  0  0  0  0  0  0  0  0  0  0
   -5.4863   20.3945  -31.7308 H   0  0  0  0  0  0  0  0  0  0  0  0
   -7.2761   25.1730  -30.5407 H   0  0  0  0  0  0  0  0  0  0  0  0
   -5.1869   26.3345  -29.8341 H   0  0  0  0  0  0  0  0  0  0  0  0
  1  2  2  0
  2  3  2  0
  2  4  1  0
  4  5  1  0
  5  6  2  0
  6  7  1  0
  7  8  1  0
  8  9  2  0
  8 10  2  0
  8 11  1  0
 11 12  1  0
 12 13  1  0
 13 14  1  0
 14 15  1  0
  7 16  2  0
 16 17  1  0
 17 18  2  0
 18 19  1  0
  2 20  1  0
 20 21  2  0
 21 22  1  0
 22 23  1  0
 23 24  2  0
 23 25  2  0
 23 26  1  0
 26 27  1  0
 27 28  1  0
 28 29  1  0
 29 30  1  0
 22 31  2  0
 31 32  1  0
 32 33  2  0
 33 34  1  0
 18  5  1  0
 33 20  1  0
 15 11  1  0
 30 26  1  0
  6 35  1  0
 12 36  1  0
 12 37  1  0
 13 38  1  0
 13 39  1  0
 14 40  1  0
 14 41  1  0
 15 42  1  0
 15 43  1  0
 16 44  1  0
 17 45  1  0
 19 46  1  0
 21 47  1  0
 27 48  1  0
 27 49  1  0
 28 50  1  0
 28 51  1  0
 29 52  1  0
 29 53  1  0
 30 54  1  0
 30 55  1  0
 31 56  1  0
 32 57  1  0
M  CHG  2   4  -1  34  -1
M  END
>  <UniqueID>  (7) 
7

>  <SMILES>  (7) 
O=S(=O)([N-]c1cc(S(=O)(=O)N2CCCC2)ccc1O)c1cc(S(=O)(=O)N2CCCC2)ccc1[O-]

>  <Energy>  (7) 
66.39357491105827

>  <Genealogy>  (7) 
O=S(=O)([N-]c1cc(S(=O)(=O)N2CCCC2)ccc1O)c1cc(S(=O)(=O)N2CCCC2)ccc1[O-] (protonated)
O=S(=O)([N-]c1cc(S(=O)(=O)N2CCCC2)ccc1O)c1cc(S(=O)(=O)N2CCCC2)ccc1[O-] (3D coordinates assigned)
O=S(=O)([N-]c1cc(S(=O)(=O)N2CCCC2)ccc1O)c1cc(S(=O)(=O)N2CCCC2)ccc1[O-] (nonaromatic ring conformer: 66.39357491105827 kcal/mol)

>  <smiles>  (7) 
O=S(=O)(Nc1cc(S(=O)(=O)N2CCCC2)ccc1O)c1cc(S(=O)(=O)N2CCCC2)ccc1O

>  <score_type>  (7) 
oracle

>  <origin>  (7) 
adgpu

>  <m_score__min__energy>  (7) 
-14.09

>  <m_primary>  (7) 
energy

$$$$
7:0
     RDKit          3D

 50 53  0  0  0  0  0  0  0  0999 V2000
   -6.5980   17.3700  -33.4450 C   0  0  0  0  0  0  0  0  0  0  0  0
   -6.4700   18.8400  -33.6920 C   0  0  0  0  0  0  0  0  0  0  0  0
   -5.6980   19.2340  -34.6080 O   0  0  0  0  0  0  0  0  0  0  0  0
   -7.1700   19.8100  -32.8950 N   0  0  0  0  0  0  0  0  0  0  0  0
   -8.6120   19.7470  -32.6510 C   0  0  0  0  0  0  0  0  0  0  0  0
   -8.9920   21.0750  -31.9580 C   0  0  0  0  0  0  0  0  0  0  0  0
   -7.6830   21.7620  -31.7900 C   0  0  0  0  0  0  0  0  0  0  0  0
   -7.4330   22.9630  -31.1280 C   0  0  0  0  0  0  0  0  0  0  0  0
   -6.1010   23.3970  -30.9950 C   0  0  0  0  0  0  0  0  0  0  0  0
   -5.7540   24.8720  -30.0960 S   0  0  0  0  0  0  0  0  0  0  0  0
   -7.0520   25.5490  -29.7610 O   0  0  0  0  0  0  0  0  0  0  0  0
   -4.9080   25.8070  -30.9160 O   0  0  0  0  0  0  0  0  0  0  0  0
   -4.9090   24.4840  -28.6310 N   0  0  0  0  0  0  0  0  0  0  0  0
   -3.7640   23.6110  -28.5910 C   0  0  0  0  0  0  0  0  0  0  0  0
   -3.8470   22.3320  -28.0120 C   0  0  0  0  0  0  0  0  0  0  0  0
   -2.7170   21.5060  -27.9300 C   0  0  0  0  0  0  0  0  0  0  0  0
   -1.4970   21.9360  -28.4890 C   0  0  0  0  0  0  0  0  0  0  0  0
   -1.4170   23.2060  -29.0770 C   0  0  0  0  0  0  0  0  0  0  0  0
   -2.5390   24.0360  -29.1330 C   0  0  0  0  0  0  0  0  0  0  0  0
   -2.4250   25.2930  -29.7160 O   0  0  0  0  0  0  0  0  0  0  0  0
   -0.2530   21.0900  -28.3650 C   0  0  0  0  0  0  0  0  0  0  0  0
   -0.5840   19.6670  -28.1500 N   0  0  0  0  0  0  0  0  0  0  0  0
    0.6480   18.8950  -27.9300 C   0  0  0  0  0  0  0  0  0  0  0  0
   -1.4830   19.5260  -26.9910 C   0  0  0  0  0  0  0  0  0  0  0  0
   -2.8480   20.1330  -27.3220 C   0  0  0  0  0  0  0  0  0  0  0  0
   -5.0540   22.6140  -31.5240 C   0  0  0  0  0  0  0  0  0  0  0  0
   -5.3320   21.4070  -32.1840 C   0  0  0  0  0  0  0  0  0  0  0  0
   -6.6700   21.0150  -32.3280 C   0  0  0  0  0  0  0  0  0  0  0  0
   -6.6145   17.1803  -32.3616 H   0  0  0  0  0  0  0  0  0  0  0  0
   -7.5316   17.0024  -33.8959 H   0  0  0  0  0  0  0  0  0  0  0  0
   -5.7420   16.8465  -33.8959 H   0  0  0  0  0  0  0  0  0  0  0  0
   -9.1553   19.6444  -33.6020 H   0  0  0  0  0  0  0  0  0  0  0  0
   -8.8748   18.8803  -32.0267 H   0  0  0  0  0  0  0  0  0  0  0  0
   -9.6701   21.6684  -32.5889 H   0  0  0  0  0  0  0  0  0  0  0  0
   -9.5247   20.9266  -31.0071 H   0  0  0  0  0  0  0  0  0  0  0  0
   -8.2608   23.5599  -30.7176 H   0  0  0  0  0  0  0  0  0  0  0  0
   -5.3530   24.7910  -27.7370 H   0  0  0  0  0  0  0  0  0  0  0  0
   -4.8103   21.9753  -27.6186 H   0  0  0  0  0  0  0  0  0  0  0  0
   -0.4616   23.5522  -29.4983 H   0  0  0  0  0  0  0  0  0  0  0  0
    0.3365   21.1840  -29.2890 H   0  0  0  0  0  0  0  0  0  0  0  0
    0.3203   21.4455  -27.4961 H   0  0  0  0  0  0  0  0  0  0  0  0
    0.8237   18.7849  -26.8497 H   0  0  0  0  0  0  0  0  0  0  0  0
    0.5440   17.9002  -28.3879 H   0  0  0  0  0  0  0  0  0  0  0  0
    1.4979   19.4224  -28.3879 H   0  0  0  0  0  0  0  0  0  0  0  0
   -1.6054   18.4596  -26.7505 H   0  0  0  0  0  0  0  0  0  0  0  0
   -1.0498   20.0515  -26.1272 H   0  0  0  0  0  0  0  0  0  0  0  0
   -3.3666   19.4756  -28.0354 H   0  0  0  0  0  0  0  0  0  0  0  0
   -3.4170   20.2265  -26.3853 H   0  0  0  0  0  0  0  0  0  0  0  0
   -4.0124   22.9516  -31.4186 H   0  0  0  0  0  0  0  0  0  0  0  0
   -4.5176   20.7823  -32.5796 H   0  0  0  0  0  0  0  0  0  0  0  0
  1  2  1  0
  2  3  2  0
  2  4  1  0
  4  5  1  0
  5  6  1  0
  6  7  1  0
  7  8  2  0
  8  9  1  0
  9 10  1  0
 10 11  2  0
 10 12  2  0
 10 13  1  0
 13 14  1  0
 14 15  2  0
 15 16  1  0
 16 17  2  0
 17 18  1  0
 18 19  2  0
 19 20  1  0
 17 21  1  0
 21 22  1  0
 22 23  1  0
 22 24  1  0
 24 25  1  0
  9 26  2  0
 26 27  1  0
 27 28  2  0
 28  4  1  0
 28  7  1  0
 19 14  1  0
 25 16  1  0
  1 29  1  0
  1 30  1  0
  1 31  1  0
  5 32  1  0
  5 33  1  0
  6 34  1  0
  6 35  1  0
  8 36  1  0
 13 37  1  0
 15 38  1  0
 18 39  1  0
 21 40  1  0
 21 41  1  0
 23 42  1  0
 23 43  1  0
 23 44  1  0
 24 45  1  0
 24 46  1  0
 25 47  1  0
 25 48  1  0
 26 49  1  0
 27 50  1  0
M  CHG  1  20  -1
M  END
>  <UniqueID>  (8) 
8

>  <SMILES>  (8) 
CC(=O)N1CCc2cc(S(=O)(=O)Nc3cc4c(cc3[O-])CN(C)CC4)ccc21

>  <Energy>  (8) 
74.27290846700872

>  <Genealogy>  (8) 
CC(=O)N1CCc2cc(S(=O)(=O)Nc3cc4c(cc3[O-])CN(C)CC4)ccc21 (protonated)
CC(=O)N1CCc2cc(S(=O)(=O)Nc3cc4c(cc3[O-])CN(C)CC4)ccc21 (3D coordinates assigned)
CC(=O)N1CCc2cc(S(=O)(=O)Nc3cc4c(cc3[O-])CN(C)CC4)ccc21 (nonaromatic ring conformer: 74.27290846700872 kcal/mol)

>  <smiles>  (8) 
CC(=O)N1CCc2cc(S(=O)(=O)Nc3cc4c(cc3O)CN(C)CC4)ccc21

>  <score_type>  (8) 
oracle

>  <origin>  (8) 
adgpu

>  <m_score__min__energy>  (8) 
-14.34

>  <m_primary>  (8) 
energy

$$$$
8:0
     RDKit          3D

 71 75  0  0  0  0  0  0  0  0999 V2000
    0.9370   17.1100  -33.2160 C   0  0  0  0  0  0  0  0  0  0  0  0
    1.7600   18.2680  -32.6620 C   0  0  0  0  0  0  0  0  0  0  0  0
    0.9830   19.0160  -31.6160 C   0  0  0  0  0  0  0  0  0  0  0  0
    1.3540   19.0530  -30.3150 N   0  0  0  0  0  0  0  0  0  0  0  0
    0.4880   19.8800  -29.7050 C   0  0  0  0  0  0  0  0  0  0  0  0
    0.4880   20.2530  -28.3630 C   0  0  0  0  0  0  0  0  0  0  0  0
   -0.4990   21.1650  -27.9190 C   0  0  0  0  0  0  0  0  0  0  0  0
   -0.5510   21.6050  -26.5040 C   0  0  0  0  0  0  0  0  0  0  0  0
   -1.3550   21.0390  -25.7130 O   0  0  0  0  0  0  0  0  0  0  0  0
    0.3110   22.6460  -26.0160 N   0  0  0  0  0  0  0  0  0  0  0  0
    0.2760   23.1090  -24.6280 C   0  0  0  0  0  0  0  0  0  0  0  0
   -0.8160   24.1670  -24.4240 C   0  0  0  0  0  0  0  0  0  0  0  0
   -0.7780   25.2130  -25.5080 C   0  0  0  0  0  0  0  0  0  0  0  0
   -0.0740   26.4110  -25.3120 C   0  0  0  0  0  0  0  0  0  0  0  0
   -0.0110   27.3640  -26.3300 C   0  0  0  0  0  0  0  0  0  0  0  0
   -0.6420   27.1290  -27.5540 C   0  0  0  0  0  0  0  0  0  0  0  0
   -1.3430   25.9260  -27.7690 C   0  0  0  0  0  0  0  0  0  0  0  0
   -1.9880   25.6380  -28.9810 O   0  0  0  0  0  0  0  0  0  0  0  0
   -2.8650   24.5350  -29.1840 C   0  0  0  0  0  0  0  0  0  0  0  0
   -1.4010   24.9750  -26.7440 C   0  0  0  0  0  0  0  0  0  0  0  0
   -1.4370   21.6820  -28.8510 C   0  0  0  0  0  0  0  0  0  0  0  0
   -1.4070   21.2870  -30.2000 C   0  0  0  0  0  0  0  0  0  0  0  0
   -0.4290   20.3770  -30.5950 C   0  0  0  0  0  0  0  0  0  0  0  0
   -0.1340   19.8300  -31.8320 C   0  0  0  0  0  0  0  0  0  0  0  0
   -0.8180   20.1250  -33.1400 C   0  0  0  0  0  0  0  0  0  0  0  0
   -2.2840   20.3960  -32.9270 C   0  0  0  0  0  0  0  0  0  0  0  0
   -2.8400   21.6340  -33.2920 C   0  0  0  0  0  0  0  0  0  0  0  0
   -4.1950   21.8920  -33.0690 C   0  0  0  0  0  0  0  0  0  0  0  0
   -5.0170   20.9120  -32.4910 C   0  0  0  0  0  0  0  0  0  0  0  0
   -6.4450   21.1950  -32.2250 C   0  0  0  0  0  0  0  0  0  0  0  0
   -7.4040   20.3360  -32.7920 C   0  0  0  0  0  0  0  0  0  0  0  0
   -8.7600   20.5000  -32.5130 C   0  0  0  0  0  0  0  0  0  0  0  0
   -9.1780   21.5210  -31.6610 C   0  0  0  0  0  0  0  0  0  0  0  0
   -8.2440   22.3920  -31.0990 C   0  0  0  0  0  0  0  0  0  0  0  0
   -6.8710   22.2570  -31.3800 C   0  0  0  0  0  0  0  0  0  0  0  0
   -5.9360   23.2620  -30.8150 C   0  0  0  0  0  0  0  0  0  0  0  0
   -5.6280   23.2490  -29.5940 O   0  0  0  0  0  0  0  0  0  0  0  0
   -5.3470   24.2110  -31.6440 O   0  0  0  0  0  0  0  0  0  0  0  0
   -4.4620   19.6770  -32.1240 C   0  0  0  0  0  0  0  0  0  0  0  0
   -3.1070   19.4180  -32.3460 C   0  0  0  0  0  0  0  0  0  0  0  0
    0.5208   16.5244  -32.3830 H   0  0  0  0  0  0  0  0  0  0  0  0
    0.1162   17.5054  -33.8323 H   0  0  0  0  0  0  0  0  0  0  0  0
    1.5803   16.4648  -33.8323 H   0  0  0  0  0  0  0  0  0  0  0  0
    2.6833   17.8731  -32.2130 H   0  0  0  0  0  0  0  0  0  0  0  0
    2.0015   18.9570  -33.4848 H   0  0  0  0  0  0  0  0  0  0  0  0
    2.1650   18.5620  -29.8780 H   0  0  0  0  0  0  0  0  0  0  0  0
    1.2365   19.8488  -27.6656 H   0  0  0  0  0  0  0  0  0  0  0  0
    1.0230   23.0760  -26.6470 H   0  0  0  0  0  0  0  0  0  0  0  0
    0.0731   22.2521  -23.9688 H   0  0  0  0  0  0  0  0  0  0  0  0
    1.2492   23.5616  -24.3869 H   0  0  0  0  0  0  0  0  0  0  0  0
   -1.7991   23.6737  -24.4371 H   0  0  0  0  0  0  0  0  0  0  0  0
   -0.6409   24.6632  -23.4580 H   0  0  0  0  0  0  0  0  0  0  0  0
    0.4300   26.5998  -24.3527 H   0  0  0  0  0  0  0  0  0  0  0  0
    0.5376   28.3036  -26.1678 H   0  0  0  0  0  0  0  0  0  0  0  0
   -0.5914   27.8848  -28.3516 H   0  0  0  0  0  0  0  0  0  0  0  0
   -3.1829   24.1352  -28.2098 H   0  0  0  0  0  0  0  0  0  0  0  0
   -3.7479   24.8678  -29.7495 H   0  0  0  0  0  0  0  0  0  0  0  0
   -2.3418   23.7498  -29.7495 H   0  0  0  0  0  0  0  0  0  0  0  0
   -1.9405   24.0306  -26.9082 H   0  0  0  0  0  0  0  0  0  0  0  0
   -2.1975   22.4013  -28.5131 H   0  0  0  0  0  0  0  0  0  0  0  0
   -2.1347   21.6850  -30.9226 H   0  0  0  0  0  0  0  0  0  0  0  0
   -0.3510   21.0083  -33.6001 H   0  0  0  0  0  0  0  0  0  0  0  0
   -0.7129   19.2500  -33.7983 H   0  0  0  0  0  0  0  0  0  0  0  0
   -2.2054   22.4037  -33.7555 H   0  0  0  0  0  0  0  0  0  0  0  0
   -4.6196   22.8677  -33.3477 H   0  0  0  0  0  0  0  0  0  0  0  0
   -7.0805   19.5263  -33.4626 H   0  0  0  0  0  0  0  0  0  0  0  0
   -9.5002   19.8236  -32.9653 H   0  0  0  0  0  0  0  0  0  0  0  0
  -10.2471   21.6404  -31.4311 H   0  0  0  0  0  0  0  0  0  0  0  0
   -8.5847   23.1943  -30.4279 H   0  0  0  0  0  0  0  0  0  0  0  0
   -5.0969   18.9084  -31.6590 H   0  0  0  0  0  0  0  0  0  0  0  0
   -2.6829   18.4430  -32.0642 H   0  0  0  0  0  0  0  0  0  0  0  0
  1  2  1  0
  2  3  1  0
  3  4  1  0
  4  5  1  0
  5  6  2  0
  6  7  1  0
  7  8  1  0
  8  9  2  0
  8 10  1  0
 10 11  1  0
 11 12  1  0
 12 13  1  0
 13 14  2  0
 14 15  1  0
 15 16  2  0
 16 17  1  0
 17 18  1  0
 18 19  1  0
 17 20  2  0
  7 21  2  0
 21 22  1  0
 22 23  2  0
 23 24  1  0
 24 25  1  0
 25 26  1  0
 26 27  2  0
 27 28  1  0
 28 29  2  0
 29 30  1  0
 30 31  2  0
 31 32  1  0
 32 33  2  0
 33 34  1  0
 34 35  2  0
 35 36  1  0
 36 37  2  0
 36 38  1  0
 29 39  1  0
 39 40  2  0
 24  3  2  0
 40 26  1  0
 23  5  1  0
 35 30  1  0
 20 13  1  0
  1 41  1  0
  1 42  1  0
  1 43  1  0
  2 44  1  0
  2 45  1  0
  4 46  1  0
  6 47  1  0
 10 48  1  0
 11 49  1  0
 11 50  1  0
 12 51  1  0
 12 52  1  0
 14 53  1  0
 15 54  1  0
 16 55  1  0
 19 56  1  0
 19 57  1  0
 19 58  1  0
 20 59  1  0
 21 60  1  0
 22 61  1  0
 25 62  1  0
 25 63  1  0
 27 64  1  0
 28 65  1  0
 31 66  1  0
 32 67  1  0
 33 68  1  0
 34 69  1  0
 39 70  1  0
 40 71  1  0
M  CHG  1  38  -1
M  END
>  <UniqueID>  (9) 
9

>  <SMILES>  (9) 
CCc1[nH]c2cc(C(=O)NCCc3cccc(OC)c3)ccc2c1Cc1ccc(-c2ccccc2C(=O)[O-])cc1

>  <Energy>  (9) 
111.2570938109778

>  <Genealogy>  (9) 
CCc1[nH]c2cc(C(=O)NCCc3cccc(OC)c3)ccc2c1Cc1ccc(-c2ccccc2C(=O)[O-])cc1 (protonated)
CCc1[nH]c2cc(C(=O)NCCc3cccc(OC)c3)ccc2c1Cc1ccc(-c2ccccc2C(=O)[O-])cc1 (3D coordinates assigned)
CCc1[nH]c2cc(C(=O)NCCc3cccc(OC)c3)ccc2c1Cc1ccc(-c2ccccc2C(=O)[O-])cc1 (optimized conformer: 111.2570938109778 kcal/mol)

>  <smiles>  (9) 
CCc1[nH]c2cc(C(=O)NCCc3cccc(OC)c3)ccc2c1Cc1ccc(-c2ccccc2C(=O)O)cc1

>  <score_type>  (9) 
oracle

>  <origin>  (9) 
adgpu

>  <m_score__min__energy>  (9) 
-12.57

>  <m_primary>  (9) 
energy

$$$$
9:0
     RDKit          3D

 50 52  0  0  0  0  0  0  0  0999 V2000
    3.3950   17.8740  -29.0600 C   0  0  0  0  0  0  0  0  0  0  0  0
    2.0340   17.4240  -28.6200 C   0  0  0  0  0  0  0  0  0  0  0  0
    1.8660   16.2090  -28.3140 O   0  0  0  0  0  0  0  0  0  0  0  0
    0.9240   18.3440  -28.5470 N   0  0  0  0  0  0  0  0  0  0  0  0
    1.0190   19.6660  -29.1870 C   0  0  0  0  0  0  0  0  0  0  0  0
   -0.3350   20.3830  -29.2180 C   0  0  0  0  0  0  0  0  0  0  0  0
   -0.9700   20.3370  -27.8940 N   0  0  0  0  0  0  0  0  0  0  0  0
   -1.5820   21.5090  -27.3170 C   0  0  0  0  0  0  0  0  0  0  0  0
   -1.6230   21.6290  -26.0560 O   0  0  0  0  0  0  0  0  0  0  0  0
   -2.1550   22.5870  -28.1570 C   0  0  0  0  0  0  0  0  0  0  0  0
   -1.8670   23.9350  -27.8910 C   0  0  0  0  0  0  0  0  0  0  0  0
   -2.4390   24.9450  -28.6710 C   0  0  0  0  0  0  0  0  0  0  0  0
   -3.3000   24.6200  -29.7240 C   0  0  0  0  0  0  0  0  0  0  0  0
   -3.8630   25.6390  -30.4880 O   0  0  0  0  0  0  0  0  0  0  0  0
   -3.5850   23.2780  -30.0170 C   0  0  0  0  0  0  0  0  0  0  0  0
   -4.4920   22.9890  -31.0910 N   0  0  0  0  0  0  0  0  0  0  0  0
   -4.3530   21.7050  -32.2520 S   0  0  0  0  0  0  0  0  0  0  0  0
   -3.3200   20.7290  -31.7610 O   0  0  0  0  0  0  0  0  0  0  0  0
   -3.8860   22.2350  -33.5810 O   0  0  0  0  0  0  0  0  0  0  0  0
   -5.9040   20.8670  -32.3860 C   0  0  0  0  0  0  0  0  0  0  0  0
   -7.0560   21.5150  -31.9040 C   0  0  0  0  0  0  0  0  0  0  0  0
   -8.3130   20.8940  -31.9920 C   0  0  0  0  0  0  0  0  0  0  0  0
   -9.5340   21.5680  -31.4270 C   0  0  0  0  0  0  0  0  0  0  0  0
   -8.4090   19.6050  -32.5470 C   0  0  0  0  0  0  0  0  0  0  0  0
   -7.2670   18.9630  -33.0390 C   0  0  0  0  0  0  0  0  0  0  0  0
   -6.0160   19.5850  -32.9630 C   0  0  0  0  0  0  0  0  0  0  0  0
   -4.9010   18.9160  -33.4580 O   0  0  0  0  0  0  0  0  0  0  0  0
   -2.9920   22.2610  -29.2390 C   0  0  0  0  0  0  0  0  0  0  0  0
   -0.9300   19.0970  -27.1080 C   0  0  0  0  0  0  0  0  0  0  0  0
   -0.3340   17.9340  -27.9110 C   0  0  0  0  0  0  0  0  0  0  0  0
    4.0167   18.0796  -28.1762 H   0  0  0  0  0  0  0  0  0  0  0  0
    3.8653   17.0835  -29.6633 H   0  0  0  0  0  0  0  0  0  0  0  0
    3.3014   18.7890  -29.6633 H   0  0  0  0  0  0  0  0  0  0  0  0
    1.7356   20.2829  -28.6248 H   0  0  0  0  0  0  0  0  0  0  0  0
    1.3518   19.5197  -30.2252 H   0  0  0  0  0  0  0  0  0  0  0  0
   -0.1827   21.4324  -29.5105 H   0  0  0  0  0  0  0  0  0  0  0  0
   -0.9889   19.8788  -29.9448 H   0  0  0  0  0  0  0  0  0  0  0  0
   -1.1888   24.1978  -27.0658 H   0  0  0  0  0  0  0  0  0  0  0  0
   -2.2108   25.9993  -28.4554 H   0  0  0  0  0  0  0  0  0  0  0  0
   -6.9718   22.5156  -31.4548 H   0  0  0  0  0  0  0  0  0  0  0  0
   -9.4906   21.5440  -30.3281 H   0  0  0  0  0  0  0  0  0  0  0  0
   -9.5679   22.6126  -31.7699 H   0  0  0  0  0  0  0  0  0  0  0  0
  -10.4360   21.0400  -31.7699 H   0  0  0  0  0  0  0  0  0  0  0  0
   -9.3850   19.0999  -32.5944 H   0  0  0  0  0  0  0  0  0  0  0  0
   -7.3534   17.9627  -33.4885 H   0  0  0  0  0  0  0  0  0  0  0  0
   -3.1859   21.2055  -29.4806 H   0  0  0  0  0  0  0  0  0  0  0  0
   -0.3147   19.2632  -26.2115 H   0  0  0  0  0  0  0  0  0  0  0  0
   -1.9619   18.8312  -26.8349 H   0  0  0  0  0  0  0  0  0  0  0  0
   -0.1397   17.0884  -27.2348 H   0  0  0  0  0  0  0  0  0  0  0  0
   -1.0487   17.6361  -28.6923 H   0  0  0  0  0  0  0  0  0  0  0  0
  1  2  1  0
  2  3  2  0
  2  4  1  0
  4  5  1  0
  5  6  1  0
  6  7  1  0
  7  8  1  0
  8  9  2  0
  8 10  1  0
 10 11  2  0
 11 12  1  0
 12 13  2  0
 13 14  1  0
 13 15  1  0
 15 16  1  0
 16 17  1  0
 17 18  2  0
 17 19  2  0
 17 20  1  0
 20 21  2  0
 21 22  1  0
 22 23  1  0
 22 24  2  0
 24 25  1  0
 25 26  2  0
 26 27  1  0
 15 28  2  0
  7 29  1  0
 29 30  1  0
 30  4  1  0
 28 10  1  0
 26 20  1  0
  1 31  1  0
  1 32  1  0
  1 33  1  0
  5 34  1  0
  5 35  1  0
  6 36  1  0
  6 37  1  0
 11 38  1  0
 12 39  1  0
 21 40  1  0
 23 41  1  0
 23 42  1  0
 23 43  1  0
 24 44  1  0
 25 45  1  0
 28 46  1  0
 29 47  1  0
 29 48  1  0
 30 49  1  0
 30 50  1  0
M  CHG  3  14  -1  16  -1  27  -1
M  END
>  <UniqueID>  (10) 
10

>  <SMILES>  (10) 
CC(=O)N1CCN(C(=O)c2ccc([O-])c([N-]S(=O)(=O)c3cc(C)ccc3[O-])c2)CC1

>  <Energy>  (10) 
60.768305238908276

>  <Genealogy>  (10) 
CC(=O)N1CCN(C(=O)c2ccc([O-])c([N-]S(=O)(=O)c3cc(C)ccc3[O-])c2)CC1 (protonated)
CC(=O)N1CCN(C(=O)c2ccc([O-])c([N-]S(=O)(=O)c3cc(C)ccc3[O-])c2)CC1 (3D coordinates assigned)
CC(=O)N1CCN(C(=O)c2ccc([O-])c([N-]S(=O)(=O)c3cc(C)ccc3[O-])c2)CC1 (nonaromatic ring conformer: 60.768305238908276 kcal/mol)

>  <smiles>  (10) 
CC(=O)N1CCN(C(=O)c2ccc(O)c(NS(=O)(=O)c3cc(C)ccc3O)c2)CC1

>  <score_type>  (10) 
oracle

>  <origin>  (10) 
adgpu

>  <m_score__min__energy>  (10) 
-15.210000000000001

>  <m_primary>  (10) 
energy

$$$$
10:0
     RDKit          3D

 60 63  0  0  0  0  0  0  0  0999 V2000
    1.3350   15.2910  -26.7400 C   0  0  0  0  0  0  0  0  0  0  0  0
    2.5690   16.4330  -27.3200 S   0  0  0  0  0  0  0  0  0  0  0  0
    3.1810   17.1510  -26.1520 O   0  0  0  0  0  0  0  0  0  0  0  0
    3.6510   15.6830  -28.0460 O   0  0  0  0  0  0  0  0  0  0  0  0
    1.8130   17.5930  -28.4090 C   0  0  0  0  0  0  0  0  0  0  0  0
    0.4280   17.8110  -28.3600 C   0  0  0  0  0  0  0  0  0  0  0  0
   -0.1670   18.7590  -29.1990 C   0  0  0  0  0  0  0  0  0  0  0  0
    0.6200   19.5050  -30.0950 C   0  0  0  0  0  0  0  0  0  0  0  0
    0.0650   20.4990  -30.9180 O   0  0  0  0  0  0  0  0  0  0  0  0
   -1.2790   20.5460  -31.3090 C   0  0  0  0  0  0  0  0  0  0  0  0
   -1.7040   19.8960  -32.4800 C   0  0  0  0  0  0  0  0  0  0  0  0
   -3.0360   19.9790  -32.8910 C   0  0  0  0  0  0  0  0  0  0  0  0
   -3.4110   19.3710  -34.0460 F   0  0  0  0  0  0  0  0  0  0  0  0
   -3.9650   20.6970  -32.1240 C   0  0  0  0  0  0  0  0  0  0  0  0
   -5.6490   20.8240  -32.6410 S   0  0  0  0  0  0  0  0  0  0  0  0
   -6.0010   22.2800  -32.7770 O   0  0  0  0  0  0  0  0  0  0  0  0
   -5.8100   20.1770  -33.9880 O   0  0  0  0  0  0  0  0  0  0  0  0
   -6.7130   20.0780  -31.4660 N   0  0  0  0  0  0  0  0  0  0  0  0
   -6.7440   18.6090  -31.5960 C   0  0  0  0  0  0  0  0  0  0  0  0
   -7.5820   18.1360  -32.8050 C   0  0  0  0  0  0  0  0  0  0  0  0
   -8.7590   18.9800  -33.0830 N   0  0  0  0  0  0  0  0  0  0  0  0
   -9.1790   19.7570  -31.9160 C   0  0  0  0  0  0  0  0  0  0  0  0
   -8.0560   20.7050  -31.4570 C   0  0  0  0  0  0  0  0  0  0  0  0
   -3.5420   21.3490  -30.9590 C   0  0  0  0  0  0  0  0  0  0  0  0
   -2.2030   21.2840  -30.5510 C   0  0  0  0  0  0  0  0  0  0  0  0
   -1.6800   22.1920  -29.1320 S   0  0  0  0  0  0  0  0  0  0  0  0
   -0.7640   23.3070  -29.5520 O   0  0  0  0  0  0  0  0  0  0  0  0
   -0.9400   21.3020  -28.1740 O   0  0  0  0  0  0  0  0  0  0  0  0
   -3.0780   22.8600  -28.3600 N   0  0  0  0  0  0  0  0  0  0  0  0
   -4.0740   23.5520  -29.1140 C   0  0  0  0  0  0  0  0  0  0  0  0
   -5.3650   23.0190  -29.2020 C   0  0  0  0  0  0  0  0  0  0  0  0
   -6.3590   23.6970  -29.9130 C   0  0  0  0  0  0  0  0  0  0  0  0
   -6.0620   24.9040  -30.5520 C   0  0  0  0  0  0  0  0  0  0  0  0
   -4.7720   25.4330  -30.4800 C   0  0  0  0  0  0  0  0  0  0  0  0
   -3.7770   24.7630  -29.7610 C   0  0  0  0  0  0  0  0  0  0  0  0
   -2.4960   25.2990  -29.7030 O   0  0  0  0  0  0  0  0  0  0  0  0
    2.0040   19.2910  -30.1320 C   0  0  0  0  0  0  0  0  0  0  0  0
    2.5990   18.3380  -29.2970 C   0  0  0  0  0  0  0  0  0  0  0  0
    1.3288   15.2853  -25.6400 H   0  0  0  0  0  0  0  0  0  0  0  0
    0.3465   15.5999  -27.1106 H   0  0  0  0  0  0  0  0  0  0  0  0
    1.5665   14.2815  -27.1106 H   0  0  0  0  0  0  0  0  0  0  0  0
   -0.1927   17.2340  -27.6588 H   0  0  0  0  0  0  0  0  0  0  0  0
   -1.2541   18.9217  -29.1580 H   0  0  0  0  0  0  0  0  0  0  0  0
   -0.9829   19.3181  -33.0767 H   0  0  0  0  0  0  0  0  0  0  0  0
   -5.7133   18.2445  -31.7177 H   0  0  0  0  0  0  0  0  0  0  0  0
   -7.2133   18.2044  -30.6871 H   0  0  0  0  0  0  0  0  0  0  0  0
   -6.9365   18.1376  -33.6957 H   0  0  0  0  0  0  0  0  0  0  0  0
   -7.9595   17.1326  -32.5589 H   0  0  0  0  0  0  0  0  0  0  0  0
   -8.5360   19.6440  -33.8620 H   0  0  0  0  0  0  0  0  0  0  0  0
  -10.0671   20.3506  -32.1786 H   0  0  0  0  0  0  0  0  0  0  0  0
   -9.4114   19.0625  -31.0952 H   0  0  0  0  0  0  0  0  0  0  0  0
   -8.0385   21.5754  -32.1294 H   0  0  0  0  0  0  0  0  0  0  0  0
   -8.2750   20.9863  -30.4164 H   0  0  0  0  0  0  0  0  0  0  0  0
   -4.2676   21.9174  -30.3586 H   0  0  0  0  0  0  0  0  0  0  0  0
   -5.5982   22.0632  -28.7099 H   0  0  0  0  0  0  0  0  0  0  0  0
   -7.3755   23.2805  -29.9697 H   0  0  0  0  0  0  0  0  0  0  0  0
   -6.8446   25.4372  -31.1117 H   0  0  0  0  0  0  0  0  0  0  0  0
   -4.5377   26.3790  -30.9900 H   0  0  0  0  0  0  0  0  0  0  0  0
    2.6283   19.8767  -30.8229 H   0  0  0  0  0  0  0  0  0  0  0  0
    3.6859   18.1740  -29.3384 H   0  0  0  0  0  0  0  0  0  0  0  0
  1  2  1  0
  2  3  2  0
  2  4  2  0
  2  5  1  0
  5  6  2  0
  6  7  1  0
  7  8  2  0
  8  9  1  0
  9 10  1  0
 10 11  2  0
 11 12  1  0
 12 13  1  0
 12 14  2  0
 14 15  1  0
 15 16  2  0
 15 17  2  0
 15 18  1  0
 18 19  1  0
 19 20  1  0
 20 21  1  0
 21 22  1  0
 22 23  1  0
 14 24  1  0
 24 25  2  0
 25 26  1  0
 26 27  2  0
 26 28  2  0
 26 29  1  0
 29 30  1  0
 30 31  2  0
 31 32  1  0
 32 33  2  0
 33 34  1  0
 34 35  2  0
 35 36  1  0
  8 37  1  0
 37 38  2  0
 38  5  1  0
 25 10  1  0
 35 30  1  0
 23 18  1  0
  1 39  1  0
  1 40  1  0
  1 41  1  0
  6 42  1  0
  7 43  1  0
 11 44  1  0
 19 45  1  0
 19 46  1  0
 20 47  1  0
 20 48  1  0
 21 49  1  0
 22 50  1  0
 22 51  1  0
 23 52  1  0
 23 53  1  0
 24 54  1  0
 31 55  1  0
 32 56  1  0
 33 57  1  0
 34 58  1  0
 37 59  1  0
 38 60  1  0
M  CHG  2  29  -1  36  -1
M  END
>  <UniqueID>  (11) 
11

>  <SMILES>  (11) 
CS(=O)(=O)c1ccc(Oc2cc(F)c(S(=O)(=O)N3CCNCC3)cc2S(=O)(=O)[N-]c2ccccc2[O-])cc1

>  <Energy>  (11) 
84.51173154562332

>  <Genealogy>  (11) 
CS(=O)(=O)c1ccc(Oc2cc(F)c(S(=O)(=O)N3CCNCC3)cc2S(=O)(=O)[N-]c2ccccc2[O-])cc1 (protonated)
CS(=O)(=O)c1ccc(Oc2cc(F)c(S(=O)(=O)N3CCNCC3)cc2S(=O)(=O)[N-]c2ccccc2[O-])cc1 (3D coordinates assigned)
CS(=O)(=O)c1ccc(Oc2cc(F)c(S(=O)(=O)N3CCNCC3)cc2S(=O)(=O)[N-]c2ccccc2[O-])cc1 (nonaromatic ring conformer: 84.51173154562332 kcal/mol)

>  <smiles>  (11) 
CS(=O)(=O)c1ccc(Oc2cc(F)c(S(=O)(=O)N3CCNCC3)cc2S(=O)(=O)Nc2ccccc2O)cc1

>  <score_type>  (11) 
oracle

>  <origin>  (11) 
adgpu

>  <m_score__min__energy>  (11) 
-14.220000000000001

>  <m_primary>  (11) 
energy

$$$$
11:0
     RDKit          3D

 50 52  0  0  0  0  0  0  0  0999 V2000
   -6.1480   17.8120  -31.6020 C   0  0  0  0  0  0  0  0  0  0  0  0
   -7.0180   18.1190  -32.7500 N   0  0  0  0  0  0  0  0  0  0  0  0
   -8.3590   18.5900  -32.3290 C   0  0  0  0  0  0  0  0  0  0  0  0
   -8.4920   20.1250  -32.3190 C   0  0  0  0  0  0  0  0  0  0  0  0
   -7.1860   20.7340  -32.0440 N   0  0  0  0  0  0  0  0  0  0  0  0
   -7.3530   22.4500  -31.7670 S   0  0  0  0  0  0  0  0  0  0  0  0
   -7.3610   23.1670  -33.0900 O   0  0  0  0  0  0  0  0  0  0  0  0
   -8.6650   22.7210  -31.0840 O   0  0  0  0  0  0  0  0  0  0  0  0
   -6.0360   23.0820  -30.7770 C   0  0  0  0  0  0  0  0  0  0  0  0
   -6.0730   24.4060  -30.3190 C   0  0  0  0  0  0  0  0  0  0  0  0
   -5.0260   24.9130  -29.5440 C   0  0  0  0  0  0  0  0  0  0  0  0
   -3.9350   24.1010  -29.2030 C   0  0  0  0  0  0  0  0  0  0  0  0
   -2.8580   24.6540  -28.4260 N   0  0  0  0  0  0  0  0  0  0  0  0
   -1.4810   24.6350  -28.8350 C   0  0  0  0  0  0  0  0  0  0  0  0
   -1.0820   23.7890  -29.6780 O   0  0  0  0  0  0  0  0  0  0  0  0
   -0.5230   25.5050  -28.2210 N   0  0  0  0  0  0  0  0  0  0  0  0
   -0.6210   26.0720  -26.9040 C   0  0  0  0  0  0  0  0  0  0  0  0
   -0.7930   27.4590  -26.7300 C   0  0  0  0  0  0  0  0  0  0  0  0
   -0.8630   28.0090  -25.4510 C   0  0  0  0  0  0  0  0  0  0  0  0
   -0.7470   27.1880  -24.3300 C   0  0  0  0  0  0  0  0  0  0  0  0
   -0.5500   25.8140  -24.4850 C   0  0  0  0  0  0  0  0  0  0  0  0
   -0.4760   25.2410  -25.7700 C   0  0  0  0  0  0  0  0  0  0  0  0
   -0.2600   23.7520  -25.9390 C   0  0  0  0  0  0  0  0  0  0  0  0
    0.7430   23.4770  -26.8530 F   0  0  0  0  0  0  0  0  0  0  0  0
   -1.4300   23.1630  -26.3860 F   0  0  0  0  0  0  0  0  0  0  0  0
    0.0920   23.1940  -24.7240 F   0  0  0  0  0  0  0  0  0  0  0  0
   -3.8930   22.7770  -29.6780 C   0  0  0  0  0  0  0  0  0  0  0  0
   -4.9400   22.2730  -30.4540 C   0  0  0  0  0  0  0  0  0  0  0  0
   -6.2430   20.4790  -33.1490 C   0  0  0  0  0  0  0  0  0  0  0  0
   -6.3690   19.0410  -33.7040 C   0  0  0  0  0  0  0  0  0  0  0  0
   -6.6937   18.0046  -30.6665 H   0  0  0  0  0  0  0  0  0  0  0  0
   -5.8491   16.7541  -31.6410 H   0  0  0  0  0  0  0  0  0  0  0  0
   -5.2514   18.4480  -31.6410 H   0  0  0  0  0  0  0  0  0  0  0  0
   -9.1068   18.1795  -33.0235 H   0  0  0  0  0  0  0  0  0  0  0  0
   -8.5162   18.2433  -31.2970 H   0  0  0  0  0  0  0  0  0  0  0  0
   -8.8553   20.4667  -33.2994 H   0  0  0  0  0  0  0  0  0  0  0  0
   -9.2045   20.4232  -31.5358 H   0  0  0  0  0  0  0  0  0  0  0  0
   -6.9295   25.0488  -30.5704 H   0  0  0  0  0  0  0  0  0  0  0  0
   -5.0582   25.9570  -29.1990 H   0  0  0  0  0  0  0  0  0  0  0  0
   -3.0760   25.0200  -27.4720 H   0  0  0  0  0  0  0  0  0  0  0  0
   -0.8727   28.1136  -27.6105 H   0  0  0  0  0  0  0  0  0  0  0  0
   -1.0099   29.0920  -25.3260 H   0  0  0  0  0  0  0  0  0  0  0  0
   -0.8108   27.6232  -23.3218 H   0  0  0  0  0  0  0  0  0  0  0  0
   -0.4518   25.1736  -23.5960 H   0  0  0  0  0  0  0  0  0  0  0  0
   -3.0321   22.1360  -29.4373 H   0  0  0  0  0  0  0  0  0  0  0  0
   -4.9029   21.2340  -30.8134 H   0  0  0  0  0  0  0  0  0  0  0  0
   -6.4482   21.1916  -33.9615 H   0  0  0  0  0  0  0  0  0  0  0  0
   -5.2225   20.6017  -32.7573 H   0  0  0  0  0  0  0  0  0  0  0  0
   -6.9664   19.0707  -34.6272 H   0  0  0  0  0  0  0  0  0  0  0  0
   -5.3521   18.6656  -33.8909 H   0  0  0  0  0  0  0  0  0  0  0  0
  1  2  1  0
  2  3  1  0
  3  4  1  0
  4  5  1  0
  5  6  1  0
  6  7  2  0
  6  8  2  0
  6  9  1  0
  9 10  2  0
 10 11  1  0
 11 12  2  0
 12 13  1  0
 13 14  1  0
 14 15  2  0
 14 16  1  0
 16 17  1  0
 17 18  2  0
 18 19  1  0
 19 20  2  0
 20 21  1  0
 21 22  2  0
 22 23  1  0
 23 24  1  0
 23 25  1  0
 23 26  1  0
 12 27  1  0
 27 28  2  0
  5 29  1  0
 29 30  1  0
 30  2  1  0
 28  9  1  0
 22 17  1  0
  1 31  1  0
  1 32  1  0
  1 33  1  0
  3 34  1  0
  3 35  1  0
  4 36  1  0
  4 37  1  0
 10 38  1  0
 11 39  1  0
 13 40  1  0
 18 41  1  0
 19 42  1  0
 20 43  1  0
 21 44  1  0
 27 45  1  0
 28 46  1  0
 29 47  1  0
 29 48  1  0
 30 49  1  0
 30 50  1  0
M  CHG  1  16  -1
M  END
>  <UniqueID>  (12) 
12

>  <SMILES>  (12) 
CN1CCN(S(=O)(=O)c2ccc(NC(=O)[N-]c3ccccc3C(F)(F)F)cc2)CC1

>  <Energy>  (12) 
68.36557959839365

>  <Genealogy>  (12) 
CN1CCN(S(=O)(=O)c2ccc(NC(=O)[N-]c3ccccc3C(F)(F)F)cc2)CC1 (protonated)
CN1CCN(S(=O)(=O)c2ccc(NC(=O)[N-]c3ccccc3C(F)(F)F)cc2)CC1 (3D coordinates assigned)
CN1CCN(S(=O)(=O)c2ccc(NC(=O)[N-]c3ccccc3C(F)(F)F)cc2)CC1 (nonaromatic ring conformer: 68.36557959839365 kcal/mol)

>  <smiles>  (12) 
CN1CCN(S(=O)(=O)c2ccc(NC(=O)Nc3ccccc3C(F)(F)F)cc2)CC1

>  <score_type>  (12) 
oracle

>  <origin>  (12) 
adgpu

>  <m_score__min__energy>  (12) 
-10.16

>  <m_primary>  (12) 
energy

$$$$
12:0
     RDKit          3D

 35 37  0  0  0  0  0  0  0  0999 V2000
    0.4730   20.5690  -28.2530 N   0  0  0  0  0  0  0  0  0  0  0  0
   -0.1420   21.8320  -28.5230 C   0  0  0  0  0  0  0  0  0  0  0  0
    0.3090   22.9850  -27.8730 C   0  0  0  0  0  0  0  0  0  0  0  0
   -0.2850   24.2200  -28.1410 C   0  0  0  0  0  0  0  0  0  0  0  0
   -1.3410   24.3140  -29.0530 C   0  0  0  0  0  0  0  0  0  0  0  0
   -1.9130   25.5650  -29.2870 O   0  0  0  0  0  0  0  0  0  0  0  0
   -1.8050   23.1610  -29.7150 C   0  0  0  0  0  0  0  0  0  0  0  0
   -2.8900   23.2760  -30.6470 N   0  0  0  0  0  0  0  0  0  0  0  0
   -4.3370   24.2010  -30.3950 S   0  0  0  0  0  0  0  0  0  0  0  0
   -4.4860   24.4940  -28.9290 O   0  0  0  0  0  0  0  0  0  0  0  0
   -4.2270   25.5010  -31.1440 O   0  0  0  0  0  0  0  0  0  0  0  0
   -5.7370   23.2830  -30.9380 C   0  0  0  0  0  0  0  0  0  0  0  0
   -6.9450   23.9470  -31.2040 C   0  0  0  0  0  0  0  0  0  0  0  0
   -8.0650   23.2290  -31.6410 C   0  0  0  0  0  0  0  0  0  0  0  0
   -7.9760   21.8450  -31.8180 C   0  0  0  0  0  0  0  0  0  0  0  0
   -6.7790   21.1750  -31.5280 C   0  0  0  0  0  0  0  0  0  0  0  0
   -5.6550   21.8920  -31.1050 C   0  0  0  0  0  0  0  0  0  0  0  0
   -6.7270   19.7830  -31.6700 O   0  0  0  0  0  0  0  0  0  0  0  0
   -7.9220   19.0130  -31.8300 C   0  0  0  0  0  0  0  0  0  0  0  0
   -8.9180   19.7600  -32.7290 C   0  0  0  0  0  0  0  0  0  0  0  0
   -9.0720   21.1120  -32.2870 O   0  0  0  0  0  0  0  0  0  0  0  0
   -1.1960   21.9210  -29.4420 C   0  0  0  0  0  0  0  0  0  0  0  0
   -0.0760   19.6830  -28.3180 H   0  0  0  0  0  0  0  0  0  0  0  0
    1.4820   20.5100  -27.9910 H   0  0  0  0  0  0  0  0  0  0  0  0
    1.1341   22.9190  -27.1485 H   0  0  0  0  0  0  0  0  0  0  0  0
    0.0798   25.1242  -27.6318 H   0  0  0  0  0  0  0  0  0  0  0  0
   -2.8060   25.6750  -29.7530 H   0  0  0  0  0  0  0  0  0  0  0  0
   -7.0120   25.0366  -31.0685 H   0  0  0  0  0  0  0  0  0  0  0  0
   -9.0112   23.7519  -31.8442 H   0  0  0  0  0  0  0  0  0  0  0  0
   -4.7095   21.3671  -30.9038 H   0  0  0  0  0  0  0  0  0  0  0  0
   -7.6720   18.0456  -32.2901 H   0  0  0  0  0  0  0  0  0  0  0  0
   -8.3802   18.8522  -30.8430 H   0  0  0  0  0  0  0  0  0  0  0  0
   -8.5449   19.7573  -33.7638 H   0  0  0  0  0  0  0  0  0  0  0  0
   -9.8936   19.2545  -32.6776 H   0  0  0  0  0  0  0  0  0  0  0  0
   -1.5507   21.0146  -29.9545 H   0  0  0  0  0  0  0  0  0  0  0  0
  1  2  1  0
  2  3  2  0
  3  4  1  0
  4  5  2  0
  5  6  1  0
  5  7  1  0
  7  8  1  0
  8  9  1  0
  9 10  2  0
  9 11  2  0
  9 12  1  0
 12 13  2  0
 13 14  1  0
 14 15  2  0
 15 16  1  0
 16 17  2  0
 16 18  1  0
 18 19  1  0
 19 20  1  0
 20 21  1  0
  7 22  2  0
 22  2  1  0
 17 12  1  0
 21 15  1  0
  1 23  1  0
  1 24  1  0
  3 25  1  0
  4 26  1  0
  6 27  1  0
 13 28  1  0
 14 29  1  0
 17 30  1  0
 19 31  1  0
 19 32  1  0
 20 33  1  0
 20 34  1  0
 22 35  1  0
M  CHG  1   8  -1
M  END
>  <UniqueID>  (13) 
13

>  <SMILES>  (13) 
Nc1ccc(O)c([N-]S(=O)(=O)c2ccc3c(c2)OCCO3)c1

>  <Energy>  (13) 
40.24273890640686

>  <Genealogy>  (13) 
Nc1ccc(O)c([N-]S(=O)(=O)c2ccc3c(c2)OCCO3)c1 (protonated)
Nc1ccc(O)c([N-]S(=O)(=O)c2ccc3c(c2)OCCO3)c1 (3D coordinates assigned)
Nc1ccc(O)c([N-]S(=O)(=O)c2ccc3c(c2)OCCO3)c1 (nonaromatic ring conformer: 40.24273890640686 kcal/mol)

>  <smiles>  (13) 
Nc1ccc(O)c(NS(=O)(=O)c2ccc3c(c2)OCCO3)c1

>  <score_type>  (13) 
oracle

>  <origin>  (13) 
adgpu

>  <m_score__min__energy>  (13) 
-9.8499999999999996

>  <m_primary>  (13) 
energy

$$$$
13:0
     RDKit          3D

 46 47  0  0  0  0  0  0  0  0999 V2000
   -6.8730   24.9390  -30.2250 C   0  0  0  0  0  0  0  0  0  0  0  0
   -6.3020   23.7310  -30.9190 C   0  0  0  0  0  0  0  0  0  0  0  0
   -4.9500   23.4400  -31.0600 C   0  0  0  0  0  0  0  0  0  0  0  0
   -3.8390   24.2230  -30.4770 C   0  0  0  0  0  0  0  0  0  0  0  0
   -2.8530   23.6330  -29.9630 O   0  0  0  0  0  0  0  0  0  0  0  0
   -3.8700   25.6090  -30.4650 O   0  0  0  0  0  0  0  0  0  0  0  0
   -4.8760   22.2460  -31.7820 C   0  0  0  0  0  0  0  0  0  0  0  0
   -3.4080   21.3250  -32.1870 S   0  0  0  0  0  0  0  0  0  0  0  0
   -2.7900   21.9030  -33.4300 O   0  0  0  0  0  0  0  0  0  0  0  0
   -3.7810   19.9040  -32.5030 O   0  0  0  0  0  0  0  0  0  0  0  0
   -2.2270   21.3290  -30.8890 N   0  0  0  0  0  0  0  0  0  0  0  0
   -0.9430   20.7630  -31.3620 C   0  0  0  0  0  0  0  0  0  0  0  0
    0.0800   20.5030  -30.2170 C   0  0  2  0  0  0  0  0  0  0  0  0
    0.3540   19.0000  -30.0340 C   0  0  0  0  0  0  0  0  0  0  0  0
   -0.3630   21.1520  -28.8950 C   0  0  0  0  0  0  0  0  0  0  0  0
   -1.7920   20.7290  -28.4900 C   0  0  1  0  0  0  0  0  0  0  0  0
   -2.3550   21.7050  -27.4490 C   0  0  0  0  0  0  0  0  0  0  0  0
   -2.7370   20.5960  -29.7170 C   0  0  0  0  0  0  0  0  0  0  0  0
   -6.1950   21.8540  -32.0190 C   0  0  0  0  0  0  0  0  0  0  0  0
   -6.6520   20.5810  -32.6750 C   0  0  0  0  0  0  0  0  0  0  0  0
   -7.0480   22.7470  -31.4670 N   0  0  0  0  0  0  0  0  0  0  0  0
   -8.5130   22.6900  -31.5050 C   0  0  0  0  0  0  0  0  0  0  0  0
   -6.8078   24.8010  -29.1356 H   0  0  0  0  0  0  0  0  0  0  0  0
   -6.3022   25.8331  -30.5162 H   0  0  0  0  0  0  0  0  0  0  0  0
   -7.9262   25.0655  -30.5162 H   0  0  0  0  0  0  0  0  0  0  0  0
   -2.0830   22.3330  -30.6270 H   0  0  0  0  0  0  0  0  0  0  0  0
   -1.1487   19.8085  -31.8686 H   0  0  0  0  0  0  0  0  0  0  0  0
   -0.4915   21.5046  -32.0374 H   0  0  0  0  0  0  0  0  0  0  0  0
    1.0245   20.9807  -30.5166 H   0  0  0  0  0  0  0  0  0  0  0  0
    0.3972   18.7632  -28.9607 H   0  0  0  0  0  0  0  0  0  0  0  0
   -0.4532   18.4201  -30.5053 H   0  0  0  0  0  0  0  0  0  0  0  0
    1.3139   18.7422  -30.5053 H   0  0  0  0  0  0  0  0  0  0  0  0
    0.3349   20.8499  -28.1003 H   0  0  0  0  0  0  0  0  0  0  0  0
   -0.3599   22.2430  -29.0356 H   0  0  0  0  0  0  0  0  0  0  0  0
   -1.7318   19.7283  -28.0373 H   0  0  0  0  0  0  0  0  0  0  0  0
   -2.1379   21.3287  -26.4384 H   0  0  0  0  0  0  0  0  0  0  0  0
   -1.8874   22.6919  -27.5810 H   0  0  0  0  0  0  0  0  0  0  0  0
   -3.4434   21.7943  -27.5810 H   0  0  0  0  0  0  0  0  0  0  0  0
   -2.8325   19.5317  -29.9779 H   0  0  0  0  0  0  0  0  0  0  0  0
   -3.7111   21.0279  -29.4438 H   0  0  0  0  0  0  0  0  0  0  0  0
   -6.9164   19.8445  -31.9019 H   0  0  0  0  0  0  0  0  0  0  0  0
   -7.5323   20.7869  -33.3016 H   0  0  0  0  0  0  0  0  0  0  0  0
   -5.8417   20.1800  -33.3016 H   0  0  0  0  0  0  0  0  0  0  0  0
   -8.9061   22.6747  -30.4778 H   0  0  0  0  0  0  0  0  0  0  0  0
   -8.9008   23.5737  -32.0329 H   0  0  0  0  0  0  0  0  0  0  0  0
   -8.8309   21.7788  -32.0329 H   0  0  0  0  0  0  0  0  0  0  0  0
  1  2  1  0
  2  3  2  0
  3  4  1  0
  4  5  2  0
  4  6  1  0
  3  7  1  0
  7  8  1  0
  8  9  2  0
  8 10  2  0
  8 11  1  0
 11 12  1  0
 12 13  1  0
 13 14  1  0
 13 15  1  0
 15 16  1  0
 16 17  1  0
 16 18  1  0
  7 19  2  0
 19 20  1  0
 19 21  1  0
 21 22  1  0
 21  2  1  0
 18 11  1  0
  1 23  1  0
  1 24  1  0
  1 25  1  0
 11 26  1  0
 12 27  1  0
 12 28  1  0
 13 29  1  6
 14 30  1  0
 14 31  1  0
 14 32  1  0
 15 33  1  0
 15 34  1  0
 16 35  1  1
 17 36  1  0
 17 37  1  0
 17 38  1  0
 18 39  1  0
 18 40  1  0
 20 41  1  0
 20 42  1  0
 20 43  1  0
 22 44  1  0
 22 45  1  0
 22 46  1  0
M  CHG  2   6  -1  11   1
M  END
>  <UniqueID>  (14) 
14

>  <SMILES>  (14) 
Cc1c(C(=O)[O-])c(S(=O)(=O)[NH+]2C[C@H](C)C[C@@H](C)C2)c(C)n1C

>  <Energy>  (14) 
78.35410371470515

>  <Genealogy>  (14) 
Cc1c(C(=O)[O-])c(S(=O)(=O)[NH+]2CC(C)CC(C)C2)c(C)n1C (protonated)
Cc1c(C(=O)[O-])c(S(=O)(=O)[NH+]2C[C@H](C)C[C@@H](C)C2)c(C)n1C (chirality)
Cc1c(C(=O)[O-])c(S(=O)(=O)[NH+]2C[C@H](C)C[C@@H](C)C2)c(C)n1C (3D coordinates assigned)
Cc1c(C(=O)[O-])c(S(=O)(=O)[NH+]2C[C@H](C)C[C@@H](C)C2)c(C)n1C (nonaromatic ring conformer: 78.35410371470515 kcal/mol)

>  <smiles>  (14) 
Cc1c(C(=O)O)c(S(=O)(=O)N2CC(C)CC(C)C2)c(C)n1C

>  <score_type>  (14) 
oracle

>  <origin>  (14) 
adgpu

>  <m_score__min__energy>  (14) 
-8.2400000000000002

>  <m_primary>  (14) 
energy

$$$$
14:0
     RDKit          3D

 47 50  0  0  0  0  0  0  0  0999 V2000
   -1.2430   20.7370  -25.5640 C   0  0  0  0  0  0  0  0  0  0  0  0
   -0.4860   20.5120  -26.8040 N   0  0  0  0  0  0  0  0  0  0  0  0
   -1.2640   19.7880  -27.8290 C   0  0  0  0  0  0  0  0  0  0  0  0
   -2.4650   20.6000  -28.3360 C   0  0  0  0  0  0  0  0  0  0  0  0
   -2.1030   22.0340  -28.6150 C   0  0  0  0  0  0  0  0  0  0  0  0
   -2.9870   22.8280  -29.3640 C   0  0  0  0  0  0  0  0  0  0  0  0
   -2.6920   24.1770  -29.6290 C   0  0  0  0  0  0  0  0  0  0  0  0
   -3.5400   24.9890  -30.4540 N   0  0  0  0  0  0  0  0  0  0  0  0
   -5.2750   24.9870  -30.3910 S   0  0  0  0  0  0  0  0  0  0  0  0
   -5.8070   26.0750  -31.2820 O   0  0  0  0  0  0  0  0  0  0  0  0
   -5.7140   25.2500  -28.9750 O   0  0  0  0  0  0  0  0  0  0  0  0
   -5.8910   23.4340  -30.9550 C   0  0  0  0  0  0  0  0  0  0  0  0
   -5.0470   22.5430  -31.6560 C   0  0  0  0  0  0  0  0  0  0  0  0
   -5.5540   21.3360  -32.1640 C   0  0  0  0  0  0  0  0  0  0  0  0
   -6.9050   21.0430  -31.9520 C   0  0  0  0  0  0  0  0  0  0  0  0
   -7.7240   21.8980  -31.2660 C   0  0  0  0  0  0  0  0  0  0  0  0
   -7.2440   23.1030  -30.7500 C   0  0  0  0  0  0  0  0  0  0  0  0
   -9.1120   21.3550  -31.2080 C   0  0  0  0  0  0  0  0  0  0  0  0
   -9.0080   20.0150  -31.9820 C   0  0  0  0  0  0  0  0  0  0  0  0
   -7.6120   19.9030  -32.4010 N   0  0  0  0  0  0  0  0  0  0  0  0
   -7.0550   18.7980  -33.1760 C   0  0  0  0  0  0  0  0  0  0  0  0
   -1.5270   24.7400  -29.0900 C   0  0  0  0  0  0  0  0  0  0  0  0
   -1.2240   26.0750  -29.3270 O   0  0  0  0  0  0  0  0  0  0  0  0
   -0.6520   23.9600  -28.3270 C   0  0  0  0  0  0  0  0  0  0  0  0
   -0.9330   22.6090  -28.0780 C   0  0  0  0  0  0  0  0  0  0  0  0
    0.0830   21.7640  -27.3400 C   0  0  0  0  0  0  0  0  0  0  0  0
   -0.5933   20.5439  -24.6976 H   0  0  0  0  0  0  0  0  0  0  0  0
   -1.5952   21.7787  -25.5333 H   0  0  0  0  0  0  0  0  0  0  0  0
   -2.1069   20.0568  -25.5333 H   0  0  0  0  0  0  0  0  0  0  0  0
   -0.6043   19.5644  -28.6804 H   0  0  0  0  0  0  0  0  0  0  0  0
   -1.6525   18.8684  -27.3670 H   0  0  0  0  0  0  0  0  0  0  0  0
   -2.8367   20.1412  -29.2641 H   0  0  0  0  0  0  0  0  0  0  0  0
   -3.2347   20.5921  -27.5501 H   0  0  0  0  0  0  0  0  0  0  0  0
   -3.9202   22.3897  -29.7474 H   0  0  0  0  0  0  0  0  0  0  0  0
   -3.9870   22.7965  -31.8045 H   0  0  0  0  0  0  0  0  0  0  0  0
   -4.9052   20.6389  -32.7145 H   0  0  0  0  0  0  0  0  0  0  0  0
   -7.9094   23.7802  -30.1945 H   0  0  0  0  0  0  0  0  0  0  0  0
   -9.4247   21.1848  -30.1672 H   0  0  0  0  0  0  0  0  0  0  0  0
   -9.8588   22.0403  -31.6354 H   0  0  0  0  0  0  0  0  0  0  0  0
   -9.2802   19.1732  -31.3283 H   0  0  0  0  0  0  0  0  0  0  0  0
   -9.6918   19.9914  -32.8433 H   0  0  0  0  0  0  0  0  0  0  0  0
   -6.6673   18.0290  -32.4917 H   0  0  0  0  0  0  0  0  0  0  0  0
   -7.8410   18.3620  -33.8101 H   0  0  0  0  0  0  0  0  0  0  0  0
   -6.2370   19.1706  -33.8101 H   0  0  0  0  0  0  0  0  0  0  0  0
    0.2647   24.4104  -27.9186 H   0  0  0  0  0  0  0  0  0  0  0  0
    0.8974   21.5095  -28.0343 H   0  0  0  0  0  0  0  0  0  0  0  0
    0.4415   22.3546  -26.4840 H   0  0  0  0  0  0  0  0  0  0  0  0
  1  2  1  0
  2  3  1  0
  3  4  1  0
  4  5  1  0
  5  6  2  0
  6  7  1  0
  7  8  1  0
  8  9  1  0
  9 10  2  0
  9 11  2  0
  9 12  1  0
 12 13  2  0
 13 14  1  0
 14 15  2  0
 15 16  1  0
 16 17  2  0
 16 18  1  0
 18 19  1  0
 19 20  1  0
 20 21  1  0
  7 22  2  0
 22 23  1  0
 22 24  1  0
 24 25  2  0
 25 26  1  0
 26  2  1  0
 25  5  1  0
 17 12  1  0
 20 15  1  0
  1 27  1  0
  1 28  1  0
  1 29  1  0
  3 30  1  0
  3 31  1  0
  4 32  1  0
  4 33  1  0
  6 34  1  0
 13 35  1  0
 14 36  1  0
 17 37  1  0
 18 38  1  0
 18 39  1  0
 19 40  1  0
 19 41  1  0
 21 42  1  0
 21 43  1  0
 21 44  1  0
 24 45  1  0
 26 46  1  0
 26 47  1  0
M  CHG  2   8  -1  23  -1
M  END
>  <UniqueID>  (15) 
15

>  <SMILES>  (15) 
CN1CCc2cc([N-]S(=O)(=O)c3ccc4c(c3)CCN4C)c([O-])cc2C1

>  <Energy>  (15) 
69.96849242588263

>  <Genealogy>  (15) 
CN1CCc2cc([N-]S(=O)(=O)c3ccc4c(c3)CCN4C)c([O-])cc2C1 (protonated)
CN1CCc2cc([N-]S(=O)(=O)c3ccc4c(c3)CCN4C)c([O-])cc2C1 (3D coordinates assigned)
CN1CCc2cc([N-]S(=O)(=O)c3ccc4c(c3)CCN4C)c([O-])cc2C1 (nonaromatic ring conformer: 69.96849242588263 kcal/mol)

>  <smiles>  (15) 
CN1CCc2cc(NS(=O)(=O)c3ccc4c(c3)CCN4C)c(O)cc2C1

>  <score_type>  (15) 
oracle

>  <origin>  (15) 
adgpu

>  <m_score__min__energy>  (15) 
-14.199999999999999

>  <m_primary>  (15) 
energy

$$$$
15:0
     RDKit          3D

 57 60  0  0  0  0  0  0  0  0999 V2000
   -3.1230   18.3260  -34.2070 C   0  0  0  0  0  0  0  0  0  0  0  0
   -4.1430   18.6560  -33.2000 N   0  0  0  0  0  0  0  0  0  0  0  0
   -4.9460   19.8360  -33.6030 C   0  0  0  0  0  0  0  0  0  0  0  0
   -6.3130   19.4430  -34.1930 C   0  0  0  0  0  0  0  0  0  0  0  0
   -7.1220   18.6260  -33.2580 N   0  0  0  0  0  0  0  0  0  0  0  0
   -8.3050   19.6010  -32.4160 S   0  0  0  0  0  0  0  0  0  0  0  0
   -9.3780   20.0430  -33.3740 O   0  0  0  0  0  0  0  0  0  0  0  0
   -8.9510   18.7990  -31.3160 O   0  0  0  0  0  0  0  0  0  0  0  0
   -7.5340   21.0320  -31.7370 C   0  0  0  0  0  0  0  0  0  0  0  0
   -8.2270   22.2490  -31.6990 C   0  0  0  0  0  0  0  0  0  0  0  0
   -7.6300   23.3850  -31.1390 C   0  0  0  0  0  0  0  0  0  0  0  0
   -6.3270   23.3180  -30.6320 C   0  0  0  0  0  0  0  0  0  0  0  0
   -5.5980   24.7520  -29.9140 S   0  0  0  0  0  0  0  0  0  0  0  0
   -4.6510   25.4150  -30.8760 O   0  0  0  0  0  0  0  0  0  0  0  0
   -6.6870   25.7290  -29.5710 O   0  0  0  0  0  0  0  0  0  0  0  0
   -4.7560   24.3090  -28.4620 N   0  0  0  0  0  0  0  0  0  0  0  0
   -3.6200   23.4320  -28.3920 C   0  0  0  0  0  0  0  0  0  0  0  0
   -3.7270   22.1270  -27.8750 C   0  0  0  0  0  0  0  0  0  0  0  0
   -2.6010   21.2920  -27.8040 C   0  0  0  0  0  0  0  0  0  0  0  0
   -1.3380   21.7800  -28.2200 C   0  0  0  0  0  0  0  0  0  0  0  0
   -1.2440   23.0710  -28.7650 C   0  0  0  0  0  0  0  0  0  0  0  0
   -2.3740   23.8970  -28.8410 C   0  0  0  0  0  0  0  0  0  0  0  0
   -2.2570   25.1930  -29.3510 O   0  0  0  0  0  0  0  0  0  0  0  0
   -0.1060   20.9060  -28.1910 C   0  0  0  0  0  0  0  0  0  0  0  0
   -0.2520   19.7170  -27.2310 C   0  0  0  0  0  0  0  0  0  0  0  0
   -1.5800   18.9970  -27.4720 C   0  0  0  0  0  0  0  0  0  0  0  0
   -2.7540   19.9310  -27.1620 C   0  0  0  0  0  0  0  0  0  0  0  0
   -5.6280   22.1040  -30.6800 C   0  0  0  0  0  0  0  0  0  0  0  0
   -6.2320   20.9650  -31.2210 C   0  0  0  0  0  0  0  0  0  0  0  0
   -6.3130   17.8610  -32.2840 C   0  0  0  0  0  0  0  0  0  0  0  0
   -4.9590   17.4620  -32.8800 C   0  0  0  0  0  0  0  0  0  0  0  0
   -2.1932   18.0252  -33.7021 H   0  0  0  0  0  0  0  0  0  0  0  0
   -3.4830   17.4985  -34.8360 H   0  0  0  0  0  0  0  0  0  0  0  0
   -2.9300   19.2076  -34.8360 H   0  0  0  0  0  0  0  0  0  0  0  0
   -5.1118   20.4690  -32.7188 H   0  0  0  0  0  0  0  0  0  0  0  0
   -4.3858   20.3718  -34.3834 H   0  0  0  0  0  0  0  0  0  0  0  0
   -6.8705   20.3605  -34.4326 H   0  0  0  0  0  0  0  0  0  0  0  0
   -6.1268   18.8361  -35.0913 H   0  0  0  0  0  0  0  0  0  0  0  0
   -9.2449   22.3124  -32.1111 H   0  0  0  0  0  0  0  0  0  0  0  0
   -8.1866   24.3329  -31.0974 H   0  0  0  0  0  0  0  0  0  0  0  0
   -4.7019   21.7583  -27.5235 H   0  0  0  0  0  0  0  0  0  0  0  0
   -0.2751   23.4372  -29.1355 H   0  0  0  0  0  0  0  0  0  0  0  0
   -3.0450   25.6740  -29.7720 H   0  0  0  0  0  0  0  0  0  0  0  0
    0.0772   20.5205  -29.2048 H   0  0  0  0  0  0  0  0  0  0  0  0
    0.7329   21.5221  -27.8352 H   0  0  0  0  0  0  0  0  0  0  0  0
    0.5771   19.0134  -27.3968 H   0  0  0  0  0  0  0  0  0  0  0  0
   -0.2306   20.0892  -26.1961 H   0  0  0  0  0  0  0  0  0  0  0  0
   -1.6358   18.6807  -28.5241 H   0  0  0  0  0  0  0  0  0  0  0  0
   -1.6366   18.1192  -26.8115 H   0  0  0  0  0  0  0  0  0  0  0  0
   -3.6799   19.4682  -27.5342 H   0  0  0  0  0  0  0  0  0  0  0  0
   -2.7831   20.0785  -26.0723 H   0  0  0  0  0  0  0  0  0  0  0  0
   -4.6008   22.0472  -30.2907 H   0  0  0  0  0  0  0  0  0  0  0  0
   -5.6832   20.0119  -31.2419 H   0  0  0  0  0  0  0  0  0  0  0  0
   -6.1434   18.4822  -31.3922 H   0  0  0  0  0  0  0  0  0  0  0  0
   -6.8609   16.9444  -32.0200 H   0  0  0  0  0  0  0  0  0  0  0  0
   -4.4159   16.8404  -32.1529 H   0  0  0  0  0  0  0  0  0  0  0  0
   -5.1385   16.9028  -33.8101 H   0  0  0  0  0  0  0  0  0  0  0  0
  1  2  1  0
  2  3  1  0
  3  4  1  0
  4  5  1  0
  5  6  1  0
  6  7  2  0
  6  8  2  0
  6  9  1  0
  9 10  2  0
 10 11  1  0
 11 12  2  0
 12 13  1  0
 13 14  2  0
 13 15  2  0
 13 16  1  0
 16 17  1  0
 17 18  2  0
 18 19  1  0
 19 20  2  0
 20 21  1  0
 21 22  2  0
 22 23  1  0
 20 24  1  0
 24 25  1  0
 25 26  1  0
 26 27  1  0
 12 28  1  0
 28 29  2  0
  5 30  1  0
 30 31  1  0
 31  2  1  0
 29  9  1  0
 22 17  1  0
 27 19  1  0
  1 32  1  0
  1 33  1  0
  1 34  1  0
  3 35  1  0
  3 36  1  0
  4 37  1  0
  4 38  1  0
 10 39  1  0
 11 40  1  0
 18 41  1  0
 21 42  1  0
 23 43  1  0
 24 44  1  0
 24 45  1  0
 25 46  1  0
 25 47  1  0
 26 48  1  0
 26 49  1  0
 27 50  1  0
 27 51  1  0
 28 52  1  0
 29 53  1  0
 30 54  1  0
 30 55  1  0
 31 56  1  0
 31 57  1  0
M  CHG  1  16  -1
M  END
>  <UniqueID>  (16) 
16

>  <SMILES>  (16) 
CN1CCN(S(=O)(=O)c2ccc(S(=O)(=O)[N-]c3cc4c(cc3O)CCCC4)cc2)CC1

>  <Energy>  (16) 
72.18425310262839

>  <Genealogy>  (16) 
CN1CCN(S(=O)(=O)c2ccc(S(=O)(=O)[N-]c3cc4c(cc3O)CCCC4)cc2)CC1 (protonated)
CN1CCN(S(=O)(=O)c2ccc(S(=O)(=O)[N-]c3cc4c(cc3O)CCCC4)cc2)CC1 (3D coordinates assigned)
CN1CCN(S(=O)(=O)c2ccc(S(=O)(=O)[N-]c3cc4c(cc3O)CCCC4)cc2)CC1 (nonaromatic ring conformer: 72.18425310262839 kcal/mol)

>  <smiles>  (16) 
CN1CCN(S(=O)(=O)c2ccc(S(=O)(=O)Nc3cc4c(cc3O)CCCC4)cc2)CC1

>  <score_type>  (16) 
oracle

>  <origin>  (16) 
adgpu

>  <m_score__min__energy>  (16) 
-13.050000000000001

>  <m_primary>  (16) 
energy

$$$$
16:0
     RDKit          3D

 61 64  0  0  0  0  0  0  0  0999 V2000
   -0.5680   20.2140  -27.5610 C   0  0  0  0  0  0  0  0  0  0  0  0
   -1.2130   20.1500  -28.9120 C   0  0  0  0  0  0  0  0  0  0  0  0
   -0.4730   19.7240  -30.0250 C   0  0  0  0  0  0  0  0  0  0  0  0
   -1.0610   19.6920  -31.2910 C   0  0  0  0  0  0  0  0  0  0  0  0
   -2.3920   20.0870  -31.4600 C   0  0  0  0  0  0  0  0  0  0  0  0
   -3.1170   20.0360  -33.0640 S   0  0  0  0  0  0  0  0  0  0  0  0
   -2.8740   21.3730  -33.7150 O   0  0  0  0  0  0  0  0  0  0  0  0
   -2.4640   18.9640  -33.8960 O   0  0  0  0  0  0  0  0  0  0  0  0
   -4.8550   19.7240  -32.9640 C   0  0  0  0  0  0  0  0  0  0  0  0
   -5.3250   18.4010  -33.0000 C   0  0  0  0  0  0  0  0  0  0  0  0
   -6.6910   18.1240  -32.8570 C   0  0  0  0  0  0  0  0  0  0  0  0
   -7.1580   16.7740  -32.8990 N   0  0  0  0  0  0  0  0  0  0  0  0
   -7.5950   19.1770  -32.6750 C   0  0  0  0  0  0  0  0  0  0  0  0
   -7.1430   20.4970  -32.6630 C   0  0  0  0  0  0  0  0  0  0  0  0
   -5.7760   20.7870  -32.8120 C   0  0  0  0  0  0  0  0  0  0  0  0
   -5.3330   22.1540  -32.8670 N   0  0  0  0  0  0  0  0  0  0  0  0
   -5.4630   23.0830  -31.7780 C   0  0  0  0  0  0  0  0  0  0  0  0
   -6.7430   23.5130  -31.4170 C   0  0  0  0  0  0  0  0  0  0  0  0
   -6.9140   24.4190  -30.3810 C   0  0  0  0  0  0  0  0  0  0  0  0
   -5.8110   24.9130  -29.6910 C   0  0  0  0  0  0  0  0  0  0  0  0
   -4.4990   24.5110  -30.0240 C   0  0  0  0  0  0  0  0  0  0  0  0
   -3.3580   25.0220  -29.2840 N   0  0  0  0  0  0  0  0  0  0  0  0
   -2.4120   24.2410  -28.4660 C   0  0  0  0  0  0  0  0  0  0  0  0
   -1.1660   23.8070  -29.2810 C   0  0  0  0  0  0  0  0  0  0  0  0
    0.1270   23.8210  -28.4490 C   0  0  0  0  0  0  0  0  0  0  0  0
   -0.1180   23.2560  -27.0470 C   0  0  0  0  0  0  0  0  0  0  0  0
   -1.1510   24.0830  -26.2490 C   0  0  0  0  0  0  0  0  0  0  0  0
   -2.0800   24.9440  -27.1300 C   0  0  0  0  0  0  0  0  0  0  0  0
   -4.3300   23.6060  -31.1150 C   0  0  0  0  0  0  0  0  0  0  0  0
   -3.0700   23.2140  -31.5860 O   0  0  0  0  0  0  0  0  0  0  0  0
   -3.1260   20.5400  -30.3560 C   0  0  0  0  0  0  0  0  0  0  0  0
   -2.5360   20.5770  -29.0890 C   0  0  0  0  0  0  0  0  0  0  0  0
   -1.3406   20.1373  -26.7818 H   0  0  0  0  0  0  0  0  0  0  0  0
    0.1438   19.3821  -27.4547 H   0  0  0  0  0  0  0  0  0  0  0  0
   -0.0336   21.1696  -27.4547 H   0  0  0  0  0  0  0  0  0  0  0  0
    0.5749   19.4139  -29.8998 H   0  0  0  0  0  0  0  0  0  0  0  0
   -0.4752   19.3548  -32.1588 H   0  0  0  0  0  0  0  0  0  0  0  0
   -4.6136   17.5741  -33.1419 H   0  0  0  0  0  0  0  0  0  0  0  0
   -8.1600   16.5480  -32.7160 H   0  0  0  0  0  0  0  0  0  0  0  0
   -6.5010   15.9880  -33.0970 H   0  0  0  0  0  0  0  0  0  0  0  0
   -8.6656   18.9631  -32.5409 H   0  0  0  0  0  0  0  0  0  0  0  0
   -7.8635   21.3184  -32.5357 H   0  0  0  0  0  0  0  0  0  0  0  0
   -5.0210   22.5260  -33.7910 H   0  0  0  0  0  0  0  0  0  0  0  0
   -7.6207   23.1302  -31.9583 H   0  0  0  0  0  0  0  0  0  0  0  0
   -7.9261   24.7486  -30.1034 H   0  0  0  0  0  0  0  0  0  0  0  0
   -5.9641   25.6300  -28.8709 H   0  0  0  0  0  0  0  0  0  0  0  0
   -3.1130   26.0340  -29.3480 H   0  0  0  0  0  0  0  0  0  0  0  0
   -2.9126   23.3045  -28.1789 H   0  0  0  0  0  0  0  0  0  0  0  0
   -1.3305   22.7865  -29.6571 H   0  0  0  0  0  0  0  0  0  0  0  0
   -1.0393   24.5295  -30.1007 H   0  0  0  0  0  0  0  0  0  0  0  0
    0.8878   23.2091  -28.9558 H   0  0  0  0  0  0  0  0  0  0  0  0
    0.4714   24.8613  -28.3530 H   0  0  0  0  0  0  0  0  0  0  0  0
   -0.4889   22.2248  -27.1419 H   0  0  0  0  0  0  0  0  0  0  0  0
    0.8355   23.2936  -26.4997 H   0  0  0  0  0  0  0  0  0  0  0  0
   -1.7733   23.3888  -25.6652 H   0  0  0  0  0  0  0  0  0  0  0  0
   -0.5811   24.7771  -25.6137 H   0  0  0  0  0  0  0  0  0  0  0  0
   -3.0160   25.1322  -26.5837 H   0  0  0  0  0  0  0  0  0  0  0  0
   -1.5608   25.8867  -27.3577 H   0  0  0  0  0  0  0  0  0  0  0  0
   -2.8980   22.5260  -32.3040 H   0  0  0  0  0  0  0  0  0  0  0  0
   -4.1681   20.8671  -30.4862 H   0  0  0  0  0  0  0  0  0  0  0  0
   -3.1130   20.9430  -28.2270 H   0  0  0  0  0  0  0  0  0  0  0  0
  1  2  1  0
  2  3  2  0
  3  4  1  0
  4  5  2  0
  5  6  1  0
  6  7  2  0
  6  8  2  0
  6  9  1  0
  9 10  2  0
 10 11  1  0
 11 12  1  0
 11 13  2  0
 13 14  1  0
 14 15  2  0
 15 16  1  0
 16 17  1  0
 17 18  2  0
 18 19  1  0
 19 20  2  0
 20 21  1  0
 21 22  1  0
 22 23  1  0
 23 24  1  0
 24 25  1  0
 25 26  1  0
 26 27  1  0
 27 28  1  0
 21 29  2  0
 29 30  1  0
  5 31  1  0
 31 32  2  0
 32  2  1  0
 15  9  1  0
 29 17  1  0
 28 23  1  0
  1 33  1  0
  1 34  1  0
  1 35  1  0
  3 36  1  0
  4 37  1  0
 10 38  1  0
 12 39  1  0
 12 40  1  0
 13 41  1  0
 14 42  1  0
 16 43  1  0
 18 44  1  0
 19 45  1  0
 20 46  1  0
 22 47  1  0
 23 48  1  0
 24 49  1  0
 24 50  1  0
 25 51  1  0
 25 52  1  0
 26 53  1  0
 26 54  1  0
 27 55  1  0
 27 56  1  0
 28 57  1  0
 28 58  1  0
 30 59  1  0
 31 60  1  0
 32 61  1  0
M  END
>  <UniqueID>  (17) 
17

>  <SMILES>  (17) 
Cc1ccc(S(=O)(=O)c2cc(N)ccc2Nc2cccc(NC3CCCCC3)c2O)cc1

>  <Energy>  (17) 
82.35732717442238

>  <Genealogy>  (17) 
Cc1ccc(S(=O)(=O)c2cc(N)ccc2Nc2cccc(NC3CCCCC3)c2O)cc1 (3D coordinates assigned)
Cc1ccc(S(=O)(=O)c2cc(N)ccc2Nc2cccc(NC3CCCCC3)c2O)cc1 (nonaromatic ring conformer: 82.35732717442238 kcal/mol)

>  <smiles>  (17) 
Cc1ccc(S(=O)(=O)c2cc(N)ccc2Nc2cccc(NC3CCCCC3)c2O)cc1

>  <score_type>  (17) 
oracle

>  <origin>  (17) 
adgpu

>  <m_score__min__energy>  (17) 
-11.99

>  <m_primary>  (17) 
energy

$$$$
17:0
     RDKit          3D

 68 72  0  0  0  0  0  0  0  0999 V2000
    1.3110   19.3120  -27.8520 C   0  0  0  0  0  0  0  0  0  0  0  0
    0.0810   20.1120  -27.8940 N   0  0  0  0  0  0  0  0  0  0  0  0
   -1.0490   19.2900  -28.3600 C   0  0  0  0  0  0  0  0  0  0  0  0
   -2.3670   20.0600  -28.1810 C   0  0  0  0  0  0  0  0  0  0  0  0
   -2.2510   21.5120  -28.5720 C   0  0  0  0  0  0  0  0  0  0  0  0
   -3.4020   22.3110  -28.5590 C   0  0  0  0  0  0  0  0  0  0  0  0
   -3.3150   23.6950  -28.7650 C   0  0  0  0  0  0  0  0  0  0  0  0
   -4.4640   24.5300  -28.6050 N   0  0  0  0  0  0  0  0  0  0  0  0
   -5.3710   25.1000  -29.9700 S   0  0  0  0  0  0  0  0  0  0  0  0
   -6.4850   25.9880  -29.4880 O   0  0  0  0  0  0  0  0  0  0  0  0
   -4.4650   25.9070  -30.8610 O   0  0  0  0  0  0  0  0  0  0  0  0
   -6.0330   23.7530  -30.8880 C   0  0  0  0  0  0  0  0  0  0  0  0
   -7.4210   23.4840  -30.8590 C   0  0  0  0  0  0  0  0  0  0  0  0
   -7.9340   22.3380  -31.4890 C   0  0  0  0  0  0  0  0  0  0  0  0
   -7.0480   21.4840  -32.1460 C   0  0  0  0  0  0  0  0  0  0  0  0
   -5.6990   21.7490  -32.1860 C   0  0  0  0  0  0  0  0  0  0  0  0
   -5.1630   22.8760  -31.5640 C   0  0  0  0  0  0  0  0  0  0  0  0
   -4.9680   20.6740  -32.9020 C   0  0  0  0  0  0  0  0  0  0  0  0
   -6.0360   19.7450  -33.2790 N   0  0  0  0  0  0  0  0  0  0  0  0
   -5.8330   18.5270  -34.0090 C   0  0  0  0  0  0  0  0  0  0  0  0
   -5.8650   18.5470  -35.2710 O   0  0  0  0  0  0  0  0  0  0  0  0
   -5.6300   17.2850  -33.3130 N   0  0  0  0  0  0  0  0  0  0  0  0
   -5.1010   16.1010  -33.9370 C   0  0  0  0  0  0  0  0  0  0  0  0
   -3.9010   16.1770  -34.6590 C   0  0  0  0  0  0  0  0  0  0  0  0
   -3.3850   15.0460  -35.2990 C   0  0  0  0  0  0  0  0  0  0  0  0
   -4.0700   13.8200  -35.2370 C   0  0  0  0  0  0  0  0  0  0  0  0
   -3.5500   12.6270  -35.9390 C   0  0  0  0  0  0  0  0  0  0  0  0
   -4.2110   12.1400  -36.8970 O   0  0  0  0  0  0  0  0  0  0  0  0
   -2.3090   12.0110  -35.5500 N   0  0  0  0  0  0  0  0  0  0  0  0
   -1.3660   11.5930  -36.5870 C   0  0  0  0  0  0  0  0  0  0  0  0
   -1.9600   11.8310  -34.1400 C   0  0  0  0  0  0  0  0  0  0  0  0
   -5.2890   13.7540  -34.5410 C   0  0  0  0  0  0  0  0  0  0  0  0
   -5.8000   14.8820  -33.8950 C   0  0  0  0  0  0  0  0  0  0  0  0
   -7.3550   20.2090  -32.8410 C   0  0  0  0  0  0  0  0  0  0  0  0
   -2.0790   24.2700  -29.0850 C   0  0  0  0  0  0  0  0  0  0  0  0
   -1.9860   25.6350  -29.3350 O   0  0  0  0  0  0  0  0  0  0  0  0
   -0.9280   23.4750  -29.1240 C   0  0  0  0  0  0  0  0  0  0  0  0
   -0.9980   22.1080  -28.8150 C   0  0  0  0  0  0  0  0  0  0  0  0
    0.2550   21.2740  -28.7850 C   0  0  0  0  0  0  0  0  0  0  0  0
    1.5934   19.1283  -26.8048 H   0  0  0  0  0  0  0  0  0  0  0  0
    1.1410   18.3512  -28.3598 H   0  0  0  0  0  0  0  0  0  0  0  0
    2.1204   19.8570  -28.3598 H   0  0  0  0  0  0  0  0  0  0  0  0
   -0.9096   19.0486  -29.4241 H   0  0  0  0  0  0  0  0  0  0  0  0
   -1.0891   18.3627  -27.7696 H   0  0  0  0  0  0  0  0  0  0  0  0
   -3.1383   19.5876  -28.8071 H   0  0  0  0  0  0  0  0  0  0  0  0
   -2.6306   20.0236  -27.1137 H   0  0  0  0  0  0  0  0  0  0  0  0
   -4.3843   21.8474  -28.3853 H   0  0  0  0  0  0  0  0  0  0  0  0
   -8.1020   24.1752  -30.3408 H   0  0  0  0  0  0  0  0  0  0  0  0
   -9.0116   22.1187  -31.4648 H   0  0  0  0  0  0  0  0  0  0  0  0
   -4.0820   23.0760  -31.6006 H   0  0  0  0  0  0  0  0  0  0  0  0
   -4.4552   21.0690  -33.7914 H   0  0  0  0  0  0  0  0  0  0  0  0
   -4.1803   20.2056  -32.2937 H   0  0  0  0  0  0  0  0  0  0  0  0
   -6.0000   17.2030  -32.3400 H   0  0  0  0  0  0  0  0  0  0  0  0
   -3.3617   17.1336  -34.7222 H   0  0  0  0  0  0  0  0  0  0  0  0
   -2.4379   15.1159  -35.8540 H   0  0  0  0  0  0  0  0  0  0  0  0
   -0.4574   11.1902  -36.1156 H   0  0  0  0  0  0  0  0  0  0  0  0
   -1.8297   10.8161  -37.2127 H   0  0  0  0  0  0  0  0  0  0  0  0
   -1.1017   12.4583  -37.2127 H   0  0  0  0  0  0  0  0  0  0  0  0
   -2.7605   12.2439  -33.5085 H   0  0  0  0  0  0  0  0  0  0  0  0
   -1.8403   10.7587  -33.9259 H   0  0  0  0  0  0  0  0  0  0  0  0
   -1.0169   12.3552  -33.9259 H   0  0  0  0  0  0  0  0  0  0  0  0
   -5.8455   12.8059  -34.5046 H   0  0  0  0  0  0  0  0  0  0  0  0
   -6.7537   14.8162  -33.3509 H   0  0  0  0  0  0  0  0  0  0  0  0
   -8.0201   20.3778  -33.7008 H   0  0  0  0  0  0  0  0  0  0  0  0
   -7.8792   19.4830  -32.2022 H   0  0  0  0  0  0  0  0  0  0  0  0
    0.0377   23.9245  -29.3986 H   0  0  0  0  0  0  0  0  0  0  0  0
    0.4785   20.9199  -29.8022 H   0  0  0  0  0  0  0  0  0  0  0  0
    1.0838   21.8908  -28.4074 H   0  0  0  0  0  0  0  0  0  0  0  0
  1  2  1  0
  2  3  1  0
  3  4  1  0
  4  5  1  0
  5  6  2  0
  6  7  1  0
  7  8  1  0
  8  9  1  0
  9 10  2  0
  9 11  2  0
  9 12  1  0
 12 13  2  0
 13 14  1  0
 14 15  2  0
 15 16  1  0
 16 17  2  0
 16 18  1  0
 18 19  1  0
 19 20  1  0
 20 21  2  0
 20 22  1  0
 22 23  1  0
 23 24  2  0
 24 25  1  0
 25 26  2  0
 26 27  1  0
 27 28  2  0
 27 29  1  0
 29 30  1  0
 29 31  1  0
 26 32  1  0
 32 33  2  0
 19 34  1  0
  7 35  2  0
 35 36  1  0
 35 37  1  0
 37 38  2  0
 38 39  1  0
 39  2  1  0
 38  5  1  0
 17 12  1  0
 33 23  1  0
 34 15  1  0
  1 40  1  0
  1 41  1  0
  1 42  1  0
  3 43  1  0
  3 44  1  0
  4 45  1  0
  4 46  1  0
  6 47  1  0
 13 48  1  0
 14 49  1  0
 17 50  1  0
 18 51  1  0
 18 52  1  0
 22 53  1  0
 24 54  1  0
 25 55  1  0
 30 56  1  0
 30 57  1  0
 30 58  1  0
 31 59  1  0
 31 60  1  0
 31 61  1  0
 32 62  1  0
 33 63  1  0
 34 64  1  0
 34 65  1  0
 37 66  1  0
 39 67  1  0
 39 68  1  0
M  CHG  2   8  -1  36  -1
M  END
>  <UniqueID>  (18) 
18

>  <SMILES>  (18) 
CN1CCc2cc([N-]S(=O)(=O)c3ccc4c(c3)CN(C(=O)Nc3ccc(C(=O)N(C)C)cc3)C4)c([O-])cc2C1

>  <Energy>  (18) 
100.01801145161932

>  <Genealogy>  (18) 
CN1CCc2cc([N-]S(=O)(=O)c3ccc4c(c3)CN(C(=O)Nc3ccc(C(=O)N(C)C)cc3)C4)c([O-])cc2C1 (protonated)
CN1CCc2cc([N-]S(=O)(=O)c3ccc4c(c3)CN(C(=O)Nc3ccc(C(=O)N(C)C)cc3)C4)c([O-])cc2C1 (3D coordinates assigned)
CN1CCc2cc([N-]S(=O)(=O)c3ccc4c(c3)CN(C(=O)Nc3ccc(C(=O)N(C)C)cc3)C4)c([O-])cc2C1 (nonaromatic ring conformer: 100.01801145161932 kcal/mol)

>  <smiles>  (18) 
CN1CCc2cc(NS(=O)(=O)c3ccc4c(c3)CN(C(=O)Nc3ccc(C(=O)N(C)C)cc3)C4)c(O)cc2C1

>  <score_type>  (18) 
oracle

>  <origin>  (18) 
adgpu

>  <m_score__min__energy>  (18) 
-14.17

>  <m_primary>  (18) 
energy

$$$$
18:0
     RDKit          3D

 48 50  0  0  0  0  0  0  0  0999 V2000
   -3.4470   18.5830  -26.1160 C   0  0  0  0  0  0  0  0  0  0  0  0
   -2.3270   19.3520  -26.7430 C   0  0  0  0  0  0  0  0  0  0  0  0
   -1.2420   18.6820  -27.3170 C   0  0  0  0  0  0  0  0  0  0  0  0
   -0.2110   19.4410  -27.8750 C   0  0  0  0  0  0  0  0  0  0  0  0
    0.7800   18.8720  -28.4030 O   0  0  0  0  0  0  0  0  0  0  0  0
   -0.2760   20.7970  -27.8450 N   0  0  0  0  0  0  0  0  0  0  0  0
   -1.3350   21.4320  -27.2790 C   0  0  0  0  0  0  0  0  0  0  0  0
   -1.3910   23.2200  -27.2410 S   0  0  0  0  0  0  0  0  0  0  0  0
   -2.4130   23.3740  -28.7510 C   0  0  0  0  0  0  0  0  0  0  0  0
   -2.3750   24.7670  -29.3210 C   0  0  0  0  0  0  0  0  0  0  0  0
   -1.2990   25.4220  -29.2850 O   0  0  0  0  0  0  0  0  0  0  0  0
   -3.4790   25.2970  -30.0640 N   0  0  0  0  0  0  0  0  0  0  0  0
   -4.6500   24.5570  -30.4260 C   0  0  0  0  0  0  0  0  0  0  0  0
   -4.5290   23.4200  -31.2340 C   0  0  0  0  0  0  0  0  0  0  0  0
   -5.6640   22.6770  -31.5750 C   0  0  0  0  0  0  0  0  0  0  0  0
   -6.9330   23.0800  -31.1310 C   0  0  0  0  0  0  0  0  0  0  0  0
   -8.3580   22.1090  -31.5020 S   0  0  0  0  0  0  0  0  0  0  0  0
   -9.3760   22.9650  -32.2040 O   0  0  0  0  0  0  0  0  0  0  0  0
   -8.9700   21.6160  -30.2200 O   0  0  0  0  0  0  0  0  0  0  0  0
   -7.9510   20.7420  -32.5150 N   0  0  0  0  0  0  0  0  0  0  0  0
   -6.7500   20.0560  -31.9900 C   0  0  0  0  0  0  0  0  0  0  0  0
   -6.6090   18.6480  -32.5760 C   0  0  0  0  0  0  0  0  0  0  0  0
   -7.8050   17.7620  -32.1840 C   0  0  0  0  0  0  0  0  0  0  0  0
   -9.0780   18.5760  -31.8940 C   0  0  0  0  0  0  0  0  0  0  0  0
   -9.1220   19.8580  -32.7400 C   0  0  0  0  0  0  0  0  0  0  0  0
   -7.0570   24.2510  -30.3700 C   0  0  0  0  0  0  0  0  0  0  0  0
   -5.9230   24.9840  -30.0220 C   0  0  0  0  0  0  0  0  0  0  0  0
   -2.3520   20.7110  -26.7380 N   0  0  0  0  0  0  0  0  0  0  0  0
   -3.3632   18.6405  -25.0207 H   0  0  0  0  0  0  0  0  0  0  0  0
   -4.4090   19.0120  -26.4332 H   0  0  0  0  0  0  0  0  0  0  0  0
   -3.3922   17.5311  -26.4332 H   0  0  0  0  0  0  0  0  0  0  0  0
   -1.2015   17.5828  -27.3287 H   0  0  0  0  0  0  0  0  0  0  0  0
   -2.0357   22.6706  -29.5079 H   0  0  0  0  0  0  0  0  0  0  0  0
   -3.4546   23.1474  -28.4796 H   0  0  0  0  0  0  0  0  0  0  0  0
   -3.5395   23.1104  -31.6014 H   0  0  0  0  0  0  0  0  0  0  0  0
   -5.5616   21.7732  -32.1936 H   0  0  0  0  0  0  0  0  0  0  0  0
   -5.8584   20.6440  -32.2532 H   0  0  0  0  0  0  0  0  0  0  0  0
   -6.8515   19.9678  -30.8983 H   0  0  0  0  0  0  0  0  0  0  0  0
   -6.5585   18.7187  -33.6726 H   0  0  0  0  0  0  0  0  0  0  0  0
   -5.6912   18.1932  -32.1751 H   0  0  0  0  0  0  0  0  0  0  0  0
   -8.0130   17.0661  -33.0101 H   0  0  0  0  0  0  0  0  0  0  0  0
   -7.5345   17.2287  -31.2607 H   0  0  0  0  0  0  0  0  0  0  0  0
   -9.9589   17.9605  -32.1290 H   0  0  0  0  0  0  0  0  0  0  0  0
   -9.0757   18.8597  -30.8312 H   0  0  0  0  0  0  0  0  0  0  0  0
   -9.1490   19.5758  -33.8028 H   0  0  0  0  0  0  0  0  0  0  0  0
  -10.0198   20.4188  -32.4410 H   0  0  0  0  0  0  0  0  0  0  0  0
   -8.0514   24.5924  -30.0466 H   0  0  0  0  0  0  0  0  0  0  0  0
   -6.0278   25.9031  -29.4267 H   0  0  0  0  0  0  0  0  0  0  0  0
  1  2  1  0
  2  3  2  0
  3  4  1  0
  4  5  2  0
  4  6  1  0
  6  7  1  0
  7  8  1  0
  8  9  1  0
  9 10  1  0
 10 11  2  0
 10 12  1  0
 12 13  1  0
 13 14  2  0
 14 15  1  0
 15 16  2  0
 16 17  1  0
 17 18  2  0
 17 19  2  0
 17 20  1  0
 20 21  1  0
 21 22  1  0
 22 23  1  0
 23 24  1  0
 24 25  1  0
 16 26  1  0
 26 27  2  0
  7 28  2  0
 28  2  1  0
 27 13  1  0
 25 20  1  0
  1 29  1  0
  1 30  1  0
  1 31  1  0
  3 32  1  0
  9 33  1  0
  9 34  1  0
 14 35  1  0
 15 36  1  0
 21 37  1  0
 21 38  1  0
 22 39  1  0
 22 40  1  0
 23 41  1  0
 23 42  1  0
 24 43  1  0
 24 44  1  0
 25 45  1  0
 25 46  1  0
 26 47  1  0
 27 48  1  0
M  CHG  2   6  -1  12  -1
M  END
>  <UniqueID>  (19) 
19

>  <SMILES>  (19) 
Cc1cc(=O)[n-]c(SCC(=O)[N-]c2ccc(S(=O)(=O)N3CCCCC3)cc2)n1

>  <Energy>  (19) 
52.059711045947815

>  <Genealogy>  (19) 
Cc1cc(=O)[n-]c(SCC(=O)[N-]c2ccc(S(=O)(=O)N3CCCCC3)cc2)n1 (protonated)
Cc1cc(=O)[n-]c(SCC(=O)[N-]c2ccc(S(=O)(=O)N3CCCCC3)cc2)n1 (3D coordinates assigned)
Cc1cc(=O)[n-]c(SCC(=O)[N-]c2ccc(S(=O)(=O)N3CCCCC3)cc2)n1 (nonaromatic ring conformer: 52.059711045947815 kcal/mol)

>  <smiles>  (19) 
Cc1cc(=O)[nH]c(SCC(=O)Nc2ccc(S(=O)(=O)N3CCCCC3)cc2)n1

>  <score_type>  (19) 
oracle

>  <origin>  (19) 
adgpu

>  <m_score__min__energy>  (19) 
-12.289999999999999

>  <m_primary>  (19) 
energy

$$$$
19:0
     RDKit          3D

 49 52  0  0  0  0  0  0  0  0999 V2000
   -4.2350   25.6720  -31.0220 O   0  0  0  0  0  0  0  0  0  0  0  0
   -4.0030   24.8260  -30.1210 C   0  0  0  0  0  0  0  0  0  0  0  0
   -5.0800   23.8350  -29.7190 C   0  0  0  0  0  0  0  0  0  0  0  0
   -5.3870   22.8080  -30.7390 N   0  0  0  0  0  0  0  0  0  0  0  0
   -4.2000   22.3330  -31.4870 C   0  0  0  0  0  0  0  0  0  0  0  0
   -4.5760   21.5670  -32.7710 C   0  0  0  0  0  0  0  0  0  0  0  0
   -5.9180   20.9790  -32.6570 N   0  0  0  0  0  0  0  0  0  0  0  0
   -6.1520   19.6160  -33.0510 C   0  0  0  0  0  0  0  0  0  0  0  0
   -5.5080   19.0850  -34.1820 C   0  0  0  0  0  0  0  0  0  0  0  0
   -5.7360   17.7620  -34.5670 C   0  0  0  0  0  0  0  0  0  0  0  0
   -6.6110   16.9590  -33.8320 C   0  0  0  0  0  0  0  0  0  0  0  0
   -7.2620   17.4790  -32.7110 C   0  0  0  0  0  0  0  0  0  0  0  0
   -7.0370   18.8040  -32.3200 C   0  0  0  0  0  0  0  0  0  0  0  0
   -7.7070   19.3020  -31.2500 F   0  0  0  0  0  0  0  0  0  0  0  0
   -7.0450   21.8190  -32.2280 C   0  0  0  0  0  0  0  0  0  0  0  0
   -6.5430   23.1200  -31.5980 C   0  0  0  0  0  0  0  0  0  0  0  0
   -2.7490   24.9100  -29.4290 N   0  0  0  0  0  0  0  0  0  0  0  0
   -2.5160   24.6660  -28.0050 C   0  0  2  0  0  0  0  0  0  0  0  0
   -1.2130   25.3660  -27.5530 C   0  0  0  0  0  0  0  0  0  0  0  0
   -0.2370   24.2760  -27.0730 C   0  0  0  0  0  0  0  0  0  0  0  0
   -0.9890   23.0150  -27.2490 C   0  0  0  0  0  0  0  0  0  0  0  0
   -0.5330   21.7290  -26.9480 C   0  0  0  0  0  0  0  0  0  0  0  0
   -1.3830   20.6380  -27.1800 C   0  0  0  0  0  0  0  0  0  0  0  0
   -2.6690   20.8470  -27.7070 C   0  0  0  0  0  0  0  0  0  0  0  0
   -3.1080   22.1460  -28.0020 C   0  0  0  0  0  0  0  0  0  0  0  0
   -2.2470   23.2230  -27.7640 C   0  0  0  0  0  0  0  0  0  0  0  0
   -4.7488   23.3213  -28.8044 H   0  0  0  0  0  0  0  0  0  0  0  0
   -6.0019   24.4183  -29.5781 H   0  0  0  0  0  0  0  0  0  0  0  0
   -3.5860   23.2030  -31.7628 H   0  0  0  0  0  0  0  0  0  0  0  0
   -3.6503   21.6392  -30.8340 H   0  0  0  0  0  0  0  0  0  0  0  0
   -4.5587   22.2623  -33.6232 H   0  0  0  0  0  0  0  0  0  0  0  0
   -3.8486   20.7558  -32.9220 H   0  0  0  0  0  0  0  0  0  0  0  0
   -4.8211   19.7145  -34.7667 H   0  0  0  0  0  0  0  0  0  0  0  0
   -5.2255   17.3517  -35.4507 H   0  0  0  0  0  0  0  0  0  0  0  0
   -6.7875   15.9167  -34.1361 H   0  0  0  0  0  0  0  0  0  0  0  0
   -7.9527   16.8461  -32.1344 H   0  0  0  0  0  0  0  0  0  0  0  0
   -7.6694   22.0585  -33.1014 H   0  0  0  0  0  0  0  0  0  0  0  0
   -7.6312   21.2671  -31.4785 H   0  0  0  0  0  0  0  0  0  0  0  0
   -6.2391   23.8220  -32.3885 H   0  0  0  0  0  0  0  0  0  0  0  0
   -7.3425   23.5825  -31.0006 H   0  0  0  0  0  0  0  0  0  0  0  0
   -3.4067   25.0275  -27.4702 H   0  0  0  0  0  0  0  0  0  0  0  0
   -0.7725   25.9180  -28.3964 H   0  0  0  0  0  0  0  0  0  0  0  0
   -1.4210   26.0802  -26.7427 H   0  0  0  0  0  0  0  0  0  0  0  0
    0.6773   24.2739  -27.6845 H   0  0  0  0  0  0  0  0  0  0  0  0
    0.0906   24.4305  -26.0343 H   0  0  0  0  0  0  0  0  0  0  0  0
    0.4753   21.5750  -26.5362 H   0  0  0  0  0  0  0  0  0  0  0  0
   -1.0429   19.6177  -26.9493 H   0  0  0  0  0  0  0  0  0  0  0  0
   -3.3332   19.9892  -27.8887 H   0  0  0  0  0  0  0  0  0  0  0  0
   -4.1137   22.3155  -28.4141 H   0  0  0  0  0  0  0  0  0  0  0  0
  1  2  2  0
  2  3  1  0
  3  4  1  0
  4  5  1  0
  5  6  1  0
  6  7  1  0
  7  8  1  0
  8  9  2  0
  9 10  1  0
 10 11  2  0
 11 12  1  0
 12 13  2  0
 13 14  1  0
  7 15  1  0
 15 16  1  0
  2 17  1  0
 17 18  1  0
 18 19  1  0
 19 20  1  0
 20 21  1  0
 21 22  2  0
 22 23  1  0
 23 24  2  0
 24 25  1  0
 25 26  2  0
 16  4  1  0
 26 18  1  0
 13  8  1  0
 26 21  1  0
  3 27  1  0
  3 28  1  0
  5 29  1  0
  5 30  1  0
  6 31  1  0
  6 32  1  0
  9 33  1  0
 10 34  1  0
 11 35  1  0
 12 36  1  0
 15 37  1  0
 15 38  1  0
 16 39  1  0
 16 40  1  0
 18 41  1  1
 19 42  1  0
 19 43  1  0
 20 44  1  0
 20 45  1  0
 22 46  1  0
 23 47  1  0
 24 48  1  0
 25 49  1  0
M  CHG  1  17  -1
M  END
>  <UniqueID>  (20) 
20

>  <SMILES>  (20) 
O=C(CN1CCN(c2ccccc2F)CC1)[N-][C@@H]1CCc2ccccc21

>  <Energy>  (20) 
74.5580379646856

>  <Genealogy>  (20) 
O=C(CN1CCN(c2ccccc2F)CC1)[N-]C1CCc2ccccc21 (protonated)
O=C(CN1CCN(c2ccccc2F)CC1)[N-][C@@H]1CCc2ccccc21 (chirality)
O=C(CN1CCN(c2ccccc2F)CC1)[N-][C@@H]1CCc2ccccc21 (3D coordinates assigned)
O=C(CN1CCN(c2ccccc2F)CC1)[N-][C@@H]1CCc2ccccc21 (nonaromatic ring conformer: 74.5580379646856 kcal/mol)

>  <smiles>  (20) 
O=C(CN1CCN(c2ccccc2F)CC1)NC1CCc2ccccc21

>  <score_type>  (20) 
oracle

>  <origin>  (20) 
adgpu

>  <m_score__min__energy>  (20) 
-10.82

>  <m_primary>  (20) 
energy

$$$$
20:0
     RDKit          3D

 32 34  0  0  0  0  0  0  0  0999 V2000
   -1.3150   25.5380  -27.5060 C   0  0  0  0  0  0  0  0  0  0  0  0
   -1.6600   25.3940  -28.8800 O   0  0  0  0  0  0  0  0  0  0  0  0
   -2.2410   24.2430  -29.4390 C   0  0  0  0  0  0  0  0  0  0  0  0
   -1.7170   22.9580  -29.2140 C   0  0  0  0  0  0  0  0  0  0  0  0
   -2.3210   21.8370  -29.7850 C   0  0  0  0  0  0  0  0  0  0  0  0
   -1.7880   20.5750  -29.5510 O   0  0  0  0  0  0  0  0  0  0  0  0
   -3.4570   21.9810  -30.5880 C   0  0  0  0  0  0  0  0  0  0  0  0
   -4.0190   20.9010  -31.1230 O   0  0  0  0  0  0  0  0  0  0  0  0
   -5.1020   20.9450  -31.8950 C   0  0  0  0  0  0  0  0  0  0  0  0
   -5.6440   19.6740  -32.4380 C   0  0  0  0  0  0  0  0  0  0  0  0
   -6.6410   18.9860  -31.7240 C   0  0  0  0  0  0  0  0  0  0  0  0
   -7.1730   17.7920  -32.2180 C   0  0  0  0  0  0  0  0  0  0  0  0
   -6.7240   17.2700  -33.4370 C   0  0  0  0  0  0  0  0  0  0  0  0
   -7.2500   16.0780  -33.9330 O   0  0  0  0  0  0  0  0  0  0  0  0
   -5.7430   17.9540  -34.1640 C   0  0  0  0  0  0  0  0  0  0  0  0
   -5.2990   17.4490  -35.3810 O   0  0  0  0  0  0  0  0  0  0  0  0
   -5.2080   19.1490  -33.6710 C   0  0  0  0  0  0  0  0  0  0  0  0
   -5.6910   22.1860  -32.1870 C   0  0  0  0  0  0  0  0  0  0  0  0
   -5.1400   23.3510  -31.6510 C   0  0  0  0  0  0  0  0  0  0  0  0
   -5.6750   24.4600  -31.9190 O   0  0  0  0  0  0  0  0  0  0  0  0
   -3.9990   23.2650  -30.8270 C   0  0  0  0  0  0  0  0  0  0  0  0
   -3.3790   24.3960  -30.2450 C   0  0  0  0  0  0  0  0  0  0  0  0
   -3.8830   25.6760  -30.4550 O   0  0  0  0  0  0  0  0  0  0  0  0
   -2.1497   25.1896  -26.8799 H   0  0  0  0  0  0  0  0  0  0  0  0
   -0.4185   24.9390  -27.2883 H   0  0  0  0  0  0  0  0  0  0  0  0
   -1.1104   26.5967  -27.2883 H   0  0  0  0  0  0  0  0  0  0  0  0
   -0.8243   22.8353  -28.5832 H   0  0  0  0  0  0  0  0  0  0  0  0
   -7.0053   19.3911  -30.7684 H   0  0  0  0  0  0  0  0  0  0  0  0
   -7.9479   17.2600  -31.6466 H   0  0  0  0  0  0  0  0  0  0  0  0
   -6.9230   15.6770  -34.8030 H   0  0  0  0  0  0  0  0  0  0  0  0
   -4.4407   19.6832  -34.2506 H   0  0  0  0  0  0  0  0  0  0  0  0
   -6.5797   22.2395  -32.8331 H   0  0  0  0  0  0  0  0  0  0  0  0
  1  2  1  0
  2  3  1  0
  3  4  2  0
  4  5  1  0
  5  6  1  0
  5  7  2  0
  7  8  1  0
  8  9  1  0
  9 10  1  0
 10 11  2  0
 11 12  1  0
 12 13  2  0
 13 14  1  0
 13 15  1  0
 15 16  1  0
 15 17  2  0
  9 18  2  0
 18 19  1  0
 19 20  2  0
 19 21  1  0
 21 22  2  0
 22 23  1  0
 22  3  1  0
 21  7  1  0
 17 10  1  0
  1 24  1  0
  1 25  1  0
  1 26  1  0
  4 27  1  0
 11 28  1  0
 12 29  1  0
 14 30  1  0
 17 31  1  0
 18 32  1  0
M  CHG  3   6  -1  16  -1  23  -1
M  END
>  <UniqueID>  (21) 
21

>  <SMILES>  (21) 
COc1cc([O-])c2oc(-c3ccc(O)c([O-])c3)cc(=O)c2c1[O-]

>  <Energy>  (21) 
45.27953441074621

>  <Genealogy>  (21) 
COc1cc([O-])c2oc(-c3ccc(O)c([O-])c3)cc(=O)c2c1[O-] (protonated)
COc1cc([O-])c2oc(-c3ccc(O)c([O-])c3)cc(=O)c2c1[O-] (3D coordinates assigned)
COc1cc([O-])c2oc(-c3ccc(O)c([O-])c3)cc(=O)c2c1[O-] (optimized conformer: 45.27953441074621 kcal/mol)

>  <smiles>  (21) 
COc1cc(O)c2oc(-c3ccc(O)c(O)c3)cc(=O)c2c1O

>  <score_type>  (21) 
oracle

>  <origin>  (21) 
adgpu

>  <m_score__min__energy>  (21) 
-10.449999999999999

>  <m_primary>  (21) 
energy

$$$$
21:0
     RDKit          3D

 61 65  0  0  0  0  0  0  0  0999 V2000
   -6.4660   17.5450  -30.9170 C   0  0  0  0  0  0  0  0  0  0  0  0
   -5.9990   17.8680  -32.3130 C   0  0  0  0  0  0  0  0  0  0  0  0
   -5.0260   17.0400  -32.9020 C   0  0  0  0  0  0  0  0  0  0  0  0
   -4.5990   17.2630  -34.2110 C   0  0  0  0  0  0  0  0  0  0  0  0
   -5.1520   18.2990  -34.9580 C   0  0  0  0  0  0  0  0  0  0  0  0
   -6.1250   19.1260  -34.3950 C   0  0  0  0  0  0  0  0  0  0  0  0
   -6.5460   18.9470  -33.0640 C   0  0  0  0  0  0  0  0  0  0  0  0
   -7.5780   19.9050  -32.4820 C   0  0  0  0  0  0  0  0  0  0  0  0
   -7.1450   21.3240  -32.4920 N   0  0  0  0  0  0  0  0  0  0  0  0
   -7.9160   22.2040  -31.5700 C   0  0  0  0  0  0  0  0  0  0  0  0
   -7.1480   23.4690  -31.1620 C   0  0  0  0  0  0  0  0  0  0  0  0
   -5.8240   23.0560  -30.5920 C   0  0  0  0  0  0  0  0  0  0  0  0
   -5.3060   23.6270  -29.4220 C   0  0  0  0  0  0  0  0  0  0  0  0
   -4.0810   23.1860  -28.9140 C   0  0  0  0  0  0  0  0  0  0  0  0
   -3.3640   22.1770  -29.5740 C   0  0  0  0  0  0  0  0  0  0  0  0
   -1.8260   21.6360  -28.9130 S   0  0  0  0  0  0  0  0  0  0  0  0
   -1.2550   20.5050  -29.7260 O   0  0  0  0  0  0  0  0  0  0  0  0
   -2.0470   21.1500  -27.5080 O   0  0  0  0  0  0  0  0  0  0  0  0
   -0.6980   22.9550  -28.8910 N   0  0  0  0  0  0  0  0  0  0  0  0
   -0.7620   24.0630  -27.9710 C   0  0  0  0  0  0  0  0  0  0  0  0
   -0.1110   24.0240  -26.7230 C   0  0  0  0  0  0  0  0  0  0  0  0
   -0.1830   25.1110  -25.8400 C   0  0  0  0  0  0  0  0  0  0  0  0
   -0.9550   26.2380  -26.1830 C   0  0  0  0  0  0  0  0  0  0  0  0
   -1.5830   26.2900  -27.4340 C   0  0  0  0  0  0  0  0  0  0  0  0
   -1.4900   25.2150  -28.3220 C   0  0  0  0  0  0  0  0  0  0  0  0
   -2.1290   25.3000  -29.5540 O   0  0  0  0  0  0  0  0  0  0  0  0
   -1.0390   27.4300  -25.2570 C   0  0  0  0  0  0  0  0  0  0  0  0
   -0.7060   27.0860  -23.8680 N   0  0  0  0  0  0  0  0  0  0  0  0
    0.5770   26.3770  -23.8010 C   0  0  0  0  0  0  0  0  0  0  0  0
    0.4810   25.0110  -24.4910 C   0  0  0  0  0  0  0  0  0  0  0  0
   -3.8770   21.6180  -30.7530 C   0  0  0  0  0  0  0  0  0  0  0  0
   -5.1120   22.0520  -31.2580 C   0  0  0  0  0  0  0  0  0  0  0  0
   -5.6730   21.5210  -32.5500 C   0  0  0  0  0  0  0  0  0  0  0  0
   -5.7895   18.0129  -30.1866 H   0  0  0  0  0  0  0  0  0  0  0  0
   -7.4856   17.9319  -30.7727 H   0  0  0  0  0  0  0  0  0  0  0  0
   -6.4638   16.4545  -30.7727 H   0  0  0  0  0  0  0  0  0  0  0  0
   -4.5974   16.2079  -32.3241 H   0  0  0  0  0  0  0  0  0  0  0  0
   -3.8244   16.6194  -34.6534 H   0  0  0  0  0  0  0  0  0  0  0  0
   -4.8216   18.4662  -35.9938 H   0  0  0  0  0  0  0  0  0  0  0  0
   -6.5695   19.9296  -35.0005 H   0  0  0  0  0  0  0  0  0  0  0  0
   -8.5028   19.8197  -33.0715 H   0  0  0  0  0  0  0  0  0  0  0  0
   -7.7242   19.6203  -31.4296 H   0  0  0  0  0  0  0  0  0  0  0  0
   -8.8471   22.5063  -32.0716 H   0  0  0  0  0  0  0  0  0  0  0  0
   -8.1102   21.6282  -30.6531 H   0  0  0  0  0  0  0  0  0  0  0  0
   -6.9899   24.1080  -32.0433 H   0  0  0  0  0  0  0  0  0  0  0  0
   -7.7220   24.0344  -30.4131 H   0  0  0  0  0  0  0  0  0  0  0  0
   -5.8629   24.4216  -28.9039 H   0  0  0  0  0  0  0  0  0  0  0  0
   -3.6775   23.6319  -27.9929 H   0  0  0  0  0  0  0  0  0  0  0  0
    0.0540   22.9290  -29.6140 H   0  0  0  0  0  0  0  0  0  0  0  0
    0.4614   23.1293  -26.4370 H   0  0  0  0  0  0  0  0  0  0  0  0
   -2.1546   27.1852  -27.7200 H   0  0  0  0  0  0  0  0  0  0  0  0
   -0.3364   28.2001  -25.6082 H   0  0  0  0  0  0  0  0  0  0  0  0
   -2.0771   27.7936  -25.2724 H   0  0  0  0  0  0  0  0  0  0  0  0
   -1.4590   26.4680  -23.4820 H   0  0  0  0  0  0  0  0  0  0  0  0
    1.3489   26.9802  -24.3012 H   0  0  0  0  0  0  0  0  0  0  0  0
    0.8386   26.2205  -22.7441 H   0  0  0  0  0  0  0  0  0  0  0  0
    1.4954   24.6065  -24.6226 H   0  0  0  0  0  0  0  0  0  0  0  0
   -0.1291   24.3501  -23.8577 H   0  0  0  0  0  0  0  0  0  0  0  0
   -3.3105   20.8381  -31.2828 H   0  0  0  0  0  0  0  0  0  0  0  0
   -5.4440   22.2356  -33.3543 H   0  0  0  0  0  0  0  0  0  0  0  0
   -5.2113   20.5403  -32.7373 H   0  0  0  0  0  0  0  0  0  0  0  0
  1  2  1  0
  2  3  2  0
  3  4  1  0
  4  5  2  0
  5  6  1  0
  6  7  2  0
  7  8  1  0
  8  9  1  0
  9 10  1  0
 10 11  1  0
 11 12  1  0
 12 13  2  0
 13 14  1  0
 14 15  2  0
 15 16  1  0
 16 17  2  0
 16 18  2  0
 16 19  1  0
 19 20  1  0
 20 21  2  0
 21 22  1  0
 22 23  2  0
 23 24  1  0
 24 25  2  0
 25 26  1  0
 23 27  1  0
 27 28  1  0
 28 29  1  0
 29 30  1  0
 15 31  1  0
 31 32  2  0
 32 33  1  0
  7  2  1  0
 33  9  1  0
 32 12  1  0
 25 20  1  0
 30 22  1  0
  1 34  1  0
  1 35  1  0
  1 36  1  0
  3 37  1  0
  4 38  1  0
  5 39  1  0
  6 40  1  0
  8 41  1  0
  8 42  1  0
 10 43  1  0
 10 44  1  0
 11 45  1  0
 11 46  1  0
 13 47  1  0
 14 48  1  0
 19 49  1  0
 21 50  1  0
 24 51  1  0
 27 52  1  0
 27 53  1  0
 28 54  1  0
 29 55  1  0
 29 56  1  0
 30 57  1  0
 30 58  1  0
 31 59  1  0
 33 60  1  0
 33 61  1  0
M  CHG  1  26  -1
M  END
>  <UniqueID>  (22) 
22

>  <SMILES>  (22) 
Cc1ccccc1CN1CCc2ccc(S(=O)(=O)Nc3cc4c(cc3[O-])CNCC4)cc2C1

>  <Energy>  (22) 
86.07957885427565

>  <Genealogy>  (22) 
Cc1ccccc1CN1CCc2ccc(S(=O)(=O)Nc3cc4c(cc3[O-])CNCC4)cc2C1 (protonated)
Cc1ccccc1CN1CCc2ccc(S(=O)(=O)Nc3cc4c(cc3[O-])CNCC4)cc2C1 (3D coordinates assigned)
Cc1ccccc1CN1CCc2ccc(S(=O)(=O)Nc3cc4c(cc3[O-])CNCC4)cc2C1 (nonaromatic ring conformer: 86.07957885427565 kcal/mol)

>  <smiles>  (22) 
Cc1ccccc1CN1CCc2ccc(S(=O)(=O)Nc3cc4c(cc3O)CNCC4)cc2C1

>  <score_type>  (22) 
oracle

>  <origin>  (22) 
adgpu

>  <m_score__min__energy>  (22) 
-14.92

>  <m_primary>  (22) 
energy

$$$$
22:0
     RDKit          3D

 38 40  0  0  0  0  0  0  0  0999 V2000
   -0.4450   25.6660  -24.5940 C   0  0  0  0  0  0  0  0  0  0  0  0
   -0.4890   24.2190  -24.9620 C   0  0  0  0  0  0  0  0  0  0  0  0
   -0.5270   23.2180  -24.0600 N   0  0  0  0  0  0  0  0  0  0  0  0
   -0.5570   22.1010  -24.7300 O   0  0  0  0  0  0  0  0  0  0  0  0
   -0.5440   22.3210  -26.0240 C   0  0  0  0  0  0  0  0  0  0  0  0
   -0.5620   21.2490  -27.0620 C   0  0  0  0  0  0  0  0  0  0  0  0
   -0.5130   23.6850  -26.2350 C   0  0  0  0  0  0  0  0  0  0  0  0
   -0.4450   24.5320  -27.7770 S   0  0  0  0  0  0  0  0  0  0  0  0
   -1.1530   25.8520  -27.6580 O   0  0  0  0  0  0  0  0  0  0  0  0
    0.9800   24.7970  -28.1680 O   0  0  0  0  0  0  0  0  0  0  0  0
   -1.2090   23.5660  -28.9930 N   0  0  0  0  0  0  0  0  0  0  0  0
   -0.5900   22.6750  -29.7910 C   0  0  0  0  0  0  0  0  0  0  0  0
   -1.5220   22.0440  -30.5930 C   0  0  0  0  0  0  0  0  0  0  0  0
   -2.7450   22.5940  -30.2600 C   0  0  0  0  0  0  0  0  0  0  0  0
   -4.0070   22.1810  -30.8060 N   0  0  0  0  0  0  0  0  0  0  0  0
   -5.0770   23.0810  -31.1410 C   0  0  0  0  0  0  0  0  0  0  0  0
   -4.8590   24.3200  -31.2230 O   0  0  0  0  0  0  0  0  0  0  0  0
   -6.4320   22.5570  -31.4260 C   0  0  0  0  0  0  0  0  0  0  0  0
   -7.5010   23.4250  -31.7070 C   0  0  0  0  0  0  0  0  0  0  0  0
   -8.7670   22.8950  -31.9670 C   0  0  0  0  0  0  0  0  0  0  0  0
   -8.9610   21.5130  -31.9430 C   0  0  0  0  0  0  0  0  0  0  0  0
   -7.8800   20.6790  -31.6590 C   0  0  0  0  0  0  0  0  0  0  0  0
   -6.6540   21.2120  -31.4090 N   0  0  0  0  0  0  0  0  0  0  0  0
   -2.5260   23.5230  -29.2580 C   0  0  0  0  0  0  0  0  0  0  0  0
   -0.4420   25.7658  -23.4985 H   0  0  0  0  0  0  0  0  0  0  0  0
    0.4674   26.1216  -25.0062 H   0  0  0  0  0  0  0  0  0  0  0  0
   -1.3280   26.1762  -25.0062 H   0  0  0  0  0  0  0  0  0  0  0  0
   -0.5785   20.2643  -26.5719 H   0  0  0  0  0  0  0  0  0  0  0  0
   -1.4584   21.3613  -27.6896 H   0  0  0  0  0  0  0  0  0  0  0  0
    0.3377   21.3312  -27.6896 H   0  0  0  0  0  0  0  0  0  0  0  0
    0.4924   22.4793  -29.8027 H   0  0  0  0  0  0  0  0  0  0  0  0
   -1.3294   21.2631  -31.3434 H   0  0  0  0  0  0  0  0  0  0  0  0
   -4.1290   21.1620  -31.0060 H   0  0  0  0  0  0  0  0  0  0  0  0
   -7.3420   24.5133  -31.7221 H   0  0  0  0  0  0  0  0  0  0  0  0
   -9.6097   23.5658  -32.1903 H   0  0  0  0  0  0  0  0  0  0  0  0
   -9.9546   21.0868  -32.1457 H   0  0  0  0  0  0  0  0  0  0  0  0
   -8.0192   19.5881  -31.6371 H   0  0  0  0  0  0  0  0  0  0  0  0
   -3.3006   24.1257  -28.7612 H   0  0  0  0  0  0  0  0  0  0  0  0
  1  2  1  0
  2  3  2  0
  3  4  1  0
  4  5  1  0
  5  6  1  0
  5  7  2  0
  7  8  1  0
  8  9  2  0
  8 10  2  0
  8 11  1  0
 11 12  1  0
 12 13  2  0
 13 14  1  0
 14 15  1  0
 15 16  1  0
 16 17  2  0
 16 18  1  0
 18 19  2  0
 19 20  1  0
 20 21  2  0
 21 22  1  0
 22 23  2  0
 14 24  2  0
  7  2  1  0
 24 11  1  0
 23 18  1  0
  1 25  1  0
  1 26  1  0
  1 27  1  0
  6 28  1  0
  6 29  1  0
  6 30  1  0
 12 31  1  0
 13 32  1  0
 15 33  1  0
 19 34  1  0
 20 35  1  0
 21 36  1  0
 22 37  1  0
 24 38  1  0
M  END
>  <UniqueID>  (23) 
23

>  <SMILES>  (23) 
Cc1noc(C)c1S(=O)(=O)n1ccc(NC(=O)c2ccccn2)c1

>  <Energy>  (23) 
99.77196065306214

>  <Genealogy>  (23) 
Cc1noc(C)c1S(=O)(=O)n1ccc(NC(=O)c2ccccn2)c1 (3D coordinates assigned)
Cc1noc(C)c1S(=O)(=O)n1ccc(NC(=O)c2ccccn2)c1 (optimized conformer: 99.77196065306214 kcal/mol)

>  <smiles>  (23) 
Cc1noc(C)c1S(=O)(=O)n1ccc(NC(=O)c2ccccn2)c1

>  <score_type>  (23) 
oracle

>  <origin>  (23) 
adgpu

>  <m_score__min__energy>  (23) 
-8.5500000000000007

>  <m_primary>  (23) 
energy

$$$$
23:0
     RDKit          3D

 61 65  0  0  0  0  0  0  0  0999 V2000
    1.2660   19.2040  -27.9170 C   0  0  0  0  0  0  0  0  0  0  0  0
    0.0860   20.0690  -27.7690 N   0  0  0  0  0  0  0  0  0  0  0  0
   -1.1280   19.3430  -28.1860 C   0  0  0  0  0  0  0  0  0  0  0  0
   -2.3670   20.1580  -27.8100 C   0  0  0  0  0  0  0  0  0  0  0  0
   -2.2430   21.5930  -28.2530 C   0  0  0  0  0  0  0  0  0  0  0  0
   -3.3850   22.4060  -28.2760 C   0  0  0  0  0  0  0  0  0  0  0  0
   -3.2980   23.7480  -28.6770 C   0  0  0  0  0  0  0  0  0  0  0  0
   -4.4660   24.5700  -28.7420 N   0  0  0  0  0  0  0  0  0  0  0  0
   -5.3720   24.8130  -30.2030 S   0  0  0  0  0  0  0  0  0  0  0  0
   -6.6500   25.5310  -29.8690 O   0  0  0  0  0  0  0  0  0  0  0  0
   -4.5760   25.6750  -31.1410 O   0  0  0  0  0  0  0  0  0  0  0  0
   -5.7630   23.2830  -30.9830 C   0  0  0  0  0  0  0  0  0  0  0  0
   -4.7710   22.3090  -31.1640 C   0  0  0  0  0  0  0  0  0  0  0  0
   -5.0980   21.0610  -31.6990 C   0  0  0  0  0  0  0  0  0  0  0  0
   -6.4290   20.7690  -32.0490 C   0  0  0  0  0  0  0  0  0  0  0  0
   -6.8060   19.4980  -32.5940 N   0  0  0  0  0  0  0  0  0  0  0  0
   -6.3260   18.9270  -33.8160 C   0  0  0  0  0  0  0  0  0  0  0  0
   -6.4910   19.5450  -34.9030 O   0  0  0  0  0  0  0  0  0  0  0  0
   -5.5600   17.6580  -33.7870 C   0  0  0  0  0  0  0  0  0  0  0  0
   -6.2210   16.4510  -33.4910 C   0  0  0  0  0  0  0  0  0  0  0  0
   -5.5040   15.2610  -33.3730 C   0  0  0  0  0  0  0  0  0  0  0  0
   -4.1220   15.2760  -33.5490 C   0  0  0  0  0  0  0  0  0  0  0  0
   -3.4900   16.4360  -33.8580 N   0  0  0  0  0  0  0  0  0  0  0  0
   -4.1600   17.6120  -34.0050 C   0  0  0  0  0  0  0  0  0  0  0  0
   -3.4310   18.7480  -34.3780 O   0  0  0  0  0  0  0  0  0  0  0  0
   -2.5920   19.4670  -33.5080 C   0  0  0  0  0  0  0  0  0  0  0  0
   -1.7940   18.7520  -32.6070 C   0  0  0  0  0  0  0  0  0  0  0  0
   -0.9350   19.4270  -31.7310 C   0  0  0  0  0  0  0  0  0  0  0  0
   -0.8680   20.8250  -31.7510 C   0  0  0  0  0  0  0  0  0  0  0  0
   -1.6580   21.5470  -32.6470 C   0  0  0  0  0  0  0  0  0  0  0  0
   -2.5160   20.8770  -33.5250 C   0  0  0  0  0  0  0  0  0  0  0  0
   -7.4090   21.7590  -31.9050 C   0  0  0  0  0  0  0  0  0  0  0  0
   -7.0830   23.0060  -31.3670 C   0  0  0  0  0  0  0  0  0  0  0  0
   -2.0450   24.3010  -28.9750 C   0  0  0  0  0  0  0  0  0  0  0  0
   -1.9390   25.6390  -29.3420 O   0  0  0  0  0  0  0  0  0  0  0  0
   -0.8960   23.5050  -28.9210 C   0  0  0  0  0  0  0  0  0  0  0  0
   -0.9840   22.1530  -28.5550 C   0  0  0  0  0  0  0  0  0  0  0  0
    0.2550   21.2910  -28.5860 C   0  0  0  0  0  0  0  0  0  0  0  0
    1.6444   18.9266  -26.9221 H   0  0  0  0  0  0  0  0  0  0  0  0
    0.9871   18.2948  -28.4698 H   0  0  0  0  0  0  0  0  0  0  0  0
    2.0491   19.7435  -28.4698 H   0  0  0  0  0  0  0  0  0  0  0  0
   -1.1071   19.1897  -29.2751 H   0  0  0  0  0  0  0  0  0  0  0  0
   -1.1636   18.3680  -27.6779 H   0  0  0  0  0  0  0  0  0  0  0  0
   -3.2485   19.7105  -28.2924 H   0  0  0  0  0  0  0  0  0  0  0  0
   -2.4686   20.1438  -26.7148 H   0  0  0  0  0  0  0  0  0  0  0  0
   -4.3577   21.9883  -27.9771 H   0  0  0  0  0  0  0  0  0  0  0  0
   -3.7303   22.5287  -30.8834 H   0  0  0  0  0  0  0  0  0  0  0  0
   -4.3131   20.3047  -31.8470 H   0  0  0  0  0  0  0  0  0  0  0  0
   -7.3121   16.4466  -33.3516 H   0  0  0  0  0  0  0  0  0  0  0  0
   -6.0244   14.3195  -33.1432 H   0  0  0  0  0  0  0  0  0  0  0  0
   -3.5433   14.3472  -33.4374 H   0  0  0  0  0  0  0  0  0  0  0  0
   -1.8420   17.6532  -32.5870 H   0  0  0  0  0  0  0  0  0  0  0  0
   -0.3117   18.8576  -31.0258 H   0  0  0  0  0  0  0  0  0  0  0  0
   -0.1936   21.3539  -31.0615 H   0  0  0  0  0  0  0  0  0  0  0  0
   -1.6056   22.6456  -32.6626 H   0  0  0  0  0  0  0  0  0  0  0  0
   -3.1340   21.4505  -34.2315 H   0  0  0  0  0  0  0  0  0  0  0  0
   -8.4432   21.5530  -32.2179 H   0  0  0  0  0  0  0  0  0  0  0  0
   -7.8629   23.7720  -31.2443 H   0  0  0  0  0  0  0  0  0  0  0  0
    0.0832   23.9417  -29.1671 H   0  0  0  0  0  0  0  0  0  0  0  0
    0.4618   20.9996  -29.6264 H   0  0  0  0  0  0  0  0  0  0  0  0
    1.0904   21.8723  -28.1687 H   0  0  0  0  0  0  0  0  0  0  0  0
  1  2  1  0
  2  3  1  0
  3  4  1  0
  4  5  1  0
  5  6  2  0
  6  7  1  0
  7  8  1  0
  8  9  1  0
  9 10  2  0
  9 11  2  0
  9 12  1  0
 12 13  2  0
 13 14  1  0
 14 15  2  0
 15 16  1  0
 16 17  1  0
 17 18  2  0
 17 19  1  0
 19 20  2  0
 20 21  1  0
 21 22  2  0
 22 23  1  0
 23 24  2  0
 24 25  1  0
 25 26  1  0
 26 27  2  0
 27 28  1  0
 28 29  2  0
 29 30  1  0
 30 31  2  0
 15 32  1  0
 32 33  2  0
  7 34  2  0
 34 35  1  0
 34 36  1  0
 36 37  2  0
 37 38  1  0
 38  2  1  0
 37  5  1  0
 33 12  1  0
 24 19  1  0
 31 26  1  0
  1 39  1  0
  1 40  1  0
  1 41  1  0
  3 42  1  0
  3 43  1  0
  4 44  1  0
  4 45  1  0
  6 46  1  0
 13 47  1  0
 14 48  1  0
 20 49  1  0
 21 50  1  0
 22 51  1  0
 27 52  1  0
 28 53  1  0
 29 54  1  0
 30 55  1  0
 31 56  1  0
 32 57  1  0
 33 58  1  0
 36 59  1  0
 38 60  1  0
 38 61  1  0
M  CHG  3   8  -1  16  -1  35  -1
M  END
>  <UniqueID>  (24) 
24

>  <SMILES>  (24) 
CN1CCc2cc([N-]S(=O)(=O)c3ccc([N-]C(=O)c4cccnc4Oc4ccccc4)cc3)c([O-])cc2C1

>  <Energy>  (24) 
91.78718166955218

>  <Genealogy>  (24) 
CN1CCc2cc([N-]S(=O)(=O)c3ccc([N-]C(=O)c4cccnc4Oc4ccccc4)cc3)c([O-])cc2C1 (protonated)
CN1CCc2cc([N-]S(=O)(=O)c3ccc([N-]C(=O)c4cccnc4Oc4ccccc4)cc3)c([O-])cc2C1 (3D coordinates assigned)
CN1CCc2cc([N-]S(=O)(=O)c3ccc([N-]C(=O)c4cccnc4Oc4ccccc4)cc3)c([O-])cc2C1 (nonaromatic ring conformer: 91.78718166955218 kcal/mol)

>  <smiles>  (24) 
CN1CCc2cc(NS(=O)(=O)c3ccc(NC(=O)c4cccnc4Oc4ccccc4)cc3)c(O)cc2C1

>  <score_type>  (24) 
oracle

>  <origin>  (24) 
adgpu

>  <m_score__min__energy>  (24) 
-14.619999999999999

>  <m_primary>  (24) 
energy

$$$$
24:0
     RDKit          3D

 57 59  0  0  0  0  0  0  0  0999 V2000
    0.5080   17.8170  -29.0620 N   0  0  0  0  0  0  0  0  0  0  0  0
   -0.1010   18.7520  -29.7190 C   0  0  0  0  0  0  0  0  0  0  0  0
   -0.4790   18.5630  -31.0570 C   0  0  0  0  0  0  0  0  0  0  0  0
   -1.1360   19.5920  -31.7340 C   0  0  0  0  0  0  0  0  0  0  0  0
   -1.4130   20.8000  -31.0790 C   0  0  0  0  0  0  0  0  0  0  0  0
   -2.1150   21.9180  -31.8080 C   0  0  0  0  0  0  0  0  0  0  0  0
   -3.4940   21.4790  -32.3570 C   0  0  2  0  0  0  0  0  0  0  0  0
   -3.4580   21.3240  -33.8130 N   0  0  0  0  0  0  0  0  0  0  0  0
   -4.5900   22.4380  -31.8790 C   0  0  0  0  0  0  0  0  0  0  0  0
   -4.9900   23.2480  -32.7060 O   0  0  0  0  0  0  0  0  0  0  0  0
   -5.1900   22.4750  -30.5390 N   0  0  2  0  0  0  0  0  0  0  0  0
   -6.5910   22.0160  -30.5130 C   0  0  0  0  0  0  0  0  0  0  0  0
   -7.4790   23.2070  -30.1400 C   0  0  0  0  0  0  0  0  0  0  0  0
   -6.5460   24.3950  -29.9650 C   0  0  0  0  0  0  0  0  0  0  0  0
   -5.1630   23.7710  -29.8230 C   0  0  2  0  0  0  0  0  0  0  0  0
   -4.0170   24.6910  -30.1810 C   0  0  0  0  0  0  0  0  0  0  0  0
   -4.2070   25.6780  -30.9430 O   0  0  0  0  0  0  0  0  0  0  0  0
   -2.7390   24.4990  -29.5690 N   0  0  0  0  0  0  0  0  0  0  0  0
   -2.5410   24.5250  -28.1260 C   0  0  0  0  0  0  0  0  0  0  0  0
   -2.4660   23.1170  -27.6110 C   0  0  0  0  0  0  0  0  0  0  0  0
   -3.4850   22.2010  -27.9090 C   0  0  0  0  0  0  0  0  0  0  0  0
   -3.4000   20.8800  -27.4600 C   0  0  0  0  0  0  0  0  0  0  0  0
   -2.2930   20.4500  -26.7090 C   0  0  0  0  0  0  0  0  0  0  0  0
   -2.2060   19.0460  -26.2380 C   0  0  0  0  0  0  0  0  0  0  0  0
   -3.1290   18.5660  -25.2520 N   0  0  0  0  0  0  0  0  0  0  0  0
   -1.2950   18.2450  -26.7050 N   0  0  0  0  0  0  0  0  0  0  0  0
   -1.2650   21.3670  -26.4280 C   0  0  0  0  0  0  0  0  0  0  0  0
   -1.3500   22.6880  -26.8790 C   0  0  0  0  0  0  0  0  0  0  0  0
   -1.0150   20.9470  -29.7420 C   0  0  0  0  0  0  0  0  0  0  0  0
   -0.3770   19.9320  -29.1020 N   0  0  0  0  0  0  0  0  0  0  0  0
    0.7440   16.8920  -29.4900 H   0  0  0  0  0  0  0  0  0  0  0  0
   -0.2598   17.6135  -31.5674 H   0  0  0  0  0  0  0  0  0  0  0  0
   -1.4368   19.4547  -32.7831 H   0  0  0  0  0  0  0  0  0  0  0  0
   -2.2609   22.7581  -31.1130 H   0  0  0  0  0  0  0  0  0  0  0  0
   -1.4878   22.2116  -32.6627 H   0  0  0  0  0  0  0  0  0  0  0  0
   -3.7416   20.4865  -31.9524 H   0  0  0  0  0  0  0  0  0  0  0  0
   -2.5470   21.7040  -34.1610 H   0  0  0  0  0  0  0  0  0  0  0  0
   -4.1830   21.9300  -34.2560 H   0  0  0  0  0  0  0  0  0  0  0  0
   -4.6410   21.8010  -29.9490 H   0  0  0  0  0  0  0  0  0  0  0  0
   -6.8764   21.6352  -31.5047 H   0  0  0  0  0  0  0  0  0  0  0  0
   -6.7119   21.2073  -29.7772 H   0  0  0  0  0  0  0  0  0  0  0  0
   -8.2047   23.4072  -30.9420 H   0  0  0  0  0  0  0  0  0  0  0  0
   -8.0505   23.0081  -29.2214 H   0  0  0  0  0  0  0  0  0  0  0  0
   -6.5870   25.0553  -30.8438 H   0  0  0  0  0  0  0  0  0  0  0  0
   -6.8167   25.0176  -29.0995 H   0  0  0  0  0  0  0  0  0  0  0  0
   -4.9435   23.5849  -28.7613 H   0  0  0  0  0  0  0  0  0  0  0  0
   -1.6040   25.0521  -27.8929 H   0  0  0  0  0  0  0  0  0  0  0  0
   -3.3820   25.0484  -27.6477 H   0  0  0  0  0  0  0  0  0  0  0  0
   -4.3555   22.5236  -28.4990 H   0  0  0  0  0  0  0  0  0  0  0  0
   -4.2069   20.1708  -27.6967 H   0  0  0  0  0  0  0  0  0  0  0  0
   -3.0540   17.5940  -24.8790 H   0  0  0  0  0  0  0  0  0  0  0  0
   -3.9230   19.1590  -24.9240 H   0  0  0  0  0  0  0  0  0  0  0  0
   -0.5820   18.5660  -27.3960 H   0  0  0  0  0  0  0  0  0  0  0  0
   -1.2370   17.2540  -26.3770 H   0  0  0  0  0  0  0  0  0  0  0  0
   -0.3875   21.0430  -25.8492 H   0  0  0  0  0  0  0  0  0  0  0  0
   -0.5364   23.3946  -26.6581 H   0  0  0  0  0  0  0  0  0  0  0  0
   -1.2201   21.8874  -29.2095 H   0  0  0  0  0  0  0  0  0  0  0  0
  1  2  2  3
  2  3  1  0
  3  4  2  0
  4  5  1  0
  5  6  1  0
  6  7  1  0
  7  8  1  0
  7  9  1  0
  9 10  2  0
  9 11  1  0
 11 12  1  0
 12 13  1  0
 13 14  1  0
 14 15  1  0
 15 16  1  0
 16 17  2  0
 16 18  1  0
 18 19  1  0
 19 20  1  0
 20 21  2  0
 21 22  1  0
 22 23  2  0
 23 24  1  0
 24 25  1  0
 24 26  2  0
 23 27  1  0
 27 28  2  0
  5 29  2  0
 29 30  1  0
 30  2  1  0
 15 11  1  0
 28 20  1  0
  1 31  1  0
  3 32  1  0
  4 33  1  0
  6 34  1  0
  6 35  1  0
  7 36  1  1
  8 37  1  0
  8 38  1  0
 11 39  1  1
 12 40  1  0
 12 41  1  0
 13 42  1  0
 13 43  1  0
 14 44  1  0
 14 45  1  0
 15 46  1  1
 19 47  1  0
 19 48  1  0
 21 49  1  0
 22 50  1  0
 25 51  1  0
 25 52  1  0
 26 53  1  0
 26 54  1  0
 27 55  1  0
 28 56  1  0
 29 57  1  0
M  CHG  4  11   1  18  -1  26   1  30  -1
M  END
>  <UniqueID>  (25) 
25

>  <SMILES>  (25) 
N=c1ccc(C[C@H](N)C(=O)[N@@H+]2CCCC2C(=O)[N-]Cc2ccc(C(N)=[NH2+])cc2)c[n-]1

>  <Energy>  (25) 
73.1402118216322

>  <Genealogy>  (25) 
N=c1ccc(CC(N)C(=O)[NH+]2CCCC2C(=O)[N-]Cc2ccc(C(N)=[NH2+])cc2)c[n-]1 (protonated)
N=c1ccc(C[C@H](N)C(=O)[N@@H+]2CCCC2C(=O)[N-]Cc2ccc(C(N)=[NH2+])cc2)c[n-]1 (chirality)
N=c1ccc(C[C@H](N)C(=O)[N@@H+]2CCCC2C(=O)[N-]Cc2ccc(C(N)=[NH2+])cc2)c[n-]1 (3D coordinates assigned)
N=c1ccc(C[C@H](N)C(=O)[N@@H+]2CCCC2C(=O)[N-]Cc2ccc(C(N)=[NH2+])cc2)c[n-]1 (nonaromatic ring conformer: 73.1402118216322 kcal/mol)

>  <smiles>  (25) 
N=C(N)c1ccc(CNC(=O)C2CCCN2C(=O)C(N)Cc2ccc(=N)[nH]c2)cc1

>  <score_type>  (25) 
oracle

>  <origin>  (25) 
adgpu

>  <m_score__min__energy>  (25) 
-10.32

>  <m_primary>  (25) 
energy

$$$$
25:0
     RDKit          3D

 65 69  0  0  0  0  0  0  0  0999 V2000
   -0.8480   23.3610  -29.7390 O   0  0  0  0  0  0  0  0  0  0  0  0
   -1.4730   24.0440  -28.8850 C   0  0  0  0  0  0  0  0  0  0  0  0
   -2.5300   24.9020  -29.3350 N   0  0  0  0  0  0  0  0  0  0  0  0
   -3.7990   24.5030  -29.8670 C   0  0  0  0  0  0  0  0  0  0  0  0
   -4.6160   25.4920  -30.4340 C   0  0  0  0  0  0  0  0  0  0  0  0
   -5.8740   25.1660  -30.9490 C   0  0  0  0  0  0  0  0  0  0  0  0
   -6.3170   23.8440  -30.9230 C   0  0  0  0  0  0  0  0  0  0  0  0
   -5.4880   22.8390  -30.4180 C   0  0  0  0  0  0  0  0  0  0  0  0
   -4.2170   23.1530  -29.9160 C   0  0  0  0  0  0  0  0  0  0  0  0
   -3.1290   21.7930  -29.4700 S   0  0  0  0  0  0  0  0  0  0  0  0
   -2.9450   21.2460  -31.1670 C   0  0  0  0  0  0  0  0  0  0  0  0
   -3.9680   20.5110  -31.7830 C   0  0  0  0  0  0  0  0  0  0  0  0
   -3.8220   20.0860  -33.1080 C   0  0  0  0  0  0  0  0  0  0  0  0
   -2.6560   20.3970  -33.8170 C   0  0  0  0  0  0  0  0  0  0  0  0
   -1.6460   21.1460  -33.2090 C   0  0  0  0  0  0  0  0  0  0  0  0
   -1.7900   21.5730  -31.8860 C   0  0  0  0  0  0  0  0  0  0  0  0
   -1.0800   23.9310  -27.4620 C   0  0  0  0  0  0  0  0  0  0  0  0
   -1.0190   25.1210  -26.7150 C   0  0  0  0  0  0  0  0  0  0  0  0
   -0.5940   25.1120  -25.3830 C   0  0  0  0  0  0  0  0  0  0  0  0
   -0.4370   26.6200  -24.4840 S   0  0  0  0  0  0  0  0  0  0  0  0
   -1.6340   26.8040  -23.5910 O   0  0  0  0  0  0  0  0  0  0  0  0
   -0.3960   27.7570  -25.4680 O   0  0  0  0  0  0  0  0  0  0  0  0
    1.0360   26.6090  -23.5370 N   0  0  0  0  0  0  0  0  0  0  0  0
    2.2050   26.3630  -24.3920 C   0  0  0  0  0  0  0  0  0  0  0  0
    2.7550   27.7200  -24.8170 C   0  0  0  0  0  0  0  0  0  0  0  0
    2.1420   28.7280  -23.8580 C   0  0  0  0  0  0  0  0  0  0  0  0
    1.2770   27.9130  -22.9080 C   0  0  0  0  0  0  0  0  0  0  0  0
   -0.2780   23.9020  -24.7680 C   0  0  0  0  0  0  0  0  0  0  0  0
   -0.3790   22.7070  -25.4780 C   0  0  0  0  0  0  0  0  0  0  0  0
   -0.7770   22.6940  -26.8300 C   0  0  0  0  0  0  0  0  0  0  0  0
   -0.9450   21.4210  -27.4950 N   0  0  0  0  0  0  0  0  0  0  0  0
   -0.0250   21.0580  -28.5830 C   0  0  0  0  0  0  0  0  0  0  0  0
   -0.3480   19.6730  -29.1180 C   0  0  0  0  0  0  0  0  0  0  0  0
   -0.4440   18.7890  -28.0280 O   0  0  0  0  0  0  0  0  0  0  0  0
   -1.6680   18.9960  -27.3500 C   0  0  0  0  0  0  0  0  0  0  0  0
   -1.9860   20.4840  -27.0320 C   0  0  0  0  0  0  0  0  0  0  0  0
   -4.2638   26.5333  -30.4738 H   0  0  0  0  0  0  0  0  0  0  0  0
   -6.5146   25.9524  -31.3748 H   0  0  0  0  0  0  0  0  0  0  0  0
   -7.3192   23.5923  -31.3001 H   0  0  0  0  0  0  0  0  0  0  0  0
   -5.8346   21.7950  -30.4142 H   0  0  0  0  0  0  0  0  0  0  0  0
   -4.8845   20.2688  -31.2250 H   0  0  0  0  0  0  0  0  0  0  0  0
   -4.6229   19.5079  -33.5921 H   0  0  0  0  0  0  0  0  0  0  0  0
   -2.5349   20.0512  -34.8542 H   0  0  0  0  0  0  0  0  0  0  0  0
   -0.7359   21.4002  -33.7722 H   0  0  0  0  0  0  0  0  0  0  0  0
   -0.9953   22.1662  -31.4099 H   0  0  0  0  0  0  0  0  0  0  0  0
   -1.3097   26.0720  -27.1852 H   0  0  0  0  0  0  0  0  0  0  0  0
    0.9530   25.8620  -22.8060 H   0  0  0  0  0  0  0  0  0  0  0  0
    2.9702   25.8065  -23.8310 H   0  0  0  0  0  0  0  0  0  0  0  0
    1.9230   25.7662  -25.2719 H   0  0  0  0  0  0  0  0  0  0  0  0
    3.8520   27.7319  -24.7370 H   0  0  0  0  0  0  0  0  0  0  0  0
    2.5064   27.9504  -25.8635 H   0  0  0  0  0  0  0  0  0  0  0  0
    2.9297   29.2575  -23.3019 H   0  0  0  0  0  0  0  0  0  0  0  0
    1.5555   29.4919  -24.3895 H   0  0  0  0  0  0  0  0  0  0  0  0
    1.7986   27.7765  -21.9492 H   0  0  0  0  0  0  0  0  0  0  0  0
    0.3258   28.4294  -22.7117 H   0  0  0  0  0  0  0  0  0  0  0  0
    0.0522   23.8901  -23.7188 H   0  0  0  0  0  0  0  0  0  0  0  0
   -0.1441   21.7576  -24.9745 H   0  0  0  0  0  0  0  0  0  0  0  0
   -0.1211   21.7913  -29.3972 H   0  0  0  0  0  0  0  0  0  0  0  0
    1.0030   21.0557  -28.1917 H   0  0  0  0  0  0  0  0  0  0  0  0
   -1.3039   19.6980  -29.6617 H   0  0  0  0  0  0  0  0  0  0  0  0
    0.4417   19.3397  -29.8074 H   0  0  0  0  0  0  0  0  0  0  0  0
   -2.4795   18.5978  -27.9769 H   0  0  0  0  0  0  0  0  0  0  0  0
   -1.5798   18.4814  -26.3818 H   0  0  0  0  0  0  0  0  0  0  0  0
   -2.9351   20.7491  -27.5207 H   0  0  0  0  0  0  0  0  0  0  0  0
   -2.0399   20.5761  -25.9372 H   0  0  0  0  0  0  0  0  0  0  0  0
  1  2  2  0
  2  3  1  0
  3  4  1  0
  4  5  2  0
  5  6  1  0
  6  7  2  0
  7  8  1  0
  8  9  2  0
  9 10  1  0
 10 11  1  0
 11 12  2  0
 12 13  1  0
 13 14  2  0
 14 15  1  0
 15 16  2  0
  2 17  1  0
 17 18  2  0
 18 19  1  0
 19 20  1  0
 20 21  2  0
 20 22  2  0
 20 23  1  0
 23 24  1  0
 24 25  1  0
 25 26  1  0
 26 27  1  0
 19 28  2  0
 28 29  1  0
 29 30  2  0
 30 31  1  0
 31 32  1  0
 32 33  1  0
 33 34  1  0
 34 35  1  0
 35 36  1  0
  9  4  1  0
 16 11  1  0
 30 17  1  0
 36 31  1  0
 27 23  1  0
  5 37  1  0
  6 38  1  0
  7 39  1  0
  8 40  1  0
 12 41  1  0
 13 42  1  0
 14 43  1  0
 15 44  1  0
 16 45  1  0
 18 46  1  0
 23 47  1  0
 24 48  1  0
 24 49  1  0
 25 50  1  0
 25 51  1  0
 26 52  1  0
 26 53  1  0
 27 54  1  0
 27 55  1  0
 28 56  1  0
 29 57  1  0
 32 58  1  0
 32 59  1  0
 33 60  1  0
 33 61  1  0
 35 62  1  0
 35 63  1  0
 36 64  1  0
 36 65  1  0
M  CHG  2   3  -1  23   1
M  END
>  <UniqueID>  (26) 
26

>  <SMILES>  (26) 
O=C([N-]c1ccccc1Sc1ccccc1)c1cc(S(=O)(=O)[NH+]2CCCC2)ccc1N1CCOCC1

>  <Energy>  (26) 
88.03926776752566

>  <Genealogy>  (26) 
O=C([N-]c1ccccc1Sc1ccccc1)c1cc(S(=O)(=O)[NH+]2CCCC2)ccc1N1CCOCC1 (protonated)
O=C([N-]c1ccccc1Sc1ccccc1)c1cc(S(=O)(=O)[NH+]2CCCC2)ccc1N1CCOCC1 (3D coordinates assigned)
O=C([N-]c1ccccc1Sc1ccccc1)c1cc(S(=O)(=O)[NH+]2CCCC2)ccc1N1CCOCC1 (nonaromatic ring conformer: 88.03926776752566 kcal/mol)

>  <smiles>  (26) 
O=C(Nc1ccccc1Sc1ccccc1)c1cc(S(=O)(=O)N2CCCC2)ccc1N1CCOCC1

>  <score_type>  (26) 
oracle

>  <origin>  (26) 
adgpu

>  <m_score__min__energy>  (26) 
-11.52

>  <m_primary>  (26) 
energy

$$$$
26:0
     RDKit          3D

 46 47  0  0  0  0  0  0  0  0999 V2000
   -2.4070   18.9220  -26.6190 C   0  0  0  0  0  0  0  0  0  0  0  0
   -3.1040   20.1690  -27.1650 C   0  0  0  0  0  0  0  0  0  0  0  0
   -2.9200   20.3270  -28.6810 C   0  0  0  0  0  0  0  0  0  0  0  0
   -3.1650   21.7460  -29.1390 C   0  0  0  0  0  0  0  0  0  0  0  0
   -4.1160   22.0000  -30.1340 C   0  0  0  0  0  0  0  0  0  0  0  0
   -4.3480   23.3030  -30.5950 C   0  0  0  0  0  0  0  0  0  0  0  0
   -5.4170   23.5440  -31.6340 C   0  0  0  0  0  0  0  0  0  0  0  0
   -6.2060   22.2810  -31.8900 C   0  0  0  0  0  0  0  0  0  0  0  0
   -7.4770   22.1390  -31.3140 C   0  0  0  0  0  0  0  0  0  0  0  0
   -8.2350   20.9910  -31.5440 C   0  0  0  0  0  0  0  0  0  0  0  0
   -7.7420   19.9690  -32.3620 C   0  0  0  0  0  0  0  0  0  0  0  0
   -8.5040   18.8190  -32.5700 O   0  0  0  0  0  0  0  0  0  0  0  0
   -6.4770   20.1030  -32.9690 C   0  0  0  0  0  0  0  0  0  0  0  0
   -5.9260   18.9920  -33.8240 C   0  0  0  0  0  0  0  0  0  0  0  0
   -5.7020   21.2520  -32.7120 C   0  0  0  0  0  0  0  0  0  0  0  0
   -4.4290   21.3630  -33.2670 O   0  0  0  0  0  0  0  0  0  0  0  0
   -3.6160   24.3720  -30.0440 C   0  0  0  0  0  0  0  0  0  0  0  0
   -3.8800   25.6710  -30.4640 O   0  0  0  0  0  0  0  0  0  0  0  0
   -2.6370   24.1320  -29.0570 C   0  0  0  0  0  0  0  0  0  0  0  0
   -1.8460   25.2450  -28.4750 C   0  0  0  0  0  0  0  0  0  0  0  0
   -1.2250   26.0290  -29.2440 O   0  0  0  0  0  0  0  0  0  0  0  0
   -1.8160   25.5090  -26.9940 C   0  0  0  0  0  0  0  0  0  0  0  0
   -3.1610   25.1940  -26.3470 C   0  0  0  0  0  0  0  0  0  0  0  0
   -2.4200   22.8140  -28.6060 C   0  0  0  0  0  0  0  0  0  0  0  0
   -1.4510   22.5600  -27.6370 O   0  0  0  0  0  0  0  0  0  0  0  0
   -2.4205   18.9462  -25.5193 H   0  0  0  0  0  0  0  0  0  0  0  0
   -2.9336   18.0232  -26.9725 H   0  0  0  0  0  0  0  0  0  0  0  0
   -1.3656   18.8996  -26.9725 H   0  0  0  0  0  0  0  0  0  0  0  0
   -4.1795   20.0970  -26.9455 H   0  0  0  0  0  0  0  0  0  0  0  0
   -2.6508   21.0458  -26.6794 H   0  0  0  0  0  0  0  0  0  0  0  0
   -1.8909   20.0419  -28.9449 H   0  0  0  0  0  0  0  0  0  0  0  0
   -3.6547   19.6784  -29.1806 H   0  0  0  0  0  0  0  0  0  0  0  0
   -4.6900   21.1643  -30.5606 H   0  0  0  0  0  0  0  0  0  0  0  0
   -6.0987   24.3294  -31.2756 H   0  0  0  0  0  0  0  0  0  0  0  0
   -4.9350   23.8566  -32.5720 H   0  0  0  0  0  0  0  0  0  0  0  0
   -7.8792   22.9395  -30.6757 H   0  0  0  0  0  0  0  0  0  0  0  0
   -9.2267   20.8887  -31.0792 H   0  0  0  0  0  0  0  0  0  0  0  0
   -8.9010   18.6010  -33.4770 H   0  0  0  0  0  0  0  0  0  0  0  0
   -5.5303   18.1942  -33.1783 H   0  0  0  0  0  0  0  0  0  0  0  0
   -6.7273   18.5862  -34.4590 H   0  0  0  0  0  0  0  0  0  0  0  0
   -5.1180   19.3843  -34.4590 H   0  0  0  0  0  0  0  0  0  0  0  0
   -1.0407   24.8791  -26.5335 H   0  0  0  0  0  0  0  0  0  0  0  0
   -1.5962   26.5752  -26.8360 H   0  0  0  0  0  0  0  0  0  0  0  0
   -3.0560   25.2186  -25.2523 H   0  0  0  0  0  0  0  0  0  0  0  0
   -3.9033   25.9426  -26.6611 H   0  0  0  0  0  0  0  0  0  0  0  0
   -3.4936   24.1936  -26.6611 H   0  0  0  0  0  0  0  0  0  0  0  0
  1  2  1  0
  2  3  1  0
  3  4  1  0
  4  5  2  0
  5  6  1  0
  6  7  1  0
  7  8  1  0
  8  9  2  0
  9 10  1  0
 10 11  2  0
 11 12  1  0
 11 13  1  0
 13 14  1  0
 13 15  2  0
 15 16  1  0
  6 17  2  0
 17 18  1  0
 17 19  1  0
 19 20  1  0
 20 21  2  0
 20 22  1  0
 22 23  1  0
 19 24  2  0
 24 25  1  0
 24  4  1  0
 15  8  1  0
  1 26  1  0
  1 27  1  0
  1 28  1  0
  2 29  1  0
  2 30  1  0
  3 31  1  0
  3 32  1  0
  5 33  1  0
  7 34  1  0
  7 35  1  0
  9 36  1  0
 10 37  1  0
 12 38  1  0
 14 39  1  0
 14 40  1  0
 14 41  1  0
 22 42  1  0
 22 43  1  0
 23 44  1  0
 23 45  1  0
 23 46  1  0
M  CHG  3  16  -1  18  -1  25  -1
M  END
>  <UniqueID>  (27) 
27

>  <SMILES>  (27) 
CCCc1cc(Cc2ccc(O)c(C)c2[O-])c([O-])c(C(=O)CC)c1[O-]

>  <Energy>  (27) 
45.728076888760846

>  <Genealogy>  (27) 
CCCc1cc(Cc2ccc(O)c(C)c2[O-])c([O-])c(C(=O)CC)c1[O-] (protonated)
CCCc1cc(Cc2ccc(O)c(C)c2[O-])c([O-])c(C(=O)CC)c1[O-] (3D coordinates assigned)
CCCc1cc(Cc2ccc(O)c(C)c2[O-])c([O-])c(C(=O)CC)c1[O-] (optimized conformer: 45.728076888760846 kcal/mol)

>  <smiles>  (27) 
CCCc1cc(Cc2ccc(O)c(C)c2O)c(O)c(C(=O)CC)c1O

>  <score_type>  (27) 
oracle

>  <origin>  (27) 
adgpu

>  <m_score__min__energy>  (27) 
-12.06

>  <m_primary>  (27) 
energy

$$$$
27:0
     RDKit          3D

 50 53  0  0  0  0  0  0  0  0999 V2000
   -4.2260   25.3010  -31.2150 O   0  0  0  0  0  0  0  0  0  0  0  0
   -5.3370   24.8580  -30.3010 S   0  0  0  0  0  0  0  0  0  0  0  0
   -6.2660   26.0230  -30.0980 O   0  0  0  0  0  0  0  0  0  0  0  0
   -4.7010   24.3740  -28.7580 N   0  0  0  0  0  0  0  0  0  0  0  0
   -3.5610   23.5250  -28.5490 C   0  0  0  0  0  0  0  0  0  0  0  0
   -3.6870   22.2110  -28.0700 C   0  0  0  0  0  0  0  0  0  0  0  0
   -2.5540   21.4070  -27.8700 C   0  0  0  0  0  0  0  0  0  0  0  0
   -1.2760   21.9150  -28.1800 C   0  0  0  0  0  0  0  0  0  0  0  0
   -1.1500   23.2240  -28.6650 C   0  0  0  0  0  0  0  0  0  0  0  0
   -2.2860   24.0170  -28.8650 C   0  0  0  0  0  0  0  0  0  0  0  0
   -2.1420   25.2990  -29.3820 O   0  0  0  0  0  0  0  0  0  0  0  0
   -0.0370   21.0930  -27.9010 C   0  0  0  0  0  0  0  0  0  0  0  0
   -0.3210   19.6510  -27.9000 N   0  0  0  0  0  0  0  0  0  0  0  0
   -1.4150   19.3450  -26.9660 C   0  0  0  0  0  0  0  0  0  0  0  0
   -2.7350   19.9720  -27.4400 C   0  0  0  0  0  0  0  0  0  0  0  0
   -6.2440   23.5230  -31.0100 C   0  0  0  0  0  0  0  0  0  0  0  0
   -7.6270   23.6500  -31.2140 C   0  0  0  0  0  0  0  0  0  0  0  0
   -8.3590   22.5870  -31.7500 C   0  0  0  0  0  0  0  0  0  0  0  0
   -7.7180   21.3860  -32.0700 C   0  0  0  0  0  0  0  0  0  0  0  0
   -6.3390   21.2440  -31.8620 C   0  0  0  0  0  0  0  0  0  0  0  0
   -5.5490   19.7190  -32.2630 S   0  0  0  0  0  0  0  0  0  0  0  0
   -6.0150   19.2750  -33.6240 O   0  0  0  0  0  0  0  0  0  0  0  0
   -5.9220   18.6630  -31.2580 O   0  0  0  0  0  0  0  0  0  0  0  0
   -3.8170   19.9550  -32.2830 N   0  0  0  0  0  0  0  0  0  0  0  0
   -3.4270   20.9550  -33.2810 C   0  0  0  0  0  0  0  0  0  0  0  0
   -2.1280   21.5790  -32.7870 C   0  0  0  0  0  0  0  0  0  0  0  0
   -2.0730   21.2720  -31.2950 C   0  0  0  0  0  0  0  0  0  0  0  0
   -3.3340   20.4690  -30.9990 C   0  0  0  0  0  0  0  0  0  0  0  0
   -5.6010   22.3200  -31.3450 C   0  0  0  0  0  0  0  0  0  0  0  0
   -4.6859   21.8068  -27.8488 H   0  0  0  0  0  0  0  0  0  0  0  0
   -0.1528   23.6304  -28.8897 H   0  0  0  0  0  0  0  0  0  0  0  0
    0.7129   21.3066  -28.6769 H   0  0  0  0  0  0  0  0  0  0  0  0
    0.3342   21.3666  -26.9023 H   0  0  0  0  0  0  0  0  0  0  0  0
   -0.5980   19.3580  -28.8680 H   0  0  0  0  0  0  0  0  0  0  0  0
   -1.5379   18.2538  -26.9011 H   0  0  0  0  0  0  0  0  0  0  0  0
   -1.1621   19.7636  -25.9807 H   0  0  0  0  0  0  0  0  0  0  0  0
   -3.1189   19.3913  -28.2917 H   0  0  0  0  0  0  0  0  0  0  0  0
   -3.4422   19.9552  -26.5976 H   0  0  0  0  0  0  0  0  0  0  0  0
   -8.1361   24.5890  -30.9512 H   0  0  0  0  0  0  0  0  0  0  0  0
   -9.4403   22.6951  -31.9203 H   0  0  0  0  0  0  0  0  0  0  0  0
   -8.2982   20.5494  -32.4866 H   0  0  0  0  0  0  0  0  0  0  0  0
   -3.2699   20.4749  -34.2581 H   0  0  0  0  0  0  0  0  0  0  0  0
   -4.2105   21.7168  -33.4066 H   0  0  0  0  0  0  0  0  0  0  0  0
   -1.2657   21.1325  -33.3038 H   0  0  0  0  0  0  0  0  0  0  0  0
   -2.0932   22.6607  -32.9835 H   0  0  0  0  0  0  0  0  0  0  0  0
   -1.1761   20.6814  -31.0566 H   0  0  0  0  0  0  0  0  0  0  0  0
   -2.0217   22.1897  -30.6907 H   0  0  0  0  0  0  0  0  0  0  0  0
   -3.1018   19.6352  -30.3201 H   0  0  0  0  0  0  0  0  0  0  0  0
   -4.0961   21.0947  -30.5114 H   0  0  0  0  0  0  0  0  0  0  0  0
   -4.5149   22.2208  -31.2016 H   0  0  0  0  0  0  0  0  0  0  0  0
  1  2  2  0
  2  3  2  0
  2  4  1  0
  4  5  1  0
  5  6  2  0
  6  7  1  0
  7  8  2  0
  8  9  1  0
  9 10  2  0
 10 11  1  0
  8 12  1  0
 12 13  1  0
 13 14  1  0
 14 15  1  0
  2 16  1  0
 16 17  2  0
 17 18  1  0
 18 19  2  0
 19 20  1  0
 20 21  1  0
 21 22  2  0
 21 23  2  0
 21 24  1  0
 24 25  1  0
 25 26  1  0
 26 27  1  0
 27 28  1  0
 20 29  2  0
 10  5  1  0
 29 16  1  0
 15  7  1  0
 28 24  1  0
  6 30  1  0
  9 31  1  0
 12 32  1  0
 12 33  1  0
 13 34  1  0
 14 35  1  0
 14 36  1  0
 15 37  1  0
 15 38  1  0
 17 39  1  0
 18 40  1  0
 19 41  1  0
 25 42  1  0
 25 43  1  0
 26 44  1  0
 26 45  1  0
 27 46  1  0
 27 47  1  0
 28 48  1  0
 28 49  1  0
 29 50  1  0
M  CHG  2   4  -1  11  -1
M  END
>  <UniqueID>  (28) 
28

>  <SMILES>  (28) 
O=S(=O)([N-]c1cc2c(cc1[O-])CNCC2)c1cccc(S(=O)(=O)N2CCCC2)c1

>  <Energy>  (28) 
58.87849729246895

>  <Genealogy>  (28) 
O=S(=O)([N-]c1cc2c(cc1[O-])CNCC2)c1cccc(S(=O)(=O)N2CCCC2)c1 (protonated)
O=S(=O)([N-]c1cc2c(cc1[O-])CNCC2)c1cccc(S(=O)(=O)N2CCCC2)c1 (3D coordinates assigned)
O=S(=O)([N-]c1cc2c(cc1[O-])CNCC2)c1cccc(S(=O)(=O)N2CCCC2)c1 (nonaromatic ring conformer: 58.87849729246895 kcal/mol)

>  <smiles>  (28) 
O=S(=O)(Nc1cc2c(cc1O)CNCC2)c1cccc(S(=O)(=O)N2CCCC2)c1

>  <score_type>  (28) 
oracle

>  <origin>  (28) 
adgpu

>  <m_score__min__energy>  (28) 
-14.99

>  <m_primary>  (28) 
energy

$$$$
28:0
     RDKit          3D

 62 66  0  0  0  0  0  0  0  0999 V2000
   -5.7320   15.3350  -34.2020 C   0  0  0  0  0  0  0  0  0  0  0  0
   -5.2330   16.6910  -33.9250 N   0  0  0  0  0  0  0  0  0  0  0  0
   -5.3160   17.0080  -32.4770 C   0  0  0  0  0  0  0  0  0  0  0  0
   -6.6070   17.7450  -32.0990 C   0  0  0  0  0  0  0  0  0  0  0  0
   -6.7800   18.9340  -32.9360 N   0  0  0  0  0  0  0  0  0  0  0  0
   -7.6130   20.0050  -32.4770 C   0  0  0  0  0  0  0  0  0  0  0  0
   -8.9970   19.9230  -32.6720 C   0  0  0  0  0  0  0  0  0  0  0  0
   -9.8270   20.9900  -32.3220 C   0  0  0  0  0  0  0  0  0  0  0  0
   -9.2820   22.1570  -31.7840 C   0  0  0  0  0  0  0  0  0  0  0  0
   -7.9000   22.2580  -31.5720 C   0  0  0  0  0  0  0  0  0  0  0  0
   -7.3470   23.4410  -31.0530 C   0  0  0  0  0  0  0  0  0  0  0  0
   -5.9680   23.5380  -30.8260 C   0  0  0  0  0  0  0  0  0  0  0  0
   -5.2570   25.0540  -30.2650 S   0  0  0  0  0  0  0  0  0  0  0  0
   -5.6800   25.3440  -28.8530 O   0  0  0  0  0  0  0  0  0  0  0  0
   -5.7360   26.1820  -31.1350 O   0  0  0  0  0  0  0  0  0  0  0  0
   -3.5290   24.9640  -30.3850 N   0  0  0  0  0  0  0  0  0  0  0  0
   -2.6860   24.2160  -29.4980 C   0  0  0  0  0  0  0  0  0  0  0  0
   -3.0030   22.9020  -29.1190 C   0  0  0  0  0  0  0  0  0  0  0  0
   -2.1320   22.1570  -28.3120 C   0  0  0  0  0  0  0  0  0  0  0  0
   -0.9220   22.7330  -27.8790 C   0  0  0  0  0  0  0  0  0  0  0  0
   -0.6420   24.0710  -28.1960 C   0  0  0  0  0  0  0  0  0  0  0  0
   -1.5180   24.8100  -29.0020 C   0  0  0  0  0  0  0  0  0  0  0  0
   -1.2200   26.1310  -29.3310 O   0  0  0  0  0  0  0  0  0  0  0  0
    0.0360   21.9610  -27.0030 C   0  0  0  0  0  0  0  0  0  0  0  0
   -0.1390   20.4980  -27.1110 N   0  0  0  0  0  0  0  0  0  0  0  0
    0.4460   19.9610  -28.3540 C   0  0  0  0  0  0  0  0  0  0  0  0
   -1.5530   20.1140  -26.9350 C   0  0  0  0  0  0  0  0  0  0  0  0
   -2.4630   20.7180  -28.0150 C   0  0  0  0  0  0  0  0  0  0  0  0
   -5.1450   22.4370  -31.0940 C   0  0  0  0  0  0  0  0  0  0  0  0
   -5.6780   21.2680  -31.6370 C   0  0  0  0  0  0  0  0  0  0  0  0
   -7.0550   21.1670  -31.8980 C   0  0  0  0  0  0  0  0  0  0  0  0
   -6.0250   19.0660  -34.1820 C   0  0  0  0  0  0  0  0  0  0  0  0
   -5.8740   17.6830  -34.8270 C   0  0  0  0  0  0  0  0  0  0  0  0
   -5.9238   14.8138  -33.2525 H   0  0  0  0  0  0  0  0  0  0  0  0
   -6.6655   15.3988  -34.7803 H   0  0  0  0  0  0  0  0  0  0  0  0
   -4.9798   14.7785  -34.7803 H   0  0  0  0  0  0  0  0  0  0  0  0
   -5.2700   16.0672  -31.9088 H   0  0  0  0  0  0  0  0  0  0  0  0
   -4.4740   17.6738  -32.2367 H   0  0  0  0  0  0  0  0  0  0  0  0
   -7.4646   17.0716  -32.2443 H   0  0  0  0  0  0  0  0  0  0  0  0
   -6.5448   18.0561  -31.0458 H   0  0  0  0  0  0  0  0  0  0  0  0
   -9.4340   19.0108  -33.1044 H   0  0  0  0  0  0  0  0  0  0  0  0
  -10.9140   20.9106  -32.4708 H   0  0  0  0  0  0  0  0  0  0  0  0
   -9.9392   23.0003  -31.5255 H   0  0  0  0  0  0  0  0  0  0  0  0
   -8.0005   24.2956  -30.8237 H   0  0  0  0  0  0  0  0  0  0  0  0
   -3.9468   22.4513  -29.4596 H   0  0  0  0  0  0  0  0  0  0  0  0
    0.2727   24.5435  -27.8086 H   0  0  0  0  0  0  0  0  0  0  0  0
   -1.2480   26.4590  -30.2900 H   0  0  0  0  0  0  0  0  0  0  0  0
    1.0646   22.2144  -27.2992 H   0  0  0  0  0  0  0  0  0  0  0  0
   -0.1703   22.2423  -25.9598 H   0  0  0  0  0  0  0  0  0  0  0  0
    1.2353   19.2365  -28.1047 H   0  0  0  0  0  0  0  0  0  0  0  0
   -0.3379   19.4614  -28.9422 H   0  0  0  0  0  0  0  0  0  0  0  0
    0.8769   20.7847  -28.9422 H   0  0  0  0  0  0  0  0  0  0  0  0
   -1.6296   19.0176  -26.9813 H   0  0  0  0  0  0  0  0  0  0  0  0
   -1.8866   20.5008  -25.9608 H   0  0  0  0  0  0  0  0  0  0  0  0
   -2.3497   20.1323  -28.9392 H   0  0  0  0  0  0  0  0  0  0  0  0
   -3.4958   20.6844  -27.6378 H   0  0  0  0  0  0  0  0  0  0  0  0
   -4.0687   22.4947  -30.8743 H   0  0  0  0  0  0  0  0  0  0  0  0
   -5.0157   20.4192  -31.8625 H   0  0  0  0  0  0  0  0  0  0  0  0
   -6.5626   19.7360  -34.8691 H   0  0  0  0  0  0  0  0  0  0  0  0
   -5.0308   19.4861  -33.9698 H   0  0  0  0  0  0  0  0  0  0  0  0
   -6.8727   17.3132  -35.1022 H   0  0  0  0  0  0  0  0  0  0  0  0
   -5.2234   17.7982  -35.7064 H   0  0  0  0  0  0  0  0  0  0  0  0
  1  2  1  0
  2  3  1  0
  3  4  1  0
  4  5  1  0
  5  6  1  0
  6  7  2  0
  7  8  1  0
  8  9  2  0
  9 10  1  0
 10 11  2  0
 11 12  1  0
 12 13  1  0
 13 14  2  0
 13 15  2  0
 13 16  1  0
 16 17  1  0
 17 18  2  0
 18 19  1  0
 19 20  2  0
 20 21  1  0
 21 22  2  0
 22 23  1  0
 20 24  1  0
 24 25  1  0
 25 26  1  0
 25 27  1  0
 27 28  1  0
 12 29  2  0
 29 30  1  0
 30 31  2  0
  5 32  1  0
 32 33  1  0
 33  2  1  0
 31  6  1  0
 31 10  1  0
 22 17  1  0
 28 19  1  0
  1 34  1  0
  1 35  1  0
  1 36  1  0
  3 37  1  0
  3 38  1  0
  4 39  1  0
  4 40  1  0
  7 41  1  0
  8 42  1  0
  9 43  1  0
 11 44  1  0
 18 45  1  0
 21 46  1  0
 23 47  1  0
 24 48  1  0
 24 49  1  0
 26 50  1  0
 26 51  1  0
 26 52  1  0
 27 53  1  0
 27 54  1  0
 28 55  1  0
 28 56  1  0
 29 57  1  0
 30 58  1  0
 32 59  1  0
 32 60  1  0
 33 61  1  0
 33 62  1  0
M  CHG  1  16  -1
M  END
>  <UniqueID>  (29) 
29

>  <SMILES>  (29) 
CN1CCN(c2cccc3cc(S(=O)(=O)[N-]c4cc5c(cc4O)CN(C)CC5)ccc23)CC1

>  <Energy>  (29) 
92.57422266536881

>  <Genealogy>  (29) 
CN1CCN(c2cccc3cc(S(=O)(=O)[N-]c4cc5c(cc4O)CN(C)CC5)ccc23)CC1 (protonated)
CN1CCN(c2cccc3cc(S(=O)(=O)[N-]c4cc5c(cc4O)CN(C)CC5)ccc23)CC1 (3D coordinates assigned)
CN1CCN(c2cccc3cc(S(=O)(=O)[N-]c4cc5c(cc4O)CN(C)CC5)ccc23)CC1 (nonaromatic ring conformer: 92.57422266536881 kcal/mol)

>  <smiles>  (29) 
CN1CCN(c2cccc3cc(S(=O)(=O)Nc4cc5c(cc4O)CN(C)CC5)ccc23)CC1

>  <score_type>  (29) 
oracle

>  <origin>  (29) 
adgpu

>  <m_score__min__energy>  (29) 
-14.94

>  <m_primary>  (29) 
energy

$$$$
29:0
     RDKit          3D

 50 53  0  0  0  0  0  0  0  0999 V2000
    1.5200   12.3700  -25.5720 C   0  0  0  0  0  0  0  0  0  0  0  0
    2.5310   12.9710  -26.9050 S   0  0  0  0  0  0  0  0  0  0  0  0
    2.5690   11.9500  -28.0080 O   0  0  0  0  0  0  0  0  0  0  0  0
    3.9320   13.1980  -26.4110 O   0  0  0  0  0  0  0  0  0  0  0  0
    1.8610   14.4810  -27.5120 C   0  0  0  0  0  0  0  0  0  0  0  0
    1.4110   15.4620  -26.6210 C   0  0  0  0  0  0  0  0  0  0  0  0
    0.8910   16.6660  -27.1030 C   0  0  0  0  0  0  0  0  0  0  0  0
    0.8200   16.9160  -28.4860 C   0  0  0  0  0  0  0  0  0  0  0  0
    0.2630   18.2040  -28.9760 C   0  0  0  0  0  0  0  0  0  0  0  0
    0.7080   18.8730  -30.1220 C   0  0  0  0  0  0  0  0  0  0  0  0
   -0.1960   20.2800  -30.2990 S   0  0  0  0  0  0  0  0  0  0  0  0
   -1.1040   19.9930  -28.9080 C   0  0  0  0  0  0  0  0  0  0  0  0
   -2.0800   20.7280  -28.4600 N   0  0  0  0  0  0  0  0  0  0  0  0
   -2.5110   21.9890  -28.9920 C   0  0  0  0  0  0  0  0  0  0  0  0
   -1.7540   23.1590  -28.8170 C   0  0  0  0  0  0  0  0  0  0  0  0
   -2.2210   24.3790  -29.3110 C   0  0  0  0  0  0  0  0  0  0  0  0
   -3.4540   24.4490  -29.9680 C   0  0  0  0  0  0  0  0  0  0  0  0
   -3.8920   25.6770  -30.4520 O   0  0  0  0  0  0  0  0  0  0  0  0
   -4.2330   23.2870  -30.1300 C   0  0  0  0  0  0  0  0  0  0  0  0
   -5.8080   23.3370  -30.9430 S   0  0  0  0  0  0  0  0  0  0  0  0
   -5.6770   24.0780  -32.2450 O   0  0  0  0  0  0  0  0  0  0  0  0
   -6.7750   24.0960  -30.0790 O   0  0  0  0  0  0  0  0  0  0  0  0
   -6.4610   21.7460  -31.2580 N   0  0  0  0  0  0  0  0  0  0  0  0
   -5.9340   21.1710  -32.4950 C   0  0  0  0  0  0  0  0  0  0  0  0
   -6.9780   20.1780  -32.9880 C   0  0  0  0  0  0  0  0  0  0  0  0
   -8.2590   20.5380  -32.2500 C   0  0  0  0  0  0  0  0  0  0  0  0
   -7.9120   21.7670  -31.4260 C   0  0  0  0  0  0  0  0  0  0  0  0
   -3.7590   22.0680  -29.6200 C   0  0  0  0  0  0  0  0  0  0  0  0
   -0.7480   18.8370  -28.3140 N   0  0  0  0  0  0  0  0  0  0  0  0
    1.2780   15.9230  -29.3750 C   0  0  0  0  0  0  0  0  0  0  0  0
    1.7970   14.7200  -28.8900 C   0  0  0  0  0  0  0  0  0  0  0  0
    1.9799   12.6434  -24.6109 H   0  0  0  0  0  0  0  0  0  0  0  0
    0.5183   12.8194  -25.6401 H   0  0  0  0  0  0  0  0  0  0  0  0
    1.4362   11.2753  -25.6401 H   0  0  0  0  0  0  0  0  0  0  0  0
    1.4669   15.2845  -25.5369 H   0  0  0  0  0  0  0  0  0  0  0  0
    0.5332   17.4268  -26.3936 H   0  0  0  0  0  0  0  0  0  0  0  0
    1.5121   18.5359  -30.7927 H   0  0  0  0  0  0  0  0  0  0  0  0
   -0.7900   23.1143  -28.2891 H   0  0  0  0  0  0  0  0  0  0  0  0
   -1.6165   25.2890  -29.1829 H   0  0  0  0  0  0  0  0  0  0  0  0
   -5.7766   21.9606  -33.2445 H   0  0  0  0  0  0  0  0  0  0  0  0
   -4.9653   20.6785  -32.3242 H   0  0  0  0  0  0  0  0  0  0  0  0
   -7.1194   20.2760  -34.0745 H   0  0  0  0  0  0  0  0  0  0  0  0
   -6.6750   19.1378  -32.7976 H   0  0  0  0  0  0  0  0  0  0  0  0
   -9.0641   20.7668  -32.9637 H   0  0  0  0  0  0  0  0  0  0  0  0
   -8.6182   19.7097  -31.6217 H   0  0  0  0  0  0  0  0  0  0  0  0
   -8.2219   22.6807  -31.9543 H   0  0  0  0  0  0  0  0  0  0  0  0
   -8.4290   21.7588  -30.4551 H   0  0  0  0  0  0  0  0  0  0  0  0
   -4.3768   21.1629  -29.7153 H   0  0  0  0  0  0  0  0  0  0  0  0
    1.2264   16.0966  -30.4600 H   0  0  0  0  0  0  0  0  0  0  0  0
    2.1574   13.9562  -29.5948 H   0  0  0  0  0  0  0  0  0  0  0  0
  1  2  1  0
  2  3  2  0
  2  4  2  0
  2  5  1  0
  5  6  2  0
  6  7  1  0
  7  8  2  0
  8  9  1  0
  9 10  2  0
 10 11  1  0
 11 12  1  0
 12 13  2  3
 13 14  1  0
 14 15  2  0
 15 16  1  0
 16 17  2  0
 17 18  1  0
 17 19  1  0
 19 20  1  0
 20 21  2  0
 20 22  2  0
 20 23  1  0
 23 24  1  0
 24 25  1  0
 25 26  1  0
 26 27  1  0
 19 28  2  0
 12 29  1  0
  8 30  1  0
 30 31  2  0
 31  5  1  0
 29  9  1  0
 28 14  1  0
 27 23  1  0
  1 32  1  0
  1 33  1  0
  1 34  1  0
  6 35  1  0
  7 36  1  0
 10 37  1  0
 15 38  1  0
 16 39  1  0
 24 40  1  0
 24 41  1  0
 25 42  1  0
 25 43  1  0
 26 44  1  0
 26 45  1  0
 27 46  1  0
 27 47  1  0
 28 48  1  0
 30 49  1  0
 31 50  1  0
M  CHG  2  18  -1  29  -1
M  END
>  <UniqueID>  (30) 
30

>  <SMILES>  (30) 
CS(=O)(=O)c1ccc(-c2csc(=Nc3ccc([O-])c(S(=O)(=O)N4CCCC4)c3)[n-]2)cc1

>  <Energy>  (30) 
92.51030031481216

>  <Genealogy>  (30) 
CS(=O)(=O)c1ccc(-c2csc(=Nc3ccc([O-])c(S(=O)(=O)N4CCCC4)c3)[n-]2)cc1 (protonated)
CS(=O)(=O)c1ccc(-c2csc(=Nc3ccc([O-])c(S(=O)(=O)N4CCCC4)c3)[n-]2)cc1 (3D coordinates assigned)
CS(=O)(=O)c1ccc(-c2csc(=Nc3ccc([O-])c(S(=O)(=O)N4CCCC4)c3)[n-]2)cc1 (nonaromatic ring conformer: 92.51030031481216 kcal/mol)

>  <smiles>  (30) 
CS(=O)(=O)c1ccc(-c2csc(=Nc3ccc(O)c(S(=O)(=O)N4CCCC4)c3)[nH]2)cc1

>  <score_type>  (30) 
oracle

>  <origin>  (30) 
adgpu

>  <m_score__min__energy>  (30) 
-11.359999999999999

>  <m_primary>  (30) 
energy

$$$$
30:0
     RDKit          3D

 41 43  0  0  0  0  0  0  0  0999 V2000
   -4.6380   24.3580  -31.2200 O   0  0  0  0  0  0  0  0  0  0  0  0
   -4.9780   23.1440  -31.1660 C   0  0  0  0  0  0  0  0  0  0  0  0
   -4.0030   22.1510  -30.8030 N   0  0  0  0  0  0  0  0  0  0  0  0
   -2.6430   22.5030  -30.4020 C   0  0  0  0  0  0  0  0  0  0  0  0
   -2.6720   23.3700  -29.1830 C   0  0  0  0  0  0  0  0  0  0  0  0
   -3.5690   23.2590  -28.1300 C   0  0  0  0  0  0  0  0  0  0  0  0
   -3.3360   24.1890  -27.1100 C   0  0  0  0  0  0  0  0  0  0  0  0
   -2.2570   25.0290  -27.3560 C   0  0  0  0  0  0  0  0  0  0  0  0
   -1.5910   24.6120  -28.8440 S   0  0  0  0  0  0  0  0  0  0  0  0
   -6.3720   22.7640  -31.5000 C   0  0  0  0  0  0  0  0  0  0  0  0
   -7.3550   23.7590  -31.6380 C   0  0  0  0  0  0  0  0  0  0  0  0
   -8.6710   23.4140  -31.9550 C   0  0  0  0  0  0  0  0  0  0  0  0
   -9.0220   22.0750  -32.1340 C   0  0  0  0  0  0  0  0  0  0  0  0
   -8.0560   21.0690  -31.9940 C   0  0  0  0  0  0  0  0  0  0  0  0
   -8.5040   19.3710  -32.2040 S   0  0  0  0  0  0  0  0  0  0  0  0
   -8.7780   18.7670  -30.8560 O   0  0  0  0  0  0  0  0  0  0  0  0
   -9.7690   19.2950  -33.0130 O   0  0  0  0  0  0  0  0  0  0  0  0
   -7.2630   18.4370  -33.0050 N   0  0  0  0  0  0  0  0  0  0  0  0
   -6.3230   17.8450  -32.0560 C   0  0  0  0  0  0  0  0  0  0  0  0
   -5.0250   17.6290  -32.8170 C   0  0  0  0  0  0  0  0  0  0  0  0
   -5.1060   18.5570  -34.0210 C   0  0  0  0  0  0  0  0  0  0  0  0
   -6.4500   19.2570  -33.9010 C   0  0  0  0  0  0  0  0  0  0  0  0
   -6.7380   21.4160  -31.6650 C   0  0  0  0  0  0  0  0  0  0  0  0
   -4.2340   21.1360  -30.8910 H   0  0  0  0  0  0  0  0  0  0  0  0
   -2.0800   21.5842  -30.1811 H   0  0  0  0  0  0  0  0  0  0  0  0
   -2.1578   23.0527  -31.2220 H   0  0  0  0  0  0  0  0  0  0  0  0
   -4.3799   22.5164  -28.0999 H   0  0  0  0  0  0  0  0  0  0  0  0
   -3.9497   24.2491  -26.1991 H   0  0  0  0  0  0  0  0  0  0  0  0
   -1.8993   25.8296  -26.6918 H   0  0  0  0  0  0  0  0  0  0  0  0
   -7.0864   24.8161  -31.4955 H   0  0  0  0  0  0  0  0  0  0  0  0
   -9.4329   24.1999  -32.0639 H   0  0  0  0  0  0  0  0  0  0  0  0
  -10.0592   21.8086  -32.3855 H   0  0  0  0  0  0  0  0  0  0  0  0
   -6.1583   18.5263  -31.2082 H   0  0  0  0  0  0  0  0  0  0  0  0
   -6.7093   16.8988  -31.6491 H   0  0  0  0  0  0  0  0  0  0  0  0
   -4.1614   17.8892  -32.1874 H   0  0  0  0  0  0  0  0  0  0  0  0
   -4.8953   16.5786  -33.1168 H   0  0  0  0  0  0  0  0  0  0  0  0
   -4.2865   19.2904  -33.9975 H   0  0  0  0  0  0  0  0  0  0  0  0
   -5.0146   18.0064  -34.9689 H   0  0  0  0  0  0  0  0  0  0  0  0
   -6.3180   20.2646  -33.4799 H   0  0  0  0  0  0  0  0  0  0  0  0
   -6.9302   19.3702  -34.8842 H   0  0  0  0  0  0  0  0  0  0  0  0
   -5.9831   20.6266  -31.5347 H   0  0  0  0  0  0  0  0  0  0  0  0
  1  2  2  0
  2  3  1  0
  3  4  1  0
  4  5  1  0
  5  6  2  0
  6  7  1  0
  7  8  2  0
  8  9  1  0
  2 10  1  0
 10 11  2  0
 11 12  1  0
 12 13  2  0
 13 14  1  0
 14 15  1  0
 15 16  2  0
 15 17  2  0
 15 18  1  0
 18 19  1  0
 19 20  1  0
 20 21  1  0
 21 22  1  0
 14 23  2  0
  9  5  1  0
 23 10  1  0
 22 18  1  0
  3 24  1  0
  4 25  1  0
  4 26  1  0
  6 27  1  0
  7 28  1  0
  8 29  1  0
 11 30  1  0
 12 31  1  0
 13 32  1  0
 19 33  1  0
 19 34  1  0
 20 35  1  0
 20 36  1  0
 21 37  1  0
 21 38  1  0
 22 39  1  0
 22 40  1  0
 23 41  1  0
M  END
>  <UniqueID>  (31) 
31

>  <SMILES>  (31) 
O=C(NCc1cccs1)c1cccc(S(=O)(=O)N2CCCC2)c1

>  <Energy>  (31) 
68.19037522927889

>  <Genealogy>  (31) 
O=C(NCc1cccs1)c1cccc(S(=O)(=O)N2CCCC2)c1 (3D coordinates assigned)
O=C(NCc1cccs1)c1cccc(S(=O)(=O)N2CCCC2)c1 (nonaromatic ring conformer: 68.19037522927889 kcal/mol)

>  <smiles>  (31) 
O=C(NCc1cccs1)c1cccc(S(=O)(=O)N2CCCC2)c1

>  <score_type>  (31) 
oracle

>  <origin>  (31) 
adgpu

>  <m_score__min__energy>  (31) 
-8.9199999999999999

>  <m_primary>  (31) 
energy

$$$$
31:0
     RDKit          3D

 54 57  0  0  0  0  0  0  0  0999 V2000
   -0.4310   27.9570  -27.2850 C   0  0  0  0  0  0  0  0  0  0  0  0
   -0.3110   26.4750  -27.4340 C   0  0  0  0  0  0  0  0  0  0  0  0
    0.8310   25.9410  -27.4720 O   0  0  0  0  0  0  0  0  0  0  0  0
   -1.4930   25.6670  -27.4930 N   0  0  0  0  0  0  0  0  0  0  0  0
   -1.4610   24.2020  -27.4540 C   0  0  0  0  0  0  0  0  0  0  0  0
   -2.7640   23.5930  -27.9970 C   0  0  2  0  0  0  0  0  0  0  0  0
   -2.5300   22.4050  -28.9760 C   0  0  0  0  0  0  0  0  0  0  0  0
   -3.2310   22.7730  -30.2020 N   0  0  0  0  0  0  0  0  0  0  0  0
   -3.4970   21.8800  -31.3030 C   0  0  0  0  0  0  0  0  0  0  0  0
   -4.2500   22.3040  -32.4130 C   0  0  0  0  0  0  0  0  0  0  0  0
   -4.5450   21.4160  -33.4530 C   0  0  0  0  0  0  0  0  0  0  0  0
   -4.1090   20.0800  -33.3920 C   0  0  0  0  0  0  0  0  0  0  0  0
   -4.4400   19.1300  -34.3740 O   0  0  0  0  0  0  0  0  0  0  0  0
   -5.5830   18.2740  -34.3360 C   0  0  0  0  0  0  0  0  0  0  0  0
   -5.7800   17.6730  -32.9670 C   0  0  0  0  0  0  0  0  0  0  0  0
   -6.5710   18.1250  -31.9300 C   0  0  0  0  0  0  0  0  0  0  0  0
   -7.4230   19.3240  -31.9230 C   0  0  0  0  0  0  0  0  0  0  0  0
   -6.9010   20.5670  -31.5410 C   0  0  0  0  0  0  0  0  0  0  0  0
   -7.7070   21.7110  -31.5520 C   0  0  0  0  0  0  0  0  0  0  0  0
   -9.0410   21.6160  -31.9600 C   0  0  0  0  0  0  0  0  0  0  0  0
   -9.5650   20.3800  -32.3500 C   0  0  0  0  0  0  0  0  0  0  0  0
   -8.7680   19.2290  -32.3150 C   0  0  0  0  0  0  0  0  0  0  0  0
   -6.5420   17.2280  -30.9210 N   0  0  0  0  0  0  0  0  0  0  0  0
   -5.7470   16.2680  -31.2850 O   0  0  0  0  0  0  0  0  0  0  0  0
   -5.2620   16.4840  -32.4860 C   0  0  0  0  0  0  0  0  0  0  0  0
   -4.3500   15.5430  -33.2070 C   0  0  0  0  0  0  0  0  0  0  0  0
   -3.3410   19.6630  -32.2990 C   0  0  0  0  0  0  0  0  0  0  0  0
   -3.0440   20.5500  -31.2600 C   0  0  0  0  0  0  0  0  0  0  0  0
   -3.7490   24.0750  -30.0050 C   0  0  0  0  0  0  0  0  0  0  0  0
   -4.3090   24.7580  -30.9010 O   0  0  0  0  0  0  0  0  0  0  0  0
   -3.5000   24.5560  -28.7420 O   0  0  0  0  0  0  0  0  0  0  0  0
   -0.4521   28.2176  -26.2165 H   0  0  0  0  0  0  0  0  0  0  0  0
    0.4306   28.4447  -27.7644 H   0  0  0  0  0  0  0  0  0  0  0  0
   -1.3598   28.2997  -27.7644 H   0  0  0  0  0  0  0  0  0  0  0  0
   -2.4190   26.1410  -27.6180 H   0  0  0  0  0  0  0  0  0  0  0  0
   -0.6188   23.8469  -28.0660 H   0  0  0  0  0  0  0  0  0  0  0  0
   -1.3449   23.8881  -26.4062 H   0  0  0  0  0  0  0  0  0  0  0  0
   -3.3019   23.2459  -27.1024 H   0  0  0  0  0  0  0  0  0  0  0  0
   -1.4556   22.2725  -29.1713 H   0  0  0  0  0  0  0  0  0  0  0  0
   -2.8978   21.4543  -28.5627 H   0  0  0  0  0  0  0  0  0  0  0  0
   -4.6098   23.3423  -32.4636 H   0  0  0  0  0  0  0  0  0  0  0  0
   -5.1209   21.7644  -34.3230 H   0  0  0  0  0  0  0  0  0  0  0  0
   -6.4761   18.8588  -34.6012 H   0  0  0  0  0  0  0  0  0  0  0  0
   -5.4236   17.4545  -35.0523 H   0  0  0  0  0  0  0  0  0  0  0  0
   -5.8488   20.6442  -31.2298 H   0  0  0  0  0  0  0  0  0  0  0  0
   -7.2926   22.6813  -31.2408 H   0  0  0  0  0  0  0  0  0  0  0  0
   -9.6776   22.5130  -31.9741 H   0  0  0  0  0  0  0  0  0  0  0  0
  -10.6100   20.3111  -32.6865 H   0  0  0  0  0  0  0  0  0  0  0  0
   -9.1941   18.2539  -32.5936 H   0  0  0  0  0  0  0  0  0  0  0  0
   -3.7785   14.9533  -32.4751 H   0  0  0  0  0  0  0  0  0  0  0  0
   -4.9453   14.8667  -33.8381 H   0  0  0  0  0  0  0  0  0  0  0  0
   -3.6554   16.1169  -33.8381 H   0  0  0  0  0  0  0  0  0  0  0  0
   -2.9680   18.6290  -32.2570 H   0  0  0  0  0  0  0  0  0  0  0  0
   -2.4504   20.2040  -30.4010 H   0  0  0  0  0  0  0  0  0  0  0  0
  1  2  1  0
  2  3  2  0
  2  4  1  0
  4  5  1  0
  5  6  1  0
  6  7  1  0
  7  8  1  0
  8  9  1  0
  9 10  2  0
 10 11  1  0
 11 12  2  0
 12 13  1  0
 13 14  1  0
 14 15  1  0
 15 16  1  0
 16 17  1  0
 17 18  2  0
 18 19  1  0
 19 20  2  0
 20 21  1  0
 21 22  2  0
 16 23  2  0
 23 24  1  0
 24 25  1  0
 25 26  1  0
 12 27  1  0
 27 28  2  0
  8 29  1  0
 29 30  2  0
 29 31  1  0
 31  6  1  0
 28  9  1  0
 25 15  2  0
 22 17  1  0
  1 32  1  0
  1 33  1  0
  1 34  1  0
  4 35  1  0
  5 36  1  0
  5 37  1  0
  6 38  1  1
  7 39  1  0
  7 40  1  0
 10 41  1  0
 11 42  1  0
 14 43  1  0
 14 44  1  0
 18 45  1  0
 19 46  1  0
 20 47  1  0
 21 48  1  0
 22 49  1  0
 26 50  1  0
 26 51  1  0
 26 52  1  0
 27 53  1  0
 28 54  1  0
M  END
>  <UniqueID>  (32) 
32

>  <SMILES>  (32) 
CC(=O)NC[C@@H]1CN(c2ccc(OCc3c(-c4ccccc4)noc3C)cc2)C(=O)O1

>  <Energy>  (32) 
104.28606013437937

>  <Genealogy>  (32) 
CC(=O)NC[C@@H]1CN(c2ccc(OCc3c(-c4ccccc4)noc3C)cc2)C(=O)O1 (chirality)
CC(=O)NC[C@@H]1CN(c2ccc(OCc3c(-c4ccccc4)noc3C)cc2)C(=O)O1 (3D coordinates assigned)
CC(=O)NC[C@@H]1CN(c2ccc(OCc3c(-c4ccccc4)noc3C)cc2)C(=O)O1 (nonaromatic ring conformer: 104.28606013437937 kcal/mol)

>  <smiles>  (32) 
CC(=O)NCC1CN(c2ccc(OCc3c(-c4ccccc4)noc3C)cc2)C(=O)O1

>  <score_type>  (32) 
oracle

>  <origin>  (32) 
adgpu

>  <m_score__min__energy>  (32) 
-9.8499999999999996

>  <m_primary>  (32) 
energy

$$$$
32:0
     RDKit          3D

 44 47  0  0  0  0  0  0  0  0999 V2000
   -8.3160   17.8530  -32.9990 O   0  0  0  0  0  0  0  0  0  0  0  0
   -7.9710   18.9290  -32.4430 C   0  0  0  0  0  0  0  0  0  0  0  0
   -8.7190   19.4310  -31.2430 C   0  0  0  0  0  0  0  0  0  0  0  0
   -8.7230   20.9660  -31.2060 C   0  0  0  0  0  0  0  0  0  0  0  0
   -7.3470   21.5430  -31.4400 C   0  0  0  0  0  0  0  0  0  0  0  0
   -6.9900   22.7760  -30.8770 C   0  0  0  0  0  0  0  0  0  0  0  0
   -5.7470   23.3550  -31.1650 C   0  0  0  0  0  0  0  0  0  0  0  0
   -5.2970   24.8910  -30.4310 S   0  0  0  0  0  0  0  0  0  0  0  0
   -5.8290   24.9460  -29.0260 O   0  0  0  0  0  0  0  0  0  0  0  0
   -5.8840   26.0210  -31.2290 O   0  0  0  0  0  0  0  0  0  0  0  0
   -3.5680   25.0140  -30.4140 N   0  0  0  0  0  0  0  0  0  0  0  0
   -2.6850   24.1830  -29.6480 C   0  0  0  0  0  0  0  0  0  0  0  0
   -2.9560   22.8230  -29.4170 C   0  0  0  0  0  0  0  0  0  0  0  0
   -2.0770   22.0360  -28.6560 C   0  0  0  0  0  0  0  0  0  0  0  0
   -0.8860   22.6090  -28.1510 C   0  0  0  0  0  0  0  0  0  0  0  0
   -0.6290   23.9690  -28.3740 C   0  0  0  0  0  0  0  0  0  0  0  0
   -1.5180   24.7490  -29.1190 C   0  0  0  0  0  0  0  0  0  0  0  0
   -1.2350   26.0940  -29.3310 O   0  0  0  0  0  0  0  0  0  0  0  0
    0.0650   21.8200  -27.2820 C   0  0  0  0  0  0  0  0  0  0  0  0
   -0.1060   20.3080  -27.4440 C   0  0  0  0  0  0  0  0  0  0  0  0
   -1.5820   19.9250  -27.3470 C   0  0  0  0  0  0  0  0  0  0  0  0
   -2.3750   20.5630  -28.4920 C   0  0  0  0  0  0  0  0  0  0  0  0
   -4.8590   22.6980  -32.0270 C   0  0  0  0  0  0  0  0  0  0  0  0
   -5.2140   21.4770  -32.6070 C   0  0  0  0  0  0  0  0  0  0  0  0
   -6.4560   20.8950  -32.3210 C   0  0  0  0  0  0  0  0  0  0  0  0
   -6.8170   19.6370  -32.9070 N   0  0  0  0  0  0  0  0  0  0  0  0
   -9.7566   19.0686  -31.2872 H   0  0  0  0  0  0  0  0  0  0  0  0
   -8.2215   19.0577  -30.3358 H   0  0  0  0  0  0  0  0  0  0  0  0
   -9.4014   21.3380  -31.9879 H   0  0  0  0  0  0  0  0  0  0  0  0
   -9.0567   21.2801  -30.2060 H   0  0  0  0  0  0  0  0  0  0  0  0
   -7.6905   23.2926  -30.2044 H   0  0  0  0  0  0  0  0  0  0  0  0
   -3.8665   22.3706  -29.8370 H   0  0  0  0  0  0  0  0  0  0  0  0
    0.2810   24.4267  -27.9587 H   0  0  0  0  0  0  0  0  0  0  0  0
    1.0963   22.0890  -27.5541 H   0  0  0  0  0  0  0  0  0  0  0  0
   -0.1566   22.0698  -26.2339 H   0  0  0  0  0  0  0  0  0  0  0  0
    0.2839   20.0024  -28.4261 H   0  0  0  0  0  0  0  0  0  0  0  0
    0.4481   19.7985  -26.6419 H   0  0  0  0  0  0  0  0  0  0  0  0
   -1.6772   18.8307  -27.4057 H   0  0  0  0  0  0  0  0  0  0  0  0
   -1.9829   20.2882  -26.3892 H   0  0  0  0  0  0  0  0  0  0  0  0
   -2.1196   20.0456  -29.4285 H   0  0  0  0  0  0  0  0  0  0  0  0
   -3.4440   20.4642  -28.2522 H   0  0  0  0  0  0  0  0  0  0  0  0
   -3.8785   23.1450  -32.2481 H   0  0  0  0  0  0  0  0  0  0  0  0
   -4.5160   20.9712  -33.2903 H   0  0  0  0  0  0  0  0  0  0  0  0
   -6.2250   19.2170  -33.6590 H   0  0  0  0  0  0  0  0  0  0  0  0
  1  2  2  0
  2  3  1  0
  3  4  1  0
  4  5  1  0
  5  6  2  0
  6  7  1  0
  7  8  1  0
  8  9  2  0
  8 10  2  0
  8 11  1  0
 11 12  1  0
 12 13  2  0
 13 14  1  0
 14 15  2  0
 15 16  1  0
 16 17  2  0
 17 18  1  0
 15 19  1  0
 19 20  1  0
 20 21  1  0
 21 22  1  0
  7 23  2  0
 23 24  1  0
 24 25  2  0
 25 26  1  0
 26  2  1  0
 25  5  1  0
 17 12  1  0
 22 14  1  0
  3 27  1  0
  3 28  1  0
  4 29  1  0
  4 30  1  0
  6 31  1  0
 13 32  1  0
 16 33  1  0
 19 34  1  0
 19 35  1  0
 20 36  1  0
 20 37  1  0
 21 38  1  0
 21 39  1  0
 22 40  1  0
 22 41  1  0
 23 42  1  0
 24 43  1  0
 26 44  1  0
M  CHG  2  11  -1  18  -1
M  END
>  <UniqueID>  (33) 
33

>  <SMILES>  (33) 
O=C1CCc2cc(S(=O)(=O)[N-]c3cc4c(cc3[O-])CCCC4)ccc2N1

>  <Energy>  (33) 
50.33543838630352

>  <Genealogy>  (33) 
O=C1CCc2cc(S(=O)(=O)[N-]c3cc4c(cc3[O-])CCCC4)ccc2N1 (protonated)
O=C1CCc2cc(S(=O)(=O)[N-]c3cc4c(cc3[O-])CCCC4)ccc2N1 (3D coordinates assigned)
O=C1CCc2cc(S(=O)(=O)[N-]c3cc4c(cc3[O-])CCCC4)ccc2N1 (nonaromatic ring conformer: 50.33543838630352 kcal/mol)

>  <smiles>  (33) 
O=C1CCc2cc(S(=O)(=O)Nc3cc4c(cc3O)CCCC4)ccc2N1

>  <score_type>  (33) 
oracle

>  <origin>  (33) 
adgpu

>  <m_score__min__energy>  (33) 
-14.460000000000001

>  <m_primary>  (33) 
energy

$$$$
33:0
     RDKit          3D

 53 56  0  0  0  0  0  0  0  0999 V2000
   -5.8550   18.6690  -31.9450 C   0  0  0  0  0  0  0  0  0  0  0  0
   -7.1600   19.3100  -32.0630 N   0  0  0  0  0  0  0  0  0  0  0  0
   -8.4140   18.6170  -32.3510 C   0  0  0  0  0  0  0  0  0  0  0  0
   -9.5090   19.7130  -32.3730 C   0  0  0  0  0  0  0  0  0  0  0  0
   -8.7510   20.9640  -32.0850 C   0  0  0  0  0  0  0  0  0  0  0  0
   -9.2430   22.2630  -31.9660 C   0  0  0  0  0  0  0  0  0  0  0  0
   -8.3420   23.3000  -31.6760 C   0  0  0  0  0  0  0  0  0  0  0  0
   -6.9590   23.0270  -31.5230 C   0  0  0  0  0  0  0  0  0  0  0  0
   -6.0150   24.0600  -31.2040 N   0  0  0  0  0  0  0  0  0  0  0  0
   -4.5940   23.9080  -31.1390 C   0  0  0  0  0  0  0  0  0  0  0  0
   -4.0110   23.2420  -32.0330 O   0  0  0  0  0  0  0  0  0  0  0  0
   -3.8360   24.5960  -30.1350 N   0  0  0  0  0  0  0  0  0  0  0  0
   -3.1070   24.0000  -29.0510 C   0  0  0  0  0  0  0  0  0  0  0  0
   -3.6090   22.8950  -28.3420 C   0  0  0  0  0  0  0  0  0  0  0  0
   -2.8890   22.3590  -27.2730 C   0  0  0  0  0  0  0  0  0  0  0  0
   -1.6730   22.9270  -26.8910 C   0  0  0  0  0  0  0  0  0  0  0  0
   -1.1690   24.0460  -27.5680 C   0  0  0  0  0  0  0  0  0  0  0  0
    0.3610   24.7640  -27.0390 S   0  0  0  0  0  0  0  0  0  0  0  0
    1.0240   23.8400  -26.0540 O   0  0  0  0  0  0  0  0  0  0  0  0
    1.2820   24.9170  -28.2160 O   0  0  0  0  0  0  0  0  0  0  0  0
    0.1190   26.3240  -26.2870 N   0  0  0  0  0  0  0  0  0  0  0  0
   -0.4940   27.2650  -27.2380 C   0  0  0  0  0  0  0  0  0  0  0  0
   -0.4830   28.6940  -26.6630 C   0  0  0  0  0  0  0  0  0  0  0  0
   -0.4060   28.7110  -25.1270 C   0  0  0  0  0  0  0  0  0  0  0  0
   -1.1940   27.5440  -24.5260 C   0  0  0  0  0  0  0  0  0  0  0  0
   -0.7110   26.1820  -25.0730 C   0  0  0  0  0  0  0  0  0  0  0  0
   -1.8940   24.5840  -28.6500 C   0  0  0  0  0  0  0  0  0  0  0  0
   -1.4160   25.6950  -29.3360 O   0  0  0  0  0  0  0  0  0  0  0  0
   -6.5000   21.7010  -31.6240 C   0  0  0  0  0  0  0  0  0  0  0  0
   -7.4220   20.6930  -31.9150 C   0  0  0  0  0  0  0  0  0  0  0  0
   -5.6023   18.5449  -30.8816 H   0  0  0  0  0  0  0  0  0  0  0  0
   -5.8853   17.6832  -32.4322 H   0  0  0  0  0  0  0  0  0  0  0  0
   -5.0933   19.2955  -32.4322 H   0  0  0  0  0  0  0  0  0  0  0  0
   -8.3573   18.1130  -33.3271 H   0  0  0  0  0  0  0  0  0  0  0  0
   -8.6307   17.8444  -31.5986 H   0  0  0  0  0  0  0  0  0  0  0  0
   -9.9943   19.7649  -33.3588 H   0  0  0  0  0  0  0  0  0  0  0  0
  -10.3187   19.5258  -31.6524 H   0  0  0  0  0  0  0  0  0  0  0  0
  -10.3152   22.4712  -32.0966 H   0  0  0  0  0  0  0  0  0  0  0  0
   -8.7112   24.3304  -31.5668 H   0  0  0  0  0  0  0  0  0  0  0  0
   -4.5731   22.4509  -28.6307 H   0  0  0  0  0  0  0  0  0  0  0  0
   -3.2813   21.4864  -26.7302 H   0  0  0  0  0  0  0  0  0  0  0  0
   -1.1065   22.4939  -26.0534 H   0  0  0  0  0  0  0  0  0  0  0  0
    0.0735   27.2492  -28.1802 H   0  0  0  0  0  0  0  0  0  0  0  0
   -1.5357   26.9614  -27.4187 H   0  0  0  0  0  0  0  0  0  0  0  0
    0.3894   29.2295  -27.0658 H   0  0  0  0  0  0  0  0  0  0  0  0
   -1.4261   29.1789  -26.9555 H   0  0  0  0  0  0  0  0  0  0  0  0
    0.6468   28.6311  -24.8186 H   0  0  0  0  0  0  0  0  0  0  0  0
   -0.8429   29.6531  -24.7643 H   0  0  0  0  0  0  0  0  0  0  0  0
   -1.0669   27.5540  -23.4334 H   0  0  0  0  0  0  0  0  0  0  0  0
   -2.2514   27.6675  -24.8027 H   0  0  0  0  0  0  0  0  0  0  0  0
   -0.1164   25.6800  -24.2955 H   0  0  0  0  0  0  0  0  0  0  0  0
   -1.6011   25.5945  -25.3425 H   0  0  0  0  0  0  0  0  0  0  0  0
   -5.4362   21.4628  -31.4767 H   0  0  0  0  0  0  0  0  0  0  0  0
  1  2  1  0
  2  3  1  0
  3  4  1  0
  4  5  1  0
  5  6  2  0
  6  7  1  0
  7  8  2  0
  8  9  1  0
  9 10  1  0
 10 11  2  0
 10 12  1  0
 12 13  1  0
 13 14  2  0
 14 15  1  0
 15 16  2  0
 16 17  1  0
 17 18  1  0
 18 19  2  0
 18 20  2  0
 18 21  1  0
 21 22  1  0
 22 23  1  0
 23 24  1  0
 24 25  1  0
 25 26  1  0
 17 27  2  0
 27 28  1  0
  8 29  1  0
 29 30  2  0
 30  2  1  0
 30  5  1  0
 27 13  1  0
 26 21  1  0
  1 31  1  0
  1 32  1  0
  1 33  1  0
  3 34  1  0
  3 35  1  0
  4 36  1  0
  4 37  1  0
  6 38  1  0
  7 39  1  0
 14 40  1  0
 15 41  1  0
 16 42  1  0
 22 43  1  0
 22 44  1  0
 23 45  1  0
 23 46  1  0
 24 47  1  0
 24 48  1  0
 25 49  1  0
 25 50  1  0
 26 51  1  0
 26 52  1  0
 29 53  1  0
M  CHG  3   9  -1  12  -1  28  -1
M  END
>  <UniqueID>  (34) 
34

>  <SMILES>  (34) 
CN1CCc2ccc([N-]C(=O)[N-]c3cccc(S(=O)(=O)N4CCCCC4)c3[O-])cc21

>  <Energy>  (34) 
78.00053097377864

>  <Genealogy>  (34) 
CN1CCc2ccc([N-]C(=O)[N-]c3cccc(S(=O)(=O)N4CCCCC4)c3[O-])cc21 (protonated)
CN1CCc2ccc([N-]C(=O)[N-]c3cccc(S(=O)(=O)N4CCCCC4)c3[O-])cc21 (3D coordinates assigned)
CN1CCc2ccc([N-]C(=O)[N-]c3cccc(S(=O)(=O)N4CCCCC4)c3[O-])cc21 (nonaromatic ring conformer: 78.00053097377864 kcal/mol)

>  <smiles>  (34) 
CN1CCc2ccc(NC(=O)Nc3cccc(S(=O)(=O)N4CCCCC4)c3O)cc21

>  <score_type>  (34) 
oracle

>  <origin>  (34) 
adgpu

>  <m_score__min__energy>  (34) 
-16.489999999999998

>  <m_primary>  (34) 
energy

$$$$
34:0
     RDKit          3D

 33 35  0  0  0  0  0  0  0  0999 V2000
   -3.8580   25.6730  -30.8220 O   0  0  0  0  0  0  0  0  0  0  0  0
   -3.7090   24.5590  -30.0050 C   0  0  0  0  0  0  0  0  0  0  0  0
   -4.3710   24.5020  -28.7760 C   0  0  0  0  0  0  0  0  0  0  0  0
   -4.2240   23.3810  -27.9560 C   0  0  0  0  0  0  0  0  0  0  0  0
   -3.4140   22.3150  -28.3610 C   0  0  0  0  0  0  0  0  0  0  0  0
   -2.7340   22.3650  -29.5940 C   0  0  0  0  0  0  0  0  0  0  0  0
   -1.8850   21.2910  -30.0410 N   0  0  0  0  0  0  0  0  0  0  0  0
   -1.6460   20.9550  -31.4450 C   0  0  0  0  0  0  0  0  0  0  0  0
   -2.9460   20.7290  -32.1510 C   0  0  0  0  0  0  0  0  0  0  0  0
   -3.1090   20.5340  -33.5030 C   0  0  0  0  0  0  0  0  0  0  0  0
   -4.3840   20.3180  -33.7130 O   0  0  0  0  0  0  0  0  0  0  0  0
   -4.9910   20.3630  -32.5450 C   0  0  0  0  0  0  0  0  0  0  0  0
   -6.4530   20.1730  -32.3850 C   0  0  0  0  0  0  0  0  0  0  0  0
   -6.9660   18.8640  -32.4740 C   0  0  0  0  0  0  0  0  0  0  0  0
   -8.3350   18.6230  -32.3460 C   0  0  0  0  0  0  0  0  0  0  0  0
   -9.2140   19.6810  -32.1220 C   0  0  0  0  0  0  0  0  0  0  0  0
   -8.7240   20.9830  -32.0180 C   0  0  0  0  0  0  0  0  0  0  0  0
   -7.3540   21.2440  -32.1430 C   0  0  0  0  0  0  0  0  0  0  0  0
   -6.8000   23.0680  -31.9060 Br  0  0  0  0  0  0  0  0  0  0  0  0
   -4.1360   20.6200  -31.5320 N   0  0  0  0  0  0  0  0  0  0  0  0
   -2.8970   23.4950  -30.4130 C   0  0  0  0  0  0  0  0  0  0  0  0
   -5.0076   25.3395  -28.4544 H   0  0  0  0  0  0  0  0  0  0  0  0
   -4.7466   23.3363  -26.9891 H   0  0  0  0  0  0  0  0  0  0  0  0
   -3.3073   21.4325  -27.7131 H   0  0  0  0  0  0  0  0  0  0  0  0
   -1.4500   20.6670  -29.3230 H   0  0  0  0  0  0  0  0  0  0  0  0
   -1.1082   21.7828  -31.9302 H   0  0  0  0  0  0  0  0  0  0  0  0
   -1.0450   20.0352  -31.4966 H   0  0  0  0  0  0  0  0  0  0  0  0
   -2.3165   20.5554  -34.2656 H   0  0  0  0  0  0  0  0  0  0  0  0
   -6.2797   18.0218  -32.6464 H   0  0  0  0  0  0  0  0  0  0  0  0
   -8.7208   17.5957  -32.4221 H   0  0  0  0  0  0  0  0  0  0  0  0
  -10.2931   19.4896  -32.0273 H   0  0  0  0  0  0  0  0  0  0  0  0
   -9.4216   21.8138  -31.8358 H   0  0  0  0  0  0  0  0  0  0  0  0
   -2.3817   23.5436  -31.3836 H   0  0  0  0  0  0  0  0  0  0  0  0
  1  2  1  0
  2  3  2  0
  3  4  1  0
  4  5  2  0
  5  6  1  0
  6  7  1  0
  7  8  1  0
  8  9  1  0
  9 10  2  0
 10 11  1  0
 11 12  1  0
 12 13  1  0
 13 14  2  0
 14 15  1  0
 15 16  2  0
 16 17  1  0
 17 18  2  0
 18 19  1  0
 12 20  2  0
  6 21  2  0
 21  2  1  0
 20  9  1  0
 18 13  1  0
  3 22  1  0
  4 23  1  0
  5 24  1  0
  7 25  1  0
  8 26  1  0
  8 27  1  0
 10 28  1  0
 14 29  1  0
 15 30  1  0
 16 31  1  0
 17 32  1  0
 21 33  1  0
M  CHG  1   1  -1
M  END
>  <UniqueID>  (35) 
35

>  <SMILES>  (35) 
[O-]c1cccc(NCc2coc(-c3ccccc3Br)n2)c1

>  <Energy>  (35) 
67.44703505258633

>  <Genealogy>  (35) 
[O-]c1cccc(NCc2coc(-c3ccccc3Br)n2)c1 (protonated)
[O-]c1cccc(NCc2coc(-c3ccccc3Br)n2)c1 (3D coordinates assigned)
[O-]c1cccc(NCc2coc(-c3ccccc3Br)n2)c1 (optimized conformer: 67.44703505258633 kcal/mol)

>  <smiles>  (35) 
Oc1cccc(NCc2coc(-c3ccccc3Br)n2)c1

>  <score_type>  (35) 
oracle

>  <origin>  (35) 
adgpu

>  <m_score__min__energy>  (35) 
-10.99

>  <m_primary>  (35) 
energy

$$$$
35:0
     RDKit          3D

 57 59  0  0  0  0  0  0  0  0999 V2000
   -0.3260   18.1710  -27.7750 C   0  0  0  0  0  0  0  0  0  0  0  0
   -0.4960   19.6530  -27.5680 C   0  0  0  0  0  0  0  0  0  0  0  0
    0.5430   20.5220  -27.9430 C   0  0  0  0  0  0  0  0  0  0  0  0
    0.4220   21.9020  -27.7570 C   0  0  0  0  0  0  0  0  0  0  0  0
   -0.7410   22.4370  -27.1890 C   0  0  0  0  0  0  0  0  0  0  0  0
   -0.8950   24.1800  -26.9330 S   0  0  0  0  0  0  0  0  0  0  0  0
   -1.9340   24.4810  -25.8850 O   0  0  0  0  0  0  0  0  0  0  0  0
    0.4290   24.7330  -26.4730 O   0  0  0  0  0  0  0  0  0  0  0  0
   -1.3530   24.9430  -28.4210 N   0  0  0  0  0  0  0  0  0  0  0  0
   -2.2170   24.3310  -29.3840 C   0  0  0  0  0  0  0  0  0  0  0  0
   -1.8640   23.2470  -29.9200 O   0  0  0  0  0  0  0  0  0  0  0  0
   -3.4520   24.9570  -29.7650 N   0  0  0  0  0  0  0  0  0  0  0  0
   -4.6150   24.2300  -30.2050 C   0  0  0  0  0  0  0  0  0  0  0  0
   -4.6990   22.8300  -30.0690 C   0  0  0  0  0  0  0  0  0  0  0  0
   -5.8460   22.1490  -30.4790 C   0  0  0  0  0  0  0  0  0  0  0  0
   -6.9280   22.8490  -31.0270 C   0  0  0  0  0  0  0  0  0  0  0  0
   -8.3670   21.9780  -31.5640 S   0  0  0  0  0  0  0  0  0  0  0  0
   -9.0700   21.4020  -30.3660 O   0  0  0  0  0  0  0  0  0  0  0  0
   -9.3070   22.9410  -32.2340 O   0  0  0  0  0  0  0  0  0  0  0  0
   -7.9620   20.6940  -32.6790 N   0  0  0  0  0  0  0  0  0  0  0  0
   -6.5310   20.7490  -33.0380 C   0  0  0  0  0  0  0  0  0  0  0  0
   -6.0930   19.4300  -33.6820 C   0  0  0  0  0  0  0  0  0  0  0  0
   -6.1900   18.3000  -32.7190 N   0  0  0  0  0  0  0  0  0  0  0  0
   -6.3800   17.0310  -33.4450 C   0  0  0  0  0  0  0  0  0  0  0  0
   -7.2440   18.4920  -31.6850 C   0  0  0  0  0  0  0  0  0  0  0  0
   -8.4090   19.3690  -32.1880 C   0  0  0  0  0  0  0  0  0  0  0  0
   -6.8600   24.2420  -31.1420 C   0  0  0  0  0  0  0  0  0  0  0  0
   -5.7180   24.9320  -30.7230 C   0  0  0  0  0  0  0  0  0  0  0  0
   -5.6790   26.2850  -30.8330 F   0  0  0  0  0  0  0  0  0  0  0  0
   -1.7640   21.5770  -26.7720 C   0  0  0  0  0  0  0  0  0  0  0  0
   -1.6500   20.1850  -26.9410 C   0  0  0  0  0  0  0  0  0  0  0  0
   -2.7790   19.2970  -26.4920 C   0  0  0  0  0  0  0  0  0  0  0  0
   -0.2684   17.6686  -26.7981 H   0  0  0  0  0  0  0  0  0  0  0  0
   -1.1850   17.7786  -28.3390 H   0  0  0  0  0  0  0  0  0  0  0  0
    0.5996   17.9833  -28.3390 H   0  0  0  0  0  0  0  0  0  0  0  0
    1.4615   20.1116  -28.3878 H   0  0  0  0  0  0  0  0  0  0  0  0
    1.2427   22.5699  -28.0577 H   0  0  0  0  0  0  0  0  0  0  0  0
   -3.5110   26.0000  -29.7200 H   0  0  0  0  0  0  0  0  0  0  0  0
   -3.8558   22.2708  -29.6373 H   0  0  0  0  0  0  0  0  0  0  0  0
   -5.9005   21.0557  -30.3711 H   0  0  0  0  0  0  0  0  0  0  0  0
   -6.3667   21.5721  -33.7490 H   0  0  0  0  0  0  0  0  0  0  0  0
   -5.9395   20.9153  -32.1256 H   0  0  0  0  0  0  0  0  0  0  0  0
   -6.7405   19.2208  -34.5463 H   0  0  0  0  0  0  0  0  0  0  0  0
   -5.0437   19.5289  -33.9968 H   0  0  0  0  0  0  0  0  0  0  0  0
   -5.2740   18.2310  -32.2160 H   0  0  0  0  0  0  0  0  0  0  0  0
   -6.5029   16.2103  -32.7229 H   0  0  0  0  0  0  0  0  0  0  0  0
   -7.2777   17.1009  -34.0769 H   0  0  0  0  0  0  0  0  0  0  0  0
   -5.5012   16.8349  -34.0769 H   0  0  0  0  0  0  0  0  0  0  0  0
   -7.6414   17.5071  -31.3987 H   0  0  0  0  0  0  0  0  0  0  0  0
   -6.7834   19.0056  -30.8282 H   0  0  0  0  0  0  0  0  0  0  0  0
   -8.9154   18.8423  -33.0103 H   0  0  0  0  0  0  0  0  0  0  0  0
   -9.0836   19.5424  -31.3367 H   0  0  0  0  0  0  0  0  0  0  0  0
   -7.7101   24.7977  -31.5646 H   0  0  0  0  0  0  0  0  0  0  0  0
   -2.6686   21.9951  -26.3062 H   0  0  0  0  0  0  0  0  0  0  0  0
   -2.8109   19.2719  -25.3927 H   0  0  0  0  0  0  0  0  0  0  0  0
   -3.7309   19.6909  -26.8775 H   0  0  0  0  0  0  0  0  0  0  0  0
   -2.6204   18.2791  -26.8775 H   0  0  0  0  0  0  0  0  0  0  0  0
  1  2  1  0
  2  3  2  0
  3  4  1  0
  4  5  2  0
  5  6  1  0
  6  7  2  0
  6  8  2  0
  6  9  1  0
  9 10  1  0
 10 11  2  0
 10 12  1  0
 12 13  1  0
 13 14  2  0
 14 15  1  0
 15 16  2  0
 16 17  1  0
 17 18  2  0
 17 19  2  0
 17 20  1  0
 20 21  1  0
 21 22  1  0
 22 23  1  0
 23 24  1  0
 23 25  1  0
 25 26  1  0
 16 27  1  0
 27 28  2  0
 28 29  1  0
  5 30  1  0
 30 31  2  0
 31 32  1  0
 31  2  1  0
 28 13  1  0
 26 20  1  0
  1 33  1  0
  1 34  1  0
  1 35  1  0
  3 36  1  0
  4 37  1  0
 12 38  1  0
 14 39  1  0
 15 40  1  0
 21 41  1  0
 21 42  1  0
 22 43  1  0
 22 44  1  0
 23 45  1  0
 24 46  1  0
 24 47  1  0
 24 48  1  0
 25 49  1  0
 25 50  1  0
 26 51  1  0
 26 52  1  0
 27 53  1  0
 30 54  1  0
 32 55  1  0
 32 56  1  0
 32 57  1  0
M  CHG  2   9  -1  23   1
M  END
>  <UniqueID>  (36) 
36

>  <SMILES>  (36) 
Cc1ccc(S(=O)(=O)[N-]C(=O)Nc2ccc(S(=O)(=O)N3CC[NH+](C)CC3)cc2F)cc1C

>  <Energy>  (36) 
71.63805200710043

>  <Genealogy>  (36) 
Cc1ccc(S(=O)(=O)[N-]C(=O)Nc2ccc(S(=O)(=O)N3CC[NH+](C)CC3)cc2F)cc1C (protonated)
Cc1ccc(S(=O)(=O)[N-]C(=O)Nc2ccc(S(=O)(=O)N3CC[NH+](C)CC3)cc2F)cc1C (3D coordinates assigned)
Cc1ccc(S(=O)(=O)[N-]C(=O)Nc2ccc(S(=O)(=O)N3CC[NH+](C)CC3)cc2F)cc1C (nonaromatic ring conformer: 71.63805200710043 kcal/mol)

>  <smiles>  (36) 
Cc1ccc(S(=O)(=O)NC(=O)Nc2ccc(S(=O)(=O)N3CCN(C)CC3)cc2F)cc1C

>  <score_type>  (36) 
oracle

>  <origin>  (36) 
adgpu

>  <m_score__min__energy>  (36) 
-11.26

>  <m_primary>  (36) 
energy

$$$$
36:0
     RDKit          3D

 50 53  0  0  0  0  0  0  0  0999 V2000
   -4.9330   15.1430  -31.6120 C   0  0  0  0  0  0  0  0  0  0  0  0
   -5.4430   16.4000  -32.2480 C   0  0  0  0  0  0  0  0  0  0  0  0
   -6.3880   17.2350  -31.6870 C   0  0  0  0  0  0  0  0  0  0  0  0
   -6.5950   18.2620  -32.5930 C   0  0  0  0  0  0  0  0  0  0  0  0
   -7.5600   19.3620  -32.3960 C   0  0  0  0  0  0  0  0  0  0  0  0
   -8.9300   19.2700  -32.6520 C   0  0  0  0  0  0  0  0  0  0  0  0
   -9.6310   20.7600  -32.3000 S   0  0  0  0  0  0  0  0  0  0  0  0
   -8.1730   21.4500  -31.8460 C   0  0  0  0  0  0  0  0  0  0  0  0
   -8.0500   22.6910  -31.4760 N   0  0  0  0  0  0  0  0  0  0  0  0
   -6.8440   23.3530  -31.0540 C   0  0  0  0  0  0  0  0  0  0  0  0
   -6.8560   24.4640  -30.1920 C   0  0  0  0  0  0  0  0  0  0  0  0
   -5.6600   25.0870  -29.8300 C   0  0  0  0  0  0  0  0  0  0  0  0
   -4.4400   24.6200  -30.3270 C   0  0  0  0  0  0  0  0  0  0  0  0
   -3.2760   25.2960  -29.9860 O   0  0  0  0  0  0  0  0  0  0  0  0
   -4.4150   23.5060  -31.1890 C   0  0  0  0  0  0  0  0  0  0  0  0
   -3.1970   22.9820  -31.7350 N   0  0  0  0  0  0  0  0  0  0  0  0
   -3.0460   21.4580  -32.5500 S   0  0  0  0  0  0  0  0  0  0  0  0
   -3.7520   20.1530  -31.5650 C   0  0  0  0  0  0  0  0  0  0  0  0
   -1.6030   21.1690  -32.8480 O   0  0  0  0  0  0  0  0  0  0  0  0
   -3.8090   21.5300  -33.8430 O   0  0  0  0  0  0  0  0  0  0  0  0
   -5.6220   22.9090  -31.5730 C   0  0  0  0  0  0  0  0  0  0  0  0
   -7.1440   20.5850  -31.9680 N   0  0  0  0  0  0  0  0  0  0  0  0
   -5.7890   17.9880  -33.6970 C   0  0  0  0  0  0  0  0  0  0  0  0
   -5.7480   18.7640  -34.9820 C   0  0  0  0  0  0  0  0  0  0  0  0
   -5.0850   16.8530  -33.4700 N   0  0  0  0  0  0  0  0  0  0  0  0
   -4.1450   16.2350  -34.3630 C   0  0  0  0  0  0  0  0  0  0  0  0
   -4.3690   14.9320  -34.8330 C   0  0  0  0  0  0  0  0  0  0  0  0
   -3.4560   14.3330  -35.7070 C   0  0  0  0  0  0  0  0  0  0  0  0
   -2.3130   15.0300  -36.1140 C   0  0  0  0  0  0  0  0  0  0  0  0
   -1.1700   14.2780  -37.2100 Cl  0  0  0  0  0  0  0  0  0  0  0  0
   -2.0850   16.3300  -35.6460 C   0  0  0  0  0  0  0  0  0  0  0  0
   -2.9970   16.9320  -34.7740 C   0  0  0  0  0  0  0  0  0  0  0  0
   -4.9737   15.2433  -30.5173 H   0  0  0  0  0  0  0  0  0  0  0  0
   -5.5577   14.2937  -31.9259 H   0  0  0  0  0  0  0  0  0  0  0  0
   -3.8932   14.9691  -31.9259 H   0  0  0  0  0  0  0  0  0  0  0  0
   -6.8804   17.1094  -30.7114 H   0  0  0  0  0  0  0  0  0  0  0  0
   -9.4593   18.3786  -33.0198 H   0  0  0  0  0  0  0  0  0  0  0  0
   -7.8116   24.8438  -29.8013 H   0  0  0  0  0  0  0  0  0  0  0  0
   -5.6781   25.9509  -29.1493 H   0  0  0  0  0  0  0  0  0  0  0  0
   -3.6244   20.3888  -30.4982 H   0  0  0  0  0  0  0  0  0  0  0  0
   -4.8238   20.0594  -31.7942 H   0  0  0  0  0  0  0  0  0  0  0  0
   -3.2439   19.2047  -31.7942 H   0  0  0  0  0  0  0  0  0  0  0  0
   -5.6098   22.0781  -32.2938 H   0  0  0  0  0  0  0  0  0  0  0  0
   -5.6912   19.8397  -34.7591 H   0  0  0  0  0  0  0  0  0  0  0  0
   -4.8645   18.4630  -35.5641 H   0  0  0  0  0  0  0  0  0  0  0  0
   -6.6583   18.5578  -35.5641 H   0  0  0  0  0  0  0  0  0  0  0  0
   -5.2652   14.3801  -34.5132 H   0  0  0  0  0  0  0  0  0  0  0  0
   -3.6368   13.3123  -36.0750 H   0  0  0  0  0  0  0  0  0  0  0  0
   -1.1866   16.8786  -35.9651 H   0  0  0  0  0  0  0  0  0  0  0  0
   -2.8151   17.9536  -34.4090 H   0  0  0  0  0  0  0  0  0  0  0  0
  1  2  1  0
  2  3  2  0
  3  4  1  0
  4  5  1  0
  5  6  2  0
  6  7  1  0
  7  8  1  0
  8  9  2  3
  9 10  1  0
 10 11  2  0
 11 12  1  0
 12 13  2  0
 13 14  1  0
 13 15  1  0
 15 16  1  0
 16 17  1  0
 17 18  1  0
 17 19  2  0
 17 20  2  0
 15 21  2  0
  8 22  1  0
  4 23  2  0
 23 24  1  0
 23 25  1  0
 25 26  1  0
 26 27  2  0
 27 28  1  0
 28 29  2  0
 29 30  1  0
 29 31  1  0
 31 32  2  0
 25  2  1  0
 32 26  1  0
 22  5  1  0
 21 10  1  0
  1 33  1  0
  1 34  1  0
  1 35  1  0
  3 36  1  0
  6 37  1  0
 11 38  1  0
 12 39  1  0
 18 40  1  0
 18 41  1  0
 18 42  1  0
 21 43  1  0
 24 44  1  0
 24 45  1  0
 24 46  1  0
 27 47  1  0
 28 48  1  0
 31 49  1  0
 32 50  1  0
M  CHG  3  14  -1  16  -1  22  -1
M  END
>  <UniqueID>  (37) 
37

>  <SMILES>  (37) 
Cc1cc(-c2csc(=Nc3ccc([O-])c([N-]S(C)(=O)=O)c3)[n-]2)c(C)n1-c1ccc(Cl)cc1

>  <Energy>  (37) 
126.7222647342462

>  <Genealogy>  (37) 
Cc1cc(-c2csc(=Nc3ccc([O-])c([N-]S(C)(=O)=O)c3)[n-]2)c(C)n1-c1ccc(Cl)cc1 (protonated)
Cc1cc(-c2csc(=Nc3ccc([O-])c([N-]S(C)(=O)=O)c3)[n-]2)c(C)n1-c1ccc(Cl)cc1 (3D coordinates assigned)
Cc1cc(-c2csc(=Nc3ccc([O-])c([N-]S(C)(=O)=O)c3)[n-]2)c(C)n1-c1ccc(Cl)cc1 (optimized conformer: 126.7222647342462 kcal/mol)

>  <smiles>  (37) 
Cc1cc(-c2csc(=Nc3ccc(O)c(NS(C)(=O)=O)c3)[nH]2)c(C)n1-c1ccc(Cl)cc1

>  <score_type>  (37) 
oracle

>  <origin>  (37) 
adgpu

>  <m_score__min__energy>  (37) 
-13.710000000000001

>  <m_primary>  (37) 
energy

$$$$
37:0
     RDKit          3D

 74 78  0  0  0  0  0  0  0  0999 V2000
   -2.3750   20.0500  -29.4990 O   0  0  0  0  0  0  0  0  0  0  0  0
   -1.4990   20.6870  -28.8520 C   0  0  0  0  0  0  0  0  0  0  0  0
   -1.5530   22.1650  -28.8430 C   0  0  0  0  0  0  0  0  0  0  0  0
   -0.6440   22.9130  -28.0780 C   0  0  0  0  0  0  0  0  0  0  0  0
   -0.6690   24.3090  -28.1220 C   0  0  0  0  0  0  0  0  0  0  0  0
   -1.6080   24.9700  -28.9180 C   0  0  0  0  0  0  0  0  0  0  0  0
   -1.6150   26.3590  -28.9630 O   0  0  0  0  0  0  0  0  0  0  0  0
   -2.5490   24.2360  -29.6560 C   0  0  0  0  0  0  0  0  0  0  0  0
   -3.4910   24.9290  -30.4800 N   0  0  0  0  0  0  0  0  0  0  0  0
   -5.1930   24.9570  -30.1620 S   0  0  0  0  0  0  0  0  0  0  0  0
   -5.8570   26.1060  -30.8680 O   0  0  0  0  0  0  0  0  0  0  0  0
   -5.4100   25.1220  -28.6820 O   0  0  0  0  0  0  0  0  0  0  0  0
   -5.8900   23.4330  -30.7020 C   0  0  0  0  0  0  0  0  0  0  0  0
   -7.2330   23.1420  -30.4240 C   0  0  0  0  0  0  0  0  0  0  0  0
   -7.8110   21.9650  -30.9060 C   0  0  0  0  0  0  0  0  0  0  0  0
   -7.0540   21.0660  -31.6730 C   0  0  0  0  0  0  0  0  0  0  0  0
   -7.7980   19.6060  -32.3280 S   0  0  0  0  0  0  0  0  0  0  0  0
   -8.7590   19.9920  -33.4180 O   0  0  0  0  0  0  0  0  0  0  0  0
   -8.5760   18.9140  -31.2450 O   0  0  0  0  0  0  0  0  0  0  0  0
   -6.5960   18.5090  -32.9650 N   0  0  0  0  0  0  0  0  0  0  0  0
   -6.0760   19.0170  -34.2540 C   0  0  0  0  0  0  0  0  0  0  0  0
   -5.1780   17.9840  -34.9710 C   0  0  0  0  0  0  0  0  0  0  0  0
   -4.8070   16.8130  -34.0590 C   0  0  0  0  0  0  0  0  0  0  0  0
   -6.0660   16.1430  -33.4800 C   0  0  0  0  0  0  0  0  0  0  0  0
   -7.1670   17.1600  -33.1240 C   0  0  0  0  0  0  0  0  0  0  0  0
   -5.7080   21.3540  -31.9420 C   0  0  0  0  0  0  0  0  0  0  0  0
   -5.1300   22.5320  -31.4610 C   0  0  0  0  0  0  0  0  0  0  0  0
   -2.5160   22.8330  -29.6150 C   0  0  0  0  0  0  0  0  0  0  0  0
   -0.4420   19.9670  -28.1800 N   0  0  0  0  0  0  0  0  0  0  0  0
   -0.6030   18.5440  -27.8540 C   0  0  0  0  0  0  0  0  0  0  0  0
    0.3010   17.6830  -28.7530 C   0  0  0  0  0  0  0  0  0  0  0  0
    1.6430   18.3750  -29.1350 C   0  0  0  0  0  0  0  0  0  0  0  0
    1.6070   18.8850  -30.5980 C   0  0  0  0  0  0  0  0  0  0  0  0
    0.3910   18.4000  -31.3490 C   0  0  0  0  0  0  0  0  0  0  0  0
    0.2740   17.0450  -31.7060 C   0  0  0  0  0  0  0  0  0  0  0  0
   -0.8390   16.5980  -32.4250 C   0  0  0  0  0  0  0  0  0  0  0  0
   -1.8440   17.4980  -32.7900 C   0  0  0  0  0  0  0  0  0  0  0  0
   -1.7390   18.8460  -32.4350 C   0  0  0  0  0  0  0  0  0  0  0  0
   -0.6260   19.2980  -31.7190 C   0  0  0  0  0  0  0  0  0  0  0  0
    2.0020   19.4940  -28.1270 C   0  0  0  0  0  0  0  0  0  0  0  0
    0.8990   20.5630  -28.0480 C   0  0  0  0  0  0  0  0  0  0  0  0
    0.0906   22.3979  -27.4416 H   0  0  0  0  0  0  0  0  0  0  0  0
    0.0525   24.8895  -27.5284 H   0  0  0  0  0  0  0  0  0  0  0  0
   -7.8333   23.8424  -29.8247 H   0  0  0  0  0  0  0  0  0  0  0  0
   -8.8648   21.7418  -30.6832 H   0  0  0  0  0  0  0  0  0  0  0  0
   -6.9267   19.2605  -34.9075 H   0  0  0  0  0  0  0  0  0  0  0  0
   -5.4642   19.9066  -34.0434 H   0  0  0  0  0  0  0  0  0  0  0  0
   -5.7160   17.5942  -35.8477 H   0  0  0  0  0  0  0  0  0  0  0  0
   -4.2477   18.4911  -35.2667 H   0  0  0  0  0  0  0  0  0  0  0  0
   -4.2395   16.0708  -34.6397 H   0  0  0  0  0  0  0  0  0  0  0  0
   -4.2002   17.1970  -33.2257 H   0  0  0  0  0  0  0  0  0  0  0  0
   -6.4645   15.4385  -34.2249 H   0  0  0  0  0  0  0  0  0  0  0  0
   -5.7737   15.6296  -32.5521 H   0  0  0  0  0  0  0  0  0  0  0  0
   -7.9167   17.1775  -33.9287 H   0  0  0  0  0  0  0  0  0  0  0  0
   -7.6341   16.8588  -32.1748 H   0  0  0  0  0  0  0  0  0  0  0  0
   -5.1048   20.6499  -32.5339 H   0  0  0  0  0  0  0  0  0  0  0  0
   -4.0747   22.7531  -31.6788 H   0  0  0  0  0  0  0  0  0  0  0  0
   -3.2507   22.2528  -30.1925 H   0  0  0  0  0  0  0  0  0  0  0  0
   -0.3294   18.3800  -26.8013 H   0  0  0  0  0  0  0  0  0  0  0  0
   -1.6513   18.2558  -28.0210 H   0  0  0  0  0  0  0  0  0  0  0  0
    0.5311   16.7481  -28.2210 H   0  0  0  0  0  0  0  0  0  0  0  0
   -0.2490   17.5076  -29.6894 H   0  0  0  0  0  0  0  0  0  0  0  0
    2.4472   17.6268  -29.0763 H   0  0  0  0  0  0  0  0  0  0  0  0
    1.6001   19.9849  -30.5881 H   0  0  0  0  0  0  0  0  0  0  0  0
    2.4964   18.4909  -31.1115 H   0  0  0  0  0  0  0  0  0  0  0  0
    1.0618   16.3332  -31.4183 H   0  0  0  0  0  0  0  0  0  0  0  0
   -0.9236   15.5372  -32.7035 H   0  0  0  0  0  0  0  0  0  0  0  0
   -2.7182   17.1454  -33.3570 H   0  0  0  0  0  0  0  0  0  0  0  0
   -2.5330   19.5522  -32.7193 H   0  0  0  0  0  0  0  0  0  0  0  0
   -0.5457   20.3601  -31.4442 H   0  0  0  0  0  0  0  0  0  0  0  0
    2.1372   19.0469  -27.1311 H   0  0  0  0  0  0  0  0  0  0  0  0
    2.9273   19.9803  -28.4694 H   0  0  0  0  0  0  0  0  0  0  0  0
    0.9679   21.0764  -27.0776 H   0  0  0  0  0  0  0  0  0  0  0  0
    1.0449   21.2709  -28.8772 H   0  0  0  0  0  0  0  0  0  0  0  0
  1  2  2  0
  2  3  1  0
  3  4  2  0
  4  5  1  0
  5  6  2  0
  6  7  1  0
  6  8  1  0
  8  9  1  0
  9 10  1  0
 10 11  2  0
 10 12  2  0
 10 13  1  0
 13 14  2  0
 14 15  1  0
 15 16  2  0
 16 17  1  0
 17 18  2  0
 17 19  2  0
 17 20  1  0
 20 21  1  0
 21 22  1  0
 22 23  1  0
 23 24  1  0
 24 25  1  0
 16 26  1  0
 26 27  2  0
  8 28  2  0
  2 29  1  0
 29 30  1  0
 30 31  1  0
 31 32  1  0
 32 33  1  0
 33 34  1  0
 34 35  2  0
 35 36  1  0
 36 37  2  0
 37 38  1  0
 38 39  2  0
 32 40  1  0
 40 41  1  0
 28  3  1  0
 41 29  1  0
 27 13  1  0
 39 34  1  0
 25 20  1  0
  4 42  1  0
  5 43  1  0
 14 44  1  0
 15 45  1  0
 21 46  1  0
 21 47  1  0
 22 48  1  0
 22 49  1  0
 23 50  1  0
 23 51  1  0
 24 52  1  0
 24 53  1  0
 25 54  1  0
 25 55  1  0
 26 56  1  0
 27 57  1  0
 28 58  1  0
 30 59  1  0
 30 60  1  0
 31 61  1  0
 31 62  1  0
 32 63  1  0
 33 64  1  0
 33 65  1  0
 35 66  1  0
 36 67  1  0
 37 68  1  0
 38 69  1  0
 39 70  1  0
 40 71  1  0
 40 72  1  0
 41 73  1  0
 41 74  1  0
M  CHG  2   7  -1   9  -1
M  END
>  <UniqueID>  (38) 
38

>  <SMILES>  (38) 
O=C(c1ccc([O-])c([N-]S(=O)(=O)c2ccc(S(=O)(=O)N3CCCCC3)cc2)c1)N1CCC(Cc2ccccc2)CC1

>  <Energy>  (38) 
95.1357160204861

>  <Genealogy>  (38) 
O=C(c1ccc([O-])c([N-]S(=O)(=O)c2ccc(S(=O)(=O)N3CCCCC3)cc2)c1)N1CCC(Cc2ccccc2)CC1 (protonated)
O=C(c1ccc([O-])c([N-]S(=O)(=O)c2ccc(S(=O)(=O)N3CCCCC3)cc2)c1)N1CCC(Cc2ccccc2)CC1 (3D coordinates assigned)
O=C(c1ccc([O-])c([N-]S(=O)(=O)c2ccc(S(=O)(=O)N3CCCCC3)cc2)c1)N1CCC(Cc2ccccc2)CC1 (nonaromatic ring conformer: 95.1357160204861 kcal/mol)

>  <smiles>  (38) 
O=C(c1ccc(O)c(NS(=O)(=O)c2ccc(S(=O)(=O)N3CCCCC3)cc2)c1)N1CCC(Cc2ccccc2)CC1

>  <score_type>  (38) 
oracle

>  <origin>  (38) 
adgpu

>  <m_score__min__energy>  (38) 
-16.510000000000002

>  <m_primary>  (38) 
energy

$$$$
38:0
     RDKit          3D

 56 59  0  0  0  0  0  0  0  0999 V2000
   -6.8340   19.8120  -33.5610 C   0  0  0  0  0  0  0  0  0  0  0  0
   -5.8220   18.6420  -33.5250 C   0  0  0  0  0  0  0  0  0  0  0  0
   -6.3330   17.5730  -32.5360 C   0  0  0  0  0  0  0  0  0  0  0  0
   -5.7550   18.0500  -34.9630 C   0  0  0  0  0  0  0  0  0  0  0  0
   -4.5810   17.0910  -35.1480 C   0  0  0  0  0  0  0  0  0  0  0  0
   -3.3370   17.7680  -34.8100 N   0  0  0  0  0  0  0  0  0  0  0  0
   -3.2620   18.6790  -33.7050 C   0  0  0  0  0  0  0  0  0  0  0  0
   -2.0050   19.1260  -33.2690 C   0  0  0  0  0  0  0  0  0  0  0  0
   -1.8960   19.9890  -32.1660 C   0  0  0  0  0  0  0  0  0  0  0  0
   -0.6600   20.4590  -31.6960 O   0  0  0  0  0  0  0  0  0  0  0  0
   -0.1650   20.2470  -30.3770 C   0  0  0  0  0  0  0  0  0  0  0  0
   -0.8950   21.1510  -29.4270 C   0  0  0  0  0  0  0  0  0  0  0  0
   -1.2760   20.6840  -28.1600 C   0  0  0  0  0  0  0  0  0  0  0  0
   -1.9920   21.5120  -27.2920 C   0  0  0  0  0  0  0  0  0  0  0  0
   -2.3350   22.8080  -27.6820 C   0  0  0  0  0  0  0  0  0  0  0  0
   -1.9620   23.2920  -28.9480 C   0  0  0  0  0  0  0  0  0  0  0  0
   -2.3260   24.6620  -29.3760 C   0  0  0  0  0  0  0  0  0  0  0  0
   -1.7540   25.6480  -28.8400 O   0  0  0  0  0  0  0  0  0  0  0  0
   -3.3060   24.9100  -30.3940 N   0  0  0  0  0  0  0  0  0  0  0  0
   -4.6200   24.3340  -30.4540 C   0  0  0  0  0  0  0  0  0  0  0  0
   -4.7300   22.9660  -30.7340 C   0  0  0  0  0  0  0  0  0  0  0  0
   -5.9780   22.3390  -30.7390 C   0  0  0  0  0  0  0  0  0  0  0  0
   -7.1310   23.0800  -30.4760 C   0  0  0  0  0  0  0  0  0  0  0  0
   -7.0410   24.4510  -30.2310 C   0  0  0  0  0  0  0  0  0  0  0  0
   -5.7950   25.0970  -30.2370 C   0  0  0  0  0  0  0  0  0  0  0  0
   -5.7490   26.5210  -30.0850 N   0  0  0  0  0  0  0  0  0  0  0  0
   -1.2580   22.4480  -29.8240 C   0  0  0  0  0  0  0  0  0  0  0  0
   -3.0540   20.3930  -31.5000 C   0  0  0  0  0  0  0  0  0  0  0  0
   -4.3100   19.9620  -31.9320 C   0  0  0  0  0  0  0  0  0  0  0  0
   -4.4400   19.1270  -33.0620 C   0  0  0  0  0  0  0  0  0  0  0  0
   -7.0896   20.1075  -32.5327 H   0  0  0  0  0  0  0  0  0  0  0  0
   -6.3866   20.6677  -34.0879 H   0  0  0  0  0  0  0  0  0  0  0  0
   -7.7452   19.4926  -34.0879 H   0  0  0  0  0  0  0  0  0  0  0  0
   -6.1678   17.9186  -31.5049 H   0  0  0  0  0  0  0  0  0  0  0  0
   -7.4080   17.4066  -32.6991 H   0  0  0  0  0  0  0  0  0  0  0  0
   -5.7874   16.6319  -32.6991 H   0  0  0  0  0  0  0  0  0  0  0  0
   -6.6896   17.5060  -35.1641 H   0  0  0  0  0  0  0  0  0  0  0  0
   -5.6151   18.8874  -35.6624 H   0  0  0  0  0  0  0  0  0  0  0  0
   -4.7135   16.2194  -34.4901 H   0  0  0  0  0  0  0  0  0  0  0  0
   -4.5426   16.7598  -36.1962 H   0  0  0  0  0  0  0  0  0  0  0  0
   -2.4760   17.5310  -35.3540 H   0  0  0  0  0  0  0  0  0  0  0  0
   -1.0969   18.7975  -33.7958 H   0  0  0  0  0  0  0  0  0  0  0  0
   -0.3280   19.1986  -30.0865 H   0  0  0  0  0  0  0  0  0  0  0  0
    0.9120   20.4685  -30.3454 H   0  0  0  0  0  0  0  0  0  0  0  0
   -1.0101   19.6629  -27.8492 H   0  0  0  0  0  0  0  0  0  0  0  0
   -2.2863   21.1420  -26.2988 H   0  0  0  0  0  0  0  0  0  0  0  0
   -2.9005   23.4542  -26.9945 H   0  0  0  0  0  0  0  0  0  0  0  0
   -3.8250   22.3800  -30.9520 H   0  0  0  0  0  0  0  0  0  0  0  0
   -6.0521   21.2620  -30.9501 H   0  0  0  0  0  0  0  0  0  0  0  0
   -8.1121   22.5828  -30.4618 H   0  0  0  0  0  0  0  0  0  0  0  0
   -7.9545   25.0303  -30.0315 H   0  0  0  0  0  0  0  0  0  0  0  0
   -6.2530   26.9860  -29.2980 H   0  0  0  0  0  0  0  0  0  0  0  0
   -5.3100   27.1360  -30.8040 H   0  0  0  0  0  0  0  0  0  0  0  0
   -0.9892   22.8064  -30.8287 H   0  0  0  0  0  0  0  0  0  0  0  0
   -2.9766   21.0572  -30.6266 H   0  0  0  0  0  0  0  0  0  0  0  0
   -5.2101   20.2776  -31.3841 H   0  0  0  0  0  0  0  0  0  0  0  0
  1  2  1  0
  2  3  1  0
  2  4  1  0
  4  5  1  0
  5  6  1  0
  6  7  1  0
  7  8  2  0
  8  9  1  0
  9 10  1  0
 10 11  1  0
 11 12  1  0
 12 13  2  0
 13 14  1  0
 14 15  2  0
 15 16  1  0
 16 17  1  0
 17 18  2  0
 17 19  1  0
 19 20  1  0
 20 21  2  0
 21 22  1  0
 22 23  2  0
 23 24  1  0
 24 25  2  0
 25 26  1  0
 16 27  2  0
  9 28  2  0
 28 29  1  0
 29 30  2  0
 30  2  1  0
 30  7  1  0
 27 12  1  0
 25 20  1  0
  1 31  1  0
  1 32  1  0
  1 33  1  0
  3 34  1  0
  3 35  1  0
  3 36  1  0
  4 37  1  0
  4 38  1  0
  5 39  1  0
  5 40  1  0
  6 41  1  0
  8 42  1  0
 11 43  1  0
 11 44  1  0
 13 45  1  0
 14 46  1  0
 15 47  1  0
 21 48  1  0
 22 49  1  0
 23 50  1  0
 24 51  1  0
 26 52  1  0
 26 53  1  0
 27 54  1  0
 28 55  1  0
 29 56  1  0
M  CHG  1  19  -1
M  END
>  <UniqueID>  (39) 
39

>  <SMILES>  (39) 
CC1(C)CCNc2cc(OCc3cccc(C(=O)[N-]c4ccccc4N)c3)ccc21

>  <Energy>  (39) 
68.24895654821259

>  <Genealogy>  (39) 
CC1(C)CCNc2cc(OCc3cccc(C(=O)[N-]c4ccccc4N)c3)ccc21 (protonated)
CC1(C)CCNc2cc(OCc3cccc(C(=O)[N-]c4ccccc4N)c3)ccc21 (3D coordinates assigned)
CC1(C)CCNc2cc(OCc3cccc(C(=O)[N-]c4ccccc4N)c3)ccc21 (nonaromatic ring conformer: 68.24895654821259 kcal/mol)

>  <smiles>  (39) 
CC1(C)CCNc2cc(OCc3cccc(C(=O)Nc4ccccc4N)c3)ccc21

>  <score_type>  (39) 
oracle

>  <origin>  (39) 
adgpu

>  <m_score__min__energy>  (39) 
-11.42

>  <m_primary>  (39) 
energy

$$$$
39:0
     RDKit          3D

 45 48  0  0  0  0  0  0  0  0999 V2000
    2.8360   24.1830  -27.2630 C   0  0  0  0  0  0  0  0  0  0  0  0
    1.3710   23.9640  -27.4390 C   0  0  0  0  0  0  0  0  0  0  0  0
    0.5230   24.9320  -27.8750 N   0  0  0  0  0  0  0  0  0  0  0  0
   -0.6600   24.2960  -27.8450 C   0  0  0  0  0  0  0  0  0  0  0  0
   -1.9110   24.8010  -28.1910 C   0  0  0  0  0  0  0  0  0  0  0  0
   -3.0270   23.9350  -28.0880 C   0  0  0  0  0  0  0  0  0  0  0  0
   -4.3540   24.3640  -28.4180 N   0  0  0  0  0  0  0  0  0  0  0  0
   -4.9510   24.6250  -30.0240 S   0  0  0  0  0  0  0  0  0  0  0  0
   -3.8920   25.3070  -30.8460 O   0  0  0  0  0  0  0  0  0  0  0  0
   -6.1550   25.5230  -29.9610 O   0  0  0  0  0  0  0  0  0  0  0  0
   -5.4230   23.0920  -30.7470 C   0  0  0  0  0  0  0  0  0  0  0  0
   -4.4270   22.2180  -31.2330 C   0  0  0  0  0  0  0  0  0  0  0  0
   -4.7790   20.9940  -31.8210 C   0  0  0  0  0  0  0  0  0  0  0  0
   -6.1330   20.6620  -31.9190 C   0  0  0  0  0  0  0  0  0  0  0  0
   -7.1090   21.5160  -31.4420 C   0  0  0  0  0  0  0  0  0  0  0  0
   -6.7810   22.7370  -30.8520 C   0  0  0  0  0  0  0  0  0  0  0  0
   -8.4140   20.9900  -31.6400 N   0  0  0  0  0  0  0  0  0  0  0  0
   -9.6570   21.7510  -31.6240 C   0  0  0  0  0  0  0  0  0  0  0  0
   -8.2100   19.7560  -32.3270 C   0  0  0  0  0  0  0  0  0  0  0  0
   -9.1580   19.0330  -32.7360 O   0  0  0  0  0  0  0  0  0  0  0  0
   -6.7510   19.4310  -32.5260 C   0  0  0  0  0  0  0  0  0  0  0  0
   -6.4100   19.3110  -34.0180 C   0  0  0  0  0  0  0  0  0  0  0  0
   -6.3590   18.1670  -31.7470 C   0  0  0  0  0  0  0  0  0  0  0  0
   -2.8400   22.6050  -27.6380 C   0  0  0  0  0  0  0  0  0  0  0  0
   -1.5600   22.1330  -27.2910 C   0  0  0  0  0  0  0  0  0  0  0  0
   -0.4950   23.0180  -27.4110 C   0  0  0  0  0  0  0  0  0  0  0  0
    0.7690   22.8210  -27.1540 O   0  0  0  0  0  0  0  0  0  0  0  0
    3.0751   24.2187  -26.1899 H   0  0  0  0  0  0  0  0  0  0  0  0
    3.3894   23.3576  -27.7347 H   0  0  0  0  0  0  0  0  0  0  0  0
    3.1238   25.1342  -27.7347 H   0  0  0  0  0  0  0  0  0  0  0  0
   -2.0286   25.8397  -28.5335 H   0  0  0  0  0  0  0  0  0  0  0  0
   -3.3667   22.4988  -31.1501 H   0  0  0  0  0  0  0  0  0  0  0  0
   -4.0048   20.3092  -32.1974 H   0  0  0  0  0  0  0  0  0  0  0  0
   -7.5674   23.4083  -30.4767 H   0  0  0  0  0  0  0  0  0  0  0  0
   -9.9600   21.9365  -30.5829 H   0  0  0  0  0  0  0  0  0  0  0  0
   -9.5056   22.7114  -32.1385 H   0  0  0  0  0  0  0  0  0  0  0  0
  -10.4435   21.1794  -32.1385 H   0  0  0  0  0  0  0  0  0  0  0  0
   -5.3778   18.9478  -34.1301 H   0  0  0  0  0  0  0  0  0  0  0  0
   -7.1021   18.6024  -34.4965 H   0  0  0  0  0  0  0  0  0  0  0  0
   -6.5058   20.2968  -34.4965 H   0  0  0  0  0  0  0  0  0  0  0  0
   -6.4212   18.3677  -30.6673 H   0  0  0  0  0  0  0  0  0  0  0  0
   -7.0453   17.3479  -32.0079 H   0  0  0  0  0  0  0  0  0  0  0  0
   -5.3296   17.8800  -32.0079 H   0  0  0  0  0  0  0  0  0  0  0  0
   -3.7065   21.9320  -27.5586 H   0  0  0  0  0  0  0  0  0  0  0  0
   -1.4083   21.1023  -26.9381 H   0  0  0  0  0  0  0  0  0  0  0  0
  1  2  1  0
  2  3  2  0
  3  4  1  0
  4  5  2  0
  5  6  1  0
  6  7  1  0
  7  8  1  0
  8  9  2  0
  8 10  2  0
  8 11  1  0
 11 12  2  0
 12 13  1  0
 13 14  2  0
 14 15  1  0
 15 16  2  0
 15 17  1  0
 17 18  1  0
 17 19  1  0
 19 20  2  0
 19 21  1  0
 21 22  1  0
 21 23  1  0
  6 24  2  0
 24 25  1  0
 25 26  2  0
 26 27  1  0
 27  2  1  0
 26  4  1  0
 16 11  1  0
 21 14  1  0
  1 28  1  0
  1 29  1  0
  1 30  1  0
  5 31  1  0
 12 32  1  0
 13 33  1  0
 16 34  1  0
 18 35  1  0
 18 36  1  0
 18 37  1  0
 22 38  1  0
 22 39  1  0
 22 40  1  0
 23 41  1  0
 23 42  1  0
 23 43  1  0
 24 44  1  0
 25 45  1  0
M  CHG  1   7  -1
M  END
>  <UniqueID>  (40) 
40

>  <SMILES>  (40) 
Cc1nc2cc([N-]S(=O)(=O)c3ccc4c(c3)N(C)C(=O)C4(C)C)ccc2o1

>  <Energy>  (40) 
102.95094249900264

>  <Genealogy>  (40) 
Cc1nc2cc([N-]S(=O)(=O)c3ccc4c(c3)N(C)C(=O)C4(C)C)ccc2o1 (protonated)
Cc1nc2cc([N-]S(=O)(=O)c3ccc4c(c3)N(C)C(=O)C4(C)C)ccc2o1 (3D coordinates assigned)
Cc1nc2cc([N-]S(=O)(=O)c3ccc4c(c3)N(C)C(=O)C4(C)C)ccc2o1 (nonaromatic ring conformer: 102.95094249900264 kcal/mol)

>  <smiles>  (40) 
Cc1nc2cc(NS(=O)(=O)c3ccc4c(c3)N(C)C(=O)C4(C)C)ccc2o1

>  <score_type>  (40) 
oracle

>  <origin>  (40) 
adgpu

>  <m_score__min__energy>  (40) 
-11.09

>  <m_primary>  (40) 
energy

$$$$
40:0
     RDKit          3D

 49 51  0  0  0  0  0  0  0  0999 V2000
   -0.3740   25.9340  -27.4660 C   0  0  0  0  0  0  0  0  0  0  0  0
   -1.7230   25.3710  -27.9290 C   0  0  0  0  0  0  0  0  0  0  0  0
   -1.5310   24.2060  -28.9220 C   0  0  0  0  0  0  0  0  0  0  0  0
   -2.6300   23.1250  -28.8370 C   0  0  0  0  0  0  0  0  0  0  0  0
   -3.9520   23.6330  -28.4160 N   0  0  0  0  0  0  0  0  0  0  0  0
   -4.9050   24.2710  -29.7400 S   0  0  0  0  0  0  0  0  0  0  0  0
   -3.9870   24.9060  -30.7480 O   0  0  0  0  0  0  0  0  0  0  0  0
   -5.8290   25.3390  -29.2220 O   0  0  0  0  0  0  0  0  0  0  0  0
   -5.8550   23.0220  -30.5410 C   0  0  0  0  0  0  0  0  0  0  0  0
   -5.2190   21.9190  -31.1290 C   0  0  0  0  0  0  0  0  0  0  0  0
   -5.9760   20.8760  -31.6670 C   0  0  0  0  0  0  0  0  0  0  0  0
   -7.3760   20.9300  -31.6330 C   0  0  0  0  0  0  0  0  0  0  0  0
   -8.3330   19.5610  -32.1990 S   0  0  0  0  0  0  0  0  0  0  0  0
   -8.9570   18.8730  -31.0170 O   0  0  0  0  0  0  0  0  0  0  0  0
   -9.4400   20.0600  -33.0860 O   0  0  0  0  0  0  0  0  0  0  0  0
   -7.3520   18.4170  -33.0830 N   0  0  0  0  0  0  0  0  0  0  0  0
   -6.4790   19.1140  -34.0410 C   0  0  0  0  0  0  0  0  0  0  0  0
   -5.4730   18.1320  -34.6750 C   0  0  0  0  0  0  0  0  0  0  0  0
   -5.7960   16.7920  -34.3560 O   0  0  0  0  0  0  0  0  0  0  0  0
   -5.6950   16.5940  -32.9550 C   0  0  0  0  0  0  0  0  0  0  0  0
   -6.5400   17.6110  -32.1590 C   0  0  0  0  0  0  0  0  0  0  0  0
   -8.0110   22.0610  -31.1020 C   0  0  0  0  0  0  0  0  0  0  0  0
   -7.2540   23.1040  -30.5650 C   0  0  0  0  0  0  0  0  0  0  0  0
   -3.9660   24.4980  -27.2110 C   0  0  0  0  0  0  0  0  0  0  0  0
   -2.5710   24.9280  -26.7350 C   0  0  0  0  0  0  0  0  0  0  0  0
   -0.3404   25.9480  -26.3666 H   0  0  0  0  0  0  0  0  0  0  0  0
    0.4390   25.3001  -27.8496 H   0  0  0  0  0  0  0  0  0  0  0  0
   -0.2528   26.9578  -27.8496 H   0  0  0  0  0  0  0  0  0  0  0  0
   -2.2587   26.1775  -28.4512 H   0  0  0  0  0  0  0  0  0  0  0  0
   -1.5277   24.6173  -29.9422 H   0  0  0  0  0  0  0  0  0  0  0  0
   -0.5808   23.7170  -28.6612 H   0  0  0  0  0  0  0  0  0  0  0  0
   -2.7382   22.6650  -29.8303 H   0  0  0  0  0  0  0  0  0  0  0  0
   -2.3081   22.4088  -28.0667 H   0  0  0  0  0  0  0  0  0  0  0  0
   -4.1205   21.8753  -31.1666 H   0  0  0  0  0  0  0  0  0  0  0  0
   -5.4717   20.0092  -32.1190 H   0  0  0  0  0  0  0  0  0  0  0  0
   -7.0968   19.5604  -34.8341 H   0  0  0  0  0  0  0  0  0  0  0  0
   -5.9207   19.8967  -33.5065 H   0  0  0  0  0  0  0  0  0  0  0  0
   -5.4915   18.2551  -35.7679 H   0  0  0  0  0  0  0  0  0  0  0  0
   -4.4718   18.3534  -34.2767 H   0  0  0  0  0  0  0  0  0  0  0  0
   -6.0439   15.5788  -32.7148 H   0  0  0  0  0  0  0  0  0  0  0  0
   -4.6419   16.7339  -32.6697 H   0  0  0  0  0  0  0  0  0  0  0  0
   -7.2027   17.0719  -31.4660 H   0  0  0  0  0  0  0  0  0  0  0  0
   -5.8702   18.2741  -31.5918 H   0  0  0  0  0  0  0  0  0  0  0  0
   -9.1090   22.1271  -31.1084 H   0  0  0  0  0  0  0  0  0  0  0  0
   -7.7576   23.9937  -30.1591 H   0  0  0  0  0  0  0  0  0  0  0  0
   -4.5471   25.4031  -27.4416 H   0  0  0  0  0  0  0  0  0  0  0  0
   -4.4108   23.9048  -26.3984 H   0  0  0  0  0  0  0  0  0  0  0  0
   -2.6695   25.7649  -26.0279 H   0  0  0  0  0  0  0  0  0  0  0  0
   -2.0805   24.0767  -26.2403 H   0  0  0  0  0  0  0  0  0  0  0  0
  1  2  1  0
  2  3  1  0
  3  4  1  0
  4  5  1  0
  5  6  1  0
  6  7  2  0
  6  8  2  0
  6  9  1  0
  9 10  2  0
 10 11  1  0
 11 12  2  0
 12 13  1  0
 13 14  2  0
 13 15  2  0
 13 16  1  0
 16 17  1  0
 17 18  1  0
 18 19  1  0
 19 20  1  0
 20 21  1  0
 12 22  1  0
 22 23  2  0
  5 24  1  0
 24 25  1  0
 25  2  1  0
 23  9  1  0
 21 16  1  0
  1 26  1  0
  1 27  1  0
  1 28  1  0
  2 29  1  0
  3 30  1  0
  3 31  1  0
  4 32  1  0
  4 33  1  0
 10 34  1  0
 11 35  1  0
 17 36  1  0
 17 37  1  0
 18 38  1  0
 18 39  1  0
 20 40  1  0
 20 41  1  0
 21 42  1  0
 21 43  1  0
 22 44  1  0
 23 45  1  0
 24 46  1  0
 24 47  1  0
 25 48  1  0
 25 49  1  0
M  END
>  <UniqueID>  (41) 
41

>  <SMILES>  (41) 
CC1CCN(S(=O)(=O)c2ccc(S(=O)(=O)N3CCOCC3)cc2)CC1

>  <Energy>  (41) 
59.837477787461154

>  <Genealogy>  (41) 
CC1CCN(S(=O)(=O)c2ccc(S(=O)(=O)N3CCOCC3)cc2)CC1 (3D coordinates assigned)
CC1CCN(S(=O)(=O)c2ccc(S(=O)(=O)N3CCOCC3)cc2)CC1 (nonaromatic ring conformer: 59.837477787461154 kcal/mol)

>  <smiles>  (41) 
CC1CCN(S(=O)(=O)c2ccc(S(=O)(=O)N3CCOCC3)cc2)CC1

>  <score_type>  (41) 
oracle

>  <origin>  (41) 
adgpu

>  <m_score__min__energy>  (41) 
-10.210000000000001

>  <m_primary>  (41) 
energy

$$$$
41:0
     RDKit          3D

 68 72  0  0  0  0  0  0  0  0999 V2000
   -1.2280   26.0260  -28.9760 O   0  0  0  0  0  0  0  0  0  0  0  0
   -1.8320   24.9260  -29.0840 C   0  0  0  0  0  0  0  0  0  0  0  0
   -3.1120   24.9050  -29.7270 N   0  0  0  0  0  0  0  0  0  0  0  0
   -3.7550   23.7630  -30.3120 C   0  0  0  0  0  0  0  0  0  0  0  0
   -3.1220   23.1020  -31.3710 C   0  0  0  0  0  0  0  0  0  0  0  0
   -3.7250   21.9930  -31.9730 C   0  0  0  0  0  0  0  0  0  0  0  0
   -4.9630   21.5270  -31.5120 C   0  0  0  0  0  0  0  0  0  0  0  0
   -5.7140   20.1290  -32.2770 S   0  0  0  0  0  0  0  0  0  0  0  0
   -4.7880   19.5590  -33.3160 O   0  0  0  0  0  0  0  0  0  0  0  0
   -5.9530   19.0810  -31.2260 O   0  0  0  0  0  0  0  0  0  0  0  0
   -7.2370   20.5900  -33.0070 N   0  0  0  0  0  0  0  0  0  0  0  0
   -7.7900   21.7840  -32.3560 C   0  0  0  0  0  0  0  0  0  0  0  0
   -8.7300   21.3130  -31.2550 C   0  0  0  0  0  0  0  0  0  0  0  0
   -9.0330   19.8580  -31.5700 C   0  0  0  0  0  0  0  0  0  0  0  0
   -8.2500   19.5410  -32.8370 C   0  0  0  0  0  0  0  0  0  0  0  0
   -5.5810   22.1630  -30.4280 C   0  0  0  0  0  0  0  0  0  0  0  0
   -4.9760   23.2680  -29.8230 C   0  0  0  0  0  0  0  0  0  0  0  0
   -1.2100   23.7070  -28.5180 C   0  0  0  0  0  0  0  0  0  0  0  0
   -0.9740   22.6280  -29.3850 C   0  0  0  0  0  0  0  0  0  0  0  0
   -0.4810   21.4130  -28.8980 C   0  0  0  0  0  0  0  0  0  0  0  0
   -0.3290   20.0420  -29.9910 S   0  0  0  0  0  0  0  0  0  0  0  0
    1.1210   19.8490  -30.3370 O   0  0  0  0  0  0  0  0  0  0  0  0
   -0.8420   18.7920  -29.3290 O   0  0  0  0  0  0  0  0  0  0  0  0
   -1.2400   20.3780  -31.4410 N   0  0  0  0  0  0  0  0  0  0  0  0
   -1.5750   19.1450  -32.1520 C   0  0  0  0  0  0  0  0  0  0  0  0
   -1.7340   19.5220  -33.6170 C   0  0  0  0  0  0  0  0  0  0  0  0
   -0.9880   20.8370  -33.7770 C   0  0  0  0  0  0  0  0  0  0  0  0
   -0.4660   21.1800  -32.3890 C   0  0  0  0  0  0  0  0  0  0  0  0
   -0.1840   21.2820  -27.5380 C   0  0  0  0  0  0  0  0  0  0  0  0
   -0.3840   22.3560  -26.6700 C   0  0  0  0  0  0  0  0  0  0  0  0
   -0.9010   23.5750  -27.1400 C   0  0  0  0  0  0  0  0  0  0  0  0
   -1.0860   24.6630  -26.2150 N   0  0  0  0  0  0  0  0  0  0  0  0
   -2.3510   25.3550  -26.0340 C   0  0  0  0  0  0  0  0  0  0  0  0
   -2.1080   26.3590  -24.9180 C   0  0  0  0  0  0  0  0  0  0  0  0
   -0.5930   26.5440  -24.8430 C   0  0  0  0  0  0  0  0  0  0  0  0
    0.0180   25.3390  -25.5490 C   0  0  0  0  0  0  0  0  0  0  0  0
   -2.1452   23.4566  -31.7316 H   0  0  0  0  0  0  0  0  0  0  0  0
   -3.2256   21.4850  -32.8112 H   0  0  0  0  0  0  0  0  0  0  0  0
   -7.0730   20.7740  -34.0240 H   0  0  0  0  0  0  0  0  0  0  0  0
   -6.9773   22.3860  -31.9235 H   0  0  0  0  0  0  0  0  0  0  0  0
   -8.3293   22.4070  -33.0847 H   0  0  0  0  0  0  0  0  0  0  0  0
   -8.2438   21.3997  -30.2721 H   0  0  0  0  0  0  0  0  0  0  0  0
   -9.6465   21.9199  -31.2156 H   0  0  0  0  0  0  0  0  0  0  0  0
   -8.7050   19.2100  -30.7438 H   0  0  0  0  0  0  0  0  0  0  0  0
  -10.1112   19.6870  -31.7047 H   0  0  0  0  0  0  0  0  0  0  0  0
   -7.7616   18.5601  -32.7406 H   0  0  0  0  0  0  0  0  0  0  0  0
   -8.9213   19.5075  -33.7078 H   0  0  0  0  0  0  0  0  0  0  0  0
   -6.5456   21.7916  -30.0516 H   0  0  0  0  0  0  0  0  0  0  0  0
   -5.4574   23.7522  -28.9606 H   0  0  0  0  0  0  0  0  0  0  0  0
   -1.1793   22.7395  -30.4599 H   0  0  0  0  0  0  0  0  0  0  0  0
   -0.7676   18.4072  -32.0348 H   0  0  0  0  0  0  0  0  0  0  0  0
   -2.4962   18.6940  -31.7547 H   0  0  0  0  0  0  0  0  0  0  0  0
   -1.2941   18.7485  -34.2637 H   0  0  0  0  0  0  0  0  0  0  0  0
   -2.7919   19.6135  -33.9041 H   0  0  0  0  0  0  0  0  0  0  0  0
   -0.1532   20.7218  -34.4840 H   0  0  0  0  0  0  0  0  0  0  0  0
   -1.6386   21.6294  -34.1756 H   0  0  0  0  0  0  0  0  0  0  0  0
    0.6027   20.9307  -32.3131 H   0  0  0  0  0  0  0  0  0  0  0  0
   -0.5730   22.2545  -32.1794 H   0  0  0  0  0  0  0  0  0  0  0  0
    0.2083   20.3298  -27.1514 H   0  0  0  0  0  0  0  0  0  0  0  0
   -0.1338   22.2470  -25.6044 H   0  0  0  0  0  0  0  0  0  0  0  0
   -2.6423   25.8724  -26.9600 H   0  0  0  0  0  0  0  0  0  0  0  0
   -3.1657   24.6586  -25.7865 H   0  0  0  0  0  0  0  0  0  0  0  0
   -2.5991   27.3155  -25.1503 H   0  0  0  0  0  0  0  0  0  0  0  0
   -2.5195   26.0061  -23.9608 H   0  0  0  0  0  0  0  0  0  0  0  0
   -0.2968   27.4739  -25.3505 H   0  0  0  0  0  0  0  0  0  0  0  0
   -0.2489   26.6148  -23.8006 H   0  0  0  0  0  0  0  0  0  0  0  0
    0.7663   25.6664  -26.2858 H   0  0  0  0  0  0  0  0  0  0  0  0
    0.5298   24.6724  -24.8392 H   0  0  0  0  0  0  0  0  0  0  0  0
  1  2  2  0
  2  3  1  0
  3  4  1  0
  4  5  2  0
  5  6  1  0
  6  7  2  0
  7  8  1  0
  8  9  2  0
  8 10  2  0
  8 11  1  0
 11 12  1  0
 12 13  1  0
 13 14  1  0
 14 15  1  0
  7 16  1  0
 16 17  2  0
  2 18  1  0
 18 19  2  0
 19 20  1  0
 20 21  1  0
 21 22  2  0
 21 23  2  0
 21 24  1  0
 24 25  1  0
 25 26  1  0
 26 27  1  0
 27 28  1  0
 20 29  2  0
 29 30  1  0
 30 31  2  0
 31 32  1  0
 32 33  1  0
 33 34  1  0
 34 35  1  0
 35 36  1  0
 17  4  1  0
 31 18  1  0
 36 32  1  0
 15 11  1  0
 28 24  1  0
  5 37  1  0
  6 38  1  0
 11 39  1  0
 12 40  1  0
 12 41  1  0
 13 42  1  0
 13 43  1  0
 14 44  1  0
 14 45  1  0
 15 46  1  0
 15 47  1  0
 16 48  1  0
 17 49  1  0
 19 50  1  0
 25 51  1  0
 25 52  1  0
 26 53  1  0
 26 54  1  0
 27 55  1  0
 27 56  1  0
 28 57  1  0
 28 58  1  0
 29 59  1  0
 30 60  1  0
 33 61  1  0
 33 62  1  0
 34 63  1  0
 34 64  1  0
 35 65  1  0
 35 66  1  0
 36 67  1  0
 36 68  1  0
M  CHG  2   3  -1  11   1
M  END
>  <UniqueID>  (42) 
42

>  <SMILES>  (42) 
O=C([N-]c1ccc(S(=O)(=O)[NH+]2CCCC2)cc1)c1cc(S(=O)(=O)N2CCCC2)ccc1N1CCCC1

>  <Energy>  (42) 
83.46571427060614

>  <Genealogy>  (42) 
O=C([N-]c1ccc(S(=O)(=O)[NH+]2CCCC2)cc1)c1cc(S(=O)(=O)N2CCCC2)ccc1N1CCCC1 (protonated)
O=C([N-]c1ccc(S(=O)(=O)[NH+]2CCCC2)cc1)c1cc(S(=O)(=O)N2CCCC2)ccc1N1CCCC1 (3D coordinates assigned)
O=C([N-]c1ccc(S(=O)(=O)[NH+]2CCCC2)cc1)c1cc(S(=O)(=O)N2CCCC2)ccc1N1CCCC1 (nonaromatic ring conformer: 83.46571427060614 kcal/mol)

>  <smiles>  (42) 
O=C(Nc1ccc(S(=O)(=O)N2CCCC2)cc1)c1cc(S(=O)(=O)N2CCCC2)ccc1N1CCCC1

>  <score_type>  (42) 
oracle

>  <origin>  (42) 
adgpu

>  <m_score__min__energy>  (42) 
-11.75

>  <m_primary>  (42) 
energy

$$$$
42:0
     RDKit          3D

 48 52  0  0  0  0  0  0  0  0999 V2000
   -8.6330   19.3420  -31.7540 O   0  0  0  0  0  0  0  0  0  0  0  0
   -7.4740   19.6970  -32.1030 C   0  0  0  0  0  0  0  0  0  0  0  0
   -6.6640   18.8160  -32.9780 C   0  0  0  0  0  0  0  0  0  0  0  0
   -7.1830   17.5940  -33.4360 C   0  0  0  0  0  0  0  0  0  0  0  0
   -6.4210   16.7720  -34.2660 C   0  0  0  0  0  0  0  0  0  0  0  0
   -5.1340   17.1580  -34.6450 C   0  0  0  0  0  0  0  0  0  0  0  0
   -4.6050   18.3670  -34.1950 C   0  0  0  0  0  0  0  0  0  0  0  0
   -5.3630   19.2080  -33.3600 C   0  0  0  0  0  0  0  0  0  0  0  0
   -4.8080   20.4970  -32.8840 C   0  0  0  0  0  0  0  0  0  0  0  0
   -3.6440   20.8450  -33.2270 O   0  0  0  0  0  0  0  0  0  0  0  0
   -5.6200   21.3810  -32.0120 C   0  0  0  0  0  0  0  0  0  0  0  0
   -5.1080   22.6130  -31.5640 C   0  0  0  0  0  0  0  0  0  0  0  0
   -5.8870   23.4600  -30.7640 C   0  0  0  0  0  0  0  0  0  0  0  0
   -5.2860   25.0390  -30.2610 S   0  0  0  0  0  0  0  0  0  0  0  0
   -5.8030   25.4120  -28.8960 O   0  0  0  0  0  0  0  0  0  0  0  0
   -5.7560   26.0710  -31.2470 O   0  0  0  0  0  0  0  0  0  0  0  0
   -3.5490   25.0120  -30.2530 N   0  0  0  0  0  0  0  0  0  0  0  0
   -2.7420   24.1890  -29.3980 C   0  0  0  0  0  0  0  0  0  0  0  0
   -3.0350   22.8330  -29.1860 C   0  0  0  0  0  0  0  0  0  0  0  0
   -2.2340   22.0460  -28.3470 C   0  0  0  0  0  0  0  0  0  0  0  0
   -1.1010   22.6170  -27.7330 C   0  0  0  0  0  0  0  0  0  0  0  0
   -0.8170   23.9760  -27.9290 C   0  0  0  0  0  0  0  0  0  0  0  0
   -1.6300   24.7610  -28.7590 C   0  0  0  0  0  0  0  0  0  0  0  0
   -1.3290   26.1070  -28.9630 O   0  0  0  0  0  0  0  0  0  0  0  0
   -0.2490   21.8040  -26.7880 C   0  0  0  0  0  0  0  0  0  0  0  0
   -0.3710   20.3600  -27.0330 N   0  0  0  0  0  0  0  0  0  0  0  0
   -1.7820   19.9510  -27.0150 C   0  0  0  0  0  0  0  0  0  0  0  0
   -2.5530   20.5810  -28.1820 C   0  0  0  0  0  0  0  0  0  0  0  0
   -7.1780   23.0690  -30.3990 C   0  0  0  0  0  0  0  0  0  0  0  0
   -7.6910   21.8420  -30.8250 C   0  0  0  0  0  0  0  0  0  0  0  0
   -6.9240   20.9910  -31.6370 C   0  0  0  0  0  0  0  0  0  0  0  0
   -8.1955   17.2836  -33.1386 H   0  0  0  0  0  0  0  0  0  0  0  0
   -6.8350   15.8174  -34.6228 H   0  0  0  0  0  0  0  0  0  0  0  0
   -4.5362   16.5071  -35.2999 H   0  0  0  0  0  0  0  0  0  0  0  0
   -3.5893   18.6649  -34.4945 H   0  0  0  0  0  0  0  0  0  0  0  0
   -4.0877   22.9137  -31.8441 H   0  0  0  0  0  0  0  0  0  0  0  0
   -3.9051   22.3816  -29.6851 H   0  0  0  0  0  0  0  0  0  0  0  0
    0.0505   24.4300  -27.4276 H   0  0  0  0  0  0  0  0  0  0  0  0
   -2.0500   26.8170  -28.9710 H   0  0  0  0  0  0  0  0  0  0  0  0
    0.8031   22.0977  -26.9179 H   0  0  0  0  0  0  0  0  0  0  0  0
   -0.5968   22.0032  -25.7636 H   0  0  0  0  0  0  0  0  0  0  0  0
    0.0400   20.1370  -27.9710 H   0  0  0  0  0  0  0  0  0  0  0  0
   -1.8398   18.8555  -27.0956 H   0  0  0  0  0  0  0  0  0  0  0  0
   -2.2335   20.2929  -26.0720 H   0  0  0  0  0  0  0  0  0  0  0  0
   -2.2863   20.0532  -29.1095 H   0  0  0  0  0  0  0  0  0  0  0  0
   -3.6279   20.4903  -27.9664 H   0  0  0  0  0  0  0  0  0  0  0  0
   -7.7936   23.7314  -29.7727 H   0  0  0  0  0  0  0  0  0  0  0  0
   -8.7043   21.5396  -30.5220 H   0  0  0  0  0  0  0  0  0  0  0  0
  1  2  2  0
  2  3  1  0
  3  4  2  0
  4  5  1  0
  5  6  2  0
  6  7  1  0
  7  8  2  0
  8  9  1  0
  9 10  2  0
  9 11  1  0
 11 12  2  0
 12 13  1  0
 13 14  1  0
 14 15  2  0
 14 16  2  0
 14 17  1  0
 17 18  1  0
 18 19  2  0
 19 20  1  0
 20 21  2  0
 21 22  1  0
 22 23  2  0
 23 24  1  0
 21 25  1  0
 25 26  1  0
 26 27  1  0
 27 28  1  0
 13 29  2  0
 29 30  1  0
 30 31  2  0
 31  2  1  0
  8  3  1  0
 31 11  1  0
 23 18  1  0
 28 20  1  0
  4 32  1  0
  5 33  1  0
  6 34  1  0
  7 35  1  0
 12 36  1  0
 19 37  1  0
 22 38  1  0
 24 39  1  0
 25 40  1  0
 25 41  1  0
 26 42  1  0
 27 43  1  0
 27 44  1  0
 28 45  1  0
 28 46  1  0
 29 47  1  0
 30 48  1  0
M  CHG  1  17  -1
M  END
>  <UniqueID>  (43) 
43

>  <SMILES>  (43) 
O=C1c2ccccc2C(=O)c2cc(S(=O)(=O)[N-]c3cc4c(cc3O)CNCC4)ccc21

>  <Energy>  (43) 
63.72917337906472

>  <Genealogy>  (43) 
O=C1c2ccccc2C(=O)c2cc(S(=O)(=O)[N-]c3cc4c(cc3O)CNCC4)ccc21 (protonated)
O=C1c2ccccc2C(=O)c2cc(S(=O)(=O)[N-]c3cc4c(cc3O)CNCC4)ccc21 (3D coordinates assigned)
O=C1c2ccccc2C(=O)c2cc(S(=O)(=O)[N-]c3cc4c(cc3O)CNCC4)ccc21 (nonaromatic ring conformer: 63.72917337906472 kcal/mol)

>  <smiles>  (43) 
O=C1c2ccccc2C(=O)c2cc(S(=O)(=O)Nc3cc4c(cc3O)CNCC4)ccc21

>  <score_type>  (43) 
oracle

>  <origin>  (43) 
adgpu

>  <m_score__min__energy>  (43) 
-14.24

>  <m_primary>  (43) 
energy

$$$$
43:0
     RDKit          3D

 43 45  0  0  0  0  0  0  0  0999 V2000
   -5.7510   25.2990  -28.8990 O   0  0  0  0  0  0  0  0  0  0  0  0
   -5.3120   25.0060  -30.3070 S   0  0  0  0  0  0  0  0  0  0  0  0
   -5.7300   26.1450  -31.1930 O   0  0  0  0  0  0  0  0  0  0  0  0
   -3.5840   24.8580  -30.3470 N   0  0  0  0  0  0  0  0  0  0  0  0
   -2.8250   23.8170  -29.7150 C   0  0  0  0  0  0  0  0  0  0  0  0
   -2.0990   22.8680  -30.4590 C   0  0  0  0  0  0  0  0  0  0  0  0
   -1.3590   21.8750  -29.8080 C   0  0  0  0  0  0  0  0  0  0  0  0
   -0.4540   20.7000  -30.7470 Cl  0  0  0  0  0  0  0  0  0  0  0  0
   -1.3440   21.8150  -28.4130 C   0  0  0  0  0  0  0  0  0  0  0  0
   -2.0680   22.7490  -27.6660 C   0  0  0  0  0  0  0  0  0  0  0  0
   -2.8080   23.7490  -28.3130 C   0  0  0  0  0  0  0  0  0  0  0  0
   -3.5290   24.6800  -27.5650 O   0  0  0  0  0  0  0  0  0  0  0  0
   -6.0510   23.5230  -30.9030 C   0  0  0  0  0  0  0  0  0  0  0  0
   -5.3750   22.3050  -30.7560 C   0  0  0  0  0  0  0  0  0  0  0  0
   -5.9570   21.1190  -31.2130 C   0  0  0  0  0  0  0  0  0  0  0  0
   -7.2230   21.1380  -31.8120 C   0  0  0  0  0  0  0  0  0  0  0  0
   -7.9410   19.6400  -32.3990 S   0  0  0  0  0  0  0  0  0  0  0  0
   -8.0460   18.6810  -31.2460 O   0  0  0  0  0  0  0  0  0  0  0  0
   -9.3290   19.9130  -32.9110 O   0  0  0  0  0  0  0  0  0  0  0  0
   -6.9470   18.9280  -33.6540 N   0  0  0  0  0  0  0  0  0  0  0  0
   -6.7420   17.4840  -33.4420 C   0  0  0  0  0  0  0  0  0  0  0  0
   -5.7500   17.1950  -32.2900 C   0  0  0  0  0  0  0  0  0  0  0  0
   -4.9400   18.3060  -31.9450 O   0  0  0  0  0  0  0  0  0  0  0  0
   -4.4910   18.9620  -33.1090 C   0  0  0  0  0  0  0  0  0  0  0  0
   -5.6690   19.6560  -33.8190 C   0  0  0  0  0  0  0  0  0  0  0  0
   -7.8980   22.3580  -31.9630 C   0  0  0  0  0  0  0  0  0  0  0  0
   -7.3130   23.5450  -31.5120 C   0  0  0  0  0  0  0  0  0  0  0  0
   -2.1135   22.9073  -31.5582 H   0  0  0  0  0  0  0  0  0  0  0  0
   -0.7628   21.0332  -27.9021 H   0  0  0  0  0  0  0  0  0  0  0  0
   -2.0571   22.6992  -26.5672 H   0  0  0  0  0  0  0  0  0  0  0  0
   -4.1880   25.3150  -28.0010 H   0  0  0  0  0  0  0  0  0  0  0  0
   -4.3837   22.2817  -30.2798 H   0  0  0  0  0  0  0  0  0  0  0  0
   -5.4183   20.1664  -31.1017 H   0  0  0  0  0  0  0  0  0  0  0  0
   -7.7100   17.0210  -33.1999 H   0  0  0  0  0  0  0  0  0  0  0  0
   -6.3164   17.0651  -34.3658 H   0  0  0  0  0  0  0  0  0  0  0  0
   -6.3262   16.8959  -31.4020 H   0  0  0  0  0  0  0  0  0  0  0  0
   -5.0745   16.3998  -32.6385 H   0  0  0  0  0  0  0  0  0  0  0  0
   -3.7384   19.7155  -32.8336 H   0  0  0  0  0  0  0  0  0  0  0  0
   -4.0492   18.2200  -33.7904 H   0  0  0  0  0  0  0  0  0  0  0  0
   -5.7842   20.6674  -33.4020 H   0  0  0  0  0  0  0  0  0  0  0  0
   -5.4389   19.6819  -34.8944 H   0  0  0  0  0  0  0  0  0  0  0  0
   -8.8902   22.3810  -32.4374 H   0  0  0  0  0  0  0  0  0  0  0  0
   -7.8452   24.4997  -31.6356 H   0  0  0  0  0  0  0  0  0  0  0  0
  1  2  2  0
  2  3  2  0
  2  4  1  0
  4  5  1  0
  5  6  2  0
  6  7  1  0
  7  8  1  0
  7  9  2  0
  9 10  1  0
 10 11  2  0
 11 12  1  0
  2 13  1  0
 13 14  2  0
 14 15  1  0
 15 16  2  0
 16 17  1  0
 17 18  2  0
 17 19  2  0
 17 20  1  0
 20 21  1  0
 21 22  1  0
 22 23  1  0
 23 24  1  0
 24 25  1  0
 16 26  1  0
 26 27  2  0
 11  5  1  0
 27 13  1  0
 25 20  1  0
  6 28  1  0
  9 29  1  0
 10 30  1  0
 12 31  1  0
 14 32  1  0
 15 33  1  0
 21 34  1  0
 21 35  1  0
 22 36  1  0
 22 37  1  0
 24 38  1  0
 24 39  1  0
 25 40  1  0
 25 41  1  0
 26 42  1  0
 27 43  1  0
M  CHG  1   4  -1
M  END
>  <UniqueID>  (44) 
44

>  <SMILES>  (44) 
O=S(=O)([N-]c1cc(Cl)ccc1O)c1ccc(S(=O)(=O)N2CCOCC2)cc1

>  <Energy>  (44) 
58.01018556234065

>  <Genealogy>  (44) 
O=S(=O)([N-]c1cc(Cl)ccc1O)c1ccc(S(=O)(=O)N2CCOCC2)cc1 (protonated)
O=S(=O)([N-]c1cc(Cl)ccc1O)c1ccc(S(=O)(=O)N2CCOCC2)cc1 (3D coordinates assigned)
O=S(=O)([N-]c1cc(Cl)ccc1O)c1ccc(S(=O)(=O)N2CCOCC2)cc1 (nonaromatic ring conformer: 58.01018556234065 kcal/mol)

>  <smiles>  (44) 
O=S(=O)(Nc1cc(Cl)ccc1O)c1ccc(S(=O)(=O)N2CCOCC2)cc1

>  <score_type>  (44) 
oracle

>  <origin>  (44) 
adgpu

>  <m_score__min__energy>  (44) 
-11.960000000000001

>  <m_primary>  (44) 
energy

$$$$
44:0
     RDKit          3D

 58 61  0  0  0  0  0  0  0  0999 V2000
    0.2250   18.4030  -34.9880 C   0  0  0  0  0  0  0  0  0  0  0  0
   -0.8230   19.3120  -34.3960 C   0  0  0  0  0  0  0  0  0  0  0  0
   -0.4620   20.6260  -34.0620 C   0  0  0  0  0  0  0  0  0  0  0  0
   -1.3960   21.5000  -33.5080 C   0  0  0  0  0  0  0  0  0  0  0  0
   -2.6980   21.0710  -33.2680 C   0  0  0  0  0  0  0  0  0  0  0  0
   -3.0880   19.7680  -33.5940 C   0  0  0  0  0  0  0  0  0  0  0  0
   -4.4270   19.3580  -33.2770 N   0  0  0  0  0  0  0  0  0  0  0  0
   -4.7470   18.9400  -31.9130 C   0  0  0  0  0  0  0  0  0  0  0  0
   -5.8460   17.8640  -31.9060 C   0  0  0  0  0  0  0  0  0  0  0  0
   -6.9660   18.1300  -32.8390 N   0  0  0  0  0  0  0  0  0  0  0  0
   -8.1920   19.2020  -32.1780 S   0  0  0  0  0  0  0  0  0  0  0  0
   -9.3850   19.2250  -33.0910 O   0  0  0  0  0  0  0  0  0  0  0  0
   -8.6480   18.6460  -30.8590 O   0  0  0  0  0  0  0  0  0  0  0  0
   -7.6610   20.8660  -31.9070 C   0  0  0  0  0  0  0  0  0  0  0  0
   -8.5860   21.9140  -31.9090 C   0  0  0  0  0  0  0  0  0  0  0  0
   -8.1650   23.2270  -31.6930 C   0  0  0  0  0  0  0  0  0  0  0  0
   -6.8130   23.5160  -31.4390 C   0  0  0  0  0  0  0  0  0  0  0  0
   -5.8780   22.4530  -31.4200 C   0  0  0  0  0  0  0  0  0  0  0  0
   -6.3170   21.1340  -31.6270 C   0  0  0  0  0  0  0  0  0  0  0  0
   -4.4280   22.7130  -31.1150 C   0  0  0  0  0  0  0  0  0  0  0  0
   -4.2560   23.3540  -29.7260 C   0  0  0  0  0  0  0  0  0  0  0  0
   -4.3610   24.8270  -29.7320 N   0  0  0  0  0  0  0  0  0  0  0  0
   -5.7420   25.3120  -29.8820 C   0  0  0  0  0  0  0  0  0  0  0  0
   -6.3940   24.9630  -31.2470 C   0  0  0  0  0  0  0  0  0  0  0  0
   -6.5210   18.5020  -34.1980 C   0  0  0  0  0  0  0  0  0  0  0  0
   -5.5160   19.6510  -34.2020 C   0  0  0  0  0  0  0  0  0  0  0  0
   -2.1630   18.8830  -34.2060 C   0  0  0  0  0  0  0  0  0  0  0  0
   -2.5940   17.4910  -34.6050 C   0  0  0  0  0  0  0  0  0  0  0  0
    0.7873   17.9153  -34.1780 H   0  0  0  0  0  0  0  0  0  0  0  0
   -0.2625   17.6369  -35.6088 H   0  0  0  0  0  0  0  0  0  0  0  0
    0.9145   18.9939  -35.6088 H   0  0  0  0  0  0  0  0  0  0  0  0
    0.5678   20.9698  -34.2390 H   0  0  0  0  0  0  0  0  0  0  0  0
   -1.1033   22.5309  -33.2600 H   0  0  0  0  0  0  0  0  0  0  0  0
   -3.4261   21.7621  -32.8184 H   0  0  0  0  0  0  0  0  0  0  0  0
   -3.8414   18.5314  -31.4409 H   0  0  0  0  0  0  0  0  0  0  0  0
   -5.1123   19.8156  -31.3563 H   0  0  0  0  0  0  0  0  0  0  0  0
   -5.3885   16.9025  -32.1822 H   0  0  0  0  0  0  0  0  0  0  0  0
   -6.2746   17.8582  -30.8930 H   0  0  0  0  0  0  0  0  0  0  0  0
   -7.4660   17.2160  -32.9510 H   0  0  0  0  0  0  0  0  0  0  0  0
   -9.6516   21.7027  -32.0818 H   0  0  0  0  0  0  0  0  0  0  0  0
   -8.8997   24.0452  -31.7219 H   0  0  0  0  0  0  0  0  0  0  0  0
   -5.5968   20.3046  -31.5683 H   0  0  0  0  0  0  0  0  0  0  0  0
   -3.8798   21.7597  -31.1403 H   0  0  0  0  0  0  0  0  0  0  0  0
   -4.0331   23.4085  -31.8702 H   0  0  0  0  0  0  0  0  0  0  0  0
   -5.0349   22.9535  -29.0604 H   0  0  0  0  0  0  0  0  0  0  0  0
   -3.2407   23.1067  -29.3826 H   0  0  0  0  0  0  0  0  0  0  0  0
   -3.9080   25.2390  -28.8810 H   0  0  0  0  0  0  0  0  0  0  0  0
   -6.3531   24.8657  -29.0836 H   0  0  0  0  0  0  0  0  0  0  0  0
   -5.6998   26.4096  -29.8231 H   0  0  0  0  0  0  0  0  0  0  0  0
   -7.2906   25.5900  -31.3608 H   0  0  0  0  0  0  0  0  0  0  0  0
   -5.6146   25.1465  -32.0012 H   0  0  0  0  0  0  0  0  0  0  0  0
   -6.0518   17.6240  -34.6660 H   0  0  0  0  0  0  0  0  0  0  0  0
   -7.4082   18.8384  -34.7546 H   0  0  0  0  0  0  0  0  0  0  0  0
   -5.1096   19.7772  -35.2164 H   0  0  0  0  0  0  0  0  0  0  0  0
   -6.0209   20.5762  -33.8873 H   0  0  0  0  0  0  0  0  0  0  0  0
   -2.7796   16.8915  -33.7016 H   0  0  0  0  0  0  0  0  0  0  0  0
   -3.5161   17.5496  -35.2020 H   0  0  0  0  0  0  0  0  0  0  0  0
   -1.8001   17.0183  -35.2020 H   0  0  0  0  0  0  0  0  0  0  0  0
  1  2  1  0
  2  3  2  0
  3  4  1  0
  4  5  2  0
  5  6  1  0
  6  7  1  0
  7  8  1  0
  8  9  1  0
  9 10  1  0
 10 11  1  0
 11 12  2  0
 11 13  2  0
 11 14  1  0
 14 15  2  0
 15 16  1  0
 16 17  2  0
 17 18  1  0
 18 19  2  0
 18 20  1  0
 20 21  1  0
 21 22  1  0
 22 23  1  0
 23 24  1  0
 10 25  1  0
 25 26  1  0
  6 27  2  0
 27 28  1  0
 27  2  1  0
 26  7  1  0
 19 14  1  0
 24 17  1  0
  1 29  1  0
  1 30  1  0
  1 31  1  0
  3 32  1  0
  4 33  1  0
  5 34  1  0
  8 35  1  0
  8 36  1  0
  9 37  1  0
  9 38  1  0
 10 39  1  0
 15 40  1  0
 16 41  1  0
 19 42  1  0
 20 43  1  0
 20 44  1  0
 21 45  1  0
 21 46  1  0
 22 47  1  0
 23 48  1  0
 23 49  1  0
 24 50  1  0
 24 51  1  0
 25 52  1  0
 25 53  1  0
 26 54  1  0
 26 55  1  0
 28 56  1  0
 28 57  1  0
 28 58  1  0
M  CHG  1  10   1
M  END
>  <UniqueID>  (45) 
45

>  <SMILES>  (45) 
Cc1cccc(N2CC[NH+](S(=O)(=O)c3ccc4c(c3)CCNCC4)CC2)c1C

>  <Energy>  (45) 
81.04234861745574

>  <Genealogy>  (45) 
Cc1cccc(N2CC[NH+](S(=O)(=O)c3ccc4c(c3)CCNCC4)CC2)c1C (protonated)
Cc1cccc(N2CC[NH+](S(=O)(=O)c3ccc4c(c3)CCNCC4)CC2)c1C (3D coordinates assigned)
Cc1cccc(N2CC[NH+](S(=O)(=O)c3ccc4c(c3)CCNCC4)CC2)c1C (nonaromatic ring conformer: 81.04234861745574 kcal/mol)

>  <smiles>  (45) 
Cc1cccc(N2CCN(S(=O)(=O)c3ccc4c(c3)CCNCC4)CC2)c1C

>  <score_type>  (45) 
oracle

>  <origin>  (45) 
adgpu

>  <m_score__min__energy>  (45) 
-7.6100000000000003

>  <m_primary>  (45) 
energy

$$$$
45:0
     RDKit          3D

 46 48  0  0  0  0  0  0  0  0999 V2000
   -1.2000   26.2190  -24.8820 C   0  0  0  0  0  0  0  0  0  0  0  0
   -0.9510   24.7150  -24.8510 C   0  0  0  0  0  0  0  0  0  0  0  0
   -0.8720   24.1880  -26.1750 O   0  0  0  0  0  0  0  0  0  0  0  0
   -1.8800   24.2680  -27.1500 C   0  0  0  0  0  0  0  0  0  0  0  0
   -1.6050   24.4450  -28.5200 C   0  0  0  0  0  0  0  0  0  0  0  0
   -2.6510   24.5190  -29.4450 C   0  0  0  0  0  0  0  0  0  0  0  0
   -3.9800   24.4170  -29.0180 C   0  0  0  0  0  0  0  0  0  0  0  0
   -5.2860   24.5360  -30.1910 S   0  0  0  0  0  0  0  0  0  0  0  0
   -5.0150   25.6440  -31.1710 O   0  0  0  0  0  0  0  0  0  0  0  0
   -6.5690   24.8510  -29.4730 O   0  0  0  0  0  0  0  0  0  0  0  0
   -5.4230   23.0040  -31.0560 C   0  0  0  0  0  0  0  0  0  0  0  0
   -6.6500   22.3340  -31.1110 C   0  0  0  0  0  0  0  0  0  0  0  0
   -6.7590   21.1070  -31.7810 C   0  0  0  0  0  0  0  0  0  0  0  0
   -5.6090   20.5560  -32.3780 C   0  0  0  0  0  0  0  0  0  0  0  0
   -4.4280   21.2280  -32.3150 N   0  0  0  0  0  0  0  0  0  0  0  0
   -4.3040   22.4190  -31.6720 C   0  0  0  0  0  0  0  0  0  0  0  0
   -3.1800   22.9850  -31.6340 O   0  0  0  0  0  0  0  0  0  0  0  0
   -5.6770   19.2640  -33.1490 C   0  0  0  0  0  0  0  0  0  0  0  0
   -6.7900   18.3150  -32.6320 C   0  0  0  0  0  0  0  0  0  0  0  0
   -6.4280   17.7750  -31.2280 C   0  0  0  0  0  0  0  0  0  0  0  0
   -6.9170   17.1190  -33.5960 C   0  0  0  0  0  0  0  0  0  0  0  0
   -8.1420   19.0730  -32.5890 C   0  0  0  0  0  0  0  0  0  0  0  0
   -8.0420   20.3720  -31.8360 C   0  0  0  0  0  0  0  0  0  0  0  0
   -9.0750   20.8470  -31.2930 O   0  0  0  0  0  0  0  0  0  0  0  0
   -4.2570   24.2520  -27.6550 C   0  0  0  0  0  0  0  0  0  0  0  0
   -3.2120   24.1780  -26.7300 C   0  0  0  0  0  0  0  0  0  0  0  0
   -1.2633   26.6015  -23.8526 H   0  0  0  0  0  0  0  0  0  0  0  0
   -0.3721   26.7170  -25.4079 H   0  0  0  0  0  0  0  0  0  0  0  0
   -2.1442   26.4236  -25.4079 H   0  0  0  0  0  0  0  0  0  0  0  0
   -0.0046   24.5167  -24.3266 H   0  0  0  0  0  0  0  0  0  0  0  0
   -1.7875   24.2294  -24.3271 H   0  0  0  0  0  0  0  0  0  0  0  0
   -0.5632   24.5253  -28.8637 H   0  0  0  0  0  0  0  0  0  0  0  0
   -2.4283   24.6580  -30.5132 H   0  0  0  0  0  0  0  0  0  0  0  0
   -7.5345   22.7724  -30.6257 H   0  0  0  0  0  0  0  0  0  0  0  0
   -5.8749   19.4952  -34.2061 H   0  0  0  0  0  0  0  0  0  0  0  0
   -4.7141   18.7484  -33.0182 H   0  0  0  0  0  0  0  0  0  0  0  0
   -6.8662   18.4287  -30.4595 H   0  0  0  0  0  0  0  0  0  0  0  0
   -6.8262   16.7561  -31.1132 H   0  0  0  0  0  0  0  0  0  0  0  0
   -5.3342   17.7563  -31.1132 H   0  0  0  0  0  0  0  0  0  0  0  0
   -7.0157   16.1895  -33.0161 H   0  0  0  0  0  0  0  0  0  0  0  0
   -7.8061   17.2518  -34.2299 H   0  0  0  0  0  0  0  0  0  0  0  0
   -6.0198   17.0621  -34.2299 H   0  0  0  0  0  0  0  0  0  0  0  0
   -8.4622   19.2849  -33.6198 H   0  0  0  0  0  0  0  0  0  0  0  0
   -8.8701   18.4352  -32.0665 H   0  0  0  0  0  0  0  0  0  0  0  0
   -5.2996   24.1805  -27.3118 H   0  0  0  0  0  0  0  0  0  0  0  0
   -3.4386   24.0478  -25.6615 H   0  0  0  0  0  0  0  0  0  0  0  0
  1  2  1  0
  2  3  1  0
  3  4  1  0
  4  5  2  0
  5  6  1  0
  6  7  2  0
  7  8  1  0
  8  9  2  0
  8 10  2  0
  8 11  1  0
 11 12  2  0
 12 13  1  0
 13 14  2  0
 14 15  1  0
 15 16  1  0
 16 17  2  0
 14 18  1  0
 18 19  1  0
 19 20  1  0
 19 21  1  0
 19 22  1  0
 22 23  1  0
 23 24  2  0
  7 25  1  0
 25 26  2  0
 26  4  1  0
 16 11  1  0
 23 13  1  0
  1 27  1  0
  1 28  1  0
  1 29  1  0
  2 30  1  0
  2 31  1  0
  5 32  1  0
  6 33  1  0
 12 34  1  0
 18 35  1  0
 18 36  1  0
 20 37  1  0
 20 38  1  0
 20 39  1  0
 21 40  1  0
 21 41  1  0
 21 42  1  0
 22 43  1  0
 22 44  1  0
 25 45  1  0
 26 46  1  0
M  CHG  1  15  -1
M  END
>  <UniqueID>  (46) 
46

>  <SMILES>  (46) 
CCOc1ccc(S(=O)(=O)c2cc3c([n-]c2=O)CC(C)(C)CC3=O)cc1

>  <Energy>  (46) 
47.72854049610272

>  <Genealogy>  (46) 
CCOc1ccc(S(=O)(=O)c2cc3c([n-]c2=O)CC(C)(C)CC3=O)cc1 (protonated)
CCOc1ccc(S(=O)(=O)c2cc3c([n-]c2=O)CC(C)(C)CC3=O)cc1 (3D coordinates assigned)
CCOc1ccc(S(=O)(=O)c2cc3c([n-]c2=O)CC(C)(C)CC3=O)cc1 (nonaromatic ring conformer: 47.72854049610272 kcal/mol)

>  <smiles>  (46) 
CCOc1ccc(S(=O)(=O)c2cc3c([nH]c2=O)CC(C)(C)CC3=O)cc1

>  <score_type>  (46) 
oracle

>  <origin>  (46) 
adgpu

>  <m_score__min__energy>  (46) 
-10.789999999999999

>  <m_primary>  (46) 
energy

$$$$
46:0
     RDKit          3D

 59 62  0  0  0  0  0  0  0  0999 V2000
   -9.4640   20.0600  -31.9090 C   0  0  0  0  0  0  0  0  0  0  0  0
   -8.3460   20.9080  -32.3560 N   0  0  0  0  0  0  0  0  0  0  0  0
   -8.5000   22.2760  -31.7960 C   0  0  0  0  0  0  0  0  0  0  0  0
   -7.5500   23.3090  -32.4390 C   0  0  0  0  0  0  0  0  0  0  0  0
   -6.1680   23.3090  -31.8280 C   0  0  0  0  0  0  0  0  0  0  0  0
   -5.6710   24.4680  -31.2120 C   0  0  0  0  0  0  0  0  0  0  0  0
   -4.3630   24.5040  -30.7190 C   0  0  0  0  0  0  0  0  0  0  0  0
   -3.8770   25.6650  -30.1300 O   0  0  0  0  0  0  0  0  0  0  0  0
   -3.5370   23.3820  -30.8430 C   0  0  0  0  0  0  0  0  0  0  0  0
   -2.1710   23.4550  -30.4300 N   0  0  0  0  0  0  0  0  0  0  0  0
   -1.5150   22.3270  -29.2910 S   0  0  0  0  0  0  0  0  0  0  0  0
   -0.2890   22.9060  -28.6490 O   0  0  0  0  0  0  0  0  0  0  0  0
   -2.5370   22.0870  -28.2160 O   0  0  0  0  0  0  0  0  0  0  0  0
   -1.1310   20.7910  -30.0820 C   0  0  0  0  0  0  0  0  0  0  0  0
   -1.7840   20.4690  -31.2800 C   0  0  0  0  0  0  0  0  0  0  0  0
   -1.4470   19.3130  -31.9960 C   0  0  0  0  0  0  0  0  0  0  0  0
   -2.2430   18.9560  -33.5320 S   0  0  0  0  0  0  0  0  0  0  0  0
   -2.3740   20.2250  -34.3250 O   0  0  0  0  0  0  0  0  0  0  0  0
   -1.3910   18.0040  -34.3210 O   0  0  0  0  0  0  0  0  0  0  0  0
   -3.8310   18.2630  -33.2920 N   0  0  0  0  0  0  0  0  0  0  0  0
   -4.6870   18.5170  -34.4670 C   0  0  0  0  0  0  0  0  0  0  0  0
   -6.0560   17.8090  -34.3510 C   0  0  0  0  0  0  0  0  0  0  0  0
   -6.2580   17.1660  -32.9710 C   0  0  0  0  0  0  0  0  0  0  0  0
   -5.0950   16.2250  -32.6350 C   0  0  0  0  0  0  0  0  0  0  0  0
   -3.7220   16.8170  -33.0310 C   0  0  0  0  0  0  0  0  0  0  0  0
   -0.4610   18.4550  -31.4950 C   0  0  0  0  0  0  0  0  0  0  0  0
    0.1820   18.7540  -30.2960 C   0  0  0  0  0  0  0  0  0  0  0  0
   -0.1390   19.9180  -29.5880 C   0  0  0  0  0  0  0  0  0  0  0  0
    0.7610   20.2500  -28.1180 Cl  0  0  0  0  0  0  0  0  0  0  0  0
   -4.0340   22.2110  -31.4260 C   0  0  0  0  0  0  0  0  0  0  0  0
   -5.3430   22.1660  -31.9330 C   0  0  0  0  0  0  0  0  0  0  0  0
   -5.8360   20.9370  -32.6670 C   0  0  0  0  0  0  0  0  0  0  0  0
   -7.0520   20.2800  -31.9780 C   0  0  0  0  0  0  0  0  0  0  0  0
   -9.4916   20.0391  -30.8095 H   0  0  0  0  0  0  0  0  0  0  0  0
  -10.4105   20.4693  -32.2918 H   0  0  0  0  0  0  0  0  0  0  0  0
   -9.3250   19.0382  -32.2918 H   0  0  0  0  0  0  0  0  0  0  0  0
   -9.5366   22.6056  -31.9595 H   0  0  0  0  0  0  0  0  0  0  0  0
   -8.2465   22.2211  -30.7270 H   0  0  0  0  0  0  0  0  0  0  0  0
   -7.4582   23.0796  -33.5109 H   0  0  0  0  0  0  0  0  0  0  0  0
   -7.9841   24.3046  -32.2648 H   0  0  0  0  0  0  0  0  0  0  0  0
   -6.3151   25.3545  -31.1163 H   0  0  0  0  0  0  0  0  0  0  0  0
   -2.5723   21.1336  -31.6633 H   0  0  0  0  0  0  0  0  0  0  0  0
   -4.8542   19.6005  -34.5568 H   0  0  0  0  0  0  0  0  0  0  0  0
   -4.1728   18.1184  -35.3540 H   0  0  0  0  0  0  0  0  0  0  0  0
   -6.8531   18.5484  -34.5181 H   0  0  0  0  0  0  0  0  0  0  0  0
   -6.0892   17.0094  -35.1057 H   0  0  0  0  0  0  0  0  0  0  0  0
   -6.3138   17.9572  -32.2089 H   0  0  0  0  0  0  0  0  0  0  0  0
   -7.1909   16.5833  -32.9859 H   0  0  0  0  0  0  0  0  0  0  0  0
   -5.0976   16.0335  -31.5518 H   0  0  0  0  0  0  0  0  0  0  0  0
   -5.2380   15.2979  -33.2095 H   0  0  0  0  0  0  0  0  0  0  0  0
   -3.0079   16.6515  -32.2109 H   0  0  0  0  0  0  0  0  0  0  0  0
   -3.3745   16.3186  -33.9479 H   0  0  0  0  0  0  0  0  0  0  0  0
   -0.1935   17.5431  -32.0490 H   0  0  0  0  0  0  0  0  0  0  0  0
    0.9482   18.0698  -29.9024 H   0  0  0  0  0  0  0  0  0  0  0  0
   -3.3942   21.3184  -31.4877 H   0  0  0  0  0  0  0  0  0  0  0  0
   -6.1247   21.2287  -33.6876 H   0  0  0  0  0  0  0  0  0  0  0  0
   -5.0182   20.2014  -32.6706 H   0  0  0  0  0  0  0  0  0  0  0  0
   -7.0827   19.2174  -32.2607 H   0  0  0  0  0  0  0  0  0  0  0  0
   -6.9266   20.4141  -30.8934 H   0  0  0  0  0  0  0  0  0  0  0  0
  1  2  1  0
  2  3  1  0
  3  4  1  0
  4  5  1  0
  5  6  2  0
  6  7  1  0
  7  8  1  0
  7  9  2  0
  9 10  1  0
 10 11  1  0
 11 12  2  0
 11 13  2  0
 11 14  1  0
 14 15  2  0
 15 16  1  0
 16 17  1  0
 17 18  2  0
 17 19  2  0
 17 20  1  0
 20 21  1  0
 21 22  1  0
 22 23  1  0
 23 24  1  0
 24 25  1  0
 16 26  2  0
 26 27  1  0
 27 28  2  0
 28 29  1  0
  9 30  1  0
 30 31  2  0
 31 32  1  0
 32 33  1  0
 33  2  1  0
 31  5  1  0
 28 14  1  0
 25 20  1  0
  1 34  1  0
  1 35  1  0
  1 36  1  0
  3 37  1  0
  3 38  1  0
  4 39  1  0
  4 40  1  0
  6 41  1  0
 15 42  1  0
 21 43  1  0
 21 44  1  0
 22 45  1  0
 22 46  1  0
 23 47  1  0
 23 48  1  0
 24 49  1  0
 24 50  1  0
 25 51  1  0
 25 52  1  0
 26 53  1  0
 27 54  1  0
 30 55  1  0
 32 56  1  0
 32 57  1  0
 33 58  1  0
 33 59  1  0
M  CHG  2   8  -1  10  -1
M  END
>  <UniqueID>  (47) 
47

>  <SMILES>  (47) 
CN1CCc2cc([O-])c([N-]S(=O)(=O)c3cc(S(=O)(=O)N4CCCCC4)ccc3Cl)cc2CC1

>  <Energy>  (47) 
81.10287909360385

>  <Genealogy>  (47) 
CN1CCc2cc([O-])c([N-]S(=O)(=O)c3cc(S(=O)(=O)N4CCCCC4)ccc3Cl)cc2CC1 (protonated)
CN1CCc2cc([O-])c([N-]S(=O)(=O)c3cc(S(=O)(=O)N4CCCCC4)ccc3Cl)cc2CC1 (3D coordinates assigned)
CN1CCc2cc([O-])c([N-]S(=O)(=O)c3cc(S(=O)(=O)N4CCCCC4)ccc3Cl)cc2CC1 (nonaromatic ring conformer: 81.10287909360385 kcal/mol)

>  <smiles>  (47) 
CN1CCc2cc(O)c(NS(=O)(=O)c3cc(S(=O)(=O)N4CCCCC4)ccc3Cl)cc2CC1

>  <score_type>  (47) 
oracle

>  <origin>  (47) 
adgpu

>  <m_score__min__energy>  (47) 
-12.6

>  <m_primary>  (47) 
energy

$$$$
47:0
     RDKit          3D

 45 48  0  0  0  0  0  0  0  0999 V2000
   -6.0200   25.9460  -30.0330 O   0  0  0  0  0  0  0  0  0  0  0  0
   -5.2590   25.2530  -30.7620 C   0  0  0  0  0  0  0  0  0  0  0  0
   -5.7660   24.5790  -31.9210 N   0  0  0  0  0  0  0  0  0  0  0  0
   -6.5170   23.3560  -31.9660 C   0  0  0  0  0  0  0  0  0  0  0  0
   -7.9010   23.4130  -31.6670 C   0  0  0  0  0  0  0  0  0  0  0  0
   -8.6940   22.2530  -31.6850 C   0  0  0  0  0  0  0  0  0  0  0  0
   -8.0820   21.0480  -32.0170 C   0  0  0  0  0  0  0  0  0  0  0  0
   -8.6670   19.8380  -32.0770 N   0  0  0  0  0  0  0  0  0  0  0  0
   -7.6570   19.0110  -32.4410 C   0  0  0  0  0  0  0  0  0  0  0  0
   -7.8270   17.6440  -32.6170 O   0  0  0  0  0  0  0  0  0  0  0  0
   -6.4510   19.6750  -32.6130 C   0  0  0  0  0  0  0  0  0  0  0  0
   -6.7480   20.9860  -32.3310 C   0  0  0  0  0  0  0  0  0  0  0  0
   -5.9350   22.1170  -32.3290 C   0  0  0  0  0  0  0  0  0  0  0  0
   -3.8550   25.2090  -30.4950 N   0  0  0  0  0  0  0  0  0  0  0  0
   -3.2510   24.3730  -29.5000 C   0  0  0  0  0  0  0  0  0  0  0  0
   -3.8260   23.1270  -29.2290 C   0  0  0  0  0  0  0  0  0  0  0  0
   -3.2490   22.2750  -28.2860 C   0  0  0  0  0  0  0  0  0  0  0  0
   -2.1020   22.6680  -27.5960 C   0  0  0  0  0  0  0  0  0  0  0  0
   -1.5320   23.9280  -27.8260 C   0  0  0  0  0  0  0  0  0  0  0  0
   -0.0910   24.4090  -26.9160 S   0  0  0  0  0  0  0  0  0  0  0  0
    0.6830   25.4110  -27.7260 O   0  0  0  0  0  0  0  0  0  0  0  0
    0.7930   23.2090  -26.7200 O   0  0  0  0  0  0  0  0  0  0  0  0
   -0.4680   25.1230  -25.3600 N   0  0  0  0  0  0  0  0  0  0  0  0
    0.7080   25.7310  -24.7120 C   0  0  0  0  0  0  0  0  0  0  0  0
    1.0000   27.1640  -25.2150 C   0  0  0  0  0  0  0  0  0  0  0  0
   -0.0230   27.6850  -26.0400 O   0  0  0  0  0  0  0  0  0  0  0  0
   -1.2750   27.5020  -25.4210 C   0  0  0  0  0  0  0  0  0  0  0  0
   -1.6480   26.0120  -25.3890 C   0  0  0  0  0  0  0  0  0  0  0  0
   -2.1230   24.7930  -28.7680 C   0  0  0  0  0  0  0  0  0  0  0  0
   -1.6100   26.0730  -28.9640 O   0  0  0  0  0  0  0  0  0  0  0  0
   -8.3617   24.3801  -31.4170 H   0  0  0  0  0  0  0  0  0  0  0  0
   -9.7664   22.2961  -31.4439 H   0  0  0  0  0  0  0  0  0  0  0  0
   -5.4803   19.2494  -32.9075 H   0  0  0  0  0  0  0  0  0  0  0  0
   -4.8714   22.0497  -32.6015 H   0  0  0  0  0  0  0  0  0  0  0  0
   -4.7372   22.8172  -29.7616 H   0  0  0  0  0  0  0  0  0  0  0  0
   -3.6996   21.2916  -28.0865 H   0  0  0  0  0  0  0  0  0  0  0  0
   -1.6419   21.9849  -26.8668 H   0  0  0  0  0  0  0  0  0  0  0  0
    0.5300   25.7695  -23.6272 H   0  0  0  0  0  0  0  0  0  0  0  0
    1.5804   25.1096  -24.9625 H   0  0  0  0  0  0  0  0  0  0  0  0
    1.1153   27.8239  -24.3425 H   0  0  0  0  0  0  0  0  0  0  0  0
    1.9163   27.1166  -25.8218 H   0  0  0  0  0  0  0  0  0  0  0  0
   -1.2289   27.8856  -24.3911 H   0  0  0  0  0  0  0  0  0  0  0  0
   -2.0384   28.0471  -25.9955 H   0  0  0  0  0  0  0  0  0  0  0  0
   -2.2531   25.8211  -24.4904 H   0  0  0  0  0  0  0  0  0  0  0  0
   -2.2040   25.7916  -26.3122 H   0  0  0  0  0  0  0  0  0  0  0  0
  1  2  2  0
  2  3  1  0
  3  4  1  0
  4  5  2  0
  5  6  1  0
  6  7  2  0
  7  8  1  0
  8  9  1  0
  9 10  1  0
  9 11  2  0
 11 12  1  0
 12 13  2  0
  2 14  1  0
 14 15  1  0
 15 16  2  0
 16 17  1  0
 17 18  2  0
 18 19  1  0
 19 20  1  0
 20 21  2  0
 20 22  2  0
 20 23  1  0
 23 24  1  0
 24 25  1  0
 25 26  1  0
 26 27  1  0
 27 28  1  0
 19 29  2  0
 29 30  1  0
 13  4  1  0
 29 15  1  0
 12  7  1  0
 28 23  1  0
  5 31  1  0
  6 32  1  0
 11 33  1  0
 13 34  1  0
 16 35  1  0
 17 36  1  0
 18 37  1  0
 24 38  1  0
 24 39  1  0
 25 40  1  0
 25 41  1  0
 27 42  1  0
 27 43  1  0
 28 44  1  0
 28 45  1  0
M  CHG  5   3  -1   8  -1  10  -1  14  -1  30  -1
M  END
>  <UniqueID>  (48) 
48

>  <SMILES>  (48) 
O=C([N-]c1ccc2[n-]c([O-])cc2c1)[N-]c1cccc(S(=O)(=O)N2CCOCC2)c1[O-]

>  <Energy>  (48) 
101.45144433535722

>  <Genealogy>  (48) 
O=C([N-]c1ccc2[n-]c([O-])cc2c1)[N-]c1cccc(S(=O)(=O)N2CCOCC2)c1[O-] (protonated)
O=C([N-]c1ccc2[n-]c([O-])cc2c1)[N-]c1cccc(S(=O)(=O)N2CCOCC2)c1[O-] (3D coordinates assigned)
O=C([N-]c1ccc2[n-]c([O-])cc2c1)[N-]c1cccc(S(=O)(=O)N2CCOCC2)c1[O-] (nonaromatic ring conformer: 101.45144433535722 kcal/mol)

>  <smiles>  (48) 
O=C(Nc1ccc2[nH]c(O)cc2c1)Nc1cccc(S(=O)(=O)N2CCOCC2)c1O

>  <score_type>  (48) 
oracle

>  <origin>  (48) 
adgpu

>  <m_score__min__energy>  (48) 
-14.710000000000001

>  <m_primary>  (48) 
energy

$$$$
48:0
     RDKit          3D

 59 63  0  0  0  0  0  0  0  0999 V2000
   -8.6770   22.5130  -31.3820 C   0  0  0  0  0  0  0  0  0  0  0  0
   -7.2340   22.2690  -31.7340 C   0  0  0  0  0  0  0  0  0  0  0  0
   -6.2510   23.1830  -31.3300 C   0  0  0  0  0  0  0  0  0  0  0  0
   -4.9030   22.9480  -31.6170 C   0  0  0  0  0  0  0  0  0  0  0  0
   -4.5180   21.8030  -32.3310 C   0  0  0  0  0  0  0  0  0  0  0  0
   -3.0930   21.5340  -32.6260 C   0  0  0  0  0  0  0  0  0  0  0  0
   -2.2130   22.0100  -31.8620 O   0  0  0  0  0  0  0  0  0  0  0  0
   -2.7170   20.7530  -33.7780 N   0  0  0  0  0  0  0  0  0  0  0  0
   -1.3630   20.5150  -34.2110 C   0  0  0  0  0  0  0  0  0  0  0  0
   -0.4820   21.5610  -34.5420 C   0  0  0  0  0  0  0  0  0  0  0  0
    0.8220   21.2740  -34.9540 C   0  0  0  0  0  0  0  0  0  0  0  0
    1.2290   19.9440  -35.0780 C   0  0  0  0  0  0  0  0  0  0  0  0
    2.5430   19.6580  -35.4650 O   0  0  0  0  0  0  0  0  0  0  0  0
    3.1680   20.2160  -36.5860 C   0  0  0  0  0  0  0  0  0  0  0  0
    3.3360   19.5980  -37.8050 C   0  0  0  0  0  0  0  0  0  0  0  0
    4.0200   20.4330  -38.6140 N   0  0  0  0  0  0  0  0  0  0  0  0
    4.3010   21.5480  -37.9440 N   0  0  0  0  0  0  0  0  0  0  0  0
    3.7890   21.4440  -36.7020 C   0  0  0  0  0  0  0  0  0  0  0  0
    0.3510   18.9430  -34.7890 N   0  0  0  0  0  0  0  0  0  0  0  0
   -0.9170   19.1960  -34.3730 C   0  0  0  0  0  0  0  0  0  0  0  0
   -5.5040   20.9040  -32.7640 C   0  0  0  0  0  0  0  0  0  0  0  0
   -6.8570   21.1030  -32.4310 C   0  0  0  0  0  0  0  0  0  0  0  0
   -7.8600   20.1390  -32.7940 N   0  0  0  0  0  0  0  0  0  0  0  0
   -7.7420   18.7120  -32.7260 C   0  0  0  0  0  0  0  0  0  0  0  0
   -8.6100   18.0710  -32.0780 O   0  0  0  0  0  0  0  0  0  0  0  0
   -6.6080   17.9780  -33.3400 C   0  0  0  0  0  0  0  0  0  0  0  0
   -6.0190   18.4100  -34.5350 C   0  0  0  0  0  0  0  0  0  0  0  0
   -4.9980   17.7060  -35.0890 N   0  0  0  0  0  0  0  0  0  0  0  0
   -4.4890   16.5750  -34.5250 C   0  0  0  0  0  0  0  0  0  0  0  0
   -3.4280   15.8780  -35.2140 N   0  0  0  0  0  0  0  0  0  0  0  0
   -3.5600   14.4810  -35.6000 C   0  0  0  0  0  0  0  0  0  0  0  0
   -2.1930   14.0590  -36.1130 C   0  0  0  0  0  0  0  0  0  0  0  0
   -1.2200   15.0600  -35.5050 C   0  0  0  0  0  0  0  0  0  0  0  0
   -0.7380   14.5740  -34.3020 F   0  0  0  0  0  0  0  0  0  0  0  0
   -0.1630   15.3070  -36.3620 F   0  0  0  0  0  0  0  0  0  0  0  0
   -2.0400   16.3200  -35.2650 C   0  0  0  0  0  0  0  0  0  0  0  0
   -5.0160   16.1380  -33.2870 C   0  0  0  0  0  0  0  0  0  0  0  0
   -4.3490   14.7940  -32.3690 Cl  0  0  0  0  0  0  0  0  0  0  0  0
   -6.0810   16.8420  -32.7130 C   0  0  0  0  0  0  0  0  0  0  0  0
   -8.7894   22.5320  -30.2879 H   0  0  0  0  0  0  0  0  0  0  0  0
   -8.9983   23.4782  -31.8004 H   0  0  0  0  0  0  0  0  0  0  0  0
   -9.2978   21.7071  -31.8004 H   0  0  0  0  0  0  0  0  0  0  0  0
   -6.5423   24.0919  -30.7831 H   0  0  0  0  0  0  0  0  0  0  0  0
   -4.1395   23.6651  -31.2810 H   0  0  0  0  0  0  0  0  0  0  0  0
   -3.4700   20.2680  -34.3100 H   0  0  0  0  0  0  0  0  0  0  0  0
   -0.8201   22.6057  -34.4764 H   0  0  0  0  0  0  0  0  0  0  0  0
    1.5236   22.0907  -35.1793 H   0  0  0  0  0  0  0  0  0  0  0  0
    2.9741   18.5945  -38.0733 H   0  0  0  0  0  0  0  0  0  0  0  0
    3.8546   22.2082  -35.9136 H   0  0  0  0  0  0  0  0  0  0  0  0
   -1.5992   18.3594  -34.1616 H   0  0  0  0  0  0  0  0  0  0  0  0
   -5.2163   20.0330  -33.3711 H   0  0  0  0  0  0  0  0  0  0  0  0
   -6.3848   19.3233  -35.0270 H   0  0  0  0  0  0  0  0  0  0  0  0
   -3.8482   13.8699  -34.7320 H   0  0  0  0  0  0  0  0  0  0  0  0
   -4.3379   14.3456  -36.3658 H   0  0  0  0  0  0  0  0  0  0  0  0
   -1.9541   13.0374  -35.7825 H   0  0  0  0  0  0  0  0  0  0  0  0
   -2.1472   14.0523  -37.2120 H   0  0  0  0  0  0  0  0  0  0  0  0
   -1.7514   16.7910  -34.3138 H   0  0  0  0  0  0  0  0  0  0  0  0
   -1.8789   17.0682  -36.0551 H   0  0  0  0  0  0  0  0  0  0  0  0
   -6.5086   16.4993  -31.7592 H   0  0  0  0  0  0  0  0  0  0  0  0
  1  2  1  0
  2  3  2  0
  3  4  1  0
  4  5  2  0
  5  6  1  0
  6  7  2  0
  6  8  1  0
  8  9  1  0
  9 10  2  0
 10 11  1  0
 11 12  2  0
 12 13  1  0
 13 14  1  0
 14 15  1  0
 15 16  2  0
 16 17  1  0
 17 18  1  0
 12 19  1  0
 19 20  2  0
  5 21  1  0
 21 22  2  0
 22 23  1  0
 23 24  1  0
 24 25  2  0
 24 26  1  0
 26 27  2  0
 27 28  1  0
 28 29  2  0
 29 30  1  0
 30 31  1  0
 31 32  1  0
 32 33  1  0
 33 34  1  0
 33 35  1  0
 33 36  1  0
 29 37  1  0
 37 38  1  0
 37 39  2  0
 22  2  1  0
 39 26  1  0
 20  9  1  0
 36 30  1  0
 18 14  2  0
  1 40  1  0
  1 41  1  0
  1 42  1  0
  3 43  1  0
  4 44  1  0
  8 45  1  0
 10 46  1  0
 11 47  1  0
 15 48  1  0
 18 49  1  0
 20 50  1  0
 21 51  1  0
 27 52  1  0
 31 53  1  0
 31 54  1  0
 32 55  1  0
 32 56  1  0
 36 57  1  0
 36 58  1  0
 39 59  1  0
M  CHG  2  17  -1  23  -1
M  END
>  <UniqueID>  (49) 
49

>  <SMILES>  (49) 
Cc1ccc(C(=O)Nc2ccc(Oc3cn[n-]c3)nc2)cc1[N-]C(=O)c1cnc(N2CCC(F)(F)C2)c(Cl)c1

>  <Energy>  (49) 
119.34278333504672

>  <Genealogy>  (49) 
Cc1ccc(C(=O)Nc2ccc(Oc3cn[n-]c3)nc2)cc1[N-]C(=O)c1cnc(N2CCC(F)(F)C2)c(Cl)c1 (protonated)
Cc1ccc(C(=O)Nc2ccc(Oc3cn[n-]c3)nc2)cc1[N-]C(=O)c1cnc(N2CCC(F)(F)C2)c(Cl)c1 (3D coordinates assigned)
Cc1ccc(C(=O)Nc2ccc(Oc3cn[n-]c3)nc2)cc1[N-]C(=O)c1cnc(N2CCC(F)(F)C2)c(Cl)c1 (nonaromatic ring conformer: 119.34278333504672 kcal/mol)

>  <smiles>  (49) 
Cc1ccc(C(=O)Nc2ccc(Oc3cn[nH]c3)nc2)cc1NC(=O)c1cnc(N2CCC(F)(F)C2)c(Cl)c1

>  <score_type>  (49) 
oracle

>  <origin>  (49) 
adgpu

>  <m_score__min__energy>  (49) 
-12.06

>  <m_primary>  (49) 
energy

$$$$
49:0
     RDKit          3D

 42 45  0  0  0  0  0  0  0  0999 V2000
    1.7570   24.5250  -28.1960 O   0  0  0  0  0  0  0  0  0  0  0  0
    0.6300   23.9640  -28.1800 C   0  0  0  0  0  0  0  0  0  0  0  0
    0.5190   22.5140  -27.8280 C   0  0  0  0  0  0  0  0  0  0  0  0
   -0.8310   22.3120  -26.6300 S   0  0  0  0  0  0  0  0  0  0  0  0
   -2.0890   22.9630  -27.7440 C   0  0  0  0  0  0  0  0  0  0  0  0
   -3.3260   22.3200  -27.8370 C   0  0  0  0  0  0  0  0  0  0  0  0
   -4.3380   22.8520  -28.6430 C   0  0  0  0  0  0  0  0  0  0  0  0
   -4.1170   24.0280  -29.3710 C   0  0  0  0  0  0  0  0  0  0  0  0
   -5.3520   24.6290  -30.4770 S   0  0  0  0  0  0  0  0  0  0  0  0
   -5.0340   26.0530  -30.8410 O   0  0  0  0  0  0  0  0  0  0  0  0
   -6.7070   24.5730  -29.8290 O   0  0  0  0  0  0  0  0  0  0  0  0
   -5.3960   23.6640  -31.9200 N   0  0  0  0  0  0  0  0  0  0  0  0
   -6.0290   22.3800  -32.0380 C   0  0  0  0  0  0  0  0  0  0  0  0
   -5.2930   21.2120  -32.3020 C   0  0  0  0  0  0  0  0  0  0  0  0
   -5.9400   19.9830  -32.4780 C   0  0  0  0  0  0  0  0  0  0  0  0
   -7.3360   19.8990  -32.3210 C   0  0  0  0  0  0  0  0  0  0  0  0
   -8.0640   21.0570  -32.0140 C   0  0  0  0  0  0  0  0  0  0  0  0
   -7.4200   22.2940  -31.8940 C   0  0  0  0  0  0  0  0  0  0  0  0
   -8.1590   23.4450  -31.6220 O   0  0  0  0  0  0  0  0  0  0  0  0
   -8.0760   18.5880  -32.4840 C   0  0  0  0  0  0  0  0  0  0  0  0
   -7.2490   17.4260  -33.0950 C   0  0  0  0  0  0  0  0  0  0  0  0
   -5.9630   17.8780  -33.7780 C   0  0  0  0  0  0  0  0  0  0  0  0
   -5.1450   18.7570  -32.8340 C   0  0  0  0  0  0  0  0  0  0  0  0
   -2.8760   24.6750  -29.2800 C   0  0  0  0  0  0  0  0  0  0  0  0
   -1.8530   24.1320  -28.4900 C   0  0  0  0  0  0  0  0  0  0  0  0
   -0.5400   24.7050  -28.5430 N   0  0  0  0  0  0  0  0  0  0  0  0
    0.3021   21.9282  -28.7334 H   0  0  0  0  0  0  0  0  0  0  0  0
    1.4647   22.1589  -27.3927 H   0  0  0  0  0  0  0  0  0  0  0  0
   -3.5047   21.3919  -27.2743 H   0  0  0  0  0  0  0  0  0  0  0  0
   -5.3119   22.3444  -28.7054 H   0  0  0  0  0  0  0  0  0  0  0  0
   -4.1964   21.2641  -32.3711 H   0  0  0  0  0  0  0  0  0  0  0  0
   -9.1521   20.9929  -31.8659 H   0  0  0  0  0  0  0  0  0  0  0  0
   -7.7050   24.3230  -31.3900 H   0  0  0  0  0  0  0  0  0  0  0  0
   -8.4249   18.2699  -31.4905 H   0  0  0  0  0  0  0  0  0  0  0  0
   -8.8898   18.7870  -33.1968 H   0  0  0  0  0  0  0  0  0  0  0  0
   -6.9856   16.7263  -32.2882 H   0  0  0  0  0  0  0  0  0  0  0  0
   -7.8758   16.9595  -33.8693 H   0  0  0  0  0  0  0  0  0  0  0  0
   -5.3700   16.9946  -34.0571 H   0  0  0  0  0  0  0  0  0  0  0  0
   -6.2189   18.4580  -34.6770 H   0  0  0  0  0  0  0  0  0  0  0  0
   -4.9102   18.1934  -31.9190 H   0  0  0  0  0  0  0  0  0  0  0  0
   -4.2097   19.0568  -33.3293 H   0  0  0  0  0  0  0  0  0  0  0  0
   -2.7047   25.6118  -29.8304 H   0  0  0  0  0  0  0  0  0  0  0  0
  1  2  2  0
  2  3  1  0
  3  4  1  0
  4  5  1  0
  5  6  2  0
  6  7  1  0
  7  8  2  0
  8  9  1  0
  9 10  2  0
  9 11  2  0
  9 12  1  0
 12 13  1  0
 13 14  2  0
 14 15  1  0
 15 16  2  0
 16 17  1  0
 17 18  2  0
 18 19  1  0
 16 20  1  0
 20 21  1  0
 21 22  1  0
 22 23  1  0
  8 24  1  0
 24 25  2  0
 25 26  1  0
 26  2  1  0
 25  5  1  0
 18 13  1  0
 23 15  1  0
  3 27  1  0
  3 28  1  0
  6 29  1  0
  7 30  1  0
 14 31  1  0
 17 32  1  0
 19 33  1  0
 20 34  1  0
 20 35  1  0
 21 36  1  0
 21 37  1  0
 22 38  1  0
 22 39  1  0
 23 40  1  0
 23 41  1  0
 24 42  1  0
M  CHG  2  12  -1  26  -1
M  END
>  <UniqueID>  (50) 
50

>  <SMILES>  (50) 
O=C1CSc2ccc(S(=O)(=O)[N-]c3cc4c(cc3O)CCCC4)cc2[N-]1

>  <Energy>  (50) 
54.66230460390085

>  <Genealogy>  (50) 
O=C1CSc2ccc(S(=O)(=O)[N-]c3cc4c(cc3O)CCCC4)cc2[N-]1 (protonated)
O=C1CSc2ccc(S(=O)(=O)[N-]c3cc4c(cc3O)CCCC4)cc2[N-]1 (3D coordinates assigned)
O=C1CSc2ccc(S(=O)(=O)[N-]c3cc4c(cc3O)CCCC4)cc2[N-]1 (nonaromatic ring conformer: 54.66230460390085 kcal/mol)

>  <smiles>  (50) 
O=C1CSc2ccc(S(=O)(=O)Nc3cc4c(cc3O)CCCC4)cc2N1

>  <score_type>  (50) 
oracle

>  <origin>  (50) 
adgpu

>  <m_score__min__energy>  (50) 
-11.43

>  <m_primary>  (50) 
energy

$$$$
