0:0
     RDKit          3D

 52 54  0  0  0  0  0  0  0  0999 V2000
    1.0270   20.3700  -32.7560 C   0  0  0  0  0  0  0  0  0  0  0  0
    0.2370   20.7310  -33.9800 C   0  0  0  0  0  0  0  0  0  0  0  0
    0.1860   21.9370  -34.3390 O   0  0  0  0  0  0  0  0  0  0  0  0
   -0.4320   19.7420  -34.7740 N   0  0  0  0  0  0  0  0  0  0  0  0
   -1.6610   19.0680  -34.4590 C   0  0  0  0  0  0  0  0  0  0  0  0
   -1.7610   17.6670  -34.5350 C   0  0  0  0  0  0  0  0  0  0  0  0
   -2.9390   17.0180  -34.1580 C   0  0  0  0  0  0  0  0  0  0  0  0
   -4.0280   17.7580  -33.6740 C   0  0  0  0  0  0  0  0  0  0  0  0
   -5.4630   16.9400  -33.0450 S   0  0  0  0  0  0  0  0  0  0  0  0
   -5.4190   16.8900  -31.5350 O   0  0  0  0  0  0  0  0  0  0  0  0
   -5.4730   15.5300  -33.5820 O   0  0  0  0  0  0  0  0  0  0  0  0
   -6.9190   17.7490  -33.5430 N   0  0  0  0  0  0  0  0  0  0  0  0
   -7.4350   18.9510  -32.9590 C   0  0  0  0  0  0  0  0  0  0  0  0
   -8.7970   19.0300  -32.6710 C   0  0  0  0  0  0  0  0  0  0  0  0
   -9.3540   20.2220  -32.2030 C   0  0  0  0  0  0  0  0  0  0  0  0
   -8.5520   21.3560  -32.0020 C   0  0  0  0  0  0  0  0  0  0  0  0
   -9.2160   22.6440  -31.5830 C   0  0  0  0  0  0  0  0  0  0  0  0
   -7.1630   21.2740  -32.2660 C   0  0  0  0  0  0  0  0  0  0  0  0
   -6.0860   22.6730  -32.0810 S   0  0  0  0  0  0  0  0  0  0  0  0
   -4.7570   22.3840  -32.7260 O   0  0  0  0  0  0  0  0  0  0  0  0
   -6.7070   23.8540  -32.7810 O   0  0  0  0  0  0  0  0  0  0  0  0
   -5.8650   23.0270  -30.3780 N   0  0  0  0  0  0  0  0  0  0  0  0
   -4.4540   22.8790  -29.9550 C   0  0  0  0  0  0  0  0  0  0  0  0
   -3.7150   24.2200  -29.8650 C   0  0  0  0  0  0  0  0  0  0  0  0
   -4.2150   25.1190  -30.8290 O   0  0  0  0  0  0  0  0  0  0  0  0
   -5.5360   25.5090  -30.5000 C   0  0  0  0  0  0  0  0  0  0  0  0
   -6.4250   24.3400  -30.0190 C   0  0  0  0  0  0  0  0  0  0  0  0
   -6.6140   20.0550  -32.6980 C   0  0  0  0  0  0  0  0  0  0  0  0
   -3.9350   19.1530  -33.5980 C   0  0  0  0  0  0  0  0  0  0  0  0
   -2.7560   19.8090  -33.9700 C   0  0  0  0  0  0  0  0  0  0  0  0
   -2.6900   21.1960  -33.8380 O   0  0  0  0  0  0  0  0  0  0  0  0
    0.4507   20.6333  -31.8568 H   0  0  0  0  0  0  0  0  0  0  0  0
    1.2313   19.2891  -32.7571 H   0  0  0  0  0  0  0  0  0  0  0  0
    1.9779   20.9229  -32.7571 H   0  0  0  0  0  0  0  0  0  0  0  0
   -0.9045   17.0777  -34.8943 H   0  0  0  0  0  0  0  0  0  0  0  0
   -3.0130   15.9236  -34.2409 H   0  0  0  0  0  0  0  0  0  0  0  0
   -9.4373   18.1470  -32.8135 H   0  0  0  0  0  0  0  0  0  0  0  0
  -10.4320   20.2726  -31.9898 H   0  0  0  0  0  0  0  0  0  0  0  0
   -9.2454   22.7010  -30.4849 H   0  0  0  0  0  0  0  0  0  0  0  0
   -8.6451   23.4967  -31.9793 H   0  0  0  0  0  0  0  0  0  0  0  0
  -10.2417   22.6736  -31.9793 H   0  0  0  0  0  0  0  0  0  0  0  0
   -4.4326   22.3991  -28.9654 H   0  0  0  0  0  0  0  0  0  0  0  0
   -3.9430   22.2705  -30.7157 H   0  0  0  0  0  0  0  0  0  0  0  0
   -3.8586   24.6470  -28.8615 H   0  0  0  0  0  0  0  0  0  0  0  0
   -2.6443   24.0522  -30.0531 H   0  0  0  0  0  0  0  0  0  0  0  0
   -5.4871   26.2611  -29.6988 H   0  0  0  0  0  0  0  0  0  0  0  0
   -5.9934   25.9051  -31.4186 H   0  0  0  0  0  0  0  0  0  0  0  0
   -6.5213   24.3961  -28.9247 H   0  0  0  0  0  0  0  0  0  0  0  0
   -7.4026   24.4353  -30.5141 H   0  0  0  0  0  0  0  0  0  0  0  0
   -5.5259   19.9667  -32.8329 H   0  0  0  0  0  0  0  0  0  0  0  0
   -4.7960   19.7384  -33.2429 H   0  0  0  0  0  0  0  0  0  0  0  0
   -1.9700   21.7510  -34.2860 H   0  0  0  0  0  0  0  0  0  0  0  0
  1  2  1  0
  2  3  2  0
  2  4  1  0
  4  5  1  0
  5  6  2  0
  6  7  1  0
  7  8  2  0
  8  9  1  0
  9 10  2  0
  9 11  2  0
  9 12  1  0
 12 13  1  0
 13 14  2  0
 14 15  1  0
 15 16  2  0
 16 17  1  0
 16 18  1  0
 18 19  1  0
 19 20  2  0
 19 21  2  0
 19 22  1  0
 22 23  1  0
 23 24  1  0
 24 25  1  0
 25 26  1  0
 26 27  1  0
 18 28  2  0
  8 29  1  0
 29 30  2  0
 30 31  1  0
 30  5  1  0
 28 13  1  0
 27 22  1  0
  1 32  1  0
  1 33  1  0
  1 34  1  0
  6 35  1  0
  7 36  1  0
 14 37  1  0
 15 38  1  0
 17 39  1  0
 17 40  1  0
 17 41  1  0
 23 42  1  0
 23 43  1  0
 24 44  1  0
 24 45  1  0
 26 46  1  0
 26 47  1  0
 27 48  1  0
 27 49  1  0
 28 50  1  0
 29 51  1  0
 31 52  1  0
M  CHG  2   4  -1  12  -1
M  END
>  <UniqueID>  (1) 
1

>  <SMILES>  (1) 
CC(=O)[N-]c1ccc(S(=O)(=O)[N-]c2ccc(C)c(S(=O)(=O)N3CCOCC3)c2)cc1O

>  <Energy>  (1) 
73.79653266023743

>  <Genealogy>  (1) 
CC(=O)[N-]c1ccc(S(=O)(=O)[N-]c2ccc(C)c(S(=O)(=O)N3CCOCC3)c2)cc1O (protonated)
CC(=O)[N-]c1ccc(S(=O)(=O)[N-]c2ccc(C)c(S(=O)(=O)N3CCOCC3)c2)cc1O (3D coordinates assigned)
CC(=O)[N-]c1ccc(S(=O)(=O)[N-]c2ccc(C)c(S(=O)(=O)N3CCOCC3)c2)cc1O (nonaromatic ring conformer: 73.79653266023743 kcal/mol)

>  <smiles>  (1) 
CC(=O)Nc1ccc(S(=O)(=O)Nc2ccc(C)c(S(=O)(=O)N3CCOCC3)c2)cc1O

>  <score_type>  (1) 
oracle

>  <origin>  (1) 
adgpu

>  <m_score__min__energy>  (1) 
-11.02

>  <m_primary>  (1) 
energy

$$$$
1:0
     RDKit          3D

 42 45  0  0  0  0  0  0  0  0999 V2000
   -0.7050   21.5230  -27.0280 C   0  0  0  0  0  0  0  0  0  0  0  0
   -0.0900   22.7610  -26.4330 C   0  0  0  0  0  0  0  0  0  0  0  0
    0.2490   22.7590  -25.0690 C   0  0  0  0  0  0  0  0  0  0  0  0
    0.8710   23.8680  -24.4900 C   0  0  0  0  0  0  0  0  0  0  0  0
    1.1610   24.9910  -25.2650 C   0  0  0  0  0  0  0  0  0  0  0  0
    0.8100   25.0180  -26.6170 C   0  0  0  0  0  0  0  0  0  0  0  0
    0.1570   23.9270  -27.2040 C   0  0  0  0  0  0  0  0  0  0  0  0
   -0.2020   24.0140  -28.5890 N   0  0  0  0  0  0  0  0  0  0  0  0
   -1.5430   24.1510  -29.0690 C   0  0  0  0  0  0  0  0  0  0  0  0
   -1.9840   25.3010  -29.3290 O   0  0  0  0  0  0  0  0  0  0  0  0
   -2.3980   23.0030  -29.1840 N   0  0  0  0  0  0  0  0  0  0  0  0
   -3.5600   22.9510  -30.0300 C   0  0  0  0  0  0  0  0  0  0  0  0
   -4.6950   23.6980  -29.6870 C   0  0  0  0  0  0  0  0  0  0  0  0
   -5.8520   23.6280  -30.4680 C   0  0  0  0  0  0  0  0  0  0  0  0
   -5.9010   22.7930  -31.5940 C   0  0  0  0  0  0  0  0  0  0  0  0
   -4.7580   22.0560  -31.9500 C   0  0  0  0  0  0  0  0  0  0  0  0
   -3.6040   22.1180  -31.1610 C   0  0  0  0  0  0  0  0  0  0  0  0
   -4.7550   21.0500  -33.4300 S   0  0  0  0  0  0  0  0  0  0  0  0
   -5.8120   19.8360  -32.6510 C   0  0  0  0  0  0  0  0  0  0  0  0
   -5.2830   18.5860  -32.3070 C   0  0  0  0  0  0  0  0  0  0  0  0
   -6.1160   17.5940  -31.7830 C   0  0  0  0  0  0  0  0  0  0  0  0
   -7.4790   17.8460  -31.6060 C   0  0  0  0  0  0  0  0  0  0  0  0
   -8.0070   19.0980  -31.9330 C   0  0  0  0  0  0  0  0  0  0  0  0
   -7.1760   20.1110  -32.4270 C   0  0  0  0  0  0  0  0  0  0  0  0
   -7.7440   21.4040  -32.6910 N   0  0  0  0  0  0  0  0  0  0  0  0
   -7.1630   22.6760  -32.3590 C   0  0  0  0  0  0  0  0  0  0  0  0
   -7.7930   23.7240  -32.6620 O   0  0  0  0  0  0  0  0  0  0  0  0
   -1.0373   20.8542  -26.2204 H   0  0  0  0  0  0  0  0  0  0  0  0
   -1.5680   21.8046  -27.6493 H   0  0  0  0  0  0  0  0  0  0  0  0
    0.0407   21.0054  -27.6493 H   0  0  0  0  0  0  0  0  0  0  0  0
    0.0227   21.8768  -24.4521 H   0  0  0  0  0  0  0  0  0  0  0  0
    1.1324   23.8556  -23.4216 H   0  0  0  0  0  0  0  0  0  0  0  0
    1.6665   25.8561  -24.8112 H   0  0  0  0  0  0  0  0  0  0  0  0
    1.0484   25.9031  -27.2252 H   0  0  0  0  0  0  0  0  0  0  0  0
   -2.1860   22.1730  -28.5860 H   0  0  0  0  0  0  0  0  0  0  0  0
   -4.6752   24.3440  -28.7969 H   0  0  0  0  0  0  0  0  0  0  0  0
   -6.7306   24.2322  -30.1977 H   0  0  0  0  0  0  0  0  0  0  0  0
   -2.7261   21.5112  -31.4276 H   0  0  0  0  0  0  0  0  0  0  0  0
   -4.2110   18.3848  -32.4494 H   0  0  0  0  0  0  0  0  0  0  0  0
   -5.6984   16.6138  -31.5096 H   0  0  0  0  0  0  0  0  0  0  0  0
   -8.1367   17.0586  -31.2091 H   0  0  0  0  0  0  0  0  0  0  0  0
   -9.0823   19.2889  -31.8015 H   0  0  0  0  0  0  0  0  0  0  0  0
  1  2  1  0
  2  3  2  0
  3  4  1  0
  4  5  2  0
  5  6  1  0
  6  7  2  0
  7  8  1  0
  8  9  1  0
  9 10  2  0
  9 11  1  0
 11 12  1  0
 12 13  2  0
 13 14  1  0
 14 15  2  0
 15 16  1  0
 16 17  2  0
 16 18  1  0
 18 19  1  0
 19 20  2  0
 20 21  1  0
 21 22  2  0
 22 23  1  0
 23 24  2  0
 24 25  1  0
 25 26  1  0
 26 27  2  0
  7  2  1  0
 17 12  1  0
 24 19  1  0
 26 15  1  0
  1 28  1  0
  1 29  1  0
  1 30  1  0
  3 31  1  0
  4 32  1  0
  5 33  1  0
  6 34  1  0
 11 35  1  0
 13 36  1  0
 14 37  1  0
 17 38  1  0
 20 39  1  0
 21 40  1  0
 22 41  1  0
 23 42  1  0
M  CHG  2   8  -1  25  -1
M  END
>  <UniqueID>  (2) 
2

>  <SMILES>  (2) 
Cc1ccccc1[N-]C(=O)Nc1ccc2c(c1)Sc1ccccc1[N-]C2=O

>  <Energy>  (2) 
67.58575691814012

>  <Genealogy>  (2) 
Cc1ccccc1[N-]C(=O)Nc1ccc2c(c1)Sc1ccccc1[N-]C2=O (protonated)
Cc1ccccc1[N-]C(=O)Nc1ccc2c(c1)Sc1ccccc1[N-]C2=O (3D coordinates assigned)
Cc1ccccc1[N-]C(=O)Nc1ccc2c(c1)Sc1ccccc1[N-]C2=O (nonaromatic ring conformer: 67.58575691814012 kcal/mol)

>  <smiles>  (2) 
Cc1ccccc1NC(=O)Nc1ccc2c(c1)Sc1ccccc1NC2=O

>  <score_type>  (2) 
oracle

>  <origin>  (2) 
adgpu

>  <m_score__min__energy>  (2) 
-9.6300000000000008

>  <m_primary>  (2) 
energy

$$$$
2:0
     RDKit          3D

 51 53  0  0  0  0  0  0  0  0999 V2000
   -2.7370   20.4930  -27.5890 C   0  0  0  0  0  0  0  0  0  0  0  0
   -1.6630   20.8810  -28.6020 C   0  0  0  0  0  0  0  0  0  0  0  0
   -1.5280   22.3840  -28.6940 C   0  0  0  0  0  0  0  0  0  0  0  0
   -2.5440   23.1190  -29.3250 C   0  0  0  0  0  0  0  0  0  0  0  0
   -2.4710   24.5180  -29.4080 C   0  0  0  0  0  0  0  0  0  0  0  0
   -3.4790   25.2950  -30.0750 N   0  0  0  0  0  0  0  0  0  0  0  0
   -4.8450   24.9170  -30.2910 C   0  0  0  0  0  0  0  0  0  0  0  0
   -5.7210   25.1700  -29.4240 O   0  0  0  0  0  0  0  0  0  0  0  0
   -5.2530   24.3490  -31.5410 N   0  0  0  0  0  0  0  0  0  0  0  0
   -5.9700   23.1200  -31.7230 C   0  0  0  0  0  0  0  0  0  0  0  0
   -7.3250   23.0960  -32.1030 C   0  0  0  0  0  0  0  0  0  0  0  0
   -7.9840   21.8760  -32.2850 C   0  0  0  0  0  0  0  0  0  0  0  0
   -7.2950   20.6680  -32.1060 C   0  0  0  0  0  0  0  0  0  0  0  0
   -8.1130   19.1250  -32.3360 S   0  0  0  0  0  0  0  0  0  0  0  0
   -9.5070   19.3540  -32.8550 O   0  0  0  0  0  0  0  0  0  0  0  0
   -8.2070   18.4280  -31.0060 O   0  0  0  0  0  0  0  0  0  0  0  0
   -7.2090   18.1400  -33.4620 N   0  0  0  0  0  0  0  0  0  0  0  0
   -6.5650   16.9950  -32.7760 C   0  0  0  0  0  0  0  0  0  0  0  0
   -5.0710   17.2350  -32.5040 C   0  0  0  0  0  0  0  0  0  0  0  0
   -4.3180   17.5020  -33.7450 N   0  0  0  0  0  0  0  0  0  0  0  0
   -5.1180   18.1490  -34.8020 C   0  0  0  0  0  0  0  0  0  0  0  0
   -6.2640   18.9870  -34.2200 C   0  0  0  0  0  0  0  0  0  0  0  0
   -5.9380   20.6920  -31.7640 C   0  0  0  0  0  0  0  0  0  0  0  0
   -5.2790   21.9110  -31.5790 C   0  0  0  0  0  0  0  0  0  0  0  0
   -1.3470   25.1620  -28.8770 C   0  0  0  0  0  0  0  0  0  0  0  0
   -1.2320   26.4130  -28.9600 O   0  0  0  0  0  0  0  0  0  0  0  0
   -0.3760   24.4410  -28.2570 N   0  0  0  0  0  0  0  0  0  0  0  0
   -0.4340   23.0870  -28.1340 C   0  0  0  0  0  0  0  0  0  0  0  0
    0.6940   22.3880  -27.4340 C   0  0  0  0  0  0  0  0  0  0  0  0
   -2.3477   20.6336  -26.5699 H   0  0  0  0  0  0  0  0  0  0  0  0
   -3.6238   21.1276  -27.7336 H   0  0  0  0  0  0  0  0  0  0  0  0
   -3.0135   19.4382  -27.7336 H   0  0  0  0  0  0  0  0  0  0  0  0
   -0.7001   20.4511  -28.2889 H   0  0  0  0  0  0  0  0  0  0  0  0
   -1.9535   20.4925  -29.5893 H   0  0  0  0  0  0  0  0  0  0  0  0
   -3.4068   22.5926  -29.7591 H   0  0  0  0  0  0  0  0  0  0  0  0
   -7.8676   24.0403  -32.2574 H   0  0  0  0  0  0  0  0  0  0  0  0
   -9.0465   21.8640  -32.5696 H   0  0  0  0  0  0  0  0  0  0  0  0
   -7.0755   16.8265  -31.8163 H   0  0  0  0  0  0  0  0  0  0  0  0
   -6.6475   16.1201  -33.4376 H   0  0  0  0  0  0  0  0  0  0  0  0
   -4.9669   18.1001  -31.8326 H   0  0  0  0  0  0  0  0  0  0  0  0
   -4.6587   16.3236  -32.0464 H   0  0  0  0  0  0  0  0  0  0  0  0
   -3.5140   18.1310  -33.5040 H   0  0  0  0  0  0  0  0  0  0  0  0
   -4.4622   18.8052  -35.3930 H   0  0  0  0  0  0  0  0  0  0  0  0
   -5.5575   17.3590  -35.4287 H   0  0  0  0  0  0  0  0  0  0  0  0
   -5.8457   19.7500  -33.5470 H   0  0  0  0  0  0  0  0  0  0  0  0
   -6.8076   19.4612  -35.0504 H   0  0  0  0  0  0  0  0  0  0  0  0
   -5.3877   19.7476  -31.6402 H   0  0  0  0  0  0  0  0  0  0  0  0
   -4.2103   21.9202  -31.3185 H   0  0  0  0  0  0  0  0  0  0  0  0
    0.5584   22.4720  -26.3456 H   0  0  0  0  0  0  0  0  0  0  0  0
    0.7022   21.3263  -27.7216 H   0  0  0  0  0  0  0  0  0  0  0  0
    1.6484   22.8532  -27.7216 H   0  0  0  0  0  0  0  0  0  0  0  0
  1  2  1  0
  2  3  1  0
  3  4  1  0
  4  5  2  0
  5  6  1  0
  6  7  1  0
  7  8  2  0
  7  9  1  0
  9 10  1  0
 10 11  2  0
 11 12  1  0
 12 13  2  0
 13 14  1  0
 14 15  2  0
 14 16  2  0
 14 17  1  0
 17 18  1  0
 18 19  1  0
 19 20  1  0
 20 21  1  0
 21 22  1  0
 13 23  1  0
 23 24  2  0
  5 25  1  0
 25 26  2  0
 25 27  1  0
 27 28  1  0
 28 29  1  0
 28  3  2  0
 24 10  1  0
 22 17  1  0
  1 30  1  0
  1 31  1  0
  1 32  1  0
  2 33  1  0
  2 34  1  0
  4 35  1  0
 11 36  1  0
 12 37  1  0
 18 38  1  0
 18 39  1  0
 19 40  1  0
 19 41  1  0
 20 42  1  0
 21 43  1  0
 21 44  1  0
 22 45  1  0
 22 46  1  0
 23 47  1  0
 24 48  1  0
 29 49  1  0
 29 50  1  0
 29 51  1  0
M  CHG  3   6  -1   9  -1  27  -1
M  END
>  <UniqueID>  (3) 
3

>  <SMILES>  (3) 
CCc1cc([N-]C(=O)[N-]c2ccc(S(=O)(=O)N3CCNCC3)cc2)c(=O)[n-]c1C

>  <Energy>  (3) 
65.5580363724921

>  <Genealogy>  (3) 
CCc1cc([N-]C(=O)[N-]c2ccc(S(=O)(=O)N3CCNCC3)cc2)c(=O)[n-]c1C (protonated)
CCc1cc([N-]C(=O)[N-]c2ccc(S(=O)(=O)N3CCNCC3)cc2)c(=O)[n-]c1C (3D coordinates assigned)
CCc1cc([N-]C(=O)[N-]c2ccc(S(=O)(=O)N3CCNCC3)cc2)c(=O)[n-]c1C (nonaromatic ring conformer: 65.5580363724921 kcal/mol)

>  <smiles>  (3) 
CCc1cc(NC(=O)Nc2ccc(S(=O)(=O)N3CCNCC3)cc2)c(=O)[nH]c1C

>  <score_type>  (3) 
oracle

>  <origin>  (3) 
adgpu

>  <m_score__min__energy>  (3) 
-13.06

>  <m_primary>  (3) 
energy

$$$$
3:0
     RDKit          3D

 48 50  0  0  0  0  0  0  0  0999 V2000
   -2.4290   21.5180  -33.4570 C   0  0  0  0  0  0  0  0  0  0  0  0
   -1.8900   20.1950  -33.1060 N   0  0  0  0  0  0  0  0  0  0  0  0
   -2.8870   19.4360  -32.3390 C   0  0  0  0  0  0  0  0  0  0  0  0
   -0.4470   20.3900  -32.1450 S   0  0  0  0  0  0  0  0  0  0  0  0
    0.5230   21.2960  -32.8520 O   0  0  0  0  0  0  0  0  0  0  0  0
    0.2060   19.0510  -31.9280 O   0  0  0  0  0  0  0  0  0  0  0  0
   -0.8590   21.1240  -30.5970 C   0  0  0  0  0  0  0  0  0  0  0  0
   -0.7830   20.3560  -29.4280 C   0  0  0  0  0  0  0  0  0  0  0  0
   -1.1540   20.9090  -28.2000 C   0  0  0  0  0  0  0  0  0  0  0  0
   -1.6130   22.2280  -28.1350 C   0  0  0  0  0  0  0  0  0  0  0  0
   -1.6900   23.0050  -29.2970 C   0  0  0  0  0  0  0  0  0  0  0  0
   -2.3340   24.6410  -29.2060 S   0  0  0  0  0  0  0  0  0  0  0  0
   -3.0150   24.8240  -27.8780 O   0  0  0  0  0  0  0  0  0  0  0  0
   -1.2380   25.6630  -29.3250 O   0  0  0  0  0  0  0  0  0  0  0  0
   -3.4940   24.8770  -30.4740 N   0  0  0  0  0  0  0  0  0  0  0  0
   -4.6730   24.0850  -30.6800 C   0  0  0  0  0  0  0  0  0  0  0  0
   -4.7020   23.0210  -31.5960 C   0  0  0  0  0  0  0  0  0  0  0  0
   -5.8690   22.2660  -31.7870 C   0  0  0  0  0  0  0  0  0  0  0  0
   -7.0190   22.5580  -31.0220 C   0  0  0  0  0  0  0  0  0  0  0  0
   -6.9890   23.6250  -30.1140 C   0  0  0  0  0  0  0  0  0  0  0  0
   -5.8250   24.3830  -29.9390 C   0  0  0  0  0  0  0  0  0  0  0  0
   -5.8050   25.4360  -29.0240 O   0  0  0  0  0  0  0  0  0  0  0  0
   -8.3220   21.8230  -31.2430 C   0  0  0  0  0  0  0  0  0  0  0  0
   -8.1290   20.4720  -31.9410 C   0  0  0  0  0  0  0  0  0  0  0  0
   -7.2200   20.6240  -33.1590 C   0  0  0  0  0  0  0  0  0  0  0  0
   -5.8260   21.0830  -32.7270 C   0  0  0  0  0  0  0  0  0  0  0  0
   -1.3010   22.4520  -30.5280 C   0  0  0  0  0  0  0  0  0  0  0  0
   -2.6567   22.0769  -32.5374 H   0  0  0  0  0  0  0  0  0  0  0  0
   -1.6849   22.0720  -34.0481 H   0  0  0  0  0  0  0  0  0  0  0  0
   -3.3484   21.3943  -34.0481 H   0  0  0  0  0  0  0  0  0  0  0  0
   -2.7050   19.5745  -31.2630 H   0  0  0  0  0  0  0  0  0  0  0  0
   -3.8953   19.7972  -32.5898 H   0  0  0  0  0  0  0  0  0  0  0  0
   -2.8072   18.3680  -32.5898 H   0  0  0  0  0  0  0  0  0  0  0  0
   -0.4304   19.3152  -29.4771 H   0  0  0  0  0  0  0  0  0  0  0  0
   -1.0849   20.3058  -27.2828 H   0  0  0  0  0  0  0  0  0  0  0  0
   -1.9146   22.6566  -27.1678 H   0  0  0  0  0  0  0  0  0  0  0  0
   -3.7972   22.7761  -32.1717 H   0  0  0  0  0  0  0  0  0  0  0  0
   -7.8900   23.8697  -29.5323 H   0  0  0  0  0  0  0  0  0  0  0  0
   -4.9750   25.6560  -28.4850 H   0  0  0  0  0  0  0  0  0  0  0  0
   -8.7981   21.6497  -30.2666 H   0  0  0  0  0  0  0  0  0  0  0  0
   -8.9487   22.4477  -31.8965 H   0  0  0  0  0  0  0  0  0  0  0  0
   -7.6730   19.7619  -31.2354 H   0  0  0  0  0  0  0  0  0  0  0  0
   -9.1095   20.1000  -32.2731 H   0  0  0  0  0  0  0  0  0  0  0  0
   -7.1396   19.6558  -33.6749 H   0  0  0  0  0  0  0  0  0  0  0  0
   -7.6510   21.3767  -33.8355 H   0  0  0  0  0  0  0  0  0  0  0  0
   -5.3216   20.2477  -32.2192 H   0  0  0  0  0  0  0  0  0  0  0  0
   -5.2830   21.3954  -33.6312 H   0  0  0  0  0  0  0  0  0  0  0  0
   -1.3434   23.0636  -31.4413 H   0  0  0  0  0  0  0  0  0  0  0  0
  1  2  1  0
  2  3  1  0
  2  4  1  0
  4  5  2  0
  4  6  2  0
  4  7  1  0
  7  8  2  0
  8  9  1  0
  9 10  2  0
 10 11  1  0
 11 12  1  0
 12 13  2  0
 12 14  2  0
 12 15  1  0
 15 16  1  0
 16 17  2  0
 17 18  1  0
 18 19  2  0
 19 20  1  0
 20 21  2  0
 21 22  1  0
 19 23  1  0
 23 24  1  0
 24 25  1  0
 25 26  1  0
 11 27  2  0
 27  7  1  0
 21 16  1  0
 26 18  1  0
  1 28  1  0
  1 29  1  0
  1 30  1  0
  3 31  1  0
  3 32  1  0
  3 33  1  0
  8 34  1  0
  9 35  1  0
 10 36  1  0
 17 37  1  0
 20 38  1  0
 22 39  1  0
 23 40  1  0
 23 41  1  0
 24 42  1  0
 24 43  1  0
 25 44  1  0
 25 45  1  0
 26 46  1  0
 26 47  1  0
 27 48  1  0
M  CHG  1  15  -1
M  END
>  <UniqueID>  (4) 
4

>  <SMILES>  (4) 
CN(C)S(=O)(=O)c1cccc(S(=O)(=O)[N-]c2cc3c(cc2O)CCCC3)c1

>  <Energy>  (4) 
48.75483126860729

>  <Genealogy>  (4) 
CN(C)S(=O)(=O)c1cccc(S(=O)(=O)[N-]c2cc3c(cc2O)CCCC3)c1 (protonated)
CN(C)S(=O)(=O)c1cccc(S(=O)(=O)[N-]c2cc3c(cc2O)CCCC3)c1 (3D coordinates assigned)
CN(C)S(=O)(=O)c1cccc(S(=O)(=O)[N-]c2cc3c(cc2O)CCCC3)c1 (nonaromatic ring conformer: 48.75483126860729 kcal/mol)

>  <smiles>  (4) 
CN(C)S(=O)(=O)c1cccc(S(=O)(=O)Nc2cc3c(cc2O)CCCC3)c1

>  <score_type>  (4) 
oracle

>  <origin>  (4) 
adgpu

>  <m_score__min__energy>  (4) 
-11.24

>  <m_primary>  (4) 
energy

$$$$
4:0
     RDKit          3D

 69 73  0  0  0  0  0  0  0  0999 V2000
   -5.7790   18.3060  -34.6770 C   0  0  0  0  0  0  0  0  0  0  0  0
   -4.3530   18.4820  -34.2540 C   0  0  0  0  0  0  0  0  0  0  0  0
   -3.7640   19.6430  -33.7730 C   0  0  0  0  0  0  0  0  0  0  0  0
   -4.3940   20.8700  -33.3970 N   0  0  0  0  0  0  0  0  0  0  0  0
   -5.7520   20.9380  -32.3180 S   0  0  0  0  0  0  0  0  0  0  0  0
   -7.0060   20.7060  -33.1100 O   0  0  0  0  0  0  0  0  0  0  0  0
   -5.6360   19.8660  -31.2730 O   0  0  0  0  0  0  0  0  0  0  0  0
   -5.8590   22.5040  -31.5160 C   0  0  0  0  0  0  0  0  0  0  0  0
   -7.1160   23.0190  -31.1600 C   0  0  0  0  0  0  0  0  0  0  0  0
   -7.2160   24.2780  -30.5580 C   0  0  0  0  0  0  0  0  0  0  0  0
   -6.0630   25.0240  -30.2950 C   0  0  0  0  0  0  0  0  0  0  0  0
   -4.8020   24.5020  -30.6090 C   0  0  0  0  0  0  0  0  0  0  0  0
   -3.6310   25.2820  -30.3390 N   0  0  0  0  0  0  0  0  0  0  0  0
   -2.6550   24.9200  -29.3590 C   0  0  0  0  0  0  0  0  0  0  0  0
   -1.5630   25.5480  -29.2990 O   0  0  0  0  0  0  0  0  0  0  0  0
   -2.9580   23.8830  -28.4200 N   0  0  0  0  0  0  0  0  0  0  0  0
   -2.2770   22.6250  -28.3090 C   0  0  0  0  0  0  0  0  0  0  0  0
   -2.9670   21.4230  -28.0740 C   0  0  0  0  0  0  0  0  0  0  0  0
   -2.2650   20.2180  -27.9810 C   0  0  0  0  0  0  0  0  0  0  0  0
   -0.8720   20.1950  -28.1390 C   0  0  0  0  0  0  0  0  0  0  0  0
   -0.0030   18.6670  -28.0320 S   0  0  0  0  0  0  0  0  0  0  0  0
   -0.7310   17.7820  -27.0600 O   0  0  0  0  0  0  0  0  0  0  0  0
    1.3940   18.9040  -27.5230 O   0  0  0  0  0  0  0  0  0  0  0  0
    0.0570   17.9060  -29.6080 N   0  0  0  0  0  0  0  0  0  0  0  0
   -0.4440   18.8230  -30.6400 C   0  0  0  0  0  0  0  0  0  0  0  0
    0.7420   19.5850  -31.2160 C   0  0  0  0  0  0  0  0  0  0  0  0
    1.9670   18.7850  -30.8170 C   0  0  0  0  0  0  0  0  0  0  0  0
    1.4460   17.6170  -29.9850 C   0  0  0  0  0  0  0  0  0  0  0  0
   -0.1810   21.3970  -28.3400 C   0  0  0  0  0  0  0  0  0  0  0  0
   -0.8800   22.6050  -28.4170 C   0  0  0  0  0  0  0  0  0  0  0  0
   -4.7050   23.2500  -31.2430 C   0  0  0  0  0  0  0  0  0  0  0  0
   -2.4350   19.3300  -33.6040 C   0  0  0  0  0  0  0  0  0  0  0  0
   -1.5370   20.1160  -33.1990 O   0  0  0  0  0  0  0  0  0  0  0  0
   -2.2370   18.0330  -33.9110 N   0  0  0  0  0  0  0  0  0  0  0  0
   -1.0270   17.2940  -33.6670 C   0  0  0  0  0  0  0  0  0  0  0  0
   -1.0110   16.2620  -32.7120 C   0  0  0  0  0  0  0  0  0  0  0  0
    0.1720   15.5660  -32.4460 C   0  0  0  0  0  0  0  0  0  0  0  0
    1.3460   15.8970  -33.1270 C   0  0  0  0  0  0  0  0  0  0  0  0
    1.3410   16.9260  -34.0730 C   0  0  0  0  0  0  0  0  0  0  0  0
    0.1620   17.6330  -34.3350 C   0  0  0  0  0  0  0  0  0  0  0  0
   -3.3970   17.5200  -34.3240 N   0  0  0  0  0  0  0  0  0  0  0  0
   -3.6070   16.1350  -34.7550 C   0  0  0  0  0  0  0  0  0  0  0  0
   -6.4188   18.2270  -33.7857 H   0  0  0  0  0  0  0  0  0  0  0  0
   -6.0928   19.1722  -35.2780 H   0  0  0  0  0  0  0  0  0  0  0  0
   -5.8727   17.3895  -35.2780 H   0  0  0  0  0  0  0  0  0  0  0  0
   -8.0248   22.4307  -31.3550 H   0  0  0  0  0  0  0  0  0  0  0  0
   -8.2038   24.6818  -30.2910 H   0  0  0  0  0  0  0  0  0  0  0  0
   -6.1465   26.0224  -29.8408 H   0  0  0  0  0  0  0  0  0  0  0  0
   -4.0614   21.4308  -27.9631 H   0  0  0  0  0  0  0  0  0  0  0  0
   -2.8084   19.2824  -27.7827 H   0  0  0  0  0  0  0  0  0  0  0  0
   -0.9414   18.2507  -31.4369 H   0  0  0  0  0  0  0  0  0  0  0  0
   -1.1709   19.5244  -30.2045 H   0  0  0  0  0  0  0  0  0  0  0  0
    0.6636   19.6481  -32.3114 H   0  0  0  0  0  0  0  0  0  0  0  0
    0.7870   20.6174  -30.8389 H   0  0  0  0  0  0  0  0  0  0  0  0
    2.4912   18.4153  -31.7106 H   0  0  0  0  0  0  0  0  0  0  0  0
    2.6847   19.3974  -30.2514 H   0  0  0  0  0  0  0  0  0  0  0  0
    1.4861   16.6909  -30.5772 H   0  0  0  0  0  0  0  0  0  0  0  0
    2.0646   17.4859  -29.0849 H   0  0  0  0  0  0  0  0  0  0  0  0
    0.9146   21.3901  -28.4375 H   0  0  0  0  0  0  0  0  0  0  0  0
   -0.3298   23.5462  -28.5633 H   0  0  0  0  0  0  0  0  0  0  0  0
   -3.7182   22.8548  -31.5258 H   0  0  0  0  0  0  0  0  0  0  0  0
   -1.9331   16.0012  -32.1720 H   0  0  0  0  0  0  0  0  0  0  0  0
    0.1784   14.7575  -31.7002 H   0  0  0  0  0  0  0  0  0  0  0  0
    2.2756   15.3471  -32.9185 H   0  0  0  0  0  0  0  0  0  0  0  0
    2.2653   17.1805  -34.6124 H   0  0  0  0  0  0  0  0  0  0  0  0
    0.1660   18.4557  -35.0652 H   0  0  0  0  0  0  0  0  0  0  0  0
   -3.7053   15.4870  -33.8716 H   0  0  0  0  0  0  0  0  0  0  0  0
   -4.5247   16.0739  -35.3584 H   0  0  0  0  0  0  0  0  0  0  0  0
   -2.7487   15.8046  -35.3584 H   0  0  0  0  0  0  0  0  0  0  0  0
  1  2  1  0
  2  3  2  0
  3  4  1  0
  4  5  1  0
  5  6  2  0
  5  7  2  0
  5  8  1  0
  8  9  2  0
  9 10  1  0
 10 11  2  0
 11 12  1  0
 12 13  1  0
 13 14  1  0
 14 15  2  0
 14 16  1  0
 16 17  1  0
 17 18  2  0
 18 19  1  0
 19 20  2  0
 20 21  1  0
 21 22  2  0
 21 23  2  0
 21 24  1  0
 24 25  1  0
 25 26  1  0
 26 27  1  0
 27 28  1  0
 20 29  1  0
 29 30  2  0
 12 31  2  0
  3 32  1  0
 32 33  2  0
 32 34  1  0
 34 35  1  0
 35 36  2  0
 36 37  1  0
 37 38  2  0
 38 39  1  0
 39 40  2  0
 34 41  1  0
 41 42  1  0
 41  2  1  0
 31  8  1  0
 40 35  1  0
 30 17  1  0
 28 24  1  0
  1 43  1  0
  1 44  1  0
  1 45  1  0
  9 46  1  0
 10 47  1  0
 11 48  1  0
 18 49  1  0
 19 50  1  0
 25 51  1  0
 25 52  1  0
 26 53  1  0
 26 54  1  0
 27 55  1  0
 27 56  1  0
 28 57  1  0
 28 58  1  0
 29 59  1  0
 30 60  1  0
 31 61  1  0
 36 62  1  0
 37 63  1  0
 38 64  1  0
 39 65  1  0
 40 66  1  0
 42 67  1  0
 42 68  1  0
 42 69  1  0
M  CHG  3   4  -1  13  -1  16  -1
M  END
>  <UniqueID>  (5) 
5

>  <SMILES>  (5) 
Cc1c([N-]S(=O)(=O)c2cccc([N-]C(=O)[N-]c3ccc(S(=O)(=O)N4CCCC4)cc3)c2)c(=O)n(-c2ccccc2)n1C

>  <Energy>  (5) 
131.70783188449528

>  <Genealogy>  (5) 
Cc1c([N-]S(=O)(=O)c2cccc([N-]C(=O)[N-]c3ccc(S(=O)(=O)N4CCCC4)cc3)c2)c(=O)n(-c2ccccc2)n1C (protonated)
Cc1c([N-]S(=O)(=O)c2cccc([N-]C(=O)[N-]c3ccc(S(=O)(=O)N4CCCC4)cc3)c2)c(=O)n(-c2ccccc2)n1C (3D coordinates assigned)
Cc1c([N-]S(=O)(=O)c2cccc([N-]C(=O)[N-]c3ccc(S(=O)(=O)N4CCCC4)cc3)c2)c(=O)n(-c2ccccc2)n1C (nonaromatic ring conformer: 131.70783188449528 kcal/mol)

>  <smiles>  (5) 
Cc1c(NS(=O)(=O)c2cccc(NC(=O)Nc3ccc(S(=O)(=O)N4CCCC4)cc3)c2)c(=O)n(-c2ccccc2)n1C

>  <score_type>  (5) 
oracle

>  <origin>  (5) 
adgpu

>  <m_score__min__energy>  (5) 
-13.77

>  <m_primary>  (5) 
energy

$$$$
5:0
     RDKit          3D

 44 46  0  0  0  0  0  0  0  0999 V2000
   -8.6300   22.4710  -31.5220 C   0  0  0  0  0  0  0  0  0  0  0  0
   -7.6100   21.6060  -32.2050 C   0  0  0  0  0  0  0  0  0  0  0  0
   -6.3490   22.0130  -32.6220 C   0  0  0  0  0  0  0  0  0  0  0  0
   -5.7890   23.3290  -32.5130 N   0  0  0  0  0  0  0  0  0  0  0  0
   -5.4250   24.0520  -30.9790 S   0  0  0  0  0  0  0  0  0  0  0  0
   -6.7070   24.4180  -30.2840 O   0  0  0  0  0  0  0  0  0  0  0  0
   -4.6110   25.2950  -31.2050 O   0  0  0  0  0  0  0  0  0  0  0  0
   -4.5450   22.9030  -29.9760 C   0  0  0  0  0  0  0  0  0  0  0  0
   -4.5190   23.0470  -28.5830 C   0  0  0  0  0  0  0  0  0  0  0  0
   -3.7520   22.1780  -27.8000 C   0  0  0  0  0  0  0  0  0  0  0  0
   -2.9890   21.1620  -28.4010 C   0  0  0  0  0  0  0  0  0  0  0  0
   -2.1810   20.2100  -27.5570 C   0  0  0  0  0  0  0  0  0  0  0  0
   -1.2810   19.5030  -28.3380 F   0  0  0  0  0  0  0  0  0  0  0  0
   -3.0090   19.2990  -26.9220 F   0  0  0  0  0  0  0  0  0  0  0  0
   -1.4850   20.9270  -26.6010 F   0  0  0  0  0  0  0  0  0  0  0  0
   -3.0560   20.9950  -29.7960 C   0  0  0  0  0  0  0  0  0  0  0  0
   -3.8240   21.8630  -30.5770 C   0  0  0  0  0  0  0  0  0  0  0  0
   -5.7040   20.8490  -32.9830 C   0  0  0  0  0  0  0  0  0  0  0  0
   -4.5320   20.7550  -33.4360 O   0  0  0  0  0  0  0  0  0  0  0  0
   -6.5210   19.7980  -32.7770 N   0  0  0  0  0  0  0  0  0  0  0  0
   -6.1530   18.4190  -32.9360 C   0  0  0  0  0  0  0  0  0  0  0  0
   -6.0900   17.8440  -34.2160 C   0  0  0  0  0  0  0  0  0  0  0  0
   -5.6910   16.5140  -34.3690 C   0  0  0  0  0  0  0  0  0  0  0  0
   -5.3480   15.7510  -33.2470 C   0  0  0  0  0  0  0  0  0  0  0  0
   -5.3980   16.3220  -31.9710 C   0  0  0  0  0  0  0  0  0  0  0  0
   -5.7960   17.6520  -31.8150 C   0  0  0  0  0  0  0  0  0  0  0  0
   -7.6800   20.2530  -32.3040 N   0  0  0  0  0  0  0  0  0  0  0  0
   -8.7480   19.4220  -31.7380 C   0  0  0  0  0  0  0  0  0  0  0  0
   -8.5193   22.3771  -30.4316 H   0  0  0  0  0  0  0  0  0  0  0  0
   -8.4780   23.5197  -31.8170 H   0  0  0  0  0  0  0  0  0  0  0  0
   -9.6398   22.1498  -31.8170 H   0  0  0  0  0  0  0  0  0  0  0  0
   -5.7440   23.9420  -33.3560 H   0  0  0  0  0  0  0  0  0  0  0  0
   -5.1035   23.8459  -28.1033 H   0  0  0  0  0  0  0  0  0  0  0  0
   -3.7459   22.2906  -26.7058 H   0  0  0  0  0  0  0  0  0  0  0  0
   -2.5002   20.1757  -30.2755 H   0  0  0  0  0  0  0  0  0  0  0  0
   -3.8625   21.7290  -31.6681 H   0  0  0  0  0  0  0  0  0  0  0  0
   -6.3555   18.4424  -35.1000 H   0  0  0  0  0  0  0  0  0  0  0  0
   -5.6464   16.0659  -35.3726 H   0  0  0  0  0  0  0  0  0  0  0  0
   -5.0391   14.7023  -33.3686 H   0  0  0  0  0  0  0  0  0  0  0  0
   -5.1238   15.7234  -31.0898 H   0  0  0  0  0  0  0  0  0  0  0  0
   -5.8299   18.0999  -30.8109 H   0  0  0  0  0  0  0  0  0  0  0  0
   -8.6991   19.4600  -30.6397 H   0  0  0  0  0  0  0  0  0  0  0  0
   -9.7244   19.8002  -32.0749 H   0  0  0  0  0  0  0  0  0  0  0  0
   -8.6213   18.3825  -32.0749 H   0  0  0  0  0  0  0  0  0  0  0  0
  1  2  1  0
  2  3  2  0
  3  4  1  0
  4  5  1  0
  5  6  2  0
  5  7  2  0
  5  8  1  0
  8  9  2  0
  9 10  1  0
 10 11  2  0
 11 12  1  0
 12 13  1  0
 12 14  1  0
 12 15  1  0
 11 16  1  0
 16 17  2  0
  3 18  1  0
 18 19  2  0
 18 20  1  0
 20 21  1  0
 21 22  2  0
 22 23  1  0
 23 24  2  0
 24 25  1  0
 25 26  2  0
 20 27  1  0
 27 28  1  0
 27  2  1  0
 17  8  1  0
 26 21  1  0
  1 29  1  0
  1 30  1  0
  1 31  1  0
  4 32  1  0
  9 33  1  0
 10 34  1  0
 16 35  1  0
 17 36  1  0
 22 37  1  0
 23 38  1  0
 24 39  1  0
 25 40  1  0
 26 41  1  0
 28 42  1  0
 28 43  1  0
 28 44  1  0
M  END
>  <UniqueID>  (6) 
6

>  <SMILES>  (6) 
Cc1c(NS(=O)(=O)c2ccc(C(F)(F)F)cc2)c(=O)n(-c2ccccc2)n1C

>  <Energy>  (6) 
90.61324983176478

>  <Genealogy>  (6) 
Cc1c(NS(=O)(=O)c2ccc(C(F)(F)F)cc2)c(=O)n(-c2ccccc2)n1C (3D coordinates assigned)
Cc1c(NS(=O)(=O)c2ccc(C(F)(F)F)cc2)c(=O)n(-c2ccccc2)n1C (optimized conformer: 90.61324983176478 kcal/mol)

>  <smiles>  (6) 
Cc1c(NS(=O)(=O)c2ccc(C(F)(F)F)cc2)c(=O)n(-c2ccccc2)n1C

>  <score_type>  (6) 
oracle

>  <origin>  (6) 
adgpu

>  <m_score__min__energy>  (6) 
-8.8800000000000008

>  <m_primary>  (6) 
energy

$$$$
6:0
     RDKit          3D

 57 60  0  0  0  0  0  0  0  0999 V2000
   -0.0600   18.1190  -31.5250 C   0  0  0  0  0  0  0  0  0  0  0  0
   -0.9480   19.1640  -31.9090 O   0  0  0  0  0  0  0  0  0  0  0  0
   -1.2200   20.3050  -31.1360 C   0  0  0  0  0  0  0  0  0  0  0  0
   -0.4920   20.5950  -29.9660 C   0  0  0  0  0  0  0  0  0  0  0  0
   -0.7810   21.7380  -29.2160 C   0  0  0  0  0  0  0  0  0  0  0  0
   -1.7870   22.6200  -29.6290 C   0  0  0  0  0  0  0  0  0  0  0  0
   -2.1810   24.0440  -28.6660 S   0  0  0  0  0  0  0  0  0  0  0  0
   -1.4920   23.9490  -27.3320 O   0  0  0  0  0  0  0  0  0  0  0  0
   -1.6960   25.2930  -29.3480 O   0  0  0  0  0  0  0  0  0  0  0  0
   -3.8940   24.1060  -28.3970 N   0  0  0  0  0  0  0  0  0  0  0  0
   -4.9110   23.9130  -29.3910 C   0  0  0  0  0  0  0  0  0  0  0  0
   -5.9270   22.9570  -29.2300 C   0  0  0  0  0  0  0  0  0  0  0  0
   -6.9380   22.8060  -30.1910 C   0  0  0  0  0  0  0  0  0  0  0  0
   -6.9070   23.5990  -31.3610 C   0  0  0  0  0  0  0  0  0  0  0  0
   -5.8750   24.5330  -31.5330 C   0  0  0  0  0  0  0  0  0  0  0  0
   -4.8790   24.6880  -30.5660 C   0  0  0  0  0  0  0  0  0  0  0  0
   -3.8750   25.6330  -30.7840 O   0  0  0  0  0  0  0  0  0  0  0  0
   -8.0100   23.5290  -32.3930 C   0  0  0  0  0  0  0  0  0  0  0  0
   -8.8100   22.2250  -32.3150 C   0  0  0  0  0  0  0  0  0  0  0  0
   -9.2140   21.9290  -30.8690 C   0  0  0  0  0  0  0  0  0  0  0  0
   -7.9720   21.7200  -29.9990 C   0  0  0  0  0  0  0  0  0  0  0  0
   -2.5080   22.3420  -30.7970 C   0  0  0  0  0  0  0  0  0  0  0  0
   -2.2440   21.1850  -31.5440 C   0  0  0  0  0  0  0  0  0  0  0  0
   -3.2180   20.8630  -32.9900 S   0  0  0  0  0  0  0  0  0  0  0  0
   -2.3140   20.3730  -34.0870 O   0  0  0  0  0  0  0  0  0  0  0  0
   -3.8630   22.1370  -33.4630 O   0  0  0  0  0  0  0  0  0  0  0  0
   -4.4530   19.6650  -32.6880 N   0  0  0  0  0  0  0  0  0  0  0  0
   -4.7910   18.9490  -33.9270 C   0  0  0  0  0  0  0  0  0  0  0  0
   -5.9060   17.9340  -33.6390 C   0  0  0  0  0  0  0  0  0  0  0  0
   -7.0570   18.5860  -33.1310 O   0  0  0  0  0  0  0  0  0  0  0  0
   -6.7430   19.2420  -31.9160 C   0  0  0  0  0  0  0  0  0  0  0  0
   -5.6570   20.3060  -32.1340 C   0  0  0  0  0  0  0  0  0  0  0  0
   -0.0124   18.0630  -30.4275 H   0  0  0  0  0  0  0  0  0  0  0  0
   -0.4252   17.1618  -31.9255 H   0  0  0  0  0  0  0  0  0  0  0  0
    0.9436   18.3250  -31.9255 H   0  0  0  0  0  0  0  0  0  0  0  0
    0.3102   19.9166  -29.6400 H   0  0  0  0  0  0  0  0  0  0  0  0
   -0.2150   21.9461  -28.2960 H   0  0  0  0  0  0  0  0  0  0  0  0
   -5.9302   22.3162  -28.3359 H   0  0  0  0  0  0  0  0  0  0  0  0
   -5.8496   25.1520  -32.4419 H   0  0  0  0  0  0  0  0  0  0  0  0
   -3.0270   25.6690  -30.2320 H   0  0  0  0  0  0  0  0  0  0  0  0
   -8.6965   24.3733  -32.2323 H   0  0  0  0  0  0  0  0  0  0  0  0
   -7.5392   23.5713  -33.3862 H   0  0  0  0  0  0  0  0  0  0  0  0
   -9.7159   22.3188  -32.9319 H   0  0  0  0  0  0  0  0  0  0  0  0
   -8.1827   21.4005  -32.6847 H   0  0  0  0  0  0  0  0  0  0  0  0
   -9.7944   22.7760  -30.4744 H   0  0  0  0  0  0  0  0  0  0  0  0
   -9.8214   21.0121  -30.8492 H   0  0  0  0  0  0  0  0  0  0  0  0
   -8.2795   21.7091  -28.9429 H   0  0  0  0  0  0  0  0  0  0  0  0
   -7.5127   20.7662  -30.2978 H   0  0  0  0  0  0  0  0  0  0  0  0
   -3.2902   23.0391  -31.1322 H   0  0  0  0  0  0  0  0  0  0  0  0
   -5.1357   19.6682  -34.6846 H   0  0  0  0  0  0  0  0  0  0  0  0
   -3.9013   18.4221  -34.3022 H   0  0  0  0  0  0  0  0  0  0  0  0
   -6.1685   17.4116  -34.5708 H   0  0  0  0  0  0  0  0  0  0  0  0
   -5.5455   17.2159  -32.8878 H   0  0  0  0  0  0  0  0  0  0  0  0
   -7.6490   19.7269  -31.5236 H   0  0  0  0  0  0  0  0  0  0  0  0
   -6.3666   18.4962  -31.2003 H   0  0  0  0  0  0  0  0  0  0  0  0
   -6.0246   21.0677  -32.8374 H   0  0  0  0  0  0  0  0  0  0  0  0
   -5.4116   20.7845  -31.1744 H   0  0  0  0  0  0  0  0  0  0  0  0
  1  2  1  0
  2  3  1  0
  3  4  2  0
  4  5  1  0
  5  6  2  0
  6  7  1  0
  7  8  2  0
  7  9  2  0
  7 10  1  0
 10 11  1  0
 11 12  2  0
 12 13  1  0
 13 14  2  0
 14 15  1  0
 15 16  2  0
 16 17  1  0
 14 18  1  0
 18 19  1  0
 19 20  1  0
 20 21  1  0
  6 22  1  0
 22 23  2  0
 23 24  1  0
 24 25  2  0
 24 26  2  0
 24 27  1  0
 27 28  1  0
 28 29  1  0
 29 30  1  0
 30 31  1  0
 31 32  1  0
 23  3  1  0
 32 27  1  0
 16 11  1  0
 21 13  1  0
  1 33  1  0
  1 34  1  0
  1 35  1  0
  4 36  1  0
  5 37  1  0
 12 38  1  0
 15 39  1  0
 17 40  1  0
 18 41  1  0
 18 42  1  0
 19 43  1  0
 19 44  1  0
 20 45  1  0
 20 46  1  0
 21 47  1  0
 21 48  1  0
 22 49  1  0
 28 50  1  0
 28 51  1  0
 29 52  1  0
 29 53  1  0
 31 54  1  0
 31 55  1  0
 32 56  1  0
 32 57  1  0
M  CHG  1  10  -1
M  END
>  <UniqueID>  (7) 
7

>  <SMILES>  (7) 
COc1ccc(S(=O)(=O)[N-]c2cc3c(cc2O)CCCC3)cc1S(=O)(=O)N1CCOCC1

>  <Energy>  (7) 
62.91223137604964

>  <Genealogy>  (7) 
COc1ccc(S(=O)(=O)[N-]c2cc3c(cc2O)CCCC3)cc1S(=O)(=O)N1CCOCC1 (protonated)
COc1ccc(S(=O)(=O)[N-]c2cc3c(cc2O)CCCC3)cc1S(=O)(=O)N1CCOCC1 (3D coordinates assigned)
COc1ccc(S(=O)(=O)[N-]c2cc3c(cc2O)CCCC3)cc1S(=O)(=O)N1CCOCC1 (nonaromatic ring conformer: 62.91223137604964 kcal/mol)

>  <smiles>  (7) 
COc1ccc(S(=O)(=O)Nc2cc3c(cc2O)CCCC3)cc1S(=O)(=O)N1CCOCC1

>  <score_type>  (7) 
oracle

>  <origin>  (7) 
adgpu

>  <m_score__min__energy>  (7) 
-12.4

>  <m_primary>  (7) 
energy

$$$$
7:0
     RDKit          3D

 54 57  0  0  0  0  0  0  0  0999 V2000
   -1.9690   16.6330  -35.1210 C   0  0  0  0  0  0  0  0  0  0  0  0
   -1.4250   17.9440  -35.0130 O   0  0  0  0  0  0  0  0  0  0  0  0
   -1.5170   18.7480  -33.8670 C   0  0  0  0  0  0  0  0  0  0  0  0
   -2.2380   19.9430  -33.9490 C   0  0  0  0  0  0  0  0  0  0  0  0
   -2.3620   20.7780  -32.8340 C   0  0  0  0  0  0  0  0  0  0  0  0
   -1.7630   20.4280  -31.6110 C   0  0  0  0  0  0  0  0  0  0  0  0
   -1.8890   21.3020  -30.4220 C   0  0  0  0  0  0  0  0  0  0  0  0
   -2.4000   22.5530  -30.4660 N   0  0  0  0  0  0  0  0  0  0  0  0
   -2.4020   23.1550  -29.2450 C   0  0  0  0  0  0  0  0  0  0  0  0
   -2.9160   24.5500  -29.0540 C   0  0  0  0  0  0  0  0  0  0  0  0
   -3.4830   25.0770  -30.2970 N   0  0  0  0  0  0  0  0  0  0  0  0
   -5.2240   25.0130  -30.2830 S   0  0  0  0  0  0  0  0  0  0  0  0
   -5.7580   26.0540  -31.2250 O   0  0  0  0  0  0  0  0  0  0  0  0
   -5.7280   25.3240  -28.9010 O   0  0  0  0  0  0  0  0  0  0  0  0
   -5.8050   23.4310  -30.8000 C   0  0  0  0  0  0  0  0  0  0  0  0
   -5.0860   22.6780  -31.7390 C   0  0  0  0  0  0  0  0  0  0  0  0
   -5.5680   21.4340  -32.1580 C   0  0  0  0  0  0  0  0  0  0  0  0
   -6.7720   20.9350  -31.6450 C   0  0  0  0  0  0  0  0  0  0  0  0
   -7.3530   19.3560  -32.1690 S   0  0  0  0  0  0  0  0  0  0  0  0
   -8.2970   18.7870  -31.1450 O   0  0  0  0  0  0  0  0  0  0  0  0
   -8.0950   19.5280  -33.4640 O   0  0  0  0  0  0  0  0  0  0  0  0
   -5.9930   18.2790  -32.4030 N   0  0  0  0  0  0  0  0  0  0  0  0
   -6.4570   16.9180  -32.6980 C   0  0  0  0  0  0  0  0  0  0  0  0
   -6.5290   16.7590  -34.2090 C   0  0  0  0  0  0  0  0  0  0  0  0
   -5.7120   17.9030  -34.7780 C   0  0  0  0  0  0  0  0  0  0  0  0
   -5.2110   18.6880  -33.5750 C   0  0  0  0  0  0  0  0  0  0  0  0
   -7.4910   21.6880  -30.7050 C   0  0  0  0  0  0  0  0  0  0  0  0
   -7.0090   22.9330  -30.2880 C   0  0  0  0  0  0  0  0  0  0  0  0
   -1.8940   22.3830  -28.2040 C   0  0  0  0  0  0  0  0  0  0  0  0
   -1.4230   20.9050  -28.8500 S   0  0  0  0  0  0  0  0  0  0  0  0
   -1.0370   19.2270  -31.5300 C   0  0  0  0  0  0  0  0  0  0  0  0
   -0.9130   18.3940  -32.6460 C   0  0  0  0  0  0  0  0  0  0  0  0
   -2.1393   16.2226  -34.1147 H   0  0  0  0  0  0  0  0  0  0  0  0
   -2.9236   16.6759  -35.6659 H   0  0  0  0  0  0  0  0  0  0  0  0
   -1.2645   15.9874  -35.6659 H   0  0  0  0  0  0  0  0  0  0  0  0
   -2.7122   20.2291  -34.8994 H   0  0  0  0  0  0  0  0  0  0  0  0
   -2.9322   21.7152  -32.9143 H   0  0  0  0  0  0  0  0  0  0  0  0
   -3.6957   24.5426  -28.2781 H   0  0  0  0  0  0  0  0  0  0  0  0
   -2.0766   25.1936  -28.7521 H   0  0  0  0  0  0  0  0  0  0  0  0
   -4.1411   23.0664  -32.1468 H   0  0  0  0  0  0  0  0  0  0  0  0
   -4.9996   20.8453  -32.8931 H   0  0  0  0  0  0  0  0  0  0  0  0
   -5.7517   16.1849  -32.2794 H   0  0  0  0  0  0  0  0  0  0  0  0
   -7.4471   16.7480  -32.2499 H   0  0  0  0  0  0  0  0  0  0  0  0
   -6.1015   15.7926  -34.5144 H   0  0  0  0  0  0  0  0  0  0  0  0
   -7.5672   16.7800  -34.5718 H   0  0  0  0  0  0  0  0  0  0  0  0
   -4.8650   17.5157  -35.3632 H   0  0  0  0  0  0  0  0  0  0  0  0
   -6.3096   18.5324  -35.4538 H   0  0  0  0  0  0  0  0  0  0  0  0
   -4.1459   18.4712  -33.4062 H   0  0  0  0  0  0  0  0  0  0  0  0
   -5.3263   19.7677  -33.7509 H   0  0  0  0  0  0  0  0  0  0  0  0
   -8.4349   21.2990  -30.2954 H   0  0  0  0  0  0  0  0  0  0  0  0
   -7.5783   23.5232  -29.5548 H   0  0  0  0  0  0  0  0  0  0  0  0
   -1.8152   22.6857  -27.1494 H   0  0  0  0  0  0  0  0  0  0  0  0
   -0.5622   18.9400  -30.5801 H   0  0  0  0  0  0  0  0  0  0  0  0
   -0.3408   17.4577  -32.5694 H   0  0  0  0  0  0  0  0  0  0  0  0
  1  2  1  0
  2  3  1  0
  3  4  2  0
  4  5  1  0
  5  6  2  0
  6  7  1  0
  7  8  2  0
  8  9  1  0
  9 10  1  0
 10 11  1  0
 11 12  1  0
 12 13  2  0
 12 14  2  0
 12 15  1  0
 15 16  2  0
 16 17  1  0
 17 18  2  0
 18 19  1  0
 19 20  2  0
 19 21  2  0
 19 22  1  0
 22 23  1  0
 23 24  1  0
 24 25  1  0
 25 26  1  0
 18 27  1  0
 27 28  2  0
  9 29  2  0
 29 30  1  0
  6 31  1  0
 31 32  2  0
 32  3  1  0
 30  7  1  0
 28 15  1  0
 26 22  1  0
  1 33  1  0
  1 34  1  0
  1 35  1  0
  4 36  1  0
  5 37  1  0
 10 38  1  0
 10 39  1  0
 16 40  1  0
 17 41  1  0
 23 42  1  0
 23 43  1  0
 24 44  1  0
 24 45  1  0
 25 46  1  0
 25 47  1  0
 26 48  1  0
 26 49  1  0
 27 50  1  0
 28 51  1  0
 29 52  1  0
 31 53  1  0
 32 54  1  0
M  CHG  1  11  -1
M  END
>  <UniqueID>  (8) 
8

>  <SMILES>  (8) 
COc1ccc(-c2nc(C[N-]S(=O)(=O)c3ccc(S(=O)(=O)N4CCCC4)cc3)cs2)cc1

>  <Energy>  (8) 
85.53547790760726

>  <Genealogy>  (8) 
COc1ccc(-c2nc(C[N-]S(=O)(=O)c3ccc(S(=O)(=O)N4CCCC4)cc3)cs2)cc1 (protonated)
COc1ccc(-c2nc(C[N-]S(=O)(=O)c3ccc(S(=O)(=O)N4CCCC4)cc3)cs2)cc1 (3D coordinates assigned)
COc1ccc(-c2nc(C[N-]S(=O)(=O)c3ccc(S(=O)(=O)N4CCCC4)cc3)cs2)cc1 (nonaromatic ring conformer: 85.53547790760726 kcal/mol)

>  <smiles>  (8) 
COc1ccc(-c2nc(CNS(=O)(=O)c3ccc(S(=O)(=O)N4CCCC4)cc3)cs2)cc1

>  <score_type>  (8) 
oracle

>  <origin>  (8) 
adgpu

>  <m_score__min__energy>  (8) 
-10.48

>  <m_primary>  (8) 
energy

$$$$
8:0
     RDKit          3D

 63 66  0  0  0  0  0  0  0  0999 V2000
   -0.8730   26.7680  -27.7640 C   0  0  0  0  0  0  0  0  0  0  0  0
   -1.6210   26.0200  -28.7160 O   0  0  0  0  0  0  0  0  0  0  0  0
   -1.4730   24.6420  -28.9450 C   0  0  0  0  0  0  0  0  0  0  0  0
   -0.2150   24.0130  -28.8750 C   0  0  0  0  0  0  0  0  0  0  0  0
   -0.0850   22.6540  -29.1630 C   0  0  0  0  0  0  0  0  0  0  0  0
   -1.2040   21.9020  -29.5380 C   0  0  0  0  0  0  0  0  0  0  0  0
   -1.0290   20.1880  -29.9240 S   0  0  0  0  0  0  0  0  0  0  0  0
    0.4330   19.8570  -30.0420 O   0  0  0  0  0  0  0  0  0  0  0  0
   -1.6020   19.3660  -28.8020 O   0  0  0  0  0  0  0  0  0  0  0  0
   -1.8360   19.7780  -31.4170 N   0  0  0  0  0  0  0  0  0  0  0  0
   -1.1790   18.6250  -32.0540 C   0  0  0  0  0  0  0  0  0  0  0  0
   -2.0310   18.1060  -33.2270 C   0  0  0  0  0  0  0  0  0  0  0  0
   -2.9570   19.1880  -33.8050 C   0  0  0  0  0  0  0  0  0  0  0  0
   -2.2910   20.5660  -33.7590 C   0  0  0  0  0  0  0  0  0  0  0  0
   -1.8540   20.9440  -32.3250 C   0  0  0  0  0  0  0  0  0  0  0  0
   -2.4600   22.5190  -29.6000 C   0  0  0  0  0  0  0  0  0  0  0  0
   -2.6080   23.8720  -29.2770 C   0  0  0  0  0  0  0  0  0  0  0  0
   -3.9240   24.4440  -29.3330 N   0  0  0  0  0  0  0  0  0  0  0  0
   -4.7200   24.6230  -30.5140 C   0  0  0  0  0  0  0  0  0  0  0  0
   -4.5400   25.6570  -31.2100 O   0  0  0  0  0  0  0  0  0  0  0  0
   -5.7020   23.6020  -30.9590 C   0  0  0  0  0  0  0  0  0  0  0  0
   -6.9600   23.5290  -30.3490 C   0  0  0  0  0  0  0  0  0  0  0  0
   -7.8890   22.5850  -30.7700 C   0  0  0  0  0  0  0  0  0  0  0  0
   -7.5570   21.7080  -31.8000 C   0  0  0  0  0  0  0  0  0  0  0  0
   -6.3290   21.7650  -32.4020 N   0  0  0  0  0  0  0  0  0  0  0  0
   -6.0180   20.7900  -33.4610 C   0  0  0  0  0  0  0  0  0  0  0  0
   -6.1220   19.3880  -32.9240 C   0  0  0  0  0  0  0  0  0  0  0  0
   -6.0400   19.1530  -31.5440 C   0  0  0  0  0  0  0  0  0  0  0  0
   -6.1010   17.8500  -31.0460 C   0  0  0  0  0  0  0  0  0  0  0  0
   -6.2300   16.7690  -31.9220 C   0  0  0  0  0  0  0  0  0  0  0  0
   -6.2930   16.9850  -33.3060 C   0  0  0  0  0  0  0  0  0  0  0  0
   -6.4470   15.8200  -34.2370 C   0  0  0  0  0  0  0  0  0  0  0  0
   -6.2470   18.2980  -33.8020 C   0  0  0  0  0  0  0  0  0  0  0  0
   -5.3970   22.6890  -31.9930 C   0  0  0  0  0  0  0  0  0  0  0  0
   -4.2660   22.7380  -32.5540 O   0  0  0  0  0  0  0  0  0  0  0  0
   -1.1708   26.4702  -26.7478 H   0  0  0  0  0  0  0  0  0  0  0  0
    0.2001   26.5709  -27.9042 H   0  0  0  0  0  0  0  0  0  0  0  0
   -1.0701   27.8411  -27.9042 H   0  0  0  0  0  0  0  0  0  0  0  0
    0.6723   24.5978  -28.5910 H   0  0  0  0  0  0  0  0  0  0  0  0
    0.9013   22.1717  -29.0950 H   0  0  0  0  0  0  0  0  0  0  0  0
   -0.1919   18.9319  -32.4302 H   0  0  0  0  0  0  0  0  0  0  0  0
   -1.0657   17.8219  -31.3109 H   0  0  0  0  0  0  0  0  0  0  0  0
   -1.3584   17.7549  -34.0235 H   0  0  0  0  0  0  0  0  0  0  0  0
   -2.6650   17.2921  -32.8455 H   0  0  0  0  0  0  0  0  0  0  0  0
   -3.1932   18.9379  -34.8498 H   0  0  0  0  0  0  0  0  0  0  0  0
   -3.8742   19.2230  -33.1988 H   0  0  0  0  0  0  0  0  0  0  0  0
   -1.4046   20.5551  -34.4103 H   0  0  0  0  0  0  0  0  0  0  0  0
   -3.0235   21.3118  -34.1013 H   0  0  0  0  0  0  0  0  0  0  0  0
   -0.8432   21.3759  -32.3658 H   0  0  0  0  0  0  0  0  0  0  0  0
   -2.5844   21.6657  -31.9305 H   0  0  0  0  0  0  0  0  0  0  0  0
   -3.3394   21.9333  -29.9060 H   0  0  0  0  0  0  0  0  0  0  0  0
   -7.2142   24.2217  -29.5331 H   0  0  0  0  0  0  0  0  0  0  0  0
   -8.8789   22.5308  -30.2935 H   0  0  0  0  0  0  0  0  0  0  0  0
   -8.2911   20.9600  -32.1339 H   0  0  0  0  0  0  0  0  0  0  0  0
   -6.7297   20.9151  -34.2904 H   0  0  0  0  0  0  0  0  0  0  0  0
   -4.9917   20.9625  -33.8173 H   0  0  0  0  0  0  0  0  0  0  0  0
   -5.9271   19.9993  -30.8504 H   0  0  0  0  0  0  0  0  0  0  0  0
   -6.0474   17.6740  -29.9615 H   0  0  0  0  0  0  0  0  0  0  0  0
   -6.2823   15.7447  -31.5244 H   0  0  0  0  0  0  0  0  0  0  0  0
   -6.5691   14.8966  -33.6518 H   0  0  0  0  0  0  0  0  0  0  0  0
   -7.3329   15.9720  -34.8711 H   0  0  0  0  0  0  0  0  0  0  0  0
   -5.5521   15.7366  -34.8711 H   0  0  0  0  0  0  0  0  0  0  0  0
   -6.3093   18.4745  -34.8860 H   0  0  0  0  0  0  0  0  0  0  0  0
  1  2  1  0
  2  3  1  0
  3  4  2  0
  4  5  1  0
  5  6  2  0
  6  7  1  0
  7  8  2  0
  7  9  2  0
  7 10  1  0
 10 11  1  0
 11 12  1  0
 12 13  1  0
 13 14  1  0
 14 15  1  0
  6 16  1  0
 16 17  2  0
 17 18  1  0
 18 19  1  0
 19 20  2  0
 19 21  1  0
 21 22  2  0
 22 23  1  0
 23 24  2  0
 24 25  1  0
 25 26  1  0
 26 27  1  0
 27 28  2  0
 28 29  1  0
 29 30  2  0
 30 31  1  0
 31 32  1  0
 31 33  2  0
 25 34  1  0
 34 35  2  0
 17  3  1  0
 34 21  1  0
 15 10  1  0
 33 27  1  0
  1 36  1  0
  1 37  1  0
  1 38  1  0
  4 39  1  0
  5 40  1  0
 11 41  1  0
 11 42  1  0
 12 43  1  0
 12 44  1  0
 13 45  1  0
 13 46  1  0
 14 47  1  0
 14 48  1  0
 15 49  1  0
 15 50  1  0
 16 51  1  0
 22 52  1  0
 23 53  1  0
 24 54  1  0
 26 55  1  0
 26 56  1  0
 28 57  1  0
 29 58  1  0
 30 59  1  0
 32 60  1  0
 32 61  1  0
 32 62  1  0
 33 63  1  0
M  CHG  1  18  -1
M  END
>  <UniqueID>  (9) 
9

>  <SMILES>  (9) 
COc1ccc(S(=O)(=O)N2CCCCC2)cc1[N-]C(=O)c1cccn(Cc2cccc(C)c2)c1=O

>  <Energy>  (9) 
77.39618033969815

>  <Genealogy>  (9) 
COc1ccc(S(=O)(=O)N2CCCCC2)cc1[N-]C(=O)c1cccn(Cc2cccc(C)c2)c1=O (protonated)
COc1ccc(S(=O)(=O)N2CCCCC2)cc1[N-]C(=O)c1cccn(Cc2cccc(C)c2)c1=O (3D coordinates assigned)
COc1ccc(S(=O)(=O)N2CCCCC2)cc1[N-]C(=O)c1cccn(Cc2cccc(C)c2)c1=O (nonaromatic ring conformer: 77.39618033969815 kcal/mol)

>  <smiles>  (9) 
COc1ccc(S(=O)(=O)N2CCCCC2)cc1NC(=O)c1cccn(Cc2cccc(C)c2)c1=O

>  <score_type>  (9) 
oracle

>  <origin>  (9) 
adgpu

>  <m_score__min__energy>  (9) 
-12.5

>  <m_primary>  (9) 
energy

$$$$
9:0
     RDKit          3D

 35 36  0  0  0  0  0  0  0  0999 V2000
   -1.9640   20.1600  -32.0690 N   0  0  0  0  0  0  0  0  0  0  0  0
   -2.7140   19.0130  -33.1210 S   0  0  0  0  0  0  0  0  0  0  0  0
   -2.2750   19.2710  -34.5360 O   0  0  0  0  0  0  0  0  0  0  0  0
   -2.2930   17.6240  -32.7320 O   0  0  0  0  0  0  0  0  0  0  0  0
   -4.4640   19.1610  -33.0020 C   0  0  0  0  0  0  0  0  0  0  0  0
   -5.1130   20.2740  -33.5520 C   0  0  0  0  0  0  0  0  0  0  0  0
   -6.5040   20.3890  -33.4660 C   0  0  0  0  0  0  0  0  0  0  0  0
   -7.2550   19.4020  -32.8160 C   0  0  0  0  0  0  0  0  0  0  0  0
   -8.6800   19.5420  -32.7400 N   0  0  0  0  0  0  0  0  0  0  0  0
   -9.3330   20.2690  -31.8780 C   0  0  0  0  0  0  0  0  0  0  0  0
   -8.6740   21.1820  -30.8740 C   0  0  0  0  0  0  0  0  0  0  0  0
   -8.3740   22.5400  -31.4560 C   0  0  0  0  0  0  0  0  0  0  0  0
   -9.2440   23.0760  -32.1950 O   0  0  0  0  0  0  0  0  0  0  0  0
   -7.1070   23.2670  -31.1780 C   0  0  0  0  0  0  0  0  0  0  0  0
   -7.1050   24.5140  -30.5250 C   0  0  0  0  0  0  0  0  0  0  0  0
   -5.9040   25.1850  -30.2800 C   0  0  0  0  0  0  0  0  0  0  0  0
   -4.6900   24.6230  -30.6820 C   0  0  0  0  0  0  0  0  0  0  0  0
   -3.5010   25.2990  -30.4360 O   0  0  0  0  0  0  0  0  0  0  0  0
   -4.6730   23.3820  -31.3290 C   0  0  0  0  0  0  0  0  0  0  0  0
   -3.4590   22.8280  -31.7290 O   0  0  0  0  0  0  0  0  0  0  0  0
   -5.8780   22.7070  -31.5730 C   0  0  0  0  0  0  0  0  0  0  0  0
   -6.6080   18.2700  -32.2970 C   0  0  0  0  0  0  0  0  0  0  0  0
   -5.2180   18.1530  -32.3860 C   0  0  0  0  0  0  0  0  0  0  0  0
   -2.3210   21.1030  -32.3420 H   0  0  0  0  0  0  0  0  0  0  0  0
   -4.5272   21.0591  -34.0525 H   0  0  0  0  0  0  0  0  0  0  0  0
   -7.0103   21.2584  -33.9108 H   0  0  0  0  0  0  0  0  0  0  0  0
  -10.4316   20.2136  -31.8827 H   0  0  0  0  0  0  0  0  0  0  0  0
   -9.3461   21.3058  -30.0120 H   0  0  0  0  0  0  0  0  0  0  0  0
   -7.7205   20.7236  -30.5730 H   0  0  0  0  0  0  0  0  0  0  0  0
   -8.0564   24.9639  -30.2050 H   0  0  0  0  0  0  0  0  0  0  0  0
   -5.9146   26.1590  -29.7689 H   0  0  0  0  0  0  0  0  0  0  0  0
   -3.3190   21.8250  -31.7600 H   0  0  0  0  0  0  0  0  0  0  0  0
   -5.8622   21.7300  -32.0782 H   0  0  0  0  0  0  0  0  0  0  0  0
   -7.1962   17.4728  -31.8190 H   0  0  0  0  0  0  0  0  0  0  0  0
   -4.7145   17.2672  -31.9714 H   0  0  0  0  0  0  0  0  0  0  0  0
  1  2  1  0
  2  3  2  0
  2  4  2  0
  2  5  1  0
  5  6  2  0
  6  7  1  0
  7  8  2  0
  8  9  1  0
  9 10  2  3
 10 11  1  0
 11 12  1  0
 12 13  2  0
 12 14  1  0
 14 15  2  0
 15 16  1  0
 16 17  2  0
 17 18  1  0
 17 19  1  0
 19 20  1  0
 19 21  2  0
  8 22  1  0
 22 23  2  0
 23  5  1  0
 21 14  1  0
  1 24  1  0
  6 25  1  0
  7 26  1  0
 10 27  1  0
 11 28  1  0
 11 29  1  0
 15 30  1  0
 16 31  1  0
 20 32  1  0
 21 33  1  0
 22 34  1  0
 23 35  1  0
M  CHG  2   1  -1  18  -1
M  END
>  <UniqueID>  (10) 
10

>  <SMILES>  (10) 
[NH-]S(=O)(=O)c1ccc(N=CCC(=O)c2ccc([O-])c(O)c2)cc1

>  <Energy>  (10) 
42.39434706642099

>  <Genealogy>  (10) 
[NH-]S(=O)(=O)c1ccc(N=CCC(=O)c2ccc([O-])c(O)c2)cc1 (protonated)
[NH-]S(=O)(=O)c1ccc(N=CCC(=O)c2ccc([O-])c(O)c2)cc1 (3D coordinates assigned)
[NH-]S(=O)(=O)c1ccc(N=CCC(=O)c2ccc([O-])c(O)c2)cc1 (optimized conformer: 42.39434706642099 kcal/mol)

>  <smiles>  (10) 
NS(=O)(=O)c1ccc(N=CCC(=O)c2ccc(O)c(O)c2)cc1

>  <score_type>  (10) 
oracle

>  <origin>  (10) 
adgpu

>  <m_score__min__energy>  (10) 
-10.640000000000001

>  <m_primary>  (10) 
energy

$$$$
10:0
     RDKit          3D

 65 67  0  0  0  0  0  0  0  0999 V2000
   -5.6010   22.8670  -32.3190 C   0  0  0  0  0  0  0  0  0  0  0  0
   -4.2370   22.2980  -32.7020 C   0  0  0  0  0  0  0  0  0  0  0  0
   -3.9130   21.0120  -31.9340 C   0  0  0  0  0  0  0  0  0  0  0  0
   -4.2180   19.8140  -32.7320 N   0  0  0  0  0  0  0  0  0  0  0  0
   -5.4980   19.1610  -32.6330 C   0  0  0  0  0  0  0  0  0  0  0  0
   -6.6920   19.9010  -32.7220 C   0  0  0  0  0  0  0  0  0  0  0  0
   -7.9300   19.2540  -32.6430 C   0  0  0  0  0  0  0  0  0  0  0  0
   -7.9890   17.8720  -32.4690 C   0  0  0  0  0  0  0  0  0  0  0  0
   -6.8100   17.1260  -32.3840 C   0  0  0  0  0  0  0  0  0  0  0  0
   -5.5690   17.7670  -32.4600 C   0  0  0  0  0  0  0  0  0  0  0  0
   -3.0040   19.1680  -33.8000 S   0  0  0  0  0  0  0  0  0  0  0  0
   -3.6280   18.1970  -34.7650 O   0  0  0  0  0  0  0  0  0  0  0  0
   -2.3740   20.2900  -34.5800 O   0  0  0  0  0  0  0  0  0  0  0  0
   -1.7860   18.3110  -32.8610 C   0  0  0  0  0  0  0  0  0  0  0  0
   -1.7500   16.9120  -32.8840 C   0  0  0  0  0  0  0  0  0  0  0  0
   -0.8240   16.2200  -32.0990 C   0  0  0  0  0  0  0  0  0  0  0  0
    0.0800   16.9210  -31.2860 C   0  0  0  0  0  0  0  0  0  0  0  0
    0.9760   16.2220  -30.4780 O   0  0  0  0  0  0  0  0  0  0  0  0
    0.0670   18.3320  -31.2810 C   0  0  0  0  0  0  0  0  0  0  0  0
    0.9740   19.1120  -30.4130 C   0  0  0  0  0  0  0  0  0  0  0  0
    0.5890   20.0710  -29.5550 C   0  0  0  0  0  0  0  0  0  0  0  0
   -0.8210   20.4060  -29.2240 C   0  0  0  0  0  0  0  0  0  0  0  0
   -1.5690   20.8760  -30.1230 O   0  0  0  0  0  0  0  0  0  0  0  0
   -1.3620   20.2010  -27.8980 N   0  0  0  0  0  0  0  0  0  0  0  0
   -1.2890   18.8560  -27.3190 C   0  0  0  0  0  0  0  0  0  0  0  0
   -1.8900   21.3110  -27.0890 C   0  0  0  0  0  0  0  0  0  0  0  0
   -2.4970   22.3610  -27.9800 C   0  0  0  0  0  0  0  0  0  0  0  0
   -3.7550   22.1720  -28.5640 C   0  0  0  0  0  0  0  0  0  0  0  0
   -4.2930   23.1390  -29.4150 C   0  0  0  0  0  0  0  0  0  0  0  0
   -3.5890   24.3270  -29.6810 C   0  0  0  0  0  0  0  0  0  0  0  0
   -4.1010   25.3330  -30.5160 O   0  0  0  0  0  0  0  0  0  0  0  0
   -5.4790   25.6860  -30.5960 C   0  0  0  0  0  0  0  0  0  0  0  0
   -2.3320   24.5170  -29.0940 C   0  0  0  0  0  0  0  0  0  0  0  0
   -1.6200   25.6860  -29.3370 O   0  0  0  0  0  0  0  0  0  0  0  0
   -1.7870   23.5380  -28.2580 C   0  0  0  0  0  0  0  0  0  0  0  0
   -0.8850   19.0170  -32.0510 C   0  0  0  0  0  0  0  0  0  0  0  0
   -5.6885   22.9035  -31.2231 H   0  0  0  0  0  0  0  0  0  0  0  0
   -5.7029   23.8826  -32.7290 H   0  0  0  0  0  0  0  0  0  0  0  0
   -6.3944   22.2248  -32.7290 H   0  0  0  0  0  0  0  0  0  0  0  0
   -4.2344   22.0778  -33.7797 H   0  0  0  0  0  0  0  0  0  0  0  0
   -3.4733   23.0471  -32.4460 H   0  0  0  0  0  0  0  0  0  0  0  0
   -2.8430   21.0083  -31.6790 H   0  0  0  0  0  0  0  0  0  0  0  0
   -4.5330   20.9878  -31.0257 H   0  0  0  0  0  0  0  0  0  0  0  0
   -6.6516   20.9923  -32.8542 H   0  0  0  0  0  0  0  0  0  0  0  0
   -8.8595   19.8374  -32.7184 H   0  0  0  0  0  0  0  0  0  0  0  0
   -8.9643   17.3682  -32.3985 H   0  0  0  0  0  0  0  0  0  0  0  0
   -6.8581   16.0344  -32.2573 H   0  0  0  0  0  0  0  0  0  0  0  0
   -4.6434   17.1775  -32.3840 H   0  0  0  0  0  0  0  0  0  0  0  0
   -2.4526   16.3557  -33.5218 H   0  0  0  0  0  0  0  0  0  0  0  0
   -0.8035   15.1204  -32.1184 H   0  0  0  0  0  0  0  0  0  0  0  0
    0.9000   15.2210  -30.3420 H   0  0  0  0  0  0  0  0  0  0  0  0
    2.0495   18.8895  -30.4745 H   0  0  0  0  0  0  0  0  0  0  0  0
    1.3787   20.6540  -29.0585 H   0  0  0  0  0  0  0  0  0  0  0  0
   -1.2929   18.9286  -26.2214 H   0  0  0  0  0  0  0  0  0  0  0  0
   -2.1565   18.2665  -27.6506 H   0  0  0  0  0  0  0  0  0  0  0  0
   -0.3628   18.3638  -27.6506 H   0  0  0  0  0  0  0  0  0  0  0  0
   -2.6598   20.9269  -26.4036 H   0  0  0  0  0  0  0  0  0  0  0  0
   -1.0662   21.7601  -26.5149 H   0  0  0  0  0  0  0  0  0  0  0  0
   -4.3238   21.2549  -28.3508 H   0  0  0  0  0  0  0  0  0  0  0  0
   -5.2750   22.9705  -29.8810 H   0  0  0  0  0  0  0  0  0  0  0  0
   -5.8900   25.7913  -29.5811 H   0  0  0  0  0  0  0  0  0  0  0  0
   -5.5826   26.6397  -31.1343 H   0  0  0  0  0  0  0  0  0  0  0  0
   -6.0283   24.8996  -31.1343 H   0  0  0  0  0  0  0  0  0  0  0  0
   -0.7924   23.6923  -27.8143 H   0  0  0  0  0  0  0  0  0  0  0  0
   -0.9249   20.1158  -32.0191 H   0  0  0  0  0  0  0  0  0  0  0  0
  1  2  1  0
  2  3  1  0
  3  4  1  0
  4  5  1  0
  5  6  2  0
  6  7  1  0
  7  8  2  0
  8  9  1  0
  9 10  2  0
  4 11  1  0
 11 12  2  0
 11 13  2  0
 11 14  1  0
 14 15  2  0
 15 16  1  0
 16 17  2  0
 17 18  1  0
 17 19  1  0
 19 20  1  0
 20 21  2  3
 21 22  1  0
 22 23  2  0
 22 24  1  0
 24 25  1  0
 24 26  1  0
 26 27  1  0
 27 28  2  0
 28 29  1  0
 29 30  2  0
 30 31  1  0
 31 32  1  0
 30 33  1  0
 33 34  1  0
 33 35  2  0
 19 36  2  0
 10  5  1  0
 36 14  1  0
 35 27  1  0
  1 37  1  0
  1 38  1  0
  1 39  1  0
  2 40  1  0
  2 41  1  0
  3 42  1  0
  3 43  1  0
  6 44  1  0
  7 45  1  0
  8 46  1  0
  9 47  1  0
 10 48  1  0
 15 49  1  0
 16 50  1  0
 18 51  1  0
 20 52  1  0
 21 53  1  0
 25 54  1  0
 25 55  1  0
 25 56  1  0
 26 57  1  0
 26 58  1  0
 28 59  1  0
 29 60  1  0
 32 61  1  0
 32 62  1  0
 32 63  1  0
 35 64  1  0
 36 65  1  0
M  CHG  1  34  -1
M  END
>  <UniqueID>  (11) 
11

>  <SMILES>  (11) 
CCCN(c1ccccc1)S(=O)(=O)c1ccc(O)c(C=CC(=O)N(C)Cc2ccc(OC)c([O-])c2)c1

>  <Energy>  (11) 
74.3603759069623

>  <Genealogy>  (11) 
CCCN(c1ccccc1)S(=O)(=O)c1ccc(O)c(C=CC(=O)N(C)Cc2ccc(OC)c([O-])c2)c1 (protonated)
CCCN(c1ccccc1)S(=O)(=O)c1ccc(O)c(C=CC(=O)N(C)Cc2ccc(OC)c([O-])c2)c1 (3D coordinates assigned)
CCCN(c1ccccc1)S(=O)(=O)c1ccc(O)c(C=CC(=O)N(C)Cc2ccc(OC)c([O-])c2)c1 (optimized conformer: 74.3603759069623 kcal/mol)

>  <smiles>  (11) 
CCCN(c1ccccc1)S(=O)(=O)c1ccc(O)c(C=CC(=O)N(C)Cc2ccc(OC)c(O)c2)c1

>  <score_type>  (11) 
oracle

>  <origin>  (11) 
adgpu

>  <m_score__min__energy>  (11) 
-12.890000000000001

>  <m_primary>  (11) 
energy

$$$$
11:0
     RDKit          3D

 47 49  0  0  0  0  0  0  0  0999 V2000
   -4.9610   18.9480  -33.9420 C   0  0  0  0  0  0  0  0  0  0  0  0
   -6.0260   18.9100  -32.8380 C   0  0  1  0  0  0  0  0  0  0  0  0
   -5.5960   19.7580  -31.6110 C   0  0  0  0  0  0  0  0  0  0  0  0
   -6.4460   20.9420  -31.4700 N   0  0  0  0  0  0  0  0  0  0  0  0
   -5.8740   22.2480  -31.2400 C   0  0  0  0  0  0  0  0  0  0  0  0
   -6.6470   23.4060  -31.4210 C   0  0  0  0  0  0  0  0  0  0  0  0
   -6.1040   24.6640  -31.1570 C   0  0  0  0  0  0  0  0  0  0  0  0
   -4.7850   24.7820  -30.7120 C   0  0  0  0  0  0  0  0  0  0  0  0
   -4.2580   26.0420  -30.4610 O   0  0  0  0  0  0  0  0  0  0  0  0
   -3.9990   23.6380  -30.5210 C   0  0  0  0  0  0  0  0  0  0  0  0
   -2.6480   23.7940  -30.0600 N   0  0  0  0  0  0  0  0  0  0  0  0
   -2.0150   23.1420  -28.5800 S   0  0  0  0  0  0  0  0  0  0  0  0
   -0.8560   22.2320  -28.8910 O   0  0  0  0  0  0  0  0  0  0  0  0
   -3.0880   22.3320  -27.9090 O   0  0  0  0  0  0  0  0  0  0  0  0
   -1.5570   24.4710  -27.5030 C   0  0  0  0  0  0  0  0  0  0  0  0
   -1.5290   24.2210  -26.1220 C   0  0  0  0  0  0  0  0  0  0  0  0
   -1.1890   25.2380  -25.2240 C   0  0  0  0  0  0  0  0  0  0  0  0
   -0.8800   26.5220  -25.6990 C   0  0  0  0  0  0  0  0  0  0  0  0
   -0.5420   27.5110  -24.8220 F   0  0  0  0  0  0  0  0  0  0  0  0
   -0.9040   26.7880  -27.0740 C   0  0  0  0  0  0  0  0  0  0  0  0
   -0.5940   28.0750  -27.5220 O   0  0  0  0  0  0  0  0  0  0  0  0
   -1.2350   25.7590  -27.9830 C   0  0  0  0  0  0  0  0  0  0  0  0
   -1.2340   26.0270  -29.3500 O   0  0  0  0  0  0  0  0  0  0  0  0
   -4.5530   22.3730  -30.7820 C   0  0  0  0  0  0  0  0  0  0  0  0
   -7.8960   20.7550  -31.4190 C   0  0  0  0  0  0  0  0  0  0  0  0
   -8.3480   19.6060  -32.3520 C   0  0  2  0  0  0  0  0  0  0  0  0
   -8.7320   18.3360  -31.5780 C   0  0  0  0  0  0  0  0  0  0  0  0
   -7.3390   19.3220  -33.3890 N   0  0  0  0  0  0  0  0  0  0  0  0
   -3.9608   18.9837  -33.4855 H   0  0  0  0  0  0  0  0  0  0  0  0
   -5.0473   18.0462  -34.5659 H   0  0  0  0  0  0  0  0  0  0  0  0
   -5.1114   19.8414  -34.5659 H   0  0  0  0  0  0  0  0  0  0  0  0
   -6.1297   17.8777  -32.4724 H   0  0  0  0  0  0  0  0  0  0  0  0
   -5.6797   19.1443  -30.7020 H   0  0  0  0  0  0  0  0  0  0  0  0
   -4.5568   20.0871  -31.7582 H   0  0  0  0  0  0  0  0  0  0  0  0
   -7.6858   23.3211  -31.7727 H   0  0  0  0  0  0  0  0  0  0  0  0
   -6.7168   25.5662  -31.2998 H   0  0  0  0  0  0  0  0  0  0  0  0
   -1.7762   23.2182  -25.7434 H   0  0  0  0  0  0  0  0  0  0  0  0
   -1.1638   25.0312  -24.1439 H   0  0  0  0  0  0  0  0  0  0  0  0
   -0.9150   28.4260  -28.4190 H   0  0  0  0  0  0  0  0  0  0  0  0
   -3.9443   21.4703  -30.6255 H   0  0  0  0  0  0  0  0  0  0  0  0
   -8.1902   20.5150  -30.3866 H   0  0  0  0  0  0  0  0  0  0  0  0
   -8.3780   21.6850  -31.7549 H   0  0  0  0  0  0  0  0  0  0  0  0
   -9.2603   19.9538  -32.8587 H   0  0  0  0  0  0  0  0  0  0  0  0
   -8.6724   18.5331  -30.4974 H   0  0  0  0  0  0  0  0  0  0  0  0
   -9.7590   18.0427  -31.8411 H   0  0  0  0  0  0  0  0  0  0  0  0
   -8.0396   17.5228  -31.8411 H   0  0  0  0  0  0  0  0  0  0  0  0
   -7.2180   20.1940  -33.9630 H   0  0  0  0  0  0  0  0  0  0  0  0
  1  2  1  0
  2  3  1  0
  3  4  1  0
  4  5  1  0
  5  6  2  0
  6  7  1  0
  7  8  2  0
  8  9  1  0
  8 10  1  0
 10 11  1  0
 11 12  1  0
 12 13  2  0
 12 14  2  0
 12 15  1  0
 15 16  2  0
 16 17  1  0
 17 18  2  0
 18 19  1  0
 18 20  1  0
 20 21  1  0
 20 22  2  0
 22 23  1  0
 10 24  2  0
  4 25  1  0
 25 26  1  0
 26 27  1  0
 26 28  1  0
 28  2  1  0
 24  5  1  0
 22 15  1  0
  1 29  1  0
  1 30  1  0
  1 31  1  0
  2 32  1  1
  3 33  1  0
  3 34  1  0
  6 35  1  0
  7 36  1  0
 16 37  1  0
 17 38  1  0
 21 39  1  0
 24 40  1  0
 25 41  1  0
 25 42  1  0
 26 43  1  6
 27 44  1  0
 27 45  1  0
 27 46  1  0
 28 47  1  0
M  CHG  3   9  -1  11  -1  23  -1
M  END
>  <UniqueID>  (12) 
12

>  <SMILES>  (12) 
C[C@H]1CN(c2ccc([O-])c([N-]S(=O)(=O)c3ccc(F)c(O)c3[O-])c2)C[C@H](C)N1

>  <Energy>  (12) 
62.06454213937278

>  <Genealogy>  (12) 
CC1CN(c2ccc([O-])c([N-]S(=O)(=O)c3ccc(F)c(O)c3[O-])c2)CC(C)N1 (protonated)
C[C@H]1CN(c2ccc([O-])c([N-]S(=O)(=O)c3ccc(F)c(O)c3[O-])c2)C[C@H](C)N1 (chirality)
C[C@H]1CN(c2ccc([O-])c([N-]S(=O)(=O)c3ccc(F)c(O)c3[O-])c2)C[C@H](C)N1 (3D coordinates assigned)
C[C@H]1CN(c2ccc([O-])c([N-]S(=O)(=O)c3ccc(F)c(O)c3[O-])c2)C[C@H](C)N1 (nonaromatic ring conformer: 62.06454213937278 kcal/mol)

>  <smiles>  (12) 
CC1CN(c2ccc(O)c(NS(=O)(=O)c3ccc(F)c(O)c3O)c2)CC(C)N1

>  <score_type>  (12) 
oracle

>  <origin>  (12) 
adgpu

>  <m_score__min__energy>  (12) 
-15.039999999999999

>  <m_primary>  (12) 
energy

$$$$
12:0
     RDKit          3D

 46 48  0  0  0  0  0  0  0  0999 V2000
   -1.0140   22.1840  -26.1820 C   0  0  0  0  0  0  0  0  0  0  0  0
   -1.6510   22.9630  -27.3040 C   0  0  0  0  0  0  0  0  0  0  0  0
   -2.8400   22.4760  -27.8650 C   0  0  0  0  0  0  0  0  0  0  0  0
   -3.4720   23.1590  -28.9020 C   0  0  0  0  0  0  0  0  0  0  0  0
   -2.9180   24.3400  -29.4120 C   0  0  0  0  0  0  0  0  0  0  0  0
   -3.5700   25.0800  -30.4550 N   0  0  0  0  0  0  0  0  0  0  0  0
   -4.9700   25.0520  -30.7570 C   0  0  0  0  0  0  0  0  0  0  0  0
   -5.5240   26.1050  -31.1670 O   0  0  0  0  0  0  0  0  0  0  0  0
   -5.7230   23.8420  -30.6010 N   0  0  0  0  0  0  0  0  0  0  0  0
   -5.7460   22.7190  -31.4960 C   0  0  0  0  0  0  0  0  0  0  0  0
   -6.9380   22.0180  -31.7660 C   0  0  0  0  0  0  0  0  0  0  0  0
   -6.9380   20.9420  -32.6570 C   0  0  0  0  0  0  0  0  0  0  0  0
   -5.7590   20.5640  -33.3000 C   0  0  0  0  0  0  0  0  0  0  0  0
   -4.5770   21.2690  -33.0610 C   0  0  0  0  0  0  0  0  0  0  0  0
   -4.5640   22.3480  -32.1700 C   0  0  0  0  0  0  0  0  0  0  0  0
   -3.3660   23.0340  -31.9660 O   0  0  0  0  0  0  0  0  0  0  0  0
   -1.7390   24.8510  -28.8500 C   0  0  0  0  0  0  0  0  0  0  0  0
   -1.2370   26.0530  -29.3360 O   0  0  0  0  0  0  0  0  0  0  0  0
   -1.0760   24.1570  -27.8120 C   0  0  0  0  0  0  0  0  0  0  0  0
    0.4340   24.8050  -27.1220 S   0  0  0  0  0  0  0  0  0  0  0  0
    0.8580   26.0630  -27.8260 O   0  0  0  0  0  0  0  0  0  0  0  0
    1.5280   23.7880  -27.2950 O   0  0  0  0  0  0  0  0  0  0  0  0
    0.2080   25.1380  -25.4210 N   0  0  0  0  0  0  0  0  0  0  0  0
   -1.0640   25.8570  -25.2140 C   0  0  0  0  0  0  0  0  0  0  0  0
   -1.0540   26.5950  -23.8670 C   0  0  0  0  0  0  0  0  0  0  0  0
   -0.0150   27.5600  -23.7360 O   0  0  0  0  0  0  0  0  0  0  0  0
    1.0810   27.3420  -24.6110 C   0  0  0  0  0  0  0  0  0  0  0  0
    1.3750   25.8520  -24.8560 C   0  0  0  0  0  0  0  0  0  0  0  0
   -1.3478   22.5922  -25.2166 H   0  0  0  0  0  0  0  0  0  0  0  0
   -1.3099   21.1271  -26.2553 H   0  0  0  0  0  0  0  0  0  0  0  0
    0.0806   22.2642  -26.2553 H   0  0  0  0  0  0  0  0  0  0  0  0
   -3.2793   21.5432  -27.4817 H   0  0  0  0  0  0  0  0  0  0  0  0
   -4.4107   22.7688  -29.3222 H   0  0  0  0  0  0  0  0  0  0  0  0
   -7.8737   22.3196  -31.2725 H   0  0  0  0  0  0  0  0  0  0  0  0
   -7.8701   20.3914  -32.8521 H   0  0  0  0  0  0  0  0  0  0  0  0
   -5.7602   19.7112  -33.9948 H   0  0  0  0  0  0  0  0  0  0  0  0
   -3.6509   20.9743  -33.5762 H   0  0  0  0  0  0  0  0  0  0  0  0
   -3.3370   23.9920  -31.6390 H   0  0  0  0  0  0  0  0  0  0  0  0
   -1.2030   26.5868  -26.0252 H   0  0  0  0  0  0  0  0  0  0  0  0
   -1.8877   25.1280  -25.2132 H   0  0  0  0  0  0  0  0  0  0  0  0
   -2.0191   27.1094  -23.7487 H   0  0  0  0  0  0  0  0  0  0  0  0
   -0.8776   25.8345  -23.0921 H   0  0  0  0  0  0  0  0  0  0  0  0
    0.8566   27.8174  -25.5773 H   0  0  0  0  0  0  0  0  0  0  0  0
    1.9716   27.7762  -24.1332 H   0  0  0  0  0  0  0  0  0  0  0  0
    2.2165   25.7678  -25.5594 H   0  0  0  0  0  0  0  0  0  0  0  0
    1.6163   25.3913  -23.8867 H   0  0  0  0  0  0  0  0  0  0  0  0
  1  2  1  0
  2  3  2  0
  3  4  1  0
  4  5  2  0
  5  6  1  0
  6  7  1  0
  7  8  2  0
  7  9  1  0
  9 10  1  0
 10 11  2  0
 11 12  1  0
 12 13  2  0
 13 14  1  0
 14 15  2  0
 15 16  1  0
  5 17  1  0
 17 18  1  0
 17 19  2  0
 19 20  1  0
 20 21  2  0
 20 22  2  0
 20 23  1  0
 23 24  1  0
 24 25  1  0
 25 26  1  0
 26 27  1  0
 27 28  1  0
 19  2  1  0
 28 23  1  0
 15 10  1  0
  1 29  1  0
  1 30  1  0
  1 31  1  0
  3 32  1  0
  4 33  1  0
 11 34  1  0
 12 35  1  0
 13 36  1  0
 14 37  1  0
 16 38  1  0
 24 39  1  0
 24 40  1  0
 25 41  1  0
 25 42  1  0
 27 43  1  0
 27 44  1  0
 28 45  1  0
 28 46  1  0
M  CHG  3   6  -1   9  -1  18  -1
M  END
>  <UniqueID>  (13) 
13

>  <SMILES>  (13) 
Cc1ccc([N-]C(=O)[N-]c2ccccc2O)c([O-])c1S(=O)(=O)N1CCOCC1

>  <Energy>  (13) 
70.29706386140569

>  <Genealogy>  (13) 
Cc1ccc([N-]C(=O)[N-]c2ccccc2O)c([O-])c1S(=O)(=O)N1CCOCC1 (protonated)
Cc1ccc([N-]C(=O)[N-]c2ccccc2O)c([O-])c1S(=O)(=O)N1CCOCC1 (3D coordinates assigned)
Cc1ccc([N-]C(=O)[N-]c2ccccc2O)c([O-])c1S(=O)(=O)N1CCOCC1 (nonaromatic ring conformer: 70.29706386140569 kcal/mol)

>  <smiles>  (13) 
Cc1ccc(NC(=O)Nc2ccccc2O)c(O)c1S(=O)(=O)N1CCOCC1

>  <score_type>  (13) 
oracle

>  <origin>  (13) 
adgpu

>  <m_score__min__energy>  (13) 
-14.35

>  <m_primary>  (13) 
energy

$$$$
13:0
     RDKit          3D

 48 51  0  0  0  0  0  0  0  0999 V2000
   -8.1070   21.0380  -31.7090 O   0  0  0  0  0  0  0  0  0  0  0  0
   -6.8690   20.9630  -31.9430 C   0  0  0  0  0  0  0  0  0  0  0  0
   -6.0000   22.1060  -31.5710 C   0  0  0  0  0  0  0  0  0  0  0  0
   -6.5520   23.3540  -31.2250 C   0  0  0  0  0  0  0  0  0  0  0  0
   -5.7220   24.4190  -30.8610 C   0  0  0  0  0  0  0  0  0  0  0  0
   -4.3350   24.2470  -30.8260 C   0  0  0  0  0  0  0  0  0  0  0  0
   -3.5120   25.3070  -30.4640 O   0  0  0  0  0  0  0  0  0  0  0  0
   -3.7780   23.0080  -31.1520 C   0  0  0  0  0  0  0  0  0  0  0  0
   -4.6040   21.9410  -31.5170 C   0  0  0  0  0  0  0  0  0  0  0  0
   -6.3350   19.7360  -32.5810 C   0  0  0  0  0  0  0  0  0  0  0  0
   -5.9740   19.7250  -33.9380 C   0  0  0  0  0  0  0  0  0  0  0  0
   -5.4630   18.5660  -34.5280 C   0  0  0  0  0  0  0  0  0  0  0  0
   -5.2990   17.3940  -33.7670 C   0  0  0  0  0  0  0  0  0  0  0  0
   -4.8080   16.1990  -34.3200 O   0  0  0  0  0  0  0  0  0  0  0  0
   -3.5480   16.0510  -34.9770 C   0  0  0  0  0  0  0  0  0  0  0  0
   -2.4720   16.8260  -34.2620 C   0  0  0  0  0  0  0  0  0  0  0  0
   -2.0840   16.4690  -32.9630 C   0  0  0  0  0  0  0  0  0  0  0  0
   -1.0900   17.1910  -32.3000 C   0  0  0  0  0  0  0  0  0  0  0  0
   -0.4650   18.2720  -32.9280 C   0  0  0  0  0  0  0  0  0  0  0  0
    0.4940   19.0020  -32.2330 O   0  0  0  0  0  0  0  0  0  0  0  0
   -0.8230   18.6250  -34.2440 C   0  0  0  0  0  0  0  0  0  0  0  0
   -0.1790   19.7670  -34.9330 C   0  0  0  0  0  0  0  0  0  0  0  0
   -0.4920   21.0800  -34.5390 C   0  0  0  0  0  0  0  0  0  0  0  0
    0.1050   22.1710  -35.1760 C   0  0  0  0  0  0  0  0  0  0  0  0
    1.0160   21.9630  -36.2160 C   0  0  0  0  0  0  0  0  0  0  0  0
    1.6120   23.0480  -36.8460 O   0  0  0  0  0  0  0  0  0  0  0  0
    1.3260   20.6610  -36.6220 C   0  0  0  0  0  0  0  0  0  0  0  0
    0.7280   19.5640  -35.9920 C   0  0  0  0  0  0  0  0  0  0  0  0
    1.0260   18.2800  -36.4370 O   0  0  0  0  0  0  0  0  0  0  0  0
   -1.8270   17.8960  -34.9020 C   0  0  0  0  0  0  0  0  0  0  0  0
   -5.6340   17.4120  -32.4070 C   0  0  0  0  0  0  0  0  0  0  0  0
   -5.4690   16.2670  -31.6360 O   0  0  0  0  0  0  0  0  0  0  0  0
   -6.1440   18.5740  -31.8170 C   0  0  0  0  0  0  0  0  0  0  0  0
   -7.6432   23.4923  -31.2411 H   0  0  0  0  0  0  0  0  0  0  0  0
   -6.1611   25.3937  -30.6018 H   0  0  0  0  0  0  0  0  0  0  0  0
   -2.6869   22.8717  -31.1214 H   0  0  0  0  0  0  0  0  0  0  0  0
   -4.1593   20.9656  -31.7637 H   0  0  0  0  0  0  0  0  0  0  0  0
   -6.0945   20.6366  -34.5417 H   0  0  0  0  0  0  0  0  0  0  0  0
   -5.1875   18.5699  -35.5929 H   0  0  0  0  0  0  0  0  0  0  0  0
   -3.2737   14.9859  -34.9932 H   0  0  0  0  0  0  0  0  0  0  0  0
   -3.6390   16.4412  -36.0014 H   0  0  0  0  0  0  0  0  0  0  0  0
   -2.5654   15.6154  -32.4635 H   0  0  0  0  0  0  0  0  0  0  0  0
   -0.7972   16.9077  -31.2782 H   0  0  0  0  0  0  0  0  0  0  0  0
   -1.2113   21.2493  -33.7242 H   0  0  0  0  0  0  0  0  0  0  0  0
   -0.1421   23.1949  -34.8588 H   0  0  0  0  0  0  0  0  0  0  0  0
    2.0431   20.4987  -37.4402 H   0  0  0  0  0  0  0  0  0  0  0  0
   -2.1109   18.1663  -35.9298 H   0  0  0  0  0  0  0  0  0  0  0  0
   -6.3971   18.5768  -30.7465 H   0  0  0  0  0  0  0  0  0  0  0  0
  1  2  2  0
  2  3  1  0
  3  4  2  0
  4  5  1  0
  5  6  2  0
  6  7  1  0
  6  8  1  0
  8  9  2  0
  2 10  1  0
 10 11  2  0
 11 12  1  0
 12 13  2  0
 13 14  1  0
 14 15  1  0
 15 16  1  0
 16 17  2  0
 17 18  1  0
 18 19  2  0
 19 20  1  0
 19 21  1  0
 21 22  1  0
 22 23  2  0
 23 24  1  0
 24 25  2  0
 25 26  1  0
 25 27  1  0
 27 28  2  0
 28 29  1  0
 21 30  2  0
 13 31  1  0
 31 32  1  0
 31 33  2  0
  9  3  1  0
 33 10  1  0
 30 16  1  0
 28 22  1  0
  4 34  1  0
  5 35  1  0
  8 36  1  0
  9 37  1  0
 11 38  1  0
 12 39  1  0
 15 40  1  0
 15 41  1  0
 17 42  1  0
 18 43  1  0
 23 44  1  0
 24 45  1  0
 27 46  1  0
 30 47  1  0
 33 48  1  0
M  CHG  5   7  -1  20  -1  26  -1  29  -1  32  -1
M  END
>  <UniqueID>  (14) 
14

>  <SMILES>  (14) 
O=C(c1ccc([O-])cc1)c1ccc(OCc2ccc([O-])c(-c3ccc([O-])cc3[O-])c2)c([O-])c1

>  <Energy>  (14) 
67.21904969803781

>  <Genealogy>  (14) 
O=C(c1ccc([O-])cc1)c1ccc(OCc2ccc([O-])c(-c3ccc([O-])cc3[O-])c2)c([O-])c1 (protonated)
O=C(c1ccc([O-])cc1)c1ccc(OCc2ccc([O-])c(-c3ccc([O-])cc3[O-])c2)c([O-])c1 (3D coordinates assigned)
O=C(c1ccc([O-])cc1)c1ccc(OCc2ccc([O-])c(-c3ccc([O-])cc3[O-])c2)c([O-])c1 (optimized conformer: 67.21904969803781 kcal/mol)

>  <smiles>  (14) 
O=C(c1ccc(O)cc1)c1ccc(OCc2ccc(O)c(-c3ccc(O)cc3O)c2)c(O)c1

>  <score_type>  (14) 
oracle

>  <origin>  (14) 
adgpu

>  <m_score__min__energy>  (14) 
-12.99

>  <m_primary>  (14) 
energy

$$$$
14:0
     RDKit          3D

 36 38  0  0  0  0  0  0  0  0999 V2000
   -3.1300   20.6990  -31.2970 O   0  0  0  0  0  0  0  0  0  0  0  0
   -3.9740   20.3570  -32.1690 C   0  0  0  0  0  0  0  0  0  0  0  0
   -3.7460   19.1990  -32.9330 C   0  0  0  0  0  0  0  0  0  0  0  0
   -2.2380   18.2380  -32.7330 S   0  0  0  0  0  0  0  0  0  0  0  0
   -1.2510   19.2880  -33.8210 C   0  0  0  0  0  0  0  0  0  0  0  0
   -1.2410   20.6640  -33.5420 C   0  0  0  0  0  0  0  0  0  0  0  0
   -0.4820   21.5430  -34.3120 C   0  0  0  0  0  0  0  0  0  0  0  0
    0.2770   21.0590  -35.3750 C   0  0  0  0  0  0  0  0  0  0  0  0
    0.2610   19.6990  -35.6840 C   0  0  0  0  0  0  0  0  0  0  0  0
   -0.5260   18.7950  -34.9400 C   0  0  0  0  0  0  0  0  0  0  0  0
   -0.4920   17.3290  -35.3240 C   0  0  0  0  0  0  0  0  0  0  0  0
    0.1790   17.1270  -36.5150 F   0  0  0  0  0  0  0  0  0  0  0  0
    0.1580   16.5850  -34.3540 F   0  0  0  0  0  0  0  0  0  0  0  0
   -1.7860   16.8590  -35.4380 F   0  0  0  0  0  0  0  0  0  0  0  0
   -4.7340   18.7630  -33.8190 C   0  0  0  0  0  0  0  0  0  0  0  0
   -5.9010   19.5030  -33.9750 C   0  0  0  0  0  0  0  0  0  0  0  0
   -6.0790   20.6710  -33.2340 C   0  0  0  0  0  0  0  0  0  0  0  0
   -5.1240   21.0870  -32.3460 N   0  0  0  0  0  0  0  0  0  0  0  0
   -5.3510   22.2980  -31.5980 C   0  0  0  0  0  0  0  0  0  0  0  0
   -6.6150   22.5650  -31.0420 C   0  0  0  0  0  0  0  0  0  0  0  0
   -6.8310   23.7360  -30.3100 C   0  0  0  0  0  0  0  0  0  0  0  0
   -5.7890   24.6470  -30.1240 C   0  0  0  0  0  0  0  0  0  0  0  0
   -4.5270   24.3900  -30.6680 C   0  0  0  0  0  0  0  0  0  0  0  0
   -3.4910   25.2960  -30.4810 O   0  0  0  0  0  0  0  0  0  0  0  0
   -4.3070   23.2180  -31.4000 C   0  0  0  0  0  0  0  0  0  0  0  0
   -1.8397   21.0529  -32.7052 H   0  0  0  0  0  0  0  0  0  0  0  0
   -0.4822   22.6184  -34.0806 H   0  0  0  0  0  0  0  0  0  0  0  0
    0.8900   21.7505  -35.9717 H   0  0  0  0  0  0  0  0  0  0  0  0
    0.8709   19.3259  -36.5200 H   0  0  0  0  0  0  0  0  0  0  0  0
   -4.5891   17.8356  -34.3925 H   0  0  0  0  0  0  0  0  0  0  0  0
   -6.6784   19.1694  -34.6781 H   0  0  0  0  0  0  0  0  0  0  0  0
   -6.9962   21.2640  -33.3645 H   0  0  0  0  0  0  0  0  0  0  0  0
   -7.4377   21.8487  -31.1839 H   0  0  0  0  0  0  0  0  0  0  0  0
   -7.8227   23.9402  -29.8800 H   0  0  0  0  0  0  0  0  0  0  0  0
   -5.9615   25.5684  -29.5485 H   0  0  0  0  0  0  0  0  0  0  0  0
   -3.3118   23.0156  -31.8227 H   0  0  0  0  0  0  0  0  0  0  0  0
  1  2  2  0
  2  3  1  0
  3  4  1  0
  4  5  1  0
  5  6  2  0
  6  7  1  0
  7  8  2  0
  8  9  1  0
  9 10  2  0
 10 11  1  0
 11 12  1  0
 11 13  1  0
 11 14  1  0
  3 15  2  0
 15 16  1  0
 16 17  2  0
 17 18  1  0
 18 19  1  0
 19 20  2  0
 20 21  1  0
 21 22  2  0
 22 23  1  0
 23 24  1  0
 23 25  2  0
 18  2  1  0
 25 19  1  0
 10  5  1  0
  6 26  1  0
  7 27  1  0
  8 28  1  0
  9 29  1  0
 15 30  1  0
 16 31  1  0
 17 32  1  0
 20 33  1  0
 21 34  1  0
 22 35  1  0
 25 36  1  0
M  CHG  1  24  -1
M  END
>  <UniqueID>  (15) 
15

>  <SMILES>  (15) 
O=c1c(Sc2ccccc2C(F)(F)F)cccn1-c1cccc([O-])c1

>  <Energy>  (15) 
48.46159976821564

>  <Genealogy>  (15) 
O=c1c(Sc2ccccc2C(F)(F)F)cccn1-c1cccc([O-])c1 (protonated)
O=c1c(Sc2ccccc2C(F)(F)F)cccn1-c1cccc([O-])c1 (3D coordinates assigned)
O=c1c(Sc2ccccc2C(F)(F)F)cccn1-c1cccc([O-])c1 (optimized conformer: 48.46159976821564 kcal/mol)

>  <smiles>  (15) 
O=c1c(Sc2ccccc2C(F)(F)F)cccn1-c1cccc(O)c1

>  <score_type>  (15) 
oracle

>  <origin>  (15) 
adgpu

>  <m_score__min__energy>  (15) 
-10.460000000000001

>  <m_primary>  (15) 
energy

$$$$
15:0
     RDKit          3D

 49 51  0  0  0  0  0  0  0  0999 V2000
   -7.6900   20.0140  -32.7770 C   0  0  0  0  0  0  0  0  0  0  0  0
   -7.1540   21.3000  -32.2100 C   0  0  0  0  0  0  0  0  0  0  0  0
   -5.8070   21.6380  -32.4230 C   0  0  0  0  0  0  0  0  0  0  0  0
   -5.2730   22.8080  -31.8830 C   0  0  0  0  0  0  0  0  0  0  0  0
   -6.0820   23.6730  -31.1380 C   0  0  0  0  0  0  0  0  0  0  0  0
   -5.3880   25.1110  -30.3900 S   0  0  0  0  0  0  0  0  0  0  0  0
   -5.7360   26.3140  -31.2190 O   0  0  0  0  0  0  0  0  0  0  0  0
   -5.9490   25.3040  -29.0090 O   0  0  0  0  0  0  0  0  0  0  0  0
   -3.6640   24.9490  -30.3260 N   0  0  0  0  0  0  0  0  0  0  0  0
   -3.0210   23.8600  -29.6590 C   0  0  0  0  0  0  0  0  0  0  0  0
   -2.2000   23.0020  -30.4000 C   0  0  0  0  0  0  0  0  0  0  0  0
   -1.6090   21.8850  -29.7940 C   0  0  0  0  0  0  0  0  0  0  0  0
   -0.6410   20.7630  -30.7500 S   0  0  0  0  0  0  0  0  0  0  0  0
    0.2440   21.5460  -31.6810 O   0  0  0  0  0  0  0  0  0  0  0  0
    0.2480   19.9820  -29.8230 O   0  0  0  0  0  0  0  0  0  0  0  0
   -1.6230   19.6430  -31.6740 N   0  0  0  0  0  0  0  0  0  0  0  0
   -0.8960   19.0520  -32.8140 C   0  0  0  0  0  0  0  0  0  0  0  0
   -0.8820   19.9630  -34.0610 C   0  0  0  0  0  0  0  0  0  0  0  0
   -1.6910   21.1140  -33.9180 O   0  0  0  0  0  0  0  0  0  0  0  0
   -2.9780   20.7370  -33.4890 C   0  0  0  0  0  0  0  0  0  0  0  0
   -2.9370   20.2060  -32.0450 C   0  0  0  0  0  0  0  0  0  0  0  0
   -1.8120   21.6510  -28.4270 C   0  0  0  0  0  0  0  0  0  0  0  0
   -2.6000   22.5240  -27.6750 C   0  0  0  0  0  0  0  0  0  0  0  0
   -3.2020   23.6350  -28.2820 C   0  0  0  0  0  0  0  0  0  0  0  0
   -3.9580   24.5190  -27.5160 O   0  0  0  0  0  0  0  0  0  0  0  0
   -7.4320   23.3600  -30.9410 C   0  0  0  0  0  0  0  0  0  0  0  0
   -7.9820   22.1830  -31.4750 C   0  0  0  0  0  0  0  0  0  0  0  0
   -9.4290   21.8610  -31.2090 C   0  0  0  0  0  0  0  0  0  0  0  0
   -7.9711   19.3397  -31.9546 H   0  0  0  0  0  0  0  0  0  0  0  0
   -8.5745   20.2265  -33.3955 H   0  0  0  0  0  0  0  0  0  0  0  0
   -6.9164   19.5354  -33.3955 H   0  0  0  0  0  0  0  0  0  0  0  0
   -5.1670   20.9732  -33.0217 H   0  0  0  0  0  0  0  0  0  0  0  0
   -4.2123   23.0514  -32.0434 H   0  0  0  0  0  0  0  0  0  0  0  0
   -2.0174   23.2059  -31.4654 H   0  0  0  0  0  0  0  0  0  0  0  0
    0.1432   18.8631  -32.5066 H   0  0  0  0  0  0  0  0  0  0  0  0
   -1.4184   18.1244  -33.0911 H   0  0  0  0  0  0  0  0  0  0  0  0
    0.1533   20.2842  -34.2480 H   0  0  0  0  0  0  0  0  0  0  0  0
   -1.2902   19.3780  -34.8983 H   0  0  0  0  0  0  0  0  0  0  0  0
   -3.6438   21.6115  -33.5333 H   0  0  0  0  0  0  0  0  0  0  0  0
   -3.3507   19.9393  -34.1484 H   0  0  0  0  0  0  0  0  0  0  0  0
   -3.1692   21.0348  -31.3601 H   0  0  0  0  0  0  0  0  0  0  0  0
   -3.6753   19.3938  -31.9721 H   0  0  0  0  0  0  0  0  0  0  0  0
   -1.3491   20.7770  -27.9455 H   0  0  0  0  0  0  0  0  0  0  0  0
   -2.7493   22.3393  -26.6009 H   0  0  0  0  0  0  0  0  0  0  0  0
   -4.4430   25.3040  -27.9340 H   0  0  0  0  0  0  0  0  0  0  0  0
   -8.0696   24.0437  -30.3613 H   0  0  0  0  0  0  0  0  0  0  0  0
   -9.6025   21.8224  -30.1235 H   0  0  0  0  0  0  0  0  0  0  0  0
  -10.0658   22.6394  -31.6546 H   0  0  0  0  0  0  0  0  0  0  0  0
   -9.6756   20.8860  -31.6546 H   0  0  0  0  0  0  0  0  0  0  0  0
  1  2  1  0
  2  3  2  0
  3  4  1  0
  4  5  2  0
  5  6  1  0
  6  7  2  0
  6  8  2  0
  6  9  1  0
  9 10  1  0
 10 11  2  0
 11 12  1  0
 12 13  1  0
 13 14  2  0
 13 15  2  0
 13 16  1  0
 16 17  1  0
 17 18  1  0
 18 19  1  0
 19 20  1  0
 20 21  1  0
 12 22  2  0
 22 23  1  0
 23 24  2  0
 24 25  1  0
  5 26  1  0
 26 27  2  0
 27 28  1  0
 27  2  1  0
 24 10  1  0
 21 16  1  0
  1 29  1  0
  1 30  1  0
  1 31  1  0
  3 32  1  0
  4 33  1  0
 11 34  1  0
 17 35  1  0
 17 36  1  0
 18 37  1  0
 18 38  1  0
 20 39  1  0
 20 40  1  0
 21 41  1  0
 21 42  1  0
 22 43  1  0
 23 44  1  0
 25 45  1  0
 26 46  1  0
 28 47  1  0
 28 48  1  0
 28 49  1  0
M  CHG  1   9  -1
M  END
>  <UniqueID>  (16) 
16

>  <SMILES>  (16) 
Cc1ccc(S(=O)(=O)[N-]c2cc(S(=O)(=O)N3CCOCC3)ccc2O)cc1C

>  <Energy>  (16) 
64.00609543292947

>  <Genealogy>  (16) 
Cc1ccc(S(=O)(=O)[N-]c2cc(S(=O)(=O)N3CCOCC3)ccc2O)cc1C (protonated)
Cc1ccc(S(=O)(=O)[N-]c2cc(S(=O)(=O)N3CCOCC3)ccc2O)cc1C (3D coordinates assigned)
Cc1ccc(S(=O)(=O)[N-]c2cc(S(=O)(=O)N3CCOCC3)ccc2O)cc1C (nonaromatic ring conformer: 64.00609543292947 kcal/mol)

>  <smiles>  (16) 
Cc1ccc(S(=O)(=O)Nc2cc(S(=O)(=O)N3CCOCC3)ccc2O)cc1C

>  <score_type>  (16) 
oracle

>  <origin>  (16) 
adgpu

>  <m_score__min__energy>  (16) 
-11.58

>  <m_primary>  (16) 
energy

$$$$
16:0
     RDKit          3D

 47 49  0  0  0  0  0  0  0  0999 V2000
   -0.6743   24.2912  -25.5933 H   0  0  0  0  0  0  0  0  0  0  0  0
   -1.3490   24.0400  -26.4250 C   0  0  0  0  0  0  0  0  0  0  0  0
   -1.1970   22.8740  -27.1000 N   0  0  0  0  0  0  0  0  0  0  0  0
   -2.0210   22.5310  -28.1290 C   0  0  0  0  0  0  0  0  0  0  0  0
   -1.8470   21.4160  -28.7840 N   0  0  0  0  0  0  0  0  0  0  0  0
   -0.8880   20.3820  -28.5000 C   0  0  0  0  0  0  0  0  0  0  0  0
    0.4660   20.5170  -28.8560 C   0  0  0  0  0  0  0  0  0  0  0  0
    0.8037   21.4174  -29.3900 H   0  0  0  0  0  0  0  0  0  0  0  0
    1.3830   19.5160  -28.5360 C   0  0  0  0  0  0  0  0  0  0  0  0
    2.4363   19.6265  -28.8334 H   0  0  0  0  0  0  0  0  0  0  0  0
    0.9760   18.3740  -27.8410 C   0  0  0  0  0  0  0  0  0  0  0  0
    1.9380   17.3960  -27.5480 O   0  0  0  0  0  0  0  0  0  0  0  0
    1.6380   16.0760  -27.1040 C   0  0  0  0  0  0  0  0  0  0  0  0
    1.6324   16.0514  -26.0043 H   0  0  0  0  0  0  0  0  0  0  0  0
    0.6492   15.7777  -27.4824 H   0  0  0  0  0  0  0  0  0  0  0  0
    2.4008   15.3796  -27.4824 H   0  0  0  0  0  0  0  0  0  0  0  0
   -0.3720   18.2480  -27.4550 C   0  0  0  0  0  0  0  0  0  0  0  0
   -0.6994   17.3566  -26.8997 H   0  0  0  0  0  0  0  0  0  0  0  0
   -1.3050   19.2540  -27.7740 C   0  0  0  0  0  0  0  0  0  0  0  0
   -2.6550   19.1680  -27.3940 O   0  0  0  0  0  0  0  0  0  0  0  0
   -3.1060   18.9180  -26.0660 C   0  0  0  0  0  0  0  0  0  0  0  0
   -2.3765   19.3224  -25.3488 H   0  0  0  0  0  0  0  0  0  0  0  0
   -4.0803   19.4048  -25.9119 H   0  0  0  0  0  0  0  0  0  0  0  0
   -3.2094   17.8338  -25.9119 H   0  0  0  0  0  0  0  0  0  0  0  0
   -3.0430   23.4210  -28.5130 C   0  0  0  0  0  0  0  0  0  0  0  0
   -3.8220   23.1050  -29.5110 N   0  0  0  0  0  0  0  0  0  0  0  0
   -5.1300   24.0560  -30.1410 S   0  0  0  0  0  0  0  0  0  0  0  0
   -5.7670   24.8510  -29.0350 O   0  0  0  0  0  0  0  0  0  0  0  0
   -4.6210   24.9960  -31.2000 O   0  0  0  0  0  0  0  0  0  0  0  0
   -6.3200   22.9720  -30.8500 C   0  0  0  0  0  0  0  0  0  0  0  0
   -6.0210   22.2740  -32.0270 C   0  0  0  0  0  0  0  0  0  0  0  0
   -5.0450   22.4148  -32.5144 H   0  0  0  0  0  0  0  0  0  0  0  0
   -6.9580   21.3990  -32.5850 C   0  0  0  0  0  0  0  0  0  0  0  0
   -6.7222   20.8654  -33.5176 H   0  0  0  0  0  0  0  0  0  0  0  0
   -8.1990   21.1990  -31.9590 C   0  0  0  0  0  0  0  0  0  0  0  0
   -9.2190   20.2900  -32.5790 C   0  0  0  0  0  0  0  0  0  0  0  0
   -9.7882   19.7827  -31.7861 H   0  0  0  0  0  0  0  0  0  0  0  0
   -9.9059   20.8809  -33.2027 H   0  0  0  0  0  0  0  0  0  0  0  0
   -8.7108   19.5399  -33.2027 H   0  0  0  0  0  0  0  0  0  0  0  0
   -8.5010   21.9060  -30.7860 C   0  0  0  0  0  0  0  0  0  0  0  0
   -9.4797   21.7717  -30.3021 H   0  0  0  0  0  0  0  0  0  0  0  0
   -7.5630   22.7810  -30.2290 C   0  0  0  0  0  0  0  0  0  0  0  0
   -7.8008   23.3212  -29.3008 H   0  0  0  0  0  0  0  0  0  0  0  0
   -3.1910   24.5960  -27.8260 N   0  0  0  0  0  0  0  0  0  0  0  0
   -3.9360   25.2840  -28.0700 H   0  0  0  0  0  0  0  0  0  0  0  0
   -2.3660   24.9170  -26.7930 C   0  0  0  0  0  0  0  0  0  0  0  0
   -2.5017   25.8646  -26.2512 H   0  0  0  0  0  0  0  0  0  0  0  0
  1  2  1  0
  2  3  1  0
  3  4  1  0
  4  5  2  0
  5  6  1  0
  6  7  2  0
  7  8  1  0
  7  9  1  0
  9 10  1  0
  9 11  2  0
 11 12  1  0
 12 13  1  0
 13 14  1  0
 13 15  1  0
 13 16  1  0
 11 17  1  0
 17 18  1  0
 17 19  2  0
 19 20  1  0
 20 21  1  0
 21 22  1  0
 21 23  1  0
 21 24  1  0
  4 25  1  0
 25 26  2  3
 26 27  1  0
 27 28  2  0
 27 29  2  0
 27 30  1  0
 30 31  2  0
 31 32  1  0
 31 33  1  0
 33 34  1  0
 33 35  2  0
 35 36  1  0
 36 37  1  0
 36 38  1  0
 36 39  1  0
 35 40  1  0
 40 41  1  0
 40 42  2  0
 42 43  1  0
 25 44  1  0
 44 45  1  0
 44 46  1  0
 46 47  1  0
 46  2  2  0
 19  6  1  0
 42 30  1  0
M  CHG  1   3  -1
M  END
>  <UniqueID>  (17) 
17

>  <SMILES>  (17) 
COc1ccc(/N=c2\[n-]cc[nH]c2=NS(=O)(=O)c2ccc(C)cc2)c(OC)c1

>  <Energy>  (17) 
61.96264642500479

>  <Genealogy>  (17) 
COc1ccc(N=c2[n-]cc[nH]c2=NS(=O)(=O)c2ccc(C)cc2)c(OC)c1 (protonated)
COc1ccc(/N=c2\[n-]cc[nH]c2=NS(=O)(=O)c2ccc(C)cc2)c(OC)c1 (cis-trans isomerization)
COc1ccc(/N=c2\[n-]cc[nH]c2=NS(=O)(=O)c2ccc(C)cc2)c(OC)c1 (3D coordinates assigned)
COc1ccc(/N=c2\[n-]cc[nH]c2=NS(=O)(=O)c2ccc(C)cc2)c(OC)c1 (optimized conformer: 61.96264642500479 kcal/mol)

>  <smiles>  (17) 
COc1ccc(N=c2[nH]cc[nH]c2=NS(=O)(=O)c2ccc(C)cc2)c(OC)c1

>  <score_type>  (17) 
oracle

>  <origin>  (17) 
adgpu

>  <m_score__min__energy>  (17) 
-9.1999999999999993

>  <m_primary>  (17) 
energy

$$$$
17:0
     RDKit          3D

 54 58  0  0  0  0  0  0  0  0999 V2000
   -5.4930   16.3150  -32.4140 C   0  0  0  0  0  0  0  0  0  0  0  0
   -6.3810   17.1400  -33.1940 N   0  0  0  0  0  0  0  0  0  0  0  0
   -5.7160   17.9070  -34.2070 C   0  0  0  0  0  0  0  0  0  0  0  0
   -5.8600   19.3860  -33.8050 C   0  0  0  0  0  0  0  0  0  0  0  0
   -5.5690   19.4850  -32.3640 C   0  0  0  0  0  0  0  0  0  0  0  0
   -5.0720   20.7390  -31.8680 N   0  0  0  0  0  0  0  0  0  0  0  0
   -3.9490   20.9640  -31.2040 N   0  0  0  0  0  0  0  0  0  0  0  0
   -3.8150   22.2650  -30.9010 C   0  0  0  0  0  0  0  0  0  0  0  0
   -2.6830   22.7910  -30.1640 C   0  0  0  0  0  0  0  0  0  0  0  0
   -1.3700   22.4680  -30.4040 C   0  0  0  0  0  0  0  0  0  0  0  0
   -0.3120   23.0130  -29.6840 C   0  0  0  0  0  0  0  0  0  0  0  0
   -0.6170   23.9080  -28.6960 C   0  0  0  0  0  0  0  0  0  0  0  0
    0.3520   24.5300  -27.8980 O   0  0  0  0  0  0  0  0  0  0  0  0
   -0.0960   25.1450  -26.7390 C   0  0  0  0  0  0  0  0  0  0  0  0
   -0.3990   26.4970  -26.7450 C   0  0  0  0  0  0  0  0  0  0  0  0
   -0.8510   27.1590  -25.6150 C   0  0  0  0  0  0  0  0  0  0  0  0
   -1.0140   26.4660  -24.4240 C   0  0  0  0  0  0  0  0  0  0  0  0
   -0.7120   25.1130  -24.4130 C   0  0  0  0  0  0  0  0  0  0  0  0
   -0.2650   24.4740  -25.5440 C   0  0  0  0  0  0  0  0  0  0  0  0
   -1.9280   24.2520  -28.4320 C   0  0  0  0  0  0  0  0  0  0  0  0
   -2.9790   23.7070  -29.1510 C   0  0  0  0  0  0  0  0  0  0  0  0
   -4.9290   22.8910  -31.4110 C   0  0  0  0  0  0  0  0  0  0  0  0
   -5.3430   24.1830  -31.4060 C   0  0  0  0  0  0  0  0  0  0  0  0
   -4.6480   25.0940  -30.8390 N   0  0  0  0  0  0  0  0  0  0  0  0
   -6.5040   24.5380  -31.9830 N   0  0  0  0  0  0  0  0  0  0  0  0
   -7.2790   23.6150  -32.5770 C   0  0  0  0  0  0  0  0  0  0  0  0
   -6.8570   22.3360  -32.5750 N   0  0  0  0  0  0  0  0  0  0  0  0
   -5.7110   21.9290  -32.0150 C   0  0  0  0  0  0  0  0  0  0  0  0
   -6.7760   18.9650  -31.5940 C   0  0  0  0  0  0  0  0  0  0  0  0
   -7.3520   17.8540  -32.4170 C   0  0  0  0  0  0  0  0  0  0  0  0
   -5.6783   16.4871  -31.3435 H   0  0  0  0  0  0  0  0  0  0  0  0
   -5.6728   15.2561  -32.6516 H   0  0  0  0  0  0  0  0  0  0  0  0
   -4.4502   16.5721  -32.6516 H   0  0  0  0  0  0  0  0  0  0  0  0
   -4.6529   17.6291  -34.2567 H   0  0  0  0  0  0  0  0  0  0  0  0
   -6.1557   17.7208  -35.1980 H   0  0  0  0  0  0  0  0  0  0  0  0
   -5.1478   20.0009  -34.3748 H   0  0  0  0  0  0  0  0  0  0  0  0
   -6.8761   19.7483  -34.0203 H   0  0  0  0  0  0  0  0  0  0  0  0
   -4.6877   18.8502  -32.1897 H   0  0  0  0  0  0  0  0  0  0  0  0
   -1.1447   21.7453  -31.2021 H   0  0  0  0  0  0  0  0  0  0  0  0
    0.7299   22.7348  -29.9010 H   0  0  0  0  0  0  0  0  0  0  0  0
   -0.2764   27.0644  -27.6793 H   0  0  0  0  0  0  0  0  0  0  0  0
   -1.0806   28.2337  -25.6620 H   0  0  0  0  0  0  0  0  0  0  0  0
   -1.3718   26.9745  -23.5166 H   0  0  0  0  0  0  0  0  0  0  0  0
   -0.8325   24.5405  -23.4815 H   0  0  0  0  0  0  0  0  0  0  0  0
   -0.0356   23.3992  -25.4964 H   0  0  0  0  0  0  0  0  0  0  0  0
   -2.1427   24.9758  -27.6320 H   0  0  0  0  0  0  0  0  0  0  0  0
   -4.0194   23.9879  -28.9304 H   0  0  0  0  0  0  0  0  0  0  0  0
   -4.9340   26.0800  -30.8180 H   0  0  0  0  0  0  0  0  0  0  0  0
   -8.2309   23.8959  -33.0513 H   0  0  0  0  0  0  0  0  0  0  0  0
   -7.4820   21.6460  -33.0440 H   0  0  0  0  0  0  0  0  0  0  0  0
   -6.4655   18.5877  -30.6085 H   0  0  0  0  0  0  0  0  0  0  0  0
   -7.5153   19.7615  -31.4236 H   0  0  0  0  0  0  0  0  0  0  0  0
   -7.8448   17.1412  -31.7394 H   0  0  0  0  0  0  0  0  0  0  0  0
   -8.0524   18.3153  -33.1288 H   0  0  0  0  0  0  0  0  0  0  0  0
  1  2  1  0
  2  3  1  0
  3  4  1  0
  4  5  1  0
  5  6  1  0
  6  7  1  0
  7  8  2  0
  8  9  1  0
  9 10  2  0
 10 11  1  0
 11 12  2  0
 12 13  1  0
 13 14  1  0
 14 15  2  0
 15 16  1  0
 16 17  2  0
 17 18  1  0
 18 19  2  0
 12 20  1  0
 20 21  2  0
  8 22  1  0
 22 23  1  0
 23 24  2  3
 23 25  1  0
 25 26  2  0
 26 27  1  0
 27 28  1  0
  5 29  1  0
 29 30  1  0
 30  2  1  0
 28  6  1  0
 21  9  1  0
 28 22  2  0
 19 14  1  0
  1 31  1  0
  1 32  1  0
  1 33  1  0
  3 34  1  0
  3 35  1  0
  4 36  1  0
  4 37  1  0
  5 38  1  0
 10 39  1  0
 11 40  1  0
 15 41  1  0
 16 42  1  0
 17 43  1  0
 18 44  1  0
 19 45  1  0
 20 46  1  0
 21 47  1  0
 24 48  1  0
 26 49  1  0
 27 50  1  0
 29 51  1  0
 29 52  1  0
 30 53  1  0
 30 54  1  0
M  END
>  <smiles>  (18) 
CN1CCC(n2nc(-c3ccc(Oc4ccccc4)cc3)c3c(=N)nc[nH]c32)CC1

>  <score_type>  (18) 
oracle

>  <origin>  (18) 
adgpu

>  <m_score__min__energy>  (18) 
-9.9900000000000002

>  <m_primary>  (18) 
energy

$$$$
18:0
     RDKit          3D

 57 60  0  0  0  0  0  0  0  0999 V2000
   -3.7880   16.2010  -34.1600 C   0  0  0  0  0  0  0  0  0  0  0  0
   -4.4730   17.0600  -33.1770 N   0  0  0  0  0  0  0  0  0  0  0  0
   -5.8960   16.6660  -33.0130 C   0  0  0  0  0  0  0  0  0  0  0  0
   -6.8500   17.5530  -33.8320 C   0  0  0  0  0  0  0  0  0  0  0  0
   -6.7140   18.9930  -33.5040 N   0  0  0  0  0  0  0  0  0  0  0  0
   -8.0130   19.5360  -32.4670 S   0  0  0  0  0  0  0  0  0  0  0  0
   -8.2090   18.5630  -31.3350 O   0  0  0  0  0  0  0  0  0  0  0  0
   -9.2970   19.6310  -33.2470 O   0  0  0  0  0  0  0  0  0  0  0  0
   -7.5880   21.1110  -31.8000 C   0  0  0  0  0  0  0  0  0  0  0  0
   -8.0450   21.4760  -30.5260 C   0  0  0  0  0  0  0  0  0  0  0  0
   -7.6080   22.6670  -29.9360 C   0  0  0  0  0  0  0  0  0  0  0  0
   -6.6860   23.4880  -30.5980 C   0  0  0  0  0  0  0  0  0  0  0  0
   -6.1680   24.6380  -29.9180 N   0  0  0  0  0  0  0  0  0  0  0  0
   -5.0060   25.3670  -30.3270 C   0  0  0  0  0  0  0  0  0  0  0  0
   -5.0820   26.6160  -30.4570 O   0  0  0  0  0  0  0  0  0  0  0  0
   -3.7600   24.6940  -30.5510 N   0  0  0  0  0  0  0  0  0  0  0  0
   -3.1140   23.8030  -29.6330 C   0  0  0  0  0  0  0  0  0  0  0  0
   -3.6780   22.5420  -29.4380 C   0  0  0  0  0  0  0  0  0  0  0  0
   -3.1350   21.6640  -28.5040 C   0  0  0  0  0  0  0  0  0  0  0  0
   -2.0130   22.0230  -27.7540 C   0  0  0  0  0  0  0  0  0  0  0  0
   -1.4600   20.8490  -26.5630 Cl  0  0  0  0  0  0  0  0  0  0  0  0
   -1.4140   23.2960  -27.9370 C   0  0  0  0  0  0  0  0  0  0  0  0
    0.0530   23.7740  -27.0350 S   0  0  0  0  0  0  0  0  0  0  0  0
    0.9280   22.5870  -26.7350 O   0  0  0  0  0  0  0  0  0  0  0  0
    0.8600   24.7090  -27.8900 O   0  0  0  0  0  0  0  0  0  0  0  0
   -0.3290   24.6040  -25.4880 C   0  0  0  0  0  0  0  0  0  0  0  0
   -0.3580   26.1260  -25.5120 C   0  0  0  0  0  0  0  0  0  0  0  0
   -1.6590   25.3410  -25.4990 C   0  0  0  0  0  0  0  0  0  0  0  0
   -2.0150   24.2110  -28.8470 C   0  0  0  0  0  0  0  0  0  0  0  0
   -1.5860   25.5370  -28.9500 O   0  0  0  0  0  0  0  0  0  0  0  0
   -6.2760   23.1530  -31.9010 C   0  0  0  0  0  0  0  0  0  0  0  0
   -6.7250   21.9690  -32.4980 C   0  0  0  0  0  0  0  0  0  0  0  0
   -5.4070   19.3500  -32.9160 C   0  0  0  0  0  0  0  0  0  0  0  0
   -4.2890   18.4900  -33.5160 C   0  0  0  0  0  0  0  0  0  0  0  0
   -3.1865   15.4467  -33.6316 H   0  0  0  0  0  0  0  0  0  0  0  0
   -4.5354   15.6977  -34.7909 H   0  0  0  0  0  0  0  0  0  0  0  0
   -3.1310   16.8177  -34.7909 H   0  0  0  0  0  0  0  0  0  0  0  0
   -6.0137   15.6231  -33.3423 H   0  0  0  0  0  0  0  0  0  0  0  0
   -6.1563   16.7860  -31.9510 H   0  0  0  0  0  0  0  0  0  0  0  0
   -6.6306   17.4130  -34.9008 H   0  0  0  0  0  0  0  0  0  0  0  0
   -7.8787   17.2513  -33.5857 H   0  0  0  0  0  0  0  0  0  0  0  0
   -8.7493   20.8240  -29.9885 H   0  0  0  0  0  0  0  0  0  0  0  0
   -7.9904   22.9602  -28.9472 H   0  0  0  0  0  0  0  0  0  0  0  0
   -4.5572   22.2396  -30.0259 H   0  0  0  0  0  0  0  0  0  0  0  0
   -3.5951   20.6760  -28.3550 H   0  0  0  0  0  0  0  0  0  0  0  0
    0.1660   23.8609  -24.8455 H   0  0  0  0  0  0  0  0  0  0  0  0
   -0.0507   26.6961  -24.6229 H   0  0  0  0  0  0  0  0  0  0  0  0
    0.0758   26.9022  -26.1596 H   0  0  0  0  0  0  0  0  0  0  0  0
   -2.2936   25.3435  -24.6005 H   0  0  0  0  0  0  0  0  0  0  0  0
   -2.5571   25.3144  -26.1337 H   0  0  0  0  0  0  0  0  0  0  0  0
   -1.6160   26.0810  -29.8050 H   0  0  0  0  0  0  0  0  0  0  0  0
   -5.6005   23.8233  -32.4527 H   0  0  0  0  0  0  0  0  0  0  0  0
   -6.4004   21.7108  -33.5168 H   0  0  0  0  0  0  0  0  0  0  0  0
   -5.1965   20.4100  -33.1210 H   0  0  0  0  0  0  0  0  0  0  0  0
   -5.4469   19.1712  -31.8314 H   0  0  0  0  0  0  0  0  0  0  0  0
   -4.2970   18.6033  -34.6101 H   0  0  0  0  0  0  0  0  0  0  0  0
   -3.3285   18.8263  -33.0984 H   0  0  0  0  0  0  0  0  0  0  0  0
  1  2  1  0
  2  3  1  0
  3  4  1  0
  4  5  1  0
  5  6  1  0
  6  7  2  0
  6  8  2  0
  6  9  1  0
  9 10  2  0
 10 11  1  0
 11 12  2  0
 12 13  1  0
 13 14  1  0
 14 15  2  0
 14 16  1  0
 16 17  1  0
 17 18  2  0
 18 19  1  0
 19 20  2  0
 20 21  1  0
 20 22  1  0
 22 23  1  0
 23 24  2  0
 23 25  2  0
 23 26  1  0
 26 27  1  0
 27 28  1  0
 22 29  2  0
 29 30  1  0
 12 31  1  0
 31 32  2  0
  5 33  1  0
 33 34  1  0
 34  2  1  0
 32  9  1  0
 29 17  1  0
 28 26  1  0
  1 35  1  0
  1 36  1  0
  1 37  1  0
  3 38  1  0
  3 39  1  0
  4 40  1  0
  4 41  1  0
 10 42  1  0
 11 43  1  0
 18 44  1  0
 19 45  1  0
 26 46  1  0
 27 47  1  0
 27 48  1  0
 28 49  1  0
 28 50  1  0
 30 51  1  0
 31 52  1  0
 32 53  1  0
 33 54  1  0
 33 55  1  0
 34 56  1  0
 34 57  1  0
M  CHG  2  13  -1  16  -1
M  END
>  <UniqueID>  (19) 
18

>  <SMILES>  (19) 
CN1CCN(S(=O)(=O)c2ccc([N-]C(=O)[N-]c3ccc(Cl)c(S(=O)(=O)C4CC4)c3O)cc2)CC1

>  <Energy>  (19) 
349.92492442105936

>  <Genealogy>  (19) 
CN1CCN(S(=O)(=O)c2ccc([N-]C(=O)[N-]c3ccc(Cl)c(S(=O)(=O)C4CC4)c3O)cc2)CC1 (protonated)
CN1CCN(S(=O)(=O)c2ccc([N-]C(=O)[N-]c3ccc(Cl)c(S(=O)(=O)C4CC4)c3O)cc2)CC1 (3D coordinates assigned)
CN1CCN(S(=O)(=O)c2ccc([N-]C(=O)[N-]c3ccc(Cl)c(S(=O)(=O)C4CC4)c3O)cc2)CC1 (nonaromatic ring conformer: 349.92492442105936 kcal/mol)

>  <smiles>  (19) 
CN1CCN(S(=O)(=O)c2ccc(NC(=O)Nc3ccc(Cl)c(S(=O)(=O)C4CC4)c3O)cc2)CC1

>  <score_type>  (19) 
oracle

>  <origin>  (19) 
adgpu

>  <m_score__min__energy>  (19) 
-14.470000000000001

>  <m_primary>  (19) 
energy

$$$$
19:0
     RDKit          3D

 41 43  0  0  0  0  0  0  0  0999 V2000
   -5.7240   20.8170  -32.9760 C   0  0  0  0  0  0  0  0  0  0  0  0
   -5.9200   22.0850  -32.1990 C   0  0  0  0  0  0  0  0  0  0  0  0
   -7.2110   22.5910  -31.9870 C   0  0  0  0  0  0  0  0  0  0  0  0
   -7.3920   23.7790  -31.2770 C   0  0  0  0  0  0  0  0  0  0  0  0
   -6.2860   24.4850  -30.7940 C   0  0  0  0  0  0  0  0  0  0  0  0
   -6.4770   25.6360  -30.1020 F   0  0  0  0  0  0  0  0  0  0  0  0
   -4.9880   24.0170  -31.0370 C   0  0  0  0  0  0  0  0  0  0  0  0
   -3.8750   24.7580  -30.5140 N   0  0  0  0  0  0  0  0  0  0  0  0
   -3.2810   24.5910  -29.2220 C   0  0  0  0  0  0  0  0  0  0  0  0
   -3.8120   23.8300  -28.3680 O   0  0  0  0  0  0  0  0  0  0  0  0
   -2.0400   25.2440  -28.9320 N   0  0  0  0  0  0  0  0  0  0  0  0
   -1.4300   25.2160  -27.6330 C   0  0  0  0  0  0  0  0  0  0  0  0
   -1.9540   26.0360  -26.6220 C   0  0  0  0  0  0  0  0  0  0  0  0
   -1.3910   26.0280  -25.3430 C   0  0  0  0  0  0  0  0  0  0  0  0
   -0.3110   25.1910  -25.0600 C   0  0  0  0  0  0  0  0  0  0  0  0
    0.2010   24.3500  -26.0500 C   0  0  0  0  0  0  0  0  0  0  0  0
   -0.3590   24.3430  -27.3340 C   0  0  0  0  0  0  0  0  0  0  0  0
    0.2740   23.1710  -28.5420 S   0  0  0  0  0  0  0  0  0  0  0  0
   -1.1500   22.0900  -28.3850 C   0  0  0  0  0  0  0  0  0  0  0  0
   -1.6150   21.6680  -27.1910 N   0  0  0  0  0  0  0  0  0  0  0  0
   -2.6570   20.8740  -27.5060 C   0  0  0  0  0  0  0  0  0  0  0  0
   -2.8070   20.8270  -28.8750 C   0  0  0  0  0  0  0  0  0  0  0  0
   -1.8640   21.6080  -29.4230 N   0  0  0  0  0  0  0  0  0  0  0  0
   -1.6100   21.7840  -30.8480 C   0  0  0  0  0  0  0  0  0  0  0  0
   -4.8100   22.8050  -31.7300 C   0  0  0  0  0  0  0  0  0  0  0  0
   -5.5940   19.9761  -32.2788 H   0  0  0  0  0  0  0  0  0  0  0  0
   -6.6047   20.6353  -33.6095 H   0  0  0  0  0  0  0  0  0  0  0  0
   -4.8295   20.9097  -33.6095 H   0  0  0  0  0  0  0  0  0  0  0  0
   -8.0836   22.0498  -32.3816 H   0  0  0  0  0  0  0  0  0  0  0  0
   -8.4077   24.1609  -31.0969 H   0  0  0  0  0  0  0  0  0  0  0  0
   -1.4860   25.6220  -29.7330 H   0  0  0  0  0  0  0  0  0  0  0  0
   -2.8128   26.6888  -26.8375 H   0  0  0  0  0  0  0  0  0  0  0  0
   -1.7996   26.6821  -24.5586 H   0  0  0  0  0  0  0  0  0  0  0  0
    0.1376   25.1937  -24.0556 H   0  0  0  0  0  0  0  0  0  0  0  0
    1.0495   23.6887  -25.8202 H   0  0  0  0  0  0  0  0  0  0  0  0
   -3.2916   20.3438  -26.7806 H   0  0  0  0  0  0  0  0  0  0  0  0
   -3.5669   20.2501  -29.4225 H   0  0  0  0  0  0  0  0  0  0  0  0
   -0.7130   22.4055  -30.9865 H   0  0  0  0  0  0  0  0  0  0  0  0
   -1.4511   20.8014  -31.3162 H   0  0  0  0  0  0  0  0  0  0  0  0
   -2.4742   22.2779  -31.3162 H   0  0  0  0  0  0  0  0  0  0  0  0
   -3.7947   22.4196  -31.9052 H   0  0  0  0  0  0  0  0  0  0  0  0
  1  2  1  0
  2  3  2  0
  3  4  1  0
  4  5  2  0
  5  6  1  0
  5  7  1  0
  7  8  1  0
  8  9  1  0
  9 10  2  0
  9 11  1  0
 11 12  1  0
 12 13  2  0
 13 14  1  0
 14 15  2  0
 15 16  1  0
 16 17  2  0
 17 18  1  0
 18 19  1  0
 19 20  2  0
 20 21  1  0
 21 22  2  0
 22 23  1  0
 23 24  1  0
  7 25  2  0
 25  2  1  0
 17 12  1  0
 23 19  1  0
  1 26  1  0
  1 27  1  0
  1 28  1  0
  3 29  1  0
  4 30  1  0
 11 31  1  0
 13 32  1  0
 14 33  1  0
 15 34  1  0
 16 35  1  0
 21 36  1  0
 22 37  1  0
 24 38  1  0
 24 39  1  0
 24 40  1  0
 25 41  1  0
M  CHG  1   8  -1
M  END
>  <UniqueID>  (20) 
19

>  <SMILES>  (20) 
Cc1ccc(F)c([N-]C(=O)Nc2ccccc2Sc2nccn2C)c1

>  <Energy>  (20) 
75.44551753349468

>  <Genealogy>  (20) 
Cc1ccc(F)c([N-]C(=O)Nc2ccccc2Sc2nccn2C)c1 (protonated)
Cc1ccc(F)c([N-]C(=O)Nc2ccccc2Sc2nccn2C)c1 (3D coordinates assigned)
Cc1ccc(F)c([N-]C(=O)Nc2ccccc2Sc2nccn2C)c1 (optimized conformer: 75.44551753349468 kcal/mol)

>  <smiles>  (20) 
Cc1ccc(F)c(NC(=O)Nc2ccccc2Sc2nccn2C)c1

>  <score_type>  (20) 
oracle

>  <origin>  (20) 
adgpu

>  <m_score__min__energy>  (20) 
-9.5800000000000001

>  <m_primary>  (20) 
energy

$$$$
20:0
     RDKit          3D

 48 52  0  0  0  0  0  0  0  0999 V2000
   -6.0220   26.0070  -30.0080 O   0  0  0  0  0  0  0  0  0  0  0  0
   -5.2570   25.3360  -30.7480 C   0  0  0  0  0  0  0  0  0  0  0  0
   -5.7560   24.7230  -31.9440 N   0  0  0  0  0  0  0  0  0  0  0  0
   -6.0170   23.3270  -32.1440 C   0  0  0  0  0  0  0  0  0  0  0  0
   -7.3170   22.7740  -31.9790 C   0  0  0  0  0  0  0  0  0  0  0  0
   -7.5210   21.3920  -32.1470 C   0  0  0  0  0  0  0  0  0  0  0  0
   -6.4290   20.6190  -32.5030 C   0  0  0  0  0  0  0  0  0  0  0  0
   -5.1750   21.1170  -32.6390 C   0  0  0  0  0  0  0  0  0  0  0  0
   -4.9310   22.4780  -32.4560 C   0  0  0  0  0  0  0  0  0  0  0  0
   -4.2220   20.0040  -32.9400 C   0  0  0  0  0  0  0  0  0  0  0  0
   -5.1270   18.7350  -32.9170 C   0  0  0  0  0  0  0  0  0  0  0  0
   -6.4770   19.2310  -32.6640 N   0  0  0  0  0  0  0  0  0  0  0  0
   -7.6430   18.4980  -32.2780 C   0  0  0  0  0  0  0  0  0  0  0  0
   -7.6840   17.2460  -32.4130 O   0  0  0  0  0  0  0  0  0  0  0  0
   -8.7850   19.2380  -31.6190 C   0  0  0  0  0  0  0  0  0  0  0  0
   -8.8750   20.7260  -32.0570 C   0  0  0  0  0  0  0  0  0  0  0  0
   -3.8600   25.2870  -30.4370 N   0  0  0  0  0  0  0  0  0  0  0  0
   -3.2170   24.3260  -29.5840 C   0  0  0  0  0  0  0  0  0  0  0  0
   -3.7280   23.0300  -29.4280 C   0  0  0  0  0  0  0  0  0  0  0  0
   -3.1070   22.1300  -28.5650 C   0  0  0  0  0  0  0  0  0  0  0  0
   -1.9730   22.5060  -27.8400 C   0  0  0  0  0  0  0  0  0  0  0  0
   -1.2780   21.3210  -26.7380 Cl  0  0  0  0  0  0  0  0  0  0  0  0
   -1.4430   23.8090  -27.9810 C   0  0  0  0  0  0  0  0  0  0  0  0
   -0.0130   24.3070  -27.0540 S   0  0  0  0  0  0  0  0  0  0  0  0
    0.7520   25.3760  -27.7860 O   0  0  0  0  0  0  0  0  0  0  0  0
    0.9050   23.1310  -26.8680 O   0  0  0  0  0  0  0  0  0  0  0  0
   -0.5530   24.8950  -25.4510 C   0  0  0  0  0  0  0  0  0  0  0  0
   -0.5830   26.4060  -25.2870 C   0  0  0  0  0  0  0  0  0  0  0  0
   -1.8820   25.6330  -25.4680 C   0  0  0  0  0  0  0  0  0  0  0  0
   -2.0950   24.7220  -28.8400 C   0  0  0  0  0  0  0  0  0  0  0  0
   -1.6390   26.0310  -28.9620 O   0  0  0  0  0  0  0  0  0  0  0  0
   -8.1634   23.4271  -31.7199 H   0  0  0  0  0  0  0  0  0  0  0  0
   -3.9128   22.8829  -32.5527 H   0  0  0  0  0  0  0  0  0  0  0  0
   -3.7591   20.1391  -33.9287 H   0  0  0  0  0  0  0  0  0  0  0  0
   -3.3878   19.9487  -32.2251 H   0  0  0  0  0  0  0  0  0  0  0  0
   -5.0831   18.2125  -33.8840 H   0  0  0  0  0  0  0  0  0  0  0  0
   -4.8041   18.0140  -32.1516 H   0  0  0  0  0  0  0  0  0  0  0  0
   -9.7275   18.7366  -31.8842 H   0  0  0  0  0  0  0  0  0  0  0  0
   -8.6046   19.2239  -30.5340 H   0  0  0  0  0  0  0  0  0  0  0  0
   -9.3565   20.7733  -33.0449 H   0  0  0  0  0  0  0  0  0  0  0  0
   -9.4580   21.2618  -31.2934 H   0  0  0  0  0  0  0  0  0  0  0  0
   -4.6227   22.7226  -29.9892 H   0  0  0  0  0  0  0  0  0  0  0  0
   -3.5130   21.1138  -28.4531 H   0  0  0  0  0  0  0  0  0  0  0  0
   -0.1246   24.0625  -24.8736 H   0  0  0  0  0  0  0  0  0  0  0  0
   -0.3432   26.8586  -24.3135 H   0  0  0  0  0  0  0  0  0  0  0  0
   -0.1043   27.2539  -25.7989 H   0  0  0  0  0  0  0  0  0  0  0  0
   -2.5810   25.5269  -24.6253 H   0  0  0  0  0  0  0  0  0  0  0  0
   -2.7311   25.6907  -26.1649 H   0  0  0  0  0  0  0  0  0  0  0  0
  1  2  2  0
  2  3  1  0
  3  4  1  0
  4  5  2  0
  5  6  1  0
  6  7  2  0
  7  8  1  0
  8  9  2  0
  8 10  1  0
 10 11  1  0
 11 12  1  0
 12 13  1  0
 13 14  2  0
 13 15  1  0
 15 16  1  0
  2 17  1  0
 17 18  1  0
 18 19  2  0
 19 20  1  0
 20 21  2  0
 21 22  1  0
 21 23  1  0
 23 24  1  0
 24 25  2  0
 24 26  2  0
 24 27  1  0
 27 28  1  0
 28 29  1  0
 23 30  2  0
 30 31  1  0
  9  4  1  0
 30 18  1  0
 16  6  1  0
 29 27  1  0
 12  7  1  0
  5 32  1  0
  9 33  1  0
 10 34  1  0
 10 35  1  0
 11 36  1  0
 11 37  1  0
 15 38  1  0
 15 39  1  0
 16 40  1  0
 16 41  1  0
 19 42  1  0
 20 43  1  0
 27 44  1  0
 28 45  1  0
 28 46  1  0
 29 47  1  0
 29 48  1  0
M  CHG  3   3  -1  17  -1  31  -1
M  END
>  <UniqueID>  (21) 
20

>  <SMILES>  (21) 
O=C([N-]c1cc2c3c(c1)CCN3C(=O)CC2)[N-]c1ccc(Cl)c(S(=O)(=O)C2CC2)c1[O-]

>  <Energy>  (21) 
343.99237568114916

>  <Genealogy>  (21) 
O=C([N-]c1cc2c3c(c1)CCN3C(=O)CC2)[N-]c1ccc(Cl)c(S(=O)(=O)C2CC2)c1[O-] (protonated)
O=C([N-]c1cc2c3c(c1)CCN3C(=O)CC2)[N-]c1ccc(Cl)c(S(=O)(=O)C2CC2)c1[O-] (3D coordinates assigned)
O=C([N-]c1cc2c3c(c1)CCN3C(=O)CC2)[N-]c1ccc(Cl)c(S(=O)(=O)C2CC2)c1[O-] (nonaromatic ring conformer: 343.99237568114916 kcal/mol)

>  <smiles>  (21) 
O=C(Nc1cc2c3c(c1)CCN3C(=O)CC2)Nc1ccc(Cl)c(S(=O)(=O)C2CC2)c1O

>  <score_type>  (21) 
oracle

>  <origin>  (21) 
adgpu

>  <m_score__min__energy>  (21) 
-16.989999999999998

>  <m_primary>  (21) 
energy

$$$$
21:0
     RDKit          3D

 45 48  0  0  0  0  0  0  0  0999 V2000
   -2.0240   19.0600  -33.1390 H   0  0  0  0  0  0  0  0  0  0  0  0
   -3.0660   19.0770  -33.2000 N   0  0  0  0  0  0  0  0  0  0  0  0
   -3.7640   19.9150  -32.5050 C   0  0  0  0  0  0  0  0  0  0  0  0
   -3.2010   20.8180  -31.6620 N   0  0  0  0  0  0  0  0  0  0  0  0
   -4.2730   21.4630  -31.1570 C   0  0  0  0  0  0  0  0  0  0  0  0
   -4.2850   22.5160  -30.2310 C   0  0  0  0  0  0  0  0  0  0  0  0
   -3.0340   23.0490  -29.6420 C   0  0  0  0  0  0  0  0  0  0  0  0
   -2.1610   22.1870  -28.9540 C   0  0  0  0  0  0  0  0  0  0  0  0
   -2.4069   21.1186  -28.8642 H   0  0  0  0  0  0  0  0  0  0  0  0
   -0.9840   22.6780  -28.3840 C   0  0  0  0  0  0  0  0  0  0  0  0
   -0.3072   21.9960  -27.8485 H   0  0  0  0  0  0  0  0  0  0  0  0
   -0.6650   24.0340  -28.4930 C   0  0  0  0  0  0  0  0  0  0  0  0
    0.5050   24.5190  -27.9240 O   0  0  0  0  0  0  0  0  0  0  0  0
   -1.5230   24.9000  -29.1740 C   0  0  0  0  0  0  0  0  0  0  0  0
   -1.2700   25.9672  -29.2584 H   0  0  0  0  0  0  0  0  0  0  0  0
   -2.7040   24.4160  -29.7500 C   0  0  0  0  0  0  0  0  0  0  0  0
   -3.5280   25.2950  -30.4450 O   0  0  0  0  0  0  0  0  0  0  0  0
   -5.5470   23.0380  -29.8650 C   0  0  0  0  0  0  0  0  0  0  0  0
   -5.6048   23.8620  -29.1386 H   0  0  0  0  0  0  0  0  0  0  0  0
   -6.7350   22.5130  -30.4220 C   0  0  0  0  0  0  0  0  0  0  0  0
   -7.7080   22.9327  -30.1268 H   0  0  0  0  0  0  0  0  0  0  0  0
   -6.6830   21.4590  -31.3500 C   0  0  0  0  0  0  0  0  0  0  0  0
   -7.6009   21.0416  -31.7895 H   0  0  0  0  0  0  0  0  0  0  0  0
   -5.4270   20.9610  -31.6940 C   0  0  0  0  0  0  0  0  0  0  0  0
   -5.1170   19.9760  -32.5500 N   0  0  0  0  0  0  0  0  0  0  0  0
   -6.2160   18.9940  -33.4720 S   0  0  0  0  0  0  0  0  0  0  0  0
   -7.6160   19.2550  -32.9910 O   0  0  0  0  0  0  0  0  0  0  0  0
   -6.1280   19.3390  -34.9330 O   0  0  0  0  0  0  0  0  0  0  0  0
   -5.7980   17.2980  -33.2610 C   0  0  0  0  0  0  0  0  0  0  0  0
   -5.9260   16.4100  -34.3360 C   0  0  0  0  0  0  0  0  0  0  0  0
   -6.2959   16.7739  -35.3059 H   0  0  0  0  0  0  0  0  0  0  0  0
   -5.5860   15.0640  -34.1820 C   0  0  0  0  0  0  0  0  0  0  0  0
   -5.6904   14.3712  -35.0300 H   0  0  0  0  0  0  0  0  0  0  0  0
   -5.1120   14.5940  -32.9490 C   0  0  0  0  0  0  0  0  0  0  0  0
   -4.6950   12.8970  -32.7380 S   0  0  0  0  0  0  0  0  0  0  0  0
   -4.6660   12.5640  -31.2720 O   0  0  0  0  0  0  0  0  0  0  0  0
   -3.3380   12.6210  -33.3230 O   0  0  0  0  0  0  0  0  0  0  0  0
   -5.9060   11.8850  -33.5590 C   0  0  0  0  0  0  0  0  0  0  0  0
   -6.5229   11.3695  -32.8082 H   0  0  0  0  0  0  0  0  0  0  0  0
   -6.5479   12.5191  -34.1882 H   0  0  0  0  0  0  0  0  0  0  0  0
   -5.3960   11.1407  -34.1882 H   0  0  0  0  0  0  0  0  0  0  0  0
   -4.9940   15.4810  -31.8700 C   0  0  0  0  0  0  0  0  0  0  0  0
   -4.6323   15.1157  -30.8975 H   0  0  0  0  0  0  0  0  0  0  0  0
   -5.3340   16.8270  -32.0250 C   0  0  0  0  0  0  0  0  0  0  0  0
   -5.2374   17.5188  -31.1753 H   0  0  0  0  0  0  0  0  0  0  0  0
  1  2  1  0
  2  3  2  0
  3  4  1  0
  4  5  1  0
  5  6  2  0
  6  7  1  0
  7  8  2  0
  8  9  1  0
  8 10  1  0
 10 11  1  0
 10 12  2  0
 12 13  1  0
 12 14  1  0
 14 15  1  0
 14 16  2  0
 16 17  1  0
  6 18  1  0
 18 19  1  0
 18 20  2  0
 20 21  1  0
 20 22  1  0
 22 23  1  0
 22 24  2  0
 24 25  1  0
 25 26  1  0
 26 27  2  0
 26 28  2  0
 26 29  1  0
 29 30  2  0
 30 31  1  0
 30 32  1  0
 32 33  1  0
 32 34  2  0
 34 35  1  0
 35 36  2  0
 35 37  2  0
 35 38  1  0
 38 39  1  0
 38 40  1  0
 38 41  1  0
 34 42  1  0
 42 43  1  0
 42 44  2  0
 44 45  1  0
 25  3  1  0
 44 29  1  0
 24  5  1  0
 16  7  1  0
M  CHG  3   4  -1  13  -1  17  -1
M  END
>  <UniqueID>  (22) 
21

>  <SMILES>  (22) 
[H]/N=c1\[n-]c2c(-c3ccc([O-])cc3[O-])cccc2n1S(=O)(=O)c1ccc(S(C)(=O)=O)cc1

>  <Energy>  (22) 
93.9186673064939

>  <Genealogy>  (22) 
CS(=O)(=O)c1ccc(S(=O)(=O)n2c(=N)[n-]c3c(-c4ccc([O-])cc4[O-])cccc32)cc1 (protonated)
[H]/N=c1\[n-]c2c(-c3ccc([O-])cc3[O-])cccc2n1S(=O)(=O)c1ccc(S(C)(=O)=O)cc1 (cis-trans isomerization)
[H]/N=c1\[n-]c2c(-c3ccc([O-])cc3[O-])cccc2n1S(=O)(=O)c1ccc(S(C)(=O)=O)cc1 (3D coordinates assigned)
[H]/N=c1\[n-]c2c(-c3ccc([O-])cc3[O-])cccc2n1S(=O)(=O)c1ccc(S(C)(=O)=O)cc1 (optimized conformer: 93.9186673064939 kcal/mol)

>  <smiles>  (22) 
CS(=O)(=O)c1ccc(S(=O)(=O)n2c(=N)[nH]c3c(-c4ccc(O)cc4O)cccc32)cc1

>  <score_type>  (22) 
oracle

>  <origin>  (22) 
adgpu

>  <m_score__min__energy>  (22) 
-13

>  <m_primary>  (22) 
energy

$$$$
22:0
     RDKit          3D

 27 28  0  0  0  0  0  0  0  0999 V2000
   -3.9550   24.8090  -30.8400 O   0  0  0  0  0  0  0  0  0  0  0  0
   -3.5830   23.9550  -30.0110 N   0  0  0  0  0  0  0  0  0  0  0  0
   -2.2050   23.8030  -29.6730 C   0  0  0  0  0  0  0  0  0  0  0  0
   -1.3300   24.7540  -29.2070 C   0  0  0  0  0  0  0  0  0  0  0  0
   -1.6210   26.0910  -28.9660 O   0  0  0  0  0  0  0  0  0  0  0  0
   -0.1200   24.1990  -29.0080 N   0  0  0  0  0  0  0  0  0  0  0  0
   -0.1980   22.9150  -29.3360 N   0  0  0  0  0  0  0  0  0  0  0  0
   -1.4580   22.6520  -29.7410 C   0  0  0  0  0  0  0  0  0  0  0  0
   -2.0280   21.0420  -30.2850 S   0  0  0  0  0  0  0  0  0  0  0  0
   -2.3230   21.5590  -32.0110 C   0  0  0  0  0  0  0  0  0  0  0  0
   -3.7620   21.3690  -32.3790 C   0  0  0  0  0  0  0  0  0  0  0  0
   -4.0530   20.7120  -33.4140 O   0  0  0  0  0  0  0  0  0  0  0  0
   -4.7910   21.9910  -31.5930 N   0  0  0  0  0  0  0  0  0  0  0  0
   -6.1970   21.7590  -31.7810 C   0  0  0  0  0  0  0  0  0  0  0  0
   -6.7090   20.4540  -31.9060 C   0  0  0  0  0  0  0  0  0  0  0  0
   -8.0830   20.2480  -32.0650 C   0  0  0  0  0  0  0  0  0  0  0  0
   -8.9580   21.3370  -32.0900 C   0  0  0  0  0  0  0  0  0  0  0  0
  -10.2890   21.1340  -32.2430 F   0  0  0  0  0  0  0  0  0  0  0  0
   -8.4610   22.6340  -31.9470 C   0  0  0  0  0  0  0  0  0  0  0  0
   -7.0870   22.8470  -31.7870 C   0  0  0  0  0  0  0  0  0  0  0  0
   -6.6220   24.1140  -31.6520 F   0  0  0  0  0  0  0  0  0  0  0  0
   -2.0590   22.6212  -32.1204 H   0  0  0  0  0  0  0  0  0  0  0  0
   -1.7020   20.9422  -32.6772 H   0  0  0  0  0  0  0  0  0  0  0  0
   -4.4990   22.7200  -30.9030 H   0  0  0  0  0  0  0  0  0  0  0  0
   -6.0256   19.5925  -31.8785 H   0  0  0  0  0  0  0  0  0  0  0  0
   -8.4759   19.2260  -32.1707 H   0  0  0  0  0  0  0  0  0  0  0  0
   -9.1511   23.4905  -31.9601 H   0  0  0  0  0  0  0  0  0  0  0  0
  1  2  2  0
  2  3  1  0
  3  4  1  0
  4  5  1  0
  4  6  2  0
  6  7  1  0
  7  8  1  0
  8  9  1  0
  9 10  1  0
 10 11  1  0
 11 12  2  0
 11 13  1  0
 13 14  1  0
 14 15  2  0
 15 16  1  0
 16 17  2  0
 17 18  1  0
 17 19  1  0
 19 20  2  0
 20 21  1  0
  8  3  2  0
 20 14  1  0
 10 22  1  0
 10 23  1  0
 13 24  1  0
 15 25  1  0
 16 26  1  0
 19 27  1  0
M  CHG  2   5  -1   7  -1
M  END
>  <UniqueID>  (23) 
22

>  <SMILES>  (23) 
O=Nc1c([O-])n[n-]c1SCC(=O)Nc1ccc(F)cc1F

>  <Energy>  (23) 
59.866400396311

>  <Genealogy>  (23) 
O=Nc1c([O-])n[n-]c1SCC(=O)Nc1ccc(F)cc1F (protonated)
O=Nc1c([O-])n[n-]c1SCC(=O)Nc1ccc(F)cc1F (3D coordinates assigned)
O=Nc1c([O-])n[n-]c1SCC(=O)Nc1ccc(F)cc1F (optimized conformer: 59.866400396311 kcal/mol)

>  <smiles>  (23) 
O=Nc1c(O)n[nH]c1SCC(=O)Nc1ccc(F)cc1F

>  <score_type>  (23) 
oracle

>  <origin>  (23) 
adgpu

>  <m_score__min__energy>  (23) 
-10.43

>  <m_primary>  (23) 
energy

$$$$
23:0
     RDKit          3D

 62 65  0  0  0  0  0  0  0  0999 V2000
   -2.3090   20.6070  -31.5430 O   0  0  0  0  0  0  0  0  0  0  0  0
   -2.4920   21.7350  -31.0060 C   0  0  0  0  0  0  0  0  0  0  0  0
   -3.2510   22.7360  -31.6910 N   0  0  0  0  0  0  0  0  0  0  0  0
   -4.5080   23.2720  -31.2530 C   0  0  0  0  0  0  0  0  0  0  0  0
   -5.6790   22.5650  -31.5540 C   0  0  0  0  0  0  0  0  0  0  0  0
   -6.9290   23.0410  -31.1360 C   0  0  0  0  0  0  0  0  0  0  0  0
   -8.3980   22.1310  -31.5010 S   0  0  0  0  0  0  0  0  0  0  0  0
   -9.4550   23.0810  -31.9880 O   0  0  0  0  0  0  0  0  0  0  0  0
   -8.8990   21.5020  -30.2320 O   0  0  0  0  0  0  0  0  0  0  0  0
   -8.1470   20.8730  -32.6970 N   0  0  0  0  0  0  0  0  0  0  0  0
   -9.2280   19.8570  -32.7150 C   0  0  0  0  0  0  0  0  0  0  0  0
   -8.7370   18.4200  -32.4770 C   0  0  0  0  0  0  0  0  0  0  0  0
   -7.7320   18.3900  -31.3290 C   0  0  0  0  0  0  0  0  0  0  0  0
   -6.5060   19.2680  -31.6310 C   0  0  0  0  0  0  0  0  0  0  0  0
   -6.7660   20.3440  -32.7070 C   0  0  0  0  0  0  0  0  0  0  0  0
   -7.0090   24.2690  -30.4670 C   0  0  0  0  0  0  0  0  0  0  0  0
   -5.8520   25.0020  -30.1980 C   0  0  0  0  0  0  0  0  0  0  0  0
   -4.6030   24.5170  -30.5970 C   0  0  0  0  0  0  0  0  0  0  0  0
   -3.4750   25.2990  -30.3710 O   0  0  0  0  0  0  0  0  0  0  0  0
   -1.8270   22.0470  -29.7230 C   0  0  0  0  0  0  0  0  0  0  0  0
   -1.6010   23.3960  -29.3900 C   0  0  0  0  0  0  0  0  0  0  0  0
   -0.9980   23.7460  -28.1750 C   0  0  0  0  0  0  0  0  0  0  0  0
   -0.6810   25.4410  -27.7940 S   0  0  0  0  0  0  0  0  0  0  0  0
    0.7950   25.6140  -27.5710 O   0  0  0  0  0  0  0  0  0  0  0  0
   -1.0710   26.2940  -28.9700 O   0  0  0  0  0  0  0  0  0  0  0  0
   -1.5420   25.9910  -26.3700 N   0  0  0  0  0  0  0  0  0  0  0  0
   -1.0950   27.3200  -25.8880 C   0  0  0  0  0  0  0  0  0  0  0  0
   -0.5850   27.3200  -24.4380 C   0  0  0  0  0  0  0  0  0  0  0  0
    0.3020   26.1070  -24.1840 C   0  0  0  0  0  0  0  0  0  0  0  0
   -0.4530   24.7930  -24.4270 C   0  0  0  0  0  0  0  0  0  0  0  0
   -1.6910   24.9480  -25.3360 C   0  0  0  0  0  0  0  0  0  0  0  0
   -0.6650   22.7440  -27.2580 C   0  0  0  0  0  0  0  0  0  0  0  0
   -0.8810   21.4030  -27.5740 C   0  0  0  0  0  0  0  0  0  0  0  0
   -1.4270   21.0400  -28.8100 C   0  0  0  0  0  0  0  0  0  0  0  0
   -1.5160   19.6790  -29.1050 O   0  0  0  0  0  0  0  0  0  0  0  0
   -5.6168   21.6265  -32.1244 H   0  0  0  0  0  0  0  0  0  0  0  0
   -9.9538   20.1097  -31.9280 H   0  0  0  0  0  0  0  0  0  0  0  0
   -9.6709   19.8802  -33.7216 H   0  0  0  0  0  0  0  0  0  0  0  0
   -9.5953   17.7797  -32.2254 H   0  0  0  0  0  0  0  0  0  0  0  0
   -8.2488   18.0514  -33.3912 H   0  0  0  0  0  0  0  0  0  0  0  0
   -8.2210   18.7605  -30.4160 H   0  0  0  0  0  0  0  0  0  0  0  0
   -7.3900   17.3530  -31.1964 H   0  0  0  0  0  0  0  0  0  0  0  0
   -6.2018   19.7719  -30.7017 H   0  0  0  0  0  0  0  0  0  0  0  0
   -5.7219   18.6033  -32.0226 H   0  0  0  0  0  0  0  0  0  0  0  0
   -6.0724   21.1805  -32.5363 H   0  0  0  0  0  0  0  0  0  0  0  0
   -6.6125   19.8644  -33.6850 H   0  0  0  0  0  0  0  0  0  0  0  0
   -7.9886   24.6577  -30.1520 H   0  0  0  0  0  0  0  0  0  0  0  0
   -5.9232   25.9645  -29.6703 H   0  0  0  0  0  0  0  0  0  0  0  0
   -1.9021   24.1862  -30.0936 H   0  0  0  0  0  0  0  0  0  0  0  0
   -0.2814   27.6690  -26.5408 H   0  0  0  0  0  0  0  0  0  0  0  0
   -1.9738   27.9809  -25.9163 H   0  0  0  0  0  0  0  0  0  0  0  0
   -0.0044   28.2369  -24.2585 H   0  0  0  0  0  0  0  0  0  0  0  0
   -1.4481   27.2783  -23.7574 H   0  0  0  0  0  0  0  0  0  0  0  0
    1.1686   26.1509  -24.8601 H   0  0  0  0  0  0  0  0  0  0  0  0
    0.6223   26.1298  -23.1319 H   0  0  0  0  0  0  0  0  0  0  0  0
    0.2371   24.0781  -24.8989 H   0  0  0  0  0  0  0  0  0  0  0  0
   -0.8142   24.4439  -23.4484 H   0  0  0  0  0  0  0  0  0  0  0  0
   -1.8764   23.9864  -25.8370 H   0  0  0  0  0  0  0  0  0  0  0  0
   -2.5275   25.2533  -24.6901 H   0  0  0  0  0  0  0  0  0  0  0  0
   -0.2312   23.0146  -26.2840 H   0  0  0  0  0  0  0  0  0  0  0  0
   -0.6195   20.6227  -26.8441 H   0  0  0  0  0  0  0  0  0  0  0  0
   -1.6000   19.3200  -30.0470 H   0  0  0  0  0  0  0  0  0  0  0  0
  1  2  2  0
  2  3  1  0
  3  4  1  0
  4  5  2  0
  5  6  1  0
  6  7  1  0
  7  8  2  0
  7  9  2  0
  7 10  1  0
 10 11  1  0
 11 12  1  0
 12 13  1  0
 13 14  1  0
 14 15  1  0
  6 16  2  0
 16 17  1  0
 17 18  2  0
 18 19  1  0
  2 20  1  0
 20 21  2  0
 21 22  1  0
 22 23  1  0
 23 24  2  0
 23 25  2  0
 23 26  1  0
 26 27  1  0
 27 28  1  0
 28 29  1  0
 29 30  1  0
 30 31  1  0
 22 32  2  0
 32 33  1  0
 33 34  2  0
 34 35  1  0
 18  4  1  0
 34 20  1  0
 15 10  1  0
 31 26  1  0
  5 36  1  0
 11 37  1  0
 11 38  1  0
 12 39  1  0
 12 40  1  0
 13 41  1  0
 13 42  1  0
 14 43  1  0
 14 44  1  0
 15 45  1  0
 15 46  1  0
 16 47  1  0
 17 48  1  0
 21 49  1  0
 27 50  1  0
 27 51  1  0
 28 52  1  0
 28 53  1  0
 29 54  1  0
 29 55  1  0
 30 56  1  0
 30 57  1  0
 31 58  1  0
 31 59  1  0
 32 60  1  0
 33 61  1  0
 35 62  1  0
M  CHG  2   3  -1  19  -1
M  END
>  <UniqueID>  (24) 
23

>  <SMILES>  (24) 
O=C([N-]c1cc(S(=O)(=O)N2CCCCC2)ccc1[O-])c1cc(S(=O)(=O)N2CCCCC2)ccc1O

>  <Energy>  (24) 
89.98987695910282

>  <Genealogy>  (24) 
O=C([N-]c1cc(S(=O)(=O)N2CCCCC2)ccc1[O-])c1cc(S(=O)(=O)N2CCCCC2)ccc1O (protonated)
O=C([N-]c1cc(S(=O)(=O)N2CCCCC2)ccc1[O-])c1cc(S(=O)(=O)N2CCCCC2)ccc1O (3D coordinates assigned)
O=C([N-]c1cc(S(=O)(=O)N2CCCCC2)ccc1[O-])c1cc(S(=O)(=O)N2CCCCC2)ccc1O (nonaromatic ring conformer: 89.98987695910282 kcal/mol)

>  <smiles>  (24) 
O=C(Nc1cc(S(=O)(=O)N2CCCCC2)ccc1O)c1cc(S(=O)(=O)N2CCCCC2)ccc1O

>  <score_type>  (24) 
oracle

>  <origin>  (24) 
adgpu

>  <m_score__min__energy>  (24) 
-14.91

>  <m_primary>  (24) 
energy

$$$$
24:0
     RDKit          3D

 72 76  0  0  0  0  0  0  0  0999 V2000
   -2.1350   19.9450  -26.8790 C   0  0  0  0  0  0  0  0  0  0  0  0
   -2.0020   21.4230  -27.0960 C   0  0  0  0  0  0  0  0  0  0  0  0
   -0.9340   22.1320  -26.5240 C   0  0  0  0  0  0  0  0  0  0  0  0
   -0.8360   23.5140  -26.6960 C   0  0  0  0  0  0  0  0  0  0  0  0
   -1.8020   24.1990  -27.4380 C   0  0  0  0  0  0  0  0  0  0  0  0
   -2.8720   23.5070  -28.0220 C   0  0  0  0  0  0  0  0  0  0  0  0
   -3.8570   24.2370  -28.7750 N   0  0  0  0  0  0  0  0  0  0  0  0
   -4.7910   23.6380  -29.6910 C   0  0  0  0  0  0  0  0  0  0  0  0
   -6.1410   23.5990  -29.3500 C   0  0  0  0  0  0  0  0  0  0  0  0
   -7.0670   23.0520  -30.2340 C   0  0  0  0  0  0  0  0  0  0  0  0
   -6.6780   22.5420  -31.4420 N   0  0  0  0  0  0  0  0  0  0  0  0
   -7.7160   21.9800  -32.3400 C   0  0  2  0  0  0  0  0  0  0  0  0
   -9.1200   22.4920  -31.9630 C   0  0  0  0  0  0  0  0  0  0  0  0
   -7.5830   20.4660  -32.4390 C   0  0  0  0  0  0  0  0  0  0  0  0
   -6.7020   19.9350  -33.4020 C   0  0  0  0  0  0  0  0  0  0  0  0
   -6.5130   18.5540  -33.5090 C   0  0  0  0  0  0  0  0  0  0  0  0
   -7.1900   17.6850  -32.6510 C   0  0  0  0  0  0  0  0  0  0  0  0
   -8.0570   18.1960  -31.6820 C   0  0  0  0  0  0  0  0  0  0  0  0
   -8.2550   19.5770  -31.5720 C   0  0  0  0  0  0  0  0  0  0  0  0
   -5.3500   22.5880  -31.8080 C   0  0  0  0  0  0  0  0  0  0  0  0
   -4.9750   22.0870  -32.9030 O   0  0  0  0  0  0  0  0  0  0  0  0
   -4.3900   23.1770  -30.9570 C   0  0  0  0  0  0  0  0  0  0  0  0
   -3.0120   23.2900  -31.3450 N   0  0  0  0  0  0  0  0  0  0  0  0
   -2.0100   22.2760  -31.2010 C   0  0  0  0  0  0  0  0  0  0  0  0
   -1.3280   22.2140  -30.1420 O   0  0  0  0  0  0  0  0  0  0  0  0
   -1.7960   21.2860  -32.2820 C   0  0  0  0  0  0  0  0  0  0  0  0
   -2.8210   20.3940  -32.6460 C   0  0  0  0  0  0  0  0  0  0  0  0
   -2.6310   19.4860  -33.6890 C   0  0  0  0  0  0  0  0  0  0  0  0
   -1.4230   19.4630  -34.3860 C   0  0  0  0  0  0  0  0  0  0  0  0
   -0.3910   20.3450  -34.0390 C   0  0  0  0  0  0  0  0  0  0  0  0
    1.1270   20.3410  -34.9420 S   0  0  0  0  0  0  0  0  0  0  0  0
    1.1180   19.2080  -35.9320 O   0  0  0  0  0  0  0  0  0  0  0  0
    2.2670   20.1160  -33.9870 O   0  0  0  0  0  0  0  0  0  0  0  0
    1.3730   21.8440  -35.7990 N   0  0  0  0  0  0  0  0  0  0  0  0
    2.5830   22.5250  -35.3140 C   0  0  0  0  0  0  0  0  0  0  0  0
    2.8080   23.8250  -36.1200 C   0  0  0  0  0  0  0  0  0  0  0  0
    1.6910   24.1650  -36.9250 O   0  0  0  0  0  0  0  0  0  0  0  0
    0.5110   24.1460  -36.1460 C   0  0  0  0  0  0  0  0  0  0  0  0
    0.1980   22.7200  -35.6500 C   0  0  0  0  0  0  0  0  0  0  0  0
   -0.5770   21.2460  -32.9810 C   0  0  0  0  0  0  0  0  0  0  0  0
   -2.9820   22.1170  -27.8250 C   0  0  0  0  0  0  0  0  0  0  0  0
   -2.1541   19.7331  -25.7998 H   0  0  0  0  0  0  0  0  0  0  0  0
   -3.0688   19.5894  -27.3390 H   0  0  0  0  0  0  0  0  0  0  0  0
   -1.2797   19.4284  -27.3390 H   0  0  0  0  0  0  0  0  0  0  0  0
   -0.1719   21.5970  -25.9384 H   0  0  0  0  0  0  0  0  0  0  0  0
    0.0034   24.0649  -26.2465 H   0  0  0  0  0  0  0  0  0  0  0  0
   -1.7221   25.2888  -27.5646 H   0  0  0  0  0  0  0  0  0  0  0  0
   -3.9400   25.2650  -28.6000 H   0  0  0  0  0  0  0  0  0  0  0  0
   -6.4755   24.0005  -28.3820 H   0  0  0  0  0  0  0  0  0  0  0  0
   -8.1310   23.0296  -29.9558 H   0  0  0  0  0  0  0  0  0  0  0  0
   -7.5546   22.3489  -33.3637 H   0  0  0  0  0  0  0  0  0  0  0  0
   -9.2157   22.5269  -30.8677 H   0  0  0  0  0  0  0  0  0  0  0  0
   -9.2655   23.5011  -32.3761 H   0  0  0  0  0  0  0  0  0  0  0  0
   -9.8809   21.8135  -32.3761 H   0  0  0  0  0  0  0  0  0  0  0  0
   -6.1580   20.6133  -34.0757 H   0  0  0  0  0  0  0  0  0  0  0  0
   -5.8294   18.1511  -34.2708 H   0  0  0  0  0  0  0  0  0  0  0  0
   -7.0408   16.5986  -32.7380 H   0  0  0  0  0  0  0  0  0  0  0  0
   -8.5857   17.5106  -31.0033 H   0  0  0  0  0  0  0  0  0  0  0  0
   -8.9381   19.9722  -30.8057 H   0  0  0  0  0  0  0  0  0  0  0  0
   -3.7786   20.4121  -32.1051 H   0  0  0  0  0  0  0  0  0  0  0  0
   -3.4355   18.7872  -33.9618 H   0  0  0  0  0  0  0  0  0  0  0  0
   -1.2800   18.7498  -35.2112 H   0  0  0  0  0  0  0  0  0  0  0  0
    2.4617   22.7716  -34.2489 H   0  0  0  0  0  0  0  0  0  0  0  0
    3.4509   21.8616  -35.4432 H   0  0  0  0  0  0  0  0  0  0  0  0
    2.9989   24.6481  -35.4157 H   0  0  0  0  0  0  0  0  0  0  0  0
    3.6646   23.6590  -36.7898 H   0  0  0  0  0  0  0  0  0  0  0  0
    0.6429   24.8079  -35.2774 H   0  0  0  0  0  0  0  0  0  0  0  0
   -0.3263   24.4910  -36.7705 H   0  0  0  0  0  0  0  0  0  0  0  0
   -0.0880   22.7621  -34.5887 H   0  0  0  0  0  0  0  0  0  0  0  0
   -0.6257   22.3101  -36.2529 H   0  0  0  0  0  0  0  0  0  0  0  0
    0.2379   21.9274  -32.6954 H   0  0  0  0  0  0  0  0  0  0  0  0
   -3.8402   21.5715  -28.2444 H   0  0  0  0  0  0  0  0  0  0  0  0
  1  2  1  0
  2  3  2  0
  3  4  1  0
  4  5  2  0
  5  6  1  0
  6  7  1  0
  7  8  1  0
  8  9  1  0
  9 10  2  0
 10 11  1  0
 11 12  1  0
 12 13  1  0
 12 14  1  0
 14 15  2  0
 15 16  1  0
 16 17  2  0
 17 18  1  0
 18 19  2  0
 11 20  1  0
 20 21  2  0
 20 22  1  0
 22 23  1  0
 23 24  1  0
 24 25  2  0
 24 26  1  0
 26 27  2  0
 27 28  1  0
 28 29  2  0
 29 30  1  0
 30 31  1  0
 31 32  2  0
 31 33  2  0
 31 34  1  0
 34 35  1  0
 35 36  1  0
 36 37  1  0
 37 38  1  0
 38 39  1  0
 30 40  2  0
  6 41  2  0
 41  2  1  0
 22  8  2  0
 40 26  1  0
 19 14  1  0
 39 34  1  0
  1 42  1  0
  1 43  1  0
  1 44  1  0
  3 45  1  0
  4 46  1  0
  5 47  1  0
  7 48  1  0
  9 49  1  0
 10 50  1  0
 12 51  1  6
 13 52  1  0
 13 53  1  0
 13 54  1  0
 15 55  1  0
 16 56  1  0
 17 57  1  0
 18 58  1  0
 19 59  1  0
 27 60  1  0
 28 61  1  0
 29 62  1  0
 35 63  1  0
 35 64  1  0
 36 65  1  0
 36 66  1  0
 38 67  1  0
 38 68  1  0
 39 69  1  0
 39 70  1  0
 40 71  1  0
 41 72  1  0
M  CHG  1  23  -1
M  END
>  <UniqueID>  (25) 
24

>  <SMILES>  (25) 
Cc1cccc(Nc2ccn([C@H](C)c3ccccc3)c(=O)c2[N-]C(=O)c2cccc(S(=O)(=O)N3CCOCC3)c2)c1

>  <Energy>  (25) 
100.1377587953136

>  <Genealogy>  (25) 
Cc1cccc(Nc2ccn(C(C)c3ccccc3)c(=O)c2[N-]C(=O)c2cccc(S(=O)(=O)N3CCOCC3)c2)c1 (protonated)
Cc1cccc(Nc2ccn([C@H](C)c3ccccc3)c(=O)c2[N-]C(=O)c2cccc(S(=O)(=O)N3CCOCC3)c2)c1 (chirality)
Cc1cccc(Nc2ccn([C@H](C)c3ccccc3)c(=O)c2[N-]C(=O)c2cccc(S(=O)(=O)N3CCOCC3)c2)c1 (3D coordinates assigned)
Cc1cccc(Nc2ccn([C@H](C)c3ccccc3)c(=O)c2[N-]C(=O)c2cccc(S(=O)(=O)N3CCOCC3)c2)c1 (nonaromatic ring conformer: 100.1377587953136 kcal/mol)

>  <smiles>  (25) 
Cc1cccc(Nc2ccn(C(C)c3ccccc3)c(=O)c2NC(=O)c2cccc(S(=O)(=O)N3CCOCC3)c2)c1

>  <score_type>  (25) 
oracle

>  <origin>  (25) 
adgpu

>  <m_score__min__energy>  (25) 
-12.210000000000001

>  <m_primary>  (25) 
energy

$$$$
25:0
     RDKit          3D

 37 39  0  0  0  0  0  0  0  0999 V2000
   -1.6360   26.3530  -25.3780 C   0  0  0  0  0  0  0  0  0  0  0  0
   -1.2330   25.4600  -26.5140 C   0  0  0  0  0  0  0  0  0  0  0  0
    0.1210   25.1740  -26.7410 C   0  0  0  0  0  0  0  0  0  0  0  0
    0.4920   24.3100  -27.7750 C   0  0  0  0  0  0  0  0  0  0  0  0
   -0.4830   23.7160  -28.5790 C   0  0  0  0  0  0  0  0  0  0  0  0
   -1.8440   23.9780  -28.3540 C   0  0  0  0  0  0  0  0  0  0  0  0
   -2.8510   23.3610  -29.1770 N   0  0  0  0  0  0  0  0  0  0  0  0
   -3.2360   22.0650  -29.1590 C   0  0  0  0  0  0  0  0  0  0  0  0
   -2.7110   21.1070  -28.2960 O   0  0  0  0  0  0  0  0  0  0  0  0
   -4.2360   21.8290  -30.0860 C   0  0  0  0  0  0  0  0  0  0  0  0
   -4.4700   23.0460  -30.6950 C   0  0  0  0  0  0  0  0  0  0  0  0
   -5.6720   23.3740  -31.9800 S   0  0  0  0  0  0  0  0  0  0  0  0
   -5.7200   21.6570  -32.4840 C   0  0  0  0  0  0  0  0  0  0  0  0
   -6.8930   20.9100  -32.3360 C   0  0  0  0  0  0  0  0  0  0  0  0
   -6.9200   19.5670  -32.7480 C   0  0  0  0  0  0  0  0  0  0  0  0
   -8.1530   18.7570  -32.6060 C   0  0  0  0  0  0  0  0  0  0  0  0
   -9.4300   19.3250  -32.8900 N   0  0  0  0  0  0  0  0  0  0  0  0
   -8.0850   17.5540  -32.2340 O   0  0  0  0  0  0  0  0  0  0  0  0
   -5.7560   19.0060  -33.2990 C   0  0  0  0  0  0  0  0  0  0  0  0
   -4.6050   19.7870  -33.4270 C   0  0  0  0  0  0  0  0  0  0  0  0
   -4.6100   21.0830  -33.0200 N   0  0  0  0  0  0  0  0  0  0  0  0
   -3.6100   23.9560  -30.1210 C   0  0  0  0  0  0  0  0  0  0  0  0
   -3.5150   25.2980  -30.4730 O   0  0  0  0  0  0  0  0  0  0  0  0
   -2.2120   24.8480  -27.3130 C   0  0  0  0  0  0  0  0  0  0  0  0
   -1.4115   25.8554  -24.4230 H   0  0  0  0  0  0  0  0  0  0  0  0
   -1.0774   27.2986  -25.4390 H   0  0  0  0  0  0  0  0  0  0  0  0
   -2.7147   26.5598  -25.4390 H   0  0  0  0  0  0  0  0  0  0  0  0
    0.8927   25.6307  -26.1039 H   0  0  0  0  0  0  0  0  0  0  0  0
    1.5559   24.0971  -27.9561 H   0  0  0  0  0  0  0  0  0  0  0  0
   -0.1833   23.0393  -29.3928 H   0  0  0  0  0  0  0  0  0  0  0  0
   -3.1380   20.9270  -27.3960 H   0  0  0  0  0  0  0  0  0  0  0  0
   -4.7388   20.8730  -30.2940 H   0  0  0  0  0  0  0  0  0  0  0  0
   -7.7906   21.3719  -31.8989 H   0  0  0  0  0  0  0  0  0  0  0  0
   -9.8140   19.3260  -33.8610 H   0  0  0  0  0  0  0  0  0  0  0  0
   -5.7509   17.9564  -33.6282 H   0  0  0  0  0  0  0  0  0  0  0  0
   -3.6919   19.3513  -33.8586 H   0  0  0  0  0  0  0  0  0  0  0  0
   -3.2762   25.0511  -27.1227 H   0  0  0  0  0  0  0  0  0  0  0  0
  1  2  1  0
  2  3  2  0
  3  4  1  0
  4  5  2  0
  5  6  1  0
  6  7  1  0
  7  8  1  0
  8  9  1  0
  8 10  2  0
 10 11  1  0
 11 12  1  0
 12 13  1  0
 13 14  2  0
 14 15  1  0
 15 16  1  0
 16 17  1  0
 16 18  2  0
 15 19  2  0
 19 20  1  0
 20 21  2  0
 11 22  2  0
 22 23  1  0
  6 24  2  0
 24  2  1  0
 22  7  1  0
 21 13  1  0
  1 25  1  0
  1 26  1  0
  1 27  1  0
  3 28  1  0
  4 29  1  0
  5 30  1  0
  9 31  1  0
 10 32  1  0
 14 33  1  0
 17 34  1  0
 19 35  1  0
 20 36  1  0
 24 37  1  0
M  CHG  2  17  -1  23  -1
M  END
>  <UniqueID>  (26) 
25

>  <SMILES>  (26) 
Cc1cccc(-n2c(O)cc(Sc3cc(C([NH-])=O)ccn3)c2[O-])c1

>  <Energy>  (26) 
68.56449553879358

>  <Genealogy>  (26) 
Cc1cccc(-n2c(O)cc(Sc3cc(C([NH-])=O)ccn3)c2[O-])c1 (protonated)
Cc1cccc(-n2c(O)cc(Sc3cc(C([NH-])=O)ccn3)c2[O-])c1 (3D coordinates assigned)
Cc1cccc(-n2c(O)cc(Sc3cc(C([NH-])=O)ccn3)c2[O-])c1 (optimized conformer: 68.56449553879358 kcal/mol)

>  <smiles>  (26) 
Cc1cccc(-n2c(O)cc(Sc3cc(C(N)=O)ccn3)c2O)c1

>  <score_type>  (26) 
oracle

>  <origin>  (26) 
adgpu

>  <m_score__min__energy>  (26) 
-10.460000000000001

>  <m_primary>  (26) 
energy

$$$$
26:0
     RDKit          3D

 44 46  0  0  0  0  0  0  0  0999 V2000
   -9.6470   20.4080  -32.3160 C   0  0  0  0  0  0  0  0  0  0  0  0
   -8.3770   21.1220  -31.9600 C   0  0  0  0  0  0  0  0  0  0  0  0
   -7.1350   20.5830  -32.3290 C   0  0  0  0  0  0  0  0  0  0  0  0
   -5.9510   21.2310  -31.9660 C   0  0  0  0  0  0  0  0  0  0  0  0
   -5.9930   22.4140  -31.2150 C   0  0  0  0  0  0  0  0  0  0  0  0
   -4.5000   23.2360  -30.7780 S   0  0  0  0  0  0  0  0  0  0  0  0
   -4.2800   23.0780  -29.3000 O   0  0  0  0  0  0  0  0  0  0  0  0
   -4.6160   24.6960  -31.1150 O   0  0  0  0  0  0  0  0  0  0  0  0
   -3.2020   22.5140  -31.6760 N   0  0  0  0  0  0  0  0  0  0  0  0
   -1.9680   22.3360  -31.2980 C   0  0  0  0  0  0  0  0  0  0  0  0
   -1.0530   21.6490  -32.2360 C   0  0  0  0  0  0  0  0  0  0  0  0
   -1.3520   21.5030  -33.5660 N   0  0  0  0  0  0  0  0  0  0  0  0
   -0.3590   20.8650  -34.2190 C   0  0  0  0  0  0  0  0  0  0  0  0
   -0.3790   20.5920  -35.4840 N   0  0  0  0  0  0  0  0  0  0  0  0
    0.8750   20.4900  -33.1730 S   0  0  0  0  0  0  0  0  0  0  0  0
    0.1510   21.1490  -31.8320 N   0  0  0  0  0  0  0  0  0  0  0  0
   -1.3830   22.8150  -29.6870 S   0  0  0  0  0  0  0  0  0  0  0  0
    0.1110   22.9850  -29.7000 O   0  0  0  0  0  0  0  0  0  0  0  0
   -1.9900   24.1350  -29.3020 O   0  0  0  0  0  0  0  0  0  0  0  0
   -1.7950   21.5830  -28.4980 C   0  0  0  0  0  0  0  0  0  0  0  0
   -2.7740   20.6210  -28.7850 C   0  0  0  0  0  0  0  0  0  0  0  0
   -3.0950   19.6400  -27.8410 C   0  0  0  0  0  0  0  0  0  0  0  0
   -2.4550   19.6230  -26.5940 C   0  0  0  0  0  0  0  0  0  0  0  0
   -2.7710   18.5460  -25.5980 C   0  0  0  0  0  0  0  0  0  0  0  0
   -1.4690   20.5810  -26.3110 C   0  0  0  0  0  0  0  0  0  0  0  0
   -1.1480   21.5600  -27.2550 C   0  0  0  0  0  0  0  0  0  0  0  0
   -7.2330   22.9490  -30.8390 C   0  0  0  0  0  0  0  0  0  0  0  0
   -8.4190   22.3020  -31.2010 C   0  0  0  0  0  0  0  0  0  0  0  0
  -10.1721   20.1128  -31.3956 H   0  0  0  0  0  0  0  0  0  0  0  0
  -10.2903   21.0767  -32.9068 H   0  0  0  0  0  0  0  0  0  0  0  0
   -9.4100   19.5109  -32.9068 H   0  0  0  0  0  0  0  0  0  0  0  0
   -7.0931   19.6473  -32.9059 H   0  0  0  0  0  0  0  0  0  0  0  0
   -4.9814   20.8106  -32.2711 H   0  0  0  0  0  0  0  0  0  0  0  0
   -1.1930   20.8620  -36.0790 H   0  0  0  0  0  0  0  0  0  0  0  0
    0.5490   21.1680  -30.8670 H   0  0  0  0  0  0  0  0  0  0  0  0
   -3.2912   20.6379  -29.7557 H   0  0  0  0  0  0  0  0  0  0  0  0
   -3.8528   18.8787  -28.0782 H   0  0  0  0  0  0  0  0  0  0  0  0
   -2.6544   18.9434  -24.5789 H   0  0  0  0  0  0  0  0  0  0  0  0
   -3.8069   18.2054  -25.7425 H   0  0  0  0  0  0  0  0  0  0  0  0
   -2.0833   17.6997  -25.7425 H   0  0  0  0  0  0  0  0  0  0  0  0
   -0.9472   20.5611  -25.3428 H   0  0  0  0  0  0  0  0  0  0  0  0
   -0.3840   22.3161  -27.0214 H   0  0  0  0  0  0  0  0  0  0  0  0
   -7.2734   23.8815  -30.2569 H   0  0  0  0  0  0  0  0  0  0  0  0
   -9.3880   22.7193  -30.8898 H   0  0  0  0  0  0  0  0  0  0  0  0
  1  2  1  0
  2  3  2  0
  3  4  1  0
  4  5  2  0
  5  6  1  0
  6  7  2  0
  6  8  2  0
  6  9  1  0
  9 10  2  3
 10 11  1  0
 11 12  2  0
 12 13  1  0
 13 14  2  3
 13 15  1  0
 15 16  1  0
 10 17  1  0
 17 18  2  0
 17 19  2  0
 17 20  1  0
 20 21  2  0
 21 22  1  0
 22 23  2  0
 23 24  1  0
 23 25  1  0
 25 26  2  0
  5 27  1  0
 27 28  2  0
 28  2  1  0
 16 11  1  0
 26 20  1  0
  1 29  1  0
  1 30  1  0
  1 31  1  0
  3 32  1  0
  4 33  1  0
 14 34  1  0
 16 35  1  0
 21 36  1  0
 22 37  1  0
 24 38  1  0
 24 39  1  0
 24 40  1  0
 25 41  1  0
 26 42  1  0
 27 43  1  0
 28 44  1  0
M  END
>  <UniqueID>  (27) 
26

>  <SMILES>  (27) 
Cc1ccc(S(=O)(=O)N=C(c2nc(=N)s[nH]2)S(=O)(=O)c2ccc(C)cc2)cc1

>  <Energy>  (27) 
91.11761003053066

>  <Genealogy>  (27) 
Cc1ccc(S(=O)(=O)N=C(c2nc(=N)s[nH]2)S(=O)(=O)c2ccc(C)cc2)cc1 (3D coordinates assigned)
Cc1ccc(S(=O)(=O)N=C(c2nc(=N)s[nH]2)S(=O)(=O)c2ccc(C)cc2)cc1 (optimized conformer: 91.11761003053066 kcal/mol)

>  <smiles>  (27) 
Cc1ccc(S(=O)(=O)N=C(c2nc(=N)s[nH]2)S(=O)(=O)c2ccc(C)cc2)cc1

>  <score_type>  (27) 
oracle

>  <origin>  (27) 
adgpu

>  <m_score__min__energy>  (27) 
-9.8000000000000007

>  <m_primary>  (27) 
energy

$$$$
27:0
     RDKit          3D

 65 68  0  0  1  0  0  0  0  0999 V2000
   -6.4770   25.6670  -29.5430 C   0  0  0  0  0  0  0  0  0  0  0  0
   -5.2210   24.9420  -29.5140 N   0  0  0  0  0  0  0  0  0  0  0  0
   -4.8860   24.1880  -30.6710 C   0  0  0  0  0  0  0  0  0  0  0  0
   -5.7430   24.2350  -31.6190 O   0  0  0  0  0  0  0  0  0  0  0  0
   -3.6560   23.4090  -30.7880 C   0  0  0  0  0  0  0  0  0  0  0  0
   -2.6650   23.4270  -29.8220 C   0  0  0  0  0  0  0  0  0  0  0  0
   -1.5330   22.6640  -30.0120 C   0  0  0  0  0  0  0  0  0  0  0  0
   -1.4090   21.8980  -31.1560 C   0  0  0  0  0  0  0  0  0  0  0  0
   -2.3660   21.8490  -32.1360 C   0  0  0  0  0  0  0  0  0  0  0  0
   -2.3220   21.0860  -33.3070 N   0  0  0  0  0  0  0  0  0  0  0  0
   -2.5160   19.7090  -33.4520 C   0  0  0  0  0  0  0  0  0  0  0  0
   -3.7050   19.1340  -33.8520 C   0  0  0  0  0  0  0  0  0  0  0  0
   -3.7920   17.7650  -33.9520 C   0  0  0  0  0  0  0  0  0  0  0  0
   -4.8830   17.2510  -34.3280 N   0  0  0  0  0  0  0  0  0  0  0  0
   -6.0950   17.8910  -34.6820 C   0  0  0  0  0  0  0  0  0  0  0  0
   -6.7280   18.6870  -33.5900 C   0  0  0  0  0  0  0  0  0  0  0  0
   -7.5470   18.0900  -32.6310 C   0  0  0  0  0  0  0  0  0  0  0  0
   -8.1340   18.8070  -31.6290 C   0  0  0  0  0  0  0  0  0  0  0  0
   -7.9370   20.1670  -31.5250 C   0  0  0  0  0  0  0  0  0  0  0  0
   -7.1360   20.7930  -32.4500 C   0  0  0  0  0  0  0  0  0  0  0  0
   -6.9180   22.1930  -32.3640 N   0  0  0  0  0  0  0  0  0  0  0  0
   -6.5520   20.0500  -33.4560 C   0  0  0  0  0  0  0  0  0  0  0  0
   -2.7570   16.9630  -33.6750 N   0  0  0  0  0  0  0  0  0  0  0  0
   -1.6170   17.5170  -33.2920 C   0  0  0  0  0  0  0  0  0  0  0  0
   -0.6190   16.7640  -33.0290 N   0  0  0  0  0  0  0  0  0  0  0  0
    0.6680   17.1650  -32.6090 C   0  0  0  0  0  0  0  0  0  0  0  0
    1.4590   17.5200  -33.8610 C   0  0  0  0  0  0  0  0  0  0  0  0
    1.1160   18.8820  -34.3460 C   0  0  0  0  0  0  0  0  0  0  0  0
    0.5540   19.1300  -35.5790 C   0  0  0  0  0  0  0  0  0  0  0  0
    0.2770   20.4430  -35.9320 C   0  0  0  0  0  0  0  0  0  0  0  0
    0.5480   21.5040  -35.0790 C   0  0  0  0  0  0  0  0  0  0  0  0
    0.2690   22.8170  -35.4320 O   0  0  0  0  0  0  0  0  0  0  0  0
    1.1130   21.2270  -33.8420 C   0  0  0  0  0  0  0  0  0  0  0  0
    1.3950   19.9400  -33.4750 C   0  0  0  0  0  0  0  0  0  0  0  0
   -1.5040   18.8430  -33.1860 N   0  0  0  0  0  0  0  0  0  0  0  0
   -3.5040   22.6350  -31.9170 C   0  0  0  0  0  0  0  0  0  0  0  0
   -6.8124   25.8606  -28.5134 H   0  0  0  0  0  0  0  0  0  0  0  0
   -6.3365   26.6229  -30.0688 H   0  0  0  0  0  0  0  0  0  0  0  0
   -7.2345   25.0672  -30.0688 H   0  0  0  0  0  0  0  0  0  0  0  0
   -4.5850   24.9610  -28.6990 H   0  0  0  0  0  0  0  0  0  0  0  0
   -2.7791   24.0409  -28.9164 H   0  0  0  0  0  0  0  0  0  0  0  0
   -0.7326   22.6646  -29.2574 H   0  0  0  0  0  0  0  0  0  0  0  0
   -0.4965   21.2977  -31.2864 H   0  0  0  0  0  0  0  0  0  0  0  0
   -2.1120   21.6360  -34.2030 H   0  0  0  0  0  0  0  0  0  0  0  0
   -4.5748   19.7645  -34.0886 H   0  0  0  0  0  0  0  0  0  0  0  0
   -5.8903   18.5686  -35.5240 H   0  0  0  0  0  0  0  0  0  0  0  0
   -6.8058   17.0892  -34.9308 H   0  0  0  0  0  0  0  0  0  0  0  0
   -7.7254   17.0059  -32.6843 H   0  0  0  0  0  0  0  0  0  0  0  0
   -8.7723   18.2930  -30.8953 H   0  0  0  0  0  0  0  0  0  0  0  0
   -8.4123   20.7413  -30.7161 H   0  0  0  0  0  0  0  0  0  0  0  0
   -6.3950   22.7150  -33.1000 H   0  0  0  0  0  0  0  0  0  0  0  0
   -7.2850   22.7320  -31.5500 H   0  0  0  0  0  0  0  0  0  0  0  0
   -5.9149   20.5693  -34.1871 H   0  0  0  0  0  0  0  0  0  0  0  0
   -2.8590   15.9280  -33.7640 H   0  0  0  0  0  0  0  0  0  0  0  0
    0.5931   18.0419  -31.9491 H   0  0  0  0  0  0  0  0  0  0  0  0
    1.1647   16.3596  -32.0481 H   0  0  0  0  0  0  0  0  0  0  0  0
    2.5336   17.4819  -33.6291 H   0  0  0  0  0  0  0  0  0  0  0  0
    1.2060   16.7959  -34.6494 H   0  0  0  0  0  0  0  0  0  0  0  0
    0.3294   18.3039  -36.2697 H   0  0  0  0  0  0  0  0  0  0  0  0
   -0.1700   20.6489  -36.9157 H   0  0  0  0  0  0  0  0  0  0  0  0
   -0.6650   23.0330  -35.7850 H   0  0  0  0  0  0  0  0  0  0  0  0
    1.3365   22.0516  -33.1491 H   0  0  0  0  0  0  0  0  0  0  0  0
    1.8429   19.7363  -32.4912 H   0  0  0  0  0  0  0  0  0  0  0  0
   -0.6090   19.2640  -32.8830 H   0  0  0  0  0  0  0  0  0  0  0  0
   -4.3037   22.6342  -32.6723 H   0  0  0  0  0  0  0  0  0  0  0  0
  1  2  1  0
  2  3  1  0
  3  4  2  0
  3  5  1  0
  5  6  2  0
  6  7  1  0
  7  8  2  0
  8  9  1  0
  9 10  1  0
 10 11  1  0
 11 12  2  0
 12 13  1  0
 13 14  2  0
 14 15  1  0
 15 16  1  0
 16 17  2  0
 17 18  1  0
 18 19  2  0
 19 20  1  0
 20 21  1  0
 20 22  2  0
 13 23  1  0
 23 24  1  0
 24 25  2  0
 25 26  1  0
 26 27  1  0
 27 28  1  0
 28 29  2  0
 29 30  1  0
 30 31  2  0
 31 32  1  0
 31 33  1  0
 33 34  2  0
 24 35  1  0
  9 36  2  0
 36  5  1  0
 35 11  1  0
 22 16  1  0
 34 28  1  0
  1 37  1  0
  1 38  1  0
  1 39  1  0
  2 40  1  0
  6 41  1  0
  7 42  1  0
  8 43  1  0
 10 44  1  0
 12 45  1  0
 15 46  1  0
 15 47  1  0
 17 48  1  0
 18 49  1  0
 19 50  1  0
 21 51  1  0
 21 52  1  0
 22 53  1  0
 23 54  1  0
 26 55  1  0
 26 56  1  0
 27 57  1  0
 27 58  1  0
 29 59  1  0
 30 60  1  0
 32 61  1  0
 33 62  1  0
 34 63  1  0
 35 64  1  0
 36 65  1  0
M  END
>  <smiles>  (28) 
CNC(=O)c1cccc(Nc2cc(=NCc3cccc(N)c3)[nH]c(=NCCc3ccc(O)cc3)[nH]2)c1

>  <score_type>  (28) 
oracle

>  <origin>  (28) 
adgpu

>  <m_score__min__energy>  (28) 
-11.029999999999999

>  <m_primary>  (28) 
energy

$$$$
28:0
     RDKit          3D

 61 64  0  0  0  0  0  0  0  0999 V2000
   -0.6100   21.3110  -28.4060 O   0  0  0  0  0  0  0  0  0  0  0  0
   -1.3390   22.1030  -29.4530 S   0  0  0  0  0  0  0  0  0  0  0  0
   -0.5120   23.3140  -29.7780 O   0  0  0  0  0  0  0  0  0  0  0  0
   -2.8820   22.6310  -28.8650 N   0  0  0  0  0  0  0  0  0  0  0  0
   -3.9220   23.2190  -29.6600 C   0  0  0  0  0  0  0  0  0  0  0  0
   -5.0950   22.5120  -29.9940 C   0  0  0  0  0  0  0  0  0  0  0  0
   -6.1330   23.1500  -30.6920 C   0  0  0  0  0  0  0  0  0  0  0  0
   -7.6690   22.3130  -30.9730 S   0  0  0  0  0  0  0  0  0  0  0  0
   -8.4820   23.1040  -31.9590 O   0  0  0  0  0  0  0  0  0  0  0  0
   -8.4410   22.2580  -29.6800 O   0  0  0  0  0  0  0  0  0  0  0  0
   -7.4380   20.6890  -31.5980 N   0  0  0  0  0  0  0  0  0  0  0  0
   -6.4770   20.7110  -32.7210 C   0  0  0  0  0  0  0  0  0  0  0  0
   -6.4890   19.3980  -33.5390 C   0  0  0  0  0  0  0  0  0  0  0  0
   -7.1420   18.2520  -32.7650 C   0  0  0  0  0  0  0  0  0  0  0  0
   -8.5720   18.6180  -32.3310 C   0  0  0  0  0  0  0  0  0  0  0  0
   -8.7280   20.1200  -32.0180 C   0  0  0  0  0  0  0  0  0  0  0  0
   -5.9800   24.4840  -31.0910 C   0  0  0  0  0  0  0  0  0  0  0  0
   -4.8140   25.1840  -30.7730 C   0  0  0  0  0  0  0  0  0  0  0  0
   -3.7950   24.5610  -30.0460 C   0  0  0  0  0  0  0  0  0  0  0  0
   -2.6540   25.2820  -29.7100 O   0  0  0  0  0  0  0  0  0  0  0  0
   -1.5880   21.1780  -30.9290 C   0  0  0  0  0  0  0  0  0  0  0  0
   -2.7410   20.4050  -31.1070 C   0  0  0  0  0  0  0  0  0  0  0  0
   -2.9870   19.7870  -32.3380 C   0  0  0  0  0  0  0  0  0  0  0  0
   -2.0790   19.9380  -33.4010 C   0  0  0  0  0  0  0  0  0  0  0  0
   -2.3530   19.3500  -34.6390 O   0  0  0  0  0  0  0  0  0  0  0  0
   -0.9010   20.6900  -33.2140 C   0  0  0  0  0  0  0  0  0  0  0  0
    0.2860   20.9040  -34.5090 S   0  0  0  0  0  0  0  0  0  0  0  0
    0.9920   22.2220  -34.3380 O   0  0  0  0  0  0  0  0  0  0  0  0
   -0.4510   20.9560  -35.8210 O   0  0  0  0  0  0  0  0  0  0  0  0
    1.4680   19.6080  -34.5690 N   0  0  0  0  0  0  0  0  0  0  0  0
    1.2520   18.5710  -33.5350 C   0  0  0  0  0  0  0  0  0  0  0  0
    0.6000   17.2950  -34.0910 C   0  0  0  0  0  0  0  0  0  0  0  0
   -0.2010   17.6020  -35.2100 O   0  0  0  0  0  0  0  0  0  0  0  0
    0.6320   17.9650  -36.2950 C   0  0  0  0  0  0  0  0  0  0  0  0
    1.6530   19.0700  -35.9310 C   0  0  0  0  0  0  0  0  0  0  0  0
   -0.6630   21.2990  -31.9740 C   0  0  0  0  0  0  0  0  0  0  0  0
   -5.1976   21.4552  -29.7064 H   0  0  0  0  0  0  0  0  0  0  0  0
   -6.7354   21.5453  -33.3897 H   0  0  0  0  0  0  0  0  0  0  0  0
   -5.4696   20.8297  -32.2956 H   0  0  0  0  0  0  0  0  0  0  0  0
   -7.0504   19.5639  -34.4703 H   0  0  0  0  0  0  0  0  0  0  0  0
   -5.4465   19.1174  -33.7501 H   0  0  0  0  0  0  0  0  0  0  0  0
   -7.1792   17.3601  -33.4078 H   0  0  0  0  0  0  0  0  0  0  0  0
   -6.5437   18.0551  -31.8632 H   0  0  0  0  0  0  0  0  0  0  0  0
   -9.2657   18.3529  -33.1425 H   0  0  0  0  0  0  0  0  0  0  0  0
   -8.7949   18.0597  -31.4098 H   0  0  0  0  0  0  0  0  0  0  0  0
   -9.0800   20.6441  -32.9188 H   0  0  0  0  0  0  0  0  0  0  0  0
   -9.4564   20.2426  -31.2029 H   0  0  0  0  0  0  0  0  0  0  0  0
   -6.7811   24.9821  -31.6568 H   0  0  0  0  0  0  0  0  0  0  0  0
   -4.6969   26.2291  -31.0956 H   0  0  0  0  0  0  0  0  0  0  0  0
   -3.4544   20.2832  -30.2786 H   0  0  0  0  0  0  0  0  0  0  0  0
   -3.8945   19.1805  -32.4748 H   0  0  0  0  0  0  0  0  0  0  0  0
   -1.6270   19.2030  -35.3350 H   0  0  0  0  0  0  0  0  0  0  0  0
    2.2252   18.3050  -33.0967 H   0  0  0  0  0  0  0  0  0  0  0  0
    0.5653   18.9916  -32.7856 H   0  0  0  0  0  0  0  0  0  0  0  0
    1.3865   16.5869  -34.3911 H   0  0  0  0  0  0  0  0  0  0  0  0
   -0.0326   16.8473  -33.3104 H   0  0  0  0  0  0  0  0  0  0  0  0
    1.1841   17.0732  -36.6266 H   0  0  0  0  0  0  0  0  0  0  0  0
   -0.0168   18.3651  -37.0881 H   0  0  0  0  0  0  0  0  0  0  0  0
    2.6661   18.6479  -36.0054 H   0  0  0  0  0  0  0  0  0  0  0  0
    1.4987   19.9016  -36.6343 H   0  0  0  0  0  0  0  0  0  0  0  0
    0.2596   21.8778  -31.8200 H   0  0  0  0  0  0  0  0  0  0  0  0
  1  2  2  0
  2  3  2  0
  2  4  1  0
  4  5  1  0
  5  6  2  0
  6  7  1  0
  7  8  1  0
  8  9  2  0
  8 10  2  0
  8 11  1  0
 11 12  1  0
 12 13  1  0
 13 14  1  0
 14 15  1  0
 15 16  1  0
  7 17  2  0
 17 18  1  0
 18 19  2  0
 19 20  1  0
  2 21  1  0
 21 22  2  0
 22 23  1  0
 23 24  2  0
 24 25  1  0
 24 26  1  0
 26 27  1  0
 27 28  2  0
 27 29  2  0
 27 30  1  0
 30 31  1  0
 31 32  1  0
 32 33  1  0
 33 34  1  0
 34 35  1  0
 26 36  2  0
 19  5  1  0
 36 21  1  0
 16 11  1  0
 35 30  1  0
  6 37  1  0
 12 38  1  0
 12 39  1  0
 13 40  1  0
 13 41  1  0
 14 42  1  0
 14 43  1  0
 15 44  1  0
 15 45  1  0
 16 46  1  0
 16 47  1  0
 17 48  1  0
 18 49  1  0
 22 50  1  0
 23 51  1  0
 25 52  1  0
 31 53  1  0
 31 54  1  0
 32 55  1  0
 32 56  1  0
 34 57  1  0
 34 58  1  0
 35 59  1  0
 35 60  1  0
 36 61  1  0
M  CHG  2   4  -1  20  -1
M  END
>  <UniqueID>  (29) 
27

>  <SMILES>  (29) 
O=S(=O)([N-]c1cc(S(=O)(=O)N2CCCCC2)ccc1[O-])c1ccc(O)c(S(=O)(=O)N2CCOCC2)c1

>  <Energy>  (29) 
79.94250324818566

>  <Genealogy>  (29) 
O=S(=O)([N-]c1cc(S(=O)(=O)N2CCCCC2)ccc1[O-])c1ccc(O)c(S(=O)(=O)N2CCOCC2)c1 (protonated)
O=S(=O)([N-]c1cc(S(=O)(=O)N2CCCCC2)ccc1[O-])c1ccc(O)c(S(=O)(=O)N2CCOCC2)c1 (3D coordinates assigned)
O=S(=O)([N-]c1cc(S(=O)(=O)N2CCCCC2)ccc1[O-])c1ccc(O)c(S(=O)(=O)N2CCOCC2)c1 (nonaromatic ring conformer: 79.94250324818566 kcal/mol)

>  <smiles>  (29) 
O=S(=O)(Nc1cc(S(=O)(=O)N2CCCCC2)ccc1O)c1ccc(O)c(S(=O)(=O)N2CCOCC2)c1

>  <score_type>  (29) 
oracle

>  <origin>  (29) 
adgpu

>  <m_score__min__energy>  (29) 
-14.81

>  <m_primary>  (29) 
energy

$$$$
29:0
     RDKit          3D

 57 60  0  0  0  0  0  0  0  0999 V2000
   -8.9800   19.9600  -31.6220 C   0  0  0  0  0  0  0  0  0  0  0  0
   -8.0050   21.1030  -31.7200 C   0  0  0  0  0  0  0  0  0  0  0  0
   -8.3740   22.3530  -31.1930 C   0  0  0  0  0  0  0  0  0  0  0  0
   -7.5050   23.4420  -31.2690 C   0  0  0  0  0  0  0  0  0  0  0  0
   -6.2450   23.3040  -31.8560 C   0  0  0  0  0  0  0  0  0  0  0  0
   -5.3940   24.4570  -31.9380 N   0  0  0  0  0  0  0  0  0  0  0  0
   -5.0100   25.3000  -30.8460 C   0  0  0  0  0  0  0  0  0  0  0  0
   -5.8930   25.9840  -30.2640 O   0  0  0  0  0  0  0  0  0  0  0  0
   -3.6650   25.2870  -30.3570 N   0  0  0  0  0  0  0  0  0  0  0  0
   -3.0830   24.3460  -29.4420 C   0  0  0  0  0  0  0  0  0  0  0  0
   -3.7780   23.1970  -29.0410 C   0  0  0  0  0  0  0  0  0  0  0  0
   -3.2050   22.3070  -28.1390 C   0  0  0  0  0  0  0  0  0  0  0  0
   -1.9340   22.5500  -27.5960 C   0  0  0  0  0  0  0  0  0  0  0  0
   -1.3550   21.5270  -26.6550 C   0  0  0  0  0  0  0  0  0  0  0  0
   -1.2510   23.7500  -27.9280 C   0  0  0  0  0  0  0  0  0  0  0  0
    0.3360   24.1450  -27.2260 S   0  0  0  0  0  0  0  0  0  0  0  0
    1.0830   22.8830  -26.8840 O   0  0  0  0  0  0  0  0  0  0  0  0
    1.1760   24.9150  -28.2050 O   0  0  0  0  0  0  0  0  0  0  0  0
    0.0720   25.1490  -25.7660 C   0  0  0  0  0  0  0  0  0  0  0  0
   -1.3840   25.3320  -25.3710 C   0  0  0  0  0  0  0  0  0  0  0  0
   -0.4860   24.4060  -24.5650 C   0  0  0  0  0  0  0  0  0  0  0  0
   -1.8240   24.6280  -28.8770 C   0  0  0  0  0  0  0  0  0  0  0  0
   -1.1270   25.7770  -29.2620 O   0  0  0  0  0  0  0  0  0  0  0  0
   -5.8690   22.0610  -32.3960 C   0  0  0  0  0  0  0  0  0  0  0  0
   -6.7210   20.9490  -32.3010 C   0  0  0  0  0  0  0  0  0  0  0  0
   -6.1670   19.4020  -32.9600 S   0  0  0  0  0  0  0  0  0  0  0  0
   -7.1120   18.2970  -32.5760 O   0  0  0  0  0  0  0  0  0  0  0  0
   -6.1260   19.4880  -34.4600 O   0  0  0  0  0  0  0  0  0  0  0  0
   -4.5990   19.0640  -32.3030 N   0  0  0  0  0  0  0  0  0  0  0  0
   -3.4440   19.9070  -32.4080 C   0  0  0  0  0  0  0  0  0  0  0  0
   -3.1140   20.8430  -31.4100 C   0  0  0  0  0  0  0  0  0  0  0  0
   -1.9740   21.6430  -31.5460 C   0  0  0  0  0  0  0  0  0  0  0  0
   -1.1690   21.5270  -32.6850 C   0  0  0  0  0  0  0  0  0  0  0  0
   -1.5140   20.6250  -33.6950 C   0  0  0  0  0  0  0  0  0  0  0  0
   -2.6510   19.8220  -33.5630 C   0  0  0  0  0  0  0  0  0  0  0  0
   -2.9880   18.9330  -34.5800 O   0  0  0  0  0  0  0  0  0  0  0  0
   -9.1736   19.7330  -30.5632 H   0  0  0  0  0  0  0  0  0  0  0  0
   -9.9227   20.2388  -32.1156 H   0  0  0  0  0  0  0  0  0  0  0  0
   -8.5560   19.0731  -32.1156 H   0  0  0  0  0  0  0  0  0  0  0  0
   -9.3578   22.4738  -30.7159 H   0  0  0  0  0  0  0  0  0  0  0  0
   -7.8145   24.4166  -30.8636 H   0  0  0  0  0  0  0  0  0  0  0  0
   -4.7827   22.9979  -29.4421 H   0  0  0  0  0  0  0  0  0  0  0  0
   -3.7554   21.4004  -27.8473 H   0  0  0  0  0  0  0  0  0  0  0  0
   -1.5332   21.8419  -25.6162 H   0  0  0  0  0  0  0  0  0  0  0  0
   -1.8360   20.5535  -26.8307 H   0  0  0  0  0  0  0  0  0  0  0  0
   -0.2727   21.4383  -26.8307 H   0  0  0  0  0  0  0  0  0  0  0  0
    0.9252   25.8220  -25.9368 H   0  0  0  0  0  0  0  0  0  0  0  0
   -1.7211   26.2855  -24.9383 H   0  0  0  0  0  0  0  0  0  0  0  0
   -2.3497   25.2250  -25.8867 H   0  0  0  0  0  0  0  0  0  0  0  0
   -0.1738   24.6896  -23.5491 H   0  0  0  0  0  0  0  0  0  0  0  0
   -0.5334   23.3514  -24.2560 H   0  0  0  0  0  0  0  0  0  0  0  0
   -0.1290   25.8820  -29.1360 H   0  0  0  0  0  0  0  0  0  0  0  0
   -4.8959   21.9588  -32.8987 H   0  0  0  0  0  0  0  0  0  0  0  0
   -3.7537   20.9459  -30.5211 H   0  0  0  0  0  0  0  0  0  0  0  0
   -1.7105   22.3633  -30.7575 H   0  0  0  0  0  0  0  0  0  0  0  0
   -0.2650   22.1457  -32.7851 H   0  0  0  0  0  0  0  0  0  0  0  0
   -0.8891   20.5464  -34.5968 H   0  0  0  0  0  0  0  0  0  0  0  0
  1  2  1  0
  2  3  2  0
  3  4  1  0
  4  5  2  0
  5  6  1  0
  6  7  1  0
  7  8  2  0
  7  9  1  0
  9 10  1  0
 10 11  2  0
 11 12  1  0
 12 13  2  0
 13 14  1  0
 13 15  1  0
 15 16  1  0
 16 17  2  0
 16 18  2  0
 16 19  1  0
 19 20  1  0
 20 21  1  0
 15 22  2  0
 22 23  1  0
  5 24  1  0
 24 25  2  0
 25 26  1  0
 26 27  2  0
 26 28  2  0
 26 29  1  0
 29 30  1  0
 30 31  2  0
 31 32  1  0
 32 33  2  0
 33 34  1  0
 34 35  2  0
 35 36  1  0
 25  2  1  0
 35 30  1  0
 22 10  1  0
 21 19  1  0
  1 37  1  0
  1 38  1  0
  1 39  1  0
  3 40  1  0
  4 41  1  0
 11 42  1  0
 12 43  1  0
 14 44  1  0
 14 45  1  0
 14 46  1  0
 19 47  1  0
 20 48  1  0
 20 49  1  0
 21 50  1  0
 21 51  1  0
 23 52  1  0
 24 53  1  0
 31 54  1  0
 32 55  1  0
 33 56  1  0
 34 57  1  0
M  CHG  4   6  -1   9  -1  29  -1  36  -1
M  END
>  <UniqueID>  (30) 
28

>  <SMILES>  (30) 
Cc1ccc([N-]C(=O)[N-]c2ccc(C)c(S(=O)(=O)C3CC3)c2O)cc1S(=O)(=O)[N-]c1ccccc1[O-]

>  <Energy>  (30) 
342.02121077274484

>  <Genealogy>  (30) 
Cc1ccc([N-]C(=O)[N-]c2ccc(C)c(S(=O)(=O)C3CC3)c2O)cc1S(=O)(=O)[N-]c1ccccc1[O-] (protonated)
Cc1ccc([N-]C(=O)[N-]c2ccc(C)c(S(=O)(=O)C3CC3)c2O)cc1S(=O)(=O)[N-]c1ccccc1[O-] (3D coordinates assigned)
Cc1ccc([N-]C(=O)[N-]c2ccc(C)c(S(=O)(=O)C3CC3)c2O)cc1S(=O)(=O)[N-]c1ccccc1[O-] (nonaromatic ring conformer: 342.02121077274484 kcal/mol)

>  <smiles>  (30) 
Cc1ccc(NC(=O)Nc2ccc(C)c(S(=O)(=O)C3CC3)c2O)cc1S(=O)(=O)Nc1ccccc1O

>  <score_type>  (30) 
oracle

>  <origin>  (30) 
adgpu

>  <m_score__min__energy>  (30) 
-15.449999999999999

>  <m_primary>  (30) 
energy

$$$$
30:0
     RDKit          3D

 57 60  0  0  0  0  0  0  0  0999 V2000
   -0.4668   28.1527  -23.6346 H   0  0  0  0  0  0  0  0  0  0  0  0
   -0.4220   27.5370  -24.5450 C   0  0  0  0  0  0  0  0  0  0  0  0
   -0.2380   28.1430  -25.7910 C   0  0  0  0  0  0  0  0  0  0  0  0
   -0.1441   29.2367  -25.8611 H   0  0  0  0  0  0  0  0  0  0  0  0
   -0.1730   27.3610  -26.9490 C   0  0  0  0  0  0  0  0  0  0  0  0
   -0.0371   27.8438  -27.9280 H   0  0  0  0  0  0  0  0  0  0  0  0
   -0.2800   25.9670  -26.8690 C   0  0  0  0  0  0  0  0  0  0  0  0
   -0.2260   25.2180  -28.0530 O   0  0  0  0  0  0  0  0  0  0  0  0
   -1.3070   24.5420  -28.6370 C   0  0  0  0  0  0  0  0  0  0  0  0
   -2.6390   24.8640  -28.3330 C   0  0  0  0  0  0  0  0  0  0  0  0
   -2.8571   25.6783  -27.6263 H   0  0  0  0  0  0  0  0  0  0  0  0
   -3.6900   24.1560  -28.9230 C   0  0  0  0  0  0  0  0  0  0  0  0
   -4.7297   24.4257  -28.6858 H   0  0  0  0  0  0  0  0  0  0  0  0
   -3.4300   23.1010  -29.8180 C   0  0  0  0  0  0  0  0  0  0  0  0
   -4.5390   22.3410  -30.4520 C   0  0  0  0  0  0  0  0  0  0  0  0
   -6.1100   22.9400  -30.7150 S   0  0  0  0  0  0  0  0  0  0  0  0
   -6.6910   21.5400  -31.4350 C   0  0  0  0  0  0  0  0  0  0  0  0
   -7.9490   21.2540  -31.9450 C   0  0  0  0  0  0  0  0  0  0  0  0
   -8.8590   22.1260  -31.8950 O   0  0  0  0  0  0  0  0  0  0  0  0
   -8.1720   20.0130  -32.5020 N   0  0  0  0  0  0  0  0  0  0  0  0
   -9.4870   19.6680  -33.0690 C   0  0  0  0  0  0  0  0  0  0  0  0
  -10.2005   19.4808  -32.2530 H   0  0  0  0  0  0  0  0  0  0  0  0
   -9.8492   20.5015  -33.6887 H   0  0  0  0  0  0  0  0  0  0  0  0
   -9.3933   18.7640  -33.6887 H   0  0  0  0  0  0  0  0  0  0  0  0
   -7.1500   19.0820  -32.5390 C   0  0  0  0  0  0  0  0  0  0  0  0
   -7.3580   17.9080  -33.0700 N   0  0  0  0  0  0  0  0  0  0  0  0
   -6.3540   16.8520  -33.2080 C   0  0  0  0  0  0  0  0  0  0  0  0
   -5.5912   16.9802  -32.4259 H   0  0  0  0  0  0  0  0  0  0  0  0
   -6.8601   15.8806  -33.1073 H   0  0  0  0  0  0  0  0  0  0  0  0
   -5.6700   16.8980  -34.5850 C   0  0  0  0  0  0  0  0  0  0  0  0
   -5.0773   15.9794  -34.7073 H   0  0  0  0  0  0  0  0  0  0  0  0
   -6.4703   16.9898  -35.3341 H   0  0  0  0  0  0  0  0  0  0  0  0
   -4.7330   18.1100  -34.7830 C   0  0  0  0  0  0  0  0  0  0  0  0
   -4.0186   17.8646  -35.5826 H   0  0  0  0  0  0  0  0  0  0  0  0
   -5.3780   18.9663  -35.0293 H   0  0  0  0  0  0  0  0  0  0  0  0
   -3.9620   18.4970  -33.5760 N   0  0  0  0  0  0  0  0  0  0  0  0
   -4.6160   18.7000  -32.7860 H   0  0  0  0  0  0  0  0  0  0  0  0
   -3.2170   19.7400  -33.8460 C   0  0  0  0  0  0  0  0  0  0  0  0
   -2.9340   20.2121  -32.8936 H   0  0  0  0  0  0  0  0  0  0  0  0
   -2.3101   19.5060  -34.4229 H   0  0  0  0  0  0  0  0  0  0  0  0
   -3.8509   20.4294  -34.4229 H   0  0  0  0  0  0  0  0  0  0  0  0
   -3.0190   17.4410  -33.1600 C   0  0  0  0  0  0  0  0  0  0  0  0
   -2.9794   17.3967  -32.0616 H   0  0  0  0  0  0  0  0  0  0  0  0
   -3.3572   16.4713  -33.5541 H   0  0  0  0  0  0  0  0  0  0  0  0
   -2.0174   17.6678  -33.5541 H   0  0  0  0  0  0  0  0  0  0  0  0
   -5.9180   19.3880  -32.0290 N   0  0  0  0  0  0  0  0  0  0  0  0
   -5.6920   20.6040  -31.4830 C   0  0  0  0  0  0  0  0  0  0  0  0
   -4.4760   21.0280  -30.9400 C   0  0  0  0  0  0  0  0  0  0  0  0
   -3.5720   20.4026  -30.9000 H   0  0  0  0  0  0  0  0  0  0  0  0
   -2.0910   22.7750  -30.1040 C   0  0  0  0  0  0  0  0  0  0  0  0
   -1.8675   21.9536  -30.8007 H   0  0  0  0  0  0  0  0  0  0  0  0
   -1.0430   23.4840  -29.5120 C   0  0  0  0  0  0  0  0  0  0  0  0
   -0.0021   23.2078  -29.7360 H   0  0  0  0  0  0  0  0  0  0  0  0
   -0.4850   25.3640  -25.6130 C   0  0  0  0  0  0  0  0  0  0  0  0
   -0.5952   24.2719  -25.5411 H   0  0  0  0  0  0  0  0  0  0  0  0
   -0.5490   26.1480  -24.4570 C   0  0  0  0  0  0  0  0  0  0  0  0
   -0.6995   25.6710  -23.4773 H   0  0  0  0  0  0  0  0  0  0  0  0
  1  2  1  0
  2  3  2  0
  3  4  1  0
  3  5  1  0
  5  6  1  0
  5  7  2  0
  7  8  1  0
  8  9  1  0
  9 10  2  0
 10 11  1  0
 10 12  1  0
 12 13  1  0
 12 14  2  0
 14 15  1  0
 15 16  1  0
 16 17  1  0
 17 18  1  0
 18 19  2  0
 18 20  1  0
 20 21  1  0
 21 22  1  0
 21 23  1  0
 21 24  1  0
 20 25  1  0
 25 26  2  0
 26 27  1  0
 27 28  1  0
 27 29  1  0
 27 30  1  0
 30 31  1  0
 30 32  1  0
 30 33  1  0
 33 34  1  0
 33 35  1  0
 33 36  1  0
 36 37  1  0
 36 38  1  0
 38 39  1  0
 38 40  1  0
 38 41  1  0
 36 42  1  0
 42 43  1  0
 42 44  1  0
 42 45  1  0
 25 46  1  0
 46 47  1  0
 47 48  1  0
 48 49  1  0
 14 50  1  0
 50 51  1  0
 50 52  2  0
 52 53  1  0
  7 54  1  0
 54 55  1  0
 54 56  2  0
 56 57  1  0
 56  2  1  0
 52  9  1  0
 48 15  2  0
 47 17  2  0
M  CHG  2  36   1  46  -1
M  END
>  <UniqueID>  (31) 
29

>  <SMILES>  (31) 
Cn1c(=O)c2sc(-c3ccc(Oc4ccccc4)cc3)cc2[n-]/c1=N\CCC[NH+](C)C

>  <Energy>  (31) 
105.09479114465184

>  <Genealogy>  (31) 
Cn1c(=NCCC[NH+](C)C)[n-]c2cc(-c3ccc(Oc4ccccc4)cc3)sc2c1=O (protonated)
Cn1c(=O)c2sc(-c3ccc(Oc4ccccc4)cc3)cc2[n-]/c1=N\CCC[NH+](C)C (cis-trans isomerization)
Cn1c(=O)c2sc(-c3ccc(Oc4ccccc4)cc3)cc2[n-]/c1=N\CCC[NH+](C)C (3D coordinates assigned)
Cn1c(=O)c2sc(-c3ccc(Oc4ccccc4)cc3)cc2[n-]/c1=N\CCC[NH+](C)C (optimized conformer: 105.09479114465184 kcal/mol)

>  <smiles>  (31) 
CN(C)CCCN=c1[nH]c2cc(-c3ccc(Oc4ccccc4)cc3)sc2c(=O)n1C

>  <score_type>  (31) 
oracle

>  <origin>  (31) 
adgpu

>  <m_score__min__energy>  (31) 
-7.7199999999999998

>  <m_primary>  (31) 
energy

$$$$
31:0
     RDKit          3D

 66 69  0  0  0  0  0  0  0  0999 V2000
   -8.1200   19.4470  -31.6120 C   0  0  0  0  0  0  0  0  0  0  0  0
   -8.0140   20.6850  -32.3070 O   0  0  0  0  0  0  0  0  0  0  0  0
   -7.2580   21.7840  -31.8680 C   0  0  0  0  0  0  0  0  0  0  0  0
   -7.8040   22.7590  -31.0110 C   0  0  0  0  0  0  0  0  0  0  0  0
   -7.0340   23.8430  -30.5890 C   0  0  0  0  0  0  0  0  0  0  0  0
   -5.7060   23.9830  -31.0180 C   0  0  0  0  0  0  0  0  0  0  0  0
   -4.8920   25.1400  -30.5790 C   0  0  0  0  0  0  0  0  0  0  0  0
   -5.4210   26.2810  -30.5110 O   0  0  0  0  0  0  0  0  0  0  0  0
   -3.4990   25.0030  -30.2660 N   0  0  0  0  0  0  0  0  0  0  0  0
   -2.8830   23.8300  -29.7060 C   0  0  0  0  0  0  0  0  0  0  0  0
   -1.9830   23.0590  -30.4650 C   0  0  0  0  0  0  0  0  0  0  0  0
   -1.3880   21.9210  -29.9160 C   0  0  0  0  0  0  0  0  0  0  0  0
   -1.6940   21.5250  -28.6070 C   0  0  0  0  0  0  0  0  0  0  0  0
   -0.9200   20.1120  -27.8930 S   0  0  0  0  0  0  0  0  0  0  0  0
   -0.8030   18.8620  -29.0840 N   0  0  0  0  0  0  0  0  0  0  0  0
   -1.7320   19.6100  -26.7280 O   0  0  0  0  0  0  0  0  0  0  0  0
    0.4520   20.4840  -27.4030 O   0  0  0  0  0  0  0  0  0  0  0  0
   -2.6040   22.2760  -27.8530 C   0  0  0  0  0  0  0  0  0  0  0  0
   -3.2100   23.4240  -28.3960 C   0  0  0  0  0  0  0  0  0  0  0  0
   -4.1610   24.2380  -27.5630 C   0  0  0  0  0  0  0  0  0  0  0  0
   -5.1530   23.0090  -31.8610 C   0  0  0  0  0  0  0  0  0  0  0  0
   -5.9180   21.9140  -32.2930 C   0  0  0  0  0  0  0  0  0  0  0  0
   -5.2740   20.8800  -33.1890 C   0  0  0  0  0  0  0  0  0  0  0  0
   -3.9290   20.5060  -32.6980 N   0  0  0  0  0  0  0  0  0  0  0  0
   -2.9080   21.5140  -33.1030 C   0  0  0  0  0  0  0  0  0  0  0  0
   -1.6560   20.9210  -33.7720 C   0  0  0  0  0  0  0  0  0  0  0  0
   -1.2050   19.7290  -33.0480 N   0  0  0  0  0  0  0  0  0  0  0  0
    0.1760   19.5970  -32.6870 C   0  0  0  0  0  0  0  0  0  0  0  0
    0.4890   19.4210  -31.3720 N   0  0  0  0  0  0  0  0  0  0  0  0
    1.7660   19.2740  -30.9420 C   0  0  0  0  0  0  0  0  0  0  0  0
    2.8150   19.2900  -31.8570 C   0  0  0  0  0  0  0  0  0  0  0  0
    2.5370   19.4790  -33.2110 C   0  0  0  0  0  0  0  0  0  0  0  0
    1.2160   19.6690  -33.6500 C   0  0  0  0  0  0  0  0  0  0  0  0
    0.9600   19.8820  -35.1290 C   0  0  0  0  0  0  0  0  0  0  0  0
    0.6490   21.2030  -35.4080 F   0  0  0  0  0  0  0  0  0  0  0  0
    2.0850   19.5530  -35.8650 F   0  0  0  0  0  0  0  0  0  0  0  0
   -0.0870   19.0700  -35.5300 F   0  0  0  0  0  0  0  0  0  0  0  0
   -2.1890   18.7530  -32.5700 C   0  0  0  0  0  0  0  0  0  0  0  0
   -3.5860   19.1150  -33.0770 C   0  0  0  0  0  0  0  0  0  0  0  0
   -8.1041   19.6326  -30.5279 H   0  0  0  0  0  0  0  0  0  0  0  0
   -9.0638   18.9526  -31.8856 H   0  0  0  0  0  0  0  0  0  0  0  0
   -7.2740   18.7993  -31.8856 H   0  0  0  0  0  0  0  0  0  0  0  0
   -8.8461   22.6651  -30.6716 H   0  0  0  0  0  0  0  0  0  0  0  0
   -7.4717   24.5937  -29.9146 H   0  0  0  0  0  0  0  0  0  0  0  0
   -1.7465   23.3547  -31.4978 H   0  0  0  0  0  0  0  0  0  0  0  0
   -0.6760   21.3329  -30.5137 H   0  0  0  0  0  0  0  0  0  0  0  0
   -1.2160   19.2380  -29.9680 H   0  0  0  0  0  0  0  0  0  0  0  0
    0.2130   18.7060  -29.2690 H   0  0  0  0  0  0  0  0  0  0  0  0
   -2.8475   21.9655  -26.8262 H   0  0  0  0  0  0  0  0  0  0  0  0
   -3.9564   24.0629  -26.4965 H   0  0  0  0  0  0  0  0  0  0  0  0
   -4.0271   25.3056  -27.7916 H   0  0  0  0  0  0  0  0  0  0  0  0
   -5.1952   23.9410  -27.7916 H   0  0  0  0  0  0  0  0  0  0  0  0
   -4.1070   23.1038  -32.1880 H   0  0  0  0  0  0  0  0  0  0  0  0
   -5.9089   19.9821  -33.2138 H   0  0  0  0  0  0  0  0  0  0  0  0
   -5.1688   21.3102  -34.1959 H   0  0  0  0  0  0  0  0  0  0  0  0
   -3.3773   22.2130  -33.8109 H   0  0  0  0  0  0  0  0  0  0  0  0
   -2.5668   22.0024  -32.1783 H   0  0  0  0  0  0  0  0  0  0  0  0
   -1.8957   20.6456  -34.8096 H   0  0  0  0  0  0  0  0  0  0  0  0
   -0.8532   21.6729  -33.7559 H   0  0  0  0  0  0  0  0  0  0  0  0
    1.9735   19.1420  -29.8698 H   0  0  0  0  0  0  0  0  0  0  0  0
    3.8521   19.1551  -31.5161 H   0  0  0  0  0  0  0  0  0  0  0  0
    3.3595   19.4793  -33.9414 H   0  0  0  0  0  0  0  0  0  0  0  0
   -1.9170   17.7531  -32.9390 H   0  0  0  0  0  0  0  0  0  0  0  0
   -2.1947   18.7603  -31.4700 H   0  0  0  0  0  0  0  0  0  0  0  0
   -3.6093   19.0217  -34.1728 H   0  0  0  0  0  0  0  0  0  0  0  0
   -4.3184   18.4308  -32.6236 H   0  0  0  0  0  0  0  0  0  0  0  0
  1  2  1  0
  2  3  1  0
  3  4  2  0
  4  5  1  0
  5  6  2  0
  6  7  1  0
  7  8  2  0
  7  9  1  0
  9 10  1  0
 10 11  2  0
 11 12  1  0
 12 13  2  0
 13 14  1  0
 14 15  1  0
 14 16  2  0
 14 17  2  0
 13 18  1  0
 18 19  2  0
 19 20  1  0
  6 21  1  0
 21 22  2  0
 22 23  1  0
 23 24  1  0
 24 25  1  0
 25 26  1  0
 26 27  1  0
 27 28  1  0
 28 29  2  0
 29 30  1  0
 30 31  2  0
 31 32  1  0
 32 33  2  0
 33 34  1  0
 34 35  1  0
 34 36  1  0
 34 37  1  0
 27 38  1  0
 38 39  1  0
 22  3  1  0
 39 24  1  0
 19 10  1  0
 33 28  1  0
  1 40  1  0
  1 41  1  0
  1 42  1  0
  4 43  1  0
  5 44  1  0
 11 45  1  0
 12 46  1  0
 15 47  1  0
 15 48  1  0
 18 49  1  0
 20 50  1  0
 20 51  1  0
 20 52  1  0
 21 53  1  0
 23 54  1  0
 23 55  1  0
 25 56  1  0
 25 57  1  0
 26 58  1  0
 26 59  1  0
 30 60  1  0
 31 61  1  0
 32 62  1  0
 38 63  1  0
 38 64  1  0
 39 65  1  0
 39 66  1  0
M  CHG  1   9  -1
M  END
>  <UniqueID>  (32) 
30

>  <SMILES>  (32) 
COc1ccc(C(=O)[N-]c2ccc(S(N)(=O)=O)cc2C)cc1CN1CCN(c2ncccc2C(F)(F)F)CC1

>  <Energy>  (32) 
90.87533506770068

>  <Genealogy>  (32) 
COc1ccc(C(=O)[N-]c2ccc(S(N)(=O)=O)cc2C)cc1CN1CCN(c2ncccc2C(F)(F)F)CC1 (protonated)
COc1ccc(C(=O)[N-]c2ccc(S(N)(=O)=O)cc2C)cc1CN1CCN(c2ncccc2C(F)(F)F)CC1 (3D coordinates assigned)
COc1ccc(C(=O)[N-]c2ccc(S(N)(=O)=O)cc2C)cc1CN1CCN(c2ncccc2C(F)(F)F)CC1 (nonaromatic ring conformer: 90.87533506770068 kcal/mol)

>  <smiles>  (32) 
COc1ccc(C(=O)Nc2ccc(S(N)(=O)=O)cc2C)cc1CN1CCN(c2ncccc2C(F)(F)F)CC1

>  <score_type>  (32) 
oracle

>  <origin>  (32) 
adgpu

>  <m_score__min__energy>  (32) 
-11.32

>  <m_primary>  (32) 
energy

$$$$
32:0
     RDKit          3D

 45 48  0  0  0  0  0  0  0  0999 V2000
   -2.1053   22.0467  -28.7408 H   0  0  0  0  0  0  0  0  0  0  0  0
   -2.5520   22.8800  -29.3030 C   0  0  0  0  0  0  0  0  0  0  0  0
   -3.2480   22.8240  -30.4930 C   0  0  0  0  0  0  0  0  0  0  0  0
   -3.5320   21.6100  -31.2740 C   0  0  0  0  0  0  0  0  0  0  0  0
   -4.4690   20.8470  -30.9130 O   0  0  0  0  0  0  0  0  0  0  0  0
   -2.7730   21.3180  -32.4590 N   0  0  0  0  0  0  0  0  0  0  0  0
   -2.2350   22.0980  -32.9010 H   0  0  0  0  0  0  0  0  0  0  0  0
   -2.8020   20.0530  -33.1430 C   0  0  0  0  0  0  0  0  0  0  0  0
   -1.6250   19.5590  -33.7250 C   0  0  0  0  0  0  0  0  0  0  0  0
   -0.6983   20.1490  -33.6687 H   0  0  0  0  0  0  0  0  0  0  0  0
   -1.6220   18.3220  -34.3760 C   0  0  0  0  0  0  0  0  0  0  0  0
   -0.6965   17.9478  -34.8379 H   0  0  0  0  0  0  0  0  0  0  0  0
   -2.7930   17.5580  -34.4420 C   0  0  0  0  0  0  0  0  0  0  0  0
   -2.7980   16.0020  -35.2680 S   0  0  0  0  0  0  0  0  0  0  0  0
   -1.4120   15.7120  -35.7690 O   0  0  0  0  0  0  0  0  0  0  0  0
   -3.7460   16.0250  -36.4350 O   0  0  0  0  0  0  0  0  0  0  0  0
   -3.2810   14.7470  -34.1710 N   0  0  0  0  0  0  0  0  0  0  0  0
   -2.5630   14.3320  -33.1710 C   0  0  0  0  0  0  0  0  0  0  0  0
   -2.9680   13.3540  -32.3410 N   0  0  0  0  0  0  0  0  0  0  0  0
   -2.0120   13.1930  -31.4710 O   0  0  0  0  0  0  0  0  0  0  0  0
   -1.0180   14.0210  -31.6990 C   0  0  0  0  0  0  0  0  0  0  0  0
    0.2410   14.0680  -30.9020 C   0  0  0  0  0  0  0  0  0  0  0  0
   -0.0034   14.0589  -29.8295 H   0  0  0  0  0  0  0  0  0  0  0  0
    0.8612   13.1924  -31.1442 H   0  0  0  0  0  0  0  0  0  0  0  0
    0.7942   14.9874  -31.1442 H   0  0  0  0  0  0  0  0  0  0  0  0
   -1.3130   14.7930  -32.8020 C   0  0  0  0  0  0  0  0  0  0  0  0
   -0.7050   15.5802  -33.2718 H   0  0  0  0  0  0  0  0  0  0  0  0
   -3.9640   18.0320  -33.8390 C   0  0  0  0  0  0  0  0  0  0  0  0
   -4.8830   17.4287  -33.8766 H   0  0  0  0  0  0  0  0  0  0  0  0
   -3.9690   19.2700  -33.1890 C   0  0  0  0  0  0  0  0  0  0  0  0
   -4.8908   19.6333  -32.7111 H   0  0  0  0  0  0  0  0  0  0  0  0
   -3.6300   24.0630  -30.8550 N   0  0  0  0  0  0  0  0  0  0  0  0
   -3.2030   24.9130  -29.9350 N   0  0  0  0  0  0  0  0  0  0  0  0
   -2.5450   24.2260  -28.9790 C   0  0  0  0  0  0  0  0  0  0  0  0
   -1.9260   24.8490  -27.7790 C   0  0  0  0  0  0  0  0  0  0  0  0
   -1.9580   24.1810  -26.5370 C   0  0  0  0  0  0  0  0  0  0  0  0
   -2.4368   23.1935  -26.4617 H   0  0  0  0  0  0  0  0  0  0  0  0
   -1.3870   24.7620  -25.4010 C   0  0  0  0  0  0  0  0  0  0  0  0
   -1.4184   24.2303  -24.4386 H   0  0  0  0  0  0  0  0  0  0  0  0
   -0.7780   26.0130  -25.4840 C   0  0  0  0  0  0  0  0  0  0  0  0
   -0.3308   26.4680  -24.5879 H   0  0  0  0  0  0  0  0  0  0  0  0
   -0.7360   26.6880  -26.7050 C   0  0  0  0  0  0  0  0  0  0  0  0
   -0.2541   27.6748  -26.7679 H   0  0  0  0  0  0  0  0  0  0  0  0
   -1.3030   26.1170  -27.8490 C   0  0  0  0  0  0  0  0  0  0  0  0
   -1.2300   26.8170  -29.0490 O   0  0  0  0  0  0  0  0  0  0  0  0
  1  2  1  0
  2  3  1  0
  3  4  1  0
  4  5  2  0
  4  6  1  0
  6  7  1  0
  6  8  1  0
  8  9  2  0
  9 10  1  0
  9 11  1  0
 11 12  1  0
 11 13  2  0
 13 14  1  0
 14 15  2  0
 14 16  2  0
 14 17  1  0
 17 18  2  0
 18 19  1  0
 19 20  1  0
 20 21  1  0
 21 22  1  0
 22 23  1  0
 22 24  1  0
 22 25  1  0
 21 26  2  0
 26 27  1  0
 13 28  1  0
 28 29  1  0
 28 30  2  0
 30 31  1  0
  3 32  2  0
 32 33  1  0
 33 34  1  0
 34 35  1  0
 35 36  2  0
 36 37  1  0
 36 38  1  0
 38 39  1  0
 38 40  2  0
 40 41  1  0
 40 42  1  0
 42 43  1  0
 42 44  2  0
 44 45  1  0
 34  2  2  0
 44 35  1  0
 30  8  1  0
 26 18  1  0
M  CHG  3  19  -1  33  -1  45  -1
M  END
>  <UniqueID>  (33) 
31

>  <SMILES>  (33) 
Cc1c/c(=N\S(=O)(=O)c2ccc(NC(=O)c3cc(-c4ccccc4[O-])[n-]n3)cc2)[n-]o1

>  <Energy>  (33) 
117.99079865987409

>  <Genealogy>  (33) 
Cc1cc(=NS(=O)(=O)c2ccc(NC(=O)c3cc(-c4ccccc4[O-])[n-]n3)cc2)[n-]o1 (protonated)
Cc1c/c(=N\S(=O)(=O)c2ccc(NC(=O)c3cc(-c4ccccc4[O-])[n-]n3)cc2)[n-]o1 (cis-trans isomerization)
Cc1c/c(=N\S(=O)(=O)c2ccc(NC(=O)c3cc(-c4ccccc4[O-])[n-]n3)cc2)[n-]o1 (3D coordinates assigned)
Cc1c/c(=N\S(=O)(=O)c2ccc(NC(=O)c3cc(-c4ccccc4[O-])[n-]n3)cc2)[n-]o1 (optimized conformer: 117.99079865987409 kcal/mol)

>  <smiles>  (33) 
Cc1cc(=NS(=O)(=O)c2ccc(NC(=O)c3cc(-c4ccccc4O)[nH]n3)cc2)[nH]o1

>  <score_type>  (33) 
oracle

>  <origin>  (33) 
adgpu

>  <m_score__min__energy>  (33) 
-12.449999999999999

>  <m_primary>  (33) 
energy

$$$$
33:0
     RDKit          3D

 42 44  0  0  0  0  0  0  0  0999 V2000
   -1.7470   20.5970  -33.8600 C   0  0  0  0  0  0  0  0  0  0  0  0
   -2.2950   21.2250  -32.6650 N   0  0  0  0  0  0  0  0  0  0  0  0
   -1.6970   21.2980  -31.4590 C   0  0  0  0  0  0  0  0  0  0  0  0
   -2.4780   22.0350  -30.5920 C   0  0  0  0  0  0  0  0  0  0  0  0
   -3.5820   22.4330  -31.3200 C   0  0  0  0  0  0  0  0  0  0  0  0
   -4.9250   23.3860  -30.7220 S   0  0  0  0  0  0  0  0  0  0  0  0
   -4.7960   24.8010  -31.2160 O   0  0  0  0  0  0  0  0  0  0  0  0
   -4.9040   23.4060  -29.2200 O   0  0  0  0  0  0  0  0  0  0  0  0
   -6.4310   22.6780  -31.2900 C   0  0  0  0  0  0  0  0  0  0  0  0
   -7.5680   23.4770  -31.4760 C   0  0  0  0  0  0  0  0  0  0  0  0
   -8.7580   22.9070  -31.9390 C   0  0  0  0  0  0  0  0  0  0  0  0
   -8.8150   21.5400  -32.2270 C   0  0  0  0  0  0  0  0  0  0  0  0
   -7.6780   20.7380  -32.0620 C   0  0  0  0  0  0  0  0  0  0  0  0
   -7.7450   19.0120  -32.4040 S   0  0  0  0  0  0  0  0  0  0  0  0
   -7.2980   18.2360  -31.1950 O   0  0  0  0  0  0  0  0  0  0  0  0
   -9.1630   18.6280  -32.7220 O   0  0  0  0  0  0  0  0  0  0  0  0
   -6.7200   18.6550  -33.7700 N   0  0  0  0  0  0  0  0  0  0  0  0
   -5.3970   19.2640  -33.6330 C   0  0  0  0  0  0  0  0  0  0  0  0
   -4.4320   18.3980  -34.4300 C   0  0  0  0  0  0  0  0  0  0  0  0
   -5.1400   17.0630  -34.6120 C   0  0  0  0  0  0  0  0  0  0  0  0
   -6.4830   17.2160  -33.9130 C   0  0  0  0  0  0  0  0  0  0  0  0
   -6.4900   21.3100  -31.5880 C   0  0  0  0  0  0  0  0  0  0  0  0
   -3.4430   21.9250  -32.5950 C   0  0  0  0  0  0  0  0  0  0  0  0
   -1.0498   19.7980  -33.5674 H   0  0  0  0  0  0  0  0  0  0  0  0
   -2.5654   20.1689  -34.4574 H   0  0  0  0  0  0  0  0  0  0  0  0
   -1.2120   21.3499  -34.4574 H   0  0  0  0  0  0  0  0  0  0  0  0
   -0.7306   20.8386  -31.2040 H   0  0  0  0  0  0  0  0  0  0  0  0
   -2.2647   22.2596  -29.5365 H   0  0  0  0  0  0  0  0  0  0  0  0
   -7.5239   24.5541  -31.2573 H   0  0  0  0  0  0  0  0  0  0  0  0
   -9.6505   23.5350  -32.0768 H   0  0  0  0  0  0  0  0  0  0  0  0
   -9.7546   21.0931  -32.5839 H   0  0  0  0  0  0  0  0  0  0  0  0
   -7.1810   19.0180  -34.6380 H   0  0  0  0  0  0  0  0  0  0  0  0
   -5.4076   20.2880  -34.0347 H   0  0  0  0  0  0  0  0  0  0  0  0
   -5.0959   19.3225  -32.5766 H   0  0  0  0  0  0  0  0  0  0  0  0
   -4.2202   18.8572  -35.4068 H   0  0  0  0  0  0  0  0  0  0  0  0
   -3.4670   18.2816  -33.9149 H   0  0  0  0  0  0  0  0  0  0  0  0
   -5.2853   16.8476  -35.6809 H   0  0  0  0  0  0  0  0  0  0  0  0
   -4.5550   16.2306  -34.1938 H   0  0  0  0  0  0  0  0  0  0  0  0
   -7.2798   16.7585  -34.5178 H   0  0  0  0  0  0  0  0  0  0  0  0
   -6.4792   16.7157  -32.9334 H   0  0  0  0  0  0  0  0  0  0  0  0
   -5.5981   20.6813  -31.4489 H   0  0  0  0  0  0  0  0  0  0  0  0
   -4.1550   22.0686  -33.4211 H   0  0  0  0  0  0  0  0  0  0  0  0
  1  2  1  0
  2  3  1  0
  3  4  2  0
  4  5  1  0
  5  6  1  0
  6  7  2  0
  6  8  2  0
  6  9  1  0
  9 10  2  0
 10 11  1  0
 11 12  2  0
 12 13  1  0
 13 14  1  0
 14 15  2  0
 14 16  2  0
 14 17  1  0
 17 18  1  0
 18 19  1  0
 19 20  1  0
 20 21  1  0
 13 22  2  0
  5 23  2  0
 23  2  1  0
 22  9  1  0
 21 17  1  0
  1 24  1  0
  1 25  1  0
  1 26  1  0
  3 27  1  0
  4 28  1  0
 10 29  1  0
 11 30  1  0
 12 31  1  0
 17 32  1  0
 18 33  1  0
 18 34  1  0
 19 35  1  0
 19 36  1  0
 20 37  1  0
 20 38  1  0
 21 39  1  0
 21 40  1  0
 22 41  1  0
 23 42  1  0
M  CHG  1  17   1
M  END
>  <UniqueID>  (34) 
32

>  <SMILES>  (34) 
Cn1ccc(S(=O)(=O)c2cccc(S(=O)(=O)[NH+]3CCCC3)c2)c1

>  <Energy>  (34) 
69.84478632296212

>  <Genealogy>  (34) 
Cn1ccc(S(=O)(=O)c2cccc(S(=O)(=O)[NH+]3CCCC3)c2)c1 (protonated)
Cn1ccc(S(=O)(=O)c2cccc(S(=O)(=O)[NH+]3CCCC3)c2)c1 (3D coordinates assigned)
Cn1ccc(S(=O)(=O)c2cccc(S(=O)(=O)[NH+]3CCCC3)c2)c1 (nonaromatic ring conformer: 69.84478632296212 kcal/mol)

>  <smiles>  (34) 
Cn1ccc(S(=O)(=O)c2cccc(S(=O)(=O)N3CCCC3)c2)c1

>  <score_type>  (34) 
oracle

>  <origin>  (34) 
adgpu

>  <m_score__min__energy>  (34) 
-8.6099999999999994

>  <m_primary>  (34) 
energy

$$$$
34:0
     RDKit          3D

 57 60  0  0  0  0  0  0  0  0999 V2000
   -5.9010   17.7910  -35.3570 O   0  0  0  0  0  0  0  0  0  0  0  0
   -5.6970   17.8900  -34.1180 C   0  0  0  0  0  0  0  0  0  0  0  0
   -4.6770   17.0980  -33.4920 N   0  0  0  0  0  0  0  0  0  0  0  0
   -3.3350   17.5130  -33.2000 C   0  0  0  0  0  0  0  0  0  0  0  0
   -2.3420   16.5340  -33.0710 C   0  0  0  0  0  0  0  0  0  0  0  0
   -1.0240   16.8960  -32.7870 C   0  0  0  0  0  0  0  0  0  0  0  0
   -0.6830   18.2420  -32.6480 C   0  0  0  0  0  0  0  0  0  0  0  0
   -1.6560   19.2370  -32.8040 C   0  0  0  0  0  0  0  0  0  0  0  0
   -1.2060   20.9370  -32.6500 S   0  0  0  0  0  0  0  0  0  0  0  0
    0.2660   21.0510  -32.3600 O   0  0  0  0  0  0  0  0  0  0  0  0
   -1.4980   21.6250  -33.9570 O   0  0  0  0  0  0  0  0  0  0  0  0
   -2.1210   21.6980  -31.3640 N   0  0  0  0  0  0  0  0  0  0  0  0
   -2.7820   20.6980  -30.5150 C   0  0  0  0  0  0  0  0  0  0  0  0
   -1.8720   20.4230  -29.3260 C   0  0  0  0  0  0  0  0  0  0  0  0
   -0.8460   21.5420  -29.3230 C   0  0  0  0  0  0  0  0  0  0  0  0
   -1.2390   22.4600  -30.4740 C   0  0  0  0  0  0  0  0  0  0  0  0
   -2.9810   18.8700  -33.0890 C   0  0  0  0  0  0  0  0  0  0  0  0
   -6.4700   18.8720  -33.3210 C   0  0  0  0  0  0  0  0  0  0  0  0
   -7.7110   18.5200  -32.7650 C   0  0  0  0  0  0  0  0  0  0  0  0
   -8.4470   19.4480  -32.0280 C   0  0  0  0  0  0  0  0  0  0  0  0
   -7.9600   20.7430  -31.8310 C   0  0  0  0  0  0  0  0  0  0  0  0
   -8.9360   21.8660  -30.8890 Cl  0  0  0  0  0  0  0  0  0  0  0  0
   -6.7200   21.1170  -32.3850 C   0  0  0  0  0  0  0  0  0  0  0  0
   -6.0800   22.7530  -32.1640 S   0  0  0  0  0  0  0  0  0  0  0  0
   -6.8760   23.6900  -33.0280 O   0  0  0  0  0  0  0  0  0  0  0  0
   -4.6450   22.8110  -32.6060 O   0  0  0  0  0  0  0  0  0  0  0  0
   -6.2210   23.2350  -30.4860 N   0  0  0  0  0  0  0  0  0  0  0  0
   -4.9470   23.0830  -29.7600 C   0  0  0  0  0  0  0  0  0  0  0  0
   -3.9270   24.1900  -30.1200 C   0  0  0  0  0  0  0  0  0  0  0  0
   -4.5090   25.3040  -30.7760 O   0  0  0  0  0  0  0  0  0  0  0  0
   -5.7090   25.6720  -30.1320 C   0  0  0  0  0  0  0  0  0  0  0  0
   -6.7890   24.5940  -30.3450 C   0  0  0  0  0  0  0  0  0  0  0  0
   -5.9810   20.1770  -33.1200 C   0  0  0  0  0  0  0  0  0  0  0  0
   -2.6024   15.4724  -33.1943 H   0  0  0  0  0  0  0  0  0  0  0  0
   -0.2534   16.1194  -32.6727 H   0  0  0  0  0  0  0  0  0  0  0  0
    0.3547   18.5227  -32.4149 H   0  0  0  0  0  0  0  0  0  0  0  0
   -2.8310   22.3360  -31.7920 H   0  0  0  0  0  0  0  0  0  0  0  0
   -3.7496   21.0859  -30.1639 H   0  0  0  0  0  0  0  0  0  0  0  0
   -2.9644   19.7729  -31.0815 H   0  0  0  0  0  0  0  0  0  0  0  0
   -2.4508   20.4315  -28.3906 H   0  0  0  0  0  0  0  0  0  0  0  0
   -1.3937   19.4353  -29.4021 H   0  0  0  0  0  0  0  0  0  0  0  0
   -0.8760   22.0881  -28.3686 H   0  0  0  0  0  0  0  0  0  0  0  0
    0.1776   21.1566  -29.4405 H   0  0  0  0  0  0  0  0  0  0  0  0
   -1.7684   23.3429  -30.0863 H   0  0  0  0  0  0  0  0  0  0  0  0
   -0.3464   22.8057  -31.0160 H   0  0  0  0  0  0  0  0  0  0  0  0
   -3.7465   19.6479  -33.2263 H   0  0  0  0  0  0  0  0  0  0  0  0
   -8.1059   17.5039  -32.9120 H   0  0  0  0  0  0  0  0  0  0  0  0
   -9.4176   19.1584  -31.5989 H   0  0  0  0  0  0  0  0  0  0  0  0
   -5.1488   23.1264  -28.6795 H   0  0  0  0  0  0  0  0  0  0  0  0
   -4.5091   22.1164  -30.0498 H   0  0  0  0  0  0  0  0  0  0  0  0
   -3.4525   24.5414  -29.1919 H   0  0  0  0  0  0  0  0  0  0  0  0
   -3.2013   23.7466  -30.8177 H   0  0  0  0  0  0  0  0  0  0  0  0
   -5.5207   25.7876  -29.0544 H   0  0  0  0  0  0  0  0  0  0  0  0
   -6.0650   26.6212  -30.5590 H   0  0  0  0  0  0  0  0  0  0  0  0
   -7.4698   24.6027  -29.4810 H   0  0  0  0  0  0  0  0  0  0  0  0
   -7.3155   24.8323  -31.2810 H   0  0  0  0  0  0  0  0  0  0  0  0
   -5.0074   20.4634  -33.5444 H   0  0  0  0  0  0  0  0  0  0  0  0
  1  2  2  0
  2  3  1  0
  3  4  1  0
  4  5  2  0
  5  6  1  0
  6  7  2  0
  7  8  1  0
  8  9  1  0
  9 10  2  0
  9 11  2  0
  9 12  1  0
 12 13  1  0
 13 14  1  0
 14 15  1  0
 15 16  1  0
  8 17  2  0
  2 18  1  0
 18 19  2  0
 19 20  1  0
 20 21  2  0
 21 22  1  0
 21 23  1  0
 23 24  1  0
 24 25  2  0
 24 26  2  0
 24 27  1  0
 27 28  1  0
 28 29  1  0
 29 30  1  0
 30 31  1  0
 31 32  1  0
 23 33  2  0
 17  4  1  0
 33 18  1  0
 16 12  1  0
 32 27  1  0
  5 34  1  0
  6 35  1  0
  7 36  1  0
 12 37  1  0
 13 38  1  0
 13 39  1  0
 14 40  1  0
 14 41  1  0
 15 42  1  0
 15 43  1  0
 16 44  1  0
 16 45  1  0
 17 46  1  0
 19 47  1  0
 20 48  1  0
 28 49  1  0
 28 50  1  0
 29 51  1  0
 29 52  1  0
 31 53  1  0
 31 54  1  0
 32 55  1  0
 32 56  1  0
 33 57  1  0
M  CHG  2   3  -1  12   1
M  END
>  <UniqueID>  (35) 
33

>  <SMILES>  (35) 
O=C([N-]c1cccc(S(=O)(=O)[NH+]2CCCC2)c1)c1ccc(Cl)c(S(=O)(=O)N2CCOCC2)c1

>  <Energy>  (35) 
76.98126662058488

>  <Genealogy>  (35) 
O=C([N-]c1cccc(S(=O)(=O)[NH+]2CCCC2)c1)c1ccc(Cl)c(S(=O)(=O)N2CCOCC2)c1 (protonated)
O=C([N-]c1cccc(S(=O)(=O)[NH+]2CCCC2)c1)c1ccc(Cl)c(S(=O)(=O)N2CCOCC2)c1 (3D coordinates assigned)
O=C([N-]c1cccc(S(=O)(=O)[NH+]2CCCC2)c1)c1ccc(Cl)c(S(=O)(=O)N2CCOCC2)c1 (nonaromatic ring conformer: 76.98126662058488 kcal/mol)

>  <smiles>  (35) 
O=C(Nc1cccc(S(=O)(=O)N2CCCC2)c1)c1ccc(Cl)c(S(=O)(=O)N2CCOCC2)c1

>  <score_type>  (35) 
oracle

>  <origin>  (35) 
adgpu

>  <m_score__min__energy>  (35) 
-12.07

>  <m_primary>  (35) 
energy

$$$$
35:0
     RDKit          3D

 64 68  0  0  0  0  0  0  0  0999 V2000
   -7.7660   18.3510  -31.6170 O   0  0  0  0  0  0  0  0  0  0  0  0
   -7.3920   19.2960  -32.3620 C   0  0  0  0  0  0  0  0  0  0  0  0
   -6.7100   19.0160  -33.5980 N   0  0  0  0  0  0  0  0  0  0  0  0
   -6.1180   17.7460  -33.9200 C   0  0  0  0  0  0  0  0  0  0  0  0
   -6.7610   16.5340  -33.6050 C   0  0  0  0  0  0  0  0  0  0  0  0
   -6.1420   15.3120  -33.8920 C   0  0  0  0  0  0  0  0  0  0  0  0
   -4.8770   15.2840  -34.4960 C   0  0  0  0  0  0  0  0  0  0  0  0
   -4.0920   13.7430  -34.8510 S   0  0  0  0  0  0  0  0  0  0  0  0
   -5.1460   12.7020  -35.1160 O   0  0  0  0  0  0  0  0  0  0  0  0
   -3.2610   13.8910  -36.0970 O   0  0  0  0  0  0  0  0  0  0  0  0
   -3.0790   13.2070  -33.5320 N   0  0  0  0  0  0  0  0  0  0  0  0
   -1.9190   14.0960  -33.3810 C   0  0  0  0  0  0  0  0  0  0  0  0
   -1.0270   13.6060  -32.2190 C   0  0  0  0  0  0  0  0  0  0  0  0
   -1.6190   12.5370  -31.4970 O   0  0  0  0  0  0  0  0  0  0  0  0
   -2.9170   12.9040  -31.0740 C   0  0  0  0  0  0  0  0  0  0  0  0
   -3.8500   13.1540  -32.2780 C   0  0  0  0  0  0  0  0  0  0  0  0
   -4.2320   16.4920  -34.8020 C   0  0  0  0  0  0  0  0  0  0  0  0
   -4.8440   17.7130  -34.5070 C   0  0  0  0  0  0  0  0  0  0  0  0
   -7.7300   20.6920  -32.0000 C   0  0  0  0  0  0  0  0  0  0  0  0
   -9.0200   21.1980  -32.2400 C   0  0  0  0  0  0  0  0  0  0  0  0
   -9.3150   22.5340  -31.9550 C   0  0  0  0  0  0  0  0  0  0  0  0
   -8.3320   23.3750  -31.4310 C   0  0  0  0  0  0  0  0  0  0  0  0
   -7.0490   22.8800  -31.1660 C   0  0  0  0  0  0  0  0  0  0  0  0
   -5.8160   23.9580  -30.5150 S   0  0  0  0  0  0  0  0  0  0  0  0
   -6.3600   24.7640  -29.3660 O   0  0  0  0  0  0  0  0  0  0  0  0
   -5.4010   24.9250  -31.5910 O   0  0  0  0  0  0  0  0  0  0  0  0
   -4.4310   23.0270  -29.9980 N   0  0  0  0  0  0  0  0  0  0  0  0
   -4.1650   23.0090  -28.5500 C   0  0  0  0  0  0  0  0  0  0  0  0
   -2.8040   22.3940  -28.2190 C   0  0  0  0  0  0  0  0  0  0  0  0
   -2.6560   21.0330  -28.8940 C   0  0  0  0  0  0  0  0  0  0  0  0
   -2.8460   21.1600  -30.3800 C   0  0  0  0  0  0  0  0  0  0  0  0
   -2.2020   20.2560  -31.2430 C   0  0  0  0  0  0  0  0  0  0  0  0
   -2.3590   20.3680  -32.6240 C   0  0  0  0  0  0  0  0  0  0  0  0
   -3.1500   21.3850  -33.1550 C   0  0  0  0  0  0  0  0  0  0  0  0
   -3.8130   22.2760  -32.3050 C   0  0  0  0  0  0  0  0  0  0  0  0
   -3.7070   22.1520  -30.9040 C   0  0  0  0  0  0  0  0  0  0  0  0
   -6.7580   21.5360  -31.4330 C   0  0  0  0  0  0  0  0  0  0  0  0
   -6.7950   19.7210  -34.3660 H   0  0  0  0  0  0  0  0  0  0  0  0
   -7.7538   16.5474  -33.1315 H   0  0  0  0  0  0  0  0  0  0  0  0
   -6.6504   14.3690  -33.6425 H   0  0  0  0  0  0  0  0  0  0  0  0
   -1.3356   14.0955  -34.3135 H   0  0  0  0  0  0  0  0  0  0  0  0
   -2.2706   15.1150  -33.1620 H   0  0  0  0  0  0  0  0  0  0  0  0
   -0.0659   13.2647  -32.6310 H   0  0  0  0  0  0  0  0  0  0  0  0
   -0.8909   14.4466  -31.5227 H   0  0  0  0  0  0  0  0  0  0  0  0
   -3.3356   12.0941  -30.4585 H   0  0  0  0  0  0  0  0  0  0  0  0
   -2.8424   13.8354  -30.4935 H   0  0  0  0  0  0  0  0  0  0  0  0
   -4.5854   12.3383  -32.3404 H   0  0  0  0  0  0  0  0  0  0  0  0
   -4.3604   14.1180  -32.1357 H   0  0  0  0  0  0  0  0  0  0  0  0
   -3.2397   16.4777  -35.2765 H   0  0  0  0  0  0  0  0  0  0  0  0
   -4.3236   18.6545  -34.7365 H   0  0  0  0  0  0  0  0  0  0  0  0
   -9.7990   20.5404  -32.6532 H   0  0  0  0  0  0  0  0  0  0  0  0
  -10.3258   22.9243  -32.1444 H   0  0  0  0  0  0  0  0  0  0  0  0
   -8.5658   24.4300  -31.2255 H   0  0  0  0  0  0  0  0  0  0  0  0
   -4.1878   24.0421  -28.1730 H   0  0  0  0  0  0  0  0  0  0  0  0
   -4.9395   22.3908  -28.0725 H   0  0  0  0  0  0  0  0  0  0  0  0
   -2.0075   23.0637  -28.5754 H   0  0  0  0  0  0  0  0  0  0  0  0
   -2.7279   22.2618  -27.1296 H   0  0  0  0  0  0  0  0  0  0  0  0
   -1.6510   20.6349  -28.6901 H   0  0  0  0  0  0  0  0  0  0  0  0
   -3.4215   20.3518  -28.4939 H   0  0  0  0  0  0  0  0  0  0  0  0
   -1.5713   19.4566  -30.8268 H   0  0  0  0  0  0  0  0  0  0  0  0
   -1.8585   19.6536  -33.2942 H   0  0  0  0  0  0  0  0  0  0  0  0
   -3.2532   21.4872  -34.2454 H   0  0  0  0  0  0  0  0  0  0  0  0
   -4.4246   23.0833  -32.7343 H   0  0  0  0  0  0  0  0  0  0  0  0
   -5.7604   21.1370  -31.1971 H   0  0  0  0  0  0  0  0  0  0  0  0
  1  2  2  0
  2  3  1  0
  3  4  1  0
  4  5  2  0
  5  6  1  0
  6  7  2  0
  7  8  1  0
  8  9  2  0
  8 10  2  0
  8 11  1  0
 11 12  1  0
 12 13  1  0
 13 14  1  0
 14 15  1  0
 15 16  1  0
  7 17  1  0
 17 18  2  0
  2 19  1  0
 19 20  2  0
 20 21  1  0
 21 22  2  0
 22 23  1  0
 23 24  1  0
 24 25  2  0
 24 26  2  0
 24 27  1  0
 27 28  1  0
 28 29  1  0
 29 30  1  0
 30 31  1  0
 31 32  2  0
 32 33  1  0
 33 34  2  0
 34 35  1  0
 35 36  2  0
 23 37  2  0
 18  4  1  0
 37 19  1  0
 16 11  1  0
 36 27  1  0
 36 31  1  0
  3 38  1  0
  5 39  1  0
  6 40  1  0
 12 41  1  0
 12 42  1  0
 13 43  1  0
 13 44  1  0
 15 45  1  0
 15 46  1  0
 16 47  1  0
 16 48  1  0
 17 49  1  0
 18 50  1  0
 20 51  1  0
 21 52  1  0
 22 53  1  0
 28 54  1  0
 28 55  1  0
 29 56  1  0
 29 57  1  0
 30 58  1  0
 30 59  1  0
 32 60  1  0
 33 61  1  0
 34 62  1  0
 35 63  1  0
 37 64  1  0
M  END
>  <UniqueID>  (36) 
34

>  <SMILES>  (36) 
O=C(Nc1ccc(S(=O)(=O)N2CCOCC2)cc1)c1cccc(S(=O)(=O)N2CCCc3ccccc32)c1

>  <Energy>  (36) 
85.9592888686766

>  <Genealogy>  (36) 
O=C(Nc1ccc(S(=O)(=O)N2CCOCC2)cc1)c1cccc(S(=O)(=O)N2CCCc3ccccc32)c1 (3D coordinates assigned)
O=C(Nc1ccc(S(=O)(=O)N2CCOCC2)cc1)c1cccc(S(=O)(=O)N2CCCc3ccccc32)c1 (nonaromatic ring conformer: 85.9592888686766 kcal/mol)

>  <smiles>  (36) 
O=C(Nc1ccc(S(=O)(=O)N2CCOCC2)cc1)c1cccc(S(=O)(=O)N2CCCc3ccccc32)c1

>  <score_type>  (36) 
oracle

>  <origin>  (36) 
adgpu

>  <m_score__min__energy>  (36) 
-11.84

>  <m_primary>  (36) 
energy

$$$$
36:0
     RDKit          3D

 54 57  0  0  0  0  0  0  0  0999 V2000
   -4.3010   25.6500  -30.8570 O   0  0  0  0  0  0  0  0  0  0  0  0
   -5.2200   25.0270  -29.8410 S   0  0  0  0  0  0  0  0  0  0  0  0
   -6.3450   25.9880  -29.5570 O   0  0  0  0  0  0  0  0  0  0  0  0
   -4.3690   24.7210  -28.3640 N   0  0  0  0  0  0  0  0  0  0  0  0
   -3.2060   23.8920  -28.3500 C   0  0  0  0  0  0  0  0  0  0  0  0
   -3.2980   22.5910  -27.8480 C   0  0  0  0  0  0  0  0  0  0  0  0
   -2.1880   21.7290  -27.8900 C   0  0  0  0  0  0  0  0  0  0  0  0
   -0.9550   22.2010  -28.3990 C   0  0  0  0  0  0  0  0  0  0  0  0
   -0.8710   23.5150  -28.8900 C   0  0  0  0  0  0  0  0  0  0  0  0
   -1.9850   24.3590  -28.8610 C   0  0  0  0  0  0  0  0  0  0  0  0
   -1.8760   25.6590  -29.3420 O   0  0  0  0  0  0  0  0  0  0  0  0
    0.2500   21.2990  -28.5330 C   0  0  0  0  0  0  0  0  0  0  0  0
    0.1320   19.9990  -27.7040 C   0  0  0  0  0  0  0  0  0  0  0  0
   -1.2610   19.3900  -27.8520 C   0  0  0  0  0  0  0  0  0  0  0  0
   -2.3130   20.3510  -27.2910 C   0  0  0  0  0  0  0  0  0  0  0  0
   -5.8710   23.5100  -30.4700 C   0  0  0  0  0  0  0  0  0  0  0  0
   -5.0150   22.5200  -30.9700 C   0  0  0  0  0  0  0  0  0  0  0  0
   -5.5370   21.3320  -31.4860 C   0  0  0  0  0  0  0  0  0  0  0  0
   -6.9220   21.1240  -31.5160 C   0  0  0  0  0  0  0  0  0  0  0  0
   -7.5780   19.6180  -32.1630 S   0  0  0  0  0  0  0  0  0  0  0  0
   -8.6240   19.0930  -31.2200 O   0  0  0  0  0  0  0  0  0  0  0  0
   -8.2410   19.8950  -33.4830 O   0  0  0  0  0  0  0  0  0  0  0  0
   -6.3360   18.4070  -32.3750 N   0  0  0  0  0  0  0  0  0  0  0  0
   -6.9150   17.0630  -32.6230 C   0  0  0  0  0  0  0  0  0  0  0  0
   -6.8230   16.6320  -34.0940 C   0  0  0  0  0  0  0  0  0  0  0  0
   -5.3690   16.6460  -34.6050 C   0  0  0  0  0  0  0  0  0  0  0  0
   -4.4940   17.6820  -33.8840 C   0  0  0  0  0  0  0  0  0  0  0  0
   -5.3440   18.8540  -33.3760 C   0  0  0  0  0  0  0  0  0  0  0  0
   -7.7790   22.1170  -31.0200 C   0  0  0  0  0  0  0  0  0  0  0  0
   -7.2560   23.3020  -30.4970 C   0  0  0  0  0  0  0  0  0  0  0  0
   -4.2465   22.2385  -27.4165 H   0  0  0  0  0  0  0  0  0  0  0  0
    0.0806   23.8830  -29.3012 H   0  0  0  0  0  0  0  0  0  0  0  0
    0.3683   21.0286  -29.5927 H   0  0  0  0  0  0  0  0  0  0  0  0
    1.1186   21.8542  -28.1492 H   0  0  0  0  0  0  0  0  0  0  0  0
    0.8818   19.2759  -28.0574 H   0  0  0  0  0  0  0  0  0  0  0  0
    0.3030   20.2382  -26.6440 H   0  0  0  0  0  0  0  0  0  0  0  0
   -1.4669   19.2051  -28.9166 H   0  0  0  0  0  0  0  0  0  0  0  0
   -1.3027   18.4425  -27.2949 H   0  0  0  0  0  0  0  0  0  0  0  0
   -3.3139   19.9542  -27.5162 H   0  0  0  0  0  0  0  0  0  0  0  0
   -2.1560   20.4343  -26.2055 H   0  0  0  0  0  0  0  0  0  0  0  0
   -3.9267   22.6792  -30.9560 H   0  0  0  0  0  0  0  0  0  0  0  0
   -4.8580   20.5566  -31.8704 H   0  0  0  0  0  0  0  0  0  0  0  0
   -6.3733   16.3291  -32.0082 H   0  0  0  0  0  0  0  0  0  0  0  0
   -7.9821   17.1110  -32.3604 H   0  0  0  0  0  0  0  0  0  0  0  0
   -7.2250   15.6128  -34.1922 H   0  0  0  0  0  0  0  0  0  0  0  0
   -7.4038   17.3460  -34.6963 H   0  0  0  0  0  0  0  0  0  0  0  0
   -4.9324   15.6484  -34.4497 H   0  0  0  0  0  0  0  0  0  0  0  0
   -5.3953   16.9190  -35.6703 H   0  0  0  0  0  0  0  0  0  0  0  0
   -3.9956   17.2010  -33.0295 H   0  0  0  0  0  0  0  0  0  0  0  0
   -3.7483   18.0690  -34.5940 H   0  0  0  0  0  0  0  0  0  0  0  0
   -4.6826   19.6023  -32.9150 H   0  0  0  0  0  0  0  0  0  0  0  0
   -5.8852   19.2853  -34.2310 H   0  0  0  0  0  0  0  0  0  0  0  0
   -8.8678   21.9621  -31.0429 H   0  0  0  0  0  0  0  0  0  0  0  0
   -7.9340   24.0744  -30.1050 H   0  0  0  0  0  0  0  0  0  0  0  0
  1  2  2  0
  2  3  2  0
  2  4  1  0
  4  5  1  0
  5  6  2  0
  6  7  1  0
  7  8  2  0
  8  9  1  0
  9 10  2  0
 10 11  1  0
  8 12  1  0
 12 13  1  0
 13 14  1  0
 14 15  1  0
  2 16  1  0
 16 17  2  0
 17 18  1  0
 18 19  2  0
 19 20  1  0
 20 21  2  0
 20 22  2  0
 20 23  1  0
 23 24  1  0
 24 25  1  0
 25 26  1  0
 26 27  1  0
 27 28  1  0
 19 29  1  0
 29 30  2  0
 10  5  1  0
 30 16  1  0
 15  7  1  0
 28 23  1  0
  6 31  1  0
  9 32  1  0
 12 33  1  0
 12 34  1  0
 13 35  1  0
 13 36  1  0
 14 37  1  0
 14 38  1  0
 15 39  1  0
 15 40  1  0
 17 41  1  0
 18 42  1  0
 24 43  1  0
 24 44  1  0
 25 45  1  0
 25 46  1  0
 26 47  1  0
 26 48  1  0
 27 49  1  0
 27 50  1  0
 28 51  1  0
 28 52  1  0
 29 53  1  0
 30 54  1  0
M  CHG  2   4  -1  11  -1
M  END
>  <UniqueID>  (37) 
35

>  <SMILES>  (37) 
O=S(=O)([N-]c1cc2c(cc1[O-])CCCC2)c1ccc(S(=O)(=O)N2CCCCC2)cc1

>  <Energy>  (37) 
67.41269725125122

>  <Genealogy>  (37) 
O=S(=O)([N-]c1cc2c(cc1[O-])CCCC2)c1ccc(S(=O)(=O)N2CCCCC2)cc1 (protonated)
O=S(=O)([N-]c1cc2c(cc1[O-])CCCC2)c1ccc(S(=O)(=O)N2CCCCC2)cc1 (3D coordinates assigned)
O=S(=O)([N-]c1cc2c(cc1[O-])CCCC2)c1ccc(S(=O)(=O)N2CCCCC2)cc1 (nonaromatic ring conformer: 67.41269725125122 kcal/mol)

>  <smiles>  (37) 
O=S(=O)(Nc1cc2c(cc1O)CCCC2)c1ccc(S(=O)(=O)N2CCCCC2)cc1

>  <score_type>  (37) 
oracle

>  <origin>  (37) 
adgpu

>  <m_score__min__energy>  (37) 
-16.100000000000001

>  <m_primary>  (37) 
energy

$$$$
37:0
     RDKit          3D

 44 46  0  0  0  0  0  0  0  0999 V2000
   -6.8530   16.2470  -33.6610 C   0  0  0  0  0  0  0  0  0  0  0  0
   -6.2050   17.6020  -33.5570 C   0  0  0  0  0  0  0  0  0  0  0  0
   -4.9190   17.7890  -34.0910 C   0  0  0  0  0  0  0  0  0  0  0  0
   -4.2920   19.0340  -34.0130 C   0  0  0  0  0  0  0  0  0  0  0  0
   -4.9400   20.1180  -33.4030 C   0  0  0  0  0  0  0  0  0  0  0  0
   -4.2340   21.4410  -33.2600 C   0  0  0  0  0  0  0  0  0  0  0  0
   -3.7230   21.6490  -31.8540 C   0  0  0  0  0  0  0  0  0  0  0  0
   -4.2040   20.9710  -30.9070 O   0  0  0  0  0  0  0  0  0  0  0  0
   -2.7910   22.6920  -31.5410 N   0  0  0  0  0  0  0  0  0  0  0  0
   -2.4800   23.1470  -30.2200 C   0  0  0  0  0  0  0  0  0  0  0  0
   -1.6400   22.3590  -29.4220 C   0  0  0  0  0  0  0  0  0  0  0  0
   -1.3580   22.7370  -28.1070 C   0  0  0  0  0  0  0  0  0  0  0  0
   -1.9120   23.9060  -27.5820 C   0  0  0  0  0  0  0  0  0  0  0  0
   -2.7270   24.7160  -28.3790 C   0  0  0  0  0  0  0  0  0  0  0  0
   -2.9880   24.3670  -29.7110 C   0  0  0  0  0  0  0  0  0  0  0  0
   -3.7860   25.2580  -30.5050 N   0  0  0  0  0  0  0  0  0  0  0  0
   -5.2160   25.3760  -30.4860 C   0  0  0  0  0  0  0  0  0  0  0  0
   -5.7230   26.5010  -30.2370 O   0  0  0  0  0  0  0  0  0  0  0  0
   -6.1080   24.2430  -30.8050 C   0  0  0  0  0  0  0  0  0  0  0  0
   -6.6910   23.3920  -29.8710 C   0  0  0  0  0  0  0  0  0  0  0  0
   -7.5350   22.4330  -30.4420 C   0  0  0  0  0  0  0  0  0  0  0  0
   -7.6330   22.5270  -31.8250 C   0  0  0  0  0  0  0  0  0  0  0  0
   -6.6700   23.8060  -32.3330 S   0  0  0  0  0  0  0  0  0  0  0  0
   -6.2290   19.9420  -32.8760 C   0  0  0  0  0  0  0  0  0  0  0  0
   -6.8780   18.6980  -32.9650 C   0  0  0  0  0  0  0  0  0  0  0  0
   -8.2660   18.5520  -32.3950 C   0  0  0  0  0  0  0  0  0  0  0  0
   -7.0417   15.8524  -32.6517 H   0  0  0  0  0  0  0  0  0  0  0  0
   -7.8056   16.3368  -34.2036 H   0  0  0  0  0  0  0  0  0  0  0  0
   -6.1851   15.5618  -34.2036 H   0  0  0  0  0  0  0  0  0  0  0  0
   -4.4017   16.9473  -34.5747 H   0  0  0  0  0  0  0  0  0  0  0  0
   -3.2837   19.1655  -34.4325 H   0  0  0  0  0  0  0  0  0  0  0  0
   -3.3833   21.4689  -33.9568 H   0  0  0  0  0  0  0  0  0  0  0  0
   -4.9537   22.2415  -33.4866 H   0  0  0  0  0  0  0  0  0  0  0  0
   -1.2004   21.4382  -29.8330 H   0  0  0  0  0  0  0  0  0  0  0  0
   -0.6992   22.1133  -27.4850 H   0  0  0  0  0  0  0  0  0  0  0  0
   -1.7070   24.1905  -26.5394 H   0  0  0  0  0  0  0  0  0  0  0  0
   -3.1659   25.6326  -27.9579 H   0  0  0  0  0  0  0  0  0  0  0  0
   -6.5064   23.4660  -28.7891 H   0  0  0  0  0  0  0  0  0  0  0  0
   -8.0709   21.6754  -29.8513 H   0  0  0  0  0  0  0  0  0  0  0  0
   -8.2368   21.8763  -32.4747 H   0  0  0  0  0  0  0  0  0  0  0  0
   -6.7370   20.7868  -32.3879 H   0  0  0  0  0  0  0  0  0  0  0  0
   -8.2136   18.5575  -31.2963 H   0  0  0  0  0  0  0  0  0  0  0  0
   -8.8925   19.3892  -32.7364 H   0  0  0  0  0  0  0  0  0  0  0  0
   -8.7046   17.6028  -32.7364 H   0  0  0  0  0  0  0  0  0  0  0  0
  1  2  1  0
  2  3  2  0
  3  4  1  0
  4  5  2  0
  5  6  1  0
  6  7  1  0
  7  8  2  0
  7  9  1  0
  9 10  1  0
 10 11  2  0
 11 12  1  0
 12 13  2  0
 13 14  1  0
 14 15  2  0
 15 16  1  0
 16 17  1  0
 17 18  2  0
 17 19  1  0
 19 20  2  0
 20 21  1  0
 21 22  2  0
 22 23  1  0
  5 24  1  0
 24 25  2  0
 25 26  1  0
 25  2  1  0
 15 10  1  0
 23 19  1  0
  1 27  1  0
  1 28  1  0
  1 29  1  0
  3 30  1  0
  4 31  1  0
  6 32  1  0
  6 33  1  0
 11 34  1  0
 12 35  1  0
 13 36  1  0
 14 37  1  0
 20 38  1  0
 21 39  1  0
 22 40  1  0
 24 41  1  0
 26 42  1  0
 26 43  1  0
 26 44  1  0
M  CHG  2   9  -1  16  -1
M  END
>  <UniqueID>  (38) 
36

>  <SMILES>  (38) 
Cc1ccc(CC(=O)[N-]c2ccccc2[N-]C(=O)c2cccs2)cc1C

>  <Energy>  (38) 
84.82359835080955

>  <Genealogy>  (38) 
Cc1ccc(CC(=O)[N-]c2ccccc2[N-]C(=O)c2cccs2)cc1C (protonated)
Cc1ccc(CC(=O)[N-]c2ccccc2[N-]C(=O)c2cccs2)cc1C (3D coordinates assigned)
Cc1ccc(CC(=O)[N-]c2ccccc2[N-]C(=O)c2cccs2)cc1C (optimized conformer: 84.82359835080955 kcal/mol)

>  <smiles>  (38) 
Cc1ccc(CC(=O)Nc2ccccc2NC(=O)c2cccs2)cc1C

>  <score_type>  (38) 
oracle

>  <origin>  (38) 
adgpu

>  <m_score__min__energy>  (38) 
-11.949999999999999

>  <m_primary>  (38) 
energy

$$$$
38:0
     RDKit          3D

 41 42  0  0  0  0  0  0  0  0999 V2000
   -8.1850   18.7710  -31.6050 C   0  0  0  0  0  0  0  0  0  0  0  0
   -8.7560   20.0500  -32.7690 S   0  0  0  0  0  0  0  0  0  0  0  0
   -7.7280   21.3400  -32.0470 C   0  0  0  0  0  0  0  0  0  0  0  0
   -8.3490   22.3170  -31.2590 C   0  0  0  0  0  0  0  0  0  0  0  0
   -7.6090   23.3760  -30.7320 C   0  0  0  0  0  0  0  0  0  0  0  0
   -6.2360   23.4720  -30.9890 C   0  0  0  0  0  0  0  0  0  0  0  0
   -5.3340   24.8670  -30.3960 S   0  0  0  0  0  0  0  0  0  0  0  0
   -5.7360   26.0580  -31.2180 O   0  0  0  0  0  0  0  0  0  0  0  0
   -5.7010   25.1540  -28.9660 O   0  0  0  0  0  0  0  0  0  0  0  0
   -3.6020   24.6650  -30.5370 N   0  0  0  0  0  0  0  0  0  0  0  0
   -3.0080   23.5300  -29.8050 C   0  0  0  0  0  0  0  0  0  0  0  0
   -3.8980   22.9680  -28.6770 C   0  0  0  0  0  0  0  0  0  0  0  0
   -3.1550   21.8860  -27.8730 C   0  0  0  0  0  0  0  0  0  0  0  0
   -2.3360   20.9120  -28.7500 C   0  0  0  0  0  0  0  0  0  0  0  0
   -2.6840   21.0100  -30.2420 C   0  0  0  0  0  0  0  0  0  0  0  0
   -2.4650   22.4380  -30.7650 C   0  0  0  0  0  0  0  0  0  0  0  0
   -5.5990   22.4610  -31.7200 C   0  0  0  0  0  0  0  0  0  0  0  0
   -6.3330   21.3930  -32.2600 C   0  0  0  0  0  0  0  0  0  0  0  0
   -5.4860   20.1550  -33.1980 S   0  0  0  0  0  0  0  0  0  0  0  0
   -6.4620   19.6690  -34.5390 N   0  0  0  0  0  0  0  0  0  0  0  0
   -5.1970   18.9660  -32.3240 O   0  0  0  0  0  0  0  0  0  0  0  0
   -4.1800   20.6950  -33.7130 O   0  0  0  0  0  0  0  0  0  0  0  0
   -8.3403   19.1188  -30.5730 H   0  0  0  0  0  0  0  0  0  0  0  0
   -8.7551   17.8447  -31.7695 H   0  0  0  0  0  0  0  0  0  0  0  0
   -7.1148   18.5770  -31.7695 H   0  0  0  0  0  0  0  0  0  0  0  0
   -9.4276   22.2491  -31.0541 H   0  0  0  0  0  0  0  0  0  0  0  0
   -8.1057   24.1376  -30.1129 H   0  0  0  0  0  0  0  0  0  0  0  0
   -2.1373   23.9429  -29.2746 H   0  0  0  0  0  0  0  0  0  0  0  0
   -4.1810   23.7878  -28.0003 H   0  0  0  0  0  0  0  0  0  0  0  0
   -4.7922   22.5149  -29.1299 H   0  0  0  0  0  0  0  0  0  0  0  0
   -2.4681   22.3840  -27.1729 H   0  0  0  0  0  0  0  0  0  0  0  0
   -3.9200   21.2875  -27.3567 H   0  0  0  0  0  0  0  0  0  0  0  0
   -1.2675   21.1407  -28.6237 H   0  0  0  0  0  0  0  0  0  0  0  0
   -2.5792   19.8906  -28.4221 H   0  0  0  0  0  0  0  0  0  0  0  0
   -2.0430   20.3175  -30.8073 H   0  0  0  0  0  0  0  0  0  0  0  0
   -3.7441   20.7472  -30.3730 H   0  0  0  0  0  0  0  0  0  0  0  0
   -1.3855   22.5984  -30.9023 H   0  0  0  0  0  0  0  0  0  0  0  0
   -3.0194   22.5287  -31.7107 H   0  0  0  0  0  0  0  0  0  0  0  0
   -4.5105   22.5044  -31.8728 H   0  0  0  0  0  0  0  0  0  0  0  0
   -6.8490   18.7260  -34.3080 H   0  0  0  0  0  0  0  0  0  0  0  0
   -7.2720   20.3250  -34.5830 H   0  0  0  0  0  0  0  0  0  0  0  0
  1  2  1  0
  2  3  1  0
  3  4  2  0
  4  5  1  0
  5  6  2  0
  6  7  1  0
  7  8  2  0
  7  9  2  0
  7 10  1  0
 10 11  1  0
 11 12  1  0
 12 13  1  0
 13 14  1  0
 14 15  1  0
 15 16  1  0
  6 17  1  0
 17 18  2  0
 18 19  1  0
 19 20  1  0
 19 21  2  0
 19 22  2  0
 18  3  1  0
 16 11  1  0
  1 23  1  0
  1 24  1  0
  1 25  1  0
  4 26  1  0
  5 27  1  0
 11 28  1  0
 12 29  1  0
 12 30  1  0
 13 31  1  0
 13 32  1  0
 14 33  1  0
 14 34  1  0
 15 35  1  0
 15 36  1  0
 16 37  1  0
 16 38  1  0
 17 39  1  0
 20 40  1  0
 20 41  1  0
M  CHG  1  10  -1
M  END
>  <UniqueID>  (39) 
37

>  <SMILES>  (39) 
CSc1ccc(S(=O)(=O)[N-]C2CCCCC2)cc1S(N)(=O)=O

>  <Energy>  (39) 
41.86981573619917

>  <Genealogy>  (39) 
CSc1ccc(S(=O)(=O)[N-]C2CCCCC2)cc1S(N)(=O)=O (protonated)
CSc1ccc(S(=O)(=O)[N-]C2CCCCC2)cc1S(N)(=O)=O (3D coordinates assigned)
CSc1ccc(S(=O)(=O)[N-]C2CCCCC2)cc1S(N)(=O)=O (nonaromatic ring conformer: 41.86981573619917 kcal/mol)

>  <smiles>  (39) 
CSc1ccc(S(=O)(=O)NC2CCCCC2)cc1S(N)(=O)=O

>  <score_type>  (39) 
oracle

>  <origin>  (39) 
adgpu

>  <m_score__min__energy>  (39) 
-10.19

>  <m_primary>  (39) 
energy

$$$$
39:0
     RDKit          3D

 56 61  0  0  0  0  0  0  0  0999 V2000
   -9.0840   22.7310  -32.2740 O   0  0  0  0  0  0  0  0  0  0  0  0
   -8.0500   22.0790  -31.9610 C   0  0  0  0  0  0  0  0  0  0  0  0
   -8.0420   20.6100  -32.1670 C   0  0  0  0  0  0  0  0  0  0  0  0
   -7.0460   19.9940  -32.9490 C   0  0  0  0  0  0  0  0  0  0  0  0
   -7.0410   18.6070  -33.1210 C   0  0  0  0  0  0  0  0  0  0  0  0
   -8.0190   17.8200  -32.5100 C   0  0  0  0  0  0  0  0  0  0  0  0
   -9.0020   18.4190  -31.7190 C   0  0  0  0  0  0  0  0  0  0  0  0
   -9.0120   19.8070  -31.5430 C   0  0  0  0  0  0  0  0  0  0  0  0
   -6.8880   22.8080  -31.3990 C   0  0  0  0  0  0  0  0  0  0  0  0
   -6.9520   24.2040  -31.2260 C   0  0  0  0  0  0  0  0  0  0  0  0
   -5.8570   24.9070  -30.7110 C   0  0  0  0  0  0  0  0  0  0  0  0
   -4.6850   24.2260  -30.3750 C   0  0  0  0  0  0  0  0  0  0  0  0
   -3.6100   24.8960  -29.8890 N   0  0  0  0  0  0  0  0  0  0  0  0
   -2.4520   24.2560  -29.5720 C   0  0  0  0  0  0  0  0  0  0  0  0
   -1.3380   25.0370  -29.1090 N   0  0  0  0  0  0  0  0  0  0  0  0
   -1.2780   25.6690  -27.8180 C   0  0  0  0  0  0  0  0  0  0  0  0
   -0.4760   26.8040  -27.5920 C   0  0  0  0  0  0  0  0  0  0  0  0
   -0.4120   27.3800  -26.3200 C   0  0  0  0  0  0  0  0  0  0  0  0
   -1.1580   26.8410  -25.2680 C   0  0  0  0  0  0  0  0  0  0  0  0
   -1.0890   27.4130  -24.0040 O   0  0  0  0  0  0  0  0  0  0  0  0
   -1.9730   25.7280  -25.4890 C   0  0  0  0  0  0  0  0  0  0  0  0
   -2.0380   25.1480  -26.7600 C   0  0  0  0  0  0  0  0  0  0  0  0
   -2.3850   22.8470  -29.7130 C   0  0  0  0  0  0  0  0  0  0  0  0
   -1.2030   22.0570  -29.3050 C   0  0  0  0  0  0  0  0  0  0  0  0
   -0.5990   21.1510  -30.1900 C   0  0  0  0  0  0  0  0  0  0  0  0
    0.4960   20.3840  -29.7830 C   0  0  0  0  0  0  0  0  0  0  0  0
    1.0190   20.5210  -28.4840 C   0  0  0  0  0  0  0  0  0  0  0  0
    2.1710   19.7070  -28.0280 C   0  0  0  0  0  0  0  0  0  0  0  0
    2.1720   18.3570  -27.7220 C   0  0  0  0  0  0  0  0  0  0  0  0
    3.4710   18.0920  -27.3490 C   0  0  0  0  0  0  0  0  0  0  0  0
    4.1990   19.2220  -27.4280 N   0  0  0  0  0  0  0  0  0  0  0  0
    3.4110   20.2020  -27.8390 N   0  0  0  0  0  0  0  0  0  0  0  0
    0.4300   21.4540  -27.6110 C   0  0  0  0  0  0  0  0  0  0  0  0
   -0.6640   22.2190  -28.0210 C   0  0  0  0  0  0  0  0  0  0  0  0
   -3.4610   22.1860  -30.2210 N   0  0  0  0  0  0  0  0  0  0  0  0
   -4.6050   22.8350  -30.5590 C   0  0  0  0  0  0  0  0  0  0  0  0
   -5.6970   22.1310  -31.0740 C   0  0  0  0  0  0  0  0  0  0  0  0
   -6.2680   20.6075  -33.4269 H   0  0  0  0  0  0  0  0  0  0  0  0
   -6.2641   18.1340  -33.7397 H   0  0  0  0  0  0  0  0  0  0  0  0
   -8.0154   16.7291  -32.6514 H   0  0  0  0  0  0  0  0  0  0  0  0
   -9.7696   17.7985  -31.2336 H   0  0  0  0  0  0  0  0  0  0  0  0
   -9.7838   20.2725  -30.9124 H   0  0  0  0  0  0  0  0  0  0  0  0
   -7.8697   24.7461  -31.4977 H   0  0  0  0  0  0  0  0  0  0  0  0
   -5.9195   25.9962  -30.5708 H   0  0  0  0  0  0  0  0  0  0  0  0
   -0.4880   25.0710  -29.7160 H   0  0  0  0  0  0  0  0  0  0  0  0
    0.1027   27.2393  -28.4200 H   0  0  0  0  0  0  0  0  0  0  0  0
    0.2264   28.2588  -26.1466 H   0  0  0  0  0  0  0  0  0  0  0  0
   -2.5643   25.3073  -24.6623 H   0  0  0  0  0  0  0  0  0  0  0  0
   -2.6890   24.2780  -26.9312 H   0  0  0  0  0  0  0  0  0  0  0  0
   -0.9905   21.0436  -31.2123 H   0  0  0  0  0  0  0  0  0  0  0  0
    0.9521   19.6684  -30.4829 H   0  0  0  0  0  0  0  0  0  0  0  0
    1.3265   17.6547  -27.7667 H   0  0  0  0  0  0  0  0  0  0  0  0
    3.8543   17.1098  -27.0353 H   0  0  0  0  0  0  0  0  0  0  0  0
    0.8349   21.5820  -26.5963 H   0  0  0  0  0  0  0  0  0  0  0  0
   -1.1058   22.9537  -27.3318 H   0  0  0  0  0  0  0  0  0  0  0  0
   -5.6257   21.0439  -31.2260 H   0  0  0  0  0  0  0  0  0  0  0  0
  1  2  2  0
  2  3  1  0
  3  4  2  0
  4  5  1  0
  5  6  2  0
  6  7  1  0
  7  8  2  0
  2  9  1  0
  9 10  2  0
 10 11  1  0
 11 12  2  0
 12 13  1  0
 13 14  2  0
 14 15  1  0
 15 16  1  0
 16 17  2  0
 17 18  1  0
 18 19  2  0
 19 20  1  0
 19 21  1  0
 21 22  2  0
 14 23  1  0
 23 24  1  0
 24 25  2  0
 25 26  1  0
 26 27  2  0
 27 28  1  0
 28 29  1  0
 29 30  2  0
 30 31  1  0
 31 32  1  0
 27 33  1  0
 33 34  2  0
 23 35  2  0
 35 36  1  0
 36 37  2  0
  8  3  1  0
 37  9  1  0
 36 12  1  0
 22 16  1  0
 34 24  1  0
 32 28  2  0
  4 38  1  0
  5 39  1  0
  6 40  1  0
  7 41  1  0
  8 42  1  0
 10 43  1  0
 11 44  1  0
 15 45  1  0
 17 46  1  0
 18 47  1  0
 21 48  1  0
 22 49  1  0
 25 50  1  0
 26 51  1  0
 29 52  1  0
 30 53  1  0
 33 54  1  0
 34 55  1  0
 37 56  1  0
M  CHG  2  20  -1  31  -1
M  END
>  <UniqueID>  (40) 
38

>  <SMILES>  (40) 
O=C(c1ccccc1)c1ccc2nc(Nc3ccc([O-])cc3)c(-c3ccc(-c4cc[n-]n4)cc3)nc2c1

>  <Energy>  (40) 
116.1726830196766

>  <Genealogy>  (40) 
O=C(c1ccccc1)c1ccc2nc(Nc3ccc([O-])cc3)c(-c3ccc(-c4cc[n-]n4)cc3)nc2c1 (protonated)
O=C(c1ccccc1)c1ccc2nc(Nc3ccc([O-])cc3)c(-c3ccc(-c4cc[n-]n4)cc3)nc2c1 (3D coordinates assigned)
O=C(c1ccccc1)c1ccc2nc(Nc3ccc([O-])cc3)c(-c3ccc(-c4cc[n-]n4)cc3)nc2c1 (optimized conformer: 116.1726830196766 kcal/mol)

>  <smiles>  (40) 
O=C(c1ccccc1)c1ccc2nc(Nc3ccc(O)cc3)c(-c3ccc(-c4cc[nH]n4)cc3)nc2c1

>  <score_type>  (40) 
oracle

>  <origin>  (40) 
adgpu

>  <m_score__min__energy>  (40) 
-10.84

>  <m_primary>  (40) 
energy

$$$$
40:0
     RDKit          3D

 55 58  0  0  0  0  0  0  0  0999 V2000
   -3.9380   25.2910  -30.0690 O   0  0  0  0  0  0  0  0  0  0  0  0
   -3.3660   24.2170  -30.3940 C   0  0  0  0  0  0  0  0  0  0  0  0
   -3.9060   23.4530  -31.4810 N   0  0  0  0  0  0  0  0  0  0  0  0
   -5.2510   22.9590  -31.5820 C   0  0  0  0  0  0  0  0  0  0  0  0
   -6.3600   23.8240  -31.5630 C   0  0  0  0  0  0  0  0  0  0  0  0
   -7.6540   23.3070  -31.6560 C   0  0  0  0  0  0  0  0  0  0  0  0
   -7.8550   21.9280  -31.7500 C   0  0  0  0  0  0  0  0  0  0  0  0
   -6.7590   21.0560  -31.7410 C   0  0  0  0  0  0  0  0  0  0  0  0
   -7.0290   19.3180  -31.8360 S   0  0  0  0  0  0  0  0  0  0  0  0
   -8.3730   18.9710  -31.2560 O   0  0  0  0  0  0  0  0  0  0  0  0
   -5.9580   18.6260  -31.0390 O   0  0  0  0  0  0  0  0  0  0  0  0
   -6.9490   18.8030  -33.5080 N   0  0  0  0  0  0  0  0  0  0  0  0
   -6.7990   17.3470  -33.5920 C   0  0  0  0  0  0  0  0  0  0  0  0
   -5.3150   17.0270  -33.6890 C   0  0  0  0  0  0  0  0  0  0  0  0
   -4.6380   18.3350  -34.0540 C   0  0  0  0  0  0  0  0  0  0  0  0
   -5.7590   19.3590  -34.1600 C   0  0  0  0  0  0  0  0  0  0  0  0
   -5.4590   21.5760  -31.6530 C   0  0  0  0  0  0  0  0  0  0  0  0
   -2.1820   23.7660  -29.6260 C   0  0  0  0  0  0  0  0  0  0  0  0
   -1.8560   22.4000  -29.6050 C   0  0  0  0  0  0  0  0  0  0  0  0
   -0.7490   21.9400  -28.8780 C   0  0  0  0  0  0  0  0  0  0  0  0
   -0.3610   20.2150  -28.8410 S   0  0  0  0  0  0  0  0  0  0  0  0
    0.9030   20.0150  -28.0540 O   0  0  0  0  0  0  0  0  0  0  0  0
   -0.1150   19.7390  -30.2450 O   0  0  0  0  0  0  0  0  0  0  0  0
   -1.6320   19.2510  -28.1290 N   0  0  0  0  0  0  0  0  0  0  0  0
   -1.2040   18.6050  -26.8890 C   0  0  0  0  0  0  0  0  0  0  0  0
   -2.4660   18.3600  -26.0760 C   0  0  0  0  0  0  0  0  0  0  0  0
   -3.5100   19.3020  -26.6560 C   0  0  0  0  0  0  0  0  0  0  0  0
   -2.7970   20.0550  -27.7690 C   0  0  0  0  0  0  0  0  0  0  0  0
    0.0330   22.8540  -28.1600 C   0  0  0  0  0  0  0  0  0  0  0  0
   -0.2710   24.2150  -28.1920 C   0  0  0  0  0  0  0  0  0  0  0  0
   -1.3660   24.6780  -28.9280 C   0  0  0  0  0  0  0  0  0  0  0  0
   -1.6170   26.0450  -28.9770 O   0  0  0  0  0  0  0  0  0  0  0  0
   -6.2078   24.9098  -31.4747 H   0  0  0  0  0  0  0  0  0  0  0  0
   -8.5178   23.9881  -31.6552 H   0  0  0  0  0  0  0  0  0  0  0  0
   -8.8757   21.5262  -31.8312 H   0  0  0  0  0  0  0  0  0  0  0  0
   -7.2234   16.8764  -32.6929 H   0  0  0  0  0  0  0  0  0  0  0  0
   -7.3296   16.9606  -34.4747 H   0  0  0  0  0  0  0  0  0  0  0  0
   -4.9384   16.6560  -32.7244 H   0  0  0  0  0  0  0  0  0  0  0  0
   -5.1157   16.2437  -34.4351 H   0  0  0  0  0  0  0  0  0  0  0  0
   -3.9223   18.6285  -33.2720 H   0  0  0  0  0  0  0  0  0  0  0  0
   -4.0714   18.2524  -34.9932 H   0  0  0  0  0  0  0  0  0  0  0  0
   -5.4606   20.2914  -33.6583 H   0  0  0  0  0  0  0  0  0  0  0  0
   -5.9726   19.5814  -35.2159 H   0  0  0  0  0  0  0  0  0  0  0  0
   -4.5971   20.8926  -31.6397 H   0  0  0  0  0  0  0  0  0  0  0  0
   -2.4755   21.6838  -30.1647 H   0  0  0  0  0  0  0  0  0  0  0  0
   -0.7025   17.6513  -27.1101 H   0  0  0  0  0  0  0  0  0  0  0  0
   -0.4895   19.2336  -26.3374 H   0  0  0  0  0  0  0  0  0  0  0  0
   -2.7923   17.3144  -26.1777 H   0  0  0  0  0  0  0  0  0  0  0  0
   -2.3029   18.5410  -25.0033 H   0  0  0  0  0  0  0  0  0  0  0  0
   -4.3607   18.7331  -27.0593 H   0  0  0  0  0  0  0  0  0  0  0  0
   -3.9157   19.9838  -25.8940 H   0  0  0  0  0  0  0  0  0  0  0  0
   -3.4625   20.1708  -28.6372 H   0  0  0  0  0  0  0  0  0  0  0  0
   -2.5010   21.0630  -27.4430 H   0  0  0  0  0  0  0  0  0  0  0  0
    0.8895   22.4973  -27.5691 H   0  0  0  0  0  0  0  0  0  0  0  0
    0.3544   24.9282  -27.6350 H   0  0  0  0  0  0  0  0  0  0  0  0
  1  2  2  0
  2  3  1  0
  3  4  1  0
  4  5  2  0
  5  6  1  0
  6  7  2  0
  7  8  1  0
  8  9  1  0
  9 10  2  0
  9 11  2  0
  9 12  1  0
 12 13  1  0
 13 14  1  0
 14 15  1  0
 15 16  1  0
  8 17  2  0
  2 18  1  0
 18 19  2  0
 19 20  1  0
 20 21  1  0
 21 22  2  0
 21 23  2  0
 21 24  1  0
 24 25  1  0
 25 26  1  0
 26 27  1  0
 27 28  1  0
 20 29  2  0
 29 30  1  0
 30 31  2  0
 31 32  1  0
 17  4  1  0
 31 18  1  0
 16 12  1  0
 28 24  1  0
  5 33  1  0
  6 34  1  0
  7 35  1  0
 13 36  1  0
 13 37  1  0
 14 38  1  0
 14 39  1  0
 15 40  1  0
 15 41  1  0
 16 42  1  0
 16 43  1  0
 17 44  1  0
 19 45  1  0
 25 46  1  0
 25 47  1  0
 26 48  1  0
 26 49  1  0
 27 50  1  0
 27 51  1  0
 28 52  1  0
 28 53  1  0
 29 54  1  0
 30 55  1  0
M  CHG  2   3  -1  32  -1
M  END
>  <UniqueID>  (41) 
39

>  <SMILES>  (41) 
O=C([N-]c1cccc(S(=O)(=O)N2CCCC2)c1)c1cc(S(=O)(=O)N2CCCC2)ccc1[O-]

>  <Energy>  (41) 
67.37101483824956

>  <Genealogy>  (41) 
O=C([N-]c1cccc(S(=O)(=O)N2CCCC2)c1)c1cc(S(=O)(=O)N2CCCC2)ccc1[O-] (protonated)
O=C([N-]c1cccc(S(=O)(=O)N2CCCC2)c1)c1cc(S(=O)(=O)N2CCCC2)ccc1[O-] (3D coordinates assigned)
O=C([N-]c1cccc(S(=O)(=O)N2CCCC2)c1)c1cc(S(=O)(=O)N2CCCC2)ccc1[O-] (nonaromatic ring conformer: 67.37101483824956 kcal/mol)

>  <smiles>  (41) 
O=C(Nc1cccc(S(=O)(=O)N2CCCC2)c1)c1cc(S(=O)(=O)N2CCCC2)ccc1O

>  <score_type>  (41) 
oracle

>  <origin>  (41) 
adgpu

>  <m_score__min__energy>  (41) 
-14.93

>  <m_primary>  (41) 
energy

$$$$
41:0
     RDKit          3D

 47 49  0  0  0  0  0  0  0  0999 V2000
   -6.1170   26.0770  -30.6480 O   0  0  0  0  0  0  0  0  0  0  0  0
   -5.4060   24.8560  -30.1310 S   0  0  0  0  0  0  0  0  0  0  0  0
   -5.4590   24.8580  -28.6310 O   0  0  0  0  0  0  0  0  0  0  0  0
   -3.7480   24.8940  -30.6460 N   0  0  0  0  0  0  0  0  0  0  0  0
   -3.1520   23.5680  -30.5020 C   0  0  0  0  0  0  0  0  0  0  0  0
   -2.5060   23.4620  -29.1490 C   0  0  0  0  0  0  0  0  0  0  0  0
   -2.6030   22.2650  -28.4170 C   0  0  0  0  0  0  0  0  0  0  0  0
   -1.9820   22.1490  -27.1700 C   0  0  0  0  0  0  0  0  0  0  0  0
   -1.2490   23.2180  -26.6500 C   0  0  0  0  0  0  0  0  0  0  0  0
   -1.1320   24.4060  -27.3770 C   0  0  0  0  0  0  0  0  0  0  0  0
   -1.7510   24.5310  -28.6250 C   0  0  0  0  0  0  0  0  0  0  0  0
   -1.6120   25.7160  -29.3390 O   0  0  0  0  0  0  0  0  0  0  0  0
   -6.1860   23.3950  -30.7300 C   0  0  0  0  0  0  0  0  0  0  0  0
   -5.7820   22.8440  -31.9530 C   0  0  0  0  0  0  0  0  0  0  0  0
   -6.4010   21.6920  -32.4450 C   0  0  0  0  0  0  0  0  0  0  0  0
   -7.4260   21.0750  -31.7130 C   0  0  0  0  0  0  0  0  0  0  0  0
   -8.2140   19.6250  -32.3270 S   0  0  0  0  0  0  0  0  0  0  0  0
   -9.0070   19.0010  -31.2120 O   0  0  0  0  0  0  0  0  0  0  0  0
   -9.1420   19.9850  -33.4530 O   0  0  0  0  0  0  0  0  0  0  0  0
   -7.0100   18.4980  -32.9040 N   0  0  0  0  0  0  0  0  0  0  0  0
   -5.9630   18.2600  -31.8770 C   0  0  0  0  0  0  0  0  0  0  0  0
   -4.6560   19.0140  -32.1650 C   0  0  0  0  0  0  0  0  0  0  0  0
   -4.0780   18.6230  -33.5350 C   0  0  0  0  0  0  0  0  0  0  0  0
   -5.1680   18.2610  -34.5590 C   0  0  0  0  0  0  0  0  0  0  0  0
   -6.4950   18.9440  -34.2170 C   0  0  0  0  0  0  0  0  0  0  0  0
   -7.8310   21.6260  -30.4900 C   0  0  0  0  0  0  0  0  0  0  0  0
   -7.2120   22.7800  -29.9980 C   0  0  0  0  0  0  0  0  0  0  0  0
   -3.9342   22.8005  -30.5976 H   0  0  0  0  0  0  0  0  0  0  0  0
   -2.3958   23.4151  -31.2861 H   0  0  0  0  0  0  0  0  0  0  0  0
   -3.1700   21.4164  -28.8275 H   0  0  0  0  0  0  0  0  0  0  0  0
   -2.0708   21.2141  -26.5973 H   0  0  0  0  0  0  0  0  0  0  0  0
   -0.7633   23.1249  -25.6674 H   0  0  0  0  0  0  0  0  0  0  0  0
   -0.5513   25.2452  -26.9664 H   0  0  0  0  0  0  0  0  0  0  0  0
   -4.9743   23.3201  -32.5282 H   0  0  0  0  0  0  0  0  0  0  0  0
   -6.0836   21.2678  -33.4090 H   0  0  0  0  0  0  0  0  0  0  0  0
   -6.3490   18.5882  -30.9006 H   0  0  0  0  0  0  0  0  0  0  0  0
   -5.7312   17.1848  -31.8871 H   0  0  0  0  0  0  0  0  0  0  0  0
   -4.8563   20.0956  -32.1557 H   0  0  0  0  0  0  0  0  0  0  0  0
   -3.9228   18.7483  -31.3893 H   0  0  0  0  0  0  0  0  0  0  0  0
   -3.4957   19.4704  -33.9259 H   0  0  0  0  0  0  0  0  0  0  0  0
   -3.4511   17.7311  -33.3884 H   0  0  0  0  0  0  0  0  0  0  0  0
   -4.8439   18.5861  -35.5586 H   0  0  0  0  0  0  0  0  0  0  0  0
   -5.3200   17.1718  -34.5368 H   0  0  0  0  0  0  0  0  0  0  0  0
   -6.3403   20.0327  -34.1895 H   0  0  0  0  0  0  0  0  0  0  0  0
   -7.2319   18.6733  -34.9875 H   0  0  0  0  0  0  0  0  0  0  0  0
   -8.6385   21.1495  -29.9148 H   0  0  0  0  0  0  0  0  0  0  0  0
   -7.5306   23.2059  -29.0351 H   0  0  0  0  0  0  0  0  0  0  0  0
  1  2  2  0
  2  3  2  0
  2  4  1  0
  4  5  1  0
  5  6  1  0
  6  7  2  0
  7  8  1  0
  8  9  2  0
  9 10  1  0
 10 11  2  0
 11 12  1  0
  2 13  1  0
 13 14  2  0
 14 15  1  0
 15 16  2  0
 16 17  1  0
 17 18  2  0
 17 19  2  0
 17 20  1  0
 20 21  1  0
 21 22  1  0
 22 23  1  0
 23 24  1  0
 24 25  1  0
 16 26  1  0
 26 27  2  0
 11  6  1  0
 27 13  1  0
 25 20  1  0
  5 28  1  0
  5 29  1  0
  7 30  1  0
  8 31  1  0
  9 32  1  0
 10 33  1  0
 14 34  1  0
 15 35  1  0
 21 36  1  0
 21 37  1  0
 22 38  1  0
 22 39  1  0
 23 40  1  0
 23 41  1  0
 24 42  1  0
 24 43  1  0
 25 44  1  0
 25 45  1  0
 26 46  1  0
 27 47  1  0
M  CHG  2   4  -1  12  -1
M  END
>  <UniqueID>  (42) 
40

>  <SMILES>  (42) 
O=S(=O)([N-]Cc1ccccc1[O-])c1ccc(S(=O)(=O)N2CCCCC2)cc1

>  <Energy>  (42) 
51.44686219800398

>  <Genealogy>  (42) 
O=S(=O)([N-]Cc1ccccc1[O-])c1ccc(S(=O)(=O)N2CCCCC2)cc1 (protonated)
O=S(=O)([N-]Cc1ccccc1[O-])c1ccc(S(=O)(=O)N2CCCCC2)cc1 (3D coordinates assigned)
O=S(=O)([N-]Cc1ccccc1[O-])c1ccc(S(=O)(=O)N2CCCCC2)cc1 (nonaromatic ring conformer: 51.44686219800398 kcal/mol)

>  <smiles>  (42) 
O=S(=O)(NCc1ccccc1O)c1ccc(S(=O)(=O)N2CCCCC2)cc1

>  <score_type>  (42) 
oracle

>  <origin>  (42) 
adgpu

>  <m_score__min__energy>  (42) 
-14.199999999999999

>  <m_primary>  (42) 
energy

$$$$
42:0
     RDKit          3D

 53 56  0  0  0  0  0  0  0  0999 V2000
   -3.5930   23.3970  -31.2610 O   0  0  0  0  0  0  0  0  0  0  0  0
   -4.1820   24.3820  -30.7410 C   0  0  0  0  0  0  0  0  0  0  0  0
   -5.6040   24.6740  -31.1240 C   0  0  0  0  0  0  0  0  0  0  0  0
   -6.3720   23.3910  -31.3090 C   0  0  0  0  0  0  0  0  0  0  0  0
   -7.5080   23.1310  -30.5290 C   0  0  0  0  0  0  0  0  0  0  0  0
   -8.1840   21.9150  -30.6540 C   0  0  0  0  0  0  0  0  0  0  0  0
   -7.7320   20.9440  -31.5570 C   0  0  0  0  0  0  0  0  0  0  0  0
   -8.5970   19.4190  -31.6670 Cl  0  0  0  0  0  0  0  0  0  0  0  0
   -6.5940   21.1990  -32.3440 C   0  0  0  0  0  0  0  0  0  0  0  0
   -5.9900   20.0030  -33.4850 Cl  0  0  0  0  0  0  0  0  0  0  0  0
   -5.9160   22.4160  -32.2120 C   0  0  0  0  0  0  0  0  0  0  0  0
   -3.4940   25.1570  -29.7510 N   0  0  0  0  0  0  0  0  0  0  0  0
   -2.4610   24.6860  -28.8780 C   0  0  0  0  0  0  0  0  0  0  0  0
   -1.3380   25.4760  -28.5790 C   0  0  0  0  0  0  0  0  0  0  0  0
   -0.3130   24.9620  -27.7810 C   0  0  0  0  0  0  0  0  0  0  0  0
   -0.3950   23.6590  -27.2850 C   0  0  0  0  0  0  0  0  0  0  0  0
   -1.5100   22.8620  -27.5770 C   0  0  0  0  0  0  0  0  0  0  0  0
   -1.5870   21.2100  -26.9680 S   0  0  0  0  0  0  0  0  0  0  0  0
   -2.9830   20.6600  -27.0750 O   0  0  0  0  0  0  0  0  0  0  0  0
   -1.1980   21.2050  -25.5170 O   0  0  0  0  0  0  0  0  0  0  0  0
   -0.4670   20.2180  -27.8460 N   0  0  0  0  0  0  0  0  0  0  0  0
   -0.4910   19.9610  -29.2590 C   0  0  0  0  0  0  0  0  0  0  0  0
   -1.0900   20.8550  -30.1690 C   0  0  0  0  0  0  0  0  0  0  0  0
   -1.0860   20.5730  -31.5430 C   0  0  0  0  0  0  0  0  0  0  0  0
   -0.4860   19.3960  -32.0180 C   0  0  0  0  0  0  0  0  0  0  0  0
    0.1160   18.5080  -31.1160 C   0  0  0  0  0  0  0  0  0  0  0  0
    0.1070   18.7820  -29.7400 C   0  0  0  0  0  0  0  0  0  0  0  0
    0.6980   17.8910  -28.8420 O   0  0  0  0  0  0  0  0  0  0  0  0
   -0.4470   19.1510  -33.5030 C   0  0  0  0  0  0  0  0  0  0  0  0
   -1.7920   19.5060  -34.1710 C   0  0  0  0  0  0  0  0  0  0  0  0
   -2.5240   20.7410  -33.5700 C   0  0  0  0  0  0  0  0  0  0  0  0
   -1.6970   21.5230  -32.5390 C   0  0  0  0  0  0  0  0  0  0  0  0
   -2.5350   23.3760  -28.3830 C   0  0  0  0  0  0  0  0  0  0  0  0
   -6.0784   25.2691  -30.3298 H   0  0  0  0  0  0  0  0  0  0  0  0
   -5.6108   25.2337  -32.0709 H   0  0  0  0  0  0  0  0  0  0  0  0
   -7.8681   23.8874  -29.8161 H   0  0  0  0  0  0  0  0  0  0  0  0
   -9.0756   21.7189  -30.0404 H   0  0  0  0  0  0  0  0  0  0  0  0
   -5.0198   22.6106  -32.8194 H   0  0  0  0  0  0  0  0  0  0  0  0
   -1.2659   26.5002  -28.9737 H   0  0  0  0  0  0  0  0  0  0  0  0
    0.5613   25.5854  -27.5426 H   0  0  0  0  0  0  0  0  0  0  0  0
    0.4184   23.2570  -26.6631 H   0  0  0  0  0  0  0  0  0  0  0  0
   -1.5625   21.7774  -29.8004 H   0  0  0  0  0  0  0  0  0  0  0  0
    0.5978   17.5920  -31.4886 H   0  0  0  0  0  0  0  0  0  0  0  0
    0.7010   18.0640  -27.8420 H   0  0  0  0  0  0  0  0  0  0  0  0
    0.3467   19.7702  -33.9466 H   0  0  0  0  0  0  0  0  0  0  0  0
   -0.2501   18.0819  -33.6710 H   0  0  0  0  0  0  0  0  0  0  0  0
   -1.6007   19.7083  -35.2352 H   0  0  0  0  0  0  0  0  0  0  0  0
   -2.4548   18.6449  -34.0000 H   0  0  0  0  0  0  0  0  0  0  0  0
   -2.7829   21.4229  -34.3934 H   0  0  0  0  0  0  0  0  0  0  0  0
   -3.4084   20.3573  -33.0403 H   0  0  0  0  0  0  0  0  0  0  0  0
   -0.8971   22.0737  -33.0555 H   0  0  0  0  0  0  0  0  0  0  0  0
   -2.3535   22.2291  -32.0094 H   0  0  0  0  0  0  0  0  0  0  0  0
   -3.4036   22.7474  -28.6290 H   0  0  0  0  0  0  0  0  0  0  0  0
  1  2  2  0
  2  3  1  0
  3  4  1  0
  4  5  2  0
  5  6  1  0
  6  7  2  0
  7  8  1  0
  7  9  1  0
  9 10  1  0
  9 11  2  0
  2 12  1  0
 12 13  1  0
 13 14  2  0
 14 15  1  0
 15 16  2  0
 16 17  1  0
 17 18  1  0
 18 19  2  0
 18 20  2  0
 18 21  1  0
 21 22  1  0
 22 23  2  0
 23 24  1  0
 24 25  2  0
 25 26  1  0
 26 27  2  0
 27 28  1  0
 25 29  1  0
 29 30  1  0
 30 31  1  0
 31 32  1  0
 17 33  2  0
 11  4  1  0
 33 13  1  0
 27 22  1  0
 32 24  1  0
  3 34  1  0
  3 35  1  0
  5 36  1  0
  6 37  1  0
 11 38  1  0
 14 39  1  0
 15 40  1  0
 16 41  1  0
 23 42  1  0
 26 43  1  0
 28 44  1  0
 29 45  1  0
 29 46  1  0
 30 47  1  0
 30 48  1  0
 31 49  1  0
 31 50  1  0
 32 51  1  0
 32 52  1  0
 33 53  1  0
M  CHG  2  12  -1  21  -1
M  END
>  <UniqueID>  (43) 
41

>  <SMILES>  (43) 
O=C(Cc1ccc(Cl)c(Cl)c1)[N-]c1cccc(S(=O)(=O)[N-]c2cc3c(cc2O)CCCC3)c1

>  <Energy>  (43) 
70.00033131427612

>  <Genealogy>  (43) 
O=C(Cc1ccc(Cl)c(Cl)c1)[N-]c1cccc(S(=O)(=O)[N-]c2cc3c(cc2O)CCCC3)c1 (protonated)
O=C(Cc1ccc(Cl)c(Cl)c1)[N-]c1cccc(S(=O)(=O)[N-]c2cc3c(cc2O)CCCC3)c1 (3D coordinates assigned)
O=C(Cc1ccc(Cl)c(Cl)c1)[N-]c1cccc(S(=O)(=O)[N-]c2cc3c(cc2O)CCCC3)c1 (nonaromatic ring conformer: 70.00033131427612 kcal/mol)

>  <smiles>  (43) 
O=C(Cc1ccc(Cl)c(Cl)c1)Nc1cccc(S(=O)(=O)Nc2cc3c(cc2O)CCCC3)c1

>  <score_type>  (43) 
oracle

>  <origin>  (43) 
adgpu

>  <m_score__min__energy>  (43) 
-12.27

>  <m_primary>  (43) 
energy

$$$$
43:0
     RDKit          3D

 57 60  0  0  0  0  0  0  0  0999 V2000
   -8.9040   20.3830  -33.1040 O   0  0  0  0  0  0  0  0  0  0  0  0
   -7.9390   20.2770  -32.2990 C   0  0  0  0  0  0  0  0  0  0  0  0
   -7.3840   21.5080  -31.6990 C   0  0  0  0  0  0  0  0  0  0  0  0
   -6.4010   22.2380  -32.3860 C   0  0  0  0  0  0  0  0  0  0  0  0
   -5.8240   23.3670  -31.7990 C   0  0  0  0  0  0  0  0  0  0  0  0
   -6.2340   23.7900  -30.5280 C   0  0  0  0  0  0  0  0  0  0  0  0
   -5.4320   25.1540  -29.7570 S   0  0  0  0  0  0  0  0  0  0  0  0
   -6.4500   26.0200  -29.0650 O   0  0  0  0  0  0  0  0  0  0  0  0
   -4.7350   25.9760  -30.8050 O   0  0  0  0  0  0  0  0  0  0  0  0
   -4.2630   24.5520  -28.6100 N   0  0  0  0  0  0  0  0  0  0  0  0
   -4.5740   23.1890  -28.1720 C   0  0  0  0  0  0  0  0  0  0  0  0
   -3.2490   22.5370  -27.7940 C   0  0  0  0  0  0  0  0  0  0  0  0
   -2.1700   23.4090  -28.4220 C   0  0  0  0  0  0  0  0  0  0  0  0
   -2.9180   24.4890  -29.1870 C   0  0  0  0  0  0  0  0  0  0  0  0
   -7.2370   23.0810  -29.8530 C   0  0  0  0  0  0  0  0  0  0  0  0
   -7.8150   21.9520  -30.4400 C   0  0  0  0  0  0  0  0  0  0  0  0
   -7.3630   18.9770  -32.0300 N   0  0  0  0  0  0  0  0  0  0  0  0
   -5.9910   18.8530  -31.5130 C   0  0  0  0  0  0  0  0  0  0  0  0
   -5.3580   17.5230  -31.9490 C   0  0  0  0  0  0  0  0  0  0  0  0
   -5.7550   17.1470  -33.3210 N   0  0  0  0  0  0  0  0  0  0  0  0
   -5.0920   18.2320  -34.5290 S   0  0  0  0  0  0  0  0  0  0  0  0
   -6.1630   19.1520  -35.0470 O   0  0  0  0  0  0  0  0  0  0  0  0
   -4.5700   17.4180  -35.6800 O   0  0  0  0  0  0  0  0  0  0  0  0
   -3.7570   19.1840  -33.8770 C   0  0  0  0  0  0  0  0  0  0  0  0
   -3.9910   20.4890  -33.4210 C   0  0  0  0  0  0  0  0  0  0  0  0
   -2.9360   21.2610  -32.9250 C   0  0  0  0  0  0  0  0  0  0  0  0
   -1.6410   20.7350  -32.8870 C   0  0  0  0  0  0  0  0  0  0  0  0
   -1.4000   19.4360  -33.3450 C   0  0  0  0  0  0  0  0  0  0  0  0
   -2.4550   18.6600  -33.8380 C   0  0  0  0  0  0  0  0  0  0  0  0
   -7.2210   16.9830  -33.4810 C   0  0  0  0  0  0  0  0  0  0  0  0
   -8.0540   17.7480  -32.4330 C   0  0  0  0  0  0  0  0  0  0  0  0
   -6.0839   21.9199  -33.3901 H   0  0  0  0  0  0  0  0  0  0  0  0
   -5.0444   23.9261  -32.3372 H   0  0  0  0  0  0  0  0  0  0  0  0
   -4.2510   25.1890  -27.7770 H   0  0  0  0  0  0  0  0  0  0  0  0
   -5.2458   23.2146  -27.3014 H   0  0  0  0  0  0  0  0  0  0  0  0
   -5.0802   22.6235  -28.9682 H   0  0  0  0  0  0  0  0  0  0  0  0
   -3.1326   22.5098  -26.7005 H   0  0  0  0  0  0  0  0  0  0  0  0
   -3.1906   21.4977  -28.1495 H   0  0  0  0  0  0  0  0  0  0  0  0
   -1.5363   23.8580  -27.6430 H   0  0  0  0  0  0  0  0  0  0  0  0
   -1.5057   22.8282  -29.0788 H   0  0  0  0  0  0  0  0  0  0  0  0
   -2.4094   25.4576  -29.0719 H   0  0  0  0  0  0  0  0  0  0  0  0
   -2.9569   24.2602  -30.2622 H   0  0  0  0  0  0  0  0  0  0  0  0
   -7.5701   23.4139  -28.8589 H   0  0  0  0  0  0  0  0  0  0  0  0
   -8.6123   21.4085  -29.9119 H   0  0  0  0  0  0  0  0  0  0  0  0
   -5.3839   19.6846  -31.9001 H   0  0  0  0  0  0  0  0  0  0  0  0
   -6.0261   18.8814  -30.4139 H   0  0  0  0  0  0  0  0  0  0  0  0
   -4.2630   17.6207  -31.9099 H   0  0  0  0  0  0  0  0  0  0  0  0
   -5.7110   16.7373  -31.2649 H   0  0  0  0  0  0  0  0  0  0  0  0
   -5.0080   20.9069  -33.4536 H   0  0  0  0  0  0  0  0  0  0  0  0
   -3.1249   22.2829  -32.5644 H   0  0  0  0  0  0  0  0  0  0  0  0
   -0.8117   21.3432  -32.4967 H   0  0  0  0  0  0  0  0  0  0  0  0
   -0.3805   19.0239  -33.3177 H   0  0  0  0  0  0  0  0  0  0  0  0
   -2.2639   17.6375  -34.1957 H   0  0  0  0  0  0  0  0  0  0  0  0
   -7.5031   17.3467  -34.4801 H   0  0  0  0  0  0  0  0  0  0  0  0
   -7.4393   15.9137  -33.3433 H   0  0  0  0  0  0  0  0  0  0  0  0
   -9.0317   18.0069  -32.8656 H   0  0  0  0  0  0  0  0  0  0  0  0
   -8.1899   17.1082  -31.5486 H   0  0  0  0  0  0  0  0  0  0  0  0
  1  2  2  0
  2  3  1  0
  3  4  2  0
  4  5  1  0
  5  6  2  0
  6  7  1  0
  7  8  2  0
  7  9  2  0
  7 10  1  0
 10 11  1  0
 11 12  1  0
 12 13  1  0
 13 14  1  0
  6 15  1  0
 15 16  2  0
  2 17  1  0
 17 18  1  0
 18 19  1  0
 19 20  1  0
 20 21  1  0
 21 22  2  0
 21 23  2  0
 21 24  1  0
 24 25  2  0
 25 26  1  0
 26 27  2  0
 27 28  1  0
 28 29  2  0
 20 30  1  0
 30 31  1  0
 16  3  1  0
 31 17  1  0
 14 10  1  0
 29 24  1  0
  4 32  1  0
  5 33  1  0
 10 34  1  0
 11 35  1  0
 11 36  1  0
 12 37  1  0
 12 38  1  0
 13 39  1  0
 13 40  1  0
 14 41  1  0
 14 42  1  0
 15 43  1  0
 16 44  1  0
 18 45  1  0
 18 46  1  0
 19 47  1  0
 19 48  1  0
 25 49  1  0
 26 50  1  0
 27 51  1  0
 28 52  1  0
 29 53  1  0
 30 54  1  0
 30 55  1  0
 31 56  1  0
 31 57  1  0
M  CHG  1  10   1
M  END
>  <UniqueID>  (44) 
42

>  <SMILES>  (44) 
O=C(c1ccc(S(=O)(=O)[NH+]2CCCC2)cc1)N1CCN(S(=O)(=O)c2ccccc2)CC1

>  <Energy>  (44) 
71.30176588381471

>  <Genealogy>  (44) 
O=C(c1ccc(S(=O)(=O)[NH+]2CCCC2)cc1)N1CCN(S(=O)(=O)c2ccccc2)CC1 (protonated)
O=C(c1ccc(S(=O)(=O)[NH+]2CCCC2)cc1)N1CCN(S(=O)(=O)c2ccccc2)CC1 (3D coordinates assigned)
O=C(c1ccc(S(=O)(=O)[NH+]2CCCC2)cc1)N1CCN(S(=O)(=O)c2ccccc2)CC1 (nonaromatic ring conformer: 71.30176588381471 kcal/mol)

>  <smiles>  (44) 
O=C(c1ccc(S(=O)(=O)N2CCCC2)cc1)N1CCN(S(=O)(=O)c2ccccc2)CC1

>  <score_type>  (44) 
oracle

>  <origin>  (44) 
adgpu

>  <m_score__min__energy>  (44) 
-10.140000000000001

>  <m_primary>  (44) 
energy

$$$$
44:0
     RDKit          3D

 38 40  0  0  0  0  0  0  0  0999 V2000
   -1.8620   20.4920  -33.3680 C   0  0  0  0  0  0  0  0  0  0  0  0
   -2.4500   19.1570  -33.6940 C   0  0  0  0  0  0  0  0  0  0  0  0
   -1.6580   18.0040  -33.6420 C   0  0  0  0  0  0  0  0  0  0  0  0
   -2.2300   16.7680  -33.9500 C   0  0  0  0  0  0  0  0  0  0  0  0
   -3.5790   16.6920  -34.2970 C   0  0  0  0  0  0  0  0  0  0  0  0
   -4.3510   17.8640  -34.3220 C   0  0  0  0  0  0  0  0  0  0  0  0
   -5.8140   17.8130  -34.6620 C   0  0  0  0  0  0  0  0  0  0  0  0
   -6.4860   19.0680  -34.3160 N   0  0  0  0  0  0  0  0  0  0  0  0
   -7.0810   19.0460  -32.6790 S   0  0  0  0  0  0  0  0  0  0  0  0
   -8.5740   18.8790  -32.7020 O   0  0  0  0  0  0  0  0  0  0  0  0
   -6.4840   17.8910  -31.9240 O   0  0  0  0  0  0  0  0  0  0  0  0
   -6.6940   20.5680  -31.8810 C   0  0  0  0  0  0  0  0  0  0  0  0
   -7.7410   21.3640  -31.3610 C   0  0  0  0  0  0  0  0  0  0  0  0
   -7.4750   22.6330  -30.8200 C   0  0  0  0  0  0  0  0  0  0  0  0
   -6.1500   23.0760  -30.8090 C   0  0  0  0  0  0  0  0  0  0  0  0
   -5.1320   22.2970  -31.3030 C   0  0  0  0  0  0  0  0  0  0  0  0
   -5.3640   21.0350  -31.8410 C   0  0  0  0  0  0  0  0  0  0  0  0
   -3.9620   23.0230  -31.2110 C   0  0  0  0  0  0  0  0  0  0  0  0
   -4.3470   24.2360  -30.6550 C   0  0  0  0  0  0  0  0  0  0  0  0
   -3.4830   25.2970  -30.4100 O   0  0  0  0  0  0  0  0  0  0  0  0
   -5.6750   24.2670  -30.3950 N   0  0  0  0  0  0  0  0  0  0  0  0
   -6.4450   25.4040  -29.8960 C   0  0  0  0  0  0  0  0  0  0  0  0
   -3.7640   19.0600  -34.0380 N   0  0  0  0  0  0  0  0  0  0  0  0
   -1.8089   20.6125  -32.2759 H   0  0  0  0  0  0  0  0  0  0  0  0
   -0.8502   20.5610  -33.7941 H   0  0  0  0  0  0  0  0  0  0  0  0
   -2.4941   21.2850  -33.7941 H   0  0  0  0  0  0  0  0  0  0  0  0
   -0.5965   18.0709  -33.3615 H   0  0  0  0  0  0  0  0  0  0  0  0
   -1.6173   15.8549  -33.9190 H   0  0  0  0  0  0  0  0  0  0  0  0
   -4.0336   15.7225  -34.5487 H   0  0  0  0  0  0  0  0  0  0  0  0
   -5.9247   17.6333  -35.7416 H   0  0  0  0  0  0  0  0  0  0  0  0
   -6.2766   17.0007  -34.0822 H   0  0  0  0  0  0  0  0  0  0  0  0
   -8.7738   20.9858  -31.3803 H   0  0  0  0  0  0  0  0  0  0  0  0
   -8.2852   23.2587  -30.4174 H   0  0  0  0  0  0  0  0  0  0  0  0
   -4.5356   20.4206  -32.2233 H   0  0  0  0  0  0  0  0  0  0  0  0
   -2.9508   22.7108  -31.5109 H   0  0  0  0  0  0  0  0  0  0  0  0
   -6.4396   25.3961  -28.7960 H   0  0  0  0  0  0  0  0  0  0  0  0
   -5.9939   26.3396  -30.2581 H   0  0  0  0  0  0  0  0  0  0  0  0
   -7.4812   25.3324  -30.2581 H   0  0  0  0  0  0  0  0  0  0  0  0
  1  2  1  0
  2  3  2  0
  3  4  1  0
  4  5  2  0
  5  6  1  0
  6  7  1  0
  7  8  1  0
  8  9  1  0
  9 10  2  0
  9 11  2  0
  9 12  1  0
 12 13  2  0
 13 14  1  0
 14 15  2  0
 15 16  1  0
 16 17  2  0
 16 18  1  0
 18 19  2  0
 19 20  1  0
 19 21  1  0
 21 22  1  0
  6 23  2  0
 23  2  1  0
 17 12  1  0
 21 15  1  0
  1 24  1  0
  1 25  1  0
  1 26  1  0
  3 27  1  0
  4 28  1  0
  5 29  1  0
  7 30  1  0
  7 31  1  0
 13 32  1  0
 14 33  1  0
 17 34  1  0
 18 35  1  0
 22 36  1  0
 22 37  1  0
 22 38  1  0
M  CHG  2   8  -1  20  -1
M  END
>  <UniqueID>  (45) 
43

>  <SMILES>  (45) 
Cc1cccc(C[N-]S(=O)(=O)c2ccc3c(c2)cc([O-])n3C)n1

>  <Energy>  (45) 
67.37515660745471

>  <Genealogy>  (45) 
Cc1cccc(C[N-]S(=O)(=O)c2ccc3c(c2)cc([O-])n3C)n1 (protonated)
Cc1cccc(C[N-]S(=O)(=O)c2ccc3c(c2)cc([O-])n3C)n1 (3D coordinates assigned)
Cc1cccc(C[N-]S(=O)(=O)c2ccc3c(c2)cc([O-])n3C)n1 (optimized conformer: 67.37515660745471 kcal/mol)

>  <smiles>  (45) 
Cc1cccc(CNS(=O)(=O)c2ccc3c(c2)cc(O)n3C)n1

>  <score_type>  (45) 
oracle

>  <origin>  (45) 
adgpu

>  <m_score__min__energy>  (45) 
-11.619999999999999

>  <m_primary>  (45) 
energy

$$$$
45:0
     RDKit          3D

 52 56  0  0  0  0  0  0  0  0999 V2000
   -2.7440   25.2520  -30.2070 H   0  0  0  0  0  0  0  0  0  0  0  0
   -2.1740   25.2780  -29.3300 N   0  0  0  0  0  0  0  0  0  0  0  0
   -2.8710   24.1370  -28.2360 S   0  0  0  0  0  0  0  0  0  0  0  0
   -4.1790   23.6410  -28.7880 O   0  0  0  0  0  0  0  0  0  0  0  0
   -3.1280   24.8120  -26.9170 O   0  0  0  0  0  0  0  0  0  0  0  0
   -1.7700   22.7800  -28.0230 C   0  0  0  0  0  0  0  0  0  0  0  0
   -0.4490   23.0140  -27.6170 C   0  0  0  0  0  0  0  0  0  0  0  0
   -0.1049   24.0437  -27.4400 H   0  0  0  0  0  0  0  0  0  0  0  0
    0.4330   21.9450  -27.4360 C   0  0  0  0  0  0  0  0  0  0  0  0
    1.4722   22.1372  -27.1307 H   0  0  0  0  0  0  0  0  0  0  0  0
   -0.0040   20.6240  -27.6430 C   0  0  0  0  0  0  0  0  0  0  0  0
    0.8750   19.4990  -27.4890 N   0  0  0  0  0  0  0  0  0  0  0  0
    0.7710   18.2400  -28.1620 C   0  0  0  0  0  0  0  0  0  0  0  0
    0.3620   17.2170  -27.5470 O   0  0  0  0  0  0  0  0  0  0  0  0
    1.1390   18.1650  -29.5100 O   0  0  0  0  0  0  0  0  0  0  0  0
    0.3110   18.4900  -30.5940 C   0  0  0  0  0  0  0  0  0  0  0  0
   -0.3030   17.4510  -31.3020 C   0  0  0  0  0  0  0  0  0  0  0  0
   -0.1348   16.4086  -30.9935 H   0  0  0  0  0  0  0  0  0  0  0  0
   -1.1270   17.7230  -32.3960 C   0  0  0  0  0  0  0  0  0  0  0  0
   -1.6196   16.8970  -32.9299 H   0  0  0  0  0  0  0  0  0  0  0  0
   -1.3280   19.0410  -32.8150 C   0  0  0  0  0  0  0  0  0  0  0  0
   -0.7230   20.1060  -32.1040 C   0  0  0  0  0  0  0  0  0  0  0  0
    0.1090   19.8200  -31.0100 C   0  0  0  0  0  0  0  0  0  0  0  0
    0.6069   20.6412  -30.4736 H   0  0  0  0  0  0  0  0  0  0  0  0
   -1.0200   21.5440  -32.4790 C   0  0  0  0  0  0  0  0  0  0  0  0
   -0.7325   22.2050  -31.6481 H   0  0  0  0  0  0  0  0  0  0  0  0
   -0.4472   21.8104  -33.3795 H   0  0  0  0  0  0  0  0  0  0  0  0
   -2.4510   21.7000  -32.7520 N   0  0  0  0  0  0  0  0  0  0  0  0
   -3.4060   22.3390  -31.9190 C   0  0  0  0  0  0  0  0  0  0  0  0
   -3.1510   23.2730  -31.1140 O   0  0  0  0  0  0  0  0  0  0  0  0
   -4.6880   21.6910  -32.1230 C   0  0  0  0  0  0  0  0  0  0  0  0
   -5.8540   22.0330  -31.5620 C   0  0  0  0  0  0  0  0  0  0  0  0
   -5.8717   22.9130  -30.9023 H   0  0  0  0  0  0  0  0  0  0  0  0
   -7.1170   21.3010  -31.7750 C   0  0  0  0  0  0  0  0  0  0  0  0
   -8.3530   21.9720  -31.8210 C   0  0  0  0  0  0  0  0  0  0  0  0
   -8.3921   23.0599  -31.6629 H   0  0  0  0  0  0  0  0  0  0  0  0
   -9.5320   21.2610  -32.0670 C   0  0  0  0  0  0  0  0  0  0  0  0
  -10.4974   21.7879  -32.0864 H   0  0  0  0  0  0  0  0  0  0  0  0
   -9.4850   19.8830  -32.2880 C   0  0  0  0  0  0  0  0  0  0  0  0
  -10.4139   19.3239  -32.4739 H   0  0  0  0  0  0  0  0  0  0  0  0
   -8.2580   19.2140  -32.2730 C   0  0  0  0  0  0  0  0  0  0  0  0
   -8.2210   18.1298  -32.4548 H   0  0  0  0  0  0  0  0  0  0  0  0
   -7.0770   19.9220  -32.0270 C   0  0  0  0  0  0  0  0  0  0  0  0
   -6.1118   19.3944  -32.0312 H   0  0  0  0  0  0  0  0  0  0  0  0
   -4.4660   20.6360  -33.0600 N   0  0  0  0  0  0  0  0  0  0  0  0
   -5.1470   19.9190  -33.3920 H   0  0  0  0  0  0  0  0  0  0  0  0
   -3.2100   20.6720  -33.3900 C   0  0  0  0  0  0  0  0  0  0  0  0
   -2.3720   19.3580  -34.2560 S   0  0  0  0  0  0  0  0  0  0  0  0
   -1.3170   20.3960  -28.0740 C   0  0  0  0  0  0  0  0  0  0  0  0
   -1.6561   19.3687  -28.2731 H   0  0  0  0  0  0  0  0  0  0  0  0
   -2.2000   21.4660  -28.2530 C   0  0  0  0  0  0  0  0  0  0  0  0
   -3.2344   21.2757  -28.5751 H   0  0  0  0  0  0  0  0  0  0  0  0
  1  2  1  0
  2  3  1  0
  3  4  2  0
  3  5  2  0
  3  6  1  0
  6  7  2  0
  7  8  1  0
  7  9  1  0
  9 10  1  0
  9 11  2  0
 11 12  1  0
 12 13  1  0
 13 14  2  0
 13 15  1  0
 15 16  1  0
 16 17  2  0
 17 18  1  0
 17 19  1  0
 19 20  1  0
 19 21  2  0
 21 22  1  0
 22 23  2  0
 23 24  1  0
 22 25  1  0
 25 26  1  0
 25 27  1  0
 25 28  1  0
 28 29  1  0
 29 30  2  0
 29 31  1  0
 31 32  2  0
 32 33  1  0
 32 34  1  0
 34 35  2  0
 35 36  1  0
 35 37  1  0
 37 38  1  0
 37 39  2  0
 39 40  1  0
 39 41  1  0
 41 42  1  0
 41 43  2  0
 43 44  1  0
 31 45  1  0
 45 46  1  0
 45 47  2  0
 47 48  1  0
 11 49  1  0
 49 50  1  0
 49 51  2  0
 51 52  1  0
 51  6  1  0
 23 16  1  0
 47 28  1  0
 48 21  1  0
 43 34  1  0
M  CHG  3   2  -1  12  -1  45   1
M  END
>  <UniqueID>  (46) 
44

>  <SMILES>  (46) 
[NH-]S(=O)(=O)c1ccc([N-]C(=O)Oc2ccc3c(c2)CN2C(=O)/C(=C/c4ccccc4)[NH+]=C2S3)cc1

>  <Energy>  (46) 
111.81987443174384

>  <Genealogy>  (46) 
[NH-]S(=O)(=O)c1ccc([N-]C(=O)Oc2ccc3c(c2)CN2C(=O)C(=Cc4ccccc4)[NH+]=C2S3)cc1 (protonated)
[NH-]S(=O)(=O)c1ccc([N-]C(=O)Oc2ccc3c(c2)CN2C(=O)/C(=C/c4ccccc4)[NH+]=C2S3)cc1 (cis-trans isomerization)
[NH-]S(=O)(=O)c1ccc([N-]C(=O)Oc2ccc3c(c2)CN2C(=O)/C(=C/c4ccccc4)[NH+]=C2S3)cc1 (3D coordinates assigned)
[NH-]S(=O)(=O)c1ccc([N-]C(=O)Oc2ccc3c(c2)CN2C(=O)/C(=C/c4ccccc4)[NH+]=C2S3)cc1 (nonaromatic ring conformer: 111.81987443174384 kcal/mol)

>  <smiles>  (46) 
NS(=O)(=O)c1ccc(NC(=O)Oc2ccc3c(c2)CN2C(=O)C(=Cc4ccccc4)N=C2S3)cc1

>  <score_type>  (46) 
oracle

>  <origin>  (46) 
adgpu

>  <m_score__min__energy>  (46) 
-11.449999999999999

>  <m_primary>  (46) 
energy

$$$$
46:0
     RDKit          3D

 55 58  0  0  0  0  0  0  0  0999 V2000
   -5.1990   15.5330  -32.6490 O   0  0  0  0  0  0  0  0  0  0  0  0
   -5.6290   16.4190  -33.7860 S   0  0  0  0  0  0  0  0  0  0  0  0
   -6.6910   15.7040  -34.5760 O   0  0  0  0  0  0  0  0  0  0  0  0
   -6.3120   17.9170  -33.1570 C   0  0  0  0  0  0  0  0  0  0  0  0
   -7.0210   17.9030  -31.9510 C   0  0  0  0  0  0  0  0  0  0  0  0
   -7.5790   19.0800  -31.4450 C   0  0  0  0  0  0  0  0  0  0  0  0
   -7.4370   20.2950  -32.1450 C   0  0  0  0  0  0  0  0  0  0  0  0
   -7.9910   21.5350  -31.6550 N   0  0  0  0  0  0  0  0  0  0  0  0
   -7.5590   22.8780  -32.0590 C   0  0  1  0  0  0  0  0  0  0  0  0
   -8.5160   23.8300  -31.6760 O   0  0  0  0  0  0  0  0  0  0  0  0
   -6.2150   23.2090  -31.4690 C   0  0  0  0  0  0  0  0  0  0  0  0
   -5.7000   24.4770  -31.2510 C   0  0  0  0  0  0  0  0  0  0  0  0
   -4.4130   24.2820  -30.7990 C   0  0  0  0  0  0  0  0  0  0  0  0
   -3.5220   25.2970  -30.4720 O   0  0  0  0  0  0  0  0  0  0  0  0
   -4.1200   22.9690  -30.7320 N   0  0  0  0  0  0  0  0  0  0  0  0
   -2.8330   22.3740  -30.3820 C   0  0  0  0  0  0  0  0  0  0  0  0
   -2.2480   21.6900  -31.5750 C   0  0  0  0  0  0  0  0  0  0  0  0
   -0.9630   21.1950  -31.6740 C   0  0  0  0  0  0  0  0  0  0  0  0
   -0.8590   20.6900  -32.9520 C   0  0  0  0  0  0  0  0  0  0  0  0
   -2.0810   20.9140  -33.5530 C   0  0  0  0  0  0  0  0  0  0  0  0
   -2.8880   21.5140  -32.7080 O   0  0  0  0  0  0  0  0  0  0  0  0
   -5.2100   22.3040  -31.1630 C   0  0  0  0  0  0  0  0  0  0  0  0
   -6.7290   20.2980  -33.3580 C   0  0  0  0  0  0  0  0  0  0  0  0
   -6.1720   19.1200  -33.8610 C   0  0  0  0  0  0  0  0  0  0  0  0
   -4.2610   16.7760  -34.8130 N   0  0  0  0  0  0  0  0  0  0  0  0
   -3.5280   15.5230  -35.1170 C   0  0  0  0  0  0  0  0  0  0  0  0
   -2.0990   15.8050  -35.5910 C   0  0  0  0  0  0  0  0  0  0  0  0
   -1.2820   16.5120  -34.4950 C   0  0  0  0  0  0  0  0  0  0  0  0
   -2.1650   17.3080  -33.5180 C   0  0  0  0  0  0  0  0  0  0  0  0
   -3.4170   17.8510  -34.2200 C   0  0  0  0  0  0  0  0  0  0  0  0
   -7.1399   16.9597  -31.3977 H   0  0  0  0  0  0  0  0  0  0  0  0
   -8.1324   19.0581  -30.4946 H   0  0  0  0  0  0  0  0  0  0  0  0
   -8.7730   21.4840  -30.9620 H   0  0  0  0  0  0  0  0  0  0  0  0
   -7.4621   22.8975  -33.1545 H   0  0  0  0  0  0  0  0  0  0  0  0
   -8.0450   24.4890  -31.1030 H   0  0  0  0  0  0  0  0  0  0  0  0
   -6.2117   25.4383  -31.4063 H   0  0  0  0  0  0  0  0  0  0  0  0
   -2.1468   23.1633  -30.0411 H   0  0  0  0  0  0  0  0  0  0  0  0
   -2.9809   21.6375  -29.5784 H   0  0  0  0  0  0  0  0  0  0  0  0
   -0.1854   21.2022  -30.8960 H   0  0  0  0  0  0  0  0  0  0  0  0
    0.0203   20.2061  -33.4021 H   0  0  0  0  0  0  0  0  0  0  0  0
   -2.3401   20.6325  -34.5843 H   0  0  0  0  0  0  0  0  0  0  0  0
   -5.2901   21.2110  -31.2575 H   0  0  0  0  0  0  0  0  0  0  0  0
   -6.6120   21.2377  -33.9176 H   0  0  0  0  0  0  0  0  0  0  0  0
   -5.6215   19.1370  -34.8132 H   0  0  0  0  0  0  0  0  0  0  0  0
   -4.6550   17.1400  -35.7130 H   0  0  0  0  0  0  0  0  0  0  0  0
   -3.4869   14.9043  -34.2084 H   0  0  0  0  0  0  0  0  0  0  0  0
   -4.0611   15.0006  -35.9250 H   0  0  0  0  0  0  0  0  0  0  0  0
   -1.6104   14.8530  -35.8458 H   0  0  0  0  0  0  0  0  0  0  0  0
   -2.1460   16.4628  -36.4714 H   0  0  0  0  0  0  0  0  0  0  0  0
   -0.7240   15.7531  -33.9270 H   0  0  0  0  0  0  0  0  0  0  0  0
   -0.6075   17.2256  -34.9908 H   0  0  0  0  0  0  0  0  0  0  0  0
   -2.4733   16.6482  -32.6936 H   0  0  0  0  0  0  0  0  0  0  0  0
   -1.5826   18.1592  -33.1356 H   0  0  0  0  0  0  0  0  0  0  0  0
   -4.0193   18.4048  -33.4848 H   0  0  0  0  0  0  0  0  0  0  0  0
   -3.0796   18.4979  -35.0432 H   0  0  0  0  0  0  0  0  0  0  0  0
  1  2  2  0
  2  3  2  0
  2  4  1  0
  4  5  2  0
  5  6  1  0
  6  7  2  0
  7  8  1  0
  8  9  1  0
  9 10  1  0
  9 11  1  0
 11 12  1  0
 12 13  2  0
 13 14  1  0
 13 15  1  0
 15 16  1  0
 16 17  1  0
 17 18  2  0
 18 19  1  0
 19 20  2  0
 20 21  1  0
 15 22  1  0
  7 23  1  0
 23 24  2  0
  2 25  1  0
 25 26  1  0
 26 27  1  0
 27 28  1  0
 28 29  1  0
 29 30  1  0
 24  4  1  0
 30 25  1  0
 22 11  2  0
 21 17  1  0
  5 31  1  0
  6 32  1  0
  8 33  1  0
  9 34  1  6
 10 35  1  0
 12 36  1  0
 16 37  1  0
 16 38  1  0
 18 39  1  0
 19 40  1  0
 20 41  1  0
 22 42  1  0
 23 43  1  0
 24 44  1  0
 25 45  1  0
 26 46  1  0
 26 47  1  0
 27 48  1  0
 27 49  1  0
 28 50  1  0
 28 51  1  0
 29 52  1  0
 29 53  1  0
 30 54  1  0
 30 55  1  0
M  CHG  2  14  -1  25   1
M  END
>  <UniqueID>  (47) 
45

>  <SMILES>  (47) 
O=S(=O)(c1ccc(N[C@@H](O)c2cc([O-])n(Cc3ccco3)c2)cc1)[NH+]1CCCCC1

>  <Energy>  (47) 
113.5874482186867

>  <Genealogy>  (47) 
O=S(=O)(c1ccc(NC(O)c2cc([O-])n(Cc3ccco3)c2)cc1)[NH+]1CCCCC1 (protonated)
O=S(=O)(c1ccc(N[C@@H](O)c2cc([O-])n(Cc3ccco3)c2)cc1)[NH+]1CCCCC1 (chirality)
O=S(=O)(c1ccc(N[C@@H](O)c2cc([O-])n(Cc3ccco3)c2)cc1)[NH+]1CCCCC1 (3D coordinates assigned)
O=S(=O)(c1ccc(N[C@@H](O)c2cc([O-])n(Cc3ccco3)c2)cc1)[NH+]1CCCCC1 (nonaromatic ring conformer: 113.5874482186867 kcal/mol)

>  <smiles>  (47) 
O=S(=O)(c1ccc(NC(O)c2cc(O)n(Cc3ccco3)c2)cc1)N1CCCCC1

>  <score_type>  (47) 
oracle

>  <origin>  (47) 
adgpu

>  <m_score__min__energy>  (47) 
-11.27

>  <m_primary>  (47) 
energy

$$$$
47:0
     RDKit          3D

 55 57  0  0  0  0  0  0  0  0999 V2000
   -6.7330   16.7410  -33.5480 C   0  0  0  0  0  0  0  0  0  0  0  0
   -7.6280   17.6300  -32.6900 C   0  0  0  0  0  0  0  0  0  0  0  0
   -7.0440   19.0100  -32.5560 C   0  0  0  0  0  0  0  0  0  0  0  0
   -5.8630   19.3470  -33.2340 C   0  0  0  0  0  0  0  0  0  0  0  0
   -5.3190   20.6260  -33.1070 C   0  0  0  0  0  0  0  0  0  0  0  0
   -5.9350   21.5870  -32.2860 C   0  0  0  0  0  0  0  0  0  0  0  0
   -5.3210   22.9640  -32.1250 C   0  0  0  0  0  0  0  0  0  0  0  0
   -4.1810   23.0320  -31.1830 N   0  0  0  0  0  0  0  0  0  0  0  0
   -3.8240   21.7720  -30.5200 C   0  0  0  0  0  0  0  0  0  0  0  0
   -4.2410   24.3850  -30.0750 S   0  0  0  0  0  0  0  0  0  0  0  0
   -5.6140   24.4180  -29.4640 O   0  0  0  0  0  0  0  0  0  0  0  0
   -4.0470   25.6690  -30.8320 O   0  0  0  0  0  0  0  0  0  0  0  0
   -3.0370   24.3250  -28.7830 C   0  0  0  0  0  0  0  0  0  0  0  0
   -3.4150   24.5110  -27.4460 C   0  0  0  0  0  0  0  0  0  0  0  0
   -2.4710   24.3860  -26.4200 C   0  0  0  0  0  0  0  0  0  0  0  0
   -1.1450   24.0450  -26.7180 C   0  0  0  0  0  0  0  0  0  0  0  0
    0.0180   23.7340  -25.4220 S   0  0  0  0  0  0  0  0  0  0  0  0
   -0.4680   22.5710  -24.6010 O   0  0  0  0  0  0  0  0  0  0  0  0
    1.3320   23.3440  -26.0410 O   0  0  0  0  0  0  0  0  0  0  0  0
    0.2720   25.1040  -24.3720 N   0  0  0  0  0  0  0  0  0  0  0  0
   -0.9440   25.8900  -24.1710 C   0  0  0  0  0  0  0  0  0  0  0  0
   -0.4780   27.2710  -23.7350 C   0  0  0  0  0  0  0  0  0  0  0  0
    0.9390   27.4030  -24.2780 C   0  0  0  0  0  0  0  0  0  0  0  0
    1.2660   26.0460  -24.8920 C   0  0  0  0  0  0  0  0  0  0  0  0
   -0.7680   23.8510  -28.0540 C   0  0  0  0  0  0  0  0  0  0  0  0
   -1.7060   23.9950  -29.0790 C   0  0  0  0  0  0  0  0  0  0  0  0
   -7.1560   21.2700  -31.6710 C   0  0  0  0  0  0  0  0  0  0  0  0
   -7.7000   19.9890  -31.7940 C   0  0  0  0  0  0  0  0  0  0  0  0
   -6.1041   16.1163  -32.8967 H   0  0  0  0  0  0  0  0  0  0  0  0
   -7.3577   16.0956  -34.1830 H   0  0  0  0  0  0  0  0  0  0  0  0
   -6.0919   17.3701  -34.1830 H   0  0  0  0  0  0  0  0  0  0  0  0
   -8.6200   17.7028  -33.1598 H   0  0  0  0  0  0  0  0  0  0  0  0
   -7.7093   17.1840  -31.6878 H   0  0  0  0  0  0  0  0  0  0  0  0
   -5.3636   18.6000  -33.8685 H   0  0  0  0  0  0  0  0  0  0  0  0
   -4.4003   20.8845  -33.6540 H   0  0  0  0  0  0  0  0  0  0  0  0
   -4.9691   23.2987  -33.1120 H   0  0  0  0  0  0  0  0  0  0  0  0
   -6.1086   23.6055  -31.7029 H   0  0  0  0  0  0  0  0  0  0  0  0
   -3.8625   21.9079  -29.4291 H   0  0  0  0  0  0  0  0  0  0  0  0
   -4.5351   20.9871  -30.8170 H   0  0  0  0  0  0  0  0  0  0  0  0
   -2.8068   21.4767  -30.8170 H   0  0  0  0  0  0  0  0  0  0  0  0
   -4.4591   24.7565  -27.2018 H   0  0  0  0  0  0  0  0  0  0  0  0
   -2.7714   24.5562  -25.3756 H   0  0  0  0  0  0  0  0  0  0  0  0
    0.6000   24.7440  -23.4440 H   0  0  0  0  0  0  0  0  0  0  0  0
   -1.5160   25.9570  -25.1082 H   0  0  0  0  0  0  0  0  0  0  0  0
   -1.6039   25.4300  -23.4207 H   0  0  0  0  0  0  0  0  0  0  0  0
   -1.1283   28.0498  -24.1600 H   0  0  0  0  0  0  0  0  0  0  0  0
   -0.5128   27.3911  -22.6421 H   0  0  0  0  0  0  0  0  0  0  0  0
    0.9861   28.1926  -25.0424 H   0  0  0  0  0  0  0  0  0  0  0  0
    1.6550   27.6783  -23.4896 H   0  0  0  0  0  0  0  0  0  0  0  0
    1.2015   26.0996  -25.9888 H   0  0  0  0  0  0  0  0  0  0  0  0
    2.2874   25.7288  -24.6350 H   0  0  0  0  0  0  0  0  0  0  0  0
    0.2712   23.5841  -28.2964 H   0  0  0  0  0  0  0  0  0  0  0  0
   -1.3990   23.8487  -30.1251 H   0  0  0  0  0  0  0  0  0  0  0  0
   -7.6886   22.0357  -31.0879 H   0  0  0  0  0  0  0  0  0  0  0  0
   -8.6476   19.7465  -31.2908 H   0  0  0  0  0  0  0  0  0  0  0  0
  1  2  1  0
  2  3  1  0
  3  4  2  0
  4  5  1  0
  5  6  2  0
  6  7  1  0
  7  8  1  0
  8  9  1  0
  8 10  1  0
 10 11  2  0
 10 12  2  0
 10 13  1  0
 13 14  2  0
 14 15  1  0
 15 16  2  0
 16 17  1  0
 17 18  2  0
 17 19  2  0
 17 20  1  0
 20 21  1  0
 21 22  1  0
 22 23  1  0
 23 24  1  0
 16 25  1  0
 25 26  2  0
  6 27  1  0
 27 28  2  0
 28  3  1  0
 26 13  1  0
 24 20  1  0
  1 29  1  0
  1 30  1  0
  1 31  1  0
  2 32  1  0
  2 33  1  0
  4 34  1  0
  5 35  1  0
  7 36  1  0
  7 37  1  0
  9 38  1  0
  9 39  1  0
  9 40  1  0
 14 41  1  0
 15 42  1  0
 20 43  1  0
 21 44  1  0
 21 45  1  0
 22 46  1  0
 22 47  1  0
 23 48  1  0
 23 49  1  0
 24 50  1  0
 24 51  1  0
 25 52  1  0
 26 53  1  0
 27 54  1  0
 28 55  1  0
M  CHG  1  20   1
M  END
>  <UniqueID>  (48) 
46

>  <SMILES>  (48) 
CCc1ccc(CN(C)S(=O)(=O)c2ccc(S(=O)(=O)[NH+]3CCCC3)cc2)cc1

>  <Energy>  (48) 
55.826013999051

>  <Genealogy>  (48) 
CCc1ccc(CN(C)S(=O)(=O)c2ccc(S(=O)(=O)[NH+]3CCCC3)cc2)cc1 (protonated)
CCc1ccc(CN(C)S(=O)(=O)c2ccc(S(=O)(=O)[NH+]3CCCC3)cc2)cc1 (3D coordinates assigned)
CCc1ccc(CN(C)S(=O)(=O)c2ccc(S(=O)(=O)[NH+]3CCCC3)cc2)cc1 (nonaromatic ring conformer: 55.826013999051 kcal/mol)

>  <smiles>  (48) 
CCc1ccc(CN(C)S(=O)(=O)c2ccc(S(=O)(=O)N3CCCC3)cc2)cc1

>  <score_type>  (48) 
oracle

>  <origin>  (48) 
adgpu

>  <m_score__min__energy>  (48) 
-10.51

>  <m_primary>  (48) 
energy

$$$$
48:0
     RDKit          3D

 36 38  0  0  0  0  0  0  0  0999 V2000
   -5.0980   24.8740  -28.5750 N   0  0  0  0  0  0  0  0  0  0  0  0
   -4.2850   24.0330  -29.4170 C   0  0  0  0  0  0  0  0  0  0  0  0
   -4.8870   23.2750  -30.4500 C   0  0  0  0  0  0  0  0  0  0  0  0
   -6.3210   23.4110  -30.7960 C   0  0  0  0  0  0  0  0  0  0  0  0
   -6.8710   24.5390  -30.6600 O   0  0  0  0  0  0  0  0  0  0  0  0
   -7.1120   22.2700  -31.3250 C   0  0  0  0  0  0  0  0  0  0  0  0
   -6.6400   21.4970  -32.4030 C   0  0  0  0  0  0  0  0  0  0  0  0
   -7.3910   20.4210  -32.8860 C   0  0  0  0  0  0  0  0  0  0  0  0
   -8.6160   20.1010  -32.2970 C   0  0  0  0  0  0  0  0  0  0  0  0
   -9.3410   19.0560  -32.7670 F   0  0  0  0  0  0  0  0  0  0  0  0
   -9.0900   20.8530  -31.2210 C   0  0  0  0  0  0  0  0  0  0  0  0
   -8.3430   21.9300  -30.7340 C   0  0  0  0  0  0  0  0  0  0  0  0
   -4.0940   22.4050  -31.2050 C   0  0  0  0  0  0  0  0  0  0  0  0
   -2.7350   22.2920  -30.9460 C   0  0  0  0  0  0  0  0  0  0  0  0
   -2.1610   23.0600  -29.9350 C   0  0  0  0  0  0  0  0  0  0  0  0
   -0.9210   22.9560  -29.7210 O   0  0  0  0  0  0  0  0  0  0  0  0
   -2.9300   23.9180  -29.1900 N   0  0  0  0  0  0  0  0  0  0  0  0
   -2.2940   24.6940  -28.1580 C   0  0  0  0  0  0  0  0  0  0  0  0
   -2.6940   24.5530  -26.8220 C   0  0  0  0  0  0  0  0  0  0  0  0
   -2.0760   25.3100  -25.8210 C   0  0  0  0  0  0  0  0  0  0  0  0
   -1.0600   26.2110  -26.1510 C   0  0  0  0  0  0  0  0  0  0  0  0
   -0.6610   26.3580  -27.4830 C   0  0  0  0  0  0  0  0  0  0  0  0
   -1.2760   25.6030  -28.4870 C   0  0  0  0  0  0  0  0  0  0  0  0
   -4.6800   25.6070  -27.9620 H   0  0  0  0  0  0  0  0  0  0  0  0
   -6.1410   24.8380  -28.5960 H   0  0  0  0  0  0  0  0  0  0  0  0
   -5.6737   21.7413  -32.8685 H   0  0  0  0  0  0  0  0  0  0  0  0
   -7.0162   19.8255  -33.7315 H   0  0  0  0  0  0  0  0  0  0  0  0
  -10.0533   20.5979  -30.7551 H   0  0  0  0  0  0  0  0  0  0  0  0
   -8.7203   22.5157  -29.8828 H   0  0  0  0  0  0  0  0  0  0  0  0
   -4.5495   21.8072  -32.0082 H   0  0  0  0  0  0  0  0  0  0  0  0
   -2.1150   21.6004  -31.5353 H   0  0  0  0  0  0  0  0  0  0  0  0
   -3.4951   23.8460  -26.5603 H   0  0  0  0  0  0  0  0  0  0  0  0
   -2.3901   25.1959  -24.7730 H   0  0  0  0  0  0  0  0  0  0  0  0
   -0.5741   26.8047  -25.3627 H   0  0  0  0  0  0  0  0  0  0  0  0
    0.1379   27.0686  -27.7417 H   0  0  0  0  0  0  0  0  0  0  0  0
   -0.9620   25.7215  -29.5345 H   0  0  0  0  0  0  0  0  0  0  0  0
  1  2  1  0
  2  3  2  0
  3  4  1  0
  4  5  2  0
  4  6  1  0
  6  7  2  0
  7  8  1  0
  8  9  2  0
  9 10  1  0
  9 11  1  0
 11 12  2  0
  3 13  1  0
 13 14  2  0
 14 15  1  0
 15 16  2  0
 15 17  1  0
 17 18  1  0
 18 19  2  0
 19 20  1  0
 20 21  2  0
 21 22  1  0
 22 23  2  0
 17  2  1  0
 23 18  1  0
 12  6  1  0
  1 24  1  0
  1 25  1  0
  7 26  1  0
  8 27  1  0
 11 28  1  0
 12 29  1  0
 13 30  1  0
 14 31  1  0
 19 32  1  0
 20 33  1  0
 21 34  1  0
 22 35  1  0
 23 36  1  0
M  END
>  <UniqueID>  (49) 
47

>  <SMILES>  (49) 
Nc1c(C(=O)c2ccc(F)cc2)ccc(=O)n1-c1ccccc1

>  <Energy>  (49) 
59.2524022470565

>  <Genealogy>  (49) 
Nc1c(C(=O)c2ccc(F)cc2)ccc(=O)n1-c1ccccc1 (3D coordinates assigned)
Nc1c(C(=O)c2ccc(F)cc2)ccc(=O)n1-c1ccccc1 (optimized conformer: 59.2524022470565 kcal/mol)

>  <smiles>  (49) 
Nc1c(C(=O)c2ccc(F)cc2)ccc(=O)n1-c1ccccc1

>  <score_type>  (49) 
oracle

>  <origin>  (49) 
adgpu

>  <m_score__min__energy>  (49) 
-8.3499999999999996

>  <m_primary>  (49) 
energy

$$$$
49:0
     RDKit          3D

 35 36  0  0  0  0  0  0  0  0999 V2000
    0.0490   20.8180  -31.8320 C   0  0  0  0  0  0  0  0  0  0  0  0
   -1.3610   20.7910  -31.3220 C   0  0  0  0  0  0  0  0  0  0  0  0
   -2.2780   20.4030  -32.0960 O   0  0  0  0  0  0  0  0  0  0  0  0
   -1.6830   21.2470  -29.9900 N   0  0  0  0  0  0  0  0  0  0  0  0
   -1.6580   20.3400  -28.8680 C   0  0  0  0  0  0  0  0  0  0  0  0
   -0.5570   19.4880  -28.6650 C   0  0  0  0  0  0  0  0  0  0  0  0
   -0.5430   18.5950  -27.5920 C   0  0  0  0  0  0  0  0  0  0  0  0
   -1.6280   18.5340  -26.7150 C   0  0  0  0  0  0  0  0  0  0  0  0
   -2.7380   19.3670  -26.9080 C   0  0  0  0  0  0  0  0  0  0  0  0
   -3.8540   19.2960  -26.0170 N   0  0  0  0  0  0  0  0  0  0  0  0
   -2.7510   20.2650  -27.9850 C   0  0  0  0  0  0  0  0  0  0  0  0
   -2.0230   22.6300  -29.7670 C   0  0  0  0  0  0  0  0  0  0  0  0
   -1.2220   23.4260  -28.9220 C   0  0  0  0  0  0  0  0  0  0  0  0
   -0.0200   22.8560  -28.2190 C   0  0  0  0  0  0  0  0  0  0  0  0
   -1.5810   24.7640  -28.7150 C   0  0  0  0  0  0  0  0  0  0  0  0
   -2.6680   25.2880  -29.3350 N   0  0  0  0  0  0  0  0  0  0  0  0
   -3.4510   24.5500  -30.1620 C   0  0  0  0  0  0  0  0  0  0  0  0
   -4.4490   25.0900  -30.7080 O   0  0  0  0  0  0  0  0  0  0  0  0
   -3.1520   23.1970  -30.3960 C   0  0  0  0  0  0  0  0  0  0  0  0
   -4.0010   22.4040  -31.2410 N   0  0  0  0  0  0  0  0  0  0  0  0
    0.7464   20.8314  -30.9814 H   0  0  0  0  0  0  0  0  0  0  0  0
    0.2346   19.9232  -32.4443 H   0  0  0  0  0  0  0  0  0  0  0  0
    0.2002   21.7192  -32.4443 H   0  0  0  0  0  0  0  0  0  0  0  0
    0.2981   19.5257  -29.3560 H   0  0  0  0  0  0  0  0  0  0  0  0
    0.3252   17.9376  -27.4369 H   0  0  0  0  0  0  0  0  0  0  0  0
   -1.6112   17.8298  -25.8701 H   0  0  0  0  0  0  0  0  0  0  0  0
   -4.8150   19.5400  -26.3430 H   0  0  0  0  0  0  0  0  0  0  0  0
   -3.7260   18.9970  -25.0240 H   0  0  0  0  0  0  0  0  0  0  0  0
   -3.6234   20.9166  -28.1409 H   0  0  0  0  0  0  0  0  0  0  0  0
   -0.1649   22.9247  -27.1308 H   0  0  0  0  0  0  0  0  0  0  0  0
    0.1070   21.8018  -28.5061 H   0  0  0  0  0  0  0  0  0  0  0  0
    0.8767   23.4248  -28.5061 H   0  0  0  0  0  0  0  0  0  0  0  0
   -0.9775   25.3942  -28.0452 H   0  0  0  0  0  0  0  0  0  0  0  0
   -3.8150   21.3910  -31.4070 H   0  0  0  0  0  0  0  0  0  0  0  0
   -4.8450   22.8150  -31.6960 H   0  0  0  0  0  0  0  0  0  0  0  0
  1  2  1  0
  2  3  2  0
  2  4  1  0
  4  5  1  0
  5  6  2  0
  6  7  1  0
  7  8  2  0
  8  9  1  0
  9 10  1  0
  9 11  2  0
  4 12  1  0
 12 13  1  0
 13 14  1  0
 13 15  2  0
 15 16  1  0
 16 17  1  0
 17 18  2  0
 17 19  1  0
 19 20  1  0
 11  5  1  0
 19 12  2  0
  1 21  1  0
  1 22  1  0
  1 23  1  0
  6 24  1  0
  7 25  1  0
  8 26  1  0
 10 27  1  0
 10 28  1  0
 11 29  1  0
 14 30  1  0
 14 31  1  0
 14 32  1  0
 15 33  1  0
 20 34  1  0
 20 35  1  0
M  CHG  1  16  -1
M  END
>  <UniqueID>  (50) 
48

>  <SMILES>  (50) 
CC(=O)N(c1cccc(N)c1)c1c(C)c[n-]c(=O)c1N

>  <Energy>  (50) 
45.514853061766765

>  <Genealogy>  (50) 
CC(=O)N(c1cccc(N)c1)c1c(C)c[n-]c(=O)c1N (protonated)
CC(=O)N(c1cccc(N)c1)c1c(C)c[n-]c(=O)c1N (3D coordinates assigned)
CC(=O)N(c1cccc(N)c1)c1c(C)c[n-]c(=O)c1N (optimized conformer: 45.514853061766765 kcal/mol)

>  <smiles>  (50) 
CC(=O)N(c1cccc(N)c1)c1c(C)c[nH]c(=O)c1N

>  <score_type>  (50) 
oracle

>  <origin>  (50) 
adgpu

>  <m_score__min__energy>  (50) 
-7.3099999999999996

>  <m_primary>  (50) 
energy

$$$$
