0:0
     RDKit          3D

 29 30  0  0  0  0  0  0  0  0999 V2000
   -8.7740   22.6780  -31.5960 C   0  0  0  0  0  0  0  0  0  0  0  0
   -7.5840   21.8360  -31.9630 C   0  0  0  0  0  0  0  0  0  0  0  0
   -6.3190   22.3510  -32.2930 C   0  0  0  0  0  0  0  0  0  0  0  0
   -5.9220   23.7990  -32.3380 C   0  0  0  0  0  0  0  0  0  0  0  0
   -5.0220   24.1280  -31.2150 N   0  0  0  0  0  0  0  0  0  0  0  0
   -5.0290   23.0560  -30.2040 C   0  0  0  0  0  0  0  0  0  0  0  0
   -5.4380   25.3950  -30.5930 C   0  0  0  0  0  0  0  0  0  0  0  0
   -5.2790   21.0780  -32.6880 S   0  0  0  0  0  0  0  0  0  0  0  0
   -6.4170   19.8700  -32.4520 C   0  0  0  0  0  0  0  0  0  0  0  0
   -6.2530   18.4960  -32.6150 C   0  0  0  0  0  0  0  0  0  0  0  0
   -7.3560   17.6640  -32.3770 C   0  0  0  0  0  0  0  0  0  0  0  0
   -8.5910   18.2150  -31.9890 C   0  0  0  0  0  0  0  0  0  0  0  0
   -8.7340   19.6040  -31.8330 C   0  0  0  0  0  0  0  0  0  0  0  0
   -7.6270   20.4320  -32.0670 C   0  0  0  0  0  0  0  0  0  0  0  0
   -8.8576   22.7371  -30.5008 H   0  0  0  0  0  0  0  0  0  0  0  0
   -8.6488   23.6897  -32.0093 H   0  0  0  0  0  0  0  0  0  0  0  0
   -9.6864   22.2233  -32.0093 H   0  0  0  0  0  0  0  0  0  0  0  0
   -5.4045   24.0023  -33.2871 H   0  0  0  0  0  0  0  0  0  0  0  0
   -6.8284   24.4171  -32.2578 H   0  0  0  0  0  0  0  0  0  0  0  0
   -5.0261   23.5008  -29.1979 H   0  0  0  0  0  0  0  0  0  0  0  0
   -5.9312   22.4393  -30.3297 H   0  0  0  0  0  0  0  0  0  0  0  0
   -4.1349   22.4276  -30.3297 H   0  0  0  0  0  0  0  0  0  0  0  0
   -5.4049   25.2942  -29.4981 H   0  0  0  0  0  0  0  0  0  0  0  0
   -4.7567   26.1991  -30.9079 H   0  0  0  0  0  0  0  0  0  0  0  0
   -6.4634   25.6388  -30.9079 H   0  0  0  0  0  0  0  0  0  0  0  0
   -5.2841   18.0754  -32.9222 H   0  0  0  0  0  0  0  0  0  0  0  0
   -7.2553   16.5749  -32.4942 H   0  0  0  0  0  0  0  0  0  0  0  0
   -9.4508   17.5536  -31.8065 H   0  0  0  0  0  0  0  0  0  0  0  0
   -9.7000   20.0354  -31.5318 H   0  0  0  0  0  0  0  0  0  0  0  0
  1  2  1  0
  2  3  2  0
  3  4  1  0
  4  5  1  0
  5  6  1  0
  5  7  1  0
  3  8  1  0
  8  9  1  0
  9 10  2  0
 10 11  1  0
 11 12  2  0
 12 13  1  0
 13 14  2  0
 14  2  1  0
 14  9  1  0
  1 15  1  0
  1 16  1  0
  1 17  1  0
  4 18  1  0
  4 19  1  0
  6 20  1  0
  6 21  1  0
  6 22  1  0
  7 23  1  0
  7 24  1  0
  7 25  1  0
 10 26  1  0
 11 27  1  0
 12 28  1  0
 13 29  1  0
M  END
>  <UniqueID>  (1) 
1

>  <SMILES>  (1) 
Cc1c(CN(C)C)sc2ccccc12

>  <Energy>  (1) 
58.41167270215833

>  <Genealogy>  (1) 
Cc1c(CN(C)C)sc2ccccc12 (3D coordinates assigned)
Cc1c(CN(C)C)sc2ccccc12 (optimized conformer: 58.41167270215833 kcal/mol)

>  <smiles>  (1) 
Cc1c(CN(C)C)sc2ccccc12

>  <score_type>  (1) 
oracle

>  <origin>  (1) 
adgpu

>  <m_score__min__energy>  (1) 
-6.75

>  <m_primary>  (1) 
energy

$$$$
1:0
     RDKit          3D

 41 44  0  0  0  0  0  0  0  0999 V2000
   -0.9412   29.7840  -24.2105 H   0  0  0  0  0  0  0  0  0  0  0  0
   -0.6520   28.9400  -24.8540 C   0  0  0  0  0  0  0  0  0  0  0  0
   -0.4400   29.1430  -26.2220 C   0  0  0  0  0  0  0  0  0  0  0  0
   -0.5714   30.1453  -26.6557 H   0  0  0  0  0  0  0  0  0  0  0  0
   -0.0610   28.0720  -27.0390 C   0  0  0  0  0  0  0  0  0  0  0  0
    0.0863   28.2321  -28.1173 H   0  0  0  0  0  0  0  0  0  0  0  0
    0.1320   26.7960  -26.4910 C   0  0  0  0  0  0  0  0  0  0  0  0
    0.4770   25.7090  -27.3650 N   0  0  0  0  0  0  0  0  0  0  0  0
   -0.3280   25.0750  -28.1650 C   0  0  0  0  0  0  0  0  0  0  0  0
    0.1050   24.0890  -28.9820 N   0  0  0  0  0  0  0  0  0  0  0  0
   -0.8730   23.5250  -29.6890 N   0  0  0  0  0  0  0  0  0  0  0  0
   -2.0870   24.0550  -29.4290 C   0  0  0  0  0  0  0  0  0  0  0  0
   -3.2790   23.6000  -30.0650 N   0  0  0  0  0  0  0  0  0  0  0  0
   -4.1650   24.4170  -30.4700 N   0  0  0  0  0  0  0  0  0  0  0  0
   -5.3550   23.9510  -31.1040 C   0  0  0  0  0  0  0  0  0  0  0  0
   -5.3850   23.3970  -32.3350 N   0  0  0  0  0  0  0  0  0  0  0  0
   -6.6100   23.0400  -32.7150 N   0  0  0  0  0  0  0  0  0  0  0  0
   -7.5530   23.2980  -31.7810 C   0  0  0  0  0  0  0  0  0  0  0  0
   -9.0110   23.0450  -31.9880 C   0  0  0  0  0  0  0  0  0  0  0  0
   -9.2387   23.0813  -33.0636 H   0  0  0  0  0  0  0  0  0  0  0  0
   -9.5916   23.8155  -31.4596 H   0  0  0  0  0  0  0  0  0  0  0  0
   -9.3730   21.7000  -31.4500 C   0  0  0  0  0  0  0  0  0  0  0  0
   -9.6360   21.5680  -30.2240 O   0  0  0  0  0  0  0  0  0  0  0  0
   -9.4000   20.5700  -32.3320 N   0  0  0  0  0  0  0  0  0  0  0  0
   -8.3170   19.6680  -32.5950 C   0  0  0  0  0  0  0  0  0  0  0  0
   -8.2940   18.3590  -32.0800 C   0  0  0  0  0  0  0  0  0  0  0  0
   -9.1128   18.0097  -31.4339 H   0  0  0  0  0  0  0  0  0  0  0  0
   -7.2330   17.5000  -32.3870 C   0  0  0  0  0  0  0  0  0  0  0  0
   -7.2145   16.4810  -31.9730 H   0  0  0  0  0  0  0  0  0  0  0  0
   -6.1960   17.9340  -33.2190 C   0  0  0  0  0  0  0  0  0  0  0  0
   -4.8670   16.8560  -33.6000 Cl  0  0  0  0  0  0  0  0  0  0  0  0
   -6.2260   19.2250  -33.7530 C   0  0  0  0  0  0  0  0  0  0  0  0
   -5.4163   19.5640  -34.4159 H   0  0  0  0  0  0  0  0  0  0  0  0
   -7.2840   20.0870  -33.4460 C   0  0  0  0  0  0  0  0  0  0  0  0
   -7.3059   21.0998  -33.8747 H   0  0  0  0  0  0  0  0  0  0  0  0
   -6.8860   24.0260  -30.4130 S   0  0  0  0  0  0  0  0  0  0  0  0
   -2.0040   25.2820  -28.2730 S   0  0  0  0  0  0  0  0  0  0  0  0
   -0.1160   26.5920  -25.1210 C   0  0  0  0  0  0  0  0  0  0  0  0
   -0.0107   25.5858  -24.6891 H   0  0  0  0  0  0  0  0  0  0  0  0
   -0.4960   27.6640  -24.3060 C   0  0  0  0  0  0  0  0  0  0  0  0
   -0.6722   27.5021  -23.2323 H   0  0  0  0  0  0  0  0  0  0  0  0
  1  2  1  0
  2  3  2  0
  3  4  1  0
  3  5  1  0
  5  6  1  0
  5  7  2  0
  7  8  1  0
  8  9  2  0
  9 10  1  0
 10 11  1  0
 11 12  2  0
 12 13  1  0
 13 14  2  0
 14 15  1  0
 15 16  2  0
 16 17  1  0
 17 18  2  0
 18 19  1  0
 19 20  1  0
 19 21  1  0
 19 22  1  0
 22 23  2  0
 22 24  1  0
 24 25  1  0
 25 26  2  0
 26 27  1  0
 26 28  1  0
 28 29  1  0
 28 30  2  0
 30 31  1  0
 30 32  1  0
 32 33  1  0
 32 34  2  0
 34 35  1  0
 18 36  1  0
 12 37  1  0
  7 38  1  0
 38 39  1  0
 38 40  2  0
 40 41  1  0
 40  2  1  0
 37  9  1  0
 36 15  1  0
 34 25  1  0
M  CHG  2  10  -1  24  -1
M  END
>  <UniqueID>  (2) 
2

>  <SMILES>  (2) 
O=C(Cc1nnc(/N=N/c2n[n-]/c(=N/c3ccccc3)s2)s1)[N-]c1ccc(Cl)cc1

>  <Energy>  (2) 
120.69312741545059

>  <Genealogy>  (2) 
O=C(Cc1nnc(N=Nc2n[n-]c(=Nc3ccccc3)s2)s1)[N-]c1ccc(Cl)cc1 (protonated)
O=C(Cc1nnc(/N=N/c2n[n-]/c(=N/c3ccccc3)s2)s1)[N-]c1ccc(Cl)cc1 (cis-trans isomerization)
O=C(Cc1nnc(/N=N/c2n[n-]/c(=N/c3ccccc3)s2)s1)[N-]c1ccc(Cl)cc1 (3D coordinates assigned)
O=C(Cc1nnc(/N=N/c2n[n-]/c(=N/c3ccccc3)s2)s1)[N-]c1ccc(Cl)cc1 (optimized conformer: 120.69312741545059 kcal/mol)

>  <smiles>  (2) 
O=C(Cc1nnc(N=Nc2n[nH]c(=Nc3ccccc3)s2)s1)Nc1ccc(Cl)cc1

>  <score_type>  (2) 
oracle

>  <origin>  (2) 
adgpu

>  <m_score__min__energy>  (2) 
-10.710000000000001

>  <m_primary>  (2) 
energy

$$$$
2:0
     RDKit          3D

 43 46  0  0  0  0  0  0  0  0999 V2000
    3.1100   22.4280  -35.8630 H   0  0  0  0  0  0  0  0  0  0  0  0
    3.0020   21.4340  -35.7060 O   0  0  0  0  0  0  0  0  0  0  0  0
    1.7840   20.8860  -35.3050 C   0  0  0  0  0  0  0  0  0  0  0  0
    1.7120   19.5480  -34.9000 C   0  0  0  0  0  0  0  0  0  0  0  0
    2.6206   18.9279  -34.8981 H   0  0  0  0  0  0  0  0  0  0  0  0
    0.4930   18.9950  -34.4980 C   0  0  0  0  0  0  0  0  0  0  0  0
    0.4474   17.9423  -34.1823 H   0  0  0  0  0  0  0  0  0  0  0  0
   -0.6750   19.7770  -34.4950 C   0  0  0  0  0  0  0  0  0  0  0  0
   -1.9740   19.2020  -34.0740 C   0  0  0  0  0  0  0  0  0  0  0  0
   -3.0280   19.9510  -33.6790 N   0  0  0  0  0  0  0  0  0  0  0  0
   -4.1140   19.2020  -33.3380 C   0  0  0  0  0  0  0  0  0  0  0  0
   -5.3790   19.8400  -32.8840 C   0  0  0  0  0  0  0  0  0  0  0  0
   -6.5170   19.0470  -32.6600 C   0  0  0  0  0  0  0  0  0  0  0  0
   -6.4611   17.9605  -32.8228 H   0  0  0  0  0  0  0  0  0  0  0  0
   -7.7200   19.6190  -32.2330 C   0  0  0  0  0  0  0  0  0  0  0  0
   -9.0940   18.5500  -31.9720 Cl  0  0  0  0  0  0  0  0  0  0  0  0
   -7.8100   21.0110  -32.0270 C   0  0  0  0  0  0  0  0  0  0  0  0
   -9.0430   21.6050  -31.5890 N   0  0  0  0  0  0  0  0  0  0  0  0
   -9.9690   21.2690  -31.9350 H   0  0  0  0  0  0  0  0  0  0  0  0
   -9.0620   22.3930  -30.9060 H   0  0  0  0  0  0  0  0  0  0  0  0
   -6.6720   21.8120  -32.2580 C   0  0  0  0  0  0  0  0  0  0  0  0
   -6.7050   23.5580  -32.0320 Cl  0  0  0  0  0  0  0  0  0  0  0  0
   -5.4740   21.2270  -32.6830 C   0  0  0  0  0  0  0  0  0  0  0  0
   -4.5941   21.8623  -32.8622 H   0  0  0  0  0  0  0  0  0  0  0  0
   -3.9260   17.8230  -33.4690 C   0  0  0  0  0  0  0  0  0  0  0  0
   -4.6718   17.0444  -33.2507 H   0  0  0  0  0  0  0  0  0  0  0  0
   -2.3590   17.5650  -34.0190 S   0  0  0  0  0  0  0  0  0  0  0  0
   -0.5980   21.1200  -34.9020 C   0  0  0  0  0  0  0  0  0  0  0  0
   -1.5062   21.7406  -34.9033 H   0  0  0  0  0  0  0  0  0  0  0  0
    0.6280   21.6800  -35.3080 C   0  0  0  0  0  0  0  0  0  0  0  0
    0.7240   23.0480  -35.7270 N   0  0  0  0  0  0  0  0  0  0  0  0
    1.6350   23.8270  -35.2970 N   0  0  0  0  0  0  0  0  0  0  0  0
    1.7280   25.1940  -35.7160 C   0  0  0  0  0  0  0  0  0  0  0  0
    2.9820   25.7130  -36.0630 C   0  0  0  0  0  0  0  0  0  0  0  0
    3.8740   25.0717  -36.0086 H   0  0  0  0  0  0  0  0  0  0  0  0
    3.1050   27.0420  -36.4780 C   0  0  0  0  0  0  0  0  0  0  0  0
    4.0925   27.4424  -36.7509 H   0  0  0  0  0  0  0  0  0  0  0  0
    1.9770   27.8630  -36.5470 C   0  0  0  0  0  0  0  0  0  0  0  0
    2.0762   28.9083  -36.8749 H   0  0  0  0  0  0  0  0  0  0  0  0
    0.7220   27.3550  -36.1990 C   0  0  0  0  0  0  0  0  0  0  0  0
   -0.1658   28.0025  -36.2501 H   0  0  0  0  0  0  0  0  0  0  0  0
    0.5930   26.0250  -35.7860 C   0  0  0  0  0  0  0  0  0  0  0  0
   -0.3963   25.6274  -35.5155 H   0  0  0  0  0  0  0  0  0  0  0  0
  1  2  1  0
  2  3  1  0
  3  4  2  0
  4  5  1  0
  4  6  1  0
  6  7  1  0
  6  8  2  0
  8  9  1  0
  9 10  2  0
 10 11  1  0
 11 12  1  0
 12 13  2  0
 13 14  1  0
 13 15  1  0
 15 16  1  0
 15 17  2  0
 17 18  1  0
 18 19  1  0
 18 20  1  0
 17 21  1  0
 21 22  1  0
 21 23  2  0
 23 24  1  0
 11 25  2  0
 25 26  1  0
 25 27  1  0
  8 28  1  0
 28 29  1  0
 28 30  2  0
 30 31  1  0
 31 32  2  0
 32 33  1  0
 33 34  2  0
 34 35  1  0
 34 36  1  0
 36 37  1  0
 36 38  2  0
 38 39  1  0
 38 40  1  0
 40 41  1  0
 40 42  2  0
 42 43  1  0
 30  3  1  0
 42 33  1  0
 27  9  1  0
 23 12  1  0
M  END
>  <UniqueID>  (3) 
3

>  <SMILES>  (3) 
Nc1c(Cl)cc(-c2csc(-c3ccc(O)c(/N=N/c4ccccc4)c3)n2)cc1Cl

>  <Energy>  (3) 
82.88936722981278

>  <Genealogy>  (3) 
Nc1c(Cl)cc(-c2csc(-c3ccc(O)c(/N=N/c4ccccc4)c3)n2)cc1Cl (cis-trans isomerization)
Nc1c(Cl)cc(-c2csc(-c3ccc(O)c(/N=N/c4ccccc4)c3)n2)cc1Cl (3D coordinates assigned)
Nc1c(Cl)cc(-c2csc(-c3ccc(O)c(/N=N/c4ccccc4)c3)n2)cc1Cl (optimized conformer: 82.88936722981278 kcal/mol)

>  <smiles>  (3) 
Nc1c(Cl)cc(-c2csc(-c3ccc(O)c(N=Nc4ccccc4)c3)n2)cc1Cl

>  <score_type>  (3) 
oracle

>  <origin>  (3) 
adgpu

>  <m_score__min__energy>  (3) 
-9.4199999999999999

>  <m_primary>  (3) 
energy

$$$$
3:0
     RDKit          3D

 53 56  0  0  0  0  0  0  0  0999 V2000
   -9.3390   22.5140  -32.0070 C   0  0  0  0  0  0  0  0  0  0  0  0
   -7.9660   22.8250  -31.4900 C   0  0  0  0  0  0  0  0  0  0  0  0
   -7.0090   23.4190  -32.3280 C   0  0  0  0  0  0  0  0  0  0  0  0
   -5.7270   23.6990  -31.8450 C   0  0  0  0  0  0  0  0  0  0  0  0
   -5.3870   23.3930  -30.5180 C   0  0  0  0  0  0  0  0  0  0  0  0
   -4.0420   23.7250  -30.0130 C   0  0  0  0  0  0  0  0  0  0  0  0
   -3.8320   24.5410  -28.9620 N   0  0  0  0  0  0  0  0  0  0  0  0
   -2.5290   24.5730  -28.7190 N   0  0  0  0  0  0  0  0  0  0  0  0
   -1.9410   25.3400  -27.6470 C   0  0  0  0  0  0  0  0  0  0  0  0
   -0.8200   26.1670  -27.8620 C   0  0  0  0  0  0  0  0  0  0  0  0
   -0.2680   26.9050  -26.8110 C   0  0  0  0  0  0  0  0  0  0  0  0
   -0.8360   26.8490  -25.5300 C   0  0  0  0  0  0  0  0  0  0  0  0
   -0.2250   27.6120  -24.3920 C   0  0  0  0  0  0  0  0  0  0  0  0
   -1.9410   26.0160  -25.3040 C   0  0  0  0  0  0  0  0  0  0  0  0
   -2.4920   25.2740  -26.3530 C   0  0  0  0  0  0  0  0  0  0  0  0
   -1.8910   23.7640  -29.5940 C   0  0  0  0  0  0  0  0  0  0  0  0
   -2.8260   23.2120  -30.4440 C   0  0  0  0  0  0  0  0  0  0  0  0
   -2.5720   22.1070  -31.4300 C   0  0  0  0  0  0  0  0  0  0  0  0
   -3.1540   20.8590  -30.9370 N   0  0  0  0  0  0  0  0  0  0  0  0
   -3.9480   19.9980  -31.7680 C   0  0  0  0  0  0  0  0  0  0  0  0
   -5.3480   19.9950  -31.6780 C   0  0  0  0  0  0  0  0  0  0  0  0
   -6.1010   19.1300  -32.4710 C   0  0  0  0  0  0  0  0  0  0  0  0
   -5.4720   18.2590  -33.3680 C   0  0  0  0  0  0  0  0  0  0  0  0
   -6.4840   17.1700  -34.3110 Cl  0  0  0  0  0  0  0  0  0  0  0  0
   -4.0630   18.2680  -33.4930 C   0  0  0  0  0  0  0  0  0  0  0  0
   -3.3660   17.3300  -34.4570 C   0  0  0  0  0  0  0  0  0  0  0  0
   -3.9590   17.4240  -35.7040 F   0  0  0  0  0  0  0  0  0  0  0  0
   -3.4390   16.0120  -34.0370 F   0  0  0  0  0  0  0  0  0  0  0  0
   -2.0300   17.6760  -34.5600 F   0  0  0  0  0  0  0  0  0  0  0  0
   -3.3160   19.1510  -32.6880 C   0  0  0  0  0  0  0  0  0  0  0  0
   -6.3270   22.7510  -29.6970 C   0  0  0  0  0  0  0  0  0  0  0  0
   -7.6090   22.4670  -30.1820 C   0  0  0  0  0  0  0  0  0  0  0  0
  -10.0234   22.3590  -31.1599 H   0  0  0  0  0  0  0  0  0  0  0  0
   -9.6988   23.3534  -32.6202 H   0  0  0  0  0  0  0  0  0  0  0  0
   -9.3019   21.6015  -32.6202 H   0  0  0  0  0  0  0  0  0  0  0  0
   -7.2686   23.6650  -33.3682 H   0  0  0  0  0  0  0  0  0  0  0  0
   -4.9812   24.1614  -32.5083 H   0  0  0  0  0  0  0  0  0  0  0  0
   -0.3755   26.2322  -28.8661 H   0  0  0  0  0  0  0  0  0  0  0  0
    0.6170   27.5333  -26.9898 H   0  0  0  0  0  0  0  0  0  0  0  0
   -0.5674   27.1844  -23.4381 H   0  0  0  0  0  0  0  0  0  0  0  0
    0.8713   27.5441  -24.4517 H   0  0  0  0  0  0  0  0  0  0  0  0
   -0.5308   28.6669  -24.4517 H   0  0  0  0  0  0  0  0  0  0  0  0
   -2.3765   25.9460  -24.2963 H   0  0  0  0  0  0  0  0  0  0  0  0
   -3.3652   24.6319  -26.1654 H   0  0  0  0  0  0  0  0  0  0  0  0
   -0.8074   23.5773  -29.6231 H   0  0  0  0  0  0  0  0  0  0  0  0
   -3.0300   22.3670  -32.3957 H   0  0  0  0  0  0  0  0  0  0  0  0
   -1.4872   21.9763  -31.5572 H   0  0  0  0  0  0  0  0  0  0  0  0
   -3.2560   20.7670  -29.9000 H   0  0  0  0  0  0  0  0  0  0  0  0
   -5.8536   20.6777  -30.9792 H   0  0  0  0  0  0  0  0  0  0  0  0
   -7.1981   19.1321  -32.3910 H   0  0  0  0  0  0  0  0  0  0  0  0
   -2.2204   19.1757  -32.7833 H   0  0  0  0  0  0  0  0  0  0  0  0
   -6.0553   22.4700  -28.6688 H   0  0  0  0  0  0  0  0  0  0  0  0
   -8.3397   21.9607  -29.5342 H   0  0  0  0  0  0  0  0  0  0  0  0
  1  2  1  0
  2  3  2  0
  3  4  1  0
  4  5  2  0
  5  6  1  0
  6  7  2  0
  7  8  1  0
  8  9  1  0
  9 10  2  0
 10 11  1  0
 11 12  2  0
 12 13  1  0
 12 14  1  0
 14 15  2  0
  8 16  1  0
 16 17  2  0
 17 18  1  0
 18 19  1  0
 19 20  1  0
 20 21  2  0
 21 22  1  0
 22 23  2  0
 23 24  1  0
 23 25  1  0
 25 26  1  0
 26 27  1  0
 26 28  1  0
 26 29  1  0
 25 30  2  0
  5 31  1  0
 31 32  2  0
 32  2  1  0
 17  6  1  0
 30 20  1  0
 15  9  1  0
  1 33  1  0
  1 34  1  0
  1 35  1  0
  3 36  1  0
  4 37  1  0
 10 38  1  0
 11 39  1  0
 13 40  1  0
 13 41  1  0
 13 42  1  0
 14 43  1  0
 15 44  1  0
 16 45  1  0
 18 46  1  0
 18 47  1  0
 19 48  1  0
 21 49  1  0
 22 50  1  0
 30 51  1  0
 31 52  1  0
 32 53  1  0
M  END
>  <UniqueID>  (4) 
4

>  <SMILES>  (4) 
Cc1ccc(-c2nn(-c3ccc(C)cc3)cc2CNc2ccc(Cl)c(C(F)(F)F)c2)cc1

>  <Energy>  (4) 
91.02816758950684

>  <Genealogy>  (4) 
Cc1ccc(-c2nn(-c3ccc(C)cc3)cc2CNc2ccc(Cl)c(C(F)(F)F)c2)cc1 (3D coordinates assigned)
Cc1ccc(-c2nn(-c3ccc(C)cc3)cc2CNc2ccc(Cl)c(C(F)(F)F)c2)cc1 (optimized conformer: 91.02816758950684 kcal/mol)

>  <smiles>  (4) 
Cc1ccc(-c2nn(-c3ccc(C)cc3)cc2CNc2ccc(Cl)c(C(F)(F)F)c2)cc1

>  <score_type>  (4) 
oracle

>  <origin>  (4) 
adgpu

>  <m_score__min__energy>  (4) 
-9.7200000000000006

>  <m_primary>  (4) 
energy

$$$$
4:0
     RDKit          3D

 41 43  0  0  0  0  0  0  0  0999 V2000
   -3.4370   18.9380  -26.8650 C   0  0  0  0  0  0  0  0  0  0  0  0
   -2.2660   19.7650  -26.4190 C   0  0  0  0  0  0  0  0  0  0  0  0
   -1.9810   19.7860  -25.2290 O   0  0  0  0  0  0  0  0  0  0  0  0
   -1.4880   20.5340  -27.3730 N   0  0  2  0  0  0  0  0  0  0  0  0
   -2.3070   21.5250  -28.0000 C   0  0  0  0  0  0  0  0  0  0  0  0
   -2.9440   22.5850  -27.3400 C   0  0  0  0  0  0  0  0  0  0  0  0
   -3.7070   23.4910  -28.0920 C   0  0  0  0  0  0  0  0  0  0  0  0
   -3.8120   23.3420  -29.4900 C   0  0  0  0  0  0  0  0  0  0  0  0
   -4.7630   24.4740  -30.4430 S   0  0  0  0  0  0  0  0  0  0  0  0
   -5.9250   24.9490  -29.6170 O   0  0  0  0  0  0  0  0  0  0  0  0
   -3.9370   25.6630  -30.8480 O   0  0  0  0  0  0  0  0  0  0  0  0
   -5.3630   23.6850  -31.8650 N   0  0  0  0  0  0  0  0  0  0  0  0
   -6.1910   22.5130  -31.8750 C   0  0  0  0  0  0  0  0  0  0  0  0
   -7.5280   22.5400  -31.4370 C   0  0  0  0  0  0  0  0  0  0  0  0
   -8.3010   21.3750  -31.4610 C   0  0  0  0  0  0  0  0  0  0  0  0
   -7.7500   20.1770  -31.9250 C   0  0  0  0  0  0  0  0  0  0  0  0
   -8.8080   18.5870  -31.9540 Br  0  0  0  0  0  0  0  0  0  0  0  0
   -6.4230   20.1430  -32.3610 C   0  0  0  0  0  0  0  0  0  0  0  0
   -5.6450   21.3060  -32.3340 C   0  0  0  0  0  0  0  0  0  0  0  0
   -4.3610   21.2600  -32.7690 F   0  0  0  0  0  0  0  0  0  0  0  0
   -3.1490   22.2810  -30.1310 C   0  0  0  0  0  0  0  0  0  0  0  0
   -2.4030   21.3920  -29.3570 C   0  0  0  0  0  0  0  0  0  0  0  0
   -1.6240   20.2310  -29.8190 C   0  0  0  0  0  0  0  0  0  0  0  0
   -1.0070   19.6820  -28.5050 C   0  0  1  0  0  0  0  0  0  0  0  0
    0.5270   19.6620  -28.5770 C   0  0  0  0  0  0  0  0  0  0  0  0
   -3.9746   18.5583  -25.9836 H   0  0  0  0  0  0  0  0  0  0  0  0
   -4.1153   19.5585  -27.4691 H   0  0  0  0  0  0  0  0  0  0  0  0
   -3.0790   18.0913  -27.4691 H   0  0  0  0  0  0  0  0  0  0  0  0
   -0.6960   21.0270  -26.8950 H   0  0  0  0  0  0  0  0  0  0  0  0
   -2.8473   22.7045  -26.2508 H   0  0  0  0  0  0  0  0  0  0  0  0
   -4.2252   24.3207  -27.5889 H   0  0  0  0  0  0  0  0  0  0  0  0
   -7.9668   23.4812  -31.0743 H   0  0  0  0  0  0  0  0  0  0  0  0
   -9.3445   21.4013  -31.1141 H   0  0  0  0  0  0  0  0  0  0  0  0
   -5.9890   19.2005  -32.7261 H   0  0  0  0  0  0  0  0  0  0  0  0
   -3.2171   22.1543  -31.2216 H   0  0  0  0  0  0  0  0  0  0  0  0
   -2.2744   19.4818  -30.2940 H   0  0  0  0  0  0  0  0  0  0  0  0
   -0.8707   20.4878  -30.5784 H   0  0  0  0  0  0  0  0  0  0  0  0
   -1.3269   18.6413  -28.3484 H   0  0  0  0  0  0  0  0  0  0  0  0
    0.9418   19.6566  -27.5582 H   0  0  0  0  0  0  0  0  0  0  0  0
    0.8572   18.7595  -29.1122 H   0  0  0  0  0  0  0  0  0  0  0  0
    0.8806   20.5556  -29.1122 H   0  0  0  0  0  0  0  0  0  0  0  0
  1  2  1  0
  2  3  2  0
  2  4  1  0
  4  5  1  0
  5  6  2  0
  6  7  1  0
  7  8  2  0
  8  9  1  0
  9 10  2  0
  9 11  2  0
  9 12  1  0
 12 13  1  0
 13 14  2  0
 14 15  1  0
 15 16  2  0
 16 17  1  0
 16 18  1  0
 18 19  2  0
 19 20  1  0
  8 21  1  0
 21 22  2  0
 22 23  1  0
 23 24  1  0
 24 25  1  0
 24  4  1  0
 22  5  1  0
 19 13  1  0
  1 26  1  0
  1 27  1  0
  1 28  1  0
  4 29  1  1
  6 30  1  0
  7 31  1  0
 14 32  1  0
 15 33  1  0
 18 34  1  0
 21 35  1  0
 23 36  1  0
 23 37  1  0
 24 38  1  1
 25 39  1  0
 25 40  1  0
 25 41  1  0
M  CHG  2   4   1  12  -1
M  END
>  <UniqueID>  (5) 
5

>  <SMILES>  (5) 
CC(=O)[N@@H+]1c2ccc(S(=O)(=O)[N-]c3ccc(Br)cc3F)cc2C[C@H]1C

>  <Energy>  (5) 
55.62139535119396

>  <Genealogy>  (5) 
CC(=O)[NH+]1c2ccc(S(=O)(=O)[N-]c3ccc(Br)cc3F)cc2CC1C (protonated)
CC(=O)[N@@H+]1c2ccc(S(=O)(=O)[N-]c3ccc(Br)cc3F)cc2C[C@H]1C (chirality)
CC(=O)[N@@H+]1c2ccc(S(=O)(=O)[N-]c3ccc(Br)cc3F)cc2C[C@H]1C (3D coordinates assigned)
CC(=O)[N@@H+]1c2ccc(S(=O)(=O)[N-]c3ccc(Br)cc3F)cc2C[C@H]1C (nonaromatic ring conformer: 55.62139535119396 kcal/mol)

>  <smiles>  (5) 
CC(=O)N1c2ccc(S(=O)(=O)Nc3ccc(Br)cc3F)cc2CC1C

>  <score_type>  (5) 
oracle

>  <origin>  (5) 
adgpu

>  <m_score__min__energy>  (5) 
-10.73

>  <m_primary>  (5) 
energy

$$$$
5:0
     RDKit          3D

 38 40  0  0  0  0  0  0  0  0999 V2000
   -8.8220   19.4600  -32.3450 C   0  0  0  0  0  0  0  0  0  0  0  0
   -8.0020   20.6140  -31.8760 C   0  0  0  0  0  0  0  0  0  0  0  0
   -8.5880   21.6300  -31.1900 N   0  0  0  0  0  0  0  0  0  0  0  0
   -7.8550   22.6740  -30.7280 C   0  0  0  0  0  0  0  0  0  0  0  0
   -6.4720   22.7210  -30.9480 C   0  0  0  0  0  0  0  0  0  0  0  0
   -5.5480   24.1240  -30.3970 S   0  0  0  0  0  0  0  0  0  0  0  0
   -6.4040   25.0310  -29.5580 O   0  0  0  0  0  0  0  0  0  0  0  0
   -5.0500   24.8890  -31.5910 O   0  0  0  0  0  0  0  0  0  0  0  0
   -4.1890   23.5960  -29.4050 C   0  0  0  0  0  0  0  0  0  0  0  0
   -2.8870   24.0400  -29.6790 C   0  0  0  0  0  0  0  0  0  0  0  0
   -1.8160   23.6000  -28.8940 C   0  0  0  0  0  0  0  0  0  0  0  0
   -2.0410   22.7130  -27.8370 C   0  0  0  0  0  0  0  0  0  0  0  0
   -3.3370   22.2640  -27.5640 C   0  0  0  0  0  0  0  0  0  0  0  0
   -4.4090   22.7020  -28.3460 C   0  0  0  0  0  0  0  0  0  0  0  0
   -5.8790   21.6390  -31.6270 C   0  0  0  0  0  0  0  0  0  0  0  0
   -4.4660   21.5790  -31.8510 N   0  0  0  0  0  0  0  0  0  0  0  0
   -3.5710   20.8270  -30.9910 C   0  0  0  0  0  0  0  0  0  0  0  0
   -2.2060   20.9120  -31.6570 C   0  0  0  0  0  0  0  0  0  0  0  0
   -2.4750   21.3040  -33.1090 C   0  0  0  0  0  0  0  0  0  0  0  0
   -3.8650   21.9290  -33.1240 C   0  0  0  0  0  0  0  0  0  0  0  0
   -6.6590   20.6190  -32.0760 N   0  0  0  0  0  0  0  0  0  0  0  0
   -9.2125   18.9104  -31.4758 H   0  0  0  0  0  0  0  0  0  0  0  0
   -9.6613   19.8294  -32.9525 H   0  0  0  0  0  0  0  0  0  0  0  0
   -8.1970   18.7890  -32.9525 H   0  0  0  0  0  0  0  0  0  0  0  0
   -8.3492   23.4881  -30.1776 H   0  0  0  0  0  0  0  0  0  0  0  0
   -2.7078   24.7352  -30.5124 H   0  0  0  0  0  0  0  0  0  0  0  0
   -0.7962   23.9521  -29.1085 H   0  0  0  0  0  0  0  0  0  0  0  0
   -1.1983   22.3681  -27.2198 H   0  0  0  0  0  0  0  0  0  0  0  0
   -3.5127   21.5653  -26.7328 H   0  0  0  0  0  0  0  0  0  0  0  0
   -5.4271   22.3454  -28.1311 H   0  0  0  0  0  0  0  0  0  0  0  0
   -3.5375   21.2731  -29.9861 H   0  0  0  0  0  0  0  0  0  0  0  0
   -3.9018   19.7853  -30.8668 H   0  0  0  0  0  0  0  0  0  0  0  0
   -1.5856   21.6743  -31.1631 H   0  0  0  0  0  0  0  0  0  0  0  0
   -1.6623   19.9581  -31.5892 H   0  0  0  0  0  0  0  0  0  0  0  0
   -1.7251   22.0311  -33.4539 H   0  0  0  0  0  0  0  0  0  0  0  0
   -2.4171   20.4335  -33.7790 H   0  0  0  0  0  0  0  0  0  0  0  0
   -3.7931   23.0218  -33.2267 H   0  0  0  0  0  0  0  0  0  0  0  0
   -4.4653   21.5642  -33.9705 H   0  0  0  0  0  0  0  0  0  0  0  0
  1  2  1  0
  2  3  2  0
  3  4  1  0
  4  5  2  0
  5  6  1  0
  6  7  2  0
  6  8  2  0
  6  9  1  0
  9 10  2  0
 10 11  1  0
 11 12  2  0
 12 13  1  0
 13 14  2  0
  5 15  1  0
 15 16  1  0
 16 17  1  0
 17 18  1  0
 18 19  1  0
 19 20  1  0
 15 21  2  0
 21  2  1  0
 14  9  1  0
 20 16  1  0
  1 22  1  0
  1 23  1  0
  1 24  1  0
  4 25  1  0
 10 26  1  0
 11 27  1  0
 12 28  1  0
 13 29  1  0
 14 30  1  0
 17 31  1  0
 17 32  1  0
 18 33  1  0
 18 34  1  0
 19 35  1  0
 19 36  1  0
 20 37  1  0
 20 38  1  0
M  END
>  <UniqueID>  (6) 
6

>  <SMILES>  (6) 
Cc1ncc(S(=O)(=O)c2ccccc2)c(N2CCCC2)n1

>  <Energy>  (6) 
47.051044530838084

>  <Genealogy>  (6) 
Cc1ncc(S(=O)(=O)c2ccccc2)c(N2CCCC2)n1 (3D coordinates assigned)
Cc1ncc(S(=O)(=O)c2ccccc2)c(N2CCCC2)n1 (nonaromatic ring conformer: 47.051044530838084 kcal/mol)

>  <smiles>  (6) 
Cc1ncc(S(=O)(=O)c2ccccc2)c(N2CCCC2)n1

>  <score_type>  (6) 
oracle

>  <origin>  (6) 
adgpu

>  <m_score__min__energy>  (6) 
-7.4100000000000001

>  <m_primary>  (6) 
energy

$$$$
6:0
     RDKit          3D

 31 33  0  0  0  0  0  0  0  0999 V2000
   -7.2450   13.5650  -34.5820 C   0  0  0  0  0  0  0  0  0  0  0  0
   -6.0360   14.3170  -34.5990 O   0  0  0  0  0  0  0  0  0  0  0  0
   -5.9080   15.6230  -34.1030 C   0  0  0  0  0  0  0  0  0  0  0  0
   -6.9820   16.3150  -33.5140 C   0  0  0  0  0  0  0  0  0  0  0  0
   -6.8040   17.6170  -33.0350 C   0  0  0  0  0  0  0  0  0  0  0  0
   -5.5530   18.2500  -33.1330 C   0  0  0  0  0  0  0  0  0  0  0  0
   -5.3640   19.6330  -32.6230 C   0  0  0  0  0  0  0  0  0  0  0  0
   -6.4300   20.3270  -32.0260 C   0  0  0  0  0  0  0  0  0  0  0  0
   -6.2530   21.6280  -31.5460 C   0  0  0  0  0  0  0  0  0  0  0  0
   -5.0040   22.2620  -31.6530 C   0  0  0  0  0  0  0  0  0  0  0  0
   -4.8170   23.6390  -31.1460 C   0  0  0  0  0  0  0  0  0  0  0  0
   -5.8350   24.4940  -30.9000 N   0  0  0  0  0  0  0  0  0  0  0  0
   -5.1580   25.5740  -30.4700 C   0  0  0  0  0  0  0  0  0  0  0  0
   -5.7120   26.6480  -30.1160 O   0  0  0  0  0  0  0  0  0  0  0  0
   -3.8660   25.3830  -30.4580 O   0  0  0  0  0  0  0  0  0  0  0  0
   -3.6100   24.1820  -30.8740 N   0  0  0  0  0  0  0  0  0  0  0  0
   -3.9370   21.5710  -32.2490 C   0  0  0  0  0  0  0  0  0  0  0  0
   -4.1150   20.2700  -32.7290 C   0  0  0  0  0  0  0  0  0  0  0  0
   -4.4830   17.5530  -33.7220 C   0  0  0  0  0  0  0  0  0  0  0  0
   -4.6630   16.2530  -34.2010 C   0  0  0  0  0  0  0  0  0  0  0  0
   -7.5458   13.3779  -33.5406 H   0  0  0  0  0  0  0  0  0  0  0  0
   -8.0360   14.1307  -35.0961 H   0  0  0  0  0  0  0  0  0  0  0  0
   -7.0872   12.6054  -35.0961 H   0  0  0  0  0  0  0  0  0  0  0  0
   -7.9658   15.8301  -33.4298 H   0  0  0  0  0  0  0  0  0  0  0  0
   -7.6505   18.1502  -32.5776 H   0  0  0  0  0  0  0  0  0  0  0  0
   -7.4131   19.8420  -31.9355 H   0  0  0  0  0  0  0  0  0  0  0  0
   -7.0972   22.1587  -31.0815 H   0  0  0  0  0  0  0  0  0  0  0  0
   -2.9541   22.0566  -32.3389 H   0  0  0  0  0  0  0  0  0  0  0  0
   -3.2705   19.7401  -33.1937 H   0  0  0  0  0  0  0  0  0  0  0  0
   -3.4976   18.0346  -33.8061 H   0  0  0  0  0  0  0  0  0  0  0  0
   -3.8174   15.7196  -34.6597 H   0  0  0  0  0  0  0  0  0  0  0  0
  1  2  1  0
  2  3  1  0
  3  4  2  0
  4  5  1  0
  5  6  2  0
  6  7  1  0
  7  8  2  0
  8  9  1  0
  9 10  2  0
 10 11  1  0
 11 12  2  0
 12 13  1  0
 13 14  2  0
 13 15  1  0
 15 16  1  0
 10 17  1  0
 17 18  2  0
  6 19  1  0
 19 20  2  0
 20  3  1  0
 18  7  1  0
 16 11  1  0
  1 21  1  0
  1 22  1  0
  1 23  1  0
  4 24  1  0
  5 25  1  0
  8 26  1  0
  9 27  1  0
 17 28  1  0
 18 29  1  0
 19 30  1  0
 20 31  1  0
M  CHG  1  16  -1
M  END
>  <UniqueID>  (7) 
7

>  <SMILES>  (7) 
COc1ccc(-c2ccc(-c3nc(=O)o[n-]3)cc2)cc1

>  <Energy>  (7) 
72.95654839836462

>  <Genealogy>  (7) 
COc1ccc(-c2ccc(-c3nc(=O)o[n-]3)cc2)cc1 (protonated)
COc1ccc(-c2ccc(-c3nc(=O)o[n-]3)cc2)cc1 (3D coordinates assigned)
COc1ccc(-c2ccc(-c3nc(=O)o[n-]3)cc2)cc1 (optimized conformer: 72.95654839836462 kcal/mol)

>  <smiles>  (7) 
COc1ccc(-c2ccc(-c3nc(=O)o[nH]3)cc2)cc1

>  <score_type>  (7) 
oracle

>  <origin>  (7) 
adgpu

>  <m_score__min__energy>  (7) 
-8.4900000000000002

>  <m_primary>  (7) 
energy

$$$$
7:0
     RDKit          3D

 53 56  0  0  0  0  0  0  0  0999 V2000
   -2.4160   15.7880  -34.1450 C   0  0  0  0  0  0  0  0  0  0  0  0
   -3.3940   16.8530  -33.8810 N   0  0  0  0  0  0  0  0  0  0  0  0
   -4.6610   16.5840  -34.6040 C   0  0  0  0  0  0  0  0  0  0  0  0
   -5.5330   17.8450  -34.7810 C   0  0  0  0  0  0  0  0  0  0  0  0
   -5.1640   18.8830  -33.8080 N   0  0  0  0  0  0  0  0  0  0  0  0
   -6.1660   19.6810  -33.1480 C   0  0  0  0  0  0  0  0  0  0  0  0
   -5.8330   20.9000  -32.5330 C   0  0  0  0  0  0  0  0  0  0  0  0
   -6.8330   21.6710  -31.9170 C   0  0  0  0  0  0  0  0  0  0  0  0
   -6.4970   22.9590  -31.2600 C   0  0  0  0  0  0  0  0  0  0  0  0
   -7.5070   23.7530  -30.6900 C   0  0  0  0  0  0  0  0  0  0  0  0
   -7.1880   24.9550  -30.0560 C   0  0  0  0  0  0  0  0  0  0  0  0
   -5.8600   25.3820  -29.9910 C   0  0  0  0  0  0  0  0  0  0  0  0
   -4.8410   24.6200  -30.5720 C   0  0  0  0  0  0  0  0  0  0  0  0
   -3.4880   25.0820  -30.4540 N   0  0  0  0  0  0  0  0  0  0  0  0
   -2.6140   24.9050  -29.3310 C   0  0  0  0  0  0  0  0  0  0  0  0
   -1.6300   25.6700  -29.1580 O   0  0  0  0  0  0  0  0  0  0  0  0
   -2.8440   23.8480  -28.3910 N   0  0  0  0  0  0  0  0  0  0  0  0
   -2.2870   22.5270  -28.4530 C   0  0  0  0  0  0  0  0  0  0  0  0
   -1.3520   22.1620  -29.4400 C   0  0  0  0  0  0  0  0  0  0  0  0
   -0.8530   20.8570  -29.4860 C   0  0  0  0  0  0  0  0  0  0  0  0
   -1.2920   19.9040  -28.5640 C   0  0  0  0  0  0  0  0  0  0  0  0
   -2.2410   20.2510  -27.5960 C   0  0  0  0  0  0  0  0  0  0  0  0
   -2.7010   19.2680  -26.6510 C   0  0  0  0  0  0  0  0  0  0  0  0
   -3.0710   18.4770  -25.8900 N   0  0  0  0  0  0  0  0  0  0  0  0
   -2.7430   21.5590  -27.5480 C   0  0  0  0  0  0  0  0  0  0  0  0
   -5.1620   23.3970  -31.1890 C   0  0  0  0  0  0  0  0  0  0  0  0
   -8.1570   21.2050  -31.9380 C   0  0  0  0  0  0  0  0  0  0  0  0
   -8.4540   19.9990  -32.5740 C   0  0  0  0  0  0  0  0  0  0  0  0
   -7.4650   19.2760  -33.1620 N   0  0  0  0  0  0  0  0  0  0  0  0
   -3.7520   19.2620  -33.6770 C   0  0  0  0  0  0  0  0  0  0  0  0
   -2.8380   18.1690  -34.2370 C   0  0  0  0  0  0  0  0  0  0  0  0
   -2.0460   15.3851  -33.1906 H   0  0  0  0  0  0  0  0  0  0  0  0
   -2.8966   14.9834  -34.7210 H   0  0  0  0  0  0  0  0  0  0  0  0
   -1.5735   16.1984  -34.7210 H   0  0  0  0  0  0  0  0  0  0  0  0
   -4.4185   16.1829  -35.5991 H   0  0  0  0  0  0  0  0  0  0  0  0
   -5.2378   15.8666  -34.0018 H   0  0  0  0  0  0  0  0  0  0  0  0
   -5.3923   18.2395  -35.7982 H   0  0  0  0  0  0  0  0  0  0  0  0
   -6.5849   17.5689  -34.6161 H   0  0  0  0  0  0  0  0  0  0  0  0
   -4.7902   21.2502  -32.5339 H   0  0  0  0  0  0  0  0  0  0  0  0
   -8.5556   23.4251  -30.7439 H   0  0  0  0  0  0  0  0  0  0  0  0
   -7.9841   25.5669  -29.6068 H   0  0  0  0  0  0  0  0  0  0  0  0
   -5.6136   26.3241  -29.4794 H   0  0  0  0  0  0  0  0  0  0  0  0
   -1.0133   22.9053  -30.1767 H   0  0  0  0  0  0  0  0  0  0  0  0
   -0.1124   20.5798  -30.2506 H   0  0  0  0  0  0  0  0  0  0  0  0
   -0.8915   18.8801  -28.5989 H   0  0  0  0  0  0  0  0  0  0  0  0
   -3.4993   21.8271  -26.7956 H   0  0  0  0  0  0  0  0  0  0  0  0
   -4.3617   22.7775  -31.6199 H   0  0  0  0  0  0  0  0  0  0  0  0
   -8.9560   21.7873  -31.4558 H   0  0  0  0  0  0  0  0  0  0  0  0
   -9.4909   19.6328  -32.5994 H   0  0  0  0  0  0  0  0  0  0  0  0
   -3.5771   20.1962  -34.2308 H   0  0  0  0  0  0  0  0  0  0  0  0
   -3.5227   19.3988  -32.6099 H   0  0  0  0  0  0  0  0  0  0  0  0
   -2.7799   18.2614  -35.3316 H   0  0  0  0  0  0  0  0  0  0  0  0
   -1.8286   18.2740  -33.8127 H   0  0  0  0  0  0  0  0  0  0  0  0
  1  2  1  0
  2  3  1  0
  3  4  1  0
  4  5  1  0
  5  6  1  0
  6  7  2  0
  7  8  1  0
  8  9  1  0
  9 10  2  0
 10 11  1  0
 11 12  2  0
 12 13  1  0
 13 14  1  0
 14 15  1  0
 15 16  2  0
 15 17  1  0
 17 18  1  0
 18 19  2  0
 19 20  1  0
 20 21  2  0
 21 22  1  0
 22 23  1  0
 23 24  3  0
 22 25  2  0
 13 26  2  0
  8 27  2  0
 27 28  1  0
 28 29  2  0
  5 30  1  0
 30 31  1  0
 31  2  1  0
 29  6  1  0
 26  9  1  0
 25 18  1  0
  1 32  1  0
  1 33  1  0
  1 34  1  0
  3 35  1  0
  3 36  1  0
  4 37  1  0
  4 38  1  0
  7 39  1  0
 10 40  1  0
 11 41  1  0
 12 42  1  0
 19 43  1  0
 20 44  1  0
 21 45  1  0
 25 46  1  0
 26 47  1  0
 27 48  1  0
 28 49  1  0
 30 50  1  0
 30 51  1  0
 31 52  1  0
 31 53  1  0
M  CHG  2  14  -1  17  -1
M  END
>  <UniqueID>  (8) 
8

>  <SMILES>  (8) 
CN1CCN(c2cc(-c3cccc([N-]C(=O)[N-]c4cccc(C#N)c4)c3)ccn2)CC1

>  <Energy>  (8) 
76.5190191363206

>  <Genealogy>  (8) 
CN1CCN(c2cc(-c3cccc([N-]C(=O)[N-]c4cccc(C#N)c4)c3)ccn2)CC1 (protonated)
CN1CCN(c2cc(-c3cccc([N-]C(=O)[N-]c4cccc(C#N)c4)c3)ccn2)CC1 (3D coordinates assigned)
CN1CCN(c2cc(-c3cccc([N-]C(=O)[N-]c4cccc(C#N)c4)c3)ccn2)CC1 (nonaromatic ring conformer: 76.5190191363206 kcal/mol)

>  <smiles>  (8) 
CN1CCN(c2cc(-c3cccc(NC(=O)Nc4cccc(C#N)c4)c3)ccn2)CC1

>  <score_type>  (8) 
oracle

>  <origin>  (8) 
adgpu

>  <m_score__min__energy>  (8) 
-13.32

>  <m_primary>  (8) 
energy

$$$$
8:0
     RDKit          3D

 43 45  0  0  0  0  0  0  0  0999 V2000
   -0.3486   20.6652  -30.9759 H   0  0  0  0  0  0  0  0  0  0  0  0
   -0.9930   21.0290  -30.1620 C   0  0  0  0  0  0  0  0  0  0  0  0
   -1.4490   20.1420  -29.1840 C   0  0  0  0  0  0  0  0  0  0  0  0
   -1.1654   19.0803  -29.2321 H   0  0  0  0  0  0  0  0  0  0  0  0
   -2.2670   20.6000  -28.1410 C   0  0  0  0  0  0  0  0  0  0  0  0
   -2.7570   19.6390  -27.0990 C   0  0  0  0  0  0  0  0  0  0  0  0
   -2.5495   20.0460  -26.0983 H   0  0  0  0  0  0  0  0  0  0  0  0
   -3.8406   19.4911  -27.2172 H   0  0  0  0  0  0  0  0  0  0  0  0
   -2.2403   18.6751  -27.2172 H   0  0  0  0  0  0  0  0  0  0  0  0
   -2.6500   21.9510  -28.1040 C   0  0  0  0  0  0  0  0  0  0  0  0
   -3.3165   22.3096  -27.3058 H   0  0  0  0  0  0  0  0  0  0  0  0
   -2.1860   22.8450  -29.0810 C   0  0  0  0  0  0  0  0  0  0  0  0
   -2.5490   24.5670  -28.9790 S   0  0  0  0  0  0  0  0  0  0  0  0
   -1.2900   25.3870  -28.9870 O   0  0  0  0  0  0  0  0  0  0  0  0
   -3.2980   24.8320  -27.7030 O   0  0  0  0  0  0  0  0  0  0  0  0
   -3.5390   25.0110  -30.3320 N   0  0  0  0  0  0  0  0  0  0  0  0
   -4.6260   24.2060  -30.8060 C   0  0  0  0  0  0  0  0  0  0  0  0
   -5.9370   24.5770  -30.4880 C   0  0  0  0  0  0  0  0  0  0  0  0
   -6.1258   25.5266  -29.9658 H   0  0  0  0  0  0  0  0  0  0  0  0
   -7.0090   23.7460  -30.8310 C   0  0  0  0  0  0  0  0  0  0  0  0
   -8.0359   24.0367  -30.5648 H   0  0  0  0  0  0  0  0  0  0  0  0
   -6.7770   22.5440  -31.5130 C   0  0  0  0  0  0  0  0  0  0  0  0
   -8.0980   21.4190  -31.8120 S   0  0  0  0  0  0  0  0  0  0  0  0
   -9.2780   22.1820  -32.3450 O   0  0  0  0  0  0  0  0  0  0  0  0
   -8.4930   20.7210  -30.5410 O   0  0  0  0  0  0  0  0  0  0  0  0
   -7.6100   20.2330  -32.9850 N   0  0  0  0  0  0  0  0  0  0  0  0
   -7.0330   19.0920  -32.7330 C   0  0  0  0  0  0  0  0  0  0  0  0
   -6.6480   18.2830  -33.8120 C   0  0  0  0  0  0  0  0  0  0  0  0
   -6.8656   18.5980  -34.8432 H   0  0  0  0  0  0  0  0  0  0  0  0
   -5.9890   17.0790  -33.5730 C   0  0  0  0  0  0  0  0  0  0  0  0
   -5.6751   16.4458  -34.4160 H   0  0  0  0  0  0  0  0  0  0  0  0
   -5.7280   16.6780  -32.2630 C   0  0  0  0  0  0  0  0  0  0  0  0
   -5.2049   15.7308  -32.0648 H   0  0  0  0  0  0  0  0  0  0  0  0
   -6.1380   17.4920  -31.2070 C   0  0  0  0  0  0  0  0  0  0  0  0
   -5.9461   17.1806  -30.1696 H   0  0  0  0  0  0  0  0  0  0  0  0
   -6.7750   18.6710  -31.4540 N   0  0  0  0  0  0  0  0  0  0  0  0
   -7.0680   19.2300  -30.6240 H   0  0  0  0  0  0  0  0  0  0  0  0
   -5.4730   22.2080  -31.8960 C   0  0  0  0  0  0  0  0  0  0  0  0
   -5.2915   21.2923  -32.4779 H   0  0  0  0  0  0  0  0  0  0  0  0
   -4.4020   23.0310  -31.5420 C   0  0  0  0  0  0  0  0  0  0  0  0
   -3.3791   22.7581  -31.8407 H   0  0  0  0  0  0  0  0  0  0  0  0
   -1.3540   22.3770  -30.1080 C   0  0  0  0  0  0  0  0  0  0  0  0
   -0.9842   23.0743  -30.8741 H   0  0  0  0  0  0  0  0  0  0  0  0
  1  2  1  0
  2  3  2  0
  3  4  1  0
  3  5  1  0
  5  6  1  0
  6  7  1  0
  6  8  1  0
  6  9  1  0
  5 10  2  0
 10 11  1  0
 10 12  1  0
 12 13  1  0
 13 14  2  0
 13 15  2  0
 13 16  1  0
 16 17  1  0
 17 18  2  0
 18 19  1  0
 18 20  1  0
 20 21  1  0
 20 22  2  0
 22 23  1  0
 23 24  2  0
 23 25  2  0
 23 26  1  0
 26 27  2  0
 27 28  1  0
 28 29  1  0
 28 30  2  0
 30 31  1  0
 30 32  1  0
 32 33  1  0
 32 34  2  0
 34 35  1  0
 34 36  1  0
 36 37  1  0
 22 38  1  0
 38 39  1  0
 38 40  2  0
 40 41  1  0
 12 42  2  0
 42 43  1  0
 42  2  1  0
 40 17  1  0
 36 27  1  0
M  CHG  1  16  -1
M  END
>  <UniqueID>  (9) 
9

>  <SMILES>  (9) 
Cc1cccc(S(=O)(=O)[N-]c2ccc(S(=O)(=O)/N=c3/cccc[nH]3)cc2)c1

>  <Energy>  (9) 
51.7675303713459

>  <Genealogy>  (9) 
Cc1cccc(S(=O)(=O)[N-]c2ccc(S(=O)(=O)N=c3cccc[nH]3)cc2)c1 (protonated)
Cc1cccc(S(=O)(=O)[N-]c2ccc(S(=O)(=O)/N=c3/cccc[nH]3)cc2)c1 (cis-trans isomerization)
Cc1cccc(S(=O)(=O)[N-]c2ccc(S(=O)(=O)/N=c3/cccc[nH]3)cc2)c1 (3D coordinates assigned)
Cc1cccc(S(=O)(=O)[N-]c2ccc(S(=O)(=O)/N=c3/cccc[nH]3)cc2)c1 (optimized conformer: 51.7675303713459 kcal/mol)

>  <smiles>  (9) 
Cc1cccc(S(=O)(=O)Nc2ccc(S(=O)(=O)N=c3cccc[nH]3)cc2)c1

>  <score_type>  (9) 
oracle

>  <origin>  (9) 
adgpu

>  <m_score__min__energy>  (9) 
-11.109999999999999

>  <m_primary>  (9) 
energy

$$$$
9:0
     RDKit          3D

 22 23  0  0  0  0  0  0  0  0999 V2000
   -0.3590   21.8510  -28.8540 O   0  0  0  0  0  0  0  0  0  0  0  0
   -1.0970   22.8420  -29.1030 C   0  0  0  0  0  0  0  0  0  0  0  0
   -2.3730   22.6400  -29.6290 C   0  0  0  0  0  0  0  0  0  0  0  0
   -3.1860   23.7570  -29.9000 C   0  0  0  0  0  0  0  0  0  0  0  0
   -4.5540   23.6140  -30.4590 C   0  0  0  0  0  0  0  0  0  0  0  0
   -5.5870   24.4430  -29.9820 C   0  0  0  0  0  0  0  0  0  0  0  0
   -6.8820   24.3320  -30.4980 C   0  0  0  0  0  0  0  0  0  0  0  0
   -7.1600   23.4010  -31.5010 C   0  0  0  0  0  0  0  0  0  0  0  0
   -8.4150   23.2970  -32.0020 F   0  0  0  0  0  0  0  0  0  0  0  0
   -6.1410   22.5820  -31.9940 C   0  0  0  0  0  0  0  0  0  0  0  0
   -4.8440   22.6880  -31.4800 C   0  0  0  0  0  0  0  0  0  0  0  0
   -2.7240   24.9800  -29.6370 O   0  0  0  0  0  0  0  0  0  0  0  0
   -1.5140   25.2080  -29.1350 C   0  0  0  0  0  0  0  0  0  0  0  0
   -1.1090   26.5160  -28.8940 O   0  0  0  0  0  0  0  0  0  0  0  0
   -0.6520   24.1450  -28.8520 C   0  0  0  0  0  0  0  0  0  0  0  0
    0.6160   24.3980  -28.3290 O   0  0  0  0  0  0  0  0  0  0  0  0
   -2.7389   21.6222  -29.8293 H   0  0  0  0  0  0  0  0  0  0  0  0
   -5.3739   25.1838  -29.1973 H   0  0  0  0  0  0  0  0  0  0  0  0
   -7.6835   24.9795  -30.1129 H   0  0  0  0  0  0  0  0  0  0  0  0
   -6.3589   21.8524  -32.7878 H   0  0  0  0  0  0  0  0  0  0  0  0
   -4.0452   22.0437  -31.8760 H   0  0  0  0  0  0  0  0  0  0  0  0
    0.9730   25.3410  -28.2180 H   0  0  0  0  0  0  0  0  0  0  0  0
  1  2  2  0
  2  3  1  0
  3  4  2  0
  4  5  1  0
  5  6  2  0
  6  7  1  0
  7  8  2  0
  8  9  1  0
  8 10  1  0
 10 11  2  0
  4 12  1  0
 12 13  1  0
 13 14  1  0
 13 15  2  0
 15 16  1  0
 15  2  1  0
 11  5  1  0
  3 17  1  0
  6 18  1  0
  7 19  1  0
 10 20  1  0
 11 21  1  0
 16 22  1  0
M  CHG  1  14  -1
M  END
>  <UniqueID>  (10) 
10

>  <SMILES>  (10) 
O=c1cc(-c2ccc(F)cc2)oc([O-])c1O

>  <Energy>  (10) 
28.76921951594946

>  <Genealogy>  (10) 
O=c1cc(-c2ccc(F)cc2)oc([O-])c1O (protonated)
O=c1cc(-c2ccc(F)cc2)oc([O-])c1O (3D coordinates assigned)
O=c1cc(-c2ccc(F)cc2)oc([O-])c1O (optimized conformer: 28.76921951594946 kcal/mol)

>  <smiles>  (10) 
O=c1cc(-c2ccc(F)cc2)oc(O)c1O

>  <score_type>  (10) 
oracle

>  <origin>  (10) 
adgpu

>  <m_score__min__energy>  (10) 
-7.8499999999999996

>  <m_primary>  (10) 
energy

$$$$
10:0
     RDKit          3D

 24 26  0  0  0  0  0  0  0  0999 V2000
   -7.5740   23.8330  -33.0950 O   0  0  0  0  0  0  0  0  0  0  0  0
   -7.3430   23.1730  -32.0470 C   0  0  0  0  0  0  0  0  0  0  0  0
   -6.6870   23.7810  -30.9270 N   0  0  0  0  0  0  0  0  0  0  0  0
   -5.3130   23.6190  -30.5460 C   0  0  0  0  0  0  0  0  0  0  0  0
   -4.6910   22.3690  -30.7820 C   0  0  0  0  0  0  0  0  0  0  0  0
   -3.3400   22.1620  -30.4490 C   0  0  0  0  0  0  0  0  0  0  0  0
   -2.6390   23.2300  -29.8970 C   0  0  0  0  0  0  0  0  0  0  0  0
   -1.3520   23.2580  -29.5200 N   0  0  0  0  0  0  0  0  0  0  0  0
   -1.2140   24.5350  -29.0810 C   0  0  0  0  0  0  0  0  0  0  0  0
   -0.1260   24.9790  -28.6310 O   0  0  0  0  0  0  0  0  0  0  0  0
   -2.3330   25.3000  -29.1640 N   0  0  0  0  0  0  0  0  0  0  0  0
   -3.2220   24.4410  -29.6840 C   0  0  0  0  0  0  0  0  0  0  0  0
   -4.5560   24.6850  -30.0010 C   0  0  0  0  0  0  0  0  0  0  0  0
   -7.8000   21.7820  -31.9570 C   0  0  0  0  0  0  0  0  0  0  0  0
   -9.0320   21.3590  -31.4930 C   0  0  0  0  0  0  0  0  0  0  0  0
   -9.0160   19.9840  -31.5910 C   0  0  0  0  0  0  0  0  0  0  0  0
   -7.7790   19.6590  -32.1080 C   0  0  0  0  0  0  0  0  0  0  0  0
   -7.1580   17.8940  -32.4730 Br  0  0  0  0  0  0  0  0  0  0  0  0
   -7.0750   20.7480  -32.3160 O   0  0  0  0  0  0  0  0  0  0  0  0
   -5.2714   21.5497  -31.2313 H   0  0  0  0  0  0  0  0  0  0  0  0
   -2.8545   21.1897  -30.6190 H   0  0  0  0  0  0  0  0  0  0  0  0
   -5.0074   25.6740  -29.8335 H   0  0  0  0  0  0  0  0  0  0  0  0
   -9.8542   21.9889  -31.1226 H   0  0  0  0  0  0  0  0  0  0  0  0
   -9.8229   19.2895  -31.3142 H   0  0  0  0  0  0  0  0  0  0  0  0
  1  2  2  0
  2  3  1  0
  3  4  1  0
  4  5  2  0
  5  6  1  0
  6  7  2  0
  7  8  1  0
  8  9  1  0
  9 10  2  0
  9 11  1  0
 11 12  1  0
 12 13  2  0
  2 14  1  0
 14 15  2  0
 15 16  1  0
 16 17  2  0
 17 18  1  0
 17 19  1  0
 13  4  1  0
 19 14  1  0
 12  7  1  0
  5 20  1  0
  6 21  1  0
 13 22  1  0
 15 23  1  0
 16 24  1  0
M  CHG  3   3  -1   8  -1  11  -1
M  END
>  <UniqueID>  (11) 
11

>  <SMILES>  (11) 
O=C([N-]c1ccc2[n-]c(=O)[n-]c2c1)c1ccc(Br)o1

>  <Energy>  (11) 
90.27629669653159

>  <Genealogy>  (11) 
O=C([N-]c1ccc2[n-]c(=O)[n-]c2c1)c1ccc(Br)o1 (protonated)
O=C([N-]c1ccc2[n-]c(=O)[n-]c2c1)c1ccc(Br)o1 (3D coordinates assigned)
O=C([N-]c1ccc2[n-]c(=O)[n-]c2c1)c1ccc(Br)o1 (optimized conformer: 90.27629669653159 kcal/mol)

>  <smiles>  (11) 
O=C(Nc1ccc2[nH]c(=O)[nH]c2c1)c1ccc(Br)o1

>  <score_type>  (11) 
oracle

>  <origin>  (11) 
adgpu

>  <m_score__min__energy>  (11) 
-9.7699999999999996

>  <m_primary>  (11) 
energy

$$$$
11:0
     RDKit          3D

 53 55  0  0  0  0  0  0  0  0999 V2000
   -2.9850   21.8110  -32.3000 C   0  0  0  0  0  0  0  0  0  0  0  0
   -3.1010   22.9390  -31.4370 O   0  0  0  0  0  0  0  0  0  0  0  0
   -4.3140   23.5580  -31.0930 C   0  0  0  0  0  0  0  0  0  0  0  0
   -5.5220   23.2360  -31.7440 C   0  0  0  0  0  0  0  0  0  0  0  0
   -6.7010   23.9140  -31.4220 C   0  0  0  0  0  0  0  0  0  0  0  0
   -6.6890   24.9210  -30.4570 C   0  0  0  0  0  0  0  0  0  0  0  0
   -5.5000   25.2440  -29.8010 C   0  0  0  0  0  0  0  0  0  0  0  0
   -4.3180   24.5510  -30.0900 C   0  0  0  0  0  0  0  0  0  0  0  0
   -3.1230   24.9240  -29.3930 N   0  0  0  0  0  0  0  0  0  0  0  0
   -2.8210   24.6170  -28.0260 C   0  0  0  0  0  0  0  0  0  0  0  0
   -3.6920   24.0590  -27.3030 O   0  0  0  0  0  0  0  0  0  0  0  0
   -1.4970   24.9610  -27.4500 C   0  0  0  0  0  0  0  0  0  0  0  0
   -1.3460   26.1880  -26.7750 C   0  0  0  0  0  0  0  0  0  0  0  0
   -0.1320   26.5300  -26.1680 C   0  0  0  0  0  0  0  0  0  0  0  0
    0.0580   28.0740  -25.3370 S   0  0  0  0  0  0  0  0  0  0  0  0
   -1.1870   28.8920  -25.5530 O   0  0  0  0  0  0  0  0  0  0  0  0
    1.2330   28.8250  -25.9060 O   0  0  0  0  0  0  0  0  0  0  0  0
    0.3010   27.8010  -23.6280 N   0  0  0  0  0  0  0  0  0  0  0  0
   -0.4720   26.6290  -23.1900 C   0  0  0  0  0  0  0  0  0  0  0  0
    1.7310   27.6100  -23.3520 C   0  0  0  0  0  0  0  0  0  0  0  0
    0.9490   25.6480  -26.2360 C   0  0  0  0  0  0  0  0  0  0  0  0
    0.8240   24.4360  -26.9120 C   0  0  0  0  0  0  0  0  0  0  0  0
   -0.3840   24.0850  -27.5300 C   0  0  0  0  0  0  0  0  0  0  0  0
   -0.4460   22.8650  -28.2760 N   0  0  0  0  0  0  0  0  0  0  0  0
   -0.4990   22.8230  -29.7240 C   0  0  0  0  0  0  0  0  0  0  0  0
   -0.4960   21.3420  -30.0800 C   0  0  0  0  0  0  0  0  0  0  0  0
   -0.9200   20.6090  -28.8080 C   0  0  0  0  0  0  0  0  0  0  0  0
   -0.6450   21.5680  -27.6560 C   0  0  0  0  0  0  0  0  0  0  0  0
   -2.8909   20.8960  -31.6968 H   0  0  0  0  0  0  0  0  0  0  0  0
   -3.8807   21.7413  -32.9347 H   0  0  0  0  0  0  0  0  0  0  0  0
   -2.0938   21.9250  -32.9347 H   0  0  0  0  0  0  0  0  0  0  0  0
   -5.5369   22.4466  -32.5099 H   0  0  0  0  0  0  0  0  0  0  0  0
   -7.6406   23.6528  -31.9308 H   0  0  0  0  0  0  0  0  0  0  0  0
   -7.6161   25.4604  -30.2130 H   0  0  0  0  0  0  0  0  0  0  0  0
   -5.4914   26.0490  -29.0514 H   0  0  0  0  0  0  0  0  0  0  0  0
   -2.1938   26.8871  -26.7242 H   0  0  0  0  0  0  0  0  0  0  0  0
   -0.0350   28.6450  -23.1060 H   0  0  0  0  0  0  0  0  0  0  0  0
   -0.4947   26.5946  -22.0908 H   0  0  0  0  0  0  0  0  0  0  0  0
   -1.4995   26.7024  -23.5758 H   0  0  0  0  0  0  0  0  0  0  0  0
    0.0000   25.7134  -23.5758 H   0  0  0  0  0  0  0  0  0  0  0  0
    1.8948   27.5881  -22.2645 H   0  0  0  0  0  0  0  0  0  0  0  0
    2.0656   26.6592  -23.7924 H   0  0  0  0  0  0  0  0  0  0  0  0
    2.3035   28.4397  -23.7924 H   0  0  0  0  0  0  0  0  0  0  0  0
    1.9022   25.9111  -25.7542 H   0  0  0  0  0  0  0  0  0  0  0  0
    1.6812   23.7484  -26.9611 H   0  0  0  0  0  0  0  0  0  0  0  0
   -1.4166   23.3062  -30.0907 H   0  0  0  0  0  0  0  0  0  0  0  0
    0.3457   23.3581  -30.1824 H   0  0  0  0  0  0  0  0  0  0  0  0
   -1.2089   21.1418  -30.8935 H   0  0  0  0  0  0  0  0  0  0  0  0
    0.4934   21.0106  -30.4284 H   0  0  0  0  0  0  0  0  0  0  0  0
   -1.9906   20.3597  -28.8499 H   0  0  0  0  0  0  0  0  0  0  0  0
   -0.3687   19.6651  -28.6854 H   0  0  0  0  0  0  0  0  0  0  0  0
   -1.5018   21.5979  -26.9668 H   0  0  0  0  0  0  0  0  0  0  0  0
    0.2290   21.2581  -27.0644 H   0  0  0  0  0  0  0  0  0  0  0  0
  1  2  1  0
  2  3  1  0
  3  4  2  0
  4  5  1  0
  5  6  2  0
  6  7  1  0
  7  8  2  0
  8  9  1  0
  9 10  1  0
 10 11  2  0
 10 12  1  0
 12 13  2  0
 13 14  1  0
 14 15  1  0
 15 16  2  0
 15 17  2  0
 15 18  1  0
 18 19  1  0
 18 20  1  0
 14 21  2  0
 21 22  1  0
 22 23  2  0
 23 24  1  0
 24 25  1  0
 25 26  1  0
 26 27  1  0
 27 28  1  0
  8  3  1  0
 23 12  1  0
 28 24  1  0
  1 29  1  0
  1 30  1  0
  1 31  1  0
  4 32  1  0
  5 33  1  0
  6 34  1  0
  7 35  1  0
 13 36  1  0
 18 37  1  0
 19 38  1  0
 19 39  1  0
 19 40  1  0
 20 41  1  0
 20 42  1  0
 20 43  1  0
 21 44  1  0
 22 45  1  0
 25 46  1  0
 25 47  1  0
 26 48  1  0
 26 49  1  0
 27 50  1  0
 27 51  1  0
 28 52  1  0
 28 53  1  0
M  CHG  2   9  -1  18   1
M  END
>  <UniqueID>  (12) 
12

>  <SMILES>  (12) 
COc1ccccc1[N-]C(=O)c1cc(S(=O)(=O)[NH+](C)C)ccc1N1CCCC1

>  <Energy>  (12) 
63.33383599542016

>  <Genealogy>  (12) 
COc1ccccc1[N-]C(=O)c1cc(S(=O)(=O)[NH+](C)C)ccc1N1CCCC1 (protonated)
COc1ccccc1[N-]C(=O)c1cc(S(=O)(=O)[NH+](C)C)ccc1N1CCCC1 (3D coordinates assigned)
COc1ccccc1[N-]C(=O)c1cc(S(=O)(=O)[NH+](C)C)ccc1N1CCCC1 (nonaromatic ring conformer: 63.33383599542016 kcal/mol)

>  <smiles>  (12) 
COc1ccccc1NC(=O)c1cc(S(=O)(=O)N(C)C)ccc1N1CCCC1

>  <score_type>  (12) 
oracle

>  <origin>  (12) 
adgpu

>  <m_score__min__energy>  (12) 
-10.25

>  <m_primary>  (12) 
energy

$$$$
12:0
     RDKit          3D

 52 55  0  0  0  0  0  0  0  0999 V2000
    0.9129   18.1894  -28.7427 H   0  0  0  0  0  0  0  0  0  0  0  0
    0.0250   18.8110  -28.5550 C   0  0  0  0  0  0  0  0  0  0  0  0
   -0.3520   19.7890  -29.4810 C   0  0  0  0  0  0  0  0  0  0  0  0
    0.2419   19.9381  -30.3948 H   0  0  0  0  0  0  0  0  0  0  0  0
   -1.4820   20.5770  -29.2470 C   0  0  0  0  0  0  0  0  0  0  0  0
   -1.7739   21.3475  -29.9758 H   0  0  0  0  0  0  0  0  0  0  0  0
   -2.2460   20.3880  -28.0840 C   0  0  0  0  0  0  0  0  0  0  0  0
   -3.4890   21.2000  -27.8420 C   0  0  0  0  0  0  0  0  0  0  0  0
   -3.5551   21.4525  -26.7734 H   0  0  0  0  0  0  0  0  0  0  0  0
   -4.3665   20.6098  -28.1448 H   0  0  0  0  0  0  0  0  0  0  0  0
   -3.4510   22.4320  -28.6270 N   0  0  0  0  0  0  0  0  0  0  0  0
   -2.6720   23.4510  -28.3990 C   0  0  0  0  0  0  0  0  0  0  0  0
   -1.8250   23.4280  -27.3320 N   0  0  0  0  0  0  0  0  0  0  0  0
   -1.0320   24.4830  -27.0140 C   0  0  0  0  0  0  0  0  0  0  0  0
   -0.1600   24.4320  -25.9080 C   0  0  0  0  0  0  0  0  0  0  0  0
   -0.0550   23.1900  -25.0680 C   0  0  0  0  0  0  0  0  0  0  0  0
   -0.0782   23.4646  -24.0031 H   0  0  0  0  0  0  0  0  0  0  0  0
   -0.8999   22.5226  -25.2931 H   0  0  0  0  0  0  0  0  0  0  0  0
    0.8900   22.6739  -25.2931 H   0  0  0  0  0  0  0  0  0  0  0  0
    0.6460   25.5460  -25.6200 C   0  0  0  0  0  0  0  0  0  0  0  0
    1.3410   25.5115  -24.7681 H   0  0  0  0  0  0  0  0  0  0  0  0
    0.5710   26.6990  -26.4090 C   0  0  0  0  0  0  0  0  0  0  0  0
    1.2003   27.5687  -26.1693 H   0  0  0  0  0  0  0  0  0  0  0  0
   -0.3000   26.7500  -27.5000 C   0  0  0  0  0  0  0  0  0  0  0  0
   -0.3571   27.6584  -28.1178 H   0  0  0  0  0  0  0  0  0  0  0  0
   -1.0990   25.6440  -27.8050 C   0  0  0  0  0  0  0  0  0  0  0  0
   -1.9330   25.6730  -28.8740 N   0  0  0  0  0  0  0  0  0  0  0  0
   -2.7130   24.6140  -29.2180 C   0  0  0  0  0  0  0  0  0  0  0  0
   -3.4590   24.7320  -30.2860 N   0  0  0  0  0  0  0  0  0  0  0  0
   -4.2640   23.7220  -30.9040 C   0  0  0  0  0  0  0  0  0  0  0  0
   -5.6590   23.8000  -30.8310 C   0  0  0  0  0  0  0  0  0  0  0  0
   -6.1321   24.6445  -30.3086 H   0  0  0  0  0  0  0  0  0  0  0  0
   -6.4570   22.8110  -31.4180 C   0  0  0  0  0  0  0  0  0  0  0  0
   -7.8490   22.9250  -31.2990 O   0  0  0  0  0  0  0  0  0  0  0  0
   -8.7610   21.8400  -31.4490 C   0  0  0  0  0  0  0  0  0  0  0  0
   -9.0658   21.4773  -30.4563 H   0  0  0  0  0  0  0  0  0  0  0  0
   -9.6480   22.1806  -32.0033 H   0  0  0  0  0  0  0  0  0  0  0  0
   -8.2730   21.0247  -32.0033 H   0  0  0  0  0  0  0  0  0  0  0  0
   -5.8410   21.7460  -32.1030 C   0  0  0  0  0  0  0  0  0  0  0  0
   -6.4620   20.9613  -32.5598 H   0  0  0  0  0  0  0  0  0  0  0  0
   -4.4460   21.6750  -32.2090 C   0  0  0  0  0  0  0  0  0  0  0  0
   -3.8860   20.6030  -32.9190 O   0  0  0  0  0  0  0  0  0  0  0  0
   -2.5170   20.2130  -32.8410 C   0  0  0  0  0  0  0  0  0  0  0  0
   -2.2195   20.1282  -31.7854 H   0  0  0  0  0  0  0  0  0  0  0  0
   -2.3837   19.2411  -33.3387 H   0  0  0  0  0  0  0  0  0  0  0  0
   -1.8915   20.9687  -33.3387 H   0  0  0  0  0  0  0  0  0  0  0  0
   -3.6580   22.6710  -31.6040 C   0  0  0  0  0  0  0  0  0  0  0  0
   -2.5617   22.6242  -31.6810 H   0  0  0  0  0  0  0  0  0  0  0  0
   -1.8600   19.4060  -27.1570 C   0  0  0  0  0  0  0  0  0  0  0  0
   -2.4526   19.2525  -26.2430 H   0  0  0  0  0  0  0  0  0  0  0  0
   -0.7260   18.6230  -27.3910 C   0  0  0  0  0  0  0  0  0  0  0  0
   -0.4246   17.8590  -26.6593 H   0  0  0  0  0  0  0  0  0  0  0  0
  1  2  1  0
  2  3  2  0
  3  4  1  0
  3  5  1  0
  5  6  1  0
  5  7  2  0
  7  8  1  0
  8  9  1  0
  8 10  1  0
  8 11  1  0
 11 12  2  0
 12 13  1  0
 13 14  1  0
 14 15  2  0
 15 16  1  0
 16 17  1  0
 16 18  1  0
 16 19  1  0
 15 20  1  0
 20 21  1  0
 20 22  2  0
 22 23  1  0
 22 24  1  0
 24 25  1  0
 24 26  2  0
 26 27  1  0
 27 28  1  0
 28 29  2  0
 29 30  1  0
 30 31  2  0
 31 32  1  0
 31 33  1  0
 33 34  1  0
 34 35  1  0
 35 36  1  0
 35 37  1  0
 35 38  1  0
 33 39  2  0
 39 40  1  0
 39 41  1  0
 41 42  1  0
 42 43  1  0
 43 44  1  0
 43 45  1  0
 43 46  1  0
 41 47  2  0
 47 48  1  0
  7 49  1  0
 49 50  1  0
 49 51  2  0
 51 52  1  0
 51  2  1  0
 28 12  1  0
 47 30  1  0
 26 14  1  0
M  CHG  2  13  -1  27  -1
M  END
>  <UniqueID>  (13) 
13

>  <SMILES>  (13) 
COc1cc(/N=c2/[n-]c3cccc(C)c3[n-]/c2=N/Cc2ccccc2)cc(OC)c1

>  <Energy>  (13) 
68.95704437927786

>  <Genealogy>  (13) 
COc1cc(N=c2[n-]c3cccc(C)c3[n-]c2=NCc2ccccc2)cc(OC)c1 (protonated)
COc1cc(/N=c2/[n-]c3cccc(C)c3[n-]/c2=N/Cc2ccccc2)cc(OC)c1 (cis-trans isomerization)
COc1cc(/N=c2/[n-]c3cccc(C)c3[n-]/c2=N/Cc2ccccc2)cc(OC)c1 (3D coordinates assigned)
COc1cc(/N=c2/[n-]c3cccc(C)c3[n-]/c2=N/Cc2ccccc2)cc(OC)c1 (optimized conformer: 68.95704437927786 kcal/mol)

>  <smiles>  (13) 
COc1cc(N=c2[nH]c3cccc(C)c3[nH]c2=NCc2ccccc2)cc(OC)c1

>  <score_type>  (13) 
oracle

>  <origin>  (13) 
adgpu

>  <m_score__min__energy>  (13) 
-9.5600000000000005

>  <m_primary>  (13) 
energy

$$$$
13:0
     RDKit          3D

 28 29  0  0  0  0  0  0  0  0999 V2000
   -5.5580   26.7740  -30.4670 O   0  0  0  0  0  0  0  0  0  0  0  0
   -5.2300   25.5660  -30.3290 C   0  0  0  0  0  0  0  0  0  0  0  0
   -6.2590   24.5530  -29.9100 C   0  0  0  0  0  0  0  0  0  0  0  0
   -5.8620   23.1690  -30.2440 N   0  0  1  0  0  0  0  0  0  0  0  0
   -6.1790   22.8040  -31.9290 S   0  0  0  0  0  0  0  0  0  0  0  0
   -6.8520   23.9840  -32.5740 O   0  0  0  0  0  0  0  0  0  0  0  0
   -4.8940   22.5380  -32.6630 O   0  0  0  0  0  0  0  0  0  0  0  0
   -7.2530   21.4130  -32.0710 C   0  0  0  0  0  0  0  0  0  0  0  0
   -8.6420   21.5600  -31.9350 C   0  0  0  0  0  0  0  0  0  0  0  0
   -9.4810   20.4510  -32.0700 C   0  0  0  0  0  0  0  0  0  0  0  0
   -8.9400   19.1920  -32.3430 C   0  0  0  0  0  0  0  0  0  0  0  0
   -7.5570   19.0390  -32.4820 C   0  0  0  0  0  0  0  0  0  0  0  0
   -6.8790   17.4590  -32.8290 Cl  0  0  0  0  0  0  0  0  0  0  0  0
   -6.7150   20.1480  -32.3480 C   0  0  0  0  0  0  0  0  0  0  0  0
   -4.4660   22.8780  -29.8440 C   0  0  0  0  0  0  0  0  0  0  0  0
   -3.4490   23.7910  -30.5430 C   0  0  0  0  0  0  0  0  0  0  0  0
   -3.8610   25.1870  -30.4690 N   0  0  0  0  0  0  0  0  0  0  0  0
   -6.4024   24.6256  -28.8218 H   0  0  0  0  0  0  0  0  0  0  0  0
   -7.1873   24.7748  -30.4569 H   0  0  0  0  0  0  0  0  0  0  0  0
   -6.4790   22.5290  -29.6900 H   0  0  0  0  0  0  0  0  0  0  0  0
   -9.0710   22.5502  -31.7217 H   0  0  0  0  0  0  0  0  0  0  0  0
  -10.5692   20.5692  -31.9612 H   0  0  0  0  0  0  0  0  0  0  0  0
   -9.6026   18.3204  -32.4487 H   0  0  0  0  0  0  0  0  0  0  0  0
   -5.6274   20.0274  -32.4603 H   0  0  0  0  0  0  0  0  0  0  0  0
   -4.3749   23.0168  -28.7566 H   0  0  0  0  0  0  0  0  0  0  0  0
   -4.2433   21.8425  -30.1410 H   0  0  0  0  0  0  0  0  0  0  0  0
   -2.4699   23.6788  -30.0544 H   0  0  0  0  0  0  0  0  0  0  0  0
   -3.3876   23.5000  -31.6020 H   0  0  0  0  0  0  0  0  0  0  0  0
  1  2  2  0
  2  3  1  0
  3  4  1  0
  4  5  1  0
  5  6  2  0
  5  7  2  0
  5  8  1  0
  8  9  2  0
  9 10  1  0
 10 11  2  0
 11 12  1  0
 12 13  1  0
 12 14  2  0
  4 15  1  0
 15 16  1  0
 16 17  1  0
 17  2  1  0
 14  8  1  0
  3 18  1  0
  3 19  1  0
  4 20  1  1
  9 21  1  0
 10 22  1  0
 11 23  1  0
 14 24  1  0
 15 25  1  0
 15 26  1  0
 16 27  1  0
 16 28  1  0
M  CHG  2   4   1  17  -1
M  END
>  <UniqueID>  (14) 
14

>  <SMILES>  (14) 
O=C1C[N@@H+](S(=O)(=O)c2cccc(Cl)c2)CC[N-]1

>  <Energy>  (14) 
30.312479229022852

>  <Genealogy>  (14) 
O=C1C[NH+](S(=O)(=O)c2cccc(Cl)c2)CC[N-]1 (protonated)
O=C1C[N@@H+](S(=O)(=O)c2cccc(Cl)c2)CC[N-]1 (chirality)
O=C1C[N@@H+](S(=O)(=O)c2cccc(Cl)c2)CC[N-]1 (3D coordinates assigned)
O=C1C[N@@H+](S(=O)(=O)c2cccc(Cl)c2)CC[N-]1 (nonaromatic ring conformer: 30.312479229022852 kcal/mol)

>  <smiles>  (14) 
O=C1CN(S(=O)(=O)c2cccc(Cl)c2)CCN1

>  <score_type>  (14) 
oracle

>  <origin>  (14) 
adgpu

>  <m_score__min__energy>  (14) 
-8.9199999999999999

>  <m_primary>  (14) 
energy

$$$$
14:0
     RDKit          3D

 31 32  0  0  0  0  0  0  0  0999 V2000
   -7.5670   17.4420  -32.6570 C   0  0  0  0  0  0  0  0  0  0  0  0
   -8.7380   18.2840  -32.2040 C   0  0  0  0  0  0  0  0  0  0  0  0
   -8.3280   19.7050  -32.0580 C   0  0  0  0  0  0  0  0  0  0  0  0
   -8.9410   20.5700  -31.1640 C   0  0  0  0  0  0  0  0  0  0  0  0
   -8.5850   21.8780  -31.0080 C   0  0  0  0  0  0  0  0  0  0  0  0
   -7.5490   22.4060  -31.7760 C   0  0  0  0  0  0  0  0  0  0  0  0
   -7.1380   23.7620  -31.6530 N   0  0  0  0  0  0  0  0  0  0  0  0
   -5.8910   24.0820  -31.0500 C   0  0  0  0  0  0  0  0  0  0  0  0
   -4.6350   23.5760  -31.3360 C   0  0  0  0  0  0  0  0  0  0  0  0
   -4.3410   22.5960  -32.3350 N   0  0  0  0  0  0  0  0  0  0  0  0
   -3.7880   24.1920  -30.4950 N   0  0  0  0  0  0  0  0  0  0  0  0
   -4.4260   25.0400  -29.7100 N   0  0  0  0  0  0  0  0  0  0  0  0
   -5.7450   24.9980  -30.0280 C   0  0  0  0  0  0  0  0  0  0  0  0
   -6.7110   25.6760  -29.4950 N   0  0  0  0  0  0  0  0  0  0  0  0
   -6.9210   21.5640  -32.6730 C   0  0  0  0  0  0  0  0  0  0  0  0
   -7.2970   20.2380  -32.8170 C   0  0  0  0  0  0  0  0  0  0  0  0
   -7.0307   17.0564  -31.7774 H   0  0  0  0  0  0  0  0  0  0  0  0
   -7.9335   16.5993  -33.2616 H   0  0  0  0  0  0  0  0  0  0  0  0
   -6.8848   18.0577  -33.2616 H   0  0  0  0  0  0  0  0  0  0  0  0
   -9.5445   18.2141  -32.9488 H   0  0  0  0  0  0  0  0  0  0  0  0
   -9.0897   17.9121  -31.2304 H   0  0  0  0  0  0  0  0  0  0  0  0
   -9.7618   20.1790  -30.5448 H   0  0  0  0  0  0  0  0  0  0  0  0
   -9.1127   22.5119  -30.2803 H   0  0  0  0  0  0  0  0  0  0  0  0
   -7.7660   24.5150  -32.0120 H   0  0  0  0  0  0  0  0  0  0  0  0
   -3.8550   21.6960  -32.1270 H   0  0  0  0  0  0  0  0  0  0  0  0
   -4.6570   22.8570  -33.3140 H   0  0  0  0  0  0  0  0  0  0  0  0
   -2.7410   24.0420  -30.4400 H   0  0  0  0  0  0  0  0  0  0  0  0
   -4.0640   25.6650  -28.9590 H   0  0  0  0  0  0  0  0  0  0  0  0
   -6.4960   26.3480  -28.7220 H   0  0  0  0  0  0  0  0  0  0  0  0
   -6.0996   21.9569  -33.2902 H   0  0  0  0  0  0  0  0  0  0  0  0
   -6.7710   19.6001  -33.5426 H   0  0  0  0  0  0  0  0  0  0  0  0
  1  2  1  0
  2  3  1  0
  3  4  2  0
  4  5  1  0
  5  6  2  0
  6  7  1  0
  7  8  1  0
  8  9  2  0
  9 10  1  0
  9 11  1  0
 11 12  1  0
 12 13  1  0
 13 14  2  3
  6 15  1  0
 15 16  2  0
 16  3  1  0
 13  8  1  0
  1 17  1  0
  1 18  1  0
  1 19  1  0
  2 20  1  0
  2 21  1  0
  4 22  1  0
  5 23  1  0
  7 24  1  0
 10 25  1  0
 10 26  1  0
 11 27  1  0
 12 28  1  0
 14 29  1  0
 15 30  1  0
 16 31  1  0
M  END
>  <smiles>  (15) 
CCc1ccc(Nc2c(N)[nH][nH]c2=N)cc1

>  <score_type>  (15) 
oracle

>  <origin>  (15) 
adgpu

>  <m_score__min__energy>  (15) 
-6.3499999999999996

>  <m_primary>  (15) 
energy

$$$$
15:0
     RDKit          3D

 51 53  0  0  0  0  0  0  0  0999 V2000
   -3.1670   18.5320  -25.8150 C   0  0  0  0  0  0  0  0  0  0  0  0
   -2.3070   18.9290  -26.8810 O   0  0  0  0  0  0  0  0  0  0  0  0
   -2.1970   20.2450  -27.3640 C   0  0  0  0  0  0  0  0  0  0  0  0
   -0.9630   20.8110  -27.7400 C   0  0  0  0  0  0  0  0  0  0  0  0
   -0.9040   22.1350  -28.1920 C   0  0  0  0  0  0  0  0  0  0  0  0
   -2.0720   22.9060  -28.2840 C   0  0  0  0  0  0  0  0  0  0  0  0
   -1.9540   24.5980  -28.7700 S   0  0  0  0  0  0  0  0  0  0  0  0
   -0.5720   24.9270  -29.2710 O   0  0  0  0  0  0  0  0  0  0  0  0
   -2.2540   25.4600  -27.5770 O   0  0  0  0  0  0  0  0  0  0  0  0
   -3.1270   24.9130  -30.0100 N   0  0  0  0  0  0  0  0  0  0  0  0
   -3.9850   23.9070  -30.5650 C   0  0  0  0  0  0  0  0  0  0  0  0
   -5.3690   24.0850  -30.4970 C   0  0  0  0  0  0  0  0  0  0  0  0
   -6.2200   23.0930  -30.9900 C   0  0  0  0  0  0  0  0  0  0  0  0
   -7.6140   23.2190  -30.9180 C   0  0  0  0  0  0  0  0  0  0  0  0
   -8.4350   22.1990  -31.4110 C   0  0  0  0  0  0  0  0  0  0  0  0
   -7.8670   21.0390  -31.9830 C   0  0  0  0  0  0  0  0  0  0  0  0
   -8.6430   19.9830  -32.4900 O   0  0  0  0  0  0  0  0  0  0  0  0
   -8.7730   18.6890  -31.8940 C   0  0  0  0  0  0  0  0  0  0  0  0
   -7.4200   17.9700  -31.8710 C   0  0  0  0  0  0  0  0  0  0  0  0
   -7.0940   17.3500  -33.2340 C   0  0  0  0  0  0  0  0  0  0  0  0
   -5.8410   18.2940  -34.0960 S   0  0  0  0  0  0  0  0  0  0  0  0
   -4.4540   18.6020  -33.0250 C   0  0  0  0  0  0  0  0  0  0  0  0
   -5.3680   17.5100  -35.2870 O   0  0  0  0  0  0  0  0  0  0  0  0
   -6.4150   19.6040  -34.5640 O   0  0  0  0  0  0  0  0  0  0  0  0
   -6.4740   20.9270  -32.0640 C   0  0  0  0  0  0  0  0  0  0  0  0
   -5.6480   21.9420  -31.5690 C   0  0  0  0  0  0  0  0  0  0  0  0
   -4.3260   21.8190  -31.6510 O   0  0  0  0  0  0  0  0  0  0  0  0
   -3.4880   22.7420  -31.1860 C   0  0  0  0  0  0  0  0  0  0  0  0
   -2.2490   22.5670  -31.3320 O   0  0  0  0  0  0  0  0  0  0  0  0
   -3.3030   22.3400  -27.9240 C   0  0  0  0  0  0  0  0  0  0  0  0
   -3.3610   21.0190  -27.4650 C   0  0  0  0  0  0  0  0  0  0  0  0
   -2.6842   18.7549  -24.8520 H   0  0  0  0  0  0  0  0  0  0  0  0
   -4.1165   19.0829  -25.8853 H   0  0  0  0  0  0  0  0  0  0  0  0
   -3.3636   17.4520  -25.8853 H   0  0  0  0  0  0  0  0  0  0  0  0
   -0.0430   20.2111  -27.6783 H   0  0  0  0  0  0  0  0  0  0  0  0
    0.0641   22.5730  -28.4766 H   0  0  0  0  0  0  0  0  0  0  0  0
   -5.7869   25.0025  -30.0571 H   0  0  0  0  0  0  0  0  0  0  0  0
   -8.0626   24.1198  -30.4739 H   0  0  0  0  0  0  0  0  0  0  0  0
   -9.5287   22.3009  -31.3529 H   0  0  0  0  0  0  0  0  0  0  0  0
   -9.1412   18.8005  -30.8635 H   0  0  0  0  0  0  0  0  0  0  0  0
   -9.4821   18.0936  -32.4878 H   0  0  0  0  0  0  0  0  0  0  0  0
   -6.6342   18.6941  -31.6098 H   0  0  0  0  0  0  0  0  0  0  0  0
   -7.4693   17.1624  -31.1258 H   0  0  0  0  0  0  0  0  0  0  0  0
   -6.7282   16.3237  -33.0824 H   0  0  0  0  0  0  0  0  0  0  0  0
   -8.0097   17.3511  -33.8435 H   0  0  0  0  0  0  0  0  0  0  0  0
   -4.7776   18.5301  -31.9761 H   0  0  0  0  0  0  0  0  0  0  0  0
   -3.6688   17.8563  -33.2184 H   0  0  0  0  0  0  0  0  0  0  0  0
   -4.0582   19.6099  -33.2184 H   0  0  0  0  0  0  0  0  0  0  0  0
   -6.0247   20.0329  -32.5209 H   0  0  0  0  0  0  0  0  0  0  0  0
   -4.2248   22.9350  -28.0024 H   0  0  0  0  0  0  0  0  0  0  0  0
   -4.3304   20.5838  -27.1806 H   0  0  0  0  0  0  0  0  0  0  0  0
  1  2  1  0
  2  3  1  0
  3  4  2  0
  4  5  1  0
  5  6  2  0
  6  7  1  0
  7  8  2  0
  7  9  2  0
  7 10  1  0
 10 11  1  0
 11 12  2  0
 12 13  1  0
 13 14  2  0
 14 15  1  0
 15 16  2  0
 16 17  1  0
 17 18  1  0
 18 19  1  0
 19 20  1  0
 20 21  1  0
 21 22  1  0
 21 23  2  0
 21 24  2  0
 16 25  1  0
 25 26  2  0
 26 27  1  0
 27 28  1  0
 28 29  2  0
  6 30  1  0
 30 31  2  0
 31  3  1  0
 28 11  1  0
 26 13  1  0
  1 32  1  0
  1 33  1  0
  1 34  1  0
  4 35  1  0
  5 36  1  0
 12 37  1  0
 14 38  1  0
 15 39  1  0
 18 40  1  0
 18 41  1  0
 19 42  1  0
 19 43  1  0
 20 44  1  0
 20 45  1  0
 22 46  1  0
 22 47  1  0
 22 48  1  0
 25 49  1  0
 30 50  1  0
 31 51  1  0
M  CHG  1  10  -1
M  END
>  <UniqueID>  (16) 
15

>  <SMILES>  (16) 
COc1ccc(S(=O)(=O)[N-]c2cc3ccc(OCCCS(C)(=O)=O)cc3oc2=O)cc1

>  <Energy>  (16) 
53.07671192146255

>  <Genealogy>  (16) 
COc1ccc(S(=O)(=O)[N-]c2cc3ccc(OCCCS(C)(=O)=O)cc3oc2=O)cc1 (protonated)
COc1ccc(S(=O)(=O)[N-]c2cc3ccc(OCCCS(C)(=O)=O)cc3oc2=O)cc1 (3D coordinates assigned)
COc1ccc(S(=O)(=O)[N-]c2cc3ccc(OCCCS(C)(=O)=O)cc3oc2=O)cc1 (optimized conformer: 53.07671192146255 kcal/mol)

>  <smiles>  (16) 
COc1ccc(S(=O)(=O)Nc2cc3ccc(OCCCS(C)(=O)=O)cc3oc2=O)cc1

>  <score_type>  (16) 
oracle

>  <origin>  (16) 
adgpu

>  <m_score__min__energy>  (16) 
-10.68

>  <m_primary>  (16) 
energy

$$$$
16:0
     RDKit          3D

 31 32  0  0  0  0  0  0  0  0999 V2000
   -6.7880   16.1710  -33.8960 C   0  0  0  0  0  0  0  0  0  0  0  0
   -6.8650   17.5670  -33.3550 C   0  0  0  0  0  0  0  0  0  0  0  0
   -6.0630   18.5820  -33.9000 C   0  0  0  0  0  0  0  0  0  0  0  0
   -6.1610   19.8930  -33.4220 C   0  0  0  0  0  0  0  0  0  0  0  0
   -7.0630   20.2050  -32.3930 C   0  0  0  0  0  0  0  0  0  0  0  0
   -7.1950   21.6190  -31.9060 C   0  0  0  0  0  0  0  0  0  0  0  0
   -5.8740   22.2300  -31.8330 N   0  0  0  0  0  0  0  0  0  0  0  0
   -5.5490   23.3430  -30.9930 C   0  0  0  0  0  0  0  0  0  0  0  0
   -6.3290   24.3310  -30.9580 O   0  0  0  0  0  0  0  0  0  0  0  0
   -4.3110   23.3760  -30.1930 C   0  0  0  0  0  0  0  0  0  0  0  0
   -3.9040   22.2240  -29.5050 C   0  0  0  0  0  0  0  0  0  0  0  0
   -2.7350   22.2390  -28.7380 C   0  0  0  0  0  0  0  0  0  0  0  0
   -1.9610   23.3990  -28.6630 C   0  0  0  0  0  0  0  0  0  0  0  0
   -2.3470   24.5460  -29.3630 C   0  0  0  0  0  0  0  0  0  0  0  0
   -1.5640   25.6920  -29.2940 O   0  0  0  0  0  0  0  0  0  0  0  0
   -3.5170   24.5360  -30.1360 C   0  0  0  0  0  0  0  0  0  0  0  0
   -3.8710   25.6720  -30.8590 O   0  0  0  0  0  0  0  0  0  0  0  0
   -7.8900   19.1970  -31.8720 C   0  0  0  0  0  0  0  0  0  0  0  0
   -7.7910   17.8870  -32.3510 C   0  0  0  0  0  0  0  0  0  0  0  0
   -6.7486   15.4559  -33.0611 H   0  0  0  0  0  0  0  0  0  0  0  0
   -7.6763   15.9669  -34.5119 H   0  0  0  0  0  0  0  0  0  0  0  0
   -5.8827   16.0659  -34.5119 H   0  0  0  0  0  0  0  0  0  0  0  0
   -5.3539   18.3453  -34.7070 H   0  0  0  0  0  0  0  0  0  0  0  0
   -5.5286   20.6825  -33.8543 H   0  0  0  0  0  0  0  0  0  0  0  0
   -7.8257   22.1901  -32.6032 H   0  0  0  0  0  0  0  0  0  0  0  0
   -7.6577   21.6227  -30.9081 H   0  0  0  0  0  0  0  0  0  0  0  0
   -4.5062   21.3057  -29.5689 H   0  0  0  0  0  0  0  0  0  0  0  0
   -2.4245   21.3355  -28.1927 H   0  0  0  0  0  0  0  0  0  0  0  0
   -1.0462   23.4103  -28.0522 H   0  0  0  0  0  0  0  0  0  0  0  0
   -8.6185   19.4387  -31.0841 H   0  0  0  0  0  0  0  0  0  0  0  0
   -8.4429   17.1030  -31.9382 H   0  0  0  0  0  0  0  0  0  0  0  0
  1  2  1  0
  2  3  2  0
  3  4  1  0
  4  5  2  0
  5  6  1  0
  6  7  1  0
  7  8  1  0
  8  9  2  0
  8 10  1  0
 10 11  2  0
 11 12  1  0
 12 13  2  0
 13 14  1  0
 14 15  1  0
 14 16  2  0
 16 17  1  0
  5 18  1  0
 18 19  2  0
 19  2  1  0
 16 10  1  0
  1 20  1  0
  1 21  1  0
  1 22  1  0
  3 23  1  0
  4 24  1  0
  6 25  1  0
  6 26  1  0
 11 27  1  0
 12 28  1  0
 13 29  1  0
 18 30  1  0
 19 31  1  0
M  CHG  3   7  -1  15  -1  17  -1
M  END
>  <UniqueID>  (17) 
16

>  <SMILES>  (17) 
Cc1ccc(C[N-]C(=O)c2cccc([O-])c2[O-])cc1

>  <Energy>  (17) 
35.70102722364335

>  <Genealogy>  (17) 
Cc1ccc(C[N-]C(=O)c2cccc([O-])c2[O-])cc1 (protonated)
Cc1ccc(C[N-]C(=O)c2cccc([O-])c2[O-])cc1 (3D coordinates assigned)
Cc1ccc(C[N-]C(=O)c2cccc([O-])c2[O-])cc1 (optimized conformer: 35.70102722364335 kcal/mol)

>  <smiles>  (17) 
Cc1ccc(CNC(=O)c2cccc(O)c2O)cc1

>  <score_type>  (17) 
oracle

>  <origin>  (17) 
adgpu

>  <m_score__min__energy>  (17) 
-13.970000000000001

>  <m_primary>  (17) 
energy

$$$$
17:0
     RDKit          3D

 56 59  0  0  0  0  0  0  0  0999 V2000
    0.8940   21.1670  -35.8310 C   0  0  0  0  0  0  0  0  0  0  0  0
   -0.1260   20.5620  -34.9110 C   0  0  0  0  0  0  0  0  0  0  0  0
   -0.4520   19.2060  -35.0160 C   0  0  0  0  0  0  0  0  0  0  0  0
   -1.4230   18.6510  -34.1860 C   0  0  0  0  0  0  0  0  0  0  0  0
   -2.0970   19.4370  -33.2360 C   0  0  0  0  0  0  0  0  0  0  0  0
   -3.1360   18.7650  -32.3630 C   0  0  0  0  0  0  0  0  0  0  0  0
   -4.3050   18.3630  -33.1720 N   0  0  0  0  0  0  0  0  0  0  0  0
   -5.3060   17.6240  -32.3630 C   0  0  0  0  0  0  0  0  0  0  0  0
   -6.6020   17.4210  -33.1670 C   0  0  0  0  0  0  0  0  0  0  0  0
   -7.6910   18.4620  -32.8650 C   0  0  0  0  0  0  0  0  0  0  0  0
   -7.1090   19.7640  -32.5500 N   0  0  0  0  0  0  0  0  0  0  0  0
   -7.7220   20.6690  -31.8050 N   0  0  0  0  0  0  0  0  0  0  0  0
   -6.9260   21.7540  -31.7340 C   0  0  0  0  0  0  0  0  0  0  0  0
   -7.2460   23.0000  -31.0000 C   0  0  0  0  0  0  0  0  0  0  0  0
   -8.1920   23.7150  -31.4380 O   0  0  0  0  0  0  0  0  0  0  0  0
   -6.4990   23.4600  -29.8400 N   0  0  0  0  0  0  0  0  0  0  0  0
   -6.5120   24.9380  -29.7350 C   0  0  0  0  0  0  0  0  0  0  0  0
   -5.3550   25.6250  -30.5070 C   0  0  0  0  0  0  0  0  0  0  0  0
   -4.1990   24.8270  -30.7070 O   0  0  0  0  0  0  0  0  0  0  0  0
   -4.0310   23.8970  -29.6640 C   0  0  0  0  0  0  0  0  0  0  0  0
   -5.1480   22.8480  -29.7210 C   0  0  0  0  0  0  0  0  0  0  0  0
   -5.7730   21.5320  -32.4700 C   0  0  0  0  0  0  0  0  0  0  0  0
   -5.9210   20.2550  -32.9690 C   0  0  0  0  0  0  0  0  0  0  0  0
   -4.9040   19.5440  -33.8310 C   0  0  0  0  0  0  0  0  0  0  0  0
   -1.7930   20.8210  -33.1460 C   0  0  0  0  0  0  0  0  0  0  0  0
   -2.5020   21.7290  -32.1730 C   0  0  0  0  0  0  0  0  0  0  0  0
   -0.8110   21.3670  -33.9910 C   0  0  0  0  0  0  0  0  0  0  0  0
    1.6899   21.6391  -35.2363 H   0  0  0  0  0  0  0  0  0  0  0  0
    1.3280   20.3802  -36.4655 H   0  0  0  0  0  0  0  0  0  0  0  0
    0.4116   21.9251  -36.4655 H   0  0  0  0  0  0  0  0  0  0  0  0
    0.0606   18.5752  -35.7572 H   0  0  0  0  0  0  0  0  0  0  0  0
   -1.6658   17.5819  -34.2754 H   0  0  0  0  0  0  0  0  0  0  0  0
   -2.6944   17.8726  -31.8954 H   0  0  0  0  0  0  0  0  0  0  0  0
   -3.4643   19.4738  -31.5885 H   0  0  0  0  0  0  0  0  0  0  0  0
   -4.8943   16.6424  -32.0855 H   0  0  0  0  0  0  0  0  0  0  0  0
   -5.5349   18.2075  -31.4590 H   0  0  0  0  0  0  0  0  0  0  0  0
   -6.3575   17.4762  -34.2381 H   0  0  0  0  0  0  0  0  0  0  0  0
   -7.0078   16.4407  -32.8767 H   0  0  0  0  0  0  0  0  0  0  0  0
   -8.3425   18.5645  -33.7454 H   0  0  0  0  0  0  0  0  0  0  0  0
   -8.2662   18.1190  -31.9924 H   0  0  0  0  0  0  0  0  0  0  0  0
   -7.0370   23.1250  -29.0040 H   0  0  0  0  0  0  0  0  0  0  0  0
   -7.4666   25.3070  -30.1382 H   0  0  0  0  0  0  0  0  0  0  0  0
   -6.3832   25.1873  -28.6714 H   0  0  0  0  0  0  0  0  0  0  0  0
   -5.7363   25.9237  -31.4946 H   0  0  0  0  0  0  0  0  0  0  0  0
   -5.0345   26.4718  -29.8824 H   0  0  0  0  0  0  0  0  0  0  0  0
   -3.0561   23.3991  -29.7718 H   0  0  0  0  0  0  0  0  0  0  0  0
   -4.0734   24.4217  -28.6981 H   0  0  0  0  0  0  0  0  0  0  0  0
   -4.9773   22.1979  -30.5918 H   0  0  0  0  0  0  0  0  0  0  0  0
   -5.1205   22.2791  -28.7799 H   0  0  0  0  0  0  0  0  0  0  0  0
   -4.9286   22.2204  -32.6221 H   0  0  0  0  0  0  0  0  0  0  0  0
   -5.3993   19.2143  -34.7562 H   0  0  0  0  0  0  0  0  0  0  0  0
   -4.0892   20.2558  -34.0295 H   0  0  0  0  0  0  0  0  0  0  0  0
   -2.2626   21.4223  -31.1441 H   0  0  0  0  0  0  0  0  0  0  0  0
   -2.1724   22.7663  -32.3326 H   0  0  0  0  0  0  0  0  0  0  0  0
   -3.5882   21.6608  -32.3326 H   0  0  0  0  0  0  0  0  0  0  0  0
   -0.5773   22.4401  -33.9292 H   0  0  0  0  0  0  0  0  0  0  0  0
  1  2  1  0
  2  3  2  0
  3  4  1  0
  4  5  2  0
  5  6  1  0
  6  7  1  0
  7  8  1  0
  8  9  1  0
  9 10  1  0
 10 11  1  0
 11 12  1  0
 12 13  2  0
 13 14  1  0
 14 15  2  0
 14 16  1  0
 16 17  1  0
 17 18  1  0
 18 19  1  0
 19 20  1  0
 20 21  1  0
 13 22  1  0
 22 23  2  0
 23 24  1  0
  5 25  1  0
 25 26  1  0
 25 27  2  0
 27  2  1  0
 24  7  1  0
 23 11  1  0
 21 16  1  0
  1 28  1  0
  1 29  1  0
  1 30  1  0
  3 31  1  0
  4 32  1  0
  6 33  1  0
  6 34  1  0
  8 35  1  0
  8 36  1  0
  9 37  1  0
  9 38  1  0
 10 39  1  0
 10 40  1  0
 16 41  1  0
 17 42  1  0
 17 43  1  0
 18 44  1  0
 18 45  1  0
 20 46  1  0
 20 47  1  0
 21 48  1  0
 21 49  1  0
 22 50  1  0
 24 51  1  0
 24 52  1  0
 26 53  1  0
 26 54  1  0
 26 55  1  0
 27 56  1  0
M  CHG  1  16   1
M  END
>  <UniqueID>  (18) 
17

>  <SMILES>  (18) 
Cc1ccc(CN2CCCn3nc(C(=O)[NH+]4CCOCC4)cc3C2)c(C)c1

>  <Energy>  (18) 
112.62629373273508

>  <Genealogy>  (18) 
Cc1ccc(CN2CCCn3nc(C(=O)[NH+]4CCOCC4)cc3C2)c(C)c1 (protonated)
Cc1ccc(CN2CCCn3nc(C(=O)[NH+]4CCOCC4)cc3C2)c(C)c1 (3D coordinates assigned)
Cc1ccc(CN2CCCn3nc(C(=O)[NH+]4CCOCC4)cc3C2)c(C)c1 (nonaromatic ring conformer: 112.62629373273508 kcal/mol)

>  <smiles>  (18) 
Cc1ccc(CN2CCCn3nc(C(=O)N4CCOCC4)cc3C2)c(C)c1

>  <score_type>  (18) 
oracle

>  <origin>  (18) 
adgpu

>  <m_score__min__energy>  (18) 
-6.7800000000000002

>  <m_primary>  (18) 
energy

$$$$
18:0
     RDKit          3D

 35 37  0  0  0  0  0  0  0  0999 V2000
   -2.0210   20.2000  -26.7970 C   0  0  0  0  0  0  0  0  0  0  0  0
   -1.9770   21.3160  -27.8000 C   0  0  0  0  0  0  0  0  0  0  0  0
   -0.8190   22.0930  -27.9420 C   0  0  0  0  0  0  0  0  0  0  0  0
   -0.7950   23.1600  -28.8430 C   0  0  0  0  0  0  0  0  0  0  0  0
   -1.9260   23.4610  -29.6060 C   0  0  0  0  0  0  0  0  0  0  0  0
   -3.0930   22.6890  -29.4780 C   0  0  0  0  0  0  0  0  0  0  0  0
   -4.2810   22.9940  -30.2270 N   0  0  0  0  0  0  0  0  0  0  0  0
   -4.6330   24.3140  -30.6720 C   0  0  0  0  0  0  0  0  0  0  0  0
   -3.8630   25.2910  -30.4660 O   0  0  0  0  0  0  0  0  0  0  0  0
   -5.8860   24.5260  -31.4660 C   0  0  0  0  0  0  0  0  0  0  0  0
   -7.2150   23.4090  -30.8980 S   0  0  0  0  0  0  0  0  0  0  0  0
   -6.6580   22.0020  -31.8640 C   0  0  0  0  0  0  0  0  0  0  0  0
   -5.5320   21.9960  -32.6120 N   0  0  0  0  0  0  0  0  0  0  0  0
   -5.4240   20.7890  -33.1600 N   0  0  0  0  0  0  0  0  0  0  0  0
   -6.4900   20.0870  -32.7320 C   0  0  0  0  0  0  0  0  0  0  0  0
   -6.7980   18.7640  -33.0350 C   0  0  0  0  0  0  0  0  0  0  0  0
   -7.9640   18.2250  -32.4640 C   0  0  0  0  0  0  0  0  0  0  0  0
   -8.7740   19.0110  -31.6170 C   0  0  0  0  0  0  0  0  0  0  0  0
   -8.4090   20.3390  -31.3490 C   0  0  0  0  0  0  0  0  0  0  0  0
   -7.2760   20.8130  -31.9270 N   0  0  0  0  0  0  0  0  0  0  0  0
   -3.1170   21.6330  -28.5530 C   0  0  0  0  0  0  0  0  0  0  0  0
   -2.0044   20.6198  -25.7804 H   0  0  0  0  0  0  0  0  0  0  0  0
   -2.9428   19.6166  -26.9378 H   0  0  0  0  0  0  0  0  0  0  0  0
   -1.1479   19.5458  -26.9378 H   0  0  0  0  0  0  0  0  0  0  0  0
    0.0735   21.8617  -27.3420 H   0  0  0  0  0  0  0  0  0  0  0  0
    0.1171   23.7651  -28.9522 H   0  0  0  0  0  0  0  0  0  0  0  0
   -1.9028   24.3060  -30.3099 H   0  0  0  0  0  0  0  0  0  0  0  0
   -4.8480   22.1920  -30.5840 H   0  0  0  0  0  0  0  0  0  0  0  0
   -6.2161   25.5684  -31.3463 H   0  0  0  0  0  0  0  0  0  0  0  0
   -5.6729   24.3093  -32.5232 H   0  0  0  0  0  0  0  0  0  0  0  0
   -6.1545   18.1639  -33.6951 H   0  0  0  0  0  0  0  0  0  0  0  0
   -8.2468   17.1839  -32.6788 H   0  0  0  0  0  0  0  0  0  0  0  0
   -9.6848   18.5857  -31.1702 H   0  0  0  0  0  0  0  0  0  0  0  0
   -9.0208   20.9749  -30.6922 H   0  0  0  0  0  0  0  0  0  0  0  0
   -4.0390   21.0485  -28.4175 H   0  0  0  0  0  0  0  0  0  0  0  0
  1  2  1  0
  2  3  2  0
  3  4  1  0
  4  5  2  0
  5  6  1  0
  6  7  1  0
  7  8  1  0
  8  9  2  0
  8 10  1  0
 10 11  1  0
 11 12  1  0
 12 13  2  0
 13 14  1  0
 14 15  2  0
 15 16  1  0
 16 17  2  0
 17 18  1  0
 18 19  2  0
 19 20  1  0
  6 21  2  0
 21  2  1  0
 20 12  1  0
 20 15  1  0
  1 22  1  0
  1 23  1  0
  1 24  1  0
  3 25  1  0
  4 26  1  0
  5 27  1  0
  7 28  1  0
 10 29  1  0
 10 30  1  0
 16 31  1  0
 17 32  1  0
 18 33  1  0
 19 34  1  0
 21 35  1  0
M  END
>  <UniqueID>  (19) 
18

>  <SMILES>  (19) 
Cc1cccc(NC(=O)CSc2nnc3ccccn23)c1

>  <Energy>  (19) 
75.25429180417235

>  <Genealogy>  (19) 
Cc1cccc(NC(=O)CSc2nnc3ccccn23)c1 (3D coordinates assigned)
Cc1cccc(NC(=O)CSc2nnc3ccccn23)c1 (optimized conformer: 75.25429180417235 kcal/mol)

>  <smiles>  (19) 
Cc1cccc(NC(=O)CSc2nnc3ccccn23)c1

>  <score_type>  (19) 
oracle

>  <origin>  (19) 
adgpu

>  <m_score__min__energy>  (19) 
-8.8200000000000003

>  <m_primary>  (19) 
energy

$$$$
19:0
     RDKit          3D

 34 35  0  0  0  0  0  0  0  0999 V2000
   -1.2640   21.8080  -26.7820 C   0  0  0  0  0  0  0  0  0  0  0  0
   -1.0170   22.9230  -27.7930 C   0  0  0  0  0  0  0  0  0  0  0  0
   -2.2130   23.0990  -28.6960 C   0  0  0  0  0  0  0  0  0  0  0  0
   -3.1320   22.0510  -28.8480 C   0  0  0  0  0  0  0  0  0  0  0  0
   -4.2340   22.2070  -29.6290 N   0  0  0  0  0  0  0  0  0  0  0  0
   -4.4930   23.3740  -30.2860 C   0  0  0  0  0  0  0  0  0  0  0  0
   -5.7660   23.5050  -31.0890 C   0  0  0  0  0  0  0  0  0  0  0  0
   -5.7650   22.5670  -32.3050 C   0  0  0  0  0  0  0  0  0  0  0  0
   -6.9320   21.6130  -32.2760 C   0  0  0  0  0  0  0  0  0  0  0  0
   -6.7650   20.2790  -32.6820 C   0  0  0  0  0  0  0  0  0  0  0  0
   -7.8580   19.4070  -32.7010 C   0  0  0  0  0  0  0  0  0  0  0  0
   -9.1240   19.8610  -32.3240 C   0  0  0  0  0  0  0  0  0  0  0  0
   -9.3000   21.1900  -31.9280 C   0  0  0  0  0  0  0  0  0  0  0  0
   -8.2100   22.0650  -31.9050 C   0  0  0  0  0  0  0  0  0  0  0  0
   -3.6090   24.4580  -30.1460 C   0  0  0  0  0  0  0  0  0  0  0  0
   -3.8600   25.6700  -30.7840 O   0  0  0  0  0  0  0  0  0  0  0  0
   -2.4690   24.3200  -29.3470 C   0  0  0  0  0  0  0  0  0  0  0  0
   -1.6800   25.2930  -29.2120 O   0  0  0  0  0  0  0  0  0  0  0  0
   -1.1747   22.2111  -25.7624 H   0  0  0  0  0  0  0  0  0  0  0  0
   -2.2746   21.3986  -26.9272 H   0  0  0  0  0  0  0  0  0  0  0  0
   -0.5208   21.0101  -26.9272 H   0  0  0  0  0  0  0  0  0  0  0  0
   -0.8296   23.8637  -27.2545 H   0  0  0  0  0  0  0  0  0  0  0  0
   -0.1455   22.6554  -28.4086 H   0  0  0  0  0  0  0  0  0  0  0  0
   -2.9601   21.0952  -28.3314 H   0  0  0  0  0  0  0  0  0  0  0  0
   -4.9000   21.4050  -29.7110 H   0  0  0  0  0  0  0  0  0  0  0  0
   -6.6219   23.2542  -30.4451 H   0  0  0  0  0  0  0  0  0  0  0  0
   -5.8389   24.5406  -31.4527 H   0  0  0  0  0  0  0  0  0  0  0  0
   -5.8223   23.1722  -33.2218 H   0  0  0  0  0  0  0  0  0  0  0  0
   -4.8382   21.9750  -32.2799 H   0  0  0  0  0  0  0  0  0  0  0  0
   -5.7711   19.9189  -32.9861 H   0  0  0  0  0  0  0  0  0  0  0  0
   -7.7205   18.3613  -33.0135 H   0  0  0  0  0  0  0  0  0  0  0  0
   -9.9822   19.1730  -32.3387 H   0  0  0  0  0  0  0  0  0  0  0  0
  -10.2978   21.5479  -31.6340 H   0  0  0  0  0  0  0  0  0  0  0  0
   -8.3531   23.1108  -31.5955 H   0  0  0  0  0  0  0  0  0  0  0  0
  1  2  1  0
  2  3  1  0
  3  4  2  0
  4  5  1  0
  5  6  1  0
  6  7  1  0
  7  8  1  0
  8  9  1  0
  9 10  2  0
 10 11  1  0
 11 12  2  0
 12 13  1  0
 13 14  2  0
  6 15  2  0
 15 16  1  0
 15 17  1  0
 17 18  2  0
 17  3  1  0
 14  9  1  0
  1 19  1  0
  1 20  1  0
  1 21  1  0
  2 22  1  0
  2 23  1  0
  4 24  1  0
  5 25  1  0
  7 26  1  0
  7 27  1  0
  8 28  1  0
  8 29  1  0
 10 30  1  0
 11 31  1  0
 12 32  1  0
 13 33  1  0
 14 34  1  0
M  CHG  1  16  -1
M  END
>  <UniqueID>  (20) 
19

>  <SMILES>  (20) 
CCc1c[nH]c(CCc2ccccc2)c([O-])c1=O

>  <Energy>  (20) 
28.96197463080194

>  <Genealogy>  (20) 
CCc1c[nH]c(CCc2ccccc2)c([O-])c1=O (protonated)
CCc1c[nH]c(CCc2ccccc2)c([O-])c1=O (3D coordinates assigned)
CCc1c[nH]c(CCc2ccccc2)c([O-])c1=O (optimized conformer: 28.96197463080194 kcal/mol)

>  <smiles>  (20) 
CCc1c[nH]c(CCc2ccccc2)c(O)c1=O

>  <score_type>  (20) 
oracle

>  <origin>  (20) 
adgpu

>  <m_score__min__energy>  (20) 
-10.710000000000001

>  <m_primary>  (20) 
energy

$$$$
20:0
     RDKit          3D

 39 41  0  0  0  0  0  0  0  0999 V2000
   -1.4130   19.5510  -27.2450 O   0  0  0  0  0  0  0  0  0  0  0  0
   -0.5450   19.3330  -28.1330 C   0  0  0  0  0  0  0  0  0  0  0  0
   -0.6140   20.0240  -29.3920 N   0  0  0  0  0  0  0  0  0  0  0  0
   -1.3720   21.2280  -29.6020 C   0  0  0  0  0  0  0  0  0  0  0  0
   -2.6660   21.1910  -30.1440 C   0  0  0  0  0  0  0  0  0  0  0  0
   -3.3880   22.3710  -30.3250 C   0  0  0  0  0  0  0  0  0  0  0  0
   -2.8380   23.6070  -29.9610 C   0  0  0  0  0  0  0  0  0  0  0  0
   -3.5830   24.8000  -30.2440 N   0  0  0  0  0  0  0  0  0  0  0  0
   -4.9320   24.9630  -29.7050 C   0  0  0  0  0  0  0  0  0  0  0  0
   -5.9050   24.1010  -30.4630 C   0  0  0  0  0  0  0  0  0  0  0  0
   -6.7370   23.1910  -29.7930 C   0  0  0  0  0  0  0  0  0  0  0  0
   -7.6170   22.3860  -30.5180 C   0  0  0  0  0  0  0  0  0  0  0  0
   -7.6570   22.4960  -31.9100 C   0  0  0  0  0  0  0  0  0  0  0  0
   -6.8430   23.3790  -32.5470 N   0  0  0  0  0  0  0  0  0  0  0  0
   -5.9760   24.1730  -31.8630 C   0  0  0  0  0  0  0  0  0  0  0  0
   -1.5600   23.6550  -29.3560 C   0  0  0  0  0  0  0  0  0  0  0  0
   -0.9860   24.9190  -28.8360 C   0  0  0  0  0  0  0  0  0  0  0  0
   -1.6140   26.0030  -28.9620 O   0  0  0  0  0  0  0  0  0  0  0  0
    0.2710   24.9350  -28.2430 O   0  0  0  0  0  0  0  0  0  0  0  0
   -0.8370   22.4590  -29.1940 C   0  0  0  0  0  0  0  0  0  0  0  0
    0.5040   18.3320  -27.8770 C   0  0  0  0  0  0  0  0  0  0  0  0
    0.3180   17.0090  -27.4830 C   0  0  0  0  0  0  0  0  0  0  0  0
    1.5180   16.3020  -27.3360 C   0  0  0  0  0  0  0  0  0  0  0  0
    2.6500   17.0560  -27.6160 C   0  0  0  0  0  0  0  0  0  0  0  0
    2.1560   18.6030  -28.0480 S   0  0  0  0  0  0  0  0  0  0  0  0
   -0.1760   19.5740  -30.2260 H   0  0  0  0  0  0  0  0  0  0  0  0
   -3.1132   20.2268  -30.4275 H   0  0  0  0  0  0  0  0  0  0  0  0
   -4.3986   22.3305  -30.7576 H   0  0  0  0  0  0  0  0  0  0  0  0
   -3.0300   25.6720  -30.4100 H   0  0  0  0  0  0  0  0  0  0  0  0
   -4.9370   24.6698  -28.6448 H   0  0  0  0  0  0  0  0  0  0  0  0
   -5.2329   26.0162  -29.8062 H   0  0  0  0  0  0  0  0  0  0  0  0
   -6.6956   23.1121  -28.6966 H   0  0  0  0  0  0  0  0  0  0  0  0
   -8.2727   21.6719  -29.9983 H   0  0  0  0  0  0  0  0  0  0  0  0
   -8.3478   21.8675  -32.4912 H   0  0  0  0  0  0  0  0  0  0  0  0
   -5.3279   24.8743  -32.4091 H   0  0  0  0  0  0  0  0  0  0  0  0
    0.1644   22.4896  -28.7399 H   0  0  0  0  0  0  0  0  0  0  0  0
   -0.6722   16.5641  -27.3051 H   0  0  0  0  0  0  0  0  0  0  0  0
    1.5599   15.2470  -27.0273 H   0  0  0  0  0  0  0  0  0  0  0  0
    3.6901   16.7019  -27.5640 H   0  0  0  0  0  0  0  0  0  0  0  0
  1  2  2  0
  2  3  1  0
  3  4  1  0
  4  5  2  0
  5  6  1  0
  6  7  2  0
  7  8  1  0
  8  9  1  0
  9 10  1  0
 10 11  2  0
 11 12  1  0
 12 13  2  0
 13 14  1  0
 14 15  2  0
  7 16  1  0
 16 17  1  0
 17 18  2  0
 17 19  1  0
 16 20  2  0
  2 21  1  0
 21 22  2  0
 22 23  1  0
 23 24  2  0
 24 25  1  0
 20  4  1  0
 25 21  1  0
 15 10  1  0
  3 26  1  0
  5 27  1  0
  6 28  1  0
  8 29  1  0
  9 30  1  0
  9 31  1  0
 11 32  1  0
 12 33  1  0
 13 34  1  0
 15 35  1  0
 20 36  1  0
 22 37  1  0
 23 38  1  0
 24 39  1  0
M  CHG  1  19  -1
M  END
>  <UniqueID>  (21) 
20

>  <SMILES>  (21) 
O=C(Nc1ccc(NCc2cccnc2)c(C(=O)[O-])c1)c1cccs1

>  <Energy>  (21) 
79.1992029682331

>  <Genealogy>  (21) 
O=C(Nc1ccc(NCc2cccnc2)c(C(=O)[O-])c1)c1cccs1 (protonated)
O=C(Nc1ccc(NCc2cccnc2)c(C(=O)[O-])c1)c1cccs1 (3D coordinates assigned)
O=C(Nc1ccc(NCc2cccnc2)c(C(=O)[O-])c1)c1cccs1 (optimized conformer: 79.1992029682331 kcal/mol)

>  <smiles>  (21) 
O=C(Nc1ccc(NCc2cccnc2)c(C(=O)O)c1)c1cccs1

>  <score_type>  (21) 
oracle

>  <origin>  (21) 
adgpu

>  <m_score__min__energy>  (21) 
-9.5800000000000001

>  <m_primary>  (21) 
energy

$$$$
21:0
     RDKit          3D

 29 30  0  0  0  0  0  0  0  0999 V2000
   -3.7790   26.2620  -31.0640 H   0  0  0  0  0  0  0  0  0  0  0  0
   -4.1180   25.2980  -30.8430 N   0  0  0  0  0  0  0  0  0  0  0  0
   -3.5140   24.5480  -29.9750 C   0  0  0  0  0  0  0  0  0  0  0  0
   -2.4040   25.0180  -29.3430 N   0  0  0  0  0  0  0  0  0  0  0  0
   -1.7110   24.2700  -28.4460 C   0  0  0  0  0  0  0  0  0  0  0  0
   -0.8221   24.6883  -27.9511 H   0  0  0  0  0  0  0  0  0  0  0  0
   -2.1270   22.9700  -28.1520 C   0  0  0  0  0  0  0  0  0  0  0  0
   -1.3950   22.1690  -27.2050 C   0  0  0  0  0  0  0  0  0  0  0  0
   -0.8060   21.5240  -26.4440 N   0  0  0  0  0  0  0  0  0  0  0  0
   -3.2620   22.4570  -28.7830 C   0  0  0  0  0  0  0  0  0  0  0  0
   -3.5960   21.4328  -28.5607 H   0  0  0  0  0  0  0  0  0  0  0  0
   -3.9800   23.2430  -29.7010 C   0  0  0  0  0  0  0  0  0  0  0  0
   -5.1920   22.6840  -30.3510 C   0  0  0  0  0  0  0  0  0  0  0  0
   -5.0790   21.7610  -31.4050 C   0  0  0  0  0  0  0  0  0  0  0  0
   -4.0833   21.4417  -31.7467 H   0  0  0  0  0  0  0  0  0  0  0  0
   -6.2220   21.2460  -32.0220 C   0  0  0  0  0  0  0  0  0  0  0  0
   -6.1216   20.5266  -32.8480 H   0  0  0  0  0  0  0  0  0  0  0  0
   -7.4980   21.6430  -31.5920 C   0  0  0  0  0  0  0  0  0  0  0  0
   -8.7280   21.1130  -32.2800 C   0  0  0  0  0  0  0  0  0  0  0  0
   -9.6128   21.6413  -31.8953 H   0  0  0  0  0  0  0  0  0  0  0  0
   -8.6261   21.2775  -33.3628 H   0  0  0  0  0  0  0  0  0  0  0  0
   -8.8870   19.6180  -32.0240 C   0  0  0  0  0  0  0  0  0  0  0  0
   -8.9068   19.4317  -30.9401 H   0  0  0  0  0  0  0  0  0  0  0  0
   -9.8275   19.2670  -32.4736 H   0  0  0  0  0  0  0  0  0  0  0  0
   -8.0413   19.0770  -32.4736 H   0  0  0  0  0  0  0  0  0  0  0  0
   -7.6150   22.5800  -30.5550 C   0  0  0  0  0  0  0  0  0  0  0  0
   -8.6110   22.9111  -30.2258 H   0  0  0  0  0  0  0  0  0  0  0  0
   -6.4710   23.0950  -29.9380 C   0  0  0  0  0  0  0  0  0  0  0  0
   -6.5727   23.8272  -29.1234 H   0  0  0  0  0  0  0  0  0  0  0  0
  1  2  1  0
  2  3  2  0
  3  4  1  0
  4  5  1  0
  5  6  1  0
  5  7  2  0
  7  8  1  0
  8  9  3  0
  7 10  1  0
 10 11  1  0
 10 12  2  0
 12 13  1  0
 13 14  2  0
 14 15  1  0
 14 16  1  0
 16 17  1  0
 16 18  2  0
 18 19  1  0
 19 20  1  0
 19 21  1  0
 19 22  1  0
 22 23  1  0
 22 24  1  0
 22 25  1  0
 18 26  1  0
 26 27  1  0
 26 28  2  0
 28 29  1  0
 12  3  1  0
 28 13  1  0
M  CHG  1   4  -1
M  END
>  <UniqueID>  (22) 
21

>  <SMILES>  (22) 
[H]/N=c1\[n-]cc(C#N)cc1-c1ccc(CC)cc1

>  <Energy>  (22) 
33.212909742125106

>  <Genealogy>  (22) 
CCc1ccc(-c2cc(C#N)c[n-]c2=N)cc1 (protonated)
[H]/N=c1\[n-]cc(C#N)cc1-c1ccc(CC)cc1 (cis-trans isomerization)
[H]/N=c1\[n-]cc(C#N)cc1-c1ccc(CC)cc1 (3D coordinates assigned)
[H]/N=c1\[n-]cc(C#N)cc1-c1ccc(CC)cc1 (optimized conformer: 33.212909742125106 kcal/mol)

>  <smiles>  (22) 
CCc1ccc(-c2cc(C#N)c[nH]c2=N)cc1

>  <score_type>  (22) 
oracle

>  <origin>  (22) 
adgpu

>  <m_score__min__energy>  (22) 
-9.4000000000000004

>  <m_primary>  (22) 
energy

$$$$
22:0
     RDKit          3D

 45 47  0  0  0  0  0  0  0  0999 V2000
   -8.7740   18.7810  -31.7290 C   0  0  0  0  0  0  0  0  0  0  0  0
   -8.4260   19.8850  -32.7210 C   0  0  0  0  0  0  0  0  0  0  0  0
   -7.7300   21.0260  -32.0270 C   0  0  0  0  0  0  0  0  0  0  0  0
   -6.5160   21.5240  -32.5250 C   0  0  0  0  0  0  0  0  0  0  0  0
   -5.8570   22.5620  -31.8630 C   0  0  0  0  0  0  0  0  0  0  0  0
   -6.3830   23.1010  -30.6830 C   0  0  0  0  0  0  0  0  0  0  0  0
   -5.6820   24.1820  -30.0480 N   0  0  0  0  0  0  0  0  0  0  0  0
   -4.3220   24.5750  -30.2820 C   0  0  0  0  0  0  0  0  0  0  0  0
   -4.0790   25.6750  -30.8480 O   0  0  0  0  0  0  0  0  0  0  0  0
   -3.1950   23.7270  -29.8060 C   0  0  0  0  0  0  0  0  0  0  0  0
   -3.3470   22.3270  -29.7780 C   0  0  0  0  0  0  0  0  0  0  0  0
   -2.3080   21.5010  -29.3420 C   0  0  0  0  0  0  0  0  0  0  0  0
   -1.0860   22.0570  -28.9340 C   0  0  0  0  0  0  0  0  0  0  0  0
   -0.0020   21.2470  -28.4560 N   0  0  0  0  0  0  0  0  0  0  0  0
    0.4130   19.9790  -28.9820 C   0  0  0  0  0  0  0  0  0  0  0  0
    0.4450   18.9600  -28.2410 O   0  0  0  0  0  0  0  0  0  0  0  0
    0.6880   19.8260  -30.3780 N   0  0  0  0  0  0  0  0  0  0  0  0
   -0.2520   20.0010  -31.4480 C   0  0  0  0  0  0  0  0  0  0  0  0
   -1.2400   19.0410  -31.7340 C   0  0  0  0  0  0  0  0  0  0  0  0
   -2.1540   19.2590  -32.7710 C   0  0  0  0  0  0  0  0  0  0  0  0
   -2.1000   20.4400  -33.5170 C   0  0  0  0  0  0  0  0  0  0  0  0
   -1.1370   21.4090  -33.2200 C   0  0  0  0  0  0  0  0  0  0  0  0
   -0.2230   21.1930  -32.1840 C   0  0  0  0  0  0  0  0  0  0  0  0
   -0.9360   23.4460  -28.9300 C   0  0  0  0  0  0  0  0  0  0  0  0
   -1.9710   24.2820  -29.3650 C   0  0  0  0  0  0  0  0  0  0  0  0
   -1.7640   25.6570  -29.3420 O   0  0  0  0  0  0  0  0  0  0  0  0
   -7.6050   22.6110  -30.1890 C   0  0  0  0  0  0  0  0  0  0  0  0
   -8.2670   21.5720  -30.8510 C   0  0  0  0  0  0  0  0  0  0  0  0
   -8.6548   19.1591  -30.7029 H   0  0  0  0  0  0  0  0  0  0  0  0
   -9.8157   18.4637  -31.8841 H   0  0  0  0  0  0  0  0  0  0  0  0
   -8.1025   17.9236  -31.8841 H   0  0  0  0  0  0  0  0  0  0  0  0
   -7.7627   19.4764  -33.4976 H   0  0  0  0  0  0  0  0  0  0  0  0
   -9.3564   20.2607  -33.1719 H   0  0  0  0  0  0  0  0  0  0  0  0
   -6.0820   21.0950  -33.4402 H   0  0  0  0  0  0  0  0  0  0  0  0
   -4.9165   22.9595  -32.2723 H   0  0  0  0  0  0  0  0  0  0  0  0
   -4.2968   21.8778  -30.1039 H   0  0  0  0  0  0  0  0  0  0  0  0
   -2.4485   20.4103  -29.3185 H   0  0  0  0  0  0  0  0  0  0  0  0
   -1.2942   18.1163  -31.1407 H   0  0  0  0  0  0  0  0  0  0  0  0
   -2.9163   18.4997  -32.9995 H   0  0  0  0  0  0  0  0  0  0  0  0
   -2.8143   20.6067  -34.3367 H   0  0  0  0  0  0  0  0  0  0  0  0
   -1.0983   22.3419  -33.8016 H   0  0  0  0  0  0  0  0  0  0  0  0
    0.5240   21.9643  -31.9451 H   0  0  0  0  0  0  0  0  0  0  0  0
    0.0083   23.8887  -28.5803 H   0  0  0  0  0  0  0  0  0  0  0  0
   -8.0419   23.0466  -29.2783 H   0  0  0  0  0  0  0  0  0  0  0  0
   -9.2129   21.1810  -30.4481 H   0  0  0  0  0  0  0  0  0  0  0  0
  1  2  1  0
  2  3  1  0
  3  4  2  0
  4  5  1  0
  5  6  2  0
  6  7  1  0
  7  8  1  0
  8  9  2  0
  8 10  1  0
 10 11  2  0
 11 12  1  0
 12 13  2  0
 13 14  1  0
 14 15  1  0
 15 16  2  0
 15 17  1  0
 17 18  1  0
 18 19  2  0
 19 20  1  0
 20 21  2  0
 21 22  1  0
 22 23  2  0
 13 24  1  0
 24 25  2  0
 25 26  1  0
  6 27  1  0
 27 28  2  0
 28  3  1  0
 25 10  1  0
 23 18  1  0
  1 29  1  0
  1 30  1  0
  1 31  1  0
  2 32  1  0
  2 33  1  0
  4 34  1  0
  5 35  1  0
 11 36  1  0
 12 37  1  0
 19 38  1  0
 20 39  1  0
 21 40  1  0
 22 41  1  0
 23 42  1  0
 24 43  1  0
 27 44  1  0
 28 45  1  0
M  CHG  4   7  -1  14  -1  17  -1  26  -1
M  END
>  <UniqueID>  (23) 
22

>  <SMILES>  (23) 
CCc1ccc([N-]C(=O)c2ccc([N-]C(=O)[N-]c3ccccc3)cc2[O-])cc1

>  <Energy>  (23) 
57.51416829779913

>  <Genealogy>  (23) 
CCc1ccc([N-]C(=O)c2ccc([N-]C(=O)[N-]c3ccccc3)cc2[O-])cc1 (protonated)
CCc1ccc([N-]C(=O)c2ccc([N-]C(=O)[N-]c3ccccc3)cc2[O-])cc1 (3D coordinates assigned)
CCc1ccc([N-]C(=O)c2ccc([N-]C(=O)[N-]c3ccccc3)cc2[O-])cc1 (optimized conformer: 57.51416829779913 kcal/mol)

>  <smiles>  (23) 
CCc1ccc(NC(=O)c2ccc(NC(=O)Nc3ccccc3)cc2O)cc1

>  <score_type>  (23) 
oracle

>  <origin>  (23) 
adgpu

>  <m_score__min__energy>  (23) 
-12.75

>  <m_primary>  (23) 
energy

$$$$
23:0
     RDKit          3D

 52 55  0  0  0  0  0  0  0  0999 V2000
   -2.0630   18.9740  -32.4100 N   0  0  0  0  0  0  0  0  0  0  0  0
   -1.0760   19.6500  -33.1980 C   0  0  0  0  0  0  0  0  0  0  0  0
   -1.3820   20.0000  -34.5230 C   0  0  0  0  0  0  0  0  0  0  0  0
   -0.4770   20.7410  -35.2870 C   0  0  0  0  0  0  0  0  0  0  0  0
    0.7360   21.1500  -34.7320 C   0  0  0  0  0  0  0  0  0  0  0  0
    1.0580   20.7990  -33.4190 C   0  0  0  0  0  0  0  0  0  0  0  0
    0.1750   20.0270  -32.6530 C   0  0  0  0  0  0  0  0  0  0  0  0
    0.5660   19.6610  -31.3240 N   0  0  0  0  0  0  0  0  0  0  0  0
   -0.3200   19.6490  -30.1980 C   0  0  0  0  0  0  0  0  0  0  0  0
   -0.5000   18.5790  -29.5540 O   0  0  0  0  0  0  0  0  0  0  0  0
   -1.0140   20.8900  -29.7830 C   0  0  0  0  0  0  0  0  0  0  0  0
   -0.4630   22.1490  -30.0800 C   0  0  0  0  0  0  0  0  0  0  0  0
   -1.1390   23.3200  -29.7280 C   0  0  0  0  0  0  0  0  0  0  0  0
   -2.3730   23.2550  -29.0650 C   0  0  0  0  0  0  0  0  0  0  0  0
   -3.1750   24.5080  -28.8350 C   0  0  0  0  0  0  0  0  0  0  0  0
   -3.4900   25.1350  -30.1140 N   0  0  0  0  0  0  0  0  0  0  0  0
   -4.6930   24.8210  -30.8190 C   0  0  0  0  0  0  0  0  0  0  0  0
   -5.5080   25.7440  -31.0860 O   0  0  0  0  0  0  0  0  0  0  0  0
   -4.9390   23.4400  -31.2950 C   0  0  0  0  0  0  0  0  0  0  0  0
   -3.8930   22.6800  -31.8420 C   0  0  0  0  0  0  0  0  0  0  0  0
   -4.1370   21.4080  -32.3660 C   0  0  0  0  0  0  0  0  0  0  0  0
   -5.4350   20.8670  -32.3580 C   0  0  0  0  0  0  0  0  0  0  0  0
   -5.7180   19.5200  -32.9200 C   0  0  0  0  0  0  0  0  0  0  0  0
   -6.8430   18.7710  -32.5210 C   0  0  0  0  0  0  0  0  0  0  0  0
   -7.0610   17.5090  -33.0760 C   0  0  0  0  0  0  0  0  0  0  0  0
   -6.1640   16.9940  -34.0110 C   0  0  0  0  0  0  0  0  0  0  0  0
   -5.0530   17.7530  -34.3780 C   0  0  0  0  0  0  0  0  0  0  0  0
   -4.8570   18.9820  -33.8300 N   0  0  0  0  0  0  0  0  0  0  0  0
   -6.4740   21.6180  -31.7810 C   0  0  0  0  0  0  0  0  0  0  0  0
   -6.2290   22.8900  -31.2570 C   0  0  0  0  0  0  0  0  0  0  0  0
   -2.9200   22.0020  -28.7530 C   0  0  0  0  0  0  0  0  0  0  0  0
   -2.2470   20.8290  -29.1070 C   0  0  0  0  0  0  0  0  0  0  0  0
   -1.8310   18.6350  -31.4500 H   0  0  0  0  0  0  0  0  0  0  0  0
   -2.9980   18.7190  -32.7990 H   0  0  0  0  0  0  0  0  0  0  0  0
   -2.3411   19.6885  -34.9625 H   0  0  0  0  0  0  0  0  0  0  0  0
   -0.7210   21.0023  -36.3273 H   0  0  0  0  0  0  0  0  0  0  0  0
    1.4392   21.7493  -35.3289 H   0  0  0  0  0  0  0  0  0  0  0  0
    2.0118   21.1312  -32.9833 H   0  0  0  0  0  0  0  0  0  0  0  0
    0.5077   22.2125  -30.5934 H   0  0  0  0  0  0  0  0  0  0  0  0
   -0.7006   24.2988  -29.9724 H   0  0  0  0  0  0  0  0  0  0  0  0
   -4.1093   24.2529  -28.3134 H   0  0  0  0  0  0  0  0  0  0  0  0
   -2.5876   25.2078  -28.2224 H   0  0  0  0  0  0  0  0  0  0  0  0
   -2.8722   23.0896  -31.8582 H   0  0  0  0  0  0  0  0  0  0  0  0
   -3.3060   20.8243  -32.7888 H   0  0  0  0  0  0  0  0  0  0  0  0
   -7.5442   19.1779  -31.7776 H   0  0  0  0  0  0  0  0  0  0  0  0
   -7.9406   16.9207  -32.7757 H   0  0  0  0  0  0  0  0  0  0  0  0
   -6.3306   16.0010  -34.4539 H   0  0  0  0  0  0  0  0  0  0  0  0
   -4.3348   17.3572  -35.1112 H   0  0  0  0  0  0  0  0  0  0  0  0
   -7.4907   21.1998  -31.7416 H   0  0  0  0  0  0  0  0  0  0  0  0
   -7.0542   23.4647  -30.8111 H   0  0  0  0  0  0  0  0  0  0  0  0
   -3.8841   21.9418  -28.2267 H   0  0  0  0  0  0  0  0  0  0  0  0
   -2.6841   19.8514  -28.8555 H   0  0  0  0  0  0  0  0  0  0  0  0
  1  2  1  0
  2  3  2  0
  3  4  1  0
  4  5  2  0
  5  6  1  0
  6  7  2  0
  7  8  1  0
  8  9  1  0
  9 10  2  0
  9 11  1  0
 11 12  2  0
 12 13  1  0
 13 14  2  0
 14 15  1  0
 15 16  1  0
 16 17  1  0
 17 18  2  0
 17 19  1  0
 19 20  2  0
 20 21  1  0
 21 22  2  0
 22 23  1  0
 23 24  2  0
 24 25  1  0
 25 26  2  0
 26 27  1  0
 27 28  2  0
 22 29  1  0
 29 30  2  0
 14 31  1  0
 31 32  2  0
  7  2  1  0
 32 11  1  0
 30 19  1  0
 28 23  1  0
  1 33  1  0
  1 34  1  0
  3 35  1  0
  4 36  1  0
  5 37  1  0
  6 38  1  0
 12 39  1  0
 13 40  1  0
 15 41  1  0
 15 42  1  0
 20 43  1  0
 21 44  1  0
 24 45  1  0
 25 46  1  0
 26 47  1  0
 27 48  1  0
 29 49  1  0
 30 50  1  0
 31 51  1  0
 32 52  1  0
M  CHG  2   8  -1  16  -1
M  END
>  <UniqueID>  (24) 
23

>  <SMILES>  (24) 
Nc1ccccc1[N-]C(=O)c1ccc(C[N-]C(=O)c2ccc(-c3ccccn3)cc2)cc1

>  <Energy>  (24) 
71.7900098472471

>  <Genealogy>  (24) 
Nc1ccccc1[N-]C(=O)c1ccc(C[N-]C(=O)c2ccc(-c3ccccn3)cc2)cc1 (protonated)
Nc1ccccc1[N-]C(=O)c1ccc(C[N-]C(=O)c2ccc(-c3ccccn3)cc2)cc1 (3D coordinates assigned)
Nc1ccccc1[N-]C(=O)c1ccc(C[N-]C(=O)c2ccc(-c3ccccn3)cc2)cc1 (optimized conformer: 71.7900098472471 kcal/mol)

>  <smiles>  (24) 
Nc1ccccc1NC(=O)c1ccc(CNC(=O)c2ccc(-c3ccccn3)cc2)cc1

>  <score_type>  (24) 
oracle

>  <origin>  (24) 
adgpu

>  <m_score__min__energy>  (24) 
-11.539999999999999

>  <m_primary>  (24) 
energy

$$$$
24:0
     RDKit          3D

 46 49  0  0  0  0  0  0  0  0999 V2000
  -10.7000   21.5370  -30.7850 H   0  0  0  0  0  0  0  0  0  0  0  0
   -9.8550   21.9670  -31.2270 N   0  0  0  0  0  0  0  0  0  0  0  0
   -8.9110   21.2610  -31.7690 C   0  0  0  0  0  0  0  0  0  0  0  0
   -8.9960   19.8630  -31.7760 C   0  0  0  0  0  0  0  0  0  0  0  0
   -9.8676   19.3597  -31.3320 H   0  0  0  0  0  0  0  0  0  0  0  0
   -7.9730   19.1150  -32.3470 C   0  0  0  0  0  0  0  0  0  0  0  0
   -8.0261   18.0163  -32.3546 H   0  0  0  0  0  0  0  0  0  0  0  0
   -6.8750   19.7730  -32.9120 C   0  0  0  0  0  0  0  0  0  0  0  0
   -5.7390   19.0320  -33.5200 C   0  0  0  0  0  0  0  0  0  0  0  0
   -5.9860   17.8550  -34.2460 C   0  0  0  0  0  0  0  0  0  0  0  0
   -7.0169   17.4872  -34.3548 H   0  0  0  0  0  0  0  0  0  0  0  0
   -4.9340   17.1490  -34.8300 C   0  0  0  0  0  0  0  0  0  0  0  0
   -5.1403   16.2334  -35.4038 H   0  0  0  0  0  0  0  0  0  0  0  0
   -3.6210   17.6000  -34.6890 C   0  0  0  0  0  0  0  0  0  0  0  0
   -2.7985   17.0446  -35.1633 H   0  0  0  0  0  0  0  0  0  0  0  0
   -3.3430   18.7590  -33.9450 C   0  0  0  0  0  0  0  0  0  0  0  0
   -1.9420   19.2220  -33.7960 C   0  0  0  0  0  0  0  0  0  0  0  0
   -1.1080   18.4930  -33.1910 O   0  0  0  0  0  0  0  0  0  0  0  0
   -1.5200   20.4920  -34.3170 N   0  0  0  0  0  0  0  0  0  0  0  0
   -2.2320   21.2050  -34.5890 H   0  0  0  0  0  0  0  0  0  0  0  0
   -0.1180   20.8950  -34.2900 C   0  0  0  0  0  0  0  0  0  0  0  0
    0.0269   20.8382  -33.2011 H   0  0  0  0  0  0  0  0  0  0  0  0
    0.6590   20.4360  -35.5130 C   0  0  0  0  0  0  0  0  0  0  0  0
    1.7156   20.1459  -35.4165 H   0  0  0  0  0  0  0  0  0  0  0  0
    0.5162   19.6601  -36.2796 H   0  0  0  0  0  0  0  0  0  0  0  0
    0.2550   21.8950  -35.3710 C   0  0  0  0  0  0  0  0  0  0  0  0
    1.0195   22.6605  -35.1720 H   0  0  0  0  0  0  0  0  0  0  0  0
   -0.3012   22.6121  -35.9926 H   0  0  0  0  0  0  0  0  0  0  0  0
   -4.4090   19.4740  -33.3690 C   0  0  0  0  0  0  0  0  0  0  0  0
   -4.2022   20.3887  -32.7941 H   0  0  0  0  0  0  0  0  0  0  0  0
   -6.8390   21.1330  -32.8730 N   0  0  0  0  0  0  0  0  0  0  0  0
   -7.8170   21.8680  -32.3350 N   0  0  0  0  0  0  0  0  0  0  0  0
   -7.6460   23.3250  -32.3210 C   0  0  0  0  0  0  0  0  0  0  0  0
   -7.4000   23.6723  -33.3353 H   0  0  0  0  0  0  0  0  0  0  0  0
   -8.5812   23.7941  -31.9814 H   0  0  0  0  0  0  0  0  0  0  0  0
   -6.5340   23.7060  -31.3810 C   0  0  0  0  0  0  0  0  0  0  0  0
   -6.7860   24.5900  -30.3180 C   0  0  0  0  0  0  0  0  0  0  0  0
   -7.8013   24.9827  -30.1601 H   0  0  0  0  0  0  0  0  0  0  0  0
   -5.7490   24.9720  -29.4600 C   0  0  0  0  0  0  0  0  0  0  0  0
   -5.9512   25.6605  -28.6263 H   0  0  0  0  0  0  0  0  0  0  0  0
   -4.4570   24.4800  -29.6610 C   0  0  0  0  0  0  0  0  0  0  0  0
   -3.6431   24.7800  -28.9845 H   0  0  0  0  0  0  0  0  0  0  0  0
   -4.1980   23.6070  -30.7210 C   0  0  0  0  0  0  0  0  0  0  0  0
   -3.1800   23.2212  -30.8784 H   0  0  0  0  0  0  0  0  0  0  0  0
   -5.2310   23.2230  -31.5820 C   0  0  0  0  0  0  0  0  0  0  0  0
   -5.0221   22.5406  -32.4191 H   0  0  0  0  0  0  0  0  0  0  0  0
  1  2  1  0
  2  3  2  0
  3  4  1  0
  4  5  1  0
  4  6  2  0
  6  7  1  0
  6  8  1  0
  8  9  1  0
  9 10  2  0
 10 11  1  0
 10 12  1  0
 12 13  1  0
 12 14  2  0
 14 15  1  0
 14 16  1  0
 16 17  1  0
 17 18  2  0
 17 19  1  0
 19 20  1  0
 19 21  1  0
 21 22  1  0
 21 23  1  0
 23 24  1  0
 23 25  1  0
 23 26  1  0
 26 27  1  0
 26 28  1  0
 16 29  2  0
 29 30  1  0
  8 31  2  0
 31 32  1  0
 32 33  1  0
 33 34  1  0
 33 35  1  0
 33 36  1  0
 36 37  2  0
 37 38  1  0
 37 39  1  0
 39 40  1  0
 39 41  2  0
 41 42  1  0
 41 43  1  0
 43 44  1  0
 43 45  2  0
 45 46  1  0
 32  3  1  0
 45 36  1  0
 29  9  1  0
 26 21  1  0
M  END
>  <UniqueID>  (25) 
24

>  <SMILES>  (25) 
[H]/N=c1\ccc(-c2cccc(C(=O)NC3CC3)c2)nn1Cc1ccccc1

>  <Energy>  (25) 
319.636641499606

>  <Genealogy>  (25) 
[H]/N=c1\ccc(-c2cccc(C(=O)NC3CC3)c2)nn1Cc1ccccc1 (cis-trans isomerization)
[H]/N=c1\ccc(-c2cccc(C(=O)NC3CC3)c2)nn1Cc1ccccc1 (3D coordinates assigned)
[H]/N=c1\ccc(-c2cccc(C(=O)NC3CC3)c2)nn1Cc1ccccc1 (nonaromatic ring conformer: 319.636641499606 kcal/mol)

>  <smiles>  (25) 
N=c1ccc(-c2cccc(C(=O)NC3CC3)c2)nn1Cc1ccccc1

>  <score_type>  (25) 
oracle

>  <origin>  (25) 
adgpu

>  <m_score__min__energy>  (25) 
-9.4100000000000001

>  <m_primary>  (25) 
energy

$$$$
25:0
     RDKit          3D

 26 27  0  0  0  0  0  0  0  0999 V2000
   -9.2760   21.1720  -32.2770 C   0  0  0  0  0  0  0  0  0  0  0  0
   -8.2130   20.3380  -31.5530 C   0  0  0  0  0  0  0  0  0  0  0  0
   -8.7410   18.9380  -31.2300 C   0  0  0  0  0  0  0  0  0  0  0  0
   -6.9860   20.2470  -32.3630 N   0  0  0  0  0  0  0  0  0  0  0  0
   -6.6610   19.2420  -33.1990 C   0  0  0  0  0  0  0  0  0  0  0  0
   -5.5000   19.5780  -33.8540 C   0  0  0  0  0  0  0  0  0  0  0  0
   -5.0830   20.7900  -33.4360 N   0  0  0  0  0  0  0  0  0  0  0  0
   -6.0030   21.1670  -32.5210 C   0  0  0  0  0  0  0  0  0  0  0  0
   -5.9000   22.4490  -31.7960 C   0  0  0  0  0  0  0  0  0  0  0  0
   -7.0540   23.1670  -31.4630 C   0  0  0  0  0  0  0  0  0  0  0  0
   -6.9500   24.3640  -30.8270 N   0  0  0  0  0  0  0  0  0  0  0  0
   -5.7360   24.8880  -30.5190 C   0  0  0  0  0  0  0  0  0  0  0  0
   -4.6020   24.2220  -30.8560 N   0  0  0  0  0  0  0  0  0  0  0  0
   -4.6590   23.0230  -31.4910 C   0  0  0  0  0  0  0  0  0  0  0  0
   -9.9156   21.6739  -31.5361 H   0  0  0  0  0  0  0  0  0  0  0  0
   -8.7832   21.9269  -32.9072 H   0  0  0  0  0  0  0  0  0  0  0  0
   -9.8920   20.5137  -32.9072 H   0  0  0  0  0  0  0  0  0  0  0  0
   -7.9731   20.8429  -30.6056 H   0  0  0  0  0  0  0  0  0  0  0  0
   -8.7903   18.8074  -30.1389 H   0  0  0  0  0  0  0  0  0  0  0  0
   -9.7465   18.8172  -31.6595 H   0  0  0  0  0  0  0  0  0  0  0  0
   -8.0657   18.1833  -31.6595 H   0  0  0  0  0  0  0  0  0  0  0  0
   -7.2288   18.3097  -33.3347 H   0  0  0  0  0  0  0  0  0  0  0  0
   -4.9902   18.9545  -34.6032 H   0  0  0  0  0  0  0  0  0  0  0  0
   -8.0453   22.7629  -31.7159 H   0  0  0  0  0  0  0  0  0  0  0  0
   -5.6711   25.8534  -29.9957 H   0  0  0  0  0  0  0  0  0  0  0  0
   -3.7300   22.5021  -31.7661 H   0  0  0  0  0  0  0  0  0  0  0  0
  1  2  1  0
  2  3  1  0
  2  4  1  0
  4  5  1  0
  5  6  2  0
  6  7  1  0
  7  8  2  0
  8  9  1  0
  9 10  2  0
 10 11  1  0
 11 12  2  0
 12 13  1  0
 13 14  2  0
  8  4  1  0
 14  9  1  0
  1 15  1  0
  1 16  1  0
  1 17  1  0
  2 18  1  0
  3 19  1  0
  3 20  1  0
  3 21  1  0
  5 22  1  0
  6 23  1  0
 10 24  1  0
 12 25  1  0
 14 26  1  0
M  END
>  <UniqueID>  (26) 
25

>  <SMILES>  (26) 
CC(C)n1ccnc1-c1cncnc1

>  <Energy>  (26) 
58.080413575745666

>  <Genealogy>  (26) 
CC(C)n1ccnc1-c1cncnc1 (3D coordinates assigned)
CC(C)n1ccnc1-c1cncnc1 (optimized conformer: 58.080413575745666 kcal/mol)

>  <smiles>  (26) 
CC(C)n1ccnc1-c1cncnc1

>  <score_type>  (26) 
oracle

>  <origin>  (26) 
adgpu

>  <m_score__min__energy>  (26) 
-5.5999999999999996

>  <m_primary>  (26) 
energy

$$$$
26:0
     RDKit          3D

 42 44  0  0  0  0  0  0  0  0999 V2000
   -4.1210   25.5540  -30.2960 N   0  0  0  0  0  0  0  0  0  0  0  0
   -3.0980   24.6710  -29.8290 C   0  0  0  0  0  0  0  0  0  0  0  0
   -1.9600   25.1970  -29.3010 N   0  0  0  0  0  0  0  0  0  0  0  0
   -0.9730   24.4010  -28.8170 C   0  0  0  0  0  0  0  0  0  0  0  0
    0.0690   24.9150  -28.3360 O   0  0  0  0  0  0  0  0  0  0  0  0
   -1.1120   23.0510  -28.8470 N   0  0  0  0  0  0  0  0  0  0  0  0
   -2.2260   22.4730  -29.3650 C   0  0  0  0  0  0  0  0  0  0  0  0
   -2.3220   21.2170  -29.3790 O   0  0  0  0  0  0  0  0  0  0  0  0
   -3.2550   23.2740  -29.8820 C   0  0  0  0  0  0  0  0  0  0  0  0
   -4.4360   22.6760  -30.4500 N   0  0  0  0  0  0  0  0  0  0  0  0
   -5.6870   22.7440  -29.6820 C   0  0  0  0  0  0  0  0  0  0  0  0
   -6.8650   22.8410  -30.6000 C   0  0  0  0  0  0  0  0  0  0  0  0
   -6.9880   23.7040  -31.6700 C   0  0  0  0  0  0  0  0  0  0  0  0
   -8.2090   23.4160  -32.2410 C   0  0  0  0  0  0  0  0  0  0  0  0
   -8.7530   22.3970  -31.4860 C   0  0  0  0  0  0  0  0  0  0  0  0
   -7.9270   22.0730  -30.5180 O   0  0  0  0  0  0  0  0  0  0  0  0
   -4.3430   22.0330  -31.7420 C   0  0  0  0  0  0  0  0  0  0  0  0
   -4.3690   22.7430  -32.7860 O   0  0  0  0  0  0  0  0  0  0  0  0
   -4.1540   20.5410  -31.9020 C   0  0  0  0  0  0  0  0  0  0  0  0
   -4.9100   19.9880  -33.1180 C   0  0  0  0  0  0  0  0  0  0  0  0
   -6.2630   19.4460  -32.7330 C   0  0  0  0  0  0  0  0  0  0  0  0
   -7.4370   20.0790  -33.1730 C   0  0  0  0  0  0  0  0  0  0  0  0
   -8.6890   19.5870  -32.7950 C   0  0  0  0  0  0  0  0  0  0  0  0
   -8.7790   18.4570  -31.9770 C   0  0  0  0  0  0  0  0  0  0  0  0
   -7.6150   17.8210  -31.5330 C   0  0  0  0  0  0  0  0  0  0  0  0
   -6.3620   18.3180  -31.9010 C   0  0  0  0  0  0  0  0  0  0  0  0
   -4.0610   25.9600  -31.2560 H   0  0  0  0  0  0  0  0  0  0  0  0
   -4.9210   25.8400  -29.6900 H   0  0  0  0  0  0  0  0  0  0  0  0
   -5.7826   21.8377  -29.0660 H   0  0  0  0  0  0  0  0  0  0  0  0
   -5.6618   23.6385  -29.0423 H   0  0  0  0  0  0  0  0  0  0  0  0
   -6.2630   24.4632  -31.9985 H   0  0  0  0  0  0  0  0  0  0  0  0
   -8.6587   23.9003  -33.1203 H   0  0  0  0  0  0  0  0  0  0  0  0
   -9.7309   21.9271  -31.6676 H   0  0  0  0  0  0  0  0  0  0  0  0
   -3.0814   20.3311  -32.0262 H   0  0  0  0  0  0  0  0  0  0  0  0
   -4.5562   20.0513  -31.0029 H   0  0  0  0  0  0  0  0  0  0  0  0
   -5.0452   20.7963  -33.8517 H   0  0  0  0  0  0  0  0  0  0  0  0
   -4.3188   19.1641  -33.5443 H   0  0  0  0  0  0  0  0  0  0  0  0
   -7.3705   20.9670  -33.8188 H   0  0  0  0  0  0  0  0  0  0  0  0
   -9.6044   20.0892  -33.1413 H   0  0  0  0  0  0  0  0  0  0  0  0
   -9.7649   18.0681  -31.6826 H   0  0  0  0  0  0  0  0  0  0  0  0
   -7.6861   16.9288  -30.8936 H   0  0  0  0  0  0  0  0  0  0  0  0
   -5.4488   17.8239  -31.5377 H   0  0  0  0  0  0  0  0  0  0  0  0
  1  2  1  0
  2  3  1  0
  3  4  1  0
  4  5  2  0
  4  6  1  0
  6  7  1  0
  7  8  2  0
  7  9  1  0
  9 10  1  0
 10 11  1  0
 11 12  1  0
 12 13  2  0
 13 14  1  0
 14 15  2  0
 15 16  1  0
 10 17  1  0
 17 18  2  0
 17 19  1  0
 19 20  1  0
 20 21  1  0
 21 22  2  0
 22 23  1  0
 23 24  2  0
 24 25  1  0
 25 26  2  0
  9  2  2  0
 16 12  1  0
 26 21  1  0
  1 27  1  0
  1 28  1  0
 11 29  1  0
 11 30  1  0
 13 31  1  0
 14 32  1  0
 15 33  1  0
 19 34  1  0
 19 35  1  0
 20 36  1  0
 20 37  1  0
 22 38  1  0
 23 39  1  0
 24 40  1  0
 25 41  1  0
 26 42  1  0
M  CHG  2   3  -1   6  -1
M  END
>  <UniqueID>  (27) 
26

>  <SMILES>  (27) 
Nc1[n-]c(=O)[n-]c(=O)c1N(Cc1ccco1)C(=O)CCc1ccccc1

>  <Energy>  (27) 
71.29727830482197

>  <Genealogy>  (27) 
Nc1[n-]c(=O)[n-]c(=O)c1N(Cc1ccco1)C(=O)CCc1ccccc1 (protonated)
Nc1[n-]c(=O)[n-]c(=O)c1N(Cc1ccco1)C(=O)CCc1ccccc1 (3D coordinates assigned)
Nc1[n-]c(=O)[n-]c(=O)c1N(Cc1ccco1)C(=O)CCc1ccccc1 (optimized conformer: 71.29727830482197 kcal/mol)

>  <smiles>  (27) 
Nc1[nH]c(=O)[nH]c(=O)c1N(Cc1ccco1)C(=O)CCc1ccccc1

>  <score_type>  (27) 
oracle

>  <origin>  (27) 
adgpu

>  <m_score__min__energy>  (27) 
-11.1

>  <m_primary>  (27) 
energy

$$$$
27:0
     RDKit          3D

 41 43  0  0  0  0  0  0  0  0999 V2000
   -1.2450   26.4850  -28.9770 N   0  0  0  0  0  0  0  0  0  0  0  0
   -0.7420   25.3870  -27.7390 S   0  0  0  0  0  0  0  0  0  0  0  0
    0.7540   25.2450  -27.7650 O   0  0  0  0  0  0  0  0  0  0  0  0
   -1.1540   25.9470  -26.4070 O   0  0  0  0  0  0  0  0  0  0  0  0
   -1.4920   23.8060  -28.0010 C   0  0  0  0  0  0  0  0  0  0  0  0
   -0.9770   22.6900  -27.3200 C   0  0  0  0  0  0  0  0  0  0  0  0
   -1.5640   21.4330  -27.4730 C   0  0  0  0  0  0  0  0  0  0  0  0
   -2.6670   21.2740  -28.3100 C   0  0  0  0  0  0  0  0  0  0  0  0
   -3.1860   22.3710  -28.9990 C   0  0  0  0  0  0  0  0  0  0  0  0
   -2.6120   23.6480  -28.8520 C   0  0  0  0  0  0  0  0  0  0  0  0
   -3.1550   24.7670  -29.5760 N   0  0  0  0  0  0  0  0  0  0  0  0
   -4.8000   24.8130  -30.1280 S   0  0  0  0  0  0  0  0  0  0  0  0
   -4.9760   25.9720  -31.0690 O   0  0  0  0  0  0  0  0  0  0  0  0
   -5.7150   24.9980  -28.9510 O   0  0  0  0  0  0  0  0  0  0  0  0
   -5.2010   23.2930  -30.9200 C   0  0  0  0  0  0  0  0  0  0  0  0
   -6.4100   22.6550  -30.6200 C   0  0  0  0  0  0  0  0  0  0  0  0
   -6.7280   21.4310  -31.2130 C   0  0  0  0  0  0  0  0  0  0  0  0
   -5.8390   20.8250  -32.1180 C   0  0  0  0  0  0  0  0  0  0  0  0
   -6.1730   19.5200  -32.7450 C   0  0  0  0  0  0  0  0  0  0  0  0
   -7.0630   18.6300  -32.1120 C   0  0  0  0  0  0  0  0  0  0  0  0
   -7.3770   17.4030  -32.7060 C   0  0  0  0  0  0  0  0  0  0  0  0
   -6.8090   17.0510  -33.9310 C   0  0  0  0  0  0  0  0  0  0  0  0
   -5.9250   17.9250  -34.5690 C   0  0  0  0  0  0  0  0  0  0  0  0
   -5.6080   19.1530  -33.9820 C   0  0  0  0  0  0  0  0  0  0  0  0
   -4.6260   21.4730  -32.4170 C   0  0  0  0  0  0  0  0  0  0  0  0
   -4.3110   22.6970  -31.8230 C   0  0  0  0  0  0  0  0  0  0  0  0
   -1.1980   25.9640  -29.8820 H   0  0  0  0  0  0  0  0  0  0  0  0
   -0.1042   22.8080  -26.6610 H   0  0  0  0  0  0  0  0  0  0  0  0
   -1.1555   20.5666  -26.9322 H   0  0  0  0  0  0  0  0  0  0  0  0
   -3.1290   20.2827  -28.4276 H   0  0  0  0  0  0  0  0  0  0  0  0
   -4.0522   22.2365  -29.6635 H   0  0  0  0  0  0  0  0  0  0  0  0
   -2.5930   25.6360  -29.7010 H   0  0  0  0  0  0  0  0  0  0  0  0
   -7.1134   23.1199  -29.9136 H   0  0  0  0  0  0  0  0  0  0  0  0
   -7.6807   20.9377  -30.9702 H   0  0  0  0  0  0  0  0  0  0  0  0
   -7.5133   18.9013  -31.1458 H   0  0  0  0  0  0  0  0  0  0  0  0
   -8.0735   16.7138  -32.2061 H   0  0  0  0  0  0  0  0  0  0  0  0
   -7.0573   16.0849  -34.3947 H   0  0  0  0  0  0  0  0  0  0  0  0
   -5.4780   17.6461  -35.5346 H   0  0  0  0  0  0  0  0  0  0  0  0
   -4.9125   19.8377  -34.4895 H   0  0  0  0  0  0  0  0  0  0  0  0
   -3.9207   21.0118  -33.1240 H   0  0  0  0  0  0  0  0  0  0  0  0
   -3.3605   23.1950  -32.0650 H   0  0  0  0  0  0  0  0  0  0  0  0
  1  2  1  0
  2  3  2  0
  2  4  2  0
  2  5  1  0
  5  6  2  0
  6  7  1  0
  7  8  2  0
  8  9  1  0
  9 10  2  0
 10 11  1  0
 11 12  1  0
 12 13  2  0
 12 14  2  0
 12 15  1  0
 15 16  2  0
 16 17  1  0
 17 18  2  0
 18 19  1  0
 19 20  2  0
 20 21  1  0
 21 22  2  0
 22 23  1  0
 23 24  2  0
 18 25  1  0
 25 26  2  0
 10  5  1  0
 26 15  1  0
 24 19  1  0
  1 27  1  0
  6 28  1  0
  7 29  1  0
  8 30  1  0
  9 31  1  0
 11 32  1  0
 16 33  1  0
 17 34  1  0
 20 35  1  0
 21 36  1  0
 22 37  1  0
 23 38  1  0
 24 39  1  0
 25 40  1  0
 26 41  1  0
M  CHG  1   1  -1
M  END
>  <UniqueID>  (28) 
27

>  <SMILES>  (28) 
[NH-]S(=O)(=O)c1ccccc1NS(=O)(=O)c1ccc(-c2ccccc2)cc1

>  <Energy>  (28) 
53.30957584648572

>  <Genealogy>  (28) 
[NH-]S(=O)(=O)c1ccccc1NS(=O)(=O)c1ccc(-c2ccccc2)cc1 (protonated)
[NH-]S(=O)(=O)c1ccccc1NS(=O)(=O)c1ccc(-c2ccccc2)cc1 (3D coordinates assigned)
[NH-]S(=O)(=O)c1ccccc1NS(=O)(=O)c1ccc(-c2ccccc2)cc1 (optimized conformer: 53.30957584648572 kcal/mol)

>  <smiles>  (28) 
NS(=O)(=O)c1ccccc1NS(=O)(=O)c1ccc(-c2ccccc2)cc1

>  <score_type>  (28) 
oracle

>  <origin>  (28) 
adgpu

>  <m_score__min__energy>  (28) 
-12.52

>  <m_primary>  (28) 
energy

$$$$
28:0
     RDKit          3D

 42 44  0  0  0  0  0  0  0  0999 V2000
   -5.7400   25.4850  -30.5600 O   0  0  0  0  0  0  0  0  0  0  0  0
   -4.9070   24.5830  -30.8400 C   0  0  0  0  0  0  0  0  0  0  0  0
   -3.5310   24.7720  -30.4750 N   0  0  0  0  0  0  0  0  0  0  0  0
   -2.8730   24.1910  -29.3370 C   0  0  0  0  0  0  0  0  0  0  0  0
   -3.3030   22.9700  -28.7840 C   0  0  0  0  0  0  0  0  0  0  0  0
   -2.6560   22.4350  -27.6670 C   0  0  0  0  0  0  0  0  0  0  0  0
   -1.5690   23.1040  -27.1000 C   0  0  0  0  0  0  0  0  0  0  0  0
   -1.1150   24.3020  -27.6620 C   0  0  0  0  0  0  0  0  0  0  0  0
   -1.7590   24.8390  -28.7840 C   0  0  0  0  0  0  0  0  0  0  0  0
   -1.2920   26.0270  -29.3380 O   0  0  0  0  0  0  0  0  0  0  0  0
   -5.3730   23.3500  -31.5140 C   0  0  0  0  0  0  0  0  0  0  0  0
   -4.6120   22.7990  -32.5570 C   0  0  0  0  0  0  0  0  0  0  0  0
   -4.9800   21.5790  -33.1320 C   0  0  0  0  0  0  0  0  0  0  0  0
   -6.1070   20.8920  -32.6710 C   0  0  0  0  0  0  0  0  0  0  0  0
   -6.3940   19.5930  -33.2040 N   0  0  0  0  0  0  0  0  0  0  0  0
   -6.4460   18.1500  -32.2430 S   0  0  0  0  0  0  0  0  0  0  0  0
   -7.8480   17.6140  -32.2210 O   0  0  0  0  0  0  0  0  0  0  0  0
   -6.0260   18.4670  -30.8350 O   0  0  0  0  0  0  0  0  0  0  0  0
   -5.3840   16.9420  -32.9650 C   0  0  0  0  0  0  0  0  0  0  0  0
   -4.7230   17.2370  -34.1630 C   0  0  0  0  0  0  0  0  0  0  0  0
   -3.8140   16.3280  -34.7060 C   0  0  0  0  0  0  0  0  0  0  0  0
   -3.5550   15.1190  -34.0540 C   0  0  0  0  0  0  0  0  0  0  0  0
   -4.2220   14.8000  -32.8580 C   0  0  0  0  0  0  0  0  0  0  0  0
   -3.9020   13.5330  -32.1060 C   0  0  0  0  0  0  0  0  0  0  0  0
   -4.2810   13.6280  -30.7780 F   0  0  0  0  0  0  0  0  0  0  0  0
   -4.5760   12.4750  -32.6880 F   0  0  0  0  0  0  0  0  0  0  0  0
   -2.5410   13.2820  -32.1520 F   0  0  0  0  0  0  0  0  0  0  0  0
   -5.1300   15.7260  -32.3140 C   0  0  0  0  0  0  0  0  0  0  0  0
   -6.9130   21.4780  -31.6800 C   0  0  0  0  0  0  0  0  0  0  0  0
   -6.5560   22.7010  -31.1090 C   0  0  0  0  0  0  0  0  0  0  0  0
   -7.3880   23.2660  -30.1490 O   0  0  0  0  0  0  0  0  0  0  0  0
   -4.1523   22.4345  -29.2333 H   0  0  0  0  0  0  0  0  0  0  0  0
   -3.0033   21.4855  -27.2336 H   0  0  0  0  0  0  0  0  0  0  0  0
   -1.0700   22.6891  -26.2118 H   0  0  0  0  0  0  0  0  0  0  0  0
   -0.2515   24.8227  -27.2224 H   0  0  0  0  0  0  0  0  0  0  0  0
   -3.7213   23.3301  -32.9239 H   0  0  0  0  0  0  0  0  0  0  0  0
   -4.3796   21.1573  -33.9516 H   0  0  0  0  0  0  0  0  0  0  0  0
   -4.9207   18.1886  -34.6782 H   0  0  0  0  0  0  0  0  0  0  0  0
   -3.3000   16.5635  -35.6496 H   0  0  0  0  0  0  0  0  0  0  0  0
   -2.8257   14.4135  -34.4787 H   0  0  0  0  0  0  0  0  0  0  0  0
   -5.6453   15.4946  -31.3701 H   0  0  0  0  0  0  0  0  0  0  0  0
   -7.8316   20.9695  -31.3519 H   0  0  0  0  0  0  0  0  0  0  0  0
  1  2  2  0
  2  3  1  0
  3  4  1  0
  4  5  2  0
  5  6  1  0
  6  7  2  0
  7  8  1  0
  8  9  2  0
  9 10  1  0
  2 11  1  0
 11 12  2  0
 12 13  1  0
 13 14  2  0
 14 15  1  0
 15 16  1  0
 16 17  2  0
 16 18  2  0
 16 19  1  0
 19 20  2  0
 20 21  1  0
 21 22  2  0
 22 23  1  0
 23 24  1  0
 24 25  1  0
 24 26  1  0
 24 27  1  0
 23 28  2  0
 14 29  1  0
 29 30  2  0
 30 31  1  0
  9  4  1  0
 30 11  1  0
 28 19  1  0
  5 32  1  0
  6 33  1  0
  7 34  1  0
  8 35  1  0
 12 36  1  0
 13 37  1  0
 20 38  1  0
 21 39  1  0
 22 40  1  0
 28 41  1  0
 29 42  1  0
M  CHG  4   3  -1  10  -1  15  -1  31  -1
M  END
>  <UniqueID>  (29) 
28

>  <SMILES>  (29) 
O=C([N-]c1ccccc1[O-])c1ccc([N-]S(=O)(=O)c2cccc(C(F)(F)F)c2)cc1[O-]

>  <Energy>  (29) 
55.179464477000714

>  <Genealogy>  (29) 
O=C([N-]c1ccccc1[O-])c1ccc([N-]S(=O)(=O)c2cccc(C(F)(F)F)c2)cc1[O-] (protonated)
O=C([N-]c1ccccc1[O-])c1ccc([N-]S(=O)(=O)c2cccc(C(F)(F)F)c2)cc1[O-] (3D coordinates assigned)
O=C([N-]c1ccccc1[O-])c1ccc([N-]S(=O)(=O)c2cccc(C(F)(F)F)c2)cc1[O-] (optimized conformer: 55.179464477000714 kcal/mol)

>  <smiles>  (29) 
O=C(Nc1ccccc1O)c1ccc(NS(=O)(=O)c2cccc(C(F)(F)F)c2)cc1O

>  <score_type>  (29) 
oracle

>  <origin>  (29) 
adgpu

>  <m_score__min__energy>  (29) 
-15.31

>  <m_primary>  (29) 
energy

$$$$
29:0
     RDKit          3D

 51 53  0  0  0  0  0  0  0  0999 V2000
   -3.1280   23.7850  -31.2360 O   0  0  0  0  0  0  0  0  0  0  0  0
   -3.4990   24.4570  -30.2350 C   0  0  0  0  0  0  0  0  0  0  0  0
   -4.2490   25.6590  -30.4190 N   0  0  0  0  0  0  0  0  0  0  0  0
   -5.7040   25.6770  -30.5160 C   0  0  0  0  0  0  0  0  0  0  0  0
   -6.2430   24.2520  -30.6510 C   0  0  0  0  0  0  0  0  0  0  0  0
   -6.1960   23.7560  -32.1020 C   0  0  0  0  0  0  0  0  0  0  0  0
   -6.0190   22.2950  -32.1440 N   0  0  0  0  0  0  0  0  0  0  0  0
   -7.1780   21.4360  -32.2230 C   0  0  0  0  0  0  0  0  0  0  0  0
   -8.4520   21.9450  -31.9130 C   0  0  0  0  0  0  0  0  0  0  0  0
   -9.5780   21.1200  -31.9790 C   0  0  0  0  0  0  0  0  0  0  0  0
   -9.4440   19.7820  -32.3560 C   0  0  0  0  0  0  0  0  0  0  0  0
   -8.1840   19.2670  -32.6700 C   0  0  0  0  0  0  0  0  0  0  0  0
   -7.0540   20.0890  -32.6050 C   0  0  0  0  0  0  0  0  0  0  0  0
   -4.6950   21.7150  -32.1890 C   0  0  0  0  0  0  0  0  0  0  0  0
   -3.8840   21.8500  -33.3320 C   0  0  0  0  0  0  0  0  0  0  0  0
   -2.6080   21.2760  -33.3650 C   0  0  0  0  0  0  0  0  0  0  0  0
   -2.1300   20.5650  -32.2620 C   0  0  0  0  0  0  0  0  0  0  0  0
   -2.9260   20.4250  -31.1240 C   0  0  0  0  0  0  0  0  0  0  0  0
   -4.2020   20.9960  -31.0850 C   0  0  0  0  0  0  0  0  0  0  0  0
   -3.1380   24.0510  -28.9080 N   0  0  0  0  0  0  0  0  0  0  0  0
   -2.5460   22.7830  -28.5800 C   0  0  0  0  0  0  0  0  0  0  0  0
   -3.2470   21.8140  -27.8410 C   0  0  0  0  0  0  0  0  0  0  0  0
   -2.6410   20.5960  -27.5170 C   0  0  0  0  0  0  0  0  0  0  0  0
   -1.3130   20.3360  -27.8980 C   0  0  0  0  0  0  0  0  0  0  0  0
   -0.6760   19.0030  -27.5930 C   0  0  0  0  0  0  0  0  0  0  0  0
   -0.6840   18.2250  -28.7360 F   0  0  0  0  0  0  0  0  0  0  0  0
    0.6310   19.1730  -27.1710 F   0  0  0  0  0  0  0  0  0  0  0  0
   -1.3700   18.3450  -26.5940 F   0  0  0  0  0  0  0  0  0  0  0  0
   -0.6160   21.3050  -28.6400 C   0  0  0  0  0  0  0  0  0  0  0  0
   -1.2230   22.5220  -28.9620 C   0  0  0  0  0  0  0  0  0  0  0  0
   -6.1227   26.1393  -29.6099 H   0  0  0  0  0  0  0  0  0  0  0  0
   -5.9970   26.2567  -31.4037 H   0  0  0  0  0  0  0  0  0  0  0  0
   -5.6347   23.5813  -30.0263 H   0  0  0  0  0  0  0  0  0  0  0  0
   -7.2938   24.2535  -30.3258 H   0  0  0  0  0  0  0  0  0  0  0  0
   -7.1375   24.0208  -32.6054 H   0  0  0  0  0  0  0  0  0  0  0  0
   -5.3453   24.2314  -32.6122 H   0  0  0  0  0  0  0  0  0  0  0  0
   -8.5627   22.9986  -31.6169 H   0  0  0  0  0  0  0  0  0  0  0  0
  -10.5709   21.5249  -31.7337 H   0  0  0  0  0  0  0  0  0  0  0  0
  -10.3310   19.1334  -32.4057 H   0  0  0  0  0  0  0  0  0  0  0  0
   -8.0802   18.2135  -32.9688 H   0  0  0  0  0  0  0  0  0  0  0  0
   -6.0639   19.6794  -32.8540 H   0  0  0  0  0  0  0  0  0  0  0  0
   -4.2551   22.4094  -34.2034 H   0  0  0  0  0  0  0  0  0  0  0  0
   -1.9802   21.3851  -34.2616 H   0  0  0  0  0  0  0  0  0  0  0  0
   -1.1264   20.1155  -32.2901 H   0  0  0  0  0  0  0  0  0  0  0  0
   -2.5488   19.8643  -30.2560 H   0  0  0  0  0  0  0  0  0  0  0  0
   -4.8243   20.8821  -30.1851 H   0  0  0  0  0  0  0  0  0  0  0  0
   -3.2320   24.7620  -28.1480 H   0  0  0  0  0  0  0  0  0  0  0  0
   -4.2784   22.0151  -27.5157 H   0  0  0  0  0  0  0  0  0  0  0  0
   -3.2078   19.8356  -26.9598 H   0  0  0  0  0  0  0  0  0  0  0  0
    0.4141   21.1042  -28.9695 H   0  0  0  0  0  0  0  0  0  0  0  0
   -0.6571   23.2822  -29.5205 H   0  0  0  0  0  0  0  0  0  0  0  0
  1  2  2  0
  2  3  1  0
  3  4  1  0
  4  5  1  0
  5  6  1  0
  6  7  1  0
  7  8  1  0
  8  9  2  0
  9 10  1  0
 10 11  2  0
 11 12  1  0
 12 13  2  0
  7 14  1  0
 14 15  2  0
 15 16  1  0
 16 17  2  0
 17 18  1  0
 18 19  2  0
  2 20  1  0
 20 21  1  0
 21 22  2  0
 22 23  1  0
 23 24  2  0
 24 25  1  0
 25 26  1  0
 25 27  1  0
 25 28  1  0
 24 29  1  0
 29 30  2  0
 13  8  1  0
 19 14  1  0
 30 21  1  0
  4 31  1  0
  4 32  1  0
  5 33  1  0
  5 34  1  0
  6 35  1  0
  6 36  1  0
  9 37  1  0
 10 38  1  0
 11 39  1  0
 12 40  1  0
 13 41  1  0
 15 42  1  0
 16 43  1  0
 17 44  1  0
 18 45  1  0
 19 46  1  0
 20 47  1  0
 22 48  1  0
 23 49  1  0
 29 50  1  0
 30 51  1  0
M  CHG  1   3  -1
M  END
>  <UniqueID>  (30) 
29

>  <SMILES>  (30) 
O=C([N-]CCCN(c1ccccc1)c1ccccc1)Nc1ccc(C(F)(F)F)cc1

>  <Energy>  (30) 
59.39998303603589

>  <Genealogy>  (30) 
O=C([N-]CCCN(c1ccccc1)c1ccccc1)Nc1ccc(C(F)(F)F)cc1 (protonated)
O=C([N-]CCCN(c1ccccc1)c1ccccc1)Nc1ccc(C(F)(F)F)cc1 (3D coordinates assigned)
O=C([N-]CCCN(c1ccccc1)c1ccccc1)Nc1ccc(C(F)(F)F)cc1 (optimized conformer: 59.39998303603589 kcal/mol)

>  <smiles>  (30) 
O=C(NCCCN(c1ccccc1)c1ccccc1)Nc1ccc(C(F)(F)F)cc1

>  <score_type>  (30) 
oracle

>  <origin>  (30) 
adgpu

>  <m_score__min__energy>  (30) 
-10.44

>  <m_primary>  (30) 
energy

$$$$
30:0
     RDKit          3D

 76 81  0  0  0  0  0  0  0  0999 V2000
   -3.8480   12.1280  -35.0530 H   0  0  0  0  0  0  0  0  0  0  0  0
   -4.8120   12.5180  -34.9530 N   0  0  0  0  0  0  0  0  0  0  0  0
   -5.0250   13.7270  -34.5380 C   0  0  0  0  0  0  0  0  0  0  0  0
   -3.9660   14.5140  -34.2110 N   0  0  0  0  0  0  0  0  0  0  0  0
   -4.1150   15.7810  -33.7450 C   0  0  0  0  0  0  0  0  0  0  0  0
   -3.2279   16.3864  -33.5070 H   0  0  0  0  0  0  0  0  0  0  0  0
   -5.3960   16.3180  -33.5670 C   0  0  0  0  0  0  0  0  0  0  0  0
   -5.5770   17.7050  -33.0830 C   0  0  0  0  0  0  0  0  0  0  0  0
   -4.4940   18.5950  -33.0600 C   0  0  0  0  0  0  0  0  0  0  0  0
   -3.5036   18.2593  -33.4013 H   0  0  0  0  0  0  0  0  0  0  0  0
   -4.6640   19.9040  -32.6070 C   0  0  0  0  0  0  0  0  0  0  0  0
   -3.8035   20.5889  -32.5828 H   0  0  0  0  0  0  0  0  0  0  0  0
   -5.9240   20.3540  -32.1820 C   0  0  0  0  0  0  0  0  0  0  0  0
   -6.0830   21.7360  -31.6750 C   0  0  0  0  0  0  0  0  0  0  0  0
   -5.0430   22.6140  -31.4450 C   0  0  0  0  0  0  0  0  0  0  0  0
   -3.9679   22.4397  -31.5994 H   0  0  0  0  0  0  0  0  0  0  0  0
   -5.6570   23.7640  -30.9760 C   0  0  0  0  0  0  0  0  0  0  0  0
   -4.9880   25.0260  -30.6050 C   0  0  0  0  0  0  0  0  0  0  0  0
   -5.6800   26.0670  -30.4450 O   0  0  0  0  0  0  0  0  0  0  0  0
   -3.5620   25.1110  -30.4710 N   0  0  0  0  0  0  0  0  0  0  0  0
   -2.8260   24.5180  -29.3960 C   0  0  0  0  0  0  0  0  0  0  0  0
   -1.9310   25.2840  -28.6330 C   0  0  0  0  0  0  0  0  0  0  0  0
   -1.7470   26.3363  -28.8954 H   0  0  0  0  0  0  0  0  0  0  0  0
   -1.2740   24.7130  -27.5420 C   0  0  0  0  0  0  0  0  0  0  0  0
   -0.5567   25.3089  -26.9586 H   0  0  0  0  0  0  0  0  0  0  0  0
   -1.5270   23.3860  -27.1910 C   0  0  0  0  0  0  0  0  0  0  0  0
   -1.0157   22.9431  -26.3236 H   0  0  0  0  0  0  0  0  0  0  0  0
   -2.4310   22.6120  -27.9390 C   0  0  0  0  0  0  0  0  0  0  0  0
   -2.7750   21.2050  -27.4940 C   0  0  0  0  0  0  0  0  0  0  0  0
   -3.0898   21.2424  -26.4407 H   0  0  0  0  0  0  0  0  0  0  0  0
   -3.5722   20.8457  -28.1614 H   0  0  0  0  0  0  0  0  0  0  0  0
   -1.6530   20.2460  -27.6110 N   0  0  0  0  0  0  0  0  0  0  0  0
   -1.8680   18.9910  -26.8570 C   0  0  0  0  0  0  0  0  0  0  0  0
   -1.8455   19.2131  -25.7799 H   0  0  0  0  0  0  0  0  0  0  0  0
   -2.8427   18.5748  -27.1516 H   0  0  0  0  0  0  0  0  0  0  0  0
   -0.7780   17.9430  -27.1760 C   0  0  0  0  0  0  0  0  0  0  0  0
   -0.5028   17.4175  -26.2497 H   0  0  0  0  0  0  0  0  0  0  0  0
   -1.1792   17.2359  -27.9169 H   0  0  0  0  0  0  0  0  0  0  0  0
    0.4260   18.5840  -27.7430 N   0  0  0  0  0  0  0  0  0  0  0  0
    0.7830   19.2970  -27.0610 H   0  0  0  0  0  0  0  0  0  0  0  0
    1.4910   17.5860  -27.9320 C   0  0  0  0  0  0  0  0  0  0  0  0
    1.8535   17.2463  -26.9506 H   0  0  0  0  0  0  0  0  0  0  0  0
    1.0936   16.7275  -28.4933 H   0  0  0  0  0  0  0  0  0  0  0  0
    2.3219   18.0383  -28.4933 H   0  0  0  0  0  0  0  0  0  0  0  0
    0.1200   19.2660  -29.0270 C   0  0  0  0  0  0  0  0  0  0  0  0
    0.9038   20.0115  -29.2269 H   0  0  0  0  0  0  0  0  0  0  0  0
    0.0840   18.4990  -29.8146 H   0  0  0  0  0  0  0  0  0  0  0  0
   -1.2470   19.9790  -29.0010 C   0  0  0  0  0  0  0  0  0  0  0  0
   -1.1711   20.9309  -29.5469 H   0  0  0  0  0  0  0  0  0  0  0  0
   -1.9989   19.3327  -29.4775 H   0  0  0  0  0  0  0  0  0  0  0  0
   -3.0410   23.1740  -29.0730 C   0  0  0  0  0  0  0  0  0  0  0  0
   -3.6902   22.5547  -29.7094 H   0  0  0  0  0  0  0  0  0  0  0  0
   -6.9940   23.5940  -30.9630 N   0  0  0  0  0  0  0  0  0  0  0  0
   -7.2470   22.3650  -31.3890 N   0  0  0  0  0  0  0  0  0  0  0  0
   -8.6030   21.8450  -31.5400 C   0  0  0  0  0  0  0  0  0  0  0  0
   -9.0437   21.6760  -30.5464 H   0  0  0  0  0  0  0  0  0  0  0  0
   -9.2150   22.5722  -32.0937 H   0  0  0  0  0  0  0  0  0  0  0  0
   -8.5719   20.8950  -32.0937 H   0  0  0  0  0  0  0  0  0  0  0  0
   -7.0040   19.4610  -32.1940 C   0  0  0  0  0  0  0  0  0  0  0  0
   -7.9923   19.7950  -31.8451 H   0  0  0  0  0  0  0  0  0  0  0  0
   -6.8350   18.1490  -32.6460 C   0  0  0  0  0  0  0  0  0  0  0  0
   -7.6928   17.4605  -32.6593 H   0  0  0  0  0  0  0  0  0  0  0  0
   -6.5050   15.5230  -33.8830 C   0  0  0  0  0  0  0  0  0  0  0  0
   -7.5193   15.9213  -33.7329 H   0  0  0  0  0  0  0  0  0  0  0  0
   -6.3380   14.2240  -34.3890 C   0  0  0  0  0  0  0  0  0  0  0  0
   -7.5350   13.4280  -34.7590 C   0  0  0  0  0  0  0  0  0  0  0  0
   -8.2620   12.5580  -33.9620 C   0  0  0  0  0  0  0  0  0  0  0  0
   -8.0784   12.3691  -32.8940 H   0  0  0  0  0  0  0  0  0  0  0  0
   -9.2290   11.9800  -34.7010 N   0  0  0  0  0  0  0  0  0  0  0  0
   -9.1340   12.4610  -35.9300 N   0  0  0  0  0  0  0  0  0  0  0  0
  -10.0210   12.0860  -37.0250 C   0  0  0  0  0  0  0  0  0  0  0  0
  -10.9613   11.6885  -36.6154 H   0  0  0  0  0  0  0  0  0  0  0  0
  -10.2351   12.9706  -37.6428 H   0  0  0  0  0  0  0  0  0  0  0  0
   -9.5356   11.3161  -37.6428 H   0  0  0  0  0  0  0  0  0  0  0  0
   -8.1210   13.3400  -36.0090 C   0  0  0  0  0  0  0  0  0  0  0  0
   -7.8121   13.8922  -36.9088 H   0  0  0  0  0  0  0  0  0  0  0  0
  1  2  1  0
  2  3  2  0
  3  4  1  0
  4  5  1  0
  5  6  1  0
  5  7  2  0
  7  8  1  0
  8  9  2  0
  9 10  1  0
  9 11  1  0
 11 12  1  0
 11 13  2  0
 13 14  1  0
 14 15  2  0
 15 16  1  0
 15 17  1  0
 17 18  1  0
 18 19  2  0
 18 20  1  0
 20 21  1  0
 21 22  2  0
 22 23  1  0
 22 24  1  0
 24 25  1  0
 24 26  2  0
 26 27  1  0
 26 28  1  0
 28 29  1  0
 29 30  1  0
 29 31  1  0
 29 32  1  0
 32 33  1  0
 33 34  1  0
 33 35  1  0
 33 36  1  0
 36 37  1  0
 36 38  1  0
 36 39  1  0
 39 40  1  0
 39 41  1  0
 41 42  1  0
 41 43  1  0
 41 44  1  0
 39 45  1  0
 45 46  1  0
 45 47  1  0
 45 48  1  0
 48 49  1  0
 48 50  1  0
 28 51  2  0
 51 52  1  0
 17 53  2  0
 53 54  1  0
 54 55  1  0
 55 56  1  0
 55 57  1  0
 55 58  1  0
 13 59  1  0
 59 60  1  0
 59 61  2  0
 61 62  1  0
  7 63  1  0
 63 64  1  0
 63 65  2  0
 65 66  1  0
 66 67  1  0
 67 68  1  0
 67 69  2  0
 69 70  1  0
 70 71  1  0
 71 72  1  0
 71 73  1  0
 71 74  1  0
 70 75  1  0
 75 76  1  0
 65  3  1  0
 75 66  2  0
 61  8  1  0
 54 14  1  0
 51 21  1  0
 48 32  1  0
M  CHG  3   4  -1  20  -1  39   1
M  END
>  <UniqueID>  (31) 
30

>  <SMILES>  (31) 
[H]/N=c1\[n-]cc(-c2ccc(-c3cc(C(=O)[N-]c4cccc(CN5CC[NH+](C)CC5)c4)nn3C)cc2)cc1-c1cnn(C)c1

>  <Energy>  (31) 
170.22750299383736

>  <Genealogy>  (31) 
Cn1cc(-c2cc(-c3ccc(-c4cc(C(=O)[N-]c5cccc(CN6CC[NH+](C)CC6)c5)nn4C)cc3)c[n-]c2=N)cn1 (protonated)
[H]/N=c1\[n-]cc(-c2ccc(-c3cc(C(=O)[N-]c4cccc(CN5CC[NH+](C)CC5)c4)nn3C)cc2)cc1-c1cnn(C)c1 (cis-trans isomerization)
[H]/N=c1\[n-]cc(-c2ccc(-c3cc(C(=O)[N-]c4cccc(CN5CC[NH+](C)CC5)c4)nn3C)cc2)cc1-c1cnn(C)c1 (3D coordinates assigned)
[H]/N=c1\[n-]cc(-c2ccc(-c3cc(C(=O)[N-]c4cccc(CN5CC[NH+](C)CC5)c4)nn3C)cc2)cc1-c1cnn(C)c1 (nonaromatic ring conformer: 170.22750299383736 kcal/mol)

>  <smiles>  (31) 
CN1CCN(Cc2cccc(NC(=O)c3cc(-c4ccc(-c5c[nH]c(=N)c(-c6cnn(C)c6)c5)cc4)n(C)n3)c2)CC1

>  <score_type>  (31) 
oracle

>  <origin>  (31) 
adgpu

>  <m_score__min__energy>  (31) 
-12.16

>  <m_primary>  (31) 
energy

$$$$
31:0
     RDKit          3D

 41 43  0  0  0  0  0  0  0  0999 V2000
    0.2156   25.7137  -27.9009 H   0  0  0  0  0  0  0  0  0  0  0  0
   -0.6500   25.0800  -28.1440 C   0  0  0  0  0  0  0  0  0  0  0  0
   -1.6170   25.5420  -28.9790 N   0  0  0  0  0  0  0  0  0  0  0  0
   -2.6940   24.7760  -29.2980 C   0  0  0  0  0  0  0  0  0  0  0  0
   -3.6100   25.2670  -30.0830 N   0  0  0  0  0  0  0  0  0  0  0  0
   -4.7840   24.5940  -30.5650 C   0  0  0  0  0  0  0  0  0  0  0  0
   -4.6350   23.4020  -31.2050 N   0  0  0  0  0  0  0  0  0  0  0  0
   -5.6930   22.6770  -31.6640 C   0  0  0  0  0  0  0  0  0  0  0  0
   -5.4550   21.3970  -32.3660 C   0  0  0  0  0  0  0  0  0  0  0  0
   -4.2750   21.0470  -32.6450 O   0  0  0  0  0  0  0  0  0  0  0  0
   -6.5640   20.5720  -32.7650 N   0  0  0  0  0  0  0  0  0  0  0  0
   -7.5080   21.0140  -32.8360 H   0  0  0  0  0  0  0  0  0  0  0  0
   -6.4330   19.2050  -33.1910 C   0  0  0  0  0  0  0  0  0  0  0  0
   -6.9840   18.1480  -32.4450 C   0  0  0  0  0  0  0  0  0  0  0  0
   -7.5124   18.3602  -31.5038 H   0  0  0  0  0  0  0  0  0  0  0  0
   -6.8640   16.8280  -32.8930 C   0  0  0  0  0  0  0  0  0  0  0  0
   -7.2885   16.0070  -32.2965 H   0  0  0  0  0  0  0  0  0  0  0  0
   -6.2030   16.5450  -34.1030 C   0  0  0  0  0  0  0  0  0  0  0  0
   -6.0550   15.2400  -34.5930 O   0  0  0  0  0  0  0  0  0  0  0  0
   -5.2710   14.2300  -33.9660 C   0  0  0  0  0  0  0  0  0  0  0  0
   -5.3491   14.3307  -32.8734 H   0  0  0  0  0  0  0  0  0  0  0  0
   -5.6386   13.2389  -34.2701 H   0  0  0  0  0  0  0  0  0  0  0  0
   -4.2197   14.3403  -34.2701 H   0  0  0  0  0  0  0  0  0  0  0  0
   -5.6750   17.6020  -34.8530 C   0  0  0  0  0  0  0  0  0  0  0  0
   -5.1607   17.3928  -35.8026 H   0  0  0  0  0  0  0  0  0  0  0  0
   -5.7950   18.9200  -34.4070 C   0  0  0  0  0  0  0  0  0  0  0  0
   -5.3859   19.7410  -35.0142 H   0  0  0  0  0  0  0  0  0  0  0  0
   -6.9950   23.1640  -31.4660 C   0  0  0  0  0  0  0  0  0  0  0  0
   -7.8612   22.5999  -31.8420 H   0  0  0  0  0  0  0  0  0  0  0  0
   -7.1810   24.3700  -30.7880 C   0  0  0  0  0  0  0  0  0  0  0  0
   -8.1976   24.7542  -30.6181 H   0  0  0  0  0  0  0  0  0  0  0  0
   -6.0780   25.0880  -30.3260 C   0  0  0  0  0  0  0  0  0  0  0  0
   -6.2195   26.0322  -29.7796 H   0  0  0  0  0  0  0  0  0  0  0  0
   -2.8160   23.5300  -28.7600 N   0  0  0  0  0  0  0  0  0  0  0  0
   -1.8690   23.0250  -27.9260 C   0  0  0  0  0  0  0  0  0  0  0  0
   -2.0390   21.6570  -27.3450 C   0  0  0  0  0  0  0  0  0  0  0  0
   -2.0310   21.7214  -26.2469 H   0  0  0  0  0  0  0  0  0  0  0  0
   -2.9968   21.2326  -27.6804 H   0  0  0  0  0  0  0  0  0  0  0  0
   -1.2142   21.0111  -27.6804 H   0  0  0  0  0  0  0  0  0  0  0  0
   -0.7550   23.8020  -27.5950 C   0  0  0  0  0  0  0  0  0  0  0  0
    0.0204   23.4147  -26.9177 H   0  0  0  0  0  0  0  0  0  0  0  0
  1  2  1  0
  2  3  1  0
  3  4  1  0
  4  5  2  0
  5  6  1  0
  6  7  2  0
  7  8  1  0
  8  9  1  0
  9 10  2  0
  9 11  1  0
 11 12  1  0
 11 13  1  0
 13 14  2  0
 14 15  1  0
 14 16  1  0
 16 17  1  0
 16 18  2  0
 18 19  1  0
 19 20  1  0
 20 21  1  0
 20 22  1  0
 20 23  1  0
 18 24  1  0
 24 25  1  0
 24 26  2  0
 26 27  1  0
  8 28  2  0
 28 29  1  0
 28 30  1  0
 30 31  1  0
 30 32  2  0
 32 33  1  0
  4 34  1  0
 34 35  2  0
 35 36  1  0
 36 37  1  0
 36 38  1  0
 36 39  1  0
 35 40  1  0
 40 41  1  0
 40  2  2  0
 32  6  1  0
 26 13  1  0
M  CHG  1   3  -1
M  END
>  <UniqueID>  (32) 
31

>  <SMILES>  (32) 
COc1ccc(NC(=O)c2cccc(/N=c3\nc(C)cc[n-]3)n2)cc1

>  <Energy>  (32) 
53.26401852530007

>  <Genealogy>  (32) 
COc1ccc(NC(=O)c2cccc(N=c3nc(C)cc[n-]3)n2)cc1 (protonated)
COc1ccc(NC(=O)c2cccc(/N=c3\nc(C)cc[n-]3)n2)cc1 (cis-trans isomerization)
COc1ccc(NC(=O)c2cccc(/N=c3\nc(C)cc[n-]3)n2)cc1 (3D coordinates assigned)
COc1ccc(NC(=O)c2cccc(/N=c3\nc(C)cc[n-]3)n2)cc1 (optimized conformer: 53.26401852530007 kcal/mol)

>  <smiles>  (32) 
COc1ccc(NC(=O)c2cccc(N=c3nc(C)cc[nH]3)n2)cc1

>  <score_type>  (32) 
oracle

>  <origin>  (32) 
adgpu

>  <m_score__min__energy>  (32) 
-9.6400000000000006

>  <m_primary>  (32) 
energy

$$$$
32:0
     RDKit          3D

 34 35  0  0  0  0  0  0  0  0999 V2000
   -7.9160   18.7540  -32.0780 C   0  0  0  0  0  0  0  0  0  0  0  0
   -8.2840   20.0860  -32.4240 O   0  0  0  0  0  0  0  0  0  0  0  0
   -7.4990   21.2180  -32.1630 C   0  0  0  0  0  0  0  0  0  0  0  0
   -8.1430   22.3950  -31.7730 C   0  0  0  0  0  0  0  0  0  0  0  0
   -7.4090   23.5480  -31.4920 C   0  0  0  0  0  0  0  0  0  0  0  0
   -6.0060   23.5460  -31.6040 C   0  0  0  0  0  0  0  0  0  0  0  0
   -5.2380   24.6860  -31.3120 O   0  0  0  0  0  0  0  0  0  0  0  0
   -5.5730   25.6550  -30.3230 C   0  0  0  0  0  0  0  0  0  0  0  0
   -5.3500   22.3700  -32.0160 C   0  0  0  0  0  0  0  0  0  0  0  0
   -3.8450   22.3260  -32.1160 C   0  0  0  0  0  0  0  0  0  0  0  0
   -3.2390   23.3120  -31.2200 N   0  0  0  0  0  0  0  0  0  0  0  0
   -2.8190   22.9530  -29.8950 C   0  0  0  0  0  0  0  0  0  0  0  0
   -2.9860   21.7740  -29.4820 O   0  0  0  0  0  0  0  0  0  0  0  0
   -2.1910   23.9380  -28.9960 C   0  0  0  0  0  0  0  0  0  0  0  0
   -1.7340   23.7190  -27.7090 C   0  0  0  0  0  0  0  0  0  0  0  0
   -1.2350   24.9310  -27.2800 C   0  0  0  0  0  0  0  0  0  0  0  0
   -1.4160   25.8120  -28.3250 C   0  0  0  0  0  0  0  0  0  0  0  0
   -1.9870   25.1910  -29.3320 O   0  0  0  0  0  0  0  0  0  0  0  0
   -6.0970   21.2090  -32.2790 C   0  0  0  0  0  0  0  0  0  0  0  0
   -7.8884   18.6540  -30.9829 H   0  0  0  0  0  0  0  0  0  0  0  0
   -8.6535   18.0506  -32.4920 H   0  0  0  0  0  0  0  0  0  0  0  0
   -6.9220   18.5289  -32.4920 H   0  0  0  0  0  0  0  0  0  0  0  0
   -9.2395   22.4129  -31.6866 H   0  0  0  0  0  0  0  0  0  0  0  0
   -7.9306   24.4651  -31.1807 H   0  0  0  0  0  0  0  0  0  0  0  0
   -5.4240   25.2239  -29.3220 H   0  0  0  0  0  0  0  0  0  0  0  0
   -4.9280   26.5381  -30.4416 H   0  0  0  0  0  0  0  0  0  0  0  0
   -6.6257   25.9512  -30.4416 H   0  0  0  0  0  0  0  0  0  0  0  0
   -3.4937   21.3213  -31.8382 H   0  0  0  0  0  0  0  0  0  0  0  0
   -3.5518   22.5598  -33.1501 H   0  0  0  0  0  0  0  0  0  0  0  0
   -3.1140   24.2940  -31.5530 H   0  0  0  0  0  0  0  0  0  0  0  0
   -1.7626   22.7749  -27.1452 H   0  0  0  0  0  0  0  0  0  0  0  0
   -0.7835   25.1506  -26.3012 H   0  0  0  0  0  0  0  0  0  0  0  0
   -1.1264   26.8732  -28.3168 H   0  0  0  0  0  0  0  0  0  0  0  0
   -5.5808   20.2849  -32.5783 H   0  0  0  0  0  0  0  0  0  0  0  0
  1  2  1  0
  2  3  1  0
  3  4  2  0
  4  5  1  0
  5  6  2  0
  6  7  1  0
  7  8  1  0
  6  9  1  0
  9 10  1  0
 10 11  1  0
 11 12  1  0
 12 13  2  0
 12 14  1  0
 14 15  2  0
 15 16  1  0
 16 17  2  0
 17 18  1  0
  9 19  2  0
 19  3  1  0
 18 14  1  0
  1 20  1  0
  1 21  1  0
  1 22  1  0
  4 23  1  0
  5 24  1  0
  8 25  1  0
  8 26  1  0
  8 27  1  0
 10 28  1  0
 10 29  1  0
 11 30  1  0
 15 31  1  0
 16 32  1  0
 17 33  1  0
 19 34  1  0
M  END
>  <UniqueID>  (33) 
32

>  <SMILES>  (33) 
COc1ccc(OC)c(CNC(=O)c2ccco2)c1

>  <Energy>  (33) 
56.577409926261886

>  <Genealogy>  (33) 
COc1ccc(OC)c(CNC(=O)c2ccco2)c1 (3D coordinates assigned)
COc1ccc(OC)c(CNC(=O)c2ccco2)c1 (optimized conformer: 56.577409926261886 kcal/mol)

>  <smiles>  (33) 
COc1ccc(OC)c(CNC(=O)c2ccco2)c1

>  <score_type>  (33) 
oracle

>  <origin>  (33) 
adgpu

>  <m_score__min__energy>  (33) 
-6.2400000000000002

>  <m_primary>  (33) 
energy

$$$$
33:0
     RDKit          3D

 75 80  0  0  0  0  0  0  0  0999 V2000
   -1.1650   25.9390  -28.9780 N   0  0  0  0  0  0  0  0  0  0  0  0
   -1.8030   24.7120  -28.6050 C   0  0  0  0  0  0  0  0  0  0  0  0
   -1.2650   23.9590  -27.5510 C   0  0  0  0  0  0  0  0  0  0  0  0
   -1.9140   22.8090  -27.0950 C   0  0  0  0  0  0  0  0  0  0  0  0
   -3.1120   22.4030  -27.6830 C   0  0  0  0  0  0  0  0  0  0  0  0
   -3.6550   23.1370  -28.7410 C   0  0  0  0  0  0  0  0  0  0  0  0
   -2.9960   24.2720  -29.2310 C   0  0  0  0  0  0  0  0  0  0  0  0
   -3.5570   24.9450  -30.3680 N   0  0  0  0  0  0  0  0  0  0  0  0
   -4.8930   24.7650  -30.8600 C   0  0  0  0  0  0  0  0  0  0  0  0
   -5.6870   25.7410  -30.8340 O   0  0  0  0  0  0  0  0  0  0  0  0
   -5.3530   23.4660  -31.3960 C   0  0  0  0  0  0  0  0  0  0  0  0
   -6.7250   23.1920  -31.4890 C   0  0  0  0  0  0  0  0  0  0  0  0
   -7.1660   21.9950  -32.0520 C   0  0  0  0  0  0  0  0  0  0  0  0
   -6.2480   21.0320  -32.5010 C   0  0  0  0  0  0  0  0  0  0  0  0
   -6.7250   19.8720  -33.2070 N   0  0  0  0  0  0  0  0  0  0  0  0
   -6.0840   19.4560  -34.4710 C   0  0  0  0  0  0  0  0  0  0  0  0
   -6.0870   17.9280  -34.6080 C   0  0  0  0  0  0  0  0  0  0  0  0
   -5.8450   17.3150  -33.2930 N   0  0  0  0  0  0  0  0  0  0  0  0
   -4.6490   16.5520  -33.0320 C   0  0  0  0  0  0  0  0  0  0  0  0
   -4.7380   15.2650  -32.4700 C   0  0  0  0  0  0  0  0  0  0  0  0
   -3.5810   14.5330  -32.1850 C   0  0  0  0  0  0  0  0  0  0  0  0
   -2.3240   15.0820  -32.4520 C   0  0  0  0  0  0  0  0  0  0  0  0
   -2.2230   16.3650  -32.9940 C   0  0  0  0  0  0  0  0  0  0  0  0
   -3.3780   17.0980  -33.2870 C   0  0  0  0  0  0  0  0  0  0  0  0
   -6.7490   17.6510  -32.1790 C   0  0  0  0  0  0  0  0  0  0  0  0
   -7.5710   18.9080  -32.4920 C   0  0  0  0  0  0  0  0  0  0  0  0
   -4.8620   21.2810  -32.3670 C   0  0  0  0  0  0  0  0  0  0  0  0
   -3.8770   20.3360  -32.8140 N   0  0  0  0  0  0  0  0  0  0  0  0
   -2.5440   20.7210  -33.1910 C   0  0  0  0  0  0  0  0  0  0  0  0
   -2.2920   21.9320  -33.4360 O   0  0  0  0  0  0  0  0  0  0  0  0
   -1.4710   19.7060  -33.3430 C   0  0  0  0  0  0  0  0  0  0  0  0
   -1.1740   19.1740  -34.6100 C   0  0  0  0  0  0  0  0  0  0  0  0
   -0.1750   18.2080  -34.7630 C   0  0  0  0  0  0  0  0  0  0  0  0
    0.5570   17.7580  -33.6520 C   0  0  0  0  0  0  0  0  0  0  0  0
    1.6070   16.7180  -33.8090 C   0  0  0  0  0  0  0  0  0  0  0  0
    1.2820   15.4460  -34.3150 C   0  0  0  0  0  0  0  0  0  0  0  0
    2.2760   14.4750  -34.4750 C   0  0  0  0  0  0  0  0  0  0  0  0
    3.6020   14.7640  -34.1350 C   0  0  0  0  0  0  0  0  0  0  0  0
    3.9340   16.0230  -33.6290 C   0  0  0  0  0  0  0  0  0  0  0  0
    2.9440   16.9970  -33.4630 C   0  0  0  0  0  0  0  0  0  0  0  0
    0.2720   18.3010  -32.3890 C   0  0  0  0  0  0  0  0  0  0  0  0
   -0.7270   19.2660  -32.2360 C   0  0  0  0  0  0  0  0  0  0  0  0
   -4.4310   22.5030  -31.8300 C   0  0  0  0  0  0  0  0  0  0  0  0
   -0.8450   26.1160  -29.9550 H   0  0  0  0  0  0  0  0  0  0  0  0
   -1.0870   26.7270  -28.2970 H   0  0  0  0  0  0  0  0  0  0  0  0
   -0.3235   24.2768  -27.0792 H   0  0  0  0  0  0  0  0  0  0  0  0
   -1.4799   22.2231  -26.2714 H   0  0  0  0  0  0  0  0  0  0  0  0
   -3.6293   21.5051  -27.3139 H   0  0  0  0  0  0  0  0  0  0  0  0
   -4.6071   22.8212  -29.1925 H   0  0  0  0  0  0  0  0  0  0  0  0
   -7.4564   23.9243  -31.1163 H   0  0  0  0  0  0  0  0  0  0  0  0
   -8.2451   21.8030  -32.1454 H   0  0  0  0  0  0  0  0  0  0  0  0
   -6.6351   19.8946  -35.3159 H   0  0  0  0  0  0  0  0  0  0  0  0
   -5.0416   19.8071  -34.4692 H   0  0  0  0  0  0  0  0  0  0  0  0
   -7.0629   17.5967  -34.9925 H   0  0  0  0  0  0  0  0  0  0  0  0
   -5.2936   17.6219  -35.3057 H   0  0  0  0  0  0  0  0  0  0  0  0
   -5.7254   14.8313  -32.2532 H   0  0  0  0  0  0  0  0  0  0  0  0
   -3.6604   13.5254  -31.7508 H   0  0  0  0  0  0  0  0  0  0  0  0
   -1.4139   14.5034  -32.2352 H   0  0  0  0  0  0  0  0  0  0  0  0
   -1.2323   16.8006  -33.1911 H   0  0  0  0  0  0  0  0  0  0  0  0
   -3.2918   18.1060  -33.7188 H   0  0  0  0  0  0  0  0  0  0  0  0
   -7.4341   16.8080  -32.0060 H   0  0  0  0  0  0  0  0  0  0  0  0
   -6.1409   17.8463  -31.2834 H   0  0  0  0  0  0  0  0  0  0  0  0
   -8.4324   18.6374  -33.1203 H   0  0  0  0  0  0  0  0  0  0  0  0
   -7.9319   19.3567  -31.5547 H   0  0  0  0  0  0  0  0  0  0  0  0
   -4.2120   19.3920  -33.1030 H   0  0  0  0  0  0  0  0  0  0  0  0
   -1.7339   19.5217  -35.4907 H   0  0  0  0  0  0  0  0  0  0  0  0
    0.0393   17.7974  -35.7607 H   0  0  0  0  0  0  0  0  0  0  0  0
    0.2414   15.2141  -34.5860 H   0  0  0  0  0  0  0  0  0  0  0  0
    2.0145   13.4818  -34.8691 H   0  0  0  0  0  0  0  0  0  0  0  0
    4.3827   14.0002  -34.2661 H   0  0  0  0  0  0  0  0  0  0  0  0
    4.9765   16.2489  -33.3605 H   0  0  0  0  0  0  0  0  0  0  0  0
    3.2105   17.9854  -33.0605 H   0  0  0  0  0  0  0  0  0  0  0  0
    0.8412   17.9631  -31.5105 H   0  0  0  0  0  0  0  0  0  0  0  0
   -0.9325   19.6847  -31.2398 H   0  0  0  0  0  0  0  0  0  0  0  0
   -3.3535   22.7089  -31.7481 H   0  0  0  0  0  0  0  0  0  0  0  0
  1  2  1  0
  2  3  2  0
  3  4  1  0
  4  5  2  0
  5  6  1  0
  6  7  2  0
  7  8  1  0
  8  9  1  0
  9 10  2  0
  9 11  1  0
 11 12  2  0
 12 13  1  0
 13 14  2  0
 14 15  1  0
 15 16  1  0
 16 17  1  0
 17 18  1  0
 18 19  1  0
 19 20  2  0
 20 21  1  0
 21 22  2  0
 22 23  1  0
 23 24  2  0
 18 25  1  0
 25 26  1  0
 14 27  1  0
 27 28  1  0
 28 29  1  0
 29 30  2  0
 29 31  1  0
 31 32  2  0
 32 33  1  0
 33 34  2  0
 34 35  1  0
 35 36  2  0
 36 37  1  0
 37 38  2  0
 38 39  1  0
 39 40  2  0
 34 41  1  0
 41 42  2  0
 27 43  2  0
  7  2  1  0
 43 11  1  0
 26 15  1  0
 42 31  1  0
 24 19  1  0
 40 35  1  0
  1 44  1  0
  1 45  1  0
  3 46  1  0
  4 47  1  0
  5 48  1  0
  6 49  1  0
 12 50  1  0
 13 51  1  0
 16 52  1  0
 16 53  1  0
 17 54  1  0
 17 55  1  0
 20 56  1  0
 21 57  1  0
 22 58  1  0
 23 59  1  0
 24 60  1  0
 25 61  1  0
 25 62  1  0
 26 63  1  0
 26 64  1  0
 28 65  1  0
 32 66  1  0
 33 67  1  0
 36 68  1  0
 37 69  1  0
 38 70  1  0
 39 71  1  0
 40 72  1  0
 41 73  1  0
 42 74  1  0
 43 75  1  0
M  CHG  1   8  -1
M  END
>  <UniqueID>  (34) 
33

>  <SMILES>  (34) 
Nc1ccccc1[N-]C(=O)c1ccc(N2CCN(c3ccccc3)CC2)c(NC(=O)c2ccc(-c3ccccc3)cc2)c1

>  <Energy>  (34) 
115.06165045739928

>  <Genealogy>  (34) 
Nc1ccccc1[N-]C(=O)c1ccc(N2CCN(c3ccccc3)CC2)c(NC(=O)c2ccc(-c3ccccc3)cc2)c1 (protonated)
Nc1ccccc1[N-]C(=O)c1ccc(N2CCN(c3ccccc3)CC2)c(NC(=O)c2ccc(-c3ccccc3)cc2)c1 (3D coordinates assigned)
Nc1ccccc1[N-]C(=O)c1ccc(N2CCN(c3ccccc3)CC2)c(NC(=O)c2ccc(-c3ccccc3)cc2)c1 (nonaromatic ring conformer: 115.06165045739928 kcal/mol)

>  <smiles>  (34) 
Nc1ccccc1NC(=O)c1ccc(N2CCN(c3ccccc3)CC2)c(NC(=O)c2ccc(-c3ccccc3)cc2)c1

>  <score_type>  (34) 
oracle

>  <origin>  (34) 
adgpu

>  <m_score__min__energy>  (34) 
-11.720000000000001

>  <m_primary>  (34) 
energy

$$$$
34:0
     RDKit          3D

 59 63  0  0  0  0  0  0  0  0999 V2000
   -6.0690   14.6130  -34.1800 O   0  0  0  0  0  0  0  0  0  0  0  0
   -5.7480   15.8320  -34.1200 C   0  0  0  0  0  0  0  0  0  0  0  0
   -6.7660   16.8380  -34.1460 N   0  0  0  0  0  0  0  0  0  0  0  0
   -7.3310   17.4500  -32.9490 C   0  0  0  0  0  0  0  0  0  0  0  0
   -6.6500   18.7610  -32.6830 C   0  0  0  0  0  0  0  0  0  0  0  0
   -7.0690   19.5630  -31.6090 C   0  0  0  0  0  0  0  0  0  0  0  0
   -6.5260   20.8370  -31.4260 C   0  0  0  0  0  0  0  0  0  0  0  0
   -5.5670   21.3310  -32.3210 C   0  0  0  0  0  0  0  0  0  0  0  0
   -5.0920   22.7560  -32.2020 C   0  0  0  0  0  0  0  0  0  0  0  0
   -3.8050   22.8250  -31.4870 N   0  0  0  0  0  0  0  0  0  0  0  0
   -3.5590   23.8470  -30.4950 C   0  0  0  0  0  0  0  0  0  0  0  0
   -3.9420   25.0290  -30.7110 O   0  0  0  0  0  0  0  0  0  0  0  0
   -2.8410   23.5520  -29.2340 C   0  0  0  0  0  0  0  0  0  0  0  0
   -3.0740   22.3430  -28.5560 C   0  0  0  0  0  0  0  0  0  0  0  0
   -2.3970   22.0510  -27.3710 C   0  0  0  0  0  0  0  0  0  0  0  0
   -1.4590   22.9540  -26.8580 C   0  0  0  0  0  0  0  0  0  0  0  0
   -0.7670   22.6670  -25.6860 O   0  0  0  0  0  0  0  0  0  0  0  0
   -1.2090   24.1560  -27.5300 C   0  0  0  0  0  0  0  0  0  0  0  0
   -1.8940   24.4590  -28.7110 C   0  0  0  0  0  0  0  0  0  0  0  0
   -1.6410   25.6700  -29.3490 O   0  0  0  0  0  0  0  0  0  0  0  0
   -2.7880   21.8430  -31.7590 C   0  0  0  0  0  0  0  0  0  0  0  0
   -2.6210   20.7470  -30.9010 C   0  0  0  0  0  0  0  0  0  0  0  0
   -1.6840   19.7560  -31.2020 C   0  0  0  0  0  0  0  0  0  0  0  0
   -0.9110   19.8480  -32.3630 C   0  0  0  0  0  0  0  0  0  0  0  0
   -1.0700   20.9370  -33.2370 C   0  0  0  0  0  0  0  0  0  0  0  0
   -0.2670   21.0260  -34.4740 C   0  0  0  0  0  0  0  0  0  0  0  0
   -0.1400   20.0340  -35.3760 N   0  0  0  0  0  0  0  0  0  0  0  0
    0.6660   20.5210  -36.3020 N   0  0  0  0  0  0  0  0  0  0  0  0
    1.0150   21.7590  -35.9850 N   0  0  0  0  0  0  0  0  0  0  0  0
    0.4470   22.1050  -34.8430 N   0  0  0  0  0  0  0  0  0  0  0  0
   -2.0150   21.9310  -32.9280 C   0  0  0  0  0  0  0  0  0  0  0  0
   -5.1380   20.5260  -33.3890 C   0  0  0  0  0  0  0  0  0  0  0  0
   -5.6740   19.2490  -33.5660 C   0  0  0  0  0  0  0  0  0  0  0  0
   -4.3220   16.2200  -34.0410 C   0  0  0  0  0  0  0  0  0  0  0  0
   -3.5050   15.7340  -33.0070 C   0  0  0  0  0  0  0  0  0  0  0  0
   -2.1660   16.1290  -32.9410 C   0  0  0  0  0  0  0  0  0  0  0  0
   -1.6530   16.9690  -33.8770 N   0  0  0  0  0  0  0  0  0  0  0  0
   -2.4160   17.4490  -34.8970 C   0  0  0  0  0  0  0  0  0  0  0  0
   -3.7620   17.0860  -34.9970 C   0  0  0  0  0  0  0  0  0  0  0  0
   -8.4074   17.6205  -33.0985 H   0  0  0  0  0  0  0  0  0  0  0  0
   -7.1796   16.7794  -32.0903 H   0  0  0  0  0  0  0  0  0  0  0  0
   -7.8286   19.1861  -30.9083 H   0  0  0  0  0  0  0  0  0  0  0  0
   -6.8522   21.4548  -30.5764 H   0  0  0  0  0  0  0  0  0  0  0  0
   -4.9670   23.1790  -33.2097 H   0  0  0  0  0  0  0  0  0  0  0  0
   -5.8399   23.3288  -31.6341 H   0  0  0  0  0  0  0  0  0  0  0  0
   -3.7965   21.6204  -28.9631 H   0  0  0  0  0  0  0  0  0  0  0  0
   -2.6010   21.1098  -26.8395 H   0  0  0  0  0  0  0  0  0  0  0  0
   -1.2520   22.5350  -24.8030 H   0  0  0  0  0  0  0  0  0  0  0  0
   -0.4707   24.8652  -27.1276 H   0  0  0  0  0  0  0  0  0  0  0  0
   -3.2296   20.6673  -29.9882 H   0  0  0  0  0  0  0  0  0  0  0  0
   -1.5539   18.9003  -30.5232 H   0  0  0  0  0  0  0  0  0  0  0  0
   -0.1746   19.0641  -32.5937 H   0  0  0  0  0  0  0  0  0  0  0  0
   -2.1500   22.7851  -33.6079 H   0  0  0  0  0  0  0  0  0  0  0  0
   -4.3772   20.9029  -34.0883 H   0  0  0  0  0  0  0  0  0  0  0  0
   -5.3297   18.6221  -34.4017 H   0  0  0  0  0  0  0  0  0  0  0  0
   -3.9167   15.0464  -32.2535 H   0  0  0  0  0  0  0  0  0  0  0  0
   -1.5250   15.7581  -32.1277 H   0  0  0  0  0  0  0  0  0  0  0  0
   -1.9724   18.1238  -35.6439 H   0  0  0  0  0  0  0  0  0  0  0  0
   -4.3801   17.4757  -35.8193 H   0  0  0  0  0  0  0  0  0  0  0  0
  1  2  2  0
  2  3  1  0
  3  4  1  0
  4  5  1  0
  5  6  2  0
  6  7  1  0
  7  8  2  0
  8  9  1  0
  9 10  1  0
 10 11  1  0
 11 12  2  0
 11 13  1  0
 13 14  2  0
 14 15  1  0
 15 16  2  0
 16 17  1  0
 16 18  1  0
 18 19  2  0
 19 20  1  0
 10 21  1  0
 21 22  2  0
 22 23  1  0
 23 24  2  0
 24 25  1  0
 25 26  1  0
 26 27  1  0
 27 28  2  0
 28 29  1  0
 29 30  1  0
 25 31  2  0
  8 32  1  0
 32 33  2  0
  2 34  1  0
 34 35  2  0
 35 36  1  0
 36 37  2  0
 37 38  1  0
 38 39  2  0
 33  5  1  0
 39 34  1  0
 19 13  1  0
 31 21  1  0
 30 26  2  0
  4 40  1  0
  4 41  1  0
  6 42  1  0
  7 43  1  0
  9 44  1  0
  9 45  1  0
 14 46  1  0
 15 47  1  0
 17 48  1  0
 18 49  1  0
 22 50  1  0
 23 51  1  0
 24 52  1  0
 31 53  1  0
 32 54  1  0
 33 55  1  0
 35 56  1  0
 36 57  1  0
 38 58  1  0
 39 59  1  0
M  CHG  3   3  -1  20  -1  29  -1
M  END
>  <UniqueID>  (35) 
34

>  <SMILES>  (35) 
O=C([N-]Cc1ccc(CN(C(=O)c2ccc(O)cc2[O-])c2cccc(-c3nn[n-]n3)c2)cc1)c1ccncc1

>  <Energy>  (35) 
112.0349072181215

>  <Genealogy>  (35) 
O=C([N-]Cc1ccc(CN(C(=O)c2ccc(O)cc2[O-])c2cccc(-c3nn[n-]n3)c2)cc1)c1ccncc1 (protonated)
O=C([N-]Cc1ccc(CN(C(=O)c2ccc(O)cc2[O-])c2cccc(-c3nn[n-]n3)c2)cc1)c1ccncc1 (3D coordinates assigned)
O=C([N-]Cc1ccc(CN(C(=O)c2ccc(O)cc2[O-])c2cccc(-c3nn[n-]n3)c2)cc1)c1ccncc1 (optimized conformer: 112.0349072181215 kcal/mol)

>  <smiles>  (35) 
O=C(NCc1ccc(CN(C(=O)c2ccc(O)cc2O)c2cccc(-c3nn[nH]n3)c2)cc1)c1ccncc1

>  <score_type>  (35) 
oracle

>  <origin>  (35) 
adgpu

>  <m_score__min__energy>  (35) 
-13.369999999999999

>  <m_primary>  (35) 
energy

$$$$
35:0
     RDKit          3D

 39 41  0  0  0  0  0  0  0  0999 V2000
   -4.6490   14.3670  -31.7790 C   0  0  0  0  0  0  0  0  0  0  0  0
   -5.0660   15.6820  -32.3680 C   0  0  0  0  0  0  0  0  0  0  0  0
   -4.8200   15.9610  -33.7220 C   0  0  0  0  0  0  0  0  0  0  0  0
   -5.2420   17.1710  -34.2790 C   0  0  0  0  0  0  0  0  0  0  0  0
   -5.9330   18.1040  -33.4960 C   0  0  0  0  0  0  0  0  0  0  0  0
   -6.4780   19.6540  -34.2150 S   0  0  0  0  0  0  0  0  0  0  0  0
   -5.7260   20.6520  -32.9170 C   0  0  0  0  0  0  0  0  0  0  0  0
   -6.5630   21.3910  -32.0810 C   0  0  0  0  0  0  0  0  0  0  0  0
   -6.0210   22.1580  -31.0480 C   0  0  0  0  0  0  0  0  0  0  0  0
   -6.7990   22.7940  -30.2850 O   0  0  0  0  0  0  0  0  0  0  0  0
   -4.6630   22.2000  -30.8570 N   0  0  0  0  0  0  0  0  0  0  0  0
   -4.0900   22.9880  -29.7930 C   0  0  0  0  0  0  0  0  0  0  0  0
   -4.5050   22.7990  -28.4630 C   0  0  0  0  0  0  0  0  0  0  0  0
   -3.9550   23.5700  -27.4360 C   0  0  0  0  0  0  0  0  0  0  0  0
   -2.9890   24.5380  -27.7270 C   0  0  0  0  0  0  0  0  0  0  0  0
   -2.5730   24.7370  -29.0480 C   0  0  0  0  0  0  0  0  0  0  0  0
   -1.6140   25.7000  -29.3360 O   0  0  0  0  0  0  0  0  0  0  0  0
   -3.1220   23.9670  -30.0780 C   0  0  0  0  0  0  0  0  0  0  0  0
   -3.8280   21.4900  -31.6740 C   0  0  0  0  0  0  0  0  0  0  0  0
   -4.3310   20.7190  -32.7330 C   0  0  0  0  0  0  0  0  0  0  0  0
   -3.3710   19.9470  -33.5970 C   0  0  0  0  0  0  0  0  0  0  0  0
   -6.1820   17.8290  -32.1470 C   0  0  0  0  0  0  0  0  0  0  0  0
   -5.7600   16.6190  -31.5870 C   0  0  0  0  0  0  0  0  0  0  0  0
   -4.6702   14.4337  -30.6812 H   0  0  0  0  0  0  0  0  0  0  0  0
   -5.3416   13.5800  -32.1119 H   0  0  0  0  0  0  0  0  0  0  0  0
   -3.6294   14.1230  -32.1119 H   0  0  0  0  0  0  0  0  0  0  0  0
   -4.2932   15.2244  -34.3464 H   0  0  0  0  0  0  0  0  0  0  0  0
   -5.0308   17.3914  -35.3358 H   0  0  0  0  0  0  0  0  0  0  0  0
   -7.6518   21.3694  -32.2359 H   0  0  0  0  0  0  0  0  0  0  0  0
   -5.2666   22.0402  -28.2299 H   0  0  0  0  0  0  0  0  0  0  0  0
   -4.2823   23.4153  -26.3973 H   0  0  0  0  0  0  0  0  0  0  0  0
   -2.5559   25.1434  -26.9171 H   0  0  0  0  0  0  0  0  0  0  0  0
   -2.7951   24.1279  -31.1159 H   0  0  0  0  0  0  0  0  0  0  0  0
   -2.7427   21.5237  -31.4981 H   0  0  0  0  0  0  0  0  0  0  0  0
   -2.6730   19.3857  -32.9585 H   0  0  0  0  0  0  0  0  0  0  0  0
   -3.9319   19.2456  -34.2321 H   0  0  0  0  0  0  0  0  0  0  0  0
   -2.8063   20.6454  -34.2321 H   0  0  0  0  0  0  0  0  0  0  0  0
   -6.7110   18.5663  -31.5253 H   0  0  0  0  0  0  0  0  0  0  0  0
   -5.9729   16.4008  -30.5301 H   0  0  0  0  0  0  0  0  0  0  0  0
  1  2  1  0
  2  3  2  0
  3  4  1  0
  4  5  2  0
  5  6  1  0
  6  7  1  0
  7  8  2  0
  8  9  1  0
  9 10  2  0
  9 11  1  0
 11 12  1  0
 12 13  2  0
 13 14  1  0
 14 15  2  0
 15 16  1  0
 16 17  1  0
 16 18  2  0
 11 19  1  0
 19 20  2  0
 20 21  1  0
  5 22  1  0
 22 23  2  0
 23  2  1  0
 20  7  1  0
 18 12  1  0
  1 24  1  0
  1 25  1  0
  1 26  1  0
  3 27  1  0
  4 28  1  0
  8 29  1  0
 13 30  1  0
 14 31  1  0
 15 32  1  0
 18 33  1  0
 19 34  1  0
 21 35  1  0
 21 36  1  0
 21 37  1  0
 22 38  1  0
 23 39  1  0
M  CHG  1  17  -1
M  END
>  <UniqueID>  (36) 
35

>  <SMILES>  (36) 
Cc1ccc(Sc2cc(=O)n(-c3cccc([O-])c3)cc2C)cc1

>  <Energy>  (36) 
45.776652533465

>  <Genealogy>  (36) 
Cc1ccc(Sc2cc(=O)n(-c3cccc([O-])c3)cc2C)cc1 (protonated)
Cc1ccc(Sc2cc(=O)n(-c3cccc([O-])c3)cc2C)cc1 (3D coordinates assigned)
Cc1ccc(Sc2cc(=O)n(-c3cccc([O-])c3)cc2C)cc1 (optimized conformer: 45.776652533465 kcal/mol)

>  <smiles>  (36) 
Cc1ccc(Sc2cc(=O)n(-c3cccc(O)c3)cc2C)cc1

>  <score_type>  (36) 
oracle

>  <origin>  (36) 
adgpu

>  <m_score__min__energy>  (36) 
-11.51

>  <m_primary>  (36) 
energy

$$$$
36:0
     RDKit          3D

 64 67  0  0  0  0  0  0  0  0999 V2000
   -0.4720   26.0750  -24.2440 C   0  0  0  0  0  0  0  0  0  0  0  0
   -0.2490   25.7980  -25.6220 O   0  0  0  0  0  0  0  0  0  0  0  0
   -1.2330   25.3270  -26.5050 C   0  0  0  0  0  0  0  0  0  0  0  0
   -2.5600   25.0930  -26.1010 C   0  0  0  0  0  0  0  0  0  0  0  0
   -3.5050   24.6250  -27.0200 C   0  0  0  0  0  0  0  0  0  0  0  0
   -3.1420   24.3970  -28.3590 C   0  0  0  0  0  0  0  0  0  0  0  0
   -4.0890   23.8920  -29.3160 N   0  0  0  0  0  0  0  0  0  0  0  0
   -4.5010   24.6000  -30.4920 C   0  0  0  0  0  0  0  0  0  0  0  0
   -3.9090   25.6550  -30.8440 O   0  0  0  0  0  0  0  0  0  0  0  0
   -5.6050   24.0970  -31.2550 N   0  0  0  0  0  0  0  0  0  0  0  0
   -5.7050   22.8030  -31.8670 C   0  0  0  0  0  0  0  0  0  0  0  0
   -4.5690   22.2630  -32.4810 C   0  0  0  0  0  0  0  0  0  0  0  0
   -4.6250   21.0130  -33.1030 C   0  0  0  0  0  0  0  0  0  0  0  0
   -5.8270   20.2950  -33.1340 C   0  0  0  0  0  0  0  0  0  0  0  0
   -5.8930   18.7290  -33.9310 S   0  0  0  0  0  0  0  0  0  0  0  0
   -6.1110   18.9140  -35.4080 O   0  0  0  0  0  0  0  0  0  0  0  0
   -7.0440   17.9300  -33.3850 O   0  0  0  0  0  0  0  0  0  0  0  0
   -4.3860   17.8640  -33.6450 C   0  0  0  0  0  0  0  0  0  0  0  0
   -4.4220   16.5590  -33.1390 C   0  0  0  0  0  0  0  0  0  0  0  0
   -3.2330   15.8650  -32.9010 C   0  0  0  0  0  0  0  0  0  0  0  0
   -2.0040   16.4670  -33.1760 C   0  0  0  0  0  0  0  0  0  0  0  0
   -1.9570   17.7670  -33.7060 C   0  0  0  0  0  0  0  0  0  0  0  0
   -0.7100   18.4030  -34.0100 N   0  0  0  0  0  0  0  0  0  0  0  0
   -0.5210   19.7910  -34.3220 C   0  0  0  0  0  0  0  0  0  0  0  0
    0.2340   20.0990  -35.2810 O   0  0  0  0  0  0  0  0  0  0  0  0
   -1.1690   20.8870  -33.5240 C   0  0  0  0  0  0  0  0  0  0  0  0
   -0.6580   20.8830  -32.2070 O   0  0  0  0  0  0  0  0  0  0  0  0
   -1.5300   21.5680  -31.3320 C   0  0  0  0  0  0  0  0  0  0  0  0
   -1.5880   20.8710  -30.0010 C   0  0  0  0  0  0  0  0  0  0  0  0
   -0.5250   20.0480  -29.5940 C   0  0  0  0  0  0  0  0  0  0  0  0
   -0.5670   19.4060  -28.3530 C   0  0  0  0  0  0  0  0  0  0  0  0
   -1.6660   19.5840  -27.5080 C   0  0  0  0  0  0  0  0  0  0  0  0
   -2.7250   20.4060  -27.9040 C   0  0  0  0  0  0  0  0  0  0  0  0
   -2.6860   21.0510  -29.1430 C   0  0  0  0  0  0  0  0  0  0  0  0
   -3.1500   18.4720  -33.9090 C   0  0  0  0  0  0  0  0  0  0  0  0
   -6.9750   20.8460  -32.5530 C   0  0  0  0  0  0  0  0  0  0  0  0
   -6.9180   22.0940  -31.9220 C   0  0  0  0  0  0  0  0  0  0  0  0
   -1.8140   24.6110  -28.7520 C   0  0  0  0  0  0  0  0  0  0  0  0
   -0.8700   25.0790  -27.8330 C   0  0  0  0  0  0  0  0  0  0  0  0
    0.1003   25.3642  -23.6298 H   0  0  0  0  0  0  0  0  0  0  0  0
   -0.1447   27.1007  -24.0185 H   0  0  0  0  0  0  0  0  0  0  0  0
   -1.5439   25.9743  -24.0185 H   0  0  0  0  0  0  0  0  0  0  0  0
   -2.8558   25.2789  -25.0579 H   0  0  0  0  0  0  0  0  0  0  0  0
   -4.5379   24.4343  -26.6933 H   0  0  0  0  0  0  0  0  0  0  0  0
   -4.4360   22.9130  -29.1960 H   0  0  0  0  0  0  0  0  0  0  0  0
   -3.6247   22.8271  -32.4738 H   0  0  0  0  0  0  0  0  0  0  0  0
   -3.7224   20.5917  -33.5697 H   0  0  0  0  0  0  0  0  0  0  0  0
   -5.3890   16.0789  -32.9283 H   0  0  0  0  0  0  0  0  0  0  0  0
   -3.2654   14.8427  -32.4963 H   0  0  0  0  0  0  0  0  0  0  0  0
   -1.0696   15.9218  -32.9771 H   0  0  0  0  0  0  0  0  0  0  0  0
   -0.9562   21.8576  -33.9958 H   0  0  0  0  0  0  0  0  0  0  0  0
   -2.2560   20.7215  -33.4935 H   0  0  0  0  0  0  0  0  0  0  0  0
   -1.1655   22.5958  -31.1877 H   0  0  0  0  0  0  0  0  0  0  0  0
   -2.5382   21.5837  -31.7717 H   0  0  0  0  0  0  0  0  0  0  0  0
    0.3437   19.9082  -30.2542 H   0  0  0  0  0  0  0  0  0  0  0  0
    0.2664   18.7595  -28.0409 H   0  0  0  0  0  0  0  0  0  0  0  0
   -1.6976   19.0776  -26.5320 H   0  0  0  0  0  0  0  0  0  0  0  0
   -3.5903   20.5453  -27.2393 H   0  0  0  0  0  0  0  0  0  0  0  0
   -3.5183   21.7023  -29.4479 H   0  0  0  0  0  0  0  0  0  0  0  0
   -3.1174   19.5080  -34.2774 H   0  0  0  0  0  0  0  0  0  0  0  0
   -7.9266   20.2956  -32.5925 H   0  0  0  0  0  0  0  0  0  0  0  0
   -7.8243   22.5212  -31.4680 H   0  0  0  0  0  0  0  0  0  0  0  0
   -1.5123   24.4094  -29.7904 H   0  0  0  0  0  0  0  0  0  0  0  0
    0.1666   25.2536  -28.1569 H   0  0  0  0  0  0  0  0  0  0  0  0
  1  2  1  0
  2  3  1  0
  3  4  2  0
  4  5  1  0
  5  6  2  0
  6  7  1  0
  7  8  1  0
  8  9  2  0
  8 10  1  0
 10 11  1  0
 11 12  2  0
 12 13  1  0
 13 14  2  0
 14 15  1  0
 15 16  2  0
 15 17  2  0
 15 18  1  0
 18 19  2  0
 19 20  1  0
 20 21  2  0
 21 22  1  0
 22 23  1  0
 23 24  1  0
 24 25  2  0
 24 26  1  0
 26 27  1  0
 27 28  1  0
 28 29  1  0
 29 30  2  0
 30 31  1  0
 31 32  2  0
 32 33  1  0
 33 34  2  0
 22 35  2  0
 14 36  1  0
 36 37  2  0
  6 38  1  0
 38 39  2  0
 39  3  1  0
 37 11  1  0
 35 18  1  0
 34 29  1  0
  1 40  1  0
  1 41  1  0
  1 42  1  0
  4 43  1  0
  5 44  1  0
  7 45  1  0
 12 46  1  0
 13 47  1  0
 19 48  1  0
 20 49  1  0
 21 50  1  0
 26 51  1  0
 26 52  1  0
 28 53  1  0
 28 54  1  0
 30 55  1  0
 31 56  1  0
 32 57  1  0
 33 58  1  0
 34 59  1  0
 35 60  1  0
 36 61  1  0
 37 62  1  0
 38 63  1  0
 39 64  1  0
M  CHG  2  10  -1  23  -1
M  END
>  <UniqueID>  (37) 
36

>  <SMILES>  (37) 
COc1ccc(NC(=O)[N-]c2ccc(S(=O)(=O)c3cccc([N-]C(=O)COCc4ccccc4)c3)cc2)cc1

>  <Energy>  (37) 
82.47455012681807

>  <Genealogy>  (37) 
COc1ccc(NC(=O)[N-]c2ccc(S(=O)(=O)c3cccc([N-]C(=O)COCc4ccccc4)c3)cc2)cc1 (protonated)
COc1ccc(NC(=O)[N-]c2ccc(S(=O)(=O)c3cccc([N-]C(=O)COCc4ccccc4)c3)cc2)cc1 (3D coordinates assigned)
COc1ccc(NC(=O)[N-]c2ccc(S(=O)(=O)c3cccc([N-]C(=O)COCc4ccccc4)c3)cc2)cc1 (optimized conformer: 82.47455012681807 kcal/mol)

>  <smiles>  (37) 
COc1ccc(NC(=O)Nc2ccc(S(=O)(=O)c3cccc(NC(=O)COCc4ccccc4)c3)cc2)cc1

>  <score_type>  (37) 
oracle

>  <origin>  (37) 
adgpu

>  <m_score__min__energy>  (37) 
-12.18

>  <m_primary>  (37) 
energy

$$$$
37:0
     RDKit          3D

 37 38  0  0  0  0  0  0  0  0999 V2000
   -7.0160   20.7030  -32.7190 C   0  0  0  0  0  0  0  0  0  0  0  0
   -5.7930   20.4500  -31.8420 C   0  0  0  0  0  0  0  0  0  0  0  0
   -4.9190   21.6330  -31.8050 N   0  0  0  0  0  0  0  0  0  0  0  0
   -5.3700   22.8820  -32.4360 C   0  0  0  0  0  0  0  0  0  0  0  0
   -5.6660   23.9180  -31.3970 C   0  0  0  0  0  0  0  0  0  0  0  0
   -6.7460   23.9180  -30.5360 C   0  0  0  0  0  0  0  0  0  0  0  0
   -6.6030   25.0510  -29.7630 C   0  0  0  0  0  0  0  0  0  0  0  0
   -5.4460   25.6670  -30.1970 C   0  0  0  0  0  0  0  0  0  0  0  0
   -4.9090   24.9660  -31.1690 O   0  0  0  0  0  0  0  0  0  0  0  0
   -3.5930   21.5290  -31.2390 C   0  0  0  0  0  0  0  0  0  0  0  0
   -2.9590   20.4420  -31.3350 O   0  0  0  0  0  0  0  0  0  0  0  0
   -2.9910   22.6400  -30.5580 N   0  0  0  0  0  0  0  0  0  0  0  0
   -1.6110   22.5810  -30.0780 C   0  0  0  0  0  0  0  0  0  0  0  0
   -1.4730   23.3240  -28.7730 C   0  0  0  0  0  0  0  0  0  0  0  0
   -0.9140   22.6810  -27.6550 C   0  0  0  0  0  0  0  0  0  0  0  0
   -0.8170   23.3480  -26.4320 C   0  0  0  0  0  0  0  0  0  0  0  0
   -1.2870   24.6590  -26.3090 C   0  0  0  0  0  0  0  0  0  0  0  0
   -1.8590   25.3020  -27.4110 C   0  0  0  0  0  0  0  0  0  0  0  0
   -1.9600   24.6380  -28.6390 C   0  0  0  0  0  0  0  0  0  0  0  0
   -2.5490   25.2900  -29.7180 O   0  0  0  0  0  0  0  0  0  0  0  0
   -7.8935   20.8845  -32.0810 H   0  0  0  0  0  0  0  0  0  0  0  0
   -6.8361   21.5829  -33.3541 H   0  0  0  0  0  0  0  0  0  0  0  0
   -7.2000   19.8239  -33.3541 H   0  0  0  0  0  0  0  0  0  0  0  0
   -6.1252   20.2157  -30.8199 H   0  0  0  0  0  0  0  0  0  0  0  0
   -5.2260   19.6075  -32.2647 H   0  0  0  0  0  0  0  0  0  0  0  0
   -4.5803   23.2553  -33.1046 H   0  0  0  0  0  0  0  0  0  0  0  0
   -6.2876   22.6800  -33.0081 H   0  0  0  0  0  0  0  0  0  0  0  0
   -7.5513   23.1709  -30.4789 H   0  0  0  0  0  0  0  0  0  0  0  0
   -7.2748   25.3945  -28.9626 H   0  0  0  0  0  0  0  0  0  0  0  0
   -5.0361   26.6032  -29.7902 H   0  0  0  0  0  0  0  0  0  0  0  0
   -3.5590   23.4940  -30.3650 H   0  0  0  0  0  0  0  0  0  0  0  0
   -1.3247   21.5296  -29.9279 H   0  0  0  0  0  0  0  0  0  0  0  0
   -0.9542   23.0501  -30.8254 H   0  0  0  0  0  0  0  0  0  0  0  0
   -0.5509   21.6465  -27.7440 H   0  0  0  0  0  0  0  0  0  0  0  0
   -0.3701   22.8412  -25.5640 H   0  0  0  0  0  0  0  0  0  0  0  0
   -1.2068   25.1843  -25.3459 H   0  0  0  0  0  0  0  0  0  0  0  0
   -2.2307   26.3326  -27.3126 H   0  0  0  0  0  0  0  0  0  0  0  0
  1  2  1  0
  2  3  1  0
  3  4  1  0
  4  5  1  0
  5  6  2  0
  6  7  1  0
  7  8  2  0
  8  9  1  0
  3 10  1  0
 10 11  2  0
 10 12  1  0
 12 13  1  0
 13 14  1  0
 14 15  2  0
 15 16  1  0
 16 17  2  0
 17 18  1  0
 18 19  2  0
 19 20  1  0
  9  5  1  0
 19 14  1  0
  1 21  1  0
  1 22  1  0
  1 23  1  0
  2 24  1  0
  2 25  1  0
  4 26  1  0
  4 27  1  0
  6 28  1  0
  7 29  1  0
  8 30  1  0
 12 31  1  0
 13 32  1  0
 13 33  1  0
 15 34  1  0
 16 35  1  0
 17 36  1  0
 18 37  1  0
M  CHG  1  20  -1
M  END
>  <UniqueID>  (38) 
37

>  <SMILES>  (38) 
CCN(Cc1ccco1)C(=O)NCc1ccccc1[O-]

>  <Energy>  (38) 
56.706219344150256

>  <Genealogy>  (38) 
CCN(Cc1ccco1)C(=O)NCc1ccccc1[O-] (protonated)
CCN(Cc1ccco1)C(=O)NCc1ccccc1[O-] (3D coordinates assigned)
CCN(Cc1ccco1)C(=O)NCc1ccccc1[O-] (optimized conformer: 56.706219344150256 kcal/mol)

>  <smiles>  (38) 
CCN(Cc1ccco1)C(=O)NCc1ccccc1O

>  <score_type>  (38) 
oracle

>  <origin>  (38) 
adgpu

>  <m_score__min__energy>  (38) 
-9.9499999999999993

>  <m_primary>  (38) 
energy

$$$$
38:0
     RDKit          3D

 41 43  0  0  0  0  0  0  0  0999 V2000
   -3.7220   24.9190  -26.6890 C   0  0  0  0  0  0  0  0  0  0  0  0
   -2.7430   24.0520  -27.4070 C   0  0  0  0  0  0  0  0  0  0  0  0
   -1.9370   23.1570  -26.8030 N   0  0  0  0  0  0  0  0  0  0  0  0
   -1.1900   22.5920  -27.7410 N   0  0  0  0  0  0  0  0  0  0  0  0
   -0.2210   21.5380  -27.4610 C   0  0  0  0  0  0  0  0  0  0  0  0
   -1.5100   23.0960  -28.9550 C   0  0  0  0  0  0  0  0  0  0  0  0
   -0.9310   22.6340  -30.2580 C   0  0  0  0  0  0  0  0  0  0  0  0
   -2.4870   24.0580  -28.7620 C   0  0  0  0  0  0  0  0  0  0  0  0
   -3.1180   24.9140  -29.7220 N   0  0  0  0  0  0  0  0  0  0  0  0
   -4.7820   24.7870  -30.1960 S   0  0  0  0  0  0  0  0  0  0  0  0
   -5.0920   25.8800  -31.1800 O   0  0  0  0  0  0  0  0  0  0  0  0
   -5.6630   24.9500  -28.9890 O   0  0  0  0  0  0  0  0  0  0  0  0
   -5.0730   23.2370  -30.9810 C   0  0  0  0  0  0  0  0  0  0  0  0
   -6.3550   22.9210  -31.4470 C   0  0  0  0  0  0  0  0  0  0  0  0
   -6.5900   21.7090  -32.1000 C   0  0  0  0  0  0  0  0  0  0  0  0
   -5.5440   20.7900  -32.2970 C   0  0  0  0  0  0  0  0  0  0  0  0
   -5.7990   19.5260  -33.0300 C   0  0  0  0  0  0  0  0  0  0  0  0
   -5.4520   18.2450  -32.6300 C   0  0  0  0  0  0  0  0  0  0  0  0
   -5.8720   17.4530  -33.6770 C   0  0  0  0  0  0  0  0  0  0  0  0
   -5.7120   15.9700  -33.7840 C   0  0  0  0  0  0  0  0  0  0  0  0
   -5.3790   15.4540  -32.5460 F   0  0  0  0  0  0  0  0  0  0  0  0
   -6.8960   15.3990  -34.2140 F   0  0  0  0  0  0  0  0  0  0  0  0
   -4.7090   15.6680  -34.6850 F   0  0  0  0  0  0  0  0  0  0  0  0
   -6.4120   18.2160  -34.5980 O   0  0  0  0  0  0  0  0  0  0  0  0
   -6.3850   19.4680  -34.2430 N   0  0  0  0  0  0  0  0  0  0  0  0
   -4.2630   21.1020  -31.8030 C   0  0  0  0  0  0  0  0  0  0  0  0
   -4.0320   22.3140  -31.1450 C   0  0  0  0  0  0  0  0  0  0  0  0
   -3.5890   24.8012  -25.6035 H   0  0  0  0  0  0  0  0  0  0  0  0
   -3.5540   25.9699  -26.9671 H   0  0  0  0  0  0  0  0  0  0  0  0
   -4.7449   24.6252  -26.9671 H   0  0  0  0  0  0  0  0  0  0  0  0
   -0.1122   21.4196  -26.3728 H   0  0  0  0  0  0  0  0  0  0  0  0
   -0.5713   20.5920  -27.8995 H   0  0  0  0  0  0  0  0  0  0  0  0
    0.7511   21.8077  -27.8995 H   0  0  0  0  0  0  0  0  0  0  0  0
   -0.0846   21.9587  -30.0642 H   0  0  0  0  0  0  0  0  0  0  0  0
   -1.7019   22.1001  -30.8330 H   0  0  0  0  0  0  0  0  0  0  0  0
   -0.5815   23.5042  -30.8330 H   0  0  0  0  0  0  0  0  0  0  0  0
   -7.1816   23.6313  -31.2980 H   0  0  0  0  0  0  0  0  0  0  0  0
   -7.6009   21.4715  -32.4629 H   0  0  0  0  0  0  0  0  0  0  0  0
   -4.9582   17.9340  -31.6975 H   0  0  0  0  0  0  0  0  0  0  0  0
   -3.4377   20.3869  -31.9357 H   0  0  0  0  0  0  0  0  0  0  0  0
   -3.0295   22.5435  -30.7548 H   0  0  0  0  0  0  0  0  0  0  0  0
  1  2  1  0
  2  3  2  0
  3  4  1  0
  4  5  1  0
  4  6  1  0
  6  7  1  0
  6  8  2  0
  8  9  1  0
  9 10  1  0
 10 11  2  0
 10 12  2  0
 10 13  1  0
 13 14  2  0
 14 15  1  0
 15 16  2  0
 16 17  1  0
 17 18  1  0
 18 19  2  0
 19 20  1  0
 20 21  1  0
 20 22  1  0
 20 23  1  0
 19 24  1  0
 24 25  1  0
 16 26  1  0
 26 27  2  0
  8  2  1  0
 27 13  1  0
 25 17  2  0
  1 28  1  0
  1 29  1  0
  1 30  1  0
  5 31  1  0
  5 32  1  0
  5 33  1  0
  7 34  1  0
  7 35  1  0
  7 36  1  0
 14 37  1  0
 15 38  1  0
 18 39  1  0
 26 40  1  0
 27 41  1  0
M  CHG  1   9  -1
M  END
>  <UniqueID>  (39) 
38

>  <SMILES>  (39) 
Cc1nn(C)c(C)c1[N-]S(=O)(=O)c1ccc(-c2cc(C(F)(F)F)on2)cc1

>  <Energy>  (39) 
108.43944460204762

>  <Genealogy>  (39) 
Cc1nn(C)c(C)c1[N-]S(=O)(=O)c1ccc(-c2cc(C(F)(F)F)on2)cc1 (protonated)
Cc1nn(C)c(C)c1[N-]S(=O)(=O)c1ccc(-c2cc(C(F)(F)F)on2)cc1 (3D coordinates assigned)
Cc1nn(C)c(C)c1[N-]S(=O)(=O)c1ccc(-c2cc(C(F)(F)F)on2)cc1 (optimized conformer: 108.43944460204762 kcal/mol)

>  <smiles>  (39) 
Cc1nn(C)c(C)c1NS(=O)(=O)c1ccc(-c2cc(C(F)(F)F)on2)cc1

>  <score_type>  (39) 
oracle

>  <origin>  (39) 
adgpu

>  <m_score__min__energy>  (39) 
-9.1999999999999993

>  <m_primary>  (39) 
energy

$$$$
39:0
     RDKit          3D

 50 52  0  0  0  0  0  0  0  0999 V2000
   -8.6770   18.5050  -32.2640 C   0  0  0  0  0  0  0  0  0  0  0  0
   -7.5830   19.3990  -32.7580 C   0  0  0  0  0  0  0  0  0  0  0  0
   -6.8720   18.9960  -33.7170 O   0  0  0  0  0  0  0  0  0  0  0  0
   -7.3110   20.7350  -32.1630 C   0  0  0  0  0  0  0  0  0  0  0  0
   -8.2770   21.6630  -31.7860 C   0  0  0  0  0  0  0  0  0  0  0  0
   -9.7610   21.5170  -31.9340 C   0  0  0  0  0  0  0  0  0  0  0  0
   -7.7000   22.7420  -31.2280 N   0  0  0  0  0  0  0  0  0  0  0  0
   -6.3720   22.5300  -31.2240 C   0  0  0  0  0  0  0  0  0  0  0  0
   -5.4220   23.4860  -30.6220 C   0  0  0  0  0  0  0  0  0  0  0  0
   -5.1290   24.5360  -31.2560 O   0  0  0  0  0  0  0  0  0  0  0  0
   -4.9220   23.2850  -29.2920 N   0  0  0  0  0  0  0  0  0  0  0  0
   -3.7570   23.9430  -28.7650 C   0  0  0  0  0  0  0  0  0  0  0  0
   -3.7660   24.4030  -27.4390 C   0  0  0  0  0  0  0  0  0  0  0  0
   -2.6390   25.0260  -26.8980 C   0  0  0  0  0  0  0  0  0  0  0  0
   -1.4790   25.1800  -27.6690 C   0  0  0  0  0  0  0  0  0  0  0  0
   -0.0600   25.9840  -27.0040 S   0  0  0  0  0  0  0  0  0  0  0  0
   -0.0570   27.4200  -27.4480 O   0  0  0  0  0  0  0  0  0  0  0  0
    1.1900   25.3220  -27.5180 O   0  0  0  0  0  0  0  0  0  0  0  0
   -0.1210   25.9110  -25.2620 N   0  0  0  0  0  0  0  0  0  0  0  0
    1.0630   26.5270  -24.6640 C   0  0  0  0  0  0  0  0  0  0  0  0
    0.6450   27.0220  -23.2880 C   0  0  0  0  0  0  0  0  0  0  0  0
   -0.8720   27.1170  -23.3380 C   0  0  0  0  0  0  0  0  0  0  0  0
   -1.2600   26.6620  -24.7370 C   0  0  0  0  0  0  0  0  0  0  0  0
   -1.4600   24.7110  -28.9890 C   0  0  0  0  0  0  0  0  0  0  0  0
   -2.5880   24.0890  -29.5320 C   0  0  0  0  0  0  0  0  0  0  0  0
   -6.0810   21.3040  -31.8200 C   0  0  0  0  0  0  0  0  0  0  0  0
   -4.7150   20.7160  -32.0390 C   0  0  0  0  0  0  0  0  0  0  0  0
   -8.6800   18.5026  -31.1640 H   0  0  0  0  0  0  0  0  0  0  0  0
   -9.6459   18.8731  -32.6325 H   0  0  0  0  0  0  0  0  0  0  0  0
   -8.5092   17.4822  -32.6325 H   0  0  0  0  0  0  0  0  0  0  0  0
  -10.2261   21.4712  -30.9382 H   0  0  0  0  0  0  0  0  0  0  0  0
  -10.1611   22.3801  -32.4862 H   0  0  0  0  0  0  0  0  0  0  0  0
   -9.9852   20.5925  -32.4862 H   0  0  0  0  0  0  0  0  0  0  0  0
   -8.1960   23.5760  -30.8390 H   0  0  0  0  0  0  0  0  0  0  0  0
   -5.4890   22.6920  -28.6430 H   0  0  0  0  0  0  0  0  0  0  0  0
   -4.6669   24.2720  -26.8215 H   0  0  0  0  0  0  0  0  0  0  0  0
   -2.6621   25.3972  -25.8628 H   0  0  0  0  0  0  0  0  0  0  0  0
    1.8711   25.7863  -24.5719 H   0  0  0  0  0  0  0  0  0  0  0  0
    1.4386   27.3527  -25.2862 H   0  0  0  0  0  0  0  0  0  0  0  0
    0.9609   26.3108  -22.5106 H   0  0  0  0  0  0  0  0  0  0  0  0
    1.1081   27.9891  -23.0425 H   0  0  0  0  0  0  0  0  0  0  0  0
   -1.3238   26.4597  -22.5805 H   0  0  0  0  0  0  0  0  0  0  0  0
   -1.2249   28.1373  -23.1273 H   0  0  0  0  0  0  0  0  0  0  0  0
   -2.1513   26.0188  -24.6935 H   0  0  0  0  0  0  0  0  0  0  0  0
   -1.5005   27.5205  -25.3813 H   0  0  0  0  0  0  0  0  0  0  0  0
   -0.5538   24.8327  -29.6006 H   0  0  0  0  0  0  0  0  0  0  0  0
   -2.5607   23.7118  -30.5649 H   0  0  0  0  0  0  0  0  0  0  0  0
   -4.2430   20.5128  -31.0664 H   0  0  0  0  0  0  0  0  0  0  0  0
   -4.8063   19.7775  -32.6054 H   0  0  0  0  0  0  0  0  0  0  0  0
   -4.0961   21.4274  -32.6054 H   0  0  0  0  0  0  0  0  0  0  0  0
  1  2  1  0
  2  3  2  0
  2  4  1  0
  4  5  2  0
  5  6  1  0
  5  7  1  0
  7  8  1  0
  8  9  1  0
  9 10  2  0
  9 11  1  0
 11 12  1  0
 12 13  2  0
 13 14  1  0
 14 15  2  0
 15 16  1  0
 16 17  2  0
 16 18  2  0
 16 19  1  0
 19 20  1  0
 20 21  1  0
 21 22  1  0
 22 23  1  0
 15 24  1  0
 24 25  2  0
  8 26  2  0
 26 27  1  0
 26  4  1  0
 25 12  1  0
 23 19  1  0
  1 28  1  0
  1 29  1  0
  1 30  1  0
  6 31  1  0
  6 32  1  0
  6 33  1  0
  7 34  1  0
 11 35  1  0
 13 36  1  0
 14 37  1  0
 20 38  1  0
 20 39  1  0
 21 40  1  0
 21 41  1  0
 22 42  1  0
 22 43  1  0
 23 44  1  0
 23 45  1  0
 24 46  1  0
 25 47  1  0
 27 48  1  0
 27 49  1  0
 27 50  1  0
M  END
>  <UniqueID>  (40) 
39

>  <SMILES>  (40) 
CC(=O)c1c(C)[nH]c(C(=O)Nc2ccc(S(=O)(=O)N3CCCC3)cc2)c1C

>  <Energy>  (40) 
84.43323568589204

>  <Genealogy>  (40) 
CC(=O)c1c(C)[nH]c(C(=O)Nc2ccc(S(=O)(=O)N3CCCC3)cc2)c1C (3D coordinates assigned)
CC(=O)c1c(C)[nH]c(C(=O)Nc2ccc(S(=O)(=O)N3CCCC3)cc2)c1C (nonaromatic ring conformer: 84.43323568589204 kcal/mol)

>  <smiles>  (40) 
CC(=O)c1c(C)[nH]c(C(=O)Nc2ccc(S(=O)(=O)N3CCCC3)cc2)c1C

>  <score_type>  (40) 
oracle

>  <origin>  (40) 
adgpu

>  <m_score__min__energy>  (40) 
-9.1699999999999999

>  <m_primary>  (40) 
energy

$$$$
40:0
     RDKit          3D

 49 52  0  0  0  0  0  0  0  0999 V2000
   -9.1000   18.1830  -31.4600 C   0  0  0  0  0  0  0  0  0  0  0  0
   -8.8440   19.6700  -31.7020 C   0  0  0  0  0  0  0  0  0  0  0  0
   -8.2760   19.9610  -33.0980 C   0  0  0  0  0  0  0  0  0  0  0  0
   -6.5800   19.4160  -33.2980 S   0  0  0  0  0  0  0  0  0  0  0  0
   -6.4160   18.0600  -32.6680 O   0  0  0  0  0  0  0  0  0  0  0  0
   -6.2690   19.3060  -34.7630 O   0  0  0  0  0  0  0  0  0  0  0  0
   -5.4600   20.5670  -32.5700 C   0  0  0  0  0  0  0  0  0  0  0  0
   -5.7010   21.0470  -31.2770 C   0  0  0  0  0  0  0  0  0  0  0  0
   -4.8140   21.9500  -30.6830 C   0  0  0  0  0  0  0  0  0  0  0  0
   -3.6640   22.3740  -31.3760 C   0  0  0  0  0  0  0  0  0  0  0  0
   -2.7440   23.3260  -30.8150 N   0  0  0  0  0  0  0  0  0  0  0  0
   -2.7810   23.8360  -29.6190 C   0  0  0  0  0  0  0  0  0  0  0  0
   -3.7000   23.4250  -28.7020 N   0  0  0  0  0  0  0  0  0  0  0  0
   -3.7260   23.9400  -27.4450 C   0  0  0  0  0  0  0  0  0  0  0  0
   -2.7880   24.9050  -27.0710 C   0  0  0  0  0  0  0  0  0  0  0  0
   -2.7760   25.4650  -25.7880 C   0  0  0  0  0  0  0  0  0  0  0  0
   -1.8170   26.4260  -25.4560 C   0  0  0  0  0  0  0  0  0  0  0  0
   -0.8580   26.8410  -26.4000 C   0  0  0  0  0  0  0  0  0  0  0  0
    0.1590   27.8620  -26.0420 C   0  0  0  0  0  0  0  0  0  0  0  0
    0.6850   27.9210  -24.7400 C   0  0  0  0  0  0  0  0  0  0  0  0
    1.6440   28.8840  -24.4020 C   0  0  0  0  0  0  0  0  0  0  0  0
    2.2760   28.9350  -22.7650 Cl  0  0  0  0  0  0  0  0  0  0  0  0
    2.0880   29.7990  -25.3660 C   0  0  0  0  0  0  0  0  0  0  0  0
    3.0400   30.7560  -25.0310 O   0  0  0  0  0  0  0  0  0  0  0  0
    1.5700   29.7480  -26.6660 C   0  0  0  0  0  0  0  0  0  0  0  0
    2.1180   30.8840  -27.8900 Cl  0  0  0  0  0  0  0  0  0  0  0  0
    0.6120   28.7860  -27.0020 C   0  0  0  0  0  0  0  0  0  0  0  0
   -0.8770   26.2720  -27.6890 C   0  0  0  0  0  0  0  0  0  0  0  0
   -1.8360   25.3110  -28.0240 C   0  0  0  0  0  0  0  0  0  0  0  0
   -1.8530   24.7680  -29.2700 N   0  0  0  0  0  0  0  0  0  0  0  0
   -3.4500   21.9210  -32.6840 C   0  0  0  0  0  0  0  0  0  0  0  0
   -4.3370   21.0170  -33.2760 C   0  0  0  0  0  0  0  0  0  0  0  0
   -9.1336   17.9881  -30.3779 H   0  0  0  0  0  0  0  0  0  0  0  0
  -10.0605   17.8977  -31.9139 H   0  0  0  0  0  0  0  0  0  0  0  0
   -8.2902   17.5929  -31.9139 H   0  0  0  0  0  0  0  0  0  0  0  0
   -9.7946   20.2121  -31.5903 H   0  0  0  0  0  0  0  0  0  0  0  0
   -8.0950   19.9990  -30.9667 H   0  0  0  0  0  0  0  0  0  0  0  0
   -8.8992   19.4453  -33.8435 H   0  0  0  0  0  0  0  0  0  0  0  0
   -8.2868   21.0525  -33.2343 H   0  0  0  0  0  0  0  0  0  0  0  0
   -6.5922   20.7122  -30.7260 H   0  0  0  0  0  0  0  0  0  0  0  0
   -5.0153   22.3305  -29.6707 H   0  0  0  0  0  0  0  0  0  0  0  0
   -4.4833   23.5981  -26.7242 H   0  0  0  0  0  0  0  0  0  0  0  0
   -3.5203   25.1491  -25.0422 H   0  0  0  0  0  0  0  0  0  0  0  0
   -1.8113   26.8629  -24.4465 H   0  0  0  0  0  0  0  0  0  0  0  0
    0.3404   27.2045  -23.9798 H   0  0  0  0  0  0  0  0  0  0  0  0
    0.2093   28.7513  -28.0250 H   0  0  0  0  0  0  0  0  0  0  0  0
   -0.1331   26.5856  -28.4361 H   0  0  0  0  0  0  0  0  0  0  0  0
   -2.5773   22.2793  -33.2498 H   0  0  0  0  0  0  0  0  0  0  0  0
   -4.1525   20.6580  -34.2993 H   0  0  0  0  0  0  0  0  0  0  0  0
  1  2  1  0
  2  3  1  0
  3  4  1  0
  4  5  2  0
  4  6  2  0
  4  7  1  0
  7  8  2  0
  8  9  1  0
  9 10  2  0
 10 11  1  0
 11 12  2  3
 12 13  1  0
 13 14  2  0
 14 15  1  0
 15 16  2  0
 16 17  1  0
 17 18  2  0
 18 19  1  0
 19 20  2  0
 20 21  1  0
 21 22  1  0
 21 23  2  0
 23 24  1  0
 23 25  1  0
 25 26  1  0
 25 27  2  0
 18 28  1  0
 28 29  2  0
 29 30  1  0
 10 31  1  0
 31 32  2  0
 32  7  1  0
 30 12  1  0
 29 15  1  0
 27 19  1  0
  1 33  1  0
  1 34  1  0
  1 35  1  0
  2 36  1  0
  2 37  1  0
  3 38  1  0
  3 39  1  0
  8 40  1  0
  9 41  1  0
 14 42  1  0
 16 43  1  0
 17 44  1  0
 20 45  1  0
 27 46  1  0
 28 47  1  0
 31 48  1  0
 32 49  1  0
M  CHG  2  24  -1  30  -1
M  END
>  <UniqueID>  (41) 
40

>  <SMILES>  (41) 
CCCS(=O)(=O)c1ccc(N=c2ncc3ccc(-c4cc(Cl)c([O-])c(Cl)c4)cc3[n-]2)cc1

>  <Energy>  (41) 
63.2496851015736

>  <Genealogy>  (41) 
CCCS(=O)(=O)c1ccc(N=c2ncc3ccc(-c4cc(Cl)c([O-])c(Cl)c4)cc3[n-]2)cc1 (protonated)
CCCS(=O)(=O)c1ccc(N=c2ncc3ccc(-c4cc(Cl)c([O-])c(Cl)c4)cc3[n-]2)cc1 (3D coordinates assigned)
CCCS(=O)(=O)c1ccc(N=c2ncc3ccc(-c4cc(Cl)c([O-])c(Cl)c4)cc3[n-]2)cc1 (optimized conformer: 63.2496851015736 kcal/mol)

>  <smiles>  (41) 
CCCS(=O)(=O)c1ccc(N=c2ncc3ccc(-c4cc(Cl)c(O)c(Cl)c4)cc3[nH]2)cc1

>  <score_type>  (41) 
oracle

>  <origin>  (41) 
adgpu

>  <m_score__min__energy>  (41) 
-10

>  <m_primary>  (41) 
energy

$$$$
41:0
     RDKit          3D

 35 35  0  0  0  0  0  0  0  0999 V2000
   -9.0050   18.1980  -31.6390 C   0  0  0  0  0  0  0  0  0  0  0  0
   -9.3010   19.4040  -32.5230 C   0  0  0  0  0  0  0  0  0  0  0  0
   -8.5070   20.5680  -32.0940 N   0  0  0  0  0  0  0  0  0  0  0  0
   -9.1530   21.6500  -31.3350 C   0  0  0  0  0  0  0  0  0  0  0  0
   -8.9170   22.9980  -32.0100 C   0  0  0  0  0  0  0  0  0  0  0  0
   -7.0870   20.6120  -32.3590 C   0  0  0  0  0  0  0  0  0  0  0  0
   -6.5240   19.7420  -33.2410 N   0  0  0  0  0  0  0  0  0  0  0  0
   -5.1950   19.7760  -33.5110 C   0  0  0  0  0  0  0  0  0  0  0  0
   -4.3800   20.7200  -32.8880 C   0  0  0  0  0  0  0  0  0  0  0  0
   -4.9620   21.6220  -31.9830 C   0  0  0  0  0  0  0  0  0  0  0  0
   -4.1790   22.6370  -31.3150 N   0  0  0  0  0  0  0  0  0  0  0  0
   -2.7470   22.4450  -31.0680 C   0  0  0  0  0  0  0  0  0  0  0  0
   -4.9110   24.1620  -30.9010 S   0  0  0  0  0  0  0  0  0  0  0  0
   -5.7510   24.0160  -29.3410 C   0  0  0  0  0  0  0  0  0  0  0  0
   -5.8990   24.5660  -31.9600 O   0  0  0  0  0  0  0  0  0  0  0  0
   -3.8530   25.2260  -30.8100 O   0  0  0  0  0  0  0  0  0  0  0  0
   -6.3000   21.5380  -31.7460 N   0  0  0  0  0  0  0  0  0  0  0  0
   -9.0772   18.4920  -30.5815 H   0  0  0  0  0  0  0  0  0  0  0  0
   -9.7344   17.4018  -31.8488 H   0  0  0  0  0  0  0  0  0  0  0  0
   -7.9899   17.8299  -31.8488 H   0  0  0  0  0  0  0  0  0  0  0  0
   -9.0491   19.1588  -33.5653 H   0  0  0  0  0  0  0  0  0  0  0  0
  -10.3692   19.6524  -32.4382 H   0  0  0  0  0  0  0  0  0  0  0  0
  -10.2347   21.4575  -31.2814 H   0  0  0  0  0  0  0  0  0  0  0  0
   -8.7201   21.6801  -30.3242 H   0  0  0  0  0  0  0  0  0  0  0  0
   -8.7812   23.7738  -31.2421 H   0  0  0  0  0  0  0  0  0  0  0  0
   -8.0152   22.9411  -32.6372 H   0  0  0  0  0  0  0  0  0  0  0  0
   -9.7845   23.2509  -32.6372 H   0  0  0  0  0  0  0  0  0  0  0  0
   -4.7601   19.0582  -34.2220 H   0  0  0  0  0  0  0  0  0  0  0  0
   -3.3015   20.7575  -33.1014 H   0  0  0  0  0  0  0  0  0  0  0  0
   -2.5620   22.4202  -29.9840 H   0  0  0  0  0  0  0  0  0  0  0  0
   -2.4215   21.4952  -31.5173 H   0  0  0  0  0  0  0  0  0  0  0  0
   -2.1828   23.2755  -31.5173 H   0  0  0  0  0  0  0  0  0  0  0  0
   -5.0276   24.1417  -28.5219 H   0  0  0  0  0  0  0  0  0  0  0  0
   -6.5264   24.7928  -29.2679 H   0  0  0  0  0  0  0  0  0  0  0  0
   -6.2188   23.0231  -29.2679 H   0  0  0  0  0  0  0  0  0  0  0  0
  1  2  1  0
  2  3  1  0
  3  4  1  0
  4  5  1  0
  3  6  1  0
  6  7  2  0
  7  8  1  0
  8  9  2  0
  9 10  1  0
 10 11  1  0
 11 12  1  0
 11 13  1  0
 13 14  1  0
 13 15  2  0
 13 16  2  0
 10 17  2  0
 17  6  1  0
  1 18  1  0
  1 19  1  0
  1 20  1  0
  2 21  1  0
  2 22  1  0
  4 23  1  0
  4 24  1  0
  5 25  1  0
  5 26  1  0
  5 27  1  0
  8 28  1  0
  9 29  1  0
 12 30  1  0
 12 31  1  0
 12 32  1  0
 14 33  1  0
 14 34  1  0
 14 35  1  0
M  END
>  <UniqueID>  (42) 
41

>  <SMILES>  (42) 
CCN(CC)c1nccc(N(C)S(C)(=O)=O)n1

>  <Energy>  (42) 
23.589214752333593

>  <Genealogy>  (42) 
CCN(CC)c1nccc(N(C)S(C)(=O)=O)n1 (3D coordinates assigned)
CCN(CC)c1nccc(N(C)S(C)(=O)=O)n1 (optimized conformer: 23.589214752333593 kcal/mol)

>  <smiles>  (42) 
CCN(CC)c1nccc(N(C)S(C)(=O)=O)n1

>  <score_type>  (42) 
oracle

>  <origin>  (42) 
adgpu

>  <m_score__min__energy>  (42) 
-6.4699999999999998

>  <m_primary>  (42) 
energy

$$$$
42:0
     RDKit          3D

 36 38  0  0  0  0  0  0  0  0999 V2000
   -1.6190   25.6730  -29.3380 O   0  0  0  0  0  0  0  0  0  0  0  0
   -2.5060   24.6320  -29.0940 C   0  0  0  0  0  0  0  0  0  0  0  0
   -2.1310   23.5790  -28.2550 C   0  0  0  0  0  0  0  0  0  0  0  0
   -3.0230   22.5350  -27.9970 C   0  0  0  0  0  0  0  0  0  0  0  0
   -2.6390   21.4930  -27.1570 O   0  0  0  0  0  0  0  0  0  0  0  0
   -4.2940   22.5410  -28.5890 C   0  0  0  0  0  0  0  0  0  0  0  0
   -4.6710   23.5830  -29.4560 C   0  0  0  0  0  0  0  0  0  0  0  0
   -6.0220   23.5490  -30.1370 C   0  0  0  0  0  0  0  0  0  0  0  0
   -5.9650   23.4420  -31.6870 C   0  0  1  0  0  0  0  0  0  0  0  0
   -4.7710   22.5650  -32.1860 C   0  0  0  0  0  0  0  0  0  0  0  0
   -5.1600   21.3530  -33.0540 C   0  0  0  0  0  0  0  0  0  0  0  0
   -6.4500   20.7270  -32.6040 C   0  0  0  0  0  0  0  0  0  0  0  0
   -6.6100   19.3330  -32.5650 C   0  0  0  0  0  0  0  0  0  0  0  0
   -7.8450   18.7790  -32.2100 C   0  0  0  0  0  0  0  0  0  0  0  0
   -7.9970   17.4000  -32.1560 O   0  0  0  0  0  0  0  0  0  0  0  0
   -8.9270   19.6140  -31.9170 C   0  0  0  0  0  0  0  0  0  0  0  0
   -8.7780   21.0030  -31.9700 C   0  0  0  0  0  0  0  0  0  0  0  0
   -7.5330   21.5630  -32.2930 C   0  0  0  0  0  0  0  0  0  0  0  0
   -7.3280   23.0540  -32.3180 C   0  0  0  0  0  0  0  0  0  0  0  0
   -3.7720   24.6390  -29.6860 C   0  0  0  0  0  0  0  0  0  0  0  0
   -1.1311   23.5722  -27.7966 H   0  0  0  0  0  0  0  0  0  0  0  0
   -3.0760   20.5810  -27.2090 H   0  0  0  0  0  0  0  0  0  0  0  0
   -5.0008   21.7260  -28.3743 H   0  0  0  0  0  0  0  0  0  0  0  0
   -6.5773   22.6803  -29.7536 H   0  0  0  0  0  0  0  0  0  0  0  0
   -6.5093   24.5085  -29.9093 H   0  0  0  0  0  0  0  0  0  0  0  0
   -5.7579   24.4568  -32.0575 H   0  0  0  0  0  0  0  0  0  0  0  0
   -4.1028   23.2068  -32.7790 H   0  0  0  0  0  0  0  0  0  0  0  0
   -4.2992   22.1521  -31.2822 H   0  0  0  0  0  0  0  0  0  0  0  0
   -5.2714   21.6846  -34.0969 H   0  0  0  0  0  0  0  0  0  0  0  0
   -4.3654   20.5984  -32.9582 H   0  0  0  0  0  0  0  0  0  0  0  0
   -5.7639   18.6756  -32.8137 H   0  0  0  0  0  0  0  0  0  0  0  0
   -9.8987   19.1768  -31.6439 H   0  0  0  0  0  0  0  0  0  0  0  0
   -9.6369   21.6568  -31.7584 H   0  0  0  0  0  0  0  0  0  0  0  0
   -7.3530   23.4024  -33.3611 H   0  0  0  0  0  0  0  0  0  0  0  0
   -8.1306   23.5265  -31.7327 H   0  0  0  0  0  0  0  0  0  0  0  0
   -4.0668   25.4760  -30.3360 H   0  0  0  0  0  0  0  0  0  0  0  0
  1  2  1  0
  2  3  2  0
  3  4  1  0
  4  5  1  0
  4  6  2  0
  6  7  1  0
  7  8  1  0
  8  9  1  0
  9 10  1  0
 10 11  1  0
 11 12  1  0
 12 13  2  0
 13 14  1  0
 14 15  1  0
 14 16  2  0
 16 17  1  0
 17 18  2  0
 18 19  1  0
  7 20  2  0
 20  2  1  0
 19  9  1  0
 18 12  1  0
  3 21  1  0
  5 22  1  0
  6 23  1  0
  8 24  1  0
  8 25  1  0
  9 26  1  6
 10 27  1  0
 10 28  1  0
 11 29  1  0
 11 30  1  0
 13 31  1  0
 16 32  1  0
 17 33  1  0
 19 34  1  0
 19 35  1  0
 20 36  1  0
M  CHG  2   1  -1  15  -1
M  END
>  <UniqueID>  (43) 
42

>  <SMILES>  (43) 
[O-]c1cc(O)cc(C[C@H]2CCc3cc([O-])ccc3C2)c1

>  <Energy>  (43) 
41.475201501349765

>  <Genealogy>  (43) 
[O-]c1cc(O)cc(CC2CCc3cc([O-])ccc3C2)c1 (protonated)
[O-]c1cc(O)cc(C[C@H]2CCc3cc([O-])ccc3C2)c1 (chirality)
[O-]c1cc(O)cc(C[C@H]2CCc3cc([O-])ccc3C2)c1 (3D coordinates assigned)
[O-]c1cc(O)cc(C[C@H]2CCc3cc([O-])ccc3C2)c1 (nonaromatic ring conformer: 41.475201501349765 kcal/mol)

>  <smiles>  (43) 
Oc1cc(O)cc(CC2CCc3cc(O)ccc3C2)c1

>  <score_type>  (43) 
oracle

>  <origin>  (43) 
adgpu

>  <m_score__min__energy>  (43) 
-10.630000000000001

>  <m_primary>  (43) 
energy

$$$$
43:0
     RDKit          3D

 38 41  0  0  0  0  0  0  0  0999 V2000
    0.6820   20.9560  -33.9560 Cl  0  0  0  0  0  0  0  0  0  0  0  0
   -0.9390   20.3140  -33.7680 C   0  0  0  0  0  0  0  0  0  0  0  0
   -1.1790   18.9340  -33.9160 C   0  0  0  0  0  0  0  0  0  0  0  0
   -2.4760   18.4210  -33.7590 C   0  0  0  0  0  0  0  0  0  0  0  0
   -3.4980   19.3190  -33.4640 C   0  0  0  0  0  0  0  0  0  0  0  0
   -4.7910   18.9970  -33.2590 N   0  0  0  0  0  0  0  0  0  0  0  0
   -5.3840   20.1890  -33.0000 C   0  0  0  0  0  0  0  0  0  0  0  0
   -6.8220   20.3010  -32.6750 C   0  0  0  0  0  0  0  0  0  0  0  0
   -7.3410   21.5390  -32.2600 C   0  0  0  0  0  0  0  0  0  0  0  0
   -8.6930   21.6630  -31.9250 C   0  0  0  0  0  0  0  0  0  0  0  0
   -9.5340   20.5490  -31.9880 C   0  0  0  0  0  0  0  0  0  0  0  0
   -9.0230   19.3090  -32.3780 C   0  0  0  0  0  0  0  0  0  0  0  0
   -7.6720   19.1810  -32.7140 C   0  0  0  0  0  0  0  0  0  0  0  0
   -4.4300   21.2100  -33.0430 C   0  0  0  0  0  0  0  0  0  0  0  0
   -4.6100   22.6690  -32.7080 C   0  0  0  0  0  0  0  0  0  0  0  0
   -4.4890   22.9310  -31.2250 C   0  0  0  0  0  0  0  0  0  0  0  0
   -5.1070   24.0610  -30.6620 C   0  0  0  0  0  0  0  0  0  0  0  0
   -4.9800   24.3320  -29.2960 C   0  0  0  0  0  0  0  0  0  0  0  0
   -4.2260   23.4840  -28.4810 C   0  0  0  0  0  0  0  0  0  0  0  0
   -3.5950   22.3660  -29.0320 C   0  0  0  0  0  0  0  0  0  0  0  0
   -3.7180   22.0920  -30.3970 C   0  0  0  0  0  0  0  0  0  0  0  0
   -3.2490   20.6340  -33.3360 N   0  0  0  0  0  0  0  0  0  0  0  0
   -2.0080   21.1720  -33.4670 C   0  0  0  0  0  0  0  0  0  0  0  0
   -0.3468   18.2557  -34.1555 H   0  0  0  0  0  0  0  0  0  0  0  0
   -2.6782   17.3450  -33.8655 H   0  0  0  0  0  0  0  0  0  0  0  0
   -6.6798   22.4159  -32.1982 H   0  0  0  0  0  0  0  0  0  0  0  0
   -9.0946   22.6380  -31.6117 H   0  0  0  0  0  0  0  0  0  0  0  0
  -10.5988   20.6486  -31.7304 H   0  0  0  0  0  0  0  0  0  0  0  0
   -9.6848   18.4314  -32.4209 H   0  0  0  0  0  0  0  0  0  0  0  0
   -7.2720   18.2001  -33.0102 H   0  0  0  0  0  0  0  0  0  0  0  0
   -3.8400   23.2515  -33.2350 H   0  0  0  0  0  0  0  0  0  0  0  0
   -5.6210   22.9665  -33.0230 H   0  0  0  0  0  0  0  0  0  0  0  0
   -5.6947   24.7370  -31.3005 H   0  0  0  0  0  0  0  0  0  0  0  0
   -5.4744   25.2139  -28.8626 H   0  0  0  0  0  0  0  0  0  0  0  0
   -4.1292   23.6965  -27.4061 H   0  0  0  0  0  0  0  0  0  0  0  0
   -3.0000   21.6998  -28.3900 H   0  0  0  0  0  0  0  0  0  0  0  0
   -3.2099   21.2163  -30.8270 H   0  0  0  0  0  0  0  0  0  0  0  0
   -1.8455   22.2525  -33.3403 H   0  0  0  0  0  0  0  0  0  0  0  0
  1  2  1  0
  2  3  1  0
  3  4  2  0
  4  5  1  0
  5  6  2  0
  6  7  1  0
  7  8  1  0
  8  9  2  0
  9 10  1  0
 10 11  2  0
 11 12  1  0
 12 13  2  0
  7 14  2  0
 14 15  1  0
 15 16  1  0
 16 17  2  0
 17 18  1  0
 18 19  2  0
 19 20  1  0
 20 21  2  0
 14 22  1  0
 22 23  1  0
 23  2  2  0
 22  5  1  0
 13  8  1  0
 21 16  1  0
  3 24  1  0
  4 25  1  0
  9 26  1  0
 10 27  1  0
 11 28  1  0
 12 29  1  0
 13 30  1  0
 15 31  1  0
 15 32  1  0
 17 33  1  0
 18 34  1  0
 19 35  1  0
 20 36  1  0
 21 37  1  0
 23 38  1  0
M  END
>  <UniqueID>  (44) 
43

>  <SMILES>  (44) 
Clc1ccc2nc(-c3ccccc3)c(Cc3ccccc3)n2c1

>  <Energy>  (44) 
82.06593450574728

>  <Genealogy>  (44) 
Clc1ccc2nc(-c3ccccc3)c(Cc3ccccc3)n2c1 (3D coordinates assigned)
Clc1ccc2nc(-c3ccccc3)c(Cc3ccccc3)n2c1 (optimized conformer: 82.06593450574728 kcal/mol)

>  <smiles>  (44) 
Clc1ccc2nc(-c3ccccc3)c(Cc3ccccc3)n2c1

>  <score_type>  (44) 
oracle

>  <origin>  (44) 
adgpu

>  <m_score__min__energy>  (44) 
-8

>  <m_primary>  (44) 
energy

$$$$
44:0
     RDKit          3D

 60 64  0  0  0  0  0  0  0  0999 V2000
   -6.7190   22.9140  -31.4360 C   0  0  0  0  0  0  0  0  0  0  0  0
   -5.5550   23.6960  -30.9370 C   0  0  0  0  0  0  0  0  0  0  0  0
   -5.3850   25.0160  -31.1730 N   0  0  0  0  0  0  0  0  0  0  0  0
   -4.2330   25.4930  -30.7050 N   0  0  0  0  0  0  0  0  0  0  0  0
   -3.4730   24.5500  -30.1080 C   0  0  0  0  0  0  0  0  0  0  0  0
   -2.3140   24.8190  -29.5890 N   0  0  0  0  0  0  0  0  0  0  0  0
   -1.2930   23.6540  -28.8080 S   0  0  0  0  0  0  0  0  0  0  0  0
    0.0780   24.2380  -28.6030 O   0  0  0  0  0  0  0  0  0  0  0  0
   -1.8710   23.3180  -27.4620 O   0  0  0  0  0  0  0  0  0  0  0  0
   -1.2090   22.1840  -29.7750 C   0  0  0  0  0  0  0  0  0  0  0  0
   -0.9630   20.9560  -29.1500 C   0  0  0  0  0  0  0  0  0  0  0  0
   -0.9020   19.7810  -29.9040 C   0  0  0  0  0  0  0  0  0  0  0  0
   -1.0820   19.8210  -31.2990 C   0  0  0  0  0  0  0  0  0  0  0  0
   -1.0560   18.6230  -32.0940 N   0  0  0  0  0  0  0  0  0  0  0  0
   -0.2570   17.4710  -31.7760 C   0  0  0  0  0  0  0  0  0  0  0  0
    0.7300   17.5860  -30.9980 O   0  0  0  0  0  0  0  0  0  0  0  0
   -0.5430   16.1590  -32.4030 C   0  0  0  0  0  0  0  0  0  0  0  0
    0.4870   15.4310  -33.0240 C   0  0  0  0  0  0  0  0  0  0  0  0
    0.2150   14.2050  -33.6370 C   0  0  0  0  0  0  0  0  0  0  0  0
   -1.0820   13.6890  -33.6330 C   0  0  0  0  0  0  0  0  0  0  0  0
   -2.1140   14.3890  -32.9980 C   0  0  0  0  0  0  0  0  0  0  0  0
   -3.7510   13.7350  -32.9990 S   0  0  0  0  0  0  0  0  0  0  0  0
   -4.4970   14.2300  -31.7900 O   0  0  0  0  0  0  0  0  0  0  0  0
   -3.6650   12.2360  -32.9110 O   0  0  0  0  0  0  0  0  0  0  0  0
   -4.5820   14.1800  -34.4760 N   0  0  0  0  0  0  0  0  0  0  0  0
   -3.7450   14.9650  -35.4020 C   0  0  0  0  0  0  0  0  0  0  0  0
   -3.4120   16.3690  -34.8730 C   0  0  0  0  0  0  0  0  0  0  0  0
   -4.5770   17.0270  -34.1790 C   0  0  0  0  0  0  0  0  0  0  0  0
   -4.4830   18.3830  -33.8250 C   0  0  0  0  0  0  0  0  0  0  0  0
   -5.5230   19.0050  -33.1290 C   0  0  0  0  0  0  0  0  0  0  0  0
   -6.6600   18.2780  -32.7750 C   0  0  0  0  0  0  0  0  0  0  0  0
   -6.7600   16.9250  -33.1120 C   0  0  0  0  0  0  0  0  0  0  0  0
   -5.7150   16.2850  -33.7980 C   0  0  0  0  0  0  0  0  0  0  0  0
   -5.8710   14.8410  -34.2050 C   0  0  0  0  0  0  0  0  0  0  0  0
   -1.8420   15.6190  -32.3820 C   0  0  0  0  0  0  0  0  0  0  0  0
   -1.3530   21.0520  -31.9160 C   0  0  0  0  0  0  0  0  0  0  0  0
   -1.4080   22.2270  -31.1620 C   0  0  0  0  0  0  0  0  0  0  0  0
   -4.2240   23.0360  -30.1420 S   0  0  0  0  0  0  0  0  0  0  0  0
   -7.2943   22.5275  -30.5819 H   0  0  0  0  0  0  0  0  0  0  0  0
   -7.3623   23.5638  -32.0475 H   0  0  0  0  0  0  0  0  0  0  0  0
   -6.3606   22.0728  -32.0475 H   0  0  0  0  0  0  0  0  0  0  0  0
   -0.8170   20.9156  -28.0605 H   0  0  0  0  0  0  0  0  0  0  0  0
   -0.7122   18.8196  -29.4043 H   0  0  0  0  0  0  0  0  0  0  0  0
   -1.5540   18.6380  -33.0120 H   0  0  0  0  0  0  0  0  0  0  0  0
    1.5126   15.8286  -33.0274 H   0  0  0  0  0  0  0  0  0  0  0  0
    1.0261   13.6444  -34.1246 H   0  0  0  0  0  0  0  0  0  0  0  0
   -1.2932   12.7306  -34.1298 H   0  0  0  0  0  0  0  0  0  0  0  0
   -2.8033   14.4215  -35.5686 H   0  0  0  0  0  0  0  0  0  0  0  0
   -4.3177   15.0930  -36.3324 H   0  0  0  0  0  0  0  0  0  0  0  0
   -2.5794   16.2864  -34.1589 H   0  0  0  0  0  0  0  0  0  0  0  0
   -3.1487   16.9938  -35.7392 H   0  0  0  0  0  0  0  0  0  0  0  0
   -3.5859   18.9585  -34.0971 H   0  0  0  0  0  0  0  0  0  0  0  0
   -5.4451   20.0688  -32.8600 H   0  0  0  0  0  0  0  0  0  0  0  0
   -7.4789   18.7702  -32.2299 H   0  0  0  0  0  0  0  0  0  0  0  0
   -7.6623   16.3585  -32.8383 H   0  0  0  0  0  0  0  0  0  0  0  0
   -6.3791   14.3002  -33.3930 H   0  0  0  0  0  0  0  0  0  0  0  0
   -6.4548   14.8216  -35.1371 H   0  0  0  0  0  0  0  0  0  0  0  0
   -2.6517   16.1667  -31.8777 H   0  0  0  0  0  0  0  0  0  0  0  0
   -1.5235   21.0921  -33.0020 H   0  0  0  0  0  0  0  0  0  0  0  0
   -1.6080   23.1883  -31.6580 H   0  0  0  0  0  0  0  0  0  0  0  0
  1  2  1  0
  2  3  2  0
  3  4  1  0
  4  5  1  0
  5  6  2  3
  6  7  1  0
  7  8  2  0
  7  9  2  0
  7 10  1  0
 10 11  2  0
 11 12  1  0
 12 13  2  0
 13 14  1  0
 14 15  1  0
 15 16  2  0
 15 17  1  0
 17 18  2  0
 18 19  1  0
 19 20  2  0
 20 21  1  0
 21 22  1  0
 22 23  2  0
 22 24  2  0
 22 25  1  0
 25 26  1  0
 26 27  1  0
 27 28  1  0
 28 29  2  0
 29 30  1  0
 30 31  2  0
 31 32  1  0
 32 33  2  0
 33 34  1  0
 21 35  2  0
 13 36  1  0
 36 37  2  0
  5 38  1  0
 38  2  1  0
 37 10  1  0
 35 17  1  0
 34 25  1  0
 33 28  1  0
  1 39  1  0
  1 40  1  0
  1 41  1  0
 11 42  1  0
 12 43  1  0
 14 44  1  0
 18 45  1  0
 19 46  1  0
 20 47  1  0
 26 48  1  0
 26 49  1  0
 27 50  1  0
 27 51  1  0
 29 52  1  0
 30 53  1  0
 31 54  1  0
 32 55  1  0
 34 56  1  0
 34 57  1  0
 35 58  1  0
 36 59  1  0
 37 60  1  0
M  CHG  1   4  -1
M  END
>  <UniqueID>  (45) 
44

>  <SMILES>  (45) 
Cc1n[n-]c(=NS(=O)(=O)c2ccc(NC(=O)c3cccc(S(=O)(=O)N4CCc5ccccc5C4)c3)cc2)s1

>  <Energy>  (45) 
111.93715668306382

>  <Genealogy>  (45) 
Cc1n[n-]c(=NS(=O)(=O)c2ccc(NC(=O)c3cccc(S(=O)(=O)N4CCc5ccccc5C4)c3)cc2)s1 (protonated)
Cc1n[n-]c(=NS(=O)(=O)c2ccc(NC(=O)c3cccc(S(=O)(=O)N4CCc5ccccc5C4)c3)cc2)s1 (3D coordinates assigned)
Cc1n[n-]c(=NS(=O)(=O)c2ccc(NC(=O)c3cccc(S(=O)(=O)N4CCc5ccccc5C4)c3)cc2)s1 (nonaromatic ring conformer: 111.93715668306382 kcal/mol)

>  <smiles>  (45) 
Cc1n[nH]c(=NS(=O)(=O)c2ccc(NC(=O)c3cccc(S(=O)(=O)N4CCc5ccccc5C4)c3)cc2)s1

>  <score_type>  (45) 
oracle

>  <origin>  (45) 
adgpu

>  <m_score__min__energy>  (45) 
-12.130000000000001

>  <m_primary>  (45) 
energy

$$$$
45:0
     RDKit          3D

 38 40  0  0  0  0  0  0  0  0999 V2000
   -1.4312   20.7463  -26.2540 H   0  0  0  0  0  0  0  0  0  0  0  0
   -1.8310   21.4500  -26.9990 C   0  0  0  0  0  0  0  0  0  0  0  0
   -3.1220   21.2810  -27.4910 C   0  0  0  0  0  0  0  0  0  0  0  0
   -3.7466   20.4540  -27.1223 H   0  0  0  0  0  0  0  0  0  0  0  0
   -3.6250   22.1600  -28.4520 C   0  0  0  0  0  0  0  0  0  0  0  0
   -4.6457   22.0186  -28.8369 H   0  0  0  0  0  0  0  0  0  0  0  0
   -2.8410   23.2250  -28.9340 C   0  0  0  0  0  0  0  0  0  0  0  0
   -3.3910   24.0500  -30.0330 C   0  0  0  0  0  0  0  0  0  0  0  0
   -3.5180   25.2950  -29.8870 O   0  0  0  0  0  0  0  0  0  0  0  0
   -3.7780   23.4210  -31.2620 N   0  0  0  0  0  0  0  0  0  0  0  0
   -4.8330   22.4640  -31.4420 C   0  0  0  0  0  0  0  0  0  0  0  0
   -6.0980   22.6280  -30.8490 C   0  0  0  0  0  0  0  0  0  0  0  0
   -6.2950   23.5012  -30.2097 H   0  0  0  0  0  0  0  0  0  0  0  0
   -7.1060   21.6840  -31.0700 C   0  0  0  0  0  0  0  0  0  0  0  0
   -8.0905   21.8128  -30.5965 H   0  0  0  0  0  0  0  0  0  0  0  0
   -6.8670   20.5750  -31.8920 C   0  0  0  0  0  0  0  0  0  0  0  0
   -8.1550   19.4080  -32.1740 S   0  0  0  0  0  0  0  0  0  0  0  0
   -8.8600   19.7590  -33.4550 O   0  0  0  0  0  0  0  0  0  0  0  0
   -9.1550   19.4300  -31.0520 O   0  0  0  0  0  0  0  0  0  0  0  0
   -7.4810   17.8170  -32.3100 N   0  0  0  0  0  0  0  0  0  0  0  0
   -6.6540   17.4780  -33.2490 C   0  0  0  0  0  0  0  0  0  0  0  0
   -6.2200   18.3050  -34.2190 N   0  0  0  0  0  0  0  0  0  0  0  0
   -5.3970   17.6020  -34.9820 N   0  0  0  0  0  0  0  0  0  0  0  0
   -4.9050   17.9820  -35.8190 H   0  0  0  0  0  0  0  0  0  0  0  0
   -5.3030   16.3430  -34.5120 C   0  0  0  0  0  0  0  0  0  0  0  0
   -4.6901   15.5411  -34.9495 H   0  0  0  0  0  0  0  0  0  0  0  0
   -6.1010   16.2230  -33.3920 C   0  0  0  0  0  0  0  0  0  0  0  0
   -6.2586   15.3352  -32.7619 H   0  0  0  0  0  0  0  0  0  0  0  0
   -5.6160   20.4250  -32.5040 C   0  0  0  0  0  0  0  0  0  0  0  0
   -5.4260   19.5624  -33.1596 H   0  0  0  0  0  0  0  0  0  0  0  0
   -4.6090   21.3680  -32.2840 C   0  0  0  0  0  0  0  0  0  0  0  0
   -3.6325   21.2485  -32.7761 H   0  0  0  0  0  0  0  0  0  0  0  0
   -1.5360   23.4220  -28.4020 C   0  0  0  0  0  0  0  0  0  0  0  0
   -0.6970   24.5920  -28.7540 C   0  0  0  0  0  0  0  0  0  0  0  0
    0.5540   24.5430  -28.6070 O   0  0  0  0  0  0  0  0  0  0  0  0
   -1.2790   25.7770  -29.1910 O   0  0  0  0  0  0  0  0  0  0  0  0
   -1.0420   22.5110  -27.4490 C   0  0  0  0  0  0  0  0  0  0  0  0
   -0.0229   22.6363  -27.0543 H   0  0  0  0  0  0  0  0  0  0  0  0
  1  2  1  0
  2  3  2  0
  3  4  1  0
  3  5  1  0
  5  6  1  0
  5  7  2  0
  7  8  1  0
  8  9  2  0
  8 10  1  0
 10 11  1  0
 11 12  2  0
 12 13  1  0
 12 14  1  0
 14 15  1  0
 14 16  2  0
 16 17  1  0
 17 18  2  0
 17 19  2  0
 17 20  1  0
 20 21  2  0
 21 22  1  0
 22 23  1  0
 23 24  1  0
 23 25  1  0
 25 26  1  0
 25 27  2  0
 27 28  1  0
 16 29  1  0
 29 30  1  0
 29 31  2  0
 31 32  1  0
  7 33  1  0
 33 34  1  0
 34 35  2  0
 34 36  1  0
 33 37  2  0
 37 38  1  0
 37  2  1  0
 31 11  1  0
 27 21  1  0
M  CHG  3  10  -1  22  -1  36  -1
M  END
>  <UniqueID>  (46) 
45

>  <SMILES>  (46) 
O=C([O-])c1ccccc1C(=O)[N-]c1ccc(S(=O)(=O)/N=c2/cc[nH][n-]2)cc1

>  <Energy>  (46) 
86.52156783550626

>  <Genealogy>  (46) 
O=C([O-])c1ccccc1C(=O)[N-]c1ccc(S(=O)(=O)N=c2cc[nH][n-]2)cc1 (protonated)
O=C([O-])c1ccccc1C(=O)[N-]c1ccc(S(=O)(=O)/N=c2/cc[nH][n-]2)cc1 (cis-trans isomerization)
O=C([O-])c1ccccc1C(=O)[N-]c1ccc(S(=O)(=O)/N=c2/cc[nH][n-]2)cc1 (3D coordinates assigned)
O=C([O-])c1ccccc1C(=O)[N-]c1ccc(S(=O)(=O)/N=c2/cc[nH][n-]2)cc1 (optimized conformer: 86.52156783550626 kcal/mol)

>  <smiles>  (46) 
O=C(O)c1ccccc1C(=O)Nc1ccc(S(=O)(=O)N=c2cc[nH][nH]2)cc1

>  <score_type>  (46) 
oracle

>  <origin>  (46) 
adgpu

>  <m_score__min__energy>  (46) 
-11.960000000000001

>  <m_primary>  (46) 
energy

$$$$
46:0
     RDKit          3D

 37 38  0  0  0  0  0  0  0  0999 V2000
   -2.7370   23.9490  -29.6970 C   0  0  0  0  0  0  0  0  0  0  0  0
   -3.4920   24.9110  -30.4910 N   0  0  0  0  0  0  0  0  0  0  0  0
   -5.1240   25.0040  -29.9020 S   0  0  0  0  0  0  0  0  0  0  0  0
   -5.7330   26.3200  -30.3000 O   0  0  0  0  0  0  0  0  0  0  0  0
   -5.1130   24.9210  -28.4020 O   0  0  0  0  0  0  0  0  0  0  0  0
   -6.0820   23.6720  -30.5440 C   0  0  0  0  0  0  0  0  0  0  0  0
   -7.0310   23.0410  -29.7290 C   0  0  0  0  0  0  0  0  0  0  0  0
   -7.7790   21.9680  -30.2210 C   0  0  0  0  0  0  0  0  0  0  0  0
   -7.5870   21.5170  -31.5340 C   0  0  0  0  0  0  0  0  0  0  0  0
   -8.5090   20.1400  -32.1320 S   0  0  0  0  0  0  0  0  0  0  0  0
   -8.8120   19.2180  -30.9840 O   0  0  0  0  0  0  0  0  0  0  0  0
   -9.8110   20.6070  -32.7220 O   0  0  0  0  0  0  0  0  0  0  0  0
   -7.5970   19.2790  -33.3330 N   0  0  0  0  0  0  0  0  0  0  0  0
   -6.6170   18.4070  -32.6820 C   0  0  0  0  0  0  0  0  0  0  0  0
   -5.2660   19.0660  -32.6960 C   0  0  0  0  0  0  0  0  0  0  0  0
   -4.8060   19.7590  -31.5630 C   0  0  0  0  0  0  0  0  0  0  0  0
   -3.5640   20.4010  -31.5880 C   0  0  0  0  0  0  0  0  0  0  0  0
   -2.7800   20.3670  -32.7440 C   0  0  0  0  0  0  0  0  0  0  0  0
   -3.2390   19.6940  -33.8810 C   0  0  0  0  0  0  0  0  0  0  0  0
   -4.4800   19.0500  -33.8590 C   0  0  0  0  0  0  0  0  0  0  0  0
   -6.6310   22.1430  -32.3470 C   0  0  0  0  0  0  0  0  0  0  0  0
   -5.8830   23.2150  -31.8540 C   0  0  0  0  0  0  0  0  0  0  0  0
   -2.8958   24.1514  -28.6275 H   0  0  0  0  0  0  0  0  0  0  0  0
   -3.0793   22.9304  -29.9322 H   0  0  0  0  0  0  0  0  0  0  0  0
   -1.6663   24.0394  -29.9322 H   0  0  0  0  0  0  0  0  0  0  0  0
   -7.1879   23.3914  -28.6982 H   0  0  0  0  0  0  0  0  0  0  0  0
   -8.5211   21.4756  -29.5754 H   0  0  0  0  0  0  0  0  0  0  0  0
   -8.2770   18.6750  -33.8520 H   0  0  0  0  0  0  0  0  0  0  0  0
   -6.9241   18.2241  -31.6417 H   0  0  0  0  0  0  0  0  0  0  0  0
   -6.5623   17.4513  -33.2239 H   0  0  0  0  0  0  0  0  0  0  0  0
   -5.4246   19.7964  -30.6542 H   0  0  0  0  0  0  0  0  0  0  0  0
   -3.2035   20.9339  -30.6958 H   0  0  0  0  0  0  0  0  0  0  0  0
   -1.8017   20.8696  -32.7599 H   0  0  0  0  0  0  0  0  0  0  0  0
   -2.6237   19.6713  -34.7925 H   0  0  0  0  0  0  0  0  0  0  0  0
   -4.8420   18.5284  -34.7573 H   0  0  0  0  0  0  0  0  0  0  0  0
   -6.4696   21.7889  -33.3759 H   0  0  0  0  0  0  0  0  0  0  0  0
   -5.1349   23.7024  -32.4965 H   0  0  0  0  0  0  0  0  0  0  0  0
  1  2  1  0
  2  3  1  0
  3  4  2  0
  3  5  2  0
  3  6  1  0
  6  7  2  0
  7  8  1  0
  8  9  2  0
  9 10  1  0
 10 11  2  0
 10 12  2  0
 10 13  1  0
 13 14  1  0
 14 15  1  0
 15 16  2  0
 16 17  1  0
 17 18  2  0
 18 19  1  0
 19 20  2  0
  9 21  1  0
 21 22  2  0
 22  6  1  0
 20 15  1  0
  1 23  1  0
  1 24  1  0
  1 25  1  0
  7 26  1  0
  8 27  1  0
 13 28  1  0
 14 29  1  0
 14 30  1  0
 16 31  1  0
 17 32  1  0
 18 33  1  0
 19 34  1  0
 20 35  1  0
 21 36  1  0
 22 37  1  0
M  CHG  1   2  -1
M  END
>  <UniqueID>  (47) 
46

>  <SMILES>  (47) 
C[N-]S(=O)(=O)c1ccc(S(=O)(=O)NCc2ccccc2)cc1

>  <Energy>  (47) 
32.05414525941326

>  <Genealogy>  (47) 
C[N-]S(=O)(=O)c1ccc(S(=O)(=O)NCc2ccccc2)cc1 (protonated)
C[N-]S(=O)(=O)c1ccc(S(=O)(=O)NCc2ccccc2)cc1 (3D coordinates assigned)
C[N-]S(=O)(=O)c1ccc(S(=O)(=O)NCc2ccccc2)cc1 (optimized conformer: 32.05414525941326 kcal/mol)

>  <smiles>  (47) 
CNS(=O)(=O)c1ccc(S(=O)(=O)NCc2ccccc2)cc1

>  <score_type>  (47) 
oracle

>  <origin>  (47) 
adgpu

>  <m_score__min__energy>  (47) 
-9.7100000000000009

>  <m_primary>  (47) 
energy

$$$$
47:0
     RDKit          3D

 36 38  0  0  0  0  0  0  0  0999 V2000
   -6.2780   19.6360  -34.1500 C   0  0  0  0  0  0  0  0  0  0  0  0
   -5.7340   18.2580  -33.9250 C   0  0  0  0  0  0  0  0  0  0  0  0
   -4.6890   17.8680  -34.6930 C   0  0  0  0  0  0  0  0  0  0  0  0
   -4.1670   16.6170  -34.4940 C   0  0  0  0  0  0  0  0  0  0  0  0
   -4.6650   15.7640  -33.5540 C   0  0  0  0  0  0  0  0  0  0  0  0
   -5.7280   16.2040  -32.7940 C   0  0  0  0  0  0  0  0  0  0  0  0
   -6.3210   17.4320  -32.9140 C   0  0  0  0  0  0  0  0  0  0  0  0
   -7.3690   18.0210  -32.2760 N   0  0  0  0  0  0  0  0  0  0  0  0
   -8.4220   18.6150  -31.6350 C   0  0  0  0  0  0  0  0  0  0  0  0
   -8.3470   20.1290  -31.5690 C   0  0  0  0  0  0  0  0  0  0  0  0
   -7.5350   20.9400  -31.3140 N   0  0  0  0  0  0  0  0  0  0  0  0
   -7.6130   22.2500  -31.2980 C   0  0  0  0  0  0  0  0  0  0  0  0
   -6.5410   23.1680  -30.9560 C   0  0  0  0  0  0  0  0  0  0  0  0
   -5.2220   22.8100  -31.1100 C   0  0  0  0  0  0  0  0  0  0  0  0
   -4.1890   23.6730  -30.7840 C   0  0  0  0  0  0  0  0  0  0  0  0
   -4.4510   24.9210  -30.2960 C   0  0  0  0  0  0  0  0  0  0  0  0
   -5.7780   25.2800  -30.1430 C   0  0  0  0  0  0  0  0  0  0  0  0
   -6.8060   24.4210  -30.4660 C   0  0  0  0  0  0  0  0  0  0  0  0
   -8.9270   22.6810  -31.6620 C   0  0  0  0  0  0  0  0  0  0  0  0
   -9.8620   21.1510  -31.9740 S   0  0  0  0  0  0  0  0  0  0  0  0
   -6.4683   20.1180  -33.1797 H   0  0  0  0  0  0  0  0  0  0  0  0
   -5.5471   20.2306  -34.7177 H   0  0  0  0  0  0  0  0  0  0  0  0
   -7.2179   19.5710  -34.7177 H   0  0  0  0  0  0  0  0  0  0  0  0
   -4.2698   18.5388  -35.4574 H   0  0  0  0  0  0  0  0  0  0  0  0
   -3.3184   16.2900  -35.1128 H   0  0  0  0  0  0  0  0  0  0  0  0
   -4.2348   14.7623  -33.4075 H   0  0  0  0  0  0  0  0  0  0  0  0
   -6.1295   15.5170  -32.0345 H   0  0  0  0  0  0  0  0  0  0  0  0
   -6.5740   19.0010  -31.8050 H   0  0  0  0  0  0  0  0  0  0  0  0
   -9.3459   18.3398  -32.1648 H   0  0  0  0  0  0  0  0  0  0  0  0
   -8.3979   18.2555  -30.5957 H   0  0  0  0  0  0  0  0  0  0  0  0
   -4.9810   21.8112  -31.5027 H   0  0  0  0  0  0  0  0  0  0  0  0
   -3.1464   23.3496  -30.9197 H   0  0  0  0  0  0  0  0  0  0  0  0
   -3.6380   25.6143  -30.0346 H   0  0  0  0  0  0  0  0  0  0  0  0
   -6.0196   26.2795  -29.7524 H   0  0  0  0  0  0  0  0  0  0  0  0
   -7.8488   24.7434  -30.3295 H   0  0  0  0  0  0  0  0  0  0  0  0
   -9.2939   23.7153  -31.7373 H   0  0  0  0  0  0  0  0  0  0  0  0
  1  2  1  0
  2  3  2  0
  3  4  1  0
  4  5  2  0
  5  6  1  0
  6  7  2  0
  7  8  1  0
  8  9  1  0
  9 10  1  0
 10 11  2  0
 11 12  1  0
 12 13  1  0
 13 14  2  0
 14 15  1  0
 15 16  2  0
 16 17  1  0
 17 18  2  0
 12 19  2  0
 19 20  1  0
  7  2  1  0
 20 10  1  0
 18 13  1  0
  1 21  1  0
  1 22  1  0
  1 23  1  0
  3 24  1  0
  4 25  1  0
  5 26  1  0
  6 27  1  0
  8 28  1  0
  9 29  1  0
  9 30  1  0
 14 31  1  0
 15 32  1  0
 16 33  1  0
 17 34  1  0
 18 35  1  0
 19 36  1  0
M  END
>  <UniqueID>  (48) 
47

>  <SMILES>  (48) 
Cc1ccccc1NCc1nc(-c2ccccc2)cs1

>  <Energy>  (48) 
293.48329583772875

>  <Genealogy>  (48) 
Cc1ccccc1NCc1nc(-c2ccccc2)cs1 (3D coordinates assigned)
Cc1ccccc1NCc1nc(-c2ccccc2)cs1 (optimized conformer: 293.48329583772875 kcal/mol)

>  <smiles>  (48) 
Cc1ccccc1NCc1nc(-c2ccccc2)cs1

>  <score_type>  (48) 
oracle

>  <origin>  (48) 
adgpu

>  <m_score__min__energy>  (48) 
-7.9000000000000004

>  <m_primary>  (48) 
energy

$$$$
48:0
     RDKit          3D

 36 38  0  0  0  0  0  0  0  0999 V2000
   -0.8760   21.0340  -34.1310 C   0  0  0  0  0  0  0  0  0  0  0  0
   -2.1080   20.6920  -33.4090 N   0  0  0  0  0  0  0  0  0  0  0  0
   -2.8910   19.6690  -33.8660 C   0  0  0  0  0  0  0  0  0  0  0  0
   -4.0540   19.3060  -33.1890 C   0  0  0  0  0  0  0  0  0  0  0  0
   -4.4330   19.9980  -32.0320 C   0  0  0  0  0  0  0  0  0  0  0  0
   -5.6300   19.6260  -31.3240 N   0  0  0  0  0  0  0  0  0  0  0  0
   -6.9450   20.0960  -31.6690 C   0  0  0  0  0  0  0  0  0  0  0  0
   -7.8570   19.2140  -32.2710 C   0  0  0  0  0  0  0  0  0  0  0  0
   -9.1480   19.6430  -32.5950 C   0  0  0  0  0  0  0  0  0  0  0  0
   -9.5430   20.9530  -32.3080 C   0  0  0  0  0  0  0  0  0  0  0  0
   -8.6510   21.8320  -31.6920 C   0  0  0  0  0  0  0  0  0  0  0  0
   -7.3580   21.4070  -31.3660 C   0  0  0  0  0  0  0  0  0  0  0  0
   -3.6160   21.0380  -31.5580 C   0  0  0  0  0  0  0  0  0  0  0  0
   -3.9740   21.7520  -30.3660 N   0  0  0  0  0  0  0  0  0  0  0  0
   -4.2190   23.1640  -30.3540 C   0  0  0  0  0  0  0  0  0  0  0  0
   -5.4610   23.7540  -30.2600 C   0  0  0  0  0  0  0  0  0  0  0  0
   -5.1680   25.1000  -30.3310 C   0  0  0  0  0  0  0  0  0  0  0  0
   -6.0160   26.0280  -30.2830 O   0  0  0  0  0  0  0  0  0  0  0  0
   -3.8440   25.3050  -30.4660 N   0  0  0  0  0  0  0  0  0  0  0  0
   -3.2700   24.1140  -30.4810 N   0  0  0  0  0  0  0  0  0  0  0  0
   -2.4400   21.3640  -32.2610 C   0  0  0  0  0  0  0  0  0  0  0  0
   -1.6840   22.2730  -31.8170 O   0  0  0  0  0  0  0  0  0  0  0  0
   -0.0770   21.2558  -33.4082 H   0  0  0  0  0  0  0  0  0  0  0  0
   -0.5738   20.1858  -34.7628 H   0  0  0  0  0  0  0  0  0  0  0  0
   -1.0543   21.9166  -34.7628 H   0  0  0  0  0  0  0  0  0  0  0  0
   -2.6002   19.1265  -34.7777 H   0  0  0  0  0  0  0  0  0  0  0  0
   -4.6732   18.4773  -33.5629 H   0  0  0  0  0  0  0  0  0  0  0  0
   -5.5440   18.9590  -30.5260 H   0  0  0  0  0  0  0  0  0  0  0  0
   -7.5540   18.1793  -32.4890 H   0  0  0  0  0  0  0  0  0  0  0  0
   -9.8532   18.9492  -33.0760 H   0  0  0  0  0  0  0  0  0  0  0  0
  -10.5570   21.2910  -32.5677 H   0  0  0  0  0  0  0  0  0  0  0  0
   -8.9648   22.8609  -31.4622 H   0  0  0  0  0  0  0  0  0  0  0  0
   -6.6619   22.1002  -30.8711 H   0  0  0  0  0  0  0  0  0  0  0  0
   -4.1230   21.2150  -29.4810 H   0  0  0  0  0  0  0  0  0  0  0  0
   -6.4435   23.2707  -30.1544 H   0  0  0  0  0  0  0  0  0  0  0  0
   -2.2430   23.9630  -30.5950 H   0  0  0  0  0  0  0  0  0  0  0  0
  1  2  1  0
  2  3  1  0
  3  4  2  0
  4  5  1  0
  5  6  1  0
  6  7  1  0
  7  8  2  0
  8  9  1  0
  9 10  2  0
 10 11  1  0
 11 12  2  0
  5 13  2  0
 13 14  1  0
 14 15  1  0
 15 16  2  0
 16 17  1  0
 17 18  2  0
 17 19  1  0
 19 20  1  0
 13 21  1  0
 21 22  2  0
 21  2  1  0
 12  7  1  0
 20 15  1  0
  1 23  1  0
  1 24  1  0
  1 25  1  0
  3 26  1  0
  4 27  1  0
  6 28  1  0
  8 29  1  0
  9 30  1  0
 10 31  1  0
 11 32  1  0
 12 33  1  0
 14 34  1  0
 16 35  1  0
 20 36  1  0
M  CHG  1  19  -1
M  END
>  <UniqueID>  (49) 
48

>  <SMILES>  (49) 
Cn1ccc(Nc2ccccc2)c(Nc2cc(=O)[n-][nH]2)c1=O

>  <Energy>  (49) 
83.80741849838495

>  <Genealogy>  (49) 
Cn1ccc(Nc2ccccc2)c(Nc2cc(=O)[n-][nH]2)c1=O (protonated)
Cn1ccc(Nc2ccccc2)c(Nc2cc(=O)[n-][nH]2)c1=O (3D coordinates assigned)
Cn1ccc(Nc2ccccc2)c(Nc2cc(=O)[n-][nH]2)c1=O (optimized conformer: 83.80741849838495 kcal/mol)

>  <smiles>  (49) 
Cn1ccc(Nc2ccccc2)c(Nc2cc(=O)[nH][nH]2)c1=O

>  <score_type>  (49) 
oracle

>  <origin>  (49) 
adgpu

>  <m_score__min__energy>  (49) 
-8.9900000000000002

>  <m_primary>  (49) 
energy

$$$$
