0:0
     RDKit          3D

 61 63  0  0  0  0  0  0  0  0999 V2000
   -6.4020   17.4530  -32.2090 C   0  0  0  0  0  0  0  0  0  0  0  0
   -6.9570   18.7610  -31.8370 N   0  0  0  0  0  0  0  0  0  0  0  0
   -8.4150   18.7620  -32.0160 C   0  0  0  0  0  0  0  0  0  0  0  0
   -6.2370   20.0120  -32.8190 S   0  0  0  0  0  0  0  0  0  0  0  0
   -4.7520   19.7880  -32.9040 O   0  0  0  0  0  0  0  0  0  0  0  0
   -6.7970   19.9380  -34.2130 O   0  0  0  0  0  0  0  0  0  0  0  0
   -6.5440   21.6200  -32.1550 C   0  0  0  0  0  0  0  0  0  0  0  0
   -7.8590   22.0820  -32.0080 C   0  0  0  0  0  0  0  0  0  0  0  0
   -8.0990   23.3640  -31.5060 C   0  0  0  0  0  0  0  0  0  0  0  0
   -7.0300   24.1850  -31.1370 C   0  0  0  0  0  0  0  0  0  0  0  0
   -5.7120   23.7260  -31.2520 C   0  0  0  0  0  0  0  0  0  0  0  0
   -4.6410   24.6070  -30.8850 N   0  0  0  0  0  0  0  0  0  0  0  0
   -3.3370   24.2150  -30.4410 C   0  0  0  0  0  0  0  0  0  0  0  0
   -2.7340   24.9380  -29.6060 O   0  0  0  0  0  0  0  0  0  0  0  0
   -2.7450   22.9940  -30.8980 N   0  0  0  0  0  0  0  0  0  0  0  0
   -1.3970   22.5650  -30.5440 C   0  0  0  0  0  0  0  0  0  0  0  0
   -1.3110   22.3000  -29.0670 C   0  0  0  0  0  0  0  0  0  0  0  0
   -1.4630   20.9920  -28.5770 C   0  0  0  0  0  0  0  0  0  0  0  0
   -1.4270   20.7470  -27.2020 C   0  0  0  0  0  0  0  0  0  0  0  0
   -1.2590   21.8030  -26.3050 C   0  0  0  0  0  0  0  0  0  0  0  0
   -1.1290   23.1160  -26.7790 C   0  0  0  0  0  0  0  0  0  0  0  0
   -0.9670   24.2110  -25.8590 N   0  0  0  0  0  0  0  0  0  0  0  0
   -1.9530   25.2640  -25.8360 C   0  0  0  0  0  0  0  0  0  0  0  0
   -3.0430   25.2780  -26.7700 N   0  0  0  0  0  0  0  0  0  0  0  0
   -1.8690   26.2070  -24.9460 N   0  0  0  0  0  0  0  0  0  0  0  0
   -0.8310   26.2190  -23.9590 C   0  0  0  0  0  0  0  0  0  0  0  0
   -0.8590   27.2060  -22.9240 N   0  0  0  0  0  0  0  0  0  0  0  0
    0.1270   25.3390  -23.9930 N   0  0  0  0  0  0  0  0  0  0  0  0
    0.2820   24.3430  -25.0670 C   0  0  0  0  0  0  0  0  0  0  0  0
    0.6550   22.9950  -24.4170 C   0  0  0  0  0  0  0  0  0  0  0  0
    1.4270   24.8040  -25.9850 C   0  0  0  0  0  0  0  0  0  0  0  0
   -1.1380   23.3590  -28.1600 C   0  0  0  0  0  0  0  0  0  0  0  0
   -5.4720   22.4460  -31.7840 C   0  0  0  0  0  0  0  0  0  0  0  0
   -6.1609   16.8847  -31.2986 H   0  0  0  0  0  0  0  0  0  0  0  0
   -7.1415   16.8965  -32.8035 H   0  0  0  0  0  0  0  0  0  0  0  0
   -5.4880   17.5982  -32.8035 H   0  0  0  0  0  0  0  0  0  0  0  0
   -8.9053   18.7623  -31.0313 H   0  0  0  0  0  0  0  0  0  0  0  0
   -8.7151   19.6604  -32.5754 H   0  0  0  0  0  0  0  0  0  0  0  0
   -8.7164   17.8641  -32.5754 H   0  0  0  0  0  0  0  0  0  0  0  0
   -8.7032   21.4348  -32.2881 H   0  0  0  0  0  0  0  0  0  0  0  0
   -9.1318   23.7277  -31.4011 H   0  0  0  0  0  0  0  0  0  0  0  0
   -7.2250   25.1976  -30.7540 H   0  0  0  0  0  0  0  0  0  0  0  0
   -1.1520   21.6443  -31.0938 H   0  0  0  0  0  0  0  0  0  0  0  0
   -0.6846   23.3600  -30.8094 H   0  0  0  0  0  0  0  0  0  0  0  0
   -1.6109   20.1578  -29.2786 H   0  0  0  0  0  0  0  0  0  0  0  0
   -1.5314   19.7188  -26.8253 H   0  0  0  0  0  0  0  0  0  0  0  0
   -1.2285   21.6046  -25.2235 H   0  0  0  0  0  0  0  0  0  0  0  0
   -3.1750   24.5220  -27.4780 H   0  0  0  0  0  0  0  0  0  0  0  0
   -3.7470   26.0490  -26.7540 H   0  0  0  0  0  0  0  0  0  0  0  0
   -2.5900   26.9640  -24.9200 H   0  0  0  0  0  0  0  0  0  0  0  0
   -1.6260   27.9150  -22.8900 H   0  0  0  0  0  0  0  0  0  0  0  0
   -0.1210   27.2360  -22.1870 H   0  0  0  0  0  0  0  0  0  0  0  0
    0.8790   25.3920  -23.2670 H   0  0  0  0  0  0  0  0  0  0  0  0
    0.6271   23.0958  -23.3220 H   0  0  0  0  0  0  0  0  0  0  0  0
   -0.0637   22.2244  -24.7327 H   0  0  0  0  0  0  0  0  0  0  0  0
    1.6676   22.7034  -24.7327 H   0  0  0  0  0  0  0  0  0  0  0  0
    2.2740   25.1450  -25.3716 H   0  0  0  0  0  0  0  0  0  0  0  0
    1.7483   23.9652  -26.6199 H   0  0  0  0  0  0  0  0  0  0  0  0
    1.0774   25.6315  -26.6199 H   0  0  0  0  0  0  0  0  0  0  0  0
   -1.0088   24.3848  -28.5355 H   0  0  0  0  0  0  0  0  0  0  0  0
   -4.4386   22.0908  -31.9098 H   0  0  0  0  0  0  0  0  0  0  0  0
  1  2  1  0
  2  3  1  0
  2  4  1  0
  4  5  2  0
  4  6  2  0
  4  7  1  0
  7  8  2  0
  8  9  1  0
  9 10  2  0
 10 11  1  0
 11 12  1  0
 12 13  1  0
 13 14  2  0
 13 15  1  0
 15 16  1  0
 16 17  1  0
 17 18  2  0
 18 19  1  0
 19 20  2  0
 20 21  1  0
 21 22  1  0
 22 23  1  0
 23 24  1  0
 23 25  2  0
 25 26  1  0
 26 27  1  0
 26 28  2  0
 28 29  1  0
 29 30  1  0
 29 31  1  0
 21 32  2  0
 11 33  2  0
 33  7  1  0
 32 17  1  0
 29 22  1  0
  1 34  1  0
  1 35  1  0
  1 36  1  0
  3 37  1  0
  3 38  1  0
  3 39  1  0
  8 40  1  0
  9 41  1  0
 10 42  1  0
 16 43  1  0
 16 44  1  0
 18 45  1  0
 19 46  1  0
 20 47  1  0
 24 48  1  0
 24 49  1  0
 25 50  1  0
 27 51  1  0
 27 52  1  0
 28 53  1  0
 30 54  1  0
 30 55  1  0
 30 56  1  0
 31 57  1  0
 31 58  1  0
 31 59  1  0
 32 60  1  0
 33 61  1  0
M  CHG  4  12  -1  15  -1  25   1  28   1
M  END
>  <UniqueID>  (1) 
1

>  <SMILES>  (1) 
CN(C)S(=O)(=O)c1cccc([N-]C(=O)[N-]Cc2cccc(N3C(N)=[NH+]C(N)=[NH+]C3(C)C)c2)c1

>  <Energy>  (1) 
63.60060177731306

>  <Genealogy>  (1) 
CN(C)S(=O)(=O)c1cccc([N-]C(=O)[N-]Cc2cccc(N3C(N)=[NH+]C(N)=[NH+]C3(C)C)c2)c1 (protonated)
CN(C)S(=O)(=O)c1cccc([N-]C(=O)[N-]Cc2cccc(N3C(N)=[NH+]C(N)=[NH+]C3(C)C)c2)c1 (3D coordinates assigned)
CN(C)S(=O)(=O)c1cccc([N-]C(=O)[N-]Cc2cccc(N3C(N)=[NH+]C(N)=[NH+]C3(C)C)c2)c1 (nonaromatic ring conformer: 63.60060177731306 kcal/mol)

>  <smiles>  (1) 
CN(C)S(=O)(=O)c1cccc(NC(=O)NCc2cccc(N3C(N)=NC(N)=NC3(C)C)c2)c1

>  <score_type>  (1) 
oracle

>  <origin>  (1) 
adgpu

>  <m_score__min__energy>  (1) 
-12.57

>  <m_primary>  (1) 
energy

$$$$
1:0
     RDKit          3D

 42 44  0  0  0  0  0  0  0  0999 V2000
   -2.1460   25.2560  -29.2780 N   0  0  0  0  0  0  0  0  0  0  0  0
   -3.6220   24.6260  -29.9180 S   0  0  0  0  0  0  0  0  0  0  0  0
   -4.5810   24.3560  -28.7930 O   0  0  0  0  0  0  0  0  0  0  0  0
   -4.2390   25.6380  -30.8440 O   0  0  0  0  0  0  0  0  0  0  0  0
   -3.2910   23.1390  -30.8000 C   0  0  0  0  0  0  0  0  0  0  0  0
   -2.0620   22.4870  -30.6410 C   0  0  0  0  0  0  0  0  0  0  0  0
   -1.8040   21.2930  -31.3200 C   0  0  0  0  0  0  0  0  0  0  0  0
   -2.7800   20.7270  -32.1580 C   0  0  0  0  0  0  0  0  0  0  0  0
   -2.5350   19.5070  -32.8770 N   0  0  0  0  0  0  0  0  0  0  0  0
   -1.5690   18.5230  -32.4740 C   0  0  0  0  0  0  0  0  0  0  0  0
   -0.9750   18.6210  -31.3660 O   0  0  0  0  0  0  0  0  0  0  0  0
   -1.3110   17.3290  -33.3410 C   0  0  0  0  0  0  0  0  0  0  0  0
   -2.1170   17.5190  -34.9680 S   0  0  0  0  0  0  0  0  0  0  0  0
   -3.7250   16.9680  -34.4050 C   0  0  0  0  0  0  0  0  0  0  0  0
   -4.6110   17.8650  -33.8990 N   0  0  0  0  0  0  0  0  0  0  0  0
   -5.8440   17.4840  -33.4650 C   0  0  0  0  0  0  0  0  0  0  0  0
   -6.7730   18.5120  -32.9230 C   0  0  0  0  0  0  0  0  0  0  0  0
   -7.8550   18.1170  -32.1130 C   0  0  0  0  0  0  0  0  0  0  0  0
   -8.7500   19.0670  -31.6100 C   0  0  0  0  0  0  0  0  0  0  0  0
   -8.5790   20.4190  -31.9110 C   0  0  0  0  0  0  0  0  0  0  0  0
   -7.5170   20.8240  -32.7190 C   0  0  0  0  0  0  0  0  0  0  0  0
   -6.6190   19.8800  -33.2280 C   0  0  0  0  0  0  0  0  0  0  0  0
   -6.2040   16.1290  -33.5590 C   0  0  0  0  0  0  0  0  0  0  0  0
   -5.2760   15.2210  -34.0720 C   0  0  0  0  0  0  0  0  0  0  0  0
   -5.5660   13.9980  -34.1580 O   0  0  0  0  0  0  0  0  0  0  0  0
   -4.0580   15.6550  -34.4820 N   0  0  0  0  0  0  0  0  0  0  0  0
   -4.0020   21.3950  -32.3310 C   0  0  0  0  0  0  0  0  0  0  0  0
   -4.2610   22.5860  -31.6490 C   0  0  0  0  0  0  0  0  0  0  0  0
   -1.6130   25.6580  -30.0820 H   0  0  0  0  0  0  0  0  0  0  0  0
   -1.2961   22.9166  -29.9786 H   0  0  0  0  0  0  0  0  0  0  0  0
   -0.8316   20.7935  -31.1978 H   0  0  0  0  0  0  0  0  0  0  0  0
   -3.1720   19.2680  -33.6700 H   0  0  0  0  0  0  0  0  0  0  0  0
   -0.2265   17.2176  -33.4872 H   0  0  0  0  0  0  0  0  0  0  0  0
   -1.7253   16.4387  -32.8454 H   0  0  0  0  0  0  0  0  0  0  0  0
   -7.9975   17.0528  -31.8739 H   0  0  0  0  0  0  0  0  0  0  0  0
   -9.5903   18.7478  -30.9759 H   0  0  0  0  0  0  0  0  0  0  0  0
   -9.2816   21.1649  -31.5111 H   0  0  0  0  0  0  0  0  0  0  0  0
   -7.3850   21.8898  -32.9570 H   0  0  0  0  0  0  0  0  0  0  0  0
   -5.7877   20.2068  -33.8700 H   0  0  0  0  0  0  0  0  0  0  0  0
   -7.1988   15.7900  -33.2343 H   0  0  0  0  0  0  0  0  0  0  0  0
   -4.7613   20.9776  -33.0086 H   0  0  0  0  0  0  0  0  0  0  0  0
   -5.2291   23.0921  -31.7781 H   0  0  0  0  0  0  0  0  0  0  0  0
  1  2  1  0
  2  3  2  0
  2  4  2  0
  2  5  1  0
  5  6  2  0
  6  7  1  0
  7  8  2  0
  8  9  1  0
  9 10  1  0
 10 11  2  0
 10 12  1  0
 12 13  1  0
 13 14  1  0
 14 15  2  0
 15 16  1  0
 16 17  1  0
 17 18  2  0
 18 19  1  0
 19 20  2  0
 20 21  1  0
 21 22  2  0
 16 23  2  0
 23 24  1  0
 24 25  2  0
 24 26  1  0
  8 27  1  0
 27 28  2  0
 28  5  1  0
 26 14  1  0
 22 17  1  0
  1 29  1  0
  6 30  1  0
  7 31  1  0
  9 32  1  0
 12 33  1  0
 12 34  1  0
 18 35  1  0
 19 36  1  0
 20 37  1  0
 21 38  1  0
 22 39  1  0
 23 40  1  0
 27 41  1  0
 28 42  1  0
M  CHG  2   1  -1  26  -1
M  END
>  <UniqueID>  (2) 
2

>  <SMILES>  (2) 
[NH-]S(=O)(=O)c1ccc(NC(=O)CSc2nc(-c3ccccc3)cc(=O)[n-]2)cc1

>  <Energy>  (2) 
47.63358479843283

>  <Genealogy>  (2) 
[NH-]S(=O)(=O)c1ccc(NC(=O)CSc2nc(-c3ccccc3)cc(=O)[n-]2)cc1 (protonated)
[NH-]S(=O)(=O)c1ccc(NC(=O)CSc2nc(-c3ccccc3)cc(=O)[n-]2)cc1 (3D coordinates assigned)
[NH-]S(=O)(=O)c1ccc(NC(=O)CSc2nc(-c3ccccc3)cc(=O)[n-]2)cc1 (optimized conformer: 47.63358479843283 kcal/mol)

>  <smiles>  (2) 
NS(=O)(=O)c1ccc(NC(=O)CSc2nc(-c3ccccc3)cc(=O)[nH]2)cc1

>  <score_type>  (2) 
oracle

>  <origin>  (2) 
adgpu

>  <m_score__min__energy>  (2) 
-11.17

>  <m_primary>  (2) 
energy

$$$$
2:0
     RDKit          3D

 61 65  0  0  0  0  0  0  0  0999 V2000
    2.6650   18.9490  -28.9600 C   0  0  0  0  0  0  0  0  0  0  0  0
    1.4240   18.5120  -28.2480 C   0  0  0  0  0  0  0  0  0  0  0  0
    1.1460   17.2320  -27.9120 N   0  0  0  0  0  0  0  0  0  0  0  0
   -0.0800   17.2130  -27.3800 N   0  0  0  0  0  0  0  0  0  0  0  0
   -0.5250   18.4820  -27.4160 C   0  0  0  0  0  0  0  0  0  0  0  0
   -1.7500   18.9700  -26.9880 C   0  0  0  0  0  0  0  0  0  0  0  0
   -1.9760   20.3470  -27.1440 C   0  0  0  0  0  0  0  0  0  0  0  0
   -0.9700   21.1740  -27.7140 C   0  0  0  0  0  0  0  0  0  0  0  0
   -1.1620   22.6340  -27.8740 C   0  0  0  0  0  0  0  0  0  0  0  0
   -0.5610   23.5510  -26.9880 C   0  0  0  0  0  0  0  0  0  0  0  0
   -0.8000   24.9200  -27.1210 C   0  0  0  0  0  0  0  0  0  0  0  0
   -1.6380   25.3920  -28.1350 C   0  0  0  0  0  0  0  0  0  0  0  0
   -2.2360   24.4930  -29.0320 C   0  0  0  0  0  0  0  0  0  0  0  0
   -3.0810   24.9440  -30.0950 N   0  0  0  0  0  0  0  0  0  0  0  0
   -4.7990   24.7080  -30.1400 S   0  0  0  0  0  0  0  0  0  0  0  0
   -5.3780   24.6800  -28.7540 O   0  0  0  0  0  0  0  0  0  0  0  0
   -5.4180   25.8560  -30.8880 O   0  0  0  0  0  0  0  0  0  0  0  0
   -5.1410   23.1950  -30.9760 C   0  0  0  0  0  0  0  0  0  0  0  0
   -6.0850   23.1730  -32.0100 C   0  0  0  0  0  0  0  0  0  0  0  0
   -6.4110   21.9700  -32.6390 C   0  0  0  0  0  0  0  0  0  0  0  0
   -5.7910   20.7760  -32.2460 C   0  0  0  0  0  0  0  0  0  0  0  0
   -6.2560   19.2590  -33.0120 S   0  0  0  0  0  0  0  0  0  0  0  0
   -6.5030   19.4680  -34.4820 O   0  0  0  0  0  0  0  0  0  0  0  0
   -7.5340   18.7740  -32.3840 O   0  0  0  0  0  0  0  0  0  0  0  0
   -5.0120   18.0620  -32.7720 N   0  0  0  0  0  0  0  0  0  0  0  0
   -3.9790   18.1350  -33.8270 C   0  0  0  0  0  0  0  0  0  0  0  0
   -2.8940   17.0460  -33.5750 C   0  0  0  0  0  0  0  0  0  0  0  0
   -1.4850   17.5090  -33.9550 C   0  0  0  0  0  0  0  0  0  0  0  0
   -1.0680   18.7530  -33.1530 C   0  0  0  0  0  0  0  0  0  0  0  0
   -2.2320   19.7310  -32.8800 C   0  0  0  0  0  0  0  0  0  0  0  0
   -3.3680   19.5620  -33.8960 C   0  0  0  0  0  0  0  0  0  0  0  0
   -4.8380   20.7970  -31.2170 C   0  0  0  0  0  0  0  0  0  0  0  0
   -4.5150   22.0020  -30.5860 C   0  0  0  0  0  0  0  0  0  0  0  0
   -1.9880   23.1210  -28.9020 C   0  0  0  0  0  0  0  0  0  0  0  0
    0.2110   20.6060  -28.1080 N   0  0  0  0  0  0  0  0  0  0  0  0
    0.3800   19.2980  -27.9490 N   0  0  0  0  0  0  0  0  0  0  0  0
    3.4347   19.2201  -28.2224 H   0  0  0  0  0  0  0  0  0  0  0  0
    3.0347   18.1270  -29.5906 H   0  0  0  0  0  0  0  0  0  0  0  0
    2.4381   19.8213  -29.5906 H   0  0  0  0  0  0  0  0  0  0  0  0
   -2.5101   18.3087  -26.5464 H   0  0  0  0  0  0  0  0  0  0  0  0
   -2.9326   20.7863  -26.8248 H   0  0  0  0  0  0  0  0  0  0  0  0
    0.0996   23.1860  -26.1878 H   0  0  0  0  0  0  0  0  0  0  0  0
   -0.3273   25.6293  -26.4256 H   0  0  0  0  0  0  0  0  0  0  0  0
   -1.8295   26.4710  -28.2304 H   0  0  0  0  0  0  0  0  0  0  0  0
   -6.5715   24.1070  -32.3278 H   0  0  0  0  0  0  0  0  0  0  0  0
   -7.1578   21.9592  -33.4466 H   0  0  0  0  0  0  0  0  0  0  0  0
   -4.5870   18.2960  -31.8450 H   0  0  0  0  0  0  0  0  0  0  0  0
   -4.4395   17.9349  -34.8057 H   0  0  0  0  0  0  0  0  0  0  0  0
   -2.9011   16.7842  -32.5066 H   0  0  0  0  0  0  0  0  0  0  0  0
   -3.1399   16.1822  -34.2101 H   0  0  0  0  0  0  0  0  0  0  0  0
   -0.7734   16.6957  -33.7497 H   0  0  0  0  0  0  0  0  0  0  0  0
   -1.4825   17.7692  -35.0238 H   0  0  0  0  0  0  0  0  0  0  0  0
   -0.6574   18.4228  -32.1874 H   0  0  0  0  0  0  0  0  0  0  0  0
   -0.3269   19.2945  -33.7593 H   0  0  0  0  0  0  0  0  0  0  0  0
   -2.6262   19.5424  -31.8705 H   0  0  0  0  0  0  0  0  0  0  0  0
   -1.8445   20.7567  -32.9679 H   0  0  0  0  0  0  0  0  0  0  0  0
   -4.1549   20.2996  -33.6798 H   0  0  0  0  0  0  0  0  0  0  0  0
   -2.9574   19.7156  -34.9049 H   0  0  0  0  0  0  0  0  0  0  0  0
   -4.3443   19.8644  -30.9062 H   0  0  0  0  0  0  0  0  0  0  0  0
   -3.7665   22.0145  -29.7800 H   0  0  0  0  0  0  0  0  0  0  0  0
   -2.4447   22.4162  -29.6124 H   0  0  0  0  0  0  0  0  0  0  0  0
  1  2  1  0
  2  3  2  0
  3  4  1  0
  4  5  2  0
  5  6  1  0
  6  7  2  0
  7  8  1  0
  8  9  1  0
  9 10  2  0
 10 11  1  0
 11 12  2  0
 12 13  1  0
 13 14  1  0
 14 15  1  0
 15 16  2  0
 15 17  2  0
 15 18  1  0
 18 19  2  0
 19 20  1  0
 20 21  2  0
 21 22  1  0
 22 23  2  0
 22 24  2  0
 22 25  1  0
 25 26  1  0
 26 27  1  0
 27 28  1  0
 28 29  1  0
 29 30  1  0
 30 31  1  0
 21 32  1  0
 32 33  2  0
 13 34  2  0
  8 35  2  0
 35 36  1  0
 36  2  1  0
 36  5  1  0
 34  9  1  0
 33 18  1  0
 31 26  1  0
  1 37  1  0
  1 38  1  0
  1 39  1  0
  6 40  1  0
  7 41  1  0
 10 42  1  0
 11 43  1  0
 12 44  1  0
 19 45  1  0
 20 46  1  0
 25 47  1  0
 26 48  1  0
 27 49  1  0
 27 50  1  0
 28 51  1  0
 28 52  1  0
 29 53  1  0
 29 54  1  0
 30 55  1  0
 30 56  1  0
 31 57  1  0
 31 58  1  0
 32 59  1  0
 33 60  1  0
 34 61  1  0
M  CHG  1  14  -1
M  END
>  <UniqueID>  (3) 
3

>  <SMILES>  (3) 
Cc1nnc2ccc(-c3cccc([N-]S(=O)(=O)c4ccc(S(=O)(=O)NC5CCCCC5)cc4)c3)nn12

>  <Energy>  (3) 
119.98460287611562

>  <Genealogy>  (3) 
Cc1nnc2ccc(-c3cccc([N-]S(=O)(=O)c4ccc(S(=O)(=O)NC5CCCCC5)cc4)c3)nn12 (protonated)
Cc1nnc2ccc(-c3cccc([N-]S(=O)(=O)c4ccc(S(=O)(=O)NC5CCCCC5)cc4)c3)nn12 (3D coordinates assigned)
Cc1nnc2ccc(-c3cccc([N-]S(=O)(=O)c4ccc(S(=O)(=O)NC5CCCCC5)cc4)c3)nn12 (nonaromatic ring conformer: 119.98460287611562 kcal/mol)

>  <smiles>  (3) 
Cc1nnc2ccc(-c3cccc(NS(=O)(=O)c4ccc(S(=O)(=O)NC5CCCCC5)cc4)c3)nn12

>  <score_type>  (3) 
oracle

>  <origin>  (3) 
adgpu

>  <m_score__min__energy>  (3) 
-13.01

>  <m_primary>  (3) 
energy

$$$$
3:0
     RDKit          3D

 50 53  0  0  0  0  0  0  0  0999 V2000
   -7.1410   15.8880  -33.8810 C   0  0  0  0  0  0  0  0  0  0  0  0
   -6.4920   17.2270  -33.6970 C   0  0  0  0  0  0  0  0  0  0  0  0
   -7.0760   18.1840  -32.8550 C   0  0  0  0  0  0  0  0  0  0  0  0
   -6.4560   19.4220  -32.6540 C   0  0  0  0  0  0  0  0  0  0  0  0
   -5.2420   19.7210  -33.2980 C   0  0  0  0  0  0  0  0  0  0  0  0
   -4.5740   20.9810  -33.1070 N   0  0  0  0  0  0  0  0  0  0  0  0
   -3.8670   21.3530  -31.9110 C   0  0  0  0  0  0  0  0  0  0  0  0
   -3.8800   20.6050  -30.8950 O   0  0  0  0  0  0  0  0  0  0  0  0
   -3.1320   22.6580  -31.8460 C   0  0  0  0  0  0  0  0  0  0  0  0
   -3.2520   23.2400  -30.5070 N   0  0  0  0  0  0  0  0  0  0  0  0
   -2.2510   22.9860  -29.5090 C   0  0  0  0  0  0  0  0  0  0  0  0
   -2.3970   21.9020  -28.6060 C   0  0  0  0  0  0  0  0  0  0  0  0
   -1.4150   21.6460  -27.6320 C   0  0  0  0  0  0  0  0  0  0  0  0
   -0.3080   22.4870  -27.5880 C   0  0  0  0  0  0  0  0  0  0  0  0
   -0.1600   23.5240  -28.4490 C   0  0  0  0  0  0  0  0  0  0  0  0
   -1.1070   23.8110  -29.4280 C   0  0  0  0  0  0  0  0  0  0  0  0
    1.0230   24.1830  -28.1770 O   0  0  0  0  0  0  0  0  0  0  0  0
    1.6580   23.5170  -27.0760 C   0  0  0  0  0  0  0  0  0  0  0  0
    0.7750   22.4400  -26.7320 O   0  0  0  0  0  0  0  0  0  0  0  0
   -4.6310   24.2330  -30.1320 S   0  0  0  0  0  0  0  0  0  0  0  0
   -4.7140   24.4820  -28.6520 O   0  0  0  0  0  0  0  0  0  0  0  0
   -4.4790   25.5570  -30.8270 O   0  0  0  0  0  0  0  0  0  0  0  0
   -6.1130   23.4340  -30.6550 C   0  0  0  0  0  0  0  0  0  0  0  0
   -6.5830   23.6220  -31.9620 C   0  0  0  0  0  0  0  0  0  0  0  0
   -7.7670   23.0070  -32.3800 C   0  0  0  0  0  0  0  0  0  0  0  0
   -8.4850   22.1960  -31.4960 C   0  0  0  0  0  0  0  0  0  0  0  0
   -8.0210   22.0050  -30.1920 C   0  0  0  0  0  0  0  0  0  0  0  0
   -6.8400   22.6250  -29.7690 C   0  0  0  0  0  0  0  0  0  0  0  0
   -4.6360   18.7390  -34.0970 C   0  0  0  0  0  0  0  0  0  0  0  0
   -5.2570   17.5050  -34.3000 C   0  0  0  0  0  0  0  0  0  0  0  0
   -7.3552   15.4460  -32.8967 H   0  0  0  0  0  0  0  0  0  0  0  0
   -8.0802   16.0095  -34.4406 H   0  0  0  0  0  0  0  0  0  0  0  0
   -6.4637   15.2261  -34.4406 H   0  0  0  0  0  0  0  0  0  0  0  0
   -8.0270   17.9602  -32.3496 H   0  0  0  0  0  0  0  0  0  0  0  0
   -6.9203   20.1651  -31.9890 H   0  0  0  0  0  0  0  0  0  0  0  0
   -4.7110   21.7160  -33.8360 H   0  0  0  0  0  0  0  0  0  0  0  0
   -2.0695   22.4884  -32.0746 H   0  0  0  0  0  0  0  0  0  0  0  0
   -3.5677   23.3523  -32.5795 H   0  0  0  0  0  0  0  0  0  0  0  0
   -3.2854   21.2563  -28.6679 H   0  0  0  0  0  0  0  0  0  0  0  0
   -1.5192   20.8075  -26.9276 H   0  0  0  0  0  0  0  0  0  0  0  0
   -0.9686   24.6559  -30.1187 H   0  0  0  0  0  0  0  0  0  0  0  0
    2.6427   23.1286  -27.3754 H   0  0  0  0  0  0  0  0  0  0  0  0
    1.8308   24.1956  -26.2277 H   0  0  0  0  0  0  0  0  0  0  0  0
   -6.0182   24.2558  -32.6615 H   0  0  0  0  0  0  0  0  0  0  0  0
   -8.1340   23.1614  -33.4054 H   0  0  0  0  0  0  0  0  0  0  0  0
   -9.4141   21.7089  -31.8267 H   0  0  0  0  0  0  0  0  0  0  0  0
   -8.5851   21.3661  -29.4966 H   0  0  0  0  0  0  0  0  0  0  0  0
   -6.4810   22.4777  -28.7397 H   0  0  0  0  0  0  0  0  0  0  0  0
   -3.6630   18.9434  -34.5676 H   0  0  0  0  0  0  0  0  0  0  0  0
   -4.7752   16.7476  -34.9358 H   0  0  0  0  0  0  0  0  0  0  0  0
  1  2  1  0
  2  3  2  0
  3  4  1  0
  4  5  2  0
  5  6  1  0
  6  7  1  0
  7  8  2  0
  7  9  1  0
  9 10  1  0
 10 11  1  0
 11 12  2  0
 12 13  1  0
 13 14  2  0
 14 15  1  0
 15 16  2  0
 15 17  1  0
 17 18  1  0
 18 19  1  0
 10 20  1  0
 20 21  2  0
 20 22  2  0
 20 23  1  0
 23 24  2  0
 24 25  1  0
 25 26  2  0
 26 27  1  0
 27 28  2  0
  5 29  1  0
 29 30  2  0
 30  2  1  0
 16 11  1  0
 28 23  1  0
 19 14  1  0
  1 31  1  0
  1 32  1  0
  1 33  1  0
  3 34  1  0
  4 35  1  0
  6 36  1  0
  9 37  1  0
  9 38  1  0
 12 39  1  0
 13 40  1  0
 16 41  1  0
 18 42  1  0
 18 43  1  0
 24 44  1  0
 25 45  1  0
 26 46  1  0
 27 47  1  0
 28 48  1  0
 29 49  1  0
 30 50  1  0
M  END
>  <UniqueID>  (4) 
4

>  <SMILES>  (4) 
Cc1ccc(NC(=O)CN(c2ccc3c(c2)OCO3)S(=O)(=O)c2ccccc2)cc1

>  <Energy>  (4) 
86.0606637669363

>  <Genealogy>  (4) 
Cc1ccc(NC(=O)CN(c2ccc3c(c2)OCO3)S(=O)(=O)c2ccccc2)cc1 (3D coordinates assigned)
Cc1ccc(NC(=O)CN(c2ccc3c(c2)OCO3)S(=O)(=O)c2ccccc2)cc1 (nonaromatic ring conformer: 86.0606637669363 kcal/mol)

>  <smiles>  (4) 
Cc1ccc(NC(=O)CN(c2ccc3c(c2)OCO3)S(=O)(=O)c2ccccc2)cc1

>  <score_type>  (4) 
oracle

>  <origin>  (4) 
adgpu

>  <m_score__min__energy>  (4) 
-9.8300000000000001

>  <m_primary>  (4) 
energy

$$$$
4:0
     RDKit          3D

 31 33  0  0  0  0  0  0  0  0999 V2000
   -5.7140   24.6110  -29.1350 C   0  0  0  0  0  0  0  0  0  0  0  0
   -5.6660   23.3420  -29.9340 C   0  0  0  0  0  0  0  0  0  0  0  0
   -6.7970   22.8920  -30.4710 O   0  0  0  0  0  0  0  0  0  0  0  0
   -6.8630   21.7860  -31.2040 C   0  0  0  0  0  0  0  0  0  0  0  0
   -8.0920   21.3810  -31.7340 C   0  0  0  0  0  0  0  0  0  0  0  0
   -8.1760   20.2170  -32.5120 C   0  0  0  0  0  0  0  0  0  0  0  0
   -9.3970   19.8060  -33.0430 O   0  0  0  0  0  0  0  0  0  0  0  0
   -7.0260   19.4600  -32.7590 C   0  0  0  0  0  0  0  0  0  0  0  0
   -5.7930   19.8570  -32.2340 C   0  0  0  0  0  0  0  0  0  0  0  0
   -5.7000   21.0230  -31.4520 C   0  0  0  0  0  0  0  0  0  0  0  0
   -4.4860   21.4600  -30.8990 C   0  0  0  0  0  0  0  0  0  0  0  0
   -3.4230   20.8060  -31.0920 O   0  0  0  0  0  0  0  0  0  0  0  0
   -4.4610   22.6310  -30.1230 C   0  0  0  0  0  0  0  0  0  0  0  0
   -3.1900   23.1030  -29.5310 C   0  0  0  0  0  0  0  0  0  0  0  0
   -2.4290   22.2310  -28.7360 C   0  0  0  0  0  0  0  0  0  0  0  0
   -1.2240   22.6630  -28.1730 C   0  0  0  0  0  0  0  0  0  0  0  0
   -0.7740   23.9680  -28.3970 C   0  0  0  0  0  0  0  0  0  0  0  0
    0.4230   24.3960  -27.8370 O   0  0  0  0  0  0  0  0  0  0  0  0
   -1.5310   24.8440  -29.1820 C   0  0  0  0  0  0  0  0  0  0  0  0
   -2.7390   24.4180  -29.7460 C   0  0  0  0  0  0  0  0  0  0  0  0
   -3.4880   25.3050  -30.5120 O   0  0  0  0  0  0  0  0  0  0  0  0
   -5.7049   24.3692  -28.0619 H   0  0  0  0  0  0  0  0  0  0  0  0
   -4.8387   25.2310  -29.3786 H   0  0  0  0  0  0  0  0  0  0  0  0
   -6.6337   25.1631  -29.3786 H   0  0  0  0  0  0  0  0  0  0  0  0
   -8.9958   21.9772  -31.5401 H   0  0  0  0  0  0  0  0  0  0  0  0
   -9.4720   19.4640  -33.9950 H   0  0  0  0  0  0  0  0  0  0  0  0
   -7.0924   18.5475  -33.3696 H   0  0  0  0  0  0  0  0  0  0  0  0
   -4.8931   19.2564  -32.4327 H   0  0  0  0  0  0  0  0  0  0  0  0
   -2.7818   21.2049  -28.5555 H   0  0  0  0  0  0  0  0  0  0  0  0
   -0.6295   21.9756  -27.5533 H   0  0  0  0  0  0  0  0  0  0  0  0
   -1.1759   25.8704  -29.3565 H   0  0  0  0  0  0  0  0  0  0  0  0
  1  2  1  0
  2  3  1  0
  3  4  1  0
  4  5  2  0
  5  6  1  0
  6  7  1  0
  6  8  2  0
  8  9  1  0
  9 10  2  0
 10 11  1  0
 11 12  2  0
 11 13  1  0
 13 14  1  0
 14 15  2  0
 15 16  1  0
 16 17  2  0
 17 18  1  0
 17 19  1  0
 19 20  2  0
 20 21  1  0
 13  2  2  0
 20 14  1  0
 10  4  1  0
  1 22  1  0
  1 23  1  0
  1 24  1  0
  5 25  1  0
  7 26  1  0
  8 27  1  0
  9 28  1  0
 15 29  1  0
 16 30  1  0
 19 31  1  0
M  CHG  2  18  -1  21  -1
M  END
>  <UniqueID>  (5) 
5

>  <SMILES>  (5) 
Cc1oc2cc(O)ccc2c(=O)c1-c1ccc([O-])cc1[O-]

>  <Energy>  (5) 
47.087190297919314

>  <Genealogy>  (5) 
Cc1oc2cc(O)ccc2c(=O)c1-c1ccc([O-])cc1[O-] (protonated)
Cc1oc2cc(O)ccc2c(=O)c1-c1ccc([O-])cc1[O-] (3D coordinates assigned)
Cc1oc2cc(O)ccc2c(=O)c1-c1ccc([O-])cc1[O-] (optimized conformer: 47.087190297919314 kcal/mol)

>  <smiles>  (5) 
Cc1oc2cc(O)ccc2c(=O)c1-c1ccc(O)cc1O

>  <score_type>  (5) 
oracle

>  <origin>  (5) 
adgpu

>  <m_score__min__energy>  (5) 
-10.449999999999999

>  <m_primary>  (5) 
energy

$$$$
5:0
     RDKit          3D

 53 56  0  0  0  0  0  0  0  0999 V2000
   -0.8490   26.4000  -23.7810 C   0  0  0  0  0  0  0  0  0  0  0  0
   -0.3600   25.3750  -24.7600 C   0  0  0  0  0  0  0  0  0  0  0  0
    0.8660   25.0770  -24.7530 O   0  0  0  0  0  0  0  0  0  0  0  0
   -1.2820   24.7030  -25.7210 C   0  0  0  0  0  0  0  0  0  0  0  0
   -2.5090   25.3050  -26.0580 C   0  0  0  0  0  0  0  0  0  0  0  0
   -3.3750   24.6950  -26.9650 C   0  0  0  0  0  0  0  0  0  0  0  0
   -3.0440   23.4640  -27.5530 C   0  0  0  0  0  0  0  0  0  0  0  0
   -3.9490   22.8520  -28.4860 N   0  0  0  0  0  0  0  0  0  0  0  0
   -3.5330   22.4000  -29.7770 C   0  0  0  0  0  0  0  0  0  0  0  0
   -2.0870   21.6140  -30.0690 S   0  0  0  0  0  0  0  0  0  0  0  0
   -2.2620   21.5390  -31.7430 C   0  0  0  0  0  0  0  0  0  0  0  0
   -1.2140   21.0520  -32.6650 C   0  0  0  0  0  0  0  0  0  0  0  0
   -1.1730   21.4990  -33.8430 O   0  0  0  0  0  0  0  0  0  0  0  0
   -0.1640   20.1080  -32.2130 C   0  0  0  0  0  0  0  0  0  0  0  0
    1.1060   20.0940  -32.8180 C   0  0  0  0  0  0  0  0  0  0  0  0
    2.0880   19.1940  -32.3810 C   0  0  0  0  0  0  0  0  0  0  0  0
    1.8140   18.3100  -31.3360 C   0  0  0  0  0  0  0  0  0  0  0  0
    0.5640   18.3330  -30.7120 C   0  0  0  0  0  0  0  0  0  0  0  0
   -0.4200   19.2310  -31.1420 C   0  0  0  0  0  0  0  0  0  0  0  0
   -3.4740   22.1530  -32.0900 C   0  0  0  0  0  0  0  0  0  0  0  0
   -3.9350   22.2460  -33.4410 N   0  0  0  0  0  0  0  0  0  0  0  0
   -4.2010   22.6310  -30.9740 C   0  0  0  0  0  0  0  0  0  0  0  0
   -5.8070   23.3730  -31.0280 S   0  0  0  0  0  0  0  0  0  0  0  0
   -5.7470   24.5470  -31.9650 O   0  0  0  0  0  0  0  0  0  0  0  0
   -6.2200   23.8850  -29.6790 O   0  0  0  0  0  0  0  0  0  0  0  0
   -6.9870   22.2020  -31.6080 C   0  0  0  0  0  0  0  0  0  0  0  0
   -8.3550   22.4980  -31.5400 C   0  0  0  0  0  0  0  0  0  0  0  0
   -9.3000   21.5520  -31.9510 C   0  0  0  0  0  0  0  0  0  0  0  0
   -8.8820   20.3070  -32.4310 C   0  0  0  0  0  0  0  0  0  0  0  0
   -7.5200   20.0090  -32.5090 C   0  0  0  0  0  0  0  0  0  0  0  0
   -6.5730   20.9530  -32.1010 C   0  0  0  0  0  0  0  0  0  0  0  0
   -1.8310   22.8460  -27.2080 C   0  0  0  0  0  0  0  0  0  0  0  0
   -0.9550   23.4650  -26.3110 C   0  0  0  0  0  0  0  0  0  0  0  0
   -0.6770   26.0395  -22.7561 H   0  0  0  0  0  0  0  0  0  0  0  0
   -0.3037   27.3430  -23.9343 H   0  0  0  0  0  0  0  0  0  0  0  0
   -1.9250   26.5695  -23.9343 H   0  0  0  0  0  0  0  0  0  0  0  0
   -2.7875   26.2662  -25.6013 H   0  0  0  0  0  0  0  0  0  0  0  0
   -4.3266   25.1831  -27.2222 H   0  0  0  0  0  0  0  0  0  0  0  0
   -4.9630   22.7740  -28.2470 H   0  0  0  0  0  0  0  0  0  0  0  0
    1.3295   20.7925  -33.6378 H   0  0  0  0  0  0  0  0  0  0  0  0
    3.0768   19.1844  -32.8628 H   0  0  0  0  0  0  0  0  0  0  0  0
    2.5817   17.5956  -31.0039 H   0  0  0  0  0  0  0  0  0  0  0  0
    0.3527   17.6439  -29.8810 H   0  0  0  0  0  0  0  0  0  0  0  0
   -1.3987   19.2515  -30.6402 H   0  0  0  0  0  0  0  0  0  0  0  0
   -4.8940   22.5770  -33.6800 H   0  0  0  0  0  0  0  0  0  0  0  0
   -3.3370   21.9230  -34.2310 H   0  0  0  0  0  0  0  0  0  0  0  0
   -8.6865   23.4766  -31.1625 H   0  0  0  0  0  0  0  0  0  0  0  0
  -10.3730   21.7878  -31.8965 H   0  0  0  0  0  0  0  0  0  0  0  0
   -9.6266   19.5617  -32.7474 H   0  0  0  0  0  0  0  0  0  0  0  0
   -7.1921   19.0312  -32.8916 H   0  0  0  0  0  0  0  0  0  0  0  0
   -5.5005   20.7173  -32.1661 H   0  0  0  0  0  0  0  0  0  0  0  0
   -1.5690   21.8712  -27.6451 H   0  0  0  0  0  0  0  0  0  0  0  0
    0.0007   22.9802  -26.0627 H   0  0  0  0  0  0  0  0  0  0  0  0
  1  2  1  0
  2  3  2  0
  2  4  1  0
  4  5  2  0
  5  6  1  0
  6  7  2  0
  7  8  1  0
  8  9  1  0
  9 10  1  0
 10 11  1  0
 11 12  1  0
 12 13  2  0
 12 14  1  0
 14 15  2  0
 15 16  1  0
 16 17  2  0
 17 18  1  0
 18 19  2  0
 11 20  2  0
 20 21  1  0
 20 22  1  0
 22 23  1  0
 23 24  2  0
 23 25  2  0
 23 26  1  0
 26 27  2  0
 27 28  1  0
 28 29  2  0
 29 30  1  0
 30 31  2  0
  7 32  1  0
 32 33  2  0
 33  4  1  0
 22  9  2  0
 31 26  1  0
 19 14  1  0
  1 34  1  0
  1 35  1  0
  1 36  1  0
  5 37  1  0
  6 38  1  0
  8 39  1  0
 15 40  1  0
 16 41  1  0
 17 42  1  0
 18 43  1  0
 19 44  1  0
 21 45  1  0
 21 46  1  0
 27 47  1  0
 28 48  1  0
 29 49  1  0
 30 50  1  0
 31 51  1  0
 32 52  1  0
 33 53  1  0
M  END
>  <UniqueID>  (6) 
6

>  <SMILES>  (6) 
CC(=O)c1ccc(Nc2sc(C(=O)c3ccccc3)c(N)c2S(=O)(=O)c2ccccc2)cc1

>  <Energy>  (6) 
97.7701268222087

>  <Genealogy>  (6) 
CC(=O)c1ccc(Nc2sc(C(=O)c3ccccc3)c(N)c2S(=O)(=O)c2ccccc2)cc1 (3D coordinates assigned)
CC(=O)c1ccc(Nc2sc(C(=O)c3ccccc3)c(N)c2S(=O)(=O)c2ccccc2)cc1 (optimized conformer: 97.7701268222087 kcal/mol)

>  <smiles>  (6) 
CC(=O)c1ccc(Nc2sc(C(=O)c3ccccc3)c(N)c2S(=O)(=O)c2ccccc2)cc1

>  <score_type>  (6) 
oracle

>  <origin>  (6) 
adgpu

>  <m_score__min__energy>  (6) 
-10.15

>  <m_primary>  (6) 
energy

$$$$
6:0
     RDKit          3D

 45 47  0  0  0  0  0  0  0  0999 V2000
   -2.2950   25.7040  -28.7280 O   0  0  0  0  0  0  0  0  0  0  0  0
   -1.2290   25.0350  -28.8100 C   0  0  0  0  0  0  0  0  0  0  0  0
   -0.1350   25.2970  -27.9250 N   0  0  0  0  0  0  0  0  0  0  0  0
   -0.2290   25.7740  -26.5720 C   0  0  0  0  0  0  0  0  0  0  0  0
   -0.1410   27.1490  -26.2810 C   0  0  0  0  0  0  0  0  0  0  0  0
   -0.2130   27.6000  -24.9630 C   0  0  0  0  0  0  0  0  0  0  0  0
   -0.3580   26.6880  -23.9190 C   0  0  0  0  0  0  0  0  0  0  0  0
   -0.4210   25.3200  -24.1870 C   0  0  0  0  0  0  0  0  0  0  0  0
   -0.3500   24.8440  -25.5120 C   0  0  0  0  0  0  0  0  0  0  0  0
   -0.4150   23.3610  -25.8030 C   0  0  0  0  0  0  0  0  0  0  0  0
    0.6890   22.9860  -26.5460 F   0  0  0  0  0  0  0  0  0  0  0  0
   -0.4360   22.6080  -24.6410 F   0  0  0  0  0  0  0  0  0  0  0  0
   -1.5620   23.0810  -26.5230 F   0  0  0  0  0  0  0  0  0  0  0  0
   -1.1340   23.9400  -29.7250 N   0  0  0  0  0  0  0  0  0  0  0  0
   -2.2250   23.0960  -30.1230 C   0  0  0  0  0  0  0  0  0  0  0  0
   -2.0070   21.7160  -30.1680 C   0  0  0  0  0  0  0  0  0  0  0  0
   -3.0280   20.8540  -30.5560 C   0  0  0  0  0  0  0  0  0  0  0  0
   -4.2770   21.3630  -30.9060 C   0  0  0  0  0  0  0  0  0  0  0  0
   -4.5230   22.7450  -30.8910 C   0  0  0  0  0  0  0  0  0  0  0  0
   -6.1510   23.2860  -31.3490 S   0  0  0  0  0  0  0  0  0  0  0  0
   -6.1590   23.9290  -32.7080 O   0  0  0  0  0  0  0  0  0  0  0  0
   -6.5950   24.3250  -30.3560 O   0  0  0  0  0  0  0  0  0  0  0  0
   -7.2560   21.9340  -31.2790 N   0  0  0  0  0  0  0  0  0  0  0  0
   -7.0620   21.0030  -32.3860 C   0  0  0  0  0  0  0  0  0  0  0  0
   -8.3740   20.2550  -32.5350 C   0  0  0  0  0  0  0  0  0  0  0  0
   -9.4270   21.2050  -31.9820 C   0  0  0  0  0  0  0  0  0  0  0  0
   -8.6470   22.3740  -31.3910 C   0  0  0  0  0  0  0  0  0  0  0  0
   -3.4680   23.6280  -30.5320 C   0  0  0  0  0  0  0  0  0  0  0  0
   -3.5980   25.0170  -30.6070 O   0  0  0  0  0  0  0  0  0  0  0  0
   -0.0145   27.8730  -27.0994 H   0  0  0  0  0  0  0  0  0  0  0  0
   -0.1553   28.6771  -24.7472 H   0  0  0  0  0  0  0  0  0  0  0  0
   -0.4229   27.0475  -22.8814 H   0  0  0  0  0  0  0  0  0  0  0  0
   -0.5271   24.6064  -23.3566 H   0  0  0  0  0  0  0  0  0  0  0  0
   -1.0222   21.3090  -29.8950 H   0  0  0  0  0  0  0  0  0  0  0  0
   -2.8489   19.7691  -30.5865 H   0  0  0  0  0  0  0  0  0  0  0  0
   -5.0816   20.6722  -31.1982 H   0  0  0  0  0  0  0  0  0  0  0  0
   -6.8270   21.5512  -33.3103 H   0  0  0  0  0  0  0  0  0  0  0  0
   -6.2248   20.3158  -32.1939 H   0  0  0  0  0  0  0  0  0  0  0  0
   -8.5733   20.0287  -33.5929 H   0  0  0  0  0  0  0  0  0  0  0  0
   -8.3651   19.2908  -32.0057 H   0  0  0  0  0  0  0  0  0  0  0  0
  -10.0917   21.5532  -32.7864 H   0  0  0  0  0  0  0  0  0  0  0  0
  -10.0643   20.7165  -31.2301 H   0  0  0  0  0  0  0  0  0  0  0  0
   -8.7160   23.2498  -32.0530 H   0  0  0  0  0  0  0  0  0  0  0  0
   -9.0512   22.6655  -30.4104 H   0  0  0  0  0  0  0  0  0  0  0  0
   -2.8770   25.6700  -30.3530 H   0  0  0  0  0  0  0  0  0  0  0  0
  1  2  2  0
  2  3  1  0
  3  4  1  0
  4  5  2  0
  5  6  1  0
  6  7  2  0
  7  8  1  0
  8  9  2  0
  9 10  1  0
 10 11  1  0
 10 12  1  0
 10 13  1  0
  2 14  1  0
 14 15  1  0
 15 16  2  0
 16 17  1  0
 17 18  2  0
 18 19  1  0
 19 20  1  0
 20 21  2  0
 20 22  2  0
 20 23  1  0
 23 24  1  0
 24 25  1  0
 25 26  1  0
 26 27  1  0
 19 28  2  0
 28 29  1  0
  9  4  1  0
 28 15  1  0
 27 23  1  0
  5 30  1  0
  6 31  1  0
  7 32  1  0
  8 33  1  0
 16 34  1  0
 17 35  1  0
 18 36  1  0
 24 37  1  0
 24 38  1  0
 25 39  1  0
 25 40  1  0
 26 41  1  0
 26 42  1  0
 27 43  1  0
 27 44  1  0
 29 45  1  0
M  CHG  2   3  -1  14  -1
M  END
>  <UniqueID>  (7) 
7

>  <SMILES>  (7) 
O=C([N-]c1ccccc1C(F)(F)F)[N-]c1cccc(S(=O)(=O)N2CCCC2)c1O

>  <Energy>  (7) 
62.154170690453455

>  <Genealogy>  (7) 
O=C([N-]c1ccccc1C(F)(F)F)[N-]c1cccc(S(=O)(=O)N2CCCC2)c1O (protonated)
O=C([N-]c1ccccc1C(F)(F)F)[N-]c1cccc(S(=O)(=O)N2CCCC2)c1O (3D coordinates assigned)
O=C([N-]c1ccccc1C(F)(F)F)[N-]c1cccc(S(=O)(=O)N2CCCC2)c1O (nonaromatic ring conformer: 62.154170690453455 kcal/mol)

>  <smiles>  (7) 
O=C(Nc1ccccc1C(F)(F)F)Nc1cccc(S(=O)(=O)N2CCCC2)c1O

>  <score_type>  (7) 
oracle

>  <origin>  (7) 
adgpu

>  <m_score__min__energy>  (7) 
-12.630000000000001

>  <m_primary>  (7) 
energy

$$$$
7:0
     RDKit          3D

 41 43  0  0  0  0  0  0  0  0999 V2000
   -6.3360   25.9640  -29.7460 N   0  0  0  0  0  0  0  0  0  0  0  0
   -5.6730   25.0750  -30.0780 C   0  0  0  0  0  0  0  0  0  0  0  0
   -4.8430   23.9650  -30.4920 C   0  0  0  0  0  0  0  0  0  0  0  0
   -5.2520   23.0910  -31.5230 C   0  0  0  0  0  0  0  0  0  0  0  0
   -6.5680   23.2530  -32.2550 C   0  0  0  0  0  0  0  0  0  0  0  0
   -7.5760   22.4170  -31.6850 O   0  0  0  0  0  0  0  0  0  0  0  0
   -7.7300   21.0440  -31.9410 C   0  0  0  0  0  0  0  0  0  0  0  0
   -6.8720   20.4440  -32.8710 C   0  0  0  0  0  0  0  0  0  0  0  0
   -6.9890   19.0820  -33.1680 C   0  0  0  0  0  0  0  0  0  0  0  0
   -7.9660   18.3100  -32.5340 C   0  0  0  0  0  0  0  0  0  0  0  0
   -8.8250   18.8970  -31.6020 C   0  0  0  0  0  0  0  0  0  0  0  0
   -8.7090   20.2590  -31.3020 C   0  0  0  0  0  0  0  0  0  0  0  0
   -4.4260   22.0100  -31.8550 C   0  0  0  0  0  0  0  0  0  0  0  0
   -3.2090   21.8340  -31.2030 C   0  0  0  0  0  0  0  0  0  0  0  0
   -2.8080   22.6930  -30.2210 N   0  0  0  0  0  0  0  0  0  0  0  0
   -1.4890   22.4920  -29.5970 C   0  0  0  0  0  0  0  0  0  0  0  0
   -1.5120   21.2700  -28.7170 C   0  0  0  0  0  0  0  0  0  0  0  0
   -2.6460   20.9810  -27.9410 C   0  0  0  0  0  0  0  0  0  0  0  0
   -2.6860   19.8280  -27.1510 C   0  0  0  0  0  0  0  0  0  0  0  0
   -1.5980   18.9510  -27.1320 C   0  0  0  0  0  0  0  0  0  0  0  0
   -1.6520   17.8050  -26.3420 O   0  0  0  0  0  0  0  0  0  0  0  0
   -0.4660   19.2300  -27.9100 C   0  0  0  0  0  0  0  0  0  0  0  0
   -0.4230   20.3820  -28.7010 C   0  0  0  0  0  0  0  0  0  0  0  0
   -3.6040   23.7520  -29.8570 C   0  0  0  0  0  0  0  0  0  0  0  0
   -3.2290   24.5450  -28.9470 O   0  0  0  0  0  0  0  0  0  0  0  0
   -6.8904   24.3025  -32.1877 H   0  0  0  0  0  0  0  0  0  0  0  0
   -6.4232   22.9615  -33.3057 H   0  0  0  0  0  0  0  0  0  0  0  0
   -6.1007   21.0479  -33.3714 H   0  0  0  0  0  0  0  0  0  0  0  0
   -6.3118   18.6187  -33.9007 H   0  0  0  0  0  0  0  0  0  0  0  0
   -8.0587   17.2394  -32.7690 H   0  0  0  0  0  0  0  0  0  0  0  0
   -9.5935   18.2881  -31.1033 H   0  0  0  0  0  0  0  0  0  0  0  0
   -9.3845   20.7177  -30.5649 H   0  0  0  0  0  0  0  0  0  0  0  0
   -4.7397   21.2983  -32.6329 H   0  0  0  0  0  0  0  0  0  0  0  0
   -2.5610   20.9904  -31.4831 H   0  0  0  0  0  0  0  0  0  0  0  0
   -0.7312   22.3596  -30.3833 H   0  0  0  0  0  0  0  0  0  0  0  0
   -1.2436   23.3718  -28.9840 H   0  0  0  0  0  0  0  0  0  0  0  0
   -3.5073   21.6651  -27.9546 H   0  0  0  0  0  0  0  0  0  0  0  0
   -3.5764   19.6106  -26.5427 H   0  0  0  0  0  0  0  0  0  0  0  0
   -0.9040   17.1220  -26.3480 H   0  0  0  0  0  0  0  0  0  0  0  0
    0.3911   18.5406  -27.8982 H   0  0  0  0  0  0  0  0  0  0  0  0
    0.4662   20.5940  -29.3129 H   0  0  0  0  0  0  0  0  0  0  0  0
  1  2  3  0
  2  3  1  0
  3  4  2  0
  4  5  1  0
  5  6  1  0
  6  7  1  0
  7  8  2  0
  8  9  1  0
  9 10  2  0
 10 11  1  0
 11 12  2  0
  4 13  1  0
 13 14  2  0
 14 15  1  0
 15 16  1  0
 16 17  1  0
 17 18  2  0
 18 19  1  0
 19 20  2  0
 20 21  1  0
 20 22  1  0
 22 23  2  0
 15 24  1  0
 24 25  2  0
 24  3  1  0
 12  7  1  0
 23 17  1  0
  5 26  1  0
  5 27  1  0
  8 28  1  0
  9 29  1  0
 10 30  1  0
 11 31  1  0
 12 32  1  0
 13 33  1  0
 14 34  1  0
 16 35  1  0
 16 36  1  0
 18 37  1  0
 19 38  1  0
 21 39  1  0
 22 40  1  0
 23 41  1  0
M  END
>  <UniqueID>  (8) 
8

>  <SMILES>  (8) 
N#Cc1c(COc2ccccc2)ccn(Cc2ccc(O)cc2)c1=O

>  <Energy>  (8) 
46.64095852658767

>  <Genealogy>  (8) 
N#Cc1c(COc2ccccc2)ccn(Cc2ccc(O)cc2)c1=O (3D coordinates assigned)
N#Cc1c(COc2ccccc2)ccn(Cc2ccc(O)cc2)c1=O (optimized conformer: 46.64095852658767 kcal/mol)

>  <smiles>  (8) 
N#Cc1c(COc2ccccc2)ccn(Cc2ccc(O)cc2)c1=O

>  <score_type>  (8) 
oracle

>  <origin>  (8) 
adgpu

>  <m_score__min__energy>  (8) 
-8.1300000000000008

>  <m_primary>  (8) 
energy

$$$$
8:0
     RDKit          3D

 61 64  0  0  0  0  0  0  0  0999 V2000
    1.9520   19.1690  -35.0260 O   0  0  0  0  0  0  0  0  0  0  0  0
    0.5550   19.6830  -35.2480 S   0  0  0  0  0  0  0  0  0  0  0  0
   -0.2770   18.5710  -35.8280 O   0  0  0  0  0  0  0  0  0  0  0  0
    0.6060   21.0140  -36.3740 N   0  0  0  0  0  0  0  0  0  0  0  0
    0.2480   22.2810  -35.7260 C   0  0  0  0  0  0  0  0  0  0  0  0
    1.3810   23.2710  -35.7990 C   0  0  0  0  0  0  0  0  0  0  0  0
    1.1000   24.6280  -36.0570 C   0  0  0  0  0  0  0  0  0  0  0  0
    2.1410   25.5570  -36.1250 C   0  0  0  0  0  0  0  0  0  0  0  0
    3.4680   25.1410  -35.9420 C   0  0  0  0  0  0  0  0  0  0  0  0
    3.7560   23.7910  -35.6910 C   0  0  0  0  0  0  0  0  0  0  0  0
    2.7160   22.8580  -35.6190 C   0  0  0  0  0  0  0  0  0  0  0  0
   -0.1080   20.2040  -33.7000 C   0  0  0  0  0  0  0  0  0  0  0  0
    0.7180   20.2060  -32.5660 C   0  0  0  0  0  0  0  0  0  0  0  0
    0.2310   20.6810  -31.3460 C   0  0  0  0  0  0  0  0  0  0  0  0
   -1.0970   21.1410  -31.2440 C   0  0  0  0  0  0  0  0  0  0  0  0
   -1.7120   21.7710  -29.7170 S   0  0  0  0  0  0  0  0  0  0  0  0
   -0.5690   22.0500  -28.7740 O   0  0  0  0  0  0  0  0  0  0  0  0
   -2.6120   20.7420  -29.0800 O   0  0  0  0  0  0  0  0  0  0  0  0
   -2.6600   23.1980  -30.0150 N   0  0  0  0  0  0  0  0  0  0  0  0
   -4.0050   23.2400  -30.5170 C   0  0  0  0  0  0  0  0  0  0  0  0
   -4.7380   22.0650  -30.8050 C   0  0  0  0  0  0  0  0  0  0  0  0
   -6.0500   22.1510  -31.2960 C   0  0  0  0  0  0  0  0  0  0  0  0
   -6.9240   20.6860  -31.7630 S   0  0  0  0  0  0  0  0  0  0  0  0
   -8.1160   20.5320  -30.8560 O   0  0  0  0  0  0  0  0  0  0  0  0
   -7.4400   20.8520  -33.1660 O   0  0  0  0  0  0  0  0  0  0  0  0
   -5.9530   19.2310  -31.6610 N   0  0  0  0  0  0  0  0  0  0  0  0
   -6.7480   17.9860  -31.6500 C   0  0  0  0  0  0  0  0  0  0  0  0
   -7.1210   17.4650  -33.0540 C   0  0  0  0  0  0  0  0  0  0  0  0
   -6.0860   17.8030  -34.1330 C   0  0  0  0  0  0  0  0  0  0  0  0
   -4.7120   18.0520  -33.5250 C   0  0  0  0  0  0  0  0  0  0  0  0
   -4.7760   19.2470  -32.5640 C   0  0  0  0  0  0  0  0  0  0  0  0
   -6.6230   23.4190  -31.5150 C   0  0  0  0  0  0  0  0  0  0  0  0
   -5.8930   24.5830  -31.2490 C   0  0  0  0  0  0  0  0  0  0  0  0
   -4.5860   24.4980  -30.7600 C   0  0  0  0  0  0  0  0  0  0  0  0
   -3.8650   25.6730  -30.5150 O   0  0  0  0  0  0  0  0  0  0  0  0
   -1.9300   21.1120  -32.3750 C   0  0  0  0  0  0  0  0  0  0  0  0
   -1.4380   20.6510  -33.5990 C   0  0  0  0  0  0  0  0  0  0  0  0
   -0.6323   22.7057  -36.2307 H   0  0  0  0  0  0  0  0  0  0  0  0
    0.0294   22.0802  -34.6668 H   0  0  0  0  0  0  0  0  0  0  0  0
    0.0604   24.9556  -36.2049 H   0  0  0  0  0  0  0  0  0  0  0  0
    1.9198   26.6163  -36.3223 H   0  0  0  0  0  0  0  0  0  0  0  0
    4.2852   25.8753  -35.9954 H   0  0  0  0  0  0  0  0  0  0  0  0
    4.7977   23.4667  -35.5511 H   0  0  0  0  0  0  0  0  0  0  0  0
    2.9411   21.7996  -35.4214 H   0  0  0  0  0  0  0  0  0  0  0  0
    1.7504   19.8331  -32.6377 H   0  0  0  0  0  0  0  0  0  0  0  0
    0.8860   20.6960  -30.4624 H   0  0  0  0  0  0  0  0  0  0  0  0
   -4.2775   21.0792  -30.6434 H   0  0  0  0  0  0  0  0  0  0  0  0
   -6.1643   17.2078  -31.1364 H   0  0  0  0  0  0  0  0  0  0  0  0
   -7.6926   18.2170  -31.1357 H   0  0  0  0  0  0  0  0  0  0  0  0
   -7.2238   16.3710  -33.0022 H   0  0  0  0  0  0  0  0  0  0  0  0
   -8.0590   17.9621  -33.3421 H   0  0  0  0  0  0  0  0  0  0  0  0
   -6.0179   16.9627  -34.8396 H   0  0  0  0  0  0  0  0  0  0  0  0
   -6.4087   18.7200  -34.6477 H   0  0  0  0  0  0  0  0  0  0  0  0
   -4.3895   17.1568  -32.9731 H   0  0  0  0  0  0  0  0  0  0  0  0
   -3.9940   18.2713  -34.3290 H   0  0  0  0  0  0  0  0  0  0  0  0
   -3.8658   19.2437  -31.9464 H   0  0  0  0  0  0  0  0  0  0  0  0
   -4.8625   20.1511  -33.1847 H   0  0  0  0  0  0  0  0  0  0  0  0
   -7.6515   23.4948  -31.8978 H   0  0  0  0  0  0  0  0  0  0  0  0
   -6.3492   25.5683  -31.4253 H   0  0  0  0  0  0  0  0  0  0  0  0
   -2.9728   21.4533  -32.2968 H   0  0  0  0  0  0  0  0  0  0  0  0
   -2.0911   20.6376  -34.4840 H   0  0  0  0  0  0  0  0  0  0  0  0
  1  2  2  0
  2  3  2  0
  2  4  1  0
  4  5  1  0
  5  6  1  0
  6  7  2  0
  7  8  1  0
  8  9  2  0
  9 10  1  0
 10 11  2  0
  2 12  1  0
 12 13  2  0
 13 14  1  0
 14 15  2  0
 15 16  1  0
 16 17  2  0
 16 18  2  0
 16 19  1  0
 19 20  1  0
 20 21  2  0
 21 22  1  0
 22 23  1  0
 23 24  2  0
 23 25  2  0
 23 26  1  0
 26 27  1  0
 27 28  1  0
 28 29  1  0
 29 30  1  0
 30 31  1  0
 22 32  2  0
 32 33  1  0
 33 34  2  0
 34 35  1  0
 15 36  1  0
 36 37  2  0
 11  6  1  0
 37 12  1  0
 34 20  1  0
 31 26  1  0
  5 38  1  0
  5 39  1  0
  7 40  1  0
  8 41  1  0
  9 42  1  0
 10 43  1  0
 11 44  1  0
 13 45  1  0
 14 46  1  0
 21 47  1  0
 27 48  1  0
 27 49  1  0
 28 50  1  0
 28 51  1  0
 29 52  1  0
 29 53  1  0
 30 54  1  0
 30 55  1  0
 31 56  1  0
 31 57  1  0
 32 58  1  0
 33 59  1  0
 36 60  1  0
 37 61  1  0
M  CHG  3   4  -1  19  -1  35  -1
M  END
>  <UniqueID>  (9) 
9

>  <SMILES>  (9) 
O=S(=O)([N-]Cc1ccccc1)c1ccc(S(=O)(=O)[N-]c2cc(S(=O)(=O)N3CCCCC3)ccc2[O-])cc1

>  <Energy>  (9) 
74.64657269562967

>  <Genealogy>  (9) 
O=S(=O)([N-]Cc1ccccc1)c1ccc(S(=O)(=O)[N-]c2cc(S(=O)(=O)N3CCCCC3)ccc2[O-])cc1 (protonated)
O=S(=O)([N-]Cc1ccccc1)c1ccc(S(=O)(=O)[N-]c2cc(S(=O)(=O)N3CCCCC3)ccc2[O-])cc1 (3D coordinates assigned)
O=S(=O)([N-]Cc1ccccc1)c1ccc(S(=O)(=O)[N-]c2cc(S(=O)(=O)N3CCCCC3)ccc2[O-])cc1 (nonaromatic ring conformer: 74.64657269562967 kcal/mol)

>  <smiles>  (9) 
O=S(=O)(NCc1ccccc1)c1ccc(S(=O)(=O)Nc2cc(S(=O)(=O)N3CCCCC3)ccc2O)cc1

>  <score_type>  (9) 
oracle

>  <origin>  (9) 
adgpu

>  <m_score__min__energy>  (9) 
-15.140000000000001

>  <m_primary>  (9) 
energy

$$$$
9:0
     RDKit          3D

 50 53  0  0  0  0  0  0  0  0999 V2000
   -6.4830   25.7430  -29.3530 C   0  0  0  0  0  0  0  0  0  0  0  0
   -6.1570   24.7040  -30.3770 C   0  0  0  0  0  0  0  0  0  0  0  0
   -6.8290   23.5160  -30.5590 C   0  0  0  0  0  0  0  0  0  0  0  0
   -6.0980   22.8740  -31.5450 C   0  0  0  0  0  0  0  0  0  0  0  0
   -6.3590   21.5370  -32.1310 C   0  0  0  0  0  0  0  0  0  0  0  0
   -7.6390   20.9670  -32.0360 C   0  0  0  0  0  0  0  0  0  0  0  0
   -7.8950   19.7050  -32.5860 C   0  0  0  0  0  0  0  0  0  0  0  0
   -6.8760   18.9940  -33.2240 C   0  0  0  0  0  0  0  0  0  0  0  0
   -5.5880   19.5460  -33.3110 C   0  0  0  0  0  0  0  0  0  0  0  0
   -4.2440   18.6220  -33.9810 S   0  0  0  0  0  0  0  0  0  0  0  0
   -3.9140   17.4420  -33.1100 O   0  0  0  0  0  0  0  0  0  0  0  0
   -4.6300   18.1300  -35.3460 O   0  0  0  0  0  0  0  0  0  0  0  0
   -2.8640   19.6630  -34.1070 N   0  0  0  0  0  0  0  0  0  0  0  0
   -2.2100   20.1130  -32.9170 C   0  0  0  0  0  0  0  0  0  0  0  0
   -1.4730   19.3550  -32.0180 C   0  0  0  0  0  0  0  0  0  0  0  0
   -1.0270   17.9350  -32.2110 C   0  0  0  0  0  0  0  0  0  0  0  0
   -1.2710   20.0980  -30.9000 N   0  0  0  0  0  0  0  0  0  0  0  0
   -0.5550   19.6590  -29.6950 C   0  0  0  0  0  0  0  0  0  0  0  0
   -1.8300   21.2960  -31.0710 N   0  0  0  0  0  0  0  0  0  0  0  0
   -1.8580   22.3590  -30.1040 C   0  0  0  0  0  0  0  0  0  0  0  0
   -0.6680   23.0040  -29.7290 C   0  0  0  0  0  0  0  0  0  0  0  0
   -0.6950   24.0280  -28.7780 C   0  0  0  0  0  0  0  0  0  0  0  0
   -1.9080   24.4070  -28.1920 C   0  0  0  0  0  0  0  0  0  0  0  0
   -3.0960   23.7680  -28.5610 C   0  0  0  0  0  0  0  0  0  0  0  0
   -3.0710   22.7460  -29.5130 C   0  0  0  0  0  0  0  0  0  0  0  0
   -2.4160   21.3180  -32.2840 C   0  0  0  0  0  0  0  0  0  0  0  0
   -3.0810   22.2870  -32.7410 O   0  0  0  0  0  0  0  0  0  0  0  0
   -5.3370   20.8170  -32.7740 C   0  0  0  0  0  0  0  0  0  0  0  0
   -5.0910   23.6490  -31.8840 O   0  0  0  0  0  0  0  0  0  0  0  0
   -5.0890   24.7560  -31.1950 N   0  0  0  0  0  0  0  0  0  0  0  0
   -6.3503   25.3200  -28.3463 H   0  0  0  0  0  0  0  0  0  0  0  0
   -5.8124   26.6057  -29.4796 H   0  0  0  0  0  0  0  0  0  0  0  0
   -7.5263   26.0679  -29.4796 H   0  0  0  0  0  0  0  0  0  0  0  0
   -7.7331   23.1606  -30.0430 H   0  0  0  0  0  0  0  0  0  0  0  0
   -8.4452   21.5152  -31.5265 H   0  0  0  0  0  0  0  0  0  0  0  0
   -8.9035   19.2714  -32.5153 H   0  0  0  0  0  0  0  0  0  0  0  0
   -7.0821   18.0041  -33.6572 H   0  0  0  0  0  0  0  0  0  0  0  0
   -2.8050   20.2700  -34.9520 H   0  0  0  0  0  0  0  0  0  0  0  0
   -0.8781   17.4609  -31.2297 H   0  0  0  0  0  0  0  0  0  0  0  0
   -1.7949   17.3826  -32.7724 H   0  0  0  0  0  0  0  0  0  0  0  0
   -0.0811   17.9208  -32.7724 H   0  0  0  0  0  0  0  0  0  0  0  0
   -1.1016   19.9941  -28.8012 H   0  0  0  0  0  0  0  0  0  0  0  0
   -0.4831   18.5614  -29.6907 H   0  0  0  0  0  0  0  0  0  0  0  0
    0.4559   20.0927  -29.6907 H   0  0  0  0  0  0  0  0  0  0  0  0
    0.2869   22.7028  -30.1845 H   0  0  0  0  0  0  0  0  0  0  0  0
    0.2373   24.5360  -28.4902 H   0  0  0  0  0  0  0  0  0  0  0  0
   -1.9271   25.2092  -27.4396 H   0  0  0  0  0  0  0  0  0  0  0  0
   -4.0491   24.0698  -28.1021 H   0  0  0  0  0  0  0  0  0  0  0  0
   -4.0057   22.2424  -29.8007 H   0  0  0  0  0  0  0  0  0  0  0  0
   -4.3312   21.2546  -32.8567 H   0  0  0  0  0  0  0  0  0  0  0  0
  1  2  1  0
  2  3  1  0
  3  4  2  0
  4  5  1  0
  5  6  2  0
  6  7  1  0
  7  8  2  0
  8  9  1  0
  9 10  1  0
 10 11  2  0
 10 12  2  0
 10 13  1  0
 13 14  1  0
 14 15  2  0
 15 16  1  0
 15 17  1  0
 17 18  1  0
 17 19  1  0
 19 20  1  0
 20 21  2  0
 21 22  1  0
 22 23  2  0
 23 24  1  0
 24 25  2  0
 19 26  1  0
 26 27  2  0
  9 28  2  0
  4 29  1  0
 29 30  1  0
 30  2  2  0
 28  5  1  0
 26 14  1  0
 25 20  1  0
  1 31  1  0
  1 32  1  0
  1 33  1  0
  3 34  1  0
  6 35  1  0
  7 36  1  0
  8 37  1  0
 13 38  1  0
 16 39  1  0
 16 40  1  0
 16 41  1  0
 18 42  1  0
 18 43  1  0
 18 44  1  0
 21 45  1  0
 22 46  1  0
 23 47  1  0
 24 48  1  0
 25 49  1  0
 28 50  1  0
M  END
>  <UniqueID>  (10) 
10

>  <SMILES>  (10) 
Cc1cc(-c2cccc(S(=O)(=O)Nc3c(C)n(C)n(-c4ccccc4)c3=O)c2)on1

>  <Energy>  (10) 
127.87973617760946

>  <Genealogy>  (10) 
Cc1cc(-c2cccc(S(=O)(=O)Nc3c(C)n(C)n(-c4ccccc4)c3=O)c2)on1 (3D coordinates assigned)
Cc1cc(-c2cccc(S(=O)(=O)Nc3c(C)n(C)n(-c4ccccc4)c3=O)c2)on1 (optimized conformer: 127.87973617760946 kcal/mol)

>  <smiles>  (10) 
Cc1cc(-c2cccc(S(=O)(=O)Nc3c(C)n(C)n(-c4ccccc4)c3=O)c2)on1

>  <score_type>  (10) 
oracle

>  <origin>  (10) 
adgpu

>  <m_score__min__energy>  (10) 
-10.9

>  <m_primary>  (10) 
energy

$$$$
10:0
     RDKit          3D

 31 33  0  0  0  0  0  0  0  0999 V2000
   -2.1350   22.1710  -31.0230 O   0  0  0  0  0  0  0  0  0  0  0  0
   -2.5170   23.1020  -30.2650 C   0  0  0  0  0  0  0  0  0  0  0  0
   -3.4540   24.0850  -30.7240 N   0  0  0  0  0  0  0  0  0  0  0  0
   -4.8600   23.8880  -30.9320 C   0  0  0  0  0  0  0  0  0  0  0  0
   -5.8330   24.5480  -30.1620 C   0  0  0  0  0  0  0  0  0  0  0  0
   -7.1880   24.3410  -30.4250 C   0  0  0  0  0  0  0  0  0  0  0  0
   -7.5600   23.4850  -31.4640 C   0  0  0  0  0  0  0  0  0  0  0  0
   -6.6080   22.8720  -32.2150 N   0  0  0  0  0  0  0  0  0  0  0  0
   -5.2820   23.0590  -31.9780 C   0  0  0  0  0  0  0  0  0  0  0  0
   -1.9500   23.2190  -28.9070 C   0  0  0  0  0  0  0  0  0  0  0  0
   -1.4910   24.4760  -28.4440 C   0  0  0  0  0  0  0  0  0  0  0  0
   -1.5790   25.6320  -29.2230 O   0  0  0  0  0  0  0  0  0  0  0  0
   -0.9490   24.5940  -27.1610 C   0  0  0  0  0  0  0  0  0  0  0  0
   -0.8690   23.4910  -26.3180 C   0  0  0  0  0  0  0  0  0  0  0  0
   -1.3200   22.2380  -26.7460 C   0  0  0  0  0  0  0  0  0  0  0  0
   -1.2280   21.1290  -25.8890 C   0  0  0  0  0  0  0  0  0  0  0  0
   -1.6550   19.8720  -26.3160 C   0  0  0  0  0  0  0  0  0  0  0  0
   -2.1700   19.7070  -27.6010 C   0  0  0  0  0  0  0  0  0  0  0  0
   -2.2690   20.7990  -28.4670 C   0  0  0  0  0  0  0  0  0  0  0  0
   -1.8600   22.0860  -28.0520 C   0  0  0  0  0  0  0  0  0  0  0  0
   -5.5269   25.2272  -29.3527 H   0  0  0  0  0  0  0  0  0  0  0  0
   -7.9550   24.8468  -29.8202 H   0  0  0  0  0  0  0  0  0  0  0  0
   -8.6249   23.3069  -31.6745 H   0  0  0  0  0  0  0  0  0  0  0  0
   -4.5369   22.5560  -32.6118 H   0  0  0  0  0  0  0  0  0  0  0  0
   -2.0790   25.6740  -30.1010 H   0  0  0  0  0  0  0  0  0  0  0  0
   -0.5814   25.5710  -26.8141 H   0  0  0  0  0  0  0  0  0  0  0  0
   -0.4483   23.6046  -25.3080 H   0  0  0  0  0  0  0  0  0  0  0  0
   -0.8171   21.2526  -24.8761 H   0  0  0  0  0  0  0  0  0  0  0  0
   -1.5853   19.0089  -25.6376 H   0  0  0  0  0  0  0  0  0  0  0  0
   -2.5000   18.7122  -27.9347 H   0  0  0  0  0  0  0  0  0  0  0  0
   -2.6692   20.6553  -29.4815 H   0  0  0  0  0  0  0  0  0  0  0  0
  1  2  2  0
  2  3  1  0
  3  4  1  0
  4  5  2  0
  5  6  1  0
  6  7  2  0
  7  8  1  0
  8  9  2  0
  2 10  1  0
 10 11  2  0
 11 12  1  0
 11 13  1  0
 13 14  2  0
 14 15  1  0
 15 16  2  0
 16 17  1  0
 17 18  2  0
 18 19  1  0
 19 20  2  0
  9  4  1  0
 20 10  1  0
 20 15  1  0
  5 21  1  0
  6 22  1  0
  7 23  1  0
  9 24  1  0
 12 25  1  0
 13 26  1  0
 14 27  1  0
 16 28  1  0
 17 29  1  0
 18 30  1  0
 19 31  1  0
M  CHG  1   3  -1
M  END
>  <UniqueID>  (11) 
11

>  <SMILES>  (11) 
O=C([N-]c1cccnc1)c1c(O)ccc2ccccc12

>  <Energy>  (11) 
50.79958976265928

>  <Genealogy>  (11) 
O=C([N-]c1cccnc1)c1c(O)ccc2ccccc12 (protonated)
O=C([N-]c1cccnc1)c1c(O)ccc2ccccc12 (3D coordinates assigned)
O=C([N-]c1cccnc1)c1c(O)ccc2ccccc12 (optimized conformer: 50.79958976265928 kcal/mol)

>  <smiles>  (11) 
O=C(Nc1cccnc1)c1c(O)ccc2ccccc12

>  <score_type>  (11) 
oracle

>  <origin>  (11) 
adgpu

>  <m_score__min__energy>  (11) 
-8.6799999999999997

>  <m_primary>  (11) 
energy

$$$$
11:0
     RDKit          3D

 43 46  0  0  0  0  0  0  0  0999 V2000
   -9.1690   18.5210  -31.5980 C   0  0  0  0  0  0  0  0  0  0  0  0
   -8.6620   19.9250  -31.7470 C   0  0  0  0  0  0  0  0  0  0  0  0
   -9.4860   21.0150  -31.4290 C   0  0  0  0  0  0  0  0  0  0  0  0
   -9.0210   22.3210  -31.6010 C   0  0  0  0  0  0  0  0  0  0  0  0
   -7.7330   22.5490  -32.0890 C   0  0  0  0  0  0  0  0  0  0  0  0
   -6.8940   21.4710  -32.4080 C   0  0  0  0  0  0  0  0  0  0  0  0
   -5.5640   21.7300  -32.8910 N   0  0  0  0  0  0  0  0  0  0  0  0
   -4.4510   20.8450  -32.6880 C   0  0  0  0  0  0  0  0  0  0  0  0
   -3.3440   21.0330  -31.8600 C   0  0  0  0  0  0  0  0  0  0  0  0
   -2.9970   22.2360  -31.0770 C   0  0  0  0  0  0  0  0  0  0  0  0
   -1.8890   22.2410  -30.2130 C   0  0  0  0  0  0  0  0  0  0  0  0
   -1.5560   23.3970  -29.5000 C   0  0  0  0  0  0  0  0  0  0  0  0
   -2.3360   24.5500  -29.6300 C   0  0  0  0  0  0  0  0  0  0  0  0
   -1.9980   25.6970  -28.9210 O   0  0  0  0  0  0  0  0  0  0  0  0
   -3.4550   24.5460  -30.4710 C   0  0  0  0  0  0  0  0  0  0  0  0
   -4.2350   25.6890  -30.6010 O   0  0  0  0  0  0  0  0  0  0  0  0
   -3.7880   23.3910  -31.1860 C   0  0  0  0  0  0  0  0  0  0  0  0
   -2.5640   19.9230  -31.8930 N   0  0  0  0  0  0  0  0  0  0  0  0
   -3.2080   19.1050  -32.7510 C   0  0  0  0  0  0  0  0  0  0  0  0
   -2.7980   17.8230  -33.1140 C   0  0  0  0  0  0  0  0  0  0  0  0
   -3.6010   17.1030  -34.0210 C   0  0  0  0  0  0  0  0  0  0  0  0
   -3.2260   15.7050  -34.4110 C   0  0  0  0  0  0  0  0  0  0  0  0
   -4.7980   17.6780  -34.5070 C   0  0  0  0  0  0  0  0  0  0  0  0
   -5.1610   18.9720  -34.1060 C   0  0  0  0  0  0  0  0  0  0  0  0
   -4.3400   19.6330  -33.2500 N   0  0  0  0  0  0  0  0  0  0  0  0
   -7.3790   20.1580  -32.2650 C   0  0  0  0  0  0  0  0  0  0  0  0
   -9.2579   18.2747  -30.5296 H   0  0  0  0  0  0  0  0  0  0  0  0
  -10.1552   18.4344  -32.0776 H   0  0  0  0  0  0  0  0  0  0  0  0
   -8.4657   17.8243  -32.0776 H   0  0  0  0  0  0  0  0  0  0  0  0
  -10.5012   20.8407  -31.0431 H   0  0  0  0  0  0  0  0  0  0  0  0
   -9.6715   23.1721  -31.3512 H   0  0  0  0  0  0  0  0  0  0  0  0
   -7.3740   23.5799  -32.2241 H   0  0  0  0  0  0  0  0  0  0  0  0
   -5.4000   22.5980  -33.4480 H   0  0  0  0  0  0  0  0  0  0  0  0
   -1.2809   21.3317  -30.0969 H   0  0  0  0  0  0  0  0  0  0  0  0
   -0.6791   23.3992  -28.8359 H   0  0  0  0  0  0  0  0  0  0  0  0
   -4.6744   23.3874  -31.8373 H   0  0  0  0  0  0  0  0  0  0  0  0
   -1.8751   17.3864  -32.7046 H   0  0  0  0  0  0  0  0  0  0  0  0
   -3.0644   15.1024  -33.5050 H   0  0  0  0  0  0  0  0  0  0  0  0
   -4.0367   15.2607  -35.0071 H   0  0  0  0  0  0  0  0  0  0  0  0
   -2.3017   15.7260  -35.0071 H   0  0  0  0  0  0  0  0  0  0  0  0
   -5.4419   17.1126  -35.1968 H   0  0  0  0  0  0  0  0  0  0  0  0
   -6.0861   19.4389  -34.4751 H   0  0  0  0  0  0  0  0  0  0  0  0
   -6.7475   19.3076  -32.5616 H   0  0  0  0  0  0  0  0  0  0  0  0
  1  2  1  0
  2  3  2  0
  3  4  1  0
  4  5  2  0
  5  6  1  0
  6  7  1  0
  7  8  1  0
  8  9  2  0
  9 10  1  0
 10 11  2  0
 11 12  1  0
 12 13  2  0
 13 14  1  0
 13 15  1  0
 15 16  1  0
 15 17  2  0
  9 18  1  0
 18 19  2  0
 19 20  1  0
 20 21  2  0
 21 22  1  0
 21 23  1  0
 23 24  2  0
 24 25  1  0
  6 26  2  0
 26  2  1  0
 25  8  1  0
 17 10  1  0
 25 19  1  0
  1 27  1  0
  1 28  1  0
  1 29  1  0
  3 30  1  0
  4 31  1  0
  5 32  1  0
  7 33  1  0
 11 34  1  0
 12 35  1  0
 17 36  1  0
 20 37  1  0
 22 38  1  0
 22 39  1  0
 22 40  1  0
 23 41  1  0
 24 42  1  0
 26 43  1  0
M  CHG  2  14  -1  16  -1
M  END
>  <UniqueID>  (12) 
12

>  <SMILES>  (12) 
Cc1cccc(Nc2c(-c3ccc([O-])c([O-])c3)nc3cc(C)ccn23)c1

>  <Energy>  (12) 
89.52846914256966

>  <Genealogy>  (12) 
Cc1cccc(Nc2c(-c3ccc([O-])c([O-])c3)nc3cc(C)ccn23)c1 (protonated)
Cc1cccc(Nc2c(-c3ccc([O-])c([O-])c3)nc3cc(C)ccn23)c1 (3D coordinates assigned)
Cc1cccc(Nc2c(-c3ccc([O-])c([O-])c3)nc3cc(C)ccn23)c1 (optimized conformer: 89.52846914256966 kcal/mol)

>  <smiles>  (12) 
Cc1cccc(Nc2c(-c3ccc(O)c(O)c3)nc3cc(C)ccn23)c1

>  <score_type>  (12) 
oracle

>  <origin>  (12) 
adgpu

>  <m_score__min__energy>  (12) 
-13.99

>  <m_primary>  (12) 
energy

$$$$
12:0
     RDKit          3D

 24 25  0  0  0  0  0  0  0  0999 V2000
   -0.2270   24.3750  -28.1130 O   0  0  0  0  0  0  0  0  0  0  0  0
   -1.2670   24.0380  -28.7360 C   0  0  0  0  0  0  0  0  0  0  0  0
   -2.0280   24.9810  -29.3430 N   0  0  0  0  0  0  0  0  0  0  0  0
   -3.1570   24.6520  -30.0240 C   0  0  0  0  0  0  0  0  0  0  0  0
   -3.8800   25.6820  -30.6280 O   0  0  0  0  0  0  0  0  0  0  0  0
   -3.5570   23.2990  -30.1000 C   0  0  0  0  0  0  0  0  0  0  0  0
   -5.0240   22.8200  -30.9820 S   0  0  0  0  0  0  0  0  0  0  0  0
   -6.1830   22.6020  -30.0490 O   0  0  0  0  0  0  0  0  0  0  0  0
   -5.3900   23.9210  -31.9370 O   0  0  0  0  0  0  0  0  0  0  0  0
   -4.7270   21.3180  -31.8520 C   0  0  0  0  0  0  0  0  0  0  0  0
   -3.6980   21.2330  -32.8020 C   0  0  0  0  0  0  0  0  0  0  0  0
   -3.4700   20.0350  -33.4850 C   0  0  0  0  0  0  0  0  0  0  0  0
   -4.2690   18.9170  -33.2260 C   0  0  0  0  0  0  0  0  0  0  0  0
   -5.2980   18.9980  -32.2830 C   0  0  0  0  0  0  0  0  0  0  0  0
   -5.5290   20.1950  -31.5990 C   0  0  0  0  0  0  0  0  0  0  0  0
   -2.7410   22.3410  -29.4660 C   0  0  0  0  0  0  0  0  0  0  0  0
   -3.0280   21.1160  -29.5030 O   0  0  0  0  0  0  0  0  0  0  0  0
   -1.6240   22.7330  -28.8020 N   0  0  0  0  0  0  0  0  0  0  0  0
   -4.2000   25.6550  -31.5860 H   0  0  0  0  0  0  0  0  0  0  0  0
   -3.0692   22.1113  -33.0098 H   0  0  0  0  0  0  0  0  0  0  0  0
   -2.6608   19.9716  -34.2274 H   0  0  0  0  0  0  0  0  0  0  0  0
   -4.0881   17.9746  -33.7637 H   0  0  0  0  0  0  0  0  0  0  0  0
   -5.9266   18.1187  -32.0790 H   0  0  0  0  0  0  0  0  0  0  0  0
   -6.3418   20.2566  -30.8604 H   0  0  0  0  0  0  0  0  0  0  0  0
  1  2  2  0
  2  3  1  0
  3  4  1  0
  4  5  1  0
  4  6  2  0
  6  7  1  0
  7  8  2  0
  7  9  2  0
  7 10  1  0
 10 11  2  0
 11 12  1  0
 12 13  2  0
 13 14  1  0
 14 15  2  0
  6 16  1  0
 16 17  2  0
 16 18  1  0
 18  2  1  0
 15 10  1  0
  5 19  1  0
 11 20  1  0
 12 21  1  0
 13 22  1  0
 14 23  1  0
 15 24  1  0
M  CHG  2   3  -1  18  -1
M  END
>  <UniqueID>  (13) 
13

>  <SMILES>  (13) 
O=c1[n-]c(O)c(S(=O)(=O)c2ccccc2)c(=O)[n-]1

>  <Energy>  (13) 
31.657475108376953

>  <Genealogy>  (13) 
O=c1[n-]c(O)c(S(=O)(=O)c2ccccc2)c(=O)[n-]1 (protonated)
O=c1[n-]c(O)c(S(=O)(=O)c2ccccc2)c(=O)[n-]1 (3D coordinates assigned)
O=c1[n-]c(O)c(S(=O)(=O)c2ccccc2)c(=O)[n-]1 (optimized conformer: 31.657475108376953 kcal/mol)

>  <smiles>  (13) 
O=c1[nH]c(O)c(S(=O)(=O)c2ccccc2)c(=O)[nH]1

>  <score_type>  (13) 
oracle

>  <origin>  (13) 
adgpu

>  <m_score__min__energy>  (13) 
-9.2699999999999996

>  <m_primary>  (13) 
energy

$$$$
13:0
     RDKit          3D

 52 54  0  0  0  0  0  0  0  0999 V2000
   -2.7610   20.6610  -33.5290 C   0  0  0  0  0  0  0  0  0  0  0  0
   -3.1580   19.2450  -33.8290 C   0  0  0  0  0  0  0  0  0  0  0  0
   -2.1910   18.2320  -33.8570 C   0  0  0  0  0  0  0  0  0  0  0  0
   -2.5640   16.9090  -34.0990 C   0  0  0  0  0  0  0  0  0  0  0  0
   -3.9130   16.5770  -34.3030 C   0  0  0  0  0  0  0  0  0  0  0  0
   -4.3060   15.1450  -34.5410 C   0  0  0  0  0  0  0  0  0  0  0  0
   -4.8980   17.5810  -34.2430 C   0  0  0  0  0  0  0  0  0  0  0  0
   -6.2460   17.2160  -34.4150 O   0  0  0  0  0  0  0  0  0  0  0  0
   -7.2080   17.0750  -33.3690 C   0  0  0  0  0  0  0  0  0  0  0  0
   -7.2290   18.3010  -32.5040 C   0  0  0  0  0  0  0  0  0  0  0  0
   -7.1000   18.1730  -31.2570 O   0  0  0  0  0  0  0  0  0  0  0  0
   -7.3600   19.6040  -33.0970 N   0  0  0  0  0  0  0  0  0  0  0  0
   -7.3400   20.8280  -32.3470 C   0  0  0  0  0  0  0  0  0  0  0  0
   -8.5290   21.4840  -31.9870 C   0  0  0  0  0  0  0  0  0  0  0  0
   -8.4810   22.6870  -31.2760 C   0  0  0  0  0  0  0  0  0  0  0  0
   -7.2500   23.2500  -30.9310 C   0  0  0  0  0  0  0  0  0  0  0  0
   -6.0570   22.6190  -31.3060 C   0  0  0  0  0  0  0  0  0  0  0  0
   -4.5020   23.3420  -30.8950 S   0  0  0  0  0  0  0  0  0  0  0  0
   -3.5130   23.0080  -31.9770 O   0  0  0  0  0  0  0  0  0  0  0  0
   -4.6490   24.8380  -30.8560 O   0  0  0  0  0  0  0  0  0  0  0  0
   -3.8820   22.7780  -29.3560 N   0  0  0  0  0  0  0  0  0  0  0  0
   -2.4660   22.3760  -29.4290 C   0  0  0  0  0  0  0  0  0  0  0  0
   -1.4880   23.5710  -29.3140 C   0  0  0  0  0  0  0  0  0  0  0  0
   -2.1250   24.7810  -28.9550 O   0  0  0  0  0  0  0  0  0  0  0  0
   -2.9640   24.5650  -27.8450 C   0  0  0  0  0  0  0  0  0  0  0  0
   -4.1760   23.7090  -28.2450 C   0  0  0  0  0  0  0  0  0  0  0  0
   -6.1080   21.4090  -32.0130 C   0  0  0  0  0  0  0  0  0  0  0  0
   -4.5080   18.9150  -34.0110 C   0  0  0  0  0  0  0  0  0  0  0  0
   -2.7200   20.8073  -32.4395 H   0  0  0  0  0  0  0  0  0  0  0  0
   -1.7712   20.8643  -33.9638 H   0  0  0  0  0  0  0  0  0  0  0  0
   -3.5008   21.3492  -33.9638 H   0  0  0  0  0  0  0  0  0  0  0  0
   -1.1329   18.4803  -33.6875 H   0  0  0  0  0  0  0  0  0  0  0  0
   -1.7965   16.1216  -34.1301 H   0  0  0  0  0  0  0  0  0  0  0  0
   -4.4453   14.6376  -33.5750 H   0  0  0  0  0  0  0  0  0  0  0  0
   -5.2462   15.1127  -35.1110 H   0  0  0  0  0  0  0  0  0  0  0  0
   -3.5140   14.6373  -35.1110 H   0  0  0  0  0  0  0  0  0  0  0  0
   -8.2043   16.9272  -33.8113 H   0  0  0  0  0  0  0  0  0  0  0  0
   -6.9349   16.2079  -32.7497 H   0  0  0  0  0  0  0  0  0  0  0  0
   -7.3230   19.6760  -34.1390 H   0  0  0  0  0  0  0  0  0  0  0  0
   -9.5007   21.0499  -32.2653 H   0  0  0  0  0  0  0  0  0  0  0  0
   -9.4150   23.1914  -30.9876 H   0  0  0  0  0  0  0  0  0  0  0  0
   -7.2174   24.1916  -30.3632 H   0  0  0  0  0  0  0  0  0  0  0  0
   -2.2588   21.6739  -28.6080 H   0  0  0  0  0  0  0  0  0  0  0  0
   -2.3064   21.9156  -30.4152 H   0  0  0  0  0  0  0  0  0  0  0  0
   -0.7339   23.3329  -28.5494 H   0  0  0  0  0  0  0  0  0  0  0  0
   -1.0380   23.7211  -30.3065 H   0  0  0  0  0  0  0  0  0  0  0  0
   -2.3973   24.0450  -27.0586 H   0  0  0  0  0  0  0  0  0  0  0  0
   -3.3216   25.5371  -27.4748 H   0  0  0  0  0  0  0  0  0  0  0  0
   -4.4952   23.1225  -27.3709 H   0  0  0  0  0  0  0  0  0  0  0  0
   -4.9649   24.3942  -28.5887 H   0  0  0  0  0  0  0  0  0  0  0  0
   -5.1728   20.9108  -32.3084 H   0  0  0  0  0  0  0  0  0  0  0  0
   -5.2714   19.7061  -33.9723 H   0  0  0  0  0  0  0  0  0  0  0  0
  1  2  1  0
  2  3  2  0
  3  4  1  0
  4  5  2  0
  5  6  1  0
  5  7  1  0
  7  8  1  0
  8  9  1  0
  9 10  1  0
 10 11  2  0
 10 12  1  0
 12 13  1  0
 13 14  2  0
 14 15  1  0
 15 16  2  0
 16 17  1  0
 17 18  1  0
 18 19  2  0
 18 20  2  0
 18 21  1  0
 21 22  1  0
 22 23  1  0
 23 24  1  0
 24 25  1  0
 25 26  1  0
 17 27  2  0
  7 28  2  0
 28  2  1  0
 27 13  1  0
 26 21  1  0
  1 29  1  0
  1 30  1  0
  1 31  1  0
  3 32  1  0
  4 33  1  0
  6 34  1  0
  6 35  1  0
  6 36  1  0
  9 37  1  0
  9 38  1  0
 12 39  1  0
 14 40  1  0
 15 41  1  0
 16 42  1  0
 22 43  1  0
 22 44  1  0
 23 45  1  0
 23 46  1  0
 25 47  1  0
 25 48  1  0
 26 49  1  0
 26 50  1  0
 27 51  1  0
 28 52  1  0
M  END
>  <UniqueID>  (14) 
14

>  <SMILES>  (14) 
Cc1ccc(C)c(OCC(=O)Nc2cccc(S(=O)(=O)N3CCOCC3)c2)c1

>  <Energy>  (14) 
64.69657660186058

>  <Genealogy>  (14) 
Cc1ccc(C)c(OCC(=O)Nc2cccc(S(=O)(=O)N3CCOCC3)c2)c1 (3D coordinates assigned)
Cc1ccc(C)c(OCC(=O)Nc2cccc(S(=O)(=O)N3CCOCC3)c2)c1 (nonaromatic ring conformer: 64.69657660186058 kcal/mol)

>  <smiles>  (14) 
Cc1ccc(C)c(OCC(=O)Nc2cccc(S(=O)(=O)N3CCOCC3)c2)c1

>  <score_type>  (14) 
oracle

>  <origin>  (14) 
adgpu

>  <m_score__min__energy>  (14) 
-9.8300000000000001

>  <m_primary>  (14) 
energy

$$$$
14:0
     RDKit          3D

 47 50  0  0  0  0  0  0  0  0999 V2000
   -3.5710   21.8940  -31.9710 C   0  0  0  0  0  0  0  0  0  0  0  0
   -4.9720   21.8630  -31.4340 C   0  0  0  0  0  0  0  0  0  0  0  0
   -5.8330   20.9380  -31.9420 N   0  0  0  0  0  0  0  0  0  0  0  0
   -7.1290   20.8530  -31.5440 C   0  0  0  0  0  0  0  0  0  0  0  0
   -8.1720   19.6210  -32.2350 S   0  0  0  0  0  0  0  0  0  0  0  0
   -9.7490   20.3360  -32.6470 C   0  0  0  0  0  0  0  0  0  0  0  0
   -8.3760   18.5190  -31.2330 O   0  0  0  0  0  0  0  0  0  0  0  0
   -7.5310   19.0490  -33.4690 O   0  0  0  0  0  0  0  0  0  0  0  0
   -7.6200   21.7370  -30.5830 C   0  0  0  0  0  0  0  0  0  0  0  0
   -6.7670   22.6940  -30.0350 C   0  0  0  0  0  0  0  0  0  0  0  0
   -5.4230   22.7600  -30.4350 C   0  0  0  0  0  0  0  0  0  0  0  0
   -4.5380   23.7660  -29.8090 C   0  0  0  0  0  0  0  0  0  0  0  0
   -3.8900   24.5620  -30.5430 O   0  0  0  0  0  0  0  0  0  0  0  0
   -4.4800   23.8960  -28.3800 N   0  0  0  0  0  0  0  0  0  0  0  0
   -3.4220   24.5690  -27.6790 C   0  0  0  0  0  0  0  0  0  0  0  0
   -2.1640   24.7710  -28.2730 C   0  0  0  0  0  0  0  0  0  0  0  0
   -1.1400   25.4050  -27.5620 C   0  0  0  0  0  0  0  0  0  0  0  0
   -1.3540   25.8430  -26.2450 C   0  0  0  0  0  0  0  0  0  0  0  0
   -0.3030   26.4970  -25.5140 N   0  0  0  0  0  0  0  0  0  0  0  0
   -0.3400   26.9670  -24.1580 C   0  0  0  0  0  0  0  0  0  0  0  0
   -1.3440   26.8840  -23.4000 O   0  0  0  0  0  0  0  0  0  0  0  0
    0.9250   27.6100  -23.8190 C   0  0  0  0  0  0  0  0  0  0  0  0
    1.3710   28.2250  -22.6550 C   0  0  0  0  0  0  0  0  0  0  0  0
    2.6680   28.7690  -22.6610 C   0  0  0  0  0  0  0  0  0  0  0  0
    3.4630   28.6770  -23.8260 C   0  0  0  0  0  0  0  0  0  0  0  0
    2.9800   28.0670  -24.9510 N   0  0  0  0  0  0  0  0  0  0  0  0
    1.7270   27.5490  -24.9330 C   0  0  0  0  0  0  0  0  0  0  0  0
    0.9970   26.8680  -25.9910 C   0  0  0  0  0  0  0  0  0  0  0  0
    1.4450   26.6000  -27.1370 O   0  0  0  0  0  0  0  0  0  0  0  0
   -2.6060   25.6230  -25.6460 C   0  0  0  0  0  0  0  0  0  0  0  0
   -3.6260   24.9830  -26.3550 C   0  0  0  0  0  0  0  0  0  0  0  0
   -2.8577   21.9098  -31.1338 H   0  0  0  0  0  0  0  0  0  0  0  0
   -3.3943   20.9995  -32.5864 H   0  0  0  0  0  0  0  0  0  0  0  0
   -3.4341   22.7954  -32.5864 H   0  0  0  0  0  0  0  0  0  0  0  0
  -10.2925   20.5824  -31.7229 H   0  0  0  0  0  0  0  0  0  0  0  0
   -9.5937   21.2517  -33.2363 H   0  0  0  0  0  0  0  0  0  0  0  0
  -10.3354   19.6157  -33.2363 H   0  0  0  0  0  0  0  0  0  0  0  0
   -8.6701   21.6795  -30.2607 H   0  0  0  0  0  0  0  0  0  0  0  0
   -7.1494   23.4016  -29.2847 H   0  0  0  0  0  0  0  0  0  0  0  0
   -5.3090   23.5740  -27.8310 H   0  0  0  0  0  0  0  0  0  0  0  0
   -1.9840   24.4285  -29.3027 H   0  0  0  0  0  0  0  0  0  0  0  0
   -0.1605   25.5616  -28.0375 H   0  0  0  0  0  0  0  0  0  0  0  0
    0.7325   28.2841  -21.7612 H   0  0  0  0  0  0  0  0  0  0  0  0
    3.0625   29.2646  -21.7617 H   0  0  0  0  0  0  0  0  0  0  0  0
    4.4786   29.0995  -23.8280 H   0  0  0  0  0  0  0  0  0  0  0  0
   -2.7841   25.9565  -24.6130 H   0  0  0  0  0  0  0  0  0  0  0  0
   -4.5969   24.8025  -25.8705 H   0  0  0  0  0  0  0  0  0  0  0  0
  1  2  1  0
  2  3  2  0
  3  4  1  0
  4  5  1  0
  5  6  1  0
  5  7  2  0
  5  8  2  0
  4  9  2  0
  9 10  1  0
 10 11  2  0
 11 12  1  0
 12 13  2  0
 12 14  1  0
 14 15  1  0
 15 16  2  0
 16 17  1  0
 17 18  2  0
 18 19  1  0
 19 20  1  0
 20 21  2  0
 20 22  1  0
 22 23  2  0
 23 24  1  0
 24 25  2  0
 25 26  1  0
 26 27  2  0
 27 28  1  0
 28 29  2  0
 18 30  1  0
 30 31  2  0
 11  2  1  0
 31 15  1  0
 28 19  1  0
 27 22  1  0
  1 32  1  0
  1 33  1  0
  1 34  1  0
  6 35  1  0
  6 36  1  0
  6 37  1  0
  9 38  1  0
 10 39  1  0
 14 40  1  0
 16 41  1  0
 17 42  1  0
 23 43  1  0
 24 44  1  0
 25 45  1  0
 30 46  1  0
 31 47  1  0
M  END
>  <UniqueID>  (15) 
15

>  <SMILES>  (15) 
Cc1nc(S(C)(=O)=O)ccc1C(=O)Nc1ccc(N2C(=O)c3cccnc3C2=O)cc1

>  <Energy>  (15) 
96.48899424324036

>  <Genealogy>  (15) 
Cc1nc(S(C)(=O)=O)ccc1C(=O)Nc1ccc(N2C(=O)c3cccnc3C2=O)cc1 (3D coordinates assigned)
Cc1nc(S(C)(=O)=O)ccc1C(=O)Nc1ccc(N2C(=O)c3cccnc3C2=O)cc1 (nonaromatic ring conformer: 96.48899424324036 kcal/mol)

>  <smiles>  (15) 
Cc1nc(S(C)(=O)=O)ccc1C(=O)Nc1ccc(N2C(=O)c3cccnc3C2=O)cc1

>  <score_type>  (15) 
oracle

>  <origin>  (15) 
adgpu

>  <m_score__min__energy>  (15) 
-8.9900000000000002

>  <m_primary>  (15) 
energy

$$$$
15:0
     RDKit          3D

 38 39  0  0  0  0  0  0  0  0999 V2000
   -4.1190   20.4660  -33.0840 C   0  0  0  0  0  0  0  0  0  0  0  0
   -5.0530   21.2500  -32.2000 C   0  0  0  0  0  0  0  0  0  0  0  0
   -4.5710   22.4050  -31.5590 C   0  0  0  0  0  0  0  0  0  0  0  0
   -5.4010   23.1640  -30.7260 C   0  0  0  0  0  0  0  0  0  0  0  0
   -4.7820   24.6200  -29.9450 S   0  0  0  0  0  0  0  0  0  0  0  0
   -3.8710   25.3640  -30.8810 O   0  0  0  0  0  0  0  0  0  0  0  0
   -5.9340   25.5080  -29.5750 O   0  0  0  0  0  0  0  0  0  0  0  0
   -3.8990   24.2120  -28.5070 N   0  0  0  0  0  0  0  0  0  0  0  0
   -3.1180   23.0100  -28.3700 C   0  0  0  0  0  0  0  0  0  0  0  0
   -3.7330   21.7500  -28.5000 C   0  0  0  0  0  0  0  0  0  0  0  0
   -3.0030   20.5780  -28.3180 C   0  0  0  0  0  0  0  0  0  0  0  0
   -1.6500   20.6400  -27.9970 C   0  0  0  0  0  0  0  0  0  0  0  0
   -1.0140   21.8760  -27.8660 C   0  0  0  0  0  0  0  0  0  0  0  0
    0.3020   21.8930  -27.5410 F   0  0  0  0  0  0  0  0  0  0  0  0
   -1.7340   23.0740  -28.0630 C   0  0  0  0  0  0  0  0  0  0  0  0
   -0.8960   24.6340  -27.9430 S   0  0  0  0  0  0  0  0  0  0  0  0
   -1.6770   25.7870  -28.9650 N   0  0  0  0  0  0  0  0  0  0  0  0
    0.5360   24.4710  -28.3700 O   0  0  0  0  0  0  0  0  0  0  0  0
   -0.9080   25.1480  -26.5300 O   0  0  0  0  0  0  0  0  0  0  0  0
   -6.7230   22.7550  -30.5110 C   0  0  0  0  0  0  0  0  0  0  0  0
   -7.5420   23.4670  -29.6970 F   0  0  0  0  0  0  0  0  0  0  0  0
   -7.2090   21.6030  -31.1300 C   0  0  0  0  0  0  0  0  0  0  0  0
   -6.3880   20.8370  -31.9710 C   0  0  0  0  0  0  0  0  0  0  0  0
   -7.0590   19.3850  -32.7320 S   0  0  0  0  0  0  0  0  0  0  0  0
   -8.7800   19.5200  -32.8300 N   0  0  0  0  0  0  0  0  0  0  0  0
   -6.7150   18.1670  -31.9210 O   0  0  0  0  0  0  0  0  0  0  0  0
   -6.4860   19.2170  -34.1100 O   0  0  0  0  0  0  0  0  0  0  0  0
   -3.4254   19.8838  -32.4595 H   0  0  0  0  0  0  0  0  0  0  0  0
   -4.7022   19.7829  -33.7190 H   0  0  0  0  0  0  0  0  0  0  0  0
   -3.5473   21.1587  -33.7190 H   0  0  0  0  0  0  0  0  0  0  0  0
   -3.5274   22.7162  -31.7144 H   0  0  0  0  0  0  0  0  0  0  0  0
   -3.9470   24.9000  -27.7230 H   0  0  0  0  0  0  0  0  0  0  0  0
   -4.8030   21.6907  -28.7483 H   0  0  0  0  0  0  0  0  0  0  0  0
   -3.4967   19.6012  -28.4282 H   0  0  0  0  0  0  0  0  0  0  0  0
   -1.0796   19.7116  -27.8460 H   0  0  0  0  0  0  0  0  0  0  0  0
   -1.9820   25.2760  -29.8240 H   0  0  0  0  0  0  0  0  0  0  0  0
   -8.2495   21.2913  -30.9563 H   0  0  0  0  0  0  0  0  0  0  0  0
   -9.0180   19.6380  -33.8400 H   0  0  0  0  0  0  0  0  0  0  0  0
  1  2  1  0
  2  3  2  0
  3  4  1  0
  4  5  1  0
  5  6  2  0
  5  7  2  0
  5  8  1  0
  8  9  1  0
  9 10  2  0
 10 11  1  0
 11 12  2  0
 12 13  1  0
 13 14  1  0
 13 15  2  0
 15 16  1  0
 16 17  1  0
 16 18  2  0
 16 19  2  0
  4 20  2  0
 20 21  1  0
 20 22  1  0
 22 23  2  0
 23 24  1  0
 24 25  1  0
 24 26  2  0
 24 27  2  0
 23  2  1  0
 15  9  1  0
  1 28  1  0
  1 29  1  0
  1 30  1  0
  3 31  1  0
  8 32  1  0
 10 33  1  0
 11 34  1  0
 12 35  1  0
 17 36  1  0
 22 37  1  0
 25 38  1  0
M  CHG  2  17  -1  25  -1
M  END
>  <UniqueID>  (16) 
16

>  <SMILES>  (16) 
Cc1cc(S(=O)(=O)Nc2cccc(F)c2S([NH-])(=O)=O)c(F)cc1S([NH-])(=O)=O

>  <Energy>  (16) 
46.75795624545578

>  <Genealogy>  (16) 
Cc1cc(S(=O)(=O)Nc2cccc(F)c2S([NH-])(=O)=O)c(F)cc1S([NH-])(=O)=O (protonated)
Cc1cc(S(=O)(=O)Nc2cccc(F)c2S([NH-])(=O)=O)c(F)cc1S([NH-])(=O)=O (3D coordinates assigned)
Cc1cc(S(=O)(=O)Nc2cccc(F)c2S([NH-])(=O)=O)c(F)cc1S([NH-])(=O)=O (optimized conformer: 46.75795624545578 kcal/mol)

>  <smiles>  (16) 
Cc1cc(S(=O)(=O)Nc2cccc(F)c2S(N)(=O)=O)c(F)cc1S(N)(=O)=O

>  <score_type>  (16) 
oracle

>  <origin>  (16) 
adgpu

>  <m_score__min__energy>  (16) 
-11.779999999999999

>  <m_primary>  (16) 
energy

$$$$
16:0
     RDKit          3D

 50 52  0  0  0  0  0  0  0  0999 V2000
   -7.8810   19.9270  -33.3600 N   0  0  0  0  0  0  0  0  0  0  0  0
   -8.6440   20.6570  -31.9910 S   0  0  0  0  0  0  0  0  0  0  0  0
   -8.7300   19.6560  -30.8720 O   0  0  0  0  0  0  0  0  0  0  0  0
  -10.0360   21.0900  -32.3600 O   0  0  0  0  0  0  0  0  0  0  0  0
   -7.7070   22.0580  -31.4820 C   0  0  0  0  0  0  0  0  0  0  0  0
   -7.4660   22.2980  -30.1230 C   0  0  0  0  0  0  0  0  0  0  0  0
   -6.7040   23.4000  -29.7280 C   0  0  0  0  0  0  0  0  0  0  0  0
   -6.1670   24.2720  -30.6900 C   0  0  0  0  0  0  0  0  0  0  0  0
   -5.3240   25.4470  -30.2700 C   0  0  0  0  0  0  0  0  0  0  0  0
   -3.9390   25.3010  -30.7220 N   0  0  0  0  0  0  0  0  0  0  0  0
   -2.9720   24.4300  -29.5630 S   0  0  0  0  0  0  0  0  0  0  0  0
   -1.7100   25.2000  -29.2880 O   0  0  0  0  0  0  0  0  0  0  0  0
   -3.7430   24.3090  -28.2780 O   0  0  0  0  0  0  0  0  0  0  0  0
   -2.5850   22.8110  -30.1410 C   0  0  0  0  0  0  0  0  0  0  0  0
   -1.5490   22.0700  -29.5560 C   0  0  0  0  0  0  0  0  0  0  0  0
   -1.2420   20.7940  -30.0350 C   0  0  0  0  0  0  0  0  0  0  0  0
   -1.9680   20.2510  -31.0980 C   0  0  0  0  0  0  0  0  0  0  0  0
   -3.0090   20.9830  -31.6880 C   0  0  0  0  0  0  0  0  0  0  0  0
   -3.9280   20.2970  -33.0300 S   0  0  0  0  0  0  0  0  0  0  0  0
   -3.0060   20.0680  -34.1940 O   0  0  0  0  0  0  0  0  0  0  0  0
   -4.9830   21.2800  -33.4580 O   0  0  0  0  0  0  0  0  0  0  0  0
   -4.6900   18.7870  -32.5900 N   0  0  0  0  0  0  0  0  0  0  0  0
   -5.7170   19.0090  -31.5600 C   0  0  0  0  0  0  0  0  0  0  0  0
   -6.4490   17.6880  -31.2410 C   0  0  0  0  0  0  0  0  0  0  0  0
   -5.9130   16.6020  -31.9740 O   0  0  0  0  0  0  0  0  0  0  0  0
   -6.0280   16.8570  -33.3620 C   0  0  0  0  0  0  0  0  0  0  0  0
   -5.2890   18.1480  -33.7710 C   0  0  0  0  0  0  0  0  0  0  0  0
   -3.3120   22.2640  -31.2070 C   0  0  0  0  0  0  0  0  0  0  0  0
   -6.4100   24.0280  -32.0500 C   0  0  0  0  0  0  0  0  0  0  0  0
   -7.1730   22.9250  -32.4440 C   0  0  0  0  0  0  0  0  0  0  0  0
   -8.5150   20.0740  -34.1770 H   0  0  0  0  0  0  0  0  0  0  0  0
   -7.0090   20.4710  -33.5510 H   0  0  0  0  0  0  0  0  0  0  0  0
   -7.8782   21.6163  -29.3644 H   0  0  0  0  0  0  0  0  0  0  0  0
   -6.5235   23.5860  -28.6590 H   0  0  0  0  0  0  0  0  0  0  0  0
   -5.7473   26.3645  -30.7048 H   0  0  0  0  0  0  0  0  0  0  0  0
   -5.3254   25.4983  -29.1712 H   0  0  0  0  0  0  0  0  0  0  0  0
   -0.9764   22.4940  -28.7179 H   0  0  0  0  0  0  0  0  0  0  0  0
   -0.4273   20.2159  -29.5744 H   0  0  0  0  0  0  0  0  0  0  0  0
   -1.7226   19.2466  -31.4733 H   0  0  0  0  0  0  0  0  0  0  0  0
   -5.2378   19.3885  -30.6455 H   0  0  0  0  0  0  0  0  0  0  0  0
   -6.4471   19.7417  -31.9343 H   0  0  0  0  0  0  0  0  0  0  0  0
   -6.3499   17.4761  -30.1662 H   0  0  0  0  0  0  0  0  0  0  0  0
   -7.5055   17.8045  -31.5241 H   0  0  0  0  0  0  0  0  0  0  0  0
   -5.5980   16.0098  -33.9164 H   0  0  0  0  0  0  0  0  0  0  0  0
   -7.0946   16.9842  -33.5988 H   0  0  0  0  0  0  0  0  0  0  0  0
   -4.4955   17.8997  -34.4912 H   0  0  0  0  0  0  0  0  0  0  0  0
   -6.0082   18.8431  -34.2288 H   0  0  0  0  0  0  0  0  0  0  0  0
   -4.1251   22.8434  -31.6688 H   0  0  0  0  0  0  0  0  0  0  0  0
   -5.9980   24.7081  -32.8101 H   0  0  0  0  0  0  0  0  0  0  0  0
   -7.3546   22.7373  -33.5125 H   0  0  0  0  0  0  0  0  0  0  0  0
  1  2  1  0
  2  3  2  0
  2  4  2  0
  2  5  1  0
  5  6  2  0
  6  7  1  0
  7  8  2  0
  8  9  1  0
  9 10  1  0
 10 11  1  0
 11 12  2  0
 11 13  2  0
 11 14  1  0
 14 15  2  0
 15 16  1  0
 16 17  2  0
 17 18  1  0
 18 19  1  0
 19 20  2  0
 19 21  2  0
 19 22  1  0
 22 23  1  0
 23 24  1  0
 24 25  1  0
 25 26  1  0
 26 27  1  0
 18 28  2  0
  8 29  1  0
 29 30  2  0
 30  5  1  0
 28 14  1  0
 27 22  1  0
  1 31  1  0
  1 32  1  0
  6 33  1  0
  7 34  1  0
  9 35  1  0
  9 36  1  0
 15 37  1  0
 16 38  1  0
 17 39  1  0
 23 40  1  0
 23 41  1  0
 24 42  1  0
 24 43  1  0
 26 44  1  0
 26 45  1  0
 27 46  1  0
 27 47  1  0
 28 48  1  0
 29 49  1  0
 30 50  1  0
M  CHG  1  10  -1
M  END
>  <UniqueID>  (17) 
17

>  <SMILES>  (17) 
NS(=O)(=O)c1ccc(C[N-]S(=O)(=O)c2cccc(S(=O)(=O)N3CCOCC3)c2)cc1

>  <Energy>  (17) 
54.991618764747834

>  <Genealogy>  (17) 
NS(=O)(=O)c1ccc(C[N-]S(=O)(=O)c2cccc(S(=O)(=O)N3CCOCC3)c2)cc1 (protonated)
NS(=O)(=O)c1ccc(C[N-]S(=O)(=O)c2cccc(S(=O)(=O)N3CCOCC3)c2)cc1 (3D coordinates assigned)
NS(=O)(=O)c1ccc(C[N-]S(=O)(=O)c2cccc(S(=O)(=O)N3CCOCC3)c2)cc1 (nonaromatic ring conformer: 54.991618764747834 kcal/mol)

>  <smiles>  (17) 
NS(=O)(=O)c1ccc(CNS(=O)(=O)c2cccc(S(=O)(=O)N3CCOCC3)c2)cc1

>  <score_type>  (17) 
oracle

>  <origin>  (17) 
adgpu

>  <m_score__min__energy>  (17) 
-11.67

>  <m_primary>  (17) 
energy

$$$$
17:0
     RDKit          3D

 40 42  0  0  0  0  0  0  0  0999 V2000
   -1.3020   21.7620  -30.9700 N   0  0  0  0  0  0  0  0  0  0  0  0
   -1.2800   21.0950  -30.0240 C   0  0  0  0  0  0  0  0  0  0  0  0
   -1.2490   20.2550  -28.8540 C   0  0  0  0  0  0  0  0  0  0  0  0
   -0.2780   19.2460  -28.7790 C   0  0  0  0  0  0  0  0  0  0  0  0
   -0.2760   18.3470  -27.7100 C   0  0  0  0  0  0  0  0  0  0  0  0
   -1.2570   18.4370  -26.7200 C   0  0  0  0  0  0  0  0  0  0  0  0
   -2.2270   19.4400  -26.7860 C   0  0  0  0  0  0  0  0  0  0  0  0
   -2.2130   20.3770  -27.8310 C   0  0  0  0  0  0  0  0  0  0  0  0
   -3.4660   21.6770  -27.8610 S   0  0  0  0  0  0  0  0  0  0  0  0
   -2.2710   23.0350  -27.8500 C   0  0  0  0  0  0  0  0  0  0  0  0
   -1.3470   23.0460  -26.7950 C   0  0  0  0  0  0  0  0  0  0  0  0
   -0.3410   24.0080  -26.7370 C   0  0  0  0  0  0  0  0  0  0  0  0
   -0.2490   24.9770  -27.7310 C   0  0  0  0  0  0  0  0  0  0  0  0
   -1.1780   25.0050  -28.7710 C   0  0  0  0  0  0  0  0  0  0  0  0
   -2.2240   24.0580  -28.8400 C   0  0  0  0  0  0  0  0  0  0  0  0
   -3.2340   24.1690  -29.9320 C   0  0  0  0  0  0  0  0  0  0  0  0
   -3.4940   25.2900  -30.4450 O   0  0  0  0  0  0  0  0  0  0  0  0
   -3.8950   23.0070  -30.4530 N   0  0  0  0  0  0  0  0  0  0  0  0
   -5.2510   23.0740  -30.9110 C   0  0  0  0  0  0  0  0  0  0  0  0
   -5.6720   22.2050  -31.9290 C   0  0  0  0  0  0  0  0  0  0  0  0
   -6.9770   22.2720  -32.4210 C   0  0  0  0  0  0  0  0  0  0  0  0
   -7.8750   23.2030  -31.8940 C   0  0  0  0  0  0  0  0  0  0  0  0
   -7.4750   24.0550  -30.8630 C   0  0  0  0  0  0  0  0  0  0  0  0
   -6.1700   23.9930  -30.3530 C   0  0  0  0  0  0  0  0  0  0  0  0
   -5.8090   24.8250  -29.2440 N   0  0  0  0  0  0  0  0  0  0  0  0
    0.4859   19.1621  -29.5660 H   0  0  0  0  0  0  0  0  0  0  0  0
    0.4982   17.5681  -27.6479 H   0  0  0  0  0  0  0  0  0  0  0  0
   -1.2658   17.7177  -25.8878 H   0  0  0  0  0  0  0  0  0  0  0  0
   -3.0078   19.4960  -26.0132 H   0  0  0  0  0  0  0  0  0  0  0  0
   -1.4175   22.2855  -26.0034 H   0  0  0  0  0  0  0  0  0  0  0  0
    0.3798   24.0014  -25.9061 H   0  0  0  0  0  0  0  0  0  0  0  0
    0.5586   25.7231  -27.6966 H   0  0  0  0  0  0  0  0  0  0  0  0
   -1.0948   25.7770  -29.5501 H   0  0  0  0  0  0  0  0  0  0  0  0
   -3.3080   22.2130  -30.7920 H   0  0  0  0  0  0  0  0  0  0  0  0
   -4.9695   21.4662  -32.3421 H   0  0  0  0  0  0  0  0  0  0  0  0
   -7.2979   21.5916  -33.2236 H   0  0  0  0  0  0  0  0  0  0  0  0
   -8.8987   23.2649  -32.2918 H   0  0  0  0  0  0  0  0  0  0  0  0
   -8.1892   24.7809  -30.4472 H   0  0  0  0  0  0  0  0  0  0  0  0
   -5.2170   25.6760  -29.3620 H   0  0  0  0  0  0  0  0  0  0  0  0
   -6.0950   24.5680  -28.2730 H   0  0  0  0  0  0  0  0  0  0  0  0
  1  2  3  0
  2  3  1  0
  3  4  2  0
  4  5  1  0
  5  6  2  0
  6  7  1  0
  7  8  2  0
  8  9  1  0
  9 10  1  0
 10 11  2  0
 11 12  1  0
 12 13  2  0
 13 14  1  0
 14 15  2  0
 15 16  1  0
 16 17  2  0
 16 18  1  0
 18 19  1  0
 19 20  2  0
 20 21  1  0
 21 22  2  0
 22 23  1  0
 23 24  2  0
 24 25  1  0
  8  3  1  0
 15 10  1  0
 24 19  1  0
  4 26  1  0
  5 27  1  0
  6 28  1  0
  7 29  1  0
 11 30  1  0
 12 31  1  0
 13 32  1  0
 14 33  1  0
 18 34  1  0
 20 35  1  0
 21 36  1  0
 22 37  1  0
 23 38  1  0
 25 39  1  0
 25 40  1  0
M  END
>  <UniqueID>  (18) 
18

>  <SMILES>  (18) 
N#Cc1ccccc1Sc1ccccc1C(=O)Nc1ccccc1N

>  <Energy>  (18) 
52.76195025717445

>  <Genealogy>  (18) 
N#Cc1ccccc1Sc1ccccc1C(=O)Nc1ccccc1N (3D coordinates assigned)
N#Cc1ccccc1Sc1ccccc1C(=O)Nc1ccccc1N (optimized conformer: 52.76195025717445 kcal/mol)

>  <smiles>  (18) 
N#Cc1ccccc1Sc1ccccc1C(=O)Nc1ccccc1N

>  <score_type>  (18) 
oracle

>  <origin>  (18) 
adgpu

>  <m_score__min__energy>  (18) 
-9.0199999999999996

>  <m_primary>  (18) 
energy

$$$$
18:0
     RDKit          3D

 27 28  0  0  0  0  0  0  0  0999 V2000
   -3.4240   25.0020  -26.3270 C   0  0  0  0  0  0  0  0  0  0  0  0
   -2.3010   25.2260  -27.2370 N   0  0  0  0  0  0  0  0  0  0  0  0
   -2.1790   24.8350  -28.5240 C   0  0  0  0  0  0  0  0  0  0  0  0
   -3.1720   23.9980  -29.2680 C   0  0  0  0  0  0  0  0  0  0  0  0
   -3.5910   24.6990  -30.4720 N   0  0  0  0  0  0  0  0  0  0  0  0
   -4.9640   24.8890  -30.8260 C   0  0  0  0  0  0  0  0  0  0  0  0
   -5.4420   26.0560  -30.8510 O   0  0  0  0  0  0  0  0  0  0  0  0
   -5.8020   23.7180  -31.1930 C   0  0  0  0  0  0  0  0  0  0  0  0
   -7.1980   23.8020  -31.0200 C   0  0  0  0  0  0  0  0  0  0  0  0
   -8.0240   22.7210  -31.3380 C   0  0  0  0  0  0  0  0  0  0  0  0
   -7.4720   21.5410  -31.8340 C   0  0  0  0  0  0  0  0  0  0  0  0
   -6.0940   21.4400  -32.0200 C   0  0  0  0  0  0  0  0  0  0  0  0
   -5.2520   22.5160  -31.7070 C   0  0  0  0  0  0  0  0  0  0  0  0
   -3.5310   22.3120  -32.0330 Cl  0  0  0  0  0  0  0  0  0  0  0  0
   -1.0630   25.3400  -29.0870 N   0  0  0  0  0  0  0  0  0  0  0  0
   -0.4580   26.0740  -28.1640 N   0  0  0  0  0  0  0  0  0  0  0  0
   -1.2170   26.0060  -27.0550 C   0  0  0  0  0  0  0  0  0  0  0  0
   -0.8670   26.8180  -25.6770 S   0  0  0  0  0  0  0  0  0  0  0  0
   -3.0728   25.0721  -25.2869 H   0  0  0  0  0  0  0  0  0  0  0  0
   -4.1976   25.7635  -26.5048 H   0  0  0  0  0  0  0  0  0  0  0  0
   -3.8462   24.0019  -26.5048 H   0  0  0  0  0  0  0  0  0  0  0  0
   -2.7095   23.0389  -29.5442 H   0  0  0  0  0  0  0  0  0  0  0  0
   -4.0474   23.8119  -28.6284 H   0  0  0  0  0  0  0  0  0  0  0  0
   -7.6426   24.7295  -30.6300 H   0  0  0  0  0  0  0  0  0  0  0  0
   -9.1119   22.8012  -31.1967 H   0  0  0  0  0  0  0  0  0  0  0  0
   -8.1238   20.6894  -32.0787 H   0  0  0  0  0  0  0  0  0  0  0  0
   -5.6639   20.5081  -32.4157 H   0  0  0  0  0  0  0  0  0  0  0  0
  1  2  1  0
  2  3  1  0
  3  4  1  0
  4  5  1  0
  5  6  1  0
  6  7  2  0
  6  8  1  0
  8  9  2  0
  9 10  1  0
 10 11  2  0
 11 12  1  0
 12 13  2  0
 13 14  1  0
  3 15  2  0
 15 16  1  0
 16 17  1  0
 17 18  2  0
 17  2  1  0
 13  8  1  0
  1 19  1  0
  1 20  1  0
  1 21  1  0
  4 22  1  0
  4 23  1  0
  9 24  1  0
 10 25  1  0
 11 26  1  0
 12 27  1  0
M  CHG  2   5  -1  16  -1
M  END
>  <UniqueID>  (19) 
19

>  <SMILES>  (19) 
Cn1c(C[N-]C(=O)c2ccccc2Cl)n[n-]c1=S

>  <Energy>  (19) 
63.8117633757992

>  <Genealogy>  (19) 
Cn1c(C[N-]C(=O)c2ccccc2Cl)n[n-]c1=S (protonated)
Cn1c(C[N-]C(=O)c2ccccc2Cl)n[n-]c1=S (3D coordinates assigned)
Cn1c(C[N-]C(=O)c2ccccc2Cl)n[n-]c1=S (optimized conformer: 63.8117633757992 kcal/mol)

>  <smiles>  (19) 
Cn1c(CNC(=O)c2ccccc2Cl)n[nH]c1=S

>  <score_type>  (19) 
oracle

>  <origin>  (19) 
adgpu

>  <m_score__min__energy>  (19) 
-9.4700000000000006

>  <m_primary>  (19) 
energy

$$$$
19:0
     RDKit          3D

 56 59  0  0  0  0  0  0  0  0999 V2000
   -6.3080   14.8510  -34.2080 C   0  0  0  0  0  0  0  0  0  0  0  0
   -6.1600   16.3200  -33.9440 C   0  0  0  0  0  0  0  0  0  0  0  0
   -4.9320   16.9570  -34.1680 C   0  0  0  0  0  0  0  0  0  0  0  0
   -4.7960   18.3190  -33.8730 C   0  0  0  0  0  0  0  0  0  0  0  0
   -3.4960   19.0190  -34.1090 C   0  0  0  0  0  0  0  0  0  0  0  0
   -5.8520   19.0060  -33.3600 N   0  0  0  0  0  0  0  0  0  0  0  0
   -7.0570   18.4160  -33.1280 C   0  0  0  0  0  0  0  0  0  0  0  0
   -8.1230   19.1380  -32.5760 O   0  0  0  0  0  0  0  0  0  0  0  0
   -8.0700   20.4810  -32.1750 C   0  0  0  0  0  0  0  0  0  0  0  0
   -9.2160   21.2690  -32.3330 C   0  0  0  0  0  0  0  0  0  0  0  0
   -9.2130   22.6070  -31.9340 C   0  0  0  0  0  0  0  0  0  0  0  0
   -8.0570   23.1770  -31.3950 C   0  0  0  0  0  0  0  0  0  0  0  0
   -6.8810   22.4150  -31.2760 C   0  0  0  0  0  0  0  0  0  0  0  0
   -5.6810   22.9680  -30.7070 N   0  0  0  0  0  0  0  0  0  0  0  0
   -4.4350   23.0920  -31.4170 C   0  0  0  0  0  0  0  0  0  0  0  0
   -4.3160   22.6370  -32.5850 O   0  0  0  0  0  0  0  0  0  0  0  0
   -3.3160   23.7630  -30.8250 N   0  0  0  0  0  0  0  0  0  0  0  0
   -2.6510   23.3810  -29.6120 C   0  0  0  0  0  0  0  0  0  0  0  0
   -2.6160   22.0450  -29.1960 C   0  0  0  0  0  0  0  0  0  0  0  0
   -1.9460   21.6890  -28.0280 C   0  0  0  0  0  0  0  0  0  0  0  0
   -1.2780   22.6550  -27.2600 C   0  0  0  0  0  0  0  0  0  0  0  0
   -0.5830   22.2080  -25.9990 C   0  0  0  0  0  0  0  0  0  0  0  0
   -1.2430   24.0020  -27.7100 C   0  0  0  0  0  0  0  0  0  0  0  0
   -0.3610   25.2620  -26.8120 S   0  0  0  0  0  0  0  0  0  0  0  0
    0.4720   26.0870  -27.7550 O   0  0  0  0  0  0  0  0  0  0  0  0
    0.5710   24.6390  -25.8120 O   0  0  0  0  0  0  0  0  0  0  0  0
   -1.5480   26.2890  -25.9470 C   0  0  0  0  0  0  0  0  0  0  0  0
   -1.0000   27.6170  -25.4530 C   0  0  0  0  0  0  0  0  0  0  0  0
   -1.2670   26.4900  -24.4670 C   0  0  0  0  0  0  0  0  0  0  0  0
   -1.9540   24.3520  -28.8800 C   0  0  0  0  0  0  0  0  0  0  0  0
   -1.9880   25.6720  -29.3210 O   0  0  0  0  0  0  0  0  0  0  0  0
   -6.8990   21.0650  -31.6580 C   0  0  0  0  0  0  0  0  0  0  0  0
   -7.2240   17.0540  -33.4040 C   0  0  0  0  0  0  0  0  0  0  0  0
   -6.3625   14.3103  -33.2516 H   0  0  0  0  0  0  0  0  0  0  0  0
   -7.2287   14.6727  -34.7830 H   0  0  0  0  0  0  0  0  0  0  0  0
   -5.4414   14.4927  -34.7830 H   0  0  0  0  0  0  0  0  0  0  0  0
   -4.0804   16.3906  -34.5730 H   0  0  0  0  0  0  0  0  0  0  0  0
   -3.0331   19.2683  -33.1428 H   0  0  0  0  0  0  0  0  0  0  0  0
   -2.8235   18.3611  -34.6789 H   0  0  0  0  0  0  0  0  0  0  0  0
   -3.6751   19.9426  -34.6789 H   0  0  0  0  0  0  0  0  0  0  0  0
  -10.1240   20.8317  -32.7739 H   0  0  0  0  0  0  0  0  0  0  0  0
  -10.1236   23.2142  -32.0444 H   0  0  0  0  0  0  0  0  0  0  0  0
   -8.0667   24.2255  -31.0625 H   0  0  0  0  0  0  0  0  0  0  0  0
   -5.7210   23.2630  -29.7070 H   0  0  0  0  0  0  0  0  0  0  0  0
   -3.1203   21.2722  -29.7947 H   0  0  0  0  0  0  0  0  0  0  0  0
   -1.9404   20.6379  -27.7036 H   0  0  0  0  0  0  0  0  0  0  0  0
   -1.1435   22.5685  -25.1239 H   0  0  0  0  0  0  0  0  0  0  0  0
   -0.5350   21.1093  -25.9765 H   0  0  0  0  0  0  0  0  0  0  0  0
    0.4367   22.6201  -25.9765 H   0  0  0  0  0  0  0  0  0  0  0  0
   -2.4216   25.9756  -26.5374 H   0  0  0  0  0  0  0  0  0  0  0  0
    0.0343   27.9074  -25.6895 H   0  0  0  0  0  0  0  0  0  0  0  0
   -1.3142   28.6678  -25.5370 H   0  0  0  0  0  0  0  0  0  0  0  0
   -0.4259   25.9651  -23.9905 H   0  0  0  0  0  0  0  0  0  0  0  0
   -1.8543   26.3877  -23.5425 H   0  0  0  0  0  0  0  0  0  0  0  0
   -5.9884   20.4571  -31.5522 H   0  0  0  0  0  0  0  0  0  0  0  0
   -8.1862   16.5623  -33.1979 H   0  0  0  0  0  0  0  0  0  0  0  0
  1  2  1  0
  2  3  2  0
  3  4  1  0
  4  5  1  0
  4  6  2  0
  6  7  1  0
  7  8  1  0
  8  9  1  0
  9 10  2  0
 10 11  1  0
 11 12  2  0
 12 13  1  0
 13 14  1  0
 14 15  1  0
 15 16  2  0
 15 17  1  0
 17 18  1  0
 18 19  2  0
 19 20  1  0
 20 21  2  0
 21 22  1  0
 21 23  1  0
 23 24  1  0
 24 25  2  0
 24 26  2  0
 24 27  1  0
 27 28  1  0
 28 29  1  0
 23 30  2  0
 30 31  1  0
 13 32  2  0
  7 33  2  0
 33  2  1  0
 32  9  1  0
 30 18  1  0
 29 27  1  0
  1 34  1  0
  1 35  1  0
  1 36  1  0
  3 37  1  0
  5 38  1  0
  5 39  1  0
  5 40  1  0
 10 41  1  0
 11 42  1  0
 12 43  1  0
 14 44  1  0
 19 45  1  0
 20 46  1  0
 22 47  1  0
 22 48  1  0
 22 49  1  0
 27 50  1  0
 28 51  1  0
 28 52  1  0
 29 53  1  0
 29 54  1  0
 32 55  1  0
 33 56  1  0
M  CHG  2  17  -1  31  -1
M  END
>  <UniqueID>  (20) 
20

>  <SMILES>  (20) 
Cc1cc(C)nc(Oc2cccc(NC(=O)[N-]c3ccc(C)c(S(=O)(=O)C4CC4)c3[O-])c2)c1

>  <Energy>  (20) 
336.7656854057639

>  <Genealogy>  (20) 
Cc1cc(C)nc(Oc2cccc(NC(=O)[N-]c3ccc(C)c(S(=O)(=O)C4CC4)c3[O-])c2)c1 (protonated)
Cc1cc(C)nc(Oc2cccc(NC(=O)[N-]c3ccc(C)c(S(=O)(=O)C4CC4)c3[O-])c2)c1 (3D coordinates assigned)
Cc1cc(C)nc(Oc2cccc(NC(=O)[N-]c3ccc(C)c(S(=O)(=O)C4CC4)c3[O-])c2)c1 (nonaromatic ring conformer: 336.7656854057639 kcal/mol)

>  <smiles>  (20) 
Cc1cc(C)nc(Oc2cccc(NC(=O)Nc3ccc(C)c(S(=O)(=O)C4CC4)c3O)c2)c1

>  <score_type>  (20) 
oracle

>  <origin>  (20) 
adgpu

>  <m_score__min__energy>  (20) 
-14.73

>  <m_primary>  (20) 
energy

$$$$
20:0
     RDKit          3D

 44 47  0  0  0  0  0  0  0  0999 V2000
   -4.9410   25.5080  -31.2180 O   0  0  0  0  0  0  0  0  0  0  0  0
   -5.4910   24.4670  -30.2800 S   0  0  0  0  0  0  0  0  0  0  0  0
   -5.7580   25.1210  -28.9530 O   0  0  0  0  0  0  0  0  0  0  0  0
   -4.2970   23.1720  -30.1210 C   0  0  0  0  0  0  0  0  0  0  0  0
   -3.6980   22.6680  -31.2840 C   0  0  0  0  0  0  0  0  0  0  0  0
   -2.7520   21.6310  -31.2160 C   0  0  0  0  0  0  0  0  0  0  0  0
   -2.1240   21.1060  -32.4480 C   0  0  0  0  0  0  0  0  0  0  0  0
   -2.6370   20.0990  -33.1840 N   0  0  0  0  0  0  0  0  0  0  0  0
   -1.8030   19.9420  -34.1660 O   0  0  0  0  0  0  0  0  0  0  0  0
   -0.8200   20.8020  -34.0550 C   0  0  0  0  0  0  0  0  0  0  0  0
    0.3070   20.9030  -35.0020 C   0  0  0  0  0  0  0  0  0  0  0  0
    0.6690   19.7970  -35.7900 C   0  0  0  0  0  0  0  0  0  0  0  0
    1.7370   19.8890  -36.6880 C   0  0  0  0  0  0  0  0  0  0  0  0
    2.4510   21.0850  -36.8080 C   0  0  0  0  0  0  0  0  0  0  0  0
    3.5120   21.1740  -37.7010 O   0  0  0  0  0  0  0  0  0  0  0  0
    2.0990   22.1890  -36.0280 C   0  0  0  0  0  0  0  0  0  0  0  0
    1.0310   22.1010  -35.1280 C   0  0  0  0  0  0  0  0  0  0  0  0
   -0.9710   21.5820  -32.9670 N   0  0  0  0  0  0  0  0  0  0  0  0
   -2.4130   21.0980  -29.9640 C   0  0  0  0  0  0  0  0  0  0  0  0
   -3.0110   21.5890  -28.8020 C   0  0  0  0  0  0  0  0  0  0  0  0
   -3.9550   22.6220  -28.8710 C   0  0  0  0  0  0  0  0  0  0  0  0
   -4.5520   23.0910  -27.7020 O   0  0  0  0  0  0  0  0  0  0  0  0
   -6.9730   23.8140  -30.9340 N   0  0  0  0  0  0  0  0  0  0  0  0
   -6.8100   23.4250  -32.3530 C   0  0  0  0  0  0  0  0  0  0  0  0
   -6.7170   21.8990  -32.5310 C   0  0  0  0  0  0  0  0  0  0  0  0
   -7.8510   21.2080  -32.0270 O   0  0  0  0  0  0  0  0  0  0  0  0
   -8.4180   21.8020  -30.8660 C   0  0  0  0  0  0  0  0  0  0  0  0
   -7.4490   22.7060  -30.0840 C   0  0  0  0  0  0  0  0  0  0  0  0
   -3.9720   23.0897  -32.2623 H   0  0  0  0  0  0  0  0  0  0  0  0
    0.1094   18.8543  -35.6999 H   0  0  0  0  0  0  0  0  0  0  0  0
    2.0157   19.0191  -37.3009 H   0  0  0  0  0  0  0  0  0  0  0  0
    2.6623   23.1292  -36.1214 H   0  0  0  0  0  0  0  0  0  0  0  0
    0.7570   22.9733  -34.5165 H   0  0  0  0  0  0  0  0  0  0  0  0
   -1.6715   20.2882  -29.8971 H   0  0  0  0  0  0  0  0  0  0  0  0
   -2.7391   21.1619  -27.8254 H   0  0  0  0  0  0  0  0  0  0  0  0
   -5.3200   23.7520  -27.7230 H   0  0  0  0  0  0  0  0  0  0  0  0
   -7.6742   23.7961  -32.9235 H   0  0  0  0  0  0  0  0  0  0  0  0
   -5.8703   23.8652  -32.7178 H   0  0  0  0  0  0  0  0  0  0  0  0
   -6.6205   21.6772  -33.6041 H   0  0  0  0  0  0  0  0  0  0  0  0
   -5.8429   21.5552  -31.9585 H   0  0  0  0  0  0  0  0  0  0  0  0
   -9.2821   22.4083  -31.1754 H   0  0  0  0  0  0  0  0  0  0  0  0
   -8.6957   20.9780  -30.1923 H   0  0  0  0  0  0  0  0  0  0  0  0
   -7.9686   23.1202  -29.2074 H   0  0  0  0  0  0  0  0  0  0  0  0
   -6.5837   22.1065  -29.7649 H   0  0  0  0  0  0  0  0  0  0  0  0
  1  2  2  0
  2  3  2  0
  2  4  1  0
  4  5  2  0
  5  6  1  0
  6  7  1  0
  7  8  2  0
  8  9  1  0
  9 10  1  0
 10 11  1  0
 11 12  2  0
 12 13  1  0
 13 14  2  0
 14 15  1  0
 14 16  1  0
 16 17  2  0
 10 18  2  0
  6 19  2  0
 19 20  1  0
 20 21  2  0
 21 22  1  0
  2 23  1  0
 23 24  1  0
 24 25  1  0
 25 26  1  0
 26 27  1  0
 27 28  1  0
 21  4  1  0
 28 23  1  0
 18  7  1  0
 17 11  1  0
  5 29  1  0
 12 30  1  0
 13 31  1  0
 16 32  1  0
 17 33  1  0
 19 34  1  0
 20 35  1  0
 22 36  1  0
 24 37  1  0
 24 38  1  0
 25 39  1  0
 25 40  1  0
 27 41  1  0
 27 42  1  0
 28 43  1  0
 28 44  1  0
M  CHG  1  15  -1
M  END
>  <UniqueID>  (21) 
21

>  <SMILES>  (21) 
O=S(=O)(c1cc(-c2noc(-c3ccc([O-])cc3)n2)ccc1O)N1CCOCC1

>  <Energy>  (21) 
94.68564583548401

>  <Genealogy>  (21) 
O=S(=O)(c1cc(-c2noc(-c3ccc([O-])cc3)n2)ccc1O)N1CCOCC1 (protonated)
O=S(=O)(c1cc(-c2noc(-c3ccc([O-])cc3)n2)ccc1O)N1CCOCC1 (3D coordinates assigned)
O=S(=O)(c1cc(-c2noc(-c3ccc([O-])cc3)n2)ccc1O)N1CCOCC1 (nonaromatic ring conformer: 94.68564583548401 kcal/mol)

>  <smiles>  (21) 
O=S(=O)(c1cc(-c2noc(-c3ccc(O)cc3)n2)ccc1O)N1CCOCC1

>  <score_type>  (21) 
oracle

>  <origin>  (21) 
adgpu

>  <m_score__min__energy>  (21) 
-10.130000000000001

>  <m_primary>  (21) 
energy

$$$$
21:0
     RDKit          3D

 31 33  0  0  0  0  0  0  0  0999 V2000
   -5.4780   23.8810  -29.3230 O   0  0  0  0  0  0  0  0  0  0  0  0
   -4.7460   24.1800  -30.6020 S   0  0  0  0  0  0  0  0  0  0  0  0
   -5.4420   25.3000  -31.3230 O   0  0  0  0  0  0  0  0  0  0  0  0
   -3.1130   24.6530  -30.2610 N   0  0  0  0  0  0  0  0  0  0  0  0
   -2.4000   24.3590  -29.0520 C   0  0  0  0  0  0  0  0  0  0  0  0
   -2.6150   23.1690  -28.3300 C   0  0  0  0  0  0  0  0  0  0  0  0
   -1.8990   22.9200  -27.1550 C   0  0  0  0  0  0  0  0  0  0  0  0
   -0.9660   23.8480  -26.6910 C   0  0  0  0  0  0  0  0  0  0  0  0
   -0.7480   25.0320  -27.4000 C   0  0  0  0  0  0  0  0  0  0  0  0
   -1.4600   25.2880  -28.5770 C   0  0  0  0  0  0  0  0  0  0  0  0
   -1.2320   26.4700  -29.2730 O   0  0  0  0  0  0  0  0  0  0  0  0
   -4.7230   22.7240  -31.6100 C   0  0  0  0  0  0  0  0  0  0  0  0
   -3.5060   22.3220  -32.1870 C   0  0  0  0  0  0  0  0  0  0  0  0
   -3.4350   21.1780  -32.9840 C   0  0  0  0  0  0  0  0  0  0  0  0
   -4.5770   20.4140  -33.2190 C   0  0  0  0  0  0  0  0  0  0  0  0
   -5.8000   20.7890  -32.6590 C   0  0  0  0  0  0  0  0  0  0  0  0
   -6.9050   20.0330  -32.8970 N   0  0  0  0  0  0  0  0  0  0  0  0
   -8.1190   20.3500  -32.3800 C   0  0  0  0  0  0  0  0  0  0  0  0
   -9.5030   19.3330  -32.7260 Cl  0  0  0  0  0  0  0  0  0  0  0  0
   -8.2620   21.4820  -31.5760 C   0  0  0  0  0  0  0  0  0  0  0  0
   -7.1490   22.2820  -31.3100 C   0  0  0  0  0  0  0  0  0  0  0  0
   -5.8890   21.9490  -31.8470 C   0  0  0  0  0  0  0  0  0  0  0  0
   -3.3484   22.4332  -28.6915 H   0  0  0  0  0  0  0  0  0  0  0  0
   -2.0719   21.9894  -26.5946 H   0  0  0  0  0  0  0  0  0  0  0  0
   -0.4026   23.6476  -25.7678 H   0  0  0  0  0  0  0  0  0  0  0  0
   -0.0148   25.7648  -27.0320 H   0  0  0  0  0  0  0  0  0  0  0  0
   -2.5979   22.9164  -32.0083 H   0  0  0  0  0  0  0  0  0  0  0  0
   -2.4743   20.8784  -33.4282 H   0  0  0  0  0  0  0  0  0  0  0  0
   -4.5146   19.5132  -33.8473 H   0  0  0  0  0  0  0  0  0  0  0  0
   -9.2444   21.7420  -31.1550 H   0  0  0  0  0  0  0  0  0  0  0  0
   -7.2559   23.1763  -30.6784 H   0  0  0  0  0  0  0  0  0  0  0  0
  1  2  2  0
  2  3  2  0
  2  4  1  0
  4  5  1  0
  5  6  2  0
  6  7  1  0
  7  8  2  0
  8  9  1  0
  9 10  2  0
 10 11  1  0
  2 12  1  0
 12 13  2  0
 13 14  1  0
 14 15  2  0
 15 16  1  0
 16 17  2  0
 17 18  1  0
 18 19  1  0
 18 20  2  0
 20 21  1  0
 21 22  2  0
 10  5  1  0
 22 12  1  0
 22 16  1  0
  6 23  1  0
  7 24  1  0
  8 25  1  0
  9 26  1  0
 13 27  1  0
 14 28  1  0
 15 29  1  0
 20 30  1  0
 21 31  1  0
M  CHG  2   4  -1  11  -1
M  END
>  <UniqueID>  (22) 
22

>  <SMILES>  (22) 
O=S(=O)([N-]c1ccccc1[O-])c1cccc2nc(Cl)ccc12

>  <Energy>  (22) 
44.029147639585005

>  <Genealogy>  (22) 
O=S(=O)([N-]c1ccccc1[O-])c1cccc2nc(Cl)ccc12 (protonated)
O=S(=O)([N-]c1ccccc1[O-])c1cccc2nc(Cl)ccc12 (3D coordinates assigned)
O=S(=O)([N-]c1ccccc1[O-])c1cccc2nc(Cl)ccc12 (optimized conformer: 44.029147639585005 kcal/mol)

>  <smiles>  (22) 
O=S(=O)(Nc1ccccc1O)c1cccc2nc(Cl)ccc12

>  <score_type>  (22) 
oracle

>  <origin>  (22) 
adgpu

>  <m_score__min__energy>  (22) 
-13.390000000000001

>  <m_primary>  (22) 
energy

$$$$
22:0
     RDKit          3D

 35 36  0  0  0  0  0  0  0  0999 V2000
  -10.0256   22.8244  -31.5005 H   0  0  0  0  0  0  0  0  0  0  0  0
   -9.0940   22.2670  -31.6780 C   0  0  0  0  0  0  0  0  0  0  0  0
   -7.8950   22.9580  -31.8760 C   0  0  0  0  0  0  0  0  0  0  0  0
   -7.8852   24.0575  -31.8454 H   0  0  0  0  0  0  0  0  0  0  0  0
   -6.7070   22.2570  -32.1130 C   0  0  0  0  0  0  0  0  0  0  0  0
   -5.4980   22.9940  -32.3440 N   0  0  0  0  0  0  0  0  0  0  0  0
   -4.1920   22.6430  -31.8670 C   0  0  0  0  0  0  0  0  0  0  0  0
   -3.6220   21.6310  -32.3500 O   0  0  0  0  0  0  0  0  0  0  0  0
   -3.4960   23.4270  -30.8270 C   0  0  0  0  0  0  0  0  0  0  0  0
   -2.0310   22.9710  -30.1370 S   0  0  0  0  0  0  0  0  0  0  0  0
   -1.9340   24.3470  -29.1670 C   0  0  0  0  0  0  0  0  0  0  0  0
   -0.9940   24.6410  -28.3150 N   0  0  0  0  0  0  0  0  0  0  0  0
    0.2310   23.9420  -28.0340 C   0  0  0  0  0  0  0  0  0  0  0  0
    1.3210   24.5400  -28.2390 O   0  0  0  0  0  0  0  0  0  0  0  0
    0.2750   22.5240  -27.5530 C   0  0  0  0  0  0  0  0  0  0  0  0
    0.2754   22.5098  -26.4531 H   0  0  0  0  0  0  0  0  0  0  0  0
   -0.6068   21.9826  -27.9264 H   0  0  0  0  0  0  0  0  0  0  0  0
    1.1886   22.0383  -27.9264 H   0  0  0  0  0  0  0  0  0  0  0  0
   -3.0130   25.1420  -29.3310 N   0  0  0  0  0  0  0  0  0  0  0  0
   -3.8900   24.6400  -30.2440 C   0  0  0  0  0  0  0  0  0  0  0  0
   -5.1660   25.3620  -30.5490 C   0  0  0  0  0  0  0  0  0  0  0  0
   -5.6623   25.6428  -29.6083 H   0  0  0  0  0  0  0  0  0  0  0  0
   -4.9442   26.2685  -31.1314 H   0  0  0  0  0  0  0  0  0  0  0  0
   -5.8288   24.7051  -31.1314 H   0  0  0  0  0  0  0  0  0  0  0  0
   -6.7220   20.8500  -32.0990 C   0  0  0  0  0  0  0  0  0  0  0  0
   -5.7839   20.2922  -32.2358 H   0  0  0  0  0  0  0  0  0  0  0  0
   -7.9240   20.1550  -31.9120 C   0  0  0  0  0  0  0  0  0  0  0  0
   -7.9220   18.3960  -31.9720 S   0  0  0  0  0  0  0  0  0  0  0  0
   -9.3230   17.8680  -31.8260 O   0  0  0  0  0  0  0  0  0  0  0  0
   -7.0800   17.8580  -30.8500 O   0  0  0  0  0  0  0  0  0  0  0  0
   -7.2730   17.8710  -33.4870 N   0  0  0  0  0  0  0  0  0  0  0  0
   -7.3890   18.6640  -34.1590 H   0  0  0  0  0  0  0  0  0  0  0  0
   -6.2450   17.7390  -33.3530 H   0  0  0  0  0  0  0  0  0  0  0  0
   -9.1120   20.8690  -31.7050 C   0  0  0  0  0  0  0  0  0  0  0  0
  -10.0599   20.3290  -31.5636 H   0  0  0  0  0  0  0  0  0  0  0  0
  1  2  1  0
  2  3  2  0
  3  4  1  0
  3  5  1  0
  5  6  1  0
  6  7  1  0
  7  8  2  0
  7  9  1  0
  9 10  1  0
 10 11  1  0
 11 12  2  0
 12 13  1  0
 13 14  2  0
 13 15  1  0
 15 16  1  0
 15 17  1  0
 15 18  1  0
 11 19  1  0
 19 20  1  0
 20 21  1  0
 21 22  1  0
 21 23  1  0
 21 24  1  0
  5 25  2  0
 25 26  1  0
 25 27  1  0
 27 28  1  0
 28 29  2  0
 28 30  2  0
 28 31  1  0
 31 32  1  0
 31 33  1  0
 27 34  2  0
 34 35  1  0
 34  2  1  0
 20  9  2  0
M  CHG  2   6  -1  19  -1
M  END
>  <UniqueID>  (23) 
23

>  <SMILES>  (23) 
CC(=O)/N=c1/[n-]c(C)c(C(=O)[N-]c2cccc(S(N)(=O)=O)c2)s1

>  <Energy>  (23) 
73.19627636997168

>  <Genealogy>  (23) 
CC(=O)N=c1[n-]c(C)c(C(=O)[N-]c2cccc(S(N)(=O)=O)c2)s1 (protonated)
CC(=O)/N=c1/[n-]c(C)c(C(=O)[N-]c2cccc(S(N)(=O)=O)c2)s1 (cis-trans isomerization)
CC(=O)/N=c1/[n-]c(C)c(C(=O)[N-]c2cccc(S(N)(=O)=O)c2)s1 (3D coordinates assigned)
CC(=O)/N=c1/[n-]c(C)c(C(=O)[N-]c2cccc(S(N)(=O)=O)c2)s1 (optimized conformer: 73.19627636997168 kcal/mol)

>  <smiles>  (23) 
CC(=O)N=c1[nH]c(C)c(C(=O)Nc2cccc(S(N)(=O)=O)c2)s1

>  <score_type>  (23) 
oracle

>  <origin>  (23) 
adgpu

>  <m_score__min__energy>  (23) 
-9.5700000000000003

>  <m_primary>  (23) 
energy

$$$$
23:0
     RDKit          3D

 47 50  0  0  0  0  0  0  0  0999 V2000
    0.2750   13.7260  -30.8370 C   0  0  0  0  0  0  0  0  0  0  0  0
   -0.9870   13.6730  -31.6470 C   0  0  0  0  0  0  0  0  0  0  0  0
   -2.0120   12.7820  -31.3010 C   0  0  0  0  0  0  0  0  0  0  0  0
   -3.1740   12.7090  -32.0750 C   0  0  0  0  0  0  0  0  0  0  0  0
   -3.3230   13.5180  -33.2120 C   0  0  0  0  0  0  0  0  0  0  0  0
   -4.5700   13.4140  -34.0530 C   0  0  0  0  0  0  0  0  0  0  0  0
   -5.0160   14.7400  -34.4660 N   0  0  0  0  0  0  0  0  0  0  0  0
   -6.2420   15.3350  -34.0280 C   0  0  0  0  0  0  0  0  0  0  0  0
   -7.3340   14.7180  -34.1600 O   0  0  0  0  0  0  0  0  0  0  0  0
   -6.2320   16.6700  -33.4210 C   0  0  0  0  0  0  0  0  0  0  0  0
   -5.0940   17.4160  -33.1160 C   0  0  0  0  0  0  0  0  0  0  0  0
   -5.6210   18.5650  -32.5800 C   0  0  0  0  0  0  0  0  0  0  0  0
   -4.9560   19.6480  -32.1160 N   0  0  0  0  0  0  0  0  0  0  0  0
   -5.6620   20.7070  -31.6190 C   0  0  0  0  0  0  0  0  0  0  0  0
   -4.9220   21.8950  -31.1170 C   0  0  0  0  0  0  0  0  0  0  0  0
   -3.5490   21.8300  -30.8050 C   0  0  0  0  0  0  0  0  0  0  0  0
   -2.8730   22.9620  -30.3390 C   0  0  0  0  0  0  0  0  0  0  0  0
   -3.5530   24.1720  -30.1850 C   0  0  0  0  0  0  0  0  0  0  0  0
   -2.8790   25.2940  -29.7190 O   0  0  0  0  0  0  0  0  0  0  0  0
   -4.9100   24.2540  -30.5040 C   0  0  0  0  0  0  0  0  0  0  0  0
   -5.5920   23.1260  -30.9700 C   0  0  0  0  0  0  0  0  0  0  0  0
   -7.0800   20.6600  -31.6130 C   0  0  0  0  0  0  0  0  0  0  0  0
   -7.7350   19.5110  -32.0990 C   0  0  0  0  0  0  0  0  0  0  0  0
   -9.2380   19.3990  -32.1310 C   0  0  0  0  0  0  0  0  0  0  0  0
   -9.7130   19.2450  -33.4220 F   0  0  0  0  0  0  0  0  0  0  0  0
   -9.7960   20.5420  -31.5900 F   0  0  0  0  0  0  0  0  0  0  0  0
   -9.6310   18.3060  -31.3800 F   0  0  0  0  0  0  0  0  0  0  0  0
   -6.9560   18.5010  -32.5700 N   0  0  0  0  0  0  0  0  0  0  0  0
   -7.3550   17.3490  -33.0820 N   0  0  0  0  0  0  0  0  0  0  0  0
   -2.2840   14.3950  -33.5770 C   0  0  0  0  0  0  0  0  0  0  0  0
   -2.4070   15.1890  -34.7180 O   0  0  0  0  0  0  0  0  0  0  0  0
   -1.1220   14.4670  -32.7950 C   0  0  0  0  0  0  0  0  0  0  0  0
    0.0240   13.7155  -29.7661 H   0  0  0  0  0  0  0  0  0  0  0  0
    0.9007   12.8533  -31.0756 H   0  0  0  0  0  0  0  0  0  0  0  0
    0.8254   14.6481  -31.0756 H   0  0  0  0  0  0  0  0  0  0  0  0
   -1.9018   12.1373  -30.4166 H   0  0  0  0  0  0  0  0  0  0  0  0
   -3.9768   12.0128  -31.7909 H   0  0  0  0  0  0  0  0  0  0  0  0
   -4.3555   12.8091  -34.9463 H   0  0  0  0  0  0  0  0  0  0  0  0
   -5.3639   12.9396  -33.4574 H   0  0  0  0  0  0  0  0  0  0  0  0
   -4.0374   17.1502  -33.2672 H   0  0  0  0  0  0  0  0  0  0  0  0
   -3.0052   20.8819  -30.9290 H   0  0  0  0  0  0  0  0  0  0  0  0
   -1.8027   22.8992  -30.0931 H   0  0  0  0  0  0  0  0  0  0  0  0
   -5.4439   25.2088  -30.3883 H   0  0  0  0  0  0  0  0  0  0  0  0
   -6.6598   23.2000  -31.2238 H   0  0  0  0  0  0  0  0  0  0  0  0
   -7.6623   21.5122  -31.2327 H   0  0  0  0  0  0  0  0  0  0  0  0
   -3.3090   15.3760  -35.1410 H   0  0  0  0  0  0  0  0  0  0  0  0
   -0.3107   15.1512  -33.0842 H   0  0  0  0  0  0  0  0  0  0  0  0
  1  2  1  0
  2  3  2  0
  3  4  1  0
  4  5  2  0
  5  6  1  0
  6  7  1  0
  7  8  1  0
  8  9  2  0
  8 10  1  0
 10 11  1  0
 11 12  2  0
 12 13  1  0
 13 14  2  0
 14 15  1  0
 15 16  2  0
 16 17  1  0
 17 18  2  0
 18 19  1  0
 18 20  1  0
 20 21  2  0
 14 22  1  0
 22 23  2  0
 23 24  1  0
 24 25  1  0
 24 26  1  0
 24 27  1  0
 23 28  1  0
 28 29  1  0
  5 30  1  0
 30 31  1  0
 30 32  2  0
 32  2  1  0
 29 10  2  0
 28 12  1  0
 21 15  1  0
  1 33  1  0
  1 34  1  0
  1 35  1  0
  3 36  1  0
  4 37  1  0
  6 38  1  0
  6 39  1  0
 11 40  1  0
 16 41  1  0
 17 42  1  0
 20 43  1  0
 21 44  1  0
 22 45  1  0
 31 46  1  0
 32 47  1  0
M  CHG  2   7  -1  19  -1
M  END
>  <UniqueID>  (24) 
24

>  <SMILES>  (24) 
Cc1ccc(C[N-]C(=O)c2cc3nc(-c4ccc([O-])cc4)cc(C(F)(F)F)n3n2)c(O)c1

>  <Energy>  (24) 
88.85180318498576

>  <Genealogy>  (24) 
Cc1ccc(C[N-]C(=O)c2cc3nc(-c4ccc([O-])cc4)cc(C(F)(F)F)n3n2)c(O)c1 (protonated)
Cc1ccc(C[N-]C(=O)c2cc3nc(-c4ccc([O-])cc4)cc(C(F)(F)F)n3n2)c(O)c1 (3D coordinates assigned)
Cc1ccc(C[N-]C(=O)c2cc3nc(-c4ccc([O-])cc4)cc(C(F)(F)F)n3n2)c(O)c1 (optimized conformer: 88.85180318498576 kcal/mol)

>  <smiles>  (24) 
Cc1ccc(CNC(=O)c2cc3nc(-c4ccc(O)cc4)cc(C(F)(F)F)n3n2)c(O)c1

>  <score_type>  (24) 
oracle

>  <origin>  (24) 
adgpu

>  <m_score__min__energy>  (24) 
-11.67

>  <m_primary>  (24) 
energy

$$$$
24:0
     RDKit          3D

 56 59  0  0  0  0  0  0  0  0999 V2000
    0.3250   25.3370  -24.4550 C   0  0  0  0  0  0  0  0  0  0  0  0
   -0.5350   25.2030  -25.6850 C   0  0  0  0  0  0  0  0  0  0  0  0
   -1.4520   24.1420  -25.7390 C   0  0  0  0  0  0  0  0  0  0  0  0
   -2.2540   23.9500  -26.8600 C   0  0  0  0  0  0  0  0  0  0  0  0
   -2.1500   24.8050  -27.9600 C   0  0  0  0  0  0  0  0  0  0  0  0
   -2.9750   24.5630  -29.1110 N   0  0  0  0  0  0  0  0  0  0  0  0
   -2.7240   23.5090  -30.0480 C   0  0  0  0  0  0  0  0  0  0  0  0
   -1.8460   22.6370  -29.8030 O   0  0  0  0  0  0  0  0  0  0  0  0
   -3.5360   23.4100  -31.2230 N   0  0  0  0  0  0  0  0  0  0  0  0
   -4.4450   22.3460  -31.5420 C   0  0  0  0  0  0  0  0  0  0  0  0
   -5.7020   22.6710  -32.0660 C   0  0  0  0  0  0  0  0  0  0  0  0
   -6.6110   21.6640  -32.4020 C   0  0  0  0  0  0  0  0  0  0  0  0
   -6.2680   20.3170  -32.2270 C   0  0  0  0  0  0  0  0  0  0  0  0
   -7.4210   19.0430  -32.6300 S   0  0  0  0  0  0  0  0  0  0  0  0
   -7.7070   18.2290  -31.3980 O   0  0  0  0  0  0  0  0  0  0  0  0
   -8.7110   19.6800  -33.0670 O   0  0  0  0  0  0  0  0  0  0  0  0
   -6.8410   17.9870  -33.9020 N   0  0  0  0  0  0  0  0  0  0  0  0
   -6.7060   16.5880  -33.4580 C   0  0  0  0  0  0  0  0  0  0  0  0
   -5.3810   16.3160  -32.7040 C   0  0  0  0  0  0  0  0  0  0  0  0
   -4.4640   17.3910  -32.7780 O   0  0  0  0  0  0  0  0  0  0  0  0
   -4.3420   17.8200  -34.1140 C   0  0  0  0  0  0  0  0  0  0  0  0
   -5.6350   18.5120  -34.5770 C   0  0  0  0  0  0  0  0  0  0  0  0
   -4.9970   19.9860  -31.7370 C   0  0  0  0  0  0  0  0  0  0  0  0
   -4.0880   20.9940  -31.4000 C   0  0  0  0  0  0  0  0  0  0  0  0
   -1.2800   25.9090  -27.9010 C   0  0  0  0  0  0  0  0  0  0  0  0
   -1.2420   26.7990  -28.9700 O   0  0  0  0  0  0  0  0  0  0  0  0
   -0.4690   26.1240  -26.7630 C   0  0  0  0  0  0  0  0  0  0  0  0
    0.6440   27.5200  -26.7210 S   0  0  0  0  0  0  0  0  0  0  0  0
    0.6360   28.1270  -25.3470 O   0  0  0  0  0  0  0  0  0  0  0  0
    0.1800   28.5830  -27.6770 O   0  0  0  0  0  0  0  0  0  0  0  0
    2.3330   27.0850  -27.1440 C   0  0  0  0  0  0  0  0  0  0  0  0
    2.5210   25.6110  -27.4650 C   0  0  0  0  0  0  0  0  0  0  0  0
    3.0830   26.1810  -26.1750 C   0  0  0  0  0  0  0  0  0  0  0  0
   -0.3022   25.2393  -23.5566 H   0  0  0  0  0  0  0  0  0  0  0  0
    1.0908   24.5473  -24.4552 H   0  0  0  0  0  0  0  0  0  0  0  0
    0.8142   26.3222  -24.4552 H   0  0  0  0  0  0  0  0  0  0  0  0
   -1.5379   23.4539  -24.8851 H   0  0  0  0  0  0  0  0  0  0  0  0
   -2.9748   23.1193  -26.8801 H   0  0  0  0  0  0  0  0  0  0  0  0
   -3.8790   25.0810  -29.1920 H   0  0  0  0  0  0  0  0  0  0  0  0
   -5.9760   23.7260  -32.2142 H   0  0  0  0  0  0  0  0  0  0  0  0
   -7.5992   21.9300  -32.8053 H   0  0  0  0  0  0  0  0  0  0  0  0
   -7.5454   16.3507  -32.7879 H   0  0  0  0  0  0  0  0  0  0  0  0
   -6.7071   15.9562  -34.3584 H   0  0  0  0  0  0  0  0  0  0  0  0
   -5.6139   16.1280  -31.6455 H   0  0  0  0  0  0  0  0  0  0  0  0
   -4.9051   15.4483  -33.1842 H   0  0  0  0  0  0  0  0  0  0  0  0
   -3.5042   18.5286  -34.1917 H   0  0  0  0  0  0  0  0  0  0  0  0
   -4.1581   16.9443  -34.7538 H   0  0  0  0  0  0  0  0  0  0  0  0
   -5.5533   19.5879  -34.3633 H   0  0  0  0  0  0  0  0  0  0  0  0
   -5.7473   18.3163  -35.6536 H   0  0  0  0  0  0  0  0  0  0  0  0
   -4.7137   18.9299  -31.6172 H   0  0  0  0  0  0  0  0  0  0  0  0
   -3.0898   20.7277  -31.0223 H   0  0  0  0  0  0  0  0  0  0  0  0
    2.5693   28.0458  -27.6247 H   0  0  0  0  0  0  0  0  0  0  0  0
    1.6595   24.9277  -27.4345 H   0  0  0  0  0  0  0  0  0  0  0  0
    2.9387   25.0475  -28.3124 H   0  0  0  0  0  0  0  0  0  0  0  0
    2.6283   25.9112  -25.2104 H   0  0  0  0  0  0  0  0  0  0  0  0
    4.0755   26.2020  -25.7012 H   0  0  0  0  0  0  0  0  0  0  0  0
  1  2  1  0
  2  3  2  0
  3  4  1  0
  4  5  2  0
  5  6  1  0
  6  7  1  0
  7  8  2  0
  7  9  1  0
  9 10  1  0
 10 11  2  0
 11 12  1  0
 12 13  2  0
 13 14  1  0
 14 15  2  0
 14 16  2  0
 14 17  1  0
 17 18  1  0
 18 19  1  0
 19 20  1  0
 20 21  1  0
 21 22  1  0
 13 23  1  0
 23 24  2  0
  5 25  1  0
 25 26  1  0
 25 27  2  0
 27 28  1  0
 28 29  2  0
 28 30  2  0
 28 31  1  0
 31 32  1  0
 32 33  1  0
 27  2  1  0
 33 31  1  0
 24 10  1  0
 22 17  1  0
  1 34  1  0
  1 35  1  0
  1 36  1  0
  3 37  1  0
  4 38  1  0
  6 39  1  0
 11 40  1  0
 12 41  1  0
 18 42  1  0
 18 43  1  0
 19 44  1  0
 19 45  1  0
 21 46  1  0
 21 47  1  0
 22 48  1  0
 22 49  1  0
 23 50  1  0
 24 51  1  0
 31 52  1  0
 32 53  1  0
 32 54  1  0
 33 55  1  0
 33 56  1  0
M  CHG  2   9  -1  26  -1
M  END
>  <UniqueID>  (25) 
25

>  <SMILES>  (25) 
Cc1ccc(NC(=O)[N-]c2ccc(S(=O)(=O)N3CCOCC3)cc2)c([O-])c1S(=O)(=O)C1CC1

>  <Energy>  (25) 
343.2759012446466

>  <Genealogy>  (25) 
Cc1ccc(NC(=O)[N-]c2ccc(S(=O)(=O)N3CCOCC3)cc2)c([O-])c1S(=O)(=O)C1CC1 (protonated)
Cc1ccc(NC(=O)[N-]c2ccc(S(=O)(=O)N3CCOCC3)cc2)c([O-])c1S(=O)(=O)C1CC1 (3D coordinates assigned)
Cc1ccc(NC(=O)[N-]c2ccc(S(=O)(=O)N3CCOCC3)cc2)c([O-])c1S(=O)(=O)C1CC1 (nonaromatic ring conformer: 343.2759012446466 kcal/mol)

>  <smiles>  (25) 
Cc1ccc(NC(=O)Nc2ccc(S(=O)(=O)N3CCOCC3)cc2)c(O)c1S(=O)(=O)C1CC1

>  <score_type>  (25) 
oracle

>  <origin>  (25) 
adgpu

>  <m_score__min__energy>  (25) 
-14.58

>  <m_primary>  (25) 
energy

$$$$
25:0
     RDKit          3D

 42 45  0  0  0  0  0  0  0  0999 V2000
   -0.7120   26.2100  -25.0380 C   0  0  0  0  0  0  0  0  0  0  0  0
   -1.9190   25.5360  -25.2450 C   0  0  0  0  0  0  0  0  0  0  0  0
   -2.3740   25.2970  -26.5450 C   0  0  0  0  0  0  0  0  0  0  0  0
   -1.6130   25.7190  -27.6500 C   0  0  0  0  0  0  0  0  0  0  0  0
   -2.0420   25.5040  -28.9670 O   0  0  0  0  0  0  0  0  0  0  0  0
   -2.9390   24.5060  -29.3740 C   0  0  0  0  0  0  0  0  0  0  0  0
   -2.5760   23.1650  -29.1980 C   0  0  0  0  0  0  0  0  0  0  0  0
   -3.4510   22.1410  -29.5670 C   0  0  0  0  0  0  0  0  0  0  0  0
   -4.7050   22.4490  -30.1000 C   0  0  0  0  0  0  0  0  0  0  0  0
   -5.0940   23.7870  -30.2670 C   0  0  0  0  0  0  0  0  0  0  0  0
   -6.4460   24.1140  -30.8470 C   0  0  0  0  0  0  0  0  0  0  0  0
   -6.6900   23.3810  -32.1710 C   0  0  0  0  0  0  0  0  0  0  0  0
   -7.6390   22.2800  -31.9980 N   0  0  0  0  0  0  0  0  0  0  0  0
   -8.9270   22.3790  -31.5840 C   0  0  0  0  0  0  0  0  0  0  0  0
   -9.5710   21.1840  -31.5430 N   0  0  0  0  0  0  0  0  0  0  0  0
   -8.6280   20.3160  -31.9570 C   0  0  0  0  0  0  0  0  0  0  0  0
   -8.7570   18.9390  -32.1220 C   0  0  0  0  0  0  0  0  0  0  0  0
   -7.6400   18.2300  -32.6030 C   0  0  0  0  0  0  0  0  0  0  0  0
   -6.4370   18.9070  -32.9030 C   0  0  0  0  0  0  0  0  0  0  0  0
   -6.3380   20.2990  -32.7200 C   0  0  0  0  0  0  0  0  0  0  0  0
   -7.4640   20.9710  -32.2410 C   0  0  0  0  0  0  0  0  0  0  0  0
   -4.2050   24.8130  -29.9060 C   0  0  0  0  0  0  0  0  0  0  0  0
   -0.4150   26.4130  -27.4340 C   0  0  0  0  0  0  0  0  0  0  0  0
    0.0370   26.6520  -26.1320 C   0  0  0  0  0  0  0  0  0  0  0  0
   -0.3519   26.3924  -24.0147 H   0  0  0  0  0  0  0  0  0  0  0  0
   -2.5115   25.1933  -24.3839 H   0  0  0  0  0  0  0  0  0  0  0  0
   -3.3303   24.7772  -26.7043 H   0  0  0  0  0  0  0  0  0  0  0  0
   -1.5952   22.9166  -28.7663 H   0  0  0  0  0  0  0  0  0  0  0  0
   -3.1523   21.0903  -29.4377 H   0  0  0  0  0  0  0  0  0  0  0  0
   -5.3906   21.6392  -30.3901 H   0  0  0  0  0  0  0  0  0  0  0  0
   -7.2233   23.8175  -30.1274 H   0  0  0  0  0  0  0  0  0  0  0  0
   -6.4811   25.1957  -31.0436 H   0  0  0  0  0  0  0  0  0  0  0  0
   -7.0953   24.0922  -32.9058 H   0  0  0  0  0  0  0  0  0  0  0  0
   -5.7336   22.9654  -32.5211 H   0  0  0  0  0  0  0  0  0  0  0  0
   -9.4024   23.3321  -31.3089 H   0  0  0  0  0  0  0  0  0  0  0  0
   -9.6992   18.4233  -31.8847 H   0  0  0  0  0  0  0  0  0  0  0  0
   -7.7044   17.1413  -32.7462 H   0  0  0  0  0  0  0  0  0  0  0  0
   -5.5722   18.3427  -33.2820 H   0  0  0  0  0  0  0  0  0  0  0  0
   -5.4064   20.8383  -32.9464 H   0  0  0  0  0  0  0  0  0  0  0  0
   -4.5007   25.8640  -30.0402 H   0  0  0  0  0  0  0  0  0  0  0  0
    0.1726   26.7714  -28.2921 H   0  0  0  0  0  0  0  0  0  0  0  0
    0.9833   27.1886  -25.9690 H   0  0  0  0  0  0  0  0  0  0  0  0
  1  2  2  0
  2  3  1  0
  3  4  2  0
  4  5  1  0
  5  6  1  0
  6  7  2  0
  7  8  1  0
  8  9  2  0
  9 10  1  0
 10 11  1  0
 11 12  1  0
 12 13  1  0
 13 14  1  0
 14 15  2  0
 15 16  1  0
 16 17  2  0
 17 18  1  0
 18 19  2  0
 19 20  1  0
 20 21  2  0
 10 22  2  0
  4 23  1  0
 23 24  2  0
 24  1  1  0
 22  6  1  0
 21 13  1  0
 21 16  1  0
  1 25  1  0
  2 26  1  0
  3 27  1  0
  7 28  1  0
  8 29  1  0
  9 30  1  0
 11 31  1  0
 11 32  1  0
 12 33  1  0
 12 34  1  0
 14 35  1  0
 17 36  1  0
 18 37  1  0
 19 38  1  0
 20 39  1  0
 22 40  1  0
 23 41  1  0
 24 42  1  0
M  END
>  <UniqueID>  (26) 
26

>  <SMILES>  (26) 
c1ccc(Oc2cccc(CCn3cnc4ccccc43)c2)cc1

>  <Energy>  (26) 
82.55696495422454

>  <Genealogy>  (26) 
c1ccc(Oc2cccc(CCn3cnc4ccccc43)c2)cc1 (3D coordinates assigned)
c1ccc(Oc2cccc(CCn3cnc4ccccc43)c2)cc1 (optimized conformer: 82.55696495422454 kcal/mol)

>  <smiles>  (26) 
c1ccc(Oc2cccc(CCn3cnc4ccccc43)c2)cc1

>  <score_type>  (26) 
oracle

>  <origin>  (26) 
adgpu

>  <m_score__min__energy>  (26) 
-9.3000000000000007

>  <m_primary>  (26) 
energy

$$$$
26:0
     RDKit          3D

 42 43  0  0  0  0  0  0  0  0999 V2000
   -8.8670   20.9090  -32.3370 C   0  0  0  0  0  0  0  0  0  0  0  0
   -7.6100   21.5930  -31.8800 C   0  0  0  0  0  0  0  0  0  0  0  0
   -6.3730   20.9770  -32.0770 C   0  0  0  0  0  0  0  0  0  0  0  0
   -5.1830   21.5820  -31.6410 C   0  0  0  0  0  0  0  0  0  0  0  0
   -3.8930   20.8560  -31.9120 C   0  0  0  0  0  0  0  0  0  0  0  0
   -5.2350   22.8330  -30.9610 C   0  0  0  0  0  0  0  0  0  0  0  0
   -3.7540   23.6480  -30.3630 S   0  0  0  0  0  0  0  0  0  0  0  0
   -2.5870   23.1920  -31.1970 O   0  0  0  0  0  0  0  0  0  0  0  0
   -3.8330   25.1420  -30.4800 O   0  0  0  0  0  0  0  0  0  0  0  0
   -3.4900   23.2220  -28.6940 N   0  0  0  0  0  0  0  0  0  0  0  0
   -4.6100   22.7070  -27.9090 C   0  0  0  0  0  0  0  0  0  0  0  0
   -2.1520   23.0990  -28.1820 C   0  0  0  0  0  0  0  0  0  0  0  0
   -1.5150   22.0250  -28.3650 O   0  0  0  0  0  0  0  0  0  0  0  0
   -1.5210   24.1960  -27.4110 C   0  0  0  0  0  0  0  0  0  0  0  0
   -1.1810   23.9910  -26.0610 C   0  0  0  0  0  0  0  0  0  0  0  0
   -0.5740   25.0100  -25.3210 C   0  0  0  0  0  0  0  0  0  0  0  0
   -0.2880   26.2370  -25.9220 C   0  0  0  0  0  0  0  0  0  0  0  0
   -0.6170   26.4530  -27.2630 C   0  0  0  0  0  0  0  0  0  0  0  0
   -1.2340   25.4380  -28.0120 C   0  0  0  0  0  0  0  0  0  0  0  0
   -1.5700   25.6720  -29.3470 O   0  0  0  0  0  0  0  0  0  0  0  0
   -6.4990   23.4650  -30.7880 C   0  0  0  0  0  0  0  0  0  0  0  0
   -6.6470   24.8050  -30.1080 C   0  0  0  0  0  0  0  0  0  0  0  0
   -7.6680   22.8220  -31.2210 C   0  0  0  0  0  0  0  0  0  0  0  0
   -9.4509   20.5913  -31.4606 H   0  0  0  0  0  0  0  0  0  0  0  0
   -9.4645   21.6064  -32.9425 H   0  0  0  0  0  0  0  0  0  0  0  0
   -8.6060   20.0285  -32.9425 H   0  0  0  0  0  0  0  0  0  0  0  0
   -6.3295   20.0010  -32.5824 H   0  0  0  0  0  0  0  0  0  0  0  0
   -3.4159   20.5875  -30.9579 H   0  0  0  0  0  0  0  0  0  0  0  0
   -4.1006   19.9422  -32.4881 H   0  0  0  0  0  0  0  0  0  0  0  0
   -3.2196   21.5076  -32.4881 H   0  0  0  0  0  0  0  0  0  0  0  0
   -4.3849   22.8105  -26.8373 H   0  0  0  0  0  0  0  0  0  0  0  0
   -5.5193   23.2774  -28.1494 H   0  0  0  0  0  0  0  0  0  0  0  0
   -4.7688   21.6454  -28.1494 H   0  0  0  0  0  0  0  0  0  0  0  0
   -1.3942   23.0226  -25.5848 H   0  0  0  0  0  0  0  0  0  0  0  0
   -0.3213   24.8446  -24.2633 H   0  0  0  0  0  0  0  0  0  0  0  0
    0.1967   27.0345  -25.3397 H   0  0  0  0  0  0  0  0  0  0  0  0
   -0.3918   27.4215  -27.7334 H   0  0  0  0  0  0  0  0  0  0  0  0
   -1.7270   24.9120  -29.9980 H   0  0  0  0  0  0  0  0  0  0  0  0
   -6.6317   24.6662  -29.0169 H   0  0  0  0  0  0  0  0  0  0  0  0
   -5.8159   25.4611  -30.4059 H   0  0  0  0  0  0  0  0  0  0  0  0
   -7.6013   25.2639  -30.4059 H   0  0  0  0  0  0  0  0  0  0  0  0
   -8.6450   23.2934  -31.0385 H   0  0  0  0  0  0  0  0  0  0  0  0
  1  2  1  0
  2  3  2  0
  3  4  1  0
  4  5  1  0
  4  6  2  0
  6  7  1  0
  7  8  2  0
  7  9  2  0
  7 10  1  0
 10 11  1  0
 10 12  1  0
 12 13  2  0
 12 14  1  0
 14 15  2  0
 15 16  1  0
 16 17  2  0
 17 18  1  0
 18 19  2  0
 19 20  1  0
  6 21  1  0
 21 22  1  0
 21 23  2  0
 23  2  1  0
 19 14  1  0
  1 24  1  0
  1 25  1  0
  1 26  1  0
  3 27  1  0
  5 28  1  0
  5 29  1  0
  5 30  1  0
 11 31  1  0
 11 32  1  0
 11 33  1  0
 15 34  1  0
 16 35  1  0
 17 36  1  0
 18 37  1  0
 20 38  1  0
 22 39  1  0
 22 40  1  0
 22 41  1  0
 23 42  1  0
M  END
>  <UniqueID>  (27) 
27

>  <SMILES>  (27) 
Cc1cc(C)c(S(=O)(=O)N(C)C(=O)c2ccccc2O)c(C)c1

>  <Energy>  (27) 
53.26069348625936

>  <Genealogy>  (27) 
Cc1cc(C)c(S(=O)(=O)N(C)C(=O)c2ccccc2O)c(C)c1 (3D coordinates assigned)
Cc1cc(C)c(S(=O)(=O)N(C)C(=O)c2ccccc2O)c(C)c1 (optimized conformer: 53.26069348625936 kcal/mol)

>  <smiles>  (27) 
Cc1cc(C)c(S(=O)(=O)N(C)C(=O)c2ccccc2O)c(C)c1

>  <score_type>  (27) 
oracle

>  <origin>  (27) 
adgpu

>  <m_score__min__energy>  (27) 
-9.6199999999999992

>  <m_primary>  (27) 
energy

$$$$
27:0
     RDKit          3D

 43 45  0  0  0  0  0  0  0  0999 V2000
   -7.2530   14.7910  -34.4410 O   0  0  0  0  0  0  0  0  0  0  0  0
   -6.1770   15.1800  -33.9010 C   0  0  0  0  0  0  0  0  0  0  0  0
   -5.9490   16.6340  -33.7260 C   0  0  0  0  0  0  0  0  0  0  0  0
   -5.3620   17.4010  -34.7470 C   0  0  0  0  0  0  0  0  0  0  0  0
   -5.1370   18.7700  -34.5670 C   0  0  0  0  0  0  0  0  0  0  0  0
   -5.4730   19.3940  -33.3520 C   0  0  0  0  0  0  0  0  0  0  0  0
   -5.2520   20.7990  -33.1320 N   0  0  0  0  0  0  0  0  0  0  0  0
   -4.0310   21.4300  -32.0740 S   0  0  0  0  0  0  0  0  0  0  0  0
   -3.8890   20.5080  -30.8950 O   0  0  0  0  0  0  0  0  0  0  0  0
   -2.7230   21.4870  -32.8130 O   0  0  0  0  0  0  0  0  0  0  0  0
   -4.4840   23.0350  -31.4860 C   0  0  0  0  0  0  0  0  0  0  0  0
   -3.5380   23.8340  -30.8280 C   0  0  0  0  0  0  0  0  0  0  0  0
   -3.8830   25.0640  -30.3600 N   0  0  0  0  0  0  0  0  0  0  0  0
   -5.1370   25.5620  -30.5190 C   0  0  0  0  0  0  0  0  0  0  0  0
   -6.1060   24.8170  -31.1920 C   0  0  0  0  0  0  0  0  0  0  0  0
   -5.7800   23.5480  -31.6830 C   0  0  0  0  0  0  0  0  0  0  0  0
   -6.6510   22.8790  -32.2990 O   0  0  0  0  0  0  0  0  0  0  0  0
   -6.0310   18.6210  -32.3230 C   0  0  0  0  0  0  0  0  0  0  0  0
   -6.2700   17.2570  -32.5070 C   0  0  0  0  0  0  0  0  0  0  0  0
   -5.2220   14.2000  -33.4500 N   0  0  0  0  0  0  0  0  0  0  0  0
   -3.7810   14.3800  -33.6880 C   0  0  0  0  0  0  0  0  0  0  0  0
   -2.9560   14.0080  -32.4400 C   0  0  0  0  0  0  0  0  0  0  0  0
   -3.6190   12.9270  -31.5610 C   0  0  0  0  0  0  0  0  0  0  0  0
   -4.5820   12.0510  -32.3670 C   0  0  0  0  0  0  0  0  0  0  0  0
   -5.7170   12.9120  -32.9350 C   0  0  0  0  0  0  0  0  0  0  0  0
   -5.0773   16.9212  -35.6950 H   0  0  0  0  0  0  0  0  0  0  0  0
   -4.6943   19.3625  -35.3812 H   0  0  0  0  0  0  0  0  0  0  0  0
   -5.7620   21.4900  -33.7280 H   0  0  0  0  0  0  0  0  0  0  0  0
   -2.5113   23.4643  -30.6895 H   0  0  0  0  0  0  0  0  0  0  0  0
   -5.3888   26.5542  -30.1165 H   0  0  0  0  0  0  0  0  0  0  0  0
   -7.1178   25.2240  -31.3354 H   0  0  0  0  0  0  0  0  0  0  0  0
   -6.2828   19.0934  -31.3620 H   0  0  0  0  0  0  0  0  0  0  0  0
   -6.7128   16.6657  -31.6919 H   0  0  0  0  0  0  0  0  0  0  0  0
   -3.4732   13.7369  -34.5257 H   0  0  0  0  0  0  0  0  0  0  0  0
   -3.5976   15.4390  -33.9222 H   0  0  0  0  0  0  0  0  0  0  0  0
   -1.9753   13.6346  -32.7700 H   0  0  0  0  0  0  0  0  0  0  0  0
   -2.8726   14.9167  -31.8258 H   0  0  0  0  0  0  0  0  0  0  0  0
   -2.8342   12.2889  -31.1287 H   0  0  0  0  0  0  0  0  0  0  0  0
   -4.1955   13.4333  -30.7728 H   0  0  0  0  0  0  0  0  0  0  0  0
   -4.0362   11.5743  -33.1946 H   0  0  0  0  0  0  0  0  0  0  0  0
   -5.0069   11.2785  -31.7092 H   0  0  0  0  0  0  0  0  0  0  0  0
   -6.2033   12.3638  -33.7554 H   0  0  0  0  0  0  0  0  0  0  0  0
   -6.4281   13.1197  -32.1218 H   0  0  0  0  0  0  0  0  0  0  0  0
  1  2  2  0
  2  3  1  0
  3  4  2  0
  4  5  1  0
  5  6  2  0
  6  7  1  0
  7  8  1  0
  8  9  2  0
  8 10  2  0
  8 11  1  0
 11 12  2  0
 12 13  1  0
 13 14  1  0
 14 15  2  0
 15 16  1  0
 16 17  2  0
  6 18  1  0
 18 19  2  0
  2 20  1  0
 20 21  1  0
 21 22  1  0
 22 23  1  0
 23 24  1  0
 24 25  1  0
 19  3  1  0
 25 20  1  0
 16 11  1  0
  4 26  1  0
  5 27  1  0
  7 28  1  0
 12 29  1  0
 14 30  1  0
 15 31  1  0
 18 32  1  0
 19 33  1  0
 21 34  1  0
 21 35  1  0
 22 36  1  0
 22 37  1  0
 23 38  1  0
 23 39  1  0
 24 40  1  0
 24 41  1  0
 25 42  1  0
 25 43  1  0
M  CHG  1  13  -1
M  END
>  <UniqueID>  (28) 
28

>  <SMILES>  (28) 
O=C(c1ccc(NS(=O)(=O)c2c[n-]ccc2=O)cc1)N1CCCCC1

>  <Energy>  (28) 
55.1899348073753

>  <Genealogy>  (28) 
O=C(c1ccc(NS(=O)(=O)c2c[n-]ccc2=O)cc1)N1CCCCC1 (protonated)
O=C(c1ccc(NS(=O)(=O)c2c[n-]ccc2=O)cc1)N1CCCCC1 (3D coordinates assigned)
O=C(c1ccc(NS(=O)(=O)c2c[n-]ccc2=O)cc1)N1CCCCC1 (nonaromatic ring conformer: 55.1899348073753 kcal/mol)

>  <smiles>  (28) 
O=C(c1ccc(NS(=O)(=O)c2c[nH]ccc2=O)cc1)N1CCCCC1

>  <score_type>  (28) 
oracle

>  <origin>  (28) 
adgpu

>  <m_score__min__energy>  (28) 
-9.4399999999999995

>  <m_primary>  (28) 
energy

$$$$
28:0
     RDKit          3D

 63 66  0  0  0  0  0  0  0  0999 V2000
   -5.3620   23.7560  -28.9340 O   0  0  0  0  0  0  0  0  0  0  0  0
   -5.1190   23.2520  -30.3290 S   0  0  0  0  0  0  0  0  0  0  0  0
   -4.4960   24.3600  -31.1310 O   0  0  0  0  0  0  0  0  0  0  0  0
   -4.0170   21.9150  -30.2680 N   0  0  0  0  0  0  0  0  0  0  0  0
   -3.0320   21.6680  -31.2730 C   0  0  0  0  0  0  0  0  0  0  0  0
   -3.4010   21.4050  -32.6000 C   0  0  0  0  0  0  0  0  0  0  0  0
   -2.4230   21.1670  -33.5680 C   0  0  0  0  0  0  0  0  0  0  0  0
   -1.0650   21.2090  -33.2240 C   0  0  0  0  0  0  0  0  0  0  0  0
    0.1560   20.8740  -34.4510 S   0  0  0  0  0  0  0  0  0  0  0  0
   -0.5020   20.9200  -35.8030 O   0  0  0  0  0  0  0  0  0  0  0  0
    1.2250   21.9300  -34.4020 O   0  0  0  0  0  0  0  0  0  0  0  0
    0.8420   19.2890  -34.1640 N   0  0  0  0  0  0  0  0  0  0  0  0
    0.9500   18.5030  -35.4270 C   0  0  0  0  0  0  0  0  0  0  0  0
    0.0980   17.2230  -35.4480 C   0  0  0  0  0  0  0  0  0  0  0  0
   -1.3020   17.5020  -34.9070 C   0  0  0  0  0  0  0  0  0  0  0  0
   -1.2630   18.0810  -33.4810 C   0  0  0  0  0  0  0  0  0  0  0  0
    0.1330   18.5870  -33.0700 C   0  0  0  0  0  0  0  0  0  0  0  0
   -0.6950   21.5000  -31.9040 C   0  0  0  0  0  0  0  0  0  0  0  0
   -1.6750   21.7380  -30.9370 C   0  0  0  0  0  0  0  0  0  0  0  0
   -6.6490   22.8020  -31.0740 C   0  0  0  0  0  0  0  0  0  0  0  0
   -7.5860   23.7890  -31.4120 C   0  0  0  0  0  0  0  0  0  0  0  0
   -8.8130   23.4280  -31.9740 C   0  0  0  0  0  0  0  0  0  0  0  0
   -9.1110   22.0820  -32.2020 C   0  0  0  0  0  0  0  0  0  0  0  0
   -8.1820   21.0880  -31.8660 C   0  0  0  0  0  0  0  0  0  0  0  0
   -8.5530   19.3870  -32.1550 S   0  0  0  0  0  0  0  0  0  0  0  0
   -8.8790   18.7250  -30.8450 O   0  0  0  0  0  0  0  0  0  0  0  0
   -9.7640   19.2840  -33.0420 O   0  0  0  0  0  0  0  0  0  0  0  0
   -7.2120   18.5550  -32.9040 N   0  0  0  0  0  0  0  0  0  0  0  0
   -6.3580   17.9340  -31.8790 C   0  0  0  0  0  0  0  0  0  0  0  0
   -5.3270   16.9980  -32.5380 C   0  0  0  0  0  0  0  0  0  0  0  0
   -5.0410   17.3750  -34.0010 C   0  0  0  0  0  0  0  0  0  0  0  0
   -5.0850   18.8940  -34.1970 C   0  0  0  0  0  0  0  0  0  0  0  0
   -6.4350   19.4910  -33.7430 C   0  0  0  0  0  0  0  0  0  0  0  0
   -6.9530   21.4530  -31.3000 C   0  0  0  0  0  0  0  0  0  0  0  0
   -4.4647   21.3861  -32.8795 H   0  0  0  0  0  0  0  0  0  0  0  0
   -2.7195   20.9458  -34.6039 H   0  0  0  0  0  0  0  0  0  0  0  0
    1.8140   19.4650  -33.8190 H   0  0  0  0  0  0  0  0  0  0  0  0
    0.6293   19.1445  -36.2610 H   0  0  0  0  0  0  0  0  0  0  0  0
    1.9996   18.1853  -35.5127 H   0  0  0  0  0  0  0  0  0  0  0  0
    0.0198   16.8574  -36.4825 H   0  0  0  0  0  0  0  0  0  0  0  0
    0.5798   16.4652  -34.8127 H   0  0  0  0  0  0  0  0  0  0  0  0
   -1.8019   18.2235  -35.5700 H   0  0  0  0  0  0  0  0  0  0  0  0
   -1.8497   16.5487  -34.8724 H   0  0  0  0  0  0  0  0  0  0  0  0
   -1.9701   18.9218  -33.4255 H   0  0  0  0  0  0  0  0  0  0  0  0
   -1.5328   17.2684  -32.7905 H   0  0  0  0  0  0  0  0  0  0  0  0
    0.0187   19.2815  -32.2247 H   0  0  0  0  0  0  0  0  0  0  0  0
    0.7349   17.7064  -32.8012 H   0  0  0  0  0  0  0  0  0  0  0  0
    0.3692   21.5411  -31.6286 H   0  0  0  0  0  0  0  0  0  0  0  0
   -1.3785   21.9817  -29.9061 H   0  0  0  0  0  0  0  0  0  0  0  0
   -7.3544   24.8496  -31.2343 H   0  0  0  0  0  0  0  0  0  0  0  0
   -9.5459   24.2048  -32.2375 H   0  0  0  0  0  0  0  0  0  0  0  0
  -10.0774   21.8018  -32.6464 H   0  0  0  0  0  0  0  0  0  0  0  0
   -5.8293   18.7212  -31.3215 H   0  0  0  0  0  0  0  0  0  0  0  0
   -6.9887   17.3470  -31.1952 H   0  0  0  0  0  0  0  0  0  0  0  0
   -4.3869   17.0523  -31.9694 H   0  0  0  0  0  0  0  0  0  0  0  0
   -5.7457   15.9808  -32.5304 H   0  0  0  0  0  0  0  0  0  0  0  0
   -4.0429   17.0055  -34.2788 H   0  0  0  0  0  0  0  0  0  0  0  0
   -5.8130   16.9177  -34.6373 H   0  0  0  0  0  0  0  0  0  0  0  0
   -4.2767   19.3527  -33.6085 H   0  0  0  0  0  0  0  0  0  0  0  0
   -4.9610   19.1045  -35.2695 H   0  0  0  0  0  0  0  0  0  0  0  0
   -6.2397   20.4056  -33.1638 H   0  0  0  0  0  0  0  0  0  0  0  0
   -7.0277   19.7035  -34.6450 H   0  0  0  0  0  0  0  0  0  0  0  0
   -6.2225   20.6757  -31.0315 H   0  0  0  0  0  0  0  0  0  0  0  0
  1  2  2  0
  2  3  2  0
  2  4  1  0
  4  5  1  0
  5  6  2  0
  6  7  1  0
  7  8  2  0
  8  9  1  0
  9 10  2  0
  9 11  2  0
  9 12  1  0
 12 13  1  0
 13 14  1  0
 14 15  1  0
 15 16  1  0
 16 17  1  0
  8 18  1  0
 18 19  2  0
  2 20  1  0
 20 21  2  0
 21 22  1  0
 22 23  2  0
 23 24  1  0
 24 25  1  0
 25 26  2  0
 25 27  2  0
 25 28  1  0
 28 29  1  0
 29 30  1  0
 30 31  1  0
 31 32  1  0
 32 33  1  0
 24 34  2  0
 19  5  1  0
 34 20  1  0
 17 12  1  0
 33 28  1  0
  6 35  1  0
  7 36  1  0
 12 37  1  0
 13 38  1  0
 13 39  1  0
 14 40  1  0
 14 41  1  0
 15 42  1  0
 15 43  1  0
 16 44  1  0
 16 45  1  0
 17 46  1  0
 17 47  1  0
 18 48  1  0
 19 49  1  0
 21 50  1  0
 22 51  1  0
 23 52  1  0
 29 53  1  0
 29 54  1  0
 30 55  1  0
 30 56  1  0
 31 57  1  0
 31 58  1  0
 32 59  1  0
 32 60  1  0
 33 61  1  0
 33 62  1  0
 34 63  1  0
M  CHG  2   4  -1  12   1
M  END
>  <UniqueID>  (29) 
29

>  <SMILES>  (29) 
O=S(=O)([N-]c1ccc(S(=O)(=O)[NH+]2CCCCC2)cc1)c1cccc(S(=O)(=O)N2CCCCC2)c1

>  <Energy>  (29) 
82.31024262771561

>  <Genealogy>  (29) 
O=S(=O)([N-]c1ccc(S(=O)(=O)[NH+]2CCCCC2)cc1)c1cccc(S(=O)(=O)N2CCCCC2)c1 (protonated)
O=S(=O)([N-]c1ccc(S(=O)(=O)[NH+]2CCCCC2)cc1)c1cccc(S(=O)(=O)N2CCCCC2)c1 (3D coordinates assigned)
O=S(=O)([N-]c1ccc(S(=O)(=O)[NH+]2CCCCC2)cc1)c1cccc(S(=O)(=O)N2CCCCC2)c1 (nonaromatic ring conformer: 82.31024262771561 kcal/mol)

>  <smiles>  (29) 
O=S(=O)(Nc1ccc(S(=O)(=O)N2CCCCC2)cc1)c1cccc(S(=O)(=O)N2CCCCC2)c1

>  <score_type>  (29) 
oracle

>  <origin>  (29) 
adgpu

>  <m_score__min__energy>  (29) 
-13.119999999999999

>  <m_primary>  (29) 
energy

$$$$
29:0
     RDKit          3D

 59 62  0  0  0  0  0  0  0  0999 V2000
   -9.2700   21.8940  -29.9840 O   0  0  0  0  0  0  0  0  0  0  0  0
   -8.4360   21.9270  -31.2340 S   0  0  0  0  0  0  0  0  0  0  0  0
   -9.2950   22.4460  -32.3540 O   0  0  0  0  0  0  0  0  0  0  0  0
   -7.0720   23.0210  -30.9900 C   0  0  0  0  0  0  0  0  0  0  0  0
   -7.2770   24.2970  -30.4530 C   0  0  0  0  0  0  0  0  0  0  0  0
   -6.1980   25.1690  -30.2830 C   0  0  0  0  0  0  0  0  0  0  0  0
   -4.9060   24.7710  -30.6390 C   0  0  0  0  0  0  0  0  0  0  0  0
   -3.8570   25.6730  -30.5070 O   0  0  0  0  0  0  0  0  0  0  0  0
   -4.6850   23.4760  -31.1480 C   0  0  0  0  0  0  0  0  0  0  0  0
   -3.3720   23.0390  -31.5340 N   0  0  0  0  0  0  0  0  0  0  0  0
   -3.0700   21.7170  -32.0150 C   0  0  0  0  0  0  0  0  0  0  0  0
   -2.1890   20.9040  -31.2870 C   0  0  0  0  0  0  0  0  0  0  0  0
   -1.8660   19.6220  -31.7420 C   0  0  0  0  0  0  0  0  0  0  0  0
   -2.4070   19.1450  -32.9430 C   0  0  0  0  0  0  0  0  0  0  0  0
   -2.0320   17.5200  -33.5100 S   0  0  0  0  0  0  0  0  0  0  0  0
   -0.8360   16.9840  -32.7710 O   0  0  0  0  0  0  0  0  0  0  0  0
   -1.7000   17.5800  -34.9750 O   0  0  0  0  0  0  0  0  0  0  0  0
   -3.4090   16.4760  -33.2600 N   0  0  0  0  0  0  0  0  0  0  0  0
   -2.9670   15.0770  -33.0910 C   0  0  0  0  0  0  0  0  0  0  0  0
   -4.1490   14.0930  -33.2180 C   0  0  0  0  0  0  0  0  0  0  0  0
   -5.3860   14.7680  -33.1000 O   0  0  0  0  0  0  0  0  0  0  0  0
   -5.5560   15.6500  -34.1960 C   0  0  0  0  0  0  0  0  0  0  0  0
   -4.3480   16.5970  -34.3870 C   0  0  0  0  0  0  0  0  0  0  0  0
   -3.2760   19.9570  -33.6810 C   0  0  0  0  0  0  0  0  0  0  0  0
   -3.6000   21.2380  -33.2270 C   0  0  0  0  0  0  0  0  0  0  0  0
   -5.7760   22.6180  -31.3410 C   0  0  0  0  0  0  0  0  0  0  0  0
   -7.9010   20.3080  -31.6130 N   0  0  0  0  0  0  0  0  0  0  0  0
   -7.4000   20.2430  -32.9950 C   0  0  0  0  0  0  0  0  0  0  0  0
   -6.7030   18.8930  -33.2500 C   0  0  0  0  0  0  0  0  0  0  0  0
   -7.1960   17.7890  -32.2990 C   0  0  0  0  0  0  0  0  0  0  0  0
   -8.6880   17.9510  -31.9930 C   0  0  0  0  0  0  0  0  0  0  0  0
   -9.0040   19.3450  -31.4050 C   0  0  0  0  0  0  0  0  0  0  0  0
   -8.2898   24.6144  -30.1640 H   0  0  0  0  0  0  0  0  0  0  0  0
   -6.3662   26.1733  -29.8671 H   0  0  0  0  0  0  0  0  0  0  0  0
   -2.6040   23.7480  -31.5310 H   0  0  0  0  0  0  0  0  0  0  0  0
   -1.7488   21.2779  -30.3508 H   0  0  0  0  0  0  0  0  0  0  0  0
   -1.1858   18.9867  -31.1558 H   0  0  0  0  0  0  0  0  0  0  0  0
   -3.8860   16.7940  -32.3810 H   0  0  0  0  0  0  0  0  0  0  0  0
   -2.2209   14.8416  -33.8643 H   0  0  0  0  0  0  0  0  0  0  0  0
   -2.5345   14.9700  -32.0853 H   0  0  0  0  0  0  0  0  0  0  0  0
   -4.1014   13.5985  -34.1994 H   0  0  0  0  0  0  0  0  0  0  0  0
   -4.0760   13.3517  -32.4086 H   0  0  0  0  0  0  0  0  0  0  0  0
   -5.6854   15.0542  -35.1116 H   0  0  0  0  0  0  0  0  0  0  0  0
   -6.4394   16.2724  -33.9903 H   0  0  0  0  0  0  0  0  0  0  0  0
   -3.8278   16.3351  -35.3202 H   0  0  0  0  0  0  0  0  0  0  0  0
   -4.7145   17.6332  -34.4324 H   0  0  0  0  0  0  0  0  0  0  0  0
   -3.7058   19.5849  -34.6227 H   0  0  0  0  0  0  0  0  0  0  0  0
   -4.2727   21.8751  -33.8200 H   0  0  0  0  0  0  0  0  0  0  0  0
   -5.6140   21.6190  -31.7719 H   0  0  0  0  0  0  0  0  0  0  0  0
   -8.2438   20.3527  -33.6921 H   0  0  0  0  0  0  0  0  0  0  0  0
   -6.6739   21.0546  -33.1501 H   0  0  0  0  0  0  0  0  0  0  0  0
   -6.9035   18.5822  -34.2860 H   0  0  0  0  0  0  0  0  0  0  0  0
   -5.6265   19.0327  -33.0719 H   0  0  0  0  0  0  0  0  0  0  0  0
   -7.0301   16.8088  -32.7698 H   0  0  0  0  0  0  0  0  0  0  0  0
   -6.6355   17.8644  -31.3555 H   0  0  0  0  0  0  0  0  0  0  0  0
   -9.2590   17.8192  -32.9239 H   0  0  0  0  0  0  0  0  0  0  0  0
   -8.9688   17.1930  -31.2470 H   0  0  0  0  0  0  0  0  0  0  0  0
   -9.9104   19.7359  -31.8904 H   0  0  0  0  0  0  0  0  0  0  0  0
   -9.1462   19.2272  -30.3206 H   0  0  0  0  0  0  0  0  0  0  0  0
  1  2  2  0
  2  3  2  0
  2  4  1  0
  4  5  2  0
  5  6  1  0
  6  7  2  0
  7  8  1  0
  7  9  1  0
  9 10  1  0
 10 11  1  0
 11 12  2  0
 12 13  1  0
 13 14  2  0
 14 15  1  0
 15 16  2  0
 15 17  2  0
 15 18  1  0
 18 19  1  0
 19 20  1  0
 20 21  1  0
 21 22  1  0
 22 23  1  0
 14 24  1  0
 24 25  2  0
  9 26  2  0
  2 27  1  0
 27 28  1  0
 28 29  1  0
 29 30  1  0
 30 31  1  0
 31 32  1  0
 26  4  1  0
 32 27  1  0
 25 11  1  0
 23 18  1  0
  5 33  1  0
  6 34  1  0
 10 35  1  0
 12 36  1  0
 13 37  1  0
 18 38  1  0
 19 39  1  0
 19 40  1  0
 20 41  1  0
 20 42  1  0
 22 43  1  0
 22 44  1  0
 23 45  1  0
 23 46  1  0
 24 47  1  0
 25 48  1  0
 26 49  1  0
 28 50  1  0
 28 51  1  0
 29 52  1  0
 29 53  1  0
 30 54  1  0
 30 55  1  0
 31 56  1  0
 31 57  1  0
 32 58  1  0
 32 59  1  0
M  CHG  2   8  -1  18   1
M  END
>  <UniqueID>  (30) 
30

>  <SMILES>  (30) 
O=S(=O)(c1ccc([O-])c(Nc2ccc(S(=O)(=O)[NH+]3CCOCC3)cc2)c1)N1CCCCC1

>  <Energy>  (30) 
77.13216593496267

>  <Genealogy>  (30) 
O=S(=O)(c1ccc([O-])c(Nc2ccc(S(=O)(=O)[NH+]3CCOCC3)cc2)c1)N1CCCCC1 (protonated)
O=S(=O)(c1ccc([O-])c(Nc2ccc(S(=O)(=O)[NH+]3CCOCC3)cc2)c1)N1CCCCC1 (3D coordinates assigned)
O=S(=O)(c1ccc([O-])c(Nc2ccc(S(=O)(=O)[NH+]3CCOCC3)cc2)c1)N1CCCCC1 (nonaromatic ring conformer: 77.13216593496267 kcal/mol)

>  <smiles>  (30) 
O=S(=O)(c1ccc(O)c(Nc2ccc(S(=O)(=O)N3CCOCC3)cc2)c1)N1CCCCC1

>  <score_type>  (30) 
oracle

>  <origin>  (30) 
adgpu

>  <m_score__min__energy>  (30) 
-13.869999999999999

>  <m_primary>  (30) 
energy

$$$$
30:0
     RDKit          3D

 63 66  0  0  0  0  0  0  0  0999 V2000
   -4.5220   17.2240  -35.7140 C   0  0  0  0  0  0  0  0  0  0  0  0
   -3.3640   16.7810  -34.8630 C   0  0  0  0  0  0  0  0  0  0  0  0
   -2.2320   16.2140  -35.4720 C   0  0  0  0  0  0  0  0  0  0  0  0
   -1.1390   15.8110  -34.7000 C   0  0  0  0  0  0  0  0  0  0  0  0
   -1.1550   15.9850  -33.3110 C   0  0  0  0  0  0  0  0  0  0  0  0
    0.2380   15.5380  -32.3310 S   0  0  0  0  0  0  0  0  0  0  0  0
    0.8740   14.2750  -32.8380 O   0  0  0  0  0  0  0  0  0  0  0  0
   -0.2210   15.2990  -30.9200 O   0  0  0  0  0  0  0  0  0  0  0  0
    1.3940   16.8290  -32.3360 N   0  0  0  0  0  0  0  0  0  0  0  0
    1.3800   17.9710  -33.2030 C   0  0  0  0  0  0  0  0  0  0  0  0
    0.4100   18.9590  -32.9920 C   0  0  0  0  0  0  0  0  0  0  0  0
    0.3650   20.0970  -33.8050 C   0  0  0  0  0  0  0  0  0  0  0  0
    1.2940   20.2550  -34.8460 C   0  0  0  0  0  0  0  0  0  0  0  0
    1.2340   21.6920  -35.8590 S   0  0  0  0  0  0  0  0  0  0  0  0
    2.6770   21.7900  -36.8050 N   0  0  0  0  0  0  0  0  0  0  0  0
    1.1140   22.9130  -34.9910 O   0  0  0  0  0  0  0  0  0  0  0  0
    0.0530   21.6250  -36.7850 O   0  0  0  0  0  0  0  0  0  0  0  0
    2.2640   19.2670  -35.0630 C   0  0  0  0  0  0  0  0  0  0  0  0
    2.3120   18.1340  -34.2480 C   0  0  0  0  0  0  0  0  0  0  0  0
   -2.2790   16.5490  -32.6980 C   0  0  0  0  0  0  0  0  0  0  0  0
   -3.3940   16.9410  -33.4600 C   0  0  0  0  0  0  0  0  0  0  0  0
   -4.5210   17.5580  -32.8160 N   0  0  0  0  0  0  0  0  0  0  0  0
   -4.9870   18.8780  -33.1540 C   0  0  0  0  0  0  0  0  0  0  0  0
   -4.2970   19.6090  -33.9160 O   0  0  0  0  0  0  0  0  0  0  0  0
   -6.2580   19.4050  -32.5970 C   0  0  0  0  0  0  0  0  0  0  0  0
   -7.2950   18.5150  -32.2570 C   0  0  0  0  0  0  0  0  0  0  0  0
   -8.4850   18.9900  -31.7020 C   0  0  0  0  0  0  0  0  0  0  0  0
   -8.6590   20.3550  -31.4760 C   0  0  0  0  0  0  0  0  0  0  0  0
   -7.6380   21.2510  -31.7970 C   0  0  0  0  0  0  0  0  0  0  0  0
   -6.4300   20.7900  -32.3470 C   0  0  0  0  0  0  0  0  0  0  0  0
   -5.4170   21.7380  -32.7240 N   0  0  0  0  0  0  0  0  0  0  0  0
   -4.5000   22.3450  -31.7950 C   0  0  0  0  0  0  0  0  0  0  0  0
   -4.8950   23.4020  -30.9540 C   0  0  0  0  0  0  0  0  0  0  0  0
   -3.9940   23.9470  -30.0330 C   0  0  0  0  0  0  0  0  0  0  0  0
   -2.6950   23.4350  -29.9280 C   0  0  0  0  0  0  0  0  0  0  0  0
   -1.5620   24.1230  -28.7700 S   0  0  0  0  0  0  0  0  0  0  0  0
   -1.5350   25.8420  -28.9350 N   0  0  0  0  0  0  0  0  0  0  0  0
   -1.9800   23.7600  -27.3740 O   0  0  0  0  0  0  0  0  0  0  0  0
   -0.1860   23.5780  -29.0160 O   0  0  0  0  0  0  0  0  0  0  0  0
   -2.2980   22.3780  -30.7570 C   0  0  0  0  0  0  0  0  0  0  0  0
   -3.1960   21.8340  -31.6790 C   0  0  0  0  0  0  0  0  0  0  0  0
   -5.3525   17.5417  -35.0664 H   0  0  0  0  0  0  0  0  0  0  0  0
   -4.2094   18.0660  -36.3490 H   0  0  0  0  0  0  0  0  0  0  0  0
   -4.8512   16.3883  -36.3490 H   0  0  0  0  0  0  0  0  0  0  0  0
   -2.2058   16.0864  -36.5643 H   0  0  0  0  0  0  0  0  0  0  0  0
   -0.2632   15.3556  -35.1854 H   0  0  0  0  0  0  0  0  0  0  0  0
   -0.3227   18.8394  -32.1803 H   0  0  0  0  0  0  0  0  0  0  0  0
   -0.3989   20.8686  -33.6284 H   0  0  0  0  0  0  0  0  0  0  0  0
    2.7420   22.7720  -37.1600 H   0  0  0  0  0  0  0  0  0  0  0  0
    2.9915   19.3846  -35.8797 H   0  0  0  0  0  0  0  0  0  0  0  0
    3.0799   17.3659  -34.4221 H   0  0  0  0  0  0  0  0  0  0  0  0
   -2.2907   16.6875  -31.6068 H   0  0  0  0  0  0  0  0  0  0  0  0
   -5.0160   17.0140  -32.0770 H   0  0  0  0  0  0  0  0  0  0  0  0
   -7.1665   17.4363  -32.4301 H   0  0  0  0  0  0  0  0  0  0  0  0
   -9.2882   18.2848  -31.4421 H   0  0  0  0  0  0  0  0  0  0  0  0
   -9.6007   20.7256  -31.0448 H   0  0  0  0  0  0  0  0  0  0  0  0
   -7.7803   22.3270  -31.6179 H   0  0  0  0  0  0  0  0  0  0  0  0
   -5.3260   21.9770  -33.7380 H   0  0  0  0  0  0  0  0  0  0  0  0
   -5.9176   23.8018  -31.0212 H   0  0  0  0  0  0  0  0  0  0  0  0
   -4.3074   24.7815  -29.3885 H   0  0  0  0  0  0  0  0  0  0  0  0
   -1.2300   26.0510  -29.9130 H   0  0  0  0  0  0  0  0  0  0  0  0
   -1.2771   21.9753  -30.6820 H   0  0  0  0  0  0  0  0  0  0  0  0
   -2.8793   20.9980  -32.3200 H   0  0  0  0  0  0  0  0  0  0  0  0
  1  2  1  0
  2  3  2  0
  3  4  1  0
  4  5  2  0
  5  6  1  0
  6  7  2  0
  6  8  2  0
  6  9  1  0
  9 10  1  0
 10 11  2  0
 11 12  1  0
 12 13  2  0
 13 14  1  0
 14 15  1  0
 14 16  2  0
 14 17  2  0
 13 18  1  0
 18 19  2  0
  5 20  1  0
 20 21  2  0
 21 22  1  0
 22 23  1  0
 23 24  2  0
 23 25  1  0
 25 26  2  0
 26 27  1  0
 27 28  2  0
 28 29  1  0
 29 30  2  0
 30 31  1  0
 31 32  1  0
 32 33  2  0
 33 34  1  0
 34 35  2  0
 35 36  1  0
 36 37  1  0
 36 38  2  0
 36 39  2  0
 35 40  1  0
 40 41  2  0
 21  2  1  0
 30 25  1  0
 41 32  1  0
 19 10  1  0
  1 42  1  0
  1 43  1  0
  1 44  1  0
  3 45  1  0
  4 46  1  0
 11 47  1  0
 12 48  1  0
 15 49  1  0
 18 50  1  0
 19 51  1  0
 20 52  1  0
 22 53  1  0
 26 54  1  0
 27 55  1  0
 28 56  1  0
 29 57  1  0
 31 58  1  0
 33 59  1  0
 34 60  1  0
 37 61  1  0
 40 62  1  0
 41 63  1  0
M  CHG  3   9  -1  15  -1  37  -1
M  END
>  <UniqueID>  (31) 
31

>  <SMILES>  (31) 
Cc1ccc(S(=O)(=O)[N-]c2ccc(S([NH-])(=O)=O)cc2)cc1NC(=O)c1ccccc1Nc1ccc(S([NH-])(=O)=O)cc1

>  <Energy>  (31) 
85.52548091310307

>  <Genealogy>  (31) 
Cc1ccc(S(=O)(=O)[N-]c2ccc(S([NH-])(=O)=O)cc2)cc1NC(=O)c1ccccc1Nc1ccc(S([NH-])(=O)=O)cc1 (protonated)
Cc1ccc(S(=O)(=O)[N-]c2ccc(S([NH-])(=O)=O)cc2)cc1NC(=O)c1ccccc1Nc1ccc(S([NH-])(=O)=O)cc1 (3D coordinates assigned)
Cc1ccc(S(=O)(=O)[N-]c2ccc(S([NH-])(=O)=O)cc2)cc1NC(=O)c1ccccc1Nc1ccc(S([NH-])(=O)=O)cc1 (optimized conformer: 85.52548091310307 kcal/mol)

>  <smiles>  (31) 
Cc1ccc(S(=O)(=O)Nc2ccc(S(N)(=O)=O)cc2)cc1NC(=O)c1ccccc1Nc1ccc(S(N)(=O)=O)cc1

>  <score_type>  (31) 
oracle

>  <origin>  (31) 
adgpu

>  <m_score__min__energy>  (31) 
-14.52

>  <m_primary>  (31) 
energy

$$$$
31:0
     RDKit          3D

 51 54  0  0  0  0  0  0  0  0999 V2000
    2.1440   24.9540  -27.8220 N   0  0  0  0  0  0  0  0  0  0  0  0
    1.4850   25.3390  -26.9510 C   0  0  0  0  0  0  0  0  0  0  0  0
    0.6670   25.8210  -25.8670 C   0  0  0  0  0  0  0  0  0  0  0  0
    1.2570   26.5650  -24.8330 C   0  0  0  0  0  0  0  0  0  0  0  0
    0.4740   27.0520  -23.7830 C   0  0  0  0  0  0  0  0  0  0  0  0
   -0.8980   26.7910  -23.7550 C   0  0  0  0  0  0  0  0  0  0  0  0
   -1.4920   26.0530  -24.7820 C   0  0  0  0  0  0  0  0  0  0  0  0
   -0.7180   25.5780  -25.8580 C   0  0  0  0  0  0  0  0  0  0  0  0
   -1.2990   24.8460  -26.9080 O   0  0  0  0  0  0  0  0  0  0  0  0
   -1.6010   23.4750  -26.8710 C   0  0  0  0  0  0  0  0  0  0  0  0
   -0.7470   22.6300  -26.1560 C   0  0  0  0  0  0  0  0  0  0  0  0
   -0.9900   21.2580  -26.0970 C   0  0  0  0  0  0  0  0  0  0  0  0
   -2.0940   20.7020  -26.7640 C   0  0  0  0  0  0  0  0  0  0  0  0
   -2.3290   19.2130  -26.7580 C   0  0  0  0  0  0  0  0  0  0  0  0
   -2.4470   18.7300  -25.4670 F   0  0  0  0  0  0  0  0  0  0  0  0
   -3.4930   18.9100  -27.4420 F   0  0  0  0  0  0  0  0  0  0  0  0
   -1.2650   18.5820  -27.3770 F   0  0  0  0  0  0  0  0  0  0  0  0
   -2.9240   21.5400  -27.5260 C   0  0  0  0  0  0  0  0  0  0  0  0
   -2.7000   22.9290  -27.5730 C   0  0  0  0  0  0  0  0  0  0  0  0
   -3.5010   23.8010  -28.3840 N   0  0  0  0  0  0  0  0  0  0  0  0
   -3.0910   24.7690  -29.3590 C   0  0  0  0  0  0  0  0  0  0  0  0
   -1.9480   25.2950  -29.3110 O   0  0  0  0  0  0  0  0  0  0  0  0
   -3.9410   25.0690  -30.4700 N   0  0  0  0  0  0  0  0  0  0  0  0
   -4.9930   24.2290  -30.9700 C   0  0  0  0  0  0  0  0  0  0  0  0
   -6.3410   24.6300  -30.9380 C   0  0  0  0  0  0  0  0  0  0  0  0
   -7.3390   23.7800  -31.4260 C   0  0  0  0  0  0  0  0  0  0  0  0
   -7.0000   22.5330  -31.9570 C   0  0  0  0  0  0  0  0  0  0  0  0
   -5.6580   22.1430  -32.0250 C   0  0  0  0  0  0  0  0  0  0  0  0
   -5.2180   20.5470  -32.7130 S   0  0  0  0  0  0  0  0  0  0  0  0
   -3.4810   20.7570  -32.3140 C   0  0  0  0  0  0  0  0  0  0  0  0
   -3.0240   20.4990  -31.0190 C   0  0  0  0  0  0  0  0  0  0  0  0
   -1.6650   20.6560  -30.7300 C   0  0  0  0  0  0  0  0  0  0  0  0
   -0.8040   21.0530  -31.7030 N   0  0  0  0  0  0  0  0  0  0  0  0
   -1.2280   21.3200  -32.9660 C   0  0  0  0  0  0  0  0  0  0  0  0
   -2.5790   21.1840  -33.2930 C   0  0  0  0  0  0  0  0  0  0  0  0
   -4.6590   22.9950  -31.5390 C   0  0  0  0  0  0  0  0  0  0  0  0
    2.3385   26.7651  -24.8494 H   0  0  0  0  0  0  0  0  0  0  0  0
    0.9382   27.6410  -22.9783 H   0  0  0  0  0  0  0  0  0  0  0  0
   -1.5117   27.1671  -22.9232 H   0  0  0  0  0  0  0  0  0  0  0  0
   -2.5710   25.8418  -24.7497 H   0  0  0  0  0  0  0  0  0  0  0  0
    0.1252   23.0515  -25.6348 H   0  0  0  0  0  0  0  0  0  0  0  0
   -0.3128   20.6071  -25.5245 H   0  0  0  0  0  0  0  0  0  0  0  0
   -3.7601   21.1055  -28.0936 H   0  0  0  0  0  0  0  0  0  0  0  0
   -6.6109   25.6145  -30.5282 H   0  0  0  0  0  0  0  0  0  0  0  0
   -8.3927   24.0940  -31.3916 H   0  0  0  0  0  0  0  0  0  0  0  0
   -7.7881   21.8578  -32.3216 H   0  0  0  0  0  0  0  0  0  0  0  0
   -3.7255   20.1760  -30.2357 H   0  0  0  0  0  0  0  0  0  0  0  0
   -1.2927   20.4579  -29.7140 H   0  0  0  0  0  0  0  0  0  0  0  0
   -0.5070   21.6434  -33.7312 H   0  0  0  0  0  0  0  0  0  0  0  0
   -2.9298   21.4106  -34.3106 H   0  0  0  0  0  0  0  0  0  0  0  0
   -3.6036   22.6921  -31.6049 H   0  0  0  0  0  0  0  0  0  0  0  0
  1  2  3  0
  2  3  1  0
  3  4  2  0
  4  5  1  0
  5  6  2  0
  6  7  1  0
  7  8  2  0
  8  9  1  0
  9 10  1  0
 10 11  2  0
 11 12  1  0
 12 13  2  0
 13 14  1  0
 14 15  1  0
 14 16  1  0
 14 17  1  0
 13 18  1  0
 18 19  2  0
 19 20  1  0
 20 21  1  0
 21 22  2  0
 21 23  1  0
 23 24  1  0
 24 25  2  0
 25 26  1  0
 26 27  2  0
 27 28  1  0
 28 29  1  0
 29 30  1  0
 30 31  2  0
 31 32  1  0
 32 33  2  0
 33 34  1  0
 34 35  2  0
 28 36  2  0
  8  3  1  0
 19 10  1  0
 36 24  1  0
 35 30  1  0
  4 37  1  0
  5 38  1  0
  6 39  1  0
  7 40  1  0
 11 41  1  0
 12 42  1  0
 18 43  1  0
 25 44  1  0
 26 45  1  0
 27 46  1  0
 31 47  1  0
 32 48  1  0
 34 49  1  0
 35 50  1  0
 36 51  1  0
M  CHG  2  20  -1  23  -1
M  END
>  <UniqueID>  (32) 
32

>  <SMILES>  (32) 
N#Cc1ccccc1Oc1ccc(C(F)(F)F)cc1[N-]C(=O)[N-]c1cccc(Sc2ccncc2)c1

>  <Energy>  (32) 
62.94161537990539

>  <Genealogy>  (32) 
N#Cc1ccccc1Oc1ccc(C(F)(F)F)cc1[N-]C(=O)[N-]c1cccc(Sc2ccncc2)c1 (protonated)
N#Cc1ccccc1Oc1ccc(C(F)(F)F)cc1[N-]C(=O)[N-]c1cccc(Sc2ccncc2)c1 (3D coordinates assigned)
N#Cc1ccccc1Oc1ccc(C(F)(F)F)cc1[N-]C(=O)[N-]c1cccc(Sc2ccncc2)c1 (optimized conformer: 62.94161537990539 kcal/mol)

>  <smiles>  (32) 
N#Cc1ccccc1Oc1ccc(C(F)(F)F)cc1NC(=O)Nc1cccc(Sc2ccncc2)c1

>  <score_type>  (32) 
oracle

>  <origin>  (32) 
adgpu

>  <m_score__min__energy>  (32) 
-12.59

>  <m_primary>  (32) 
energy

$$$$
32:0
     RDKit          3D

 30 31  0  0  0  0  0  0  0  0999 V2000
   -0.6380   25.0300  -27.7570 C   0  0  0  0  0  0  0  0  0  0  0  0
   -1.7380   24.4680  -28.6000 C   0  0  0  0  0  0  0  0  0  0  0  0
   -1.9940   23.0950  -28.6030 C   0  0  0  0  0  0  0  0  0  0  0  0
   -3.0420   22.5790  -29.3820 C   0  0  0  0  0  0  0  0  0  0  0  0
   -3.2870   21.0930  -29.3640 C   0  0  0  0  0  0  0  0  0  0  0  0
   -3.8140   23.4610  -30.1790 C   0  0  0  0  0  0  0  0  0  0  0  0
   -5.1450   22.8590  -31.2000 S   0  0  0  0  0  0  0  0  0  0  0  0
   -5.6700   23.9870  -32.0420 O   0  0  0  0  0  0  0  0  0  0  0  0
   -6.2810   22.3380  -30.3640 O   0  0  0  0  0  0  0  0  0  0  0  0
   -4.5540   21.5510  -32.2210 C   0  0  0  0  0  0  0  0  0  0  0  0
   -3.2490   21.5780  -32.7340 C   0  0  0  0  0  0  0  0  0  0  0  0
   -2.7900   20.5310  -33.5400 C   0  0  0  0  0  0  0  0  0  0  0  0
   -3.6320   19.4550  -33.8380 C   0  0  0  0  0  0  0  0  0  0  0  0
   -4.9340   19.4270  -33.3320 C   0  0  0  0  0  0  0  0  0  0  0  0
   -5.3960   20.4720  -32.5270 C   0  0  0  0  0  0  0  0  0  0  0  0
   -3.5290   24.8430  -30.1190 C   0  0  0  0  0  0  0  0  0  0  0  0
   -4.2100   25.6730  -30.7750 O   0  0  0  0  0  0  0  0  0  0  0  0
   -2.5120   25.2980  -29.3430 N   0  0  0  0  0  0  0  0  0  0  0  0
   -0.8889   24.9018  -26.6937 H   0  0  0  0  0  0  0  0  0  0  0  0
    0.3006   24.5010  -27.9786 H   0  0  0  0  0  0  0  0  0  0  0  0
   -0.5166   26.1006  -27.9786 H   0  0  0  0  0  0  0  0  0  0  0  0
   -1.3750   22.4184  -27.9955 H   0  0  0  0  0  0  0  0  0  0  0  0
   -3.3446   20.7435  -28.3226 H   0  0  0  0  0  0  0  0  0  0  0  0
   -4.2338   20.8712  -29.8781 H   0  0  0  0  0  0  0  0  0  0  0  0
   -2.4615   20.5790  -29.8781 H   0  0  0  0  0  0  0  0  0  0  0  0
   -2.5853   22.4240  -32.5021 H   0  0  0  0  0  0  0  0  0  0  0  0
   -1.7655   20.5540  -33.9399 H   0  0  0  0  0  0  0  0  0  0  0  0
   -3.2695   18.6312  -34.4704 H   0  0  0  0  0  0  0  0  0  0  0  0
   -5.5966   18.5811  -33.5676 H   0  0  0  0  0  0  0  0  0  0  0  0
   -6.4225   20.4481  -32.1325 H   0  0  0  0  0  0  0  0  0  0  0  0
  1  2  1  0
  2  3  2  0
  3  4  1  0
  4  5  1  0
  4  6  2  0
  6  7  1  0
  7  8  2  0
  7  9  2  0
  7 10  1  0
 10 11  2  0
 11 12  1  0
 12 13  2  0
 13 14  1  0
 14 15  2  0
  6 16  1  0
 16 17  2  0
 16 18  1  0
 18  2  1  0
 15 10  1  0
  1 19  1  0
  1 20  1  0
  1 21  1  0
  3 22  1  0
  5 23  1  0
  5 24  1  0
  5 25  1  0
 11 26  1  0
 12 27  1  0
 13 28  1  0
 14 29  1  0
 15 30  1  0
M  CHG  1  18  -1
M  END
>  <UniqueID>  (33) 
33

>  <SMILES>  (33) 
Cc1cc(C)c(S(=O)(=O)c2ccccc2)c(=O)[n-]1

>  <Energy>  (33) 
35.02778040105888

>  <Genealogy>  (33) 
Cc1cc(C)c(S(=O)(=O)c2ccccc2)c(=O)[n-]1 (protonated)
Cc1cc(C)c(S(=O)(=O)c2ccccc2)c(=O)[n-]1 (3D coordinates assigned)
Cc1cc(C)c(S(=O)(=O)c2ccccc2)c(=O)[n-]1 (optimized conformer: 35.02778040105888 kcal/mol)

>  <smiles>  (33) 
Cc1cc(C)c(S(=O)(=O)c2ccccc2)c(=O)[nH]1

>  <score_type>  (33) 
oracle

>  <origin>  (33) 
adgpu

>  <m_score__min__energy>  (33) 
-8.5999999999999996

>  <m_primary>  (33) 
energy

$$$$
33:0
     RDKit          3D

 61 65  0  0  1  0  0  0  0  0999 V2000
   -8.9150   19.0430  -33.0890 N   0  0  0  0  0  0  0  0  0  0  0  0
   -8.5840   20.1180  -32.4630 C   0  0  0  0  0  0  0  0  0  0  0  0
   -9.5510   21.0290  -32.2650 N   0  0  0  0  0  0  0  0  0  0  0  0
   -9.2280   22.1690  -31.5950 C   0  0  0  0  0  0  0  0  0  0  0  0
   -7.9600   22.3770  -31.1400 N   0  0  0  0  0  0  0  0  0  0  0  0
   -6.9960   21.4610  -31.3430 C   0  0  0  0  0  0  0  0  0  0  0  0
   -7.2980   20.3130  -32.0110 C   0  0  0  0  0  0  0  0  0  0  0  0
   -6.1830   19.5220  -32.1030 C   0  0  0  0  0  0  0  0  0  0  0  0
   -5.9580   18.2350  -32.7210 C   0  0  0  0  0  0  0  0  0  0  0  0
   -6.0810   17.9760  -34.0650 C   0  0  0  0  0  0  0  0  0  0  0  0
   -5.8660   16.7110  -34.6100 C   0  0  0  0  0  0  0  0  0  0  0  0
   -5.5160   15.6800  -33.7730 C   0  0  0  0  0  0  0  0  0  0  0  0
   -5.3850   15.9180  -32.4090 C   0  0  0  0  0  0  0  0  0  0  0  0
   -5.0280   14.8340  -31.6190 O   0  0  0  0  0  0  0  0  0  0  0  0
   -5.6020   17.1880  -31.8730 C   0  0  0  0  0  0  0  0  0  0  0  0
   -5.1600   20.2250  -31.4590 C   0  0  0  0  0  0  0  0  0  0  0  0
   -5.6790   21.3890  -31.0120 N   0  0  0  0  0  0  0  0  0  0  0  0
   -4.9490   22.4000  -30.2940 C   0  0  1  0  0  0  0  0  0  0  0  0
   -3.8140   21.8520  -29.4620 C   0  0  0  0  0  0  0  0  0  0  0  0
   -3.3220   22.9510  -28.5480 C   0  0  0  0  0  0  0  0  0  0  0  0
   -2.8210   24.0600  -29.4120 C   0  0  2  0  0  0  0  0  0  0  0  0
   -2.3600   25.2150  -28.6650 N   0  0  0  0  0  0  0  0  0  0  0  0
   -0.9740   25.3290  -28.3690 C   0  0  0  0  0  0  0  0  0  0  0  0
   -0.1570   24.4650  -28.7340 O   0  0  0  0  0  0  0  0  0  0  0  0
   -0.4910   26.4160  -27.6580 O   0  0  0  0  0  0  0  0  0  0  0  0
   -0.6040   26.4900  -26.2320 C   0  0  0  0  0  0  0  0  0  0  0  0
   -0.1090   25.2880  -25.5550 C   0  0  0  0  0  0  0  0  0  0  0  0
   -0.9370   24.2130  -25.3150 C   0  0  0  0  0  0  0  0  0  0  0  0
   -0.4670   23.0710  -24.6710 C   0  0  0  0  0  0  0  0  0  0  0  0
    0.8560   23.0640  -24.2890 C   0  0  0  0  0  0  0  0  0  0  0  0
    1.7130   24.1270  -24.5160 C   0  0  0  0  0  0  0  0  0  0  0  0
    1.2160   25.2540  -25.1600 C   0  0  0  0  0  0  0  0  0  0  0  0
   -3.8800   24.5720  -30.3740 C   0  0  0  0  0  0  0  0  0  0  0  0
   -4.3250   23.4190  -31.2540 C   0  0  0  0  0  0  0  0  0  0  0  0
   -9.9040   18.9390  -33.4030 H   0  0  0  0  0  0  0  0  0  0  0  0
  -10.5360   20.9150  -32.5930 H   0  0  0  0  0  0  0  0  0  0  0  0
  -10.0002   22.9323  -31.4185 H   0  0  0  0  0  0  0  0  0  0  0  0
   -6.3604   18.8001  -34.7379 H   0  0  0  0  0  0  0  0  0  0  0  0
   -5.9748   16.5416  -35.6914 H   0  0  0  0  0  0  0  0  0  0  0  0
   -5.3404   14.6727  -34.1787 H   0  0  0  0  0  0  0  0  0  0  0  0
   -5.3350   14.7450  -30.6450 H   0  0  0  0  0  0  0  0  0  0  0  0
   -5.4932   17.3609  -30.7921 H   0  0  0  0  0  0  0  0  0  0  0  0
   -4.1192   19.8900  -31.3382 H   0  0  0  0  0  0  0  0  0  0  0  0
   -5.6981   22.8608  -29.6334 H   0  0  0  0  0  0  0  0  0  0  0  0
   -2.9966   21.5214  -30.1197 H   0  0  0  0  0  0  0  0  0  0  0  0
   -4.1593   20.9922  -28.8692 H   0  0  0  0  0  0  0  0  0  0  0  0
   -2.5084   22.5740  -27.9109 H   0  0  0  0  0  0  0  0  0  0  0  0
   -4.1331   23.3043  -27.8943 H   0  0  0  0  0  0  0  0  0  0  0  0
   -1.9806   23.6015  -29.9537 H   0  0  0  0  0  0  0  0  0  0  0  0
   -3.0620   25.9270  -28.3690 H   0  0  0  0  0  0  0  0  0  0  0  0
   -0.0238   27.3552  -25.8789 H   0  0  0  0  0  0  0  0  0  0  0  0
   -1.6730   26.5865  -25.9913 H   0  0  0  0  0  0  0  0  0  0  0  0
   -1.9876   24.2576  -25.6377 H   0  0  0  0  0  0  0  0  0  0  0  0
   -1.1247   22.2111  -24.4758 H   0  0  0  0  0  0  0  0  0  0  0  0
    1.2501   22.1722  -23.7798 H   0  0  0  0  0  0  0  0  0  0  0  0
    2.7638   24.0809  -24.1940 H   0  0  0  0  0  0  0  0  0  0  0  0
    1.8731   26.1144  -25.3545 H   0  0  0  0  0  0  0  0  0  0  0  0
   -3.4587   25.3743  -30.9976 H   0  0  0  0  0  0  0  0  0  0  0  0
   -4.7376   24.9728  -29.8137 H   0  0  0  0  0  0  0  0  0  0  0  0
   -3.4638   22.9786  -31.7779 H   0  0  0  0  0  0  0  0  0  0  0  0
   -5.0352   23.7430  -32.0290 H   0  0  0  0  0  0  0  0  0  0  0  0
  1  2  2  3
  2  3  1  0
  3  4  1  0
  4  5  2  0
  5  6  1  0
  6  7  2  0
  7  8  1  0
  8  9  1  0
  9 10  2  0
 10 11  1  0
 11 12  2  0
 12 13  1  0
 13 14  1  0
 13 15  2  0
  8 16  2  0
 16 17  1  0
 17 18  1  0
 18 19  1  0
 19 20  1  0
 20 21  1  0
 21 22  1  0
 22 23  1  0
 23 24  2  0
 23 25  1  0
 25 26  1  0
 26 27  1  0
 27 28  2  0
 28 29  1  0
 29 30  2  0
 30 31  1  0
 31 32  2  0
 21 33  1  0
 33 34  1  0
  7  2  1  0
 15  9  1  0
 34 18  1  0
 17  6  1  0
 32 27  1  0
  1 35  1  0
  3 36  1  0
  4 37  1  0
 10 38  1  0
 11 39  1  0
 12 40  1  0
 14 41  1  0
 15 42  1  0
 16 43  1  0
 18 44  1  1
 19 45  1  0
 19 46  1  0
 20 47  1  0
 20 48  1  0
 21 49  1  6
 22 50  1  0
 26 51  1  0
 26 52  1  0
 28 53  1  0
 29 54  1  0
 30 55  1  0
 31 56  1  0
 32 57  1  0
 33 58  1  0
 33 59  1  0
 34 60  1  0
 34 61  1  0
M  END
>  <smiles>  (34) 
N=c1[nH]cnc2c1c(-c1cccc(O)c1)cn2C1CCC(NC(=O)OCc2ccccc2)CC1

>  <score_type>  (34) 
oracle

>  <origin>  (34) 
adgpu

>  <m_score__min__energy>  (34) 
-9.9000000000000004

>  <m_primary>  (34) 
energy

$$$$
34:0
     RDKit          3D

 37 39  0  0  0  0  0  0  0  0999 V2000
   -4.7780   13.5200  -34.6650 C   0  0  0  0  0  0  0  0  0  0  0  0
   -4.8850   14.9080  -34.1880 N   0  0  0  0  0  0  0  0  0  0  0  0
   -6.2980   15.3580  -34.1970 C   0  0  0  0  0  0  0  0  0  0  0  0
   -6.4620   16.8920  -34.3060 C   0  0  0  0  0  0  0  0  0  0  0  0
   -5.2610   17.6080  -33.8500 N   0  0  0  0  0  0  0  0  0  0  0  0
   -5.3890   18.9030  -33.2290 C   0  0  0  0  0  0  0  0  0  0  0  0
   -4.2650   19.7270  -33.0550 C   0  0  0  0  0  0  0  0  0  0  0  0
   -4.3890   20.9790  -32.4470 C   0  0  0  0  0  0  0  0  0  0  0  0
   -5.6420   21.4380  -32.0020 C   0  0  0  0  0  0  0  0  0  0  0  0
   -5.7760   22.7690  -31.3600 C   0  0  0  0  0  0  0  0  0  0  0  0
   -6.9360   23.1170  -30.7370 N   0  0  0  0  0  0  0  0  0  0  0  0
   -7.0800   24.3280  -30.1430 C   0  0  0  0  0  0  0  0  0  0  0  0
   -6.0280   25.2430  -30.1650 C   0  0  0  0  0  0  0  0  0  0  0  0
   -6.1590   26.4560  -29.5720 F   0  0  0  0  0  0  0  0  0  0  0  0
   -4.8440   24.8770  -30.8010 C   0  0  0  0  0  0  0  0  0  0  0  0
   -3.8700   25.6720  -30.8380 O   0  0  0  0  0  0  0  0  0  0  0  0
   -4.7410   23.6550  -31.3840 N   0  0  0  0  0  0  0  0  0  0  0  0
   -6.7670   20.6120  -32.1790 C   0  0  0  0  0  0  0  0  0  0  0  0
   -6.6400   19.3580  -32.7830 C   0  0  0  0  0  0  0  0  0  0  0  0
   -3.9320   17.1440  -34.2690 C   0  0  0  0  0  0  0  0  0  0  0  0
   -4.0200   15.7950  -34.9790 C   0  0  0  0  0  0  0  0  0  0  0  0
   -4.7255   12.8390  -33.8028 H   0  0  0  0  0  0  0  0  0  0  0  0
   -5.6597   13.2727  -35.2744 H   0  0  0  0  0  0  0  0  0  0  0  0
   -3.8688   13.4108  -35.2744 H   0  0  0  0  0  0  0  0  0  0  0  0
   -6.8050   14.8928  -35.0552 H   0  0  0  0  0  0  0  0  0  0  0  0
   -6.7375   15.0556  -33.2350 H   0  0  0  0  0  0  0  0  0  0  0  0
   -6.6548   17.1548  -35.3566 H   0  0  0  0  0  0  0  0  0  0  0  0
   -7.3013   17.1908  -33.6608 H   0  0  0  0  0  0  0  0  0  0  0  0
   -3.2786   19.3838  -33.4003 H   0  0  0  0  0  0  0  0  0  0  0  0
   -3.4987   21.6114  -32.3152 H   0  0  0  0  0  0  0  0  0  0  0  0
   -8.0255   24.5879  -29.6446 H   0  0  0  0  0  0  0  0  0  0  0  0
   -7.7550   20.9560  -31.8391 H   0  0  0  0  0  0  0  0  0  0  0  0
   -7.5283   18.7218  -32.9101 H   0  0  0  0  0  0  0  0  0  0  0  0
   -3.4931   17.8833  -34.9552 H   0  0  0  0  0  0  0  0  0  0  0  0
   -3.3039   17.0275  -33.3735 H   0  0  0  0  0  0  0  0  0  0  0  0
   -4.4474   15.9313  -35.9833 H   0  0  0  0  0  0  0  0  0  0  0  0
   -3.0169   15.3543  -35.0772 H   0  0  0  0  0  0  0  0  0  0  0  0
  1  2  1  0
  2  3  1  0
  3  4  1  0
  4  5  1  0
  5  6  1  0
  6  7  2  0
  7  8  1  0
  8  9  2  0
  9 10  1  0
 10 11  2  0
 11 12  1  0
 12 13  2  0
 13 14  1  0
 13 15  1  0
 15 16  2  0
 15 17  1  0
  9 18  1  0
 18 19  2  0
  5 20  1  0
 20 21  1  0
 21  2  1  0
 19  6  1  0
 17 10  1  0
  1 22  1  0
  1 23  1  0
  1 24  1  0
  3 25  1  0
  3 26  1  0
  4 27  1  0
  4 28  1  0
  7 29  1  0
  8 30  1  0
 12 31  1  0
 18 32  1  0
 19 33  1  0
 20 34  1  0
 20 35  1  0
 21 36  1  0
 21 37  1  0
M  CHG  1  17  -1
M  END
>  <UniqueID>  (35) 
34

>  <SMILES>  (35) 
CN1CCN(c2ccc(-c3ncc(F)c(=O)[n-]3)cc2)CC1

>  <Energy>  (35) 
50.248706586432974

>  <Genealogy>  (35) 
CN1CCN(c2ccc(-c3ncc(F)c(=O)[n-]3)cc2)CC1 (protonated)
CN1CCN(c2ccc(-c3ncc(F)c(=O)[n-]3)cc2)CC1 (3D coordinates assigned)
CN1CCN(c2ccc(-c3ncc(F)c(=O)[n-]3)cc2)CC1 (nonaromatic ring conformer: 50.248706586432974 kcal/mol)

>  <smiles>  (35) 
CN1CCN(c2ccc(-c3ncc(F)c(=O)[nH]3)cc2)CC1

>  <score_type>  (35) 
oracle

>  <origin>  (35) 
adgpu

>  <m_score__min__energy>  (35) 
-7.6600000000000001

>  <m_primary>  (35) 
energy

$$$$
35:0
     RDKit          3D

 35 36  0  0  0  0  0  0  0  0999 V2000
   -4.2120   22.1270  -33.3140 N   0  0  0  0  0  0  0  0  0  0  0  0
   -4.9520   22.8080  -32.2940 C   0  0  0  0  0  0  0  0  0  0  0  0
   -6.1750   23.1810  -32.5310 N   0  0  0  0  0  0  0  0  0  0  0  0
   -4.3150   23.0890  -30.9820 C   0  0  0  0  0  0  0  0  0  0  0  0
   -3.0830   22.5050  -30.6390 C   0  0  0  0  0  0  0  0  0  0  0  0
   -2.4880   22.7780  -29.4050 C   0  0  0  0  0  0  0  0  0  0  0  0
   -3.1190   23.6340  -28.4870 C   0  0  0  0  0  0  0  0  0  0  0  0
   -2.5480   23.9430  -27.2430 O   0  0  0  0  0  0  0  0  0  0  0  0
   -1.7110   25.0390  -26.9920 C   0  0  0  0  0  0  0  0  0  0  0  0
   -1.2530   25.2480  -25.6850 C   0  0  0  0  0  0  0  0  0  0  0  0
   -0.4140   26.3350  -25.3820 C   0  0  0  0  0  0  0  0  0  0  0  0
    0.0540   26.5680  -23.9920 C   0  0  0  0  0  0  0  0  0  0  0  0
   -0.7760   27.2840  -23.0700 N   0  0  0  0  0  0  0  0  0  0  0  0
    1.2180   26.1380  -23.6030 N   0  0  0  0  0  0  0  0  0  0  0  0
   -0.0310   27.2090  -26.4120 C   0  0  0  0  0  0  0  0  0  0  0  0
   -0.4620   26.9900  -27.7230 C   0  0  0  0  0  0  0  0  0  0  0  0
   -1.2890   25.9040  -28.0200 C   0  0  0  0  0  0  0  0  0  0  0  0
   -1.6650   25.6760  -29.3400 O   0  0  0  0  0  0  0  0  0  0  0  0
   -4.3340   24.2310  -28.8340 C   0  0  0  0  0  0  0  0  0  0  0  0
   -4.9320   23.9610  -30.0680 C   0  0  0  0  0  0  0  0  0  0  0  0
   -3.2630   21.7370  -33.1220 H   0  0  0  0  0  0  0  0  0  0  0  0
   -4.6300   21.9610  -34.2570 H   0  0  0  0  0  0  0  0  0  0  0  0
   -6.6240   22.9820  -33.4530 H   0  0  0  0  0  0  0  0  0  0  0  0
   -6.7350   23.7120  -31.8270 H   0  0  0  0  0  0  0  0  0  0  0  0
   -2.5838   21.8279  -31.3478 H   0  0  0  0  0  0  0  0  0  0  0  0
   -1.5205   22.3204  -29.1508 H   0  0  0  0  0  0  0  0  0  0  0  0
   -1.5531   24.5538  -24.8863 H   0  0  0  0  0  0  0  0  0  0  0  0
   -0.4430   27.4950  -22.1030 H   0  0  0  0  0  0  0  0  0  0  0  0
   -1.7490   27.5630  -23.3270 H   0  0  0  0  0  0  0  0  0  0  0  0
    1.5470   26.2990  -22.6240 H   0  0  0  0  0  0  0  0  0  0  0  0
    1.8680   25.6440  -24.2550 H   0  0  0  0  0  0  0  0  0  0  0  0
    0.6126   28.0718  -26.1854 H   0  0  0  0  0  0  0  0  0  0  0  0
   -0.1489   27.6754  -28.5243 H   0  0  0  0  0  0  0  0  0  0  0  0
   -4.8240   24.9194  -28.1297 H   0  0  0  0  0  0  0  0  0  0  0  0
   -5.8913   24.4337  -30.3257 H   0  0  0  0  0  0  0  0  0  0  0  0
  1  2  1  0
  2  3  2  0
  2  4  1  0
  4  5  2  0
  5  6  1  0
  6  7  2  0
  7  8  1  0
  8  9  1  0
  9 10  2  0
 10 11  1  0
 11 12  1  0
 12 13  1  0
 12 14  2  0
 11 15  2  0
 15 16  1  0
 16 17  2  0
 17 18  1  0
  7 19  1  0
 19 20  2  0
 20  4  1  0
 17  9  1  0
  1 21  1  0
  1 22  1  0
  3 23  1  0
  3 24  1  0
  5 25  1  0
  6 26  1  0
 10 27  1  0
 13 28  1  0
 13 29  1  0
 14 30  1  0
 14 31  1  0
 15 32  1  0
 16 33  1  0
 19 34  1  0
 20 35  1  0
M  CHG  3   3   1  14   1  18  -1
M  END
>  <UniqueID>  (36) 
35

>  <SMILES>  (36) 
NC(=[NH2+])c1ccc(Oc2cc(C(N)=[NH2+])ccc2[O-])cc1

>  <Energy>  (36) 
47.76293157193187

>  <Genealogy>  (36) 
NC(=[NH2+])c1ccc(Oc2cc(C(N)=[NH2+])ccc2[O-])cc1 (protonated)
NC(=[NH2+])c1ccc(Oc2cc(C(N)=[NH2+])ccc2[O-])cc1 (3D coordinates assigned)
NC(=[NH2+])c1ccc(Oc2cc(C(N)=[NH2+])ccc2[O-])cc1 (optimized conformer: 47.76293157193187 kcal/mol)

>  <smiles>  (36) 
N=C(N)c1ccc(Oc2cc(C(=N)N)ccc2O)cc1

>  <score_type>  (36) 
oracle

>  <origin>  (36) 
adgpu

>  <m_score__min__energy>  (36) 
-10.119999999999999

>  <m_primary>  (36) 
energy

$$$$
36:0
     RDKit          3D

 48 51  0  0  0  0  0  0  0  0999 V2000
   -1.1750   26.1650  -29.0340 N   0  0  0  0  0  0  0  0  0  0  0  0
   -0.4960   25.1830  -28.2470 C   0  0  0  0  0  0  0  0  0  0  0  0
    0.6010   25.4830  -27.7050 O   0  0  0  0  0  0  0  0  0  0  0  0
   -1.0540   23.8360  -28.0280 C   0  0  0  0  0  0  0  0  0  0  0  0
   -0.3040   22.7990  -27.6940 O   0  0  0  0  0  0  0  0  0  0  0  0
   -1.0860   21.7500  -27.5870 C   0  0  0  0  0  0  0  0  0  0  0  0
   -0.7170   20.4520  -27.2390 C   0  0  0  0  0  0  0  0  0  0  0  0
   -1.7310   19.4800  -27.1540 C   0  0  0  0  0  0  0  0  0  0  0  0
   -3.0760   19.8260  -27.4060 C   0  0  0  0  0  0  0  0  0  0  0  0
   -3.4190   21.1420  -27.7640 C   0  0  0  0  0  0  0  0  0  0  0  0
   -2.3900   22.0810  -27.8600 C   0  0  0  0  0  0  0  0  0  0  0  0
   -2.3810   23.4280  -28.1600 C   0  0  0  0  0  0  0  0  0  0  0  0
   -3.4820   24.2350  -28.5980 N   0  0  0  0  0  0  0  0  0  0  0  0
   -3.9830   24.2890  -29.9390 C   0  0  0  0  0  0  0  0  0  0  0  0
   -3.8690   25.3640  -30.5820 O   0  0  0  0  0  0  0  0  0  0  0  0
   -4.5840   23.1040  -30.5950 C   0  0  0  0  0  0  0  0  0  0  0  0
   -5.9750   22.9030  -30.5840 C   0  0  0  0  0  0  0  0  0  0  0  0
   -6.5370   21.8000  -31.2320 C   0  0  0  0  0  0  0  0  0  0  0  0
   -5.7170   20.8780  -31.8950 C   0  0  0  0  0  0  0  0  0  0  0  0
   -6.4300   19.5200  -32.7640 S   0  0  0  0  0  0  0  0  0  0  0  0
   -6.5290   19.8660  -34.2250 O   0  0  0  0  0  0  0  0  0  0  0  0
   -7.8250   19.2930  -32.2530 O   0  0  0  0  0  0  0  0  0  0  0  0
   -5.4980   18.0460  -32.5830 N   0  0  0  0  0  0  0  0  0  0  0  0
   -4.2670   18.0430  -33.4030 C   0  0  0  0  0  0  0  0  0  0  0  0
   -4.4030   17.2010  -34.6820 C   0  0  0  0  0  0  0  0  0  0  0  0
   -5.7390   17.1950  -35.1260 O   0  0  0  0  0  0  0  0  0  0  0  0
   -6.5350   16.4430  -34.2330 C   0  0  0  0  0  0  0  0  0  0  0  0
   -6.3230   16.8340  -32.7500 C   0  0  0  0  0  0  0  0  0  0  0  0
   -4.3260   21.0530  -31.8770 C   0  0  0  0  0  0  0  0  0  0  0  0
   -3.7640   22.1560  -31.2300 C   0  0  0  0  0  0  0  0  0  0  0  0
   -0.7140   27.0780  -29.2380 H   0  0  0  0  0  0  0  0  0  0  0  0
   -2.1670   26.0400  -29.3310 H   0  0  0  0  0  0  0  0  0  0  0  0
    0.3334   20.1954  -27.0372 H   0  0  0  0  0  0  0  0  0  0  0  0
   -1.4738   18.4437  -26.8894 H   0  0  0  0  0  0  0  0  0  0  0  0
   -3.8616   19.0607  -27.3218 H   0  0  0  0  0  0  0  0  0  0  0  0
   -4.4640   21.4226  -27.9620 H   0  0  0  0  0  0  0  0  0  0  0  0
   -6.6260   23.6193  -30.0614 H   0  0  0  0  0  0  0  0  0  0  0  0
   -7.6274   21.6552  -31.2214 H   0  0  0  0  0  0  0  0  0  0  0  0
   -4.0325   19.0792  -33.6881 H   0  0  0  0  0  0  0  0  0  0  0  0
   -3.4667   17.5947  -32.7959 H   0  0  0  0  0  0  0  0  0  0  0  0
   -3.7621   17.6284  -35.4672 H   0  0  0  0  0  0  0  0  0  0  0  0
   -4.0950   16.1679  -34.4634 H   0  0  0  0  0  0  0  0  0  0  0  0
   -7.5929   16.6022  -34.4888 H   0  0  0  0  0  0  0  0  0  0  0  0
   -6.2385   15.3890  -34.3389 H   0  0  0  0  0  0  0  0  0  0  0  0
   -7.3065   17.0141  -32.2914 H   0  0  0  0  0  0  0  0  0  0  0  0
   -5.7882   16.0039  -32.2652 H   0  0  0  0  0  0  0  0  0  0  0  0
   -3.6749   20.3190  -32.3742 H   0  0  0  0  0  0  0  0  0  0  0  0
   -2.6715   22.2834  -31.2175 H   0  0  0  0  0  0  0  0  0  0  0  0
  1  2  1  0
  2  3  2  0
  2  4  1  0
  4  5  1  0
  5  6  1  0
  6  7  2  0
  7  8  1  0
  8  9  2  0
  9 10  1  0
 10 11  2  0
 11 12  1  0
 12 13  1  0
 13 14  1  0
 14 15  2  0
 14 16  1  0
 16 17  2  0
 17 18  1  0
 18 19  2  0
 19 20  1  0
 20 21  2  0
 20 22  2  0
 20 23  1  0
 23 24  1  0
 24 25  1  0
 25 26  1  0
 26 27  1  0
 27 28  1  0
 19 29  1  0
 29 30  2  0
 12  4  2  0
 30 16  1  0
 11  6  1  0
 28 23  1  0
  1 31  1  0
  1 32  1  0
  7 33  1  0
  8 34  1  0
  9 35  1  0
 10 36  1  0
 17 37  1  0
 18 38  1  0
 24 39  1  0
 24 40  1  0
 25 41  1  0
 25 42  1  0
 27 43  1  0
 27 44  1  0
 28 45  1  0
 28 46  1  0
 29 47  1  0
 30 48  1  0
M  CHG  1  13  -1
M  END
>  <UniqueID>  (37) 
36

>  <SMILES>  (37) 
NC(=O)c1oc2ccccc2c1[N-]C(=O)c1ccc(S(=O)(=O)N2CCOCC2)cc1

>  <Energy>  (37) 
102.0153901385797

>  <Genealogy>  (37) 
NC(=O)c1oc2ccccc2c1[N-]C(=O)c1ccc(S(=O)(=O)N2CCOCC2)cc1 (protonated)
NC(=O)c1oc2ccccc2c1[N-]C(=O)c1ccc(S(=O)(=O)N2CCOCC2)cc1 (3D coordinates assigned)
NC(=O)c1oc2ccccc2c1[N-]C(=O)c1ccc(S(=O)(=O)N2CCOCC2)cc1 (nonaromatic ring conformer: 102.0153901385797 kcal/mol)

>  <smiles>  (37) 
NC(=O)c1oc2ccccc2c1NC(=O)c1ccc(S(=O)(=O)N2CCOCC2)cc1

>  <score_type>  (37) 
oracle

>  <origin>  (37) 
adgpu

>  <m_score__min__energy>  (37) 
-11.16

>  <m_primary>  (37) 
energy

$$$$
37:0
     RDKit          3D

 51 53  0  0  0  0  0  0  0  0999 V2000
    2.9830   14.6600  -27.3950 C   0  0  0  0  0  0  0  0  0  0  0  0
    1.5350   14.9270  -27.8360 C   0  0  0  0  0  0  0  0  0  0  0  0
    1.4240   15.0990  -29.3710 C   0  0  0  0  0  0  0  0  0  0  0  0
    1.4660   16.5720  -29.8180 C   0  0  0  0  0  0  0  0  0  0  0  0
    2.2530   17.3700  -28.8670 N   0  0  0  0  0  0  0  0  0  0  0  0
    2.5550   18.9590  -29.5210 S   0  0  0  0  0  0  0  0  0  0  0  0
    3.6240   19.6450  -28.7150 O   0  0  0  0  0  0  0  0  0  0  0  0
    3.0130   18.8460  -30.9490 O   0  0  0  0  0  0  0  0  0  0  0  0
    1.0650   19.8970  -29.4800 C   0  0  0  0  0  0  0  0  0  0  0  0
    0.2980   20.0230  -30.6430 C   0  0  0  0  0  0  0  0  0  0  0  0
   -0.8960   20.7480  -30.6240 C   0  0  0  0  0  0  0  0  0  0  0  0
   -1.3360   21.3690  -29.4400 C   0  0  0  0  0  0  0  0  0  0  0  0
   -2.6110   22.1270  -29.4390 C   0  0  0  0  0  0  0  0  0  0  0  0
   -3.1240   22.4530  -28.3320 O   0  0  0  0  0  0  0  0  0  0  0  0
   -3.2610   22.5000  -30.6700 N   0  0  0  0  0  0  0  0  0  0  0  0
   -4.5280   23.1770  -30.7260 C   0  0  0  0  0  0  0  0  0  0  0  0
   -5.7160   22.4730  -30.9920 C   0  0  0  0  0  0  0  0  0  0  0  0
   -6.9420   23.1480  -31.0680 C   0  0  0  0  0  0  0  0  0  0  0  0
   -8.4180   22.2500  -31.4060 S   0  0  0  0  0  0  0  0  0  0  0  0
   -8.0340   20.8260  -32.3050 N   0  0  0  0  0  0  0  0  0  0  0  0
   -9.0830   21.8670  -30.1140 O   0  0  0  0  0  0  0  0  0  0  0  0
   -9.3680   23.1010  -32.2020 O   0  0  0  0  0  0  0  0  0  0  0  0
   -6.9800   24.5370  -30.9010 C   0  0  0  0  0  0  0  0  0  0  0  0
   -5.8020   25.2470  -30.6590 C   0  0  0  0  0  0  0  0  0  0  0  0
   -4.5790   24.5750  -30.5760 C   0  0  0  0  0  0  0  0  0  0  0  0
   -3.4160   25.2990  -30.3340 O   0  0  0  0  0  0  0  0  0  0  0  0
   -0.5650   21.2290  -28.2720 C   0  0  0  0  0  0  0  0  0  0  0  0
    0.6280   20.5000  -28.2940 C   0  0  0  0  0  0  0  0  0  0  0  0
    1.5590   17.4840  -27.5670 C   0  0  0  0  0  0  0  0  0  0  0  0
    0.9420   16.1450  -27.1020 C   0  0  0  0  0  0  0  0  0  0  0  0
    3.0358   14.6503  -26.2963 H   0  0  0  0  0  0  0  0  0  0  0  0
    3.3119   13.6861  -27.7865 H   0  0  0  0  0  0  0  0  0  0  0  0
    3.6376   15.4526  -27.7865 H   0  0  0  0  0  0  0  0  0  0  0  0
    0.9443   14.0415  -27.5587 H   0  0  0  0  0  0  0  0  0  0  0  0
    2.2612   14.5653  -29.8446 H   0  0  0  0  0  0  0  0  0  0  0  0
    0.4496   14.6907  -29.6774 H   0  0  0  0  0  0  0  0  0  0  0  0
    1.9271   16.6360  -30.8146 H   0  0  0  0  0  0  0  0  0  0  0  0
    0.4394   16.9655  -29.8526 H   0  0  0  0  0  0  0  0  0  0  0  0
    0.6364   19.5493  -31.5763 H   0  0  0  0  0  0  0  0  0  0  0  0
   -1.4969   20.8342  -31.5414 H   0  0  0  0  0  0  0  0  0  0  0  0
   -2.7880   22.3000  -31.5770 H   0  0  0  0  0  0  0  0  0  0  0  0
   -5.6828   21.3837  -31.1416 H   0  0  0  0  0  0  0  0  0  0  0  0
   -7.3770   21.1150  -33.0630 H   0  0  0  0  0  0  0  0  0  0  0  0
   -7.9400   25.0708  -30.9605 H   0  0  0  0  0  0  0  0  0  0  0  0
   -5.8366   26.3392  -30.5332 H   0  0  0  0  0  0  0  0  0  0  0  0
   -0.9027   21.6961  -27.3351 H   0  0  0  0  0  0  0  0  0  0  0  0
    1.2257   20.3997  -27.3760 H   0  0  0  0  0  0  0  0  0  0  0  0
    2.2827   17.8200  -26.8098 H   0  0  0  0  0  0  0  0  0  0  0  0
    0.7367   18.2041  -27.6908 H   0  0  0  0  0  0  0  0  0  0  0  0
    1.1258   16.0291  -26.0237 H   0  0  0  0  0  0  0  0  0  0  0  0
   -0.1332   16.1786  -27.3316 H   0  0  0  0  0  0  0  0  0  0  0  0
  1  2  1  0
  2  3  1  0
  3  4  1  0
  4  5  1  0
  5  6  1  0
  6  7  2  0
  6  8  2  0
  6  9  1  0
  9 10  2  0
 10 11  1  0
 11 12  2  0
 12 13  1  0
 13 14  2  0
 13 15  1  0
 15 16  1  0
 16 17  2  0
 17 18  1  0
 18 19  1  0
 19 20  1  0
 19 21  2  0
 19 22  2  0
 18 23  2  0
 23 24  1  0
 24 25  2  0
 25 26  1  0
 12 27  1  0
 27 28  2  0
  5 29  1  0
 29 30  1  0
 30  2  1  0
 28  9  1  0
 25 16  1  0
  1 31  1  0
  1 32  1  0
  1 33  1  0
  2 34  1  0
  3 35  1  0
  3 36  1  0
  4 37  1  0
  4 38  1  0
 10 39  1  0
 11 40  1  0
 15 41  1  0
 17 42  1  0
 20 43  1  0
 23 44  1  0
 24 45  1  0
 27 46  1  0
 28 47  1  0
 29 48  1  0
 29 49  1  0
 30 50  1  0
 30 51  1  0
M  CHG  2  20  -1  26  -1
M  END
>  <UniqueID>  (38) 
37

>  <SMILES>  (38) 
CC1CCN(S(=O)(=O)c2ccc(C(=O)Nc3cc(S([NH-])(=O)=O)ccc3[O-])cc2)CC1

>  <Energy>  (38) 
61.87995597791006

>  <Genealogy>  (38) 
CC1CCN(S(=O)(=O)c2ccc(C(=O)Nc3cc(S([NH-])(=O)=O)ccc3[O-])cc2)CC1 (protonated)
CC1CCN(S(=O)(=O)c2ccc(C(=O)Nc3cc(S([NH-])(=O)=O)ccc3[O-])cc2)CC1 (3D coordinates assigned)
CC1CCN(S(=O)(=O)c2ccc(C(=O)Nc3cc(S([NH-])(=O)=O)ccc3[O-])cc2)CC1 (nonaromatic ring conformer: 61.87995597791006 kcal/mol)

>  <smiles>  (38) 
CC1CCN(S(=O)(=O)c2ccc(C(=O)Nc3cc(S(N)(=O)=O)ccc3O)cc2)CC1

>  <score_type>  (38) 
oracle

>  <origin>  (38) 
adgpu

>  <m_score__min__energy>  (38) 
-10.57

>  <m_primary>  (38) 
energy

$$$$
38:0
     RDKit          3D

 52 54  0  0  0  0  0  0  0  0999 V2000
   -2.3730   18.3050  -26.3030 C   0  0  0  0  0  0  0  0  0  0  0  0
   -2.2170   19.4910  -27.1970 C   0  0  0  0  0  0  0  0  0  0  0  0
   -1.2900   19.4890  -28.0500 O   0  0  0  0  0  0  0  0  0  0  0  0
   -3.1320   20.5930  -27.1210 N   0  0  0  0  0  0  0  0  0  0  0  0
   -2.8620   21.8890  -27.6790 C   0  0  0  0  0  0  0  0  0  0  0  0
   -1.6950   22.5760  -27.3120 C   0  0  0  0  0  0  0  0  0  0  0  0
   -1.4100   23.8290  -27.8620 C   0  0  0  0  0  0  0  0  0  0  0  0
   -2.2810   24.4040  -28.7940 C   0  0  0  0  0  0  0  0  0  0  0  0
   -1.9750   25.6490  -29.3330 O   0  0  0  0  0  0  0  0  0  0  0  0
   -3.4470   23.7190  -29.1850 C   0  0  0  0  0  0  0  0  0  0  0  0
   -4.5390   24.3880  -30.4000 S   0  0  0  0  0  0  0  0  0  0  0  0
   -5.8950   24.6470  -29.8180 O   0  0  0  0  0  0  0  0  0  0  0  0
   -3.9640   25.6780  -30.8970 O   0  0  0  0  0  0  0  0  0  0  0  0
   -4.6780   23.2900  -31.7350 N   0  0  0  0  0  0  0  0  0  0  0  0
   -5.8050   22.4360  -31.9420 C   0  0  0  0  0  0  0  0  0  0  0  0
   -7.0880   22.8000  -31.5180 C   0  0  0  0  0  0  0  0  0  0  0  0
   -8.1680   21.9420  -31.7320 C   0  0  0  0  0  0  0  0  0  0  0  0
   -7.9830   20.6960  -32.3550 C   0  0  0  0  0  0  0  0  0  0  0  0
   -9.1780   19.7970  -32.5530 C   0  0  0  0  0  0  0  0  0  0  0  0
   -6.6800   20.3160  -32.7730 C   0  0  0  0  0  0  0  0  0  0  0  0
   -6.3580   18.7150  -33.4630 S   0  0  0  0  0  0  0  0  0  0  0  0
   -6.1660   18.8380  -34.9490 O   0  0  0  0  0  0  0  0  0  0  0  0
   -7.5480   17.8390  -33.1870 O   0  0  0  0  0  0  0  0  0  0  0  0
   -4.9340   18.0050  -32.7280 N   0  0  0  0  0  0  0  0  0  0  0  0
   -3.6830   18.4990  -33.3440 C   0  0  0  0  0  0  0  0  0  0  0  0
   -3.0880   17.5130  -34.3660 C   0  0  0  0  0  0  0  0  0  0  0  0
   -4.1230   16.8190  -35.0290 O   0  0  0  0  0  0  0  0  0  0  0  0
   -4.7810   15.9370  -34.1320 C   0  0  0  0  0  0  0  0  0  0  0  0
   -5.0030   16.5350  -32.7220 C   0  0  0  0  0  0  0  0  0  0  0  0
   -5.6110   21.2060  -32.5780 C   0  0  0  0  0  0  0  0  0  0  0  0
   -3.7180   22.4570  -28.6350 C   0  0  0  0  0  0  0  0  0  0  0  0
   -2.3303   18.6294  -25.2528 H   0  0  0  0  0  0  0  0  0  0  0  0
   -3.3423   17.8232  -26.4989 H   0  0  0  0  0  0  0  0  0  0  0  0
   -1.5613   17.5889  -26.4989 H   0  0  0  0  0  0  0  0  0  0  0  0
   -4.0610   20.4360  -26.6670 H   0  0  0  0  0  0  0  0  0  0  0  0
   -1.0004   22.1260  -26.5874 H   0  0  0  0  0  0  0  0  0  0  0  0
   -0.4977   24.3650  -27.5611 H   0  0  0  0  0  0  0  0  0  0  0  0
   -7.2459   23.7652  -31.0145 H   0  0  0  0  0  0  0  0  0  0  0  0
   -9.1752   22.2445  -31.4094 H   0  0  0  0  0  0  0  0  0  0  0  0
   -9.5773   19.4966  -31.5730 H   0  0  0  0  0  0  0  0  0  0  0  0
   -9.9540   20.3371  -33.1152 H   0  0  0  0  0  0  0  0  0  0  0  0
   -8.8741   18.9017  -33.1152 H   0  0  0  0  0  0  0  0  0  0  0  0
   -3.8952   19.4493  -33.8557 H   0  0  0  0  0  0  0  0  0  0  0  0
   -2.9451   18.6239  -32.5378 H   0  0  0  0  0  0  0  0  0  0  0  0
   -2.4920   18.0696  -35.1042 H   0  0  0  0  0  0  0  0  0  0  0  0
   -2.4492   16.7893  -33.8386 H   0  0  0  0  0  0  0  0  0  0  0  0
   -5.7616   15.6771  -34.5573 H   0  0  0  0  0  0  0  0  0  0  0  0
   -4.1303   15.0586  -34.0097 H   0  0  0  0  0  0  0  0  0  0  0  0
   -5.9946   16.2278  -32.3583 H   0  0  0  0  0  0  0  0  0  0  0  0
   -4.2040   16.1606  -32.0652 H   0  0  0  0  0  0  0  0  0  0  0  0
   -4.6061   20.9312  -32.9310 H   0  0  0  0  0  0  0  0  0  0  0  0
   -4.6134   21.9054  -28.9575 H   0  0  0  0  0  0  0  0  0  0  0  0
  1  2  1  0
  2  3  2  0
  2  4  1  0
  4  5  1  0
  5  6  2  0
  6  7  1  0
  7  8  2  0
  8  9  1  0
  8 10  1  0
 10 11  1  0
 11 12  2  0
 11 13  2  0
 11 14  1  0
 14 15  1  0
 15 16  2  0
 16 17  1  0
 17 18  2  0
 18 19  1  0
 18 20  1  0
 20 21  1  0
 21 22  2  0
 21 23  2  0
 21 24  1  0
 24 25  1  0
 25 26  1  0
 26 27  1  0
 27 28  1  0
 28 29  1  0
 20 30  2  0
 10 31  2  0
 31  5  1  0
 30 15  1  0
 29 24  1  0
  1 32  1  0
  1 33  1  0
  1 34  1  0
  4 35  1  0
  6 36  1  0
  7 37  1  0
 16 38  1  0
 17 39  1  0
 19 40  1  0
 19 41  1  0
 19 42  1  0
 25 43  1  0
 25 44  1  0
 26 45  1  0
 26 46  1  0
 28 47  1  0
 28 48  1  0
 29 49  1  0
 29 50  1  0
 30 51  1  0
 31 52  1  0
M  CHG  2   9  -1  14  -1
M  END
>  <UniqueID>  (39) 
38

>  <SMILES>  (39) 
CC(=O)Nc1ccc([O-])c(S(=O)(=O)[N-]c2ccc(C)c(S(=O)(=O)N3CCOCC3)c2)c1

>  <Energy>  (39) 
72.7790322854487

>  <Genealogy>  (39) 
CC(=O)Nc1ccc([O-])c(S(=O)(=O)[N-]c2ccc(C)c(S(=O)(=O)N3CCOCC3)c2)c1 (protonated)
CC(=O)Nc1ccc([O-])c(S(=O)(=O)[N-]c2ccc(C)c(S(=O)(=O)N3CCOCC3)c2)c1 (3D coordinates assigned)
CC(=O)Nc1ccc([O-])c(S(=O)(=O)[N-]c2ccc(C)c(S(=O)(=O)N3CCOCC3)c2)c1 (nonaromatic ring conformer: 72.7790322854487 kcal/mol)

>  <smiles>  (39) 
CC(=O)Nc1ccc(O)c(S(=O)(=O)Nc2ccc(C)c(S(=O)(=O)N3CCOCC3)c2)c1

>  <score_type>  (39) 
oracle

>  <origin>  (39) 
adgpu

>  <m_score__min__energy>  (39) 
-15.029999999999999

>  <m_primary>  (39) 
energy

$$$$
39:0
     RDKit          3D

 47 49  0  0  0  0  0  0  0  0999 V2000
   -7.9790   19.7930  -32.7000 C   0  0  0  0  0  0  0  0  0  0  0  0
   -8.8580   21.2180  -31.9850 S   0  0  0  0  0  0  0  0  0  0  0  0
   -7.3580   22.1420  -31.6850 C   0  0  0  0  0  0  0  0  0  0  0  0
   -6.1310   21.6850  -32.0030 N   0  0  0  0  0  0  0  0  0  0  0  0
   -5.1600   22.6000  -31.7350 C   0  0  0  0  0  0  0  0  0  0  0  0
   -3.7310   22.3080  -32.0740 C   0  0  0  0  0  0  0  0  0  0  0  0
   -5.6320   23.8090  -31.1950 C   0  0  0  0  0  0  0  0  0  0  0  0
   -4.8600   25.0130  -30.8200 C   0  0  0  0  0  0  0  0  0  0  0  0
   -5.4250   26.1370  -30.8730 O   0  0  0  0  0  0  0  0  0  0  0  0
   -3.4880   24.9490  -30.4170 N   0  0  0  0  0  0  0  0  0  0  0  0
   -2.9780   24.2200  -29.2950 C   0  0  0  0  0  0  0  0  0  0  0  0
   -3.7660   23.2850  -28.6020 C   0  0  0  0  0  0  0  0  0  0  0  0
   -3.2240   22.5630  -27.5350 C   0  0  0  0  0  0  0  0  0  0  0  0
   -1.8960   22.7710  -27.1510 C   0  0  0  0  0  0  0  0  0  0  0  0
   -1.1100   23.7210  -27.8180 C   0  0  0  0  0  0  0  0  0  0  0  0
    0.5830   23.9550  -27.3850 S   0  0  0  0  0  0  0  0  0  0  0  0
    1.3360   24.5070  -28.5640 O   0  0  0  0  0  0  0  0  0  0  0  0
    1.1690   22.6210  -27.0090 O   0  0  0  0  0  0  0  0  0  0  0  0
    0.6900   25.0620  -26.0310 N   0  0  0  0  0  0  0  0  0  0  0  0
   -0.2310   24.6530  -24.9310 C   0  0  0  0  0  0  0  0  0  0  0  0
   -1.1360   25.7870  -24.4300 C   0  0  0  0  0  0  0  0  0  0  0  0
   -1.8750   26.4220  -25.6080 C   0  0  0  0  0  0  0  0  0  0  0  0
   -0.9130   26.8960  -26.7110 C   0  0  0  0  0  0  0  0  0  0  0  0
    0.5490   26.4680  -26.4790 C   0  0  0  0  0  0  0  0  0  0  0  0
   -1.6620   24.4550  -28.8770 C   0  0  0  0  0  0  0  0  0  0  0  0
   -7.3080   23.7130  -31.0940 S   0  0  0  0  0  0  0  0  0  0  0  0
   -7.5881   19.1594  -31.8902 H   0  0  0  0  0  0  0  0  0  0  0  0
   -8.6733   19.2078  -33.3209 H   0  0  0  0  0  0  0  0  0  0  0  0
   -7.1445   20.1509  -33.3209 H   0  0  0  0  0  0  0  0  0  0  0  0
   -3.1511   22.1895  -31.1468 H   0  0  0  0  0  0  0  0  0  0  0  0
   -3.6759   21.3800  -32.6621 H   0  0  0  0  0  0  0  0  0  0  0  0
   -3.3163   23.1400  -32.6621 H   0  0  0  0  0  0  0  0  0  0  0  0
   -4.8120   23.1210  -28.9002 H   0  0  0  0  0  0  0  0  0  0  0  0
   -3.8431   21.8302  -26.9968 H   0  0  0  0  0  0  0  0  0  0  0  0
   -1.4666   22.1876  -26.3232 H   0  0  0  0  0  0  0  0  0  0  0  0
    1.6700   24.9690  -25.6710 H   0  0  0  0  0  0  0  0  0  0  0  0
   -0.8693   23.8359  -25.2983 H   0  0  0  0  0  0  0  0  0  0  0  0
    0.3982   24.3454  -24.0828 H   0  0  0  0  0  0  0  0  0  0  0  0
   -1.8680   25.3811  -23.7162 H   0  0  0  0  0  0  0  0  0  0  0  0
   -0.5186   26.5513  -23.9353 H   0  0  0  0  0  0  0  0  0  0  0  0
   -2.5650   25.6793  -26.0350 H   0  0  0  0  0  0  0  0  0  0  0  0
   -2.4167   27.3023  -25.2315 H   0  0  0  0  0  0  0  0  0  0  0  0
   -1.2502   26.4768  -27.6705 H   0  0  0  0  0  0  0  0  0  0  0  0
   -0.9323   27.9958  -26.7056 H   0  0  0  0  0  0  0  0  0  0  0  0
    1.1012   26.5897  -27.4225 H   0  0  0  0  0  0  0  0  0  0  0  0
    0.9488   27.1048  -25.6761 H   0  0  0  0  0  0  0  0  0  0  0  0
   -1.0570   25.2214  -29.3836 H   0  0  0  0  0  0  0  0  0  0  0  0
  1  2  1  0
  2  3  1  0
  3  4  2  0
  4  5  1  0
  5  6  1  0
  5  7  2  0
  7  8  1  0
  8  9  2  0
  8 10  1  0
 10 11  1  0
 11 12  2  0
 12 13  1  0
 13 14  2  0
 14 15  1  0
 15 16  1  0
 16 17  2  0
 16 18  2  0
 16 19  1  0
 19 20  1  0
 20 21  1  0
 21 22  1  0
 22 23  1  0
 23 24  1  0
 15 25  2  0
  7 26  1  0
 26  3  1  0
 25 11  1  0
 24 19  1  0
  1 27  1  0
  1 28  1  0
  1 29  1  0
  6 30  1  0
  6 31  1  0
  6 32  1  0
 12 33  1  0
 13 34  1  0
 14 35  1  0
 19 36  1  0
 20 37  1  0
 20 38  1  0
 21 39  1  0
 21 40  1  0
 22 41  1  0
 22 42  1  0
 23 43  1  0
 23 44  1  0
 24 45  1  0
 24 46  1  0
 25 47  1  0
M  CHG  2  10  -1  19   1
M  END
>  <UniqueID>  (40) 
39

>  <SMILES>  (40) 
CSc1nc(C)c(C(=O)[N-]c2cccc(S(=O)(=O)[NH+]3CCCCC3)c2)s1

>  <Energy>  (40) 
86.25091271429858

>  <Genealogy>  (40) 
CSc1nc(C)c(C(=O)[N-]c2cccc(S(=O)(=O)[NH+]3CCCCC3)c2)s1 (protonated)
CSc1nc(C)c(C(=O)[N-]c2cccc(S(=O)(=O)[NH+]3CCCCC3)c2)s1 (3D coordinates assigned)
CSc1nc(C)c(C(=O)[N-]c2cccc(S(=O)(=O)[NH+]3CCCCC3)c2)s1 (nonaromatic ring conformer: 86.25091271429858 kcal/mol)

>  <smiles>  (40) 
CSc1nc(C)c(C(=O)Nc2cccc(S(=O)(=O)N3CCCCC3)c2)s1

>  <score_type>  (40) 
oracle

>  <origin>  (40) 
adgpu

>  <m_score__min__energy>  (40) 
-10.640000000000001

>  <m_primary>  (40) 
energy

$$$$
40:0
     RDKit          3D

 51 53  0  0  0  0  0  0  0  0999 V2000
   -0.5390   27.7470  -26.7990 C   0  0  0  0  0  0  0  0  0  0  0  0
   -0.6810   26.4860  -27.5990 C   0  0  0  0  0  0  0  0  0  0  0  0
   -1.5980   26.4160  -28.4630 O   0  0  0  0  0  0  0  0  0  0  0  0
    0.2120   25.3700  -27.4440 N   0  0  0  0  0  0  0  0  0  0  0  0
    0.0280   24.0410  -27.9530 C   0  0  0  0  0  0  0  0  0  0  0  0
   -0.1000   22.9310  -27.0990 C   0  0  0  0  0  0  0  0  0  0  0  0
   -0.2810   21.6510  -27.6330 C   0  0  0  0  0  0  0  0  0  0  0  0
   -0.3520   21.4650  -29.0210 C   0  0  0  0  0  0  0  0  0  0  0  0
   -0.4960   19.8360  -29.6750 S   0  0  0  0  0  0  0  0  0  0  0  0
   -1.2590   18.9540  -28.7250 O   0  0  0  0  0  0  0  0  0  0  0  0
    0.8800   19.2580  -29.8550 O   0  0  0  0  0  0  0  0  0  0  0  0
   -1.3510   19.9160  -31.1950 N   0  0  0  0  0  0  0  0  0  0  0  0
   -0.8450   19.1440  -32.3370 C   0  0  0  0  0  0  0  0  0  0  0  0
   -0.1180   20.0370  -33.3120 C   0  0  0  0  0  0  0  0  0  0  0  0
    1.2850   20.0590  -33.3430 C   0  0  0  0  0  0  0  0  0  0  0  0
    1.9580   20.8120  -34.3090 C   0  0  0  0  0  0  0  0  0  0  0  0
    1.2400   21.5520  -35.2650 C   0  0  0  0  0  0  0  0  0  0  0  0
    1.9460   22.2960  -36.3300 C   0  0  0  0  0  0  0  0  0  0  0  0
    1.5710   23.4530  -36.6620 O   0  0  0  0  0  0  0  0  0  0  0  0
    3.0510   21.7390  -36.9630 O   0  0  0  0  0  0  0  0  0  0  0  0
   -0.1650   21.5560  -35.2100 C   0  0  0  0  0  0  0  0  0  0  0  0
   -0.8360   20.8050  -34.2410 C   0  0  0  0  0  0  0  0  0  0  0  0
   -2.6540   20.5240  -31.2580 C   0  0  0  0  0  0  0  0  0  0  0  0
   -3.4850   20.1250  -32.1200 O   0  0  0  0  0  0  0  0  0  0  0  0
   -3.0340   21.6270  -30.3520 C   0  0  0  0  0  0  0  0  0  0  0  0
   -3.3190   21.3730  -29.0000 C   0  0  0  0  0  0  0  0  0  0  0  0
   -3.6660   22.4230  -28.1430 C   0  0  0  0  0  0  0  0  0  0  0  0
   -3.7260   23.7370  -28.6220 C   0  0  0  0  0  0  0  0  0  0  0  0
   -4.0780   24.7650  -27.7460 O   0  0  0  0  0  0  0  0  0  0  0  0
   -3.4300   23.9990  -29.9720 C   0  0  0  0  0  0  0  0  0  0  0  0
   -3.4840   25.2980  -30.4680 O   0  0  0  0  0  0  0  0  0  0  0  0
   -3.0790   22.9500  -30.8280 C   0  0  0  0  0  0  0  0  0  0  0  0
   -0.2690   22.5770  -29.8710 C   0  0  0  0  0  0  0  0  0  0  0  0
   -0.0900   23.8570  -29.3390 C   0  0  0  0  0  0  0  0  0  0  0  0
   -0.5662   27.5056  -25.7262 H   0  0  0  0  0  0  0  0  0  0  0  0
    0.4192   28.2295  -27.0421 H   0  0  0  0  0  0  0  0  0  0  0  0
   -1.3658   28.4305  -27.0421 H   0  0  0  0  0  0  0  0  0  0  0  0
   -0.0577   23.0698  -26.0086 H   0  0  0  0  0  0  0  0  0  0  0  0
   -0.3682   20.7852  -26.9602 H   0  0  0  0  0  0  0  0  0  0  0  0
   -0.1525   18.3717  -31.9709 H   0  0  0  0  0  0  0  0  0  0  0  0
   -1.6987   18.6814  -32.8539 H   0  0  0  0  0  0  0  0  0  0  0  0
    1.8578   19.4806  -32.6032 H   0  0  0  0  0  0  0  0  0  0  0  0
    3.0578   20.8259  -34.3215 H   0  0  0  0  0  0  0  0  0  0  0  0
   -0.7391   22.1534  -35.9335 H   0  0  0  0  0  0  0  0  0  0  0  0
   -1.9354   20.8161  -34.2064 H   0  0  0  0  0  0  0  0  0  0  0  0
   -3.2691   20.3443  -28.6136 H   0  0  0  0  0  0  0  0  0  0  0  0
   -3.8929   22.2149  -27.0870 H   0  0  0  0  0  0  0  0  0  0  0  0
   -3.6240   25.6700  -27.7700 H   0  0  0  0  0  0  0  0  0  0  0  0
   -2.8366   23.1609  -31.8800 H   0  0  0  0  0  0  0  0  0  0  0  0
   -0.3450   22.4416  -30.9600 H   0  0  0  0  0  0  0  0  0  0  0  0
   -0.0413   24.7261  -30.0115 H   0  0  0  0  0  0  0  0  0  0  0  0
  1  2  1  0
  2  3  2  0
  2  4  1  0
  4  5  1  0
  5  6  2  0
  6  7  1  0
  7  8  2  0
  8  9  1  0
  9 10  2  0
  9 11  2  0
  9 12  1  0
 12 13  1  0
 13 14  1  0
 14 15  2  0
 15 16  1  0
 16 17  2  0
 17 18  1  0
 18 19  2  0
 18 20  1  0
 17 21  1  0
 21 22  2  0
 12 23  1  0
 23 24  2  0
 23 25  1  0
 25 26  2  0
 26 27  1  0
 27 28  2  0
 28 29  1  0
 28 30  1  0
 30 31  1  0
 30 32  2  0
  8 33  1  0
 33 34  2  0
 34  5  1  0
 22 14  1  0
 32 25  1  0
  1 35  1  0
  1 36  1  0
  1 37  1  0
  6 38  1  0
  7 39  1  0
 13 40  1  0
 13 41  1  0
 15 42  1  0
 16 43  1  0
 21 44  1  0
 22 45  1  0
 26 46  1  0
 27 47  1  0
 29 48  1  0
 32 49  1  0
 33 50  1  0
 34 51  1  0
M  CHG  3   4  -1  20  -1  31  -1
M  END
>  <UniqueID>  (41) 
40

>  <SMILES>  (41) 
CC(=O)[N-]c1ccc(S(=O)(=O)N(Cc2ccc(C(=O)[O-])cc2)C(=O)c2ccc(O)c([O-])c2)cc1

>  <Energy>  (41) 
60.18657054588927

>  <Genealogy>  (41) 
CC(=O)[N-]c1ccc(S(=O)(=O)N(Cc2ccc(C(=O)[O-])cc2)C(=O)c2ccc(O)c([O-])c2)cc1 (protonated)
CC(=O)[N-]c1ccc(S(=O)(=O)N(Cc2ccc(C(=O)[O-])cc2)C(=O)c2ccc(O)c([O-])c2)cc1 (3D coordinates assigned)
CC(=O)[N-]c1ccc(S(=O)(=O)N(Cc2ccc(C(=O)[O-])cc2)C(=O)c2ccc(O)c([O-])c2)cc1 (optimized conformer: 60.18657054588927 kcal/mol)

>  <smiles>  (41) 
CC(=O)Nc1ccc(S(=O)(=O)N(Cc2ccc(C(=O)O)cc2)C(=O)c2ccc(O)c(O)c2)cc1

>  <score_type>  (41) 
oracle

>  <origin>  (41) 
adgpu

>  <m_score__min__energy>  (41) 
-12.390000000000001

>  <m_primary>  (41) 
energy

$$$$
41:0
     RDKit          3D

 60 63  0  0  0  0  0  0  0  0999 V2000
   -4.5130   24.9060  -30.8930 O   0  0  0  0  0  0  0  0  0  0  0  0
   -4.0970   23.7160  -30.8460 C   0  0  0  0  0  0  0  0  0  0  0  0
   -4.6540   22.7280  -31.7170 N   0  0  0  0  0  0  0  0  0  0  0  0
   -6.0000   22.2300  -31.7430 C   0  0  0  0  0  0  0  0  0  0  0  0
   -7.1170   23.0800  -31.8610 C   0  0  0  0  0  0  0  0  0  0  0  0
   -8.4020   22.5400  -31.9650 C   0  0  0  0  0  0  0  0  0  0  0  0
   -8.5830   21.1550  -31.9680 C   0  0  0  0  0  0  0  0  0  0  0  0
   -7.4770   20.3020  -31.8560 C   0  0  0  0  0  0  0  0  0  0  0  0
   -7.6750   18.5530  -31.8950 S   0  0  0  0  0  0  0  0  0  0  0  0
   -6.8630   17.9590  -30.7790 O   0  0  0  0  0  0  0  0  0  0  0  0
   -9.1130   18.1870  -31.6880 O   0  0  0  0  0  0  0  0  0  0  0  0
   -7.1210   17.9350  -33.4330 N   0  0  0  0  0  0  0  0  0  0  0  0
   -6.4820   16.6250  -33.2420 C   0  0  0  0  0  0  0  0  0  0  0  0
   -5.9350   16.1210  -34.5780 C   0  0  0  0  0  0  0  0  0  0  0  0
   -5.0050   17.0360  -35.1270 O   0  0  0  0  0  0  0  0  0  0  0  0
   -5.6300   18.2890  -35.3440 C   0  0  0  0  0  0  0  0  0  0  0  0
   -6.1590   18.8700  -34.0320 C   0  0  0  0  0  0  0  0  0  0  0  0
   -6.1900   20.8460  -31.7500 C   0  0  0  0  0  0  0  0  0  0  0  0
   -3.0370   23.3250  -29.8790 C   0  0  0  0  0  0  0  0  0  0  0  0
   -2.2600   24.3270  -29.2640 C   0  0  0  0  0  0  0  0  0  0  0  0
   -1.3610   24.0140  -28.2330 C   0  0  0  0  0  0  0  0  0  0  0  0
   -0.5100   25.3040  -27.3720 S   0  0  0  0  0  0  0  0  0  0  0  0
   -0.8870   26.6250  -27.9860 O   0  0  0  0  0  0  0  0  0  0  0  0
    0.9730   25.1240  -27.5470 O   0  0  0  0  0  0  0  0  0  0  0  0
   -0.8860   25.3370  -25.6600 N   0  0  0  0  0  0  0  0  0  0  0  0
   -1.8590   26.3770  -25.2910 C   0  0  0  0  0  0  0  0  0  0  0  0
   -1.2340   27.7700  -25.0990 C   0  0  0  0  0  0  0  0  0  0  0  0
    0.1730   27.7350  -24.4820 C   0  0  0  0  0  0  0  0  0  0  0  0
    0.4520   26.4030  -23.7810 C   0  0  0  0  0  0  0  0  0  0  0  0
    0.3180   25.2500  -24.7870 C   0  0  0  0  0  0  0  0  0  0  0  0
   -1.1570   22.6760  -27.8800 C   0  0  0  0  0  0  0  0  0  0  0  0
   -1.8780   21.6650  -28.5140 C   0  0  0  0  0  0  0  0  0  0  0  0
   -2.8310   21.9780  -29.4980 C   0  0  0  0  0  0  0  0  0  0  0  0
   -3.5740   20.9520  -30.0790 O   0  0  0  0  0  0  0  0  0  0  0  0
   -6.9777   24.1711  -31.8713 H   0  0  0  0  0  0  0  0  0  0  0  0
   -9.2728   23.2073  -32.0447 H   0  0  0  0  0  0  0  0  0  0  0  0
   -9.5950   20.7334  -32.0584 H   0  0  0  0  0  0  0  0  0  0  0  0
   -5.6564   16.7220  -32.5217 H   0  0  0  0  0  0  0  0  0  0  0  0
   -7.2239   15.9094  -32.8579 H   0  0  0  0  0  0  0  0  0  0  0  0
   -5.4361   15.1535  -34.4197 H   0  0  0  0  0  0  0  0  0  0  0  0
   -6.7747   16.0134  -35.2804 H   0  0  0  0  0  0  0  0  0  0  0  0
   -4.8979   18.9863  -35.7773 H   0  0  0  0  0  0  0  0  0  0  0  0
   -6.4769   18.1448  -36.0310 H   0  0  0  0  0  0  0  0  0  0  0  0
   -5.3210   19.0285  -33.3373 H   0  0  0  0  0  0  0  0  0  0  0  0
   -6.6575   19.8300  -34.2316 H   0  0  0  0  0  0  0  0  0  0  0  0
   -5.3207   20.1766  -31.6715 H   0  0  0  0  0  0  0  0  0  0  0  0
   -2.3598   25.3705  -29.5973 H   0  0  0  0  0  0  0  0  0  0  0  0
   -2.6155   26.4427  -26.0869 H   0  0  0  0  0  0  0  0  0  0  0  0
   -2.2916   26.0831  -24.3233 H   0  0  0  0  0  0  0  0  0  0  0  0
   -1.1705   28.2607  -26.0814 H   0  0  0  0  0  0  0  0  0  0  0  0
   -1.8796   28.3185  -24.3974 H   0  0  0  0  0  0  0  0  0  0  0  0
    0.9158   27.8800  -25.2803 H   0  0  0  0  0  0  0  0  0  0  0  0
    0.2381   28.5370  -23.7319 H   0  0  0  0  0  0  0  0  0  0  0  0
    1.4723   26.4129  -23.3700 H   0  0  0  0  0  0  0  0  0  0  0  0
   -0.2733   26.2614  -22.9662 H   0  0  0  0  0  0  0  0  0  0  0  0
    1.2106   25.2478  -25.4299 H   0  0  0  0  0  0  0  0  0  0  0  0
    0.2145   24.3271  -24.1975 H   0  0  0  0  0  0  0  0  0  0  0  0
   -0.4252   22.4205  -27.0995 H   0  0  0  0  0  0  0  0  0  0  0  0
   -1.6994   20.6143  -28.2418 H   0  0  0  0  0  0  0  0  0  0  0  0
   -4.0730   21.0810  -30.9540 H   0  0  0  0  0  0  0  0  0  0  0  0
  1  2  2  0
  2  3  1  0
  3  4  1  0
  4  5  2  0
  5  6  1  0
  6  7  2  0
  7  8  1  0
  8  9  1  0
  9 10  2  0
  9 11  2  0
  9 12  1  0
 12 13  1  0
 13 14  1  0
 14 15  1  0
 15 16  1  0
 16 17  1  0
  8 18  2  0
  2 19  1  0
 19 20  2  0
 20 21  1  0
 21 22  1  0
 22 23  2  0
 22 24  2  0
 22 25  1  0
 25 26  1  0
 26 27  1  0
 27 28  1  0
 28 29  1  0
 29 30  1  0
 21 31  2  0
 31 32  1  0
 32 33  2  0
 33 34  1  0
 18  4  1  0
 33 19  1  0
 17 12  1  0
 30 25  1  0
  5 35  1  0
  6 36  1  0
  7 37  1  0
 13 38  1  0
 13 39  1  0
 14 40  1  0
 14 41  1  0
 16 42  1  0
 16 43  1  0
 17 44  1  0
 17 45  1  0
 18 46  1  0
 20 47  1  0
 26 48  1  0
 26 49  1  0
 27 50  1  0
 27 51  1  0
 28 52  1  0
 28 53  1  0
 29 54  1  0
 29 55  1  0
 30 56  1  0
 30 57  1  0
 31 58  1  0
 32 59  1  0
 34 60  1  0
M  CHG  1   3  -1
M  END
>  <UniqueID>  (42) 
41

>  <SMILES>  (42) 
O=C([N-]c1cccc(S(=O)(=O)N2CCOCC2)c1)c1cc(S(=O)(=O)N2CCCCC2)ccc1O

>  <Energy>  (42) 
76.17382995372695

>  <Genealogy>  (42) 
O=C([N-]c1cccc(S(=O)(=O)N2CCOCC2)c1)c1cc(S(=O)(=O)N2CCCCC2)ccc1O (protonated)
O=C([N-]c1cccc(S(=O)(=O)N2CCOCC2)c1)c1cc(S(=O)(=O)N2CCCCC2)ccc1O (3D coordinates assigned)
O=C([N-]c1cccc(S(=O)(=O)N2CCOCC2)c1)c1cc(S(=O)(=O)N2CCCCC2)ccc1O (nonaromatic ring conformer: 76.17382995372695 kcal/mol)

>  <smiles>  (42) 
O=C(Nc1cccc(S(=O)(=O)N2CCOCC2)c1)c1cc(S(=O)(=O)N2CCCCC2)ccc1O

>  <score_type>  (42) 
oracle

>  <origin>  (42) 
adgpu

>  <m_score__min__energy>  (42) 
-11.56

>  <m_primary>  (42) 
energy

$$$$
42:0
     RDKit          3D

 60 63  0  0  1  0  0  0  0  0999 V2000
    0.1900   27.0380  -23.7880 C   0  0  0  0  0  0  0  0  0  0  0  0
   -0.4480   26.8110  -25.0620 N   0  0  0  0  0  0  0  0  0  0  0  0
   -1.3070   25.6680  -25.0770 C   0  0  0  0  0  0  0  0  0  0  0  0
   -2.0420   25.6530  -26.4070 C   0  0  0  0  0  0  0  0  0  0  0  0
   -1.0710   25.7120  -27.5790 C   0  0  0  0  0  0  0  0  0  0  0  0
   -1.3940   24.7420  -28.5960 N   0  0  0  0  0  0  0  0  0  0  0  0
   -1.3200   23.3510  -28.3360 C   0  0  0  0  0  0  0  0  0  0  0  0
   -0.9600   22.9940  -27.1880 O   0  0  0  0  0  0  0  0  0  0  0  0
   -1.6290   22.3200  -29.3050 C   0  0  0  0  0  0  0  0  0  0  0  0
   -0.8720   22.2820  -30.4590 C   0  0  0  0  0  0  0  0  0  0  0  0
   -1.1480   21.2990  -31.4110 C   0  0  0  0  0  0  0  0  0  0  0  0
   -2.1540   20.3750  -31.2200 C   0  0  0  0  0  0  0  0  0  0  0  0
   -2.3580   19.4180  -32.2480 N   0  0  0  0  0  0  0  0  0  0  0  0
   -3.5040   19.3700  -32.8360 C   0  0  0  0  0  0  0  0  0  0  0  0
   -3.6140   18.4200  -33.8120 N   0  0  0  0  0  0  0  0  0  0  0  0
   -4.7660   18.2660  -34.5090 C   0  0  0  0  0  0  0  0  0  0  0  0
   -5.8130   19.1060  -34.1860 C   0  0  0  0  0  0  0  0  0  0  0  0
   -5.7140   20.0760  -33.1940 C   0  0  0  0  0  0  0  0  0  0  0  0
   -6.7210   20.8370  -32.9310 N   0  0  0  0  0  0  0  0  0  0  0  0
   -6.6310   21.8340  -31.9200 C   0  0  0  0  0  0  0  0  0  0  0  0
   -7.6810   21.9390  -31.0010 C   0  0  0  0  0  0  0  0  0  0  0  0
   -7.6230   22.8940  -30.0050 C   0  0  0  0  0  0  0  0  0  0  0  0
   -6.5210   23.7360  -29.9330 C   0  0  0  0  0  0  0  0  0  0  0  0
   -5.4960   23.6130  -30.8530 C   0  0  0  0  0  0  0  0  0  0  0  0
   -4.3720   24.5370  -30.7090 C   0  0  0  0  0  0  0  0  0  0  0  0
   -4.5880   25.9390  -30.4730 N   0  0  0  0  0  0  0  0  0  0  0  0
   -3.2070   24.0920  -30.7940 O   0  0  0  0  0  0  0  0  0  0  0  0
   -5.5320   22.6660  -31.8570 C   0  0  0  0  0  0  0  0  0  0  0  0
   -4.5350   20.1780  -32.5360 N   0  0  0  0  0  0  0  0  0  0  0  0
   -2.9010   20.4260  -30.0610 C   0  0  0  0  0  0  0  0  0  0  0  0
   -2.6500   21.3950  -29.0920 C   0  0  0  0  0  0  0  0  0  0  0  0
    0.3300   25.5750  -27.0400 C   0  0  0  0  0  0  0  0  0  0  0  0
    0.5360   26.7850  -26.1200 C   0  0  0  0  0  0  0  0  0  0  0  0
   -0.5106   26.7887  -22.9775 H   0  0  0  0  0  0  0  0  0  0  0  0
    1.0846   26.4030  -23.7076 H   0  0  0  0  0  0  0  0  0  0  0  0
    0.4825   28.0954  -23.7076 H   0  0  0  0  0  0  0  0  0  0  0  0
   -0.7099   24.7504  -24.9697 H   0  0  0  0  0  0  0  0  0  0  0  0
   -2.0236   25.7165  -24.2439 H   0  0  0  0  0  0  0  0  0  0  0  0
   -2.6337   24.7284  -26.4786 H   0  0  0  0  0  0  0  0  0  0  0  0
   -2.6938   26.5379  -26.4524 H   0  0  0  0  0  0  0  0  0  0  0  0
   -1.1532   26.6829  -28.0895 H   0  0  0  0  0  0  0  0  0  0  0  0
   -1.6850   25.0680  -29.5270 H   0  0  0  0  0  0  0  0  0  0  0  0
   -0.0666   23.0125  -30.6251 H   0  0  0  0  0  0  0  0  0  0  0  0
   -0.5502   21.2605  -32.3335 H   0  0  0  0  0  0  0  0  0  0  0  0
   -2.8210   17.7980  -34.0430 H   0  0  0  0  0  0  0  0  0  0  0  0
   -4.8626   17.5051  -35.2975 H   0  0  0  0  0  0  0  0  0  0  0  0
   -6.7614   19.0043  -34.7339 H   0  0  0  0  0  0  0  0  0  0  0  0
   -8.5474   21.2649  -31.0714 H   0  0  0  0  0  0  0  0  0  0  0  0
   -8.4415   22.9868  -29.2760 H   0  0  0  0  0  0  0  0  0  0  0  0
   -6.4635   24.5006  -29.1443 H   0  0  0  0  0  0  0  0  0  0  0  0
   -5.4230   26.4350  -30.8730 H   0  0  0  0  0  0  0  0  0  0  0  0
   -3.8740   26.4290  -29.8890 H   0  0  0  0  0  0  0  0  0  0  0  0
   -4.7108   22.5776  -32.5835 H   0  0  0  0  0  0  0  0  0  0  0  0
   -4.4290   20.8930  -31.7860 H   0  0  0  0  0  0  0  0  0  0  0  0
   -3.7047   19.6924  -29.9001 H   0  0  0  0  0  0  0  0  0  0  0  0
   -3.2498   21.4298  -28.1706 H   0  0  0  0  0  0  0  0  0  0  0  0
    0.4335   24.6385  -26.4723 H   0  0  0  0  0  0  0  0  0  0  0  0
    1.0765   25.5448  -27.8474 H   0  0  0  0  0  0  0  0  0  0  0  0
    1.5403   26.7301  -25.6746 H   0  0  0  0  0  0  0  0  0  0  0  0
    0.4269   27.7008  -26.7195 H   0  0  0  0  0  0  0  0  0  0  0  0
  1  2  1  0
  2  3  1  0
  3  4  1  0
  4  5  1  0
  5  6  1  0
  6  7  1  0
  7  8  2  0
  7  9  1  0
  9 10  2  0
 10 11  1  0
 11 12  2  0
 12 13  1  0
 13 14  2  0
 14 15  1  0
 15 16  1  0
 16 17  2  0
 17 18  1  0
 18 19  2  0
 19 20  1  0
 20 21  2  0
 21 22  1  0
 22 23  2  0
 23 24  1  0
 24 25  1  0
 25 26  1  0
 25 27  2  0
 24 28  2  0
 18 29  1  0
 12 30  1  0
 30 31  2  0
  5 32  1  0
 32 33  1  0
 33  2  1  0
 31  9  1  0
 29 14  1  0
 28 20  1  0
  1 34  1  0
  1 35  1  0
  1 36  1  0
  3 37  1  0
  3 38  1  0
  4 39  1  0
  4 40  1  0
  5 41  1  0
  6 42  1  0
 10 43  1  0
 11 44  1  0
 15 45  1  0
 16 46  1  0
 17 47  1  0
 21 48  1  0
 22 49  1  0
 23 50  1  0
 26 51  1  0
 26 52  1  0
 28 53  1  0
 29 54  1  0
 30 55  1  0
 31 56  1  0
 32 57  1  0
 32 58  1  0
 33 59  1  0
 33 60  1  0
M  END
>  <smiles>  (43) 
CN1CCC(NC(=O)c2ccc(N=c3[nH]ccc(=Nc4cccc(C(N)=O)c4)[nH]3)cc2)CC1

>  <score_type>  (43) 
oracle

>  <origin>  (43) 
adgpu

>  <m_score__min__energy>  (43) 
-9.5199999999999996

>  <m_primary>  (43) 
energy

$$$$
43:0
     RDKit          3D

 62 65  0  0  0  0  0  0  0  0999 V2000
   -1.5570   25.1360  -29.2610 O   0  0  0  0  0  0  0  0  0  0  0  0
   -1.8270   24.1650  -28.5010 C   0  0  0  0  0  0  0  0  0  0  0  0
   -2.9860   23.3650  -28.7500 N   0  0  0  0  0  0  0  0  0  0  0  0
   -3.1640   22.4930  -29.8760 C   0  0  0  0  0  0  0  0  0  0  0  0
   -2.4930   21.2620  -29.9410 C   0  0  0  0  0  0  0  0  0  0  0  0
   -2.7010   20.3990  -31.0170 C   0  0  0  0  0  0  0  0  0  0  0  0
   -3.5780   20.7560  -32.0520 C   0  0  0  0  0  0  0  0  0  0  0  0
   -3.7870   19.8450  -33.1970 C   0  0  0  0  0  0  0  0  0  0  0  0
   -2.9300   19.8110  -34.1240 O   0  0  0  0  0  0  0  0  0  0  0  0
   -4.9430   18.9890  -33.2590 N   0  0  0  0  0  0  0  0  0  0  0  0
   -6.2780   19.5710  -33.0840 C   0  0  0  0  0  0  0  0  0  0  0  0
   -7.2630   18.4830  -32.6470 C   0  0  0  0  0  0  0  0  0  0  0  0
   -7.2230   17.3860  -33.5410 O   0  0  0  0  0  0  0  0  0  0  0  0
   -5.9560   16.7570  -33.4640 C   0  0  0  0  0  0  0  0  0  0  0  0
   -4.8450   17.6990  -33.9470 C   0  0  0  0  0  0  0  0  0  0  0  0
   -4.2470   21.9880  -31.9920 C   0  0  0  0  0  0  0  0  0  0  0  0
   -4.0670   22.8470  -30.8970 C   0  0  0  0  0  0  0  0  0  0  0  0
   -4.9540   24.3720  -30.8200 S   0  0  0  0  0  0  0  0  0  0  0  0
   -5.7610   24.4490  -29.5550 O   0  0  0  0  0  0  0  0  0  0  0  0
   -5.8780   24.4720  -32.0000 O   0  0  0  0  0  0  0  0  0  0  0  0
   -3.8660   25.6530  -30.8440 O   0  0  0  0  0  0  0  0  0  0  0  0
   -1.0000   23.8940  -27.3530 N   0  0  0  0  0  0  0  0  0  0  0  0
    0.2390   24.6580  -27.1500 C   0  0  0  0  0  0  0  0  0  0  0  0
    0.1300   25.5030  -25.9080 C   0  0  0  0  0  0  0  0  0  0  0  0
    1.2590   25.7040  -25.0970 C   0  0  0  0  0  0  0  0  0  0  0  0
    1.1560   26.4460  -23.9180 C   0  0  0  0  0  0  0  0  0  0  0  0
   -0.0750   26.9850  -23.5350 C   0  0  0  0  0  0  0  0  0  0  0  0
   -1.2050   26.7840  -24.3320 C   0  0  0  0  0  0  0  0  0  0  0  0
   -1.1060   26.0450  -25.5160 C   0  0  0  0  0  0  0  0  0  0  0  0
   -1.3830   22.8420  -26.4040 C   0  0  0  0  0  0  0  0  0  0  0  0
   -0.9550   21.5000  -26.9320 C   0  0  0  0  0  0  0  0  0  0  0  0
    0.0990   21.3990  -27.8580 C   0  0  0  0  0  0  0  0  0  0  0  0
    0.5340   20.1440  -28.2980 C   0  0  0  0  0  0  0  0  0  0  0  0
   -0.0780   18.9810  -27.8190 C   0  0  0  0  0  0  0  0  0  0  0  0
    0.3640   17.7370  -28.2580 O   0  0  0  0  0  0  0  0  0  0  0  0
   -1.1310   19.0710  -26.8990 C   0  0  0  0  0  0  0  0  0  0  0  0
   -1.7370   17.9090  -26.4260 O   0  0  0  0  0  0  0  0  0  0  0  0
   -1.5660   20.3300  -26.4570 C   0  0  0  0  0  0  0  0  0  0  0  0
   -1.7982   20.9757  -29.1377 H   0  0  0  0  0  0  0  0  0  0  0  0
   -2.1747   19.4338  -31.0541 H   0  0  0  0  0  0  0  0  0  0  0  0
   -6.2363   20.3565  -32.3151 H   0  0  0  0  0  0  0  0  0  0  0  0
   -6.6140   20.0044  -34.0376 H   0  0  0  0  0  0  0  0  0  0  0  0
   -6.9949   18.1369  -31.6379 H   0  0  0  0  0  0  0  0  0  0  0  0
   -8.2793   18.9039  -32.6476 H   0  0  0  0  0  0  0  0  0  0  0  0
   -5.7582   16.4728  -32.4199 H   0  0  0  0  0  0  0  0  0  0  0  0
   -5.9665   15.8667  -34.1100 H   0  0  0  0  0  0  0  0  0  0  0  0
   -3.8657   17.2462  -33.7329 H   0  0  0  0  0  0  0  0  0  0  0  0
   -4.9550   17.8595  -35.0296 H   0  0  0  0  0  0  0  0  0  0  0  0
   -4.9190   22.2833  -32.8112 H   0  0  0  0  0  0  0  0  0  0  0  0
    1.0827   23.9605  -27.0423 H   0  0  0  0  0  0  0  0  0  0  0  0
    0.4031   25.3139  -28.0177 H   0  0  0  0  0  0  0  0  0  0  0  0
    2.2283   25.2753  -25.3915 H   0  0  0  0  0  0  0  0  0  0  0  0
    2.0450   26.6062  -23.2903 H   0  0  0  0  0  0  0  0  0  0  0  0
   -0.1545   27.5679  -22.6055 H   0  0  0  0  0  0  0  0  0  0  0  0
   -2.1737   27.2073  -24.0282 H   0  0  0  0  0  0  0  0  0  0  0  0
   -1.9973   25.8879  -26.1412 H   0  0  0  0  0  0  0  0  0  0  0  0
   -0.8935   23.0269  -25.4365 H   0  0  0  0  0  0  0  0  0  0  0  0
   -2.4752   22.8499  -26.2739 H   0  0  0  0  0  0  0  0  0  0  0  0
    0.5834   22.3106  -28.2379 H   0  0  0  0  0  0  0  0  0  0  0  0
    1.3589   20.0718  -29.0221 H   0  0  0  0  0  0  0  0  0  0  0  0
   -1.2200   17.0400  -26.3470 H   0  0  0  0  0  0  0  0  0  0  0  0
   -2.3915   20.3998  -25.7333 H   0  0  0  0  0  0  0  0  0  0  0  0
  1  2  2  0
  2  3  1  0
  3  4  1  0
  4  5  2  0
  5  6  1  0
  6  7  2  0
  7  8  1  0
  8  9  2  0
  8 10  1  0
 10 11  1  0
 11 12  1  0
 12 13  1  0
 13 14  1  0
 14 15  1  0
  7 16  1  0
 16 17  2  0
 17 18  1  0
 18 19  2  0
 18 20  2  0
 18 21  1  0
  2 22  1  0
 22 23  1  0
 23 24  1  0
 24 25  2  0
 25 26  1  0
 26 27  2  0
 27 28  1  0
 28 29  2  0
 22 30  1  0
 30 31  1  0
 31 32  2  0
 32 33  1  0
 33 34  2  0
 34 35  1  0
 34 36  1  0
 36 37  1  0
 36 38  2  0
 17  4  1  0
 29 24  1  0
 38 31  1  0
 15 10  1  0
  5 39  1  0
  6 40  1  0
 11 41  1  0
 11 42  1  0
 12 43  1  0
 12 44  1  0
 14 45  1  0
 14 46  1  0
 15 47  1  0
 15 48  1  0
 16 49  1  0
 23 50  1  0
 23 51  1  0
 25 52  1  0
 26 53  1  0
 27 54  1  0
 28 55  1  0
 29 56  1  0
 30 57  1  0
 30 58  1  0
 32 59  1  0
 33 60  1  0
 37 61  1  0
 38 62  1  0
M  CHG  3   3  -1  21  -1  35  -1
M  END
>  <UniqueID>  (44) 
42

>  <SMILES>  (44) 
O=C([N-]c1ccc(C(=O)N2CCOCC2)cc1S(=O)(=O)[O-])N(Cc1ccccc1)Cc1ccc([O-])c(O)c1

>  <Energy>  (44) 
72.58256154510387

>  <Genealogy>  (44) 
O=C([N-]c1ccc(C(=O)N2CCOCC2)cc1S(=O)(=O)[O-])N(Cc1ccccc1)Cc1ccc([O-])c(O)c1 (protonated)
O=C([N-]c1ccc(C(=O)N2CCOCC2)cc1S(=O)(=O)[O-])N(Cc1ccccc1)Cc1ccc([O-])c(O)c1 (3D coordinates assigned)
O=C([N-]c1ccc(C(=O)N2CCOCC2)cc1S(=O)(=O)[O-])N(Cc1ccccc1)Cc1ccc([O-])c(O)c1 (nonaromatic ring conformer: 72.58256154510387 kcal/mol)

>  <smiles>  (44) 
O=C(Nc1ccc(C(=O)N2CCOCC2)cc1S(=O)(=O)O)N(Cc1ccccc1)Cc1ccc(O)c(O)c1

>  <score_type>  (44) 
oracle

>  <origin>  (44) 
adgpu

>  <m_score__min__energy>  (44) 
-13.300000000000001

>  <m_primary>  (44) 
energy

$$$$
44:0
     RDKit          3D

 38 40  0  0  0  0  0  0  0  0999 V2000
   -0.8648   20.2055  -27.7531 H   0  0  0  0  0  0  0  0  0  0  0  0
   -1.4380   21.1160  -27.9820 C   0  0  0  0  0  0  0  0  0  0  0  0
   -0.8980   22.4150  -28.9000 S   0  0  0  0  0  0  0  0  0  0  0  0
   -2.3100   23.3280  -28.7870 C   0  0  0  0  0  0  0  0  0  0  0  0
   -2.5220   24.6760  -29.3500 C   0  0  0  0  0  0  0  0  0  0  0  0
   -1.7910   25.6250  -28.9650 O   0  0  0  0  0  0  0  0  0  0  0  0
   -3.4930   24.9230  -30.3740 N   0  0  0  0  0  0  0  0  0  0  0  0
   -4.4970   24.0020  -30.8200 C   0  0  0  0  0  0  0  0  0  0  0  0
   -5.8340   24.2360  -30.4790 C   0  0  0  0  0  0  0  0  0  0  0  0
   -6.0997   25.1252  -29.8885 H   0  0  0  0  0  0  0  0  0  0  0  0
   -6.8340   23.3470  -30.8840 C   0  0  0  0  0  0  0  0  0  0  0  0
   -7.8842   23.5491  -30.6266 H   0  0  0  0  0  0  0  0  0  0  0  0
   -6.5030   22.1990  -31.6170 C   0  0  0  0  0  0  0  0  0  0  0  0
   -7.7610   21.0880  -32.1480 S   0  0  0  0  0  0  0  0  0  0  0  0
   -7.9600   20.0460  -31.0840 O   0  0  0  0  0  0  0  0  0  0  0  0
   -9.0360   21.8580  -32.3550 O   0  0  0  0  0  0  0  0  0  0  0  0
   -7.2420   20.3620  -33.6360 N   0  0  0  0  0  0  0  0  0  0  0  0
   -6.4590   19.3390  -33.8290 C   0  0  0  0  0  0  0  0  0  0  0  0
   -6.1750   18.9120  -35.0360 O   0  0  0  0  0  0  0  0  0  0  0  0
   -5.3720   17.8890  -35.0030 N   0  0  0  0  0  0  0  0  0  0  0  0
   -5.1150   17.6300  -33.7080 C   0  0  0  0  0  0  0  0  0  0  0  0
   -4.2120   16.5280  -33.2540 C   0  0  0  0  0  0  0  0  0  0  0  0
   -4.1901   16.5013  -32.1545 H   0  0  0  0  0  0  0  0  0  0  0  0
   -4.5855   15.5667  -33.6367 H   0  0  0  0  0  0  0  0  0  0  0  0
   -3.1961   16.7053  -33.6367 H   0  0  0  0  0  0  0  0  0  0  0  0
   -5.7960   18.5310  -32.9020 C   0  0  0  0  0  0  0  0  0  0  0  0
   -5.7220   18.6010  -31.4040 C   0  0  0  0  0  0  0  0  0  0  0  0
   -6.4556   17.9070  -30.9678 H   0  0  0  0  0  0  0  0  0  0  0  0
   -4.7109   18.3211  -31.0734 H   0  0  0  0  0  0  0  0  0  0  0  0
   -5.9453   19.6261  -31.0734 H   0  0  0  0  0  0  0  0  0  0  0  0
   -5.1630   21.9530  -31.9470 C   0  0  0  0  0  0  0  0  0  0  0  0
   -4.8972   21.0574  -32.5278 H   0  0  0  0  0  0  0  0  0  0  0  0
   -4.1640   22.8410  -31.5410 C   0  0  0  0  0  0  0  0  0  0  0  0
   -3.1124   22.6314  -31.7862 H   0  0  0  0  0  0  0  0  0  0  0  0
   -3.2190   22.6270  -28.0030 C   0  0  0  0  0  0  0  0  0  0  0  0
   -4.2209   23.0065  -27.7537 H   0  0  0  0  0  0  0  0  0  0  0  0
   -2.7330   21.3900  -27.5620 C   0  0  0  0  0  0  0  0  0  0  0  0
   -3.3222   20.6995  -26.9407 H   0  0  0  0  0  0  0  0  0  0  0  0
  1  2  1  0
  2  3  1  0
  3  4  1  0
  4  5  1  0
  5  6  2  0
  5  7  1  0
  7  8  1  0
  8  9  2  0
  9 10  1  0
  9 11  1  0
 11 12  1  0
 11 13  2  0
 13 14  1  0
 14 15  2  0
 14 16  2  0
 14 17  1  0
 17 18  2  0
 18 19  1  0
 19 20  1  0
 20 21  1  0
 21 22  1  0
 22 23  1  0
 22 24  1  0
 22 25  1  0
 21 26  2  0
 26 27  1  0
 27 28  1  0
 27 29  1  0
 27 30  1  0
 13 31  1  0
 31 32  1  0
 31 33  2  0
 33 34  1  0
  4 35  2  0
 35 36  1  0
 35 37  1  0
 37 38  1  0
 37  2  2  0
 33  8  1  0
 26 18  1  0
M  CHG  2   7  -1  20  -1
M  END
>  <UniqueID>  (45) 
43

>  <SMILES>  (45) 
Cc1[n-]o/c(=N/S(=O)(=O)c2ccc([N-]C(=O)c3cccs3)cc2)c1C

>  <Energy>  (45) 
111.75188121552331

>  <Genealogy>  (45) 
Cc1[n-]oc(=NS(=O)(=O)c2ccc([N-]C(=O)c3cccs3)cc2)c1C (protonated)
Cc1[n-]o/c(=N/S(=O)(=O)c2ccc([N-]C(=O)c3cccs3)cc2)c1C (cis-trans isomerization)
Cc1[n-]o/c(=N/S(=O)(=O)c2ccc([N-]C(=O)c3cccs3)cc2)c1C (3D coordinates assigned)
Cc1[n-]o/c(=N/S(=O)(=O)c2ccc([N-]C(=O)c3cccs3)cc2)c1C (optimized conformer: 111.75188121552331 kcal/mol)

>  <smiles>  (45) 
Cc1[nH]oc(=NS(=O)(=O)c2ccc(NC(=O)c3cccs3)cc2)c1C

>  <score_type>  (45) 
oracle

>  <origin>  (45) 
adgpu

>  <m_score__min__energy>  (45) 
-10.210000000000001

>  <m_primary>  (45) 
energy

$$$$
45:0
     RDKit          3D

 46 49  0  0  0  0  0  0  0  0999 V2000
   -9.4440   21.9120  -30.8440 C   0  0  0  0  0  0  0  0  0  0  0  0
   -8.0200   21.9670  -31.3340 C   0  0  0  0  0  0  0  0  0  0  0  0
   -7.2450   23.1020  -31.0480 C   0  0  0  0  0  0  0  0  0  0  0  0
   -5.9080   23.1670  -31.4690 C   0  0  0  0  0  0  0  0  0  0  0  0
   -5.0700   24.3450  -31.1540 C   0  0  0  0  0  0  0  0  0  0  0  0
   -5.5720   25.5000  -31.2030 O   0  0  0  0  0  0  0  0  0  0  0  0
   -3.6750   24.2170  -30.8420 N   0  0  0  0  0  0  0  0  0  0  0  0
   -3.1310   23.7990  -29.5830 C   0  0  0  0  0  0  0  0  0  0  0  0
   -3.4660   24.5370  -28.4400 C   0  0  0  0  0  0  0  0  0  0  0  0
   -2.9220   24.2080  -27.1980 C   0  0  0  0  0  0  0  0  0  0  0  0
   -2.0480   23.1270  -27.0820 C   0  0  0  0  0  0  0  0  0  0  0  0
   -1.7310   22.3600  -28.2050 C   0  0  0  0  0  0  0  0  0  0  0  0
   -2.2770   22.6730  -29.4620 C   0  0  0  0  0  0  0  0  0  0  0  0
   -2.0000   21.8150  -30.5850 N   0  0  0  0  0  0  0  0  0  0  0  0
   -0.6360   21.7730  -31.1370 C   0  0  0  0  0  0  0  0  0  0  0  0
   -0.6050   21.2120  -32.5770 C   0  0  0  0  0  0  0  0  0  0  0  0
   -1.8880   20.8840  -33.0760 O   0  0  0  0  0  0  0  0  0  0  0  0
   -2.5300   20.0050  -32.1780 C   0  0  0  0  0  0  0  0  0  0  0  0
   -2.9790   20.7790  -30.9400 C   0  0  0  0  0  0  0  0  0  0  0  0
   -5.3800   22.1350  -32.1770 N   0  0  0  0  0  0  0  0  0  0  0  0
   -6.0910   21.0190  -32.4780 C   0  0  0  0  0  0  0  0  0  0  0  0
   -5.4790   19.9830  -33.1930 C   0  0  0  0  0  0  0  0  0  0  0  0
   -6.1940   18.8250  -33.4980 C   0  0  0  0  0  0  0  0  0  0  0  0
   -7.5230   18.6940  -33.0920 C   0  0  0  0  0  0  0  0  0  0  0  0
   -8.1470   19.7210  -32.3760 C   0  0  0  0  0  0  0  0  0  0  0  0
   -7.4380   20.9000  -32.0590 C   0  0  0  0  0  0  0  0  0  0  0  0
   -9.4535   21.9116  -29.7440 H   0  0  0  0  0  0  0  0  0  0  0  0
   -9.9936   22.7896  -31.2151 H   0  0  0  0  0  0  0  0  0  0  0  0
   -9.9243   20.9946  -31.2151 H   0  0  0  0  0  0  0  0  0  0  0  0
   -7.6868   23.9424  -30.4926 H   0  0  0  0  0  0  0  0  0  0  0  0
   -4.1640   25.3832  -28.5226 H   0  0  0  0  0  0  0  0  0  0  0  0
   -3.1826   24.8017  -26.3094 H   0  0  0  0  0  0  0  0  0  0  0  0
   -1.6081   22.8785  -26.1049 H   0  0  0  0  0  0  0  0  0  0  0  0
   -1.0481   21.5034  -28.1052 H   0  0  0  0  0  0  0  0  0  0  0  0
   -0.2260   22.7937  -31.1457 H   0  0  0  0  0  0  0  0  0  0  0  0
   -0.0354   21.1053  -30.5018 H   0  0  0  0  0  0  0  0  0  0  0  0
   -0.1562   21.9687  -33.2373 H   0  0  0  0  0  0  0  0  0  0  0  0
   -0.0167   20.2829  -32.5529 H   0  0  0  0  0  0  0  0  0  0  0  0
   -3.4069   19.5566  -32.6679 H   0  0  0  0  0  0  0  0  0  0  0  0
   -1.8301   19.2106  -31.8795 H   0  0  0  0  0  0  0  0  0  0  0  0
   -3.9489   21.2555  -31.1455 H   0  0  0  0  0  0  0  0  0  0  0  0
   -3.0666   20.0757  -30.0988 H   0  0  0  0  0  0  0  0  0  0  0  0
   -4.4319   20.0823  -33.5150 H   0  0  0  0  0  0  0  0  0  0  0  0
   -5.7094   18.0130  -34.0599 H   0  0  0  0  0  0  0  0  0  0  0  0
   -8.0823   17.7788  -33.3362 H   0  0  0  0  0  0  0  0  0  0  0  0
   -9.1943   19.6095  -32.0587 H   0  0  0  0  0  0  0  0  0  0  0  0
  1  2  1  0
  2  3  2  0
  3  4  1  0
  4  5  1  0
  5  6  2  0
  5  7  1  0
  7  8  1  0
  8  9  2  0
  9 10  1  0
 10 11  2  0
 11 12  1  0
 12 13  2  0
 13 14  1  0
 14 15  1  0
 15 16  1  0
 16 17  1  0
 17 18  1  0
 18 19  1  0
  4 20  2  0
 20 21  1  0
 21 22  2  0
 22 23  1  0
 23 24  2  0
 24 25  1  0
 25 26  2  0
 26  2  1  0
 13  8  1  0
 19 14  1  0
 26 21  1  0
  1 27  1  0
  1 28  1  0
  1 29  1  0
  3 30  1  0
  9 31  1  0
 10 32  1  0
 11 33  1  0
 12 34  1  0
 15 35  1  0
 15 36  1  0
 16 37  1  0
 16 38  1  0
 18 39  1  0
 18 40  1  0
 19 41  1  0
 19 42  1  0
 22 43  1  0
 23 44  1  0
 24 45  1  0
 25 46  1  0
M  CHG  1   7  -1
M  END
>  <UniqueID>  (46) 
44

>  <SMILES>  (46) 
Cc1cc(C(=O)[N-]c2ccccc2N2CCOCC2)nc2ccccc12

>  <Energy>  (46) 
68.2422486091238

>  <Genealogy>  (46) 
Cc1cc(C(=O)[N-]c2ccccc2N2CCOCC2)nc2ccccc12 (protonated)
Cc1cc(C(=O)[N-]c2ccccc2N2CCOCC2)nc2ccccc12 (3D coordinates assigned)
Cc1cc(C(=O)[N-]c2ccccc2N2CCOCC2)nc2ccccc12 (nonaromatic ring conformer: 68.2422486091238 kcal/mol)

>  <smiles>  (46) 
Cc1cc(C(=O)Nc2ccccc2N2CCOCC2)nc2ccccc12

>  <score_type>  (46) 
oracle

>  <origin>  (46) 
adgpu

>  <m_score__min__energy>  (46) 
-10.23

>  <m_primary>  (46) 
energy

$$$$
46:0
     RDKit          3D

 35 37  0  0  0  0  0  0  0  0999 V2000
   -2.1800   25.2720  -29.3450 N   0  0  0  0  0  0  0  0  0  0  0  0
   -1.1500   24.2990  -29.1700 C   0  0  0  0  0  0  0  0  0  0  0  0
   -0.1810   24.5710  -28.4110 O   0  0  0  0  0  0  0  0  0  0  0  0
   -1.2250   22.9880  -29.8720 C   0  0  0  0  0  0  0  0  0  0  0  0
   -0.2680   21.9950  -29.5940 C   0  0  0  0  0  0  0  0  0  0  0  0
   -0.3150   20.7920  -30.2190 N   0  0  0  0  0  0  0  0  0  0  0  0
   -1.2720   20.4910  -31.1330 C   0  0  0  0  0  0  0  0  0  0  0  0
   -1.2740   19.2360  -31.7470 C   0  0  0  0  0  0  0  0  0  0  0  0
   -2.2600   18.9100  -32.6870 C   0  0  0  0  0  0  0  0  0  0  0  0
   -2.2600   17.6550  -33.2960 O   0  0  0  0  0  0  0  0  0  0  0  0
   -3.2530   19.8430  -33.0210 C   0  0  0  0  0  0  0  0  0  0  0  0
   -4.2540   19.4700  -33.9780 N   0  0  0  0  0  0  0  0  0  0  0  0
   -5.5060   18.2990  -33.7140 S   0  0  0  0  0  0  0  0  0  0  0  0
   -4.9730   17.1930  -32.8480 O   0  0  0  0  0  0  0  0  0  0  0  0
   -5.9290   17.7250  -35.0370 O   0  0  0  0  0  0  0  0  0  0  0  0
   -6.8700   19.0550  -32.8940 C   0  0  0  0  0  0  0  0  0  0  0  0
   -7.8900   18.2580  -32.3560 C   0  0  0  0  0  0  0  0  0  0  0  0
   -8.9630   18.8510  -31.6850 C   0  0  0  0  0  0  0  0  0  0  0  0
   -9.0240   20.2400  -31.5480 C   0  0  0  0  0  0  0  0  0  0  0  0
   -8.0100   21.0400  -32.0860 C   0  0  0  0  0  0  0  0  0  0  0  0
   -8.0910   22.9390  -31.8960 Br  0  0  0  0  0  0  0  0  0  0  0  0
   -6.9350   20.4490  -32.7600 C   0  0  0  0  0  0  0  0  0  0  0  0
   -3.2450   21.1100  -32.4090 C   0  0  0  0  0  0  0  0  0  0  0  0
   -2.2610   21.4420  -31.4590 C   0  0  0  0  0  0  0  0  0  0  0  0
   -2.2340   22.7000  -30.8220 C   0  0  0  0  0  0  0  0  0  0  0  0
   -3.1120   23.5620  -31.1010 O   0  0  0  0  0  0  0  0  0  0  0  0
   -2.7540   25.2960  -30.2160 H   0  0  0  0  0  0  0  0  0  0  0  0
    0.5275   22.1964  -28.8614 H   0  0  0  0  0  0  0  0  0  0  0  0
   -0.4974   18.5003  -31.4910 H   0  0  0  0  0  0  0  0  0  0  0  0
   -3.0520   17.3260  -33.8350 H   0  0  0  0  0  0  0  0  0  0  0  0
   -7.8458   17.1640  -32.4621 H   0  0  0  0  0  0  0  0  0  0  0  0
   -9.7615   18.2225  -31.2637 H   0  0  0  0  0  0  0  0  0  0  0  0
   -9.8685   20.7043  -31.0176 H   0  0  0  0  0  0  0  0  0  0  0  0
   -6.1400   21.0793  -33.1852 H   0  0  0  0  0  0  0  0  0  0  0  0
   -4.0155   21.8484  -32.6757 H   0  0  0  0  0  0  0  0  0  0  0  0
  1  2  1  0
  2  3  2  0
  2  4  1  0
  4  5  2  0
  5  6  1  0
  6  7  1  0
  7  8  2  0
  8  9  1  0
  9 10  1  0
  9 11  2  0
 11 12  1  0
 12 13  1  0
 13 14  2  0
 13 15  2  0
 13 16  1  0
 16 17  2  0
 17 18  1  0
 18 19  2  0
 19 20  1  0
 20 21  1  0
 20 22  2  0
 11 23  1  0
 23 24  2  0
 24 25  1  0
 25 26  2  0
 25  4  1  0
 24  7  1  0
 22 16  1  0
  1 27  1  0
  5 28  1  0
  8 29  1  0
 10 30  1  0
 17 31  1  0
 18 32  1  0
 19 33  1  0
 22 34  1  0
 23 35  1  0
M  CHG  3   1  -1   6  -1  12  -1
M  END
>  <UniqueID>  (47) 
45

>  <SMILES>  (47) 
[NH-]C(=O)c1c[n-]c2cc(O)c([N-]S(=O)(=O)c3cccc(Br)c3)cc2c1=O

>  <Energy>  (47) 
47.388903035079586

>  <Genealogy>  (47) 
[NH-]C(=O)c1c[n-]c2cc(O)c([N-]S(=O)(=O)c3cccc(Br)c3)cc2c1=O (protonated)
[NH-]C(=O)c1c[n-]c2cc(O)c([N-]S(=O)(=O)c3cccc(Br)c3)cc2c1=O (3D coordinates assigned)
[NH-]C(=O)c1c[n-]c2cc(O)c([N-]S(=O)(=O)c3cccc(Br)c3)cc2c1=O (optimized conformer: 47.388903035079586 kcal/mol)

>  <smiles>  (47) 
NC(=O)c1c[nH]c2cc(O)c(NS(=O)(=O)c3cccc(Br)c3)cc2c1=O

>  <score_type>  (47) 
oracle

>  <origin>  (47) 
adgpu

>  <m_score__min__energy>  (47) 
-11.15

>  <m_primary>  (47) 
energy

$$$$
47:0
     RDKit          3D

 38 39  0  0  0  0  0  0  0  0999 V2000
   -3.8000   23.2290  -27.8550 C   0  0  0  0  0  0  0  0  0  0  0  0
   -2.7370   22.7960  -28.5390 C   0  0  0  0  0  0  0  0  0  0  0  0
   -2.5450   23.1210  -29.9950 C   0  0  0  0  0  0  0  0  0  0  0  0
   -3.8780   23.2420  -30.7000 C   0  0  0  0  0  0  0  0  0  0  0  0
   -4.4800   24.5040  -30.8490 C   0  0  0  0  0  0  0  0  0  0  0  0
   -3.8690   25.6470  -30.3410 O   0  0  0  0  0  0  0  0  0  0  0  0
   -5.7030   24.6260  -31.5070 C   0  0  0  0  0  0  0  0  0  0  0  0
   -6.3320   23.5010  -32.0390 C   0  0  0  0  0  0  0  0  0  0  0  0
   -5.7370   22.2290  -31.9400 C   0  0  0  0  0  0  0  0  0  0  0  0
   -6.4410   20.9920  -32.4950 C   0  0  2  0  0  0  0  0  0  0  0  0
   -6.7310   19.9020  -31.4250 C   0  0  0  0  0  0  0  0  0  0  0  0
   -5.8280   18.6670  -31.5800 C   0  0  0  0  0  0  0  0  0  0  0  0
   -5.8990   18.0580  -32.9340 N   0  0  0  0  0  0  0  0  0  0  0  0
   -6.8210   16.9120  -32.9610 C   0  0  0  0  0  0  0  0  0  0  0  0
   -6.2180   19.0080  -34.0280 C   0  0  0  0  0  0  0  0  0  0  0  0
   -5.7060   20.4280  -33.7360 C   0  0  2  0  0  0  0  0  0  0  0  0
   -4.3140   20.4040  -33.5320 O   0  0  0  0  0  0  0  0  0  0  0  0
   -4.5110   22.1050  -31.2470 C   0  0  0  0  0  0  0  0  0  0  0  0
   -3.9240   20.8510  -31.0960 O   0  0  0  0  0  0  0  0  0  0  0  0
   -3.9106   22.9736  -26.7908 H   0  0  0  0  0  0  0  0  0  0  0  0
   -4.5645   23.8409  -28.3561 H   0  0  0  0  0  0  0  0  0  0  0  0
   -1.9816   22.1851  -28.0232 H   0  0  0  0  0  0  0  0  0  0  0  0
   -2.0029   24.0741  -30.0831 H   0  0  0  0  0  0  0  0  0  0  0  0
   -1.9710   22.3085  -30.4644 H   0  0  0  0  0  0  0  0  0  0  0  0
   -6.1742   25.6149  -31.6070 H   0  0  0  0  0  0  0  0  0  0  0  0
   -7.3044   23.6087  -32.5419 H   0  0  0  0  0  0  0  0  0  0  0  0
   -7.4336   21.3307  -32.8266 H   0  0  0  0  0  0  0  0  0  0  0  0
   -6.5673   20.3352  -30.4272 H   0  0  0  0  0  0  0  0  0  0  0  0
   -7.7721   19.5727  -31.5582 H   0  0  0  0  0  0  0  0  0  0  0  0
   -4.7878   18.9674  -31.3855 H   0  0  0  0  0  0  0  0  0  0  0  0
   -6.1801   17.9116  -30.8621 H   0  0  0  0  0  0  0  0  0  0  0  0
   -7.0627   16.6115  -31.9308 H   0  0  0  0  0  0  0  0  0  0  0  0
   -7.7446   17.1968  -33.4862 H   0  0  0  0  0  0  0  0  0  0  0  0
   -6.3451   16.0708  -33.4862 H   0  0  0  0  0  0  0  0  0  0  0  0
   -5.7512   18.6477  -34.9566 H   0  0  0  0  0  0  0  0  0  0  0  0
   -7.3129   19.0578  -34.1216 H   0  0  0  0  0  0  0  0  0  0  0  0
   -5.9124   21.0829  -34.5953 H   0  0  0  0  0  0  0  0  0  0  0  0
   -4.1690   20.1840  -32.5750 H   0  0  0  0  0  0  0  0  0  0  0  0
  1  2  2  0
  2  3  1  0
  3  4  1  0
  4  5  2  0
  5  6  1  0
  5  7  1  0
  7  8  2  0
  8  9  1  0
  9 10  1  0
 10 11  1  0
 11 12  1  0
 12 13  1  0
 13 14  1  0
 13 15  1  0
 15 16  1  0
 16 17  1  0
  9 18  2  0
 18 19  1  0
 18  4  1  0
 16 10  1  0
  1 20  1  0
  1 21  1  0
  2 22  1  0
  3 23  1  0
  3 24  1  0
  7 25  1  0
  8 26  1  0
 10 27  1  6
 11 28  1  0
 11 29  1  0
 12 30  1  0
 12 31  1  0
 14 32  1  0
 14 33  1  0
 14 34  1  0
 15 35  1  0
 15 36  1  0
 16 37  1  6
 17 38  1  0
M  CHG  2   6  -1  19  -1
M  END
>  <UniqueID>  (48) 
46

>  <SMILES>  (48) 
C=CCc1c([O-])ccc([C@@H]2CCN(C)C[C@@H]2O)c1[O-]

>  <Energy>  (48) 
48.10818262509501

>  <Genealogy>  (48) 
C=CCc1c([O-])ccc(C2CCN(C)CC2O)c1[O-] (protonated)
C=CCc1c([O-])ccc([C@@H]2CCN(C)C[C@@H]2O)c1[O-] (chirality)
C=CCc1c([O-])ccc([C@@H]2CCN(C)C[C@@H]2O)c1[O-] (3D coordinates assigned)
C=CCc1c([O-])ccc([C@@H]2CCN(C)C[C@@H]2O)c1[O-] (nonaromatic ring conformer: 48.10818262509501 kcal/mol)

>  <smiles>  (48) 
C=CCc1c(O)ccc(C2CCN(C)CC2O)c1O

>  <score_type>  (48) 
oracle

>  <origin>  (48) 
adgpu

>  <m_score__min__energy>  (48) 
-8.9299999999999997

>  <m_primary>  (48) 
energy

$$$$
48:0
     RDKit          3D

 32 34  0  0  0  0  0  0  0  0999 V2000
   -6.4380   24.6850  -29.9260 O   0  0  0  0  0  0  0  0  0  0  0  0
   -5.3160   24.1410  -30.7640 S   0  0  0  0  0  0  0  0  0  0  0  0
   -4.4460   25.2800  -31.2170 O   0  0  0  0  0  0  0  0  0  0  0  0
   -5.9750   23.3410  -32.1560 N   0  0  0  0  0  0  0  0  0  0  0  0
   -7.0610   22.3960  -32.0910 C   0  0  0  0  0  0  0  0  0  0  0  0
   -8.3490   22.7960  -31.6870 C   0  0  0  0  0  0  0  0  0  0  0  0
   -9.3980   21.8750  -31.6300 C   0  0  0  0  0  0  0  0  0  0  0  0
   -9.1830   20.5390  -31.9690 C   0  0  0  0  0  0  0  0  0  0  0  0
   -7.9100   20.1150  -32.3660 C   0  0  0  0  0  0  0  0  0  0  0  0
   -7.6710   18.7780  -32.7100 C   0  0  0  0  0  0  0  0  0  0  0  0
   -6.3940   18.3790  -33.1080 C   0  0  0  0  0  0  0  0  0  0  0  0
   -5.3660   19.3230  -33.1580 C   0  0  0  0  0  0  0  0  0  0  0  0
   -5.6100   20.6170  -32.8220 N   0  0  0  0  0  0  0  0  0  0  0  0
   -6.8420   21.0430  -32.4260 C   0  0  0  0  0  0  0  0  0  0  0  0
   -4.3930   22.9960  -29.7950 C   0  0  0  0  0  0  0  0  0  0  0  0
   -4.2360   23.2140  -28.4190 C   0  0  0  0  0  0  0  0  0  0  0  0
   -3.5180   22.3020  -27.6390 C   0  0  0  0  0  0  0  0  0  0  0  0
   -2.9510   21.1690  -28.2320 C   0  0  0  0  0  0  0  0  0  0  0  0
   -2.0510   20.0240  -27.2540 Cl  0  0  0  0  0  0  0  0  0  0  0  0
   -3.1000   20.9500  -29.6060 C   0  0  0  0  0  0  0  0  0  0  0  0
   -3.8190   21.8620  -30.3870 C   0  0  0  0  0  0  0  0  0  0  0  0
   -5.6160   23.6550  -33.0860 H   0  0  0  0  0  0  0  0  0  0  0  0
   -8.5315   23.8456  -31.4131 H   0  0  0  0  0  0  0  0  0  0  0  0
  -10.3992   22.2052  -31.3160 H   0  0  0  0  0  0  0  0  0  0  0  0
  -10.0137   19.8193  -31.9242 H   0  0  0  0  0  0  0  0  0  0  0  0
   -8.4888   18.0436  -32.6665 H   0  0  0  0  0  0  0  0  0  0  0  0
   -6.1992   17.3310  -33.3797 H   0  0  0  0  0  0  0  0  0  0  0  0
   -4.3562   19.0183  -33.4702 H   0  0  0  0  0  0  0  0  0  0  0  0
   -4.6791   24.1055  -27.9513 H   0  0  0  0  0  0  0  0  0  0  0  0
   -3.3991   22.4755  -26.5593 H   0  0  0  0  0  0  0  0  0  0  0  0
   -2.6517   20.0604  -30.0726 H   0  0  0  0  0  0  0  0  0  0  0  0
   -3.9340   21.6888  -31.4672 H   0  0  0  0  0  0  0  0  0  0  0  0
  1  2  2  0
  2  3  2  0
  2  4  1  0
  4  5  1  0
  5  6  2  0
  6  7  1  0
  7  8  2  0
  8  9  1  0
  9 10  2  0
 10 11  1  0
 11 12  2  0
 12 13  1  0
 13 14  2  0
  2 15  1  0
 15 16  2  0
 16 17  1  0
 17 18  2  0
 18 19  1  0
 18 20  1  0
 20 21  2  0
 14  5  1  0
 21 15  1  0
 14  9  1  0
  4 22  1  0
  6 23  1  0
  7 24  1  0
  8 25  1  0
 10 26  1  0
 11 27  1  0
 12 28  1  0
 16 29  1  0
 17 30  1  0
 20 31  1  0
 21 32  1  0
M  END
>  <UniqueID>  (49) 
47

>  <SMILES>  (49) 
O=S(=O)(Nc1cccc2cccnc12)c1ccc(Cl)cc1

>  <Energy>  (49) 
41.65162918021563

>  <Genealogy>  (49) 
O=S(=O)(Nc1cccc2cccnc12)c1ccc(Cl)cc1 (3D coordinates assigned)
O=S(=O)(Nc1cccc2cccnc12)c1ccc(Cl)cc1 (optimized conformer: 41.65162918021563 kcal/mol)

>  <smiles>  (49) 
O=S(=O)(Nc1cccc2cccnc12)c1ccc(Cl)cc1

>  <score_type>  (49) 
oracle

>  <origin>  (49) 
adgpu

>  <m_score__min__energy>  (49) 
-8.9900000000000002

>  <m_primary>  (49) 
energy

$$$$
49:0
     RDKit          3D

 40 42  0  0  0  0  0  0  0  0999 V2000
   -4.6950   19.4440  -31.2620 O   0  0  0  0  0  0  0  0  0  0  0  0
   -5.0610   20.3970  -32.3650 S   0  0  0  0  0  0  0  0  0  0  0  0
   -3.8900   20.4970  -33.3030 O   0  0  0  0  0  0  0  0  0  0  0  0
   -5.3790   22.0120  -31.7160 C   0  0  0  0  0  0  0  0  0  0  0  0
   -4.3030   22.7560  -31.2080 C   0  0  0  0  0  0  0  0  0  0  0  0
   -4.5060   24.0450  -30.6850 C   0  0  0  0  0  0  0  0  0  0  0  0
   -3.4100   24.8250  -30.1780 N   0  0  0  0  0  0  0  0  0  0  0  0
   -2.6940   24.5260  -28.9660 C   0  0  0  0  0  0  0  0  0  0  0  0
   -3.0890   23.4570  -28.1390 C   0  0  0  0  0  0  0  0  0  0  0  0
   -2.4040   23.1930  -26.9500 C   0  0  0  0  0  0  0  0  0  0  0  0
   -1.3280   23.9970  -26.5670 C   0  0  0  0  0  0  0  0  0  0  0  0
   -0.9410   25.0730  -27.3710 C   0  0  0  0  0  0  0  0  0  0  0  0
   -1.6230   25.3430  -28.5630 C   0  0  0  0  0  0  0  0  0  0  0  0
   -1.2220   26.4180  -29.3490 O   0  0  0  0  0  0  0  0  0  0  0  0
   -5.7900   24.6010  -30.7160 C   0  0  0  0  0  0  0  0  0  0  0  0
   -6.8650   23.8710  -31.2300 C   0  0  0  0  0  0  0  0  0  0  0  0
   -6.6670   22.5800  -31.7290 C   0  0  0  0  0  0  0  0  0  0  0  0
   -7.7540   21.8830  -32.2430 O   0  0  0  0  0  0  0  0  0  0  0  0
   -6.4560   19.8130  -33.2500 N   0  0  0  0  0  0  0  0  0  0  0  0
   -7.3980   19.0880  -32.3790 C   0  0  0  0  0  0  0  0  0  0  0  0
   -6.8900   17.6730  -32.0080 C   0  0  0  0  0  0  0  0  0  0  0  0
   -5.8470   17.2090  -32.8470 O   0  0  0  0  0  0  0  0  0  0  0  0
   -6.1400   17.5040  -34.1940 C   0  0  0  0  0  0  0  0  0  0  0  0
   -6.0650   19.0220  -34.4370 C   0  0  0  0  0  0  0  0  0  0  0  0
   -3.2905   22.3262  -31.2192 H   0  0  0  0  0  0  0  0  0  0  0  0
   -3.1200   25.6700  -30.7210 H   0  0  0  0  0  0  0  0  0  0  0  0
   -3.9416   22.8261  -28.4306 H   0  0  0  0  0  0  0  0  0  0  0  0
   -2.7129   22.3501  -26.3143 H   0  0  0  0  0  0  0  0  0  0  0  0
   -0.7859   23.7837  -25.6339 H   0  0  0  0  0  0  0  0  0  0  0  0
   -0.0975   25.7097  -27.0658 H   0  0  0  0  0  0  0  0  0  0  0  0
   -5.9540   25.6192  -30.3333 H   0  0  0  0  0  0  0  0  0  0  0  0
   -7.8717   24.3141  -31.2421 H   0  0  0  0  0  0  0  0  0  0  0  0
   -7.5401   19.6660  -31.4540 H   0  0  0  0  0  0  0  0  0  0  0  0
   -8.3425   18.9711  -32.9306 H   0  0  0  0  0  0  0  0  0  0  0  0
   -6.5195   17.6965  -30.9725 H   0  0  0  0  0  0  0  0  0  0  0  0
   -7.7369   16.9822  -32.1325 H   0  0  0  0  0  0  0  0  0  0  0  0
   -5.4117   16.9961  -34.8434 H   0  0  0  0  0  0  0  0  0  0  0  0
   -7.1575   17.1548  -34.4236 H   0  0  0  0  0  0  0  0  0  0  0  0
   -5.0317   19.2837  -34.7088 H   0  0  0  0  0  0  0  0  0  0  0  0
   -6.7730   19.2634  -35.2435 H   0  0  0  0  0  0  0  0  0  0  0  0
  1  2  2  0
  2  3  2  0
  2  4  1  0
  4  5  2  0
  5  6  1  0
  6  7  1  0
  7  8  1  0
  8  9  2  0
  9 10  1  0
 10 11  2  0
 11 12  1  0
 12 13  2  0
 13 14  1  0
  6 15  2  0
 15 16  1  0
 16 17  2  0
 17 18  1  0
  2 19  1  0
 19 20  1  0
 20 21  1  0
 21 22  1  0
 22 23  1  0
 23 24  1  0
 17  4  1  0
 24 19  1  0
 13  8  1  0
  5 25  1  0
  7 26  1  0
  9 27  1  0
 10 28  1  0
 11 29  1  0
 12 30  1  0
 15 31  1  0
 16 32  1  0
 20 33  1  0
 20 34  1  0
 21 35  1  0
 21 36  1  0
 23 37  1  0
 23 38  1  0
 24 39  1  0
 24 40  1  0
M  CHG  2  14  -1  18  -1
M  END
>  <UniqueID>  (50) 
48

>  <SMILES>  (50) 
O=S(=O)(c1cc(Nc2ccccc2[O-])ccc1[O-])N1CCOCC1

>  <Energy>  (50) 
59.47591942951128

>  <Genealogy>  (50) 
O=S(=O)(c1cc(Nc2ccccc2[O-])ccc1[O-])N1CCOCC1 (protonated)
O=S(=O)(c1cc(Nc2ccccc2[O-])ccc1[O-])N1CCOCC1 (3D coordinates assigned)
O=S(=O)(c1cc(Nc2ccccc2[O-])ccc1[O-])N1CCOCC1 (nonaromatic ring conformer: 59.47591942951128 kcal/mol)

>  <smiles>  (50) 
O=S(=O)(c1cc(Nc2ccccc2O)ccc1O)N1CCOCC1

>  <score_type>  (50) 
oracle

>  <origin>  (50) 
adgpu

>  <m_score__min__energy>  (50) 
-11.56

>  <m_primary>  (50) 
energy

$$$$
