0:0
     RDKit          3D

 52 55  0  0  0  0  0  0  0  0999 V2000
   -9.4120   22.1750  -31.5770 C   0  0  0  0  0  0  0  0  0  0  0  0
   -8.1130   22.6240  -31.0920 N   0  0  0  0  0  0  0  0  0  0  0  0
   -7.2070   23.3680  -31.9290 C   0  0  0  0  0  0  0  0  0  0  0  0
   -7.6000   23.7980  -33.0510 O   0  0  0  0  0  0  0  0  0  0  0  0
   -5.8670   23.8110  -31.3990 C   0  0  0  0  0  0  0  0  0  0  0  0
   -5.4240   22.6960  -32.2530 C   0  0  0  0  0  0  0  0  0  0  0  0
   -4.6480   21.6640  -31.7740 N   0  0  0  0  0  0  0  0  0  0  0  0
   -4.5440   20.4230  -32.5700 C   0  0  0  0  0  0  0  0  0  0  0  0
   -5.7780   19.5690  -32.4090 C   0  0  0  0  0  0  0  0  0  0  0  0
   -5.6920   18.3060  -31.7980 C   0  0  0  0  0  0  0  0  0  0  0  0
   -6.8380   17.5220  -31.6310 C   0  0  0  0  0  0  0  0  0  0  0  0
   -8.0770   17.9890  -32.0790 C   0  0  0  0  0  0  0  0  0  0  0  0
   -8.1720   19.2390  -32.6960 C   0  0  0  0  0  0  0  0  0  0  0  0
   -9.3780   19.6950  -33.1200 F   0  0  0  0  0  0  0  0  0  0  0  0
   -7.0280   20.0250  -32.8640 C   0  0  0  0  0  0  0  0  0  0  0  0
   -3.8880   21.8860  -30.6570 C   0  0  0  0  0  0  0  0  0  0  0  0
   -3.0890   20.8930  -30.0540 C   0  0  0  0  0  0  0  0  0  0  0  0
   -2.1410   21.2320  -29.0710 C   0  0  0  0  0  0  0  0  0  0  0  0
   -1.3000   20.2160  -28.4830 N   0  0  0  0  0  0  0  0  0  0  0  0
   -0.0060   19.9040  -29.1020 C   0  0  0  0  0  0  0  0  0  0  0  0
    0.8340   19.0110  -28.1870 C   0  0  0  0  0  0  0  0  0  0  0  0
    0.0580   17.8440  -27.7540 N   0  0  0  0  0  0  0  0  0  0  0  0
   -1.2000   18.1850  -27.0530 C   0  0  0  0  0  0  0  0  0  0  0  0
   -1.6160   19.6670  -27.1570 C   0  0  0  0  0  0  0  0  0  0  0  0
   -2.0090   22.5760  -28.6860 C   0  0  0  0  0  0  0  0  0  0  0  0
   -2.8140   23.5600  -29.2630 C   0  0  0  0  0  0  0  0  0  0  0  0
   -3.7800   23.2080  -30.2190 C   0  0  0  0  0  0  0  0  0  0  0  0
   -4.6150   24.1500  -30.8460 C   0  0  0  0  0  0  0  0  0  0  0  0
   -4.3240   25.3730  -30.7770 O   0  0  0  0  0  0  0  0  0  0  0  0
  -10.0650   21.9493  -30.7210 H   0  0  0  0  0  0  0  0  0  0  0  0
   -9.8691   22.9673  -32.1880 H   0  0  0  0  0  0  0  0  0  0  0  0
   -9.2823   21.2695  -32.1880 H   0  0  0  0  0  0  0  0  0  0  0  0
   -7.8150   22.3570  -30.1260 H   0  0  0  0  0  0  0  0  0  0  0  0
   -5.7236   22.6871  -33.3114 H   0  0  0  0  0  0  0  0  0  0  0  0
   -4.4251   20.6860  -33.6315 H   0  0  0  0  0  0  0  0  0  0  0  0
   -3.6745   19.8512  -32.2135 H   0  0  0  0  0  0  0  0  0  0  0  0
   -4.7180   17.9322  -31.4493 H   0  0  0  0  0  0  0  0  0  0  0  0
   -6.7643   16.5371  -31.1467 H   0  0  0  0  0  0  0  0  0  0  0  0
   -8.9778   17.3720  -31.9457 H   0  0  0  0  0  0  0  0  0  0  0  0
   -7.1062   21.0062  -33.3551 H   0  0  0  0  0  0  0  0  0  0  0  0
   -3.2081   19.8418  -30.3553 H   0  0  0  0  0  0  0  0  0  0  0  0
   -0.1787   19.3825  -30.0550 H   0  0  0  0  0  0  0  0  0  0  0  0
    0.5385   20.8444  -29.2727 H   0  0  0  0  0  0  0  0  0  0  0  0
    1.7258   18.6702  -28.7333 H   0  0  0  0  0  0  0  0  0  0  0  0
    1.1306   19.5898  -27.2999 H   0  0  0  0  0  0  0  0  0  0  0  0
   -0.1710   17.2720  -28.6020 H   0  0  0  0  0  0  0  0  0  0  0  0
   -2.0072   17.5720  -27.4804 H   0  0  0  0  0  0  0  0  0  0  0  0
   -1.0239   17.9865  -25.9855 H   0  0  0  0  0  0  0  0  0  0  0  0
   -2.6992   19.7486  -26.9837 H   0  0  0  0  0  0  0  0  0  0  0  0
   -1.0581   20.2392  -26.4012 H   0  0  0  0  0  0  0  0  0  0  0  0
   -1.2661   22.8555  -27.9244 H   0  0  0  0  0  0  0  0  0  0  0  0
   -2.6912   24.6126  -28.9681 H   0  0  0  0  0  0  0  0  0  0  0  0
  1  2  1  0
  2  3  1  0
  3  4  2  0
  3  5  1  0
  5  6  2  0
  6  7  1  0
  7  8  1  0
  8  9  1  0
  9 10  2  0
 10 11  1  0
 11 12  2  0
 12 13  1  0
 13 14  1  0
 13 15  2  0
  7 16  1  0
 16 17  2  0
 17 18  1  0
 18 19  1  0
 19 20  1  0
 20 21  1  0
 21 22  1  0
 22 23  1  0
 23 24  1  0
 18 25  2  0
 25 26  1  0
 26 27  2  0
 27 28  1  0
 28 29  2  0
 28  5  1  0
 15  9  1  0
 27 16  1  0
 24 19  1  0
  1 30  1  0
  1 31  1  0
  1 32  1  0
  2 33  1  0
  6 34  1  0
  8 35  1  0
  8 36  1  0
 10 37  1  0
 11 38  1  0
 12 39  1  0
 15 40  1  0
 17 41  1  0
 20 42  1  0
 20 43  1  0
 21 44  1  0
 21 45  1  0
 22 46  1  0
 23 47  1  0
 23 48  1  0
 24 49  1  0
 24 50  1  0
 25 51  1  0
 26 52  1  0
M  END
>  <UniqueID>  (1) 
1

>  <SMILES>  (1) 
CNC(=O)c1cn(Cc2cccc(F)c2)c2cc(N3CCNCC3)ccc2c1=O

>  <Energy>  (1) 
222.9890491675092

>  <Genealogy>  (1) 
CNC(=O)c1cn(Cc2cccc(F)c2)c2cc(N3CCNCC3)ccc2c1=O (3D coordinates assigned)
CNC(=O)c1cn(Cc2cccc(F)c2)c2cc(N3CCNCC3)ccc2c1=O (nonaromatic ring conformer: 222.9890491675092 kcal/mol)

>  <smiles>  (1) 
CNC(=O)c1cn(Cc2cccc(F)c2)c2cc(N3CCNCC3)ccc2c1=O

>  <score_type>  (1) 
oracle

>  <origin>  (1) 
adgpu

>  <m_score__min__energy>  (1) 
-9.0299999999999994

>  <m_primary>  (1) 
energy

$$$$
1:0
     RDKit          3D

 41 43  0  0  0  0  0  0  0  0999 V2000
   -4.2410   25.5740  -30.7690 O   0  0  0  0  0  0  0  0  0  0  0  0
   -3.5870   24.5810  -29.8500 S   0  0  0  0  0  0  0  0  0  0  0  0
   -4.5410   24.2350  -28.7430 O   0  0  0  0  0  0  0  0  0  0  0  0
   -2.1600   25.2950  -29.1690 N   0  0  0  0  0  0  0  0  0  0  0  0
   -1.2890   24.6620  -28.2200 C   0  0  0  0  0  0  0  0  0  0  0  0
   -0.0550   24.0990  -28.6050 C   0  0  0  0  0  0  0  0  0  0  0  0
    0.7650   23.4810  -27.6570 C   0  0  0  0  0  0  0  0  0  0  0  0
    0.3700   23.4220  -26.3190 C   0  0  0  0  0  0  0  0  0  0  0  0
   -0.8460   23.9840  -25.9250 C   0  0  0  0  0  0  0  0  0  0  0  0
   -1.6770   24.6010  -26.8690 C   0  0  0  0  0  0  0  0  0  0  0  0
   -3.2040   25.2940  -26.3400 Cl  0  0  0  0  0  0  0  0  0  0  0  0
   -3.1640   23.1100  -30.7190 C   0  0  0  0  0  0  0  0  0  0  0  0
   -2.0230   22.3780  -30.3650 C   0  0  0  0  0  0  0  0  0  0  0  0
   -1.7080   21.2010  -31.0450 C   0  0  0  0  0  0  0  0  0  0  0  0
   -2.5240   20.7500  -32.0860 C   0  0  0  0  0  0  0  0  0  0  0  0
   -3.6690   21.4800  -32.4620 C   0  0  0  0  0  0  0  0  0  0  0  0
   -4.5300   21.0500  -33.5310 N   0  0  0  0  0  0  0  0  0  0  0  0
   -5.6520   19.7320  -33.4020 S   0  0  0  0  0  0  0  0  0  0  0  0
   -5.0650   18.6640  -32.5230 O   0  0  0  0  0  0  0  0  0  0  0  0
   -5.8940   19.1580  -34.7700 O   0  0  0  0  0  0  0  0  0  0  0  0
   -7.1580   20.2950  -32.6860 C   0  0  0  0  0  0  0  0  0  0  0  0
   -8.2840   19.4610  -32.6480 C   0  0  0  0  0  0  0  0  0  0  0  0
   -9.4820   19.9240  -32.0930 C   0  0  0  0  0  0  0  0  0  0  0  0
   -9.5580   21.2200  -31.5740 C   0  0  0  0  0  0  0  0  0  0  0  0
   -8.4350   22.0530  -31.6020 C   0  0  0  0  0  0  0  0  0  0  0  0
   -7.2370   21.5910  -32.1560 C   0  0  0  0  0  0  0  0  0  0  0  0
   -3.9790   22.6600  -31.7660 C   0  0  0  0  0  0  0  0  0  0  0  0
    0.2639   24.1464  -29.6567 H   0  0  0  0  0  0  0  0  0  0  0  0
    1.7242   23.0398  -27.9657 H   0  0  0  0  0  0  0  0  0  0  0  0
    1.0166   22.9329  -25.5755 H   0  0  0  0  0  0  0  0  0  0  0  0
   -1.1526   23.9421  -24.8694 H   0  0  0  0  0  0  0  0  0  0  0  0
   -1.3746   22.7317  -29.5498 H   0  0  0  0  0  0  0  0  0  0  0  0
   -0.8143   20.6261  -30.7607 H   0  0  0  0  0  0  0  0  0  0  0  0
   -2.2709   19.8194  -32.6151 H   0  0  0  0  0  0  0  0  0  0  0  0
   -4.4370   21.5010  -34.4700 H   0  0  0  0  0  0  0  0  0  0  0  0
   -8.2257   18.4408  -33.0552 H   0  0  0  0  0  0  0  0  0  0  0  0
  -10.3645   19.2680  -32.0650 H   0  0  0  0  0  0  0  0  0  0  0  0
  -10.5021   21.5848  -31.1432 H   0  0  0  0  0  0  0  0  0  0  0  0
   -8.4940   23.0707  -31.1886 H   0  0  0  0  0  0  0  0  0  0  0  0
   -6.3537   22.2463  -32.1761 H   0  0  0  0  0  0  0  0  0  0  0  0
   -4.8722   23.2376  -32.0463 H   0  0  0  0  0  0  0  0  0  0  0  0
  1  2  2  0
  2  3  2  0
  2  4  1  0
  4  5  1  0
  5  6  2  0
  6  7  1  0
  7  8  2  0
  8  9  1  0
  9 10  2  0
 10 11  1  0
  2 12  1  0
 12 13  2  0
 13 14  1  0
 14 15  2  0
 15 16  1  0
 16 17  1  0
 17 18  1  0
 18 19  2  0
 18 20  2  0
 18 21  1  0
 21 22  2  0
 22 23  1  0
 23 24  2  0
 24 25  1  0
 25 26  2  0
 16 27  2  0
 10  5  1  0
 27 12  1  0
 26 21  1  0
  6 28  1  0
  7 29  1  0
  8 30  1  0
  9 31  1  0
 13 32  1  0
 14 33  1  0
 15 34  1  0
 17 35  1  0
 22 36  1  0
 23 37  1  0
 24 38  1  0
 25 39  1  0
 26 40  1  0
 27 41  1  0
M  CHG  1   4  -1
M  END
>  <UniqueID>  (2) 
2

>  <SMILES>  (2) 
O=S(=O)([N-]c1ccccc1Cl)c1cccc(NS(=O)(=O)c2ccccc2)c1

>  <Energy>  (2) 
49.81879775066055

>  <Genealogy>  (2) 
O=S(=O)([N-]c1ccccc1Cl)c1cccc(NS(=O)(=O)c2ccccc2)c1 (protonated)
O=S(=O)([N-]c1ccccc1Cl)c1cccc(NS(=O)(=O)c2ccccc2)c1 (3D coordinates assigned)
O=S(=O)([N-]c1ccccc1Cl)c1cccc(NS(=O)(=O)c2ccccc2)c1 (optimized conformer: 49.81879775066055 kcal/mol)

>  <smiles>  (2) 
O=S(=O)(Nc1cccc(S(=O)(=O)Nc2ccccc2Cl)c1)c1ccccc1

>  <score_type>  (2) 
oracle

>  <origin>  (2) 
adgpu

>  <m_score__min__energy>  (2) 
-11.23

>  <m_primary>  (2) 
energy

$$$$
2:0
     RDKit          3D

 38 40  0  0  0  0  0  0  0  0999 V2000
   -7.9650   19.9500  -34.1280 H   0  0  0  0  0  0  0  0  0  0  0  0
   -7.7830   20.0170  -33.1340 O   0  0  0  0  0  0  0  0  0  0  0  0
   -6.9540   21.0050  -32.6100 C   0  0  0  0  0  0  0  0  0  0  0  0
   -7.4930   22.0970  -31.9170 C   0  0  0  0  0  0  0  0  0  0  0  0
   -8.5821   22.1816  -31.7878 H   0  0  0  0  0  0  0  0  0  0  0  0
   -6.6490   23.0800  -31.3890 C   0  0  0  0  0  0  0  0  0  0  0  0
   -7.0794   23.9433  -30.8604 H   0  0  0  0  0  0  0  0  0  0  0  0
   -5.2600   22.9720  -31.5290 C   0  0  0  0  0  0  0  0  0  0  0  0
   -4.4260   24.0040  -30.9700 N   0  0  0  0  0  0  0  0  0  0  0  0
   -3.5140   23.8490  -30.0540 C   0  0  0  0  0  0  0  0  0  0  0  0
   -3.3120   22.6410  -29.4610 N   0  0  0  0  0  0  0  0  0  0  0  0
   -2.3840   22.4640  -28.4840 C   0  0  0  0  0  0  0  0  0  0  0  0
   -2.1990   21.1210  -27.8860 C   0  0  0  0  0  0  0  0  0  0  0  0
   -3.2370   20.5030  -27.2560 N   0  0  0  0  0  0  0  0  0  0  0  0
   -3.1140   19.2690  -26.7030 C   0  0  0  0  0  0  0  0  0  0  0  0
   -3.9751   18.8041  -26.2006 H   0  0  0  0  0  0  0  0  0  0  0  0
   -1.8960   18.5890  -26.7710 C   0  0  0  0  0  0  0  0  0  0  0  0
   -1.7976   17.5875  -26.3268 H   0  0  0  0  0  0  0  0  0  0  0  0
   -0.8030   19.1850  -27.4050 C   0  0  0  0  0  0  0  0  0  0  0  0
    0.4110   18.4780  -27.4460 O   0  0  0  0  0  0  0  0  0  0  0  0
    0.6740   17.3240  -28.2470 C   0  0  0  0  0  0  0  0  0  0  0  0
    1.5020   17.5454  -28.9365 H   0  0  0  0  0  0  0  0  0  0  0  0
   -0.2372   17.0714  -28.8090 H   0  0  0  0  0  0  0  0  0  0  0  0
    1.0550   16.1320  -27.3760 C   0  0  0  0  0  0  0  0  0  0  0  0
    0.9662   16.4097  -26.3153 H   0  0  0  0  0  0  0  0  0  0  0  0
    0.3813   15.2897  -27.5921 H   0  0  0  0  0  0  0  0  0  0  0  0
    2.0923   15.8366  -27.5921 H   0  0  0  0  0  0  0  0  0  0  0  0
   -0.9560   20.4660  -27.9650 C   0  0  0  0  0  0  0  0  0  0  0  0
   -0.1060   20.9548  -28.4636 H   0  0  0  0  0  0  0  0  0  0  0  0
   -1.6240   23.5650  -28.0660 C   0  0  0  0  0  0  0  0  0  0  0  0
   -0.8673   23.4569  -27.2749 H   0  0  0  0  0  0  0  0  0  0  0  0
   -1.8470   24.8010  -28.6740 C   0  0  0  0  0  0  0  0  0  0  0  0
   -1.2637   25.6799  -28.3621 H   0  0  0  0  0  0  0  0  0  0  0  0
   -2.7840   24.9200  -29.6510 N   0  0  0  0  0  0  0  0  0  0  0  0
   -4.7260   21.8920  -32.2590 C   0  0  0  0  0  0  0  0  0  0  0  0
   -3.6397   21.8224  -32.4176 H   0  0  0  0  0  0  0  0  0  0  0  0
   -5.5700   20.9080  -32.7830 C   0  0  0  0  0  0  0  0  0  0  0  0
   -5.1441   20.0556  -33.3326 H   0  0  0  0  0  0  0  0  0  0  0  0
  1  2  1  0
  2  3  1  0
  3  4  2  0
  4  5  1  0
  4  6  1  0
  6  7  1  0
  6  8  2  0
  8  9  1  0
  9 10  2  0
 10 11  1  0
 11 12  2  0
 12 13  1  0
 13 14  2  0
 14 15  1  0
 15 16  1  0
 15 17  2  0
 17 18  1  0
 17 19  1  0
 19 20  1  0
 20 21  1  0
 21 22  1  0
 21 23  1  0
 21 24  1  0
 24 25  1  0
 24 26  1  0
 24 27  1  0
 19 28  2  0
 28 29  1  0
 12 30  1  0
 30 31  1  0
 30 32  2  0
 32 33  1  0
 32 34  1  0
  8 35  1  0
 35 36  1  0
 35 37  2  0
 37 38  1  0
 37  3  1  0
 34 10  1  0
 28 13  1  0
M  CHG  1  34  -1
M  END
>  <UniqueID>  (3) 
3

>  <SMILES>  (3) 
CCOc1ccnc(-c2cc[n-]/c(=N/c3ccc(O)cc3)n2)c1

>  <Energy>  (3) 
45.92668606740392

>  <Genealogy>  (3) 
CCOc1ccnc(-c2cc[n-]c(=Nc3ccc(O)cc3)n2)c1 (protonated)
CCOc1ccnc(-c2cc[n-]/c(=N/c3ccc(O)cc3)n2)c1 (cis-trans isomerization)
CCOc1ccnc(-c2cc[n-]/c(=N/c3ccc(O)cc3)n2)c1 (3D coordinates assigned)
CCOc1ccnc(-c2cc[n-]/c(=N/c3ccc(O)cc3)n2)c1 (optimized conformer: 45.92668606740392 kcal/mol)

>  <smiles>  (3) 
CCOc1ccnc(-c2cc[nH]c(=Nc3ccc(O)cc3)n2)c1

>  <score_type>  (3) 
oracle

>  <origin>  (3) 
adgpu

>  <m_score__min__energy>  (3) 
-8.7699999999999996

>  <m_primary>  (3) 
energy

$$$$
3:0
     RDKit          3D

 43 45  0  0  0  0  0  0  0  0999 V2000
   -9.4090   19.7970  -32.6480 C   0  0  0  0  0  0  0  0  0  0  0  0
   -8.0960   20.4780  -32.3560 C   0  0  0  0  0  0  0  0  0  0  0  0
   -8.1110   21.6940  -31.6580 C   0  0  0  0  0  0  0  0  0  0  0  0
   -6.9250   22.4000  -31.4220 C   0  0  0  0  0  0  0  0  0  0  0  0
   -6.8970   23.6850  -30.7750 N   0  0  0  0  0  0  0  0  0  0  0  0
   -5.6350   24.3940  -30.1550 S   0  0  0  0  0  0  0  0  0  0  0  0
   -4.9930   23.4450  -28.7890 C   0  0  0  0  0  0  0  0  0  0  0  0
   -6.1210   25.9940  -29.5500 C   0  0  0  0  0  0  0  0  0  0  0  0
   -4.5750   24.5760  -31.2060 O   0  0  0  0  0  0  0  0  0  0  0  0
   -5.7090   21.8440  -31.8210 C   0  0  0  0  0  0  0  0  0  0  0  0
   -5.6390   20.5710  -32.4260 C   0  0  0  0  0  0  0  0  0  0  0  0
   -4.4040   19.9510  -32.7970 C   0  0  0  0  0  0  0  0  0  0  0  0
   -3.2320   20.2730  -32.3040 N   0  0  0  0  0  0  0  0  0  0  0  0
   -2.8960   21.0480  -31.1440 C   0  0  0  0  0  0  0  0  0  0  0  0
   -2.2950   22.3020  -31.3060 C   0  0  0  0  0  0  0  0  0  0  0  0
   -1.9190   23.0530  -30.1880 C   0  0  0  0  0  0  0  0  0  0  0  0
   -2.1190   22.5430  -28.9010 C   0  0  0  0  0  0  0  0  0  0  0  0
   -1.6490   23.4870  -27.5000 Cl  0  0  0  0  0  0  0  0  0  0  0  0
   -2.6840   21.2740  -28.7330 C   0  0  0  0  0  0  0  0  0  0  0  0
   -3.0580   20.5210  -29.8500 C   0  0  0  0  0  0  0  0  0  0  0  0
   -4.4420   18.8870  -33.7190 C   0  0  0  0  0  0  0  0  0  0  0  0
   -3.2280   18.2820  -34.2200 C   0  0  0  0  0  0  0  0  0  0  0  0
   -2.2580   17.7980  -34.6210 N   0  0  0  0  0  0  0  0  0  0  0  0
   -5.6650   18.3390  -34.0960 C   0  0  0  0  0  0  0  0  0  0  0  0
   -6.8270   18.8310  -33.6000 N   0  0  0  0  0  0  0  0  0  0  0  0
   -6.8590   19.9360  -32.7940 C   0  0  0  0  0  0  0  0  0  0  0  0
   -9.9066   19.5389  -31.7016 H   0  0  0  0  0  0  0  0  0  0  0  0
  -10.0527   20.4749  -33.2277 H   0  0  0  0  0  0  0  0  0  0  0  0
   -9.2257   18.8803  -33.2277 H   0  0  0  0  0  0  0  0  0  0  0  0
   -9.0661   22.0983  -31.2914 H   0  0  0  0  0  0  0  0  0  0  0  0
   -5.3062   23.9080  -27.8416 H   0  0  0  0  0  0  0  0  0  0  0  0
   -5.3823   22.4175  -28.8413 H   0  0  0  0  0  0  0  0  0  0  0  0
   -3.8944   23.4240  -28.8413 H   0  0  0  0  0  0  0  0  0  0  0  0
   -6.1187   25.9863  -28.4500 H   0  0  0  0  0  0  0  0  0  0  0  0
   -5.4131   26.7538  -29.9129 H   0  0  0  0  0  0  0  0  0  0  0  0
   -7.1319   26.2317  -29.9129 H   0  0  0  0  0  0  0  0  0  0  0  0
   -4.7812   22.4125  -31.6598 H   0  0  0  0  0  0  0  0  0  0  0  0
   -2.1179   22.6981  -32.3168 H   0  0  0  0  0  0  0  0  0  0  0  0
   -1.4653   24.0462  -30.3208 H   0  0  0  0  0  0  0  0  0  0  0  0
   -2.8340   20.8686  -27.7215 H   0  0  0  0  0  0  0  0  0  0  0  0
   -3.4800   19.5140  -29.7166 H   0  0  0  0  0  0  0  0  0  0  0  0
   -5.6889   17.4976  -34.8041 H   0  0  0  0  0  0  0  0  0  0  0  0
   -7.7040   18.3550  -33.9040 H   0  0  0  0  0  0  0  0  0  0  0  0
  1  2  1  0
  2  3  2  0
  3  4  1  0
  4  5  1  0
  5  6  2  0
  6  7  1  0
  6  8  1  0
  6  9  2  0
  4 10  2  0
 10 11  1  0
 11 12  1  0
 12 13  2  3
 13 14  1  0
 14 15  2  0
 15 16  1  0
 16 17  2  0
 17 18  1  0
 17 19  1  0
 19 20  2  0
 12 21  1  0
 21 22  1  0
 22 23  3  0
 21 24  2  0
 24 25  1  0
 25 26  1  0
 26  2  1  0
 26 11  2  0
 20 14  1  0
  1 27  1  0
  1 28  1  0
  1 29  1  0
  3 30  1  0
  7 31  1  0
  7 32  1  0
  7 33  1  0
  8 34  1  0
  8 35  1  0
  8 36  1  0
 10 37  1  0
 15 38  1  0
 16 39  1  0
 19 40  1  0
 20 41  1  0
 24 42  1  0
 25 43  1  0
M  END
>  <UniqueID>  (4) 
4

>  <SMILES>  (4) 
Cc1cc(N=S(C)(C)=O)cc2c(=Nc3ccc(Cl)cc3)c(C#N)c[nH]c12

>  <Energy>  (4) 
64.20317294821479

>  <Genealogy>  (4) 
Cc1cc(N=S(C)(C)=O)cc2c(=Nc3ccc(Cl)cc3)c(C#N)c[nH]c12 (3D coordinates assigned)
Cc1cc(N=S(C)(C)=O)cc2c(=Nc3ccc(Cl)cc3)c(C#N)c[nH]c12 (optimized conformer: 64.20317294821479 kcal/mol)

>  <smiles>  (4) 
Cc1cc(N=S(C)(C)=O)cc2c(=Nc3ccc(Cl)cc3)c(C#N)c[nH]c12

>  <score_type>  (4) 
oracle

>  <origin>  (4) 
adgpu

>  <m_score__min__energy>  (4) 
-9.5

>  <m_primary>  (4) 
energy

$$$$
4:0
     RDKit          3D

 45 48  0  0  0  0  0  0  0  0999 V2000
    0.9432   30.8461  -25.2673 H   0  0  0  0  0  0  0  0  0  0  0  0
    0.6240   29.8920  -25.7120 C   0  0  0  0  0  0  0  0  0  0  0  0
    0.9170   28.7200  -25.0900 N   0  0  0  0  0  0  0  0  0  0  0  0
    0.5440   27.5190  -25.6080 C   0  0  0  0  0  0  0  0  0  0  0  0
    0.7943   26.5911  -25.0730 H   0  0  0  0  0  0  0  0  0  0  0  0
   -0.1600   27.4570  -26.8240 C   0  0  0  0  0  0  0  0  0  0  0  0
   -0.5710   26.1410  -27.3800 C   0  0  0  0  0  0  0  0  0  0  0  0
   -1.5740   26.0890  -28.3000 N   0  0  0  0  0  0  0  0  0  0  0  0
   -1.9960   24.9130  -28.8350 C   0  0  0  0  0  0  0  0  0  0  0  0
   -2.9400   24.9270  -29.7300 N   0  0  0  0  0  0  0  0  0  0  0  0
   -3.5460   23.7890  -30.3660 C   0  0  0  0  0  0  0  0  0  0  0  0
   -2.7800   22.7880  -30.9910 C   0  0  0  0  0  0  0  0  0  0  0  0
   -1.6843   22.8789  -31.0260 H   0  0  0  0  0  0  0  0  0  0  0  0
   -3.4050   21.6780  -31.5680 C   0  0  0  0  0  0  0  0  0  0  0  0
   -2.7985   20.9023  -32.0583 H   0  0  0  0  0  0  0  0  0  0  0  0
   -4.8040   21.5480  -31.5250 C   0  0  0  0  0  0  0  0  0  0  0  0
   -5.4700   20.4050  -32.0900 N   0  0  0  0  0  0  0  0  0  0  0  0
   -5.0560   19.4590  -31.9230 H   0  0  0  0  0  0  0  0  0  0  0  0
   -6.7230   20.4620  -32.7830 C   0  0  0  0  0  0  0  0  0  0  0  0
   -7.4400   21.4990  -32.7220 O   0  0  0  0  0  0  0  0  0  0  0  0
   -7.1960   19.2950  -33.4670 N   0  0  0  0  0  0  0  0  0  0  0  0
   -6.4120   18.1600  -33.8600 C   0  0  0  0  0  0  0  0  0  0  0  0
   -5.2220   18.2930  -34.6020 C   0  0  0  0  0  0  0  0  0  0  0  0
   -4.8784   19.2903  -34.9141 H   0  0  0  0  0  0  0  0  0  0  0  0
   -4.4760   17.1590  -34.9430 C   0  0  0  0  0  0  0  0  0  0  0  0
   -3.5530   17.2663  -35.5318 H   0  0  0  0  0  0  0  0  0  0  0  0
   -4.9000   15.8920  -34.5380 C   0  0  0  0  0  0  0  0  0  0  0  0
   -4.3155   15.0019  -34.8140 H   0  0  0  0  0  0  0  0  0  0  0  0
   -6.0670   15.7550  -33.7820 C   0  0  0  0  0  0  0  0  0  0  0  0
   -6.3975   14.7574  -33.4572 H   0  0  0  0  0  0  0  0  0  0  0  0
   -6.8150   16.8850  -33.4380 C   0  0  0  0  0  0  0  0  0  0  0  0
   -7.7261   16.7730  -32.8320 H   0  0  0  0  0  0  0  0  0  0  0  0
   -5.5580   22.5200  -30.8530 C   0  0  0  0  0  0  0  0  0  0  0  0
   -6.6498   22.4082  -30.7784 H   0  0  0  0  0  0  0  0  0  0  0  0
   -4.9340   23.6300  -30.2770 C   0  0  0  0  0  0  0  0  0  0  0  0
   -5.5376   24.3838  -29.7502 H   0  0  0  0  0  0  0  0  0  0  0  0
   -1.3960   23.7510  -28.4570 N   0  0  0  0  0  0  0  0  0  0  0  0
   -0.3980   23.7450  -27.5380 C   0  0  0  0  0  0  0  0  0  0  0  0
    0.0683   22.7945  -27.2393 H   0  0  0  0  0  0  0  0  0  0  0  0
    0.0370   24.9420  -26.9720 C   0  0  0  0  0  0  0  0  0  0  0  0
    0.8405   24.9478  -26.2207 H   0  0  0  0  0  0  0  0  0  0  0  0
   -0.4770   28.6660  -27.4700 C   0  0  0  0  0  0  0  0  0  0  0  0
   -1.0382   28.6511  -28.4159 H   0  0  0  0  0  0  0  0  0  0  0  0
   -0.0820   29.8840  -26.9150 C   0  0  0  0  0  0  0  0  0  0  0  0
   -0.3253   30.8295  -27.4218 H   0  0  0  0  0  0  0  0  0  0  0  0
  1  2  1  0
  2  3  2  0
  3  4  1  0
  4  5  1  0
  4  6  2  0
  6  7  1  0
  7  8  2  0
  8  9  1  0
  9 10  2  0
 10 11  1  0
 11 12  2  0
 12 13  1  0
 12 14  1  0
 14 15  1  0
 14 16  2  0
 16 17  1  0
 17 18  1  0
 17 19  1  0
 19 20  2  0
 19 21  1  0
 21 22  1  0
 22 23  2  0
 23 24  1  0
 23 25  1  0
 25 26  1  0
 25 27  2  0
 27 28  1  0
 27 29  1  0
 29 30  1  0
 29 31  2  0
 31 32  1  0
 16 33  1  0
 33 34  1  0
 33 35  2  0
 35 36  1  0
  9 37  1  0
 37 38  1  0
 38 39  1  0
 38 40  2  0
 40 41  1  0
  6 42  1  0
 42 43  1  0
 42 44  2  0
 44 45  1  0
 44  2  1  0
 40  7  1  0
 35 11  1  0
 31 22  1  0
M  CHG  2  21  -1  37  -1
M  END
>  <UniqueID>  (5) 
5

>  <SMILES>  (5) 
O=C([N-]c1ccccc1)Nc1ccc(/N=c2/nc(-c3cccnc3)cc[n-]2)cc1

>  <Energy>  (5) 
68.63801505044762

>  <Genealogy>  (5) 
O=C([N-]c1ccccc1)Nc1ccc(N=c2nc(-c3cccnc3)cc[n-]2)cc1 (protonated)
O=C([N-]c1ccccc1)Nc1ccc(/N=c2/nc(-c3cccnc3)cc[n-]2)cc1 (cis-trans isomerization)
O=C([N-]c1ccccc1)Nc1ccc(/N=c2/nc(-c3cccnc3)cc[n-]2)cc1 (3D coordinates assigned)
O=C([N-]c1ccccc1)Nc1ccc(/N=c2/nc(-c3cccnc3)cc[n-]2)cc1 (optimized conformer: 68.63801505044762 kcal/mol)

>  <smiles>  (5) 
O=C(Nc1ccccc1)Nc1ccc(N=c2nc(-c3cccnc3)cc[nH]2)cc1

>  <score_type>  (5) 
oracle

>  <origin>  (5) 
adgpu

>  <m_score__min__energy>  (5) 
-9.5199999999999996

>  <m_primary>  (5) 
energy

$$$$
5:0
     RDKit          3D

 42 44  0  0  0  0  0  0  0  0999 V2000
   -4.2636   16.7086  -35.8745 H   0  0  0  0  0  0  0  0  0  0  0  0
   -4.8280   17.0620  -34.9990 C   0  0  0  0  0  0  0  0  0  0  0  0
   -5.7390   18.0590  -35.1300 N   0  0  0  0  0  0  0  0  0  0  0  0
   -6.4440   18.5090  -34.0900 N   0  0  0  0  0  0  0  0  0  0  0  0
   -7.1240   19.2790  -34.2680 H   0  0  0  0  0  0  0  0  0  0  0  0
   -6.2760   17.9790  -32.8380 C   0  0  0  0  0  0  0  0  0  0  0  0
   -6.9570   18.3940  -31.8090 N   0  0  0  0  0  0  0  0  0  0  0  0
   -8.1720   19.6360  -31.8120 S   0  0  0  0  0  0  0  0  0  0  0  0
   -8.9580   19.5460  -33.0870 O   0  0  0  0  0  0  0  0  0  0  0  0
   -9.0990   19.4190  -30.6480 O   0  0  0  0  0  0  0  0  0  0  0  0
   -7.4210   21.2270  -31.7190 C   0  0  0  0  0  0  0  0  0  0  0  0
   -8.1360   22.3650  -32.1020 C   0  0  0  0  0  0  0  0  0  0  0  0
   -9.1680   22.2654  -32.4696 H   0  0  0  0  0  0  0  0  0  0  0  0
   -7.5460   23.6280  -32.0200 C   0  0  0  0  0  0  0  0  0  0  0  0
   -8.1164   24.5175  -32.3256 H   0  0  0  0  0  0  0  0  0  0  0  0
   -6.2260   23.7720  -31.5490 C   0  0  0  0  0  0  0  0  0  0  0  0
   -5.5900   25.0250  -31.4840 O   0  0  0  0  0  0  0  0  0  0  0  0
   -5.7500   25.9910  -30.4440 C   0  0  0  0  0  0  0  0  0  0  0  0
   -6.1907   26.9062  -30.8661 H   0  0  0  0  0  0  0  0  0  0  0  0
   -4.7635   26.2080  -30.0083 H   0  0  0  0  0  0  0  0  0  0  0  0
   -6.6630   25.4560  -29.3470 C   0  0  0  0  0  0  0  0  0  0  0  0
   -6.2386   25.7047  -28.3631 H   0  0  0  0  0  0  0  0  0  0  0  0
   -7.6587   25.9135  -29.4431 H   0  0  0  0  0  0  0  0  0  0  0  0
   -6.7506   24.3637  -29.4431 H   0  0  0  0  0  0  0  0  0  0  0  0
   -5.5050   22.6220  -31.1550 C   0  0  0  0  0  0  0  0  0  0  0  0
   -4.1220   22.7280  -30.6290 C   0  0  0  0  0  0  0  0  0  0  0  0
   -3.2910   21.6010  -30.5600 C   0  0  0  0  0  0  0  0  0  0  0  0
   -3.6659   20.6207  -30.8893 H   0  0  0  0  0  0  0  0  0  0  0  0
   -1.9890   21.7220  -30.0740 C   0  0  0  0  0  0  0  0  0  0  0  0
   -1.3349   20.8397  -30.0138 H   0  0  0  0  0  0  0  0  0  0  0  0
   -1.5240   22.9720  -29.6650 C   0  0  0  0  0  0  0  0  0  0  0  0
   -0.4993   23.0760  -29.2789 H   0  0  0  0  0  0  0  0  0  0  0  0
   -2.3340   24.0640  -29.7420 N   0  0  0  0  0  0  0  0  0  0  0  0
   -1.8550   25.2880  -29.3360 O   0  0  0  0  0  0  0  0  0  0  0  0
   -3.6080   23.9680  -30.2130 C   0  0  0  0  0  0  0  0  0  0  0  0
   -4.2392   24.8672  -30.2682 H   0  0  0  0  0  0  0  0  0  0  0  0
   -6.1080   21.3570  -31.2560 C   0  0  0  0  0  0  0  0  0  0  0  0
   -5.5412   20.4594  -30.9678 H   0  0  0  0  0  0  0  0  0  0  0  0
   -5.3430   16.9530  -32.6580 C   0  0  0  0  0  0  0  0  0  0  0  0
   -5.1871   16.5149  -31.6611 H   0  0  0  0  0  0  0  0  0  0  0  0
   -4.6130   16.4900  -33.7490 C   0  0  0  0  0  0  0  0  0  0  0  0
   -3.8761   15.6828  -33.6246 H   0  0  0  0  0  0  0  0  0  0  0  0
  1  2  1  0
  2  3  2  0
  3  4  1  0
  4  5  1  0
  4  6  1  0
  6  7  2  0
  7  8  1  0
  8  9  2  0
  8 10  2  0
  8 11  1  0
 11 12  2  0
 12 13  1  0
 12 14  1  0
 14 15  1  0
 14 16  2  0
 16 17  1  0
 17 18  1  0
 18 19  1  0
 18 20  1  0
 18 21  1  0
 21 22  1  0
 21 23  1  0
 21 24  1  0
 16 25  1  0
 25 26  1  0
 26 27  2  0
 27 28  1  0
 27 29  1  0
 29 30  1  0
 29 31  2  0
 31 32  1  0
 31 33  1  0
 33 34  1  0
 33 35  2  0
 35 36  1  0
 25 37  2  0
 37 38  1  0
  6 39  1  0
 39 40  1  0
 39 41  2  0
 41 42  1  0
 41  2  1  0
 37 11  1  0
 35 26  1  0
M  CHG  2  33   1  34  -1
M  END
>  <UniqueID>  (6) 
6

>  <SMILES>  (6) 
CCOc1ccc(S(=O)(=O)/N=c2/cccn[nH]2)cc1-c1ccc[n+]([O-])c1

>  <Energy>  (6) 
54.165632501703385

>  <Genealogy>  (6) 
CCOc1ccc(S(=O)(=O)/N=c2/cccn[nH]2)cc1-c1ccc[n+]([O-])c1 (cis-trans isomerization)
CCOc1ccc(S(=O)(=O)/N=c2/cccn[nH]2)cc1-c1ccc[n+]([O-])c1 (3D coordinates assigned)
CCOc1ccc(S(=O)(=O)/N=c2/cccn[nH]2)cc1-c1ccc[n+]([O-])c1 (optimized conformer: 54.165632501703385 kcal/mol)

>  <smiles>  (6) 
CCOc1ccc(S(=O)(=O)N=c2cccn[nH]2)cc1-c1ccc[n+]([O-])c1

>  <score_type>  (6) 
oracle

>  <origin>  (6) 
adgpu

>  <m_score__min__energy>  (6) 
-9.8599999999999994

>  <m_primary>  (6) 
energy

$$$$
6:0
     RDKit          3D

 60 63  0  0  0  0  0  0  0  0999 V2000
   -6.2530   25.4060  -29.5690 C   0  0  0  0  0  0  0  0  0  0  0  0
   -5.3380   25.5650  -30.7790 C   0  0  0  0  0  0  0  0  0  0  0  0
   -4.0110   25.1410  -30.4710 O   0  0  0  0  0  0  0  0  0  0  0  0
   -3.6090   23.8130  -30.2790 C   0  0  0  0  0  0  0  0  0  0  0  0
   -3.8620   23.2340  -29.0350 C   0  0  0  0  0  0  0  0  0  0  0  0
   -3.5100   21.9070  -28.7880 C   0  0  0  0  0  0  0  0  0  0  0  0
   -2.9010   21.1420  -29.7850 C   0  0  0  0  0  0  0  0  0  0  0  0
   -2.6200   21.7070  -31.0390 C   0  0  0  0  0  0  0  0  0  0  0  0
   -1.9890   20.8880  -32.1000 C   0  0  0  0  0  0  0  0  0  0  0  0
   -0.7380   20.9420  -32.2740 O   0  0  0  0  0  0  0  0  0  0  0  0
   -2.7840   20.0440  -32.9480 N   0  0  0  0  0  0  0  0  0  0  0  0
   -2.3270   18.7790  -33.4510 C   0  0  0  0  0  0  0  0  0  0  0  0
   -1.2830   18.7420  -34.3890 C   0  0  0  0  0  0  0  0  0  0  0  0
   -0.8830   17.5280  -34.9560 C   0  0  0  0  0  0  0  0  0  0  0  0
   -1.5360   16.3420  -34.6100 C   0  0  0  0  0  0  0  0  0  0  0  0
   -2.5870   16.3590  -33.6780 C   0  0  0  0  0  0  0  0  0  0  0  0
   -3.3390   15.1270  -33.3650 C   0  0  0  0  0  0  0  0  0  0  0  0
   -3.0620   14.4580  -32.3370 O   0  0  0  0  0  0  0  0  0  0  0  0
   -4.3460   14.6600  -34.2660 N   0  0  0  0  0  0  0  0  0  0  0  0
   -5.7620   14.9560  -34.0860 C   0  0  0  0  0  0  0  0  0  0  0  0
   -5.9110   16.4050  -33.7110 C   0  0  0  0  0  0  0  0  0  0  0  0
   -6.0450   16.7670  -32.3620 C   0  0  0  0  0  0  0  0  0  0  0  0
   -6.0490   18.1130  -31.9850 C   0  0  0  0  0  0  0  0  0  0  0  0
   -5.8810   19.1110  -32.9510 C   0  0  0  0  0  0  0  0  0  0  0  0
   -5.8080   20.4520  -32.5530 O   0  0  0  0  0  0  0  0  0  0  0  0
   -6.9370   21.2530  -32.3130 C   0  0  0  0  0  0  0  0  0  0  0  0
   -6.7650   22.6430  -32.2480 C   0  0  0  0  0  0  0  0  0  0  0  0
   -7.8650   23.4830  -32.0570 C   0  0  0  0  0  0  0  0  0  0  0  0
   -9.1490   22.9390  -31.9340 C   0  0  0  0  0  0  0  0  0  0  0  0
   -9.3310   21.5550  -31.9890 C   0  0  0  0  0  0  0  0  0  0  0  0
   -8.2330   20.7090  -32.1760 C   0  0  0  0  0  0  0  0  0  0  0  0
   -5.7760   18.7590  -34.3060 C   0  0  0  0  0  0  0  0  0  0  0  0
   -5.7870   17.4120  -34.6850 C   0  0  0  0  0  0  0  0  0  0  0  0
   -2.9730   17.5820  -33.0980 C   0  0  0  0  0  0  0  0  0  0  0  0
   -2.9830   23.0450  -31.2840 C   0  0  0  0  0  0  0  0  0  0  0  0
   -5.6624   25.5086  -28.6467 H   0  0  0  0  0  0  0  0  0  0  0  0
   -7.0320   26.1822  -29.5939 H   0  0  0  0  0  0  0  0  0  0  0  0
   -6.7245   24.4125  -29.5939 H   0  0  0  0  0  0  0  0  0  0  0  0
   -5.7277   24.9561  -31.6081 H   0  0  0  0  0  0  0  0  0  0  0  0
   -5.3113   26.6273  -31.0632 H   0  0  0  0  0  0  0  0  0  0  0  0
   -4.3424   23.8281  -28.2436 H   0  0  0  0  0  0  0  0  0  0  0  0
   -3.7131   21.4610  -27.8032 H   0  0  0  0  0  0  0  0  0  0  0  0
   -2.6403   20.0919  -29.5868 H   0  0  0  0  0  0  0  0  0  0  0  0
   -3.7510   20.3590  -33.2020 H   0  0  0  0  0  0  0  0  0  0  0  0
   -0.7764   19.6741  -34.6798 H   0  0  0  0  0  0  0  0  0  0  0  0
   -0.0520   17.5065  -35.6764 H   0  0  0  0  0  0  0  0  0  0  0  0
   -1.2260   15.3917  -35.0691 H   0  0  0  0  0  0  0  0  0  0  0  0
   -6.3028   14.7593  -35.0235 H   0  0  0  0  0  0  0  0  0  0  0  0
   -6.1785   14.3197  -33.2912 H   0  0  0  0  0  0  0  0  0  0  0  0
   -6.1477   15.9853  -31.5950 H   0  0  0  0  0  0  0  0  0  0  0  0
   -6.1843   18.3877  -30.9285 H   0  0  0  0  0  0  0  0  0  0  0  0
   -5.7582   23.0747  -32.3480 H   0  0  0  0  0  0  0  0  0  0  0  0
   -7.7220   24.5723  -32.0032 H   0  0  0  0  0  0  0  0  0  0  0  0
  -10.0155   23.6020  -31.7939 H   0  0  0  0  0  0  0  0  0  0  0  0
  -10.3401   21.1296  -31.8850 H   0  0  0  0  0  0  0  0  0  0  0  0
   -8.3790   19.6195  -32.2164 H   0  0  0  0  0  0  0  0  0  0  0  0
   -5.6849   19.5438  -35.0714 H   0  0  0  0  0  0  0  0  0  0  0  0
   -5.6985   17.1401  -35.7472 H   0  0  0  0  0  0  0  0  0  0  0  0
   -3.7890   17.6010  -32.3606 H   0  0  0  0  0  0  0  0  0  0  0  0
   -2.7771   23.4953  -32.2663 H   0  0  0  0  0  0  0  0  0  0  0  0
  1  2  1  0
  2  3  1  0
  3  4  1  0
  4  5  2  0
  5  6  1  0
  6  7  2  0
  7  8  1  0
  8  9  1  0
  9 10  2  0
  9 11  1  0
 11 12  1  0
 12 13  2  0
 13 14  1  0
 14 15  2  0
 15 16  1  0
 16 17  1  0
 17 18  2  0
 17 19  1  0
 19 20  1  0
 20 21  1  0
 21 22  2  0
 22 23  1  0
 23 24  2  0
 24 25  1  0
 25 26  1  0
 26 27  2  0
 27 28  1  0
 28 29  2  0
 29 30  1  0
 30 31  2  0
 24 32  1  0
 32 33  2  0
 16 34  2  0
  8 35  2  0
 35  4  1  0
 34 12  1  0
 33 21  1  0
 31 26  1  0
  1 36  1  0
  1 37  1  0
  1 38  1  0
  2 39  1  0
  2 40  1  0
  5 41  1  0
  6 42  1  0
  7 43  1  0
 11 44  1  0
 13 45  1  0
 14 46  1  0
 15 47  1  0
 20 48  1  0
 20 49  1  0
 22 50  1  0
 23 51  1  0
 27 52  1  0
 28 53  1  0
 29 54  1  0
 30 55  1  0
 31 56  1  0
 32 57  1  0
 33 58  1  0
 34 59  1  0
 35 60  1  0
M  CHG  1  19  -1
M  END
>  <UniqueID>  (7) 
7

>  <SMILES>  (7) 
CCOc1cccc(C(=O)Nc2cccc(C(=O)[N-]Cc3ccc(Oc4ccccc4)cc3)c2)c1

>  <Energy>  (7) 
74.2034859664539

>  <Genealogy>  (7) 
CCOc1cccc(C(=O)Nc2cccc(C(=O)[N-]Cc3ccc(Oc4ccccc4)cc3)c2)c1 (protonated)
CCOc1cccc(C(=O)Nc2cccc(C(=O)[N-]Cc3ccc(Oc4ccccc4)cc3)c2)c1 (3D coordinates assigned)
CCOc1cccc(C(=O)Nc2cccc(C(=O)[N-]Cc3ccc(Oc4ccccc4)cc3)c2)c1 (optimized conformer: 74.2034859664539 kcal/mol)

>  <smiles>  (7) 
CCOc1cccc(C(=O)Nc2cccc(C(=O)NCc3ccc(Oc4ccccc4)cc3)c2)c1

>  <score_type>  (7) 
oracle

>  <origin>  (7) 
adgpu

>  <m_score__min__energy>  (7) 
-12.130000000000001

>  <m_primary>  (7) 
energy

$$$$
7:0
     RDKit          3D

 43 46  0  0  0  0  0  0  0  0999 V2000
   -6.2250   15.9700  -33.4640 C   0  0  0  0  0  0  0  0  0  0  0  0
   -6.8810   17.1450  -33.9320 O   0  0  0  0  0  0  0  0  0  0  0  0
   -6.7740   18.4140  -33.3340 C   0  0  0  0  0  0  0  0  0  0  0  0
   -7.8690   19.0160  -32.6950 C   0  0  0  0  0  0  0  0  0  0  0  0
   -7.7490   20.2760  -32.1170 C   0  0  0  0  0  0  0  0  0  0  0  0
   -6.5400   20.9840  -32.1640 C   0  0  0  0  0  0  0  0  0  0  0  0
   -6.4780   22.6070  -31.4420 S   0  0  0  0  0  0  0  0  0  0  0  0
   -7.6320   22.7990  -30.4990 O   0  0  0  0  0  0  0  0  0  0  0  0
   -6.5750   23.6260  -32.5430 O   0  0  0  0  0  0  0  0  0  0  0  0
   -4.9790   22.8920  -30.5520 C   0  0  0  0  0  0  0  0  0  0  0  0
   -4.2810   21.8180  -30.0950 N   0  0  0  0  0  0  0  0  0  0  0  0
   -3.1390   21.9640  -29.3750 C   0  0  0  0  0  0  0  0  0  0  0  0
   -2.4350   20.8450  -28.9170 C   0  0  0  0  0  0  0  0  0  0  0  0
   -1.2640   21.0170  -28.1710 C   0  0  0  0  0  0  0  0  0  0  0  0
   -0.7950   22.3050  -27.8830 C   0  0  0  0  0  0  0  0  0  0  0  0
   -1.4970   23.4270  -28.3390 C   0  0  0  0  0  0  0  0  0  0  0  0
   -2.6690   23.2590  -29.0850 C   0  0  0  0  0  0  0  0  0  0  0  0
   -3.3640   24.3340  -29.5370 N   0  0  0  0  0  0  0  0  0  0  0  0
   -4.5020   24.1910  -30.2670 C   0  0  0  0  0  0  0  0  0  0  0  0
   -5.3610   25.6720  -30.8110 S   0  0  0  0  0  0  0  0  0  0  0  0
   -6.5060   25.6770  -29.3970 C   0  0  0  0  0  0  0  0  0  0  0  0
   -5.4100   20.3810  -32.7760 C   0  0  0  0  0  0  0  0  0  0  0  0
   -4.1480   21.0150  -32.8070 C   0  0  0  0  0  0  0  0  0  0  0  0
   -3.0540   20.4060  -33.4260 C   0  0  0  0  0  0  0  0  0  0  0  0
   -1.4990   21.2170  -33.4530 Cl  0  0  0  0  0  0  0  0  0  0  0  0
   -3.1940   19.1550  -34.0210 C   0  0  0  0  0  0  0  0  0  0  0  0
   -4.4240   18.4990  -33.9930 C   0  0  0  0  0  0  0  0  0  0  0  0
   -5.5400   19.0920  -33.3720 C   0  0  0  0  0  0  0  0  0  0  0  0
   -6.2222   15.9651  -32.3640 H   0  0  0  0  0  0  0  0  0  0  0  0
   -6.7574   15.0811  -33.8333 H   0  0  0  0  0  0  0  0  0  0  0  0
   -5.1889   15.9567  -33.8333 H   0  0  0  0  0  0  0  0  0  0  0  0
   -8.8320   18.4863  -32.6507 H   0  0  0  0  0  0  0  0  0  0  0  0
   -8.6184   20.7246  -31.6142 H   0  0  0  0  0  0  0  0  0  0  0  0
   -2.8012   19.8327  -29.1429 H   0  0  0  0  0  0  0  0  0  0  0  0
   -0.7100   20.1381  -27.8096 H   0  0  0  0  0  0  0  0  0  0  0  0
    0.1269   22.4351  -27.2972 H   0  0  0  0  0  0  0  0  0  0  0  0
   -1.1283   24.4381  -28.1115 H   0  0  0  0  0  0  0  0  0  0  0  0
   -5.9308   25.6745  -28.4594 H   0  0  0  0  0  0  0  0  0  0  0  0
   -7.1358   26.5779  -29.4384 H   0  0  0  0  0  0  0  0  0  0  0  0
   -7.1437   24.7816  -29.4384 H   0  0  0  0  0  0  0  0  0  0  0  0
   -4.0252   22.0020  -32.3371 H   0  0  0  0  0  0  0  0  0  0  0  0
   -2.3318   18.6829  -34.5146 H   0  0  0  0  0  0  0  0  0  0  0  0
   -4.5236   17.5084  -34.4607 H   0  0  0  0  0  0  0  0  0  0  0  0
  1  2  1  0
  2  3  1  0
  3  4  2  0
  4  5  1  0
  5  6  2  0
  6  7  1  0
  7  8  2  0
  7  9  2  0
  7 10  1  0
 10 11  2  0
 11 12  1  0
 12 13  2  0
 13 14  1  0
 14 15  2  0
 15 16  1  0
 16 17  2  0
 17 18  1  0
 18 19  2  0
 19 20  1  0
 20 21  1  0
  6 22  1  0
 22 23  2  0
 23 24  1  0
 24 25  1  0
 24 26  2  0
 26 27  1  0
 27 28  2  0
 28  3  1  0
 19 10  1  0
 28 22  1  0
 17 12  1  0
  1 29  1  0
  1 30  1  0
  1 31  1  0
  4 32  1  0
  5 33  1  0
 13 34  1  0
 14 35  1  0
 15 36  1  0
 16 37  1  0
 21 38  1  0
 21 39  1  0
 21 40  1  0
 23 41  1  0
 26 42  1  0
 27 43  1  0
M  END
>  <UniqueID>  (8) 
8

>  <SMILES>  (8) 
COc1ccc(S(=O)(=O)c2nc3ccccc3nc2SC)c2cc(Cl)ccc12

>  <Energy>  (8) 
57.39795476635334

>  <Genealogy>  (8) 
COc1ccc(S(=O)(=O)c2nc3ccccc3nc2SC)c2cc(Cl)ccc12 (3D coordinates assigned)
COc1ccc(S(=O)(=O)c2nc3ccccc3nc2SC)c2cc(Cl)ccc12 (optimized conformer: 57.39795476635334 kcal/mol)

>  <smiles>  (8) 
COc1ccc(S(=O)(=O)c2nc3ccccc3nc2SC)c2cc(Cl)ccc12

>  <score_type>  (8) 
oracle

>  <origin>  (8) 
adgpu

>  <m_score__min__energy>  (8) 
-9.4399999999999995

>  <m_primary>  (8) 
energy

$$$$
8:0
     RDKit          3D

 25 26  0  0  0  0  0  0  0  0999 V2000
   -2.2660   24.1850  -29.3200 C   0  0  0  0  0  0  0  0  0  0  0  0
   -3.1830   24.8660  -30.1710 O   0  0  0  0  0  0  0  0  0  0  0  0
   -4.5220   24.4890  -30.3580 C   0  0  0  0  0  0  0  0  0  0  0  0
   -5.5220   25.3000  -29.8110 C   0  0  0  0  0  0  0  0  0  0  0  0
   -6.8690   24.9690  -29.9700 C   0  0  0  0  0  0  0  0  0  0  0  0
   -7.2300   23.8210  -30.6780 C   0  0  0  0  0  0  0  0  0  0  0  0
   -6.2430   22.9920  -31.2360 C   0  0  0  0  0  0  0  0  0  0  0  0
   -6.6330   21.7790  -31.9830 C   0  0  0  0  0  0  0  0  0  0  0  0
   -5.7980   21.1060  -32.8130 N   0  0  0  0  0  0  0  0  0  0  0  0
   -6.5610   20.0940  -33.2650 C   0  0  0  0  0  0  0  0  0  0  0  0
   -6.1060   19.0920  -34.1900 C   0  0  0  0  0  0  0  0  0  0  0  0
   -5.7410   18.2850  -34.9340 N   0  0  0  0  0  0  0  0  0  0  0  0
   -7.8100   20.1890  -32.7010 C   0  0  0  0  0  0  0  0  0  0  0  0
   -8.9160   19.3150  -32.9150 N   0  0  0  0  0  0  0  0  0  0  0  0
   -7.8310   21.2340  -31.9150 O   0  0  0  0  0  0  0  0  0  0  0  0
   -4.8880   23.3300  -31.0730 C   0  0  0  0  0  0  0  0  0  0  0  0
   -2.5274   24.3791  -28.2693 H   0  0  0  0  0  0  0  0  0  0  0  0
   -2.3167   23.1039  -29.5168 H   0  0  0  0  0  0  0  0  0  0  0  0
   -1.2457   24.5460  -29.5168 H   0  0  0  0  0  0  0  0  0  0  0  0
   -5.2449   26.2055  -29.2513 H   0  0  0  0  0  0  0  0  0  0  0  0
   -7.6475   25.6140  -29.5366 H   0  0  0  0  0  0  0  0  0  0  0  0
   -8.2928   23.5645  -30.7994 H   0  0  0  0  0  0  0  0  0  0  0  0
   -9.2780   18.7140  -32.1410 H   0  0  0  0  0  0  0  0  0  0  0  0
   -9.3730   19.2700  -33.8510 H   0  0  0  0  0  0  0  0  0  0  0  0
   -4.1083   22.6861  -31.5061 H   0  0  0  0  0  0  0  0  0  0  0  0
  1  2  1  0
  2  3  1  0
  3  4  2  0
  4  5  1  0
  5  6  2  0
  6  7  1  0
  7  8  1  0
  8  9  2  0
  9 10  1  0
 10 11  1  0
 11 12  3  0
 10 13  2  0
 13 14  1  0
 13 15  1  0
  7 16  2  0
 16  3  1  0
 15  8  1  0
  1 17  1  0
  1 18  1  0
  1 19  1  0
  4 20  1  0
  5 21  1  0
  6 22  1  0
 14 23  1  0
 14 24  1  0
 16 25  1  0
M  END
>  <UniqueID>  (9) 
9

>  <SMILES>  (9) 
COc1cccc(-c2nc(C#N)c(N)o2)c1

>  <Energy>  (9) 
54.14244998457269

>  <Genealogy>  (9) 
COc1cccc(-c2nc(C#N)c(N)o2)c1 (3D coordinates assigned)
COc1cccc(-c2nc(C#N)c(N)o2)c1 (optimized conformer: 54.14244998457269 kcal/mol)

>  <smiles>  (9) 
COc1cccc(-c2nc(C#N)c(N)o2)c1

>  <score_type>  (9) 
oracle

>  <origin>  (9) 
adgpu

>  <m_score__min__energy>  (9) 
-6.46

>  <m_primary>  (9) 
energy

$$$$
9:0
     RDKit          3D

 33 34  0  0  0  0  0  0  0  0999 V2000
   -7.9630   22.2990  -30.4980 C   0  0  0  0  0  0  0  0  0  0  0  0
   -7.2130   23.5180  -31.0300 C   0  0  0  0  0  0  0  0  0  0  0  0
   -6.7290   24.4430  -29.9090 C   0  0  0  0  0  0  0  0  0  0  0  0
   -5.5430   25.6910  -30.5350 S   0  0  0  0  0  0  0  0  0  0  0  0
   -4.1130   24.6180  -30.4420 C   0  0  0  0  0  0  0  0  0  0  0  0
   -3.1200   24.8810  -29.5540 N   0  0  0  0  0  0  0  0  0  0  0  0
   -2.0360   24.0690  -29.4570 C   0  0  0  0  0  0  0  0  0  0  0  0
   -1.1300   24.3280  -28.6230 O   0  0  0  0  0  0  0  0  0  0  0  0
   -1.9320   22.9470  -30.2820 C   0  0  0  0  0  0  0  0  0  0  0  0
   -2.9570   22.6980  -31.2030 C   0  0  0  0  0  0  0  0  0  0  0  0
   -2.9260   21.4790  -32.0760 C   0  0  0  0  0  0  0  0  0  0  0  0
   -4.2980   20.8710  -32.1600 C   0  0  0  0  0  0  0  0  0  0  0  0
   -4.5890   19.6830  -31.4720 C   0  0  0  0  0  0  0  0  0  0  0  0
   -5.8540   19.0950  -31.5840 C   0  0  0  0  0  0  0  0  0  0  0  0
   -6.8330   19.6850  -32.3900 C   0  0  0  0  0  0  0  0  0  0  0  0
   -8.4170   18.9450  -32.5300 Cl  0  0  0  0  0  0  0  0  0  0  0  0
   -6.5450   20.8620  -33.0870 C   0  0  0  0  0  0  0  0  0  0  0  0
   -5.2820   21.4520  -32.9780 C   0  0  0  0  0  0  0  0  0  0  0  0
   -4.0280   23.5330  -31.2550 N   0  0  0  0  0  0  0  0  0  0  0  0
   -7.9538   22.3140  -29.3981 H   0  0  0  0  0  0  0  0  0  0  0  0
   -9.0027   22.3230  -30.8563 H   0  0  0  0  0  0  0  0  0  0  0  0
   -7.4728   21.3818  -30.8563 H   0  0  0  0  0  0  0  0  0  0  0  0
   -6.3405   23.1727  -31.6041 H   0  0  0  0  0  0  0  0  0  0  0  0
   -7.9097   24.0911  -31.6594 H   0  0  0  0  0  0  0  0  0  0  0  0
   -7.5962   24.9608  -29.4732 H   0  0  0  0  0  0  0  0  0  0  0  0
   -6.2182   23.8302  -29.1517 H   0  0  0  0  0  0  0  0  0  0  0  0
   -1.0647   22.2742  -30.2100 H   0  0  0  0  0  0  0  0  0  0  0  0
   -2.5907   21.7619  -33.0847 H   0  0  0  0  0  0  0  0  0  0  0  0
   -2.2313   20.7435  -31.6442 H   0  0  0  0  0  0  0  0  0  0  0  0
   -3.8198   19.2121  -30.8422 H   0  0  0  0  0  0  0  0  0  0  0  0
   -6.0787   18.1673  -31.0373 H   0  0  0  0  0  0  0  0  0  0  0  0
   -7.3139   21.3252  -33.7228 H   0  0  0  0  0  0  0  0  0  0  0  0
   -5.0579   22.3740  -33.5344 H   0  0  0  0  0  0  0  0  0  0  0  0
  1  2  1  0
  2  3  1  0
  3  4  1  0
  4  5  1  0
  5  6  2  0
  6  7  1  0
  7  8  2  0
  7  9  1  0
  9 10  2  0
 10 11  1  0
 11 12  1  0
 12 13  2  0
 13 14  1  0
 14 15  2  0
 15 16  1  0
 15 17  1  0
 17 18  2  0
 10 19  1  0
 19  5  1  0
 18 12  1  0
  1 20  1  0
  1 21  1  0
  1 22  1  0
  2 23  1  0
  2 24  1  0
  3 25  1  0
  3 26  1  0
  9 27  1  0
 11 28  1  0
 11 29  1  0
 13 30  1  0
 14 31  1  0
 17 32  1  0
 18 33  1  0
M  CHG  1  19  -1
M  END
>  <UniqueID>  (10) 
10

>  <SMILES>  (10) 
CCCSc1nc(=O)cc(Cc2ccc(Cl)cc2)[n-]1

>  <Energy>  (10) 
25.296438129785116

>  <Genealogy>  (10) 
CCCSc1nc(=O)cc(Cc2ccc(Cl)cc2)[n-]1 (protonated)
CCCSc1nc(=O)cc(Cc2ccc(Cl)cc2)[n-]1 (3D coordinates assigned)
CCCSc1nc(=O)cc(Cc2ccc(Cl)cc2)[n-]1 (optimized conformer: 25.296438129785116 kcal/mol)

>  <smiles>  (10) 
CCCSc1nc(=O)cc(Cc2ccc(Cl)cc2)[nH]1

>  <score_type>  (10) 
oracle

>  <origin>  (10) 
adgpu

>  <m_score__min__energy>  (10) 
-8.0999999999999996

>  <m_primary>  (10) 
energy

$$$$
10:0
     RDKit          3D

 41 43  0  0  0  0  0  0  0  0999 V2000
   -3.8340   21.4090  -33.1520 C   0  0  0  0  0  0  0  0  0  0  0  0
   -4.4280   20.2920  -33.8050 O   0  0  0  0  0  0  0  0  0  0  0  0
   -5.5770   19.6260  -33.3520 C   0  0  0  0  0  0  0  0  0  0  0  0
   -6.5140   20.3530  -32.6140 C   0  0  0  0  0  0  0  0  0  0  0  0
   -7.6940   19.7470  -32.1550 C   0  0  0  0  0  0  0  0  0  0  0  0
   -8.7430   20.5660  -31.4460 C   0  0  0  0  0  0  0  0  0  0  0  0
   -8.7660   22.0160  -31.9480 C   0  0  0  0  0  0  0  0  0  0  0  0
   -7.4700   22.7120  -31.6670 C   0  0  0  0  0  0  0  0  0  0  0  0
   -6.7490   22.5290  -30.5450 N   0  0  0  0  0  0  0  0  0  0  0  0
   -5.7390   23.4050  -30.7310 C   0  0  0  0  0  0  0  0  0  0  0  0
   -4.6630   23.6360  -29.7450 C   0  0  0  0  0  0  0  0  0  0  0  0
   -4.6620   22.9440  -28.5190 C   0  0  0  0  0  0  0  0  0  0  0  0
   -3.6500   23.1720  -27.5820 C   0  0  0  0  0  0  0  0  0  0  0  0
   -2.6330   24.0890  -27.8550 C   0  0  0  0  0  0  0  0  0  0  0  0
   -2.6260   24.7830  -29.0690 C   0  0  0  0  0  0  0  0  0  0  0  0
   -1.6130   25.6960  -29.3410 O   0  0  0  0  0  0  0  0  0  0  0  0
   -3.6360   24.5590  -30.0100 C   0  0  0  0  0  0  0  0  0  0  0  0
   -5.8470   24.0710  -31.9000 N   0  0  0  0  0  0  0  0  0  0  0  0
   -6.9310   23.6150  -32.4470 O   0  0  0  0  0  0  0  0  0  0  0  0
   -7.9260   18.3940  -32.4380 C   0  0  0  0  0  0  0  0  0  0  0  0
   -6.9940   17.6440  -33.1620 C   0  0  0  0  0  0  0  0  0  0  0  0
   -7.2780   16.2930  -33.4110 O   0  0  0  0  0  0  0  0  0  0  0  0
   -6.4740   15.4340  -34.2140 C   0  0  0  0  0  0  0  0  0  0  0  0
   -5.8160   18.2650  -33.6210 C   0  0  0  0  0  0  0  0  0  0  0  0
   -3.9044   21.2767  -32.0623 H   0  0  0  0  0  0  0  0  0  0  0  0
   -2.7764   21.4850  -33.4446 H   0  0  0  0  0  0  0  0  0  0  0  0
   -4.3623   22.3284  -33.4446 H   0  0  0  0  0  0  0  0  0  0  0  0
   -6.3249   21.4132  -32.3898 H   0  0  0  0  0  0  0  0  0  0  0  0
   -9.7292   20.1120  -31.6225 H   0  0  0  0  0  0  0  0  0  0  0  0
   -8.5011   20.5784  -30.3730 H   0  0  0  0  0  0  0  0  0  0  0  0
   -8.9444   22.0162  -33.0334 H   0  0  0  0  0  0  0  0  0  0  0  0
   -9.5686   22.5524  -31.4205 H   0  0  0  0  0  0  0  0  0  0  0  0
   -5.4608   22.2209  -28.2975 H   0  0  0  0  0  0  0  0  0  0  0  0
   -3.6549   22.6272  -26.6264 H   0  0  0  0  0  0  0  0  0  0  0  0
   -1.8379   24.2654  -27.1156 H   0  0  0  0  0  0  0  0  0  0  0  0
   -3.6269   25.1081  -30.9631 H   0  0  0  0  0  0  0  0  0  0  0  0
   -8.8524   17.9164  -32.0863 H   0  0  0  0  0  0  0  0  0  0  0  0
   -5.8675   14.7861  -33.5641 H   0  0  0  0  0  0  0  0  0  0  0  0
   -7.1225   14.8126  -34.8490 H   0  0  0  0  0  0  0  0  0  0  0  0
   -5.8111   16.0400  -34.8490 H   0  0  0  0  0  0  0  0  0  0  0  0
   -5.0784   17.6830  -34.1931 H   0  0  0  0  0  0  0  0  0  0  0  0
  1  2  1  0
  2  3  1  0
  3  4  2  0
  4  5  1  0
  5  6  1  0
  6  7  1  0
  7  8  1  0
  8  9  2  0
  9 10  1  0
 10 11  1  0
 11 12  2  0
 12 13  1  0
 13 14  2  0
 14 15  1  0
 15 16  1  0
 15 17  2  0
 10 18  2  0
 18 19  1  0
  5 20  2  0
 20 21  1  0
 21 22  1  0
 22 23  1  0
 21 24  2  0
 24  3  1  0
 19  8  1  0
 17 11  1  0
  1 25  1  0
  1 26  1  0
  1 27  1  0
  4 28  1  0
  6 29  1  0
  6 30  1  0
  7 31  1  0
  7 32  1  0
 12 33  1  0
 13 34  1  0
 14 35  1  0
 17 36  1  0
 20 37  1  0
 23 38  1  0
 23 39  1  0
 23 40  1  0
 24 41  1  0
M  CHG  1  16  -1
M  END
>  <UniqueID>  (11) 
11

>  <SMILES>  (11) 
COc1cc(CCc2nc(-c3cccc([O-])c3)no2)cc(OC)c1

>  <Energy>  (11) 
70.69061363226703

>  <Genealogy>  (11) 
COc1cc(CCc2nc(-c3cccc([O-])c3)no2)cc(OC)c1 (protonated)
COc1cc(CCc2nc(-c3cccc([O-])c3)no2)cc(OC)c1 (3D coordinates assigned)
COc1cc(CCc2nc(-c3cccc([O-])c3)no2)cc(OC)c1 (optimized conformer: 70.69061363226703 kcal/mol)

>  <smiles>  (11) 
COc1cc(CCc2nc(-c3cccc(O)c3)no2)cc(OC)c1

>  <score_type>  (11) 
oracle

>  <origin>  (11) 
adgpu

>  <m_score__min__energy>  (11) 
-10.9

>  <m_primary>  (11) 
energy

$$$$
11:0
     RDKit          3D

 54 56  0  0  0  0  0  0  0  0999 V2000
   -6.0770   25.4950  -30.4380 C   0  0  0  0  0  0  0  0  0  0  0  0
   -5.2030   24.3360  -30.7900 C   0  0  0  0  0  0  0  0  0  0  0  0
   -3.9160   24.2200  -30.4090 N   0  0  0  0  0  0  0  0  0  0  0  0
   -3.4130   23.1480  -31.0040 N   0  0  0  0  0  0  0  0  0  0  0  0
   -2.0470   22.6820  -30.8020 C   0  0  0  0  0  0  0  0  0  0  0  0
   -4.3570   22.5630  -31.7740 C   0  0  0  0  0  0  0  0  0  0  0  0
   -4.1550   21.3330  -32.6060 C   0  0  0  0  0  0  0  0  0  0  0  0
   -5.5080   23.3130  -31.6680 C   0  0  0  0  0  0  0  0  0  0  0  0
   -6.7300   23.1410  -32.3880 N   0  0  0  0  0  0  0  0  0  0  0  0
   -7.9280   22.0490  -31.7860 S   0  0  0  0  0  0  0  0  0  0  0  0
   -9.2740   22.4360  -32.3290 O   0  0  0  0  0  0  0  0  0  0  0  0
   -7.9850   22.1130  -30.2860 O   0  0  0  0  0  0  0  0  0  0  0  0
   -7.5210   20.4210  -32.3150 C   0  0  0  0  0  0  0  0  0  0  0  0
   -6.7970   20.2270  -33.4960 C   0  0  0  0  0  0  0  0  0  0  0  0
   -6.4170   18.9410  -33.8860 C   0  0  0  0  0  0  0  0  0  0  0  0
   -6.7500   17.8280  -33.0930 C   0  0  0  0  0  0  0  0  0  0  0  0
   -6.3310   16.4620  -33.5000 C   0  0  0  0  0  0  0  0  0  0  0  0
   -7.2180   15.6210  -34.1930 C   0  0  0  0  0  0  0  0  0  0  0  0
   -6.8270   14.3340  -34.5680 C   0  0  0  0  0  0  0  0  0  0  0  0
   -5.5440   13.8760  -34.2640 C   0  0  0  0  0  0  0  0  0  0  0  0
   -4.6350   14.7010  -33.5940 C   0  0  0  0  0  0  0  0  0  0  0  0
   -3.3600   14.1920  -33.3040 O   0  0  0  0  0  0  0  0  0  0  0  0
   -3.0150   13.4690  -32.1510 C   0  0  0  0  0  0  0  0  0  0  0  0
   -3.8540   13.3010  -31.2260 O   0  0  0  0  0  0  0  0  0  0  0  0
   -1.6820   12.9440  -32.0150 N   0  0  0  0  0  0  0  0  0  0  0  0
   -0.6920   13.2150  -33.0630 C   0  0  0  0  0  0  0  0  0  0  0  0
   -1.3350   12.1380  -30.8430 C   0  0  0  0  0  0  0  0  0  0  0  0
   -5.0400   15.9900  -33.1980 C   0  0  0  0  0  0  0  0  0  0  0  0
   -7.4760   18.0310  -31.9040 C   0  0  0  0  0  0  0  0  0  0  0  0
   -7.8540   19.3190  -31.5180 C   0  0  0  0  0  0  0  0  0  0  0  0
   -6.1444   25.5844  -29.3437 H   0  0  0  0  0  0  0  0  0  0  0  0
   -5.6480   26.4178  -30.8555 H   0  0  0  0  0  0  0  0  0  0  0  0
   -7.0822   25.3363  -30.8555 H   0  0  0  0  0  0  0  0  0  0  0  0
   -1.8394   22.6112  -29.7241 H   0  0  0  0  0  0  0  0  0  0  0  0
   -1.9253   21.6915  -31.2647 H   0  0  0  0  0  0  0  0  0  0  0  0
   -1.3453   23.3916  -31.2647 H   0  0  0  0  0  0  0  0  0  0  0  0
   -4.0123   20.4639  -31.9470 H   0  0  0  0  0  0  0  0  0  0  0  0
   -5.0385   21.1706  -33.2409 H   0  0  0  0  0  0  0  0  0  0  0  0
   -3.2660   21.4617  -33.2409 H   0  0  0  0  0  0  0  0  0  0  0  0
   -6.7190   23.3060  -33.4180 H   0  0  0  0  0  0  0  0  0  0  0  0
   -6.5258   21.0911  -34.1203 H   0  0  0  0  0  0  0  0  0  0  0  0
   -5.8534   18.7975  -34.8197 H   0  0  0  0  0  0  0  0  0  0  0  0
   -8.2278   15.9791  -34.4420 H   0  0  0  0  0  0  0  0  0  0  0  0
   -7.5310   13.6802  -35.1037 H   0  0  0  0  0  0  0  0  0  0  0  0
   -5.2454   12.8577  -34.5538 H   0  0  0  0  0  0  0  0  0  0  0  0
    0.2701   13.4784  -32.5993 H   0  0  0  0  0  0  0  0  0  0  0  0
   -0.5647   12.3187  -33.6878 H   0  0  0  0  0  0  0  0  0  0  0  0
   -1.0390   14.0512  -33.6878 H   0  0  0  0  0  0  0  0  0  0  0  0
   -1.5764   12.6987  -29.9279 H   0  0  0  0  0  0  0  0  0  0  0  0
   -1.9089   11.1997  -30.8603 H   0  0  0  0  0  0  0  0  0  0  0  0
   -0.2590   11.9100  -30.8603 H   0  0  0  0  0  0  0  0  0  0  0  0
   -4.3399   16.6350  -32.6467 H   0  0  0  0  0  0  0  0  0  0  0  0
   -7.7472   17.1701  -31.2752 H   0  0  0  0  0  0  0  0  0  0  0  0
   -8.4156   19.4682  -30.5840 H   0  0  0  0  0  0  0  0  0  0  0  0
  1  2  1  0
  2  3  2  0
  3  4  1  0
  4  5  1  0
  4  6  1  0
  6  7  1  0
  6  8  2  0
  8  9  1  0
  9 10  1  0
 10 11  2  0
 10 12  2  0
 10 13  1  0
 13 14  2  0
 14 15  1  0
 15 16  2  0
 16 17  1  0
 17 18  2  0
 18 19  1  0
 19 20  2  0
 20 21  1  0
 21 22  1  0
 22 23  1  0
 23 24  2  0
 23 25  1  0
 25 26  1  0
 25 27  1  0
 21 28  2  0
 16 29  1  0
 29 30  2  0
  8  2  1  0
 30 13  1  0
 28 17  1  0
  1 31  1  0
  1 32  1  0
  1 33  1  0
  5 34  1  0
  5 35  1  0
  5 36  1  0
  7 37  1  0
  7 38  1  0
  7 39  1  0
  9 40  1  0
 14 41  1  0
 15 42  1  0
 18 43  1  0
 19 44  1  0
 20 45  1  0
 26 46  1  0
 26 47  1  0
 26 48  1  0
 27 49  1  0
 27 50  1  0
 27 51  1  0
 28 52  1  0
 29 53  1  0
 30 54  1  0
M  END
>  <UniqueID>  (12) 
12

>  <SMILES>  (12) 
Cc1nn(C)c(C)c1NS(=O)(=O)c1ccc(-c2cccc(OC(=O)N(C)C)c2)cc1

>  <Energy>  (12) 
96.10604455033702

>  <Genealogy>  (12) 
Cc1nn(C)c(C)c1NS(=O)(=O)c1ccc(-c2cccc(OC(=O)N(C)C)c2)cc1 (3D coordinates assigned)
Cc1nn(C)c(C)c1NS(=O)(=O)c1ccc(-c2cccc(OC(=O)N(C)C)c2)cc1 (optimized conformer: 96.10604455033702 kcal/mol)

>  <smiles>  (12) 
Cc1nn(C)c(C)c1NS(=O)(=O)c1ccc(-c2cccc(OC(=O)N(C)C)c2)cc1

>  <score_type>  (12) 
oracle

>  <origin>  (12) 
adgpu

>  <m_score__min__energy>  (12) 
-9.1400000000000006

>  <m_primary>  (12) 
energy

$$$$
12:0
     RDKit          3D

 42 44  0  0  0  0  0  0  0  0999 V2000
   -7.9030   19.1040  -33.0760 O   0  0  0  0  0  0  0  0  0  0  0  0
   -6.8160   19.6980  -33.3150 C   0  0  0  0  0  0  0  0  0  0  0  0
   -5.9330   19.1840  -34.3260 N   0  0  0  0  0  0  0  0  0  0  0  0
   -6.1170   17.8590  -34.9100 C   0  0  0  0  0  0  0  0  0  0  0  0
   -5.3070   16.8470  -34.1460 C   0  0  0  0  0  0  0  0  0  0  0  0
   -3.9760   17.1130  -33.7930 C   0  0  0  0  0  0  0  0  0  0  0  0
   -3.2350   16.1360  -33.1220 C   0  0  0  0  0  0  0  0  0  0  0  0
   -3.7990   14.9360  -32.8220 N   0  0  0  0  0  0  0  0  0  0  0  0
   -5.0850   14.6500  -33.1580 C   0  0  0  0  0  0  0  0  0  0  0  0
   -5.8620   15.5990  -33.8270 C   0  0  0  0  0  0  0  0  0  0  0  0
   -6.4420   20.8780  -32.5040 C   0  0  0  0  0  0  0  0  0  0  0  0
   -5.0870   21.2210  -32.3570 C   0  0  0  0  0  0  0  0  0  0  0  0
   -4.7220   22.3880  -31.6820 C   0  0  0  0  0  0  0  0  0  0  0  0
   -5.7020   23.2230  -31.1350 C   0  0  0  0  0  0  0  0  0  0  0  0
   -5.2360   24.7740  -30.4470 S   0  0  0  0  0  0  0  0  0  0  0  0
   -5.7190   24.8400  -29.0260 O   0  0  0  0  0  0  0  0  0  0  0  0
   -5.8660   25.9020  -31.2180 O   0  0  0  0  0  0  0  0  0  0  0  0
   -3.5030   24.9400  -30.4710 N   0  0  0  0  0  0  0  0  0  0  0  0
   -2.8790   24.1590  -29.4000 C   0  0  0  0  0  0  0  0  0  0  0  0
   -2.0620   25.0360  -28.4990 C   0  0  0  0  0  0  0  0  0  0  0  0
   -1.9230   24.8920  -27.1330 C   0  0  0  0  0  0  0  0  0  0  0  0
   -1.0810   25.9110  -26.7380 C   0  0  0  0  0  0  0  0  0  0  0  0
   -0.7690   26.6160  -27.8820 C   0  0  0  0  0  0  0  0  0  0  0  0
   -1.3710   26.0720  -28.9150 O   0  0  0  0  0  0  0  0  0  0  0  0
   -7.0530   22.8600  -31.2320 C   0  0  0  0  0  0  0  0  0  0  0  0
   -7.4210   21.6950  -31.9080 C   0  0  0  0  0  0  0  0  0  0  0  0
   -5.0370   19.6780  -34.5370 H   0  0  0  0  0  0  0  0  0  0  0  0
   -7.1812   17.5845  -34.8641 H   0  0  0  0  0  0  0  0  0  0  0  0
   -5.7826   17.8749  -35.9578 H   0  0  0  0  0  0  0  0  0  0  0  0
   -3.5191   18.0821  -34.0420 H   0  0  0  0  0  0  0  0  0  0  0  0
   -2.1924   16.3387  -32.8359 H   0  0  0  0  0  0  0  0  0  0  0  0
   -5.5143   13.6699  -32.9027 H   0  0  0  0  0  0  0  0  0  0  0  0
   -6.9020   15.3690  -34.1017 H   0  0  0  0  0  0  0  0  0  0  0  0
   -4.3089   20.5661  -32.7763 H   0  0  0  0  0  0  0  0  0  0  0  0
   -3.6590   22.6517  -31.5800 H   0  0  0  0  0  0  0  0  0  0  0  0
   -3.6656   23.6687  -28.8076 H   0  0  0  0  0  0  0  0  0  0  0  0
   -2.2146   23.4098  -29.8551 H   0  0  0  0  0  0  0  0  0  0  0  0
   -2.3862   24.1259  -26.4939 H   0  0  0  0  0  0  0  0  0  0  0  0
   -0.7293   26.1193  -25.7168 H   0  0  0  0  0  0  0  0  0  0  0  0
   -0.1152   27.4997  -27.9229 H   0  0  0  0  0  0  0  0  0  0  0  0
   -7.8255   23.4952  -30.7740 H   0  0  0  0  0  0  0  0  0  0  0  0
   -8.4824   21.4140  -31.9752 H   0  0  0  0  0  0  0  0  0  0  0  0
  1  2  2  0
  2  3  1  0
  3  4  1  0
  4  5  1  0
  5  6  2  0
  6  7  1  0
  7  8  2  0
  8  9  1  0
  9 10  2  0
  2 11  1  0
 11 12  2  0
 12 13  1  0
 13 14  2  0
 14 15  1  0
 15 16  2  0
 15 17  2  0
 15 18  1  0
 18 19  1  0
 19 20  1  0
 20 21  2  0
 21 22  1  0
 22 23  2  0
 23 24  1  0
 14 25  1  0
 25 26  2  0
 10  5  1  0
 26 11  1  0
 24 20  1  0
  3 27  1  0
  4 28  1  0
  4 29  1  0
  6 30  1  0
  7 31  1  0
  9 32  1  0
 10 33  1  0
 12 34  1  0
 13 35  1  0
 19 36  1  0
 19 37  1  0
 21 38  1  0
 22 39  1  0
 23 40  1  0
 25 41  1  0
 26 42  1  0
M  CHG  1  18  -1
M  END
>  <UniqueID>  (13) 
13

>  <SMILES>  (13) 
O=C(NCc1ccncc1)c1ccc(S(=O)(=O)[N-]Cc2ccco2)cc1

>  <Energy>  (13) 
66.53147563950725

>  <Genealogy>  (13) 
O=C(NCc1ccncc1)c1ccc(S(=O)(=O)[N-]Cc2ccco2)cc1 (protonated)
O=C(NCc1ccncc1)c1ccc(S(=O)(=O)[N-]Cc2ccco2)cc1 (3D coordinates assigned)
O=C(NCc1ccncc1)c1ccc(S(=O)(=O)[N-]Cc2ccco2)cc1 (optimized conformer: 66.53147563950725 kcal/mol)

>  <smiles>  (13) 
O=C(NCc1ccncc1)c1ccc(S(=O)(=O)NCc2ccco2)cc1

>  <score_type>  (13) 
oracle

>  <origin>  (13) 
adgpu

>  <m_score__min__energy>  (13) 
-10.49

>  <m_primary>  (13) 
energy

$$$$
13:0
     RDKit          3D

 43 45  0  0  0  0  0  0  0  0999 V2000
   -3.4760   25.2780  -30.4730 O   0  0  0  0  0  0  0  0  0  0  0  0
   -3.5190   24.0670  -30.1290 C   0  0  0  0  0  0  0  0  0  0  0  0
   -3.0930   23.7130  -28.8540 O   0  0  0  0  0  0  0  0  0  0  0  0
   -4.0130   23.0360  -31.0670 C   0  0  0  0  0  0  0  0  0  0  0  0
   -3.3190   21.8230  -31.2160 C   0  0  0  0  0  0  0  0  0  0  0  0
   -3.7860   20.8440  -32.0990 C   0  0  0  0  0  0  0  0  0  0  0  0
   -4.9470   21.0650  -32.8530 C   0  0  0  0  0  0  0  0  0  0  0  0
   -5.4720   19.9870  -33.7620 C   0  0  0  0  0  0  0  0  0  0  0  0
   -5.5000   18.6990  -33.0610 N   0  0  0  0  0  0  0  0  0  0  0  0
   -4.4250   17.7550  -33.2150 C   0  0  0  0  0  0  0  0  0  0  0  0
   -3.1970   18.1630  -33.7600 C   0  0  0  0  0  0  0  0  0  0  0  0
   -2.1410   17.2560  -33.8860 C   0  0  0  0  0  0  0  0  0  0  0  0
   -2.3000   15.9310  -33.4680 C   0  0  0  0  0  0  0  0  0  0  0  0
   -1.2390   15.0370  -33.5970 O   0  0  0  0  0  0  0  0  0  0  0  0
   -3.5220   15.5150  -32.9230 C   0  0  0  0  0  0  0  0  0  0  0  0
   -4.5780   16.4230  -32.7960 C   0  0  0  0  0  0  0  0  0  0  0  0
   -6.8750   18.2950  -32.0750 S   0  0  0  0  0  0  0  0  0  0  0  0
   -6.4230   17.7850  -30.7360 O   0  0  0  0  0  0  0  0  0  0  0  0
   -7.6750   17.2260  -32.7640 O   0  0  0  0  0  0  0  0  0  0  0  0
   -7.8540   19.7360  -31.8170 C   0  0  0  0  0  0  0  0  0  0  0  0
   -7.4170   20.7190  -30.9190 C   0  0  0  0  0  0  0  0  0  0  0  0
   -8.1770   21.8740  -30.7170 C   0  0  0  0  0  0  0  0  0  0  0  0
   -9.3780   22.0510  -31.4090 C   0  0  0  0  0  0  0  0  0  0  0  0
   -9.8210   21.0730  -32.3020 C   0  0  0  0  0  0  0  0  0  0  0  0
   -9.0610   19.9160  -32.5080 C   0  0  0  0  0  0  0  0  0  0  0  0
   -5.6470   22.2710  -32.7010 C   0  0  0  0  0  0  0  0  0  0  0  0
   -5.1830   23.2500  -31.8170 C   0  0  0  0  0  0  0  0  0  0  0  0
   -2.4029   21.6424  -30.6346 H   0  0  0  0  0  0  0  0  0  0  0  0
   -3.2392   19.8952  -32.2024 H   0  0  0  0  0  0  0  0  0  0  0  0
   -6.4913   20.2476  -34.0830 H   0  0  0  0  0  0  0  0  0  0  0  0
   -4.8110   19.9037  -34.6373 H   0  0  0  0  0  0  0  0  0  0  0  0
   -3.0651   19.2039  -34.0902 H   0  0  0  0  0  0  0  0  0  0  0  0
   -1.1830   17.5851  -34.3148 H   0  0  0  0  0  0  0  0  0  0  0  0
   -0.9830   14.6470  -34.4960 H   0  0  0  0  0  0  0  0  0  0  0  0
   -3.6508   14.4731  -32.5947 H   0  0  0  0  0  0  0  0  0  0  0  0
   -5.5345   16.0920  -32.3653 H   0  0  0  0  0  0  0  0  0  0  0  0
   -6.4729   20.5810  -30.3715 H   0  0  0  0  0  0  0  0  0  0  0  0
   -7.8297   22.6444  -30.0128 H   0  0  0  0  0  0  0  0  0  0  0  0
   -9.9749   22.9613  -31.2502 H   0  0  0  0  0  0  0  0  0  0  0  0
  -10.7681   21.2121  -32.8439 H   0  0  0  0  0  0  0  0  0  0  0  0
   -9.4107   19.1471  -33.2126 H   0  0  0  0  0  0  0  0  0  0  0  0
   -6.5655   22.4475  -33.2801 H   0  0  0  0  0  0  0  0  0  0  0  0
   -5.7370   24.1940  -31.7075 H   0  0  0  0  0  0  0  0  0  0  0  0
  1  2  2  0
  2  3  1  0
  2  4  1  0
  4  5  2  0
  5  6  1  0
  6  7  2  0
  7  8  1  0
  8  9  1  0
  9 10  1  0
 10 11  2  0
 11 12  1  0
 12 13  2  0
 13 14  1  0
 13 15  1  0
 15 16  2  0
  9 17  1  0
 17 18  2  0
 17 19  2  0
 17 20  1  0
 20 21  2  0
 21 22  1  0
 22 23  2  0
 23 24  1  0
 24 25  2  0
  7 26  1  0
 26 27  2  0
 27  4  1  0
 16 10  1  0
 25 20  1  0
  5 28  1  0
  6 29  1  0
  8 30  1  0
  8 31  1  0
 11 32  1  0
 12 33  1  0
 14 34  1  0
 15 35  1  0
 16 36  1  0
 21 37  1  0
 22 38  1  0
 23 39  1  0
 24 40  1  0
 25 41  1  0
 26 42  1  0
 27 43  1  0
M  CHG  1   3  -1
M  END
>  <UniqueID>  (14) 
14

>  <SMILES>  (14) 
O=C([O-])c1ccc(CN(c2ccc(O)cc2)S(=O)(=O)c2ccccc2)cc1

>  <Energy>  (14) 
49.38382366188895

>  <Genealogy>  (14) 
O=C([O-])c1ccc(CN(c2ccc(O)cc2)S(=O)(=O)c2ccccc2)cc1 (protonated)
O=C([O-])c1ccc(CN(c2ccc(O)cc2)S(=O)(=O)c2ccccc2)cc1 (3D coordinates assigned)
O=C([O-])c1ccc(CN(c2ccc(O)cc2)S(=O)(=O)c2ccccc2)cc1 (optimized conformer: 49.38382366188895 kcal/mol)

>  <smiles>  (14) 
O=C(O)c1ccc(CN(c2ccc(O)cc2)S(=O)(=O)c2ccccc2)cc1

>  <score_type>  (14) 
oracle

>  <origin>  (14) 
adgpu

>  <m_score__min__energy>  (14) 
-9.5899999999999999

>  <m_primary>  (14) 
energy

$$$$
14:0
     RDKit          3D

 64 67  0  0  0  0  0  0  0  0999 V2000
   -5.7960   25.2090  -30.1110 C   0  0  0  0  0  0  0  0  0  0  0  0
   -5.0030   24.7350  -31.1760 O   0  0  0  0  0  0  0  0  0  0  0  0
   -5.7020   23.7180  -31.8630 C   0  0  0  0  0  0  0  0  0  0  0  0
   -6.9330   23.3190  -31.0520 C   0  0  0  0  0  0  0  0  0  0  0  0
   -8.0890   23.1600  -31.9380 N   0  0  0  0  0  0  0  0  0  0  0  0
   -8.9030   21.6640  -31.5870 S   0  0  0  0  0  0  0  0  0  0  0  0
  -10.2110   21.6330  -32.3290 O   0  0  0  0  0  0  0  0  0  0  0  0
   -9.1940   21.5640  -30.1130 O   0  0  0  0  0  0  0  0  0  0  0  0
   -7.9200   20.2940  -32.0990 C   0  0  0  0  0  0  0  0  0  0  0  0
   -8.4210   18.9910  -31.9830 C   0  0  0  0  0  0  0  0  0  0  0  0
   -7.6470   17.9040  -32.3940 C   0  0  0  0  0  0  0  0  0  0  0  0
   -6.3660   18.1100  -32.9120 C   0  0  0  0  0  0  0  0  0  0  0  0
   -5.8400   19.4050  -33.0160 C   0  0  0  0  0  0  0  0  0  0  0  0
   -4.5250   19.5640  -33.5800 N   0  0  0  0  0  0  0  0  0  0  0  0
   -3.5480   20.2930  -33.1250 C   0  0  0  0  0  0  0  0  0  0  0  0
   -2.3820   20.3430  -33.8170 N   0  0  0  0  0  0  0  0  0  0  0  0
   -1.3360   21.0760  -33.3540 C   0  0  0  0  0  0  0  0  0  0  0  0
   -0.1050   21.1250  -34.0900 N   0  0  0  0  0  0  0  0  0  0  0  0
    0.0920   21.9520  -35.2650 C   0  0  0  0  0  0  0  0  0  0  0  0
    1.4660   21.5740  -35.8050 C   0  0  0  0  0  0  0  0  0  0  0  0
    2.1730   20.8280  -34.6750 C   0  0  0  0  0  0  0  0  0  0  0  0
    1.0750   20.3600  -33.7280 C   0  0  0  0  0  0  0  0  0  0  0  0
   -1.4640   21.7660  -32.1900 N   0  0  0  0  0  0  0  0  0  0  0  0
   -2.6250   21.7190  -31.4840 C   0  0  0  0  0  0  0  0  0  0  0  0
   -2.7640   22.4680  -30.2610 N   0  0  0  0  0  0  0  0  0  0  0  0
   -1.6740   23.3300  -29.7790 C   0  0  0  0  0  0  0  0  0  0  0  0
   -2.2560   24.5420  -29.0390 C   0  0  0  0  0  0  0  0  0  0  0  0
   -3.2340   24.1850  -27.9740 N   0  0  0  0  0  0  0  0  0  0  0  0
   -2.7210   24.5300  -26.6370 C   0  0  0  0  0  0  0  0  0  0  0  0
   -3.6870   22.7770  -27.9930 C   0  0  0  0  0  0  0  0  0  0  0  0
   -3.9540   22.2880  -29.4210 C   0  0  0  0  0  0  0  0  0  0  0  0
   -3.6570   20.9730  -31.9550 N   0  0  0  0  0  0  0  0  0  0  0  0
   -6.6410   20.5020  -32.6370 C   0  0  0  0  0  0  0  0  0  0  0  0
   -5.3298   24.9303  -29.1544 H   0  0  0  0  0  0  0  0  0  0  0  0
   -5.8777   26.3042  -30.1738 H   0  0  0  0  0  0  0  0  0  0  0  0
   -6.7993   24.7623  -30.1738 H   0  0  0  0  0  0  0  0  0  0  0  0
   -6.0159   24.0893  -32.8497 H   0  0  0  0  0  0  0  0  0  0  0  0
   -5.0473   22.8440  -31.9952 H   0  0  0  0  0  0  0  0  0  0  0  0
   -6.7363   22.3676  -30.5361 H   0  0  0  0  0  0  0  0  0  0  0  0
   -7.1496   24.1063  -30.3149 H   0  0  0  0  0  0  0  0  0  0  0  0
   -8.7680   23.9270  -31.7250 H   0  0  0  0  0  0  0  0  0  0  0  0
   -9.4257   18.8239  -31.5675 H   0  0  0  0  0  0  0  0  0  0  0  0
   -8.0469   16.8827  -32.3097 H   0  0  0  0  0  0  0  0  0  0  0  0
   -5.7654   17.2491  -33.2408 H   0  0  0  0  0  0  0  0  0  0  0  0
   -0.6857   21.7454  -36.0150 H   0  0  0  0  0  0  0  0  0  0  0  0
    0.0294   23.0235  -35.0243 H   0  0  0  0  0  0  0  0  0  0  0  0
    1.3644   20.9243  -36.6868 H   0  0  0  0  0  0  0  0  0  0  0  0
    2.0339   22.4626  -36.1178 H   0  0  0  0  0  0  0  0  0  0  0  0
    2.7264   19.9653  -35.0744 H   0  0  0  0  0  0  0  0  0  0  0  0
    2.9005   21.4728  -34.1604 H   0  0  0  0  0  0  0  0  0  0  0  0
    0.8894   19.2835  -33.8574 H   0  0  0  0  0  0  0  0  0  0  0  0
    1.3528   20.5141  -32.6749 H   0  0  0  0  0  0  0  0  0  0  0  0
   -1.0321   22.7575  -29.0933 H   0  0  0  0  0  0  0  0  0  0  0  0
   -1.0817   23.6796  -30.6374 H   0  0  0  0  0  0  0  0  0  0  0  0
   -1.4264   25.0964  -28.5760 H   0  0  0  0  0  0  0  0  0  0  0  0
   -2.7995   25.1410  -29.7845 H   0  0  0  0  0  0  0  0  0  0  0  0
   -3.3744   24.0906  -25.8689 H   0  0  0  0  0  0  0  0  0  0  0  0
   -1.7015   24.1333  -26.5218 H   0  0  0  0  0  0  0  0  0  0  0  0
   -2.7040   25.6238  -26.5218 H   0  0  0  0  0  0  0  0  0  0  0  0
   -2.9087   22.1457  -27.5394 H   0  0  0  0  0  0  0  0  0  0  0  0
   -4.6272   22.7110  -27.4259 H   0  0  0  0  0  0  0  0  0  0  0  0
   -4.2189   21.2207  -29.3938 H   0  0  0  0  0  0  0  0  0  0  0  0
   -4.7806   22.8752  -29.8476 H   0  0  0  0  0  0  0  0  0  0  0  0
   -6.2610   21.5264  -32.7639 H   0  0  0  0  0  0  0  0  0  0  0  0
  1  2  1  0
  2  3  1  0
  3  4  1  0
  4  5  1  0
  5  6  1  0
  6  7  2  0
  6  8  2  0
  6  9  1  0
  9 10  2  0
 10 11  1  0
 11 12  2  0
 12 13  1  0
 13 14  1  0
 14 15  2  3
 15 16  1  0
 16 17  2  0
 17 18  1  0
 18 19  1  0
 19 20  1  0
 20 21  1  0
 21 22  1  0
 17 23  1  0
 23 24  1  0
 24 25  1  0
 25 26  1  0
 26 27  1  0
 27 28  1  0
 28 29  1  0
 28 30  1  0
 30 31  1  0
 24 32  2  0
 13 33  2  0
 33  9  1  0
 32 15  1  0
 22 18  1  0
 31 25  1  0
  1 34  1  0
  1 35  1  0
  1 36  1  0
  3 37  1  0
  3 38  1  0
  4 39  1  0
  4 40  1  0
  5 41  1  0
 10 42  1  0
 11 43  1  0
 12 44  1  0
 19 45  1  0
 19 46  1  0
 20 47  1  0
 20 48  1  0
 21 49  1  0
 21 50  1  0
 22 51  1  0
 22 52  1  0
 26 53  1  0
 26 54  1  0
 27 55  1  0
 27 56  1  0
 29 57  1  0
 29 58  1  0
 29 59  1  0
 30 60  1  0
 30 61  1  0
 31 62  1  0
 31 63  1  0
 33 64  1  0
M  CHG  1  23  -1
M  END
>  <UniqueID>  (15) 
15

>  <SMILES>  (15) 
COCCNS(=O)(=O)c1cccc(N=c2nc(N3CCCC3)[n-]c(N3CCN(C)CC3)n2)c1

>  <Energy>  (15) 
71.56688837814353

>  <Genealogy>  (15) 
COCCNS(=O)(=O)c1cccc(N=c2nc(N3CCCC3)[n-]c(N3CCN(C)CC3)n2)c1 (protonated)
COCCNS(=O)(=O)c1cccc(N=c2nc(N3CCCC3)[n-]c(N3CCN(C)CC3)n2)c1 (3D coordinates assigned)
COCCNS(=O)(=O)c1cccc(N=c2nc(N3CCCC3)[n-]c(N3CCN(C)CC3)n2)c1 (nonaromatic ring conformer: 71.56688837814353 kcal/mol)

>  <smiles>  (15) 
COCCNS(=O)(=O)c1cccc(N=c2nc(N3CCCC3)[nH]c(N3CCN(C)CC3)n2)c1

>  <score_type>  (15) 
oracle

>  <origin>  (15) 
adgpu

>  <m_score__min__energy>  (15) 
-10.029999999999999

>  <m_primary>  (15) 
energy

$$$$
15:0
     RDKit          3D

 50 52  0  0  0  0  0  0  0  0999 V2000
   -6.0800   17.5830  -34.5440 C   0  0  0  0  0  0  0  0  0  0  0  0
   -4.8600   18.3640  -34.1540 C   0  0  0  0  0  0  0  0  0  0  0  0
   -4.9890   19.6570  -33.6240 C   0  0  0  0  0  0  0  0  0  0  0  0
   -3.8540   20.3720  -33.2260 C   0  0  0  0  0  0  0  0  0  0  0  0
   -2.5810   19.7980  -33.3470 C   0  0  0  0  0  0  0  0  0  0  0  0
   -1.1560   20.6870  -32.8240 S   0  0  0  0  0  0  0  0  0  0  0  0
    0.0410   19.7780  -32.8150 O   0  0  0  0  0  0  0  0  0  0  0  0
   -0.8800   21.8220  -33.7690 O   0  0  0  0  0  0  0  0  0  0  0  0
   -1.4270   21.3170  -31.2130 C   0  0  0  0  0  0  0  0  0  0  0  0
   -1.1700   20.5420  -30.1290 N   0  0  0  0  0  0  0  0  0  0  0  0
   -1.3520   21.0200  -28.8730 C   0  0  0  0  0  0  0  0  0  0  0  0
   -1.8120   22.3240  -28.6770 C   0  0  0  0  0  0  0  0  0  0  0  0
   -1.9310   22.9430  -27.0330 Cl  0  0  0  0  0  0  0  0  0  0  0  0
   -2.0930   23.1090  -29.8110 C   0  0  0  0  0  0  0  0  0  0  0  0
   -2.6030   24.4910  -29.7140 C   0  0  0  0  0  0  0  0  0  0  0  0
   -1.9860   25.3160  -28.9900 O   0  0  0  0  0  0  0  0  0  0  0  0
   -3.7790   24.9260  -30.4100 N   0  0  0  0  0  0  0  0  0  0  0  0
   -4.9350   24.1300  -30.7080 C   0  0  0  0  0  0  0  0  0  0  0  0
   -6.0160   24.1510  -29.8180 C   0  0  0  0  0  0  0  0  0  0  0  0
   -7.1600   23.3920  -30.0780 C   0  0  0  0  0  0  0  0  0  0  0  0
   -7.2400   22.6110  -31.2380 C   0  0  0  0  0  0  0  0  0  0  0  0
   -8.6950   21.6710  -31.5630 S   0  0  0  0  0  0  0  0  0  0  0  0
   -9.6230   22.5000  -32.4080 O   0  0  0  0  0  0  0  0  0  0  0  0
   -9.3910   21.3420  -30.2700 O   0  0  0  0  0  0  0  0  0  0  0  0
   -8.2760   20.2040  -32.4130 N   0  0  0  0  0  0  0  0  0  0  0  0
   -7.3860   19.3900  -31.5760 C   0  0  0  0  0  0  0  0  0  0  0  0
   -9.5010   19.4550  -32.7200 C   0  0  0  0  0  0  0  0  0  0  0  0
   -6.1740   22.6110  -32.1470 C   0  0  0  0  0  0  0  0  0  0  0  0
   -5.0290   23.3710  -31.8890 C   0  0  0  0  0  0  0  0  0  0  0  0
   -1.8760   22.5870  -31.0480 N   0  0  0  0  0  0  0  0  0  0  0  0
   -2.4530   18.4960  -33.8500 C   0  0  0  0  0  0  0  0  0  0  0  0
   -3.5870   17.7810  -34.2480 C   0  0  0  0  0  0  0  0  0  0  0  0
   -6.6053   17.2467  -33.6379 H   0  0  0  0  0  0  0  0  0  0  0  0
   -6.7489   18.2212  -35.1400 H   0  0  0  0  0  0  0  0  0  0  0  0
   -5.7804   16.7084  -35.1400 H   0  0  0  0  0  0  0  0  0  0  0  0
   -5.9861   20.1101  -33.5211 H   0  0  0  0  0  0  0  0  0  0  0  0
   -3.9611   21.3875  -32.8170 H   0  0  0  0  0  0  0  0  0  0  0  0
   -1.1366   20.3785  -28.0058 H   0  0  0  0  0  0  0  0  0  0  0  0
   -5.9642   24.7685  -28.9091 H   0  0  0  0  0  0  0  0  0  0  0  0
   -8.0009   23.4079  -29.3691 H   0  0  0  0  0  0  0  0  0  0  0  0
   -7.6000   19.5857  -30.5149 H   0  0  0  0  0  0  0  0  0  0  0  0
   -7.5517   18.3244  -31.7930 H   0  0  0  0  0  0  0  0  0  0  0  0
   -6.3394   19.6499  -31.7930 H   0  0  0  0  0  0  0  0  0  0  0  0
   -9.9919   19.1548  -31.7825 H   0  0  0  0  0  0  0  0  0  0  0  0
  -10.1829   20.0908  -33.3038 H   0  0  0  0  0  0  0  0  0  0  0  0
   -9.2459   18.5583  -33.3038 H   0  0  0  0  0  0  0  0  0  0  0  0
   -6.2380   22.0111  -33.0668 H   0  0  0  0  0  0  0  0  0  0  0  0
   -4.1994   23.3755  -32.6114 H   0  0  0  0  0  0  0  0  0  0  0  0
   -1.4575   18.0352  -33.9319 H   0  0  0  0  0  0  0  0  0  0  0  0
   -3.4807   16.7573  -34.6364 H   0  0  0  0  0  0  0  0  0  0  0  0
  1  2  1  0
  2  3  2  0
  3  4  1  0
  4  5  2  0
  5  6  1  0
  6  7  2  0
  6  8  2  0
  6  9  1  0
  9 10  2  0
 10 11  1  0
 11 12  2  0
 12 13  1  0
 12 14  1  0
 14 15  1  0
 15 16  2  0
 15 17  1  0
 17 18  1  0
 18 19  2  0
 19 20  1  0
 20 21  2  0
 21 22  1  0
 22 23  2  0
 22 24  2  0
 22 25  1  0
 25 26  1  0
 25 27  1  0
 21 28  1  0
 28 29  2  0
 14 30  2  0
  5 31  1  0
 31 32  2  0
 32  2  1  0
 30  9  1  0
 29 18  1  0
  1 33  1  0
  1 34  1  0
  1 35  1  0
  3 36  1  0
  4 37  1  0
 11 38  1  0
 19 39  1  0
 20 40  1  0
 26 41  1  0
 26 42  1  0
 26 43  1  0
 27 44  1  0
 27 45  1  0
 27 46  1  0
 28 47  1  0
 29 48  1  0
 31 49  1  0
 32 50  1  0
M  CHG  1  17  -1
M  END
>  <UniqueID>  (16) 
16

>  <SMILES>  (16) 
Cc1ccc(S(=O)(=O)c2ncc(Cl)c(C(=O)[N-]c3ccc(S(=O)(=O)N(C)C)cc3)n2)cc1

>  <Energy>  (16) 
60.94161963799892

>  <Genealogy>  (16) 
Cc1ccc(S(=O)(=O)c2ncc(Cl)c(C(=O)[N-]c3ccc(S(=O)(=O)N(C)C)cc3)n2)cc1 (protonated)
Cc1ccc(S(=O)(=O)c2ncc(Cl)c(C(=O)[N-]c3ccc(S(=O)(=O)N(C)C)cc3)n2)cc1 (3D coordinates assigned)
Cc1ccc(S(=O)(=O)c2ncc(Cl)c(C(=O)[N-]c3ccc(S(=O)(=O)N(C)C)cc3)n2)cc1 (optimized conformer: 60.94161963799892 kcal/mol)

>  <smiles>  (16) 
Cc1ccc(S(=O)(=O)c2ncc(Cl)c(C(=O)Nc3ccc(S(=O)(=O)N(C)C)cc3)n2)cc1

>  <score_type>  (16) 
oracle

>  <origin>  (16) 
adgpu

>  <m_score__min__energy>  (16) 
-11.609999999999999

>  <m_primary>  (16) 
energy

$$$$
16:0
     RDKit          3D

 50 53  0  0  0  0  0  0  0  0999 V2000
   -5.4150   25.5160  -31.6130 H   0  0  0  0  0  0  0  0  0  0  0  0
   -4.7640   25.6630  -30.8080 N   0  0  0  0  0  0  0  0  0  0  0  0
   -3.8650   24.7870  -30.5000 C   0  0  0  0  0  0  0  0  0  0  0  0
   -3.0370   25.0120  -29.4490 N   0  0  0  0  0  0  0  0  0  0  0  0
   -2.0830   24.1100  -29.0920 C   0  0  0  0  0  0  0  0  0  0  0  0
   -1.1890   24.4110  -27.9490 C   0  0  0  0  0  0  0  0  0  0  0  0
   -0.7620   23.3580  -27.1200 C   0  0  0  0  0  0  0  0  0  0  0  0
   -1.0906   22.3298  -27.3316 H   0  0  0  0  0  0  0  0  0  0  0  0
    0.0760   23.6070  -26.0300 C   0  0  0  0  0  0  0  0  0  0  0  0
    0.3989   22.7769  -25.3845 H   0  0  0  0  0  0  0  0  0  0  0  0
    0.5040   24.9080  -25.7590 C   0  0  0  0  0  0  0  0  0  0  0  0
    1.1565   25.1035  -24.8953 H   0  0  0  0  0  0  0  0  0  0  0  0
    0.1040   25.9610  -26.5840 C   0  0  0  0  0  0  0  0  0  0  0  0
    0.4461   26.9841  -26.3691 H   0  0  0  0  0  0  0  0  0  0  0  0
   -0.7320   25.7220  -27.6860 C   0  0  0  0  0  0  0  0  0  0  0  0
   -1.0830   26.7780  -28.5260 O   0  0  0  0  0  0  0  0  0  0  0  0
   -1.9900   26.8220  -28.9750 H   0  0  0  0  0  0  0  0  0  0  0  0
   -1.9370   22.9350  -29.8440 C   0  0  0  0  0  0  0  0  0  0  0  0
   -1.1567   22.2024  -29.5901 H   0  0  0  0  0  0  0  0  0  0  0  0
   -2.8020   22.7090  -30.9250 C   0  0  0  0  0  0  0  0  0  0  0  0
   -2.7020   21.4750  -31.7450 C   0  0  0  0  0  0  0  0  0  0  0  0
   -3.2200   21.4590  -33.0530 C   0  0  0  0  0  0  0  0  0  0  0  0
   -3.7045   22.3601  -33.4572 H   0  0  0  0  0  0  0  0  0  0  0  0
   -3.1260   20.3130  -33.8430 C   0  0  0  0  0  0  0  0  0  0  0  0
   -3.5402   20.3180  -34.8620 H   0  0  0  0  0  0  0  0  0  0  0  0
   -2.5110   19.1600  -33.3520 C   0  0  0  0  0  0  0  0  0  0  0  0
   -2.4530   18.0330  -34.1890 O   0  0  0  0  0  0  0  0  0  0  0  0
   -3.5650   17.2120  -34.5480 C   0  0  0  0  0  0  0  0  0  0  0  0
   -3.8033   17.3725  -35.6098 H   0  0  0  0  0  0  0  0  0  0  0  0
   -3.2977   16.1601  -34.3691 H   0  0  0  0  0  0  0  0  0  0  0  0
   -4.7730   17.5500  -33.7150 C   0  0  0  0  0  0  0  0  0  0  0  0
   -5.0070   16.8960  -32.4930 C   0  0  0  0  0  0  0  0  0  0  0  0
   -4.3024   16.1295  -32.1380 H   0  0  0  0  0  0  0  0  0  0  0  0
   -6.1320   17.2160  -31.7270 C   0  0  0  0  0  0  0  0  0  0  0  0
   -6.3063   16.7060  -30.7681 H   0  0  0  0  0  0  0  0  0  0  0  0
   -7.0350   18.1820  -32.1770 C   0  0  0  0  0  0  0  0  0  0  0  0
   -7.9175   18.4348  -31.5710 H   0  0  0  0  0  0  0  0  0  0  0  0
   -6.8170   18.8270  -33.3970 C   0  0  0  0  0  0  0  0  0  0  0  0
   -7.5307   19.5845  -33.7530 H   0  0  0  0  0  0  0  0  0  0  0  0
   -5.6930   18.5110  -34.1660 C   0  0  0  0  0  0  0  0  0  0  0  0
   -5.5283   19.0172  -35.1286 H   0  0  0  0  0  0  0  0  0  0  0  0
   -1.9770   19.1690  -32.0510 C   0  0  0  0  0  0  0  0  0  0  0  0
   -1.4764   18.2695  -31.6634 H   0  0  0  0  0  0  0  0  0  0  0  0
   -2.0750   20.3150  -31.2380 C   0  0  0  0  0  0  0  0  0  0  0  0
   -1.5800   20.3250  -29.9220 O   0  0  0  0  0  0  0  0  0  0  0  0
   -0.3260   19.7830  -29.5220 C   0  0  0  0  0  0  0  0  0  0  0  0
   -0.2705   19.7590  -28.4237 H   0  0  0  0  0  0  0  0  0  0  0  0
   -0.2256   18.7611  -29.9166 H   0  0  0  0  0  0  0  0  0  0  0  0
    0.4871   20.4100  -29.9166 H   0  0  0  0  0  0  0  0  0  0  0  0
   -3.7450   23.6430  -31.2240 N   0  0  0  0  0  0  0  0  0  0  0  0
  1  2  1  0
  2  3  2  0
  3  4  1  0
  4  5  2  0
  5  6  1  0
  6  7  2  0
  7  8  1  0
  7  9  1  0
  9 10  1  0
  9 11  2  0
 11 12  1  0
 11 13  1  0
 13 14  1  0
 13 15  2  0
 15 16  1  0
 16 17  1  0
  5 18  1  0
 18 19  1  0
 18 20  2  0
 20 21  1  0
 21 22  2  0
 22 23  1  0
 22 24  1  0
 24 25  1  0
 24 26  2  0
 26 27  1  0
 27 28  1  0
 28 29  1  0
 28 30  1  0
 28 31  1  0
 31 32  2  0
 32 33  1  0
 32 34  1  0
 34 35  1  0
 34 36  2  0
 36 37  1  0
 36 38  1  0
 38 39  1  0
 38 40  2  0
 40 41  1  0
 26 42  1  0
 42 43  1  0
 42 44  2  0
 44 45  1  0
 45 46  1  0
 46 47  1  0
 46 48  1  0
 46 49  1  0
 20 50  1  0
 50  3  1  0
 15  6  1  0
 44 21  1  0
 40 31  1  0
M  CHG  1  50  -1
M  END
>  <UniqueID>  (17) 
17

>  <SMILES>  (17) 
[H]/N=c1/nc(-c2ccccc2O)cc(-c2ccc(OCc3ccccc3)cc2OC)[n-]1

>  <Energy>  (17) 
64.64971523344835

>  <Genealogy>  (17) 
COc1cc(OCc2ccccc2)ccc1-c1cc(-c2ccccc2O)nc(=N)[n-]1 (protonated)
[H]/N=c1/nc(-c2ccccc2O)cc(-c2ccc(OCc3ccccc3)cc2OC)[n-]1 (cis-trans isomerization)
[H]/N=c1/nc(-c2ccccc2O)cc(-c2ccc(OCc3ccccc3)cc2OC)[n-]1 (3D coordinates assigned)
[H]/N=c1/nc(-c2ccccc2O)cc(-c2ccc(OCc3ccccc3)cc2OC)[n-]1 (optimized conformer: 64.64971523344835 kcal/mol)

>  <smiles>  (17) 
COc1cc(OCc2ccccc2)ccc1-c1cc(-c2ccccc2O)nc(=N)[nH]1

>  <score_type>  (17) 
oracle

>  <origin>  (17) 
adgpu

>  <m_score__min__energy>  (17) 
-10.56

>  <m_primary>  (17) 
energy

$$$$
17:0
     RDKit          3D

 33 35  0  0  0  0  0  0  0  0999 V2000
   -4.0890   21.7970  -31.9270 C   0  0  0  0  0  0  0  0  0  0  0  0
   -4.4240   23.0990  -31.2710 C   0  0  0  0  0  0  0  0  0  0  0  0
   -3.5310   24.0890  -31.0770 N   0  0  0  0  0  0  0  0  0  0  0  0
   -4.1620   25.0600  -30.4820 O   0  0  0  0  0  0  0  0  0  0  0  0
   -5.4230   24.7550  -30.2770 C   0  0  0  0  0  0  0  0  0  0  0  0
   -6.4040   25.6640  -29.6120 C   0  0  0  0  0  0  0  0  0  0  0  0
   -5.6540   23.4850  -30.7710 C   0  0  0  0  0  0  0  0  0  0  0  0
   -6.9100   22.7140  -30.7670 C   0  0  0  0  0  0  0  0  0  0  0  0
   -7.7670   22.6570  -29.7270 N   0  0  0  0  0  0  0  0  0  0  0  0
   -8.7600   21.8690  -30.1050 N   0  0  0  0  0  0  0  0  0  0  0  0
   -8.4700   21.4760  -31.3580 C   0  0  0  0  0  0  0  0  0  0  0  0
   -9.4950   20.3770  -32.3290 S   0  0  0  0  0  0  0  0  0  0  0  0
   -8.6500   18.8560  -31.7720 C   0  0  0  0  0  0  0  0  0  0  0  0
   -7.4780   18.5350  -32.6590 C   0  0  0  0  0  0  0  0  0  0  0  0
   -6.8100   19.5560  -33.3550 C   0  0  0  0  0  0  0  0  0  0  0  0
   -5.7030   19.2560  -34.1550 C   0  0  0  0  0  0  0  0  0  0  0  0
   -5.2560   17.9370  -34.2640 C   0  0  0  0  0  0  0  0  0  0  0  0
   -5.9130   16.9150  -33.5730 C   0  0  0  0  0  0  0  0  0  0  0  0
   -5.2960   15.1130  -33.7170 Br  0  0  0  0  0  0  0  0  0  0  0  0
   -7.0200   17.2130  -32.7700 C   0  0  0  0  0  0  0  0  0  0  0  0
   -7.3400   21.9920  -31.7740 O   0  0  0  0  0  0  0  0  0  0  0  0
   -3.8936   21.0374  -31.1557 H   0  0  0  0  0  0  0  0  0  0  0  0
   -4.9334   21.4743  -32.5538 H   0  0  0  0  0  0  0  0  0  0  0  0
   -3.1937   21.9219  -32.5538 H   0  0  0  0  0  0  0  0  0  0  0  0
   -6.3061   25.5733  -28.5201 H   0  0  0  0  0  0  0  0  0  0  0  0
   -6.2037   26.7029  -29.9131 H   0  0  0  0  0  0  0  0  0  0  0  0
   -7.4246   25.3853  -29.9131 H   0  0  0  0  0  0  0  0  0  0  0  0
   -8.2926   18.9997  -30.7416 H   0  0  0  0  0  0  0  0  0  0  0  0
   -9.3643   18.0208  -31.8190 H   0  0  0  0  0  0  0  0  0  0  0  0
   -7.1591   20.5957  -33.2704 H   0  0  0  0  0  0  0  0  0  0  0  0
   -5.1839   20.0591  -34.6987 H   0  0  0  0  0  0  0  0  0  0  0  0
   -4.3857   17.7024  -34.8945 H   0  0  0  0  0  0  0  0  0  0  0  0
   -7.5331   16.4078  -32.2237 H   0  0  0  0  0  0  0  0  0  0  0  0
  1  2  1  0
  2  3  2  0
  3  4  1  0
  4  5  1  0
  5  6  1  0
  5  7  2  0
  7  8  1  0
  8  9  2  0
  9 10  1  0
 10 11  2  0
 11 12  1  0
 12 13  1  0
 13 14  1  0
 14 15  2  0
 15 16  1  0
 16 17  2  0
 17 18  1  0
 18 19  1  0
 18 20  2  0
 11 21  1  0
  7  2  1  0
 21  8  1  0
 20 14  1  0
  1 22  1  0
  1 23  1  0
  1 24  1  0
  6 25  1  0
  6 26  1  0
  6 27  1  0
 13 28  1  0
 13 29  1  0
 15 30  1  0
 16 31  1  0
 17 32  1  0
 20 33  1  0
M  END
>  <UniqueID>  (18) 
18

>  <SMILES>  (18) 
Cc1noc(C)c1-c1nnc(SCc2cccc(Br)c2)o1

>  <Energy>  (18) 
93.49992775577007

>  <Genealogy>  (18) 
Cc1noc(C)c1-c1nnc(SCc2cccc(Br)c2)o1 (3D coordinates assigned)
Cc1noc(C)c1-c1nnc(SCc2cccc(Br)c2)o1 (optimized conformer: 93.49992775577007 kcal/mol)

>  <smiles>  (18) 
Cc1noc(C)c1-c1nnc(SCc2cccc(Br)c2)o1

>  <score_type>  (18) 
oracle

>  <origin>  (18) 
adgpu

>  <m_score__min__energy>  (18) 
-9.6099999999999994

>  <m_primary>  (18) 
energy

$$$$
18:0
     RDKit          3D

 57 60  0  0  0  0  0  0  0  0999 V2000
   -2.0240   20.2940  -27.1050 C   0  0  0  0  0  0  0  0  0  0  0  0
   -3.0940   20.8820  -28.0180 C   0  0  0  0  0  0  0  0  0  0  0  0
   -2.5120   21.8970  -28.9060 N   0  0  0  0  0  0  0  0  0  0  0  0
   -2.7840   23.3210  -28.6860 C   0  0  0  0  0  0  0  0  0  0  0  0
   -3.9090   23.7710  -29.5630 C   0  0  0  0  0  0  0  0  0  0  0  0
   -5.2310   23.4020  -29.4590 C   0  0  0  0  0  0  0  0  0  0  0  0
   -5.8560   23.9830  -30.4970 N   0  0  0  0  0  0  0  0  0  0  0  0
   -7.2890   23.9650  -30.7720 C   0  0  0  0  0  0  0  0  0  0  0  0
   -7.6810   22.6240  -31.3260 C   0  0  0  0  0  0  0  0  0  0  0  0
   -8.7710   21.9250  -30.7810 C   0  0  0  0  0  0  0  0  0  0  0  0
   -9.1040   20.6540  -31.2600 C   0  0  0  0  0  0  0  0  0  0  0  0
   -8.3460   20.0680  -32.2770 C   0  0  0  0  0  0  0  0  0  0  0  0
   -8.6680   18.8340  -32.7370 F   0  0  0  0  0  0  0  0  0  0  0  0
   -7.2510   20.7530  -32.8140 C   0  0  0  0  0  0  0  0  0  0  0  0
   -6.9140   22.0230  -32.3380 C   0  0  0  0  0  0  0  0  0  0  0  0
   -4.9680   24.6720  -31.1950 N   0  0  0  0  0  0  0  0  0  0  0  0
   -3.7630   24.5500  -30.6540 N   0  0  0  0  0  0  0  0  0  0  0  0
   -1.8150   21.4900  -30.0990 C   0  0  0  0  0  0  0  0  0  0  0  0
   -2.4930   21.3460  -31.3280 C   0  0  0  0  0  0  0  0  0  0  0  0
   -3.8970   21.6680  -31.3940 N   0  0  0  0  0  0  0  0  0  0  0  0
   -1.8030   20.9160  -32.4450 N   0  0  0  0  0  0  0  0  0  0  0  0
   -2.4910   20.7370  -33.7440 C   0  0  0  0  0  0  0  0  0  0  0  0
   -3.2440   19.4300  -33.7940 C   0  0  0  0  0  0  0  0  0  0  0  0
   -2.5440   18.2150  -33.8930 C   0  0  0  0  0  0  0  0  0  0  0  0
   -3.2380   17.0050  -33.9800 C   0  0  0  0  0  0  0  0  0  0  0  0
   -4.6360   16.9960  -33.9820 C   0  0  0  0  0  0  0  0  0  0  0  0
   -5.3420   18.2000  -33.9070 C   0  0  0  0  0  0  0  0  0  0  0  0
   -4.6510   19.4130  -33.8190 C   0  0  0  0  0  0  0  0  0  0  0  0
   -0.4530   20.6600  -32.3520 C   0  0  0  0  0  0  0  0  0  0  0  0
    0.2050   20.2900  -33.3640 O   0  0  0  0  0  0  0  0  0  0  0  0
    0.1990   20.8030  -31.1700 N   0  0  0  0  0  0  0  0  0  0  0  0
   -0.4510   21.1980  -30.0480 C   0  0  0  0  0  0  0  0  0  0  0  0
    0.1820   21.2910  -28.9600 O   0  0  0  0  0  0  0  0  0  0  0  0
   -2.3110   20.4517  -26.0549 H   0  0  0  0  0  0  0  0  0  0  0  0
   -1.9270   19.2159  -27.3007 H   0  0  0  0  0  0  0  0  0  0  0  0
   -1.0619   20.7901  -27.3007 H   0  0  0  0  0  0  0  0  0  0  0  0
   -3.5326   20.0774  -28.6265 H   0  0  0  0  0  0  0  0  0  0  0  0
   -3.8699   21.3548  -27.3980 H   0  0  0  0  0  0  0  0  0  0  0  0
   -3.0576   23.4806  -27.6326 H   0  0  0  0  0  0  0  0  0  0  0  0
   -1.8824   23.9017  -28.9307 H   0  0  0  0  0  0  0  0  0  0  0  0
   -5.6827   22.7633  -28.6857 H   0  0  0  0  0  0  0  0  0  0  0  0
   -7.8427   24.1518  -29.8400 H   0  0  0  0  0  0  0  0  0  0  0  0
   -7.5290   24.7474  -31.5070 H   0  0  0  0  0  0  0  0  0  0  0  0
   -9.3649   22.3793  -29.9742 H   0  0  0  0  0  0  0  0  0  0  0  0
   -9.9638   20.1149  -30.8356 H   0  0  0  0  0  0  0  0  0  0  0  0
   -6.6533   20.2906  -33.6134 H   0  0  0  0  0  0  0  0  0  0  0  0
   -6.0460   22.5534  -32.7568 H   0  0  0  0  0  0  0  0  0  0  0  0
   -4.2560   22.6390  -31.5210 H   0  0  0  0  0  0  0  0  0  0  0  0
   -4.6280   20.9310  -31.3050 H   0  0  0  0  0  0  0  0  0  0  0  0
   -3.2008   21.5646  -33.8898 H   0  0  0  0  0  0  0  0  0  0  0  0
   -1.7312   20.7289  -34.5394 H   0  0  0  0  0  0  0  0  0  0  0  0
   -1.4440   18.2166  -33.9021 H   0  0  0  0  0  0  0  0  0  0  0  0
   -2.6830   16.0576  -34.0470 H   0  0  0  0  0  0  0  0  0  0  0  0
   -5.1801   16.0419  -34.0426 H   0  0  0  0  0  0  0  0  0  0  0  0
   -6.4419   18.1936  -33.9172 H   0  0  0  0  0  0  0  0  0  0  0  0
   -5.2104   20.3588  -33.7691 H   0  0  0  0  0  0  0  0  0  0  0  0
    1.2230   20.5940  -31.1190 H   0  0  0  0  0  0  0  0  0  0  0  0
  1  2  1  0
  2  3  1  0
  3  4  1  0
  4  5  1  0
  5  6  2  0
  6  7  1  0
  7  8  1  0
  8  9  1  0
  9 10  2  0
 10 11  1  0
 11 12  2  0
 12 13  1  0
 12 14  1  0
 14 15  2  0
  7 16  1  0
 16 17  2  0
  3 18  1  0
 18 19  2  0
 19 20  1  0
 19 21  1  0
 21 22  1  0
 22 23  1  0
 23 24  2  0
 24 25  1  0
 25 26  2  0
 26 27  1  0
 27 28  2  0
 21 29  1  0
 29 30  2  0
 29 31  1  0
 31 32  1  0
 32 33  2  0
 17  5  1  0
 32 18  1  0
 15  9  1  0
 28 23  1  0
  1 34  1  0
  1 35  1  0
  1 36  1  0
  2 37  1  0
  2 38  1  0
  4 39  1  0
  4 40  1  0
  6 41  1  0
  8 42  1  0
  8 43  1  0
 10 44  1  0
 11 45  1  0
 14 46  1  0
 15 47  1  0
 20 48  1  0
 20 49  1  0
 22 50  1  0
 22 51  1  0
 24 52  1  0
 25 53  1  0
 26 54  1  0
 27 55  1  0
 28 56  1  0
 31 57  1  0
M  END
>  <UniqueID>  (19) 
19

>  <SMILES>  (19) 
CCN(Cc1cn(Cc2ccc(F)cc2)nn1)c1c(N)n(Cc2ccccc2)c(=O)[nH]c1=O

>  <Energy>  (19) 
100.54614073813525

>  <Genealogy>  (19) 
CCN(Cc1cn(Cc2ccc(F)cc2)nn1)c1c(N)n(Cc2ccccc2)c(=O)[nH]c1=O (3D coordinates assigned)
CCN(Cc1cn(Cc2ccc(F)cc2)nn1)c1c(N)n(Cc2ccccc2)c(=O)[nH]c1=O (optimized conformer: 100.54614073813525 kcal/mol)

>  <smiles>  (19) 
CCN(Cc1cn(Cc2ccc(F)cc2)nn1)c1c(N)n(Cc2ccccc2)c(=O)[nH]c1=O

>  <score_type>  (19) 
oracle

>  <origin>  (19) 
adgpu

>  <m_score__min__energy>  (19) 
-8.5299999999999994

>  <m_primary>  (19) 
energy

$$$$
19:0
     RDKit          3D

 32 34  0  0  0  0  0  0  0  0999 V2000
   -4.2310   25.3880  -30.8400 O   0  0  0  0  0  0  0  0  0  0  0  0
   -5.3190   24.5580  -30.2170 S   0  0  0  0  0  0  0  0  0  0  0  0
   -6.6000   25.3420  -30.2280 O   0  0  0  0  0  0  0  0  0  0  0  0
   -4.8830   24.1940  -28.5770 N   0  0  0  0  0  0  0  0  0  0  0  0
   -3.7160   23.4390  -28.2040 C   0  0  0  0  0  0  0  0  0  0  0  0
   -2.4660   24.0750  -28.1880 C   0  0  0  0  0  0  0  0  0  0  0  0
   -1.3140   23.3710  -27.8200 C   0  0  0  0  0  0  0  0  0  0  0  0
    0.2410   24.1830  -27.7980 Cl  0  0  0  0  0  0  0  0  0  0  0  0
   -1.4020   22.0220  -27.4670 C   0  0  0  0  0  0  0  0  0  0  0  0
   -2.6400   21.3750  -27.4870 C   0  0  0  0  0  0  0  0  0  0  0  0
   -2.7500   19.6790  -27.0460 Cl  0  0  0  0  0  0  0  0  0  0  0  0
   -3.7930   22.0760  -27.8560 C   0  0  0  0  0  0  0  0  0  0  0  0
   -5.5600   23.0660  -31.1200 C   0  0  0  0  0  0  0  0  0  0  0  0
   -4.4750   22.4060  -31.7070 C   0  0  0  0  0  0  0  0  0  0  0  0
   -4.6690   21.2120  -32.4070 C   0  0  0  0  0  0  0  0  0  0  0  0
   -5.9590   20.6610  -32.5350 C   0  0  0  0  0  0  0  0  0  0  0  0
   -6.1790   19.4280  -33.2510 N   0  0  0  0  0  0  0  0  0  0  0  0
   -6.8580   18.3310  -32.8650 C   0  0  0  0  0  0  0  0  0  0  0  0
   -6.8180   17.4040  -33.8400 N   0  0  0  0  0  0  0  0  0  0  0  0
   -6.1100   17.9520  -34.8160 N   0  0  0  0  0  0  0  0  0  0  0  0
   -5.7240   19.1700  -34.4660 N   0  0  0  0  0  0  0  0  0  0  0  0
   -7.0450   21.3350  -31.9470 C   0  0  0  0  0  0  0  0  0  0  0  0
   -6.8460   22.5280  -31.2470 C   0  0  0  0  0  0  0  0  0  0  0  0
   -5.5630   24.4760  -27.8340 H   0  0  0  0  0  0  0  0  0  0  0  0
   -2.3906   25.1363  -28.4671 H   0  0  0  0  0  0  0  0  0  0  0  0
   -0.4971   21.4697  -27.1735 H   0  0  0  0  0  0  0  0  0  0  0  0
   -4.7645   21.5605  -27.8745 H   0  0  0  0  0  0  0  0  0  0  0  0
   -3.4636   22.8292  -31.6171 H   0  0  0  0  0  0  0  0  0  0  0  0
   -3.8084   20.6990  -32.8611 H   0  0  0  0  0  0  0  0  0  0  0  0
   -7.3686   18.2106  -31.8982 H   0  0  0  0  0  0  0  0  0  0  0  0
   -8.0593   20.9194  -32.0391 H   0  0  0  0  0  0  0  0  0  0  0  0
   -7.7037   23.0466  -30.7938 H   0  0  0  0  0  0  0  0  0  0  0  0
  1  2  2  0
  2  3  2  0
  2  4  1  0
  4  5  1  0
  5  6  2  0
  6  7  1  0
  7  8  1  0
  7  9  2  0
  9 10  1  0
 10 11  1  0
 10 12  2  0
  2 13  1  0
 13 14  2  0
 14 15  1  0
 15 16  2  0
 16 17  1  0
 17 18  1  0
 18 19  2  0
 19 20  1  0
 20 21  2  0
 16 22  1  0
 22 23  2  0
 12  5  1  0
 23 13  1  0
 21 17  1  0
  4 24  1  0
  6 25  1  0
  9 26  1  0
 12 27  1  0
 14 28  1  0
 15 29  1  0
 18 30  1  0
 22 31  1  0
 23 32  1  0
M  END
>  <UniqueID>  (20) 
20

>  <SMILES>  (20) 
O=S(=O)(Nc1cc(Cl)cc(Cl)c1)c1ccc(-n2cnnn2)cc1

>  <Energy>  (20) 
78.7495382867018

>  <Genealogy>  (20) 
O=S(=O)(Nc1cc(Cl)cc(Cl)c1)c1ccc(-n2cnnn2)cc1 (3D coordinates assigned)
O=S(=O)(Nc1cc(Cl)cc(Cl)c1)c1ccc(-n2cnnn2)cc1 (optimized conformer: 78.7495382867018 kcal/mol)

>  <smiles>  (20) 
O=S(=O)(Nc1cc(Cl)cc(Cl)c1)c1ccc(-n2cnnn2)cc1

>  <score_type>  (20) 
oracle

>  <origin>  (20) 
adgpu

>  <m_score__min__energy>  (20) 
-9.3300000000000001

>  <m_primary>  (20) 
energy

$$$$
20:0
     RDKit          3D

 28 30  0  0  0  0  0  0  0  0999 V2000
   -9.1720   22.0870  -31.7984 H   0  0  0  0  0  0  0  0  0  0  0  0
   -8.0830   22.0450  -31.9480 C   0  0  0  0  0  0  0  0  0  0  0  0
   -7.2670   23.0550  -31.4270 C   0  0  0  0  0  0  0  0  0  0  0  0
   -7.7145   23.8805  -30.8541 H   0  0  0  0  0  0  0  0  0  0  0  0
   -5.8730   23.0180  -31.6340 C   0  0  0  0  0  0  0  0  0  0  0  0
   -4.9920   24.0150  -31.0910 N   0  0  0  0  0  0  0  0  0  0  0  0
   -4.4180   23.9910  -29.9250 C   0  0  0  0  0  0  0  0  0  0  0  0
   -4.6170   23.0480  -28.9850 N   0  0  0  0  0  0  0  0  0  0  0  0
   -3.8720   23.4070  -27.9500 N   0  0  0  0  0  0  0  0  0  0  0  0
   -3.2540   24.5540  -28.2980 C   0  0  0  0  0  0  0  0  0  0  0  0
   -2.3220   25.2980  -27.4200 C   0  0  0  0  0  0  0  0  0  0  0  0
   -2.4170   25.1590  -26.0230 C   0  0  0  0  0  0  0  0  0  0  0  0
   -3.1835   24.4984  -25.5916 H   0  0  0  0  0  0  0  0  0  0  0  0
   -1.5460   25.8530  -25.1790 C   0  0  0  0  0  0  0  0  0  0  0  0
   -1.6292   25.7360  -24.0884 H   0  0  0  0  0  0  0  0  0  0  0  0
   -0.5700   26.6950  -25.7170 C   0  0  0  0  0  0  0  0  0  0  0  0
    0.2940   27.3840  -24.8760 O   0  0  0  0  0  0  0  0  0  0  0  0
   -0.4640   26.8430  -27.1020 C   0  0  0  0  0  0  0  0  0  0  0  0
    0.3052   27.5065  -27.5241 H   0  0  0  0  0  0  0  0  0  0  0  0
   -1.3320   26.1510  -27.9560 C   0  0  0  0  0  0  0  0  0  0  0  0
   -1.1990   26.3220  -29.3290 O   0  0  0  0  0  0  0  0  0  0  0  0
   -3.5910   24.9200  -29.5140 O   0  0  0  0  0  0  0  0  0  0  0  0
   -5.3140   21.9320  -32.3230 C   0  0  0  0  0  0  0  0  0  0  0  0
   -4.2237   21.8721  -32.4560 H   0  0  0  0  0  0  0  0  0  0  0  0
   -6.1330   20.9250  -32.8420 C   0  0  0  0  0  0  0  0  0  0  0  0
   -5.6873   20.0857  -33.3961 H   0  0  0  0  0  0  0  0  0  0  0  0
   -7.5170   20.9830  -32.6580 C   0  0  0  0  0  0  0  0  0  0  0  0
   -8.3300   19.9810  -33.1750 O   0  0  0  0  0  0  0  0  0  0  0  0
  1  2  1  0
  2  3  2  0
  3  4  1  0
  3  5  1  0
  5  6  1  0
  6  7  2  0
  7  8  1  0
  8  9  1  0
  9 10  2  0
 10 11  1  0
 11 12  2  0
 12 13  1  0
 12 14  1  0
 14 15  1  0
 14 16  2  0
 16 17  1  0
 16 18  1  0
 18 19  1  0
 18 20  2  0
 20 21  1  0
 10 22  1  0
  5 23  2  0
 23 24  1  0
 23 25  1  0
 25 26  1  0
 25 27  2  0
 27 28  1  0
 27  2  1  0
 22  7  1  0
 20 11  1  0
M  CHG  4   8  -1  17  -1  21  -1  28  -1
M  END
>  <UniqueID>  (21) 
21

>  <SMILES>  (21) 
[O-]c1ccc(/N=c2\[n-]nc(-c3ccc([O-])cc3[O-])o2)cc1

>  <Energy>  (21) 
73.89179030826396

>  <Genealogy>  (21) 
[O-]c1ccc(N=c2[n-]nc(-c3ccc([O-])cc3[O-])o2)cc1 (protonated)
[O-]c1ccc(/N=c2\[n-]nc(-c3ccc([O-])cc3[O-])o2)cc1 (cis-trans isomerization)
[O-]c1ccc(/N=c2\[n-]nc(-c3ccc([O-])cc3[O-])o2)cc1 (3D coordinates assigned)
[O-]c1ccc(/N=c2\[n-]nc(-c3ccc([O-])cc3[O-])o2)cc1 (optimized conformer: 73.89179030826396 kcal/mol)

>  <smiles>  (21) 
Oc1ccc(N=c2[nH]nc(-c3ccc(O)cc3O)o2)cc1

>  <score_type>  (21) 
oracle

>  <origin>  (21) 
adgpu

>  <m_score__min__energy>  (21) 
-10.609999999999999

>  <m_primary>  (21) 
energy

$$$$
21:0
     RDKit          3D

 28 29  0  0  0  0  0  0  0  0999 V2000
   -4.0380   21.5020  -32.3220 C   0  0  0  0  0  0  0  0  0  0  0  0
   -4.4660   22.7730  -31.6400 C   0  0  0  0  0  0  0  0  0  0  0  0
   -3.5580   23.4530  -30.8110 C   0  0  0  0  0  0  0  0  0  0  0  0
   -3.9310   24.6380  -30.1700 C   0  0  0  0  0  0  0  0  0  0  0  0
   -3.0150   25.2910  -29.3470 O   0  0  0  0  0  0  0  0  0  0  0  0
   -5.2150   25.1590  -30.3600 C   0  0  0  0  0  0  0  0  0  0  0  0
   -6.1220   24.4980  -31.1900 C   0  0  0  0  0  0  0  0  0  0  0  0
   -5.7650   23.2980  -31.8300 C   0  0  0  0  0  0  0  0  0  0  0  0
   -6.6950   22.6490  -32.7170 N   0  0  0  0  0  0  0  0  0  0  0  0
   -7.3490   21.4010  -32.4240 C   0  0  0  0  0  0  0  0  0  0  0  0
   -8.4380   21.3840  -31.5390 C   0  0  0  0  0  0  0  0  0  0  0  0
   -9.1020   20.1860  -31.2570 C   0  0  0  0  0  0  0  0  0  0  0  0
   -8.6920   18.9970  -31.8680 C   0  0  0  0  0  0  0  0  0  0  0  0
   -9.3390   17.8370  -31.5950 F   0  0  0  0  0  0  0  0  0  0  0  0
   -7.6220   19.0070  -32.7660 C   0  0  0  0  0  0  0  0  0  0  0  0
   -6.9560   20.2030  -33.0510 C   0  0  0  0  0  0  0  0  0  0  0  0
   -3.7837   20.7467  -31.5638 H   0  0  0  0  0  0  0  0  0  0  0  0
   -4.8599   21.1284  -32.9504 H   0  0  0  0  0  0  0  0  0  0  0  0
   -3.1575   21.7016  -32.9504 H   0  0  0  0  0  0  0  0  0  0  0  0
   -2.5451   23.0495  -30.6651 H   0  0  0  0  0  0  0  0  0  0  0  0
   -3.2400   25.5270  -28.3880 H   0  0  0  0  0  0  0  0  0  0  0  0
   -5.5104   26.0905  -29.8549 H   0  0  0  0  0  0  0  0  0  0  0  0
   -7.1259   24.9200  -31.3449 H   0  0  0  0  0  0  0  0  0  0  0  0
   -6.9280   23.1240  -33.6180 H   0  0  0  0  0  0  0  0  0  0  0  0
   -8.7713   22.3186  -31.0643 H   0  0  0  0  0  0  0  0  0  0  0  0
   -9.9478   20.1790  -30.5537 H   0  0  0  0  0  0  0  0  0  0  0  0
   -7.3027   18.0722  -33.2499 H   0  0  0  0  0  0  0  0  0  0  0  0
   -6.1217   20.2080  -33.7679 H   0  0  0  0  0  0  0  0  0  0  0  0
  1  2  1  0
  2  3  2  0
  3  4  1  0
  4  5  1  0
  4  6  2  0
  6  7  1  0
  7  8  2  0
  8  9  1  0
  9 10  1  0
 10 11  2  0
 11 12  1  0
 12 13  2  0
 13 14  1  0
 13 15  1  0
 15 16  2  0
  8  2  1  0
 16 10  1  0
  1 17  1  0
  1 18  1  0
  1 19  1  0
  3 20  1  0
  5 21  1  0
  6 22  1  0
  7 23  1  0
  9 24  1  0
 11 25  1  0
 12 26  1  0
 15 27  1  0
 16 28  1  0
M  END
>  <UniqueID>  (22) 
22

>  <SMILES>  (22) 
Cc1cc(O)ccc1Nc1ccc(F)cc1

>  <Energy>  (22) 
34.071557556824295

>  <Genealogy>  (22) 
Cc1cc(O)ccc1Nc1ccc(F)cc1 (3D coordinates assigned)
Cc1cc(O)ccc1Nc1ccc(F)cc1 (optimized conformer: 34.071557556824295 kcal/mol)

>  <smiles>  (22) 
Cc1cc(O)ccc1Nc1ccc(F)cc1

>  <score_type>  (22) 
oracle

>  <origin>  (22) 
adgpu

>  <m_score__min__energy>  (22) 
-7.6200000000000001

>  <m_primary>  (22) 
energy

$$$$
22:0
     RDKit          3D

 41 44  0  0  0  0  0  0  0  0999 V2000
    0.1110   26.7280  -23.8440 C   0  0  0  0  0  0  0  0  0  0  0  0
   -0.4460   26.4220  -25.2080 C   0  0  0  0  0  0  0  0  0  0  0  0
   -1.5100   25.4980  -25.3270 C   0  0  0  0  0  0  0  0  0  0  0  0
   -2.0100   25.2310  -26.5960 C   0  0  0  0  0  0  0  0  0  0  0  0
   -3.0060   24.3910  -26.9260 N   0  0  0  0  0  0  0  0  0  0  0  0
   -3.0780   24.5140  -28.2800 C   0  0  0  0  0  0  0  0  0  0  0  0
   -4.0540   23.7530  -29.1010 C   0  0  0  0  0  0  0  0  0  0  0  0
   -3.6860   22.5160  -29.6580 C   0  0  0  0  0  0  0  0  0  0  0  0
   -4.5900   21.7840  -30.4340 C   0  0  0  0  0  0  0  0  0  0  0  0
   -5.8860   22.2730  -30.6700 C   0  0  0  0  0  0  0  0  0  0  0  0
   -6.8470   21.4970  -31.4940 C   0  0  0  0  0  0  0  0  0  0  0  0
   -6.3860   20.6100  -32.4860 C   0  0  0  0  0  0  0  0  0  0  0  0
   -7.2930   19.8790  -33.2600 C   0  0  0  0  0  0  0  0  0  0  0  0
   -8.6670   20.0250  -33.0540 C   0  0  0  0  0  0  0  0  0  0  0  0
   -9.1370   20.9020  -32.0740 C   0  0  0  0  0  0  0  0  0  0  0  0
   -8.2350   21.6340  -31.2980 C   0  0  0  0  0  0  0  0  0  0  0  0
   -6.2570   23.5090  -30.1130 C   0  0  0  0  0  0  0  0  0  0  0  0
   -5.3530   24.2400  -29.3370 C   0  0  0  0  0  0  0  0  0  0  0  0
   -2.1680   25.3900  -28.7850 N   0  0  0  0  0  0  0  0  0  0  0  0
   -1.5080   25.8280  -27.7060 C   0  0  0  0  0  0  0  0  0  0  0  0
   -0.4630   26.7440  -27.6490 C   0  0  0  0  0  0  0  0  0  0  0  0
    0.0810   27.0530  -26.3810 C   0  0  0  0  0  0  0  0  0  0  0  0
    1.2140   28.0400  -26.2890 C   0  0  0  0  0  0  0  0  0  0  0  0
   -0.5772   26.3499  -23.0736 H   0  0  0  0  0  0  0  0  0  0  0  0
    1.0911   26.2417  -23.7306 H   0  0  0  0  0  0  0  0  0  0  0  0
    0.2262   27.8161  -23.7306 H   0  0  0  0  0  0  0  0  0  0  0  0
   -1.9307   25.0038  -24.4389 H   0  0  0  0  0  0  0  0  0  0  0  0
   -2.6753   22.1193  -29.4814 H   0  0  0  0  0  0  0  0  0  0  0  0
   -4.2844   20.8183  -30.8629 H   0  0  0  0  0  0  0  0  0  0  0  0
   -5.3053   20.4913  -32.6532 H   0  0  0  0  0  0  0  0  0  0  0  0
   -6.9239   19.1880  -34.0322 H   0  0  0  0  0  0  0  0  0  0  0  0
   -9.3788   19.4491  -33.6637 H   0  0  0  0  0  0  0  0  0  0  0  0
  -10.2191   21.0166  -31.9129 H   0  0  0  0  0  0  0  0  0  0  0  0
   -8.6118   22.3229  -30.5277 H   0  0  0  0  0  0  0  0  0  0  0  0
   -7.2681   23.9047  -30.2894 H   0  0  0  0  0  0  0  0  0  0  0  0
   -5.6598   25.2048  -28.9068 H   0  0  0  0  0  0  0  0  0  0  0  0
   -1.9940   25.6640  -29.7770 H   0  0  0  0  0  0  0  0  0  0  0  0
   -0.0714   27.2141  -28.5631 H   0  0  0  0  0  0  0  0  0  0  0  0
    1.4422   28.2388  -25.2314 H   0  0  0  0  0  0  0  0  0  0  0  0
    2.1038   27.6240  -26.7842 H   0  0  0  0  0  0  0  0  0  0  0  0
    0.9239   28.9784  -26.7842 H   0  0  0  0  0  0  0  0  0  0  0  0
  1  2  1  0
  2  3  2  0
  3  4  1  0
  4  5  1  0
  5  6  2  0
  6  7  1  0
  7  8  2  0
  8  9  1  0
  9 10  2  0
 10 11  1  0
 11 12  2  0
 12 13  1  0
 13 14  2  0
 14 15  1  0
 15 16  2  0
 10 17  1  0
 17 18  2  0
  6 19  1  0
 19 20  1  0
 20 21  1  0
 21 22  2  0
 22 23  1  0
 22  2  1  0
 20  4  2  0
 18  7  1  0
 16 11  1  0
  1 24  1  0
  1 25  1  0
  1 26  1  0
  3 27  1  0
  8 28  1  0
  9 29  1  0
 12 30  1  0
 13 31  1  0
 14 32  1  0
 15 33  1  0
 16 34  1  0
 17 35  1  0
 18 36  1  0
 19 37  1  0
 21 38  1  0
 23 39  1  0
 23 40  1  0
 23 41  1  0
M  END
>  <UniqueID>  (23) 
23

>  <SMILES>  (23) 
Cc1cc2nc(-c3ccc(-c4ccccc4)cc3)[nH]c2cc1C

>  <Energy>  (23) 
88.72411147108726

>  <Genealogy>  (23) 
Cc1cc2nc(-c3ccc(-c4ccccc4)cc3)[nH]c2cc1C (3D coordinates assigned)
Cc1cc2nc(-c3ccc(-c4ccccc4)cc3)[nH]c2cc1C (optimized conformer: 88.72411147108726 kcal/mol)

>  <smiles>  (23) 
Cc1cc2nc(-c3ccc(-c4ccccc4)cc3)[nH]c2cc1C

>  <score_type>  (23) 
oracle

>  <origin>  (23) 
adgpu

>  <m_score__min__energy>  (23) 
-8.6099999999999994

>  <m_primary>  (23) 
energy

$$$$
23:0
     RDKit          3D

 33 34  0  0  0  0  0  0  0  0999 V2000
   -7.2420   19.4430  -32.6780 C   0  0  0  0  0  0  0  0  0  0  0  0
   -5.7810   19.2360  -33.7420 S   0  0  0  0  0  0  0  0  0  0  0  0
   -4.7690   20.3430  -32.7600 C   0  0  0  0  0  0  0  0  0  0  0  0
   -4.5080   20.0450  -31.4620 N   0  0  0  0  0  0  0  0  0  0  0  0
   -3.7420   20.8700  -30.7040 C   0  0  0  0  0  0  0  0  0  0  0  0
   -3.5040   20.5690  -29.5040 O   0  0  0  0  0  0  0  0  0  0  0  0
   -3.2260   22.0440  -31.2740 C   0  0  0  0  0  0  0  0  0  0  0  0
   -2.3370   22.9800  -30.5060 C   0  0  0  0  0  0  0  0  0  0  0  0
   -3.1250   24.1640  -30.0440 C   0  0  0  0  0  0  0  0  0  0  0  0
   -2.8100   24.7400  -28.9690 O   0  0  0  0  0  0  0  0  0  0  0  0
   -4.2240   24.6330  -30.8350 N   0  0  0  0  0  0  0  0  0  0  0  0
   -5.4680   23.9520  -31.0500 C   0  0  0  0  0  0  0  0  0  0  0  0
   -6.0450   23.8390  -32.3270 C   0  0  0  0  0  0  0  0  0  0  0  0
   -7.2730   23.1910  -32.4900 C   0  0  0  0  0  0  0  0  0  0  0  0
   -7.9430   22.6500  -31.3810 C   0  0  0  0  0  0  0  0  0  0  0  0
   -9.2770   21.9820  -31.5540 C   0  0  0  0  0  0  0  0  0  0  0  0
   -7.3860   22.7980  -30.1010 C   0  0  0  0  0  0  0  0  0  0  0  0
   -8.0320   22.3190  -29.0080 F   0  0  0  0  0  0  0  0  0  0  0  0
   -6.1580   23.4480  -29.9410 C   0  0  0  0  0  0  0  0  0  0  0  0
   -3.5040   22.3020  -32.5790 N   0  0  0  0  0  0  0  0  0  0  0  0
   -4.2590   21.4790  -33.3060 N   0  0  0  0  0  0  0  0  0  0  0  0
   -6.9359   19.3996  -31.6223 H   0  0  0  0  0  0  0  0  0  0  0  0
   -7.7108   20.4165  -32.8842 H   0  0  0  0  0  0  0  0  0  0  0  0
   -7.9628   18.6380  -32.8842 H   0  0  0  0  0  0  0  0  0  0  0  0
   -1.9215   22.4550  -29.6332 H   0  0  0  0  0  0  0  0  0  0  0  0
   -1.5193   23.3206  -31.1582 H   0  0  0  0  0  0  0  0  0  0  0  0
   -5.5283   24.2620  -33.2011 H   0  0  0  0  0  0  0  0  0  0  0  0
   -7.7168   23.1045  -33.4928 H   0  0  0  0  0  0  0  0  0  0  0  0
   -9.7095   21.7654  -30.5660 H   0  0  0  0  0  0  0  0  0  0  0  0
   -9.9514   22.6487  -32.1113 H   0  0  0  0  0  0  0  0  0  0  0  0
   -9.1471   21.0426  -32.1113 H   0  0  0  0  0  0  0  0  0  0  0  0
   -5.7303   23.5643  -28.9343 H   0  0  0  0  0  0  0  0  0  0  0  0
   -4.4520   21.7120  -34.3050 H   0  0  0  0  0  0  0  0  0  0  0  0
  1  2  1  0
  2  3  1  0
  3  4  2  0
  4  5  1  0
  5  6  2  0
  5  7  1  0
  7  8  1  0
  8  9  1  0
  9 10  2  0
  9 11  1  0
 11 12  1  0
 12 13  2  0
 13 14  1  0
 14 15  2  0
 15 16  1  0
 15 17  1  0
 17 18  1  0
 17 19  2  0
  7 20  2  0
 20 21  1  0
 21  3  1  0
 19 12  1  0
  1 22  1  0
  1 23  1  0
  1 24  1  0
  8 25  1  0
  8 26  1  0
 13 27  1  0
 14 28  1  0
 16 29  1  0
 16 30  1  0
 16 31  1  0
 19 32  1  0
 21 33  1  0
M  CHG  1  11  -1
M  END
>  <UniqueID>  (24) 
24

>  <SMILES>  (24) 
CSc1nc(=O)c(CC(=O)[N-]c2ccc(C)c(F)c2)n[nH]1

>  <Energy>  (24) 
31.853052670492325

>  <Genealogy>  (24) 
CSc1nc(=O)c(CC(=O)[N-]c2ccc(C)c(F)c2)n[nH]1 (protonated)
CSc1nc(=O)c(CC(=O)[N-]c2ccc(C)c(F)c2)n[nH]1 (3D coordinates assigned)
CSc1nc(=O)c(CC(=O)[N-]c2ccc(C)c(F)c2)n[nH]1 (optimized conformer: 31.853052670492325 kcal/mol)

>  <smiles>  (24) 
CSc1nc(=O)c(CC(=O)Nc2ccc(C)c(F)c2)n[nH]1

>  <score_type>  (24) 
oracle

>  <origin>  (24) 
adgpu

>  <m_score__min__energy>  (24) 
-8.6699999999999999

>  <m_primary>  (24) 
energy

$$$$
24:0
     RDKit          3D

 61 65  0  0  0  0  0  0  0  0999 V2000
   -4.2290   18.5560  -26.3040 C   0  0  0  0  0  0  0  0  0  0  0  0
   -2.8320   18.9610  -25.8470 C   0  0  0  0  0  0  0  0  0  0  0  0
   -1.8780   19.0170  -27.0000 C   0  0  0  0  0  0  0  0  0  0  0  0
   -0.8000   18.2080  -27.1270 N   0  0  0  0  0  0  0  0  0  0  0  0
   -0.0570   18.4850  -28.1970 N   0  0  0  0  0  0  0  0  0  0  0  0
   -0.5420   19.5230  -28.9180 C   0  0  0  0  0  0  0  0  0  0  0  0
    0.0190   19.9960  -29.9880 N   0  0  0  0  0  0  0  0  0  0  0  0
    1.2050   19.4520  -30.5750 C   0  0  0  0  0  0  0  0  0  0  0  0
    2.2420   19.3480  -29.8680 O   0  0  0  0  0  0  0  0  0  0  0  0
    1.2810   19.1120  -32.0400 C   0  0  0  0  0  0  0  0  0  0  0  0
   -0.0330   19.2750  -32.7000 N   0  0  0  0  0  0  0  0  0  0  0  0
   -0.5260   17.9850  -33.2370 C   0  0  0  0  0  0  0  0  0  0  0  0
   -1.6930   18.1650  -34.2300 C   0  0  0  0  0  0  0  0  0  0  0  0
   -2.3000   19.4930  -34.0780 N   0  0  0  0  0  0  0  0  0  0  0  0
   -3.6820   19.6220  -33.7070 C   0  0  0  0  0  0  0  0  0  0  0  0
   -4.0710   20.6320  -32.8180 C   0  0  0  0  0  0  0  0  0  0  0  0
   -5.4200   20.7820  -32.4290 C   0  0  0  0  0  0  0  0  0  0  0  0
   -6.3880   19.8980  -32.9680 C   0  0  0  0  0  0  0  0  0  0  0  0
   -5.9870   18.8930  -33.8700 C   0  0  0  0  0  0  0  0  0  0  0  0
   -4.6470   18.7590  -34.2380 C   0  0  0  0  0  0  0  0  0  0  0  0
   -4.2890   17.7710  -35.0960 F   0  0  0  0  0  0  0  0  0  0  0  0
   -7.7390   20.0550  -32.6080 C   0  0  0  0  0  0  0  0  0  0  0  0
   -8.6090   19.2710  -33.0800 O   0  0  0  0  0  0  0  0  0  0  0  0
   -8.1190   21.0870  -31.7270 C   0  0  0  0  0  0  0  0  0  0  0  0
   -9.5360   21.2950  -31.3210 C   0  0  0  0  0  0  0  0  0  0  0  0
   -9.8200   21.5950  -30.1300 O   0  0  0  0  0  0  0  0  0  0  0  0
  -10.5730   21.1670  -32.2360 O   0  0  0  0  0  0  0  0  0  0  0  0
   -7.1240   21.9370  -31.2240 C   0  0  0  0  0  0  0  0  0  0  0  0
   -5.8120   21.7820  -31.5690 N   0  0  0  0  0  0  0  0  0  0  0  0
   -4.8690   22.7180  -31.0180 C   0  0  0  0  0  0  0  0  0  0  0  0
   -5.1460   24.0930  -31.0350 C   0  0  0  0  0  0  0  0  0  0  0  0
   -4.2420   24.9980  -30.4720 C   0  0  0  0  0  0  0  0  0  0  0  0
   -3.0580   24.5340  -29.8910 C   0  0  0  0  0  0  0  0  0  0  0  0
   -2.1620   25.4340  -29.3270 O   0  0  0  0  0  0  0  0  0  0  0  0
   -2.7750   23.1640  -29.8780 C   0  0  0  0  0  0  0  0  0  0  0  0
   -3.6750   22.2570  -30.4430 C   0  0  0  0  0  0  0  0  0  0  0  0
   -1.4370   20.6790  -34.1300 C   0  0  0  0  0  0  0  0  0  0  0  0
    0.0020   20.3070  -33.7560 C   0  0  0  0  0  0  0  0  0  0  0  0
   -1.9440   20.1540  -28.2430 S   0  0  0  0  0  0  0  0  0  0  0  0
   -4.8635   18.3720  -25.4245 H   0  0  0  0  0  0  0  0  0  0  0  0
   -4.6658   19.3645  -26.9086 H   0  0  0  0  0  0  0  0  0  0  0  0
   -4.1656   17.6393  -26.9086 H   0  0  0  0  0  0  0  0  0  0  0  0
   -2.8828   19.9534  -25.3753 H   0  0  0  0  0  0  0  0  0  0  0  0
   -2.4687   18.2086  -25.1316 H   0  0  0  0  0  0  0  0  0  0  0  0
    2.0102   19.7778  -32.5247 H   0  0  0  0  0  0  0  0  0  0  0  0
    1.5891   18.0604  -32.1362 H   0  0  0  0  0  0  0  0  0  0  0  0
    0.3023   17.4787  -33.7543 H   0  0  0  0  0  0  0  0  0  0  0  0
   -0.8975   17.3905  -32.3893 H   0  0  0  0  0  0  0  0  0  0  0  0
   -1.3141   18.0560  -35.2569 H   0  0  0  0  0  0  0  0  0  0  0  0
   -2.4561   17.4003  -34.0231 H   0  0  0  0  0  0  0  0  0  0  0  0
   -3.3127   21.3200  -32.4160 H   0  0  0  0  0  0  0  0  0  0  0  0
   -6.7376   18.2066  -34.2888 H   0  0  0  0  0  0  0  0  0  0  0  0
   -7.4067   22.7472  -30.5358 H   0  0  0  0  0  0  0  0  0  0  0  0
   -6.0767   24.4597  -31.4924 H   0  0  0  0  0  0  0  0  0  0  0  0
   -4.4621   26.0757  -30.4860 H   0  0  0  0  0  0  0  0  0  0  0  0
   -1.8423   22.8003  -29.4222 H   0  0  0  0  0  0  0  0  0  0  0  0
   -3.4474   21.1808  -30.4371 H   0  0  0  0  0  0  0  0  0  0  0  0
   -1.4514   21.0938  -35.1487 H   0  0  0  0  0  0  0  0  0  0  0  0
   -1.8112   21.4253  -33.4137 H   0  0  0  0  0  0  0  0  0  0  0  0
    0.5240   19.9134  -34.6406 H   0  0  0  0  0  0  0  0  0  0  0  0
    0.5357   21.1971  -33.3915 H   0  0  0  0  0  0  0  0  0  0  0  0
  1  2  1  0
  2  3  1  0
  3  4  2  0
  4  5  1  0
  5  6  1  0
  6  7  2  3
  7  8  1  0
  8  9  2  0
  8 10  1  0
 10 11  1  0
 11 12  1  0
 12 13  1  0
 13 14  1  0
 14 15  1  0
 15 16  2  0
 16 17  1  0
 17 18  2  0
 18 19  1  0
 19 20  2  0
 20 21  1  0
 18 22  1  0
 22 23  2  0
 22 24  1  0
 24 25  1  0
 25 26  2  0
 25 27  1  0
 24 28  2  0
 28 29  1  0
 29 30  1  0
 30 31  2  0
 31 32  1  0
 32 33  2  0
 33 34  1  0
 33 35  1  0
 35 36  2  0
 14 37  1  0
 37 38  1  0
  6 39  1  0
 39  3  1  0
 38 11  1  0
 20 15  1  0
 36 30  1  0
 29 17  1  0
  1 40  1  0
  1 41  1  0
  1 42  1  0
  2 43  1  0
  2 44  1  0
 10 45  1  0
 10 46  1  0
 12 47  1  0
 12 48  1  0
 13 49  1  0
 13 50  1  0
 16 51  1  0
 19 52  1  0
 28 53  1  0
 31 54  1  0
 32 55  1  0
 35 56  1  0
 36 57  1  0
 37 58  1  0
 37 59  1  0
 38 60  1  0
 38 61  1  0
M  CHG  3   5  -1  27  -1  34  -1
M  END
>  <UniqueID>  (25) 
25

>  <SMILES>  (25) 
CCc1n[n-]c(=NC(=O)CN2CCN(c3cc4c(cc3F)c(=O)c(C(=O)[O-])cn4-c3ccc([O-])cc3)CC2)s1

>  <Energy>  (25) 
127.45649863586209

>  <Genealogy>  (25) 
CCc1n[n-]c(=NC(=O)CN2CCN(c3cc4c(cc3F)c(=O)c(C(=O)[O-])cn4-c3ccc([O-])cc3)CC2)s1 (protonated)
CCc1n[n-]c(=NC(=O)CN2CCN(c3cc4c(cc3F)c(=O)c(C(=O)[O-])cn4-c3ccc([O-])cc3)CC2)s1 (3D coordinates assigned)
CCc1n[n-]c(=NC(=O)CN2CCN(c3cc4c(cc3F)c(=O)c(C(=O)[O-])cn4-c3ccc([O-])cc3)CC2)s1 (nonaromatic ring conformer: 127.45649863586209 kcal/mol)

>  <smiles>  (25) 
CCc1n[nH]c(=NC(=O)CN2CCN(c3cc4c(cc3F)c(=O)c(C(=O)O)cn4-c3ccc(O)cc3)CC2)s1

>  <score_type>  (25) 
oracle

>  <origin>  (25) 
adgpu

>  <m_score__min__energy>  (25) 
-15.43

>  <m_primary>  (25) 
energy

$$$$
25:0
     RDKit          3D

 35 37  0  0  0  0  0  0  0  0999 V2000
   -9.4410   19.1700  -32.6330 C   0  0  0  0  0  0  0  0  0  0  0  0
   -9.6840   20.5650  -32.0650 C   0  0  0  0  0  0  0  0  0  0  0  0
   -8.7520   21.5010  -32.6070 O   0  0  0  0  0  0  0  0  0  0  0  0
   -7.6610   22.0720  -31.9280 C   0  0  0  0  0  0  0  0  0  0  0  0
   -7.7120   23.3880  -31.4270 C   0  0  0  0  0  0  0  0  0  0  0  0
   -6.6300   23.9300  -30.7340 C   0  0  0  0  0  0  0  0  0  0  0  0
   -5.4750   23.1720  -30.5270 C   0  0  0  0  0  0  0  0  0  0  0  0
   -4.1180   23.8540  -29.6360 S   0  0  0  0  0  0  0  0  0  0  0  0
   -3.5200   25.2440  -30.4700 N   0  0  0  0  0  0  0  0  0  0  0  0
   -3.0220   22.8330  -29.5110 O   0  0  0  0  0  0  0  0  0  0  0  0
   -4.5650   24.2530  -28.2570 O   0  0  0  0  0  0  0  0  0  0  0  0
   -5.4120   21.8620  -31.0110 C   0  0  0  0  0  0  0  0  0  0  0  0
   -6.4900   21.2970  -31.7210 C   0  0  0  0  0  0  0  0  0  0  0  0
   -6.3690   19.9050  -32.2330 C   0  0  0  0  0  0  0  0  0  0  0  0
   -6.1110   19.6820  -33.5510 N   0  0  0  0  0  0  0  0  0  0  0  0
   -6.0060   18.4270  -34.0570 C   0  0  0  0  0  0  0  0  0  0  0  0
   -5.7650   18.2800  -35.2840 O   0  0  0  0  0  0  0  0  0  0  0  0
   -6.1680   17.3130  -33.2100 C   0  0  0  0  0  0  0  0  0  0  0  0
   -6.0640   15.9170  -33.7000 C   0  0  0  0  0  0  0  0  0  0  0  0
   -4.9390   15.1790  -33.6550 N   0  0  0  0  0  0  0  0  0  0  0  0
   -5.2760   14.0140  -34.1840 N   0  0  0  0  0  0  0  0  0  0  0  0
   -6.5510   14.0360  -34.5370 N   0  0  0  0  0  0  0  0  0  0  0  0
   -7.0740   15.2160  -34.2470 N   0  0  0  0  0  0  0  0  0  0  0  0
   -6.4370   17.5650  -31.8570 C   0  0  0  0  0  0  0  0  0  0  0  0
   -6.5330   18.8400  -31.4030 N   0  0  0  0  0  0  0  0  0  0  0  0
   -9.3163   18.4544  -31.8070 H   0  0  0  0  0  0  0  0  0  0  0  0
  -10.3005   18.8708  -33.2508 H   0  0  0  0  0  0  0  0  0  0  0  0
   -8.5309   19.1791  -33.2508 H   0  0  0  0  0  0  0  0  0  0  0  0
  -10.7055   20.8849  -32.3183 H   0  0  0  0  0  0  0  0  0  0  0  0
   -9.5544   20.5294  -30.9732 H   0  0  0  0  0  0  0  0  0  0  0  0
   -8.6158   23.9949  -31.5844 H   0  0  0  0  0  0  0  0  0  0  0  0
   -6.6863   24.9588  -30.3487 H   0  0  0  0  0  0  0  0  0  0  0  0
   -2.4980   25.3050  -30.2660 H   0  0  0  0  0  0  0  0  0  0  0  0
   -4.5065   21.2628  -30.8348 H   0  0  0  0  0  0  0  0  0  0  0  0
   -6.5709   16.7246  -31.1601 H   0  0  0  0  0  0  0  0  0  0  0  0
  1  2  1  0
  2  3  1  0
  3  4  1  0
  4  5  2  0
  5  6  1  0
  6  7  2  0
  7  8  1  0
  8  9  1  0
  8 10  2  0
  8 11  2  0
  7 12  1  0
 12 13  2  0
 13 14  1  0
 14 15  2  0
 15 16  1  0
 16 17  2  0
 16 18  1  0
 18 19  1  0
 19 20  1  0
 20 21  2  0
 21 22  1  0
 22 23  1  0
 18 24  2  0
 24 25  1  0
 13  4  1  0
 25 14  1  0
 23 19  2  0
  1 26  1  0
  1 27  1  0
  1 28  1  0
  2 29  1  0
  2 30  1  0
  5 31  1  0
  6 32  1  0
  9 33  1  0
 12 34  1  0
 24 35  1  0
M  CHG  3   9  -1  22  -1  25  -1
M  END
>  <UniqueID>  (26) 
26

>  <SMILES>  (26) 
CCOc1ccc(S([NH-])(=O)=O)cc1-c1nc(=O)c(-c2nn[n-]n2)c[n-]1

>  <Energy>  (26) 
80.19309911282377

>  <Genealogy>  (26) 
CCOc1ccc(S([NH-])(=O)=O)cc1-c1nc(=O)c(-c2nn[n-]n2)c[n-]1 (protonated)
CCOc1ccc(S([NH-])(=O)=O)cc1-c1nc(=O)c(-c2nn[n-]n2)c[n-]1 (3D coordinates assigned)
CCOc1ccc(S([NH-])(=O)=O)cc1-c1nc(=O)c(-c2nn[n-]n2)c[n-]1 (optimized conformer: 80.19309911282377 kcal/mol)

>  <smiles>  (26) 
CCOc1ccc(S(N)(=O)=O)cc1-c1nc(=O)c(-c2nn[nH]n2)c[nH]1

>  <score_type>  (26) 
oracle

>  <origin>  (26) 
adgpu

>  <m_score__min__energy>  (26) 
-10.25

>  <m_primary>  (26) 
energy

$$$$
26:0
     RDKit          3D

 40 41  0  0  0  0  0  0  0  0999 V2000
   -6.7427   22.7513  -30.3511 H   0  0  0  0  0  0  0  0  0  0  0  0
   -6.4360   21.8860  -30.9570 C   0  0  0  0  0  0  0  0  0  0  0  0
   -7.3870   20.9370  -31.3450 C   0  0  0  0  0  0  0  0  0  0  0  0
   -8.4385   21.0714  -31.0513 H   0  0  0  0  0  0  0  0  0  0  0  0
   -7.0170   19.8110  -32.1070 C   0  0  0  0  0  0  0  0  0  0  0  0
   -8.0040   18.8250  -32.5110 N   0  0  0  0  0  0  0  0  0  0  0  0
   -9.4090   19.2090  -32.6910 C   0  0  0  0  0  0  0  0  0  0  0  0
   -9.8827   19.3385  -31.7067 H   0  0  0  0  0  0  0  0  0  0  0  0
   -9.4619   20.1545  -33.2506 H   0  0  0  0  0  0  0  0  0  0  0  0
   -9.9355   18.4218  -33.2506 H   0  0  0  0  0  0  0  0  0  0  0  0
   -7.6130   17.4310  -32.7480 C   0  0  0  0  0  0  0  0  0  0  0  0
   -7.4700   16.9213  -31.7838 H   0  0  0  0  0  0  0  0  0  0  0  0
   -8.4027   16.9207  -33.3190 H   0  0  0  0  0  0  0  0  0  0  0  0
   -6.6731   17.4058  -33.3190 H   0  0  0  0  0  0  0  0  0  0  0  0
   -5.6590   19.6640  -32.4610 C   0  0  0  0  0  0  0  0  0  0  0  0
   -5.3429   18.7913  -33.0514 H   0  0  0  0  0  0  0  0  0  0  0  0
   -4.7110   20.6130  -32.0710 C   0  0  0  0  0  0  0  0  0  0  0  0
   -3.6547   20.4724  -32.3441 H   0  0  0  0  0  0  0  0  0  0  0  0
   -5.0930   21.7410  -31.3360 C   0  0  0  0  0  0  0  0  0  0  0  0
   -4.0910   22.6900  -30.9300 N   0  0  0  0  0  0  0  0  0  0  0  0
   -3.1160   22.3450  -30.7830 H   0  0  0  0  0  0  0  0  0  0  0  0
   -4.3070   24.1050  -30.8380 C   0  0  0  0  0  0  0  0  0  0  0  0
   -5.3790   24.6140  -31.2640 O   0  0  0  0  0  0  0  0  0  0  0  0
   -3.3020   24.9200  -30.2110 N   0  0  0  0  0  0  0  0  0  0  0  0
   -2.5870   24.6810  -29.1460 C   0  0  0  0  0  0  0  0  0  0  0  0
   -1.6230   25.5810  -28.8090 N   0  0  0  0  0  0  0  0  0  0  0  0
   -0.8220   25.4320  -27.7180 C   0  0  0  0  0  0  0  0  0  0  0  0
    0.1990   26.4880  -27.4070 C   0  0  0  0  0  0  0  0  0  0  0  0
    0.6652   26.8262  -28.3442 H   0  0  0  0  0  0  0  0  0  0  0  0
    0.9573   26.0588  -26.7356 H   0  0  0  0  0  0  0  0  0  0  0  0
   -0.4500   27.6800  -26.7130 C   0  0  0  0  0  0  0  0  0  0  0  0
   -0.3803   27.5520  -25.6227 H   0  0  0  0  0  0  0  0  0  0  0  0
    0.0698   28.6035  -27.0078 H   0  0  0  0  0  0  0  0  0  0  0  0
   -1.5078   27.7446  -27.0078 H   0  0  0  0  0  0  0  0  0  0  0  0
   -1.0000   24.3240  -26.8780 C   0  0  0  0  0  0  0  0  0  0  0  0
   -0.2340   24.1580  -25.7700 F   0  0  0  0  0  0  0  0  0  0  0  0
   -1.9890   23.3900  -27.1830 C   0  0  0  0  0  0  0  0  0  0  0  0
   -2.1374   22.5159  -26.5319 H   0  0  0  0  0  0  0  0  0  0  0  0
   -2.7920   23.5610  -28.3130 C   0  0  0  0  0  0  0  0  0  0  0  0
   -3.5775   22.8287  -28.5514 H   0  0  0  0  0  0  0  0  0  0  0  0
  1  2  1  0
  2  3  2  0
  3  4  1  0
  3  5  1  0
  5  6  1  0
  6  7  1  0
  7  8  1  0
  7  9  1  0
  7 10  1  0
  6 11  1  0
 11 12  1  0
 11 13  1  0
 11 14  1  0
  5 15  2  0
 15 16  1  0
 15 17  1  0
 17 18  1  0
 17 19  2  0
 19 20  1  0
 20 21  1  0
 20 22  1  0
 22 23  2  0
 22 24  1  0
 24 25  2  0
 25 26  1  0
 26 27  1  0
 27 28  1  0
 28 29  1  0
 28 30  1  0
 28 31  1  0
 31 32  1  0
 31 33  1  0
 31 34  1  0
 27 35  2  0
 35 36  1  0
 35 37  1  0
 37 38  1  0
 37 39  2  0
 39 40  1  0
 19  2  1  0
 39 25  1  0
M  CHG  1  26  -1
M  END
>  <UniqueID>  (27) 
27

>  <SMILES>  (27) 
CCc1[n-]/c(=N/C(=O)Nc2ccc(N(C)C)cc2)ccc1F

>  <Energy>  (27) 
49.6247631930265

>  <Genealogy>  (27) 
CCc1[n-]c(=NC(=O)Nc2ccc(N(C)C)cc2)ccc1F (protonated)
CCc1[n-]/c(=N/C(=O)Nc2ccc(N(C)C)cc2)ccc1F (cis-trans isomerization)
CCc1[n-]/c(=N/C(=O)Nc2ccc(N(C)C)cc2)ccc1F (3D coordinates assigned)
CCc1[n-]/c(=N/C(=O)Nc2ccc(N(C)C)cc2)ccc1F (optimized conformer: 49.6247631930265 kcal/mol)

>  <smiles>  (27) 
CCc1[nH]c(=NC(=O)Nc2ccc(N(C)C)cc2)ccc1F

>  <score_type>  (27) 
oracle

>  <origin>  (27) 
adgpu

>  <m_score__min__energy>  (27) 
-8.2799999999999994

>  <m_primary>  (27) 
energy

$$$$
27:0
     RDKit          3D

 41 44  0  0  0  0  0  0  0  0999 V2000
    1.2030   19.2090  -36.3660 O   0  0  0  0  0  0  0  0  0  0  0  0
    0.2770   19.7070  -35.4560 C   0  0  0  0  0  0  0  0  0  0  0  0
   -0.6690   18.8530  -34.8850 C   0  0  0  0  0  0  0  0  0  0  0  0
   -1.6010   19.3510  -33.9690 C   0  0  0  0  0  0  0  0  0  0  0  0
   -1.6030   20.7150  -33.6190 C   0  0  0  0  0  0  0  0  0  0  0  0
   -2.5940   21.2250  -32.6380 C   0  0  0  0  0  0  0  0  0  0  0  0
   -3.9700   20.9810  -32.7830 C   0  0  0  0  0  0  0  0  0  0  0  0
   -4.8760   21.4870  -31.8370 C   0  0  0  0  0  0  0  0  0  0  0  0
   -6.3350   21.2520  -31.9860 C   0  0  0  0  0  0  0  0  0  0  0  0
   -7.2630   22.2370  -31.5960 C   0  0  0  0  0  0  0  0  0  0  0  0
   -8.6360   22.0130  -31.7370 C   0  0  0  0  0  0  0  0  0  0  0  0
   -9.0980   20.8060  -32.2660 C   0  0  0  0  0  0  0  0  0  0  0  0
   -8.1880   19.8210  -32.6580 C   0  0  0  0  0  0  0  0  0  0  0  0
   -6.8150   20.0400  -32.5190 C   0  0  0  0  0  0  0  0  0  0  0  0
   -4.3810   22.2210  -30.7480 C   0  0  0  0  0  0  0  0  0  0  0  0
   -3.0000   22.4210  -30.6090 C   0  0  0  0  0  0  0  0  0  0  0  0
   -2.4410   23.1970  -29.4780 C   0  0  0  0  0  0  0  0  0  0  0  0
   -1.7430   22.5210  -28.4610 C   0  0  0  0  0  0  0  0  0  0  0  0
   -1.2010   23.2250  -27.3830 C   0  0  0  0  0  0  0  0  0  0  0  0
   -1.3560   24.6100  -27.3020 C   0  0  0  0  0  0  0  0  0  0  0  0
   -2.0630   25.2930  -28.2930 C   0  0  0  0  0  0  0  0  0  0  0  0
   -2.6140   24.5960  -29.3750 C   0  0  0  0  0  0  0  0  0  0  0  0
   -3.3540   25.2980  -30.3210 O   0  0  0  0  0  0  0  0  0  0  0  0
   -2.1570   21.9300  -31.5580 N   0  0  0  0  0  0  0  0  0  0  0  0
   -0.6340   21.5630  -34.1950 C   0  0  0  0  0  0  0  0  0  0  0  0
    0.2950   21.0600  -35.1090 C   0  0  0  0  0  0  0  0  0  0  0  0
   -0.6811   17.7870  -35.1561 H   0  0  0  0  0  0  0  0  0  0  0  0
   -2.3390   18.6713  -33.5180 H   0  0  0  0  0  0  0  0  0  0  0  0
   -4.3375   20.3937  -33.6374 H   0  0  0  0  0  0  0  0  0  0  0  0
   -6.9052   23.1893  -31.1775 H   0  0  0  0  0  0  0  0  0  0  0  0
   -9.3533   22.7887  -31.4308 H   0  0  0  0  0  0  0  0  0  0  0  0
  -10.1786   20.6307  -32.3741 H   0  0  0  0  0  0  0  0  0  0  0  0
   -8.5530   18.8716  -33.0767 H   0  0  0  0  0  0  0  0  0  0  0  0
   -6.1037   19.2599  -32.8282 H   0  0  0  0  0  0  0  0  0  0  0  0
   -5.0755   22.6389  -30.0044 H   0  0  0  0  0  0  0  0  0  0  0  0
   -1.6229   21.4289  -28.5150 H   0  0  0  0  0  0  0  0  0  0  0  0
   -0.6512   22.6871  -26.5967 H   0  0  0  0  0  0  0  0  0  0  0  0
   -0.9208   25.1634  -26.4568 H   0  0  0  0  0  0  0  0  0  0  0  0
   -2.1878   26.3837  -28.2235 H   0  0  0  0  0  0  0  0  0  0  0  0
   -0.6097   22.6284  -33.9224 H   0  0  0  0  0  0  0  0  0  0  0  0
    1.0427   21.7312  -35.5567 H   0  0  0  0  0  0  0  0  0  0  0  0
  1  2  1  0
  2  3  2  0
  3  4  1  0
  4  5  2  0
  5  6  1  0
  6  7  2  0
  7  8  1  0
  8  9  1  0
  9 10  2  0
 10 11  1  0
 11 12  2  0
 12 13  1  0
 13 14  2  0
  8 15  2  0
 15 16  1  0
 16 17  1  0
 17 18  2  0
 18 19  1  0
 19 20  2  0
 20 21  1  0
 21 22  2  0
 22 23  1  0
 16 24  2  0
  5 25  1  0
 25 26  2  0
 26  2  1  0
 24  6  1  0
 14  9  1  0
 22 17  1  0
  3 27  1  0
  4 28  1  0
  7 29  1  0
 10 30  1  0
 11 31  1  0
 12 32  1  0
 13 33  1  0
 14 34  1  0
 15 35  1  0
 18 36  1  0
 19 37  1  0
 20 38  1  0
 21 39  1  0
 25 40  1  0
 26 41  1  0
M  CHG  2   1  -1  23  -1
M  END
>  <UniqueID>  (28) 
28

>  <SMILES>  (28) 
[O-]c1ccc(-c2cc(-c3ccccc3)cc(-c3ccccc3[O-])n2)cc1

>  <Energy>  (28) 
61.585507664957554

>  <Genealogy>  (28) 
[O-]c1ccc(-c2cc(-c3ccccc3)cc(-c3ccccc3[O-])n2)cc1 (protonated)
[O-]c1ccc(-c2cc(-c3ccccc3)cc(-c3ccccc3[O-])n2)cc1 (3D coordinates assigned)
[O-]c1ccc(-c2cc(-c3ccccc3)cc(-c3ccccc3[O-])n2)cc1 (optimized conformer: 61.585507664957554 kcal/mol)

>  <smiles>  (28) 
Oc1ccc(-c2cc(-c3ccccc3)cc(-c3ccccc3O)n2)cc1

>  <score_type>  (28) 
oracle

>  <origin>  (28) 
adgpu

>  <m_score__min__energy>  (28) 
-11.93

>  <m_primary>  (28) 
energy

$$$$
28:0
     RDKit          3D

 49 51  0  0  0  0  0  0  0  0999 V2000
   -0.2030   13.5200  -32.8500 C   0  0  0  0  0  0  0  0  0  0  0  0
   -1.0360   14.4540  -33.6080 N   0  0  0  0  0  0  0  0  0  0  0  0
   -2.4430   14.1960  -33.7800 C   0  0  0  0  0  0  0  0  0  0  0  0
   -2.9440   13.7740  -35.0230 C   0  0  0  0  0  0  0  0  0  0  0  0
   -4.3110   13.5330  -35.1930 C   0  0  0  0  0  0  0  0  0  0  0  0
   -5.1940   13.7140  -34.1220 C   0  0  0  0  0  0  0  0  0  0  0  0
   -6.6020   13.4640  -34.2960 C   0  0  0  0  0  0  0  0  0  0  0  0
   -7.7320   13.2630  -34.4370 N   0  0  0  0  0  0  0  0  0  0  0  0
   -4.7050   14.1380  -32.8810 C   0  0  0  0  0  0  0  0  0  0  0  0
   -3.3390   14.3810  -32.7110 C   0  0  0  0  0  0  0  0  0  0  0  0
   -0.3150   15.9010  -34.2540 S   0  0  0  0  0  0  0  0  0  0  0  0
    0.9910   16.1830  -33.5640 O   0  0  0  0  0  0  0  0  0  0  0  0
   -0.0650   15.7100  -35.7240 O   0  0  0  0  0  0  0  0  0  0  0  0
   -1.3890   17.2690  -33.9780 C   0  0  0  0  0  0  0  0  0  0  0  0
   -0.9500   18.3460  -33.1990 C   0  0  0  0  0  0  0  0  0  0  0  0
   -1.7940   19.4330  -32.9570 C   0  0  0  0  0  0  0  0  0  0  0  0
   -3.0970   19.4560  -33.4880 C   0  0  0  0  0  0  0  0  0  0  0  0
   -4.0010   20.6050  -33.2380 C   0  0  0  0  0  0  0  0  0  0  0  0
   -3.6800   21.7510  -33.6560 O   0  0  0  0  0  0  0  0  0  0  0  0
   -5.2630   20.4180  -32.5740 N   0  0  0  0  0  0  0  0  0  0  0  0
   -5.9930   21.4780  -31.9320 C   0  0  0  0  0  0  0  0  0  0  0  0
   -7.3940   21.4240  -31.8920 C   0  0  0  0  0  0  0  0  0  0  0  0
   -8.1230   22.4340  -31.2600 C   0  0  0  0  0  0  0  0  0  0  0  0
   -7.4590   23.4980  -30.6460 C   0  0  0  0  0  0  0  0  0  0  0  0
   -6.0600   23.5520  -30.6520 C   0  0  0  0  0  0  0  0  0  0  0  0
   -5.2170   24.8880  -29.8730 S   0  0  0  0  0  0  0  0  0  0  0  0
   -3.8500   25.3420  -30.8270 N   0  0  0  0  0  0  0  0  0  0  0  0
   -6.1400   26.0660  -29.7330 O   0  0  0  0  0  0  0  0  0  0  0  0
   -4.7590   24.4700  -28.5040 O   0  0  0  0  0  0  0  0  0  0  0  0
   -5.3290   22.5420  -31.2940 C   0  0  0  0  0  0  0  0  0  0  0  0
   -3.5260   18.3770  -34.2820 C   0  0  0  0  0  0  0  0  0  0  0  0
   -2.6790   17.2900  -34.5220 C   0  0  0  0  0  0  0  0  0  0  0  0
   -0.3519   13.6869  -31.7730 H   0  0  0  0  0  0  0  0  0  0  0  0
   -0.4857   12.4876  -33.1036 H   0  0  0  0  0  0  0  0  0  0  0  0
    0.8548   13.6833  -33.1036 H   0  0  0  0  0  0  0  0  0  0  0  0
   -2.2555   13.6321  -35.8691 H   0  0  0  0  0  0  0  0  0  0  0  0
   -4.6929   13.2008  -36.1696 H   0  0  0  0  0  0  0  0  0  0  0  0
   -5.3970   14.2803  -32.0378 H   0  0  0  0  0  0  0  0  0  0  0  0
   -2.9618   14.7192  -31.7346 H   0  0  0  0  0  0  0  0  0  0  0  0
    0.0650   18.3366  -32.7750 H   0  0  0  0  0  0  0  0  0  0  0  0
   -1.4375   20.2764  -32.3474 H   0  0  0  0  0  0  0  0  0  0  0  0
   -5.7270   19.4850  -32.6550 H   0  0  0  0  0  0  0  0  0  0  0  0
   -7.9220   20.5808  -32.3614 H   0  0  0  0  0  0  0  0  0  0  0  0
   -9.2221   22.3912  -31.2459 H   0  0  0  0  0  0  0  0  0  0  0  0
   -8.0367   24.2958  -30.1563 H   0  0  0  0  0  0  0  0  0  0  0  0
   -3.0090   25.2510  -30.2150 H   0  0  0  0  0  0  0  0  0  0  0  0
   -4.2297   22.5818  -31.2989 H   0  0  0  0  0  0  0  0  0  0  0  0
   -4.5359   18.3881  -34.7178 H   0  0  0  0  0  0  0  0  0  0  0  0
   -3.0274   16.4493  -35.1399 H   0  0  0  0  0  0  0  0  0  0  0  0
  1  2  1  0
  2  3  1  0
  3  4  2  0
  4  5  1  0
  5  6  2  0
  6  7  1  0
  7  8  3  0
  6  9  1  0
  9 10  2  0
  2 11  1  0
 11 12  2  0
 11 13  2  0
 11 14  1  0
 14 15  2  0
 15 16  1  0
 16 17  2  0
 17 18  1  0
 18 19  2  0
 18 20  1  0
 20 21  1  0
 21 22  2  0
 22 23  1  0
 23 24  2  0
 24 25  1  0
 25 26  1  0
 26 27  1  0
 26 28  2  0
 26 29  2  0
 25 30  2  0
 17 31  1  0
 31 32  2  0
 10  3  1  0
 32 14  1  0
 30 21  1  0
  1 33  1  0
  1 34  1  0
  1 35  1  0
  4 36  1  0
  5 37  1  0
  9 38  1  0
 10 39  1  0
 15 40  1  0
 16 41  1  0
 20 42  1  0
 22 43  1  0
 23 44  1  0
 24 45  1  0
 27 46  1  0
 30 47  1  0
 31 48  1  0
 32 49  1  0
M  CHG  1  27  -1
M  END
>  <UniqueID>  (29) 
29

>  <SMILES>  (29) 
CN(c1ccc(C#N)cc1)S(=O)(=O)c1ccc(C(=O)Nc2cccc(S([NH-])(=O)=O)c2)cc1

>  <Energy>  (29) 
60.66586258535148

>  <Genealogy>  (29) 
CN(c1ccc(C#N)cc1)S(=O)(=O)c1ccc(C(=O)Nc2cccc(S([NH-])(=O)=O)c2)cc1 (protonated)
CN(c1ccc(C#N)cc1)S(=O)(=O)c1ccc(C(=O)Nc2cccc(S([NH-])(=O)=O)c2)cc1 (3D coordinates assigned)
CN(c1ccc(C#N)cc1)S(=O)(=O)c1ccc(C(=O)Nc2cccc(S([NH-])(=O)=O)c2)cc1 (optimized conformer: 60.66586258535148 kcal/mol)

>  <smiles>  (29) 
CN(c1ccc(C#N)cc1)S(=O)(=O)c1ccc(C(=O)Nc2cccc(S(N)(=O)=O)c2)cc1

>  <score_type>  (29) 
oracle

>  <origin>  (29) 
adgpu

>  <m_score__min__energy>  (29) 
-10.720000000000001

>  <m_primary>  (29) 
energy

$$$$
29:0
     RDKit          3D

 46 48  0  0  1  0  0  0  0  0999 V2000
   -6.3790   17.0820  -33.1370 C   0  0  0  0  0  0  0  0  0  0  0  0
   -6.4980   17.9220  -31.9790 O   0  0  0  0  0  0  0  0  0  0  0  0
   -6.3940   19.2960  -32.1000 C   0  0  0  0  0  0  0  0  0  0  0  0
   -5.1560   19.9400  -32.0970 C   0  0  0  0  0  0  0  0  0  0  0  0
   -5.0860   21.3210  -32.2210 C   0  0  0  0  0  0  0  0  0  0  0  0
   -6.1940   22.1080  -32.3480 C   0  0  0  0  0  0  0  0  0  0  0  0
   -6.1190   23.5190  -32.4740 N   0  0  0  0  0  0  0  0  0  0  0  0
   -6.1170   24.3750  -31.3130 C   0  0  1  0  0  0  0  0  0  0  0  0
   -6.9530   23.7290  -30.2040 C   0  0  0  0  0  0  0  0  0  0  0  0
   -4.7350   24.5150  -30.7260 C   0  0  0  0  0  0  0  0  0  0  0  0
   -4.2370   25.6750  -30.8190 O   0  0  0  0  0  0  0  0  0  0  0  0
   -4.0600   23.4250  -30.1210 N   0  0  0  0  0  0  0  0  0  0  0  0
   -2.9320   23.6230  -29.5360 C   0  0  0  0  0  0  0  0  0  0  0  0
   -2.2130   24.7420  -29.3730 N   0  0  0  0  0  0  0  0  0  0  0  0
   -1.1170   24.4070  -28.6920 N   0  0  0  0  0  0  0  0  0  0  0  0
   -1.1240   23.0970  -28.4180 C   0  0  0  0  0  0  0  0  0  0  0  0
   -0.2120   22.4550  -27.7750 N   0  0  0  0  0  0  0  0  0  0  0  0
   -0.3930   21.0510  -27.5800 C   0  0  0  0  0  0  0  0  0  0  0  0
    0.4570   20.1150  -28.1380 C   0  0  0  0  0  0  0  0  0  0  0  0
    0.2000   18.7650  -27.8920 C   0  0  0  0  0  0  0  0  0  0  0  0
   -0.8890   18.3900  -27.1020 C   0  0  0  0  0  0  0  0  0  0  0  0
   -1.7280   19.3510  -26.5520 C   0  0  0  0  0  0  0  0  0  0  0  0
   -2.8010   18.9950  -25.7750 F   0  0  0  0  0  0  0  0  0  0  0  0
   -1.4810   20.6880  -26.7910 C   0  0  0  0  0  0  0  0  0  0  0  0
   -2.2570   22.5960  -28.9430 N   0  0  0  0  0  0  0  0  0  0  0  0
   -7.4260   21.4710  -32.3520 C   0  0  0  0  0  0  0  0  0  0  0  0
   -7.5180   20.0800  -32.2290 C   0  0  0  0  0  0  0  0  0  0  0  0
   -9.0790   19.2820  -32.2330 Cl  0  0  0  0  0  0  0  0  0  0  0  0
   -6.2313   16.0391  -32.8199 H   0  0  0  0  0  0  0  0  0  0  0  0
   -7.2965   17.1556  -33.7392 H   0  0  0  0  0  0  0  0  0  0  0  0
   -5.5180   17.4076  -33.7392 H   0  0  0  0  0  0  0  0  0  0  0  0
   -4.2323   19.3513  -31.9960 H   0  0  0  0  0  0  0  0  0  0  0  0
   -4.0963   21.8010  -32.2167 H   0  0  0  0  0  0  0  0  0  0  0  0
   -6.0660   23.9430  -33.4320 H   0  0  0  0  0  0  0  0  0  0  0  0
   -6.5074   25.3503  -31.6391 H   0  0  0  0  0  0  0  0  0  0  0  0
   -6.5590   24.0335  -29.2232 H   0  0  0  0  0  0  0  0  0  0  0  0
   -7.9994   24.0555  -30.2962 H   0  0  0  0  0  0  0  0  0  0  0  0
   -6.9010   22.6341  -30.2962 H   0  0  0  0  0  0  0  0  0  0  0  0
   -2.5100   25.6720  -29.7350 H   0  0  0  0  0  0  0  0  0  0  0  0
   -0.3950   25.1290  -28.4410 H   0  0  0  0  0  0  0  0  0  0  0  0
    1.3112   20.4247  -28.7580 H   0  0  0  0  0  0  0  0  0  0  0  0
    0.8571   17.9945  -28.3216 H   0  0  0  0  0  0  0  0  0  0  0  0
   -1.0841   17.3240  -26.9136 H   0  0  0  0  0  0  0  0  0  0  0  0
   -2.1377   21.4592  -26.3621 H   0  0  0  0  0  0  0  0  0  0  0  0
   -2.5170   21.6000  -28.8780 H   0  0  0  0  0  0  0  0  0  0  0  0
   -8.3444   22.0680  -32.4534 H   0  0  0  0  0  0  0  0  0  0  0  0
  1  2  1  0
  2  3  1  0
  3  4  2  0
  4  5  1  0
  5  6  2  0
  6  7  1  0
  7  8  1  0
  8  9  1  0
  8 10  1  0
 10 11  2  0
 10 12  1  0
 12 13  2  0
 13 14  1  0
 14 15  1  0
 15 16  1  0
 16 17  2  0
 17 18  1  0
 18 19  2  0
 19 20  1  0
 20 21  2  0
 21 22  1  0
 22 23  1  0
 22 24  2  0
 16 25  1  0
  6 26  1  0
 26 27  2  0
 27 28  1  0
 27  3  1  0
 25 13  1  0
 24 18  1  0
  1 29  1  0
  1 30  1  0
  1 31  1  0
  4 32  1  0
  5 33  1  0
  7 34  1  0
  8 35  1  6
  9 36  1  0
  9 37  1  0
  9 38  1  0
 14 39  1  0
 15 40  1  0
 19 41  1  0
 20 42  1  0
 21 43  1  0
 24 44  1  0
 25 45  1  0
 26 46  1  0
M  END
>  <smiles>  (30) 
COc1ccc(NC(C)C(=O)N=c2[nH][nH]c(=Nc3cccc(F)c3)[nH]2)cc1Cl

>  <score_type>  (30) 
oracle

>  <origin>  (30) 
adgpu

>  <m_score__min__energy>  (30) 
-9.4000000000000004

>  <m_primary>  (30) 
energy

$$$$
30:0
     RDKit          3D

 30 31  0  0  0  0  0  0  0  0999 V2000
   -5.5030   16.4500  -34.3810 C   0  0  0  0  0  0  0  0  0  0  0  0
   -6.1850   17.6150  -33.7280 C   0  0  0  0  0  0  0  0  0  0  0  0
   -7.0160   17.4170  -32.6160 C   0  0  0  0  0  0  0  0  0  0  0  0
   -7.6800   18.4980  -32.0300 C   0  0  0  0  0  0  0  0  0  0  0  0
   -7.5270   19.7880  -32.5550 C   0  0  0  0  0  0  0  0  0  0  0  0
   -8.3580   21.1460  -31.8020 S   0  0  0  0  0  0  0  0  0  0  0  0
   -8.8920   20.7100  -30.4670 O   0  0  0  0  0  0  0  0  0  0  0  0
   -9.5030   21.6110  -32.6580 O   0  0  0  0  0  0  0  0  0  0  0  0
   -7.2380   22.4870  -31.5800 C   0  0  0  0  0  0  0  0  0  0  0  0
   -7.6480   23.7740  -31.5980 N   0  0  0  0  0  0  0  0  0  0  0  0
   -6.5310   24.4870  -31.3530 C   0  0  0  0  0  0  0  0  0  0  0  0
   -5.4720   23.6210  -31.1830 C   0  0  0  0  0  0  0  0  0  0  0  0
   -4.1270   24.0140  -30.8630 N   0  0  0  0  0  0  0  0  0  0  0  0
   -3.1930   23.1990  -30.9970 O   0  0  0  0  0  0  0  0  0  0  0  0
   -3.8360   25.2980  -30.4660 O   0  0  0  0  0  0  0  0  0  0  0  0
   -5.9120   22.3550  -31.3380 N   0  0  0  0  0  0  0  0  0  0  0  0
   -5.1380   21.1180  -31.2240 C   0  0  0  0  0  0  0  0  0  0  0  0
   -6.7150   19.9860  -33.6800 C   0  0  0  0  0  0  0  0  0  0  0  0
   -6.0520   18.9050  -34.2670 C   0  0  0  0  0  0  0  0  0  0  0  0
   -5.1081   15.7754  -33.6071 H   0  0  0  0  0  0  0  0  0  0  0  0
   -6.2254   15.9063  -35.0075 H   0  0  0  0  0  0  0  0  0  0  0  0
   -4.6752   16.8138  -35.0075 H   0  0  0  0  0  0  0  0  0  0  0  0
   -7.1458   16.4058  -32.2029 H   0  0  0  0  0  0  0  0  0  0  0  0
   -8.3248   18.3356  -31.1538 H   0  0  0  0  0  0  0  0  0  0  0  0
   -6.4735   25.5841  -31.2976 H   0  0  0  0  0  0  0  0  0  0  0  0
   -4.9869   20.8766  -30.1615 H   0  0  0  0  0  0  0  0  0  0  0  0
   -5.6841   20.2975  -31.7124 H   0  0  0  0  0  0  0  0  0  0  0  0
   -4.1613   21.2503  -31.7124 H   0  0  0  0  0  0  0  0  0  0  0  0
   -6.5993   20.9952  -34.1021 H   0  0  0  0  0  0  0  0  0  0  0  0
   -5.4231   19.0652  -35.1552 H   0  0  0  0  0  0  0  0  0  0  0  0
  1  2  1  0
  2  3  2  0
  3  4  1  0
  4  5  2  0
  5  6  1  0
  6  7  2  0
  6  8  2  0
  6  9  1  0
  9 10  2  0
 10 11  1  0
 11 12  2  0
 12 13  1  0
 13 14  2  0
 13 15  1  0
 12 16  1  0
 16 17  1  0
  5 18  1  0
 18 19  2  0
 19  2  1  0
 16  9  1  0
  1 20  1  0
  1 21  1  0
  1 22  1  0
  3 23  1  0
  4 24  1  0
 11 25  1  0
 17 26  1  0
 17 27  1  0
 17 28  1  0
 18 29  1  0
 19 30  1  0
M  CHG  2  13   1  15  -1
M  END
>  <UniqueID>  (31) 
30

>  <SMILES>  (31) 
Cc1ccc(S(=O)(=O)c2ncc([N+](=O)[O-])n2C)cc1

>  <Energy>  (31) 
62.90580058998328

>  <Genealogy>  (31) 
Cc1ccc(S(=O)(=O)c2ncc([N+](=O)[O-])n2C)cc1 (3D coordinates assigned)
Cc1ccc(S(=O)(=O)c2ncc([N+](=O)[O-])n2C)cc1 (optimized conformer: 62.90580058998328 kcal/mol)

>  <smiles>  (31) 
Cc1ccc(S(=O)(=O)c2ncc([N+](=O)[O-])n2C)cc1

>  <score_type>  (31) 
oracle

>  <origin>  (31) 
adgpu

>  <m_score__min__energy>  (31) 
-8.0800000000000001

>  <m_primary>  (31) 
energy

$$$$
31:0
     RDKit          3D

 47 48  0  0  0  0  0  0  0  0999 V2000
   -2.2840   25.7200  -25.8180 C   0  0  0  0  0  0  0  0  0  0  0  0
   -2.2820   25.5310  -27.2290 O   0  0  0  0  0  0  0  0  0  0  0  0
   -1.9130   24.3370  -27.8650 C   0  0  0  0  0  0  0  0  0  0  0  0
   -1.0200   24.4040  -28.9390 C   0  0  0  0  0  0  0  0  0  0  0  0
   -0.5930   23.2410  -29.5830 C   0  0  0  0  0  0  0  0  0  0  0  0
   -1.0360   21.9770  -29.1440 C   0  0  0  0  0  0  0  0  0  0  0  0
   -0.5490   20.7740  -29.6900 O   0  0  0  0  0  0  0  0  0  0  0  0
   -1.0510   20.1250  -30.8630 C   0  0  0  0  0  0  0  0  0  0  0  0
   -1.5510   21.1310  -31.9170 C   0  0  0  0  0  0  0  0  0  0  0  0
   -3.0820   21.1940  -32.0870 C   0  0  0  0  0  0  0  0  0  0  0  0
   -3.7950   22.3970  -31.4330 C   0  0  0  0  0  0  0  0  0  0  0  0
   -5.3160   22.4340  -31.5030 C   0  0  0  0  0  0  0  0  0  0  0  0
   -6.0350   21.5050  -32.2860 C   0  0  0  0  0  0  0  0  0  0  0  0
   -7.4310   21.4610  -32.2600 C   0  0  0  0  0  0  0  0  0  0  0  0
   -8.0790   20.4470  -32.9790 O   0  0  0  0  0  0  0  0  0  0  0  0
   -8.7470   19.3400  -32.3820 C   0  0  0  0  0  0  0  0  0  0  0  0
   -8.1330   22.4180  -31.5140 C   0  0  0  0  0  0  0  0  0  0  0  0
   -7.4440   23.4190  -30.8310 C   0  0  0  0  0  0  0  0  0  0  0  0
   -6.0420   23.4540  -30.8300 C   0  0  0  0  0  0  0  0  0  0  0  0
   -5.2290   24.8050  -30.0130 S   0  0  0  0  0  0  0  0  0  0  0  0
   -3.7580   25.2160  -30.8280 N   0  0  0  0  0  0  0  0  0  0  0  0
   -6.1230   26.0120  -30.0000 O   0  0  0  0  0  0  0  0  0  0  0  0
   -4.8920   24.4140  -28.6010 O   0  0  0  0  0  0  0  0  0  0  0  0
   -1.9900   21.9170  -28.1150 C   0  0  0  0  0  0  0  0  0  0  0  0
   -2.7060   20.3840  -27.6480 Cl  0  0  0  0  0  0  0  0  0  0  0  0
   -2.4120   23.0840  -27.4690 C   0  0  0  0  0  0  0  0  0  0  0  0
   -2.2736   24.7408  -25.3169 H   0  0  0  0  0  0  0  0  0  0  0  0
   -1.3919   26.2921  -25.5234 H   0  0  0  0  0  0  0  0  0  0  0  0
   -3.1880   26.2731  -25.5234 H   0  0  0  0  0  0  0  0  0  0  0  0
   -0.6504   25.3824  -29.2798 H   0  0  0  0  0  0  0  0  0  0  0  0
    0.0941   23.3118  -30.4391 H   0  0  0  0  0  0  0  0  0  0  0  0
   -0.2456   19.5200  -31.3050 H   0  0  0  0  0  0  0  0  0  0  0  0
   -1.9042   19.4989  -30.5630 H   0  0  0  0  0  0  0  0  0  0  0  0
   -1.1990   22.1319  -31.6266 H   0  0  0  0  0  0  0  0  0  0  0  0
   -1.1497   20.7881  -32.8821 H   0  0  0  0  0  0  0  0  0  0  0  0
   -3.2984   21.2221  -33.1651 H   0  0  0  0  0  0  0  0  0  0  0  0
   -3.4710   20.3056  -31.5680 H   0  0  0  0  0  0  0  0  0  0  0  0
   -3.5134   22.4091  -30.3697 H   0  0  0  0  0  0  0  0  0  0  0  0
   -3.4656   23.2697  -32.0160 H   0  0  0  0  0  0  0  0  0  0  0  0
   -5.4852   20.8021  -32.9291 H   0  0  0  0  0  0  0  0  0  0  0  0
   -8.6944   19.4272  -31.2867 H   0  0  0  0  0  0  0  0  0  0  0  0
   -9.8003   19.3329  -32.6991 H   0  0  0  0  0  0  0  0  0  0  0  0
   -8.2623   18.4048  -32.6991 H   0  0  0  0  0  0  0  0  0  0  0  0
   -9.2313   22.3789  -31.4674 H   0  0  0  0  0  0  0  0  0  0  0  0
   -8.0070   24.1911  -30.2860 H   0  0  0  0  0  0  0  0  0  0  0  0
   -3.8780   26.1810  -31.2080 H   0  0  0  0  0  0  0  0  0  0  0  0
   -3.1390   23.0206  -26.6459 H   0  0  0  0  0  0  0  0  0  0  0  0
  1  2  1  0
  2  3  1  0
  3  4  2  0
  4  5  1  0
  5  6  2  0
  6  7  1  0
  7  8  1  0
  8  9  1  0
  9 10  1  0
 10 11  1  0
 11 12  1  0
 12 13  2  0
 13 14  1  0
 14 15  1  0
 15 16  1  0
 14 17  2  0
 17 18  1  0
 18 19  2  0
 19 20  1  0
 20 21  1  0
 20 22  2  0
 20 23  2  0
  6 24  1  0
 24 25  1  0
 24 26  2  0
 26  3  1  0
 19 12  1  0
  1 27  1  0
  1 28  1  0
  1 29  1  0
  4 30  1  0
  5 31  1  0
  8 32  1  0
  8 33  1  0
  9 34  1  0
  9 35  1  0
 10 36  1  0
 10 37  1  0
 11 38  1  0
 11 39  1  0
 13 40  1  0
 16 41  1  0
 16 42  1  0
 16 43  1  0
 17 44  1  0
 18 45  1  0
 21 46  1  0
 26 47  1  0
M  CHG  1  21  -1
M  END
>  <UniqueID>  (32) 
31

>  <SMILES>  (32) 
COc1ccc(OCCCCc2cc(OC)ccc2S([NH-])(=O)=O)c(Cl)c1

>  <Energy>  (32) 
45.53452905997036

>  <Genealogy>  (32) 
COc1ccc(OCCCCc2cc(OC)ccc2S([NH-])(=O)=O)c(Cl)c1 (protonated)
COc1ccc(OCCCCc2cc(OC)ccc2S([NH-])(=O)=O)c(Cl)c1 (3D coordinates assigned)
COc1ccc(OCCCCc2cc(OC)ccc2S([NH-])(=O)=O)c(Cl)c1 (optimized conformer: 45.53452905997036 kcal/mol)

>  <smiles>  (32) 
COc1ccc(OCCCCc2cc(OC)ccc2S(N)(=O)=O)c(Cl)c1

>  <score_type>  (32) 
oracle

>  <origin>  (32) 
adgpu

>  <m_score__min__energy>  (32) 
-10.67

>  <m_primary>  (32) 
energy

$$$$
32:0
     RDKit          3D

 46 48  0  0  0  0  0  0  0  0999 V2000
    5.0860   22.9200  -27.6940 C   0  0  0  0  0  0  0  0  0  0  0  0
    4.3930   23.7790  -26.7420 N   0  0  0  0  0  0  0  0  0  0  0  0
    3.6720   24.9700  -27.0820 C   0  0  0  0  0  0  0  0  0  0  0  0
    4.0230   25.6200  -28.1020 O   0  0  0  0  0  0  0  0  0  0  0  0
    2.5690   25.4930  -26.2550 C   0  0  0  0  0  0  0  0  0  0  0  0
    1.3240   24.8490  -26.2090 C   0  0  0  0  0  0  0  0  0  0  0  0
    0.2880   25.3960  -25.4330 C   0  0  0  0  0  0  0  0  0  0  0  0
   -0.9690   24.7810  -25.3300 O   0  0  0  0  0  0  0  0  0  0  0  0
   -1.8360   24.5140  -26.3990 C   0  0  0  0  0  0  0  0  0  0  0  0
   -3.2030   24.8440  -26.3520 C   0  0  0  0  0  0  0  0  0  0  0  0
   -4.0370   24.5460  -27.4330 C   0  0  0  0  0  0  0  0  0  0  0  0
   -3.5300   23.8880  -28.5620 C   0  0  0  0  0  0  0  0  0  0  0  0
   -4.4050   23.6100  -29.6670 N   0  0  0  0  0  0  0  0  0  0  0  0
   -4.6060   24.5040  -30.7760 C   0  0  0  0  0  0  0  0  0  0  0  0
   -3.9930   25.6030  -30.8300 O   0  0  0  0  0  0  0  0  0  0  0  0
   -5.5050   24.1670  -31.8390 N   0  0  0  0  0  0  0  0  0  0  0  0
   -6.2780   22.9620  -31.9040 C   0  0  0  0  0  0  0  0  0  0  0  0
   -7.6400   23.0260  -31.5890 C   0  0  0  0  0  0  0  0  0  0  0  0
   -8.4290   21.8740  -31.6230 C   0  0  0  0  0  0  0  0  0  0  0  0
   -7.8650   20.6490  -31.9840 C   0  0  0  0  0  0  0  0  0  0  0  0
   -8.8570   19.2010  -32.0080 Cl  0  0  0  0  0  0  0  0  0  0  0  0
   -6.5140   20.5790  -32.3340 C   0  0  0  0  0  0  0  0  0  0  0  0
   -5.7120   21.7330  -32.3250 C   0  0  0  0  0  0  0  0  0  0  0  0
   -4.2740   21.6250  -32.7530 C   0  0  0  0  0  0  0  0  0  0  0  0
   -2.1640   23.5620  -28.6100 C   0  0  0  0  0  0  0  0  0  0  0  0
   -1.3290   23.8620  -27.5280 C   0  0  0  0  0  0  0  0  0  0  0  0
    0.5250   26.5660  -24.7070 C   0  0  0  0  0  0  0  0  0  0  0  0
    1.7670   27.1940  -24.8000 C   0  0  0  0  0  0  0  0  0  0  0  0
    2.7490   26.6550  -25.5690 N   0  0  0  0  0  0  0  0  0  0  0  0
    5.6857   22.1767  -27.1482 H   0  0  0  0  0  0  0  0  0  0  0  0
    4.3486   22.4036  -28.3261 H   0  0  0  0  0  0  0  0  0  0  0  0
    5.7467   23.5314  -28.3261 H   0  0  0  0  0  0  0  0  0  0  0  0
    1.1595   23.9214  -26.7769 H   0  0  0  0  0  0  0  0  0  0  0  0
   -3.6169   25.3385  -25.4608 H   0  0  0  0  0  0  0  0  0  0  0  0
   -5.0991   24.8299  -27.3976 H   0  0  0  0  0  0  0  0  0  0  0  0
   -4.8410   22.6620  -29.7040 H   0  0  0  0  0  0  0  0  0  0  0  0
   -8.0922   23.9900  -31.3128 H   0  0  0  0  0  0  0  0  0  0  0  0
   -9.4967   21.9320  -31.3649 H   0  0  0  0  0  0  0  0  0  0  0  0
   -6.0743   19.6119  -32.6191 H   0  0  0  0  0  0  0  0  0  0  0  0
   -3.6292   21.5766  -31.8631 H   0  0  0  0  0  0  0  0  0  0  0  0
   -4.1379   20.7141  -33.3544 H   0  0  0  0  0  0  0  0  0  0  0  0
   -4.0033   22.5053  -33.3544 H   0  0  0  0  0  0  0  0  0  0  0  0
   -1.7494   23.0690  -29.5017 H   0  0  0  0  0  0  0  0  0  0  0  0
   -0.2656   23.5830  -27.5655 H   0  0  0  0  0  0  0  0  0  0  0  0
   -0.2627   26.9891  -24.0663 H   0  0  0  0  0  0  0  0  0  0  0  0
    1.9520   28.1281  -24.2493 H   0  0  0  0  0  0  0  0  0  0  0  0
  1  2  1  0
  2  3  1  0
  3  4  2  0
  3  5  1  0
  5  6  2  0
  6  7  1  0
  7  8  1  0
  8  9  1  0
  9 10  2  0
 10 11  1  0
 11 12  2  0
 12 13  1  0
 13 14  1  0
 14 15  2  0
 14 16  1  0
 16 17  1  0
 17 18  2  0
 18 19  1  0
 19 20  2  0
 20 21  1  0
 20 22  1  0
 22 23  2  0
 23 24  1  0
 12 25  1  0
 25 26  2  0
  7 27  2  0
 27 28  1  0
 28 29  2  0
 29  5  1  0
 26  9  1  0
 23 17  1  0
  1 30  1  0
  1 31  1  0
  1 32  1  0
  6 33  1  0
 10 34  1  0
 11 35  1  0
 13 36  1  0
 18 37  1  0
 19 38  1  0
 22 39  1  0
 24 40  1  0
 24 41  1  0
 24 42  1  0
 25 43  1  0
 26 44  1  0
 27 45  1  0
 28 46  1  0
M  CHG  2   2  -1  16  -1
M  END
>  <UniqueID>  (33) 
32

>  <SMILES>  (33) 
C[N-]C(=O)c1cc(Oc2ccc(NC(=O)[N-]c3ccc(Cl)cc3C)cc2)ccn1

>  <Energy>  (33) 
68.92717399036569

>  <Genealogy>  (33) 
C[N-]C(=O)c1cc(Oc2ccc(NC(=O)[N-]c3ccc(Cl)cc3C)cc2)ccn1 (protonated)
C[N-]C(=O)c1cc(Oc2ccc(NC(=O)[N-]c3ccc(Cl)cc3C)cc2)ccn1 (3D coordinates assigned)
C[N-]C(=O)c1cc(Oc2ccc(NC(=O)[N-]c3ccc(Cl)cc3C)cc2)ccn1 (optimized conformer: 68.92717399036569 kcal/mol)

>  <smiles>  (33) 
CNC(=O)c1cc(Oc2ccc(NC(=O)Nc3ccc(Cl)cc3C)cc2)ccn1

>  <score_type>  (33) 
oracle

>  <origin>  (33) 
adgpu

>  <m_score__min__energy>  (33) 
-10.949999999999999

>  <m_primary>  (33) 
energy

$$$$
33:0
     RDKit          3D

 63 67  0  0  1  0  0  0  0  0999 V2000
   -6.4620   25.7460  -29.3440 C   0  0  0  0  0  0  0  0  0  0  0  0
   -6.0130   24.7090  -30.3090 C   0  0  0  0  0  0  0  0  0  0  0  0
   -6.8810   24.0740  -31.1810 C   0  0  0  0  0  0  0  0  0  0  0  0
   -6.4180   23.1010  -32.0760 C   0  0  0  0  0  0  0  0  0  0  0  0
   -5.0820   22.7540  -32.1070 C   0  0  0  0  0  0  0  0  0  0  0  0
   -4.5480   21.7760  -32.9890 N   0  0  0  0  0  0  0  0  0  0  0  0
   -3.8610   20.6020  -32.4930 C   0  0  0  0  0  0  0  0  0  0  0  0
   -2.3710   20.7780  -32.6120 C   0  0  0  0  0  0  0  0  0  0  0  0
   -1.6960   20.8500  -33.8290 C   0  0  0  0  0  0  0  0  0  0  0  0
   -0.3980   21.0060  -33.5330 N   0  0  0  0  0  0  0  0  0  0  0  0
    0.6500   21.1220  -34.4900 C   0  0  0  0  0  0  0  0  0  0  0  0
    0.9980   22.2830  -35.0720 N   0  0  0  0  0  0  0  0  0  0  0  0
    2.0000   22.3190  -35.9670 C   0  0  0  0  0  0  0  0  0  0  0  0
    2.4070   23.3710  -36.5720 N   0  0  0  0  0  0  0  0  0  0  0  0
    1.7880   24.6130  -36.3150 C   0  0  0  0  0  0  0  0  0  0  0  0
    0.4540   24.8800  -36.4630 C   0  0  0  0  0  0  0  0  0  0  0  0
   -0.0590   26.1510  -36.1720 C   0  0  0  0  0  0  0  0  0  0  0  0
    0.7450   27.1780  -35.7310 C   0  0  0  0  0  0  0  0  0  0  0  0
    0.2220   28.4600  -35.4270 N   0  0  0  0  0  0  0  0  0  0  0  0
    0.9700   29.4410  -34.6220 C   0  0  0  0  0  0  0  0  0  0  0  0
    0.6430   30.7820  -35.2680 C   0  0  0  0  0  0  0  0  0  0  0  0
    0.4210   30.6280  -36.6450 O   0  0  0  0  0  0  0  0  0  0  0  0
   -0.7950   30.0100  -36.9090 C   0  0  0  0  0  0  0  0  0  0  0  0
   -1.0850   28.9190  -35.8730 C   0  0  0  0  0  0  0  0  0  0  0  0
    2.0840   26.9080  -35.5830 C   0  0  0  0  0  0  0  0  0  0  0  0
    2.6110   25.6430  -35.8700 C   0  0  0  0  0  0  0  0  0  0  0  0
    2.6770   21.1340  -36.2870 C   0  0  0  0  0  0  0  0  0  0  0  0
    2.3150   19.9390  -35.6850 C   0  0  0  0  0  0  0  0  0  0  0  0
    1.3040   19.9760  -34.7990 N   0  0  0  0  0  0  0  0  0  0  0  0
   -0.2320   21.0360  -32.1790 C   0  0  0  0  0  0  0  0  0  0  0  0
   -1.4760   20.8930  -31.5680 C   0  0  0  0  0  0  0  0  0  0  0  0
   -1.7960   20.8630  -30.1170 C   0  0  0  0  0  0  0  0  0  0  0  0
   -4.2550   23.4160  -31.2150 C   0  0  0  0  0  0  0  0  0  0  0  0
   -4.7140   24.3500  -30.3610 N   0  0  0  0  0  0  0  0  0  0  0  0
   -6.3052   25.3838  -28.3172 H   0  0  0  0  0  0  0  0  0  0  0  0
   -5.8824   26.6678  -29.5002 H   0  0  0  0  0  0  0  0  0  0  0  0
   -7.5308   25.9540  -29.5002 H   0  0  0  0  0  0  0  0  0  0  0  0
   -7.9490   24.3372  -31.1708 H   0  0  0  0  0  0  0  0  0  0  0  0
   -7.1250   22.6090  -32.7602 H   0  0  0  0  0  0  0  0  0  0  0  0
   -4.6520   21.9020  -34.0120 H   0  0  0  0  0  0  0  0  0  0  0  0
   -4.1246   20.4469  -31.4364 H   0  0  0  0  0  0  0  0  0  0  0  0
   -4.1666   19.7302  -33.0901 H   0  0  0  0  0  0  0  0  0  0  0  0
   -2.1403   20.7906  -34.8335 H   0  0  0  0  0  0  0  0  0  0  0  0
   -0.2233   24.0877  -36.8145 H   0  0  0  0  0  0  0  0  0  0  0  0
   -1.1362   26.3337  -36.2997 H   0  0  0  0  0  0  0  0  0  0  0  0
    0.6364   29.4212  -33.5740 H   0  0  0  0  0  0  0  0  0  0  0  0
    2.0503   29.2346  -34.6034 H   0  0  0  0  0  0  0  0  0  0  0  0
   -0.2621   31.1969  -34.8005 H   0  0  0  0  0  0  0  0  0  0  0  0
    1.4946   31.4625  -35.1209 H   0  0  0  0  0  0  0  0  0  0  0  0
   -1.5970   30.7621  -36.8753 H   0  0  0  0  0  0  0  0  0  0  0  0
   -0.7471   29.5471  -37.9057 H   0  0  0  0  0  0  0  0  0  0  0  0
   -1.6580   29.3308  -35.0291 H   0  0  0  0  0  0  0  0  0  0  0  0
   -1.6865   28.1004  -36.2950 H   0  0  0  0  0  0  0  0  0  0  0  0
    2.7572   27.7036  -35.2311 H   0  0  0  0  0  0  0  0  0  0  0  0
    3.6883   25.4612  -35.7422 H   0  0  0  0  0  0  0  0  0  0  0  0
    3.4984   21.1525  -37.0184 H   0  0  0  0  0  0  0  0  0  0  0  0
    2.8337   18.9985  -35.9224 H   0  0  0  0  0  0  0  0  0  0  0  0
    1.0390   19.0540  -34.3460 H   0  0  0  0  0  0  0  0  0  0  0  0
    0.7279   21.1539  -31.6550 H   0  0  0  0  0  0  0  0  0  0  0  0
   -0.8668   20.9501  -29.5347 H   0  0  0  0  0  0  0  0  0  0  0  0
   -2.4628   21.7026  -29.8712 H   0  0  0  0  0  0  0  0  0  0  0  0
   -2.2952   19.9141  -29.8712 H   0  0  0  0  0  0  0  0  0  0  0  0
   -3.1830   23.1695  -31.2039 H   0  0  0  0  0  0  0  0  0  0  0  0
  1  2  1  0
  2  3  2  0
  3  4  1  0
  4  5  2  0
  5  6  1  0
  6  7  1  0
  7  8  1  0
  8  9  2  0
  9 10  1  0
 10 11  1  0
 11 12  2  0
 12 13  1  0
 13 14  2  0
 14 15  1  0
 15 16  2  0
 16 17  1  0
 17 18  2  0
 18 19  1  0
 19 20  1  0
 20 21  1  0
 21 22  1  0
 22 23  1  0
 23 24  1  0
 18 25  1  0
 25 26  2  0
 13 27  1  0
 27 28  2  0
 28 29  1  0
 10 30  1  0
 30 31  2  0
 31 32  1  0
  5 33  1  0
 33 34  2  0
 34  2  1  0
 31  8  1  0
 29 11  1  0
 26 15  1  0
 24 19  1  0
  1 35  1  0
  1 36  1  0
  1 37  1  0
  3 38  1  0
  4 39  1  0
  6 40  1  0
  7 41  1  0
  7 42  1  0
  9 43  1  0
 16 44  1  0
 17 45  1  0
 20 46  1  0
 20 47  1  0
 21 48  1  0
 21 49  1  0
 23 50  1  0
 23 51  1  0
 24 52  1  0
 24 53  1  0
 25 54  1  0
 26 55  1  0
 27 56  1  0
 28 57  1  0
 29 58  1  0
 30 59  1  0
 32 60  1  0
 32 61  1  0
 32 62  1  0
 33 63  1  0
M  END
>  <smiles>  (34) 
Cc1ccc(NCc2cn(-c3nc(=Nc4ccc(N5CCOCC5)cc4)cc[nH]3)cc2C)cn1

>  <score_type>  (34) 
oracle

>  <origin>  (34) 
adgpu

>  <m_score__min__energy>  (34) 
-10.220000000000001

>  <m_primary>  (34) 
energy

$$$$
34:0
     RDKit          3D

 32 34  0  0  0  0  0  0  0  0999 V2000
   -2.8740   13.5990  -32.3140 C   0  0  0  0  0  0  0  0  0  0  0  0
   -2.6960   14.7910  -33.0740 O   0  0  0  0  0  0  0  0  0  0  0  0
   -3.6930   15.7580  -33.2730 C   0  0  0  0  0  0  0  0  0  0  0  0
   -5.0110   15.4350  -32.9340 C   0  0  0  0  0  0  0  0  0  0  0  0
   -6.0390   16.3630  -33.1150 C   0  0  0  0  0  0  0  0  0  0  0  0
   -5.7690   17.6340  -33.6440 C   0  0  0  0  0  0  0  0  0  0  0  0
   -6.8530   18.5630  -33.8240 N   0  0  0  0  0  0  0  0  0  0  0  0
   -7.9090   19.0790  -32.5490 S   0  0  0  0  0  0  0  0  0  0  0  0
   -9.3050   19.2220  -33.0850 O   0  0  0  0  0  0  0  0  0  0  0  0
   -7.9060   18.0500  -31.4530 O   0  0  0  0  0  0  0  0  0  0  0  0
   -7.3810   20.6310  -31.9270 C   0  0  0  0  0  0  0  0  0  0  0  0
   -8.1950   21.5720  -31.3140 C   0  0  0  0  0  0  0  0  0  0  0  0
   -7.5060   22.7320  -30.9430 C   0  0  0  0  0  0  0  0  0  0  0  0
   -6.1540   22.6940  -31.2690 C   0  0  0  0  0  0  0  0  0  0  0  0
   -5.1790   23.7590  -31.0110 C   0  0  0  0  0  0  0  0  0  0  0  0
   -3.9310   23.5500  -30.5560 N   0  0  0  0  0  0  0  0  0  0  0  0
   -3.4010   24.7590  -30.4670 N   0  0  0  0  0  0  0  0  0  0  0  0
   -4.2870   25.6660  -30.8520 N   0  0  0  0  0  0  0  0  0  0  0  0
   -5.4150   25.0690  -31.2000 N   0  0  0  0  0  0  0  0  0  0  0  0
   -5.8100   21.2250  -32.0190 S   0  0  0  0  0  0  0  0  0  0  0  0
   -4.4420   17.9640  -33.9760 C   0  0  0  0  0  0  0  0  0  0  0  0
   -3.4140   17.0340  -33.7950 C   0  0  0  0  0  0  0  0  0  0  0  0
   -2.8381   13.8394  -31.2412 H   0  0  0  0  0  0  0  0  0  0  0  0
   -3.8490   13.1513  -32.5570 H   0  0  0  0  0  0  0  0  0  0  0  0
   -2.0724   12.8860  -32.5570 H   0  0  0  0  0  0  0  0  0  0  0  0
   -5.2399   14.4414  -32.5212 H   0  0  0  0  0  0  0  0  0  0  0  0
   -7.0698   16.0948  -32.8402 H   0  0  0  0  0  0  0  0  0  0  0  0
   -6.9770   19.0230  -34.7540 H   0  0  0  0  0  0  0  0  0  0  0  0
   -9.2704   21.4220  -31.1378 H   0  0  0  0  0  0  0  0  0  0  0  0
   -7.9849   23.5874  -30.4441 H   0  0  0  0  0  0  0  0  0  0  0  0
   -4.2119   18.9606  -34.3808 H   0  0  0  0  0  0  0  0  0  0  0  0
   -2.3811   17.3016  -34.0623 H   0  0  0  0  0  0  0  0  0  0  0  0
  1  2  1  0
  2  3  1  0
  3  4  2  0
  4  5  1  0
  5  6  2  0
  6  7  1  0
  7  8  1  0
  8  9  2  0
  8 10  2  0
  8 11  1  0
 11 12  2  0
 12 13  1  0
 13 14  2  0
 14 15  1  0
 15 16  1  0
 16 17  2  0
 17 18  1  0
 18 19  1  0
 14 20  1  0
  6 21  1  0
 21 22  2  0
 22  3  1  0
 20 11  1  0
 19 15  2  0
  1 23  1  0
  1 24  1  0
  1 25  1  0
  4 26  1  0
  5 27  1  0
  7 28  1  0
 12 29  1  0
 13 30  1  0
 21 31  1  0
 22 32  1  0
M  CHG  1  18  -1
M  END
>  <UniqueID>  (35) 
33

>  <SMILES>  (35) 
COc1ccc(NS(=O)(=O)c2ccc(-c3nn[n-]n3)s2)cc1

>  <Energy>  (35) 
99.91680029369239

>  <Genealogy>  (35) 
COc1ccc(NS(=O)(=O)c2ccc(-c3nn[n-]n3)s2)cc1 (protonated)
COc1ccc(NS(=O)(=O)c2ccc(-c3nn[n-]n3)s2)cc1 (3D coordinates assigned)
COc1ccc(NS(=O)(=O)c2ccc(-c3nn[n-]n3)s2)cc1 (optimized conformer: 99.91680029369239 kcal/mol)

>  <smiles>  (35) 
COc1ccc(NS(=O)(=O)c2ccc(-c3nn[nH]n3)s2)cc1

>  <score_type>  (35) 
oracle

>  <origin>  (35) 
adgpu

>  <m_score__min__energy>  (35) 
-9.7699999999999996

>  <m_primary>  (35) 
energy

$$$$
35:0
     RDKit          3D

 64 67  0  0  0  0  0  0  0  0999 V2000
    0.2040   16.9260  -31.1960 C   0  0  0  0  0  0  0  0  0  0  0  0
    1.4170   16.5840  -30.3310 C   0  0  0  0  0  0  0  0  0  0  0  0
    1.0190   16.1980  -28.8970 C   0  0  0  0  0  0  0  0  0  0  0  0
    1.0310   17.3660  -27.9400 C   0  0  0  0  0  0  0  0  0  0  0  0
    1.9590   17.4630  -27.0930 O   0  0  0  0  0  0  0  0  0  0  0  0
   -0.0330   18.3940  -27.9360 C   0  0  0  0  0  0  0  0  0  0  0  0
   -1.1260   18.3980  -27.0860 C   0  0  0  0  0  0  0  0  0  0  0  0
   -1.8990   19.4680  -27.3470 N   0  0  0  0  0  0  0  0  0  0  0  0
   -1.3480   20.1360  -28.3500 N   0  0  0  0  0  0  0  0  0  0  0  0
   -1.9330   21.3280  -28.8900 C   0  0  0  0  0  0  0  0  0  0  0  0
   -2.4720   22.3070  -28.0410 C   0  0  0  0  0  0  0  0  0  0  0  0
   -3.0110   23.4820  -28.5740 C   0  0  0  0  0  0  0  0  0  0  0  0
   -2.9840   23.7110  -29.9540 C   0  0  0  0  0  0  0  0  0  0  0  0
   -3.5500   24.9260  -30.4680 N   0  0  0  0  0  0  0  0  0  0  0  0
   -4.9270   25.1410  -30.8040 C   0  0  0  0  0  0  0  0  0  0  0  0
   -5.3710   26.3210  -30.8060 O   0  0  0  0  0  0  0  0  0  0  0  0
   -5.8240   24.0260  -31.1940 C   0  0  0  0  0  0  0  0  0  0  0  0
   -7.1870   24.0700  -30.8650 C   0  0  0  0  0  0  0  0  0  0  0  0
   -8.0330   23.0160  -31.2140 C   0  0  0  0  0  0  0  0  0  0  0  0
   -7.5320   21.9060  -31.8990 C   0  0  0  0  0  0  0  0  0  0  0  0
   -8.3850   20.9090  -32.2510 F   0  0  0  0  0  0  0  0  0  0  0  0
   -6.1700   21.8490  -32.2520 C   0  0  0  0  0  0  0  0  0  0  0  0
   -5.6190   20.6790  -32.9780 C   0  0  0  0  0  0  0  0  0  0  0  0
   -6.4630   19.8490  -33.7360 C   0  0  0  0  0  0  0  0  0  0  0  0
   -5.9430   18.7500  -34.4230 C   0  0  0  0  0  0  0  0  0  0  0  0
   -4.5720   18.4530  -34.3660 C   0  0  0  0  0  0  0  0  0  0  0  0
   -4.0750   17.3060  -35.0760 N   0  0  0  0  0  0  0  0  0  0  0  0
   -4.2710   15.6670  -34.5410 S   0  0  0  0  0  0  0  0  0  0  0  0
   -3.3430   15.3960  -33.0460 C   0  0  0  0  0  0  0  0  0  0  0  0
   -5.7230   15.4220  -34.2500 O   0  0  0  0  0  0  0  0  0  0  0  0
   -3.8260   14.7170  -35.6170 O   0  0  0  0  0  0  0  0  0  0  0  0
   -3.7250   19.2980  -33.6280 C   0  0  0  0  0  0  0  0  0  0  0  0
   -4.2440   20.3990  -32.9420 C   0  0  0  0  0  0  0  0  0  0  0  0
   -5.3270   22.9190  -31.9060 C   0  0  0  0  0  0  0  0  0  0  0  0
   -2.4420   22.7310  -30.8060 C   0  0  0  0  0  0  0  0  0  0  0  0
   -1.9060   21.5550  -30.2720 C   0  0  0  0  0  0  0  0  0  0  0  0
   -0.2090   19.5160  -28.7430 C   0  0  0  0  0  0  0  0  0  0  0  0
    0.7320   20.0230  -29.8000 C   0  0  0  0  0  0  0  0  0  0  0  0
   -0.6518   17.1673  -30.5484 H   0  0  0  0  0  0  0  0  0  0  0  0
    0.4392   17.7929  -31.8310 H   0  0  0  0  0  0  0  0  0  0  0  0
   -0.0483   16.0640  -31.8310 H   0  0  0  0  0  0  0  0  0  0  0  0
    1.9519   15.7392  -30.7895 H   0  0  0  0  0  0  0  0  0  0  0  0
    2.0541   17.4790  -30.2748 H   0  0  0  0  0  0  0  0  0  0  0  0
    0.0042   15.7742  -28.9182 H   0  0  0  0  0  0  0  0  0  0  0  0
    1.7630   15.4727  -28.5359 H   0  0  0  0  0  0  0  0  0  0  0  0
   -1.3312   17.6413  -26.3145 H   0  0  0  0  0  0  0  0  0  0  0  0
   -2.4704   22.1494  -26.9524 H   0  0  0  0  0  0  0  0  0  0  0  0
   -3.4590   24.2309  -27.9043 H   0  0  0  0  0  0  0  0  0  0  0  0
   -7.5917   24.9408  -30.3285 H   0  0  0  0  0  0  0  0  0  0  0  0
   -9.0996   23.0595  -30.9484 H   0  0  0  0  0  0  0  0  0  0  0  0
   -7.5400   20.0665  -33.7884 H   0  0  0  0  0  0  0  0  0  0  0  0
   -6.6144   18.1105  -35.0148 H   0  0  0  0  0  0  0  0  0  0  0  0
   -3.6780   17.4410  -36.0360 H   0  0  0  0  0  0  0  0  0  0  0  0
   -3.9878   15.5843  -32.1749 H   0  0  0  0  0  0  0  0  0  0  0  0
   -2.9857   14.3560  -33.0197 H   0  0  0  0  0  0  0  0  0  0  0  0
   -2.4821   16.0803  -33.0197 H   0  0  0  0  0  0  0  0  0  0  0  0
   -2.6453   19.0908  -33.5903 H   0  0  0  0  0  0  0  0  0  0  0  0
   -3.5693   21.0519  -32.3688 H   0  0  0  0  0  0  0  0  0  0  0  0
   -4.2661   22.8906  -32.1953 H   0  0  0  0  0  0  0  0  0  0  0  0
   -2.4399   22.8903  -31.8944 H   0  0  0  0  0  0  0  0  0  0  0  0
   -1.4606   20.8039  -30.9410 H   0  0  0  0  0  0  0  0  0  0  0  0
    1.6035   20.4926  -29.3204 H   0  0  0  0  0  0  0  0  0  0  0  0
    1.0666   19.1830  -30.4265 H   0  0  0  0  0  0  0  0  0  0  0  0
    0.2145   20.7644  -30.4265 H   0  0  0  0  0  0  0  0  0  0  0  0
  1  2  1  0
  2  3  1  0
  3  4  1  0
  4  5  2  0
  4  6  1  0
  6  7  1  0
  7  8  2  0
  8  9  1  0
  9 10  1  0
 10 11  2  0
 11 12  1  0
 12 13  2  0
 13 14  1  0
 14 15  1  0
 15 16  2  0
 15 17  1  0
 17 18  2  0
 18 19  1  0
 19 20  2  0
 20 21  1  0
 20 22  1  0
 22 23  1  0
 23 24  2  0
 24 25  1  0
 25 26  2  0
 26 27  1  0
 27 28  1  0
 28 29  1  0
 28 30  2  0
 28 31  2  0
 26 32  1  0
 32 33  2  0
 22 34  2  0
 13 35  1  0
 35 36  2  0
  9 37  1  0
 37 38  1  0
 37  6  2  0
 36 10  1  0
 34 17  1  0
 33 23  1  0
  1 39  1  0
  1 40  1  0
  1 41  1  0
  2 42  1  0
  2 43  1  0
  3 44  1  0
  3 45  1  0
  7 46  1  0
 11 47  1  0
 12 48  1  0
 18 49  1  0
 19 50  1  0
 24 51  1  0
 25 52  1  0
 27 53  1  0
 29 54  1  0
 29 55  1  0
 29 56  1  0
 32 57  1  0
 33 58  1  0
 34 59  1  0
 35 60  1  0
 36 61  1  0
 38 62  1  0
 38 63  1  0
 38 64  1  0
M  CHG  1  14  -1
M  END
>  <UniqueID>  (36) 
34

>  <SMILES>  (36) 
CCCC(=O)c1cnn(-c2ccc([N-]C(=O)c3ccc(F)c(-c4ccc(NS(C)(=O)=O)cc4)c3)cc2)c1C

>  <Energy>  (36) 
114.44705379583809

>  <Genealogy>  (36) 
CCCC(=O)c1cnn(-c2ccc([N-]C(=O)c3ccc(F)c(-c4ccc(NS(C)(=O)=O)cc4)c3)cc2)c1C (protonated)
CCCC(=O)c1cnn(-c2ccc([N-]C(=O)c3ccc(F)c(-c4ccc(NS(C)(=O)=O)cc4)c3)cc2)c1C (3D coordinates assigned)
CCCC(=O)c1cnn(-c2ccc([N-]C(=O)c3ccc(F)c(-c4ccc(NS(C)(=O)=O)cc4)c3)cc2)c1C (optimized conformer: 114.44705379583809 kcal/mol)

>  <smiles>  (36) 
CCCC(=O)c1cnn(-c2ccc(NC(=O)c3ccc(F)c(-c4ccc(NS(C)(=O)=O)cc4)c3)cc2)c1C

>  <score_type>  (36) 
oracle

>  <origin>  (36) 
adgpu

>  <m_score__min__energy>  (36) 
-11.640000000000001

>  <m_primary>  (36) 
energy

$$$$
36:0
     RDKit          3D

 30 31  0  0  0  0  0  0  0  0999 V2000
   -7.6425   24.1694  -31.4144 H   0  0  0  0  0  0  0  0  0  0  0  0
   -7.0090   23.2730  -31.3430 C   0  0  0  0  0  0  0  0  0  0  0  0
   -5.7870   23.4070  -30.8200 C   0  0  0  0  0  0  0  0  0  0  0  0
   -5.1317   22.5278  -30.7332 H   0  0  0  0  0  0  0  0  0  0  0  0
   -5.2180   24.9740  -30.2700 S   0  0  0  0  0  0  0  0  0  0  0  0
   -5.7120   25.2540  -28.8770 O   0  0  0  0  0  0  0  0  0  0  0  0
   -5.7260   26.0370  -31.2000 O   0  0  0  0  0  0  0  0  0  0  0  0
   -3.4850   25.0010  -30.2830 N   0  0  0  0  0  0  0  0  0  0  0  0
   -2.6410   24.4370  -29.2690 C   0  0  0  0  0  0  0  0  0  0  0  0
   -1.4360   25.0470  -28.8720 C   0  0  0  0  0  0  0  0  0  0  0  0
   -1.1141   25.9859  -29.3461 H   0  0  0  0  0  0  0  0  0  0  0  0
   -0.6470   24.4620  -27.8760 C   0  0  0  0  0  0  0  0  0  0  0  0
    0.2934   24.9427  -27.5683 H   0  0  0  0  0  0  0  0  0  0  0  0
   -1.0500   23.2690  -27.2710 C   0  0  0  0  0  0  0  0  0  0  0  0
   -0.2830   22.7030  -26.3070 F   0  0  0  0  0  0  0  0  0  0  0  0
   -2.2430   22.6570  -27.6630 C   0  0  0  0  0  0  0  0  0  0  0  0
   -2.5594   21.7163  -27.1888 H   0  0  0  0  0  0  0  0  0  0  0  0
   -3.0360   23.2390  -28.6580 C   0  0  0  0  0  0  0  0  0  0  0  0
   -3.9749   22.7535  -28.9625 H   0  0  0  0  0  0  0  0  0  0  0  0
   -7.5620   21.9870  -31.8330 C   0  0  0  0  0  0  0  0  0  0  0  0
   -8.9440   21.7580  -31.7100 C   0  0  0  0  0  0  0  0  0  0  0  0
   -9.5873   22.5310  -31.2643 H   0  0  0  0  0  0  0  0  0  0  0  0
   -9.5070   20.5570  -32.1490 C   0  0  0  0  0  0  0  0  0  0  0  0
  -10.5904   20.3919  -32.0548 H   0  0  0  0  0  0  0  0  0  0  0  0
   -8.6970   19.5660  -32.7070 C   0  0  0  0  0  0  0  0  0  0  0  0
   -9.1427   18.6227  -33.0558 H   0  0  0  0  0  0  0  0  0  0  0  0
   -7.3210   19.7730  -32.8220 C   0  0  0  0  0  0  0  0  0  0  0  0
   -6.6831   18.9897  -33.2574 H   0  0  0  0  0  0  0  0  0  0  0  0
   -6.7510   20.9740  -32.3850 C   0  0  0  0  0  0  0  0  0  0  0  0
   -5.6654   21.1286  -32.4725 H   0  0  0  0  0  0  0  0  0  0  0  0
  1  2  1  0
  2  3  2  0
  3  4  1  0
  3  5  1  0
  5  6  2  0
  5  7  2  0
  5  8  1  0
  8  9  1  0
  9 10  2  0
 10 11  1  0
 10 12  1  0
 12 13  1  0
 12 14  2  0
 14 15  1  0
 14 16  1  0
 16 17  1  0
 16 18  2  0
 18 19  1  0
  2 20  1  0
 20 21  2  0
 21 22  1  0
 21 23  1  0
 23 24  1  0
 23 25  2  0
 25 26  1  0
 25 27  1  0
 27 28  1  0
 27 29  2  0
 29 30  1  0
 18  9  1  0
 29 20  1  0
M  CHG  1   8  -1
M  END
>  <UniqueID>  (37) 
35

>  <SMILES>  (37) 
O=S(=O)(/C=C/c1ccccc1)[N-]c1ccc(F)cc1

>  <Energy>  (37) 
35.50879449015459

>  <Genealogy>  (37) 
O=S(=O)(C=Cc1ccccc1)[N-]c1ccc(F)cc1 (protonated)
O=S(=O)(/C=C/c1ccccc1)[N-]c1ccc(F)cc1 (cis-trans isomerization)
O=S(=O)(/C=C/c1ccccc1)[N-]c1ccc(F)cc1 (3D coordinates assigned)
O=S(=O)(/C=C/c1ccccc1)[N-]c1ccc(F)cc1 (optimized conformer: 35.50879449015459 kcal/mol)

>  <smiles>  (37) 
O=S(=O)(C=Cc1ccccc1)Nc1ccc(F)cc1

>  <score_type>  (37) 
oracle

>  <origin>  (37) 
adgpu

>  <m_score__min__energy>  (37) 
-8.9000000000000004

>  <m_primary>  (37) 
energy

$$$$
37:0
     RDKit          3D

 46 48  0  0  0  0  0  0  0  0999 V2000
    0.8770   24.1260  -36.0960 C   0  0  0  0  0  0  0  0  0  0  0  0
    0.2790   22.8050  -35.8980 N   0  0  0  0  0  0  0  0  0  0  0  0
    1.0660   21.9840  -34.9650 C   0  0  0  0  0  0  0  0  0  0  0  0
    0.1640   21.0720  -34.1050 C   0  0  0  0  0  0  0  0  0  0  0  0
   -1.2250   21.0800  -34.5890 N   0  0  0  0  0  0  0  0  0  0  0  0
   -1.9390   19.8770  -34.1370 C   0  0  0  0  0  0  0  0  0  0  0  0
   -3.1920   20.2570  -33.4060 C   0  0  0  0  0  0  0  0  0  0  0  0
   -4.4020   19.5970  -33.4960 C   0  0  0  0  0  0  0  0  0  0  0  0
   -5.2970   20.3220  -32.7270 C   0  0  0  0  0  0  0  0  0  0  0  0
   -6.6990   19.9350  -32.4650 C   0  0  0  0  0  0  0  0  0  0  0  0
   -7.7380   20.8740  -32.5730 C   0  0  0  0  0  0  0  0  0  0  0  0
   -9.0530   20.4820  -32.3110 C   0  0  0  0  0  0  0  0  0  0  0  0
   -9.3220   19.2030  -31.9400 N   0  0  0  0  0  0  0  0  0  0  0  0
   -8.3360   18.2760  -31.8120 C   0  0  0  0  0  0  0  0  0  0  0  0
   -7.0080   18.6260  -32.0650 C   0  0  0  0  0  0  0  0  0  0  0  0
   -4.5900   21.4140  -32.2230 C   0  0  0  0  0  0  0  0  0  0  0  0
   -5.1260   22.5420  -31.4310 C   0  0  0  0  0  0  0  0  0  0  0  0
   -6.0030   23.4780  -32.0090 C   0  0  0  0  0  0  0  0  0  0  0  0
   -6.4940   24.5460  -31.2540 C   0  0  0  0  0  0  0  0  0  0  0  0
   -6.1050   24.6970  -29.9200 C   0  0  0  0  0  0  0  0  0  0  0  0
   -6.5810   25.7350  -29.1880 F   0  0  0  0  0  0  0  0  0  0  0  0
   -5.2200   23.7830  -29.3420 C   0  0  0  0  0  0  0  0  0  0  0  0
   -4.7280   22.7120  -30.0950 C   0  0  0  0  0  0  0  0  0  0  0  0
   -3.3100   21.3590  -32.6430 N   0  0  0  0  0  0  0  0  0  0  0  0
    1.0847   24.5848  -35.1181 H   0  0  0  0  0  0  0  0  0  0  0  0
    1.8161   24.0227  -36.6594 H   0  0  0  0  0  0  0  0  0  0  0  0
    0.1797   24.7634  -36.6594 H   0  0  0  0  0  0  0  0  0  0  0  0
   -0.6630   22.9550  -35.4630 H   0  0  0  0  0  0  0  0  0  0  0  0
    1.7610   21.3561  -35.5419 H   0  0  0  0  0  0  0  0  0  0  0  0
    1.6121   22.6600  -34.2906 H   0  0  0  0  0  0  0  0  0  0  0  0
    0.5516   20.0434  -34.1468 H   0  0  0  0  0  0  0  0  0  0  0  0
    0.1728   21.4510  -33.0724 H   0  0  0  0  0  0  0  0  0  0  0  0
   -1.7220   21.9280  -34.2280 H   0  0  0  0  0  0  0  0  0  0  0  0
   -1.2230   21.1040  -35.6360 H   0  0  0  0  0  0  0  0  0  0  0  0
   -2.2012   19.2615  -35.0102 H   0  0  0  0  0  0  0  0  0  0  0  0
   -1.2870   19.3094  -33.4568 H   0  0  0  0  0  0  0  0  0  0  0  0
   -4.6126   18.6792  -34.0646 H   0  0  0  0  0  0  0  0  0  0  0  0
   -7.5175   21.9121  -32.8622 H   0  0  0  0  0  0  0  0  0  0  0  0
   -9.8721   21.2101  -32.4052 H   0  0  0  0  0  0  0  0  0  0  0  0
   -8.5847   17.2483  -31.5086 H   0  0  0  0  0  0  0  0  0  0  0  0
   -6.2082   17.8794  -31.9513 H   0  0  0  0  0  0  0  0  0  0  0  0
   -6.3038   23.3683  -33.0614 H   0  0  0  0  0  0  0  0  0  0  0  0
   -7.1871   25.2685  -31.7096 H   0  0  0  0  0  0  0  0  0  0  0  0
   -4.9100   23.9060  -28.2938 H   0  0  0  0  0  0  0  0  0  0  0  0
   -4.0256   21.9991  -29.6384 H   0  0  0  0  0  0  0  0  0  0  0  0
   -2.5600   22.0620  -32.4530 H   0  0  0  0  0  0  0  0  0  0  0  0
  1  2  1  0
  2  3  1  0
  3  4  1  0
  4  5  1  0
  5  6  1  0
  6  7  1  0
  7  8  2  0
  8  9  1  0
  9 10  1  0
 10 11  2  0
 11 12  1  0
 12 13  2  0
 13 14  1  0
 14 15  2  0
  9 16  2  0
 16 17  1  0
 17 18  2  0
 18 19  1  0
 19 20  2  0
 20 21  1  0
 20 22  1  0
 22 23  2  0
 16 24  1  0
 24  7  1  0
 15 10  1  0
 23 17  1  0
  1 25  1  0
  1 26  1  0
  1 27  1  0
  2 28  1  0
  3 29  1  0
  3 30  1  0
  4 31  1  0
  4 32  1  0
  5 33  1  0
  5 34  1  0
  6 35  1  0
  6 36  1  0
  8 37  1  0
 11 38  1  0
 12 39  1  0
 14 40  1  0
 15 41  1  0
 18 42  1  0
 19 43  1  0
 22 44  1  0
 23 45  1  0
 24 46  1  0
M  CHG  1   5   1
M  END
>  <UniqueID>  (38) 
36

>  <SMILES>  (38) 
CNCC[NH2+]Cc1cc(-c2ccncc2)c(-c2ccc(F)cc2)[nH]1

>  <Energy>  (38) 
80.26396684368895

>  <Genealogy>  (38) 
CNCC[NH2+]Cc1cc(-c2ccncc2)c(-c2ccc(F)cc2)[nH]1 (protonated)
CNCC[NH2+]Cc1cc(-c2ccncc2)c(-c2ccc(F)cc2)[nH]1 (3D coordinates assigned)
CNCC[NH2+]Cc1cc(-c2ccncc2)c(-c2ccc(F)cc2)[nH]1 (optimized conformer: 80.26396684368895 kcal/mol)

>  <smiles>  (38) 
CNCCNCc1cc(-c2ccncc2)c(-c2ccc(F)cc2)[nH]1

>  <score_type>  (38) 
oracle

>  <origin>  (38) 
adgpu

>  <m_score__min__energy>  (38) 
-7.4800000000000004

>  <m_primary>  (38) 
energy

$$$$
38:0
     RDKit          3D

 33 34  0  0  0  0  0  0  0  0999 V2000
   -7.7090   20.0150  -32.7580 C   0  0  0  0  0  0  0  0  0  0  0  0
   -7.0780   21.2310  -32.1470 C   0  0  0  0  0  0  0  0  0  0  0  0
   -5.7150   21.4940  -32.3490 C   0  0  0  0  0  0  0  0  0  0  0  0
   -5.1320   22.6430  -31.8090 C   0  0  0  0  0  0  0  0  0  0  0  0
   -5.9060   23.5460  -31.0670 C   0  0  0  0  0  0  0  0  0  0  0  0
   -5.1620   24.9820  -30.3730 S   0  0  0  0  0  0  0  0  0  0  0  0
   -5.5850   26.1830  -31.1700 O   0  0  0  0  0  0  0  0  0  0  0  0
   -5.5930   25.1640  -28.9440 O   0  0  0  0  0  0  0  0  0  0  0  0
   -3.4330   24.8450  -30.4290 N   0  0  0  0  0  0  0  0  0  0  0  0
   -2.6210   24.1560  -29.4660 C   0  0  0  0  0  0  0  0  0  0  0  0
   -2.9200   22.8420  -29.0560 C   0  0  0  0  0  0  0  0  0  0  0  0
   -2.0980   22.1790  -28.1320 C   0  0  0  0  0  0  0  0  0  0  0  0
   -2.4430   20.7900  -27.6790 C   0  0  0  0  0  0  0  0  0  0  0  0
   -0.9940   22.8470  -27.5860 C   0  0  0  0  0  0  0  0  0  0  0  0
   -0.6960   24.1510  -27.9820 C   0  0  0  0  0  0  0  0  0  0  0  0
   -1.5000   24.8100  -28.9190 C   0  0  0  0  0  0  0  0  0  0  0  0
   -1.1640   26.1110  -29.2920 O   0  0  0  0  0  0  0  0  0  0  0  0
   -7.2730   23.2980  -30.8840 C   0  0  0  0  0  0  0  0  0  0  0  0
   -7.8580   22.1490  -31.4250 C   0  0  0  0  0  0  0  0  0  0  0  0
   -8.0578   19.3428  -31.9602 H   0  0  0  0  0  0  0  0  0  0  0  0
   -8.5632   20.3189  -33.3809 H   0  0  0  0  0  0  0  0  0  0  0  0
   -6.9688   19.4916  -33.3809 H   0  0  0  0  0  0  0  0  0  0  0  0
   -5.1028   20.7927  -32.9350 H   0  0  0  0  0  0  0  0  0  0  0  0
   -4.0613   22.8399  -31.9667 H   0  0  0  0  0  0  0  0  0  0  0  0
   -3.8051   22.3314  -29.4635 H   0  0  0  0  0  0  0  0  0  0  0  0
   -2.4518   20.7545  -26.5796 H   0  0  0  0  0  0  0  0  0  0  0  0
   -3.4366   20.5154  -28.0627 H   0  0  0  0  0  0  0  0  0  0  0  0
   -1.6933   20.0824  -28.0627 H   0  0  0  0  0  0  0  0  0  0  0  0
   -0.3601   22.3415  -26.8426 H   0  0  0  0  0  0  0  0  0  0  0  0
    0.1775   24.6651  -27.5546 H   0  0  0  0  0  0  0  0  0  0  0  0
   -1.2370   26.4380  -30.2480 H   0  0  0  0  0  0  0  0  0  0  0  0
   -7.8877   24.0094  -30.3130 H   0  0  0  0  0  0  0  0  0  0  0  0
   -8.9331   21.9634  -31.2846 H   0  0  0  0  0  0  0  0  0  0  0  0
  1  2  1  0
  2  3  2  0
  3  4  1  0
  4  5  2  0
  5  6  1  0
  6  7  2  0
  6  8  2  0
  6  9  1  0
  9 10  1  0
 10 11  2  0
 11 12  1  0
 12 13  1  0
 12 14  2  0
 14 15  1  0
 15 16  2  0
 16 17  1  0
  5 18  1  0
 18 19  2  0
 19  2  1  0
 16 10  1  0
  1 20  1  0
  1 21  1  0
  1 22  1  0
  3 23  1  0
  4 24  1  0
 11 25  1  0
 13 26  1  0
 13 27  1  0
 13 28  1  0
 14 29  1  0
 15 30  1  0
 17 31  1  0
 18 32  1  0
 19 33  1  0
M  CHG  1   9  -1
M  END
>  <UniqueID>  (39) 
37

>  <SMILES>  (39) 
Cc1ccc(S(=O)(=O)[N-]c2cc(C)ccc2O)cc1

>  <Energy>  (39) 
34.97079225437826

>  <Genealogy>  (39) 
Cc1ccc(S(=O)(=O)[N-]c2cc(C)ccc2O)cc1 (protonated)
Cc1ccc(S(=O)(=O)[N-]c2cc(C)ccc2O)cc1 (3D coordinates assigned)
Cc1ccc(S(=O)(=O)[N-]c2cc(C)ccc2O)cc1 (optimized conformer: 34.97079225437826 kcal/mol)

>  <smiles>  (39) 
Cc1ccc(S(=O)(=O)Nc2cc(C)ccc2O)cc1

>  <score_type>  (39) 
oracle

>  <origin>  (39) 
adgpu

>  <m_score__min__energy>  (39) 
-10.359999999999999

>  <m_primary>  (39) 
energy

$$$$
39:0
     RDKit          3D

 41 43  0  0  0  0  0  0  0  0999 V2000
   -3.8350   18.5320  -34.0980 C   0  0  0  0  0  0  0  0  0  0  0  0
   -5.0440   17.9920  -34.7050 N   0  0  0  0  0  0  0  0  0  0  0  0
   -6.1970   17.5400  -33.9800 C   0  0  0  0  0  0  0  0  0  0  0  0
   -6.5240   16.3260  -34.0630 O   0  0  0  0  0  0  0  0  0  0  0  0
   -7.0400   18.4490  -33.1840 C   0  0  0  0  0  0  0  0  0  0  0  0
   -6.8280   19.8350  -33.1910 C   0  0  0  0  0  0  0  0  0  0  0  0
   -7.6420   20.6670  -32.4160 C   0  0  0  0  0  0  0  0  0  0  0  0
   -7.4070   22.0490  -32.4340 O   0  0  0  0  0  0  0  0  0  0  0  0
   -6.3640   22.6990  -31.7590 C   0  0  0  0  0  0  0  0  0  0  0  0
   -5.0600   22.2200  -31.9180 C   0  0  0  0  0  0  0  0  0  0  0  0
   -3.9910   22.8430  -31.2690 C   0  0  0  0  0  0  0  0  0  0  0  0
   -4.2090   23.9790  -30.4700 C   0  0  0  0  0  0  0  0  0  0  0  0
   -3.1310   24.6260  -29.7720 N   0  0  0  0  0  0  0  0  0  0  0  0
   -2.0220   23.9290  -29.1830 C   0  0  0  0  0  0  0  0  0  0  0  0
   -1.8050   22.7190  -29.4650 O   0  0  0  0  0  0  0  0  0  0  0  0
   -1.1030   24.6320  -28.2730 C   0  0  0  0  0  0  0  0  0  0  0  0
   -1.4630   25.3610  -27.1570 C   0  0  0  0  0  0  0  0  0  0  0  0
   -0.2570   25.8100  -26.6680 C   0  0  0  0  0  0  0  0  0  0  0  0
   -0.0550   26.6400  -25.4440 C   0  0  0  0  0  0  0  0  0  0  0  0
    0.7100   25.3680  -27.4380 O   0  0  0  0  0  0  0  0  0  0  0  0
    0.2370   24.6550  -28.4180 N   0  0  0  0  0  0  0  0  0  0  0  0
   -5.5180   24.4600  -30.3130 C   0  0  0  0  0  0  0  0  0  0  0  0
   -6.5880   23.8390  -30.9620 C   0  0  0  0  0  0  0  0  0  0  0  0
   -7.8310   24.3710  -30.8470 F   0  0  0  0  0  0  0  0  0  0  0  0
   -8.6350   20.0900  -31.6070 C   0  0  0  0  0  0  0  0  0  0  0  0
   -8.7980   18.7050  -31.6020 C   0  0  0  0  0  0  0  0  0  0  0  0
   -8.0040   17.9220  -32.3790 N   0  0  0  0  0  0  0  0  0  0  0  0
   -3.9253   18.4917  -33.0025 H   0  0  0  0  0  0  0  0  0  0  0  0
   -2.9671   17.9360  -34.4166 H   0  0  0  0  0  0  0  0  0  0  0  0
   -3.6996   19.5761  -34.4166 H   0  0  0  0  0  0  0  0  0  0  0  0
   -6.0235   20.2667  -33.8045 H   0  0  0  0  0  0  0  0  0  0  0  0
   -4.8743   21.3457  -32.5592 H   0  0  0  0  0  0  0  0  0  0  0  0
   -2.9730   22.4424  -31.3839 H   0  0  0  0  0  0  0  0  0  0  0  0
   -3.1110   25.6710  -29.7700 H   0  0  0  0  0  0  0  0  0  0  0  0
   -2.4712   25.5400  -26.7552 H   0  0  0  0  0  0  0  0  0  0  0  0
   -0.2065   26.0176  -24.5498 H   0  0  0  0  0  0  0  0  0  0  0  0
    0.9678   27.0447  -25.4401 H   0  0  0  0  0  0  0  0  0  0  0  0
   -0.7775   27.4694  -25.4401 H   0  0  0  0  0  0  0  0  0  0  0  0
   -5.7034   25.3348  -29.6725 H   0  0  0  0  0  0  0  0  0  0  0  0
   -9.2792   20.7260  -30.9821 H   0  0  0  0  0  0  0  0  0  0  0  0
   -9.5706   18.2454  -30.9680 H   0  0  0  0  0  0  0  0  0  0  0  0
  1  2  1  0
  2  3  1  0
  3  4  2  0
  3  5  1  0
  5  6  2  0
  6  7  1  0
  7  8  1  0
  8  9  1  0
  9 10  2  0
 10 11  1  0
 11 12  2  0
 12 13  1  0
 13 14  1  0
 14 15  2  0
 14 16  1  0
 16 17  1  0
 17 18  2  0
 18 19  1  0
 18 20  1  0
 20 21  1  0
 12 22  1  0
 22 23  2  0
 23 24  1  0
  7 25  2  0
 25 26  1  0
 26 27  2  0
 27  5  1  0
 23  9  1  0
 21 16  2  0
  1 28  1  0
  1 29  1  0
  1 30  1  0
  6 31  1  0
 10 32  1  0
 11 33  1  0
 13 34  1  0
 17 35  1  0
 19 36  1  0
 19 37  1  0
 19 38  1  0
 22 39  1  0
 25 40  1  0
 26 41  1  0
M  CHG  1   2  -1
M  END
>  <UniqueID>  (40) 
38

>  <SMILES>  (40) 
C[N-]C(=O)c1cc(Oc2ccc(NC(=O)c3cc(C)on3)cc2F)ccn1

>  <Energy>  (40) 
86.40096615455255

>  <Genealogy>  (40) 
C[N-]C(=O)c1cc(Oc2ccc(NC(=O)c3cc(C)on3)cc2F)ccn1 (protonated)
C[N-]C(=O)c1cc(Oc2ccc(NC(=O)c3cc(C)on3)cc2F)ccn1 (3D coordinates assigned)
C[N-]C(=O)c1cc(Oc2ccc(NC(=O)c3cc(C)on3)cc2F)ccn1 (optimized conformer: 86.40096615455255 kcal/mol)

>  <smiles>  (40) 
CNC(=O)c1cc(Oc2ccc(NC(=O)c3cc(C)on3)cc2F)ccn1

>  <score_type>  (40) 
oracle

>  <origin>  (40) 
adgpu

>  <m_score__min__energy>  (40) 
-8.7799999999999994

>  <m_primary>  (40) 
energy

$$$$
40:0
     RDKit          3D

 34 35  0  0  0  0  0  0  0  0999 V2000
   -6.7040   17.7560  -31.6030 C   0  0  0  0  0  0  0  0  0  0  0  0
   -7.9380   18.2110  -32.3820 C   0  0  0  0  0  0  0  0  0  0  0  0
   -8.7260   19.2960  -31.6330 C   0  0  0  0  0  0  0  0  0  0  0  0
   -8.1100   20.6590  -31.7980 C   0  0  0  0  0  0  0  0  0  0  0  0
   -8.9100   21.8020  -31.9040 C   0  0  0  0  0  0  0  0  0  0  0  0
   -8.2890   23.0410  -32.0450 C   0  0  0  0  0  0  0  0  0  0  0  0
   -6.9330   23.1180  -32.0860 N   0  0  0  0  0  0  0  0  0  0  0  0
   -6.1590   22.0020  -31.9880 C   0  0  0  0  0  0  0  0  0  0  0  0
   -4.7220   22.1030  -32.0510 N   0  0  0  0  0  0  0  0  0  0  0  0
   -4.0080   21.5160  -33.1870 C   0  0  0  0  0  0  0  0  0  0  0  0
   -3.9800   22.7930  -30.9880 C   0  0  0  0  0  0  0  0  0  0  0  0
   -4.7230   24.0170  -30.5480 C   0  0  0  0  0  0  0  0  0  0  0  0
   -5.6700   24.0680  -29.5450 C   0  0  0  0  0  0  0  0  0  0  0  0
   -6.0840   25.3820  -29.4940 C   0  0  0  0  0  0  0  0  0  0  0  0
   -5.3630   26.0490  -30.4650 C   0  0  0  0  0  0  0  0  0  0  0  0
   -4.5590   25.2090  -31.0770 O   0  0  0  0  0  0  0  0  0  0  0  0
   -6.7560   20.7860  -31.8370 N   0  0  0  0  0  0  0  0  0  0  0  0
   -6.9039   17.8297  -30.5238 H   0  0  0  0  0  0  0  0  0  0  0  0
   -6.4708   16.7128  -31.8623 H   0  0  0  0  0  0  0  0  0  0  0  0
   -5.8493   18.3981  -31.8623 H   0  0  0  0  0  0  0  0  0  0  0  0
   -7.6157   18.6136  -33.3536 H   0  0  0  0  0  0  0  0  0  0  0  0
   -8.5980   17.3404  -32.5101 H   0  0  0  0  0  0  0  0  0  0  0  0
   -9.7538   19.3216  -32.0241 H   0  0  0  0  0  0  0  0  0  0  0  0
   -8.7126   19.0457  -30.5619 H   0  0  0  0  0  0  0  0  0  0  0  0
  -10.0069   21.7239  -31.8766 H   0  0  0  0  0  0  0  0  0  0  0  0
   -8.8954   23.9555  -32.1230 H   0  0  0  0  0  0  0  0  0  0  0  0
   -3.2078   20.8582  -32.8169 H   0  0  0  0  0  0  0  0  0  0  0  0
   -4.7103   20.9307  -33.7987 H   0  0  0  0  0  0  0  0  0  0  0  0
   -3.5696   22.3183  -33.7987 H   0  0  0  0  0  0  0  0  0  0  0  0
   -3.8581   22.1144  -30.1309 H   0  0  0  0  0  0  0  0  0  0  0  0
   -2.9943   23.0915  -31.3744 H   0  0  0  0  0  0  0  0  0  0  0  0
   -6.0207   23.2350  -28.9180 H   0  0  0  0  0  0  0  0  0  0  0  0
   -6.8365   25.8123  -28.8168 H   0  0  0  0  0  0  0  0  0  0  0  0
   -5.4489   27.1219  -30.6919 H   0  0  0  0  0  0  0  0  0  0  0  0
  1  2  1  0
  2  3  1  0
  3  4  1  0
  4  5  2  0
  5  6  1  0
  6  7  2  0
  7  8  1  0
  8  9  1  0
  9 10  1  0
  9 11  1  0
 11 12  1  0
 12 13  2  0
 13 14  1  0
 14 15  2  0
 15 16  1  0
  8 17  2  0
 17  4  1  0
 16 12  1  0
  1 18  1  0
  1 19  1  0
  1 20  1  0
  2 21  1  0
  2 22  1  0
  3 23  1  0
  3 24  1  0
  5 25  1  0
  6 26  1  0
 10 27  1  0
 10 28  1  0
 10 29  1  0
 11 30  1  0
 11 31  1  0
 13 32  1  0
 14 33  1  0
 15 34  1  0
M  END
>  <UniqueID>  (41) 
39

>  <SMILES>  (41) 
CCCc1ccnc(N(C)Cc2ccco2)n1

>  <Energy>  (41) 
52.234016528933466

>  <Genealogy>  (41) 
CCCc1ccnc(N(C)Cc2ccco2)n1 (3D coordinates assigned)
CCCc1ccnc(N(C)Cc2ccco2)n1 (optimized conformer: 52.234016528933466 kcal/mol)

>  <smiles>  (41) 
CCCc1ccnc(N(C)Cc2ccco2)n1

>  <score_type>  (41) 
oracle

>  <origin>  (41) 
adgpu

>  <m_score__min__energy>  (41) 
-6.5800000000000001

>  <m_primary>  (41) 
energy

$$$$
41:0
     RDKit          3D

 49 53  0  0  0  0  0  0  0  0999 V2000
   -1.2050   19.7710  -32.8216 H   0  0  0  0  0  0  0  0  0  0  0  0
   -1.1110   20.6640  -33.4570 C   0  0  0  0  0  0  0  0  0  0  0  0
   -2.1230   21.5420  -33.4630 C   0  0  0  0  0  0  0  0  0  0  0  0
   -2.0395   22.4455  -34.0848 H   0  0  0  0  0  0  0  0  0  0  0  0
   -3.3460   21.3370  -32.6630 C   0  0  0  0  0  0  0  0  0  0  0  0
   -3.6410   21.7190  -31.3560 C   0  0  0  0  0  0  0  0  0  0  0  0
   -2.7330   22.3060  -30.3480 C   0  0  0  0  0  0  0  0  0  0  0  0
   -1.9160   21.4880  -29.5460 C   0  0  0  0  0  0  0  0  0  0  0  0
   -1.9470   20.3954  -29.6695 H   0  0  0  0  0  0  0  0  0  0  0  0
   -1.0650   22.0560  -28.5930 C   0  0  0  0  0  0  0  0  0  0  0  0
   -0.4192   21.4121  -27.9780 H   0  0  0  0  0  0  0  0  0  0  0  0
   -1.0360   23.4410  -28.4230 C   0  0  0  0  0  0  0  0  0  0  0  0
   -1.8860   24.2590  -29.1810 C   0  0  0  0  0  0  0  0  0  0  0  0
   -2.7270   23.6960  -30.1450 C   0  0  0  0  0  0  0  0  0  0  0  0
   -3.3847   24.3419  -30.7452 H   0  0  0  0  0  0  0  0  0  0  0  0
   -1.8780   25.6400  -28.9560 O   0  0  0  0  0  0  0  0  0  0  0  0
   -1.2380   26.1970  -27.8050 C   0  0  0  0  0  0  0  0  0  0  0  0
   -1.0100   27.2565  -27.9934 H   0  0  0  0  0  0  0  0  0  0  0  0
   -1.9121   26.1052  -26.9406 H   0  0  0  0  0  0  0  0  0  0  0  0
    0.0650   25.4440  -27.5050 C   0  0  0  0  0  0  0  0  0  0  0  0
    0.8100   25.6850  -28.2775 H   0  0  0  0  0  0  0  0  0  0  0  0
    0.4369   25.7501  -26.5161 H   0  0  0  0  0  0  0  0  0  0  0  0
   -0.1700   24.0330  -27.4990 O   0  0  0  0  0  0  0  0  0  0  0  0
   -4.9160   21.3810  -31.0790 N   0  0  0  0  0  0  0  0  0  0  0  0
   -5.4330   20.7960  -32.1490 N   0  0  0  0  0  0  0  0  0  0  0  0
   -6.7870   20.2990  -32.2060 C   0  0  0  0  0  0  0  0  0  0  0  0
   -7.0600   18.9180  -32.2890 C   0  0  0  0  0  0  0  0  0  0  0  0
   -6.2294   18.1971  -32.3090 H   0  0  0  0  0  0  0  0  0  0  0  0
   -8.3790   18.4590  -32.3460 C   0  0  0  0  0  0  0  0  0  0  0  0
   -8.5816   17.3797  -32.4100 H   0  0  0  0  0  0  0  0  0  0  0  0
   -9.4390   19.3650  -32.3220 C   0  0  0  0  0  0  0  0  0  0  0  0
  -10.4757   18.9995  -32.3638 H   0  0  0  0  0  0  0  0  0  0  0  0
   -9.1850   20.7350  -32.2450 C   0  0  0  0  0  0  0  0  0  0  0  0
  -10.0217   21.4489  -32.2283 H   0  0  0  0  0  0  0  0  0  0  0  0
   -7.8680   21.2010  -32.1890 C   0  0  0  0  0  0  0  0  0  0  0  0
   -7.6746   22.2823  -32.1311 H   0  0  0  0  0  0  0  0  0  0  0  0
   -4.5000   20.7420  -33.1250 C   0  0  0  0  0  0  0  0  0  0  0  0
   -4.6385   20.2975  -34.1216 H   0  0  0  0  0  0  0  0  0  0  0  0
    0.1290   20.8240  -34.2560 C   0  0  0  0  0  0  0  0  0  0  0  0
    1.1880   19.9270  -34.0360 C   0  0  0  0  0  0  0  0  0  0  0  0
    1.0801   19.1286  -33.2870 H   0  0  0  0  0  0  0  0  0  0  0  0
    2.3770   20.0410  -34.7610 C   0  0  0  0  0  0  0  0  0  0  0  0
    3.1968   19.3287  -34.5861 H   0  0  0  0  0  0  0  0  0  0  0  0
    2.5270   21.0570  -35.7070 C   0  0  0  0  0  0  0  0  0  0  0  0
    3.4625   21.1424  -36.2794 H   0  0  0  0  0  0  0  0  0  0  0  0
    1.4880   21.9650  -35.9260 C   0  0  0  0  0  0  0  0  0  0  0  0
    1.6420   22.9600  -36.8340 F   0  0  0  0  0  0  0  0  0  0  0  0
    0.2950   21.8560  -35.2030 C   0  0  0  0  0  0  0  0  0  0  0  0
   -0.5169   22.5782  -35.3739 H   0  0  0  0  0  0  0  0  0  0  0  0
  1  2  1  0
  2  3  2  0
  3  4  1  0
  3  5  1  0
  5  6  1  0
  6  7  1  0
  7  8  2  0
  8  9  1  0
  8 10  1  0
 10 11  1  0
 10 12  2  0
 12 13  1  0
 13 14  2  0
 14 15  1  0
 13 16  1  0
 16 17  1  0
 17 18  1  0
 17 19  1  0
 17 20  1  0
 20 21  1  0
 20 22  1  0
 20 23  1  0
  6 24  2  0
 24 25  1  0
 25 26  1  0
 26 27  2  0
 27 28  1  0
 27 29  1  0
 29 30  1  0
 29 31  2  0
 31 32  1  0
 31 33  1  0
 33 34  1  0
 33 35  2  0
 35 36  1  0
 25 37  1  0
 37 38  1  0
  2 39  1  0
 39 40  2  0
 40 41  1  0
 40 42  1  0
 42 43  1  0
 42 44  2  0
 44 45  1  0
 44 46  1  0
 46 47  1  0
 46 48  2  0
 48 49  1  0
 37  5  2  0
 48 39  1  0
 14  7  1  0
 35 26  1  0
 23 12  1  0
M  END
>  <UniqueID>  (42) 
40

>  <SMILES>  (42) 
Fc1cccc(/C=C/c2cn(-c3ccccc3)nc2-c2ccc3c(c2)OCCO3)c1

>  <Energy>  (42) 
97.5931197725238

>  <Genealogy>  (42) 
Fc1cccc(/C=C/c2cn(-c3ccccc3)nc2-c2ccc3c(c2)OCCO3)c1 (cis-trans isomerization)
Fc1cccc(/C=C/c2cn(-c3ccccc3)nc2-c2ccc3c(c2)OCCO3)c1 (3D coordinates assigned)
Fc1cccc(/C=C/c2cn(-c3ccccc3)nc2-c2ccc3c(c2)OCCO3)c1 (nonaromatic ring conformer: 97.5931197725238 kcal/mol)

>  <smiles>  (42) 
Fc1cccc(C=Cc2cn(-c3ccccc3)nc2-c2ccc3c(c2)OCCO3)c1

>  <score_type>  (42) 
oracle

>  <origin>  (42) 
adgpu

>  <m_score__min__energy>  (42) 
-9.0399999999999991

>  <m_primary>  (42) 
energy

$$$$
42:0
     RDKit          3D

 36 38  0  0  0  0  0  0  0  0999 V2000
   -0.7040   21.5030  -32.7790 H   0  0  0  0  0  0  0  0  0  0  0  0
   -1.2510   21.9250  -31.9960 N   0  0  0  0  0  0  0  0  0  0  0  0
   -2.5460   21.8940  -31.9760 C   0  0  0  0  0  0  0  0  0  0  0  0
   -3.2170   21.2860  -32.9920 N   0  0  0  0  0  0  0  0  0  0  0  0
   -4.5720   21.2020  -33.0180 C   0  0  0  0  0  0  0  0  0  0  0  0
   -5.0728   20.7052  -33.8620 H   0  0  0  0  0  0  0  0  0  0  0  0
   -5.3370   21.7450  -31.9750 C   0  0  0  0  0  0  0  0  0  0  0  0
   -6.8190   21.6550  -31.9900 C   0  0  0  0  0  0  0  0  0  0  0  0
   -7.6080   22.8170  -31.8890 C   0  0  0  0  0  0  0  0  0  0  0  0
   -7.1234   23.8004  -31.7993 H   0  0  0  0  0  0  0  0  0  0  0  0
   -9.0030   22.7290  -31.9020 C   0  0  0  0  0  0  0  0  0  0  0  0
   -9.6114   23.6418  -31.8207 H   0  0  0  0  0  0  0  0  0  0  0  0
   -9.6260   21.4840  -32.0180 C   0  0  0  0  0  0  0  0  0  0  0  0
  -10.7239   21.4174  -32.0298 H   0  0  0  0  0  0  0  0  0  0  0  0
   -8.8550   20.3240  -32.1190 C   0  0  0  0  0  0  0  0  0  0  0  0
   -9.3466   19.3441  -32.2089 H   0  0  0  0  0  0  0  0  0  0  0  0
   -7.4590   20.4060  -32.1060 C   0  0  0  0  0  0  0  0  0  0  0  0
   -6.8570   19.4889  -32.1869 H   0  0  0  0  0  0  0  0  0  0  0  0
   -4.6650   22.3760  -30.9160 C   0  0  0  0  0  0  0  0  0  0  0  0
   -5.2433   22.8096  -30.0868 H   0  0  0  0  0  0  0  0  0  0  0  0
   -3.2650   22.4600  -30.9030 C   0  0  0  0  0  0  0  0  0  0  0  0
   -2.5810   23.1490  -29.7800 C   0  0  0  0  0  0  0  0  0  0  0  0
   -1.7870   22.4120  -28.8860 C   0  0  0  0  0  0  0  0  0  0  0  0
   -1.6861   21.3241  -29.0140 H   0  0  0  0  0  0  0  0  0  0  0  0
   -1.1250   23.0510  -27.8360 C   0  0  0  0  0  0  0  0  0  0  0  0
   -0.5072   22.4618  -27.1423 H   0  0  0  0  0  0  0  0  0  0  0  0
   -1.2400   24.4330  -27.6580 C   0  0  0  0  0  0  0  0  0  0  0  0
   -0.5530   25.0260  -26.5870 O   0  0  0  0  0  0  0  0  0  0  0  0
   -1.1840   25.7090  -25.5080 C   0  0  0  0  0  0  0  0  0  0  0  0
   -0.8133   25.3078  -24.5532 H   0  0  0  0  0  0  0  0  0  0  0  0
   -0.9533   26.7828  -25.5688 H   0  0  0  0  0  0  0  0  0  0  0  0
   -2.2727   25.5639  -25.5688 H   0  0  0  0  0  0  0  0  0  0  0  0
   -2.0330   25.1770  -28.5510 C   0  0  0  0  0  0  0  0  0  0  0  0
   -2.1293   26.2650  -28.4210 H   0  0  0  0  0  0  0  0  0  0  0  0
   -2.7000   24.5400  -29.6040 C   0  0  0  0  0  0  0  0  0  0  0  0
   -3.4920   25.2970  -30.4620 O   0  0  0  0  0  0  0  0  0  0  0  0
  1  2  1  0
  2  3  2  0
  3  4  1  0
  4  5  1  0
  5  6  1  0
  5  7  2  0
  7  8  1  0
  8  9  2  0
  9 10  1  0
  9 11  1  0
 11 12  1  0
 11 13  2  0
 13 14  1  0
 13 15  1  0
 15 16  1  0
 15 17  2  0
 17 18  1  0
  7 19  1  0
 19 20  1  0
 19 21  2  0
 21 22  1  0
 22 23  2  0
 23 24  1  0
 23 25  1  0
 25 26  1  0
 25 27  2  0
 27 28  1  0
 28 29  1  0
 29 30  1  0
 29 31  1  0
 29 32  1  0
 27 33  1  0
 33 34  1  0
 33 35  2  0
 35 36  1  0
 21  3  1  0
 35 22  1  0
 17  8  1  0
M  CHG  2   4  -1  36  -1
M  END
>  <UniqueID>  (43) 
41

>  <SMILES>  (43) 
[H]/N=c1\[n-]cc(-c2ccccc2)cc1-c1ccc(OC)cc1[O-]

>  <Energy>  (43) 
52.237785901610586

>  <Genealogy>  (43) 
COc1ccc(-c2cc(-c3ccccc3)c[n-]c2=N)c([O-])c1 (protonated)
[H]/N=c1\[n-]cc(-c2ccccc2)cc1-c1ccc(OC)cc1[O-] (cis-trans isomerization)
[H]/N=c1\[n-]cc(-c2ccccc2)cc1-c1ccc(OC)cc1[O-] (3D coordinates assigned)
[H]/N=c1\[n-]cc(-c2ccccc2)cc1-c1ccc(OC)cc1[O-] (optimized conformer: 52.237785901610586 kcal/mol)

>  <smiles>  (43) 
COc1ccc(-c2cc(-c3ccccc3)c[nH]c2=N)c(O)c1

>  <score_type>  (43) 
oracle

>  <origin>  (43) 
adgpu

>  <m_score__min__energy>  (43) 
-10.619999999999999

>  <m_primary>  (43) 
energy

$$$$
43:0
     RDKit          3D

 34 36  0  0  0  0  0  0  0  0999 V2000
    0.8000   24.5130  -28.5180 N   0  0  0  0  0  0  0  0  0  0  0  0
   -0.4160   24.5370  -28.0770 C   0  0  0  0  0  0  0  0  0  0  0  0
   -1.4520   24.5270  -28.9550 N   0  0  0  0  0  0  0  0  0  0  0  0
   -2.7440   24.5510  -28.5260 C   0  0  0  0  0  0  0  0  0  0  0  0
   -3.8350   24.5390  -29.5130 C   0  0  0  0  0  0  0  0  0  0  0  0
   -3.8660   25.3120  -30.6160 N   0  0  0  0  0  0  0  0  0  0  0  0
   -4.9930   25.0310  -31.2450 N   0  0  0  0  0  0  0  0  0  0  0  0
   -5.6150   24.0890  -30.5120 C   0  0  0  0  0  0  0  0  0  0  0  0
   -6.9630   23.5380  -30.8450 C   0  0  0  0  0  0  0  0  0  0  0  0
   -6.8220   22.1930  -31.5010 C   0  0  0  0  0  0  0  0  0  0  0  0
   -7.9030   21.2990  -31.5280 C   0  0  0  0  0  0  0  0  0  0  0  0
   -7.7590   20.0340  -32.1050 C   0  0  0  0  0  0  0  0  0  0  0  0
   -6.5320   19.6460  -32.6570 C   0  0  0  0  0  0  0  0  0  0  0  0
   -6.3470   18.0450  -33.3650 S   0  0  0  0  0  0  0  0  0  0  0  0
   -6.1010   18.1880  -35.0690 N   0  0  0  0  0  0  0  0  0  0  0  0
   -7.5820   17.2270  -33.1040 O   0  0  0  0  0  0  0  0  0  0  0  0
   -5.1690   17.3470  -32.7450 O   0  0  0  0  0  0  0  0  0  0  0  0
   -5.4440   20.5280  -32.6130 C   0  0  0  0  0  0  0  0  0  0  0  0
   -5.5860   21.7930  -32.0370 C   0  0  0  0  0  0  0  0  0  0  0  0
   -4.9270   23.7560  -29.4030 N   0  0  0  0  0  0  0  0  0  0  0  0
   -3.0080   24.5870  -27.1500 C   0  0  0  0  0  0  0  0  0  0  0  0
   -1.9320   24.5960  -26.2640 C   0  0  0  0  0  0  0  0  0  0  0  0
   -0.6610   24.5720  -26.7400 N   0  0  0  0  0  0  0  0  0  0  0  0
    1.6170   24.5200  -27.8660 H   0  0  0  0  0  0  0  0  0  0  0  0
   -7.5516   23.4328  -29.9217 H   0  0  0  0  0  0  0  0  0  0  0  0
   -7.4726   24.2250  -31.5367 H   0  0  0  0  0  0  0  0  0  0  0  0
   -8.8689   21.5951  -31.0928 H   0  0  0  0  0  0  0  0  0  0  0  0
   -8.6128   19.3407  -32.1255 H   0  0  0  0  0  0  0  0  0  0  0  0
   -5.1360   18.5640  -35.2070 H   0  0  0  0  0  0  0  0  0  0  0  0
   -6.7610   18.9210  -35.4120 H   0  0  0  0  0  0  0  0  0  0  0  0
   -4.4743   20.2233  -33.0336 H   0  0  0  0  0  0  0  0  0  0  0  0
   -4.7266   22.4788  -32.0029 H   0  0  0  0  0  0  0  0  0  0  0  0
   -4.0427   24.6077  -26.7771 H   0  0  0  0  0  0  0  0  0  0  0  0
   -2.1128   24.6225  -25.1793 H   0  0  0  0  0  0  0  0  0  0  0  0
  1  2  2  3
  2  3  1  0
  3  4  2  0
  4  5  1  0
  5  6  2  0
  6  7  1  0
  7  8  1  0
  8  9  1  0
  9 10  1  0
 10 11  2  0
 11 12  1  0
 12 13  2  0
 13 14  1  0
 14 15  1  0
 14 16  2  0
 14 17  2  0
 13 18  1  0
 18 19  2  0
  8 20  2  0
  4 21  1  0
 21 22  2  0
 22 23  1  0
 23  2  1  0
 20  5  1  0
 19 10  1  0
  1 24  1  0
  9 25  1  0
  9 26  1  0
 11 27  1  0
 12 28  1  0
 15 29  1  0
 15 30  1  0
 18 31  1  0
 19 32  1  0
 21 33  1  0
 22 34  1  0
M  CHG  2   7  -1  23  -1
M  END
>  <UniqueID>  (44) 
42

>  <SMILES>  (44) 
N=c1nc(-c2n[n-]c(Cc3ccc(S(N)(=O)=O)cc3)n2)cc[n-]1

>  <Energy>  (44) 
65.34148767001783

>  <Genealogy>  (44) 
N=c1nc(-c2n[n-]c(Cc3ccc(S(N)(=O)=O)cc3)n2)cc[n-]1 (protonated)
N=c1nc(-c2n[n-]c(Cc3ccc(S(N)(=O)=O)cc3)n2)cc[n-]1 (3D coordinates assigned)
N=c1nc(-c2n[n-]c(Cc3ccc(S(N)(=O)=O)cc3)n2)cc[n-]1 (optimized conformer: 65.34148767001783 kcal/mol)

>  <smiles>  (44) 
N=c1nc(-c2n[nH]c(Cc3ccc(S(N)(=O)=O)cc3)n2)cc[nH]1

>  <score_type>  (44) 
oracle

>  <origin>  (44) 
adgpu

>  <m_score__min__energy>  (44) 
-10.699999999999999

>  <m_primary>  (44) 
energy

$$$$
44:0
     RDKit          3D

 50 54  0  0  0  0  0  0  0  0999 V2000
   -5.7070   24.3320  -32.1060 H   0  0  0  0  0  0  0  0  0  0  0  0
   -5.5300   23.3500  -32.4080 N   0  0  0  0  0  0  0  0  0  0  0  0
   -4.5160   22.6210  -32.0380 C   0  0  0  0  0  0  0  0  0  0  0  0
   -3.5420   23.1480  -31.1530 C   0  0  0  0  0  0  0  0  0  0  0  0
   -3.6940   24.4580  -30.4820 C   0  0  0  0  0  0  0  0  0  0  0  0
   -4.6750   25.1960  -30.7590 O   0  0  0  0  0  0  0  0  0  0  0  0
   -2.7110   24.9180  -29.5510 N   0  0  0  0  0  0  0  0  0  0  0  0
   -2.7950   24.6310  -28.1240 C   0  0  0  0  0  0  0  0  0  0  0  0
   -2.1057   25.2956  -27.5825 H   0  0  0  0  0  0  0  0  0  0  0  0
   -3.8310   24.7977  -27.7941 H   0  0  0  0  0  0  0  0  0  0  0  0
   -2.4280   23.2090  -27.8390 C   0  0  0  0  0  0  0  0  0  0  0  0
   -3.4920   21.9070  -27.8500 S   0  0  0  0  0  0  0  0  0  0  0  0
   -2.3360   20.7310  -27.5160 C   0  0  0  0  0  0  0  0  0  0  0  0
   -2.5292   19.6544  -27.3990 H   0  0  0  0  0  0  0  0  0  0  0  0
   -1.0970   21.3490  -27.4130 C   0  0  0  0  0  0  0  0  0  0  0  0
   -0.1655   20.8006  -27.2092 H   0  0  0  0  0  0  0  0  0  0  0  0
   -1.1460   22.7350  -27.5930 C   0  0  0  0  0  0  0  0  0  0  0  0
   -0.2591   23.3839  -27.5446 H   0  0  0  0  0  0  0  0  0  0  0  0
   -2.4030   22.3970  -30.8710 C   0  0  0  0  0  0  0  0  0  0  0  0
   -1.6313   22.8057  -30.2021 H   0  0  0  0  0  0  0  0  0  0  0  0
   -2.2340   21.1300  -31.4310 C   0  0  0  0  0  0  0  0  0  0  0  0
   -1.0940   20.3460  -31.1660 C   0  0  0  0  0  0  0  0  0  0  0  0
   -0.2000   20.7890  -30.3890 O   0  0  0  0  0  0  0  0  0  0  0  0
   -0.9550   19.1100  -31.7480 N   0  0  0  0  0  0  0  0  0  0  0  0
    0.1500   18.3350  -31.4960 C   0  0  0  0  0  0  0  0  0  0  0  0
    0.9314   18.7073  -30.8171 H   0  0  0  0  0  0  0  0  0  0  0  0
    0.2940   17.0800  -32.0910 C   0  0  0  0  0  0  0  0  0  0  0  0
    1.1834   16.4672  -31.8827 H   0  0  0  0  0  0  0  0  0  0  0  0
   -0.6950   16.6100  -32.9490 C   0  0  0  0  0  0  0  0  0  0  0  0
   -0.5907   15.6231  -33.4235 H   0  0  0  0  0  0  0  0  0  0  0  0
   -1.8170   17.3930  -33.2050 C   0  0  0  0  0  0  0  0  0  0  0  0
   -2.6044   17.0285  -33.8812 H   0  0  0  0  0  0  0  0  0  0  0  0
   -1.9360   18.6470  -32.5960 C   0  0  0  0  0  0  0  0  0  0  0  0
   -3.0360   19.3990  -32.8470 N   0  0  0  0  0  0  0  0  0  0  0  0
   -3.2300   20.6200  -32.2840 C   0  0  0  0  0  0  0  0  0  0  0  0
   -4.3670   21.3500  -32.5580 N   0  0  0  0  0  0  0  0  0  0  0  0
   -5.4080   20.8020  -33.4700 C   0  0  0  0  0  0  0  0  0  0  0  0
   -5.8084   21.6211  -34.0854 H   0  0  0  0  0  0  0  0  0  0  0  0
   -4.9395   20.0280  -34.0957 H   0  0  0  0  0  0  0  0  0  0  0  0
   -6.5500   20.1600  -32.7050 C   0  0  0  0  0  0  0  0  0  0  0  0
   -7.4480   20.9780  -31.9940 C   0  0  0  0  0  0  0  0  0  0  0  0
   -7.3156   22.0699  -32.0077 H   0  0  0  0  0  0  0  0  0  0  0  0
   -8.5040   20.4210  -31.2720 C   0  0  0  0  0  0  0  0  0  0  0  0
   -9.1889   21.0724  -30.7094 H   0  0  0  0  0  0  0  0  0  0  0  0
   -8.6920   19.0390  -31.2630 C   0  0  0  0  0  0  0  0  0  0  0  0
   -9.5211   18.6003  -30.6885 H   0  0  0  0  0  0  0  0  0  0  0  0
   -7.8280   18.2130  -31.9830 C   0  0  0  0  0  0  0  0  0  0  0  0
   -7.9872   17.1246  -31.9845 H   0  0  0  0  0  0  0  0  0  0  0  0
   -6.7590   18.7610  -32.7040 C   0  0  0  0  0  0  0  0  0  0  0  0
   -5.7360   17.6560  -33.6100 Cl  0  0  0  0  0  0  0  0  0  0  0  0
  1  2  1  0
  2  3  2  0
  3  4  1  0
  4  5  1  0
  5  6  2  0
  5  7  1  0
  7  8  1  0
  8  9  1  0
  8 10  1  0
  8 11  1  0
 11 12  1  0
 12 13  1  0
 13 14  1  0
 13 15  2  0
 15 16  1  0
 15 17  1  0
 17 18  1  0
  4 19  2  0
 19 20  1  0
 19 21  1  0
 21 22  1  0
 22 23  2  0
 22 24  1  0
 24 25  1  0
 25 26  1  0
 25 27  2  0
 27 28  1  0
 27 29  1  0
 29 30  1  0
 29 31  2  0
 31 32  1  0
 31 33  1  0
 33 34  2  0
 34 35  1  0
 35 36  1  0
 36 37  1  0
 37 38  1  0
 37 39  1  0
 37 40  1  0
 40 41  2  0
 41 42  1  0
 41 43  1  0
 43 44  1  0
 43 45  2  0
 45 46  1  0
 45 47  1  0
 47 48  1  0
 47 49  2  0
 49 50  1  0
 36  3  1  0
 49 40  1  0
 17 11  2  0
 35 21  2  0
 33 24  1  0
M  CHG  1   7  -1
M  END
>  <UniqueID>  (45) 
43

>  <SMILES>  (45) 
[H]/N=c1\c(C(=O)[N-]Cc2cccs2)cc2c(=O)n3ccccc3nc2n1Cc1ccccc1Cl

>  <Energy>  (45) 
106.66512650434616

>  <Genealogy>  (45) 
N=c1c(C(=O)[N-]Cc2cccs2)cc2c(=O)n3ccccc3nc2n1Cc1ccccc1Cl (protonated)
[H]/N=c1\c(C(=O)[N-]Cc2cccs2)cc2c(=O)n3ccccc3nc2n1Cc1ccccc1Cl (cis-trans isomerization)
[H]/N=c1\c(C(=O)[N-]Cc2cccs2)cc2c(=O)n3ccccc3nc2n1Cc1ccccc1Cl (3D coordinates assigned)
[H]/N=c1\c(C(=O)[N-]Cc2cccs2)cc2c(=O)n3ccccc3nc2n1Cc1ccccc1Cl (optimized conformer: 106.66512650434616 kcal/mol)

>  <smiles>  (45) 
N=c1c(C(=O)NCc2cccs2)cc2c(=O)n3ccccc3nc2n1Cc1ccccc1Cl

>  <score_type>  (45) 
oracle

>  <origin>  (45) 
adgpu

>  <m_score__min__energy>  (45) 
-11.15

>  <m_primary>  (45) 
energy

$$$$
45:0
     RDKit          3D

 42 44  0  0  0  0  0  0  0  0999 V2000
   -0.4900   22.4820  -24.6430 C   0  0  0  0  0  0  0  0  0  0  0  0
   -0.0800   23.5430  -25.5710 N   0  0  0  0  0  0  0  0  0  0  0  0
    1.1840   24.2490  -25.3280 C   0  0  0  0  0  0  0  0  0  0  0  0
   -0.9090   23.8850  -26.7140 C   0  0  0  0  0  0  0  0  0  0  0  0
   -2.2720   23.5250  -26.7540 C   0  0  0  0  0  0  0  0  0  0  0  0
   -3.0670   23.8540  -27.8560 C   0  0  0  0  0  0  0  0  0  0  0  0
   -2.5170   24.5370  -28.9520 C   0  0  0  0  0  0  0  0  0  0  0  0
   -3.3250   24.9100  -30.0790 N   0  0  0  0  0  0  0  0  0  0  0  0
   -4.5900   24.3090  -30.3940 C   0  0  0  0  0  0  0  0  0  0  0  0
   -5.7570   25.2540  -31.0600 S   0  0  0  0  0  0  0  0  0  0  0  0
   -4.8210   22.9110  -30.1210 N   0  0  0  0  0  0  0  0  0  0  0  0
   -5.9910   22.1820  -30.5220 C   0  0  0  0  0  0  0  0  0  0  0  0
   -7.2770   22.7050  -30.3090 C   0  0  0  0  0  0  0  0  0  0  0  0
   -8.4070   22.0030  -30.7390 C   0  0  0  0  0  0  0  0  0  0  0  0
   -8.2650   20.7770  -31.4050 C   0  0  0  0  0  0  0  0  0  0  0  0
   -9.3920   20.0640  -31.8410 C   0  0  0  0  0  0  0  0  0  0  0  0
   -9.2360   18.8480  -32.5100 C   0  0  0  0  0  0  0  0  0  0  0  0
   -7.9590   18.3350  -32.7520 C   0  0  0  0  0  0  0  0  0  0  0  0
   -6.8270   19.0370  -32.3240 C   0  0  0  0  0  0  0  0  0  0  0  0
   -6.9700   20.2590  -31.6480 C   0  0  0  0  0  0  0  0  0  0  0  0
   -5.8420   20.9720  -31.2140 C   0  0  0  0  0  0  0  0  0  0  0  0
   -1.1730   24.9210  -28.9090 C   0  0  0  0  0  0  0  0  0  0  0  0
   -0.3740   24.5930  -27.8100 C   0  0  0  0  0  0  0  0  0  0  0  0
   -0.3561   22.8285  -23.6076 H   0  0  0  0  0  0  0  0  0  0  0  0
   -1.5483   22.2350  -24.8130 H   0  0  0  0  0  0  0  0  0  0  0  0
    0.1272   21.5875  -24.8130 H   0  0  0  0  0  0  0  0  0  0  0  0
    1.3498   24.3416  -24.2445 H   0  0  0  0  0  0  0  0  0  0  0  0
    2.0126   23.6831  -25.7787 H   0  0  0  0  0  0  0  0  0  0  0  0
    1.1367   25.2513  -25.7787 H   0  0  0  0  0  0  0  0  0  0  0  0
   -2.7149   22.9789  -25.9081 H   0  0  0  0  0  0  0  0  0  0  0  0
   -4.1312   23.5756  -27.8642 H   0  0  0  0  0  0  0  0  0  0  0  0
   -2.9780   25.6730  -30.7020 H   0  0  0  0  0  0  0  0  0  0  0  0
   -4.1140   22.3900  -29.5570 H   0  0  0  0  0  0  0  0  0  0  0  0
   -7.3959   23.6732  -29.8006 H   0  0  0  0  0  0  0  0  0  0  0  0
   -9.4107   22.4136  -30.5544 H   0  0  0  0  0  0  0  0  0  0  0  0
  -10.4000   20.4634  -31.6556 H   0  0  0  0  0  0  0  0  0  0  0  0
  -10.1226   18.2915  -32.8480 H   0  0  0  0  0  0  0  0  0  0  0  0
   -7.8435   17.3771  -33.2802 H   0  0  0  0  0  0  0  0  0  0  0  0
   -5.8233   18.6307  -32.5175 H   0  0  0  0  0  0  0  0  0  0  0  0
   -4.8350   20.5792  -31.4180 H   0  0  0  0  0  0  0  0  0  0  0  0
   -0.7407   25.4863  -29.7477 H   0  0  0  0  0  0  0  0  0  0  0  0
    0.6849   24.8907  -27.7999 H   0  0  0  0  0  0  0  0  0  0  0  0
  1  2  1  0
  2  3  1  0
  2  4  1  0
  4  5  2  0
  5  6  1  0
  6  7  2  0
  7  8  1  0
  8  9  1  0
  9 10  2  0
  9 11  1  0
 11 12  1  0
 12 13  2  0
 13 14  1  0
 14 15  2  0
 15 16  1  0
 16 17  2  0
 17 18  1  0
 18 19  2  0
 19 20  1  0
 20 21  2  0
  7 22  1  0
 22 23  2  0
 23  4  1  0
 21 12  1  0
 20 15  1  0
  1 24  1  0
  1 25  1  0
  1 26  1  0
  3 27  1  0
  3 28  1  0
  3 29  1  0
  5 30  1  0
  6 31  1  0
  8 32  1  0
 11 33  1  0
 13 34  1  0
 14 35  1  0
 16 36  1  0
 17 37  1  0
 18 38  1  0
 19 39  1  0
 21 40  1  0
 22 41  1  0
 23 42  1  0
M  END
>  <UniqueID>  (46) 
44

>  <SMILES>  (46) 
CN(C)c1ccc(NC(=S)Nc2ccc3ccccc3c2)cc1

>  <Energy>  (46) 
59.01680883636085

>  <Genealogy>  (46) 
CN(C)c1ccc(NC(=S)Nc2ccc3ccccc3c2)cc1 (3D coordinates assigned)
CN(C)c1ccc(NC(=S)Nc2ccc3ccccc3c2)cc1 (optimized conformer: 59.01680883636085 kcal/mol)

>  <smiles>  (46) 
CN(C)c1ccc(NC(=S)Nc2ccc3ccccc3c2)cc1

>  <score_type>  (46) 
oracle

>  <origin>  (46) 
adgpu

>  <m_score__min__energy>  (46) 
-8.3000000000000007

>  <m_primary>  (46) 
energy

$$$$
46:0
     RDKit          3D

 60 63  0  0  0  0  0  0  0  0999 V2000
   -1.2340   26.0610  -28.3180 C   0  0  0  0  0  0  0  0  0  0  0  0
   -2.1330   25.1050  -28.8730 O   0  0  0  0  0  0  0  0  0  0  0  0
   -2.2400   23.7710  -28.4450 C   0  0  0  0  0  0  0  0  0  0  0  0
   -1.1410   23.0780  -27.8980 C   0  0  0  0  0  0  0  0  0  0  0  0
   -1.2840   21.7610  -27.4600 C   0  0  0  0  0  0  0  0  0  0  0  0
   -2.5160   21.1190  -27.5630 C   0  0  0  0  0  0  0  0  0  0  0  0
   -3.6120   21.7900  -28.1070 C   0  0  0  0  0  0  0  0  0  0  0  0
   -3.4870   23.1210  -28.5500 C   0  0  0  0  0  0  0  0  0  0  0  0
   -4.6190   23.8200  -29.0960 N   0  0  0  0  0  0  0  0  0  0  0  0
   -4.8980   23.9580  -30.8040 S   0  0  0  0  0  0  0  0  0  0  0  0
   -5.0490   25.4080  -31.1670 O   0  0  0  0  0  0  0  0  0  0  0  0
   -3.7220   23.3840  -31.5430 O   0  0  0  0  0  0  0  0  0  0  0  0
   -6.3790   23.1100  -31.2390 C   0  0  0  0  0  0  0  0  0  0  0  0
   -7.5280   23.8230  -31.6000 C   0  0  0  0  0  0  0  0  0  0  0  0
   -8.6970   23.1380  -31.9450 C   0  0  0  0  0  0  0  0  0  0  0  0
   -8.7220   21.7400  -31.9340 C   0  0  0  0  0  0  0  0  0  0  0  0
   -7.5760   21.0110  -31.5730 C   0  0  0  0  0  0  0  0  0  0  0  0
   -7.5910   19.5310  -31.5520 C   0  0  0  0  0  0  0  0  0  0  0  0
   -8.6860   18.9130  -31.4680 O   0  0  0  0  0  0  0  0  0  0  0  0
   -6.3490   18.8130  -31.5670 N   0  0  0  0  0  0  0  0  0  0  0  0
   -5.7710   18.0820  -32.6580 C   0  0  0  0  0  0  0  0  0  0  0  0
   -5.9790   16.7000  -32.8170 C   0  0  0  0  0  0  0  0  0  0  0  0
   -5.4070   16.0220  -33.8980 C   0  0  0  0  0  0  0  0  0  0  0  0
   -4.6350   16.7160  -34.8320 C   0  0  0  0  0  0  0  0  0  0  0  0
   -4.4420   18.0920  -34.6960 C   0  0  0  0  0  0  0  0  0  0  0  0
   -5.0110   18.7800  -33.6160 C   0  0  0  0  0  0  0  0  0  0  0  0
   -4.7570   20.5550  -33.4750 S   0  0  0  0  0  0  0  0  0  0  0  0
   -3.1060   20.3720  -32.8000 C   0  0  0  0  0  0  0  0  0  0  0  0
   -2.8890   20.5230  -31.4250 C   0  0  0  0  0  0  0  0  0  0  0  0
   -1.5990   20.3900  -30.9000 C   0  0  0  0  0  0  0  0  0  0  0  0
   -0.5250   20.1050  -31.7470 C   0  0  0  0  0  0  0  0  0  0  0  0
    4.5390   19.2340  -32.6080 S   0  0  0  0  0  0  0  0  0  0  0  0
    0.8750   22.9850  -35.6700 F   0  0  0  0  0  0  0  0  0  0  0  0
    0.4060   22.5040  -36.1550 F   0  0  0  0  0  0  0  0  0  0  0  0
    0.4070   22.4930  -36.1110 F   0  0  0  0  0  0  0  0  0  0  0  0
    0.1950   22.2850  -36.2320 F   0  0  0  0  0  0  0  0  0  0  0  0
    0.7410   22.8590  -35.8740 F   0  0  0  0  0  0  0  0  0  0  0  0
   -0.7400   19.9420  -33.1180 C   0  0  0  0  0  0  0  0  0  0  0  0
   -2.0290   20.0700  -33.6460 C   0  0  0  0  0  0  0  0  0  0  0  0
   -6.4090   21.7110  -31.2160 C   0  0  0  0  0  0  0  0  0  0  0  0
   -1.2794   26.0127  -27.2200 H   0  0  0  0  0  0  0  0  0  0  0  0
   -0.2100   25.8389  -28.6528 H   0  0  0  0  0  0  0  0  0  0  0  0
   -1.5186   27.0694  -28.6528 H   0  0  0  0  0  0  0  0  0  0  0  0
   -0.1649   23.5785  -27.8160 H   0  0  0  0  0  0  0  0  0  0  0  0
   -0.4218   21.2284  -27.0323 H   0  0  0  0  0  0  0  0  0  0  0  0
   -2.6251   20.0813  -27.2149 H   0  0  0  0  0  0  0  0  0  0  0  0
   -4.5807   21.2755  -28.1904 H   0  0  0  0  0  0  0  0  0  0  0  0
   -5.4050   24.0970  -28.4670 H   0  0  0  0  0  0  0  0  0  0  0  0
   -7.5113   24.9228  -31.6123 H   0  0  0  0  0  0  0  0  0  0  0  0
   -9.5996   23.7005  -32.2259 H   0  0  0  0  0  0  0  0  0  0  0  0
   -9.6443   21.2076  -32.2096 H   0  0  0  0  0  0  0  0  0  0  0  0
   -6.5936   16.1508  -32.0886 H   0  0  0  0  0  0  0  0  0  0  0  0
   -5.5655   14.9396  -34.0129 H   0  0  0  0  0  0  0  0  0  0  0  0
   -4.1784   16.1779  -35.6758 H   0  0  0  0  0  0  0  0  0  0  0  0
   -3.8415   18.6376  -35.4388 H   0  0  0  0  0  0  0  0  0  0  0  0
   -3.7337   20.7465  -30.7568 H   0  0  0  0  0  0  0  0  0  0  0  0
   -1.4302   20.5099  -29.8197 H   0  0  0  0  0  0  0  0  0  0  0  0
    0.1056   19.7127  -33.7831 H   0  0  0  0  0  0  0  0  0  0  0  0
   -2.1978   19.9338  -34.7244 H   0  0  0  0  0  0  0  0  0  0  0  0
   -5.5102   21.1525  -30.9155 H   0  0  0  0  0  0  0  0  0  0  0  0
  1  2  1  0
  2  3  1  0
  3  4  2  0
  4  5  1  0
  5  6  2  0
  6  7  1  0
  7  8  2  0
  8  9  1  0
  9 10  1  0
 10 11  2  0
 10 12  2  0
 10 13  1  0
 13 14  2  0
 14 15  1  0
 15 16  2  0
 16 17  1  0
 17 18  1  0
 18 19  2  0
 18 20  1  0
 20 21  1  0
 21 22  2  0
 22 23  1  0
 23 24  2  0
 24 25  1  0
 25 26  2  0
 26 27  1  0
 27 28  1  0
 28 29  2  0
 29 30  1  0
 30 31  2  0
 31 32  1  0
 32 33  1  0
 32 34  1  0
 32 35  1  0
 32 36  1  0
 32 37  1  0
 31 38  1  0
 38 39  2  0
 17 40  2  0
  8  3  1  0
 40 13  1  0
 26 21  1  0
 39 28  1  0
  1 41  1  0
  1 42  1  0
  1 43  1  0
  4 44  1  0
  5 45  1  0
  6 46  1  0
  7 47  1  0
  9 48  1  0
 14 49  1  0
 15 50  1  0
 16 51  1  0
 22 52  1  0
 23 53  1  0
 24 54  1  0
 25 55  1  0
 29 56  1  0
 30 57  1  0
 38 58  1  0
 39 59  1  0
 40 60  1  0
M  CHG  1  20  -1
M  END
>  <UniqueID>  (47) 
45

>  <SMILES>  (47) 
COc1ccccc1NS(=O)(=O)c1cccc(C(=O)[N-]c2ccccc2Sc2ccc(S(F)(F)(F)(F)F)cc2)c1

>  <Energy>  (47) 
55.41616916981364

>  <Genealogy>  (47) 
COc1ccccc1NS(=O)(=O)c1cccc(C(=O)[N-]c2ccccc2Sc2ccc(S(F)(F)(F)(F)F)cc2)c1 (protonated)
COc1ccccc1NS(=O)(=O)c1cccc(C(=O)[N-]c2ccccc2Sc2ccc(S(F)(F)(F)(F)F)cc2)c1 (3D coordinates assigned)
COc1ccccc1NS(=O)(=O)c1cccc(C(=O)[N-]c2ccccc2Sc2ccc(S(F)(F)(F)(F)F)cc2)c1 (optimized conformer: 55.41616916981364 kcal/mol)

>  <smiles>  (47) 
COc1ccccc1NS(=O)(=O)c1cccc(C(=O)Nc2ccccc2Sc2ccc(S(F)(F)(F)(F)F)cc2)c1

>  <score_type>  (47) 
oracle

>  <origin>  (47) 
adgpu

>  <m_score__min__energy>  (47) 
-11.880000000000001

>  <m_primary>  (47) 
energy

$$$$
