0:0
     RDKit          3D

 47 49  0  0  0  0  0  0  0  0999 V2000
   -9.1080   18.5700  -31.2370 C   0  0  0  0  0  0  0  0  0  0  0  0
   -7.9610   18.8780  -32.1610 C   0  0  0  0  0  0  0  0  0  0  0  0
   -7.2540   17.8100  -32.7410 C   0  0  0  0  0  0  0  0  0  0  0  0
   -6.1800   18.0510  -33.6000 C   0  0  0  0  0  0  0  0  0  0  0  0
   -5.8030   19.3600  -33.8970 C   0  0  0  0  0  0  0  0  0  0  0  0
   -6.5000   20.4320  -33.3400 C   0  0  0  0  0  0  0  0  0  0  0  0
   -7.5870   20.2110  -32.4760 C   0  0  0  0  0  0  0  0  0  0  0  0
   -8.3790   21.6230  -31.7440 S   0  0  0  0  0  0  0  0  0  0  0  0
   -9.8360   21.6240  -32.1140 O   0  0  0  0  0  0  0  0  0  0  0  0
   -8.2770   21.5630  -30.2460 O   0  0  0  0  0  0  0  0  0  0  0  0
   -7.6350   23.1370  -32.3410 C   0  0  0  0  0  0  0  0  0  0  0  0
   -6.4510   23.5000  -31.4900 C   0  0  0  0  0  0  0  0  0  0  0  0
   -6.6120   24.3530  -30.3850 C   0  0  0  0  0  0  0  0  0  0  0  0
   -5.5470   24.5790  -29.5100 C   0  0  0  0  0  0  0  0  0  0  0  0
   -4.3130   23.9540  -29.7250 C   0  0  0  0  0  0  0  0  0  0  0  0
   -3.0130   24.1790  -28.5600 S   0  0  0  0  0  0  0  0  0  0  0  0
   -2.1000   25.2870  -29.0130 O   0  0  0  0  0  0  0  0  0  0  0  0
   -3.6090   24.5440  -27.2290 O   0  0  0  0  0  0  0  0  0  0  0  0
   -2.1020   22.6950  -28.4200 N   0  0  0  0  0  0  0  0  0  0  0  0
   -0.8370   22.9100  -27.6800 C   0  0  0  0  0  0  0  0  0  0  0  0
   -0.8910   22.3350  -26.2540 C   0  0  0  0  0  0  0  0  0  0  0  0
   -1.1780   20.9440  -26.2210 O   0  0  0  0  0  0  0  0  0  0  0  0
   -2.0720   20.5170  -27.2430 C   0  0  0  0  0  0  0  0  0  0  0  0
   -2.9450   21.6400  -27.8270 C   0  0  0  0  0  0  0  0  0  0  0  0
   -4.1420   23.1160  -30.8360 C   0  0  0  0  0  0  0  0  0  0  0  0
   -5.2070   22.8880  -31.7130 C   0  0  0  0  0  0  0  0  0  0  0  0
   -8.7724   18.6601  -30.1933 H   0  0  0  0  0  0  0  0  0  0  0  0
   -9.9279   19.2798  -31.4211 H   0  0  0  0  0  0  0  0  0  0  0  0
   -9.4621   17.5450  -31.4211 H   0  0  0  0  0  0  0  0  0  0  0  0
   -7.5498   16.7747  -32.5159 H   0  0  0  0  0  0  0  0  0  0  0  0
   -5.6307   17.2072  -34.0429 H   0  0  0  0  0  0  0  0  0  0  0  0
   -4.9546   19.5476  -34.5716 H   0  0  0  0  0  0  0  0  0  0  0  0
   -6.1960   21.4617  -33.5793 H   0  0  0  0  0  0  0  0  0  0  0  0
   -7.3060   22.9954  -33.3810 H   0  0  0  0  0  0  0  0  0  0  0  0
   -8.3770   23.9475  -32.2907 H   0  0  0  0  0  0  0  0  0  0  0  0
   -7.5801   24.8445  -30.2085 H   0  0  0  0  0  0  0  0  0  0  0  0
   -5.6784   25.2506  -28.6488 H   0  0  0  0  0  0  0  0  0  0  0  0
   -0.0186   22.4204  -28.2283 H   0  0  0  0  0  0  0  0  0  0  0  0
   -0.6736   23.9949  -27.5999 H   0  0  0  0  0  0  0  0  0  0  0  0
    0.0839   22.5022  -25.7727 H   0  0  0  0  0  0  0  0  0  0  0  0
   -1.7070   22.8493  -25.7253 H   0  0  0  0  0  0  0  0  0  0  0  0
   -1.4786   20.0811  -28.0602 H   0  0  0  0  0  0  0  0  0  0  0  0
   -2.7578   19.7920  -26.7802 H   0  0  0  0  0  0  0  0  0  0  0  0
   -3.6010   21.2213  -28.6044 H   0  0  0  0  0  0  0  0  0  0  0  0
   -3.5475   22.0791  -27.0181 H   0  0  0  0  0  0  0  0  0  0  0  0
   -3.1686   22.6372  -31.0180 H   0  0  0  0  0  0  0  0  0  0  0  0
   -5.0697   22.2265  -32.5811 H   0  0  0  0  0  0  0  0  0  0  0  0
  1  2  1  0
  2  3  2  0
  3  4  1  0
  4  5  2  0
  5  6  1  0
  6  7  2  0
  7  8  1  0
  8  9  2  0
  8 10  2  0
  8 11  1  0
 11 12  1  0
 12 13  2  0
 13 14  1  0
 14 15  2  0
 15 16  1  0
 16 17  2  0
 16 18  2  0
 16 19  1  0
 19 20  1  0
 20 21  1  0
 21 22  1  0
 22 23  1  0
 23 24  1  0
 15 25  1  0
 25 26  2  0
  7  2  1  0
 26 12  1  0
 24 19  1  0
  1 27  1  0
  1 28  1  0
  1 29  1  0
  3 30  1  0
  4 31  1  0
  5 32  1  0
  6 33  1  0
 11 34  1  0
 11 35  1  0
 13 36  1  0
 14 37  1  0
 20 38  1  0
 20 39  1  0
 21 40  1  0
 21 41  1  0
 23 42  1  0
 23 43  1  0
 24 44  1  0
 24 45  1  0
 25 46  1  0
 26 47  1  0
M  END
>  <UniqueID>  (1) 
1

>  <SMILES>  (1) 
Cc1ccccc1S(=O)(=O)Cc1ccc(S(=O)(=O)N2CCOCC2)cc1

>  <Energy>  (1) 
55.47059288552978

>  <Genealogy>  (1) 
Cc1ccccc1S(=O)(=O)Cc1ccc(S(=O)(=O)N2CCOCC2)cc1 (3D coordinates assigned)
Cc1ccccc1S(=O)(=O)Cc1ccc(S(=O)(=O)N2CCOCC2)cc1 (nonaromatic ring conformer: 55.47059288552978 kcal/mol)

>  <smiles>  (1) 
Cc1ccccc1S(=O)(=O)Cc1ccc(S(=O)(=O)N2CCOCC2)cc1

>  <score_type>  (1) 
oracle

>  <origin>  (1) 
adgpu

>  <m_score__min__energy>  (1) 
-9.75

>  <m_primary>  (1) 
energy

$$$$
1:0
     RDKit          3D

 54 57  0  0  0  0  0  0  0  0999 V2000
   -1.2440   27.7740  -25.3560 C   0  0  0  0  0  0  0  0  0  0  0  0
    0.0140   26.8980  -25.3040 C   0  0  0  0  0  0  0  0  0  0  0  0
    0.0350   26.0150  -24.0310 C   0  0  0  0  0  0  0  0  0  0  0  0
   -0.4490   24.5930  -24.3320 C   0  0  0  0  0  0  0  0  0  0  0  0
    0.4290   23.9150  -25.3110 N   0  0  0  0  0  0  0  0  0  0  0  0
   -0.3910   22.5390  -26.0130 S   0  0  0  0  0  0  0  0  0  0  0  0
    0.5860   21.7460  -26.8360 O   0  0  0  0  0  0  0  0  0  0  0  0
   -0.9070   21.6470  -24.9170 O   0  0  0  0  0  0  0  0  0  0  0  0
   -1.7390   23.0440  -27.0340 C   0  0  0  0  0  0  0  0  0  0  0  0
   -2.0680   22.3150  -28.1830 C   0  0  0  0  0  0  0  0  0  0  0  0
   -3.1760   22.6730  -28.9550 C   0  0  0  0  0  0  0  0  0  0  0  0
   -3.9630   23.7840  -28.5960 C   0  0  0  0  0  0  0  0  0  0  0  0
   -5.1490   24.1350  -29.3290 N   0  0  0  0  0  0  0  0  0  0  0  0
   -5.1450   24.8090  -30.5980 C   0  0  0  0  0  0  0  0  0  0  0  0
   -4.2490   25.6530  -30.8650 O   0  0  0  0  0  0  0  0  0  0  0  0
   -6.1820   24.5650  -31.5550 N   0  0  0  0  0  0  0  0  0  0  0  0
   -6.7540   23.2740  -31.8090 C   0  0  0  0  0  0  0  0  0  0  0  0
   -8.1270   23.1080  -31.5900 C   0  0  0  0  0  0  0  0  0  0  0  0
   -8.7260   21.8580  -31.7410 C   0  0  0  0  0  0  0  0  0  0  0  0
   -7.9640   20.7530  -32.1190 C   0  0  0  0  0  0  0  0  0  0  0  0
   -6.5940   20.8970  -32.3820 C   0  0  0  0  0  0  0  0  0  0  0  0
   -5.8340   19.7860  -32.7850 C   0  0  0  0  0  0  0  0  0  0  0  0
   -4.4790   19.9350  -33.0860 C   0  0  0  0  0  0  0  0  0  0  0  0
   -3.8780   21.1920  -33.0110 C   0  0  0  0  0  0  0  0  0  0  0  0
   -4.6200   22.3050  -32.6090 C   0  0  0  0  0  0  0  0  0  0  0  0
   -5.9780   22.1710  -32.2550 C   0  0  0  0  0  0  0  0  0  0  0  0
   -3.6260   24.5140  -27.4480 C   0  0  0  0  0  0  0  0  0  0  0  0
   -2.5180   24.1540  -26.6770 C   0  0  0  0  0  0  0  0  0  0  0  0
    0.9940   24.8050  -26.3570 C   0  0  0  0  0  0  0  0  0  0  0  0
    0.1400   26.0590  -26.5960 C   0  0  0  0  0  0  0  0  0  0  0  0
   -1.5736   28.0035  -24.3319 H   0  0  0  0  0  0  0  0  0  0  0  0
   -1.0171   28.7104  -25.8867 H   0  0  0  0  0  0  0  0  0  0  0  0
   -2.0435   27.2363  -25.8867 H   0  0  0  0  0  0  0  0  0  0  0  0
    0.8941   27.5553  -25.2455 H   0  0  0  0  0  0  0  0  0  0  0  0
    1.0635   25.9690  -23.6437 H   0  0  0  0  0  0  0  0  0  0  0  0
   -0.6412   26.4618  -23.2873 H   0  0  0  0  0  0  0  0  0  0  0  0
   -0.4564   24.0130  -23.3974 H   0  0  0  0  0  0  0  0  0  0  0  0
   -1.4593   24.6571  -24.7623 H   0  0  0  0  0  0  0  0  0  0  0  0
   -1.4501   21.4547  -28.4799 H   0  0  0  0  0  0  0  0  0  0  0  0
   -3.4348   22.0842  -29.8474 H   0  0  0  0  0  0  0  0  0  0  0  0
   -6.0740   23.8530  -28.9320 H   0  0  0  0  0  0  0  0  0  0  0  0
   -8.7396   23.9730  -31.2957 H   0  0  0  0  0  0  0  0  0  0  0  0
   -9.8051   21.7429  -31.5610 H   0  0  0  0  0  0  0  0  0  0  0  0
   -8.4390   19.7652  -32.2112 H   0  0  0  0  0  0  0  0  0  0  0  0
   -6.3079   18.7964  -32.8635 H   0  0  0  0  0  0  0  0  0  0  0  0
   -3.8835   19.0591  -33.3831 H   0  0  0  0  0  0  0  0  0  0  0  0
   -2.8150   21.3070  -33.2696 H   0  0  0  0  0  0  0  0  0  0  0  0
   -4.1408   23.2943  -32.5683 H   0  0  0  0  0  0  0  0  0  0  0  0
   -4.2392   25.3778  -27.1515 H   0  0  0  0  0  0  0  0  0  0  0  0
   -2.2556   24.7437  -25.7863 H   0  0  0  0  0  0  0  0  0  0  0  0
    2.0007   25.1196  -26.0446 H   0  0  0  0  0  0  0  0  0  0  0  0
    1.0181   24.2363  -27.2983 H   0  0  0  0  0  0  0  0  0  0  0  0
    0.6118   26.6718  -27.3782 H   0  0  0  0  0  0  0  0  0  0  0  0
   -0.8664   25.7433  -26.9083 H   0  0  0  0  0  0  0  0  0  0  0  0
  1  2  1  0
  2  3  1  0
  3  4  1  0
  4  5  1  0
  5  6  1  0
  6  7  2  0
  6  8  2  0
  6  9  1  0
  9 10  2  0
 10 11  1  0
 11 12  2  0
 12 13  1  0
 13 14  1  0
 14 15  2  0
 14 16  1  0
 16 17  1  0
 17 18  2  0
 18 19  1  0
 19 20  2  0
 20 21  1  0
 21 22  2  0
 22 23  1  0
 23 24  2  0
 24 25  1  0
 25 26  2  0
 12 27  1  0
 27 28  2  0
  5 29  1  0
 29 30  1  0
 30  2  1  0
 28  9  1  0
 26 17  1  0
 26 21  1  0
  1 31  1  0
  1 32  1  0
  1 33  1  0
  2 34  1  0
  3 35  1  0
  3 36  1  0
  4 37  1  0
  4 38  1  0
 10 39  1  0
 11 40  1  0
 13 41  1  0
 18 42  1  0
 19 43  1  0
 20 44  1  0
 22 45  1  0
 23 46  1  0
 24 47  1  0
 25 48  1  0
 27 49  1  0
 28 50  1  0
 29 51  1  0
 29 52  1  0
 30 53  1  0
 30 54  1  0
M  CHG  1  16  -1
M  END
>  <UniqueID>  (2) 
2

>  <SMILES>  (2) 
CC1CCN(S(=O)(=O)c2ccc(NC(=O)[N-]c3cccc4ccccc34)cc2)CC1

>  <Energy>  (2) 
72.74508486313258

>  <Genealogy>  (2) 
CC1CCN(S(=O)(=O)c2ccc(NC(=O)[N-]c3cccc4ccccc34)cc2)CC1 (protonated)
CC1CCN(S(=O)(=O)c2ccc(NC(=O)[N-]c3cccc4ccccc34)cc2)CC1 (3D coordinates assigned)
CC1CCN(S(=O)(=O)c2ccc(NC(=O)[N-]c3cccc4ccccc34)cc2)CC1 (nonaromatic ring conformer: 72.74508486313258 kcal/mol)

>  <smiles>  (2) 
CC1CCN(S(=O)(=O)c2ccc(NC(=O)Nc3cccc4ccccc34)cc2)CC1

>  <score_type>  (2) 
oracle

>  <origin>  (2) 
adgpu

>  <m_score__min__energy>  (2) 
-12.08

>  <m_primary>  (2) 
energy

$$$$
2:0
     RDKit          3D

 49 52  0  0  0  0  0  0  0  0999 V2000
   -6.7310   23.9760  -31.9570 C   0  0  0  0  0  0  0  0  0  0  0  0
   -5.9300   22.7230  -32.1080 C   0  0  0  0  0  0  0  0  0  0  0  0
   -6.4120   21.6010  -32.6780 N   0  0  0  0  0  0  0  0  0  0  0  0
   -5.4690   20.6700  -32.6180 N   0  0  0  0  0  0  0  0  0  0  0  0
   -5.6530   19.3470  -33.1500 C   0  0  0  0  0  0  0  0  0  0  0  0
   -4.8770   18.8870  -34.2280 C   0  0  0  0  0  0  0  0  0  0  0  0
   -5.0840   17.6080  -34.7520 C   0  0  0  0  0  0  0  0  0  0  0  0
   -6.0750   16.7830  -34.2140 C   0  0  0  0  0  0  0  0  0  0  0  0
   -6.8660   17.2410  -33.1560 C   0  0  0  0  0  0  0  0  0  0  0  0
   -6.6610   18.5200  -32.6300 C   0  0  0  0  0  0  0  0  0  0  0  0
   -4.3790   21.1680  -31.9850 C   0  0  0  0  0  0  0  0  0  0  0  0
   -3.1160   20.4160  -31.6810 C   0  0  0  0  0  0  0  0  0  0  0  0
   -4.6310   22.4940  -31.6860 C   0  0  0  0  0  0  0  0  0  0  0  0
   -3.7620   23.3950  -30.9820 N   0  0  0  0  0  0  0  0  0  0  0  0
   -3.6800   23.4290  -29.5500 C   0  0  0  0  0  0  0  0  0  0  0  0
   -4.5930   22.9010  -28.8610 O   0  0  0  0  0  0  0  0  0  0  0  0
   -2.5580   24.1180  -28.8740 C   0  0  0  0  0  0  0  0  0  0  0  0
   -1.2520   24.2210  -29.3270 C   0  0  0  0  0  0  0  0  0  0  0  0
   -0.5260   24.9340  -28.4470 N   0  0  0  0  0  0  0  0  0  0  0  0
   -1.3200   25.2900  -27.4490 N   0  0  0  0  0  0  0  0  0  0  0  0
   -0.8650   26.0950  -26.3490 C   0  0  0  0  0  0  0  0  0  0  0  0
   -0.8570   25.5840  -25.0380 C   0  0  0  0  0  0  0  0  0  0  0  0
   -0.4400   26.3870  -23.9720 C   0  0  0  0  0  0  0  0  0  0  0  0
   -0.0420   27.7070  -24.2030 C   0  0  0  0  0  0  0  0  0  0  0  0
   -0.0680   28.2280  -25.4990 C   0  0  0  0  0  0  0  0  0  0  0  0
   -0.4840   27.4290  -26.5670 C   0  0  0  0  0  0  0  0  0  0  0  0
   -2.5620   24.7930  -27.6600 C   0  0  0  0  0  0  0  0  0  0  0  0
   -3.7180   24.8990  -26.7050 C   0  0  0  0  0  0  0  0  0  0  0  0
   -6.8711   24.1951  -30.8882 H   0  0  0  0  0  0  0  0  0  0  0  0
   -6.1990   24.8112  -32.4359 H   0  0  0  0  0  0  0  0  0  0  0  0
   -7.7124   23.8437  -32.4359 H   0  0  0  0  0  0  0  0  0  0  0  0
   -4.1027   19.5371  -34.6615 H   0  0  0  0  0  0  0  0  0  0  0  0
   -4.4661   17.2505  -35.5889 H   0  0  0  0  0  0  0  0  0  0  0  0
   -6.2328   15.7739  -34.6225 H   0  0  0  0  0  0  0  0  0  0  0  0
   -7.6507   16.5941  -32.7369 H   0  0  0  0  0  0  0  0  0  0  0  0
   -7.2927   18.8800  -31.8046 H   0  0  0  0  0  0  0  0  0  0  0  0
   -2.9880   20.3398  -30.5911 H   0  0  0  0  0  0  0  0  0  0  0  0
   -3.1767   19.4069  -32.1145 H   0  0  0  0  0  0  0  0  0  0  0  0
   -2.2578   20.9503  -32.1145 H   0  0  0  0  0  0  0  0  0  0  0  0
   -3.2670   24.1290  -31.5330 H   0  0  0  0  0  0  0  0  0  0  0  0
   -0.8683   23.7867  -30.2620 H   0  0  0  0  0  0  0  0  0  0  0  0
   -1.1799   24.5492  -24.8511 H   0  0  0  0  0  0  0  0  0  0  0  0
   -0.4251   25.9795  -22.9504 H   0  0  0  0  0  0  0  0  0  0  0  0
    0.2917   28.3356  -23.3642 H   0  0  0  0  0  0  0  0  0  0  0  0
    0.2395   29.2687  -25.6788 H   0  0  0  0  0  0  0  0  0  0  0  0
   -0.5132   27.8471  -27.5840 H   0  0  0  0  0  0  0  0  0  0  0  0
   -3.3438   24.8647  -25.6712 H   0  0  0  0  0  0  0  0  0  0  0  0
   -4.2460   25.8493  -26.8725 H   0  0  0  0  0  0  0  0  0  0  0  0
   -4.4101   24.0605  -26.8725 H   0  0  0  0  0  0  0  0  0  0  0  0
  1  2  1  0
  2  3  2  0
  3  4  1  0
  4  5  1  0
  5  6  2  0
  6  7  1  0
  7  8  2  0
  8  9  1  0
  9 10  2  0
  4 11  1  0
 11 12  1  0
 11 13  2  0
 13 14  1  0
 14 15  1  0
 15 16  2  0
 15 17  1  0
 17 18  1  0
 18 19  2  0
 19 20  1  0
 20 21  1  0
 21 22  2  0
 22 23  1  0
 23 24  2  0
 24 25  1  0
 25 26  2  0
 20 27  1  0
 27 28  1  0
 13  2  1  0
 27 17  2  0
 10  5  1  0
 26 21  1  0
  1 29  1  0
  1 30  1  0
  1 31  1  0
  6 32  1  0
  7 33  1  0
  8 34  1  0
  9 35  1  0
 10 36  1  0
 12 37  1  0
 12 38  1  0
 12 39  1  0
 14 40  1  0
 18 41  1  0
 22 42  1  0
 23 43  1  0
 24 44  1  0
 25 45  1  0
 26 46  1  0
 28 47  1  0
 28 48  1  0
 28 49  1  0
M  END
>  <UniqueID>  (3) 
3

>  <SMILES>  (3) 
Cc1nn(-c2ccccc2)c(C)c1NC(=O)c1cnn(-c2ccccc2)c1C

>  <Energy>  (3) 
128.88045277525117

>  <Genealogy>  (3) 
Cc1nn(-c2ccccc2)c(C)c1NC(=O)c1cnn(-c2ccccc2)c1C (3D coordinates assigned)
Cc1nn(-c2ccccc2)c(C)c1NC(=O)c1cnn(-c2ccccc2)c1C (optimized conformer: 128.88045277525117 kcal/mol)

>  <smiles>  (3) 
Cc1nn(-c2ccccc2)c(C)c1NC(=O)c1cnn(-c2ccccc2)c1C

>  <score_type>  (3) 
oracle

>  <origin>  (3) 
adgpu

>  <m_score__min__energy>  (3) 
-9.5299999999999994

>  <m_primary>  (3) 
energy

$$$$
3:0
     RDKit          3D

 48 51  0  0  0  0  0  0  0  0999 V2000
   -0.4860   24.7150  -28.9160 O   0  0  0  0  0  0  0  0  0  0  0  0
   -1.5190   24.1350  -29.3380 C   0  0  0  0  0  0  0  0  0  0  0  0
   -2.7190   24.9030  -29.5520 N   0  0  0  0  0  0  0  0  0  0  0  0
   -4.0270   24.5700  -28.9970 C   0  0  0  0  0  0  0  0  0  0  0  0
   -5.0020   24.2670  -30.0900 C   0  0  0  0  0  0  0  0  0  0  0  0
   -6.3730   24.1920  -29.9470 C   0  0  0  0  0  0  0  0  0  0  0  0
   -6.8580   23.8890  -31.1990 C   0  0  0  0  0  0  0  0  0  0  0  0
   -5.7540   23.7990  -32.0250 C   0  0  0  0  0  0  0  0  0  0  0  0
   -4.6610   24.0310  -31.3340 O   0  0  0  0  0  0  0  0  0  0  0  0
   -1.4450   22.7090  -29.6980 C   0  0  0  0  0  0  0  0  0  0  0  0
   -0.7260   21.8270  -28.8830 C   0  0  0  0  0  0  0  0  0  0  0  0
   -0.5610   20.4940  -29.2680 C   0  0  0  0  0  0  0  0  0  0  0  0
   -1.1160   20.0370  -30.4650 C   0  0  0  0  0  0  0  0  0  0  0  0
   -1.8550   20.9070  -31.2750 C   0  0  0  0  0  0  0  0  0  0  0  0
   -2.4960   20.3490  -32.8210 S   0  0  0  0  0  0  0  0  0  0  0  0
   -2.6200   21.5270  -33.7450 O   0  0  0  0  0  0  0  0  0  0  0  0
   -1.5380   19.3640  -33.4320 O   0  0  0  0  0  0  0  0  0  0  0  0
   -4.0650   19.6080  -32.6060 N   0  0  2  0  0  0  0  0  0  0  0  0
   -4.3080   18.6140  -33.6680 C   0  0  0  0  0  0  0  0  0  0  0  0
   -5.6390   17.8680  -33.4560 C   0  0  0  0  0  0  0  0  0  0  0  0
   -6.7290   18.7270  -32.8580 C   0  0  0  0  0  0  0  0  0  0  0  0
   -8.0010   18.1720  -32.6450 C   0  0  0  0  0  0  0  0  0  0  0  0
   -9.0070   18.9190  -32.0240 C   0  0  0  0  0  0  0  0  0  0  0  0
   -8.7560   20.2330  -31.6220 C   0  0  0  0  0  0  0  0  0  0  0  0
   -7.4940   20.7970  -31.8280 C   0  0  0  0  0  0  0  0  0  0  0  0
   -6.4700   20.0460  -32.4350 C   0  0  0  0  0  0  0  0  0  0  0  0
   -5.1040   20.6490  -32.6380 C   0  0  0  0  0  0  0  0  0  0  0  0
   -2.0220   22.2440  -30.8850 C   0  0  0  0  0  0  0  0  0  0  0  0
   -3.9294   23.6892  -28.3454 H   0  0  0  0  0  0  0  0  0  0  0  0
   -4.3970   25.4309  -28.4209 H   0  0  0  0  0  0  0  0  0  0  0  0
   -6.9554   24.3427  -29.0261 H   0  0  0  0  0  0  0  0  0  0  0  0
   -7.9109   23.7473  -31.4841 H   0  0  0  0  0  0  0  0  0  0  0  0
   -5.7855   23.5678  -33.1000 H   0  0  0  0  0  0  0  0  0  0  0  0
   -0.2902   22.1837  -27.9381 H   0  0  0  0  0  0  0  0  0  0  0  0
    0.0070   19.8036  -28.6271 H   0  0  0  0  0  0  0  0  0  0  0  0
   -0.9721   18.9906  -30.7722 H   0  0  0  0  0  0  0  0  0  0  0  0
   -4.0690   19.1340  -31.6740 H   0  0  0  0  0  0  0  0  0  0  0  0
   -4.3392   19.1300  -34.6389 H   0  0  0  0  0  0  0  0  0  0  0  0
   -3.4929   17.8759  -33.6401 H   0  0  0  0  0  0  0  0  0  0  0  0
   -5.9867   17.4945  -34.4305 H   0  0  0  0  0  0  0  0  0  0  0  0
   -5.4416   17.0557  -32.7410 H   0  0  0  0  0  0  0  0  0  0  0  0
   -8.2079   17.1414  -32.9692 H   0  0  0  0  0  0  0  0  0  0  0  0
   -9.9970   18.4714  -31.8519 H   0  0  0  0  0  0  0  0  0  0  0  0
   -9.5512   20.8235  -31.1435 H   0  0  0  0  0  0  0  0  0  0  0  0
   -7.3000   21.8333  -31.5141 H   0  0  0  0  0  0  0  0  0  0  0  0
   -5.0753   21.1577  -33.6129 H   0  0  0  0  0  0  0  0  0  0  0  0
   -4.9104   21.3663  -31.8268 H   0  0  0  0  0  0  0  0  0  0  0  0
   -2.6086   22.9293  -31.5145 H   0  0  0  0  0  0  0  0  0  0  0  0
  1  2  2  0
  2  3  1  0
  3  4  1  0
  4  5  1  0
  5  6  2  0
  6  7  1  0
  7  8  2  0
  8  9  1  0
  2 10  1  0
 10 11  2  0
 11 12  1  0
 12 13  2  0
 13 14  1  0
 14 15  1  0
 15 16  2  0
 15 17  2  0
 15 18  1  0
 18 19  1  0
 19 20  1  0
 20 21  1  0
 21 22  2  0
 22 23  1  0
 23 24  2  0
 24 25  1  0
 25 26  2  0
 26 27  1  0
 14 28  2  0
  9  5  1  0
 28 10  1  0
 27 18  1  0
 26 21  1  0
  4 29  1  0
  4 30  1  0
  6 31  1  0
  7 32  1  0
  8 33  1  0
 11 34  1  0
 12 35  1  0
 13 36  1  0
 18 37  1  1
 19 38  1  0
 19 39  1  0
 20 40  1  0
 20 41  1  0
 22 42  1  0
 23 43  1  0
 24 44  1  0
 25 45  1  0
 27 46  1  0
 27 47  1  0
 28 48  1  0
M  CHG  2   3  -1  18   1
M  END
>  <UniqueID>  (4) 
4

>  <SMILES>  (4) 
O=C([N-]Cc1ccco1)c1cccc(S(=O)(=O)[N@@H+]2CCc3ccccc3C2)c1

>  <Energy>  (4) 
81.27081514318243

>  <Genealogy>  (4) 
O=C([N-]Cc1ccco1)c1cccc(S(=O)(=O)[NH+]2CCc3ccccc3C2)c1 (protonated)
O=C([N-]Cc1ccco1)c1cccc(S(=O)(=O)[N@@H+]2CCc3ccccc3C2)c1 (chirality)
O=C([N-]Cc1ccco1)c1cccc(S(=O)(=O)[N@@H+]2CCc3ccccc3C2)c1 (3D coordinates assigned)
O=C([N-]Cc1ccco1)c1cccc(S(=O)(=O)[N@@H+]2CCc3ccccc3C2)c1 (nonaromatic ring conformer: 81.27081514318243 kcal/mol)

>  <smiles>  (4) 
O=C(NCc1ccco1)c1cccc(S(=O)(=O)N2CCc3ccccc3C2)c1

>  <score_type>  (4) 
oracle

>  <origin>  (4) 
adgpu

>  <m_score__min__energy>  (4) 
-11.050000000000001

>  <m_primary>  (4) 
energy

$$$$
4:0
     RDKit          3D

 48 51  0  0  0  0  0  0  0  0999 V2000
   -2.5150   20.4160  -33.7660 C   0  0  0  0  0  0  0  0  0  0  0  0
   -3.7700   20.8920  -33.1080 C   0  0  0  0  0  0  0  0  0  0  0  0
   -4.9880   20.2190  -33.3280 C   0  0  0  0  0  0  0  0  0  0  0  0
   -6.1620   20.6960  -32.7140 C   0  0  0  0  0  0  0  0  0  0  0  0
   -7.4630   19.9770  -32.9430 C   0  0  0  0  0  0  0  0  0  0  0  0
   -6.0590   21.8120  -31.9280 N   0  0  0  0  0  0  0  0  0  0  0  0
   -6.9460   22.5420  -31.1990 C   0  0  0  0  0  0  0  0  0  0  0  0
   -8.4110   22.2690  -31.0600 C   0  0  0  0  0  0  0  0  0  0  0  0
   -6.3590   23.5920  -30.5730 N   0  0  0  0  0  0  0  0  0  0  0  0
   -5.0560   23.5290  -30.9260 C   0  0  0  0  0  0  0  0  0  0  0  0
   -4.0180   24.4680  -30.4600 C   0  0  0  0  0  0  0  0  0  0  0  0
   -4.2410   25.7070  -30.4900 O   0  0  0  0  0  0  0  0  0  0  0  0
   -2.7280   24.0100  -30.0370 N   0  0  0  0  0  0  0  0  0  0  0  0
   -2.4760   22.9140  -29.1450 C   0  0  0  0  0  0  0  0  0  0  0  0
   -2.7450   21.5910  -29.5370 C   0  0  0  0  0  0  0  0  0  0  0  0
   -2.5580   20.5370  -28.6400 C   0  0  0  0  0  0  0  0  0  0  0  0
   -2.1180   20.7930  -27.3400 C   0  0  0  0  0  0  0  0  0  0  0  0
   -1.8670   22.1060  -26.9330 C   0  0  0  0  0  0  0  0  0  0  0  0
   -2.0450   23.1730  -27.8280 C   0  0  0  0  0  0  0  0  0  0  0  0
   -1.7630   24.5140  -27.4010 N   0  0  0  0  0  0  0  0  0  0  0  0
   -0.6680   25.3040  -27.9350 C   0  0  0  0  0  0  0  0  0  0  0  0
   -0.7490   26.6450  -27.2200 C   0  0  0  0  0  0  0  0  0  0  0  0
   -1.6240   26.4110  -25.9890 C   0  0  0  0  0  0  0  0  0  0  0  0
   -2.4270   25.1490  -26.2770 C   0  0  0  0  0  0  0  0  0  0  0  0
   -4.8850   22.4380  -31.7440 C   0  0  0  0  0  0  0  0  0  0  0  0
   -3.7390   22.0030  -32.3200 N   0  0  0  0  0  0  0  0  0  0  0  0
   -1.7803   20.1374  -32.9962 H   0  0  0  0  0  0  0  0  0  0  0  0
   -2.7391   19.5404  -34.3930 H   0  0  0  0  0  0  0  0  0  0  0  0
   -2.1021   21.2200  -34.3930 H   0  0  0  0  0  0  0  0  0  0  0  0
   -5.0216   19.3290  -33.9736 H   0  0  0  0  0  0  0  0  0  0  0  0
   -7.9184   19.7253  -31.9738 H   0  0  0  0  0  0  0  0  0  0  0  0
   -8.1455   20.6260  -33.5113 H   0  0  0  0  0  0  0  0  0  0  0  0
   -7.2766   19.0538  -33.5113 H   0  0  0  0  0  0  0  0  0  0  0  0
   -8.6752   22.2198  -29.9933 H   0  0  0  0  0  0  0  0  0  0  0  0
   -8.9818   23.0762  -31.5423 H   0  0  0  0  0  0  0  0  0  0  0  0
   -8.6527   21.3103  -31.5423 H   0  0  0  0  0  0  0  0  0  0  0  0
   -3.1048   21.3848  -30.5559 H   0  0  0  0  0  0  0  0  0  0  0  0
   -2.7578   19.5032  -28.9584 H   0  0  0  0  0  0  0  0  0  0  0  0
   -1.9689   19.9610  -26.6360 H   0  0  0  0  0  0  0  0  0  0  0  0
   -1.5280   22.3047  -25.9056 H   0  0  0  0  0  0  0  0  0  0  0  0
    0.2955   24.8153  -27.7280 H   0  0  0  0  0  0  0  0  0  0  0  0
   -0.7410   25.4180  -29.0266 H   0  0  0  0  0  0  0  0  0  0  0  0
    0.2547   26.9789  -26.9182 H   0  0  0  0  0  0  0  0  0  0  0  0
   -1.1689   27.4255  -27.8716 H   0  0  0  0  0  0  0  0  0  0  0  0
   -0.9973   26.2696  -25.0961 H   0  0  0  0  0  0  0  0  0  0  0  0
   -2.2818   27.2707  -25.7935 H   0  0  0  0  0  0  0  0  0  0  0  0
   -2.4228   24.4827  -25.4018 H   0  0  0  0  0  0  0  0  0  0  0  0
   -3.4794   25.3776  -26.5011 H   0  0  0  0  0  0  0  0  0  0  0  0
  1  2  1  0
  2  3  1  0
  3  4  2  0
  4  5  1  0
  4  6  1  0
  6  7  1  0
  7  8  1  0
  7  9  2  0
  9 10  1  0
 10 11  1  0
 11 12  2  0
 11 13  1  0
 13 14  1  0
 14 15  2  0
 15 16  1  0
 16 17  2  0
 17 18  1  0
 18 19  2  0
 19 20  1  0
 20 21  1  0
 21 22  1  0
 22 23  1  0
 23 24  1  0
 10 25  2  0
 25 26  1  0
 26  2  2  0
 25  6  1  0
 19 14  1  0
 24 20  1  0
  1 27  1  0
  1 28  1  0
  1 29  1  0
  3 30  1  0
  5 31  1  0
  5 32  1  0
  5 33  1  0
  8 34  1  0
  8 35  1  0
  8 36  1  0
 15 37  1  0
 16 38  1  0
 17 39  1  0
 18 40  1  0
 21 41  1  0
 21 42  1  0
 22 43  1  0
 22 44  1  0
 23 45  1  0
 23 46  1  0
 24 47  1  0
 24 48  1  0
M  CHG  1  13  -1
M  END
>  <UniqueID>  (5) 
5

>  <SMILES>  (5) 
Cc1cc(C)n2c(C)nc(C(=O)[N-]c3ccccc3N3CCCC3)c2n1

>  <Energy>  (5) 
98.56781191669799

>  <Genealogy>  (5) 
Cc1cc(C)n2c(C)nc(C(=O)[N-]c3ccccc3N3CCCC3)c2n1 (protonated)
Cc1cc(C)n2c(C)nc(C(=O)[N-]c3ccccc3N3CCCC3)c2n1 (3D coordinates assigned)
Cc1cc(C)n2c(C)nc(C(=O)[N-]c3ccccc3N3CCCC3)c2n1 (nonaromatic ring conformer: 98.56781191669799 kcal/mol)

>  <smiles>  (5) 
Cc1cc(C)n2c(C)nc(C(=O)Nc3ccccc3N3CCCC3)c2n1

>  <score_type>  (5) 
oracle

>  <origin>  (5) 
adgpu

>  <m_score__min__energy>  (5) 
-9.6400000000000006

>  <m_primary>  (5) 
energy

$$$$
5:0
     RDKit          3D

 40 42  0  0  0  0  0  0  0  0999 V2000
   -4.1120   16.2770  -33.6830 N   0  0  0  0  0  0  0  0  0  0  0  0
   -4.9690   17.0110  -33.4300 C   0  0  0  0  0  0  0  0  0  0  0  0
   -6.0360   17.9270  -33.1160 C   0  0  0  0  0  0  0  0  0  0  0  0
   -6.9980   17.5830  -32.1530 C   0  0  0  0  0  0  0  0  0  0  0  0
   -8.0360   18.4730  -31.8480 C   0  0  0  0  0  0  0  0  0  0  0  0
   -8.1140   19.7070  -32.5050 C   0  0  0  0  0  0  0  0  0  0  0  0
   -9.4320   20.8550  -32.1010 S   0  0  0  0  0  0  0  0  0  0  0  0
   -8.2790   22.0840  -31.4930 C   0  0  0  0  0  0  0  0  0  0  0  0
   -7.8620   22.0560  -30.1540 C   0  0  0  0  0  0  0  0  0  0  0  0
   -6.9070   22.9720  -29.6980 C   0  0  0  0  0  0  0  0  0  0  0  0
   -6.3530   23.9110  -30.5800 C   0  0  0  0  0  0  0  0  0  0  0  0
   -5.0740   24.9970  -30.0230 S   0  0  0  0  0  0  0  0  0  0  0  0
   -4.9890   24.9090  -28.5250 O   0  0  0  0  0  0  0  0  0  0  0  0
   -5.4250   26.4160  -30.3900 O   0  0  0  0  0  0  0  0  0  0  0  0
   -3.5090   24.6160  -30.6990 N   0  0  0  0  0  0  0  0  0  0  0  0
   -2.9960   23.3130  -30.2640 C   0  0  0  0  0  0  0  0  0  0  0  0
   -2.9860   22.2980  -31.3800 C   0  0  0  0  0  0  0  0  0  0  0  0
   -1.9100   21.4060  -31.5240 C   0  0  0  0  0  0  0  0  0  0  0  0
   -1.9140   20.4690  -32.5590 C   0  0  0  0  0  0  0  0  0  0  0  0
   -2.9840   20.4500  -33.4600 C   0  0  0  0  0  0  0  0  0  0  0  0
   -4.0070   21.3380  -33.3240 N   0  0  0  0  0  0  0  0  0  0  0  0
   -4.0300   22.2530  -32.3180 C   0  0  0  0  0  0  0  0  0  0  0  0
   -6.8020   23.9600  -31.9100 C   0  0  0  0  0  0  0  0  0  0  0  0
   -7.7630   23.0520  -32.3640 C   0  0  0  0  0  0  0  0  0  0  0  0
   -7.1530   20.0490  -33.4690 C   0  0  0  0  0  0  0  0  0  0  0  0
   -6.1150   19.1620  -33.7730 C   0  0  0  0  0  0  0  0  0  0  0  0
   -6.9366   16.6133  -31.6373 H   0  0  0  0  0  0  0  0  0  0  0  0
   -8.7890   18.2026  -31.0931 H   0  0  0  0  0  0  0  0  0  0  0  0
   -8.2859   21.3136  -29.4618 H   0  0  0  0  0  0  0  0  0  0  0  0
   -6.5901   22.9553  -28.6448 H   0  0  0  0  0  0  0  0  0  0  0  0
   -1.9678   23.4432  -29.8955 H   0  0  0  0  0  0  0  0  0  0  0  0
   -3.6624   22.9366  -29.4739 H   0  0  0  0  0  0  0  0  0  0  0  0
   -1.0646   21.4459  -30.8214 H   0  0  0  0  0  0  0  0  0  0  0  0
   -1.0851   19.7537  -32.6648 H   0  0  0  0  0  0  0  0  0  0  0  0
   -2.9988   19.7165  -34.2796 H   0  0  0  0  0  0  0  0  0  0  0  0
   -4.8690   22.9600  -32.2389 H   0  0  0  0  0  0  0  0  0  0  0  0
   -6.3955   24.7164  -32.5975 H   0  0  0  0  0  0  0  0  0  0  0  0
   -8.1140   23.0977  -33.4055 H   0  0  0  0  0  0  0  0  0  0  0  0
   -7.2163   21.0174  -33.9870 H   0  0  0  0  0  0  0  0  0  0  0  0
   -5.3616   19.4338  -34.5270 H   0  0  0  0  0  0  0  0  0  0  0  0
  1  2  3  0
  2  3  1  0
  3  4  2  0
  4  5  1  0
  5  6  2  0
  6  7  1  0
  7  8  1  0
  8  9  2  0
  9 10  1  0
 10 11  2  0
 11 12  1  0
 12 13  2  0
 12 14  2  0
 12 15  1  0
 15 16  1  0
 16 17  1  0
 17 18  2  0
 18 19  1  0
 19 20  2  0
 20 21  1  0
 21 22  2  0
 11 23  1  0
 23 24  2  0
  6 25  1  0
 25 26  2  0
 26  3  1  0
 24  8  1  0
 22 17  1  0
  4 27  1  0
  5 28  1  0
  9 29  1  0
 10 30  1  0
 16 31  1  0
 16 32  1  0
 18 33  1  0
 19 34  1  0
 20 35  1  0
 22 36  1  0
 23 37  1  0
 24 38  1  0
 25 39  1  0
 26 40  1  0
M  CHG  1  15  -1
M  END
>  <UniqueID>  (6) 
6

>  <SMILES>  (6) 
N#Cc1ccc(Sc2ccc(S(=O)(=O)[N-]Cc3cccnc3)cc2)cc1

>  <Energy>  (6) 
35.90869896280438

>  <Genealogy>  (6) 
N#Cc1ccc(Sc2ccc(S(=O)(=O)[N-]Cc3cccnc3)cc2)cc1 (protonated)
N#Cc1ccc(Sc2ccc(S(=O)(=O)[N-]Cc3cccnc3)cc2)cc1 (3D coordinates assigned)
N#Cc1ccc(Sc2ccc(S(=O)(=O)[N-]Cc3cccnc3)cc2)cc1 (optimized conformer: 35.90869896280438 kcal/mol)

>  <smiles>  (6) 
N#Cc1ccc(Sc2ccc(S(=O)(=O)NCc3cccnc3)cc2)cc1

>  <score_type>  (6) 
oracle

>  <origin>  (6) 
adgpu

>  <m_score__min__energy>  (6) 
-10.93

>  <m_primary>  (6) 
energy

$$$$
6:0
     RDKit          3D

 57 60  0  0  0  0  0  0  0  0999 V2000
    3.0700   26.6710  -37.0440 O   0  0  0  0  0  0  0  0  0  0  0  0
    2.0120   25.9830  -36.9970 C   0  0  0  0  0  0  0  0  0  0  0  0
    2.0620   24.5700  -37.2560 N   0  0  0  0  0  0  0  0  0  0  0  0
    1.6300   23.5230  -36.3750 C   0  0  0  0  0  0  0  0  0  0  0  0
    0.2710   23.2930  -36.0910 C   0  0  0  0  0  0  0  0  0  0  0  0
   -0.1010   22.2720  -35.2100 C   0  0  0  0  0  0  0  0  0  0  0  0
    0.8730   21.4570  -34.6230 C   0  0  0  0  0  0  0  0  0  0  0  0
    0.4060   20.2390  -33.4410 S   0  0  0  0  0  0  0  0  0  0  0  0
    0.7350   18.8710  -33.9690 O   0  0  0  0  0  0  0  0  0  0  0  0
    1.1420   20.4470  -32.1450 O   0  0  0  0  0  0  0  0  0  0  0  0
   -1.3010   20.3600  -33.1860 N   0  0  0  0  0  0  0  0  0  0  0  0
   -1.8120   20.7700  -31.9190 C   0  0  0  0  0  0  0  0  0  0  0  0
   -2.7200   21.8360  -31.8410 C   0  0  0  0  0  0  0  0  0  0  0  0
   -3.2410   22.2310  -30.6010 C   0  0  0  0  0  0  0  0  0  0  0  0
   -4.3850   23.5710  -30.5080 S   0  0  0  0  0  0  0  0  0  0  0  0
   -4.9810   23.6040  -29.1270 O   0  0  0  0  0  0  0  0  0  0  0  0
   -3.6610   24.8680  -30.7460 O   0  0  0  0  0  0  0  0  0  0  0  0
   -5.6520   23.3610  -31.6950 N   0  0  0  0  0  0  0  0  0  0  0  0
   -6.9320   23.8760  -31.1560 C   0  0  0  0  0  0  0  0  0  0  0  0
   -8.1290   23.3600  -31.9630 C   0  0  0  0  0  0  0  0  0  0  0  0
   -8.2200   21.8240  -31.9070 C   0  0  0  0  0  0  0  0  0  0  0  0
   -6.8730   21.1560  -31.5760 C   0  0  0  0  0  0  0  0  0  0  0  0
   -5.7040   21.9530  -32.1730 C   0  0  0  0  0  0  0  0  0  0  0  0
   -2.8570   21.5440  -29.4380 C   0  0  0  0  0  0  0  0  0  0  0  0
   -1.9520   20.4780  -29.5140 C   0  0  0  0  0  0  0  0  0  0  0  0
   -1.4260   20.0890  -30.7530 C   0  0  0  0  0  0  0  0  0  0  0  0
   -0.5330   19.0200  -30.8340 O   0  0  0  0  0  0  0  0  0  0  0  0
    2.2260   21.6660  -34.9250 C   0  0  0  0  0  0  0  0  0  0  0  0
    2.5990   22.6860  -35.8050 C   0  0  0  0  0  0  0  0  0  0  0  0
    0.7090   26.6490  -36.7680 C   0  0  0  0  0  0  0  0  0  0  0  0
   -0.2220   26.7850  -37.8120 C   0  0  0  0  0  0  0  0  0  0  0  0
   -1.4320   27.4410  -37.5790 C   0  0  0  0  0  0  0  0  0  0  0  0
   -1.7110   27.9460  -36.3490 N   0  0  0  0  0  0  0  0  0  0  0  0
   -0.8320   27.8340  -35.3190 C   0  0  0  0  0  0  0  0  0  0  0  0
    0.3870   27.1790  -35.5050 C   0  0  0  0  0  0  0  0  0  0  0  0
   -0.5012   23.9180  -36.5633 H   0  0  0  0  0  0  0  0  0  0  0  0
   -1.1638   22.1092  -34.9778 H   0  0  0  0  0  0  0  0  0  0  0  0
   -3.0246   22.3643  -32.7565 H   0  0  0  0  0  0  0  0  0  0  0  0
   -7.0374   23.5487  -30.1111 H   0  0  0  0  0  0  0  0  0  0  0  0
   -6.9180   24.9739  -31.2227 H   0  0  0  0  0  0  0  0  0  0  0  0
   -9.0529   23.7892  -31.5481 H   0  0  0  0  0  0  0  0  0  0  0  0
   -7.9970   23.6623  -33.0124 H   0  0  0  0  0  0  0  0  0  0  0  0
   -8.9503   21.5436  -31.1337 H   0  0  0  0  0  0  0  0  0  0  0  0
   -8.5256   21.4747  -32.9043 H   0  0  0  0  0  0  0  0  0  0  0  0
   -6.7544   21.1067  -30.4835 H   0  0  0  0  0  0  0  0  0  0  0  0
   -6.8665   20.1450  -32.0095 H   0  0  0  0  0  0  0  0  0  0  0  0
   -4.7632   21.4546  -31.8963 H   0  0  0  0  0  0  0  0  0  0  0  0
   -5.8501   21.9822  -33.2629 H   0  0  0  0  0  0  0  0  0  0  0  0
   -3.2688   21.8444  -28.4632 H   0  0  0  0  0  0  0  0  0  0  0  0
   -1.6535   19.9450  -28.5992 H   0  0  0  0  0  0  0  0  0  0  0  0
   -0.0750   18.7730  -31.7070 H   0  0  0  0  0  0  0  0  0  0  0  0
    2.9955   21.0261  -34.4686 H   0  0  0  0  0  0  0  0  0  0  0  0
    3.6608   22.8328  -36.0520 H   0  0  0  0  0  0  0  0  0  0  0  0
    0.0018   26.3763  -38.8084 H   0  0  0  0  0  0  0  0  0  0  0  0
   -2.1623   27.5494  -38.3944 H   0  0  0  0  0  0  0  0  0  0  0  0
   -1.0813   28.2604  -34.3361 H   0  0  0  0  0  0  0  0  0  0  0  0
    1.0928   27.0777  -34.6674 H   0  0  0  0  0  0  0  0  0  0  0  0
  1  2  2  0
  2  3  1  0
  3  4  1  0
  4  5  2  0
  5  6  1  0
  6  7  2  0
  7  8  1  0
  8  9  2  0
  8 10  2  0
  8 11  1  0
 11 12  1  0
 12 13  2  0
 13 14  1  0
 14 15  1  0
 15 16  2  0
 15 17  2  0
 15 18  1  0
 18 19  1  0
 19 20  1  0
 20 21  1  0
 21 22  1  0
 22 23  1  0
 14 24  2  0
 24 25  1  0
 25 26  2  0
 26 27  1  0
  7 28  1  0
 28 29  2  0
  2 30  1  0
 30 31  2  0
 31 32  1  0
 32 33  2  0
 33 34  1  0
 34 35  2  0
 29  4  1  0
 35 30  1  0
 26 12  1  0
 23 18  1  0
  5 36  1  0
  6 37  1  0
 13 38  1  0
 19 39  1  0
 19 40  1  0
 20 41  1  0
 20 42  1  0
 21 43  1  0
 21 44  1  0
 22 45  1  0
 22 46  1  0
 23 47  1  0
 23 48  1  0
 24 49  1  0
 25 50  1  0
 27 51  1  0
 28 52  1  0
 29 53  1  0
 31 54  1  0
 32 55  1  0
 34 56  1  0
 35 57  1  0
M  CHG  2   3  -1  11  -1
M  END
>  <UniqueID>  (7) 
7

>  <SMILES>  (7) 
O=C([N-]c1ccc(S(=O)(=O)[N-]c2cc(S(=O)(=O)N3CCCCC3)ccc2O)cc1)c1ccncc1

>  <Energy>  (7) 
78.42267286957883

>  <Genealogy>  (7) 
O=C([N-]c1ccc(S(=O)(=O)[N-]c2cc(S(=O)(=O)N3CCCCC3)ccc2O)cc1)c1ccncc1 (protonated)
O=C([N-]c1ccc(S(=O)(=O)[N-]c2cc(S(=O)(=O)N3CCCCC3)ccc2O)cc1)c1ccncc1 (3D coordinates assigned)
O=C([N-]c1ccc(S(=O)(=O)[N-]c2cc(S(=O)(=O)N3CCCCC3)ccc2O)cc1)c1ccncc1 (nonaromatic ring conformer: 78.42267286957883 kcal/mol)

>  <smiles>  (7) 
O=C(Nc1ccc(S(=O)(=O)Nc2cc(S(=O)(=O)N3CCCCC3)ccc2O)cc1)c1ccncc1

>  <score_type>  (7) 
oracle

>  <origin>  (7) 
adgpu

>  <m_score__min__energy>  (7) 
-11.67

>  <m_primary>  (7) 
energy

$$$$
7:0
     RDKit          3D

 57 60  0  0  0  0  0  0  0  0999 V2000
   -7.1660   14.9100  -34.2720 C   0  0  0  0  0  0  0  0  0  0  0  0
   -5.6760   14.9770  -34.1640 C   0  0  0  0  0  0  0  0  0  0  0  0
   -4.8620   13.9490  -34.4770 N   0  0  0  0  0  0  0  0  0  0  0  0
   -3.6410   14.3490  -34.2680 O   0  0  0  0  0  0  0  0  0  0  0  0
   -3.6130   15.5910  -33.8400 C   0  0  0  0  0  0  0  0  0  0  0  0
   -2.3560   16.3310  -33.5150 C   0  0  0  0  0  0  0  0  0  0  0  0
   -4.9140   16.0570  -33.7490 C   0  0  0  0  0  0  0  0  0  0  0  0
   -5.3790   17.3920  -33.3130 C   0  0  0  0  0  0  0  0  0  0  0  0
   -4.8320   18.5540  -33.8770 C   0  0  0  0  0  0  0  0  0  0  0  0
   -5.2700   19.8140  -33.4650 C   0  0  0  0  0  0  0  0  0  0  0  0
   -6.2660   19.9370  -32.4800 C   0  0  0  0  0  0  0  0  0  0  0  0
   -6.7260   21.2770  -32.0350 C   0  0  0  0  0  0  0  0  0  0  0  0
   -8.0700   21.6620  -32.1920 C   0  0  0  0  0  0  0  0  0  0  0  0
   -8.5010   22.9180  -31.7570 C   0  0  0  0  0  0  0  0  0  0  0  0
   -7.6010   23.8010  -31.1570 C   0  0  0  0  0  0  0  0  0  0  0  0
   -6.2600   23.4330  -30.9940 C   0  0  0  0  0  0  0  0  0  0  0  0
   -5.1230   24.4970  -30.1750 S   0  0  0  0  0  0  0  0  0  0  0  0
   -3.8390   24.5220  -30.9540 O   0  0  0  0  0  0  0  0  0  0  0  0
   -5.6620   25.8970  -30.0830 O   0  0  0  0  0  0  0  0  0  0  0  0
   -4.8180   23.8820  -28.5820 N   0  0  0  0  0  0  0  0  0  0  0  0
   -3.6810   23.0540  -28.2790 C   0  0  0  0  0  0  0  0  0  0  0  0
   -3.5800   21.7570  -28.8140 C   0  0  0  0  0  0  0  0  0  0  0  0
   -2.4990   20.9370  -28.4850 C   0  0  0  0  0  0  0  0  0  0  0  0
   -1.5110   21.3950  -27.6120 C   0  0  0  0  0  0  0  0  0  0  0  0
   -1.5990   22.6800  -27.0730 C   0  0  0  0  0  0  0  0  0  0  0  0
   -2.6750   23.5180  -27.4040 C   0  0  0  0  0  0  0  0  0  0  0  0
   -2.7080   24.8550  -26.8820 N   0  0  0  0  0  0  0  0  0  0  0  0
   -1.6190   25.7880  -27.1770 C   0  0  0  0  0  0  0  0  0  0  0  0
   -3.8490   25.2860  -26.0800 C   0  0  0  0  0  0  0  0  0  0  0  0
   -5.8270   22.1770  -31.4370 C   0  0  0  0  0  0  0  0  0  0  0  0
   -6.8130   18.7710  -31.9170 C   0  0  0  0  0  0  0  0  0  0  0  0
   -6.3720   17.5110  -32.3290 C   0  0  0  0  0  0  0  0  0  0  0  0
   -7.6062   14.8902  -33.2641 H   0  0  0  0  0  0  0  0  0  0  0  0
   -7.5343   15.7925  -34.8157 H   0  0  0  0  0  0  0  0  0  0  0  0
   -7.4536   13.9980  -34.8157 H   0  0  0  0  0  0  0  0  0  0  0  0
   -2.2420   16.3981  -32.4230 H   0  0  0  0  0  0  0  0  0  0  0  0
   -1.4948   15.7958  -33.9414 H   0  0  0  0  0  0  0  0  0  0  0  0
   -2.4060   17.3438  -33.9414 H   0  0  0  0  0  0  0  0  0  0  0  0
   -4.0528   18.4720  -34.6490 H   0  0  0  0  0  0  0  0  0  0  0  0
   -4.8325   20.7177  -33.9145 H   0  0  0  0  0  0  0  0  0  0  0  0
   -8.7858   20.9702  -32.6600 H   0  0  0  0  0  0  0  0  0  0  0  0
   -9.5529   23.2121  -31.8877 H   0  0  0  0  0  0  0  0  0  0  0  0
   -7.9460   24.7869  -30.8120 H   0  0  0  0  0  0  0  0  0  0  0  0
   -5.4030   24.2620  -27.8050 H   0  0  0  0  0  0  0  0  0  0  0  0
   -4.3586   21.3860  -29.4967 H   0  0  0  0  0  0  0  0  0  0  0  0
   -2.4258   19.9272  -28.9150 H   0  0  0  0  0  0  0  0  0  0  0  0
   -0.6640   20.7444  -27.3489 H   0  0  0  0  0  0  0  0  0  0  0  0
   -0.8196   23.0380  -26.3842 H   0  0  0  0  0  0  0  0  0  0  0  0
   -1.1876   26.1576  -26.2351 H   0  0  0  0  0  0  0  0  0  0  0  0
   -0.8413   25.2716  -27.7588 H   0  0  0  0  0  0  0  0  0  0  0  0
   -2.0100   26.6357  -27.7588 H   0  0  0  0  0  0  0  0  0  0  0  0
   -3.6026   25.1929  -25.0120 H   0  0  0  0  0  0  0  0  0  0  0  0
   -4.0847   26.3351  -26.3118 H   0  0  0  0  0  0  0  0  0  0  0  0
   -4.7195   24.6547  -26.3118 H   0  0  0  0  0  0  0  0  0  0  0  0
   -4.7716   21.8916  -31.3156 H   0  0  0  0  0  0  0  0  0  0  0  0
   -7.5939   18.8512  -31.1465 H   0  0  0  0  0  0  0  0  0  0  0  0
   -6.8062   16.6061  -31.8789 H   0  0  0  0  0  0  0  0  0  0  0  0
  1  2  1  0
  2  3  2  0
  3  4  1  0
  4  5  1  0
  5  6  1  0
  5  7  2  0
  7  8  1  0
  8  9  2  0
  9 10  1  0
 10 11  2  0
 11 12  1  0
 12 13  2  0
 13 14  1  0
 14 15  2  0
 15 16  1  0
 16 17  1  0
 17 18  2  0
 17 19  2  0
 17 20  1  0
 20 21  1  0
 21 22  2  0
 22 23  1  0
 23 24  2  0
 24 25  1  0
 25 26  2  0
 26 27  1  0
 27 28  1  0
 27 29  1  0
 16 30  2  0
 11 31  1  0
 31 32  2  0
  7  2  1  0
 32  8  1  0
 30 12  1  0
 26 21  1  0
  1 33  1  0
  1 34  1  0
  1 35  1  0
  6 36  1  0
  6 37  1  0
  6 38  1  0
  9 39  1  0
 10 40  1  0
 13 41  1  0
 14 42  1  0
 15 43  1  0
 20 44  1  0
 22 45  1  0
 23 46  1  0
 24 47  1  0
 25 48  1  0
 28 49  1  0
 28 50  1  0
 28 51  1  0
 29 52  1  0
 29 53  1  0
 29 54  1  0
 30 55  1  0
 31 56  1  0
 32 57  1  0
M  END
>  <UniqueID>  (8) 
8

>  <SMILES>  (8) 
Cc1noc(C)c1-c1ccc(-c2cccc(S(=O)(=O)Nc3ccccc3N(C)C)c2)cc1

>  <Energy>  (8) 
105.64114322483664

>  <Genealogy>  (8) 
Cc1noc(C)c1-c1ccc(-c2cccc(S(=O)(=O)Nc3ccccc3N(C)C)c2)cc1 (3D coordinates assigned)
Cc1noc(C)c1-c1ccc(-c2cccc(S(=O)(=O)Nc3ccccc3N(C)C)c2)cc1 (optimized conformer: 105.64114322483664 kcal/mol)

>  <smiles>  (8) 
Cc1noc(C)c1-c1ccc(-c2cccc(S(=O)(=O)Nc3ccccc3N(C)C)c2)cc1

>  <score_type>  (8) 
oracle

>  <origin>  (8) 
adgpu

>  <m_score__min__energy>  (8) 
-10.390000000000001

>  <m_primary>  (8) 
energy

$$$$
8:0
     RDKit          3D

 29 31  0  0  0  0  0  0  0  0999 V2000
    1.7260   24.5580  -27.1480 O   0  0  0  0  0  0  0  0  0  0  0  0
    0.5130   24.4840  -27.8220 C   0  0  0  0  0  0  0  0  0  0  0  0
   -0.3970   25.5410  -27.7410 C   0  0  0  0  0  0  0  0  0  0  0  0
   -1.6190   25.4690  -28.4180 C   0  0  0  0  0  0  0  0  0  0  0  0
   -1.9440   24.3350  -29.1870 C   0  0  0  0  0  0  0  0  0  0  0  0
   -3.2340   24.2370  -29.9130 C   0  0  0  0  0  0  0  0  0  0  0  0
   -4.0150   23.1080  -30.0810 C   0  0  0  0  0  0  0  0  0  0  0  0
   -5.0970   23.5470  -30.8230 C   0  0  0  0  0  0  0  0  0  0  0  0
   -6.2510   22.7400  -31.2900 C   0  0  0  0  0  0  0  0  0  0  0  0
   -7.5470   22.9510  -30.7790 C   0  0  0  0  0  0  0  0  0  0  0  0
   -8.6210   22.1800  -31.2310 C   0  0  0  0  0  0  0  0  0  0  0  0
   -8.4190   21.1910  -32.1950 C   0  0  0  0  0  0  0  0  0  0  0  0
   -7.1410   20.9670  -32.7130 C   0  0  0  0  0  0  0  0  0  0  0  0
   -6.9540   19.9770  -33.6740 O   0  0  0  0  0  0  0  0  0  0  0  0
   -6.0610   21.7390  -32.2620 C   0  0  0  0  0  0  0  0  0  0  0  0
   -4.9550   24.8640  -31.0750 N   0  0  0  0  0  0  0  0  0  0  0  0
   -3.8270   25.2820  -30.5240 N   0  0  0  0  0  0  0  0  0  0  0  0
   -1.0180   23.2770  -29.2590 C   0  0  0  0  0  0  0  0  0  0  0  0
    0.2020   23.3540  -28.5800 C   0  0  0  0  0  0  0  0  0  0  0  0
   -0.1521   26.4316  -27.1437 H   0  0  0  0  0  0  0  0  0  0  0  0
   -2.3313   26.3044  -28.3491 H   0  0  0  0  0  0  0  0  0  0  0  0
   -3.8200   22.0914  -29.7090 H   0  0  0  0  0  0  0  0  0  0  0  0
   -7.7144   23.7282  -30.0188 H   0  0  0  0  0  0  0  0  0  0  0  0
   -9.6289   22.3530  -30.8258 H   0  0  0  0  0  0  0  0  0  0  0  0
   -9.2678   20.5867  -32.5476 H   0  0  0  0  0  0  0  0  0  0  0  0
   -7.6110   19.8450  -34.4340 H   0  0  0  0  0  0  0  0  0  0  0  0
   -5.0556   21.5610  -32.6714 H   0  0  0  0  0  0  0  0  0  0  0  0
   -1.2560   22.3829  -29.8540 H   0  0  0  0  0  0  0  0  0  0  0  0
    0.9185   22.5218  -28.6434 H   0  0  0  0  0  0  0  0  0  0  0  0
  1  2  1  0
  2  3  2  0
  3  4  1  0
  4  5  2  0
  5  6  1  0
  6  7  2  0
  7  8  1  0
  8  9  1  0
  9 10  2  0
 10 11  1  0
 11 12  2  0
 12 13  1  0
 13 14  1  0
 13 15  2  0
  8 16  2  0
 16 17  1  0
  5 18  1  0
 18 19  2  0
 19  2  1  0
 17  6  1  0
 15  9  1  0
  3 20  1  0
  4 21  1  0
  7 22  1  0
 10 23  1  0
 11 24  1  0
 12 25  1  0
 14 26  1  0
 15 27  1  0
 18 28  1  0
 19 29  1  0
M  CHG  2   1  -1  17  -1
M  END
>  <UniqueID>  (9) 
9

>  <SMILES>  (9) 
[O-]c1ccc(-c2cc(-c3cccc(O)c3)n[n-]2)cc1

>  <Energy>  (9) 
63.96622699365635

>  <Genealogy>  (9) 
[O-]c1ccc(-c2cc(-c3cccc(O)c3)n[n-]2)cc1 (protonated)
[O-]c1ccc(-c2cc(-c3cccc(O)c3)n[n-]2)cc1 (3D coordinates assigned)
[O-]c1ccc(-c2cc(-c3cccc(O)c3)n[n-]2)cc1 (optimized conformer: 63.96622699365635 kcal/mol)

>  <smiles>  (9) 
Oc1ccc(-c2cc(-c3cccc(O)c3)n[nH]2)cc1

>  <score_type>  (9) 
oracle

>  <origin>  (9) 
adgpu

>  <m_score__min__energy>  (9) 
-9.3800000000000008

>  <m_primary>  (9) 
energy

$$$$
9:0
     RDKit          3D

 52 55  0  0  0  0  0  0  0  0999 V2000
   -6.1320   25.6650  -31.3210 O   0  0  0  0  0  0  0  0  0  0  0  0
   -5.6050   24.6170  -30.3810 S   0  0  0  0  0  0  0  0  0  0  0  0
   -5.9570   24.9980  -28.9710 O   0  0  0  0  0  0  0  0  0  0  0  0
   -3.8780   24.5220  -30.5300 N   0  0  0  0  0  0  0  0  0  0  0  0
   -3.0650   23.7730  -29.6100 C   0  0  0  0  0  0  0  0  0  0  0  0
   -3.3820   22.4400  -29.2880 C   0  0  0  0  0  0  0  0  0  0  0  0
   -2.5510   21.6950  -28.4420 C   0  0  0  0  0  0  0  0  0  0  0  0
   -1.4040   22.2850  -27.8940 C   0  0  0  0  0  0  0  0  0  0  0  0
   -1.0950   23.6190  -28.1890 C   0  0  0  0  0  0  0  0  0  0  0  0
   -1.9210   24.3610  -29.0420 C   0  0  0  0  0  0  0  0  0  0  0  0
   -1.5840   25.6780  -29.3380 O   0  0  0  0  0  0  0  0  0  0  0  0
   -0.5110   21.4500  -27.0190 C   0  0  0  0  0  0  0  0  0  0  0  0
   -1.3660   20.6220  -26.0520 C   0  0  0  0  0  0  0  0  0  0  0  0
   -2.4840   19.8060  -26.7490 C   0  0  0  0  0  0  0  0  0  0  0  0
   -2.8090   20.2340  -28.1980 C   0  0  0  0  0  0  0  0  0  0  0  0
   -6.3200   23.0640  -30.8060 C   0  0  0  0  0  0  0  0  0  0  0  0
   -7.5760   22.7170  -30.2910 C   0  0  0  0  0  0  0  0  0  0  0  0
   -8.1940   21.5280  -30.6850 C   0  0  0  0  0  0  0  0  0  0  0  0
   -7.5620   20.6730  -31.5990 C   0  0  0  0  0  0  0  0  0  0  0  0
   -8.3470   19.1710  -32.1000 S   0  0  0  0  0  0  0  0  0  0  0  0
   -9.4300   19.4920  -33.0930 O   0  0  0  0  0  0  0  0  0  0  0  0
   -8.9920   18.5350  -30.8990 O   0  0  0  0  0  0  0  0  0  0  0  0
   -7.2390   18.0310  -32.8220 N   0  0  0  0  0  0  0  0  0  0  0  0
   -6.2290   17.5700  -31.8750 C   0  0  0  0  0  0  0  0  0  0  0  0
   -5.0640   17.0770  -32.7160 C   0  0  0  0  0  0  0  0  0  0  0  0
   -5.2010   17.8040  -34.0460 C   0  0  0  0  0  0  0  0  0  0  0  0
   -6.4870   18.6110  -33.9340 C   0  0  0  0  0  0  0  0  0  0  0  0
   -6.2950   21.0100  -32.0960 C   0  0  0  0  0  0  0  0  0  0  0  0
   -5.6790   22.2020  -31.7060 C   0  0  0  0  0  0  0  0  0  0  0  0
   -3.4560   24.8820  -31.4140 H   0  0  0  0  0  0  0  0  0  0  0  0
   -4.2901   21.9795  -29.7043 H   0  0  0  0  0  0  0  0  0  0  0  0
   -0.2009   24.0850  -27.7493 H   0  0  0  0  0  0  0  0  0  0  0  0
    0.0892   20.7750  -27.6468 H   0  0  0  0  0  0  0  0  0  0  0  0
    0.1563   22.1088  -26.4439 H   0  0  0  0  0  0  0  0  0  0  0  0
   -0.7066   19.9217  -25.5183 H   0  0  0  0  0  0  0  0  0  0  0  0
   -1.8622   21.3320  -25.3740 H   0  0  0  0  0  0  0  0  0  0  0  0
   -2.1731   18.7510  -26.7680 H   0  0  0  0  0  0  0  0  0  0  0  0
   -3.3996   19.9855  -26.1664 H   0  0  0  0  0  0  0  0  0  0  0  0
   -2.1848   19.6463  -28.8872 H   0  0  0  0  0  0  0  0  0  0  0  0
   -3.8809   20.0528  -28.3660 H   0  0  0  0  0  0  0  0  0  0  0  0
   -8.0772   23.3835  -29.5737 H   0  0  0  0  0  0  0  0  0  0  0  0
   -9.1800   21.2614  -30.2768 H   0  0  0  0  0  0  0  0  0  0  0  0
   -5.9084   18.3972  -31.2247 H   0  0  0  0  0  0  0  0  0  0  0  0
   -6.6202   16.7760  -31.2220 H   0  0  0  0  0  0  0  0  0  0  0  0
   -4.1070   17.3280  -32.2353 H   0  0  0  0  0  0  0  0  0  0  0  0
   -5.0779   15.9841  -32.8398 H   0  0  0  0  0  0  0  0  0  0  0  0
   -4.3415   18.4703  -34.2109 H   0  0  0  0  0  0  0  0  0  0  0  0
   -5.2294   17.1041  -34.8942 H   0  0  0  0  0  0  0  0  0  0  0  0
   -6.2575   19.6671  -33.7290 H   0  0  0  0  0  0  0  0  0  0  0  0
   -7.0646   18.5753  -34.8695 H   0  0  0  0  0  0  0  0  0  0  0  0
   -5.7836   20.3330  -32.7961 H   0  0  0  0  0  0  0  0  0  0  0  0
   -4.6886   22.4644  -32.1063 H   0  0  0  0  0  0  0  0  0  0  0  0
  1  2  2  0
  2  3  2  0
  2  4  1  0
  4  5  1  0
  5  6  2  0
  6  7  1  0
  7  8  2  0
  8  9  1  0
  9 10  2  0
 10 11  1  0
  8 12  1  0
 12 13  1  0
 13 14  1  0
 14 15  1  0
  2 16  1  0
 16 17  2  0
 17 18  1  0
 18 19  2  0
 19 20  1  0
 20 21  2  0
 20 22  2  0
 20 23  1  0
 23 24  1  0
 24 25  1  0
 25 26  1  0
 26 27  1  0
 19 28  1  0
 28 29  2  0
 10  5  1  0
 29 16  1  0
 15  7  1  0
 27 23  1  0
  4 30  1  0
  6 31  1  0
  9 32  1  0
 12 33  1  0
 12 34  1  0
 13 35  1  0
 13 36  1  0
 14 37  1  0
 14 38  1  0
 15 39  1  0
 15 40  1  0
 17 41  1  0
 18 42  1  0
 24 43  1  0
 24 44  1  0
 25 45  1  0
 25 46  1  0
 26 47  1  0
 26 48  1  0
 27 49  1  0
 27 50  1  0
 28 51  1  0
 29 52  1  0
M  CHG  1  11  -1
M  END
>  <UniqueID>  (10) 
10

>  <SMILES>  (10) 
O=S(=O)(Nc1cc2c(cc1[O-])CCCC2)c1ccc(S(=O)(=O)N2CCCC2)cc1

>  <Energy>  (10) 
60.21622863645545

>  <Genealogy>  (10) 
O=S(=O)(Nc1cc2c(cc1[O-])CCCC2)c1ccc(S(=O)(=O)N2CCCC2)cc1 (protonated)
O=S(=O)(Nc1cc2c(cc1[O-])CCCC2)c1ccc(S(=O)(=O)N2CCCC2)cc1 (3D coordinates assigned)
O=S(=O)(Nc1cc2c(cc1[O-])CCCC2)c1ccc(S(=O)(=O)N2CCCC2)cc1 (nonaromatic ring conformer: 60.21622863645545 kcal/mol)

>  <smiles>  (10) 
O=S(=O)(Nc1cc2c(cc1O)CCCC2)c1ccc(S(=O)(=O)N2CCCC2)cc1

>  <score_type>  (10) 
oracle

>  <origin>  (10) 
adgpu

>  <m_score__min__energy>  (10) 
-15

>  <m_primary>  (10) 
energy

$$$$
10:0
     RDKit          3D

 60 63  0  0  1  0  0  0  0  0999 V2000
    1.7730   25.2170  -25.0360 C   0  0  0  0  0  0  0  0  0  0  0  0
    0.7870   25.9860  -25.8510 C   0  0  0  0  0  0  0  0  0  0  0  0
   -0.5100   26.1590  -25.0550 C   0  0  0  0  0  0  0  0  0  0  0  0
    0.3740   25.2080  -27.3760 S   0  0  0  0  0  0  0  0  0  0  0  0
   -0.4930   26.0650  -28.2320 O   0  0  0  0  0  0  0  0  0  0  0  0
    1.6880   24.8860  -28.0660 O   0  0  0  0  0  0  0  0  0  0  0  0
   -0.3870   23.6630  -27.0650 C   0  0  0  0  0  0  0  0  0  0  0  0
   -0.3520   23.0420  -25.8340 C   0  0  0  0  0  0  0  0  0  0  0  0
   -0.9480   21.8240  -25.5810 C   0  0  0  0  0  0  0  0  0  0  0  0
   -1.6090   21.2140  -26.6240 C   0  0  0  0  0  0  0  0  0  0  0  0
   -1.6710   21.7950  -27.8750 C   0  0  0  0  0  0  0  0  0  0  0  0
   -2.3780   21.0760  -28.8780 N   0  0  0  0  0  0  0  0  0  0  0  0
   -3.3110   21.6570  -29.5510 C   0  0  0  0  0  0  0  0  0  0  0  0
   -3.6150   22.9490  -29.3030 N   0  0  0  0  0  0  0  0  0  0  0  0
   -4.5950   23.5990  -29.9930 C   0  0  0  0  0  0  0  0  0  0  0  0
   -5.2960   22.9500  -30.9610 C   0  0  0  0  0  0  0  0  0  0  0  0
   -6.5400   23.7760  -31.8380 Cl  0  0  0  0  0  0  0  0  0  0  0  0
   -4.9820   21.6220  -31.2140 C   0  0  0  0  0  0  0  0  0  0  0  0
   -5.6730   21.0460  -32.1410 N   0  0  0  0  0  0  0  0  0  0  0  0
   -5.3660   19.6840  -32.4160 C   0  0  0  0  0  0  0  0  0  0  0  0
   -6.1630   18.6290  -32.1040 C   0  0  0  0  0  0  0  0  0  0  0  0
   -5.7850   17.3350  -32.4080 C   0  0  0  0  0  0  0  0  0  0  0  0
   -4.5800   17.0680  -33.0420 C   0  0  0  0  0  0  0  0  0  0  0  0
   -3.7590   18.1550  -33.3630 C   0  0  0  0  0  0  0  0  0  0  0  0
   -4.1430   19.4560  -33.0550 C   0  0  0  0  0  0  0  0  0  0  0  0
   -3.0880   20.7860  -33.4730 S   0  0  0  0  0  0  0  0  0  0  0  0
   -3.8810   22.0120  -33.8310 O   0  0  0  0  0  0  0  0  0  0  0  0
   -2.2170   20.4260  -34.6600 O   0  0  0  0  0  0  0  0  0  0  0  0
   -2.0110   21.1760  -32.1740 N   0  0  0  0  0  0  0  0  0  0  0  0
   -1.0780   20.3360  -31.8150 C   0  0  0  0  0  0  0  0  0  0  0  0
   -0.2020   20.6050  -30.7890 C   0  0  0  0  0  0  0  0  0  0  0  0
    0.7580   19.6360  -30.4850 C   0  0  0  0  0  0  0  0  0  0  0  0
    0.7910   18.4890  -31.1980 N   0  0  0  0  0  0  0  0  0  0  0  0
   -0.0820   18.2440  -32.2050 C   0  0  0  0  0  0  0  0  0  0  0  0
   -1.0210   19.1740  -32.5120 N   0  0  0  0  0  0  0  0  0  0  0  0
   -4.0110   21.0010  -30.5210 N   0  0  0  0  0  0  0  0  0  0  0  0
   -1.0660   23.0140  -28.1040 C   0  0  0  0  0  0  0  0  0  0  0  0
   -1.1420   23.5860  -29.3810 O   0  0  0  0  0  0  0  0  0  0  0  0
    1.5687   25.3764  -23.9670 H   0  0  0  0  0  0  0  0  0  0  0  0
    1.6861   24.1457  -25.2702 H   0  0  0  0  0  0  0  0  0  0  0  0
    2.7908   25.5622  -25.2702 H   0  0  0  0  0  0  0  0  0  0  0  0
    1.2671   26.9491  -26.0790 H   0  0  0  0  0  0  0  0  0  0  0  0
   -0.2862   26.1292  -23.9784 H   0  0  0  0  0  0  0  0  0  0  0  0
   -0.9689   27.1263  -25.3074 H   0  0  0  0  0  0  0  0  0  0  0  0
   -1.2064   25.3458  -25.3074 H   0  0  0  0  0  0  0  0  0  0  0  0
    0.1786   23.5439  -25.0115 H   0  0  0  0  0  0  0  0  0  0  0  0
   -0.8974   21.3584  -24.5857 H   0  0  0  0  0  0  0  0  0  0  0  0
   -2.0981   20.2430  -26.4568 H   0  0  0  0  0  0  0  0  0  0  0  0
   -3.1280   23.5240  -28.5790 H   0  0  0  0  0  0  0  0  0  0  0  0
   -4.8194   24.6517  -29.7660 H   0  0  0  0  0  0  0  0  0  0  0  0
   -7.1249   18.8077  -31.6012 H   0  0  0  0  0  0  0  0  0  0  0  0
   -6.4517   16.5013  -32.1425 H   0  0  0  0  0  0  0  0  0  0  0  0
   -4.2804   16.0376  -33.2839 H   0  0  0  0  0  0  0  0  0  0  0  0
   -2.7968   17.9781  -33.8658 H   0  0  0  0  0  0  0  0  0  0  0  0
   -0.2553   21.5495  -30.2277 H   0  0  0  0  0  0  0  0  0  0  0  0
    1.4801   19.8056  -29.6727 H   0  0  0  0  0  0  0  0  0  0  0  0
    1.5230   17.7670  -30.9570 H   0  0  0  0  0  0  0  0  0  0  0  0
   -0.0299   17.3004  -32.7680 H   0  0  0  0  0  0  0  0  0  0  0  0
   -3.7840   20.0170  -30.7160 H   0  0  0  0  0  0  0  0  0  0  0  0
   -0.4770   24.3480  -29.5420 H   0  0  0  0  0  0  0  0  0  0  0  0
  1  2  1  0
  2  3  1  0
  2  4  1  0
  4  5  2  0
  4  6  2  0
  4  7  1  0
  7  8  2  0
  8  9  1  0
  9 10  2  0
 10 11  1  0
 11 12  1  0
 12 13  2  0
 13 14  1  0
 14 15  1  0
 15 16  2  0
 16 17  1  0
 16 18  1  0
 18 19  2  0
 19 20  1  0
 20 21  2  0
 21 22  1  0
 22 23  2  0
 23 24  1  0
 24 25  2  0
 25 26  1  0
 26 27  2  0
 26 28  2  0
 26 29  1  0
 29 30  2  0
 30 31  1  0
 31 32  2  0
 32 33  1  0
 33 34  1  0
 34 35  2  0
 18 36  1  0
 11 37  2  0
 37 38  1  0
 37  7  1  0
 36 13  1  0
 25 20  1  0
 35 30  1  0
  1 39  1  0
  1 40  1  0
  1 41  1  0
  2 42  1  0
  3 43  1  0
  3 44  1  0
  3 45  1  0
  8 46  1  0
  9 47  1  0
 10 48  1  0
 14 49  1  0
 15 50  1  0
 21 51  1  0
 22 52  1  0
 23 53  1  0
 24 54  1  0
 31 55  1  0
 32 56  1  0
 33 57  1  0
 34 58  1  0
 36 59  1  0
 38 60  1  0
M  END
>  <smiles>  (11) 
CC(C)S(=O)(=O)c1cccc(N=c2[nH]cc(Cl)c(=Nc3ccccc3S(=O)(=O)N=c3cc[nH]cn3)[nH]2)c1O

>  <score_type>  (11) 
oracle

>  <origin>  (11) 
adgpu

>  <m_score__min__energy>  (11) 
-11.640000000000001

>  <m_primary>  (11) 
energy

$$$$
11:0
     RDKit          3D

 47 50  0  0  1  0  0  0  0  0999 V2000
   -4.8080   24.7390  -30.4810 C   0  0  0  0  0  0  0  0  0  0  0  0
   -4.6560   23.8050  -31.5220 O   0  0  0  0  0  0  0  0  0  0  0  0
   -5.5540   22.7480  -31.5880 C   0  0  0  0  0  0  0  0  0  0  0  0
   -6.6860   22.6700  -30.7970 C   0  0  0  0  0  0  0  0  0  0  0  0
   -7.5700   21.5910  -30.8880 C   0  0  0  0  0  0  0  0  0  0  0  0
   -7.3050   20.5700  -31.7980 C   0  0  0  0  0  0  0  0  0  0  0  0
   -8.3840   19.2010  -31.9470 S   0  0  0  0  0  0  0  0  0  0  0  0
   -9.5800   19.5410  -33.1660 N   0  0  0  0  0  0  0  0  0  0  0  0
   -7.6370   17.9390  -32.2580 O   0  0  0  0  0  0  0  0  0  0  0  0
   -9.1120   18.9350  -30.6430 O   0  0  0  0  0  0  0  0  0  0  0  0
   -6.1780   20.6420  -32.5890 C   0  0  0  0  0  0  0  0  0  0  0  0
   -5.3070   21.7290  -32.4830 C   0  0  0  0  0  0  0  0  0  0  0  0
   -4.1630   21.7200  -33.3450 N   0  0  0  0  0  0  0  0  0  0  0  0
   -2.9990   21.3560  -32.9500 C   0  0  0  0  0  0  0  0  0  0  0  0
   -2.8050   20.9450  -31.6280 C   0  0  0  0  0  0  0  0  0  0  0  0
   -1.5720   20.5470  -31.1610 C   0  0  0  0  0  0  0  0  0  0  0  0
   -0.5120   20.5470  -31.9950 N   0  0  0  0  0  0  0  0  0  0  0  0
    0.7730   20.2210  -31.8310 N   0  0  0  0  0  0  0  0  0  0  0  0
    1.4320   20.3970  -32.9770 N   0  0  0  0  0  0  0  0  0  0  0  0
    0.5430   20.8480  -33.9010 C   0  0  0  0  0  0  0  0  0  0  0  0
    0.8390   21.2500  -35.5800 S   0  0  0  0  0  0  0  0  0  0  0  0
   -0.4660   21.1250  -36.3150 O   0  0  0  0  0  0  0  0  0  0  0  0
    1.7720   20.2370  -36.2280 O   0  0  0  0  0  0  0  0  0  0  0  0
    1.4830   22.8580  -35.7380 C   0  0  0  0  0  0  0  0  0  0  0  0
    2.8150   23.1690  -35.5320 C   0  0  0  0  0  0  0  0  0  0  0  0
    3.2550   24.4830  -35.6780 C   0  0  0  0  0  0  0  0  0  0  0  0
    2.3400   25.4560  -36.0290 C   0  0  0  0  0  0  0  0  0  0  0  0
    2.8250   27.1460  -36.2320 Cl  0  0  0  0  0  0  0  0  0  0  0  0
    0.9990   25.1840  -36.2430 C   0  0  0  0  0  0  0  0  0  0  0  0
    0.6010   23.8770  -36.0900 C   0  0  0  0  0  0  0  0  0  0  0  0
   -0.6920   20.9390  -33.2620 C   0  0  0  0  0  0  0  0  0  0  0  0
   -1.9050   21.3350  -33.7340 N   0  0  0  0  0  0  0  0  0  0  0  0
   -4.7243   24.2250  -29.5121 H   0  0  0  0  0  0  0  0  0  0  0  0
   -4.0228   25.5054  -30.5585 H   0  0  0  0  0  0  0  0  0  0  0  0
   -5.7957   25.2169  -30.5585 H   0  0  0  0  0  0  0  0  0  0  0  0
   -6.8957   23.4765  -30.0790 H   0  0  0  0  0  0  0  0  0  0  0  0
   -8.4642   21.5486  -30.2487 H   0  0  0  0  0  0  0  0  0  0  0  0
   -9.8210   18.6090  -33.5990 H   0  0  0  0  0  0  0  0  0  0  0  0
   -9.1040   20.0790  -33.9500 H   0  0  0  0  0  0  0  0  0  0  0  0
   -5.9633   19.8381  -33.3084 H   0  0  0  0  0  0  0  0  0  0  0  0
   -3.6632   20.9393  -30.9399 H   0  0  0  0  0  0  0  0  0  0  0  0
   -1.4524   20.2310  -30.1142 H   0  0  0  0  0  0  0  0  0  0  0  0
    3.5272   22.3786  -35.2528 H   0  0  0  0  0  0  0  0  0  0  0  0
    4.3121   24.7407  -35.5166 H   0  0  0  0  0  0  0  0  0  0  0  0
    0.2872   25.9750  -36.5217 H   0  0  0  0  0  0  0  0  0  0  0  0
   -0.4575   23.6256  -36.2522 H   0  0  0  0  0  0  0  0  0  0  0  0
   -1.9950   21.6320  -34.7320 H   0  0  0  0  0  0  0  0  0  0  0  0
  1  2  1  0
  2  3  1  0
  3  4  2  0
  4  5  1  0
  5  6  2  0
  6  7  1  0
  7  8  1  0
  7  9  2  0
  7 10  2  0
  6 11  1  0
 11 12  2  0
 12 13  1  0
 13 14  2  0
 14 15  1  0
 15 16  2  0
 16 17  1  0
 17 18  1  0
 18 19  2  0
 19 20  1  0
 20 21  1  0
 21 22  2  0
 21 23  2  0
 21 24  1  0
 24 25  2  0
 25 26  1  0
 26 27  2  0
 27 28  1  0
 27 29  1  0
 29 30  2  0
 20 31  2  0
 31 32  1  0
 12  3  1  0
 32 14  1  0
 31 17  1  0
 30 24  1  0
  1 33  1  0
  1 34  1  0
  1 35  1  0
  4 36  1  0
  5 37  1  0
  8 38  1  0
  8 39  1  0
 11 40  1  0
 15 41  1  0
 16 42  1  0
 25 43  1  0
 26 44  1  0
 29 45  1  0
 30 46  1  0
 32 47  1  0
M  END
>  <smiles>  (12) 
COc1ccc(S(N)(=O)=O)cc1N=c1ccn2nnc(S(=O)(=O)c3ccc(Cl)cc3)c2[nH]1

>  <score_type>  (12) 
oracle

>  <origin>  (12) 
adgpu

>  <m_score__min__energy>  (12) 
-9.7799999999999994

>  <m_primary>  (12) 
energy

$$$$
12:0
     RDKit          3D

 42 44  0  0  0  0  0  0  0  0999 V2000
   -4.8010   25.4630  -30.8860 O   0  0  0  0  0  0  0  0  0  0  0  0
   -3.9650   24.5740  -30.5740 C   0  0  0  0  0  0  0  0  0  0  0  0
   -2.8830   24.9200  -29.7020 N   0  0  0  0  0  0  0  0  0  0  0  0
   -2.7470   24.4700  -28.3220 C   0  0  0  0  0  0  0  0  0  0  0  0
   -2.2940   23.0390  -28.3100 C   0  0  0  0  0  0  0  0  0  0  0  0
   -1.0180   22.6960  -28.7870 C   0  0  0  0  0  0  0  0  0  0  0  0
   -0.6100   21.3590  -28.8080 C   0  0  0  0  0  0  0  0  0  0  0  0
   -1.4750   20.3550  -28.3640 C   0  0  0  0  0  0  0  0  0  0  0  0
   -2.7530   20.6870  -27.9020 C   0  0  0  0  0  0  0  0  0  0  0  0
   -3.1650   22.0240  -27.8800 C   0  0  0  0  0  0  0  0  0  0  0  0
   -4.1540   23.2010  -31.0850 C   0  0  0  0  0  0  0  0  0  0  0  0
   -3.0760   22.4770  -31.6110 C   0  0  0  0  0  0  0  0  0  0  0  0
   -3.2690   21.1850  -32.1060 C   0  0  0  0  0  0  0  0  0  0  0  0
   -4.5420   20.6110  -32.0900 C   0  0  0  0  0  0  0  0  0  0  0  0
   -5.6390   21.3270  -31.5790 C   0  0  0  0  0  0  0  0  0  0  0  0
   -6.9560   20.7430  -31.5840 N   0  0  0  0  0  0  0  0  0  0  0  0
   -7.1480   19.3040  -31.3650 C   0  0  0  0  0  0  0  0  0  0  0  0
   -8.0390   18.7020  -32.4720 C   0  0  0  0  0  0  0  0  0  0  0  0
   -8.9760   19.6700  -33.0770 N   0  0  0  0  0  0  0  0  0  0  0  0
   -9.3610   20.7400  -32.1480 C   0  0  0  0  0  0  0  0  0  0  0  0
   -8.1390   21.5910  -31.7740 C   0  0  0  0  0  0  0  0  0  0  0  0
   -5.4380   22.6300  -31.0920 C   0  0  0  0  0  0  0  0  0  0  0  0
   -2.0051   25.0948  -27.8031 H   0  0  0  0  0  0  0  0  0  0  0  0
   -3.7166   24.5542  -27.8094 H   0  0  0  0  0  0  0  0  0  0  0  0
   -0.3373   23.4823  -29.1453 H   0  0  0  0  0  0  0  0  0  0  0  0
    0.3934   21.0968  -29.1746 H   0  0  0  0  0  0  0  0  0  0  0  0
   -1.1509   19.3039  -28.3778 H   0  0  0  0  0  0  0  0  0  0  0  0
   -3.4347   19.8962  -27.5557 H   0  0  0  0  0  0  0  0  0  0  0  0
   -4.1739   22.2811  -27.5250 H   0  0  0  0  0  0  0  0  0  0  0  0
   -2.0730   22.9280  -31.6343 H   0  0  0  0  0  0  0  0  0  0  0  0
   -2.4165   20.6186  -32.5092 H   0  0  0  0  0  0  0  0  0  0  0  0
   -4.6874   19.5926  -32.4795 H   0  0  0  0  0  0  0  0  0  0  0  0
   -6.1690   18.8026  -31.3759 H   0  0  0  0  0  0  0  0  0  0  0  0
   -7.6401   19.1551  -30.3925 H   0  0  0  0  0  0  0  0  0  0  0  0
   -7.3871   18.3082  -33.2657 H   0  0  0  0  0  0  0  0  0  0  0  0
   -8.6495   17.9181  -32.0001 H   0  0  0  0  0  0  0  0  0  0  0  0
   -8.5190   20.1060  -33.9130 H   0  0  0  0  0  0  0  0  0  0  0  0
  -10.1160   21.3810  -32.6266 H   0  0  0  0  0  0  0  0  0  0  0  0
   -9.7731   20.2873  -31.2341 H   0  0  0  0  0  0  0  0  0  0  0  0
   -7.9407   22.3124  -32.5804 H   0  0  0  0  0  0  0  0  0  0  0  0
   -8.3504   22.1199  -30.8329 H   0  0  0  0  0  0  0  0  0  0  0  0
   -6.2936   23.2081  -30.7129 H   0  0  0  0  0  0  0  0  0  0  0  0
  1  2  2  0
  2  3  1  0
  3  4  1  0
  4  5  1  0
  5  6  2  0
  6  7  1  0
  7  8  2  0
  8  9  1  0
  9 10  2  0
  2 11  1  0
 11 12  2  0
 12 13  1  0
 13 14  2  0
 14 15  1  0
 15 16  1  0
 16 17  1  0
 17 18  1  0
 18 19  1  0
 19 20  1  0
 20 21  1  0
 15 22  2  0
 10  5  1  0
 22 11  1  0
 21 16  1  0
  4 23  1  0
  4 24  1  0
  6 25  1  0
  7 26  1  0
  8 27  1  0
  9 28  1  0
 10 29  1  0
 12 30  1  0
 13 31  1  0
 14 32  1  0
 17 33  1  0
 17 34  1  0
 18 35  1  0
 18 36  1  0
 19 37  1  0
 20 38  1  0
 20 39  1  0
 21 40  1  0
 21 41  1  0
 22 42  1  0
M  CHG  1   3  -1
M  END
>  <UniqueID>  (13) 
11

>  <SMILES>  (13) 
O=C([N-]Cc1ccccc1)c1cccc(N2CCNCC2)c1

>  <Energy>  (13) 
55.048385176096275

>  <Genealogy>  (13) 
O=C([N-]Cc1ccccc1)c1cccc(N2CCNCC2)c1 (protonated)
O=C([N-]Cc1ccccc1)c1cccc(N2CCNCC2)c1 (3D coordinates assigned)
O=C([N-]Cc1ccccc1)c1cccc(N2CCNCC2)c1 (nonaromatic ring conformer: 55.048385176096275 kcal/mol)

>  <smiles>  (13) 
O=C(NCc1ccccc1)c1cccc(N2CCNCC2)c1

>  <score_type>  (13) 
oracle

>  <origin>  (13) 
adgpu

>  <m_score__min__energy>  (13) 
-9.2400000000000002

>  <m_primary>  (13) 
energy

$$$$
13:0
     RDKit          3D

 87 91  0  0  0  0  0  0  0  0999 V2000
   -1.9870   20.6940  -27.1360 C   0  0  0  0  0  0  0  0  0  0  0  0
   -1.4890   21.7280  -28.0590 N   0  0  0  0  0  0  0  0  0  0  0  0
   -0.4240   21.1680  -28.9040 C   0  0  0  0  0  0  0  0  0  0  0  0
   -1.0280   22.9330  -27.3260 C   0  0  0  0  0  0  0  0  0  0  0  0
   -0.6250   24.0310  -28.3180 C   0  0  0  0  0  0  0  0  0  0  0  0
   -1.8110   24.8960  -28.7570 C   0  0  0  0  0  0  0  0  0  0  0  0
   -2.9470   24.0650  -29.1480 N   0  0  0  0  0  0  0  0  0  0  0  0
   -3.8810   24.4410  -30.1600 C   0  0  0  0  0  0  0  0  0  0  0  0
   -3.8750   25.6090  -30.6150 O   0  0  0  0  0  0  0  0  0  0  0  0
   -4.7840   23.4370  -30.7580 C   0  0  0  0  0  0  0  0  0  0  0  0
   -6.1320   23.6490  -31.0060 C   0  0  0  0  0  0  0  0  0  0  0  0
   -6.6710   22.3990  -31.2360 C   0  0  0  0  0  0  0  0  0  0  0  0
   -8.0670   22.0910  -31.1840 N   0  0  0  0  0  0  0  0  0  0  0  0
   -8.6840   21.1630  -32.0910 C   0  0  0  0  0  0  0  0  0  0  0  0
   -9.9090   21.2830  -32.3620 O   0  0  0  0  0  0  0  0  0  0  0  0
   -7.9230   20.0220  -32.6400 C   0  0  0  0  0  0  0  0  0  0  0  0
   -6.8730   20.1450  -33.5300 C   0  0  0  0  0  0  0  0  0  0  0  0
   -6.4510   18.8700  -33.8070 C   0  0  0  0  0  0  0  0  0  0  0  0
   -5.3520   18.5780  -34.6660 N   0  0  0  0  0  0  0  0  0  0  0  0
   -4.1340   17.8960  -34.3440 C   0  0  0  0  0  0  0  0  0  0  0  0
   -4.0630   16.6440  -34.4300 O   0  0  0  0  0  0  0  0  0  0  0  0
   -2.9710   18.6890  -33.8950 C   0  0  0  0  0  0  0  0  0  0  0  0
   -1.7740   18.0400  -33.5400 C   0  0  0  0  0  0  0  0  0  0  0  0
   -0.6280   18.7790  -33.2500 C   0  0  0  0  0  0  0  0  0  0  0  0
   -0.6490   20.1810  -33.3410 C   0  0  0  0  0  0  0  0  0  0  0  0
    0.5590   20.9550  -33.2230 N   0  0  0  0  0  0  0  0  0  0  0  0
    1.7480   20.7610  -34.0160 C   0  0  0  0  0  0  0  0  0  0  0  0
    2.3730   19.6730  -33.9070 O   0  0  0  0  0  0  0  0  0  0  0  0
    2.2700   21.8120  -34.9310 C   0  0  0  0  0  0  0  0  0  0  0  0
    3.6520   21.9070  -35.1820 C   0  0  0  0  0  0  0  0  0  0  0  0
    4.1400   22.8390  -36.1010 C   0  0  0  0  0  0  0  0  0  0  0  0
    3.2590   23.7030  -36.7610 C   0  0  0  0  0  0  0  0  0  0  0  0
    1.8860   23.6590  -36.4910 C   0  0  0  0  0  0  0  0  0  0  0  0
    1.0130   24.5300  -37.2270 N   0  0  0  0  0  0  0  0  0  0  0  0
    1.3280   25.8430  -37.7190 C   0  0  0  0  0  0  0  0  0  0  0  0
    2.0300   25.9420  -38.7610 O   0  0  0  0  0  0  0  0  0  0  0  0
    0.8880   27.0760  -37.0220 C   0  0  0  0  0  0  0  0  0  0  0  0
   -0.2710   27.7660  -37.4490 C   0  0  0  0  0  0  0  0  0  0  0  0
   -1.3250   27.1350  -38.7090 Cl  0  0  0  0  0  0  0  0  0  0  0  0
   -0.6430   28.9610  -36.8250 C   0  0  0  0  0  0  0  0  0  0  0  0
    0.1140   29.4750  -35.7710 C   0  0  0  0  0  0  0  0  0  0  0  0
    1.2440   28.7880  -35.3280 C   0  0  0  0  0  0  0  0  0  0  0  0
    1.6340   27.5880  -35.9400 C   0  0  0  0  0  0  0  0  0  0  0  0
    3.0830   26.7860  -35.3370 Cl  0  0  0  0  0  0  0  0  0  0  0  0
    1.3960   22.7140  -35.5680 C   0  0  0  0  0  0  0  0  0  0  0  0
   -1.8590   20.8340  -33.5970 C   0  0  0  0  0  0  0  0  0  0  0  0
   -3.0150   20.0960  -33.8720 C   0  0  0  0  0  0  0  0  0  0  0  0
   -7.2200   17.9990  -33.0560 C   0  0  0  0  0  0  0  0  0  0  0  0
   -8.1300   18.7120  -32.3500 N   0  0  0  0  0  0  0  0  0  0  0  0
   -9.1060   18.1700  -31.4110 C   0  0  0  0  0  0  0  0  0  0  0  0
   -5.6490   21.4760  -31.1560 C   0  0  0  0  0  0  0  0  0  0  0  0
   -4.4950   22.1160  -30.8920 N   0  0  0  0  0  0  0  0  0  0  0  0
   -3.2170   21.4510  -30.6500 C   0  0  0  0  0  0  0  0  0  0  0  0
   -1.8290   21.0221  -26.0980 H   0  0  0  0  0  0  0  0  0  0  0  0
   -3.0612   20.5335  -27.3103 H   0  0  0  0  0  0  0  0  0  0  0  0
   -1.4428   19.7541  -27.3103 H   0  0  0  0  0  0  0  0  0  0  0  0
    0.3691   20.7510  -28.2660 H   0  0  0  0  0  0  0  0  0  0  0  0
   -0.8402   20.3721  -29.5391 H   0  0  0  0  0  0  0  0  0  0  0  0
   -0.0042   21.9620  -29.5391 H   0  0  0  0  0  0  0  0  0  0  0  0
   -1.8420   23.3026  -26.6851 H   0  0  0  0  0  0  0  0  0  0  0  0
   -0.1569   22.6678  -26.7089 H   0  0  0  0  0  0  0  0  0  0  0  0
    0.1251   24.6786  -27.8405 H   0  0  0  0  0  0  0  0  0  0  0  0
   -0.2241   23.5370  -29.2154 H   0  0  0  0  0  0  0  0  0  0  0  0
   -2.1111   25.5460  -27.9219 H   0  0  0  0  0  0  0  0  0  0  0  0
   -1.5033   25.5000  -29.6233 H   0  0  0  0  0  0  0  0  0  0  0  0
   -3.0180   23.1090  -28.7210 H   0  0  0  0  0  0  0  0  0  0  0  0
   -6.6617   24.6130  -31.0171 H   0  0  0  0  0  0  0  0  0  0  0  0
   -6.4583   21.0796  -33.9355 H   0  0  0  0  0  0  0  0  0  0  0  0
   -1.7423   16.9416  -33.4910 H   0  0  0  0  0  0  0  0  0  0  0  0
    0.2956   18.2629  -32.9490 H   0  0  0  0  0  0  0  0  0  0  0  0
    4.3512   21.2438  -34.6516 H   0  0  0  0  0  0  0  0  0  0  0  0
    5.2193   22.8939  -36.3063 H   0  0  0  0  0  0  0  0  0  0  0  0
    3.6480   24.4218  -37.4972 H   0  0  0  0  0  0  0  0  0  0  0  0
   -1.5388   29.4998  -37.1674 H   0  0  0  0  0  0  0  0  0  0  0  0
   -0.1800   30.4199  -35.2908 H   0  0  0  0  0  0  0  0  0  0  0  0
    1.8342   29.1907  -34.4917 H   0  0  0  0  0  0  0  0  0  0  0  0
    0.3199   22.6804  -35.3427 H   0  0  0  0  0  0  0  0  0  0  0  0
   -1.9018   21.9331  -33.5820 H   0  0  0  0  0  0  0  0  0  0  0  0
   -3.9629   20.6174  -34.0712 H   0  0  0  0  0  0  0  0  0  0  0  0
   -7.1102   16.9047  -33.0355 H   0  0  0  0  0  0  0  0  0  0  0  0
   -8.7677   18.3579  -30.3813 H   0  0  0  0  0  0  0  0  0  0  0  0
  -10.0792   18.6569  -31.5718 H   0  0  0  0  0  0  0  0  0  0  0  0
   -9.2071   17.0865  -31.5718 H   0  0  0  0  0  0  0  0  0  0  0  0
   -5.7597   20.3895  -31.2872 H   0  0  0  0  0  0  0  0  0  0  0  0
   -3.0486   21.3634  -29.5665 H   0  0  0  0  0  0  0  0  0  0  0  0
   -3.2346   20.4477  -31.1006 H   0  0  0  0  0  0  0  0  0  0  0  0
   -2.4054   22.0412  -31.1006 H   0  0  0  0  0  0  0  0  0  0  0  0
  1  2  1  0
  2  3  1  0
  2  4  1  0
  4  5  1  0
  5  6  1  0
  6  7  1  0
  7  8  1  0
  8  9  2  0
  8 10  1  0
 10 11  2  0
 11 12  1  0
 12 13  1  0
 13 14  1  0
 14 15  2  0
 14 16  1  0
 16 17  2  0
 17 18  1  0
 18 19  1  0
 19 20  1  0
 20 21  2  0
 20 22  1  0
 22 23  2  0
 23 24  1  0
 24 25  2  0
 25 26  1  0
 26 27  1  0
 27 28  2  0
 27 29  1  0
 29 30  2  0
 30 31  1  0
 31 32  2  0
 32 33  1  0
 33 34  1  0
 34 35  1  0
 35 36  2  0
 35 37  1  0
 37 38  2  0
 38 39  1  0
 38 40  1  0
 40 41  2  0
 41 42  1  0
 42 43  2  0
 43 44  1  0
 33 45  2  0
 25 46  1  0
 46 47  2  0
 18 48  2  0
 48 49  1  0
 49 50  1  0
 12 51  2  0
 51 52  1  0
 52 53  1  0
 52 10  1  0
 49 16  1  0
 47 22  1  0
 45 29  1  0
 43 37  1  0
  1 54  1  0
  1 55  1  0
  1 56  1  0
  3 57  1  0
  3 58  1  0
  3 59  1  0
  4 60  1  0
  4 61  1  0
  5 62  1  0
  5 63  1  0
  6 64  1  0
  6 65  1  0
  7 66  1  0
 11 67  1  0
 17 68  1  0
 23 69  1  0
 24 70  1  0
 30 71  1  0
 31 72  1  0
 32 73  1  0
 40 74  1  0
 41 75  1  0
 42 76  1  0
 45 77  1  0
 46 78  1  0
 47 79  1  0
 48 80  1  0
 50 81  1  0
 50 82  1  0
 50 83  1  0
 51 84  1  0
 53 85  1  0
 53 86  1  0
 53 87  1  0
M  CHG  4  13  -1  19  -1  26  -1  34  -1
M  END
>  <UniqueID>  (14) 
12

>  <SMILES>  (14) 
CN(C)CCCNC(=O)c1cc([N-]C(=O)c2cc([N-]C(=O)c3ccc([N-]C(=O)c4cccc([N-]C(=O)c5c(Cl)cccc5Cl)c4)cc3)cn2C)cn1C

>  <Energy>  (14) 
177.2018634923553

>  <Genealogy>  (14) 
CN(C)CCCNC(=O)c1cc([N-]C(=O)c2cc([N-]C(=O)c3ccc([N-]C(=O)c4cccc([N-]C(=O)c5c(Cl)cccc5Cl)c4)cc3)cn2C)cn1C (protonated)
CN(C)CCCNC(=O)c1cc([N-]C(=O)c2cc([N-]C(=O)c3ccc([N-]C(=O)c4cccc([N-]C(=O)c5c(Cl)cccc5Cl)c4)cc3)cn2C)cn1C (3D coordinates assigned)
CN(C)CCCNC(=O)c1cc([N-]C(=O)c2cc([N-]C(=O)c3ccc([N-]C(=O)c4cccc([N-]C(=O)c5c(Cl)cccc5Cl)c4)cc3)cn2C)cn1C (optimized conformer: 177.2018634923553 kcal/mol)

>  <smiles>  (14) 
CN(C)CCCNC(=O)c1cc(NC(=O)c2cc(NC(=O)c3ccc(NC(=O)c4cccc(NC(=O)c5c(Cl)cccc5Cl)c4)cc3)cn2C)cn1C

>  <score_type>  (14) 
oracle

>  <origin>  (14) 
adgpu

>  <m_score__min__energy>  (14) 
-13.789999999999999

>  <m_primary>  (14) 
energy

$$$$
14:0
     RDKit          3D

 39 41  0  0  0  0  0  0  0  0999 V2000
   -0.8620   21.4560  -34.5220 N   0  0  0  0  0  0  0  0  0  0  0  0
   -1.3170   19.8850  -33.9620 S   0  0  0  0  0  0  0  0  0  0  0  0
   -0.6250   19.5990  -32.6580 O   0  0  0  0  0  0  0  0  0  0  0  0
   -0.8950   18.8510  -34.9660 O   0  0  0  0  0  0  0  0  0  0  0  0
   -3.0620   19.8190  -33.7380 C   0  0  0  0  0  0  0  0  0  0  0  0
   -3.7970   18.7180  -34.1880 C   0  0  0  0  0  0  0  0  0  0  0  0
   -5.1400   18.6700  -33.9940 N   0  0  0  0  0  0  0  0  0  0  0  0
   -5.8110   19.6690  -33.3610 C   0  0  0  0  0  0  0  0  0  0  0  0
   -5.1190   20.7950  -32.8820 C   0  0  0  0  0  0  0  0  0  0  0  0
   -5.8400   21.8910  -32.1850 C   0  0  0  0  0  0  0  0  0  0  0  0
   -7.2180   21.7860  -31.9240 C   0  0  0  0  0  0  0  0  0  0  0  0
   -7.8940   22.8170  -31.2680 C   0  0  0  0  0  0  0  0  0  0  0  0
   -7.2060   23.9610  -30.8610 C   0  0  0  0  0  0  0  0  0  0  0  0
   -5.8270   24.0820  -31.0970 C   0  0  0  0  0  0  0  0  0  0  0  0
   -5.0890   25.2950  -30.6730 C   0  0  0  0  0  0  0  0  0  0  0  0
   -5.7230   26.3650  -30.4720 O   0  0  0  0  0  0  0  0  0  0  0  0
   -3.6750   25.2810  -30.4320 N   0  0  0  0  0  0  0  0  0  0  0  0
   -2.9610   24.3170  -29.6430 C   0  0  0  0  0  0  0  0  0  0  0  0
   -2.3930   23.1660  -30.2180 C   0  0  0  0  0  0  0  0  0  0  0  0
   -1.6900   22.2560  -29.4220 C   0  0  0  0  0  0  0  0  0  0  0  0
   -1.5370   22.4940  -28.0540 C   0  0  0  0  0  0  0  0  0  0  0  0
   -0.8550   21.6110  -27.2830 F   0  0  0  0  0  0  0  0  0  0  0  0
   -2.0810   23.6470  -27.4810 C   0  0  0  0  0  0  0  0  0  0  0  0
   -2.7840   24.5590  -28.2750 C   0  0  0  0  0  0  0  0  0  0  0  0
   -5.1530   23.0480  -31.7710 C   0  0  0  0  0  0  0  0  0  0  0  0
   -3.7290   20.8570  -33.0770 C   0  0  0  0  0  0  0  0  0  0  0  0
   -0.8530   21.4150  -35.5660 H   0  0  0  0  0  0  0  0  0  0  0  0
   -1.6310   22.1090  -34.2540 H   0  0  0  0  0  0  0  0  0  0  0  0
   -3.2863   17.8892  -34.7001 H   0  0  0  0  0  0  0  0  0  0  0  0
   -6.8999   19.5958  -33.2232 H   0  0  0  0  0  0  0  0  0  0  0  0
   -7.7668   20.8861  -32.2386 H   0  0  0  0  0  0  0  0  0  0  0  0
   -8.9725   22.7271  -31.0714 H   0  0  0  0  0  0  0  0  0  0  0  0
   -7.7470   24.7726  -30.3524 H   0  0  0  0  0  0  0  0  0  0  0  0
   -2.5020   22.9810  -31.2968 H   0  0  0  0  0  0  0  0  0  0  0  0
   -1.2569   21.3514  -29.8738 H   0  0  0  0  0  0  0  0  0  0  0  0
   -1.9562   23.8373  -26.4048 H   0  0  0  0  0  0  0  0  0  0  0  0
   -3.2001   25.4712  -27.8225 H   0  0  0  0  0  0  0  0  0  0  0  0
   -4.0768   23.1443  -31.9771 H   0  0  0  0  0  0  0  0  0  0  0  0
   -3.1625   21.7250  -32.7086 H   0  0  0  0  0  0  0  0  0  0  0  0
  1  2  1  0
  2  3  2  0
  2  4  2  0
  2  5  1  0
  5  6  2  0
  6  7  1  0
  7  8  2  0
  8  9  1  0
  9 10  1  0
 10 11  2  0
 11 12  1  0
 12 13  2  0
 13 14  1  0
 14 15  1  0
 15 16  2  0
 15 17  1  0
 17 18  1  0
 18 19  2  0
 19 20  1  0
 20 21  2  0
 21 22  1  0
 21 23  1  0
 23 24  2  0
 14 25  2  0
  9 26  2  0
 26  5  1  0
 25 10  1  0
 24 18  1  0
  1 27  1  0
  1 28  1  0
  6 29  1  0
  8 30  1  0
 11 31  1  0
 12 32  1  0
 13 33  1  0
 19 34  1  0
 20 35  1  0
 23 36  1  0
 24 37  1  0
 25 38  1  0
 26 39  1  0
M  CHG  1  17  -1
M  END
>  <UniqueID>  (15) 
13

>  <SMILES>  (15) 
NS(=O)(=O)c1cncc(-c2cccc(C(=O)[N-]c3ccc(F)cc3)c2)c1

>  <Energy>  (15) 
53.345614440994474

>  <Genealogy>  (15) 
NS(=O)(=O)c1cncc(-c2cccc(C(=O)[N-]c3ccc(F)cc3)c2)c1 (protonated)
NS(=O)(=O)c1cncc(-c2cccc(C(=O)[N-]c3ccc(F)cc3)c2)c1 (3D coordinates assigned)
NS(=O)(=O)c1cncc(-c2cccc(C(=O)[N-]c3ccc(F)cc3)c2)c1 (optimized conformer: 53.345614440994474 kcal/mol)

>  <smiles>  (15) 
NS(=O)(=O)c1cncc(-c2cccc(C(=O)Nc3ccc(F)cc3)c2)c1

>  <score_type>  (15) 
oracle

>  <origin>  (15) 
adgpu

>  <m_score__min__energy>  (15) 
-10.49

>  <m_primary>  (15) 
energy

$$$$
15:0
     RDKit          3D

 36 37  0  0  0  0  0  0  0  0999 V2000
   -1.9840   25.0170  -29.3360 N   0  0  0  0  0  0  0  0  0  0  0  0
   -3.5410   24.4710  -29.8520 S   0  0  0  0  0  0  0  0  0  0  0  0
   -4.4660   24.4110  -28.6710 O   0  0  0  0  0  0  0  0  0  0  0  0
   -4.0810   25.4440  -30.8630 O   0  0  0  0  0  0  0  0  0  0  0  0
   -3.4110   22.8710  -30.5760 C   0  0  0  0  0  0  0  0  0  0  0  0
   -3.6810   22.6890  -31.9380 C   0  0  0  0  0  0  0  0  0  0  0  0
   -3.5860   21.4170  -32.5100 C   0  0  0  0  0  0  0  0  0  0  0  0
   -3.2090   20.3140  -31.7320 C   0  0  0  0  0  0  0  0  0  0  0  0
   -3.1390   19.0240  -32.3560 N   0  0  0  0  0  0  0  0  0  0  0  0
   -4.1870   18.3720  -33.0840 C   0  0  0  0  0  0  0  0  0  0  0  0
   -4.1700   18.3320  -34.3430 O   0  0  0  0  0  0  0  0  0  0  0  0
   -5.3600   17.8250  -32.3430 C   0  0  0  0  0  0  0  0  0  0  0  0
   -6.5550   18.1750  -33.0310 O   0  0  0  0  0  0  0  0  0  0  0  0
   -7.6910   18.6610  -32.3750 C   0  0  0  0  0  0  0  0  0  0  0  0
   -8.5960   17.8630  -32.0030 O   0  0  0  0  0  0  0  0  0  0  0  0
   -7.7900   20.1050  -32.0660 C   0  0  0  0  0  0  0  0  0  0  0  0
   -8.7360   20.5160  -31.1100 C   0  0  0  0  0  0  0  0  0  0  0  0
   -8.9260   21.8710  -30.8320 C   0  0  0  0  0  0  0  0  0  0  0  0
   -8.1730   22.8350  -31.5020 C   0  0  0  0  0  0  0  0  0  0  0  0
   -7.2150   22.4440  -32.4390 C   0  0  0  0  0  0  0  0  0  0  0  0
   -6.9990   21.0880  -32.7150 C   0  0  0  0  0  0  0  0  0  0  0  0
   -5.9760   20.7650  -33.6080 O   0  0  0  0  0  0  0  0  0  0  0  0
   -2.9690   20.4940  -30.3580 C   0  0  0  0  0  0  0  0  0  0  0  0
   -3.0650   21.7670  -29.7860 C   0  0  0  0  0  0  0  0  0  0  0  0
   -1.6280   25.6660  -30.0750 H   0  0  0  0  0  0  0  0  0  0  0  0
   -3.9687   23.5496  -32.5597 H   0  0  0  0  0  0  0  0  0  0  0  0
   -3.8088   21.2808  -33.5786 H   0  0  0  0  0  0  0  0  0  0  0  0
   -5.2782   16.7297  -32.2823 H   0  0  0  0  0  0  0  0  0  0  0  0
   -5.3829   18.2455  -31.3268 H   0  0  0  0  0  0  0  0  0  0  0  0
   -9.3326   19.7620  -30.5756 H   0  0  0  0  0  0  0  0  0  0  0  0
   -9.6708   22.1787  -30.0833 H   0  0  0  0  0  0  0  0  0  0  0  0
   -8.3339   23.9027  -31.2922 H   0  0  0  0  0  0  0  0  0  0  0  0
   -6.6242   23.2080  -32.9655 H   0  0  0  0  0  0  0  0  0  0  0  0
   -5.6350   19.8240  -33.7530 H   0  0  0  0  0  0  0  0  0  0  0  0
   -2.7047   19.6301  -29.7304 H   0  0  0  0  0  0  0  0  0  0  0  0
   -2.8681   21.9016  -28.7122 H   0  0  0  0  0  0  0  0  0  0  0  0
  1  2  1  0
  2  3  2  0
  2  4  2  0
  2  5  1  0
  5  6  2  0
  6  7  1  0
  7  8  2  0
  8  9  1  0
  9 10  1  0
 10 11  2  0
 10 12  1  0
 12 13  1  0
 13 14  1  0
 14 15  2  0
 14 16  1  0
 16 17  2  0
 17 18  1  0
 18 19  2  0
 19 20  1  0
 20 21  2  0
 21 22  1  0
  8 23  1  0
 23 24  2  0
 24  5  1  0
 21 16  1  0
  1 25  1  0
  6 26  1  0
  7 27  1  0
 12 28  1  0
 12 29  1  0
 17 30  1  0
 18 31  1  0
 19 32  1  0
 20 33  1  0
 22 34  1  0
 23 35  1  0
 24 36  1  0
M  CHG  2   1  -1   9  -1
M  END
>  <UniqueID>  (16) 
14

>  <SMILES>  (16) 
[NH-]S(=O)(=O)c1ccc([N-]C(=O)COC(=O)c2ccccc2O)cc1

>  <Energy>  (16) 
41.80920724243163

>  <Genealogy>  (16) 
[NH-]S(=O)(=O)c1ccc([N-]C(=O)COC(=O)c2ccccc2O)cc1 (protonated)
[NH-]S(=O)(=O)c1ccc([N-]C(=O)COC(=O)c2ccccc2O)cc1 (3D coordinates assigned)
[NH-]S(=O)(=O)c1ccc([N-]C(=O)COC(=O)c2ccccc2O)cc1 (optimized conformer: 41.80920724243163 kcal/mol)

>  <smiles>  (16) 
NS(=O)(=O)c1ccc(NC(=O)COC(=O)c2ccccc2O)cc1

>  <score_type>  (16) 
oracle

>  <origin>  (16) 
adgpu

>  <m_score__min__energy>  (16) 
-9.5800000000000001

>  <m_primary>  (16) 
energy

$$$$
16:0
     RDKit          3D

 36 38  0  0  0  0  0  0  0  0999 V2000
   -4.8260   19.8410  -32.5390 C   0  0  0  0  0  0  0  0  0  0  0  0
   -5.9080   19.5710  -31.6530 O   0  0  0  0  0  0  0  0  0  0  0  0
   -7.2440   19.9320  -31.8930 C   0  0  0  0  0  0  0  0  0  0  0  0
   -8.1370   19.0720  -32.5630 C   0  0  0  0  0  0  0  0  0  0  0  0
   -9.4600   19.4600  -32.7850 C   0  0  0  0  0  0  0  0  0  0  0  0
   -9.9050   20.7070  -32.3510 C   0  0  0  0  0  0  0  0  0  0  0  0
   -9.0310   21.5700  -31.6870 C   0  0  0  0  0  0  0  0  0  0  0  0
   -7.7000   21.1870  -31.4400 C   0  0  0  0  0  0  0  0  0  0  0  0
   -6.7890   22.0840  -30.7800 N   0  0  0  0  0  0  0  0  0  0  0  0
   -5.9450   23.0150  -31.4790 C   0  0  0  0  0  0  0  0  0  0  0  0
   -6.1800   23.3000  -32.6840 O   0  0  0  0  0  0  0  0  0  0  0  0
   -4.8240   23.6810  -30.7940 C   0  0  0  0  0  0  0  0  0  0  0  0
   -3.8770   23.0860  -29.9850 C   0  0  0  0  0  0  0  0  0  0  0  0
   -3.0460   24.1290  -29.6120 C   0  0  0  0  0  0  0  0  0  0  0  0
   -1.8490   24.0450  -28.7340 C   0  0  0  0  0  0  0  0  0  0  0  0
   -1.4660   22.8080  -28.1730 C   0  0  0  0  0  0  0  0  0  0  0  0
   -0.3470   22.7180  -27.3420 C   0  0  0  0  0  0  0  0  0  0  0  0
    0.4070   23.8560  -27.0560 C   0  0  0  0  0  0  0  0  0  0  0  0
    0.0420   25.0880  -27.5980 C   0  0  0  0  0  0  0  0  0  0  0  0
   -1.0760   25.1910  -28.4330 C   0  0  0  0  0  0  0  0  0  0  0  0
   -1.3990   26.4350  -28.9640 O   0  0  0  0  0  0  0  0  0  0  0  0
   -3.4900   25.2700  -30.1790 N   0  0  0  0  0  0  0  0  0  0  0  0
   -4.5670   24.9980  -30.8980 N   0  0  0  0  0  0  0  0  0  0  0  0
   -3.9215   20.0667  -31.9551 H   0  0  0  0  0  0  0  0  0  0  0  0
   -4.6430   18.9610  -33.1731 H   0  0  0  0  0  0  0  0  0  0  0  0
   -5.0779   20.7038  -33.1731 H   0  0  0  0  0  0  0  0  0  0  0  0
   -7.7897   18.0888  -32.9133 H   0  0  0  0  0  0  0  0  0  0  0  0
  -10.1520   18.7800  -33.3034 H   0  0  0  0  0  0  0  0  0  0  0  0
  -10.9463   21.0120  -32.5317 H   0  0  0  0  0  0  0  0  0  0  0  0
   -9.3858   22.5567  -31.3545 H   0  0  0  0  0  0  0  0  0  0  0  0
   -6.8070   22.1220  -29.7360 H   0  0  0  0  0  0  0  0  0  0  0  0
   -3.8001   22.0260  -29.7015 H   0  0  0  0  0  0  0  0  0  0  0  0
   -2.0549   21.9052  -28.3925 H   0  0  0  0  0  0  0  0  0  0  0  0
   -0.0596   21.7472  -26.9120 H   0  0  0  0  0  0  0  0  0  0  0  0
    1.2892   23.7818  -26.4032 H   0  0  0  0  0  0  0  0  0  0  0  0
    0.6367   25.9843  -27.3677 H   0  0  0  0  0  0  0  0  0  0  0  0
  1  2  1  0
  2  3  1  0
  3  4  2  0
  4  5  1  0
  5  6  2  0
  6  7  1  0
  7  8  2  0
  8  9  1  0
  9 10  1  0
 10 11  2  0
 10 12  1  0
 12 13  1  0
 13 14  2  0
 14 15  1  0
 15 16  2  0
 16 17  1  0
 17 18  2  0
 18 19  1  0
 19 20  2  0
 20 21  1  0
 14 22  1  0
 22 23  1  0
  8  3  1  0
 23 12  2  0
 20 15  1  0
  1 24  1  0
  1 25  1  0
  1 26  1  0
  4 27  1  0
  5 28  1  0
  6 29  1  0
  7 30  1  0
  9 31  1  0
 13 32  1  0
 16 33  1  0
 17 34  1  0
 18 35  1  0
 19 36  1  0
M  CHG  2  21  -1  22  -1
M  END
>  <UniqueID>  (17) 
15

>  <SMILES>  (17) 
COc1ccccc1NC(=O)c1cc(-c2ccccc2[O-])[n-]n1

>  <Energy>  (17) 
74.3958287954965

>  <Genealogy>  (17) 
COc1ccccc1NC(=O)c1cc(-c2ccccc2[O-])[n-]n1 (protonated)
COc1ccccc1NC(=O)c1cc(-c2ccccc2[O-])[n-]n1 (3D coordinates assigned)
COc1ccccc1NC(=O)c1cc(-c2ccccc2[O-])[n-]n1 (optimized conformer: 74.3958287954965 kcal/mol)

>  <smiles>  (17) 
COc1ccccc1NC(=O)c1cc(-c2ccccc2O)[nH]n1

>  <score_type>  (17) 
oracle

>  <origin>  (17) 
adgpu

>  <m_score__min__energy>  (17) 
-13.19

>  <m_primary>  (17) 
energy

$$$$
17:0
     RDKit          3D

 57 60  0  0  0  0  0  0  0  0999 V2000
   -5.9580   24.0760  -31.5850 C   0  0  0  0  0  0  0  0  0  0  0  0
   -4.7210   24.2710  -30.7680 C   0  0  0  0  0  0  0  0  0  0  0  0
   -4.2150   25.4830  -30.4690 N   0  0  0  0  0  0  0  0  0  0  0  0
   -3.1270   25.2850  -29.7850 O   0  0  0  0  0  0  0  0  0  0  0  0
   -2.8900   24.0040  -29.6210 C   0  0  0  0  0  0  0  0  0  0  0  0
   -1.8400   23.5850  -28.9720 N   0  0  0  0  0  0  0  0  0  0  0  0
   -1.3310   21.9630  -28.6250 S   0  0  0  0  0  0  0  0  0  0  0  0
   -0.0680   21.9730  -27.8110 O   0  0  0  0  0  0  0  0  0  0  0  0
   -2.4050   21.2100  -27.8950 O   0  0  0  0  0  0  0  0  0  0  0  0
   -1.0200   21.1550  -30.1580 C   0  0  0  0  0  0  0  0  0  0  0  0
   -0.8400   19.7660  -30.1920 C   0  0  0  0  0  0  0  0  0  0  0  0
   -0.6120   19.1150  -31.4090 C   0  0  0  0  0  0  0  0  0  0  0  0
   -0.5820   19.8480  -32.6090 C   0  0  0  0  0  0  0  0  0  0  0  0
   -0.3330   19.2220  -33.8760 N   0  0  0  0  0  0  0  0  0  0  0  0
    0.7770   19.4740  -34.7510 C   0  0  0  0  0  0  0  0  0  0  0  0
    1.4400   18.5090  -35.2230 O   0  0  0  0  0  0  0  0  0  0  0  0
    1.1150   20.8630  -35.1410 C   0  0  0  0  0  0  0  0  0  0  0  0
    0.1360   21.7070  -35.6950 C   0  0  0  0  0  0  0  0  0  0  0  0
    0.4570   23.0140  -36.0740 C   0  0  0  0  0  0  0  0  0  0  0  0
    1.7590   23.4990  -35.8980 C   0  0  0  0  0  0  0  0  0  0  0  0
    2.1870   25.1310  -36.4040 S   0  0  0  0  0  0  0  0  0  0  0  0
    1.8080   25.3120  -37.8470 O   0  0  0  0  0  0  0  0  0  0  0  0
    3.6710   25.3380  -36.2670 O   0  0  0  0  0  0  0  0  0  0  0  0
    1.3210   26.2830  -35.4210 N   0  0  0  0  0  0  0  0  0  0  0  0
   -0.0880   26.3880  -35.8120 C   0  0  0  0  0  0  0  0  0  0  0  0
   -0.5350   27.8060  -35.4770 C   0  0  0  0  0  0  0  0  0  0  0  0
    0.7440   28.5980  -35.2420 C   0  0  0  0  0  0  0  0  0  0  0  0
    1.8770   27.6320  -35.5480 C   0  0  0  0  0  0  0  0  0  0  0  0
    2.7400   22.6640  -35.3500 C   0  0  0  0  0  0  0  0  0  0  0  0
    2.4220   21.3560  -34.9730 C   0  0  0  0  0  0  0  0  0  0  0  0
   -0.7420   21.2380  -32.5660 C   0  0  0  0  0  0  0  0  0  0  0  0
   -0.9710   21.8890  -31.3510 C   0  0  0  0  0  0  0  0  0  0  0  0
   -3.9100   23.2770  -30.2380 C   0  0  0  0  0  0  0  0  0  0  0  0
   -4.1060   21.8000  -30.4090 C   0  0  0  0  0  0  0  0  0  0  0  0
   -6.8211   23.9399  -30.9168 H   0  0  0  0  0  0  0  0  0  0  0  0
   -6.1213   24.9595  -32.2196 H   0  0  0  0  0  0  0  0  0  0  0  0
   -5.8416   23.1851  -32.2196 H   0  0  0  0  0  0  0  0  0  0  0  0
   -0.8781   19.1854  -29.2585 H   0  0  0  0  0  0  0  0  0  0  0  0
   -0.4557   18.0263  -31.4275 H   0  0  0  0  0  0  0  0  0  0  0  0
   -0.8905   21.3359  -35.8313 H   0  0  0  0  0  0  0  0  0  0  0  0
   -0.3155   23.6633  -36.5118 H   0  0  0  0  0  0  0  0  0  0  0  0
    1.3800   25.9790  -34.4200 H   0  0  0  0  0  0  0  0  0  0  0  0
   -0.1962   26.2020  -36.8907 H   0  0  0  0  0  0  0  0  0  0  0  0
   -0.7010   25.6455  -35.2800 H   0  0  0  0  0  0  0  0  0  0  0  0
   -1.1040   28.2364  -36.3143 H   0  0  0  0  0  0  0  0  0  0  0  0
   -1.1922   27.8262  -34.5952 H   0  0  0  0  0  0  0  0  0  0  0  0
    0.7874   29.4678  -35.9140 H   0  0  0  0  0  0  0  0  0  0  0  0
    0.8027   28.9860  -34.2144 H   0  0  0  0  0  0  0  0  0  0  0  0
    2.2491   27.7947  -36.5703 H   0  0  0  0  0  0  0  0  0  0  0  0
    2.7219   27.7798  -34.8593 H   0  0  0  0  0  0  0  0  0  0  0  0
    3.7654   23.0388  -35.2155 H   0  0  0  0  0  0  0  0  0  0  0  0
    3.1991   20.7076  -34.5420 H   0  0  0  0  0  0  0  0  0  0  0  0
   -0.6870   21.8225  -33.4962 H   0  0  0  0  0  0  0  0  0  0  0  0
   -1.1131   22.9796  -31.3308 H   0  0  0  0  0  0  0  0  0  0  0  0
   -4.1695   21.3217  -29.4205 H   0  0  0  0  0  0  0  0  0  0  0  0
   -5.0365   21.6156  -30.9660 H   0  0  0  0  0  0  0  0  0  0  0  0
   -3.2558   21.3793  -30.9660 H   0  0  0  0  0  0  0  0  0  0  0  0
  1  2  1  0
  2  3  1  0
  3  4  1  0
  4  5  1  0
  5  6  2  3
  6  7  1  0
  7  8  2  0
  7  9  2  0
  7 10  1  0
 10 11  2  0
 11 12  1  0
 12 13  2  0
 13 14  1  0
 14 15  1  0
 15 16  2  0
 15 17  1  0
 17 18  2  0
 18 19  1  0
 19 20  2  0
 20 21  1  0
 21 22  2  0
 21 23  2  0
 21 24  1  0
 24 25  1  0
 25 26  1  0
 26 27  1  0
 27 28  1  0
 20 29  1  0
 29 30  2  0
 13 31  1  0
 31 32  2  0
  5 33  1  0
 33 34  1  0
 33  2  2  0
 32 10  1  0
 30 17  1  0
 28 24  1  0
  1 35  1  0
  1 36  1  0
  1 37  1  0
 11 38  1  0
 12 39  1  0
 18 40  1  0
 19 41  1  0
 24 42  1  0
 25 43  1  0
 25 44  1  0
 26 45  1  0
 26 46  1  0
 27 47  1  0
 27 48  1  0
 28 49  1  0
 28 50  1  0
 29 51  1  0
 30 52  1  0
 31 53  1  0
 32 54  1  0
 34 55  1  0
 34 56  1  0
 34 57  1  0
M  CHG  3   3  -1  14  -1  24   1
M  END
>  <UniqueID>  (18) 
16

>  <SMILES>  (18) 
Cc1[n-]oc(=NS(=O)(=O)c2ccc([N-]C(=O)c3ccc(S(=O)(=O)[NH+]4CCCC4)cc3)cc2)c1C

>  <Energy>  (18) 
105.18150328547523

>  <Genealogy>  (18) 
Cc1[n-]oc(=NS(=O)(=O)c2ccc([N-]C(=O)c3ccc(S(=O)(=O)[NH+]4CCCC4)cc3)cc2)c1C (protonated)
Cc1[n-]oc(=NS(=O)(=O)c2ccc([N-]C(=O)c3ccc(S(=O)(=O)[NH+]4CCCC4)cc3)cc2)c1C (3D coordinates assigned)
Cc1[n-]oc(=NS(=O)(=O)c2ccc([N-]C(=O)c3ccc(S(=O)(=O)[NH+]4CCCC4)cc3)cc2)c1C (nonaromatic ring conformer: 105.18150328547523 kcal/mol)

>  <smiles>  (18) 
Cc1[nH]oc(=NS(=O)(=O)c2ccc(NC(=O)c3ccc(S(=O)(=O)N4CCCC4)cc3)cc2)c1C

>  <score_type>  (18) 
oracle

>  <origin>  (18) 
adgpu

>  <m_score__min__energy>  (18) 
-12.550000000000001

>  <m_primary>  (18) 
energy

$$$$
18:0
     RDKit          3D

 46 48  0  0  0  0  0  0  0  0999 V2000
   -3.7760   25.1520  -30.4770 N   0  0  0  0  0  0  0  0  0  0  0  0
   -3.9140   23.5570  -29.8290 S   0  0  0  0  0  0  0  0  0  0  0  0
   -2.6550   23.2090  -29.0860 O   0  0  0  0  0  0  0  0  0  0  0  0
   -5.0700   23.5010  -28.8710 O   0  0  0  0  0  0  0  0  0  0  0  0
   -4.1720   22.4090  -31.1400 C   0  0  0  0  0  0  0  0  0  0  0  0
   -5.3930   21.7340  -31.2580 C   0  0  0  0  0  0  0  0  0  0  0  0
   -5.5860   20.8100  -32.2870 C   0  0  0  0  0  0  0  0  0  0  0  0
   -4.5640   20.5550  -33.2050 C   0  0  0  0  0  0  0  0  0  0  0  0
   -3.3360   21.2360  -33.1050 C   0  0  0  0  0  0  0  0  0  0  0  0
   -2.2580   20.9710  -34.0200 N   0  0  0  0  0  0  0  0  0  0  0  0
   -0.8930   20.7800  -33.6100 C   0  0  0  0  0  0  0  0  0  0  0  0
   -0.6410   20.4250  -32.4270 O   0  0  0  0  0  0  0  0  0  0  0  0
    0.2200   20.9480  -34.5750 C   0  0  0  0  0  0  0  0  0  0  0  0
    0.9060   19.8320  -35.0880 C   0  0  0  0  0  0  0  0  0  0  0  0
    1.9430   20.0010  -36.0070 C   0  0  0  0  0  0  0  0  0  0  0  0
    2.3060   21.2790  -36.4370 C   0  0  0  0  0  0  0  0  0  0  0  0
    3.3400   21.4120  -37.3560 O   0  0  0  0  0  0  0  0  0  0  0  0
    1.6230   22.4060  -35.9460 C   0  0  0  0  0  0  0  0  0  0  0  0
    2.0340   24.0400  -36.4870 S   0  0  0  0  0  0  0  0  0  0  0  0
    1.0560   24.4780  -37.5420 O   0  0  0  0  0  0  0  0  0  0  0  0
    3.3970   24.0110  -37.1220 O   0  0  0  0  0  0  0  0  0  0  0  0
    2.0400   25.2080  -35.1800 N   0  0  0  0  0  0  0  0  0  0  0  0
    1.0010   26.2430  -35.3400 C   0  0  0  0  0  0  0  0  0  0  0  0
    1.4420   27.4130  -36.2500 C   0  0  0  0  0  0  0  0  0  0  0  0
    2.7920   27.3200  -36.6550 O   0  0  0  0  0  0  0  0  0  0  0  0
    3.6120   27.1410  -35.5250 C   0  0  0  0  0  0  0  0  0  0  0  0
    3.3830   25.7560  -34.8980 C   0  0  0  0  0  0  0  0  0  0  0  0
    0.5880   22.2310  -35.0140 C   0  0  0  0  0  0  0  0  0  0  0  0
   -3.1430   22.1470  -32.0570 C   0  0  0  0  0  0  0  0  0  0  0  0
   -2.7680   25.3000  -30.7100 H   0  0  0  0  0  0  0  0  0  0  0  0
   -6.2016   21.9319  -30.5389 H   0  0  0  0  0  0  0  0  0  0  0  0
   -6.5463   20.2808  -32.3752 H   0  0  0  0  0  0  0  0  0  0  0  0
   -4.7194   19.8198  -34.0084 H   0  0  0  0  0  0  0  0  0  0  0  0
   -2.4990   20.7980  -35.0220 H   0  0  0  0  0  0  0  0  0  0  0  0
    0.6234   18.8199  -34.7629 H   0  0  0  0  0  0  0  0  0  0  0  0
    2.4778   19.1216  -36.3951 H   0  0  0  0  0  0  0  0  0  0  0  0
    0.1071   25.7761  -35.7793 H   0  0  0  0  0  0  0  0  0  0  0  0
    0.8005   26.6619  -34.3429 H   0  0  0  0  0  0  0  0  0  0  0  0
    0.8064   27.4173  -37.1478 H   0  0  0  0  0  0  0  0  0  0  0  0
    1.3369   28.3401  -35.6673 H   0  0  0  0  0  0  0  0  0  0  0  0
    4.6661   27.2305  -35.8265 H   0  0  0  0  0  0  0  0  0  0  0  0
    3.3598   27.9109  -34.7809 H   0  0  0  0  0  0  0  0  0  0  0  0
    4.1360   25.0613  -35.2986 H   0  0  0  0  0  0  0  0  0  0  0  0
    3.4684   25.8710  -33.8074 H   0  0  0  0  0  0  0  0  0  0  0  0
    0.0574   23.1111  -34.6217 H   0  0  0  0  0  0  0  0  0  0  0  0
   -2.1761   22.6610  -31.9527 H   0  0  0  0  0  0  0  0  0  0  0  0
  1  2  1  0
  2  3  2  0
  2  4  2  0
  2  5  1  0
  5  6  2  0
  6  7  1  0
  7  8  2  0
  8  9  1  0
  9 10  1  0
 10 11  1  0
 11 12  2  0
 11 13  1  0
 13 14  2  0
 14 15  1  0
 15 16  2  0
 16 17  1  0
 16 18  1  0
 18 19  1  0
 19 20  2  0
 19 21  2  0
 19 22  1  0
 22 23  1  0
 23 24  1  0
 24 25  1  0
 25 26  1  0
 26 27  1  0
 18 28  2  0
  9 29  2  0
 29  5  1  0
 28 13  1  0
 27 22  1  0
  1 30  1  0
  6 31  1  0
  7 32  1  0
  8 33  1  0
 10 34  1  0
 14 35  1  0
 15 36  1  0
 23 37  1  0
 23 38  1  0
 24 39  1  0
 24 40  1  0
 26 41  1  0
 26 42  1  0
 27 43  1  0
 27 44  1  0
 28 45  1  0
 29 46  1  0
M  CHG  2   1  -1  17  -1
M  END
>  <UniqueID>  (19) 
17

>  <SMILES>  (19) 
[NH-]S(=O)(=O)c1cccc(NC(=O)c2ccc([O-])c(S(=O)(=O)N3CCOCC3)c2)c1

>  <Energy>  (19) 
64.64340047295872

>  <Genealogy>  (19) 
[NH-]S(=O)(=O)c1cccc(NC(=O)c2ccc([O-])c(S(=O)(=O)N3CCOCC3)c2)c1 (protonated)
[NH-]S(=O)(=O)c1cccc(NC(=O)c2ccc([O-])c(S(=O)(=O)N3CCOCC3)c2)c1 (3D coordinates assigned)
[NH-]S(=O)(=O)c1cccc(NC(=O)c2ccc([O-])c(S(=O)(=O)N3CCOCC3)c2)c1 (nonaromatic ring conformer: 64.64340047295872 kcal/mol)

>  <smiles>  (19) 
NS(=O)(=O)c1cccc(NC(=O)c2ccc(O)c(S(=O)(=O)N3CCOCC3)c2)c1

>  <score_type>  (19) 
oracle

>  <origin>  (19) 
adgpu

>  <m_score__min__energy>  (19) 
-11.710000000000001

>  <m_primary>  (19) 
energy

$$$$
19:0
     RDKit          3D

 54 56  0  0  0  0  0  0  0  0999 V2000
   -0.9370   18.0157  -34.9257 H   0  0  0  0  0  0  0  0  0  0  0  0
   -0.4690   19.0060  -35.0270 C   0  0  0  0  0  0  0  0  0  0  0  0
   -0.9990   20.1090  -34.3500 C   0  0  0  0  0  0  0  0  0  0  0  0
   -2.1180   19.9390  -33.4690 N   0  0  0  0  0  0  0  0  0  0  0  0
   -2.5730   19.0000  -33.4060 H   0  0  0  0  0  0  0  0  0  0  0  0
   -2.4830   20.9280  -32.4970 C   0  0  0  0  0  0  0  0  0  0  0  0
   -1.5410   21.3400  -31.5440 C   0  0  0  0  0  0  0  0  0  0  0  0
   -0.5510   20.8615  -31.5119 H   0  0  0  0  0  0  0  0  0  0  0  0
   -1.8510   22.3530  -30.6360 C   0  0  0  0  0  0  0  0  0  0  0  0
   -1.1062   22.6659  -29.8894 H   0  0  0  0  0  0  0  0  0  0  0  0
   -3.1060   22.9730  -30.6710 C   0  0  0  0  0  0  0  0  0  0  0  0
   -3.4480   24.0360  -29.7080 C   0  0  0  0  0  0  0  0  0  0  0  0
   -3.3420   23.8010  -28.4750 O   0  0  0  0  0  0  0  0  0  0  0  0
   -3.8750   25.3380  -30.1300 N   0  0  0  0  0  0  0  0  0  0  0  0
   -5.2150   25.6880  -30.5950 C   0  0  0  0  0  0  0  0  0  0  0  0
   -5.3248   25.3767  -31.6443 H   0  0  0  0  0  0  0  0  0  0  0  0
   -5.3464   26.7761  -30.5011 H   0  0  0  0  0  0  0  0  0  0  0  0
   -6.2820   24.9940  -29.7540 C   0  0  0  0  0  0  0  0  0  0  0  0
   -6.0592   25.1389  -28.6866 H   0  0  0  0  0  0  0  0  0  0  0  0
   -7.2678   25.4242  -29.9845 H   0  0  0  0  0  0  0  0  0  0  0  0
   -6.2884   23.9184  -29.9845 H   0  0  0  0  0  0  0  0  0  0  0  0
   -4.0420   22.5840  -31.6400 C   0  0  0  0  0  0  0  0  0  0  0  0
   -5.0108   23.1016  -31.6995 H   0  0  0  0  0  0  0  0  0  0  0  0
   -3.7560   21.5420  -32.5340 C   0  0  0  0  0  0  0  0  0  0  0  0
   -4.7900   21.0930  -33.4280 N   0  0  0  0  0  0  0  0  0  0  0  0
   -4.7360   21.3740  -34.4330 H   0  0  0  0  0  0  0  0  0  0  0  0
   -5.9410   20.3480  -32.9940 C   0  0  0  0  0  0  0  0  0  0  0  0
   -7.0490   21.0000  -32.3940 C   0  0  0  0  0  0  0  0  0  0  0  0
   -7.1090   22.4980  -32.2570 C   0  0  0  0  0  0  0  0  0  0  0  0
   -7.1198   22.7685  -31.1908 H   0  0  0  0  0  0  0  0  0  0  0  0
   -6.2281   22.9460  -32.7400 H   0  0  0  0  0  0  0  0  0  0  0  0
   -8.0229   22.8741  -32.7400 H   0  0  0  0  0  0  0  0  0  0  0  0
   -8.1170   20.2330  -31.9010 C   0  0  0  0  0  0  0  0  0  0  0  0
   -8.9574   20.7302  -31.3945 H   0  0  0  0  0  0  0  0  0  0  0  0
   -8.1210   18.8480  -32.0480 C   0  0  0  0  0  0  0  0  0  0  0  0
   -8.9629   18.2578  -31.6569 H   0  0  0  0  0  0  0  0  0  0  0  0
   -7.0620   18.2070  -32.6890 C   0  0  0  0  0  0  0  0  0  0  0  0
   -7.0871   17.1161  -32.8277 H   0  0  0  0  0  0  0  0  0  0  0  0
   -5.9630   18.9450  -33.1590 C   0  0  0  0  0  0  0  0  0  0  0  0
   -4.8310   18.2280  -33.8440 C   0  0  0  0  0  0  0  0  0  0  0  0
   -4.1564   17.8007  -33.0875 H   0  0  0  0  0  0  0  0  0  0  0  0
   -5.2352   17.4209  -34.4726 H   0  0  0  0  0  0  0  0  0  0  0  0
   -4.2740   18.9384  -34.4726 H   0  0  0  0  0  0  0  0  0  0  0  0
   -0.4090   21.3280  -34.4880 N   0  0  0  0  0  0  0  0  0  0  0  0
    0.6890   21.5270  -35.2670 C   0  0  0  0  0  0  0  0  0  0  0  0
    1.1920   22.7270  -35.3390 N   0  0  0  0  0  0  0  0  0  0  0  0
    2.3640   23.1220  -36.1140 C   0  0  0  0  0  0  0  0  0  0  0  0
    3.1803   23.3971  -35.4299 H   0  0  0  0  0  0  0  0  0  0  0  0
    2.6844   22.2822  -36.7481 H   0  0  0  0  0  0  0  0  0  0  0  0
    2.1107   23.9844  -36.7481 H   0  0  0  0  0  0  0  0  0  0  0  0
    1.2440   20.4320  -35.9580 C   0  0  0  0  0  0  0  0  0  0  0  0
    2.1323   20.5688  -36.5922 H   0  0  0  0  0  0  0  0  0  0  0  0
    0.6570   19.1720  -35.8310 C   0  0  0  0  0  0  0  0  0  0  0  0
    1.0832   18.3102  -36.3655 H   0  0  0  0  0  0  0  0  0  0  0  0
  1  2  1  0
  2  3  2  0
  3  4  1  0
  4  5  1  0
  4  6  1  0
  6  7  2  0
  7  8  1  0
  7  9  1  0
  9 10  1  0
  9 11  2  0
 11 12  1  0
 12 13  2  0
 12 14  1  0
 14 15  1  0
 15 16  1  0
 15 17  1  0
 15 18  1  0
 18 19  1  0
 18 20  1  0
 18 21  1  0
 11 22  1  0
 22 23  1  0
 22 24  2  0
 24 25  1  0
 25 26  1  0
 25 27  1  0
 27 28  2  0
 28 29  1  0
 29 30  1  0
 29 31  1  0
 29 32  1  0
 28 33  1  0
 33 34  1  0
 33 35  2  0
 35 36  1  0
 35 37  1  0
 37 38  1  0
 37 39  2  0
 39 40  1  0
 40 41  1  0
 40 42  1  0
 40 43  1  0
  3 44  1  0
 44 45  1  0
 45 46  2  0
 46 47  1  0
 47 48  1  0
 47 49  1  0
 47 50  1  0
 45 51  1  0
 51 52  1  0
 51 53  2  0
 53 54  1  0
 53  2  1  0
 24  6  1  0
 39 27  1  0
M  CHG  2  14  -1  44  -1
M  END
>  <UniqueID>  (20) 
18

>  <SMILES>  (20) 
CC[N-]C(=O)c1ccc(Nc2ccc/c(=N\C)[n-]2)c(Nc2c(C)cccc2C)c1

>  <Energy>  (20) 
68.34488802636484

>  <Genealogy>  (20) 
CC[N-]C(=O)c1ccc(Nc2cccc(=NC)[n-]2)c(Nc2c(C)cccc2C)c1 (protonated)
CC[N-]C(=O)c1ccc(Nc2ccc/c(=N\C)[n-]2)c(Nc2c(C)cccc2C)c1 (cis-trans isomerization)
CC[N-]C(=O)c1ccc(Nc2ccc/c(=N\C)[n-]2)c(Nc2c(C)cccc2C)c1 (3D coordinates assigned)
CC[N-]C(=O)c1ccc(Nc2ccc/c(=N\C)[n-]2)c(Nc2c(C)cccc2C)c1 (optimized conformer: 68.34488802636484 kcal/mol)

>  <smiles>  (20) 
CCNC(=O)c1ccc(Nc2cccc(=NC)[nH]2)c(Nc2c(C)cccc2C)c1

>  <score_type>  (20) 
oracle

>  <origin>  (20) 
adgpu

>  <m_score__min__energy>  (20) 
-11.619999999999999

>  <m_primary>  (20) 
energy

$$$$
20:0
     RDKit          3D

 34 36  0  0  0  0  0  0  0  0999 V2000
   -3.8400   22.3170  -31.8640 C   0  0  0  0  0  0  0  0  0  0  0  0
   -4.7150   23.2910  -31.1240 C   0  0  0  0  0  0  0  0  0  0  0  0
   -4.1940   23.9970  -30.0260 C   0  0  0  0  0  0  0  0  0  0  0  0
   -4.9890   24.9110  -29.3300 C   0  0  0  0  0  0  0  0  0  0  0  0
   -6.3050   25.1390  -29.7290 C   0  0  0  0  0  0  0  0  0  0  0  0
   -6.8320   24.4550  -30.8250 C   0  0  0  0  0  0  0  0  0  0  0  0
   -6.0510   23.5190  -31.5260 C   0  0  0  0  0  0  0  0  0  0  0  0
   -6.5920   22.8480  -32.6770 N   0  0  0  0  0  0  0  0  0  0  0  0
   -6.8930   21.4460  -32.7180 C   0  0  0  0  0  0  0  0  0  0  0  0
   -6.1090   20.5520  -33.2590 O   0  0  0  0  0  0  0  0  0  0  0  0
   -6.6890   19.3810  -33.0820 C   0  0  0  0  0  0  0  0  0  0  0  0
   -6.1180   18.1070  -33.5610 C   0  0  0  0  0  0  0  0  0  0  0  0
   -4.8580   18.0740  -34.1850 C   0  0  0  0  0  0  0  0  0  0  0  0
   -4.3240   16.8630  -34.6350 C   0  0  0  0  0  0  0  0  0  0  0  0
   -5.0410   15.6760  -34.4690 C   0  0  0  0  0  0  0  0  0  0  0  0
   -6.2940   15.6980  -33.8500 C   0  0  0  0  0  0  0  0  0  0  0  0
   -6.8320   16.9070  -33.3980 C   0  0  0  0  0  0  0  0  0  0  0  0
   -7.8600   19.4750  -32.4080 N   0  0  0  0  0  0  0  0  0  0  0  0
   -7.9840   20.7950  -32.1800 C   0  0  0  0  0  0  0  0  0  0  0  0
   -9.0470   21.3690  -31.4000 C   0  0  0  0  0  0  0  0  0  0  0  0
   -9.9010   21.8310  -30.7720 N   0  0  0  0  0  0  0  0  0  0  0  0
   -3.2857   21.6999  -31.1415 H   0  0  0  0  0  0  0  0  0  0  0  0
   -4.4653   21.6691  -32.4958 H   0  0  0  0  0  0  0  0  0  0  0  0
   -3.1291   22.8696  -32.4958 H   0  0  0  0  0  0  0  0  0  0  0  0
   -3.1531   23.8287  -29.7125 H   0  0  0  0  0  0  0  0  0  0  0  0
   -4.5758   25.4516  -28.4657 H   0  0  0  0  0  0  0  0  0  0  0  0
   -6.9288   25.8591  -29.1791 H   0  0  0  0  0  0  0  0  0  0  0  0
   -7.8668   24.6495  -31.1433 H   0  0  0  0  0  0  0  0  0  0  0  0
   -6.8390   23.4180  -33.5180 H   0  0  0  0  0  0  0  0  0  0  0  0
   -4.2897   19.0061  -34.3197 H   0  0  0  0  0  0  0  0  0  0  0  0
   -3.3372   16.8449  -35.1208 H   0  0  0  0  0  0  0  0  0  0  0  0
   -4.6198   14.7243  -34.8252 H   0  0  0  0  0  0  0  0  0  0  0  0
   -6.8578   14.7627  -33.7182 H   0  0  0  0  0  0  0  0  0  0  0  0
   -7.8189   16.9192  -32.9124 H   0  0  0  0  0  0  0  0  0  0  0  0
  1  2  1  0
  2  3  2  0
  3  4  1  0
  4  5  2  0
  5  6  1  0
  6  7  2  0
  7  8  1  0
  8  9  1  0
  9 10  1  0
 10 11  1  0
 11 12  1  0
 12 13  2  0
 13 14  1  0
 14 15  2  0
 15 16  1  0
 16 17  2  0
 11 18  2  0
 18 19  1  0
 19 20  1  0
 20 21  3  0
  7  2  1  0
 19  9  2  0
 17 12  1  0
  1 22  1  0
  1 23  1  0
  1 24  1  0
  3 25  1  0
  4 26  1  0
  5 27  1  0
  6 28  1  0
  8 29  1  0
 13 30  1  0
 14 31  1  0
 15 32  1  0
 16 33  1  0
 17 34  1  0
M  END
>  <UniqueID>  (21) 
19

>  <SMILES>  (21) 
Cc1ccccc1Nc1oc(-c2ccccc2)nc1C#N

>  <Energy>  (21) 
72.6532296061674

>  <Genealogy>  (21) 
Cc1ccccc1Nc1oc(-c2ccccc2)nc1C#N (3D coordinates assigned)
Cc1ccccc1Nc1oc(-c2ccccc2)nc1C#N (optimized conformer: 72.6532296061674 kcal/mol)

>  <smiles>  (21) 
Cc1ccccc1Nc1oc(-c2ccccc2)nc1C#N

>  <score_type>  (21) 
oracle

>  <origin>  (21) 
adgpu

>  <m_score__min__energy>  (21) 
-7.6200000000000001

>  <m_primary>  (21) 
energy

$$$$
21:0
     RDKit          3D

 57 60  0  0  0  0  0  0  0  0999 V2000
   -1.2520   22.4760  -29.8800 O   0  0  0  0  0  0  0  0  0  0  0  0
   -2.0570   23.4470  -29.9030 C   0  0  0  0  0  0  0  0  0  0  0  0
   -1.6720   24.7070  -29.3280 N   0  0  0  0  0  0  0  0  0  0  0  0
   -0.6400   24.8520  -28.3380 C   0  0  0  0  0  0  0  0  0  0  0  0
   -0.6390   25.9290  -27.4330 C   0  0  0  0  0  0  0  0  0  0  0  0
    0.3860   26.0580  -26.4910 C   0  0  0  0  0  0  0  0  0  0  0  0
    1.4210   25.1160  -26.4390 C   0  0  0  0  0  0  0  0  0  0  0  0
    2.7200   25.2880  -25.2580 S   0  0  0  0  0  0  0  0  0  0  0  0
    2.2740   24.6820  -23.9560 O   0  0  0  0  0  0  0  0  0  0  0  0
    3.9150   24.5100  -25.7340 O   0  0  0  0  0  0  0  0  0  0  0  0
    3.1890   26.9520  -24.9820 N   0  0  0  0  0  0  0  0  0  0  0  0
    4.3880   27.0930  -24.1330 C   0  0  0  0  0  0  0  0  0  0  0  0
    4.0450   27.2280  -22.6420 C   0  0  0  0  0  0  0  0  0  0  0  0
    3.1030   28.2560  -22.4350 O   0  0  0  0  0  0  0  0  0  0  0  0
    1.8900   27.9020  -23.0600 C   0  0  0  0  0  0  0  0  0  0  0  0
    2.0650   27.8230  -24.5840 C   0  0  0  0  0  0  0  0  0  0  0  0
    1.4420   24.0630  -27.3630 C   0  0  0  0  0  0  0  0  0  0  0  0
    0.4190   23.9340  -28.3060 C   0  0  0  0  0  0  0  0  0  0  0  0
   -3.3600   23.2950  -30.5920 C   0  0  0  0  0  0  0  0  0  0  0  0
   -3.7790   22.0160  -31.0040 C   0  0  0  0  0  0  0  0  0  0  0  0
   -5.0030   21.8430  -31.6630 C   0  0  0  0  0  0  0  0  0  0  0  0
   -5.5250   20.2340  -32.1570 S   0  0  0  0  0  0  0  0  0  0  0  0
   -4.5920   19.2010  -31.5860 O   0  0  0  0  0  0  0  0  0  0  0  0
   -5.4810   20.1390  -33.6580 O   0  0  0  0  0  0  0  0  0  0  0  0
   -7.1580   19.9610  -31.6050 N   0  0  0  0  0  0  0  0  0  0  0  0
   -7.5600   18.5690  -31.7990 C   0  0  0  0  0  0  0  0  0  0  0  0
   -9.0720   18.5720  -31.9440 C   0  0  0  0  0  0  0  0  0  0  0  0
   -9.4360   19.9970  -32.3340 C   0  0  0  0  0  0  0  0  0  0  0  0
   -8.1180   20.7540  -32.3720 C   0  0  0  0  0  0  0  0  0  0  0  0
   -5.8270   22.9480  -31.8970 C   0  0  0  0  0  0  0  0  0  0  0  0
   -5.4290   24.2190  -31.4810 C   0  0  0  0  0  0  0  0  0  0  0  0
   -4.2080   24.3990  -30.8250 C   0  0  0  0  0  0  0  0  0  0  0  0
   -3.8640   25.6720  -30.3840 O   0  0  0  0  0  0  0  0  0  0  0  0
   -2.0910   25.5750  -29.7320 H   0  0  0  0  0  0  0  0  0  0  0  0
   -1.4484   26.6731  -27.4667 H   0  0  0  0  0  0  0  0  0  0  0  0
    0.3795   26.9034  -25.7873 H   0  0  0  0  0  0  0  0  0  0  0  0
    5.0223   26.2047  -24.2693 H   0  0  0  0  0  0  0  0  0  0  0  0
    4.9063   28.0135  -24.4397 H   0  0  0  0  0  0  0  0  0  0  0  0
    3.6260   26.2771  -22.2810 H   0  0  0  0  0  0  0  0  0  0  0  0
    4.9638   27.4761  -22.0904 H   0  0  0  0  0  0  0  0  0  0  0  0
    1.5627   26.9218  -22.6832 H   0  0  0  0  0  0  0  0  0  0  0  0
    1.1374   28.6708  -22.8307 H   0  0  0  0  0  0  0  0  0  0  0  0
    1.1386   27.4263  -25.0249 H   0  0  0  0  0  0  0  0  0  0  0  0
    2.2850   28.8377  -24.9472 H   0  0  0  0  0  0  0  0  0  0  0  0
    2.2667   23.3353  -27.3460 H   0  0  0  0  0  0  0  0  0  0  0  0
    0.4448   23.1055  -29.0291 H   0  0  0  0  0  0  0  0  0  0  0  0
   -3.1389   21.1435  -30.8065 H   0  0  0  0  0  0  0  0  0  0  0  0
   -7.0921   18.1616  -32.7073 H   0  0  0  0  0  0  0  0  0  0  0  0
   -7.2432   17.9422  -30.9524 H   0  0  0  0  0  0  0  0  0  0  0  0
   -9.3852   17.8663  -32.7275 H   0  0  0  0  0  0  0  0  0  0  0  0
   -9.5733   18.2605  -31.0157 H   0  0  0  0  0  0  0  0  0  0  0  0
   -9.9184   20.0143  -33.3224 H   0  0  0  0  0  0  0  0  0  0  0  0
  -10.1460   20.4468  -31.6243 H   0  0  0  0  0  0  0  0  0  0  0  0
   -7.7741   20.8653  -33.4109 H   0  0  0  0  0  0  0  0  0  0  0  0
   -8.2278   21.7629  -31.9476 H   0  0  0  0  0  0  0  0  0  0  0  0
   -6.7909   22.8151  -32.4100 H   0  0  0  0  0  0  0  0  0  0  0  0
   -6.0804   25.0849  -31.6705 H   0  0  0  0  0  0  0  0  0  0  0  0
  1  2  2  0
  2  3  1  0
  3  4  1  0
  4  5  2  0
  5  6  1  0
  6  7  2  0
  7  8  1  0
  8  9  2  0
  8 10  2  0
  8 11  1  0
 11 12  1  0
 12 13  1  0
 13 14  1  0
 14 15  1  0
 15 16  1  0
  7 17  1  0
 17 18  2  0
  2 19  1  0
 19 20  2  0
 20 21  1  0
 21 22  1  0
 22 23  2  0
 22 24  2  0
 22 25  1  0
 25 26  1  0
 26 27  1  0
 27 28  1  0
 28 29  1  0
 21 30  2  0
 30 31  1  0
 31 32  2  0
 32 33  1  0
 18  4  1  0
 32 19  1  0
 16 11  1  0
 29 25  1  0
  3 34  1  0
  5 35  1  0
  6 36  1  0
 12 37  1  0
 12 38  1  0
 13 39  1  0
 13 40  1  0
 15 41  1  0
 15 42  1  0
 16 43  1  0
 16 44  1  0
 17 45  1  0
 18 46  1  0
 20 47  1  0
 26 48  1  0
 26 49  1  0
 27 50  1  0
 27 51  1  0
 28 52  1  0
 28 53  1  0
 29 54  1  0
 29 55  1  0
 30 56  1  0
 31 57  1  0
M  CHG  1  33  -1
M  END
>  <UniqueID>  (22) 
20

>  <SMILES>  (22) 
O=C(Nc1ccc(S(=O)(=O)N2CCOCC2)cc1)c1cc(S(=O)(=O)N2CCCC2)ccc1[O-]

>  <Energy>  (22) 
72.55421440126814

>  <Genealogy>  (22) 
O=C(Nc1ccc(S(=O)(=O)N2CCOCC2)cc1)c1cc(S(=O)(=O)N2CCCC2)ccc1[O-] (protonated)
O=C(Nc1ccc(S(=O)(=O)N2CCOCC2)cc1)c1cc(S(=O)(=O)N2CCCC2)ccc1[O-] (3D coordinates assigned)
O=C(Nc1ccc(S(=O)(=O)N2CCOCC2)cc1)c1cc(S(=O)(=O)N2CCCC2)ccc1[O-] (nonaromatic ring conformer: 72.55421440126814 kcal/mol)

>  <smiles>  (22) 
O=C(Nc1ccc(S(=O)(=O)N2CCOCC2)cc1)c1cc(S(=O)(=O)N2CCCC2)ccc1O

>  <score_type>  (22) 
oracle

>  <origin>  (22) 
adgpu

>  <m_score__min__energy>  (22) 
-12.470000000000001

>  <m_primary>  (22) 
energy

$$$$
22:0
     RDKit          3D

 66 70  0  0  0  0  0  0  0  0999 V2000
   -9.3550   19.1750  -32.0140 C   0  0  0  0  0  0  0  0  0  0  0  0
   -8.2640   20.1820  -32.2720 C   0  0  0  0  0  0  0  0  0  0  0  0
   -7.2170   19.8860  -33.1550 C   0  0  0  0  0  0  0  0  0  0  0  0
   -7.2020   18.6610  -33.8330 O   0  0  0  0  0  0  0  0  0  0  0  0
   -6.6370   17.4590  -33.3040 C   0  0  2  0  0  0  0  0  0  0  0  0
   -5.7350   17.8040  -32.1020 C   0  0  0  0  0  0  0  0  0  0  0  0
   -4.2650   18.0720  -32.4990 C   0  0  0  0  0  0  0  0  0  0  0  0
   -4.1650   18.5720  -33.8880 N   0  0  1  0  0  0  0  0  0  0  0  0
   -2.8200   19.1140  -34.2100 C   0  0  0  0  0  0  0  0  0  0  0  0
   -2.2780   20.1060  -33.1980 C   0  0  0  0  0  0  0  0  0  0  0  0
   -3.0860   21.1510  -32.7190 C   0  0  0  0  0  0  0  0  0  0  0  0
   -2.5930   22.0480  -31.7660 C   0  0  0  0  0  0  0  0  0  0  0  0
   -1.2940   21.9020  -31.2740 C   0  0  0  0  0  0  0  0  0  0  0  0
   -0.4850   20.8620  -31.7370 C   0  0  0  0  0  0  0  0  0  0  0  0
   -0.9750   19.9620  -32.6880 C   0  0  0  0  0  0  0  0  0  0  0  0
   -4.6160   17.5540  -34.8740 C   0  0  0  0  0  0  0  0  0  0  0  0
   -5.8290   16.7270  -34.3860 C   0  0  0  0  0  0  0  0  0  0  0  0
   -6.2260   20.7930  -33.3490 N   0  0  0  0  0  0  0  0  0  0  0  0
   -6.2130   21.9800  -32.6940 C   0  0  0  0  0  0  0  0  0  0  0  0
   -7.1990   22.2930  -31.8020 N   0  0  0  0  0  0  0  0  0  0  0  0
   -7.1720   23.6010  -31.1270 C   0  0  0  0  0  0  0  0  0  0  0  0
   -5.8510   23.8020  -30.4310 C   0  0  0  0  0  0  0  0  0  0  0  0
   -5.4510   22.9370  -29.4040 C   0  0  0  0  0  0  0  0  0  0  0  0
   -4.2060   23.1020  -28.7930 C   0  0  0  0  0  0  0  0  0  0  0  0
   -3.3600   24.1450  -29.2100 C   0  0  0  0  0  0  0  0  0  0  0  0
   -2.0200   24.3590  -28.6020 C   0  0  0  0  0  0  0  0  0  0  0  0
   -1.1250   23.2880  -28.3910 C   0  0  0  0  0  0  0  0  0  0  0  0
    0.1300   23.5140  -27.8150 C   0  0  0  0  0  0  0  0  0  0  0  0
    0.5030   24.8050  -27.4340 C   0  0  0  0  0  0  0  0  0  0  0  0
   -0.3770   25.8720  -27.6250 C   0  0  0  0  0  0  0  0  0  0  0  0
   -1.6310   25.6520  -28.2020 C   0  0  0  0  0  0  0  0  0  0  0  0
   -3.7710   24.9660  -30.2180 N   0  0  0  0  0  0  0  0  0  0  0  0
   -4.9760   24.8210  -30.8290 C   0  0  0  0  0  0  0  0  0  0  0  0
   -8.2220   21.4070  -31.5790 C   0  0  0  0  0  0  0  0  0  0  0  0
   -9.1320   21.6850  -30.7500 O   0  0  0  0  0  0  0  0  0  0  0  0
   -9.4900   19.0504  -30.9294 H   0  0  0  0  0  0  0  0  0  0  0  0
  -10.2949   19.5297  -32.4621 H   0  0  0  0  0  0  0  0  0  0  0  0
   -9.0765   18.2098  -32.4621 H   0  0  0  0  0  0  0  0  0  0  0  0
   -7.4470   16.7937  -32.9703 H   0  0  0  0  0  0  0  0  0  0  0  0
   -6.1344   18.7045  -31.6126 H   0  0  0  0  0  0  0  0  0  0  0  0
   -5.7380   16.9324  -31.4310 H   0  0  0  0  0  0  0  0  0  0  0  0
   -3.8409   18.8232  -31.8165 H   0  0  0  0  0  0  0  0  0  0  0  0
   -3.7091   17.1253  -32.4303 H   0  0  0  0  0  0  0  0  0  0  0  0
   -4.8110   19.3940  -33.9690 H   0  0  0  0  0  0  0  0  0  0  0  0
   -2.1168   18.2705  -34.2737 H   0  0  0  0  0  0  0  0  0  0  0  0
   -2.9245   19.6624  -35.1578 H   0  0  0  0  0  0  0  0  0  0  0  0
   -4.1131   21.2643  -33.0961 H   0  0  0  0  0  0  0  0  0  0  0  0
   -3.2288   22.8692  -31.4036 H   0  0  0  0  0  0  0  0  0  0  0  0
   -0.9082   22.6060  -30.5220 H   0  0  0  0  0  0  0  0  0  0  0  0
    0.5397   20.7508  -31.3527 H   0  0  0  0  0  0  0  0  0  0  0  0
   -0.3381   19.1368  -33.0393 H   0  0  0  0  0  0  0  0  0  0  0  0
   -4.8959   18.0690  -35.8048 H   0  0  0  0  0  0  0  0  0  0  0  0
   -3.7819   16.8528  -35.0240 H   0  0  0  0  0  0  0  0  0  0  0  0
   -6.4877   16.5255  -35.2436 H   0  0  0  0  0  0  0  0  0  0  0  0
   -5.4453   15.7947  -33.9461 H   0  0  0  0  0  0  0  0  0  0  0  0
   -5.4009   22.6976  -32.8826 H   0  0  0  0  0  0  0  0  0  0  0  0
   -7.3144   24.3972  -31.8725 H   0  0  0  0  0  0  0  0  0  0  0  0
   -7.9791   23.6356  -30.3805 H   0  0  0  0  0  0  0  0  0  0  0  0
   -6.1190   22.1261  -29.0782 H   0  0  0  0  0  0  0  0  0  0  0  0
   -3.8890   22.4200  -27.9902 H   0  0  0  0  0  0  0  0  0  0  0  0
   -1.4164   22.2679  -28.6816 H   0  0  0  0  0  0  0  0  0  0  0  0
    0.8236   22.6741  -27.6621 H   0  0  0  0  0  0  0  0  0  0  0  0
    1.4908   24.9812  -26.9831 H   0  0  0  0  0  0  0  0  0  0  0  0
   -0.0830   26.8874  -27.3209 H   0  0  0  0  0  0  0  0  0  0  0  0
   -2.3206   26.4970  -28.3450 H   0  0  0  0  0  0  0  0  0  0  0  0
   -5.2655   25.5064  -31.6392 H   0  0  0  0  0  0  0  0  0  0  0  0
  1  2  1  0
  2  3  2  0
  3  4  1  0
  4  5  1  0
  5  6  1  0
  6  7  1  0
  7  8  1  0
  8  9  1  0
  9 10  1  0
 10 11  2  0
 11 12  1  0
 12 13  2  0
 13 14  1  0
 14 15  2  0
  8 16  1  0
 16 17  1  0
  3 18  1  0
 18 19  2  0
 19 20  1  0
 20 21  1  0
 21 22  1  0
 22 23  2  0
 23 24  1  0
 24 25  2  0
 25 26  1  0
 26 27  2  0
 27 28  1  0
 28 29  2  0
 29 30  1  0
 30 31  2  0
 25 32  1  0
 32 33  2  0
 20 34  1  0
 34 35  2  0
 34  2  1  0
 17  5  1  0
 33 22  1  0
 15 10  1  0
 31 26  1  0
  1 36  1  0
  1 37  1  0
  1 38  1  0
  5 39  1  1
  6 40  1  0
  6 41  1  0
  7 42  1  0
  7 43  1  0
  8 44  1  1
  9 45  1  0
  9 46  1  0
 11 47  1  0
 12 48  1  0
 13 49  1  0
 14 50  1  0
 15 51  1  0
 16 52  1  0
 16 53  1  0
 17 54  1  0
 17 55  1  0
 19 56  1  0
 21 57  1  0
 21 58  1  0
 23 59  1  0
 24 60  1  0
 27 61  1  0
 28 62  1  0
 29 63  1  0
 30 64  1  0
 31 65  1  0
 33 66  1  0
M  CHG  1   8   1
M  END
>  <UniqueID>  (23) 
21

>  <SMILES>  (23) 
Cc1c(OC2CC[NH+](Cc3ccccc3)CC2)ncn(Cc2ccc(-c3ccccc3)nc2)c1=O

>  <Energy>  (23) 
86.83627725402549

>  <Genealogy>  (23) 
Cc1c(OC2CC[NH+](Cc3ccccc3)CC2)ncn(Cc2ccc(-c3ccccc3)nc2)c1=O (protonated)
Cc1c(OC2CC[NH+](Cc3ccccc3)CC2)ncn(Cc2ccc(-c3ccccc3)nc2)c1=O (3D coordinates assigned)
Cc1c(OC2CC[NH+](Cc3ccccc3)CC2)ncn(Cc2ccc(-c3ccccc3)nc2)c1=O (nonaromatic ring conformer: 86.83627725402549 kcal/mol)

>  <smiles>  (23) 
Cc1c(OC2CCN(Cc3ccccc3)CC2)ncn(Cc2ccc(-c3ccccc3)nc2)c1=O

>  <score_type>  (23) 
oracle

>  <origin>  (23) 
adgpu

>  <m_score__min__energy>  (23) 
-9.3699999999999992

>  <m_primary>  (23) 
energy

$$$$
23:0
     RDKit          3D

 62 65  0  0  0  0  0  0  0  0999 V2000
   -0.5750   19.0790  -29.2570 C   0  0  0  0  0  0  0  0  0  0  0  0
   -0.5420   20.0970  -28.1500 C   0  0  0  0  0  0  0  0  0  0  0  0
    0.3410   21.1860  -28.2440 C   0  0  0  0  0  0  0  0  0  0  0  0
    0.4090   22.1380  -27.2280 C   0  0  0  0  0  0  0  0  0  0  0  0
   -0.4070   22.0190  -26.0980 C   0  0  0  0  0  0  0  0  0  0  0  0
   -0.2890   23.1920  -24.7910 S   0  0  0  0  0  0  0  0  0  0  0  0
    1.1360   23.6530  -24.6800 O   0  0  0  0  0  0  0  0  0  0  0  0
   -0.6870   22.5590  -23.4880 O   0  0  0  0  0  0  0  0  0  0  0  0
   -1.3060   24.5610  -25.1010 N   0  0  0  0  0  0  0  0  0  0  0  0
   -0.8250   25.6860  -25.8430 C   0  0  0  0  0  0  0  0  0  0  0  0
    0.0640   26.5830  -25.2280 C   0  0  0  0  0  0  0  0  0  0  0  0
    0.5100   27.7180  -25.9050 C   0  0  0  0  0  0  0  0  0  0  0  0
    0.0540   27.9860  -27.1940 C   0  0  0  0  0  0  0  0  0  0  0  0
   -0.8470   27.1170  -27.8130 C   0  0  0  0  0  0  0  0  0  0  0  0
   -1.2930   25.9560  -27.1550 C   0  0  0  0  0  0  0  0  0  0  0  0
   -2.2040   25.0340  -27.8760 C   0  0  0  0  0  0  0  0  0  0  0  0
   -2.8500   24.1550  -27.2460 O   0  0  0  0  0  0  0  0  0  0  0  0
   -2.3630   25.1640  -29.2950 N   0  0  0  0  0  0  0  0  0  0  0  0
   -3.4230   24.6170  -30.0910 C   0  0  0  0  0  0  0  0  0  0  0  0
   -4.7090   25.1870  -30.1160 C   0  0  0  0  0  0  0  0  0  0  0  0
   -5.7270   24.5910  -30.8650 C   0  0  0  0  0  0  0  0  0  0  0  0
   -5.4770   23.4180  -31.5810 C   0  0  0  0  0  0  0  0  0  0  0  0
   -4.2030   22.8350  -31.5530 C   0  0  0  0  0  0  0  0  0  0  0  0
   -3.8720   21.3500  -32.4380 S   0  0  0  0  0  0  0  0  0  0  0  0
   -2.8260   21.6340  -33.4790 O   0  0  0  0  0  0  0  0  0  0  0  0
   -3.3360   20.2890  -31.5190 O   0  0  0  0  0  0  0  0  0  0  0  0
   -5.3180   20.7940  -33.2230 N   0  0  0  0  0  0  0  0  0  0  0  0
   -6.0200   19.7740  -32.8140 C   0  0  0  0  0  0  0  0  0  0  0  0
   -5.7020   18.9100  -31.6480 C   0  0  0  0  0  0  0  0  0  0  0  0
   -6.8640   17.9060  -31.6130 C   0  0  0  0  0  0  0  0  0  0  0  0
   -7.7390   18.1710  -32.8520 C   0  0  0  0  0  0  0  0  0  0  0  0
   -7.1920   19.3530  -33.4830 N   0  0  0  0  0  0  0  0  0  0  0  0
   -3.1830   23.4350  -30.8030 C   0  0  0  0  0  0  0  0  0  0  0  0
   -1.2870   20.9350  -25.9870 C   0  0  0  0  0  0  0  0  0  0  0  0
   -1.3600   19.9630  -27.0000 C   0  0  0  0  0  0  0  0  0  0  0  0
   -2.3240   18.8140  -26.8530 C   0  0  0  0  0  0  0  0  0  0  0  0
   -0.6078   18.0681  -28.8246 H   0  0  0  0  0  0  0  0  0  0  0  0
   -1.4684   19.2414  -29.8779 H   0  0  0  0  0  0  0  0  0  0  0  0
    0.3270   19.1832  -29.8779 H   0  0  0  0  0  0  0  0  0  0  0  0
    0.9858   21.2884  -29.1293 H   0  0  0  0  0  0  0  0  0  0  0  0
    1.1058   22.9847  -27.3150 H   0  0  0  0  0  0  0  0  0  0  0  0
   -2.3350   24.4410  -24.9750 H   0  0  0  0  0  0  0  0  0  0  0  0
    0.4118   26.3885  -24.2027 H   0  0  0  0  0  0  0  0  0  0  0  0
    1.2224   28.4021  -25.4208 H   0  0  0  0  0  0  0  0  0  0  0  0
    0.4043   28.8835  -27.7249 H   0  0  0  0  0  0  0  0  0  0  0  0
   -1.2120   27.3426  -28.8259 H   0  0  0  0  0  0  0  0  0  0  0  0
   -4.9136   26.1043  -29.5444 H   0  0  0  0  0  0  0  0  0  0  0  0
   -6.7278   25.0467  -30.8908 H   0  0  0  0  0  0  0  0  0  0  0  0
   -6.2817   22.9510  -32.1679 H   0  0  0  0  0  0  0  0  0  0  0  0
   -5.6370   21.3250  -34.0660 H   0  0  0  0  0  0  0  0  0  0  0  0
   -4.7415   18.3938  -31.7924 H   0  0  0  0  0  0  0  0  0  0  0  0
   -5.6000   19.4776  -30.7113 H   0  0  0  0  0  0  0  0  0  0  0  0
   -6.4736   16.8780  -31.6413 H   0  0  0  0  0  0  0  0  0  0  0  0
   -7.4513   18.0237  -30.6904 H   0  0  0  0  0  0  0  0  0  0  0  0
   -7.6945   17.3148  -33.5412 H   0  0  0  0  0  0  0  0  0  0  0  0
   -8.7942   18.3140  -32.5762 H   0  0  0  0  0  0  0  0  0  0  0  0
   -7.5830   19.7970  -34.3420 H   0  0  0  0  0  0  0  0  0  0  0  0
   -2.1849   22.9737  -30.7731 H   0  0  0  0  0  0  0  0  0  0  0  0
   -1.9278   20.8433  -25.0977 H   0  0  0  0  0  0  0  0  0  0  0  0
   -2.4935   18.6119  -25.7851 H   0  0  0  0  0  0  0  0  0  0  0  0
   -3.2791   19.0730  -27.3333 H   0  0  0  0  0  0  0  0  0  0  0  0
   -1.9030   17.9184  -27.3333 H   0  0  0  0  0  0  0  0  0  0  0  0
  1  2  1  0
  2  3  2  0
  3  4  1  0
  4  5  2  0
  5  6  1  0
  6  7  2  0
  6  8  2  0
  6  9  1  0
  9 10  1  0
 10 11  2  0
 11 12  1  0
 12 13  2  0
 13 14  1  0
 14 15  2  0
 15 16  1  0
 16 17  2  0
 16 18  1  0
 18 19  1  0
 19 20  2  0
 20 21  1  0
 21 22  2  0
 22 23  1  0
 23 24  1  0
 24 25  2  0
 24 26  2  0
 24 27  1  0
 27 28  2  3
 28 29  1  0
 29 30  1  0
 30 31  1  0
 31 32  1  0
 23 33  2  0
  5 34  1  0
 34 35  2  0
 35 36  1  0
 35  2  1  0
 15 10  1  0
 33 19  1  0
 32 28  1  0
  1 37  1  0
  1 38  1  0
  1 39  1  0
  3 40  1  0
  4 41  1  0
  9 42  1  0
 11 43  1  0
 12 44  1  0
 13 45  1  0
 14 46  1  0
 20 47  1  0
 21 48  1  0
 22 49  1  0
 27 50  1  0
 29 51  1  0
 29 52  1  0
 30 53  1  0
 30 54  1  0
 31 55  1  0
 31 56  1  0
 32 57  1  0
 33 58  1  0
 34 59  1  0
 36 60  1  0
 36 61  1  0
 36 62  1  0
M  CHG  2  18  -1  27   1
M  END
>  <UniqueID>  (24) 
22

>  <SMILES>  (24) 
Cc1ccc(S(=O)(=O)Nc2ccccc2C(=O)[N-]c2cccc(S(=O)(=O)[NH+]=C3CCCN3)c2)cc1C

>  <Energy>  (24) 
87.0051841183932

>  <Genealogy>  (24) 
Cc1ccc(S(=O)(=O)Nc2ccccc2C(=O)[N-]c2cccc(S(=O)(=O)[NH+]=C3CCCN3)c2)cc1C (protonated)
Cc1ccc(S(=O)(=O)Nc2ccccc2C(=O)[N-]c2cccc(S(=O)(=O)[NH+]=C3CCCN3)c2)cc1C (3D coordinates assigned)
Cc1ccc(S(=O)(=O)Nc2ccccc2C(=O)[N-]c2cccc(S(=O)(=O)[NH+]=C3CCCN3)c2)cc1C (nonaromatic ring conformer: 87.0051841183932 kcal/mol)

>  <smiles>  (24) 
Cc1ccc(S(=O)(=O)Nc2ccccc2C(=O)Nc2cccc(S(=O)(=O)N=C3CCCN3)c2)cc1C

>  <score_type>  (24) 
oracle

>  <origin>  (24) 
adgpu

>  <m_score__min__energy>  (24) 
-12.390000000000001

>  <m_primary>  (24) 
energy

$$$$
24:0
     RDKit          3D

 47 50  0  0  0  0  0  0  0  0999 V2000
   -3.4720   21.4160  -28.3500 C   0  0  0  0  0  0  0  0  0  0  0  0
   -3.2670   20.7170  -29.5560 O   0  0  0  0  0  0  0  0  0  0  0  0
   -3.0310   21.5530  -30.6890 C   0  0  1  0  0  0  0  0  0  0  0  0
   -2.2030   20.8710  -31.7800 C   0  0  0  0  0  0  0  0  0  0  0  0
   -1.1780   19.9710  -31.4180 C   0  0  0  0  0  0  0  0  0  0  0  0
   -0.4030   19.3390  -32.3930 C   0  0  0  0  0  0  0  0  0  0  0  0
   -0.6270   19.6060  -33.7450 C   0  0  0  0  0  0  0  0  0  0  0  0
    0.3320   18.7950  -34.9690 Cl  0  0  0  0  0  0  0  0  0  0  0  0
   -1.6120   20.5220  -34.1200 C   0  0  0  0  0  0  0  0  0  0  0  0
   -2.3860   21.1610  -33.1470 C   0  0  0  0  0  0  0  0  0  0  0  0
   -4.4070   21.8460  -31.2510 C   0  0  0  0  0  0  0  0  0  0  0  0
   -5.3360   20.9370  -31.7690 C   0  0  0  0  0  0  0  0  0  0  0  0
   -6.5770   21.4220  -32.2170 C   0  0  0  0  0  0  0  0  0  0  0  0
   -6.8760   22.7960  -32.1330 C   0  0  0  0  0  0  0  0  0  0  0  0
   -5.9380   23.6930  -31.6010 C   0  0  0  0  0  0  0  0  0  0  0  0
   -4.7150   23.1830  -31.1660 C   0  0  0  0  0  0  0  0  0  0  0  0
   -3.5810   23.8530  -30.5970 C   0  0  0  0  0  0  0  0  0  0  0  0
   -3.5160   25.0870  -30.3520 O   0  0  0  0  0  0  0  0  0  0  0  0
   -2.5260   22.9210  -30.3400 N   0  0  0  0  0  0  0  0  0  0  0  0
   -1.1450   23.3590  -30.0360 C   0  0  0  0  0  0  0  0  0  0  0  0
   -0.9860   23.8310  -28.6080 C   0  0  0  0  0  0  0  0  0  0  0  0
   -0.8050   22.8960  -27.5720 C   0  0  0  0  0  0  0  0  0  0  0  0
   -0.7820   21.5640  -27.8280 F   0  0  0  0  0  0  0  0  0  0  0  0
   -0.6350   23.3280  -26.2580 C   0  0  0  0  0  0  0  0  0  0  0  0
   -0.6440   24.6880  -25.9570 C   0  0  0  0  0  0  0  0  0  0  0  0
   -0.8330   25.6490  -26.9670 C   0  0  0  0  0  0  0  0  0  0  0  0
   -0.8260   27.0920  -26.6030 C   0  0  0  0  0  0  0  0  0  0  0  0
   -1.2420   27.5340  -25.3130 N   0  0  0  0  0  0  0  0  0  0  0  0
   -0.4580   27.9530  -27.4490 O   0  0  0  0  0  0  0  0  0  0  0  0
   -1.0190   25.2080  -28.3000 C   0  0  0  0  0  0  0  0  0  0  0  0
   -1.2410   26.1280  -29.3200 O   0  0  0  0  0  0  0  0  0  0  0  0
   -3.2755   20.7461  -27.4999 H   0  0  0  0  0  0  0  0  0  0  0  0
   -2.7884   22.2766  -28.3042 H   0  0  0  0  0  0  0  0  0  0  0  0
   -4.5121   21.7711  -28.3042 H   0  0  0  0  0  0  0  0  0  0  0  0
   -0.9870   19.7647  -30.3545 H   0  0  0  0  0  0  0  0  0  0  0  0
    0.3842   18.6306  -32.0956 H   0  0  0  0  0  0  0  0  0  0  0  0
   -1.7795   20.7415  -35.1848 H   0  0  0  0  0  0  0  0  0  0  0  0
   -3.1449   21.8970  -33.4511 H   0  0  0  0  0  0  0  0  0  0  0  0
   -5.0999   19.8641  -31.8246 H   0  0  0  0  0  0  0  0  0  0  0  0
   -7.3183   20.7252  -32.6352 H   0  0  0  0  0  0  0  0  0  0  0  0
   -7.8494   23.1671  -32.4862 H   0  0  0  0  0  0  0  0  0  0  0  0
   -6.1606   24.7678  -31.5290 H   0  0  0  0  0  0  0  0  0  0  0  0
   -0.4618   22.5138  -30.2059 H   0  0  0  0  0  0  0  0  0  0  0  0
   -0.9117   24.2079  -30.6956 H   0  0  0  0  0  0  0  0  0  0  0  0
   -0.4929   22.5908  -25.4540 H   0  0  0  0  0  0  0  0  0  0  0  0
   -0.5015   25.0148  -24.9164 H   0  0  0  0  0  0  0  0  0  0  0  0
   -2.2340   27.4300  -25.0030 H   0  0  0  0  0  0  0  0  0  0  0  0
  1  2  1  0
  3  2  1  1
  3  4  1  0
  4  5  2  0
  5  6  1  0
  6  7  2  0
  7  8  1  0
  7  9  1  0
  9 10  2  0
  3 11  1  0
 11 12  2  0
 12 13  1  0
 13 14  2  0
 14 15  1  0
 15 16  2  0
 16 17  1  0
 17 18  2  0
 17 19  1  0
 19 20  1  0
 20 21  1  0
 21 22  2  0
 22 23  1  0
 22 24  1  0
 24 25  2  0
 25 26  1  0
 26 27  1  0
 27 28  1  0
 27 29  2  0
 26 30  2  0
 30 31  1  0
 19  3  1  0
 30 21  1  0
 10  4  1  0
 16 11  1  0
  1 32  1  0
  1 33  1  0
  1 34  1  0
  5 35  1  0
  6 36  1  0
  9 37  1  0
 10 38  1  0
 12 39  1  0
 13 40  1  0
 14 41  1  0
 15 42  1  0
 20 43  1  0
 20 44  1  0
 24 45  1  0
 25 46  1  0
 28 47  1  0
M  CHG  2  28  -1  31  -1
M  END
>  <UniqueID>  (25) 
23

>  <SMILES>  (25) 
CO[C@@]1(c2ccc(Cl)cc2)c2ccccc2C(=O)N1Cc1c(F)ccc(C([NH-])=O)c1[O-]

>  <Energy>  (25) 
86.60035299758661

>  <Genealogy>  (25) 
COC1(c2ccc(Cl)cc2)c2ccccc2C(=O)N1Cc1c(F)ccc(C([NH-])=O)c1[O-] (protonated)
CO[C@@]1(c2ccc(Cl)cc2)c2ccccc2C(=O)N1Cc1c(F)ccc(C([NH-])=O)c1[O-] (chirality)
CO[C@@]1(c2ccc(Cl)cc2)c2ccccc2C(=O)N1Cc1c(F)ccc(C([NH-])=O)c1[O-] (3D coordinates assigned)
CO[C@@]1(c2ccc(Cl)cc2)c2ccccc2C(=O)N1Cc1c(F)ccc(C([NH-])=O)c1[O-] (nonaromatic ring conformer: 86.60035299758661 kcal/mol)

>  <smiles>  (25) 
COC1(c2ccc(Cl)cc2)c2ccccc2C(=O)N1Cc1c(F)ccc(C(N)=O)c1O

>  <score_type>  (25) 
oracle

>  <origin>  (25) 
adgpu

>  <m_score__min__energy>  (25) 
-11.02

>  <m_primary>  (25) 
energy

$$$$
25:0
     RDKit          3D

 51 54  0  0  0  0  0  0  0  0999 V2000
    1.6580   20.3200  -36.2020 C   0  0  0  0  0  0  0  0  0  0  0  0
    0.7060   20.7770  -34.7660 S   0  0  0  0  0  0  0  0  0  0  0  0
    0.2410   22.1990  -34.9410 O   0  0  0  0  0  0  0  0  0  0  0  0
    1.5600   20.7100  -33.5300 O   0  0  0  0  0  0  0  0  0  0  0  0
   -0.6900   19.6980  -34.6020 C   0  0  0  0  0  0  0  0  0  0  0  0
   -0.5330   18.3440  -34.9390 C   0  0  0  0  0  0  0  0  0  0  0  0
   -1.5960   17.4490  -34.8150 C   0  0  0  0  0  0  0  0  0  0  0  0
   -2.8440   17.8910  -34.3590 C   0  0  0  0  0  0  0  0  0  0  0  0
   -3.9720   16.9140  -34.1690 C   0  0  0  0  0  0  0  0  0  0  0  0
   -5.2520   17.6560  -33.9300 C   0  0  0  0  0  0  0  0  0  0  0  0
   -6.0790   17.7750  -34.8760 O   0  0  0  0  0  0  0  0  0  0  0  0
   -5.5730   18.1230  -32.6100 N   0  0  0  0  0  0  0  0  0  0  0  0
   -6.7780   18.8320  -32.2730 C   0  0  0  0  0  0  0  0  0  0  0  0
   -7.9880   18.1550  -32.0360 C   0  0  0  0  0  0  0  0  0  0  0  0
   -9.1470   18.8730  -31.7350 C   0  0  0  0  0  0  0  0  0  0  0  0
   -9.1150   20.2680  -31.6740 C   0  0  0  0  0  0  0  0  0  0  0  0
   -7.9180   20.9640  -31.9120 C   0  0  0  0  0  0  0  0  0  0  0  0
   -7.8990   22.4460  -31.8700 C   0  0  0  0  0  0  0  0  0  0  0  0
   -8.8820   23.0810  -32.3400 O   0  0  0  0  0  0  0  0  0  0  0  0
   -6.7630   23.2100  -31.3020 C   0  0  0  0  0  0  0  0  0  0  0  0
   -6.9410   24.5450  -30.8360 C   0  0  0  0  0  0  0  0  0  0  0  0
   -5.8600   25.2730  -30.3030 C   0  0  0  0  0  0  0  0  0  0  0  0
   -4.6180   24.6470  -30.2610 C   0  0  0  0  0  0  0  0  0  0  0  0
   -3.4590   25.1440  -29.7980 N   0  0  0  0  0  0  0  0  0  0  0  0
   -2.5360   24.1990  -29.9580 N   0  0  0  0  0  0  0  0  0  0  0  0
   -3.1060   23.1060  -30.5190 C   0  0  0  0  0  0  0  0  0  0  0  0
   -4.4360   23.3770  -30.7190 C   0  0  0  0  0  0  0  0  0  0  0  0
   -5.4760   22.6230  -31.2540 C   0  0  0  0  0  0  0  0  0  0  0  0
   -6.7590   20.2340  -32.2370 C   0  0  0  0  0  0  0  0  0  0  0  0
   -3.0090   19.2390  -34.0090 C   0  0  0  0  0  0  0  0  0  0  0  0
   -1.9460   20.1500  -34.1200 C   0  0  0  0  0  0  0  0  0  0  0  0
   -2.1680   21.5120  -33.7260 N   0  0  0  0  0  0  0  0  0  0  0  0
    2.6070   19.8644  -35.8830 H   0  0  0  0  0  0  0  0  0  0  0  0
    1.0885   19.5971  -36.8046 H   0  0  0  0  0  0  0  0  0  0  0  0
    1.8659   21.2165  -36.8046 H   0  0  0  0  0  0  0  0  0  0  0  0
    0.4400   17.9846  -35.3052 H   0  0  0  0  0  0  0  0  0  0  0  0
   -1.4530   16.3902  -35.0769 H   0  0  0  0  0  0  0  0  0  0  0  0
   -4.0730   16.2930  -35.0713 H   0  0  0  0  0  0  0  0  0  0  0  0
   -3.7557   16.2742  -33.3007 H   0  0  0  0  0  0  0  0  0  0  0  0
   -4.9580   17.8100  -31.8240 H   0  0  0  0  0  0  0  0  0  0  0  0
   -8.0212   17.0567  -32.0880 H   0  0  0  0  0  0  0  0  0  0  0  0
  -10.0891   18.3379  -31.5451 H   0  0  0  0  0  0  0  0  0  0  0  0
  -10.0334   20.8256  -31.4380 H   0  0  0  0  0  0  0  0  0  0  0  0
   -7.9351   25.0124  -30.8934 H   0  0  0  0  0  0  0  0  0  0  0  0
   -5.9927   26.3003  -29.9329 H   0  0  0  0  0  0  0  0  0  0  0  0
   -2.5927   22.1661  -30.7702 H   0  0  0  0  0  0  0  0  0  0  0  0
   -5.3033   21.6030  -31.6278 H   0  0  0  0  0  0  0  0  0  0  0  0
   -5.8262   20.7702  -32.4657 H   0  0  0  0  0  0  0  0  0  0  0  0
   -3.9855   19.5879  -33.6421 H   0  0  0  0  0  0  0  0  0  0  0  0
   -1.8290   22.2970  -34.3260 H   0  0  0  0  0  0  0  0  0  0  0  0
   -2.6700   21.7750  -32.8540 H   0  0  0  0  0  0  0  0  0  0  0  0
  1  2  1  0
  2  3  2  0
  2  4  2  0
  2  5  1  0
  5  6  2  0
  6  7  1  0
  7  8  2  0
  8  9  1  0
  9 10  1  0
 10 11  2  0
 10 12  1  0
 12 13  1  0
 13 14  2  0
 14 15  1  0
 15 16  2  0
 16 17  1  0
 17 18  1  0
 18 19  2  0
 18 20  1  0
 20 21  2  0
 21 22  1  0
 22 23  2  0
 23 24  1  0
 24 25  1  0
 25 26  2  0
 26 27  1  0
 27 28  2  0
 17 29  2  0
  8 30  1  0
 30 31  2  0
 31 32  1  0
 31  5  1  0
 29 13  1  0
 28 20  1  0
 27 23  1  0
  1 33  1  0
  1 34  1  0
  1 35  1  0
  6 36  1  0
  7 37  1  0
  9 38  1  0
  9 39  1  0
 12 40  1  0
 14 41  1  0
 15 42  1  0
 16 43  1  0
 21 44  1  0
 22 45  1  0
 26 46  1  0
 28 47  1  0
 29 48  1  0
 30 49  1  0
 32 50  1  0
 32 51  1  0
M  CHG  1  24  -1
M  END
>  <UniqueID>  (26) 
24

>  <SMILES>  (26) 
CS(=O)(=O)c1ccc(CC(=O)Nc2cccc(C(=O)c3ccc4[n-]ncc4c3)c2)cc1N

>  <Energy>  (26) 
99.8259046966107

>  <Genealogy>  (26) 
CS(=O)(=O)c1ccc(CC(=O)Nc2cccc(C(=O)c3ccc4[n-]ncc4c3)c2)cc1N (protonated)
CS(=O)(=O)c1ccc(CC(=O)Nc2cccc(C(=O)c3ccc4[n-]ncc4c3)c2)cc1N (3D coordinates assigned)
CS(=O)(=O)c1ccc(CC(=O)Nc2cccc(C(=O)c3ccc4[n-]ncc4c3)c2)cc1N (optimized conformer: 99.8259046966107 kcal/mol)

>  <smiles>  (26) 
CS(=O)(=O)c1ccc(CC(=O)Nc2cccc(C(=O)c3ccc4[nH]ncc4c3)c2)cc1N

>  <score_type>  (26) 
oracle

>  <origin>  (26) 
adgpu

>  <m_score__min__energy>  (26) 
-12.109999999999999

>  <m_primary>  (26) 
energy

$$$$
26:0
     RDKit          3D

 40 43  0  0  0  0  0  0  0  0999 V2000
   -4.8530   15.2140  -34.5290 C   0  0  0  0  0  0  0  0  0  0  0  0
   -4.9350   16.6820  -34.2700 C   0  0  0  0  0  0  0  0  0  0  0  0
   -5.6520   17.2840  -33.2600 C   0  0  0  0  0  0  0  0  0  0  0  0
   -5.4740   18.6330  -33.4900 C   0  0  0  0  0  0  0  0  0  0  0  0
   -6.0380   19.7440  -32.7060 C   0  0  0  0  0  0  0  0  0  0  0  0
   -6.9620   19.5040  -31.8800 O   0  0  0  0  0  0  0  0  0  0  0  0
   -5.5650   21.0880  -32.8830 N   0  0  0  0  0  0  0  0  0  0  0  0
   -5.9910   22.1660  -32.0390 C   0  0  0  0  0  0  0  0  0  0  0  0
   -7.2540   22.7560  -32.2360 C   0  0  0  0  0  0  0  0  0  0  0  0
   -7.6880   23.8080  -31.4070 C   0  0  0  0  0  0  0  0  0  0  0  0
   -6.8620   24.2930  -30.3810 C   0  0  0  0  0  0  0  0  0  0  0  0
   -5.6040   23.7190  -30.2090 C   0  0  0  0  0  0  0  0  0  0  0  0
   -5.1760   22.6860  -31.0210 C   0  0  0  0  0  0  0  0  0  0  0  0
   -3.8120   22.3910  -30.6360 C   0  0  0  0  0  0  0  0  0  0  0  0
   -3.0700   21.5140  -31.1520 O   0  0  0  0  0  0  0  0  0  0  0  0
   -3.4170   23.2460  -29.5640 N   0  0  0  0  0  0  0  0  0  0  0  0
   -2.1310   23.2740  -28.9230 C   0  0  0  0  0  0  0  0  0  0  0  0
   -1.6110   22.1010  -28.3500 C   0  0  0  0  0  0  0  0  0  0  0  0
   -0.3610   22.1120  -27.7270 C   0  0  0  0  0  0  0  0  0  0  0  0
    0.3790   23.2940  -27.6620 C   0  0  0  0  0  0  0  0  0  0  0  0
   -0.1350   24.4700  -28.2130 C   0  0  0  0  0  0  0  0  0  0  0  0
   -1.3890   24.4680  -28.8350 C   0  0  0  0  0  0  0  0  0  0  0  0
   -1.9000   25.6620  -29.3350 O   0  0  0  0  0  0  0  0  0  0  0  0
   -4.5480   24.1120  -29.2170 C   0  0  0  0  0  0  0  0  0  0  0  0
   -4.7090   18.8090  -34.5860 N   0  0  0  0  0  0  0  0  0  0  0  0
   -4.3860   17.6190  -35.0660 N   0  0  0  0  0  0  0  0  0  0  0  0
   -4.8228   14.6738  -33.5712 H   0  0  0  0  0  0  0  0  0  0  0  0
   -5.7346   14.8932  -35.1033 H   0  0  0  0  0  0  0  0  0  0  0  0
   -3.9411   14.9934  -35.1033 H   0  0  0  0  0  0  0  0  0  0  0  0
   -6.2308   16.8025  -32.4580 H   0  0  0  0  0  0  0  0  0  0  0  0
   -5.0730   21.3340  -33.7710 H   0  0  0  0  0  0  0  0  0  0  0  0
   -7.9065   22.3924  -33.0435 H   0  0  0  0  0  0  0  0  0  0  0  0
   -8.6816   24.2530  -31.5645 H   0  0  0  0  0  0  0  0  0  0  0  0
   -7.2008   25.1094  -29.7262 H   0  0  0  0  0  0  0  0  0  0  0  0
   -2.1922   21.1680  -28.3924 H   0  0  0  0  0  0  0  0  0  0  0  0
    0.0411   21.1876  -27.2867 H   0  0  0  0  0  0  0  0  0  0  0  0
    1.3663   23.2992  -27.1771 H   0  0  0  0  0  0  0  0  0  0  0  0
    0.4478   25.4013  -28.1580 H   0  0  0  0  0  0  0  0  0  0  0  0
   -4.8860   23.9244  -28.1872 H   0  0  0  0  0  0  0  0  0  0  0  0
   -4.2977   25.1824  -29.2575 H   0  0  0  0  0  0  0  0  0  0  0  0
  1  2  1  0
  2  3  1  0
  3  4  2  0
  4  5  1  0
  5  6  2  0
  5  7  1  0
  7  8  1  0
  8  9  2  0
  9 10  1  0
 10 11  2  0
 11 12  1  0
 12 13  2  0
 13 14  1  0
 14 15  2  0
 14 16  1  0
 16 17  1  0
 17 18  2  0
 18 19  1  0
 19 20  2  0
 20 21  1  0
 21 22  2  0
 22 23  1  0
 16 24  1  0
  4 25  1  0
 25 26  1  0
 26  2  2  0
 13  8  1  0
 22 17  1  0
 24 12  1  0
  1 27  1  0
  1 28  1  0
  1 29  1  0
  3 30  1  0
  7 31  1  0
  9 32  1  0
 10 33  1  0
 11 34  1  0
 18 35  1  0
 19 36  1  0
 20 37  1  0
 21 38  1  0
 24 39  1  0
 24 40  1  0
M  CHG  2  23  -1  25  -1
M  END
>  <UniqueID>  (27) 
25

>  <SMILES>  (27) 
Cc1cc(C(=O)Nc2cccc3c2C(=O)N(c2ccccc2[O-])C3)[n-]n1

>  <Energy>  (27) 
104.69192345976083

>  <Genealogy>  (27) 
Cc1cc(C(=O)Nc2cccc3c2C(=O)N(c2ccccc2[O-])C3)[n-]n1 (protonated)
Cc1cc(C(=O)Nc2cccc3c2C(=O)N(c2ccccc2[O-])C3)[n-]n1 (3D coordinates assigned)
Cc1cc(C(=O)Nc2cccc3c2C(=O)N(c2ccccc2[O-])C3)[n-]n1 (nonaromatic ring conformer: 104.69192345976083 kcal/mol)

>  <smiles>  (27) 
Cc1cc(C(=O)Nc2cccc3c2C(=O)N(c2ccccc2O)C3)[nH]n1

>  <score_type>  (27) 
oracle

>  <origin>  (27) 
adgpu

>  <m_score__min__energy>  (27) 
-11.050000000000001

>  <m_primary>  (27) 
energy

$$$$
27:0
     RDKit          3D

 49 51  0  0  0  0  0  0  0  0999 V2000
   -1.5390   21.9990  -30.9060 C   0  0  0  0  0  0  0  0  0  0  0  0
   -2.3540   21.1330  -31.8270 C   0  0  0  0  0  0  0  0  0  0  0  0
   -1.7190   20.2090  -32.6620 C   0  0  0  0  0  0  0  0  0  0  0  0
   -2.4620   19.4390  -33.5740 C   0  0  0  0  0  0  0  0  0  0  0  0
   -1.7160   18.4550  -34.4380 C   0  0  0  0  0  0  0  0  0  0  0  0
   -3.8780   19.5790  -33.6310 C   0  0  0  0  0  0  0  0  0  0  0  0
   -4.8640   18.5410  -34.7480 S   0  0  0  0  0  0  0  0  0  0  0  0
   -4.7620   17.0780  -33.7000 C   0  0  0  0  0  0  0  0  0  0  0  0
   -4.0650   15.9460  -34.1490 C   0  0  0  0  0  0  0  0  0  0  0  0
   -3.9880   14.7980  -33.3480 C   0  0  0  0  0  0  0  0  0  0  0  0
   -4.6170   14.7760  -32.0970 C   0  0  0  0  0  0  0  0  0  0  0  0
   -4.5210   13.3420  -31.0940 Cl  0  0  0  0  0  0  0  0  0  0  0  0
   -5.3370   15.8970  -31.6580 C   0  0  0  0  0  0  0  0  0  0  0  0
   -5.4130   17.0440  -32.4580 C   0  0  0  0  0  0  0  0  0  0  0  0
   -4.5120   20.5660  -32.8310 C   0  0  0  0  0  0  0  0  0  0  0  0
   -5.9720   20.9440  -33.0050 C   0  0  0  0  0  0  0  0  0  0  0  0
   -6.8090   20.4080  -31.8410 C   0  0  0  0  0  0  0  0  0  0  0  0
   -8.2060   20.8100  -32.0190 N   0  0  0  0  0  0  0  0  0  0  0  0
   -8.5390   22.2510  -31.1040 S   0  0  0  0  0  0  0  0  0  0  0  0
   -9.4880   23.1200  -31.8800 O   0  0  0  0  0  0  0  0  0  0  0  0
   -9.1840   21.8880  -29.7970 O   0  0  0  0  0  0  0  0  0  0  0  0
   -7.0370   23.1410  -30.8360 C   0  0  0  0  0  0  0  0  0  0  0  0
   -6.6680   24.1790  -31.7100 C   0  0  0  0  0  0  0  0  0  0  0  0
   -5.4850   24.8970  -31.4950 C   0  0  0  0  0  0  0  0  0  0  0  0
   -4.6580   24.5730  -30.4120 C   0  0  0  0  0  0  0  0  0  0  0  0
   -3.4930   25.2990  -30.1820 O   0  0  0  0  0  0  0  0  0  0  0  0
   -5.0090   23.5200  -29.5550 C   0  0  0  0  0  0  0  0  0  0  0  0
   -6.1950   22.8090  -29.7630 C   0  0  0  0  0  0  0  0  0  0  0  0
   -3.7390   21.3290  -31.9380 C   0  0  0  0  0  0  0  0  0  0  0  0
   -1.7755   21.7477  -29.8615 H   0  0  0  0  0  0  0  0  0  0  0  0
   -0.4687   21.8258  -31.0915 H   0  0  0  0  0  0  0  0  0  0  0  0
   -1.7768   23.0569  -31.0915 H   0  0  0  0  0  0  0  0  0  0  0  0
   -0.6277   20.0832  -32.6050 H   0  0  0  0  0  0  0  0  0  0  0  0
   -1.1753   17.7418  -33.7985 H   0  0  0  0  0  0  0  0  0  0  0  0
   -2.4298   17.9099  -35.0731 H   0  0  0  0  0  0  0  0  0  0  0  0
   -0.9984   18.9951  -35.0731 H   0  0  0  0  0  0  0  0  0  0  0  0
   -3.5765   15.9594  -35.1345 H   0  0  0  0  0  0  0  0  0  0  0  0
   -3.4343   13.9158  -33.7017 H   0  0  0  0  0  0  0  0  0  0  0  0
   -5.8437   15.8751  -30.6819 H   0  0  0  0  0  0  0  0  0  0  0  0
   -5.9835   17.9186  -32.1122 H   0  0  0  0  0  0  0  0  0  0  0  0
   -6.0602   22.0399  -33.0393 H   0  0  0  0  0  0  0  0  0  0  0  0
   -6.3435   20.5032  -33.9418 H   0  0  0  0  0  0  0  0  0  0  0  0
   -6.7435   19.3102  -31.8171 H   0  0  0  0  0  0  0  0  0  0  0  0
   -6.4268   20.8186  -30.8948 H   0  0  0  0  0  0  0  0  0  0  0  0
   -7.3116   24.4282  -32.5666 H   0  0  0  0  0  0  0  0  0  0  0  0
   -5.2056   25.7145  -32.1759 H   0  0  0  0  0  0  0  0  0  0  0  0
   -4.3493   23.2525  -28.7164 H   0  0  0  0  0  0  0  0  0  0  0  0
   -6.4688   21.9877  -29.0843 H   0  0  0  0  0  0  0  0  0  0  0  0
   -4.2284   22.0927  -31.3157 H   0  0  0  0  0  0  0  0  0  0  0  0
  1  2  1  0
  2  3  2  0
  3  4  1  0
  4  5  1  0
  4  6  2  0
  6  7  1  0
  7  8  1  0
  8  9  2  0
  9 10  1  0
 10 11  2  0
 11 12  1  0
 11 13  1  0
 13 14  2  0
  6 15  1  0
 15 16  1  0
 16 17  1  0
 17 18  1  0
 18 19  1  0
 19 20  2  0
 19 21  2  0
 19 22  1  0
 22 23  2  0
 23 24  1  0
 24 25  2  0
 25 26  1  0
 25 27  1  0
 27 28  2  0
 15 29  2  0
 29  2  1  0
 14  8  1  0
 28 22  1  0
  1 30  1  0
  1 31  1  0
  1 32  1  0
  3 33  1  0
  5 34  1  0
  5 35  1  0
  5 36  1  0
  9 37  1  0
 10 38  1  0
 13 39  1  0
 14 40  1  0
 16 41  1  0
 16 42  1  0
 17 43  1  0
 17 44  1  0
 23 45  1  0
 24 46  1  0
 27 47  1  0
 28 48  1  0
 29 49  1  0
M  CHG  2  18  -1  26  -1
M  END
>  <UniqueID>  (28) 
26

>  <SMILES>  (28) 
Cc1cc(C)c(Sc2ccc(Cl)cc2)c(CC[N-]S(=O)(=O)c2ccc([O-])cc2)c1

>  <Energy>  (28) 
43.675807234211334

>  <Genealogy>  (28) 
Cc1cc(C)c(Sc2ccc(Cl)cc2)c(CC[N-]S(=O)(=O)c2ccc([O-])cc2)c1 (protonated)
Cc1cc(C)c(Sc2ccc(Cl)cc2)c(CC[N-]S(=O)(=O)c2ccc([O-])cc2)c1 (3D coordinates assigned)
Cc1cc(C)c(Sc2ccc(Cl)cc2)c(CC[N-]S(=O)(=O)c2ccc([O-])cc2)c1 (optimized conformer: 43.675807234211334 kcal/mol)

>  <smiles>  (28) 
Cc1cc(C)c(Sc2ccc(Cl)cc2)c(CCNS(=O)(=O)c2ccc(O)cc2)c1

>  <score_type>  (28) 
oracle

>  <origin>  (28) 
adgpu

>  <m_score__min__energy>  (28) 
-11.85

>  <m_primary>  (28) 
energy

$$$$
28:0
     RDKit          3D

 45 47  0  0  0  0  0  0  0  0999 V2000
   -8.4240   18.5350  -31.9790 C   0  0  0  0  0  0  0  0  0  0  0  0
   -8.9280   19.8390  -31.7090 O   0  0  0  0  0  0  0  0  0  0  0  0
   -8.1570   21.0100  -31.7570 C   0  0  0  0  0  0  0  0  0  0  0  0
   -6.8380   20.9190  -32.2180 C   0  0  0  0  0  0  0  0  0  0  0  0
   -6.0310   22.0580  -32.2860 C   0  0  0  0  0  0  0  0  0  0  0  0
   -6.5340   23.3090  -31.9120 C   0  0  0  0  0  0  0  0  0  0  0  0
   -5.6640   24.4480  -31.9760 N   0  0  0  0  0  0  0  0  0  0  0  0
   -5.2490   25.2680  -30.8750 C   0  0  0  0  0  0  0  0  0  0  0  0
   -6.0660   26.0470  -30.3160 O   0  0  0  0  0  0  0  0  0  0  0  0
   -3.8770   25.2970  -30.4690 N   0  0  0  0  0  0  0  0  0  0  0  0
   -3.2330   24.3540  -29.5990 C   0  0  0  0  0  0  0  0  0  0  0  0
   -3.7670   23.0770  -29.3830 C   0  0  0  0  0  0  0  0  0  0  0  0
   -3.1460   22.1930  -28.5020 C   0  0  0  0  0  0  0  0  0  0  0  0
   -1.9870   22.5690  -27.8060 C   0  0  0  0  0  0  0  0  0  0  0  0
   -1.3650   21.5750  -26.8580 C   0  0  0  0  0  0  0  0  0  0  0  0
   -1.4270   23.8550  -28.0250 C   0  0  0  0  0  0  0  0  0  0  0  0
    0.0470   24.3660  -27.1670 S   0  0  0  0  0  0  0  0  0  0  0  0
    0.6470   23.1820  -26.4620 O   0  0  0  0  0  0  0  0  0  0  0  0
    1.0720   24.9170  -28.1180 O   0  0  0  0  0  0  0  0  0  0  0  0
   -0.3640   25.5900  -26.0110 N   0  0  0  0  0  0  0  0  0  0  0  0
   -0.8960   25.3410  -24.6830 C   0  0  0  0  0  0  0  0  0  0  0  0
   -1.2380   26.7400  -24.1130 C   0  0  0  0  0  0  0  0  0  0  0  0
   -0.9420   27.7050  -25.1690 N   0  0  0  0  0  0  0  0  0  0  0  0
   -0.4300   26.9730  -26.2590 C   0  0  0  0  0  0  0  0  0  0  0  0
   -0.0850   27.5070  -27.3460 O   0  0  0  0  0  0  0  0  0  0  0  0
   -2.0820   24.7480  -28.9010 C   0  0  0  0  0  0  0  0  0  0  0  0
   -1.6000   26.0400  -29.0890 O   0  0  0  0  0  0  0  0  0  0  0  0
   -7.8510   23.4020  -31.4280 C   0  0  0  0  0  0  0  0  0  0  0  0
   -8.6590   22.2620  -31.3570 C   0  0  0  0  0  0  0  0  0  0  0  0
   -8.2233   18.0158  -31.0303 H   0  0  0  0  0  0  0  0  0  0  0  0
   -9.1674   17.9671  -32.5577 H   0  0  0  0  0  0  0  0  0  0  0  0
   -7.4919   18.6147  -32.5577 H   0  0  0  0  0  0  0  0  0  0  0  0
   -6.4341   19.9442  -32.5288 H   0  0  0  0  0  0  0  0  0  0  0  0
   -4.9920   21.9703  -32.6364 H   0  0  0  0  0  0  0  0  0  0  0  0
   -4.6815   22.7701  -29.9116 H   0  0  0  0  0  0  0  0  0  0  0  0
   -3.5694   21.1891  -28.3507 H   0  0  0  0  0  0  0  0  0  0  0  0
   -1.5596   21.8860  -25.8210 H   0  0  0  0  0  0  0  0  0  0  0  0
   -1.8022   20.5805  -27.0307 H   0  0  0  0  0  0  0  0  0  0  0  0
   -0.2794   21.5334  -27.0307 H   0  0  0  0  0  0  0  0  0  0  0  0
   -1.7997   24.7165  -24.7405 H   0  0  0  0  0  0  0  0  0  0  0  0
   -0.1780   24.8025  -24.0470 H   0  0  0  0  0  0  0  0  0  0  0  0
   -2.3028   26.7892  -23.8415 H   0  0  0  0  0  0  0  0  0  0  0  0
   -0.6529   26.9526  -23.2061 H   0  0  0  0  0  0  0  0  0  0  0  0
   -8.2477   24.3754  -31.1038 H   0  0  0  0  0  0  0  0  0  0  0  0
   -9.6915   22.3449  -30.9867 H   0  0  0  0  0  0  0  0  0  0  0  0
  1  2  1  0
  2  3  1  0
  3  4  2  0
  4  5  1  0
  5  6  2  0
  6  7  1  0
  7  8  1  0
  8  9  2  0
  8 10  1  0
 10 11  1  0
 11 12  2  0
 12 13  1  0
 13 14  2  0
 14 15  1  0
 14 16  1  0
 16 17  1  0
 17 18  2  0
 17 19  2  0
 17 20  1  0
 20 21  1  0
 21 22  1  0
 22 23  1  0
 23 24  1  0
 24 25  2  0
 16 26  2  0
 26 27  1  0
  6 28  1  0
 28 29  2  0
 29  3  1  0
 26 11  1  0
 24 20  1  0
  1 30  1  0
  1 31  1  0
  1 32  1  0
  4 33  1  0
  5 34  1  0
 12 35  1  0
 13 36  1  0
 15 37  1  0
 15 38  1  0
 15 39  1  0
 21 40  1  0
 21 41  1  0
 22 42  1  0
 22 43  1  0
 28 44  1  0
 29 45  1  0
M  CHG  4   7  -1  10  -1  23  -1  27  -1
M  END
>  <UniqueID>  (29) 
27

>  <SMILES>  (29) 
COc1ccc([N-]C(=O)[N-]c2ccc(C)c(S(=O)(=O)N3CC[N-]C3=O)c2[O-])cc1

>  <Energy>  (29) 
71.27358896893234

>  <Genealogy>  (29) 
COc1ccc([N-]C(=O)[N-]c2ccc(C)c(S(=O)(=O)N3CC[N-]C3=O)c2[O-])cc1 (protonated)
COc1ccc([N-]C(=O)[N-]c2ccc(C)c(S(=O)(=O)N3CC[N-]C3=O)c2[O-])cc1 (3D coordinates assigned)
COc1ccc([N-]C(=O)[N-]c2ccc(C)c(S(=O)(=O)N3CC[N-]C3=O)c2[O-])cc1 (nonaromatic ring conformer: 71.27358896893234 kcal/mol)

>  <smiles>  (29) 
COc1ccc(NC(=O)Nc2ccc(C)c(S(=O)(=O)N3CCNC3=O)c2O)cc1

>  <score_type>  (29) 
oracle

>  <origin>  (29) 
adgpu

>  <m_score__min__energy>  (29) 
-14.66

>  <m_primary>  (29) 
energy

$$$$
29:0
     RDKit          3D

 37 39  0  0  0  0  0  0  0  0999 V2000
   -3.1560   23.3010  -29.2150 O   0  0  0  0  0  0  0  0  0  0  0  0
   -3.0560   24.4400  -29.7390 C   0  0  0  0  0  0  0  0  0  0  0  0
   -1.9800   25.3010  -29.3410 N   0  0  0  0  0  0  0  0  0  0  0  0
   -1.6460   25.6480  -27.9890 C   0  0  0  0  0  0  0  0  0  0  0  0
   -0.5850   26.5310  -27.7550 C   0  0  0  0  0  0  0  0  0  0  0  0
   -0.2590   26.9120  -26.4490 C   0  0  0  0  0  0  0  0  0  0  0  0
   -0.9820   26.3980  -25.3690 C   0  0  0  0  0  0  0  0  0  0  0  0
   -2.0220   25.4930  -25.5910 C   0  0  0  0  0  0  0  0  0  0  0  0
   -2.3470   25.1080  -26.8950 C   0  0  0  0  0  0  0  0  0  0  0  0
   -4.0210   24.8420  -30.7220 N   0  0  0  0  0  0  0  0  0  0  0  0
   -5.1690   24.0730  -31.1080 C   0  0  0  0  0  0  0  0  0  0  0  0
   -6.4620   24.5620  -30.8890 C   0  0  0  0  0  0  0  0  0  0  0  0
   -7.5680   23.7710  -31.1790 C   0  0  0  0  0  0  0  0  0  0  0  0
   -7.4060   22.4980  -31.7330 C   0  0  0  0  0  0  0  0  0  0  0  0
   -8.8690   21.5460  -31.9620 Cl  0  0  0  0  0  0  0  0  0  0  0  0
   -6.1090   22.0120  -32.0380 C   0  0  0  0  0  0  0  0  0  0  0  0
   -5.8900   20.4310  -32.8290 S   0  0  0  0  0  0  0  0  0  0  0  0
   -6.8880   20.2430  -33.9360 O   0  0  0  0  0  0  0  0  0  0  0  0
   -4.5230   20.3470  -33.4500 O   0  0  0  0  0  0  0  0  0  0  0  0
   -6.1440   19.1510  -31.6010 C   0  0  0  0  0  0  0  0  0  0  0  0
   -7.4700   18.4220  -31.7400 C   0  0  0  0  0  0  0  0  0  0  0  0
   -6.1750   17.7210  -32.1170 C   0  0  0  0  0  0  0  0  0  0  0  0
   -4.9850   22.8020  -31.6730 C   0  0  0  0  0  0  0  0  0  0  0  0
   -3.6720   22.3440  -31.8060 O   0  0  0  0  0  0  0  0  0  0  0  0
   -0.0052   26.9269  -28.6018 H   0  0  0  0  0  0  0  0  0  0  0  0
    0.5669   27.6166  -26.2720 H   0  0  0  0  0  0  0  0  0  0  0  0
   -0.7316   26.7066  -24.3433 H   0  0  0  0  0  0  0  0  0  0  0  0
   -2.5855   25.0831  -24.7399 H   0  0  0  0  0  0  0  0  0  0  0  0
   -3.1538   24.3802  -27.0665 H   0  0  0  0  0  0  0  0  0  0  0  0
   -6.6037   25.5757  -30.4860 H   0  0  0  0  0  0  0  0  0  0  0  0
   -8.5793   24.1503  -30.9707 H   0  0  0  0  0  0  0  0  0  0  0  0
   -5.6001   19.6620  -30.7929 H   0  0  0  0  0  0  0  0  0  0  0  0
   -8.0228   18.1100  -30.8416 H   0  0  0  0  0  0  0  0  0  0  0  0
   -8.4207   18.6282  -32.2536 H   0  0  0  0  0  0  0  0  0  0  0  0
   -5.7905   16.9020  -31.4914 H   0  0  0  0  0  0  0  0  0  0  0  0
   -5.8001   17.2100  -33.0161 H   0  0  0  0  0  0  0  0  0  0  0  0
   -2.8930   22.7040  -31.2770 H   0  0  0  0  0  0  0  0  0  0  0  0
  1  2  2  0
  2  3  1  0
  3  4  1  0
  4  5  2  0
  5  6  1  0
  6  7  2  0
  7  8  1  0
  8  9  2  0
  2 10  1  0
 10 11  1  0
 11 12  2  0
 12 13  1  0
 13 14  2  0
 14 15  1  0
 14 16  1  0
 16 17  1  0
 17 18  2  0
 17 19  2  0
 17 20  1  0
 20 21  1  0
 21 22  1  0
 16 23  2  0
 23 24  1  0
  9  4  1  0
 23 11  1  0
 22 20  1  0
  5 25  1  0
  6 26  1  0
  7 27  1  0
  8 28  1  0
  9 29  1  0
 12 30  1  0
 13 31  1  0
 20 32  1  0
 21 33  1  0
 21 34  1  0
 22 35  1  0
 22 36  1  0
 24 37  1  0
M  CHG  2   3  -1  10  -1
M  END
>  <UniqueID>  (30) 
28

>  <SMILES>  (30) 
O=C([N-]c1ccccc1)[N-]c1ccc(Cl)c(S(=O)(=O)C2CC2)c1O

>  <Energy>  (30) 
315.0957714715053

>  <Genealogy>  (30) 
O=C([N-]c1ccccc1)[N-]c1ccc(Cl)c(S(=O)(=O)C2CC2)c1O (protonated)
O=C([N-]c1ccccc1)[N-]c1ccc(Cl)c(S(=O)(=O)C2CC2)c1O (3D coordinates assigned)
O=C([N-]c1ccccc1)[N-]c1ccc(Cl)c(S(=O)(=O)C2CC2)c1O (nonaromatic ring conformer: 315.0957714715053 kcal/mol)

>  <smiles>  (30) 
O=C(Nc1ccccc1)Nc1ccc(Cl)c(S(=O)(=O)C2CC2)c1O

>  <score_type>  (30) 
oracle

>  <origin>  (30) 
adgpu

>  <m_score__min__energy>  (30) 
-11.369999999999999

>  <m_primary>  (30) 
energy

$$$$
30:0
     RDKit          3D

 45 47  0  0  0  0  0  0  0  0999 V2000
   -8.2120   22.0150  -31.6590 C   0  0  0  0  0  0  0  0  0  0  0  0
   -7.1190   21.4240  -32.3550 O   0  0  0  0  0  0  0  0  0  0  0  0
   -7.0480   20.0700  -32.7120 C   0  0  0  0  0  0  0  0  0  0  0  0
   -6.2810   19.7150  -33.8280 C   0  0  0  0  0  0  0  0  0  0  0  0
   -6.1790   18.3790  -34.2250 C   0  0  0  0  0  0  0  0  0  0  0  0
   -6.8360   17.3720  -33.5000 C   0  0  0  0  0  0  0  0  0  0  0  0
   -6.7570   15.9420  -33.9480 C   0  0  0  0  0  0  0  0  0  0  0  0
   -5.4480   15.4050  -33.6040 N   0  0  0  0  0  0  0  0  0  0  0  0
   -4.2110   15.6740  -34.2810 C   0  0  0  0  0  0  0  0  0  0  0  0
   -3.7700   14.8080  -35.0810 O   0  0  0  0  0  0  0  0  0  0  0  0
   -3.4020   16.8880  -34.0540 C   0  0  0  0  0  0  0  0  0  0  0  0
   -2.5300   17.5060  -34.9370 C   0  0  0  0  0  0  0  0  0  0  0  0
   -1.9920   18.5740  -34.2510 C   0  0  0  0  0  0  0  0  0  0  0  0
   -2.5610   18.5370  -32.9950 C   0  0  0  0  0  0  0  0  0  0  0  0
   -2.2560   19.4700  -31.8690 C   0  0  0  0  0  0  0  0  0  0  0  0
   -3.6060   20.6080  -31.6260 S   0  0  0  0  0  0  0  0  0  0  0  0
   -4.9270   19.8940  -30.8700 O   0  0  0  0  0  0  0  0  0  0  0  0
   -3.1280   22.1020  -30.8340 C   0  0  0  0  0  0  0  0  0  0  0  0
   -2.0580   22.1150  -29.9280 C   0  0  0  0  0  0  0  0  0  0  0  0
   -1.6790   23.3100  -29.3090 C   0  0  0  0  0  0  0  0  0  0  0  0
   -2.3680   24.4940  -29.5890 C   0  0  0  0  0  0  0  0  0  0  0  0
   -1.9860   25.6790  -28.9700 O   0  0  0  0  0  0  0  0  0  0  0  0
   -3.4420   24.4830  -30.4880 C   0  0  0  0  0  0  0  0  0  0  0  0
   -4.1320   25.6570  -30.7690 O   0  0  0  0  0  0  0  0  0  0  0  0
   -3.8210   23.2870  -31.1090 C   0  0  0  0  0  0  0  0  0  0  0  0
   -3.3880   17.5230  -32.9040 O   0  0  0  0  0  0  0  0  0  0  0  0
   -7.6190   17.7250  -32.3900 C   0  0  0  0  0  0  0  0  0  0  0  0
   -7.7210   19.0620  -31.9950 C   0  0  0  0  0  0  0  0  0  0  0  0
   -8.0476   21.9261  -30.5750 H   0  0  0  0  0  0  0  0  0  0  0  0
   -8.2891   23.0777  -31.9322 H   0  0  0  0  0  0  0  0  0  0  0  0
   -9.1435   21.4976  -31.9322 H   0  0  0  0  0  0  0  0  0  0  0  0
   -5.7539   20.4946  -34.3975 H   0  0  0  0  0  0  0  0  0  0  0  0
   -5.5811   18.1150  -35.1098 H   0  0  0  0  0  0  0  0  0  0  0  0
   -7.5395   15.3549  -33.4449 H   0  0  0  0  0  0  0  0  0  0  0  0
   -6.9051   15.8867  -35.0366 H   0  0  0  0  0  0  0  0  0  0  0  0
   -2.3121   17.2058  -35.9726 H   0  0  0  0  0  0  0  0  0  0  0  0
   -1.2605   19.3043  -34.6273 H   0  0  0  0  0  0  0  0  0  0  0  0
   -2.1010   18.8889  -30.9480 H   0  0  0  0  0  0  0  0  0  0  0  0
   -1.3471   20.0397  -32.1125 H   0  0  0  0  0  0  0  0  0  0  0  0
   -5.6750   20.5280  -31.0080 H   0  0  0  0  0  0  0  0  0  0  0  0
   -1.5163   21.1842  -29.7040 H   0  0  0  0  0  0  0  0  0  0  0  0
   -0.8375   23.3187  -28.6006 H   0  0  0  0  0  0  0  0  0  0  0  0
   -4.6650   23.2782  -31.8144 H   0  0  0  0  0  0  0  0  0  0  0  0
   -8.1550   16.9458  -31.8282 H   0  0  0  0  0  0  0  0  0  0  0  0
   -8.3306   19.3283  -31.1189 H   0  0  0  0  0  0  0  0  0  0  0  0
  1  2  1  0
  2  3  1  0
  3  4  2  0
  4  5  1  0
  5  6  2  0
  6  7  1  0
  7  8  1  0
  8  9  1  0
  9 10  2  0
  9 11  1  0
 11 12  2  0
 12 13  1  0
 13 14  2  0
 14 15  1  0
 15 16  1  0
 16 17  1  1
 16 18  1  0
 18 19  2  0
 19 20  1  0
 20 21  2  0
 21 22  1  0
 21 23  1  0
 23 24  1  0
 23 25  2  0
 14 26  1  0
  6 27  1  0
 27 28  2  0
 28  3  1  0
 26 11  1  0
 25 18  1  0
  1 29  1  0
  1 30  1  0
  1 31  1  0
  4 32  1  0
  5 33  1  0
  7 34  1  0
  7 35  1  0
 12 36  1  0
 13 37  1  0
 15 38  1  0
 15 39  1  0
 17 40  1  0
 19 41  1  0
 20 42  1  0
 25 43  1  0
 27 44  1  0
 28 45  1  0
M  CHG  4   8  -1  16   1  22  -1  24  -1
M  END
>  <UniqueID>  (31) 
29

>  <SMILES>  (31) 
COc1ccc(C[N-]C(=O)c2ccc(C[S@@+](O)c3ccc([O-])c([O-])c3)o2)cc1

>  <Energy>  (31) 
67.85054747340972

>  <Genealogy>  (31) 
COc1ccc(C[N-]C(=O)c2ccc(C[S+](O)c3ccc([O-])c([O-])c3)o2)cc1 (protonated)
COc1ccc(C[N-]C(=O)c2ccc(C[S@@+](O)c3ccc([O-])c([O-])c3)o2)cc1 (chirality)
COc1ccc(C[N-]C(=O)c2ccc(C[S@@+](O)c3ccc([O-])c([O-])c3)o2)cc1 (3D coordinates assigned)
COc1ccc(C[N-]C(=O)c2ccc(C[S@@+](O)c3ccc([O-])c([O-])c3)o2)cc1 (optimized conformer: 67.85054747340972 kcal/mol)

>  <smiles>  (31) 
COc1ccc(CNC(=O)c2ccc(C[S+]([O-])c3ccc(O)c(O)c3)o2)cc1

>  <score_type>  (31) 
oracle

>  <origin>  (31) 
adgpu

>  <m_score__min__energy>  (31) 
-12.699999999999999

>  <m_primary>  (31) 
energy

$$$$
31:0
     RDKit          3D

 33 35  0  0  0  0  0  0  0  0999 V2000
   -3.0390   23.3760  -28.8620 O   0  0  0  0  0  0  0  0  0  0  0  0
   -2.7850   24.4450  -29.4790 C   0  0  0  0  0  0  0  0  0  0  0  0
   -3.7210   24.9160  -30.4540 N   0  0  0  0  0  0  0  0  0  0  0  0
   -4.9260   24.2400  -30.8400 C   0  0  0  0  0  0  0  0  0  0  0  0
   -6.1560   24.7090  -30.3580 C   0  0  0  0  0  0  0  0  0  0  0  0
   -6.2030   25.8080  -29.5640 F   0  0  0  0  0  0  0  0  0  0  0  0
   -7.3440   24.0600  -30.7070 C   0  0  0  0  0  0  0  0  0  0  0  0
   -7.3100   22.9250  -31.5240 C   0  0  0  0  0  0  0  0  0  0  0  0
   -8.8000   22.1100  -31.9580 Cl  0  0  0  0  0  0  0  0  0  0  0  0
   -6.0830   22.4320  -31.9810 C   0  0  0  0  0  0  0  0  0  0  0  0
   -4.8920   23.0770  -31.6340 C   0  0  0  0  0  0  0  0  0  0  0  0
   -3.7110   22.5430  -32.0330 F   0  0  0  0  0  0  0  0  0  0  0  0
   -1.5930   25.1920  -29.1800 N   0  0  0  0  0  0  0  0  0  0  0  0
   -0.6500   24.8020  -28.1650 C   0  0  0  0  0  0  0  0  0  0  0  0
    0.2900   23.7940  -28.4400 C   0  0  0  0  0  0  0  0  0  0  0  0
    1.1870   23.3680  -27.4600 C   0  0  0  0  0  0  0  0  0  0  0  0
    1.1560   23.9300  -26.1850 C   0  0  0  0  0  0  0  0  0  0  0  0
    0.2210   24.9280  -25.8770 C   0  0  0  0  0  0  0  0  0  0  0  0
    0.1910   25.4910  -24.5920 C   0  0  0  0  0  0  0  0  0  0  0  0
   -0.7330   26.4910  -24.2820 C   0  0  0  0  0  0  0  0  0  0  0  0
   -1.6290   26.9400  -25.2520 C   0  0  0  0  0  0  0  0  0  0  0  0
   -1.6130   26.3910  -26.5360 C   0  0  0  0  0  0  0  0  0  0  0  0
   -0.6950   25.3740  -26.8690 C   0  0  0  0  0  0  0  0  0  0  0  0
   -8.3073   24.4425  -30.3385 H   0  0  0  0  0  0  0  0  0  0  0  0
   -6.0552   21.5339  -32.6155 H   0  0  0  0  0  0  0  0  0  0  0  0
   -1.4110   26.0750  -29.7050 H   0  0  0  0  0  0  0  0  0  0  0  0
    0.3188   23.3356  -29.4395 H   0  0  0  0  0  0  0  0  0  0  0  0
    1.9225   22.5845  -27.6949 H   0  0  0  0  0  0  0  0  0  0  0  0
    1.8673   23.5894  -25.4181 H   0  0  0  0  0  0  0  0  0  0  0  0
    0.8987   25.1429  -23.8252 H   0  0  0  0  0  0  0  0  0  0  0  0
   -0.7543   26.9252  -23.2715 H   0  0  0  0  0  0  0  0  0  0  0  0
   -2.3523   27.7309  -25.0043 H   0  0  0  0  0  0  0  0  0  0  0  0
   -2.3224   26.7550  -27.2938 H   0  0  0  0  0  0  0  0  0  0  0  0
  1  2  2  0
  2  3  1  0
  3  4  1  0
  4  5  2  0
  5  6  1  0
  5  7  1  0
  7  8  2  0
  8  9  1  0
  8 10  1  0
 10 11  2  0
 11 12  1  0
  2 13  1  0
 13 14  1  0
 14 15  2  0
 15 16  1  0
 16 17  2  0
 17 18  1  0
 18 19  2  0
 19 20  1  0
 20 21  2  0
 21 22  1  0
 22 23  2  0
 11  4  1  0
 23 14  1  0
 23 18  1  0
  7 24  1  0
 10 25  1  0
 13 26  1  0
 15 27  1  0
 16 28  1  0
 17 29  1  0
 19 30  1  0
 20 31  1  0
 21 32  1  0
 22 33  1  0
M  CHG  1   3  -1
M  END
>  <UniqueID>  (32) 
30

>  <SMILES>  (32) 
O=C([N-]c1c(F)cc(Cl)cc1F)Nc1cccc2ccccc12

>  <Energy>  (32) 
50.2579786058959

>  <Genealogy>  (32) 
O=C([N-]c1c(F)cc(Cl)cc1F)Nc1cccc2ccccc12 (protonated)
O=C([N-]c1c(F)cc(Cl)cc1F)Nc1cccc2ccccc12 (3D coordinates assigned)
O=C([N-]c1c(F)cc(Cl)cc1F)Nc1cccc2ccccc12 (optimized conformer: 50.2579786058959 kcal/mol)

>  <smiles>  (32) 
O=C(Nc1c(F)cc(Cl)cc1F)Nc1cccc2ccccc12

>  <score_type>  (32) 
oracle

>  <origin>  (32) 
adgpu

>  <m_score__min__energy>  (32) 
-9.3900000000000006

>  <m_primary>  (32) 
energy

$$$$
32:0
     RDKit          3D

 54 57  0  0  0  0  0  0  0  0999 V2000
   -2.3550   25.3770  -28.6450 O   0  0  0  0  0  0  0  0  0  0  0  0
   -2.6230   24.5380  -29.5450 C   0  0  0  0  0  0  0  0  0  0  0  0
   -3.6250   24.8720  -30.5160 N   0  0  0  0  0  0  0  0  0  0  0  0
   -4.8290   24.1360  -30.7780 C   0  0  0  0  0  0  0  0  0  0  0  0
   -5.0270   23.4500  -31.9890 C   0  0  0  0  0  0  0  0  0  0  0  0
   -6.2170   22.7530  -32.2170 C   0  0  0  0  0  0  0  0  0  0  0  0
   -7.2330   22.7530  -31.2500 C   0  0  0  0  0  0  0  0  0  0  0  0
   -8.7320   21.8620  -31.5350 S   0  0  0  0  0  0  0  0  0  0  0  0
   -9.6610   22.7170  -32.3530 O   0  0  0  0  0  0  0  0  0  0  0  0
   -9.3970   21.5880  -30.2140 O   0  0  0  0  0  0  0  0  0  0  0  0
   -8.4750   20.3460  -32.3670 N   0  0  0  0  0  0  0  0  0  0  0  0
   -7.0560   20.0220  -32.4930 C   0  0  0  0  0  0  0  0  0  0  0  0
   -6.9720   18.5080  -32.6180 C   0  0  0  0  0  0  0  0  0  0  0  0
   -8.2940   17.9840  -32.0780 C   0  0  0  0  0  0  0  0  0  0  0  0
   -9.0730   19.2200  -31.6550 C   0  0  0  0  0  0  0  0  0  0  0  0
   -7.0410   23.4500  -30.0490 C   0  0  0  0  0  0  0  0  0  0  0  0
   -5.8500   24.1460  -29.8210 C   0  0  0  0  0  0  0  0  0  0  0  0
   -1.9400   23.2230  -29.5400 C   0  0  0  0  0  0  0  0  0  0  0  0
   -2.1060   22.3210  -30.6040 C   0  0  0  0  0  0  0  0  0  0  0  0
   -1.4540   21.0850  -30.5930 C   0  0  0  0  0  0  0  0  0  0  0  0
   -0.6210   20.7290  -29.5190 C   0  0  0  0  0  0  0  0  0  0  0  0
    0.0440   19.4540  -29.4720 N   0  0  0  0  0  0  0  0  0  0  0  0
   -0.1290   18.5000  -28.4080 C   0  0  0  0  0  0  0  0  0  0  0  0
   -0.9720   18.7210  -27.4960 O   0  0  0  0  0  0  0  0  0  0  0  0
    0.6650   17.2480  -28.3610 C   0  0  0  0  0  0  0  0  0  0  0  0
    1.1610   16.6470  -29.5340 C   0  0  0  0  0  0  0  0  0  0  0  0
    1.9010   15.4630  -29.4640 C   0  0  0  0  0  0  0  0  0  0  0  0
    2.1500   14.8620  -28.2280 C   0  0  0  0  0  0  0  0  0  0  0  0
    1.6530   15.4420  -27.0590 C   0  0  0  0  0  0  0  0  0  0  0  0
    0.9100   16.6250  -27.1230 C   0  0  0  0  0  0  0  0  0  0  0  0
   -0.4900   21.6110  -28.4370 C   0  0  0  0  0  0  0  0  0  0  0  0
   -1.1410   22.8490  -28.4470 C   0  0  0  0  0  0  0  0  0  0  0  0
   -4.2425   23.4618  -32.7600 H   0  0  0  0  0  0  0  0  0  0  0  0
   -6.3573   22.2022  -33.1588 H   0  0  0  0  0  0  0  0  0  0  0  0
   -6.6340   20.5019  -33.3883 H   0  0  0  0  0  0  0  0  0  0  0  0
   -6.4852   20.3833  -31.6248 H   0  0  0  0  0  0  0  0  0  0  0  0
   -6.8431   18.2153  -33.6705 H   0  0  0  0  0  0  0  0  0  0  0  0
   -6.1134   18.0990  -32.0652 H   0  0  0  0  0  0  0  0  0  0  0  0
   -8.8386   17.4341  -32.8596 H   0  0  0  0  0  0  0  0  0  0  0  0
   -8.1471   17.2855  -31.2410 H   0  0  0  0  0  0  0  0  0  0  0  0
  -10.1327   19.1149  -31.9305 H   0  0  0  0  0  0  0  0  0  0  0  0
   -9.0283   19.3670  -30.5658 H   0  0  0  0  0  0  0  0  0  0  0  0
   -7.8304   23.4494  -29.2830 H   0  0  0  0  0  0  0  0  0  0  0  0
   -5.7147   24.7050  -28.8834 H   0  0  0  0  0  0  0  0  0  0  0  0
   -2.7536   22.5894  -31.4517 H   0  0  0  0  0  0  0  0  0  0  0  0
   -1.5939   20.3861  -31.4308 H   0  0  0  0  0  0  0  0  0  0  0  0
    0.6420   19.2060  -30.2900 H   0  0  0  0  0  0  0  0  0  0  0  0
    0.9650   17.1121  -30.5114 H   0  0  0  0  0  0  0  0  0  0  0  0
    2.2884   15.0033  -30.3852 H   0  0  0  0  0  0  0  0  0  0  0  0
    2.7368   13.9331  -28.1755 H   0  0  0  0  0  0  0  0  0  0  0  0
    1.8464   14.9673  -26.0857 H   0  0  0  0  0  0  0  0  0  0  0  0
    0.5142   17.0718  -26.1991 H   0  0  0  0  0  0  0  0  0  0  0  0
    0.1296   21.3272  -27.5735 H   0  0  0  0  0  0  0  0  0  0  0  0
   -1.0265   23.5338  -27.5938 H   0  0  0  0  0  0  0  0  0  0  0  0
  1  2  2  0
  2  3  1  0
  3  4  1  0
  4  5  2  0
  5  6  1  0
  6  7  2  0
  7  8  1  0
  8  9  2  0
  8 10  2  0
  8 11  1  0
 11 12  1  0
 12 13  1  0
 13 14  1  0
 14 15  1  0
  7 16  1  0
 16 17  2  0
  2 18  1  0
 18 19  2  0
 19 20  1  0
 20 21  2  0
 21 22  1  0
 22 23  1  0
 23 24  2  0
 23 25  1  0
 25 26  2  0
 26 27  1  0
 27 28  2  0
 28 29  1  0
 29 30  2  0
 21 31  1  0
 31 32  2  0
 17  4  1  0
 32 18  1  0
 15 11  1  0
 30 25  1  0
  5 33  1  0
  6 34  1  0
 12 35  1  0
 12 36  1  0
 13 37  1  0
 13 38  1  0
 14 39  1  0
 14 40  1  0
 15 41  1  0
 15 42  1  0
 16 43  1  0
 17 44  1  0
 19 45  1  0
 20 46  1  0
 22 47  1  0
 26 48  1  0
 27 49  1  0
 28 50  1  0
 29 51  1  0
 30 52  1  0
 31 53  1  0
 32 54  1  0
M  CHG  1   3  -1
M  END
>  <UniqueID>  (33) 
31

>  <SMILES>  (33) 
O=C([N-]c1ccc(S(=O)(=O)N2CCCC2)cc1)c1ccc(NC(=O)c2ccccc2)cc1

>  <Energy>  (33) 
72.31415952411254

>  <Genealogy>  (33) 
O=C([N-]c1ccc(S(=O)(=O)N2CCCC2)cc1)c1ccc(NC(=O)c2ccccc2)cc1 (protonated)
O=C([N-]c1ccc(S(=O)(=O)N2CCCC2)cc1)c1ccc(NC(=O)c2ccccc2)cc1 (3D coordinates assigned)
O=C([N-]c1ccc(S(=O)(=O)N2CCCC2)cc1)c1ccc(NC(=O)c2ccccc2)cc1 (nonaromatic ring conformer: 72.31415952411254 kcal/mol)

>  <smiles>  (33) 
O=C(Nc1ccc(C(=O)Nc2ccc(S(=O)(=O)N3CCCC3)cc2)cc1)c1ccccc1

>  <score_type>  (33) 
oracle

>  <origin>  (33) 
adgpu

>  <m_score__min__energy>  (33) 
-11.76

>  <m_primary>  (33) 
energy

$$$$
33:0
     RDKit          3D

 56 58  0  0  0  0  0  0  0  0999 V2000
   -2.5460   23.6820  -28.2840 C   0  0  0  0  0  0  0  0  0  0  0  0
   -2.4790   24.9180  -29.1280 C   0  0  0  0  0  0  0  0  0  0  0  0
   -1.4950   25.6940  -28.9940 O   0  0  0  0  0  0  0  0  0  0  0  0
   -3.5170   25.2680  -30.0520 N   0  0  0  0  0  0  0  0  0  0  0  0
   -4.6080   24.4350  -30.4690 C   0  0  0  0  0  0  0  0  0  0  0  0
   -4.4030   23.2770  -31.2380 C   0  0  0  0  0  0  0  0  0  0  0  0
   -5.4920   22.5040  -31.6520 C   0  0  0  0  0  0  0  0  0  0  0  0
   -6.7990   22.8760  -31.2990 C   0  0  0  0  0  0  0  0  0  0  0  0
   -7.9330   22.1200  -31.7420 N   0  0  0  0  0  0  0  0  0  0  0  0
   -7.9080   20.7910  -32.2810 C   0  0  0  0  0  0  0  0  0  0  0  0
   -8.9470   20.3470  -32.8370 O   0  0  0  0  0  0  0  0  0  0  0  0
   -6.7510   19.8580  -32.0280 C   0  0  0  0  0  0  0  0  0  0  0  0
   -6.7190   18.7820  -33.0300 N   0  0  0  0  0  0  0  0  0  0  0  0
   -7.5460   17.5830  -32.8580 C   0  0  0  0  0  0  0  0  0  0  0  0
   -5.7450   18.8260  -34.0940 C   0  0  0  0  0  0  0  0  0  0  0  0
   -6.1160   18.6310  -35.2850 O   0  0  0  0  0  0  0  0  0  0  0  0
   -4.3190   19.1040  -33.8240 C   0  0  0  0  0  0  0  0  0  0  0  0
   -3.3440   18.1380  -34.1220 C   0  0  0  0  0  0  0  0  0  0  0  0
   -1.9940   18.3950  -33.8650 C   0  0  0  0  0  0  0  0  0  0  0  0
   -1.6020   19.6140  -33.2970 C   0  0  0  0  0  0  0  0  0  0  0  0
    0.1050   19.9550  -33.0090 S   0  0  0  0  0  0  0  0  0  0  0  0
    0.2330   21.2730  -32.2950 O   0  0  0  0  0  0  0  0  0  0  0  0
    0.8150   20.0750  -34.3300 O   0  0  0  0  0  0  0  0  0  0  0  0
    0.8710   18.7030  -32.0520 N   0  0  0  0  0  0  0  0  0  0  0  0
   -0.1160   17.9610  -31.2590 C   0  0  0  0  0  0  0  0  0  0  0  0
   -0.1150   18.5200  -29.8430 C   0  0  0  0  0  0  0  0  0  0  0  0
    1.1260   19.3850  -29.7400 C   0  0  0  0  0  0  0  0  0  0  0  0
    1.8190   19.2770  -31.0910 C   0  0  0  0  0  0  0  0  0  0  0  0
   -2.5760   20.5650  -32.9670 C   0  0  0  0  0  0  0  0  0  0  0  0
   -3.9260   20.3120  -33.2280 C   0  0  0  0  0  0  0  0  0  0  0  0
   -7.0050   24.0630  -30.5870 C   0  0  0  0  0  0  0  0  0  0  0  0
   -5.9170   24.8360  -30.1730 C   0  0  0  0  0  0  0  0  0  0  0  0
   -2.5308   23.9629  -27.2206 H   0  0  0  0  0  0  0  0  0  0  0  0
   -3.4750   23.1364  -28.5059 H   0  0  0  0  0  0  0  0  0  0  0  0
   -1.6814   23.0392  -28.5059 H   0  0  0  0  0  0  0  0  0  0  0  0
   -3.3816   22.9774  -31.5154 H   0  0  0  0  0  0  0  0  0  0  0  0
   -5.3241   21.6007  -32.2568 H   0  0  0  0  0  0  0  0  0  0  0  0
   -5.8110   20.4269  -32.0796 H   0  0  0  0  0  0  0  0  0  0  0  0
   -6.8721   19.4083  -31.0315 H   0  0  0  0  0  0  0  0  0  0  0  0
   -7.6837   17.3834  -31.7851 H   0  0  0  0  0  0  0  0  0  0  0  0
   -8.5266   17.7431  -33.3300 H   0  0  0  0  0  0  0  0  0  0  0  0
   -7.0479   16.7232  -33.3300 H   0  0  0  0  0  0  0  0  0  0  0  0
   -3.6440   17.1745  -34.5598 H   0  0  0  0  0  0  0  0  0  0  0  0
   -1.2361   17.6364  -34.1100 H   0  0  0  0  0  0  0  0  0  0  0  0
   -1.1149   18.0795  -31.7042 H   0  0  0  0  0  0  0  0  0  0  0  0
    0.1401   16.8914  -31.2426 H   0  0  0  0  0  0  0  0  0  0  0  0
   -1.0180   19.1237  -29.6691 H   0  0  0  0  0  0  0  0  0  0  0  0
   -0.1118   17.7170  -29.0912 H   0  0  0  0  0  0  0  0  0  0  0  0
    0.8491   20.4294  -29.5338 H   0  0  0  0  0  0  0  0  0  0  0  0
    1.7822   19.0564  -28.9206 H   0  0  0  0  0  0  0  0  0  0  0  0
    2.1320   20.2759  -31.4291 H   0  0  0  0  0  0  0  0  0  0  0  0
    2.7095   18.6364  -31.0093 H   0  0  0  0  0  0  0  0  0  0  0  0
   -2.2774   21.5153  -32.5003 H   0  0  0  0  0  0  0  0  0  0  0  0
   -4.6843   21.0641  -32.9647 H   0  0  0  0  0  0  0  0  0  0  0  0
   -8.0289   24.3893  -30.3520 H   0  0  0  0  0  0  0  0  0  0  0  0
   -6.0897   25.7656  -29.6109 H   0  0  0  0  0  0  0  0  0  0  0  0
  1  2  1  0
  2  3  2  0
  2  4  1  0
  4  5  1  0
  5  6  2  0
  6  7  1  0
  7  8  2  0
  8  9  1  0
  9 10  1  0
 10 11  2  0
 10 12  1  0
 12 13  1  0
 13 14  1  0
 13 15  1  0
 15 16  2  0
 15 17  1  0
 17 18  2  0
 18 19  1  0
 19 20  2  0
 20 21  1  0
 21 22  2  0
 21 23  2  0
 21 24  1  0
 24 25  1  0
 25 26  1  0
 26 27  1  0
 27 28  1  0
 20 29  1  0
 29 30  2  0
  8 31  1  0
 31 32  2  0
 32  5  1  0
 30 17  1  0
 28 24  1  0
  1 33  1  0
  1 34  1  0
  1 35  1  0
  6 36  1  0
  7 37  1  0
 12 38  1  0
 12 39  1  0
 14 40  1  0
 14 41  1  0
 14 42  1  0
 18 43  1  0
 19 44  1  0
 25 45  1  0
 25 46  1  0
 26 47  1  0
 26 48  1  0
 27 49  1  0
 27 50  1  0
 28 51  1  0
 28 52  1  0
 29 53  1  0
 30 54  1  0
 31 55  1  0
 32 56  1  0
M  CHG  2   4  -1   9  -1
M  END
>  <UniqueID>  (34) 
32

>  <SMILES>  (34) 
CC(=O)[N-]c1ccc([N-]C(=O)CN(C)C(=O)c2ccc(S(=O)(=O)N3CCCC3)cc2)cc1

>  <Energy>  (34) 
69.06500065657937

>  <Genealogy>  (34) 
CC(=O)[N-]c1ccc([N-]C(=O)CN(C)C(=O)c2ccc(S(=O)(=O)N3CCCC3)cc2)cc1 (protonated)
CC(=O)[N-]c1ccc([N-]C(=O)CN(C)C(=O)c2ccc(S(=O)(=O)N3CCCC3)cc2)cc1 (3D coordinates assigned)
CC(=O)[N-]c1ccc([N-]C(=O)CN(C)C(=O)c2ccc(S(=O)(=O)N3CCCC3)cc2)cc1 (nonaromatic ring conformer: 69.06500065657937 kcal/mol)

>  <smiles>  (34) 
CC(=O)Nc1ccc(NC(=O)CN(C)C(=O)c2ccc(S(=O)(=O)N3CCCC3)cc2)cc1

>  <score_type>  (34) 
oracle

>  <origin>  (34) 
adgpu

>  <m_score__min__energy>  (34) 
-10.94

>  <m_primary>  (34) 
energy

$$$$
34:0
     RDKit          3D

 42 44  0  0  0  0  0  0  0  0999 V2000
   -7.9860   17.9940  -32.2960 C   0  0  0  0  0  0  0  0  0  0  0  0
   -8.8680   19.2370  -32.2090 C   0  0  0  0  0  0  0  0  0  0  0  0
   -8.0270   20.4820  -32.0960 C   0  0  0  0  0  0  0  0  0  0  0  0
   -6.6600   20.4460  -32.4050 C   0  0  0  0  0  0  0  0  0  0  0  0
   -5.8880   21.6090  -32.3270 C   0  0  0  0  0  0  0  0  0  0  0  0
   -6.4710   22.8260  -31.9490 C   0  0  0  0  0  0  0  0  0  0  0  0
   -5.6410   23.9940  -31.8810 N   0  0  0  0  0  0  0  0  0  0  0  0
   -4.8070   24.5440  -30.4660 S   0  0  0  0  0  0  0  0  0  0  0  0
   -3.8720   25.6590  -30.8460 O   0  0  0  0  0  0  0  0  0  0  0  0
   -5.8060   25.0690  -29.4760 O   0  0  0  0  0  0  0  0  0  0  0  0
   -3.9310   23.2020  -29.7350 C   0  0  0  0  0  0  0  0  0  0  0  0
   -3.1290   22.3830  -30.5380 C   0  0  0  0  0  0  0  0  0  0  0  0
   -2.4210   21.3190  -29.9720 C   0  0  0  0  0  0  0  0  0  0  0  0
   -2.4960   21.0680  -28.5900 C   0  0  0  0  0  0  0  0  0  0  0  0
   -1.7860   19.9290  -27.9670 C   0  0  0  0  0  0  0  0  0  0  0  0
   -0.5600   19.5790  -28.2950 O   0  0  0  0  0  0  0  0  0  0  0  0
   -0.2440   18.5470  -27.5480 C   0  0  0  0  0  0  0  0  0  0  0  0
    0.8690   17.9620  -27.6010 O   0  0  0  0  0  0  0  0  0  0  0  0
   -1.2390   18.1760  -26.7200 N   0  0  0  0  0  0  0  0  0  0  0  0
   -2.2330   19.0440  -26.9880 C   0  0  0  0  0  0  0  0  0  0  0  0
   -3.5860   18.9720  -26.3510 C   0  0  0  0  0  0  0  0  0  0  0  0
   -3.3170   21.8830  -27.7930 C   0  0  0  0  0  0  0  0  0  0  0  0
   -4.0250   22.9480  -28.3610 C   0  0  0  0  0  0  0  0  0  0  0  0
   -7.8430   22.8640  -31.6420 C   0  0  0  0  0  0  0  0  0  0  0  0
   -8.6150   21.7010  -31.7230 C   0  0  0  0  0  0  0  0  0  0  0  0
   -7.7400   17.6473  -31.2815 H   0  0  0  0  0  0  0  0  0  0  0  0
   -8.5237   17.1998  -32.8346 H   0  0  0  0  0  0  0  0  0  0  0  0
   -7.0588   18.2393  -32.8346 H   0  0  0  0  0  0  0  0  0  0  0  0
   -9.4895   19.3024  -33.1142 H   0  0  0  0  0  0  0  0  0  0  0  0
   -9.5027   19.1574  -31.3141 H   0  0  0  0  0  0  0  0  0  0  0  0
   -6.1926   19.4982  -32.7103 H   0  0  0  0  0  0  0  0  0  0  0  0
   -4.8146   21.5684  -32.5642 H   0  0  0  0  0  0  0  0  0  0  0  0
   -3.0556   22.5773  -31.6182 H   0  0  0  0  0  0  0  0  0  0  0  0
   -1.8010   20.6736  -30.6116 H   0  0  0  0  0  0  0  0  0  0  0  0
   -1.2440   17.3810  -26.0430 H   0  0  0  0  0  0  0  0  0  0  0  0
   -3.4767   18.9778  -25.2565 H   0  0  0  0  0  0  0  0  0  0  0  0
   -4.1854   19.8395  -26.6643 H   0  0  0  0  0  0  0  0  0  0  0  0
   -4.0899   18.0458  -26.6643 H   0  0  0  0  0  0  0  0  0  0  0  0
   -3.4039   21.6826  -26.7149 H   0  0  0  0  0  0  0  0  0  0  0  0
   -4.6569   23.5872  -27.7268 H   0  0  0  0  0  0  0  0  0  0  0  0
   -8.3104   23.8120  -31.3371 H   0  0  0  0  0  0  0  0  0  0  0  0
   -9.6899   21.7415  -31.4930 H   0  0  0  0  0  0  0  0  0  0  0  0
  1  2  1  0
  2  3  1  0
  3  4  2  0
  4  5  1  0
  5  6  2  0
  6  7  1  0
  7  8  1  0
  8  9  2  0
  8 10  2  0
  8 11  1  0
 11 12  2  0
 12 13  1  0
 13 14  2  0
 14 15  1  0
 15 16  1  0
 16 17  1  0
 17 18  2  0
 17 19  1  0
 19 20  1  0
 20 21  1  0
 14 22  1  0
 22 23  2  0
  6 24  1  0
 24 25  2  0
 25  3  1  0
 23 11  1  0
 20 15  2  0
  1 26  1  0
  1 27  1  0
  1 28  1  0
  2 29  1  0
  2 30  1  0
  4 31  1  0
  5 32  1  0
 12 33  1  0
 13 34  1  0
 19 35  1  0
 21 36  1  0
 21 37  1  0
 21 38  1  0
 22 39  1  0
 23 40  1  0
 24 41  1  0
 25 42  1  0
M  CHG  1   7  -1
M  END
>  <UniqueID>  (35) 
33

>  <SMILES>  (35) 
CCc1ccc([N-]S(=O)(=O)c2ccc(-c3oc(=O)[nH]c3C)cc2)cc1

>  <Energy>  (35) 
78.87855339690944

>  <Genealogy>  (35) 
CCc1ccc([N-]S(=O)(=O)c2ccc(-c3oc(=O)[nH]c3C)cc2)cc1 (protonated)
CCc1ccc([N-]S(=O)(=O)c2ccc(-c3oc(=O)[nH]c3C)cc2)cc1 (3D coordinates assigned)
CCc1ccc([N-]S(=O)(=O)c2ccc(-c3oc(=O)[nH]c3C)cc2)cc1 (optimized conformer: 78.87855339690944 kcal/mol)

>  <smiles>  (35) 
CCc1ccc(NS(=O)(=O)c2ccc(-c3oc(=O)[nH]c3C)cc2)cc1

>  <score_type>  (35) 
oracle

>  <origin>  (35) 
adgpu

>  <m_score__min__energy>  (35) 
-10.41

>  <m_primary>  (35) 
energy

$$$$
35:0
     RDKit          3D

 46 48  0  0  0  0  0  0  0  0999 V2000
   -5.9710   18.5680  -34.2670 C   0  0  0  0  0  0  0  0  0  0  0  0
   -5.9060   19.7730  -33.3650 C   0  0  0  0  0  0  0  0  0  0  0  0
   -4.6990   20.4840  -33.2520 C   0  0  0  0  0  0  0  0  0  0  0  0
   -4.6100   21.6040  -32.4250 C   0  0  0  0  0  0  0  0  0  0  0  0
   -5.7250   22.0350  -31.7000 C   0  0  0  0  0  0  0  0  0  0  0  0
   -5.6060   23.4650  -30.6760 S   0  0  0  0  0  0  0  0  0  0  0  0
   -6.9310   24.1730  -30.6830 O   0  0  0  0  0  0  0  0  0  0  0  0
   -4.5470   24.4000  -31.1870 O   0  0  0  0  0  0  0  0  0  0  0  0
   -5.2190   23.0010  -29.0500 N   0  0  0  0  0  0  0  0  0  0  0  0
   -3.8930   22.8040  -28.5360 C   0  0  0  0  0  0  0  0  0  0  0  0
   -3.4830   21.5630  -28.0150 C   0  0  0  0  0  0  0  0  0  0  0  0
   -2.1940   21.4010  -27.5070 C   0  0  0  0  0  0  0  0  0  0  0  0
   -1.2980   22.4690  -27.5120 C   0  0  0  0  0  0  0  0  0  0  0  0
   -1.6860   23.7140  -28.0260 C   0  0  0  0  0  0  0  0  0  0  0  0
   -0.5320   25.0490  -28.0340 S   0  0  0  0  0  0  0  0  0  0  0  0
    0.8500   24.5300  -28.3150 O   0  0  0  0  0  0  0  0  0  0  0  0
   -0.8850   26.0320  -29.1160 O   0  0  0  0  0  0  0  0  0  0  0  0
   -0.5740   25.8620  -26.4740 C   0  0  0  0  0  0  0  0  0  0  0  0
   -0.7280   27.2550  -26.4140 C   0  0  0  0  0  0  0  0  0  0  0  0
   -0.7720   27.9040  -25.1760 C   0  0  0  0  0  0  0  0  0  0  0  0
   -0.6660   27.1660  -23.9940 C   0  0  0  0  0  0  0  0  0  0  0  0
   -0.5200   25.7760  -24.0480 C   0  0  0  0  0  0  0  0  0  0  0  0
   -0.4760   25.1240  -25.2850 C   0  0  0  0  0  0  0  0  0  0  0  0
   -2.9830   23.8820  -28.5500 C   0  0  0  0  0  0  0  0  0  0  0  0
   -3.3530   25.1200  -29.0800 O   0  0  0  0  0  0  0  0  0  0  0  0
   -6.9300   21.3290  -31.7940 C   0  0  0  0  0  0  0  0  0  0  0  0
   -7.0330   20.1960  -32.6200 C   0  0  0  0  0  0  0  0  0  0  0  0
   -8.3450   19.4610  -32.7050 C   0  0  0  0  0  0  0  0  0  0  0  0
   -6.0203   17.6547  -33.6558 H   0  0  0  0  0  0  0  0  0  0  0  0
   -6.8669   18.6331  -34.9019 H   0  0  0  0  0  0  0  0  0  0  0  0
   -5.0733   18.5364  -34.9019 H   0  0  0  0  0  0  0  0  0  0  0  0
   -3.8168   20.1545  -33.8205 H   0  0  0  0  0  0  0  0  0  0  0  0
   -3.6587   22.1502  -32.3430 H   0  0  0  0  0  0  0  0  0  0  0  0
   -4.1835   20.7149  -28.0082 H   0  0  0  0  0  0  0  0  0  0  0  0
   -1.8834   20.4270  -27.1010 H   0  0  0  0  0  0  0  0  0  0  0  0
   -0.2826   22.3342  -27.1110 H   0  0  0  0  0  0  0  0  0  0  0  0
   -0.8143   27.8381  -27.3427 H   0  0  0  0  0  0  0  0  0  0  0  0
   -0.8902   28.9968  -25.1326 H   0  0  0  0  0  0  0  0  0  0  0  0
   -0.6974   27.6783  -23.0211 H   0  0  0  0  0  0  0  0  0  0  0  0
   -0.4397   25.1952  -23.1173 H   0  0  0  0  0  0  0  0  0  0  0  0
   -0.3643   24.0304  -25.3254 H   0  0  0  0  0  0  0  0  0  0  0  0
   -4.3140   25.3620  -29.2830 H   0  0  0  0  0  0  0  0  0  0  0  0
   -7.8043   21.6637  -31.2164 H   0  0  0  0  0  0  0  0  0  0  0  0
   -8.7154   19.2535  -31.6903 H   0  0  0  0  0  0  0  0  0  0  0  0
   -9.0778   20.0799  -33.2434 H   0  0  0  0  0  0  0  0  0  0  0  0
   -8.1999   18.5128  -33.2434 H   0  0  0  0  0  0  0  0  0  0  0  0
  1  2  1  0
  2  3  2  0
  3  4  1  0
  4  5  2  0
  5  6  1  0
  6  7  2  0
  6  8  2  0
  6  9  1  0
  9 10  1  0
 10 11  2  0
 11 12  1  0
 12 13  2  0
 13 14  1  0
 14 15  1  0
 15 16  2  0
 15 17  2  0
 15 18  1  0
 18 19  2  0
 19 20  1  0
 20 21  2  0
 21 22  1  0
 22 23  2  0
 14 24  2  0
 24 25  1  0
  5 26  1  0
 26 27  2  0
 27 28  1  0
 27  2  1  0
 24 10  1  0
 23 18  1  0
  1 29  1  0
  1 30  1  0
  1 31  1  0
  3 32  1  0
  4 33  1  0
 11 34  1  0
 12 35  1  0
 13 36  1  0
 19 37  1  0
 20 38  1  0
 21 39  1  0
 22 40  1  0
 23 41  1  0
 25 42  1  0
 26 43  1  0
 28 44  1  0
 28 45  1  0
 28 46  1  0
M  CHG  1   9  -1
M  END
>  <UniqueID>  (36) 
34

>  <SMILES>  (36) 
Cc1ccc(S(=O)(=O)[N-]c2cccc(S(=O)(=O)c3ccccc3)c2O)cc1C

>  <Energy>  (36) 
54.71576503537744

>  <Genealogy>  (36) 
Cc1ccc(S(=O)(=O)[N-]c2cccc(S(=O)(=O)c3ccccc3)c2O)cc1C (protonated)
Cc1ccc(S(=O)(=O)[N-]c2cccc(S(=O)(=O)c3ccccc3)c2O)cc1C (3D coordinates assigned)
Cc1ccc(S(=O)(=O)[N-]c2cccc(S(=O)(=O)c3ccccc3)c2O)cc1C (optimized conformer: 54.71576503537744 kcal/mol)

>  <smiles>  (36) 
Cc1ccc(S(=O)(=O)Nc2cccc(S(=O)(=O)c3ccccc3)c2O)cc1C

>  <score_type>  (36) 
oracle

>  <origin>  (36) 
adgpu

>  <m_score__min__energy>  (36) 
-12.300000000000001

>  <m_primary>  (36) 
energy

$$$$
36:0
     RDKit          3D

 51 53  0  0  0  0  0  0  0  0999 V2000
   -0.4440   18.9100  -29.1540 C   0  0  0  0  0  0  0  0  0  0  0  0
   -0.9800   20.3200  -29.0990 C   0  0  0  0  0  0  0  0  0  0  0  0
   -0.4720   21.2720  -29.9950 C   0  0  0  0  0  0  0  0  0  0  0  0
   -0.9300   22.5910  -29.9680 C   0  0  0  0  0  0  0  0  0  0  0  0
   -1.9060   22.9800  -29.0450 C   0  0  0  0  0  0  0  0  0  0  0  0
   -2.4730   24.6480  -29.0300 S   0  0  0  0  0  0  0  0  0  0  0  0
   -1.3180   25.6110  -29.0320 O   0  0  0  0  0  0  0  0  0  0  0  0
   -3.2720   24.8780  -27.7780 O   0  0  0  0  0  0  0  0  0  0  0  0
   -3.4890   24.9330  -30.4070 N   0  0  0  0  0  0  0  0  0  0  0  0
   -4.7740   24.3400  -30.6380 C   0  0  0  0  0  0  0  0  0  0  0  0
   -5.9740   24.9800  -30.2810 C   0  0  0  0  0  0  0  0  0  0  0  0
   -7.2020   24.3590  -30.5170 C   0  0  0  0  0  0  0  0  0  0  0  0
   -7.2480   23.0980  -31.1130 C   0  0  0  0  0  0  0  0  0  0  0  0
   -6.0590   22.4540  -31.4840 C   0  0  0  0  0  0  0  0  0  0  0  0
   -6.1040   20.8840  -32.2870 S   0  0  0  0  0  0  0  0  0  0  0  0
   -7.2220   20.8930  -33.2930 O   0  0  0  0  0  0  0  0  0  0  0  0
   -6.3700   19.8000  -31.2770 O   0  0  0  0  0  0  0  0  0  0  0  0
   -4.5860   20.5670  -33.0960 N   0  0  0  0  0  0  0  0  0  0  0  0
   -4.6630   19.2710  -33.8140 C   0  0  0  0  0  0  0  0  0  0  0  0
   -3.2770   18.6880  -34.1700 C   0  0  0  0  0  0  0  0  0  0  0  0
   -2.1960   19.7700  -34.1890 C   0  0  0  0  0  0  0  0  0  0  0  0
   -2.1100   20.4910  -32.8320 C   0  0  0  0  0  0  0  0  0  0  0  0
   -3.4770   20.5850  -32.1220 C   0  0  0  0  0  0  0  0  0  0  0  0
   -4.8270   23.0770  -31.2420 C   0  0  0  0  0  0  0  0  0  0  0  0
   -2.4070   22.0430  -28.1330 C   0  0  0  0  0  0  0  0  0  0  0  0
   -1.9330   20.7210  -28.1300 C   0  0  0  0  0  0  0  0  0  0  0  0
   -2.4730   19.7520  -27.1110 C   0  0  0  0  0  0  0  0  0  0  0  0
   -0.3004   18.5322  -28.1310 H   0  0  0  0  0  0  0  0  0  0  0  0
   -1.1600   18.2660  -29.6856 H   0  0  0  0  0  0  0  0  0  0  0  0
    0.5190   18.9043  -29.6856 H   0  0  0  0  0  0  0  0  0  0  0  0
    0.2948   20.9767  -30.7263 H   0  0  0  0  0  0  0  0  0  0  0  0
   -0.5213   23.3272  -30.6758 H   0  0  0  0  0  0  0  0  0  0  0  0
   -5.9451   25.9752  -29.8133 H   0  0  0  0  0  0  0  0  0  0  0  0
   -8.1361   24.8653  -30.2323 H   0  0  0  0  0  0  0  0  0  0  0  0
   -8.2171   22.6092  -31.2918 H   0  0  0  0  0  0  0  0  0  0  0  0
   -4.4420   21.3360  -33.7910 H   0  0  0  0  0  0  0  0  0  0  0  0
   -5.1924   18.5486  -33.1753 H   0  0  0  0  0  0  0  0  0  0  0  0
   -5.1935   19.4530  -34.7603 H   0  0  0  0  0  0  0  0  0  0  0  0
   -3.0073   17.9277  -33.4222 H   0  0  0  0  0  0  0  0  0  0  0  0
   -3.3386   18.2471  -35.1759 H   0  0  0  0  0  0  0  0  0  0  0  0
   -1.2247   19.3036  -34.4102 H   0  0  0  0  0  0  0  0  0  0  0  0
   -2.4548   20.5090  -34.9616 H   0  0  0  0  0  0  0  0  0  0  0  0
   -1.4134   19.9394  -32.1835 H   0  0  0  0  0  0  0  0  0  0  0  0
   -1.7618   21.5171  -33.0215 H   0  0  0  0  0  0  0  0  0  0  0  0
   -3.5859   19.7302  -31.4383 H   0  0  0  0  0  0  0  0  0  0  0  0
   -3.5166   21.5334  -31.5661 H   0  0  0  0  0  0  0  0  0  0  0  0
   -3.8939   22.5700  -31.5287 H   0  0  0  0  0  0  0  0  0  0  0  0
   -3.1800   22.3456  -27.4113 H   0  0  0  0  0  0  0  0  0  0  0  0
   -2.2629   20.1290  -26.0992 H   0  0  0  0  0  0  0  0  0  0  0  0
   -3.5598   19.6469  -27.2448 H   0  0  0  0  0  0  0  0  0  0  0  0
   -1.9907   18.7725  -27.2448 H   0  0  0  0  0  0  0  0  0  0  0  0
  1  2  1  0
  2  3  2  0
  3  4  1  0
  4  5  2  0
  5  6  1  0
  6  7  2  0
  6  8  2  0
  6  9  1  0
  9 10  1  0
 10 11  2  0
 11 12  1  0
 12 13  2  0
 13 14  1  0
 14 15  1  0
 15 16  2  0
 15 17  2  0
 15 18  1  0
 18 19  1  0
 19 20  1  0
 20 21  1  0
 21 22  1  0
 22 23  1  0
 14 24  2  0
  5 25  1  0
 25 26  2  0
 26 27  1  0
 26  2  1  0
 24 10  1  0
 23 18  1  0
  1 28  1  0
  1 29  1  0
  1 30  1  0
  3 31  1  0
  4 32  1  0
 11 33  1  0
 12 34  1  0
 13 35  1  0
 18 36  1  0
 19 37  1  0
 19 38  1  0
 20 39  1  0
 20 40  1  0
 21 41  1  0
 21 42  1  0
 22 43  1  0
 22 44  1  0
 23 45  1  0
 23 46  1  0
 24 47  1  0
 25 48  1  0
 27 49  1  0
 27 50  1  0
 27 51  1  0
M  CHG  2   9  -1  18   1
M  END
>  <UniqueID>  (37) 
35

>  <SMILES>  (37) 
Cc1ccc(S(=O)(=O)[N-]c2cccc(S(=O)(=O)[NH+]3CCCCC3)c2)cc1C

>  <Energy>  (37) 
58.964602912403066

>  <Genealogy>  (37) 
Cc1ccc(S(=O)(=O)[N-]c2cccc(S(=O)(=O)[NH+]3CCCCC3)c2)cc1C (protonated)
Cc1ccc(S(=O)(=O)[N-]c2cccc(S(=O)(=O)[NH+]3CCCCC3)c2)cc1C (3D coordinates assigned)
Cc1ccc(S(=O)(=O)[N-]c2cccc(S(=O)(=O)[NH+]3CCCCC3)c2)cc1C (nonaromatic ring conformer: 58.964602912403066 kcal/mol)

>  <smiles>  (37) 
Cc1ccc(S(=O)(=O)Nc2cccc(S(=O)(=O)N3CCCCC3)c2)cc1C

>  <score_type>  (37) 
oracle

>  <origin>  (37) 
adgpu

>  <m_score__min__energy>  (37) 
-10.74

>  <m_primary>  (37) 
energy

$$$$
37:0
     RDKit          3D

 58 62  0  0  0  0  0  0  0  0999 V2000
    1.1910   25.5800  -35.6670 C   0  0  0  0  0  0  0  0  0  0  0  0
    1.5800   24.8250  -36.9000 C   0  0  0  0  0  0  0  0  0  0  0  0
    1.1580   25.2260  -38.0160 O   0  0  0  0  0  0  0  0  0  0  0  0
    2.4550   23.6900  -36.8550 N   0  0  0  0  0  0  0  0  0  0  0  0
    2.3300   22.5420  -36.0050 C   0  0  0  0  0  0  0  0  0  0  0  0
    3.4810   21.8210  -35.6670 C   0  0  0  0  0  0  0  0  0  0  0  0
    3.3930   20.6960  -34.8450 C   0  0  0  0  0  0  0  0  0  0  0  0
    2.1500   20.2680  -34.3730 C   0  0  0  0  0  0  0  0  0  0  0  0
    0.9760   20.9490  -34.7390 C   0  0  0  0  0  0  0  0  0  0  0  0
   -0.3030   20.5060  -34.2400 N   0  0  0  0  0  0  0  0  0  0  0  0
   -1.3840   21.4070  -33.8180 C   0  0  0  0  0  0  0  0  0  0  0  0
   -2.5700   20.4980  -33.6850 C   0  0  0  0  0  0  0  0  0  0  0  0
   -3.8850   20.8410  -33.3750 C   0  0  0  0  0  0  0  0  0  0  0  0
   -4.8700   19.8250  -33.3610 C   0  0  0  0  0  0  0  0  0  0  0  0
   -6.2170   20.1120  -33.0930 O   0  0  0  0  0  0  0  0  0  0  0  0
   -6.6650   21.1160  -32.2170 C   0  0  0  0  0  0  0  0  0  0  0  0
   -8.0420   21.3030  -32.0470 C   0  0  0  0  0  0  0  0  0  0  0  0
   -8.5180   22.2630  -31.1470 C   0  0  0  0  0  0  0  0  0  0  0  0
   -7.6200   23.0540  -30.4240 C   0  0  0  0  0  0  0  0  0  0  0  0
   -6.2390   22.9250  -30.6310 C   0  0  0  0  0  0  0  0  0  0  0  0
   -5.3400   23.7370  -29.8640 N   0  0  0  0  0  0  0  0  0  0  0  0
   -4.5410   24.8060  -30.3870 C   0  0  0  0  0  0  0  0  0  0  0  0
   -5.0410   25.6380  -31.1890 O   0  0  0  0  0  0  0  0  0  0  0  0
   -3.1600   24.9300  -30.0300 N   0  0  0  0  0  0  0  0  0  0  0  0
   -2.2600   23.8530  -29.7400 C   0  0  0  0  0  0  0  0  0  0  0  0
   -2.3440   22.6770  -30.5030 C   0  0  0  0  0  0  0  0  0  0  0  0
   -1.4800   21.6060  -30.2510 C   0  0  0  0  0  0  0  0  0  0  0  0
   -0.5150   21.7090  -29.2460 C   0  0  0  0  0  0  0  0  0  0  0  0
   -0.4050   22.8880  -28.5000 C   0  0  0  0  0  0  0  0  0  0  0  0
   -1.2670   23.9620  -28.7490 C   0  0  0  0  0  0  0  0  0  0  0  0
   -5.7650   21.9520  -31.5280 C   0  0  0  0  0  0  0  0  0  0  0  0
   -4.4940   18.4860  -33.6010 C   0  0  0  0  0  0  0  0  0  0  0  0
   -3.1630   18.1600  -33.9070 C   0  0  0  0  0  0  0  0  0  0  0  0
   -2.2280   19.1940  -33.9500 C   0  0  0  0  0  0  0  0  0  0  0  0
   -0.8260   19.1760  -34.2800 C   0  0  0  0  0  0  0  0  0  0  0  0
   -0.1450   18.1410  -34.5100 O   0  0  0  0  0  0  0  0  0  0  0  0
    1.0760   22.0880  -35.5580 C   0  0  0  0  0  0  0  0  0  0  0  0
    1.4869   25.0057  -34.7767 H   0  0  0  0  0  0  0  0  0  0  0  0
    1.6985   26.5559  -35.6592 H   0  0  0  0  0  0  0  0  0  0  0  0
    0.1017   25.7332  -35.6592 H   0  0  0  0  0  0  0  0  0  0  0  0
    4.4603   22.1425  -36.0511 H   0  0  0  0  0  0  0  0  0  0  0  0
    4.3044   20.1456  -34.5685 H   0  0  0  0  0  0  0  0  0  0  0  0
    2.0894   19.3921  -33.7104 H   0  0  0  0  0  0  0  0  0  0  0  0
   -1.1448   21.8836  -32.8559 H   0  0  0  0  0  0  0  0  0  0  0  0
   -1.5546   22.2308  -34.5267 H   0  0  0  0  0  0  0  0  0  0  0  0
   -4.1524   21.8830  -33.1453 H   0  0  0  0  0  0  0  0  0  0  0  0
   -8.7528   20.6927  -32.6234 H   0  0  0  0  0  0  0  0  0  0  0  0
   -9.6011   22.3956  -31.0080 H   0  0  0  0  0  0  0  0  0  0  0  0
   -7.9983   23.7805  -29.6898 H   0  0  0  0  0  0  0  0  0  0  0  0
   -3.0939   22.5975  -31.3038 H   0  0  0  0  0  0  0  0  0  0  0  0
   -1.5604   20.6830  -30.8440 H   0  0  0  0  0  0  0  0  0  0  0  0
    0.1582   20.8636  -29.0411 H   0  0  0  0  0  0  0  0  0  0  0  0
    0.3615   22.9708  -27.7154 H   0  0  0  0  0  0  0  0  0  0  0  0
   -1.1682   24.8919  -28.1697 H   0  0  0  0  0  0  0  0  0  0  0  0
   -4.6830   21.8427  -31.6931 H   0  0  0  0  0  0  0  0  0  0  0  0
   -5.2512   17.6899  -33.5478 H   0  0  0  0  0  0  0  0  0  0  0  0
   -2.8664   17.1198  -34.1069 H   0  0  0  0  0  0  0  0  0  0  0  0
    0.1645   22.6291  -35.8519 H   0  0  0  0  0  0  0  0  0  0  0  0
  1  2  1  0
  2  3  2  0
  2  4  1  0
  4  5  1  0
  5  6  2  0
  6  7  1  0
  7  8  2  0
  8  9  1  0
  9 10  1  0
 10 11  1  0
 11 12  1  0
 12 13  2  0
 13 14  1  0
 14 15  1  0
 15 16  1  0
 16 17  2  0
 17 18  1  0
 18 19  2  0
 19 20  1  0
 20 21  1  0
 21 22  1  0
 22 23  2  0
 22 24  1  0
 24 25  1  0
 25 26  2  0
 26 27  1  0
 27 28  2  0
 28 29  1  0
 29 30  2  0
 20 31  2  0
 14 32  2  0
 32 33  1  0
 33 34  2  0
 34 35  1  0
 35 36  2  0
  9 37  2  0
 37  5  1  0
 35 10  1  0
 34 12  1  0
 31 16  1  0
 30 25  1  0
  1 38  1  0
  1 39  1  0
  1 40  1  0
  6 41  1  0
  7 42  1  0
  8 43  1  0
 11 44  1  0
 11 45  1  0
 13 46  1  0
 17 47  1  0
 18 48  1  0
 19 49  1  0
 26 50  1  0
 27 51  1  0
 28 52  1  0
 29 53  1  0
 30 54  1  0
 31 55  1  0
 32 56  1  0
 33 57  1  0
 37 58  1  0
M  CHG  3   4  -1  21  -1  24  -1
M  END
>  <UniqueID>  (38) 
36

>  <SMILES>  (38) 
CC(=O)[N-]c1cccc(N2Cc3cc(Oc4cccc([N-]C(=O)[N-]c5ccccc5)c4)ccc3C2=O)c1

>  <Energy>  (38) 
107.32940430411921

>  <Genealogy>  (38) 
CC(=O)[N-]c1cccc(N2Cc3cc(Oc4cccc([N-]C(=O)[N-]c5ccccc5)c4)ccc3C2=O)c1 (protonated)
CC(=O)[N-]c1cccc(N2Cc3cc(Oc4cccc([N-]C(=O)[N-]c5ccccc5)c4)ccc3C2=O)c1 (3D coordinates assigned)
CC(=O)[N-]c1cccc(N2Cc3cc(Oc4cccc([N-]C(=O)[N-]c5ccccc5)c4)ccc3C2=O)c1 (nonaromatic ring conformer: 107.32940430411921 kcal/mol)

>  <smiles>  (38) 
CC(=O)Nc1cccc(N2Cc3cc(Oc4cccc(NC(=O)Nc5ccccc5)c4)ccc3C2=O)c1

>  <score_type>  (38) 
oracle

>  <origin>  (38) 
adgpu

>  <m_score__min__energy>  (38) 
-14.09

>  <m_primary>  (38) 
energy

$$$$
38:0
     RDKit          3D

 38 40  0  0  0  0  0  0  0  0999 V2000
   -2.7250   23.7120  -28.2470 C   0  0  0  0  0  0  0  0  0  0  0  0
   -2.5500   24.9130  -29.1250 C   0  0  0  0  0  0  0  0  0  0  0  0
   -1.5350   25.6410  -28.9680 O   0  0  0  0  0  0  0  0  0  0  0  0
   -3.5220   25.2850  -30.1120 N   0  0  0  0  0  0  0  0  0  0  0  0
   -4.6250   24.4900  -30.5680 C   0  0  0  0  0  0  0  0  0  0  0  0
   -4.4280   23.2950  -31.2810 C   0  0  0  0  0  0  0  0  0  0  0  0
   -5.5260   22.5570  -31.7340 C   0  0  0  0  0  0  0  0  0  0  0  0
   -6.8300   23.0000  -31.4860 C   0  0  0  0  0  0  0  0  0  0  0  0
   -7.9320   22.2180  -31.9690 N   0  0  0  0  0  0  0  0  0  0  0  0
   -8.2570   20.8780  -31.5740 C   0  0  0  0  0  0  0  0  0  0  0  0
   -9.1590   20.7050  -30.7120 O   0  0  0  0  0  0  0  0  0  0  0  0
   -7.5910   19.6980  -32.1710 C   0  0  0  0  0  0  0  0  0  0  0  0
   -6.3440   19.8600  -32.7980 C   0  0  0  0  0  0  0  0  0  0  0  0
   -5.6980   18.7670  -33.3940 C   0  0  0  0  0  0  0  0  0  0  0  0
   -4.4590   18.9310  -34.0350 C   0  0  0  0  0  0  0  0  0  0  0  0
   -3.8260   17.8370  -34.6300 C   0  0  0  0  0  0  0  0  0  0  0  0
   -4.4210   16.5730  -34.5890 C   0  0  0  0  0  0  0  0  0  0  0  0
   -5.6530   16.3970  -33.9540 C   0  0  0  0  0  0  0  0  0  0  0  0
   -6.3000   17.4880  -33.3530 C   0  0  0  0  0  0  0  0  0  0  0  0
   -7.5320   17.3230  -32.7090 C   0  0  0  0  0  0  0  0  0  0  0  0
   -8.1750   18.4150  -32.1090 C   0  0  0  0  0  0  0  0  0  0  0  0
   -9.3810   18.2220  -31.4360 O   0  0  0  0  0  0  0  0  0  0  0  0
   -7.0260   24.2230  -30.8210 C   0  0  0  0  0  0  0  0  0  0  0  0
   -5.9280   24.9610  -30.3680 C   0  0  0  0  0  0  0  0  0  0  0  0
   -2.6802   24.0195  -27.1918 H   0  0  0  0  0  0  0  0  0  0  0  0
   -3.7004   23.2468  -28.4522 H   0  0  0  0  0  0  0  0  0  0  0  0
   -1.9229   22.9878  -28.4522 H   0  0  0  0  0  0  0  0  0  0  0  0
   -3.4070   22.9391  -31.4833 H   0  0  0  0  0  0  0  0  0  0  0  0
   -5.3635   21.6215  -32.2893 H   0  0  0  0  0  0  0  0  0  0  0  0
   -5.8704   20.8525  -32.8216 H   0  0  0  0  0  0  0  0  0  0  0  0
   -3.9859   19.9235  -34.0686 H   0  0  0  0  0  0  0  0  0  0  0  0
   -2.8565   17.9708  -35.1322 H   0  0  0  0  0  0  0  0  0  0  0  0
   -3.9180   15.7145  -35.0579 H   0  0  0  0  0  0  0  0  0  0  0  0
   -6.1174   15.4003  -33.9250 H   0  0  0  0  0  0  0  0  0  0  0  0
   -7.9997   16.3280  -32.6734 H   0  0  0  0  0  0  0  0  0  0  0  0
   -9.5340   18.5870  -30.5030 H   0  0  0  0  0  0  0  0  0  0  0  0
   -8.0460   24.6005  -30.6565 H   0  0  0  0  0  0  0  0  0  0  0  0
   -6.0893   25.9184  -29.8509 H   0  0  0  0  0  0  0  0  0  0  0  0
  1  2  1  0
  2  3  2  0
  2  4  1  0
  4  5  1  0
  5  6  2  0
  6  7  1  0
  7  8  2  0
  8  9  1  0
  9 10  1  0
 10 11  2  0
 10 12  1  0
 12 13  2  0
 13 14  1  0
 14 15  2  0
 15 16  1  0
 16 17  2  0
 17 18  1  0
 18 19  2  0
 19 20  1  0
 20 21  2  0
 21 22  1  0
  8 23  1  0
 23 24  2  0
 24  5  1  0
 21 12  1  0
 19 14  1  0
  1 25  1  0
  1 26  1  0
  1 27  1  0
  6 28  1  0
  7 29  1  0
 13 30  1  0
 15 31  1  0
 16 32  1  0
 17 33  1  0
 18 34  1  0
 20 35  1  0
 22 36  1  0
 23 37  1  0
 24 38  1  0
M  CHG  2   4  -1   9  -1
M  END
>  <UniqueID>  (39) 
37

>  <SMILES>  (39) 
CC(=O)[N-]c1ccc([N-]C(=O)c2cc3ccccc3cc2O)cc1

>  <Energy>  (39) 
54.7729633728836

>  <Genealogy>  (39) 
CC(=O)[N-]c1ccc([N-]C(=O)c2cc3ccccc3cc2O)cc1 (protonated)
CC(=O)[N-]c1ccc([N-]C(=O)c2cc3ccccc3cc2O)cc1 (3D coordinates assigned)
CC(=O)[N-]c1ccc([N-]C(=O)c2cc3ccccc3cc2O)cc1 (optimized conformer: 54.7729633728836 kcal/mol)

>  <smiles>  (39) 
CC(=O)Nc1ccc(NC(=O)c2cc3ccccc3cc2O)cc1

>  <score_type>  (39) 
oracle

>  <origin>  (39) 
adgpu

>  <m_score__min__energy>  (39) 
-10.279999999999999

>  <m_primary>  (39) 
energy

$$$$
39:0
     RDKit          3D

 51 53  0  0  0  0  0  0  0  0999 V2000
   -3.8270   19.2140  -33.2840 C   0  0  0  0  0  0  0  0  0  0  0  0
   -2.7490   19.3170  -32.3580 O   0  0  0  0  0  0  0  0  0  0  0  0
   -2.5580   20.3950  -31.4830 C   0  0  0  0  0  0  0  0  0  0  0  0
   -3.3180   20.4400  -30.3080 C   0  0  0  0  0  0  0  0  0  0  0  0
   -3.1670   21.4960  -29.4050 C   0  0  0  0  0  0  0  0  0  0  0  0
   -2.2500   22.5250  -29.6640 C   0  0  0  0  0  0  0  0  0  0  0  0
   -2.1340   23.6380  -28.7580 N   0  0  0  0  0  0  0  0  0  0  0  0
   -3.2650   24.5470  -28.5490 C   0  0  0  0  0  0  0  0  0  0  0  0
   -4.2730   24.3710  -29.6430 C   0  0  0  0  0  0  0  0  0  0  0  0
   -3.9760   24.6890  -30.8270 O   0  0  0  0  0  0  0  0  0  0  0  0
   -5.5710   23.8450  -29.3360 N   0  0  0  0  0  0  0  0  0  0  0  0
   -6.3300   23.0160  -30.2310 C   0  0  0  0  0  0  0  0  0  0  0  0
   -7.6280   22.6250  -29.8690 C   0  0  0  0  0  0  0  0  0  0  0  0
   -8.3750   21.7870  -30.7030 C   0  0  0  0  0  0  0  0  0  0  0  0
   -7.8360   21.3280  -31.9140 C   0  0  0  0  0  0  0  0  0  0  0  0
   -8.6180   20.3900  -32.7820 C   0  0  0  0  0  0  0  0  0  0  0  0
   -6.5250   21.6870  -32.2620 C   0  0  0  0  0  0  0  0  0  0  0  0
   -5.7760   22.5250  -31.4290 C   0  0  0  0  0  0  0  0  0  0  0  0
   -0.6680   23.8820  -27.8580 S   0  0  0  0  0  0  0  0  0  0  0  0
    0.4900   24.1000  -28.7930 O   0  0  0  0  0  0  0  0  0  0  0  0
   -0.3920   22.6650  -27.0180 O   0  0  0  0  0  0  0  0  0  0  0  0
   -0.8450   25.3130  -26.8470 C   0  0  0  0  0  0  0  0  0  0  0  0
   -1.4480   25.2300  -25.5800 C   0  0  0  0  0  0  0  0  0  0  0  0
   -1.5960   26.3800  -24.7970 C   0  0  0  0  0  0  0  0  0  0  0  0
   -1.1440   27.6160  -25.2730 C   0  0  0  0  0  0  0  0  0  0  0  0
   -0.5460   27.7040  -26.5340 C   0  0  0  0  0  0  0  0  0  0  0  0
   -0.3960   26.5550  -27.3200 C   0  0  0  0  0  0  0  0  0  0  0  0
   -1.4870   22.4860  -30.8410 C   0  0  0  0  0  0  0  0  0  0  0  0
   -1.6370   21.4290  -31.7450 C   0  0  0  0  0  0  0  0  0  0  0  0
   -4.7754   19.1234  -32.7341 H   0  0  0  0  0  0  0  0  0  0  0  0
   -3.8544   20.1136  -33.9164 H   0  0  0  0  0  0  0  0  0  0  0  0
   -3.6835   18.3255  -33.9164 H   0  0  0  0  0  0  0  0  0  0  0  0
   -4.0396   19.6379  -30.0939 H   0  0  0  0  0  0  0  0  0  0  0  0
   -3.7709   21.5202  -28.4859 H   0  0  0  0  0  0  0  0  0  0  0  0
   -3.7364   24.3251  -27.5802 H   0  0  0  0  0  0  0  0  0  0  0  0
   -2.9004   25.5848  -28.5576 H   0  0  0  0  0  0  0  0  0  0  0  0
   -5.9520   24.0180  -28.3780 H   0  0  0  0  0  0  0  0  0  0  0  0
   -8.0612   22.9802  -28.9223 H   0  0  0  0  0  0  0  0  0  0  0  0
   -9.3910   21.4861  -30.4077 H   0  0  0  0  0  0  0  0  0  0  0  0
   -9.1941   19.6990  -32.1491 H   0  0  0  0  0  0  0  0  0  0  0  0
   -9.3069   20.9663  -33.4171 H   0  0  0  0  0  0  0  0  0  0  0  0
   -7.9272   19.8161  -33.4171 H   0  0  0  0  0  0  0  0  0  0  0  0
   -6.0836   21.3073  -33.1953 H   0  0  0  0  0  0  0  0  0  0  0  0
   -4.7494   22.8017  -31.7111 H   0  0  0  0  0  0  0  0  0  0  0  0
   -1.8040   24.2596  -25.2036 H   0  0  0  0  0  0  0  0  0  0  0  0
   -2.0683   26.3126  -23.8058 H   0  0  0  0  0  0  0  0  0  0  0  0
   -1.2592   28.5186  -24.6550 H   0  0  0  0  0  0  0  0  0  0  0  0
   -0.1933   28.6763  -26.9086 H   0  0  0  0  0  0  0  0  0  0  0  0
    0.0753   26.6264  -28.3113 H   0  0  0  0  0  0  0  0  0  0  0  0
   -0.7675   23.2904  -31.0538 H   0  0  0  0  0  0  0  0  0  0  0  0
   -1.0335   21.4048  -32.6643 H   0  0  0  0  0  0  0  0  0  0  0  0
  1  2  1  0
  2  3  1  0
  3  4  2  0
  4  5  1  0
  5  6  2  0
  6  7  1  0
  7  8  1  0
  8  9  1  0
  9 10  2  0
  9 11  1  0
 11 12  1  0
 12 13  2  0
 13 14  1  0
 14 15  2  0
 15 16  1  0
 15 17  1  0
 17 18  2  0
  7 19  1  0
 19 20  2  0
 19 21  2  0
 19 22  1  0
 22 23  2  0
 23 24  1  0
 24 25  2  0
 25 26  1  0
 26 27  2  0
  6 28  1  0
 28 29  2  0
 29  3  1  0
 18 12  1  0
 27 22  1  0
  1 30  1  0
  1 31  1  0
  1 32  1  0
  4 33  1  0
  5 34  1  0
  8 35  1  0
  8 36  1  0
 11 37  1  0
 13 38  1  0
 14 39  1  0
 16 40  1  0
 16 41  1  0
 16 42  1  0
 17 43  1  0
 18 44  1  0
 23 45  1  0
 24 46  1  0
 25 47  1  0
 26 48  1  0
 27 49  1  0
 28 50  1  0
 29 51  1  0
M  END
>  <UniqueID>  (40) 
38

>  <SMILES>  (40) 
COc1ccc(N(CC(=O)Nc2ccc(C)cc2)S(=O)(=O)c2ccccc2)cc1

>  <Energy>  (40) 
57.725918349370815

>  <Genealogy>  (40) 
COc1ccc(N(CC(=O)Nc2ccc(C)cc2)S(=O)(=O)c2ccccc2)cc1 (3D coordinates assigned)
COc1ccc(N(CC(=O)Nc2ccc(C)cc2)S(=O)(=O)c2ccccc2)cc1 (optimized conformer: 57.725918349370815 kcal/mol)

>  <smiles>  (40) 
COc1ccc(N(CC(=O)Nc2ccc(C)cc2)S(=O)(=O)c2ccccc2)cc1

>  <score_type>  (40) 
oracle

>  <origin>  (40) 
adgpu

>  <m_score__min__energy>  (40) 
-9.7599999999999998

>  <m_primary>  (40) 
energy

$$$$
40:0
     RDKit          3D

 40 42  0  0  0  0  0  0  0  0999 V2000
   -6.4580   17.2270  -34.1180 C   0  0  0  0  0  0  0  0  0  0  0  0
   -6.4550   18.5390  -33.3910 C   0  0  0  0  0  0  0  0  0  0  0  0
   -7.3410   18.7590  -32.3250 C   0  0  0  0  0  0  0  0  0  0  0  0
   -7.3120   19.9680  -31.6240 C   0  0  0  0  0  0  0  0  0  0  0  0
   -6.3900   20.9680  -31.9690 C   0  0  0  0  0  0  0  0  0  0  0  0
   -6.3570   22.2480  -31.2260 C   0  0  0  0  0  0  0  0  0  0  0  0
   -7.4050   23.1760  -31.2350 C   0  0  0  0  0  0  0  0  0  0  0  0
   -8.7010   23.0620  -31.9730 C   0  0  0  0  0  0  0  0  0  0  0  0
   -6.9740   24.4960  -30.2860 S   0  0  0  0  0  0  0  0  0  0  0  0
   -5.4580   23.9110  -29.8390 C   0  0  0  0  0  0  0  0  0  0  0  0
   -4.5240   24.5610  -28.9590 N   0  0  0  0  0  0  0  0  0  0  0  0
   -3.8570   23.9150  -27.8610 C   0  0  0  0  0  0  0  0  0  0  0  0
   -4.2440   22.7860  -27.4580 O   0  0  0  0  0  0  0  0  0  0  0  0
   -2.7090   24.5760  -27.1970 C   0  0  0  0  0  0  0  0  0  0  0  0
   -2.9300   25.2900  -26.0050 C   0  0  0  0  0  0  0  0  0  0  0  0
   -1.8770   25.9440  -25.3610 C   0  0  0  0  0  0  0  0  0  0  0  0
   -0.5900   25.8950  -25.8980 C   0  0  0  0  0  0  0  0  0  0  0  0
   -0.3520   25.1870  -27.0760 C   0  0  0  0  0  0  0  0  0  0  0  0
   -1.3990   24.5260  -27.7320 C   0  0  0  0  0  0  0  0  0  0  0  0
   -0.9570   23.5170  -29.3060 Br  0  0  0  0  0  0  0  0  0  0  0  0
   -5.2690   22.6610  -30.4270 C   0  0  0  0  0  0  0  0  0  0  0  0
   -4.0550   21.8970  -30.2730 C   0  0  0  0  0  0  0  0  0  0  0  0
   -3.0810   21.2840  -30.1500 N   0  0  0  0  0  0  0  0  0  0  0  0
   -5.4930   20.7390  -33.0250 C   0  0  0  0  0  0  0  0  0  0  0  0
   -5.5210   19.5310  -33.7270 C   0  0  0  0  0  0  0  0  0  0  0  0
   -6.4599   16.4036  -33.3886 H   0  0  0  0  0  0  0  0  0  0  0  0
   -7.3563   17.1597  -34.7493 H   0  0  0  0  0  0  0  0  0  0  0  0
   -5.5600   17.1556  -34.7493 H   0  0  0  0  0  0  0  0  0  0  0  0
   -8.0607   17.9774  -32.0402 H   0  0  0  0  0  0  0  0  0  0  0  0
   -8.0167   20.1366  -30.7964 H   0  0  0  0  0  0  0  0  0  0  0  0
   -9.5284   22.9892  -31.2518 H   0  0  0  0  0  0  0  0  0  0  0  0
   -8.8425   23.9512  -32.6049 H   0  0  0  0  0  0  0  0  0  0  0  0
   -8.6851   22.1618  -32.6049 H   0  0  0  0  0  0  0  0  0  0  0  0
   -4.3340   25.5770  -29.1130 H   0  0  0  0  0  0  0  0  0  0  0  0
   -3.9419   25.3337  -25.5760 H   0  0  0  0  0  0  0  0  0  0  0  0
   -2.0626   26.4984  -24.4292 H   0  0  0  0  0  0  0  0  0  0  0  0
    0.2370   26.4148  -25.3922 H   0  0  0  0  0  0  0  0  0  0  0  0
    0.6651   25.1473  -27.4931 H   0  0  0  0  0  0  0  0  0  0  0  0
   -4.7640   21.5151  -33.3012 H   0  0  0  0  0  0  0  0  0  0  0  0
   -4.8080   19.3570  -34.5463 H   0  0  0  0  0  0  0  0  0  0  0  0
  1  2  1  0
  2  3  2  0
  3  4  1  0
  4  5  2  0
  5  6  1  0
  6  7  2  0
  7  8  1  0
  7  9  1  0
  9 10  1  0
 10 11  1  0
 11 12  1  0
 12 13  2  0
 12 14  1  0
 14 15  2  0
 15 16  1  0
 16 17  2  0
 17 18  1  0
 18 19  2  0
 19 20  1  0
 10 21  2  0
 21 22  1  0
 22 23  3  0
  5 24  1  0
 24 25  2  0
 25  2  1  0
 21  6  1  0
 19 14  1  0
  1 26  1  0
  1 27  1  0
  1 28  1  0
  3 29  1  0
  4 30  1  0
  8 31  1  0
  8 32  1  0
  8 33  1  0
 11 34  1  0
 15 35  1  0
 16 36  1  0
 17 37  1  0
 18 38  1  0
 24 39  1  0
 25 40  1  0
M  END
>  <UniqueID>  (41) 
39

>  <SMILES>  (41) 
Cc1ccc(-c2c(C)sc(NC(=O)c3ccccc3Br)c2C#N)cc1

>  <Energy>  (41) 
80.04747659691483

>  <Genealogy>  (41) 
Cc1ccc(-c2c(C)sc(NC(=O)c3ccccc3Br)c2C#N)cc1 (3D coordinates assigned)
Cc1ccc(-c2c(C)sc(NC(=O)c3ccccc3Br)c2C#N)cc1 (optimized conformer: 80.04747659691483 kcal/mol)

>  <smiles>  (41) 
Cc1ccc(-c2c(C)sc(NC(=O)c3ccccc3Br)c2C#N)cc1

>  <score_type>  (41) 
oracle

>  <origin>  (41) 
adgpu

>  <m_score__min__energy>  (41) 
-9.3100000000000005

>  <m_primary>  (41) 
energy

$$$$
41:0
     RDKit          3D

 42 44  0  0  0  0  0  0  0  0999 V2000
   -2.5900   19.6510  -26.9650 C   0  0  0  0  0  0  0  0  0  0  0  0
   -3.4810   21.1520  -27.4870 S   0  0  0  0  0  0  0  0  0  0  0  0
   -2.3330   21.5170  -28.8220 C   0  0  0  0  0  0  0  0  0  0  0  0
   -1.5380   20.5050  -29.2670 N   0  0  0  0  0  0  0  0  0  0  0  0
   -0.6220   20.6810  -30.2520 C   0  0  0  0  0  0  0  0  0  0  0  0
   -0.4690   21.9320  -30.8430 C   0  0  0  0  0  0  0  0  0  0  0  0
   -1.2710   22.9920  -30.4180 C   0  0  0  0  0  0  0  0  0  0  0  0
   -2.2380   22.8040  -29.4080 C   0  0  0  0  0  0  0  0  0  0  0  0
   -3.1380   23.9520  -28.9680 C   0  0  2  0  0  0  0  0  0  0  0  0
   -3.5190   24.7910  -30.1090 N   0  0  0  0  0  0  0  0  0  0  0  0
   -4.8560   25.0440  -30.5570 C   0  0  0  0  0  0  0  0  0  0  0  0
   -5.3190   26.2090  -30.4630 O   0  0  0  0  0  0  0  0  0  0  0  0
   -5.7100   23.9730  -31.0880 C   0  0  0  0  0  0  0  0  0  0  0  0
   -7.0920   24.0330  -30.8490 C   0  0  0  0  0  0  0  0  0  0  0  0
   -7.9270   23.0050  -31.2870 C   0  0  0  0  0  0  0  0  0  0  0  0
   -7.3900   21.9170  -31.9770 C   0  0  0  0  0  0  0  0  0  0  0  0
   -6.0190   21.8590  -32.2410 C   0  0  0  0  0  0  0  0  0  0  0  0
   -5.1710   22.8810  -31.8030 C   0  0  0  0  0  0  0  0  0  0  0  0
   -3.8090   22.7910  -32.0990 O   0  0  0  0  0  0  0  0  0  0  0  0
   -2.4790   24.7810  -27.8800 C   0  0  0  0  0  0  0  0  0  0  0  0
   -2.8130   24.5390  -26.5340 C   0  0  0  0  0  0  0  0  0  0  0  0
   -2.2500   25.3040  -25.5120 C   0  0  0  0  0  0  0  0  0  0  0  0
   -1.3480   26.3210  -25.8170 C   0  0  0  0  0  0  0  0  0  0  0  0
   -1.0090   26.5790  -27.1460 C   0  0  0  0  0  0  0  0  0  0  0  0
   -1.5710   25.8180  -28.1780 C   0  0  0  0  0  0  0  0  0  0  0  0
   -1.2280   26.1110  -29.4910 O   0  0  0  0  0  0  0  0  0  0  0  0
   -2.5624   19.6044  -25.8663 H   0  0  0  0  0  0  0  0  0  0  0  0
   -3.1072   18.7627  -27.3568 H   0  0  0  0  0  0  0  0  0  0  0  0
   -1.5625   19.6796  -27.3568 H   0  0  0  0  0  0  0  0  0  0  0  0
   -0.0007   19.8359  -30.5834 H   0  0  0  0  0  0  0  0  0  0  0  0
    0.2768   22.0835  -31.6373 H   0  0  0  0  0  0  0  0  0  0  0  0
   -1.1479   23.9848  -30.8754 H   0  0  0  0  0  0  0  0  0  0  0  0
   -4.0557   23.5146  -28.5479 H   0  0  0  0  0  0  0  0  0  0  0  0
   -7.5183   24.8944  -30.3140 H   0  0  0  0  0  0  0  0  0  0  0  0
   -9.0080   23.0518  -31.0887 H   0  0  0  0  0  0  0  0  0  0  0  0
   -8.0481   21.1026  -32.3140 H   0  0  0  0  0  0  0  0  0  0  0  0
   -5.6046   21.0047  -32.7964 H   0  0  0  0  0  0  0  0  0  0  0  0
   -3.1280   23.4510  -31.7450 H   0  0  0  0  0  0  0  0  0  0  0  0
   -3.5253   23.7384  -26.2854 H   0  0  0  0  0  0  0  0  0  0  0  0
   -2.5186   25.1039  -24.4642 H   0  0  0  0  0  0  0  0  0  0  0  0
   -0.9027   26.9211  -25.0098 H   0  0  0  0  0  0  0  0  0  0  0  0
   -0.2974   27.3835  -27.3836 H   0  0  0  0  0  0  0  0  0  0  0  0
  1  2  1  0
  2  3  1  0
  3  4  2  0
  4  5  1  0
  5  6  2  0
  6  7  1  0
  7  8  2  0
  8  9  1  0
  9 10  1  0
 10 11  1  0
 11 12  2  0
 11 13  1  0
 13 14  2  0
 14 15  1  0
 15 16  2  0
 16 17  1  0
 17 18  2  0
 18 19  1  0
  9 20  1  0
 20 21  2  0
 21 22  1  0
 22 23  2  0
 23 24  1  0
 24 25  2  0
 25 26  1  0
  8  3  1  0
 18 13  1  0
 25 20  1  0
  1 27  1  0
  1 28  1  0
  1 29  1  0
  5 30  1  0
  6 31  1  0
  7 32  1  0
  9 33  1  1
 14 34  1  0
 15 35  1  0
 16 36  1  0
 17 37  1  0
 19 38  1  0
 21 39  1  0
 22 40  1  0
 23 41  1  0
 24 42  1  0
M  CHG  2  10  -1  26  -1
M  END
>  <UniqueID>  (42) 
40

>  <SMILES>  (42) 
CSc1ncccc1[C@H]([N-]C(=O)c1ccccc1O)c1ccccc1[O-]

>  <Energy>  (42) 
48.57826409102554

>  <Genealogy>  (42) 
CSc1ncccc1C([N-]C(=O)c1ccccc1O)c1ccccc1[O-] (protonated)
CSc1ncccc1[C@H]([N-]C(=O)c1ccccc1O)c1ccccc1[O-] (chirality)
CSc1ncccc1[C@H]([N-]C(=O)c1ccccc1O)c1ccccc1[O-] (3D coordinates assigned)
CSc1ncccc1[C@H]([N-]C(=O)c1ccccc1O)c1ccccc1[O-] (optimized conformer: 48.57826409102554 kcal/mol)

>  <smiles>  (42) 
CSc1ncccc1C(NC(=O)c1ccccc1O)c1ccccc1O

>  <score_type>  (42) 
oracle

>  <origin>  (42) 
adgpu

>  <m_score__min__energy>  (42) 
-11.949999999999999

>  <m_primary>  (42) 
energy

$$$$
42:0
     RDKit          3D

 56 59  0  0  0  0  0  0  0  0999 V2000
   -7.9480   20.4920  -30.8580 O   0  0  0  0  0  0  0  0  0  0  0  0
   -7.7680   21.5100  -31.9490 S   0  0  0  0  0  0  0  0  0  0  0  0
   -9.0720   22.2160  -32.1990 O   0  0  0  0  0  0  0  0  0  0  0  0
   -7.2300   20.7580  -33.4160 N   0  0  0  0  0  0  0  0  0  0  0  0
   -6.1170   19.8670  -33.5280 C   0  0  0  0  0  0  0  0  0  0  0  0
   -6.2830   18.4990  -33.8020 C   0  0  0  0  0  0  0  0  0  0  0  0
   -5.1690   17.6570  -33.8550 C   0  0  0  0  0  0  0  0  0  0  0  0
   -3.8880   18.1710  -33.6360 C   0  0  0  0  0  0  0  0  0  0  0  0
   -3.7120   19.5380  -33.3860 C   0  0  0  0  0  0  0  0  0  0  0  0
   -2.1020   20.1890  -33.0720 S   0  0  0  0  0  0  0  0  0  0  0  0
   -2.2320   21.5350  -32.4130 O   0  0  0  0  0  0  0  0  0  0  0  0
   -1.3800   19.2740  -32.1220 O   0  0  0  0  0  0  0  0  0  0  0  0
   -1.1720   20.3580  -34.5410 N   0  0  0  0  0  0  0  0  0  0  0  0
   -0.3370   21.5700  -34.4920 C   0  0  0  0  0  0  0  0  0  0  0  0
    0.6380   21.6090  -35.6880 C   0  0  0  0  0  0  0  0  0  0  0  0
    0.3180   20.6130  -36.6400 O   0  0  0  0  0  0  0  0  0  0  0  0
    0.4730   19.3270  -36.0650 C   0  0  0  0  0  0  0  0  0  0  0  0
   -0.3270   19.1740  -34.7530 C   0  0  0  0  0  0  0  0  0  0  0  0
   -4.8290   20.3840  -33.3540 C   0  0  0  0  0  0  0  0  0  0  0  0
   -6.5210   22.6410  -31.4450 C   0  0  0  0  0  0  0  0  0  0  0  0
   -6.6830   24.0220  -31.6130 C   0  0  0  0  0  0  0  0  0  0  0  0
   -5.6630   24.8980  -31.2310 C   0  0  0  0  0  0  0  0  0  0  0  0
   -4.4760   24.4010  -30.6800 C   0  0  0  0  0  0  0  0  0  0  0  0
   -3.4820   25.2930  -30.2910 O   0  0  0  0  0  0  0  0  0  0  0  0
   -4.3030   23.0140  -30.5110 C   0  0  0  0  0  0  0  0  0  0  0  0
   -3.0850   22.4780  -29.9640 N   0  0  0  0  0  0  0  0  0  0  0  0
   -1.9450   23.3590  -29.6830 C   0  0  0  0  0  0  0  0  0  0  0  0
   -0.6110   22.6850  -30.0720 C   0  0  0  0  0  0  0  0  0  0  0  0
   -0.6190   21.2100  -29.9760 N   0  0  0  0  0  0  0  0  0  0  0  0
   -1.6390   20.7020  -29.0500 C   0  0  0  0  0  0  0  0  0  0  0  0
   -3.0390   21.0700  -29.5500 C   0  0  0  0  0  0  0  0  0  0  0  0
   -5.3350   22.1440  -30.8910 C   0  0  0  0  0  0  0  0  0  0  0  0
   -7.2897   18.0908  -33.9748 H   0  0  0  0  0  0  0  0  0  0  0  0
   -5.3008   16.5862  -34.0698 H   0  0  0  0  0  0  0  0  0  0  0  0
   -3.0161   17.5007  -33.6600 H   0  0  0  0  0  0  0  0  0  0  0  0
   -0.9861   22.4574  -34.5261 H   0  0  0  0  0  0  0  0  0  0  0  0
    0.2468   21.5600  -33.5597 H   0  0  0  0  0  0  0  0  0  0  0  0
    0.5781   22.5969  -36.1680 H   0  0  0  0  0  0  0  0  0  0  0  0
    1.6555   21.4209  -35.3149 H   0  0  0  0  0  0  0  0  0  0  0  0
    0.1213   18.5727  -36.7843 H   0  0  0  0  0  0  0  0  0  0  0  0
    1.5384   19.1891  -35.8287 H   0  0  0  0  0  0  0  0  0  0  0  0
   -0.9629   18.2787  -34.8159 H   0  0  0  0  0  0  0  0  0  0  0  0
    0.3739   19.0740  -33.9111 H   0  0  0  0  0  0  0  0  0  0  0  0
   -4.6917   21.4631  -33.1908 H   0  0  0  0  0  0  0  0  0  0  0  0
   -7.6137   24.4175  -32.0459 H   0  0  0  0  0  0  0  0  0  0  0  0
   -5.7935   25.9821  -31.3639 H   0  0  0  0  0  0  0  0  0  0  0  0
   -2.0591   24.2888  -30.2596 H   0  0  0  0  0  0  0  0  0  0  0  0
   -1.9265   23.5724  -28.6041 H   0  0  0  0  0  0  0  0  0  0  0  0
   -0.3769   22.9605  -31.1109 H   0  0  0  0  0  0  0  0  0  0  0  0
    0.1412   23.0414  -29.3528 H   0  0  0  0  0  0  0  0  0  0  0  0
   -0.8050   20.8080  -30.9270 H   0  0  0  0  0  0  0  0  0  0  0  0
   -1.5541   19.6075  -28.9810 H   0  0  0  0  0  0  0  0  0  0  0  0
   -1.4815   21.1545  -28.0598 H   0  0  0  0  0  0  0  0  0  0  0  0
   -3.2958   20.4320  -30.4084 H   0  0  0  0  0  0  0  0  0  0  0  0
   -3.7596   20.9162  -28.7333 H   0  0  0  0  0  0  0  0  0  0  0  0
   -5.2115   21.0598  -30.7524 H   0  0  0  0  0  0  0  0  0  0  0  0
  1  2  2  0
  2  3  2  0
  2  4  1  0
  4  5  1  0
  5  6  2  0
  6  7  1  0
  7  8  2  0
  8  9  1  0
  9 10  1  0
 10 11  2  0
 10 12  2  0
 10 13  1  0
 13 14  1  0
 14 15  1  0
 15 16  1  0
 16 17  1  0
 17 18  1  0
  9 19  2  0
  2 20  1  0
 20 21  2  0
 21 22  1  0
 22 23  2  0
 23 24  1  0
 23 25  1  0
 25 26  1  0
 26 27  1  0
 27 28  1  0
 28 29  1  0
 29 30  1  0
 30 31  1  0
 25 32  2  0
 19  5  1  0
 32 20  1  0
 18 13  1  0
 31 26  1  0
  6 33  1  0
  7 34  1  0
  8 35  1  0
 14 36  1  0
 14 37  1  0
 15 38  1  0
 15 39  1  0
 17 40  1  0
 17 41  1  0
 18 42  1  0
 18 43  1  0
 19 44  1  0
 21 45  1  0
 22 46  1  0
 27 47  1  0
 27 48  1  0
 28 49  1  0
 28 50  1  0
 29 51  1  0
 30 52  1  0
 30 53  1  0
 31 54  1  0
 31 55  1  0
 32 56  1  0
M  CHG  2   4  -1  24  -1
M  END
>  <UniqueID>  (43) 
41

>  <SMILES>  (43) 
O=S(=O)([N-]c1cccc(S(=O)(=O)N2CCOCC2)c1)c1ccc([O-])c(N2CCNCC2)c1

>  <Energy>  (43) 
79.55643523875686

>  <Genealogy>  (43) 
O=S(=O)([N-]c1cccc(S(=O)(=O)N2CCOCC2)c1)c1ccc([O-])c(N2CCNCC2)c1 (protonated)
O=S(=O)([N-]c1cccc(S(=O)(=O)N2CCOCC2)c1)c1ccc([O-])c(N2CCNCC2)c1 (3D coordinates assigned)
O=S(=O)([N-]c1cccc(S(=O)(=O)N2CCOCC2)c1)c1ccc([O-])c(N2CCNCC2)c1 (nonaromatic ring conformer: 79.55643523875686 kcal/mol)

>  <smiles>  (43) 
O=S(=O)(Nc1cccc(S(=O)(=O)N2CCOCC2)c1)c1ccc(O)c(N2CCNCC2)c1

>  <score_type>  (43) 
oracle

>  <origin>  (43) 
adgpu

>  <m_score__min__energy>  (43) 
-12.029999999999999

>  <m_primary>  (43) 
energy

$$$$
43:0
     RDKit          3D

 49 51  0  0  0  0  0  0  0  0999 V2000
   -1.2780   25.8120  -26.8120 C   0  0  0  0  0  0  0  0  0  0  0  0
   -1.5490   25.3850  -28.5610 S   0  0  0  0  0  0  0  0  0  0  0  0
   -2.1870   23.7450  -28.1850 C   0  0  0  0  0  0  0  0  0  0  0  0
   -1.2710   22.7020  -27.9940 C   0  0  0  0  0  0  0  0  0  0  0  0
   -1.7190   21.4060  -27.7320 C   0  0  0  0  0  0  0  0  0  0  0  0
   -3.0870   21.1440  -27.6560 C   0  0  0  0  0  0  0  0  0  0  0  0
   -4.0100   22.1740  -27.8470 C   0  0  0  0  0  0  0  0  0  0  0  0
   -3.5750   23.4840  -28.1250 C   0  0  0  0  0  0  0  0  0  0  0  0
   -4.5300   24.5370  -28.3480 N   0  0  0  0  0  0  0  0  0  0  0  0
   -5.0950   24.9630  -29.9320 S   0  0  0  0  0  0  0  0  0  0  0  0
   -5.9530   26.1940  -29.8350 O   0  0  0  0  0  0  0  0  0  0  0  0
   -3.9180   25.2510  -30.8220 O   0  0  0  0  0  0  0  0  0  0  0  0
   -6.0040   23.6180  -30.6140 C   0  0  0  0  0  0  0  0  0  0  0  0
   -7.2350   23.8340  -31.2480 C   0  0  0  0  0  0  0  0  0  0  0  0
   -7.9810   22.7500  -31.7200 C   0  0  0  0  0  0  0  0  0  0  0  0
   -7.5030   21.4420  -31.5600 C   0  0  0  0  0  0  0  0  0  0  0  0
   -8.4560   20.0610  -32.0910 S   0  0  0  0  0  0  0  0  0  0  0  0
   -9.7780   20.5600  -32.6040 O   0  0  0  0  0  0  0  0  0  0  0  0
   -8.6950   19.1300  -30.9330 O   0  0  0  0  0  0  0  0  0  0  0  0
   -7.5890   19.2260  -33.3610 N   0  0  0  0  0  0  0  0  0  0  0  0
   -6.4130   19.9990  -33.8360 C   0  0  0  0  0  0  0  0  0  0  0  0
   -5.0670   19.2850  -33.6280 C   0  0  0  0  0  0  0  0  0  0  0  0
   -5.0000   18.6710  -32.2320 C   0  0  0  0  0  0  0  0  0  0  0  0
   -6.1550   17.6840  -31.9820 C   0  0  0  0  0  0  0  0  0  0  0  0
   -7.3030   17.8230  -33.0000 C   0  0  0  0  0  0  0  0  0  0  0  0
   -6.2630   21.2290  -30.9420 C   0  0  0  0  0  0  0  0  0  0  0  0
   -5.5170   22.3120  -30.4730 C   0  0  0  0  0  0  0  0  0  0  0  0
   -1.7573   25.0568  -26.1717 H   0  0  0  0  0  0  0  0  0  0  0  0
   -0.1982   25.8373  -26.6038 H   0  0  0  0  0  0  0  0  0  0  0  0
   -1.7148   26.7999  -26.6038 H   0  0  0  0  0  0  0  0  0  0  0  0
   -0.1915   22.9058  -28.0509 H   0  0  0  0  0  0  0  0  0  0  0  0
   -0.9937   20.5920  -27.5856 H   0  0  0  0  0  0  0  0  0  0  0  0
   -3.4394   20.1235  -27.4451 H   0  0  0  0  0  0  0  0  0  0  0  0
   -5.0869   21.9601  -27.7797 H   0  0  0  0  0  0  0  0  0  0  0  0
   -4.8030   25.1730  -27.5660 H   0  0  0  0  0  0  0  0  0  0  0  0
   -7.6150   24.8585  -31.3745 H   0  0  0  0  0  0  0  0  0  0  0  0
   -8.9460   22.9240  -32.2185 H   0  0  0  0  0  0  0  0  0  0  0  0
   -6.5386   20.1931  -34.9114 H   0  0  0  0  0  0  0  0  0  0  0  0
   -6.3780   20.9223  -33.2391 H   0  0  0  0  0  0  0  0  0  0  0  0
   -4.9591   18.4890  -34.3795 H   0  0  0  0  0  0  0  0  0  0  0  0
   -4.2541   20.0184  -33.7345 H   0  0  0  0  0  0  0  0  0  0  0  0
   -4.0452   18.1354  -32.1247 H   0  0  0  0  0  0  0  0  0  0  0  0
   -5.0830   19.4855  -31.4974 H   0  0  0  0  0  0  0  0  0  0  0  0
   -5.7583   16.6597  -32.0401 H   0  0  0  0  0  0  0  0  0  0  0  0
   -6.5696   17.9108  -30.9887 H   0  0  0  0  0  0  0  0  0  0  0  0
   -7.0292   17.2750  -33.9137 H   0  0  0  0  0  0  0  0  0  0  0  0
   -8.2096   17.4132  -32.5307 H   0  0  0  0  0  0  0  0  0  0  0  0
   -5.8766   20.2056  -30.8262 H   0  0  0  0  0  0  0  0  0  0  0  0
   -4.5434   22.1392  -29.9911 H   0  0  0  0  0  0  0  0  0  0  0  0
  1  2  1  0
  2  3  1  0
  3  4  2  0
  4  5  1  0
  5  6  2  0
  6  7  1  0
  7  8  2  0
  8  9  1  0
  9 10  1  0
 10 11  2  0
 10 12  2  0
 10 13  1  0
 13 14  2  0
 14 15  1  0
 15 16  2  0
 16 17  1  0
 17 18  2  0
 17 19  2  0
 17 20  1  0
 20 21  1  0
 21 22  1  0
 22 23  1  0
 23 24  1  0
 24 25  1  0
 16 26  1  0
 26 27  2  0
  8  3  1  0
 27 13  1  0
 25 20  1  0
  1 28  1  0
  1 29  1  0
  1 30  1  0
  4 31  1  0
  5 32  1  0
  6 33  1  0
  7 34  1  0
  9 35  1  0
 14 36  1  0
 15 37  1  0
 21 38  1  0
 21 39  1  0
 22 40  1  0
 22 41  1  0
 23 42  1  0
 23 43  1  0
 24 44  1  0
 24 45  1  0
 25 46  1  0
 25 47  1  0
 26 48  1  0
 27 49  1  0
M  END
>  <UniqueID>  (44) 
42

>  <SMILES>  (44) 
CSc1ccccc1NS(=O)(=O)c1ccc(S(=O)(=O)N2CCCCC2)cc1

>  <Energy>  (44) 
56.47082290855227

>  <Genealogy>  (44) 
CSc1ccccc1NS(=O)(=O)c1ccc(S(=O)(=O)N2CCCCC2)cc1 (3D coordinates assigned)
CSc1ccccc1NS(=O)(=O)c1ccc(S(=O)(=O)N2CCCCC2)cc1 (nonaromatic ring conformer: 56.47082290855227 kcal/mol)

>  <smiles>  (44) 
CSc1ccccc1NS(=O)(=O)c1ccc(S(=O)(=O)N2CCCCC2)cc1

>  <score_type>  (44) 
oracle

>  <origin>  (44) 
adgpu

>  <m_score__min__energy>  (44) 
-10.67

>  <m_primary>  (44) 
energy

$$$$
44:0
     RDKit          3D

 46 48  0  0  0  0  0  0  0  0999 V2000
   -8.5840   20.5110  -33.1400 O   0  0  0  0  0  0  0  0  0  0  0  0
   -7.5870   20.3180  -32.0290 S   0  0  0  0  0  0  0  0  0  0  0  0
   -8.3120   19.7270  -30.8530 O   0  0  0  0  0  0  0  0  0  0  0  0
   -6.9190   21.8890  -31.5770 C   0  0  0  0  0  0  0  0  0  0  0  0
   -7.7680   22.9500  -31.2470 C   0  0  0  0  0  0  0  0  0  0  0  0
   -7.2350   24.1880  -30.8850 C   0  0  0  0  0  0  0  0  0  0  0  0
   -5.8470   24.3810  -30.8530 C   0  0  0  0  0  0  0  0  0  0  0  0
   -5.3290   25.6240  -30.4960 O   0  0  0  0  0  0  0  0  0  0  0  0
   -4.9800   23.3220  -31.1870 C   0  0  0  0  0  0  0  0  0  0  0  0
   -3.5520   23.5280  -31.1550 N   0  0  0  0  0  0  0  0  0  0  0  0
   -2.5870   22.5590  -30.6310 C   0  0  0  0  0  0  0  0  0  0  0  0
   -2.1240   22.9550  -29.2500 C   0  0  0  0  0  0  0  0  0  0  0  0
   -1.6780   21.9750  -28.3460 C   0  0  0  0  0  0  0  0  0  0  0  0
   -1.2380   22.3380  -27.0700 C   0  0  0  0  0  0  0  0  0  0  0  0
   -1.2470   23.6790  -26.6810 C   0  0  0  0  0  0  0  0  0  0  0  0
   -1.7000   24.6600  -27.5660 C   0  0  0  0  0  0  0  0  0  0  0  0
   -2.1410   24.3050  -28.8450 C   0  0  0  0  0  0  0  0  0  0  0  0
   -2.5950   25.2990  -29.7080 O   0  0  0  0  0  0  0  0  0  0  0  0
   -5.5310   22.0740  -31.5410 C   0  0  0  0  0  0  0  0  0  0  0  0
   -6.3400   19.2160  -32.5570 N   0  0  0  0  0  0  0  0  0  0  0  0
   -6.6850   17.8340  -32.1860 C   0  0  0  0  0  0  0  0  0  0  0  0
   -5.4830   16.9020  -32.4240 C   0  0  0  0  0  0  0  0  0  0  0  0
   -4.5120   17.4520  -33.4820 C   0  0  0  0  0  0  0  0  0  0  0  0
   -5.2660   18.1950  -34.5880 C   0  0  0  0  0  0  0  0  0  0  0  0
   -6.1390   19.3370  -34.0170 C   0  0  0  0  0  0  0  0  0  0  0  0
   -8.8586   22.8085  -31.2728 H   0  0  0  0  0  0  0  0  0  0  0  0
   -7.9083   25.0175  -30.6232 H   0  0  0  0  0  0  0  0  0  0  0  0
   -4.7050   25.7330  -29.7040 H   0  0  0  0  0  0  0  0  0  0  0  0
   -3.1590   24.4000  -31.5750 H   0  0  0  0  0  0  0  0  0  0  0  0
   -3.0619   21.5681  -30.5815 H   0  0  0  0  0  0  0  0  0  0  0  0
   -1.7148   22.5332  -31.3008 H   0  0  0  0  0  0  0  0  0  0  0  0
   -1.6753   20.9163  -28.6447 H   0  0  0  0  0  0  0  0  0  0  0  0
   -0.8840   21.5659  -26.3710 H   0  0  0  0  0  0  0  0  0  0  0  0
   -0.8973   23.9629  -25.6774 H   0  0  0  0  0  0  0  0  0  0  0  0
   -1.7100   25.7154  -27.2561 H   0  0  0  0  0  0  0  0  0  0  0  0
   -4.8638   21.2362  -31.7917 H   0  0  0  0  0  0  0  0  0  0  0  0
   -6.9638   17.8025  -31.1224 H   0  0  0  0  0  0  0  0  0  0  0  0
   -7.5283   17.4965  -32.8064 H   0  0  0  0  0  0  0  0  0  0  0  0
   -4.9389   16.7788  -31.4759 H   0  0  0  0  0  0  0  0  0  0  0  0
   -5.8724   15.9422  -32.7944 H   0  0  0  0  0  0  0  0  0  0  0  0
   -3.8086   18.1456  -32.9982 H   0  0  0  0  0  0  0  0  0  0  0  0
   -3.9720   16.6069  -33.9339 H   0  0  0  0  0  0  0  0  0  0  0  0
   -4.5366   18.6218  -35.2921 H   0  0  0  0  0  0  0  0  0  0  0  0
   -5.9283   17.4770  -35.0938 H   0  0  0  0  0  0  0  0  0  0  0  0
   -5.6461   20.2976  -34.2274 H   0  0  0  0  0  0  0  0  0  0  0  0
   -7.1265   19.2772  -34.4979 H   0  0  0  0  0  0  0  0  0  0  0  0
  1  2  2  0
  2  3  2  0
  2  4  1  0
  4  5  2  0
  5  6  1  0
  6  7  2  0
  7  8  1  0
  7  9  1  0
  9 10  1  0
 10 11  1  0
 11 12  1  0
 12 13  2  0
 13 14  1  0
 14 15  2  0
 15 16  1  0
 16 17  2  0
 17 18  1  0
  9 19  2  0
  2 20  1  0
 20 21  1  0
 21 22  1  0
 22 23  1  0
 23 24  1  0
 24 25  1  0
 19  4  1  0
 25 20  1  0
 17 12  1  0
  5 26  1  0
  6 27  1  0
  8 28  1  0
 10 29  1  0
 11 30  1  0
 11 31  1  0
 13 32  1  0
 14 33  1  0
 15 34  1  0
 16 35  1  0
 19 36  1  0
 21 37  1  0
 21 38  1  0
 22 39  1  0
 22 40  1  0
 23 41  1  0
 23 42  1  0
 24 43  1  0
 24 44  1  0
 25 45  1  0
 25 46  1  0
M  CHG  1  18  -1
M  END
>  <UniqueID>  (45) 
43

>  <SMILES>  (45) 
O=S(=O)(c1ccc(O)c(NCc2ccccc2[O-])c1)N1CCCCC1

>  <Energy>  (45) 
49.229178896195265

>  <Genealogy>  (45) 
O=S(=O)(c1ccc(O)c(NCc2ccccc2[O-])c1)N1CCCCC1 (protonated)
O=S(=O)(c1ccc(O)c(NCc2ccccc2[O-])c1)N1CCCCC1 (3D coordinates assigned)
O=S(=O)(c1ccc(O)c(NCc2ccccc2[O-])c1)N1CCCCC1 (nonaromatic ring conformer: 49.229178896195265 kcal/mol)

>  <smiles>  (45) 
O=S(=O)(c1ccc(O)c(NCc2ccccc2O)c1)N1CCCCC1

>  <score_type>  (45) 
oracle

>  <origin>  (45) 
adgpu

>  <m_score__min__energy>  (45) 
-12.67

>  <m_primary>  (45) 
energy

$$$$
45:0
     RDKit          3D

 59 62  0  0  0  0  0  0  0  0999 V2000
   -0.3920   22.2450  -26.5260 C   0  0  0  0  0  0  0  0  0  0  0  0
   -1.6180   22.6180  -27.3170 C   0  0  0  0  0  0  0  0  0  0  0  0
   -2.6870   21.7070  -27.3440 C   0  0  0  0  0  0  0  0  0  0  0  0
   -3.8480   21.9850  -28.0610 C   0  0  0  0  0  0  0  0  0  0  0  0
   -3.9660   23.1770  -28.7850 C   0  0  0  0  0  0  0  0  0  0  0  0
   -5.1750   23.4870  -29.5000 N   0  0  0  0  0  0  0  0  0  0  0  0
   -5.2360   23.7040  -30.9160 C   0  0  0  0  0  0  0  0  0  0  0  0
   -4.1780   23.7990  -31.5940 O   0  0  0  0  0  0  0  0  0  0  0  0
   -6.5160   23.7960  -31.5520 N   0  0  0  0  0  0  0  0  0  0  0  0
   -7.4680   22.7330  -31.7120 C   0  0  0  0  0  0  0  0  0  0  0  0
   -8.8270   23.0570  -31.8030 C   0  0  0  0  0  0  0  0  0  0  0  0
   -9.7830   22.0530  -31.9780 C   0  0  0  0  0  0  0  0  0  0  0  0
   -9.3870   20.7180  -32.0840 C   0  0  0  0  0  0  0  0  0  0  0  0
   -8.0260   20.3820  -32.0380 C   0  0  0  0  0  0  0  0  0  0  0  0
   -7.5240   18.6990  -32.1920 S   0  0  0  0  0  0  0  0  0  0  0  0
   -6.5070   18.3970  -31.1270 O   0  0  0  0  0  0  0  0  0  0  0  0
   -8.7150   17.8150  -31.9480 O   0  0  0  0  0  0  0  0  0  0  0  0
   -6.8460   18.3200  -33.7620 N   0  0  0  0  0  0  0  0  0  0  0  0
   -6.4470   16.9070  -33.9080 C   0  0  0  0  0  0  0  0  0  0  0  0
   -4.9820   16.6620  -33.5210 C   0  0  0  0  0  0  0  0  0  0  0  0
   -4.1280   17.5470  -34.2120 O   0  0  0  0  0  0  0  0  0  0  0  0
   -4.4010   18.8670  -33.7980 C   0  0  0  0  0  0  0  0  0  0  0  0
   -5.8210   19.2830  -34.2080 C   0  0  0  0  0  0  0  0  0  0  0  0
   -7.0700   21.3890  -31.8430 C   0  0  0  0  0  0  0  0  0  0  0  0
   -2.9120   24.1050  -28.7600 C   0  0  0  0  0  0  0  0  0  0  0  0
   -3.0450   25.2960  -29.4670 O   0  0  0  0  0  0  0  0  0  0  0  0
   -1.7270   23.8380  -28.0390 C   0  0  0  0  0  0  0  0  0  0  0  0
   -0.4460   25.0780  -28.0670 S   0  0  0  0  0  0  0  0  0  0  0  0
    0.8710   24.5400  -28.5500 O   0  0  0  0  0  0  0  0  0  0  0  0
   -0.8630   26.1820  -28.9970 O   0  0  0  0  0  0  0  0  0  0  0  0
   -0.2490   25.7520  -26.4150 C   0  0  0  0  0  0  0  0  0  0  0  0
   -0.9090   27.1140  -26.2300 C   0  0  0  0  0  0  0  0  0  0  0  0
   -1.8700   26.5070  -25.2170 C   0  0  0  0  0  0  0  0  0  0  0  0
   -1.2100   25.1470  -25.3970 C   0  0  0  0  0  0  0  0  0  0  0  0
   -0.6146   22.3127  -25.4509 H   0  0  0  0  0  0  0  0  0  0  0  0
   -0.0943   21.2156  -26.7747 H   0  0  0  0  0  0  0  0  0  0  0  0
    0.4285   22.9342  -26.7747 H   0  0  0  0  0  0  0  0  0  0  0  0
   -2.6058   20.7599  -26.7905 H   0  0  0  0  0  0  0  0  0  0  0  0
   -4.6779   21.2630  -28.0583 H   0  0  0  0  0  0  0  0  0  0  0  0
   -6.0540   23.6380  -28.9540 H   0  0  0  0  0  0  0  0  0  0  0  0
   -9.1441   24.1082  -31.7363 H   0  0  0  0  0  0  0  0  0  0  0  0
  -10.8500   22.3148  -32.0324 H   0  0  0  0  0  0  0  0  0  0  0  0
  -10.1437   19.9287  -32.2038 H   0  0  0  0  0  0  0  0  0  0  0  0
   -7.0895   16.2913  -33.2613 H   0  0  0  0  0  0  0  0  0  0  0  0
   -6.5599   16.6378  -34.9686 H   0  0  0  0  0  0  0  0  0  0  0  0
   -4.8638   16.8178  -32.4385 H   0  0  0  0  0  0  0  0  0  0  0  0
   -4.7135   15.6298  -33.7901 H   0  0  0  0  0  0  0  0  0  0  0  0
   -4.3088   18.9283  -32.7036 H   0  0  0  0  0  0  0  0  0  0  0  0
   -3.6813   19.5445  -34.2808 H   0  0  0  0  0  0  0  0  0  0  0  0
   -6.0427   20.2644  -33.7634 H   0  0  0  0  0  0  0  0  0  0  0  0
   -5.8533   19.3185  -35.3070 H   0  0  0  0  0  0  0  0  0  0  0  0
   -6.0028   21.1273  -31.7921 H   0  0  0  0  0  0  0  0  0  0  0  0
    0.8384   25.6397  -26.2931 H   0  0  0  0  0  0  0  0  0  0  0  0
   -0.2428   27.8834  -25.8127 H   0  0  0  0  0  0  0  0  0  0  0  0
   -1.2918   27.6709  -27.0979 H   0  0  0  0  0  0  0  0  0  0  0  0
   -1.7729   26.9216  -24.2028 H   0  0  0  0  0  0  0  0  0  0  0  0
   -2.9566   26.6180  -25.3475 H   0  0  0  0  0  0  0  0  0  0  0  0
   -0.7205   24.7613  -24.4906 H   0  0  0  0  0  0  0  0  0  0  0  0
   -1.8130   24.2640  -25.6552 H   0  0  0  0  0  0  0  0  0  0  0  0
  1  2  1  0
  2  3  2  0
  3  4  1  0
  4  5  2  0
  5  6  1  0
  6  7  1  0
  7  8  2  0
  7  9  1  0
  9 10  1  0
 10 11  2  0
 11 12  1  0
 12 13  2  0
 13 14  1  0
 14 15  1  0
 15 16  2  0
 15 17  2  0
 15 18  1  0
 18 19  1  0
 19 20  1  0
 20 21  1  0
 21 22  1  0
 22 23  1  0
 14 24  2  0
  5 25  1  0
 25 26  1  0
 25 27  2  0
 27 28  1  0
 28 29  2  0
 28 30  2  0
 28 31  1  0
 31 32  1  0
 32 33  1  0
 33 34  1  0
 27  2  1  0
 34 31  1  0
 24 10  1  0
 23 18  1  0
  1 35  1  0
  1 36  1  0
  1 37  1  0
  3 38  1  0
  4 39  1  0
  6 40  1  0
 11 41  1  0
 12 42  1  0
 13 43  1  0
 19 44  1  0
 19 45  1  0
 20 46  1  0
 20 47  1  0
 22 48  1  0
 22 49  1  0
 23 50  1  0
 23 51  1  0
 24 52  1  0
 31 53  1  0
 32 54  1  0
 32 55  1  0
 33 56  1  0
 33 57  1  0
 34 58  1  0
 34 59  1  0
M  CHG  2   9  -1  26  -1
M  END
>  <UniqueID>  (46) 
44

>  <SMILES>  (46) 
Cc1ccc(NC(=O)[N-]c2cccc(S(=O)(=O)N3CCOCC3)c2)c([O-])c1S(=O)(=O)C1CCC1

>  <Energy>  (46) 
135.4334868491056

>  <Genealogy>  (46) 
Cc1ccc(NC(=O)[N-]c2cccc(S(=O)(=O)N3CCOCC3)c2)c([O-])c1S(=O)(=O)C1CCC1 (protonated)
Cc1ccc(NC(=O)[N-]c2cccc(S(=O)(=O)N3CCOCC3)c2)c([O-])c1S(=O)(=O)C1CCC1 (3D coordinates assigned)
Cc1ccc(NC(=O)[N-]c2cccc(S(=O)(=O)N3CCOCC3)c2)c([O-])c1S(=O)(=O)C1CCC1 (nonaromatic ring conformer: 135.4334868491056 kcal/mol)

>  <smiles>  (46) 
Cc1ccc(NC(=O)Nc2cccc(S(=O)(=O)N3CCOCC3)c2)c(O)c1S(=O)(=O)C1CCC1

>  <score_type>  (46) 
oracle

>  <origin>  (46) 
adgpu

>  <m_score__min__energy>  (46) 
-15.130000000000001

>  <m_primary>  (46) 
energy

$$$$
46:0
     RDKit          3D

 37 39  0  0  0  0  0  0  0  0999 V2000
   -9.1490   21.8180  -31.6740 C   0  0  0  0  0  0  0  0  0  0  0  0
   -7.6790   22.1230  -31.6960 C   0  0  0  0  0  0  0  0  0  0  0  0
   -7.1750   23.2560  -31.0360 C   0  0  0  0  0  0  0  0  0  0  0  0
   -5.7990   23.5260  -31.0430 C   0  0  0  0  0  0  0  0  0  0  0  0
   -5.1530   24.9180  -30.1770 S   0  0  0  0  0  0  0  0  0  0  0  0
   -5.5630   24.8910  -28.7310 O   0  0  0  0  0  0  0  0  0  0  0  0
   -5.6820   26.1730  -30.8100 O   0  0  0  0  0  0  0  0  0  0  0  0
   -3.4210   24.9150  -30.2760 N   0  0  0  0  0  0  0  0  0  0  0  0
   -2.5380   24.3400  -29.3010 C   0  0  0  0  0  0  0  0  0  0  0  0
   -2.7370   23.0430  -28.7920 C   0  0  0  0  0  0  0  0  0  0  0  0
   -1.8450   22.4940  -27.8550 C   0  0  0  0  0  0  0  0  0  0  0  0
   -2.0440   21.1600  -27.3530 N   0  0  0  0  0  0  0  0  0  0  0  0
   -2.6990   20.1450  -27.9460 C   0  0  0  0  0  0  0  0  0  0  0  0
   -3.3260   20.2230  -29.1860 O   0  0  0  0  0  0  0  0  0  0  0  0
   -2.6750   19.0420  -27.1230 C   0  0  0  0  0  0  0  0  0  0  0  0
   -2.0030   19.3510  -25.9940 N   0  0  0  0  0  0  0  0  0  0  0  0
   -1.6390   20.6390  -26.1730 C   0  0  0  0  0  0  0  0  0  0  0  0
   -0.9640   21.2780  -25.3220 O   0  0  0  0  0  0  0  0  0  0  0  0
   -0.7530   23.2610  -27.4220 C   0  0  0  0  0  0  0  0  0  0  0  0
   -0.5570   24.5530  -27.9150 C   0  0  0  0  0  0  0  0  0  0  0  0
   -1.4450   25.0910  -28.8510 C   0  0  0  0  0  0  0  0  0  0  0  0
   -1.2350   26.3790  -29.3330 O   0  0  0  0  0  0  0  0  0  0  0  0
   -4.9260   22.6640  -31.7170 C   0  0  0  0  0  0  0  0  0  0  0  0
   -5.4220   21.5380  -32.3780 C   0  0  0  0  0  0  0  0  0  0  0  0
   -6.7930   21.2650  -32.3680 C   0  0  0  0  0  0  0  0  0  0  0  0
   -7.2560   20.1620  -33.0100 F   0  0  0  0  0  0  0  0  0  0  0  0
   -9.4931   21.7466  -30.6316 H   0  0  0  0  0  0  0  0  0  0  0  0
   -9.6979   22.6214  -32.1871 H   0  0  0  0  0  0  0  0  0  0  0  0
   -9.3330   20.8626  -32.1871 H   0  0  0  0  0  0  0  0  0  0  0  0
   -7.8632   23.9348  -30.5110 H   0  0  0  0  0  0  0  0  0  0  0  0
   -3.6006   22.4523  -29.1315 H   0  0  0  0  0  0  0  0  0  0  0  0
   -2.9520   20.8090  -29.9220 H   0  0  0  0  0  0  0  0  0  0  0  0
   -3.1300   18.0663  -27.3489 H   0  0  0  0  0  0  0  0  0  0  0  0
   -0.0469   22.8423  -26.6898 H   0  0  0  0  0  0  0  0  0  0  0  0
    0.2989   25.1491  -27.5656 H   0  0  0  0  0  0  0  0  0  0  0  0
   -3.8463   22.8740  -31.7261 H   0  0  0  0  0  0  0  0  0  0  0  0
   -4.7322   20.8645  -32.9077 H   0  0  0  0  0  0  0  0  0  0  0  0
  1  2  1  0
  2  3  2  0
  3  4  1  0
  4  5  1  0
  5  6  2  0
  5  7  2  0
  5  8  1  0
  8  9  1  0
  9 10  2  0
 10 11  1  0
 11 12  1  0
 12 13  1  0
 13 14  1  0
 13 15  2  0
 15 16  1  0
 16 17  1  0
 17 18  2  0
 11 19  2  0
 19 20  1  0
 20 21  2  0
 21 22  1  0
  4 23  2  0
 23 24  1  0
 24 25  2  0
 25 26  1  0
 25  2  1  0
 21  9  1  0
 17 12  1  0
  1 27  1  0
  1 28  1  0
  1 29  1  0
  3 30  1  0
 10 31  1  0
 14 32  1  0
 15 33  1  0
 19 34  1  0
 20 35  1  0
 23 36  1  0
 24 37  1  0
M  CHG  3   8  -1  16  -1  22  -1
M  END
>  <UniqueID>  (47) 
45

>  <SMILES>  (47) 
Cc1cc(S(=O)(=O)[N-]c2cc(-n3c(O)c[n-]c3=O)ccc2[O-])ccc1F

>  <Energy>  (47) 
78.62791008847968

>  <Genealogy>  (47) 
Cc1cc(S(=O)(=O)[N-]c2cc(-n3c(O)c[n-]c3=O)ccc2[O-])ccc1F (protonated)
Cc1cc(S(=O)(=O)[N-]c2cc(-n3c(O)c[n-]c3=O)ccc2[O-])ccc1F (3D coordinates assigned)
Cc1cc(S(=O)(=O)[N-]c2cc(-n3c(O)c[n-]c3=O)ccc2[O-])ccc1F (optimized conformer: 78.62791008847968 kcal/mol)

>  <smiles>  (47) 
Cc1cc(S(=O)(=O)Nc2cc(-n3c(O)c[nH]c3=O)ccc2O)ccc1F

>  <score_type>  (47) 
oracle

>  <origin>  (47) 
adgpu

>  <m_score__min__energy>  (47) 
-12.800000000000001

>  <m_primary>  (47) 
energy

$$$$
47:0
     RDKit          3D

 62 65  0  0  0  0  0  0  0  0999 V2000
   -3.1310   20.5420  -30.3460 O   0  0  0  0  0  0  0  0  0  0  0  0
   -2.7320   21.2060  -29.3510 C   0  0  0  0  0  0  0  0  0  0  0  0
   -1.7530   20.5910  -28.3970 C   0  0  0  0  0  0  0  0  0  0  0  0
   -0.3780   20.8720  -28.8130 N   0  0  0  0  0  0  0  0  0  0  0  0
    0.2400   20.2600  -29.9610 C   0  0  0  0  0  0  0  0  0  0  0  0
    1.2520   19.2890  -29.8300 C   0  0  0  0  0  0  0  0  0  0  0  0
    1.8220   18.7070  -30.9650 C   0  0  0  0  0  0  0  0  0  0  0  0
    1.3940   19.0840  -32.2390 C   0  0  0  0  0  0  0  0  0  0  0  0
    0.4000   20.0600  -32.3890 C   0  0  0  0  0  0  0  0  0  0  0  0
   -0.1460   20.5340  -34.0020 S   0  0  0  0  0  0  0  0  0  0  0  0
    0.4570   19.6030  -35.0180 O   0  0  0  0  0  0  0  0  0  0  0  0
    0.3470   21.9230  -34.2960 O   0  0  0  0  0  0  0  0  0  0  0  0
   -1.8870   20.5010  -34.1670 N   0  0  0  0  0  0  0  0  0  0  0  0
   -2.4620   19.2400  -33.7010 C   0  0  0  0  0  0  0  0  0  0  0  0
   -3.8850   19.5480  -33.2540 C   0  0  0  0  0  0  0  0  0  0  0  0
   -3.9460   21.0610  -33.1060 C   0  0  0  0  0  0  0  0  0  0  0  0
   -2.5300   21.5440  -33.3730 C   0  0  0  0  0  0  0  0  0  0  0  0
   -0.1780   20.6380  -31.2480 C   0  0  0  0  0  0  0  0  0  0  0  0
   -3.1740   22.5560  -29.1460 N   0  0  0  0  0  0  0  0  0  0  0  0
   -4.2760   23.1590  -29.8480 C   0  0  0  0  0  0  0  0  0  0  0  0
   -5.4300   22.4180  -30.1610 C   0  0  0  0  0  0  0  0  0  0  0  0
   -6.5140   23.0240  -30.8110 C   0  0  0  0  0  0  0  0  0  0  0  0
   -7.9660   22.0890  -31.1810 S   0  0  0  0  0  0  0  0  0  0  0  0
   -8.7200   22.7650  -32.2930 O   0  0  0  0  0  0  0  0  0  0  0  0
   -8.8550   22.0590  -29.9700 O   0  0  0  0  0  0  0  0  0  0  0  0
   -7.5810   20.4520  -31.6510 N   0  0  0  0  0  0  0  0  0  0  0  0
   -8.7270   19.5610  -31.4080 C   0  0  0  0  0  0  0  0  0  0  0  0
   -8.4660   18.1630  -32.0040 C   0  0  0  0  0  0  0  0  0  0  0  0
   -7.1210   18.0290  -32.4260 O   0  0  0  0  0  0  0  0  0  0  0  0
   -6.8510   18.9500  -33.4680 C   0  0  0  0  0  0  0  0  0  0  0  0
   -7.1910   20.4010  -33.0670 C   0  0  0  0  0  0  0  0  0  0  0  0
   -6.4480   24.3810  -31.1490 C   0  0  0  0  0  0  0  0  0  0  0  0
   -5.3130   25.1290  -30.8270 C   0  0  0  0  0  0  0  0  0  0  0  0
   -4.2330   24.5270  -30.1720 C   0  0  0  0  0  0  0  0  0  0  0  0
   -3.1160   25.2920  -29.8560 O   0  0  0  0  0  0  0  0  0  0  0  0
   -1.9183   21.0069  -27.3921 H   0  0  0  0  0  0  0  0  0  0  0  0
   -1.9041   19.5015  -28.3891 H   0  0  0  0  0  0  0  0  0  0  0  0
    0.1860   21.5610  -28.2620 H   0  0  0  0  0  0  0  0  0  0  0  0
    1.5951   18.9875  -28.8293 H   0  0  0  0  0  0  0  0  0  0  0  0
    2.6111   17.9487  -30.8542 H   0  0  0  0  0  0  0  0  0  0  0  0
    1.8386   18.6133  -33.1282 H   0  0  0  0  0  0  0  0  0  0  0  0
   -2.4720   18.5030  -34.5175 H   0  0  0  0  0  0  0  0  0  0  0  0
   -1.8707   18.8158  -32.8761 H   0  0  0  0  0  0  0  0  0  0  0  0
   -4.6078   19.2062  -34.0095 H   0  0  0  0  0  0  0  0  0  0  0  0
   -4.1375   19.0355  -32.3140 H   0  0  0  0  0  0  0  0  0  0  0  0
   -4.6452   21.4924  -33.8374 H   0  0  0  0  0  0  0  0  0  0  0  0
   -4.3029   21.3630  -32.1103 H   0  0  0  0  0  0  0  0  0  0  0  0
   -2.5492   22.4913  -33.9317 H   0  0  0  0  0  0  0  0  0  0  0  0
   -1.9853   21.7270  -32.4350 H   0  0  0  0  0  0  0  0  0  0  0  0
   -0.9673   21.3956  -31.3627 H   0  0  0  0  0  0  0  0  0  0  0  0
   -2.6240   23.1490  -28.4840 H   0  0  0  0  0  0  0  0  0  0  0  0
   -5.4822   21.3524  -29.8930 H   0  0  0  0  0  0  0  0  0  0  0  0
   -8.8880   19.4671  -30.3239 H   0  0  0  0  0  0  0  0  0  0  0  0
   -9.6176   19.9905  -31.8901 H   0  0  0  0  0  0  0  0  0  0  0  0
   -8.6797   17.4015  -31.2395 H   0  0  0  0  0  0  0  0  0  0  0  0
   -9.1202   18.0295  -32.8782 H   0  0  0  0  0  0  0  0  0  0  0  0
   -5.7822   18.8940  -33.7220 H   0  0  0  0  0  0  0  0  0  0  0  0
   -7.4819   18.6810  -34.3280 H   0  0  0  0  0  0  0  0  0  0  0  0
   -6.3090   21.0390  -33.2253 H   0  0  0  0  0  0  0  0  0  0  0  0
   -8.0268   20.7605  -33.6853 H   0  0  0  0  0  0  0  0  0  0  0  0
   -7.2913   24.8590  -31.6690 H   0  0  0  0  0  0  0  0  0  0  0  0
   -5.2681   26.1963  -31.0896 H   0  0  0  0  0  0  0  0  0  0  0  0
  1  2  2  0
  2  3  1  0
  3  4  1  0
  4  5  1  0
  5  6  2  0
  6  7  1  0
  7  8  2  0
  8  9  1  0
  9 10  1  0
 10 11  2  0
 10 12  2  0
 10 13  1  0
 13 14  1  0
 14 15  1  0
 15 16  1  0
 16 17  1  0
  9 18  2  0
  2 19  1  0
 19 20  1  0
 20 21  2  0
 21 22  1  0
 22 23  1  0
 23 24  2  0
 23 25  2  0
 23 26  1  0
 26 27  1  0
 27 28  1  0
 28 29  1  0
 29 30  1  0
 30 31  1  0
 22 32  2  0
 32 33  1  0
 33 34  2  0
 34 35  1  0
 18  5  1  0
 34 20  1  0
 17 13  1  0
 31 26  1  0
  3 36  1  0
  3 37  1  0
  4 38  1  0
  6 39  1  0
  7 40  1  0
  8 41  1  0
 14 42  1  0
 14 43  1  0
 15 44  1  0
 15 45  1  0
 16 46  1  0
 16 47  1  0
 17 48  1  0
 17 49  1  0
 18 50  1  0
 19 51  1  0
 21 52  1  0
 27 53  1  0
 27 54  1  0
 28 55  1  0
 28 56  1  0
 30 57  1  0
 30 58  1  0
 31 59  1  0
 31 60  1  0
 32 61  1  0
 33 62  1  0
M  CHG  1  35  -1
M  END
>  <UniqueID>  (48) 
46

>  <SMILES>  (48) 
O=C(CNc1cccc(S(=O)(=O)N2CCCC2)c1)Nc1cc(S(=O)(=O)N2CCOCC2)ccc1[O-]

>  <Energy>  (48) 
74.40965945243641

>  <Genealogy>  (48) 
O=C(CNc1cccc(S(=O)(=O)N2CCCC2)c1)Nc1cc(S(=O)(=O)N2CCOCC2)ccc1[O-] (protonated)
O=C(CNc1cccc(S(=O)(=O)N2CCCC2)c1)Nc1cc(S(=O)(=O)N2CCOCC2)ccc1[O-] (3D coordinates assigned)
O=C(CNc1cccc(S(=O)(=O)N2CCCC2)c1)Nc1cc(S(=O)(=O)N2CCOCC2)ccc1[O-] (nonaromatic ring conformer: 74.40965945243641 kcal/mol)

>  <smiles>  (48) 
O=C(CNc1cccc(S(=O)(=O)N2CCCC2)c1)Nc1cc(S(=O)(=O)N2CCOCC2)ccc1O

>  <score_type>  (48) 
oracle

>  <origin>  (48) 
adgpu

>  <m_score__min__energy>  (48) 
-14.5

>  <m_primary>  (48) 
energy

$$$$
48:0
     RDKit          3D

 48 51  0  0  0  0  0  0  0  0999 V2000
   -6.4620   18.5320  -33.9730 C   0  0  0  0  0  0  0  0  0  0  0  0
   -7.3870   17.9210  -33.0230 N   0  0  0  0  0  0  0  0  0  0  0  0
   -8.4200   19.1390  -32.3430 S   0  0  0  0  0  0  0  0  0  0  0  0
   -9.5010   19.4770  -33.3300 O   0  0  0  0  0  0  0  0  0  0  0  0
   -9.0680   18.6140  -31.0910 O   0  0  0  0  0  0  0  0  0  0  0  0
   -7.4960   20.5960  -31.9840 C   0  0  0  0  0  0  0  0  0  0  0  0
   -8.1270   21.8450  -31.9170 C   0  0  0  0  0  0  0  0  0  0  0  0
   -7.3880   22.9920  -31.6150 C   0  0  0  0  0  0  0  0  0  0  0  0
   -6.0080   22.8990  -31.3520 C   0  0  0  0  0  0  0  0  0  0  0  0
   -5.2040   24.0570  -31.0680 N   0  0  0  0  0  0  0  0  0  0  0  0
   -4.1740   24.1100  -30.2730 C   0  0  0  0  0  0  0  0  0  0  0  0
   -3.5110   25.2730  -30.0470 N   0  0  0  0  0  0  0  0  0  0  0  0
   -2.5250   24.8850  -29.2250 C   0  0  0  0  0  0  0  0  0  0  0  0
   -1.5380   25.6750  -28.6480 C   0  0  0  0  0  0  0  0  0  0  0  0
   -0.6060   25.0470  -27.8030 C   0  0  0  0  0  0  0  0  0  0  0  0
   -0.6600   23.6420  -27.5690 C   0  0  0  0  0  0  0  0  0  0  0  0
    0.3210   22.9760  -26.6040 C   0  0  2  0  0  0  0  0  0  0  0  0
    0.9690   21.8760  -27.2020 O   0  0  0  0  0  0  0  0  0  0  0  0
   -0.4360   22.4840  -25.3390 C   0  0  0  0  0  0  0  0  0  0  0  0
   -0.0160   23.3870  -24.1720 C   0  0  0  0  0  0  0  0  0  0  0  0
    1.0980   24.1740  -24.7310 C   0  0  0  0  0  0  0  0  0  0  0  0
    1.7300   25.0390  -24.0690 O   0  0  0  0  0  0  0  0  0  0  0  0
    1.3210   23.9280  -26.1110 N   0  0  0  0  0  0  0  0  0  0  0  0
    2.3160   24.5810  -26.9240 C   0  0  0  0  0  0  0  0  0  0  0  0
    3.3050   25.4290  -26.3390 N   0  0  0  0  0  0  0  0  0  0  0  0
    2.3350   24.3860  -28.1690 O   0  0  0  0  0  0  0  0  0  0  0  0
   -1.7050   22.8870  -28.1600 C   0  0  0  0  0  0  0  0  0  0  0  0
   -2.6070   23.5480  -28.9880 C   0  0  0  0  0  0  0  0  0  0  0  0
   -3.6490   23.0220  -29.6480 N   0  0  0  0  0  0  0  0  0  0  0  0
   -5.3790   21.6520  -31.4470 C   0  0  0  0  0  0  0  0  0  0  0  0
   -6.1180   20.5050  -31.7480 C   0  0  0  0  0  0  0  0  0  0  0  0
   -5.6666   19.0574  -33.4241 H   0  0  0  0  0  0  0  0  0  0  0  0
   -6.0162   17.7501  -34.6053 H   0  0  0  0  0  0  0  0  0  0  0  0
   -7.0062   19.2489  -34.6053 H   0  0  0  0  0  0  0  0  0  0  0  0
   -9.2084   21.9232  -32.1028 H   0  0  0  0  0  0  0  0  0  0  0  0
   -7.8867   23.9719  -31.5826 H   0  0  0  0  0  0  0  0  0  0  0  0
   -1.4875   26.7559  -28.8458 H   0  0  0  0  0  0  0  0  0  0  0  0
    0.1757   25.6483  -27.3158 H   0  0  0  0  0  0  0  0  0  0  0  0
    1.6640   22.2290  -27.8160 H   0  0  0  0  0  0  0  0  0  0  0  0
   -1.5219   22.5569  -25.4987 H   0  0  0  0  0  0  0  0  0  0  0  0
   -0.1912   21.4333  -25.1243 H   0  0  0  0  0  0  0  0  0  0  0  0
   -0.8443   24.0418  -23.8634 H   0  0  0  0  0  0  0  0  0  0  0  0
    0.2677   22.8211  -23.2724 H   0  0  0  0  0  0  0  0  0  0  0  0
    3.4340   25.4790  -25.3050 H   0  0  0  0  0  0  0  0  0  0  0  0
    3.9810   25.9410  -26.9480 H   0  0  0  0  0  0  0  0  0  0  0  0
   -1.7999   21.8079  -27.9690 H   0  0  0  0  0  0  0  0  0  0  0  0
   -4.2940   21.5745  -31.2833 H   0  0  0  0  0  0  0  0  0  0  0  0
   -5.6163   19.5275  -31.7998 H   0  0  0  0  0  0  0  0  0  0  0  0
  1  2  1  0
  2  3  1  0
  3  4  2  0
  3  5  2  0
  3  6  1  0
  6  7  2  0
  7  8  1  0
  8  9  2  0
  9 10  1  0
 10 11  2  3
 11 12  1  0
 12 13  1  0
 13 14  2  0
 14 15  1  0
 15 16  2  0
 16 17  1  0
 17 18  1  6
 17 19  1  0
 19 20  1  0
 20 21  1  0
 21 22  2  0
 21 23  1  0
 23 24  1  0
 24 25  1  0
 24 26  2  0
 16 27  1  0
 27 28  2  0
 28 29  1  0
  9 30  1  0
 30 31  2  0
 31  6  1  0
 29 11  1  0
 28 13  1  0
 23 17  1  0
  1 32  1  0
  1 33  1  0
  1 34  1  0
  7 35  1  0
  8 36  1  0
 14 37  1  0
 15 38  1  0
 18 39  1  0
 19 40  1  0
 19 41  1  0
 20 42  1  0
 20 43  1  0
 25 44  1  0
 25 45  1  0
 27 46  1  0
 30 47  1  0
 31 48  1  0
M  CHG  3   2  -1  12  -1  29  -1
M  END
>  <UniqueID>  (49) 
47

>  <SMILES>  (49) 
C[N-]S(=O)(=O)c1ccc(N=c2[n-]c3ccc([C@]4(O)CCC(=O)N4C(N)=O)cc3[n-]2)cc1

>  <Energy>  (49) 
102.18755743749851

>  <Genealogy>  (49) 
C[N-]S(=O)(=O)c1ccc(N=c2[n-]c3ccc(C4(O)CCC(=O)N4C(N)=O)cc3[n-]2)cc1 (protonated)
C[N-]S(=O)(=O)c1ccc(N=c2[n-]c3ccc([C@]4(O)CCC(=O)N4C(N)=O)cc3[n-]2)cc1 (chirality)
C[N-]S(=O)(=O)c1ccc(N=c2[n-]c3ccc([C@]4(O)CCC(=O)N4C(N)=O)cc3[n-]2)cc1 (3D coordinates assigned)
C[N-]S(=O)(=O)c1ccc(N=c2[n-]c3ccc([C@]4(O)CCC(=O)N4C(N)=O)cc3[n-]2)cc1 (nonaromatic ring conformer: 102.18755743749851 kcal/mol)

>  <smiles>  (49) 
CNS(=O)(=O)c1ccc(N=c2[nH]c3ccc(C4(O)CCC(=O)N4C(N)=O)cc3[nH]2)cc1

>  <score_type>  (49) 
oracle

>  <origin>  (49) 
adgpu

>  <m_score__min__energy>  (49) 
-10.57

>  <m_primary>  (49) 
energy

$$$$
