0:0
     RDKit          3D

 50 53  0  0  0  0  0  0  0  0999 V2000
   -7.8070   23.7960  -31.3690 C   0  0  0  0  0  0  0  0  0  0  0  0
   -6.9420   22.6130  -31.6680 C   0  0  0  0  0  0  0  0  0  0  0  0
   -7.3870   21.5240  -32.3230 N   0  0  0  0  0  0  0  0  0  0  0  0
   -6.3110   20.7080  -32.3500 C   0  0  0  0  0  0  0  0  0  0  0  0
   -6.3110   19.3680  -32.9690 C   0  0  0  0  0  0  0  0  0  0  0  0
   -5.7140   19.1580  -34.2250 C   0  0  0  0  0  0  0  0  0  0  0  0
   -5.7200   17.8850  -34.8050 C   0  0  0  0  0  0  0  0  0  0  0  0
   -6.3200   16.8140  -34.1380 C   0  0  0  0  0  0  0  0  0  0  0  0
   -6.9140   17.0120  -32.8890 C   0  0  0  0  0  0  0  0  0  0  0  0
   -6.9120   18.2830  -32.3060 C   0  0  0  0  0  0  0  0  0  0  0  0
   -5.2600   21.2380  -31.7610 O   0  0  0  0  0  0  0  0  0  0  0  0
   -5.6100   22.4260  -31.3330 C   0  0  0  0  0  0  0  0  0  0  0  0
   -4.6960   23.3310  -30.6140 C   0  0  0  0  0  0  0  0  0  0  0  0
   -4.4710   24.4730  -31.1000 O   0  0  0  0  0  0  0  0  0  0  0  0
   -4.1220   22.9630  -29.3520 N   0  0  0  0  0  0  0  0  0  0  0  0
   -2.9110   23.5350  -28.8290 C   0  0  0  0  0  0  0  0  0  0  0  0
   -1.6470   23.0860  -29.2490 C   0  0  0  0  0  0  0  0  0  0  0  0
   -0.4840   23.6450  -28.7140 C   0  0  0  0  0  0  0  0  0  0  0  0
   -0.5660   24.6570  -27.7470 C   0  0  0  0  0  0  0  0  0  0  0  0
    0.9030   25.3810  -27.0900 S   0  0  0  0  0  0  0  0  0  0  0  0
    2.0700   25.0050  -27.9610 O   0  0  0  0  0  0  0  0  0  0  0  0
    0.7710   26.8780  -27.1160 O   0  0  0  0  0  0  0  0  0  0  0  0
    1.2150   24.8560  -25.4480 N   0  0  0  0  0  0  0  0  0  0  0  0
    0.3770   25.5840  -24.4900 C   0  0  0  0  0  0  0  0  0  0  0  0
   -0.8240   24.7130  -24.1450 C   0  0  0  0  0  0  0  0  0  0  0  0
   -0.4900   23.3260  -24.6560 C   0  0  0  0  0  0  0  0  0  0  0  0
    0.8950   23.4350  -25.2760 C   0  0  0  0  0  0  0  0  0  0  0  0
   -1.8250   25.0860  -27.3050 C   0  0  0  0  0  0  0  0  0  0  0  0
   -2.9880   24.5260  -27.8390 C   0  0  0  0  0  0  0  0  0  0  0  0
   -7.8967   23.9186  -30.2795 H   0  0  0  0  0  0  0  0  0  0  0  0
   -7.3552   24.6998  -31.8038 H   0  0  0  0  0  0  0  0  0  0  0  0
   -8.8052   23.6396  -31.8038 H   0  0  0  0  0  0  0  0  0  0  0  0
   -5.2403   19.9984  -34.7536 H   0  0  0  0  0  0  0  0  0  0  0  0
   -5.2516   17.7270  -35.7877 H   0  0  0  0  0  0  0  0  0  0  0  0
   -6.3247   15.8141  -34.5965 H   0  0  0  0  0  0  0  0  0  0  0  0
   -7.3837   16.1673  -32.3638 H   0  0  0  0  0  0  0  0  0  0  0  0
   -7.3830   18.4350  -31.3236 H   0  0  0  0  0  0  0  0  0  0  0  0
   -4.6780   22.3350  -28.7290 H   0  0  0  0  0  0  0  0  0  0  0  0
   -1.5732   22.2893  -30.0038 H   0  0  0  0  0  0  0  0  0  0  0  0
    0.5004   23.2897  -29.0528 H   0  0  0  0  0  0  0  0  0  0  0  0
    0.9546   25.7986  -23.5788 H   0  0  0  0  0  0  0  0  0  0  0  0
    0.0412   26.5357  -24.9276 H   0  0  0  0  0  0  0  0  0  0  0  0
   -0.9819   24.6923  -23.0566 H   0  0  0  0  0  0  0  0  0  0  0  0
   -1.7480   25.0998  -24.5996 H   0  0  0  0  0  0  0  0  0  0  0  0
   -0.4825   22.6037  -23.8264 H   0  0  0  0  0  0  0  0  0  0  0  0
   -1.2337   22.9735  -25.3859 H   0  0  0  0  0  0  0  0  0  0  0  0
    1.6366   22.9648  -24.6135 H   0  0  0  0  0  0  0  0  0  0  0  0
    0.9146   22.9228  -26.2493 H   0  0  0  0  0  0  0  0  0  0  0  0
   -1.8976   25.8673  -26.5341 H   0  0  0  0  0  0  0  0  0  0  0  0
   -3.9714   24.8645  -27.4806 H   0  0  0  0  0  0  0  0  0  0  0  0
  1  2  1  0
  2  3  1  0
  3  4  2  0
  4  5  1  0
  5  6  2  0
  6  7  1  0
  7  8  2  0
  8  9  1  0
  9 10  2  0
  4 11  1  0
 11 12  1  0
 12 13  1  0
 13 14  2  0
 13 15  1  0
 15 16  1  0
 16 17  2  0
 17 18  1  0
 18 19  2  0
 19 20  1  0
 20 21  2  0
 20 22  2  0
 20 23  1  0
 23 24  1  0
 24 25  1  0
 25 26  1  0
 26 27  1  0
 19 28  1  0
 28 29  2  0
 12  2  2  0
 29 16  1  0
 10  5  1  0
 27 23  1  0
  1 30  1  0
  1 31  1  0
  1 32  1  0
  6 33  1  0
  7 34  1  0
  8 35  1  0
  9 36  1  0
 10 37  1  0
 15 38  1  0
 17 39  1  0
 18 40  1  0
 24 41  1  0
 24 42  1  0
 25 43  1  0
 25 44  1  0
 26 45  1  0
 26 46  1  0
 27 47  1  0
 27 48  1  0
 28 49  1  0
 29 50  1  0
M  END
>  <UniqueID>  (1) 
1

>  <SMILES>  (1) 
Cc1nc(-c2ccccc2)oc1C(=O)Nc1ccc(S(=O)(=O)N2CCCC2)cc1

>  <Energy>  (1) 
86.84400929792533

>  <Genealogy>  (1) 
Cc1nc(-c2ccccc2)oc1C(=O)Nc1ccc(S(=O)(=O)N2CCCC2)cc1 (3D coordinates assigned)
Cc1nc(-c2ccccc2)oc1C(=O)Nc1ccc(S(=O)(=O)N2CCCC2)cc1 (nonaromatic ring conformer: 86.84400929792533 kcal/mol)

>  <smiles>  (1) 
Cc1nc(-c2ccccc2)oc1C(=O)Nc1ccc(S(=O)(=O)N2CCCC2)cc1

>  <score_type>  (1) 
oracle

>  <origin>  (1) 
adgpu

>  <m_score__min__energy>  (1) 
-9.6099999999999994

>  <m_primary>  (1) 
energy

$$$$
1:0
     RDKit          3D

 64 67  0  0  0  0  0  0  0  0999 V2000
   -8.6460   19.6410  -31.8860 C   0  0  0  0  0  0  0  0  0  0  0  0
   -7.8750   20.9280  -31.8730 C   0  0  0  0  0  0  0  0  0  0  0  0
   -8.5210   22.1440  -31.6020 C   0  0  0  0  0  0  0  0  0  0  0  0
   -7.8020   23.3440  -31.6230 C   0  0  0  0  0  0  0  0  0  0  0  0
   -6.4250   23.3410  -31.9100 C   0  0  0  0  0  0  0  0  0  0  0  0
   -5.6670   24.5570  -31.9670 N   0  0  0  0  0  0  0  0  0  0  0  0
   -5.0700   25.2150  -30.8460 C   0  0  0  0  0  0  0  0  0  0  0  0
   -5.7370   26.0790  -30.2220 O   0  0  0  0  0  0  0  0  0  0  0  0
   -3.7210   24.9010  -30.4640 N   0  0  0  0  0  0  0  0  0  0  0  0
   -3.2490   23.9500  -29.4930 C   0  0  0  0  0  0  0  0  0  0  0  0
   -3.9810   22.8040  -29.1640 C   0  0  0  0  0  0  0  0  0  0  0  0
   -3.4730   21.8810  -28.2590 C   0  0  0  0  0  0  0  0  0  0  0  0
   -2.2440   22.0910  -27.6160 C   0  0  0  0  0  0  0  0  0  0  0  0
   -1.6020   20.7410  -26.6530 S   0  0  0  0  0  0  0  0  0  0  0  0
   -1.1550   21.2330  -25.3080 O   0  0  0  0  0  0  0  0  0  0  0  0
   -2.6740   19.7080  -26.4350 O   0  0  0  0  0  0  0  0  0  0  0  0
   -0.2680   20.0000  -27.5030 N   0  0  0  0  0  0  0  0  0  0  0  0
   -0.4120   18.5360  -27.5040 C   0  0  0  0  0  0  0  0  0  0  0  0
    0.8820   17.8790  -28.0130 C   0  0  0  0  0  0  0  0  0  0  0  0
    1.6740   18.7970  -28.9620 C   0  0  0  0  0  0  0  0  0  0  0  0
    0.7330   19.6790  -29.7870 C   0  0  0  0  0  0  0  0  0  0  0  0
   -0.1840   20.5310  -28.8810 C   0  0  0  0  0  0  0  0  0  0  0  0
   -1.5370   23.3070  -27.8510 C   0  0  0  0  0  0  0  0  0  0  0  0
   -0.0670   23.7930  -26.9420 S   0  0  0  0  0  0  0  0  0  0  0  0
    0.7160   22.6130  -26.4490 O   0  0  0  0  0  0  0  0  0  0  0  0
    0.8450   24.5530  -27.8670 O   0  0  0  0  0  0  0  0  0  0  0  0
   -0.4520   24.8110  -25.5710 N   0  0  0  0  0  0  0  0  0  0  0  0
   -1.4050   25.8650  -25.9530 C   0  0  0  0  0  0  0  0  0  0  0  0
   -1.5540   26.9060  -24.8250 C   0  0  0  0  0  0  0  0  0  0  0  0
   -1.0160   26.4140  -23.6110 O   0  0  0  0  0  0  0  0  0  0  0  0
    0.3840   26.2370  -23.7420 C   0  0  0  0  0  0  0  0  0  0  0  0
    0.7590   25.4070  -24.9890 C   0  0  0  0  0  0  0  0  0  0  0  0
   -2.0390   24.2090  -28.8220 C   0  0  0  0  0  0  0  0  0  0  0  0
   -1.3180   25.3690  -29.1200 O   0  0  0  0  0  0  0  0  0  0  0  0
   -5.7920   22.1310  -32.2200 C   0  0  0  0  0  0  0  0  0  0  0  0
   -6.5120   20.9300  -32.1990 C   0  0  0  0  0  0  0  0  0  0  0  0
   -8.8390   19.3188  -30.8521 H   0  0  0  0  0  0  0  0  0  0  0  0
   -9.6026   19.7919  -32.4077 H   0  0  0  0  0  0  0  0  0  0  0  0
   -8.0616   18.8688  -32.4077 H   0  0  0  0  0  0  0  0  0  0  0  0
   -9.5967   22.1537  -31.3722 H   0  0  0  0  0  0  0  0  0  0  0  0
   -8.3158   24.2940  -31.4142 H   0  0  0  0  0  0  0  0  0  0  0  0
   -4.9650   22.6329  -29.6250 H   0  0  0  0  0  0  0  0  0  0  0  0
   -4.0457   20.9672  -28.0421 H   0  0  0  0  0  0  0  0  0  0  0  0
   -0.6177   18.1898  -26.4804 H   0  0  0  0  0  0  0  0  0  0  0  0
   -1.2435   18.2561  -28.1675 H   0  0  0  0  0  0  0  0  0  0  0  0
    1.5165   17.6329  -27.1488 H   0  0  0  0  0  0  0  0  0  0  0  0
    0.6004   16.9775  -28.5769 H   0  0  0  0  0  0  0  0  0  0  0  0
    2.3400   19.4397  -28.3676 H   0  0  0  0  0  0  0  0  0  0  0  0
    2.2575   18.1683  -29.6507 H   0  0  0  0  0  0  0  0  0  0  0  0
    1.3339   20.3495  -30.4189 H   0  0  0  0  0  0  0  0  0  0  0  0
    0.0983   19.0249  -30.4029 H   0  0  0  0  0  0  0  0  0  0  0  0
    0.2132   21.5560  -28.8408 H   0  0  0  0  0  0  0  0  0  0  0  0
   -1.1960   20.5068  -29.3114 H   0  0  0  0  0  0  0  0  0  0  0  0
   -1.0414   26.3676  -26.8614 H   0  0  0  0  0  0  0  0  0  0  0  0
   -2.3860   25.4026  -26.1369 H   0  0  0  0  0  0  0  0  0  0  0  0
   -1.0203   27.8248  -25.1096 H   0  0  0  0  0  0  0  0  0  0  0  0
   -2.6239   27.1143  -24.6772 H   0  0  0  0  0  0  0  0  0  0  0  0
    0.8592   27.2260  -23.8201 H   0  0  0  0  0  0  0  0  0  0  0  0
    0.7368   25.6887  -22.8560 H   0  0  0  0  0  0  0  0  0  0  0  0
    1.2382   26.0607  -25.7326 H   0  0  0  0  0  0  0  0  0  0  0  0
    1.4547   24.6063  -24.6975 H   0  0  0  0  0  0  0  0  0  0  0  0
   -1.6160   26.0440  -29.8140 H   0  0  0  0  0  0  0  0  0  0  0  0
   -4.7235   22.1238  -32.4814 H   0  0  0  0  0  0  0  0  0  0  0  0
   -6.0053   19.9837  -32.4395 H   0  0  0  0  0  0  0  0  0  0  0  0
  1  2  1  0
  2  3  2  0
  3  4  1  0
  4  5  2  0
  5  6  1  0
  6  7  1  0
  7  8  2  0
  7  9  1  0
  9 10  1  0
 10 11  2  0
 11 12  1  0
 12 13  2  0
 13 14  1  0
 14 15  2  0
 14 16  2  0
 14 17  1  0
 17 18  1  0
 18 19  1  0
 19 20  1  0
 20 21  1  0
 21 22  1  0
 13 23  1  0
 23 24  1  0
 24 25  2  0
 24 26  2  0
 24 27  1  0
 27 28  1  0
 28 29  1  0
 29 30  1  0
 30 31  1  0
 31 32  1  0
 23 33  2  0
 33 34  1  0
  5 35  1  0
 35 36  2  0
 36  2  1  0
 33 10  1  0
 22 17  1  0
 32 27  1  0
  1 37  1  0
  1 38  1  0
  1 39  1  0
  3 40  1  0
  4 41  1  0
 11 42  1  0
 12 43  1  0
 18 44  1  0
 18 45  1  0
 19 46  1  0
 19 47  1  0
 20 48  1  0
 20 49  1  0
 21 50  1  0
 21 51  1  0
 22 52  1  0
 22 53  1  0
 28 54  1  0
 28 55  1  0
 29 56  1  0
 29 57  1  0
 31 58  1  0
 31 59  1  0
 32 60  1  0
 32 61  1  0
 34 62  1  0
 35 63  1  0
 36 64  1  0
M  CHG  2   6  -1   9  -1
M  END
>  <UniqueID>  (2) 
2

>  <SMILES>  (2) 
Cc1ccc([N-]C(=O)[N-]c2ccc(S(=O)(=O)N3CCCCC3)c(S(=O)(=O)N3CCOCC3)c2O)cc1

>  <Energy>  (2) 
90.9887446521983

>  <Genealogy>  (2) 
Cc1ccc([N-]C(=O)[N-]c2ccc(S(=O)(=O)N3CCCCC3)c(S(=O)(=O)N3CCOCC3)c2O)cc1 (protonated)
Cc1ccc([N-]C(=O)[N-]c2ccc(S(=O)(=O)N3CCCCC3)c(S(=O)(=O)N3CCOCC3)c2O)cc1 (3D coordinates assigned)
Cc1ccc([N-]C(=O)[N-]c2ccc(S(=O)(=O)N3CCCCC3)c(S(=O)(=O)N3CCOCC3)c2O)cc1 (nonaromatic ring conformer: 90.9887446521983 kcal/mol)

>  <smiles>  (2) 
Cc1ccc(NC(=O)Nc2ccc(S(=O)(=O)N3CCCCC3)c(S(=O)(=O)N3CCOCC3)c2O)cc1

>  <score_type>  (2) 
oracle

>  <origin>  (2) 
adgpu

>  <m_score__min__energy>  (2) 
-14.1

>  <m_primary>  (2) 
energy

$$$$
2:0
     RDKit          3D

 62 65  0  0  0  0  0  0  0  0999 V2000
   -2.1090   23.0230  -30.5390 O   0  0  0  0  0  0  0  0  0  0  0  0
   -3.1020   22.5530  -31.1600 C   0  0  0  0  0  0  0  0  0  0  0  0
   -2.9370   21.3990  -32.0000 N   0  0  0  0  0  0  0  0  0  0  0  0
   -1.6760   20.9860  -32.5540 C   0  0  0  0  0  0  0  0  0  0  0  0
   -1.4590   21.1000  -33.9350 C   0  0  0  0  0  0  0  0  0  0  0  0
   -0.2350   20.7220  -34.4940 C   0  0  0  0  0  0  0  0  0  0  0  0
    0.7950   20.2350  -33.6780 C   0  0  0  0  0  0  0  0  0  0  0  0
    2.3340   19.7400  -34.3860 S   0  0  0  0  0  0  0  0  0  0  0  0
    3.3710   19.6450  -33.3020 O   0  0  0  0  0  0  0  0  0  0  0  0
    2.7850   20.7840  -35.3700 O   0  0  0  0  0  0  0  0  0  0  0  0
    2.1990   18.1960  -35.1950 N   0  0  0  0  0  0  0  0  0  0  0  0
    1.4030   17.2290  -34.3990 C   0  0  0  0  0  0  0  0  0  0  0  0
   -0.0200   17.0330  -34.9410 C   0  0  0  0  0  0  0  0  0  0  0  0
    0.0030   16.5450  -36.4000 C   0  0  0  0  0  0  0  0  0  0  0  0
    1.2180   17.0730  -37.1850 C   0  0  0  0  0  0  0  0  0  0  0  0
    1.7330   18.3840  -36.5860 C   0  0  0  0  0  0  0  0  0  0  0  0
    0.5940   20.1480  -32.2930 C   0  0  0  0  0  0  0  0  0  0  0  0
   -0.6320   20.5230  -31.7330 C   0  0  0  0  0  0  0  0  0  0  0  0
   -4.4400   23.1540  -30.9540 C   0  0  0  0  0  0  0  0  0  0  0  0
   -5.5890   22.3620  -31.1340 C   0  0  0  0  0  0  0  0  0  0  0  0
   -6.8670   22.9060  -30.9530 C   0  0  0  0  0  0  0  0  0  0  0  0
   -8.2880   21.8870  -31.1730 S   0  0  0  0  0  0  0  0  0  0  0  0
   -9.1210   21.8880  -29.9210 O   0  0  0  0  0  0  0  0  0  0  0  0
   -9.1130   22.4460  -32.2990 O   0  0  0  0  0  0  0  0  0  0  0  0
   -7.7910   20.2580  -31.5610 N   0  0  0  0  0  0  0  0  0  0  0  0
   -8.9130   19.3230  -31.3250 C   0  0  0  0  0  0  0  0  0  0  0  0
   -8.6760   17.9370  -31.9650 C   0  0  0  0  0  0  0  0  0  0  0  0
   -7.2020   17.7220  -32.3120 C   0  0  0  0  0  0  0  0  0  0  0  0
   -6.6870   18.8270  -33.2490 C   0  0  0  0  0  0  0  0  0  0  0  0
   -7.3360   20.1940  -32.9580 C   0  0  0  0  0  0  0  0  0  0  0  0
   -7.0030   24.2450  -30.5710 C   0  0  0  0  0  0  0  0  0  0  0  0
   -5.8710   25.0360  -30.3730 C   0  0  0  0  0  0  0  0  0  0  0  0
   -4.5920   24.4990  -30.5540 C   0  0  0  0  0  0  0  0  0  0  0  0
   -3.4850   25.3040  -30.3070 O   0  0  0  0  0  0  0  0  0  0  0  0
   -3.7590   20.7650  -32.1250 H   0  0  0  0  0  0  0  0  0  0  0  0
   -2.2580   21.4898  -34.5829 H   0  0  0  0  0  0  0  0  0  0  0  0
   -0.0794   20.8072  -35.5796 H   0  0  0  0  0  0  0  0  0  0  0  0
    1.9190   16.2576  -34.4097 H   0  0  0  0  0  0  0  0  0  0  0  0
    1.3140   17.6357  -33.3808 H   0  0  0  0  0  0  0  0  0  0  0  0
   -0.5405   16.2878  -34.3215 H   0  0  0  0  0  0  0  0  0  0  0  0
   -0.5428   18.0002  -34.9053 H   0  0  0  0  0  0  0  0  0  0  0  0
    0.0333   15.4454  -36.4027 H   0  0  0  0  0  0  0  0  0  0  0  0
   -0.9026   16.9286  -36.8926 H   0  0  0  0  0  0  0  0  0  0  0  0
    2.0214   16.3224  -37.1512 H   0  0  0  0  0  0  0  0  0  0  0  0
    0.9083   17.2610  -38.2236 H   0  0  0  0  0  0  0  0  0  0  0  0
    2.5703   18.7521  -37.1972 H   0  0  0  0  0  0  0  0  0  0  0  0
    0.9061   19.1094  -36.5788 H   0  0  0  0  0  0  0  0  0  0  0  0
    1.4038   19.7833  -31.6440 H   0  0  0  0  0  0  0  0  0  0  0  0
   -0.7802   20.4554  -30.6451 H   0  0  0  0  0  0  0  0  0  0  0  0
   -5.4825   21.3051  -31.4197 H   0  0  0  0  0  0  0  0  0  0  0  0
   -9.0410   19.1929  -30.2402 H   0  0  0  0  0  0  0  0  0  0  0  0
   -9.8108   19.7558  -31.7904 H   0  0  0  0  0  0  0  0  0  0  0  0
   -8.9934   17.1576  -31.2566 H   0  0  0  0  0  0  0  0  0  0  0  0
   -9.2600   17.8832  -32.8956 H   0  0  0  0  0  0  0  0  0  0  0  0
   -6.6096   17.7319  -31.3852 H   0  0  0  0  0  0  0  0  0  0  0  0
   -7.1014   16.7541  -32.8249 H   0  0  0  0  0  0  0  0  0  0  0  0
   -5.5982   18.9187  -33.1220 H   0  0  0  0  0  0  0  0  0  0  0  0
   -6.9504   18.5432  -34.2786 H   0  0  0  0  0  0  0  0  0  0  0  0
   -6.5986   20.9906  -33.1360 H   0  0  0  0  0  0  0  0  0  0  0  0
   -8.2028   20.3263  -33.6222 H   0  0  0  0  0  0  0  0  0  0  0  0
   -8.0050   24.6752  -30.4264 H   0  0  0  0  0  0  0  0  0  0  0  0
   -5.9848   26.0881  -30.0728 H   0  0  0  0  0  0  0  0  0  0  0  0
  1  2  2  0
  2  3  1  0
  3  4  1  0
  4  5  2  0
  5  6  1  0
  6  7  2  0
  7  8  1  0
  8  9  2  0
  8 10  2  0
  8 11  1  0
 11 12  1  0
 12 13  1  0
 13 14  1  0
 14 15  1  0
 15 16  1  0
  7 17  1  0
 17 18  2  0
  2 19  1  0
 19 20  2  0
 20 21  1  0
 21 22  1  0
 22 23  2  0
 22 24  2  0
 22 25  1  0
 25 26  1  0
 26 27  1  0
 27 28  1  0
 28 29  1  0
 29 30  1  0
 21 31  2  0
 31 32  1  0
 32 33  2  0
 33 34  1  0
 18  4  1  0
 33 19  1  0
 16 11  1  0
 30 25  1  0
  3 35  1  0
  5 36  1  0
  6 37  1  0
 12 38  1  0
 12 39  1  0
 13 40  1  0
 13 41  1  0
 14 42  1  0
 14 43  1  0
 15 44  1  0
 15 45  1  0
 16 46  1  0
 16 47  1  0
 17 48  1  0
 18 49  1  0
 20 50  1  0
 26 51  1  0
 26 52  1  0
 27 53  1  0
 27 54  1  0
 28 55  1  0
 28 56  1  0
 29 57  1  0
 29 58  1  0
 30 59  1  0
 30 60  1  0
 31 61  1  0
 32 62  1  0
M  CHG  1  34  -1
M  END
>  <UniqueID>  (3) 
3

>  <SMILES>  (3) 
O=C(Nc1ccc(S(=O)(=O)N2CCCCC2)cc1)c1cc(S(=O)(=O)N2CCCCC2)ccc1[O-]

>  <Energy>  (3) 
78.3417034899255

>  <Genealogy>  (3) 
O=C(Nc1ccc(S(=O)(=O)N2CCCCC2)cc1)c1cc(S(=O)(=O)N2CCCCC2)ccc1[O-] (protonated)
O=C(Nc1ccc(S(=O)(=O)N2CCCCC2)cc1)c1cc(S(=O)(=O)N2CCCCC2)ccc1[O-] (3D coordinates assigned)
O=C(Nc1ccc(S(=O)(=O)N2CCCCC2)cc1)c1cc(S(=O)(=O)N2CCCCC2)ccc1[O-] (nonaromatic ring conformer: 78.3417034899255 kcal/mol)

>  <smiles>  (3) 
O=C(Nc1ccc(S(=O)(=O)N2CCCCC2)cc1)c1cc(S(=O)(=O)N2CCCCC2)ccc1O

>  <score_type>  (3) 
oracle

>  <origin>  (3) 
adgpu

>  <m_score__min__energy>  (3) 
-13.039999999999999

>  <m_primary>  (3) 
energy

$$$$
3:0
     RDKit          3D

 46 49  0  0  0  0  0  0  0  0999 V2000
   -6.5800   16.4410  -34.2190 C   0  0  0  0  0  0  0  0  0  0  0  0
   -6.9740   17.5820  -33.3990 N   0  0  0  0  0  0  0  0  0  0  0  0
   -8.0120   17.5900  -32.5780 N   0  0  0  0  0  0  0  0  0  0  0  0
   -7.9810   18.7820  -31.9430 C   0  0  0  0  0  0  0  0  0  0  0  0
   -6.9280   19.5330  -32.3430 N   0  0  0  0  0  0  0  0  0  0  0  0
   -6.5560   20.8460  -31.8800 C   0  0  0  0  0  0  0  0  0  0  0  0
   -7.4420   21.5950  -31.0860 C   0  0  0  0  0  0  0  0  0  0  0  0
   -7.0830   22.8680  -30.6300 C   0  0  0  0  0  0  0  0  0  0  0  0
   -5.8360   23.4110  -30.9650 C   0  0  0  0  0  0  0  0  0  0  0  0
   -5.3630   24.9960  -30.3620 S   0  0  0  0  0  0  0  0  0  0  0  0
   -5.9040   25.2230  -28.9790 O   0  0  0  0  0  0  0  0  0  0  0  0
   -5.9120   26.0500  -31.2830 O   0  0  0  0  0  0  0  0  0  0  0  0
   -3.6340   25.1220  -30.3220 N   0  0  0  0  0  0  0  0  0  0  0  0
   -2.7640   24.2990  -29.5320 C   0  0  0  0  0  0  0  0  0  0  0  0
   -3.0810   22.9630  -29.2230 C   0  0  0  0  0  0  0  0  0  0  0  0
   -2.1810   22.1700  -28.4980 C   0  0  0  0  0  0  0  0  0  0  0  0
   -0.9670   22.7160  -28.0470 C   0  0  0  0  0  0  0  0  0  0  0  0
   -0.6720   24.0600  -28.3190 C   0  0  0  0  0  0  0  0  0  0  0  0
   -1.5580   24.8420  -29.0660 C   0  0  0  0  0  0  0  0  0  0  0  0
   -1.2340   26.1650  -29.3450 O   0  0  0  0  0  0  0  0  0  0  0  0
   -0.0280   21.8930  -27.1970 C   0  0  0  0  0  0  0  0  0  0  0  0
   -0.0820   20.3650  -27.4660 C   0  0  0  0  0  0  0  0  0  0  0  0
   -1.2190   19.9000  -28.3950 C   0  0  0  0  0  0  0  0  0  0  0  0
   -2.4890   20.7300  -28.2030 C   0  0  0  0  0  0  0  0  0  0  0  0
   -4.9570   22.6770  -31.7700 C   0  0  0  0  0  0  0  0  0  0  0  0
   -5.3130   21.4050  -32.2250 C   0  0  0  0  0  0  0  0  0  0  0  0
   -6.3150   18.7410  -33.2450 C   0  0  0  0  0  0  0  0  0  0  0  0
   -5.2370   19.0260  -33.8360 O   0  0  0  0  0  0  0  0  0  0  0  0
   -6.2908   15.6035  -33.5672 H   0  0  0  0  0  0  0  0  0  0  0  0
   -7.4251   16.1366  -34.8540 H   0  0  0  0  0  0  0  0  0  0  0  0
   -5.7272   16.7229  -34.8540 H   0  0  0  0  0  0  0  0  0  0  0  0
   -8.7198   19.1027  -31.1938 H   0  0  0  0  0  0  0  0  0  0  0  0
   -8.4245   21.1772  -30.8214 H   0  0  0  0  0  0  0  0  0  0  0  0
   -7.7823   23.4443  -30.0064 H   0  0  0  0  0  0  0  0  0  0  0  0
   -4.0409   22.5386  -29.5525 H   0  0  0  0  0  0  0  0  0  0  0  0
    0.2624   24.5015  -27.9422 H   0  0  0  0  0  0  0  0  0  0  0  0
    0.9988   22.2386  -27.3875 H   0  0  0  0  0  0  0  0  0  0  0  0
   -0.3459   22.0367  -26.1538 H   0  0  0  0  0  0  0  0  0  0  0  0
    0.8733   20.0663  -27.9223 H   0  0  0  0  0  0  0  0  0  0  0  0
   -0.2723   19.8912  -26.4917 H   0  0  0  0  0  0  0  0  0  0  0  0
   -0.8864   19.9955  -29.4392 H   0  0  0  0  0  0  0  0  0  0  0  0
   -1.4549   18.8545  -28.1475 H   0  0  0  0  0  0  0  0  0  0  0  0
   -3.2708   20.3720  -28.8890 H   0  0  0  0  0  0  0  0  0  0  0  0
   -2.8449   20.6307  -27.1669 H   0  0  0  0  0  0  0  0  0  0  0  0
   -3.9813   23.1038  -32.0456 H   0  0  0  0  0  0  0  0  0  0  0  0
   -4.6156   20.8366  -32.8579 H   0  0  0  0  0  0  0  0  0  0  0  0
  1  2  1  0
  2  3  1  0
  3  4  2  0
  4  5  1  0
  5  6  1  0
  6  7  2  0
  7  8  1  0
  8  9  2  0
  9 10  1  0
 10 11  2  0
 10 12  2  0
 10 13  1  0
 13 14  1  0
 14 15  2  0
 15 16  1  0
 16 17  2  0
 17 18  1  0
 18 19  2  0
 19 20  1  0
 17 21  1  0
 21 22  1  0
 22 23  1  0
 23 24  1  0
  9 25  1  0
 25 26  2  0
  5 27  1  0
 27 28  2  0
 27  2  1  0
 26  6  1  0
 19 14  1  0
 24 16  1  0
  1 29  1  0
  1 30  1  0
  1 31  1  0
  4 32  1  0
  7 33  1  0
  8 34  1  0
 15 35  1  0
 18 36  1  0
 21 37  1  0
 21 38  1  0
 22 39  1  0
 22 40  1  0
 23 41  1  0
 23 42  1  0
 24 43  1  0
 24 44  1  0
 25 45  1  0
 26 46  1  0
M  CHG  2  13  -1  20  -1
M  END
>  <UniqueID>  (4) 
4

>  <SMILES>  (4) 
Cn1ncn(-c2ccc(S(=O)(=O)[N-]c3cc4c(cc3[O-])CCCC4)cc2)c1=O

>  <Energy>  (4) 
97.4566795801193

>  <Genealogy>  (4) 
Cn1ncn(-c2ccc(S(=O)(=O)[N-]c3cc4c(cc3[O-])CCCC4)cc2)c1=O (protonated)
Cn1ncn(-c2ccc(S(=O)(=O)[N-]c3cc4c(cc3[O-])CCCC4)cc2)c1=O (3D coordinates assigned)
Cn1ncn(-c2ccc(S(=O)(=O)[N-]c3cc4c(cc3[O-])CCCC4)cc2)c1=O (nonaromatic ring conformer: 97.4566795801193 kcal/mol)

>  <smiles>  (4) 
Cn1ncn(-c2ccc(S(=O)(=O)Nc3cc4c(cc3O)CCCC4)cc2)c1=O

>  <score_type>  (4) 
oracle

>  <origin>  (4) 
adgpu

>  <m_score__min__energy>  (4) 
-14.23

>  <m_primary>  (4) 
energy

$$$$
4:0
     RDKit          3D

 48 50  0  0  0  0  0  0  0  0999 V2000
   -0.2140   19.4040  -32.0390 C   0  0  0  0  0  0  0  0  0  0  0  0
   -0.9820   20.6370  -31.7970 N   0  0  0  0  0  0  0  0  0  0  0  0
   -1.5900   21.1600  -33.0370 C   0  0  0  0  0  0  0  0  0  0  0  0
   -2.7720   20.3020  -33.5350 C   0  0  0  0  0  0  0  0  0  0  0  0
   -3.5940   19.6790  -32.3870 C   0  0  0  0  0  0  0  0  0  0  0  0
   -5.3300   19.5100  -32.8220 S   0  0  0  0  0  0  0  0  0  0  0  0
   -5.4410   19.3110  -34.3070 O   0  0  0  0  0  0  0  0  0  0  0  0
   -5.8750   18.2720  -32.1660 O   0  0  0  0  0  0  0  0  0  0  0  0
   -6.2870   20.9180  -32.2960 C   0  0  0  0  0  0  0  0  0  0  0  0
   -7.6160   20.7900  -31.8200 C   0  0  0  0  0  0  0  0  0  0  0  0
   -8.4530   19.2460  -31.6910 Cl  0  0  0  0  0  0  0  0  0  0  0  0
   -8.3320   21.9280  -31.4320 C   0  0  0  0  0  0  0  0  0  0  0  0
   -7.7450   23.1890  -31.4930 C   0  0  0  0  0  0  0  0  0  0  0  0
   -6.4230   23.3320  -31.9310 C   0  0  0  0  0  0  0  0  0  0  0  0
   -5.7930   24.6210  -31.9700 N   0  0  0  0  0  0  0  0  0  0  0  0
   -5.2550   25.3160  -30.8370 C   0  0  0  0  0  0  0  0  0  0  0  0
   -6.0350   25.9600  -30.0890 O   0  0  0  0  0  0  0  0  0  0  0  0
   -3.8530   25.3040  -30.5350 N   0  0  0  0  0  0  0  0  0  0  0  0
   -3.2210   24.4890  -29.5360 C   0  0  0  0  0  0  0  0  0  0  0  0
   -3.8800   23.3330  -29.0980 C   0  0  0  0  0  0  0  0  0  0  0  0
   -3.2760   22.4840  -28.1670 C   0  0  0  0  0  0  0  0  0  0  0  0
   -2.0120   22.7940  -27.6500 C   0  0  0  0  0  0  0  0  0  0  0  0
   -1.3850   21.9140  -26.7000 C   0  0  0  0  0  0  0  0  0  0  0  0
   -0.8810   21.2060  -25.9360 N   0  0  0  0  0  0  0  0  0  0  0  0
   -1.3650   23.9680  -28.0530 C   0  0  0  0  0  0  0  0  0  0  0  0
   -1.9690   24.8230  -28.9810 C   0  0  0  0  0  0  0  0  0  0  0  0
   -1.3270   26.0060  -29.3300 O   0  0  0  0  0  0  0  0  0  0  0  0
   -5.7060   22.2050  -32.3520 C   0  0  0  0  0  0  0  0  0  0  0  0
   -4.4030   22.3720  -32.8110 O   0  0  0  0  0  0  0  0  0  0  0  0
   -3.4190   20.4800  -31.0930 C   0  0  0  0  0  0  0  0  0  0  0  0
   -1.9380   20.5040  -30.6670 C   0  0  0  0  0  0  0  0  0  0  0  0
    0.0673   18.9523  -31.0763 H   0  0  0  0  0  0  0  0  0  0  0  0
   -0.8302   18.6945  -32.6108 H   0  0  0  0  0  0  0  0  0  0  0  0
    0.6945   19.6442  -32.6108 H   0  0  0  0  0  0  0  0  0  0  0  0
   -1.9531   22.1807  -32.8464 H   0  0  0  0  0  0  0  0  0  0  0  0
   -0.8157   21.1399  -33.8180 H   0  0  0  0  0  0  0  0  0  0  0  0
   -3.4375   20.9385  -34.1367 H   0  0  0  0  0  0  0  0  0  0  0  0
   -2.3509   19.4738  -34.1238 H   0  0  0  0  0  0  0  0  0  0  0  0
   -3.2054   18.6644  -32.2150 H   0  0  0  0  0  0  0  0  0  0  0  0
   -9.3676   21.8254  -31.0757 H   0  0  0  0  0  0  0  0  0  0  0  0
   -8.3225   24.0768  -31.1958 H   0  0  0  0  0  0  0  0  0  0  0  0
   -4.8793   23.0921  -29.4895 H   0  0  0  0  0  0  0  0  0  0  0  0
   -3.7942   21.5706  -27.8396 H   0  0  0  0  0  0  0  0  0  0  0  0
   -0.3776   24.2193  -27.6383 H   0  0  0  0  0  0  0  0  0  0  0  0
   -3.7651   21.5113  -31.2564 H   0  0  0  0  0  0  0  0  0  0  0  0
   -4.0096   20.0025  -30.2973 H   0  0  0  0  0  0  0  0  0  0  0  0
   -1.7884   21.3551  -29.9864 H   0  0  0  0  0  0  0  0  0  0  0  0
   -1.7304   19.5352  -30.1892 H   0  0  0  0  0  0  0  0  0  0  0  0
  1  2  1  0
  2  3  1  0
  3  4  1  0
  4  5  1  0
  5  6  1  0
  6  7  2  0
  6  8  2  0
  6  9  1  0
  9 10  2  0
 10 11  1  0
 10 12  1  0
 12 13  2  0
 13 14  1  0
 14 15  1  0
 15 16  1  0
 16 17  2  0
 16 18  1  0
 18 19  1  0
 19 20  2  0
 20 21  1  0
 21 22  2  0
 22 23  1  0
 23 24  3  0
 22 25  1  0
 25 26  2  0
 26 27  1  0
 14 28  2  0
 28 29  1  0
  5 30  1  0
 30 31  1  0
 31  2  1  0
 28  9  1  0
 26 19  1  0
  1 32  1  0
  1 33  1  0
  1 34  1  0
  3 35  1  0
  3 36  1  0
  4 37  1  0
  4 38  1  0
  5 39  1  0
 12 40  1  0
 13 41  1  0
 20 42  1  0
 21 43  1  0
 25 44  1  0
 30 45  1  0
 30 46  1  0
 31 47  1  0
 31 48  1  0
M  CHG  4  15  -1  18  -1  27  -1  29  -1
M  END
>  <UniqueID>  (5) 
5

>  <SMILES>  (5) 
CN1CCC(S(=O)(=O)c2c(Cl)ccc([N-]C(=O)[N-]c3ccc(C#N)cc3[O-])c2[O-])CC1

>  <Energy>  (5) 
67.24316432513302

>  <Genealogy>  (5) 
CN1CCC(S(=O)(=O)c2c(Cl)ccc([N-]C(=O)[N-]c3ccc(C#N)cc3[O-])c2[O-])CC1 (protonated)
CN1CCC(S(=O)(=O)c2c(Cl)ccc([N-]C(=O)[N-]c3ccc(C#N)cc3[O-])c2[O-])CC1 (3D coordinates assigned)
CN1CCC(S(=O)(=O)c2c(Cl)ccc([N-]C(=O)[N-]c3ccc(C#N)cc3[O-])c2[O-])CC1 (nonaromatic ring conformer: 67.24316432513302 kcal/mol)

>  <smiles>  (5) 
CN1CCC(S(=O)(=O)c2c(Cl)ccc(NC(=O)Nc3ccc(C#N)cc3O)c2O)CC1

>  <score_type>  (5) 
oracle

>  <origin>  (5) 
adgpu

>  <m_score__min__energy>  (5) 
-15.94

>  <m_primary>  (5) 
energy

$$$$
5:0
     RDKit          3D

 54 56  0  0  0  0  0  0  0  0999 V2000
   -5.1229   16.4789  -32.5047 H   0  0  0  0  0  0  0  0  0  0  0  0
   -5.5900   17.4710  -32.4180 C   0  0  0  0  0  0  0  0  0  0  0  0
   -6.8380   17.6030  -31.8090 C   0  0  0  0  0  0  0  0  0  0  0  0
   -7.3490   16.7167  -31.4050 H   0  0  0  0  0  0  0  0  0  0  0  0
   -7.4390   18.8600  -31.7120 C   0  0  0  0  0  0  0  0  0  0  0  0
   -8.4218   18.9579  -31.2278 H   0  0  0  0  0  0  0  0  0  0  0  0
   -6.7990   20.0030  -32.2280 C   0  0  0  0  0  0  0  0  0  0  0  0
   -7.4350   21.2930  -32.1440 N   0  0  0  0  0  0  0  0  0  0  0  0
   -8.4240   21.3890  -32.4600 H   0  0  0  0  0  0  0  0  0  0  0  0
   -6.7710   22.4880  -31.6960 C   0  0  0  0  0  0  0  0  0  0  0  0
   -5.9020   22.4260  -30.7200 N   0  0  0  0  0  0  0  0  0  0  0  0
   -5.6940   21.5050  -30.2750 H   0  0  0  0  0  0  0  0  0  0  0  0
   -5.0440   23.7900  -30.0680 S   0  0  0  0  0  0  0  0  0  0  0  0
   -5.9920   24.6410  -29.2700 O   0  0  0  0  0  0  0  0  0  0  0  0
   -4.5000   24.6170  -31.1990 O   0  0  0  0  0  0  0  0  0  0  0  0
   -3.6940   23.2480  -29.0760 C   0  0  0  0  0  0  0  0  0  0  0  0
   -3.8440   22.1750  -28.1910 C   0  0  0  0  0  0  0  0  0  0  0  0
   -4.8185   21.6733  -28.0977 H   0  0  0  0  0  0  0  0  0  0  0  0
   -2.7610   21.7390  -27.4260 C   0  0  0  0  0  0  0  0  0  0  0  0
   -2.8882   20.8937  -26.7336 H   0  0  0  0  0  0  0  0  0  0  0  0
   -1.5090   22.3700  -27.5320 C   0  0  0  0  0  0  0  0  0  0  0  0
   -0.3590   21.8750  -26.6950 C   0  0  0  0  0  0  0  0  0  0  0  0
   -0.6084   21.9824  -25.6290 H   0  0  0  0  0  0  0  0  0  0  0  0
   -0.1694   20.8156  -26.9223 H   0  0  0  0  0  0  0  0  0  0  0  0
    0.5408   22.4655  -26.9223 H   0  0  0  0  0  0  0  0  0  0  0  0
   -1.3540   23.4580  -28.4240 C   0  0  0  0  0  0  0  0  0  0  0  0
   -0.0300   24.1600  -28.5790 C   0  0  0  0  0  0  0  0  0  0  0  0
    0.3865   24.3808  -27.5851 H   0  0  0  0  0  0  0  0  0  0  0  0
    0.6658   23.5124  -29.1325 H   0  0  0  0  0  0  0  0  0  0  0  0
   -0.1756   25.0994  -29.1325 H   0  0  0  0  0  0  0  0  0  0  0  0
   -2.4530   23.8840  -29.1910 C   0  0  0  0  0  0  0  0  0  0  0  0
   -2.3358   24.7262  -29.8888 H   0  0  0  0  0  0  0  0  0  0  0  0
   -7.2090   23.7990  -32.2920 C   0  0  0  0  0  0  0  0  0  0  0  0
   -7.4458   24.5078  -31.4848 H   0  0  0  0  0  0  0  0  0  0  0  0
   -6.3988   24.2082  -32.9133 H   0  0  0  0  0  0  0  0  0  0  0  0
   -8.1025   23.6390  -32.9133 H   0  0  0  0  0  0  0  0  0  0  0  0
   -5.5170   19.8670  -32.8070 C   0  0  0  0  0  0  0  0  0  0  0  0
   -4.6210   21.2850  -33.4600 S   0  0  0  0  0  0  0  0  0  0  0  0
   -3.1350   20.9270  -32.5150 C   0  0  0  0  0  0  0  0  0  0  0  0
   -1.8940   20.8870  -33.1590 C   0  0  0  0  0  0  0  0  0  0  0  0
   -1.8320   21.0775  -34.2406 H   0  0  0  0  0  0  0  0  0  0  0  0
   -0.7320   20.6060  -32.4340 C   0  0  0  0  0  0  0  0  0  0  0  0
    0.2417   20.5831  -32.9453 H   0  0  0  0  0  0  0  0  0  0  0  0
   -0.8050   20.3530  -31.0550 C   0  0  0  0  0  0  0  0  0  0  0  0
    0.4450   20.0870  -30.2700 C   0  0  0  0  0  0  0  0  0  0  0  0
    0.2197   20.1350  -29.1944 H   0  0  0  0  0  0  0  0  0  0  0  0
    0.8291   19.0870  -30.5199 H   0  0  0  0  0  0  0  0  0  0  0  0
    1.2030   20.8440  -30.5199 H   0  0  0  0  0  0  0  0  0  0  0  0
   -2.0470   20.4240  -30.4060 C   0  0  0  0  0  0  0  0  0  0  0  0
   -2.1087   20.2549  -29.3208 H   0  0  0  0  0  0  0  0  0  0  0  0
   -3.2070   20.7090  -31.1340 C   0  0  0  0  0  0  0  0  0  0  0  0
   -4.1781   20.7619  -30.6201 H   0  0  0  0  0  0  0  0  0  0  0  0
   -4.9340   18.5960  -32.9170 C   0  0  0  0  0  0  0  0  0  0  0  0
   -3.9521   18.4858  -33.4004 H   0  0  0  0  0  0  0  0  0  0  0  0
  1  2  1  0
  2  3  2  0
  3  4  1  0
  3  5  1  0
  5  6  1  0
  5  7  2  0
  7  8  1  0
  8  9  1  0
  8 10  1  0
 10 11  2  0
 11 12  1  0
 11 13  1  0
 13 14  2  0
 13 15  2  0
 13 16  1  0
 16 17  2  0
 17 18  1  0
 17 19  1  0
 19 20  1  0
 19 21  2  0
 21 22  1  0
 22 23  1  0
 22 24  1  0
 22 25  1  0
 21 26  1  0
 26 27  1  0
 27 28  1  0
 27 29  1  0
 27 30  1  0
 26 31  2  0
 31 32  1  0
 10 33  1  0
 33 34  1  0
 33 35  1  0
 33 36  1  0
  7 37  1  0
 37 38  1  0
 38 39  1  0
 39 40  2  0
 40 41  1  0
 40 42  1  0
 42 43  1  0
 42 44  2  0
 44 45  1  0
 45 46  1  0
 45 47  1  0
 45 48  1  0
 44 49  1  0
 49 50  1  0
 49 51  2  0
 51 52  1  0
 37 53  2  0
 53 54  1  0
 53  2  1  0
 31 16  1  0
 51 39  1  0
M  CHG  1  11   1
M  END
>  <UniqueID>  (6) 
6

>  <SMILES>  (6) 
C/C(Nc1ccccc1Sc1ccc(C)cc1)=[NH+]\S(=O)(=O)c1ccc(C)c(C)c1

>  <Energy>  (6) 
58.85834616988828

>  <Genealogy>  (6) 
CC(Nc1ccccc1Sc1ccc(C)cc1)=[NH+]S(=O)(=O)c1ccc(C)c(C)c1 (protonated)
C/C(Nc1ccccc1Sc1ccc(C)cc1)=[NH+]\S(=O)(=O)c1ccc(C)c(C)c1 (cis-trans isomerization)
C/C(Nc1ccccc1Sc1ccc(C)cc1)=[NH+]\S(=O)(=O)c1ccc(C)c(C)c1 (3D coordinates assigned)
C/C(Nc1ccccc1Sc1ccc(C)cc1)=[NH+]\S(=O)(=O)c1ccc(C)c(C)c1 (optimized conformer: 58.85834616988828 kcal/mol)

>  <smiles>  (6) 
CC(=NS(=O)(=O)c1ccc(C)c(C)c1)Nc1ccccc1Sc1ccc(C)cc1

>  <score_type>  (6) 
oracle

>  <origin>  (6) 
adgpu

>  <m_score__min__energy>  (6) 
-9.6799999999999997

>  <m_primary>  (6) 
energy

$$$$
6:0
     RDKit          3D

 41 43  0  0  0  0  0  0  0  0999 V2000
   -9.4820   19.2850  -32.7160 C   0  0  0  0  0  0  0  0  0  0  0  0
   -8.4230   20.2790  -32.3120 C   0  0  0  0  0  0  0  0  0  0  0  0
   -8.8260   21.3920  -31.5590 C   0  0  0  0  0  0  0  0  0  0  0  0
   -7.9320   22.3440  -31.1990 N   0  0  0  0  0  0  0  0  0  0  0  0
   -6.6280   22.2600  -31.5620 C   0  0  0  0  0  0  0  0  0  0  0  0
   -5.6900   23.2820  -31.1640 N   0  0  0  0  0  0  0  0  0  0  0  0
   -4.2550   22.9730  -31.0980 C   0  0  0  0  0  0  0  0  0  0  0  0
   -3.5370   23.9510  -30.1630 C   0  0  0  0  0  0  0  0  0  0  0  0
   -3.8500   25.2880  -30.4970 O   0  0  0  0  0  0  0  0  0  0  0  0
   -5.2210   25.5250  -30.2490 C   0  0  0  0  0  0  0  0  0  0  0  0
   -6.0960   24.6950  -31.1920 C   0  0  0  0  0  0  0  0  0  0  0  0
   -6.2150   21.2020  -32.3090 N   0  0  0  0  0  0  0  0  0  0  0  0
   -7.0590   20.2120  -32.7110 C   0  0  0  0  0  0  0  0  0  0  0  0
   -6.4430   19.0900  -33.5330 C   0  0  0  0  0  0  0  0  0  0  0  0
   -6.7230   17.6820  -32.9740 C   0  0  0  0  0  0  0  0  0  0  0  0
   -6.1870   16.5910  -33.9280 C   0  0  0  0  0  0  0  0  0  0  0  0
   -4.9940   16.9990  -34.6990 N   0  0  0  0  0  0  0  0  0  0  0  0
   -4.1790   18.0010  -33.9980 C   0  0  0  0  0  0  0  0  0  0  0  0
   -4.9450   19.3250  -33.8380 C   0  0  0  0  0  0  0  0  0  0  0  0
   -9.9422   18.8530  -31.8151 H   0  0  0  0  0  0  0  0  0  0  0  0
  -10.2529   19.7932  -33.3138 H   0  0  0  0  0  0  0  0  0  0  0  0
   -9.0236   18.4835  -33.3138 H   0  0  0  0  0  0  0  0  0  0  0  0
   -9.8791   21.4927  -31.2577 H   0  0  0  0  0  0  0  0  0  0  0  0
   -4.1225   21.9483  -30.7206 H   0  0  0  0  0  0  0  0  0  0  0  0
   -3.8250   23.0648  -32.1063 H   0  0  0  0  0  0  0  0  0  0  0  0
   -3.8508   23.7554  -29.1270 H   0  0  0  0  0  0  0  0  0  0  0  0
   -2.4517   23.8066  -30.2687 H   0  0  0  0  0  0  0  0  0  0  0  0
   -5.4518   25.2515  -29.2088 H   0  0  0  0  0  0  0  0  0  0  0  0
   -5.4309   26.5911  -30.4205 H   0  0  0  0  0  0  0  0  0  0  0  0
   -7.1464   24.7758  -30.8756 H   0  0  0  0  0  0  0  0  0  0  0  0
   -5.9769   25.0783  -32.2162 H   0  0  0  0  0  0  0  0  0  0  0  0
   -6.9660   19.1235  -34.5001 H   0  0  0  0  0  0  0  0  0  0  0  0
   -6.2301   17.5786  -31.9961 H   0  0  0  0  0  0  0  0  0  0  0  0
   -7.8109   17.5551  -32.8724 H   0  0  0  0  0  0  0  0  0  0  0  0
   -5.9257   15.7060  -33.3292 H   0  0  0  0  0  0  0  0  0  0  0  0
   -6.9838   16.3882  -34.6588 H   0  0  0  0  0  0  0  0  0  0  0  0
   -5.3010   17.4030  -35.6150 H   0  0  0  0  0  0  0  0  0  0  0  0
   -3.9150   17.6162  -33.0019 H   0  0  0  0  0  0  0  0  0  0  0  0
   -3.2729   18.1915  -34.5918 H   0  0  0  0  0  0  0  0  0  0  0  0
   -4.4988   19.8965  -33.0108 H   0  0  0  0  0  0  0  0  0  0  0  0
   -4.8723   19.8782  -34.7860 H   0  0  0  0  0  0  0  0  0  0  0  0
  1  2  1  0
  2  3  2  0
  3  4  1  0
  4  5  2  0
  5  6  1  0
  6  7  1  0
  7  8  1  0
  8  9  1  0
  9 10  1  0
 10 11  1  0
  5 12  1  0
 12 13  2  0
 13 14  1  0
 14 15  1  0
 15 16  1  0
 16 17  1  0
 17 18  1  0
 18 19  1  0
 13  2  1  0
 19 14  1  0
 11  6  1  0
  1 20  1  0
  1 21  1  0
  1 22  1  0
  3 23  1  0
  7 24  1  0
  7 25  1  0
  8 26  1  0
  8 27  1  0
 10 28  1  0
 10 29  1  0
 11 30  1  0
 11 31  1  0
 14 32  1  0
 15 33  1  0
 15 34  1  0
 16 35  1  0
 16 36  1  0
 17 37  1  0
 18 38  1  0
 18 39  1  0
 19 40  1  0
 19 41  1  0
M  END
>  <UniqueID>  (7) 
7

>  <SMILES>  (7) 
Cc1cnc(N2CCOCC2)nc1C1CCNCC1

>  <Energy>  (7) 
53.479544181794765

>  <Genealogy>  (7) 
Cc1cnc(N2CCOCC2)nc1C1CCNCC1 (3D coordinates assigned)
Cc1cnc(N2CCOCC2)nc1C1CCNCC1 (nonaromatic ring conformer: 53.479544181794765 kcal/mol)

>  <smiles>  (7) 
Cc1cnc(N2CCOCC2)nc1C1CCNCC1

>  <score_type>  (7) 
oracle

>  <origin>  (7) 
adgpu

>  <m_score__min__energy>  (7) 
-8.4499999999999993

>  <m_primary>  (7) 
energy

$$$$
7:0
     RDKit          3D

 60 63  0  0  0  0  0  0  0  0999 V2000
    0.0640   27.6730  -26.2610 C   0  0  0  0  0  0  0  0  0  0  0  0
   -1.1460   26.8360  -26.2420 N   0  0  0  0  0  0  0  0  0  0  0  0
   -1.2180   26.0170  -25.0050 C   0  0  0  0  0  0  0  0  0  0  0  0
   -0.8390   24.5510  -25.2540 C   0  0  0  0  0  0  0  0  0  0  0  0
   -1.7450   23.9250  -26.2390 N   0  0  0  0  0  0  0  0  0  0  0  0
   -0.9990   22.4930  -26.9070 S   0  0  0  0  0  0  0  0  0  0  0  0
   -1.2120   21.3250  -25.9830 O   0  0  0  0  0  0  0  0  0  0  0  0
    0.4800   22.7190  -27.0610 O   0  0  0  0  0  0  0  0  0  0  0  0
   -1.6850   22.1400  -28.4910 C   0  0  0  0  0  0  0  0  0  0  0  0
   -2.9380   21.5220  -28.5820 C   0  0  0  0  0  0  0  0  0  0  0  0
   -3.4860   21.2240  -29.8330 C   0  0  0  0  0  0  0  0  0  0  0  0
   -2.7830   21.5380  -31.0030 C   0  0  0  0  0  0  0  0  0  0  0  0
   -3.3590   21.2570  -32.2860 N   0  0  0  0  0  0  0  0  0  0  0  0
   -4.1630   22.2710  -32.9780 C   0  0  0  0  0  0  0  0  0  0  0  0
   -5.4910   22.4440  -32.2850 C   0  0  0  0  0  0  0  0  0  0  0  0
   -6.5430   21.5510  -32.5510 C   0  0  0  0  0  0  0  0  0  0  0  0
   -7.7570   21.6670  -31.8710 C   0  0  0  0  0  0  0  0  0  0  0  0
   -7.9340   22.6720  -30.9180 C   0  0  0  0  0  0  0  0  0  0  0  0
   -6.8960   23.5670  -30.6460 C   0  0  0  0  0  0  0  0  0  0  0  0
   -7.0720   24.5420  -29.7200 F   0  0  0  0  0  0  0  0  0  0  0  0
   -5.6770   23.4570  -31.3240 C   0  0  0  0  0  0  0  0  0  0  0  0
   -4.6820   24.3360  -31.0440 F   0  0  0  0  0  0  0  0  0  0  0  0
   -3.0410   19.7320  -33.0560 S   0  0  0  0  0  0  0  0  0  0  0  0
   -2.4390   19.9780  -34.4120 O   0  0  0  0  0  0  0  0  0  0  0  0
   -2.0610   18.9330  -32.2420 O   0  0  0  0  0  0  0  0  0  0  0  0
   -4.5370   18.8170  -33.2070 C   0  0  0  0  0  0  0  0  0  0  0  0
   -5.3520   18.5950  -32.0870 C   0  0  0  0  0  0  0  0  0  0  0  0
   -6.5190   17.8330  -32.2080 C   0  0  0  0  0  0  0  0  0  0  0  0
   -6.8730   17.2880  -33.4450 C   0  0  0  0  0  0  0  0  0  0  0  0
   -6.0640   17.5060  -34.5630 C   0  0  0  0  0  0  0  0  0  0  0  0
   -4.8990   18.2690  -34.4460 C   0  0  0  0  0  0  0  0  0  0  0  0
   -1.5240   22.1470  -30.9120 C   0  0  0  0  0  0  0  0  0  0  0  0
   -0.9750   22.4440  -29.6610 C   0  0  0  0  0  0  0  0  0  0  0  0
   -2.1880   24.8450  -27.3150 C   0  0  0  0  0  0  0  0  0  0  0  0
   -1.2410   26.0410  -27.4890 C   0  0  0  0  0  0  0  0  0  0  0  0
    0.3765   27.8892  -25.2287 H   0  0  0  0  0  0  0  0  0  0  0  0
    0.8710   27.1391  -26.7842 H   0  0  0  0  0  0  0  0  0  0  0  0
   -0.1509   28.6164  -26.7842 H   0  0  0  0  0  0  0  0  0  0  0  0
   -0.5272   26.4394  -24.2605 H   0  0  0  0  0  0  0  0  0  0  0  0
   -2.2578   26.0395  -24.6467 H   0  0  0  0  0  0  0  0  0  0  0  0
    0.1917   24.5067  -25.6356 H   0  0  0  0  0  0  0  0  0  0  0  0
   -0.9247   24.0028  -24.3042 H   0  0  0  0  0  0  0  0  0  0  0  0
   -3.4929   21.2702  -27.6662 H   0  0  0  0  0  0  0  0  0  0  0  0
   -4.4723   20.7414  -29.8987 H   0  0  0  0  0  0  0  0  0  0  0  0
   -3.6227   23.2291  -32.9725 H   0  0  0  0  0  0  0  0  0  0  0  0
   -4.3383   21.9448  -34.0138 H   0  0  0  0  0  0  0  0  0  0  0  0
   -6.4093   20.7559  -33.2993 H   0  0  0  0  0  0  0  0  0  0  0  0
   -8.5759   20.9649  -32.0866 H   0  0  0  0  0  0  0  0  0  0  0  0
   -8.8903   22.7592  -30.3815 H   0  0  0  0  0  0  0  0  0  0  0  0
   -5.0730   19.0208  -31.1119 H   0  0  0  0  0  0  0  0  0  0  0  0
   -7.1581   17.6628  -31.3290 H   0  0  0  0  0  0  0  0  0  0  0  0
   -7.7894   16.6868  -33.5386 H   0  0  0  0  0  0  0  0  0  0  0  0
   -6.3443   17.0767  -35.5362 H   0  0  0  0  0  0  0  0  0  0  0  0
   -4.2644   18.4401  -35.3280 H   0  0  0  0  0  0  0  0  0  0  0  0
   -0.9660   22.3921  -31.8278 H   0  0  0  0  0  0  0  0  0  0  0  0
    0.0159   22.9171  -29.5946 H   0  0  0  0  0  0  0  0  0  0  0  0
   -2.2299   24.2869  -28.2620 H   0  0  0  0  0  0  0  0  0  0  0  0
   -3.1765   25.2378  -27.0346 H   0  0  0  0  0  0  0  0  0  0  0  0
   -0.2401   25.6703  -27.7551 H   0  0  0  0  0  0  0  0  0  0  0  0
   -1.6396   26.6877  -28.2845 H   0  0  0  0  0  0  0  0  0  0  0  0
  1  2  1  0
  2  3  1  0
  3  4  1  0
  4  5  1  0
  5  6  1  0
  6  7  2  0
  6  8  2  0
  6  9  1  0
  9 10  2  0
 10 11  1  0
 11 12  2  0
 12 13  1  0
 13 14  1  0
 14 15  1  0
 15 16  2  0
 16 17  1  0
 17 18  2  0
 18 19  1  0
 19 20  1  0
 19 21  2  0
 21 22  1  0
 13 23  1  0
 23 24  2  0
 23 25  2  0
 23 26  1  0
 26 27  2  0
 27 28  1  0
 28 29  2  0
 29 30  1  0
 30 31  2  0
 12 32  1  0
 32 33  2  0
  5 34  1  0
 34 35  1  0
 35  2  1  0
 33  9  1  0
 21 15  1  0
 31 26  1  0
  1 36  1  0
  1 37  1  0
  1 38  1  0
  3 39  1  0
  3 40  1  0
  4 41  1  0
  4 42  1  0
 10 43  1  0
 11 44  1  0
 14 45  1  0
 14 46  1  0
 16 47  1  0
 17 48  1  0
 18 49  1  0
 27 50  1  0
 28 51  1  0
 29 52  1  0
 30 53  1  0
 31 54  1  0
 32 55  1  0
 33 56  1  0
 34 57  1  0
 34 58  1  0
 35 59  1  0
 35 60  1  0
M  END
>  <UniqueID>  (8) 
8

>  <SMILES>  (8) 
CN1CCN(S(=O)(=O)c2ccc(N(Cc3cccc(F)c3F)S(=O)(=O)c3ccccc3)cc2)CC1

>  <Energy>  (8) 
76.2775911780624

>  <Genealogy>  (8) 
CN1CCN(S(=O)(=O)c2ccc(N(Cc3cccc(F)c3F)S(=O)(=O)c3ccccc3)cc2)CC1 (3D coordinates assigned)
CN1CCN(S(=O)(=O)c2ccc(N(Cc3cccc(F)c3F)S(=O)(=O)c3ccccc3)cc2)CC1 (nonaromatic ring conformer: 76.2775911780624 kcal/mol)

>  <smiles>  (8) 
CN1CCN(S(=O)(=O)c2ccc(N(Cc3cccc(F)c3F)S(=O)(=O)c3ccccc3)cc2)CC1

>  <score_type>  (8) 
oracle

>  <origin>  (8) 
adgpu

>  <m_score__min__energy>  (8) 
-10.33

>  <m_primary>  (8) 
energy

$$$$
8:0
     RDKit          3D

 54 56  0  0  0  0  0  0  0  0999 V2000
   -9.4120   20.3360  -32.7200 C   0  0  0  0  0  0  0  0  0  0  0  0
   -8.1560   20.9530  -32.1620 C   0  0  0  0  0  0  0  0  0  0  0  0
   -8.2510   22.1670  -31.4620 C   0  0  0  0  0  0  0  0  0  0  0  0
   -7.1120   22.7730  -30.9320 C   0  0  0  0  0  0  0  0  0  0  0  0
   -5.8560   22.1750  -31.0800 C   0  0  0  0  0  0  0  0  0  0  0  0
   -4.6990   22.8280  -30.5330 N   0  0  0  0  0  0  0  0  0  0  0  0
   -4.4390   24.2390  -30.6540 C   0  0  0  0  0  0  0  0  0  0  0  0
   -5.2730   24.9950  -31.2180 O   0  0  0  0  0  0  0  0  0  0  0  0
   -3.2470   24.8150  -30.1090 N   0  0  0  0  0  0  0  0  0  0  0  0
   -2.5730   24.3850  -28.9170 C   0  0  0  0  0  0  0  0  0  0  0  0
   -2.8270   23.1270  -28.3570 C   0  0  0  0  0  0  0  0  0  0  0  0
   -2.1240   22.7040  -27.2320 C   0  0  0  0  0  0  0  0  0  0  0  0
   -1.1440   23.5200  -26.6460 C   0  0  0  0  0  0  0  0  0  0  0  0
   -0.4060   22.9960  -25.4430 C   0  0  0  0  0  0  0  0  0  0  0  0
   -0.8890   24.8050  -27.1940 C   0  0  0  0  0  0  0  0  0  0  0  0
    0.3250   25.8990  -26.4850 S   0  0  0  0  0  0  0  0  0  0  0  0
    1.0090   26.6980  -27.5600 O   0  0  0  0  0  0  0  0  0  0  0  0
    1.3830   25.1020  -25.7740 O   0  0  0  0  0  0  0  0  0  0  0  0
   -0.4880   26.9620  -25.2930 C   0  0  0  0  0  0  0  0  0  0  0  0
   -0.6830   26.3840  -23.8990 C   0  0  0  0  0  0  0  0  0  0  0  0
   -1.8570   26.4610  -24.8610 C   0  0  0  0  0  0  0  0  0  0  0  0
   -1.5870   25.2060  -28.3550 C   0  0  0  0  0  0  0  0  0  0  0  0
   -1.3040   26.4240  -28.9650 O   0  0  0  0  0  0  0  0  0  0  0  0
   -5.7460   20.9840  -31.8140 C   0  0  0  0  0  0  0  0  0  0  0  0
   -6.8830   20.3650  -32.3580 C   0  0  0  0  0  0  0  0  0  0  0  0
   -6.6850   18.8490  -33.2580 S   0  0  0  0  0  0  0  0  0  0  0  0
   -6.4870   19.1400  -34.7210 O   0  0  0  0  0  0  0  0  0  0  0  0
   -7.9310   18.0220  -33.1060 O   0  0  0  0  0  0  0  0  0  0  0  0
   -5.3080   17.9700  -32.6420 N   0  0  0  0  0  0  0  0  0  0  0  0
   -4.3880   17.6650  -33.7440 C   0  0  0  0  0  0  0  0  0  0  0  0
   -5.7660   16.7260  -32.0100 C   0  0  0  0  0  0  0  0  0  0  0  0
  -10.0625   20.0165  -31.8925 H   0  0  0  0  0  0  0  0  0  0  0  0
   -9.9413   21.0766  -33.3375 H   0  0  0  0  0  0  0  0  0  0  0  0
   -9.1493   19.4644  -33.3375 H   0  0  0  0  0  0  0  0  0  0  0  0
   -9.2332   22.6445  -31.3305 H   0  0  0  0  0  0  0  0  0  0  0  0
   -7.2020   23.7281  -30.3937 H   0  0  0  0  0  0  0  0  0  0  0  0
   -3.9740   22.2230  -30.0860 H   0  0  0  0  0  0  0  0  0  0  0  0
   -3.5853   22.4700  -28.8079 H   0  0  0  0  0  0  0  0  0  0  0  0
   -2.3396   21.7171  -26.7967 H   0  0  0  0  0  0  0  0  0  0  0  0
   -0.9020   23.3482  -24.5265 H   0  0  0  0  0  0  0  0  0  0  0  0
   -0.4084   21.8962  -25.4618 H   0  0  0  0  0  0  0  0  0  0  0  0
    0.6316   23.3608  -25.4618 H   0  0  0  0  0  0  0  0  0  0  0  0
   -0.0722   27.9040  -25.6800 H   0  0  0  0  0  0  0  0  0  0  0  0
   -0.2455   25.4080  -23.6421 H   0  0  0  0  0  0  0  0  0  0  0  0
   -0.4912   26.7393  -22.8758 H   0  0  0  0  0  0  0  0  0  0  0  0
   -2.2693   25.5406  -25.3000 H   0  0  0  0  0  0  0  0  0  0  0  0
   -2.8670   26.8951  -24.8219 H   0  0  0  0  0  0  0  0  0  0  0  0
   -4.7559   20.5292  -31.9652 H   0  0  0  0  0  0  0  0  0  0  0  0
   -3.4190   17.3437  -33.3344 H   0  0  0  0  0  0  0  0  0  0  0  0
   -4.8104   16.8588  -34.3618 H   0  0  0  0  0  0  0  0  0  0  0  0
   -4.2451   18.5638  -34.3618 H   0  0  0  0  0  0  0  0  0  0  0  0
   -5.7262   16.8342  -30.9161 H   0  0  0  0  0  0  0  0  0  0  0  0
   -6.8003   16.5163  -32.3203 H   0  0  0  0  0  0  0  0  0  0  0  0
   -5.1146   15.8957  -32.3203 H   0  0  0  0  0  0  0  0  0  0  0  0
  1  2  1  0
  2  3  2  0
  3  4  1  0
  4  5  2  0
  5  6  1  0
  6  7  1  0
  7  8  2  0
  7  9  1  0
  9 10  1  0
 10 11  2  0
 11 12  1  0
 12 13  2  0
 13 14  1  0
 13 15  1  0
 15 16  1  0
 16 17  2  0
 16 18  2  0
 16 19  1  0
 19 20  1  0
 20 21  1  0
 15 22  2  0
 22 23  1  0
  5 24  1  0
 24 25  2  0
 25 26  1  0
 26 27  2  0
 26 28  2  0
 26 29  1  0
 29 30  1  0
 29 31  1  0
 25  2  1  0
 22 10  1  0
 21 19  1  0
  1 32  1  0
  1 33  1  0
  1 34  1  0
  3 35  1  0
  4 36  1  0
  6 37  1  0
 11 38  1  0
 12 39  1  0
 14 40  1  0
 14 41  1  0
 14 42  1  0
 19 43  1  0
 20 44  1  0
 20 45  1  0
 21 46  1  0
 21 47  1  0
 24 48  1  0
 30 49  1  0
 30 50  1  0
 30 51  1  0
 31 52  1  0
 31 53  1  0
 31 54  1  0
M  CHG  2   9  -1  23  -1
M  END
>  <UniqueID>  (9) 
9

>  <SMILES>  (9) 
Cc1ccc(NC(=O)[N-]c2ccc(C)c(S(=O)(=O)C3CC3)c2[O-])cc1S(=O)(=O)N(C)C

>  <Energy>  (9) 
328.6294340591922

>  <Genealogy>  (9) 
Cc1ccc(NC(=O)[N-]c2ccc(C)c(S(=O)(=O)C3CC3)c2[O-])cc1S(=O)(=O)N(C)C (protonated)
Cc1ccc(NC(=O)[N-]c2ccc(C)c(S(=O)(=O)C3CC3)c2[O-])cc1S(=O)(=O)N(C)C (3D coordinates assigned)
Cc1ccc(NC(=O)[N-]c2ccc(C)c(S(=O)(=O)C3CC3)c2[O-])cc1S(=O)(=O)N(C)C (nonaromatic ring conformer: 328.6294340591922 kcal/mol)

>  <smiles>  (9) 
Cc1ccc(NC(=O)Nc2ccc(C)c(S(=O)(=O)C3CC3)c2O)cc1S(=O)(=O)N(C)C

>  <score_type>  (9) 
oracle

>  <origin>  (9) 
adgpu

>  <m_score__min__energy>  (9) 
-14.789999999999999

>  <m_primary>  (9) 
energy

$$$$
9:0
     RDKit          3D

 57 60  0  0  0  0  0  0  0  0999 V2000
   -9.1210   21.8370  -31.4210 C   0  0  0  0  0  0  0  0  0  0  0  0
   -8.3390   20.6460  -31.8900 C   0  0  0  0  0  0  0  0  0  0  0  0
   -8.7710   19.3470  -31.5820 C   0  0  0  0  0  0  0  0  0  0  0  0
   -8.0670   18.2380  -32.0650 C   0  0  0  0  0  0  0  0  0  0  0  0
   -6.9320   18.4140  -32.8710 C   0  0  0  0  0  0  0  0  0  0  0  0
   -6.0460   17.0300  -33.5160 S   0  0  0  0  0  0  0  0  0  0  0  0
   -5.3920   16.2690  -32.4010 O   0  0  0  0  0  0  0  0  0  0  0  0
   -7.0140   16.1150  -34.2080 O   0  0  0  0  0  0  0  0  0  0  0  0
   -4.8690   17.5270  -34.6900 N   0  0  0  0  0  0  0  0  0  0  0  0
   -3.5590   18.0540  -34.4270 C   0  0  0  0  0  0  0  0  0  0  0  0
   -2.3890   17.4530  -34.9290 C   0  0  0  0  0  0  0  0  0  0  0  0
   -1.1360   17.9620  -34.5720 C   0  0  0  0  0  0  0  0  0  0  0  0
   -1.0340   19.0480  -33.7070 C   0  0  0  0  0  0  0  0  0  0  0  0
   -2.1930   19.6500  -33.1890 C   0  0  0  0  0  0  0  0  0  0  0  0
   -2.0890   20.7300  -32.1830 C   0  0  0  0  0  0  0  0  0  0  0  0
   -1.5420   21.8190  -32.4960 O   0  0  0  0  0  0  0  0  0  0  0  0
   -2.5960   20.5590  -30.8520 N   0  0  0  0  0  0  0  0  0  0  0  0
   -2.6830   21.6300  -29.9000 C   0  0  0  0  0  0  0  0  0  0  0  0
   -2.7860   21.3340  -28.5350 C   0  0  0  0  0  0  0  0  0  0  0  0
   -3.0550   22.3520  -27.6160 C   0  0  0  0  0  0  0  0  0  0  0  0
   -3.1980   23.6740  -28.0530 C   0  0  0  0  0  0  0  0  0  0  0  0
   -3.7710   24.9220  -26.9010 S   0  0  0  0  0  0  0  0  0  0  0  0
   -2.1030   25.2300  -26.3330 C   0  0  0  0  0  0  0  0  0  0  0  0
   -1.8990   25.8610  -25.1470 N   0  0  0  0  0  0  0  0  0  0  0  0
   -0.6440   26.0680  -24.6720 C   0  0  0  0  0  0  0  0  0  0  0  0
   -0.4480   26.8030  -23.3860 C   0  0  0  0  0  0  0  0  0  0  0  0
    0.4560   25.6280  -25.4150 C   0  0  0  0  0  0  0  0  0  0  0  0
    0.2290   24.9560  -26.6210 C   0  0  0  0  0  0  0  0  0  0  0  0
    1.3720   24.4520  -27.4410 C   0  0  0  0  0  0  0  0  0  0  0  0
   -1.0440   24.7870  -27.0620 N   0  0  0  0  0  0  0  0  0  0  0  0
   -3.0090   23.9860  -29.4080 C   0  0  0  0  0  0  0  0  0  0  0  0
   -3.1120   25.2980  -29.8510 O   0  0  0  0  0  0  0  0  0  0  0  0
   -2.7510   22.9650  -30.3250 C   0  0  0  0  0  0  0  0  0  0  0  0
   -3.4510   19.1680  -33.5850 C   0  0  0  0  0  0  0  0  0  0  0  0
   -6.5120   19.7140  -33.1910 C   0  0  0  0  0  0  0  0  0  0  0  0
   -7.2100   20.8230  -32.7040 C   0  0  0  0  0  0  0  0  0  0  0  0
   -9.1342   21.8571  -30.3213 H   0  0  0  0  0  0  0  0  0  0  0  0
   -8.6504   22.7566  -31.7989 H   0  0  0  0  0  0  0  0  0  0  0  0
  -10.1519   21.7707  -31.7989 H   0  0  0  0  0  0  0  0  0  0  0  0
   -9.6656   19.1999  -30.9591 H   0  0  0  0  0  0  0  0  0  0  0  0
   -8.4054   17.2226  -31.8113 H   0  0  0  0  0  0  0  0  0  0  0  0
   -2.4601   16.5848  -35.6007 H   0  0  0  0  0  0  0  0  0  0  0  0
   -0.2238   17.5004  -34.9780 H   0  0  0  0  0  0  0  0  0  0  0  0
   -0.0431   19.4359  -33.4283 H   0  0  0  0  0  0  0  0  0  0  0  0
   -2.6550   20.2991  -28.1858 H   0  0  0  0  0  0  0  0  0  0  0  0
   -3.1546   22.1137  -26.5467 H   0  0  0  0  0  0  0  0  0  0  0  0
   -0.6299   26.1209  -22.5424 H   0  0  0  0  0  0  0  0  0  0  0  0
    0.5829   27.1832  -23.3344 H   0  0  0  0  0  0  0  0  0  0  0  0
   -1.1527   27.6460  -23.3344 H   0  0  0  0  0  0  0  0  0  0  0  0
    1.4809   25.8069  -25.0578 H   0  0  0  0  0  0  0  0  0  0  0  0
    2.1732   24.0987  -26.7752 H   0  0  0  0  0  0  0  0  0  0  0  0
    1.0297   23.6213  -28.0757 H   0  0  0  0  0  0  0  0  0  0  0  0
    1.7545   25.2649  -28.0757 H   0  0  0  0  0  0  0  0  0  0  0  0
   -2.6002   23.2091  -31.3869 H   0  0  0  0  0  0  0  0  0  0  0  0
   -4.3624   19.6712  -33.2298 H   0  0  0  0  0  0  0  0  0  0  0  0
   -5.6281   19.8614  -33.8290 H   0  0  0  0  0  0  0  0  0  0  0  0
   -6.8728   21.8383  -32.9599 H   0  0  0  0  0  0  0  0  0  0  0  0
  1  2  1  0
  2  3  2  0
  3  4  1  0
  4  5  2  0
  5  6  1  0
  6  7  2  0
  6  8  2  0
  6  9  1  0
  9 10  1  0
 10 11  2  0
 11 12  1  0
 12 13  2  0
 13 14  1  0
 14 15  1  0
 15 16  2  0
 15 17  1  0
 17 18  1  0
 18 19  2  0
 19 20  1  0
 20 21  2  0
 21 22  1  0
 22 23  1  0
 23 24  2  0
 24 25  1  0
 25 26  1  0
 25 27  2  0
 27 28  1  0
 28 29  1  0
 28 30  2  0
 21 31  1  0
 31 32  1  0
 31 33  2  0
 14 34  2  0
  5 35  1  0
 35 36  2  0
 36  2  1  0
 34 10  1  0
 33 18  1  0
 30 23  1  0
  1 37  1  0
  1 38  1  0
  1 39  1  0
  3 40  1  0
  4 41  1  0
 11 42  1  0
 12 43  1  0
 13 44  1  0
 19 45  1  0
 20 46  1  0
 26 47  1  0
 26 48  1  0
 26 49  1  0
 27 50  1  0
 29 51  1  0
 29 52  1  0
 29 53  1  0
 33 54  1  0
 34 55  1  0
 35 56  1  0
 36 57  1  0
M  CHG  3   9  -1  17  -1  32  -1
M  END
>  <UniqueID>  (10) 
10

>  <SMILES>  (10) 
Cc1ccc(S(=O)(=O)[N-]c2cccc(C(=O)[N-]c3ccc(Sc4nc(C)cc(C)n4)c([O-])c3)c2)cc1

>  <Energy>  (10) 
65.63144525633109

>  <Genealogy>  (10) 
Cc1ccc(S(=O)(=O)[N-]c2cccc(C(=O)[N-]c3ccc(Sc4nc(C)cc(C)n4)c([O-])c3)c2)cc1 (protonated)
Cc1ccc(S(=O)(=O)[N-]c2cccc(C(=O)[N-]c3ccc(Sc4nc(C)cc(C)n4)c([O-])c3)c2)cc1 (3D coordinates assigned)
Cc1ccc(S(=O)(=O)[N-]c2cccc(C(=O)[N-]c3ccc(Sc4nc(C)cc(C)n4)c([O-])c3)c2)cc1 (optimized conformer: 65.63144525633109 kcal/mol)

>  <smiles>  (10) 
Cc1ccc(S(=O)(=O)Nc2cccc(C(=O)Nc3ccc(Sc4nc(C)cc(C)n4)c(O)c3)c2)cc1

>  <score_type>  (10) 
oracle

>  <origin>  (10) 
adgpu

>  <m_score__min__energy>  (10) 
-13.98

>  <m_primary>  (10) 
energy

$$$$
10:0
     RDKit          3D

 63 66  0  0  0  0  0  0  0  0999 V2000
   -5.7180   18.8870  -31.7260 H   0  0  0  0  0  0  0  0  0  0  0  0
   -4.8010   19.3600  -31.5590 N   0  0  0  0  0  0  0  0  0  0  0  0
   -3.8480   19.1310  -32.9840 S   0  0  0  0  0  0  0  0  0  0  0  0
   -3.8000   17.6630  -33.3040 O   0  0  0  0  0  0  0  0  0  0  0  0
   -4.5040   19.8710  -34.1160 O   0  0  0  0  0  0  0  0  0  0  0  0
   -2.2000   19.7340  -32.7390 C   0  0  0  0  0  0  0  0  0  0  0  0
   -1.9490   20.6090  -31.6690 C   0  0  0  0  0  0  0  0  0  0  0  0
   -2.7706   20.8854  -30.9918 H   0  0  0  0  0  0  0  0  0  0  0  0
   -0.6720   21.1340  -31.4510 C   0  0  0  0  0  0  0  0  0  0  0  0
   -0.4670   22.0060  -30.3260 N   0  0  0  0  0  0  0  0  0  0  0  0
   -1.2770   22.9310  -29.9020 C   0  0  0  0  0  0  0  0  0  0  0  0
   -0.9070   23.7010  -28.8480 N   0  0  0  0  0  0  0  0  0  0  0  0
   -1.7390   24.6610  -28.3620 C   0  0  0  0  0  0  0  0  0  0  0  0
   -1.3170   25.4990  -27.2660 N   0  0  0  0  0  0  0  0  0  0  0  0
   -1.5700   25.0640  -25.8880 C   0  0  0  0  0  0  0  0  0  0  0  0
   -2.6518   25.1012  -25.6924 H   0  0  0  0  0  0  0  0  0  0  0  0
   -1.1910   24.0381  -25.7703 H   0  0  0  0  0  0  0  0  0  0  0  0
   -0.8490   25.9670  -24.8840 C   0  0  0  0  0  0  0  0  0  0  0  0
   -1.1855   25.7147  -23.8676 H   0  0  0  0  0  0  0  0  0  0  0  0
    0.2344   25.8052  -24.9838 H   0  0  0  0  0  0  0  0  0  0  0  0
   -1.1350   27.3820  -25.1460 N   0  0  0  0  0  0  0  0  0  0  0  0
   -2.1470   27.5560  -24.9370 H   0  0  0  0  0  0  0  0  0  0  0  0
   -0.8480   27.8150  -26.5310 C   0  0  0  0  0  0  0  0  0  0  0  0
   -1.7445   28.3152  -26.9262 H   0  0  0  0  0  0  0  0  0  0  0  0
    0.0281   28.4778  -26.4737 H   0  0  0  0  0  0  0  0  0  0  0  0
   -0.4690   26.6760  -27.4970 C   0  0  0  0  0  0  0  0  0  0  0  0
   -0.6033   27.0207  -28.5329 H   0  0  0  0  0  0  0  0  0  0  0  0
    0.5805   26.3969  -27.3221 H   0  0  0  0  0  0  0  0  0  0  0  0
   -2.9590   24.8310  -28.9360 N   0  0  0  0  0  0  0  0  0  0  0  0
   -3.3450   24.0590  -29.9870 C   0  0  0  0  0  0  0  0  0  0  0  0
   -4.5140   24.2040  -30.5360 N   0  0  0  0  0  0  0  0  0  0  0  0
   -5.5520   25.1370  -30.0910 C   0  0  0  0  0  0  0  0  0  0  0  0
   -5.7231   24.9985  -29.0132 H   0  0  0  0  0  0  0  0  0  0  0  0
   -5.2144   26.1634  -30.2970 H   0  0  0  0  0  0  0  0  0  0  0  0
   -6.8660   24.8920  -30.8440 C   0  0  0  0  0  0  0  0  0  0  0  0
   -7.7047   25.2171  -30.2109 H   0  0  0  0  0  0  0  0  0  0  0  0
   -6.8330   25.4644  -31.7828 H   0  0  0  0  0  0  0  0  0  0  0  0
   -7.0520   23.4370  -31.1900 C   0  0  0  0  0  0  0  0  0  0  0  0
   -6.4010   22.8870  -32.3040 C   0  0  0  0  0  0  0  0  0  0  0  0
   -5.7135   23.5072  -32.8979 H   0  0  0  0  0  0  0  0  0  0  0  0
   -6.6220   21.5540  -32.6630 C   0  0  0  0  0  0  0  0  0  0  0  0
   -6.0970   21.1248  -33.5291 H   0  0  0  0  0  0  0  0  0  0  0  0
   -7.5110   20.7630  -31.9220 C   0  0  0  0  0  0  0  0  0  0  0  0
   -7.8510   19.1030  -32.3950 S   0  0  0  0  0  0  0  0  0  0  0  0
   -9.2680   19.0080  -32.8910 O   0  0  0  0  0  0  0  0  0  0  0  0
   -7.6820   18.1770  -31.2200 O   0  0  0  0  0  0  0  0  0  0  0  0
   -6.7630   18.6350  -33.6530 N   0  0  0  0  0  0  0  0  0  0  0  0
   -5.8360   18.4550  -33.2070 H   0  0  0  0  0  0  0  0  0  0  0  0
   -6.6420   19.4640  -34.2750 H   0  0  0  0  0  0  0  0  0  0  0  0
   -8.1590   21.3080  -30.8070 C   0  0  0  0  0  0  0  0  0  0  0  0
   -8.8537   20.6894  -30.2198 H   0  0  0  0  0  0  0  0  0  0  0  0
   -7.9260   22.6350  -30.4380 C   0  0  0  0  0  0  0  0  0  0  0  0
   -8.4295   23.0538  -29.5542 H   0  0  0  0  0  0  0  0  0  0  0  0
   -2.5000   23.1130  -30.4650 N   0  0  0  0  0  0  0  0  0  0  0  0
    0.3860   20.7360  -32.2820 C   0  0  0  0  0  0  0  0  0  0  0  0
    1.4007   21.1192  -32.0987 H   0  0  0  0  0  0  0  0  0  0  0  0
    0.1560   19.8560  -33.3400 C   0  0  0  0  0  0  0  0  0  0  0  0
    0.9903   19.5614  -33.9935 H   0  0  0  0  0  0  0  0  0  0  0  0
   -1.1290   19.3420  -33.5800 C   0  0  0  0  0  0  0  0  0  0  0  0
   -1.3310   18.4030  -34.7400 C   0  0  0  0  0  0  0  0  0  0  0  0
   -1.5482   17.3934  -34.3610 H   0  0  0  0  0  0  0  0  0  0  0  0
   -2.1742   18.7537  -35.3531 H   0  0  0  0  0  0  0  0  0  0  0  0
   -0.4181   18.3760  -35.3531 H   0  0  0  0  0  0  0  0  0  0  0  0
  1  2  1  0
  2  3  1  0
  3  4  2  0
  3  5  2  0
  3  6  1  0
  6  7  2  0
  7  8  1  0
  7  9  1  0
  9 10  1  0
 10 11  2  0
 11 12  1  0
 12 13  1  0
 13 14  1  0
 14 15  1  0
 15 16  1  0
 15 17  1  0
 15 18  1  0
 18 19  1  0
 18 20  1  0
 18 21  1  0
 21 22  1  0
 21 23  1  0
 23 24  1  0
 23 25  1  0
 23 26  1  0
 26 27  1  0
 26 28  1  0
 13 29  2  0
 29 30  1  0
 30 31  2  3
 31 32  1  0
 32 33  1  0
 32 34  1  0
 32 35  1  0
 35 36  1  0
 35 37  1  0
 35 38  1  0
 38 39  2  0
 39 40  1  0
 39 41  1  0
 41 42  1  0
 41 43  2  0
 43 44  1  0
 44 45  2  0
 44 46  2  0
 44 47  1  0
 47 48  1  0
 47 49  1  0
 43 50  1  0
 50 51  1  0
 50 52  2  0
 52 53  1  0
 30 54  1  0
  9 55  2  0
 55 56  1  0
 55 57  1  0
 57 58  1  0
 57 59  2  0
 59 60  1  0
 60 61  1  0
 60 62  1  0
 60 63  1  0
 59  6  1  0
 54 11  1  0
 26 14  1  0
 52 38  1  0
M  CHG  3   2  -1  12  -1  54  -1
M  END
>  <UniqueID>  (11) 
11

>  <SMILES>  (11) 
Cc1ccc(/N=c2/[n-]c(N3CCNCC3)nc(=NCCc3ccc(S(N)(=O)=O)cc3)[n-]2)cc1S([NH-])(=O)=O

>  <Energy>  (11) 
70.03348526100743

>  <Genealogy>  (11) 
Cc1ccc(N=c2[n-]c(N3CCNCC3)nc(=NCCc3ccc(S(N)(=O)=O)cc3)[n-]2)cc1S([NH-])(=O)=O (protonated)
Cc1ccc(/N=c2/[n-]c(N3CCNCC3)nc(=NCCc3ccc(S(N)(=O)=O)cc3)[n-]2)cc1S([NH-])(=O)=O (cis-trans isomerization)
Cc1ccc(/N=c2/[n-]c(N3CCNCC3)nc(=NCCc3ccc(S(N)(=O)=O)cc3)[n-]2)cc1S([NH-])(=O)=O (3D coordinates assigned)
Cc1ccc(/N=c2/[n-]c(N3CCNCC3)nc(=NCCc3ccc(S(N)(=O)=O)cc3)[n-]2)cc1S([NH-])(=O)=O (nonaromatic ring conformer: 70.03348526100743 kcal/mol)

>  <smiles>  (11) 
Cc1ccc(N=c2[nH]c(N3CCNCC3)nc(=NCCc3ccc(S(N)(=O)=O)cc3)[nH]2)cc1S(N)(=O)=O

>  <score_type>  (11) 
oracle

>  <origin>  (11) 
adgpu

>  <m_score__min__energy>  (11) 
-12.550000000000001

>  <m_primary>  (11) 
energy

$$$$
11:0
     RDKit          3D

 45 47  0  0  0  0  0  0  0  0999 V2000
   -0.8270   22.2390  -26.2880 C   0  0  0  0  0  0  0  0  0  0  0  0
   -1.1330   23.2110  -27.2820 O   0  0  0  0  0  0  0  0  0  0  0  0
   -2.1170   23.0520  -28.2700 C   0  0  0  0  0  0  0  0  0  0  0  0
   -2.6330   21.7910  -28.6230 C   0  0  0  0  0  0  0  0  0  0  0  0
   -3.6120   21.6850  -29.6110 C   0  0  0  0  0  0  0  0  0  0  0  0
   -4.0950   22.8300  -30.2560 C   0  0  0  0  0  0  0  0  0  0  0  0
   -5.0870   22.7040  -31.2830 N   0  0  0  0  0  0  0  0  0  0  0  0
   -4.6840   22.5980  -32.6860 C   0  0  0  0  0  0  0  0  0  0  0  0
   -3.7170   21.4680  -32.8520 C   0  0  0  0  0  0  0  0  0  0  0  0
   -2.3360   21.5610  -32.7420 C   0  0  0  0  0  0  0  0  0  0  0  0
   -1.6780   20.3710  -33.0800 C   0  0  0  0  0  0  0  0  0  0  0  0
   -2.5360   19.3520  -33.4720 C   0  0  0  0  0  0  0  0  0  0  0  0
   -4.1130   19.9310  -33.4040 S   0  0  0  0  0  0  0  0  0  0  0  0
   -6.7730   22.7180  -30.8640 S   0  0  0  0  0  0  0  0  0  0  0  0
   -7.4120   23.9400  -31.4620 O   0  0  0  0  0  0  0  0  0  0  0  0
   -6.9330   22.7630  -29.3700 O   0  0  0  0  0  0  0  0  0  0  0  0
   -7.5390   21.2560  -31.4730 C   0  0  0  0  0  0  0  0  0  0  0  0
   -6.7910   20.0760  -31.5890 C   0  0  0  0  0  0  0  0  0  0  0  0
   -7.3910   18.9100  -32.0750 C   0  0  0  0  0  0  0  0  0  0  0  0
   -8.7380   18.9180  -32.4450 C   0  0  0  0  0  0  0  0  0  0  0  0
   -9.4890   20.0910  -32.3280 C   0  0  0  0  0  0  0  0  0  0  0  0
   -8.8920   21.2590  -31.8410 C   0  0  0  0  0  0  0  0  0  0  0  0
   -3.5800   24.0940  -29.9230 C   0  0  0  0  0  0  0  0  0  0  0  0
   -4.0600   25.2180  -30.6150 O   0  0  0  0  0  0  0  0  0  0  0  0
   -5.3600   25.7710  -30.4530 C   0  0  0  0  0  0  0  0  0  0  0  0
   -2.5950   24.1940  -28.9230 C   0  0  0  0  0  0  0  0  0  0  0  0
   -0.9656   22.6794  -25.2896 H   0  0  0  0  0  0  0  0  0  0  0  0
   -1.4961   21.3736  -26.4032 H   0  0  0  0  0  0  0  0  0  0  0  0
    0.2172   21.9130  -26.4032 H   0  0  0  0  0  0  0  0  0  0  0  0
   -2.2631   20.8863  -28.1182 H   0  0  0  0  0  0  0  0  0  0  0  0
   -4.0070   20.6956  -29.8851 H   0  0  0  0  0  0  0  0  0  0  0  0
   -5.5722   22.4129  -33.3080 H   0  0  0  0  0  0  0  0  0  0  0  0
   -4.2024   23.5367  -32.9973 H   0  0  0  0  0  0  0  0  0  0  0  0
   -1.8127   22.4743  -32.4226 H   0  0  0  0  0  0  0  0  0  0  0  0
   -0.5849   20.2550  -33.0387 H   0  0  0  0  0  0  0  0  0  0  0  0
   -2.2351   18.3384  -33.7754 H   0  0  0  0  0  0  0  0  0  0  0  0
   -5.7304   20.0672  -31.2973 H   0  0  0  0  0  0  0  0  0  0  0  0
   -6.8017   17.9857  -32.1660 H   0  0  0  0  0  0  0  0  0  0  0  0
   -9.2080   18.0005  -32.8287 H   0  0  0  0  0  0  0  0  0  0  0  0
  -10.5498   20.0959  -32.6189 H   0  0  0  0  0  0  0  0  0  0  0  0
   -9.4849   22.1808  -31.7467 H   0  0  0  0  0  0  0  0  0  0  0  0
   -5.5865   25.8673  -29.3809 H   0  0  0  0  0  0  0  0  0  0  0  0
   -5.3980   26.7632  -30.9264 H   0  0  0  0  0  0  0  0  0  0  0  0
   -6.1011   25.1102  -30.9264 H   0  0  0  0  0  0  0  0  0  0  0  0
   -2.1956   25.1822  -28.6511 H   0  0  0  0  0  0  0  0  0  0  0  0
  1  2  1  0
  2  3  1  0
  3  4  2  0
  4  5  1  0
  5  6  2  0
  6  7  1  0
  7  8  1  0
  8  9  1  0
  9 10  2  0
 10 11  1  0
 11 12  2  0
 12 13  1  0
  7 14  1  0
 14 15  2  0
 14 16  2  0
 14 17  1  0
 17 18  2  0
 18 19  1  0
 19 20  2  0
 20 21  1  0
 21 22  2  0
  6 23  1  0
 23 24  1  0
 24 25  1  0
 23 26  2  0
 26  3  1  0
 13  9  1  0
 22 17  1  0
  1 27  1  0
  1 28  1  0
  1 29  1  0
  4 30  1  0
  5 31  1  0
  8 32  1  0
  8 33  1  0
 10 34  1  0
 11 35  1  0
 12 36  1  0
 18 37  1  0
 19 38  1  0
 20 39  1  0
 21 40  1  0
 22 41  1  0
 25 42  1  0
 25 43  1  0
 25 44  1  0
 26 45  1  0
M  END
>  <UniqueID>  (12) 
12

>  <SMILES>  (12) 
COc1ccc(N(Cc2cccs2)S(=O)(=O)c2ccccc2)c(OC)c1

>  <Energy>  (12) 
74.27922968517748

>  <Genealogy>  (12) 
COc1ccc(N(Cc2cccs2)S(=O)(=O)c2ccccc2)c(OC)c1 (3D coordinates assigned)
COc1ccc(N(Cc2cccs2)S(=O)(=O)c2ccccc2)c(OC)c1 (optimized conformer: 74.27922968517748 kcal/mol)

>  <smiles>  (12) 
COc1ccc(N(Cc2cccs2)S(=O)(=O)c2ccccc2)c(OC)c1

>  <score_type>  (12) 
oracle

>  <origin>  (12) 
adgpu

>  <m_score__min__energy>  (12) 
-8.1500000000000004

>  <m_primary>  (12) 
energy

$$$$
12:0
     RDKit          3D

 42 44  0  0  0  0  0  0  0  0999 V2000
   -3.9710   22.5730  -27.9330 O   0  0  0  0  0  0  0  0  0  0  0  0
   -3.6440   23.0280  -29.0630 C   0  0  0  0  0  0  0  0  0  0  0  0
   -2.2570   23.1570  -29.4020 N   0  0  0  0  0  0  0  0  0  0  0  0
   -1.1850   23.5130  -28.5140 C   0  0  0  0  0  0  0  0  0  0  0  0
   -0.5930   22.5640  -27.6610 C   0  0  0  0  0  0  0  0  0  0  0  0
    0.4320   22.9400  -26.7870 C   0  0  0  0  0  0  0  0  0  0  0  0
    0.8640   24.2670  -26.7450 C   0  0  0  0  0  0  0  0  0  0  0  0
    0.2660   25.2220  -27.5700 C   0  0  0  0  0  0  0  0  0  0  0  0
   -0.7600   24.8560  -28.4490 C   0  0  0  0  0  0  0  0  0  0  0  0
   -1.3390   25.8400  -29.2520 O   0  0  0  0  0  0  0  0  0  0  0  0
   -4.7020   23.3690  -30.0530 C   0  0  0  0  0  0  0  0  0  0  0  0
   -5.6670   22.3990  -30.3940 C   0  0  0  0  0  0  0  0  0  0  0  0
   -6.6730   22.6800  -31.3280 C   0  0  0  0  0  0  0  0  0  0  0  0
   -7.8620   21.4430  -31.7500 S   0  0  0  0  0  0  0  0  0  0  0  0
   -9.0580   22.1020  -32.3810 O   0  0  0  0  0  0  0  0  0  0  0  0
   -8.3210   20.7540  -30.4950 O   0  0  0  0  0  0  0  0  0  0  0  0
   -7.2060   20.2590  -32.8510 N   0  0  0  0  0  0  0  0  0  0  0  0
   -5.7640   20.4830  -33.0530 C   0  0  0  0  0  0  0  0  0  0  0  0
   -5.1320   19.3080  -33.8270 C   0  0  0  0  0  0  0  0  0  0  0  0
   -6.1270   18.4710  -34.3840 O   0  0  0  0  0  0  0  0  0  0  0  0
   -6.8800   17.8640  -33.3470 C   0  0  0  0  0  0  0  0  0  0  0  0
   -7.4410   18.8970  -32.3480 C   0  0  0  0  0  0  0  0  0  0  0  0
   -6.7280   23.9420  -31.9270 C   0  0  0  0  0  0  0  0  0  0  0  0
   -5.7840   24.9150  -31.5980 C   0  0  0  0  0  0  0  0  0  0  0  0
   -4.7770   24.6410  -30.6690 C   0  0  0  0  0  0  0  0  0  0  0  0
   -3.8630   25.6460  -30.3690 O   0  0  0  0  0  0  0  0  0  0  0  0
   -0.9384   21.5198  -27.6815 H   0  0  0  0  0  0  0  0  0  0  0  0
    0.8984   22.1894  -26.1319 H   0  0  0  0  0  0  0  0  0  0  0  0
    1.6751   24.5602  -26.0623 H   0  0  0  0  0  0  0  0  0  0  0  0
    0.6033   26.2682  -27.5288 H   0  0  0  0  0  0  0  0  0  0  0  0
   -2.1520   25.6610  -29.8290 H   0  0  0  0  0  0  0  0  0  0  0  0
   -5.6295   21.4072  -29.9198 H   0  0  0  0  0  0  0  0  0  0  0  0
   -5.6196   21.4113  -33.6251 H   0  0  0  0  0  0  0  0  0  0  0  0
   -5.2774   20.5607  -32.0696 H   0  0  0  0  0  0  0  0  0  0  0  0
   -4.5041   19.7077  -34.6370 H   0  0  0  0  0  0  0  0  0  0  0  0
   -4.5273   18.7133  -33.1265 H   0  0  0  0  0  0  0  0  0  0  0  0
   -7.7201   17.3136  -33.7957 H   0  0  0  0  0  0  0  0  0  0  0  0
   -6.2084   17.1913  -32.7934 H   0  0  0  0  0  0  0  0  0  0  0  0
   -8.5220   18.7353  -32.2247 H   0  0  0  0  0  0  0  0  0  0  0  0
   -6.9339   18.7763  -31.3793 H   0  0  0  0  0  0  0  0  0  0  0  0
   -7.5172   24.1682  -32.6592 H   0  0  0  0  0  0  0  0  0  0  0  0
   -5.8328   25.9056  -32.0737 H   0  0  0  0  0  0  0  0  0  0  0  0
  1  2  2  0
  2  3  1  0
  3  4  1  0
  4  5  2  0
  5  6  1  0
  6  7  2  0
  7  8  1  0
  8  9  2  0
  9 10  1  0
  2 11  1  0
 11 12  2  0
 12 13  1  0
 13 14  1  0
 14 15  2  0
 14 16  2  0
 14 17  1  0
 17 18  1  0
 18 19  1  0
 19 20  1  0
 20 21  1  0
 21 22  1  0
 13 23  2  0
 23 24  1  0
 24 25  2  0
 25 26  1  0
  9  4  1  0
 25 11  1  0
 22 17  1  0
  5 27  1  0
  6 28  1  0
  7 29  1  0
  8 30  1  0
 10 31  1  0
 12 32  1  0
 18 33  1  0
 18 34  1  0
 19 35  1  0
 19 36  1  0
 21 37  1  0
 21 38  1  0
 22 39  1  0
 22 40  1  0
 23 41  1  0
 24 42  1  0
M  CHG  2   3  -1  26  -1
M  END
>  <UniqueID>  (13) 
13

>  <SMILES>  (13) 
O=C([N-]c1ccccc1O)c1cc(S(=O)(=O)N2CCOCC2)ccc1[O-]

>  <Energy>  (13) 
57.48386933880403

>  <Genealogy>  (13) 
O=C([N-]c1ccccc1O)c1cc(S(=O)(=O)N2CCOCC2)ccc1[O-] (protonated)
O=C([N-]c1ccccc1O)c1cc(S(=O)(=O)N2CCOCC2)ccc1[O-] (3D coordinates assigned)
O=C([N-]c1ccccc1O)c1cc(S(=O)(=O)N2CCOCC2)ccc1[O-] (nonaromatic ring conformer: 57.48386933880403 kcal/mol)

>  <smiles>  (13) 
O=C(Nc1ccccc1O)c1cc(S(=O)(=O)N2CCOCC2)ccc1O

>  <score_type>  (13) 
oracle

>  <origin>  (13) 
adgpu

>  <m_score__min__energy>  (13) 
-12.66

>  <m_primary>  (13) 
energy

$$$$
13:0
     RDKit          3D

 37 39  0  0  0  0  0  0  0  0999 V2000
   -7.6000   20.7210  -32.7140 C   0  0  0  0  0  0  0  0  0  0  0  0
   -6.3880   21.4650  -32.2510 C   0  0  0  0  0  0  0  0  0  0  0  0
   -5.0840   21.1870  -32.6110 C   0  0  0  0  0  0  0  0  0  0  0  0
   -4.2910   22.0780  -31.9130 C   0  0  0  0  0  0  0  0  0  0  0  0
   -2.7960   22.1150  -31.9780 C   0  0  0  0  0  0  0  0  0  0  0  0
   -5.0580   22.8970  -31.1570 N   0  0  0  0  0  0  0  0  0  0  0  0
   -4.4830   24.1340  -30.0700 S   0  0  0  0  0  0  0  0  0  0  0  0
   -4.0440   25.3290  -30.8700 O   0  0  0  0  0  0  0  0  0  0  0  0
   -5.5900   24.5620  -29.1470 O   0  0  0  0  0  0  0  0  0  0  0  0
   -3.1270   23.5300  -29.1160 C   0  0  0  0  0  0  0  0  0  0  0  0
   -3.1500   22.2220  -28.6060 C   0  0  0  0  0  0  0  0  0  0  0  0
   -2.0750   21.7270  -27.8460 C   0  0  0  0  0  0  0  0  0  0  0  0
   -2.0860   20.3850  -27.3160 N   0  0  0  0  0  0  0  0  0  0  0  0
   -1.1020   19.4640  -27.3130 C   0  0  0  0  0  0  0  0  0  0  0  0
   -1.5350   18.3370  -26.7210 N   0  0  0  0  0  0  0  0  0  0  0  0
   -2.7880   18.5850  -26.3670 N   0  0  0  0  0  0  0  0  0  0  0  0
   -3.1220   19.8160  -26.7230 N   0  0  0  0  0  0  0  0  0  0  0  0
   -0.9720   22.5650  -27.6050 C   0  0  0  0  0  0  0  0  0  0  0  0
   -0.9490   23.8700  -28.1040 C   0  0  0  0  0  0  0  0  0  0  0  0
   -2.0210   24.3550  -28.8560 C   0  0  0  0  0  0  0  0  0  0  0  0
   -1.9790   25.6590  -29.3380 O   0  0  0  0  0  0  0  0  0  0  0  0
   -6.3420   22.5070  -31.3370 C   0  0  0  0  0  0  0  0  0  0  0  0
   -7.5260   23.1070  -30.6350 C   0  0  0  0  0  0  0  0  0  0  0  0
   -8.1707   20.3706  -31.8414 H   0  0  0  0  0  0  0  0  0  0  0  0
   -8.2302   21.3880  -33.3206 H   0  0  0  0  0  0  0  0  0  0  0  0
   -7.2905   19.8571  -33.3206 H   0  0  0  0  0  0  0  0  0  0  0  0
   -4.7444   20.4113  -33.3131 H   0  0  0  0  0  0  0  0  0  0  0  0
   -2.3848   22.1252  -30.9578 H   0  0  0  0  0  0  0  0  0  0  0  0
   -2.4301   21.2256  -32.5120 H   0  0  0  0  0  0  0  0  0  0  0  0
   -2.4745   23.0214  -32.5120 H   0  0  0  0  0  0  0  0  0  0  0  0
   -4.0189   21.5769  -28.8031 H   0  0  0  0  0  0  0  0  0  0  0  0
   -0.0957   19.6120  -27.7319 H   0  0  0  0  0  0  0  0  0  0  0  0
   -0.1201   22.1902  -27.0187 H   0  0  0  0  0  0  0  0  0  0  0  0
   -0.0829   24.5179  -27.9036 H   0  0  0  0  0  0  0  0  0  0  0  0
   -7.3826   23.0343  -29.5468 H   0  0  0  0  0  0  0  0  0  0  0  0
   -7.6254   24.1642  -30.9220 H   0  0  0  0  0  0  0  0  0  0  0  0
   -8.4374   22.5620  -30.9220 H   0  0  0  0  0  0  0  0  0  0  0  0
  1  2  1  0
  2  3  1  0
  3  4  2  0
  4  5  1  0
  4  6  1  0
  6  7  1  0
  7  8  2  0
  7  9  2  0
  7 10  1  0
 10 11  2  0
 11 12  1  0
 12 13  1  0
 13 14  1  0
 14 15  2  0
 15 16  1  0
 16 17  2  0
 12 18  2  0
 18 19  1  0
 19 20  2  0
 20 21  1  0
  6 22  1  0
 22 23  1  0
 22  2  2  0
 20 10  1  0
 17 13  1  0
  1 24  1  0
  1 25  1  0
  1 26  1  0
  3 27  1  0
  5 28  1  0
  5 29  1  0
  5 30  1  0
 11 31  1  0
 14 32  1  0
 18 33  1  0
 19 34  1  0
 23 35  1  0
 23 36  1  0
 23 37  1  0
M  CHG  1  21  -1
M  END
>  <UniqueID>  (14) 
14

>  <SMILES>  (14) 
Cc1cc(C)n(S(=O)(=O)c2cc(-n3cnnn3)ccc2[O-])c1C

>  <Energy>  (14) 
107.54704133328146

>  <Genealogy>  (14) 
Cc1cc(C)n(S(=O)(=O)c2cc(-n3cnnn3)ccc2[O-])c1C (protonated)
Cc1cc(C)n(S(=O)(=O)c2cc(-n3cnnn3)ccc2[O-])c1C (3D coordinates assigned)
Cc1cc(C)n(S(=O)(=O)c2cc(-n3cnnn3)ccc2[O-])c1C (optimized conformer: 107.54704133328146 kcal/mol)

>  <smiles>  (14) 
Cc1cc(C)n(S(=O)(=O)c2cc(-n3cnnn3)ccc2O)c1C

>  <score_type>  (14) 
oracle

>  <origin>  (14) 
adgpu

>  <m_score__min__energy>  (14) 
-12.09

>  <m_primary>  (14) 
energy

$$$$
14:0
     RDKit          3D

 41 43  0  0  0  0  0  0  0  0999 V2000
   -5.3630   26.3730  -30.2550 O   0  0  0  0  0  0  0  0  0  0  0  0
   -4.9230   25.2150  -30.4860 C   0  0  0  0  0  0  0  0  0  0  0  0
   -3.5080   24.9910  -30.4120 N   0  0  0  0  0  0  0  0  0  0  0  0
   -2.8240   24.2170  -29.4150 C   0  0  0  0  0  0  0  0  0  0  0  0
   -1.7370   23.4270  -29.8130 C   0  0  0  0  0  0  0  0  0  0  0  0
   -1.0320   22.6660  -28.8760 C   0  0  0  0  0  0  0  0  0  0  0  0
   -1.4190   22.6770  -27.5340 C   0  0  0  0  0  0  0  0  0  0  0  0
   -2.5210   23.4350  -27.1300 C   0  0  0  0  0  0  0  0  0  0  0  0
   -3.2390   24.1960  -28.0660 C   0  0  0  0  0  0  0  0  0  0  0  0
   -4.3700   24.9020  -27.6610 O   0  0  0  0  0  0  0  0  0  0  0  0
   -5.8780   24.1210  -30.7830 C   0  0  0  0  0  0  0  0  0  0  0  0
   -6.4780   23.3850  -29.7460 C   0  0  0  0  0  0  0  0  0  0  0  0
   -7.3600   22.3410  -30.0380 C   0  0  0  0  0  0  0  0  0  0  0  0
   -7.6670   22.0290  -31.3690 C   0  0  0  0  0  0  0  0  0  0  0  0
   -8.7450   20.6910  -31.7550 S   0  0  0  0  0  0  0  0  0  0  0  0
   -9.1020   19.9350  -30.5030 O   0  0  0  0  0  0  0  0  0  0  0  0
  -10.0050   21.2530  -32.3530 O   0  0  0  0  0  0  0  0  0  0  0  0
   -7.9680   19.6240  -32.9050 N   0  0  0  0  0  0  0  0  0  0  0  0
   -6.5220   19.8660  -32.9380 C   0  0  0  0  0  0  0  0  0  0  0  0
   -5.8580   18.9020  -31.9660 C   0  0  0  0  0  0  0  0  0  0  0  0
   -6.8950   17.8340  -31.6800 C   0  0  0  0  0  0  0  0  0  0  0  0
   -8.1220   18.2250  -32.4910 C   0  0  0  0  0  0  0  0  0  0  0  0
   -7.0880   22.7720  -32.4040 C   0  0  0  0  0  0  0  0  0  0  0  0
   -6.2060   23.8160  -32.1140 C   0  0  0  0  0  0  0  0  0  0  0  0
   -1.4363   23.4056  -30.8709 H   0  0  0  0  0  0  0  0  0  0  0  0
   -0.1725   22.0585  -29.1956 H   0  0  0  0  0  0  0  0  0  0  0  0
   -0.8558   22.0885  -26.7947 H   0  0  0  0  0  0  0  0  0  0  0  0
   -2.8274   23.4355  -26.0735 H   0  0  0  0  0  0  0  0  0  0  0  0
   -4.7960   25.6090  -28.2500 H   0  0  0  0  0  0  0  0  0  0  0  0
   -6.2518   23.6325  -28.6984 H   0  0  0  0  0  0  0  0  0  0  0  0
   -7.8146   21.7624  -29.2203 H   0  0  0  0  0  0  0  0  0  0  0  0
   -6.1384   19.6935  -33.9544 H   0  0  0  0  0  0  0  0  0  0  0  0
   -6.3034   20.9055  -32.6522 H   0  0  0  0  0  0  0  0  0  0  0  0
   -4.9615   18.4550  -32.4204 H   0  0  0  0  0  0  0  0  0  0  0  0
   -5.5326   19.4104  -31.0464 H   0  0  0  0  0  0  0  0  0  0  0  0
   -6.5258   16.8467  -31.9946 H   0  0  0  0  0  0  0  0  0  0  0  0
   -7.1226   17.7658  -30.6060 H   0  0  0  0  0  0  0  0  0  0  0  0
   -8.2032   17.5803  -33.3786 H   0  0  0  0  0  0  0  0  0  0  0  0
   -9.0328   18.1047  -31.8860 H   0  0  0  0  0  0  0  0  0  0  0  0
   -7.3284   22.5330  -33.4505 H   0  0  0  0  0  0  0  0  0  0  0  0
   -5.7656   24.4029  -32.9335 H   0  0  0  0  0  0  0  0  0  0  0  0
  1  2  2  0
  2  3  1  0
  3  4  1  0
  4  5  2  0
  5  6  1  0
  6  7  2  0
  7  8  1  0
  8  9  2  0
  9 10  1  0
  2 11  1  0
 11 12  2  0
 12 13  1  0
 13 14  2  0
 14 15  1  0
 15 16  2  0
 15 17  2  0
 15 18  1  0
 18 19  1  0
 19 20  1  0
 20 21  1  0
 21 22  1  0
 14 23  1  0
 23 24  2  0
  9  4  1  0
 24 11  1  0
 22 18  1  0
  5 25  1  0
  6 26  1  0
  7 27  1  0
  8 28  1  0
 10 29  1  0
 12 30  1  0
 13 31  1  0
 19 32  1  0
 19 33  1  0
 20 34  1  0
 20 35  1  0
 21 36  1  0
 21 37  1  0
 22 38  1  0
 22 39  1  0
 23 40  1  0
 24 41  1  0
M  CHG  1   3  -1
M  END
>  <UniqueID>  (15) 
15

>  <SMILES>  (15) 
O=C([N-]c1ccccc1O)c1ccc(S(=O)(=O)N2CCCC2)cc1

>  <Energy>  (15) 
51.26696927715993

>  <Genealogy>  (15) 
O=C([N-]c1ccccc1O)c1ccc(S(=O)(=O)N2CCCC2)cc1 (protonated)
O=C([N-]c1ccccc1O)c1ccc(S(=O)(=O)N2CCCC2)cc1 (3D coordinates assigned)
O=C([N-]c1ccccc1O)c1ccc(S(=O)(=O)N2CCCC2)cc1 (nonaromatic ring conformer: 51.26696927715993 kcal/mol)

>  <smiles>  (15) 
O=C(Nc1ccccc1O)c1ccc(S(=O)(=O)N2CCCC2)cc1

>  <score_type>  (15) 
oracle

>  <origin>  (15) 
adgpu

>  <m_score__min__energy>  (15) 
-12.43

>  <m_primary>  (15) 
energy

$$$$
15:0
     RDKit          3D

 29 30  0  0  0  0  0  0  0  0999 V2000
   -5.3740   24.8440  -28.9140 N   0  0  0  0  0  0  0  0  0  0  0  0
   -4.8300   24.5970  -30.2120 C   0  0  0  0  0  0  0  0  0  0  0  0
   -3.8630   25.2970  -30.6140 O   0  0  0  0  0  0  0  0  0  0  0  0
   -5.3700   23.5200  -31.0760 C   0  0  0  0  0  0  0  0  0  0  0  0
   -6.7580   23.3220  -31.1990 C   0  0  0  0  0  0  0  0  0  0  0  0
   -7.6400   24.1380  -30.5690 F   0  0  0  0  0  0  0  0  0  0  0  0
   -7.2530   22.3050  -32.0180 C   0  0  0  0  0  0  0  0  0  0  0  0
   -6.3790   21.4800  -32.7260 C   0  0  0  0  0  0  0  0  0  0  0  0
   -4.9890   21.6730  -32.6300 C   0  0  0  0  0  0  0  0  0  0  0  0
   -4.0660   20.8760  -33.3280 O   0  0  0  0  0  0  0  0  0  0  0  0
   -3.7350   19.5230  -33.0100 C   0  0  0  0  0  0  0  0  0  0  0  0
   -4.9580   18.6520  -33.0480 C   0  0  0  0  0  0  0  0  0  0  0  0
   -5.2900   17.9390  -34.2100 C   0  0  0  0  0  0  0  0  0  0  0  0
   -6.4310   17.1350  -34.2160 C   0  0  0  0  0  0  0  0  0  0  0  0
   -7.2220   17.0430  -33.0700 C   0  0  0  0  0  0  0  0  0  0  0  0
   -6.8570   17.7600  -31.9280 C   0  0  0  0  0  0  0  0  0  0  0  0
   -5.7420   18.5400  -31.9410 N   0  0  0  0  0  0  0  0  0  0  0  0
   -4.4920   22.6930  -31.8050 C   0  0  0  0  0  0  0  0  0  0  0  0
   -3.1480   22.8570  -31.7030 F   0  0  0  0  0  0  0  0  0  0  0  0
   -6.0680   24.1920  -28.4850 H   0  0  0  0  0  0  0  0  0  0  0  0
   -5.0170   25.6390  -28.3390 H   0  0  0  0  0  0  0  0  0  0  0  0
   -8.3390   22.1535  -32.1054 H   0  0  0  0  0  0  0  0  0  0  0  0
   -6.7781   20.6758  -33.3615 H   0  0  0  0  0  0  0  0  0  0  0  0
   -3.0032   19.1493  -33.7413 H   0  0  0  0  0  0  0  0  0  0  0  0
   -3.3117   19.4926  -31.9951 H   0  0  0  0  0  0  0  0  0  0  0  0
   -4.6576   18.0129  -35.1070 H   0  0  0  0  0  0  0  0  0  0  0  0
   -6.7061   16.5752  -35.1220 H   0  0  0  0  0  0  0  0  0  0  0  0
   -8.1234   16.4125  -33.0660 H   0  0  0  0  0  0  0  0  0  0  0  0
   -7.4712   17.6940  -31.0178 H   0  0  0  0  0  0  0  0  0  0  0  0
  1  2  1  0
  2  3  2  0
  2  4  1  0
  4  5  2  0
  5  6  1  0
  5  7  1  0
  7  8  2  0
  8  9  1  0
  9 10  1  0
 10 11  1  0
 11 12  1  0
 12 13  2  0
 13 14  1  0
 14 15  2  0
 15 16  1  0
 16 17  2  0
  9 18  2  0
 18 19  1  0
 18  4  1  0
 17 12  1  0
  1 20  1  0
  1 21  1  0
  7 22  1  0
  8 23  1  0
 11 24  1  0
 11 25  1  0
 13 26  1  0
 14 27  1  0
 15 28  1  0
 16 29  1  0
M  END
>  <UniqueID>  (16) 
16

>  <SMILES>  (16) 
NC(=O)c1c(F)ccc(OCc2ccccn2)c1F

>  <Energy>  (16) 
33.62058515821746

>  <Genealogy>  (16) 
NC(=O)c1c(F)ccc(OCc2ccccn2)c1F (3D coordinates assigned)
NC(=O)c1c(F)ccc(OCc2ccccn2)c1F (optimized conformer: 33.62058515821746 kcal/mol)

>  <smiles>  (16) 
NC(=O)c1c(F)ccc(OCc2ccccn2)c1F

>  <score_type>  (16) 
oracle

>  <origin>  (16) 
adgpu

>  <m_score__min__energy>  (16) 
-7.1500000000000004

>  <m_primary>  (16) 
energy

$$$$
16:0
     RDKit          3D

 56 59  0  0  0  0  0  0  0  0999 V2000
   -8.3280   18.7270  -32.3840 C   0  0  0  0  0  0  0  0  0  0  0  0
   -6.9380   19.0870  -32.8150 C   0  0  0  0  0  0  0  0  0  0  0  0
   -6.4600   20.3780  -33.0310 C   0  0  0  0  0  0  0  0  0  0  0  0
   -7.2410   21.5780  -32.9940 N   0  0  0  0  0  0  0  0  0  0  0  0
   -7.6430   22.4220  -31.5330 S   0  0  0  0  0  0  0  0  0  0  0  0
   -8.7650   23.3880  -31.8020 O   0  0  0  0  0  0  0  0  0  0  0  0
   -8.0900   21.4330  -30.4940 O   0  0  0  0  0  0  0  0  0  0  0  0
   -6.2090   23.2650  -30.9450 C   0  0  0  0  0  0  0  0  0  0  0  0
   -6.2170   24.6580  -30.7690 C   0  0  0  0  0  0  0  0  0  0  0  0
   -5.0580   25.3150  -30.3570 C   0  0  0  0  0  0  0  0  0  0  0  0
   -3.8830   24.5910  -30.1100 C   0  0  0  0  0  0  0  0  0  0  0  0
   -2.7350   25.2750  -29.7180 O   0  0  0  0  0  0  0  0  0  0  0  0
   -3.8720   23.1890  -30.2690 C   0  0  0  0  0  0  0  0  0  0  0  0
   -2.3910   22.2600  -30.0000 S   0  0  0  0  0  0  0  0  0  0  0  0
   -2.5990   20.8210  -30.3850 O   0  0  0  0  0  0  0  0  0  0  0  0
   -1.3040   22.8430  -30.8630 O   0  0  0  0  0  0  0  0  0  0  0  0
   -1.9140   22.3110  -28.3030 C   0  0  0  0  0  0  0  0  0  0  0  0
   -1.6050   21.1290  -27.6220 C   0  0  0  0  0  0  0  0  0  0  0  0
   -1.1860   21.1940  -26.2920 C   0  0  0  0  0  0  0  0  0  0  0  0
   -1.0710   22.3990  -25.6730 N   0  0  0  0  0  0  0  0  0  0  0  0
   -1.3590   23.5730  -26.3030 C   0  0  0  0  0  0  0  0  0  0  0  0
   -1.1800   24.8220  -25.6020 N   0  0  0  0  0  0  0  0  0  0  0  0
   -0.5650   24.8540  -24.2670 C   0  0  0  0  0  0  0  0  0  0  0  0
    0.0330   26.2340  -23.9830 C   0  0  0  0  0  0  0  0  0  0  0  0
   -0.9090   27.2540  -24.2400 O   0  0  0  0  0  0  0  0  0  0  0  0
   -1.2070   27.2830  -25.6220 C   0  0  0  0  0  0  0  0  0  0  0  0
   -1.9280   26.0020  -26.0500 C   0  0  0  0  0  0  0  0  0  0  0  0
   -1.7880   23.5410  -27.6440 C   0  0  0  0  0  0  0  0  0  0  0  0
   -5.0380   22.5330  -30.6910 C   0  0  0  0  0  0  0  0  0  0  0  0
   -5.1000   20.2300  -33.2110 C   0  0  0  0  0  0  0  0  0  0  0  0
   -4.2640   21.1500  -33.4450 O   0  0  0  0  0  0  0  0  0  0  0  0
   -4.7850   18.9260  -33.0890 N   0  0  0  0  0  0  0  0  0  0  0  0
   -3.5160   18.3870  -33.1470 O   0  0  0  0  0  0  0  0  0  0  0  0
   -5.8860   18.2300  -32.8410 N   0  0  0  0  0  0  0  0  0  0  0  0
   -5.9080   16.8020  -32.5170 C   0  0  0  0  0  0  0  0  0  0  0  0
   -8.3793   18.7137  -31.2853 H   0  0  0  0  0  0  0  0  0  0  0  0
   -9.0375   19.4710  -32.7752 H   0  0  0  0  0  0  0  0  0  0  0  0
   -8.5871   17.7321  -32.7752 H   0  0  0  0  0  0  0  0  0  0  0  0
   -7.1372   25.2309  -30.9560 H   0  0  0  0  0  0  0  0  0  0  0  0
   -5.0657   26.4070  -30.2251 H   0  0  0  0  0  0  0  0  0  0  0  0
   -1.6914   20.1571  -28.1298 H   0  0  0  0  0  0  0  0  0  0  0  0
   -0.9488   20.2699  -25.7446 H   0  0  0  0  0  0  0  0  0  0  0  0
   -1.3312   24.6292  -23.5104 H   0  0  0  0  0  0  0  0  0  0  0  0
    0.2389   24.1041  -24.2285 H   0  0  0  0  0  0  0  0  0  0  0  0
    0.3387   26.2837  -22.9275 H   0  0  0  0  0  0  0  0  0  0  0  0
    0.9011   26.3832  -24.6419 H   0  0  0  0  0  0  0  0  0  0  0  0
   -1.8527   28.1481  -25.8336 H   0  0  0  0  0  0  0  0  0  0  0  0
   -0.2648   27.3617  -26.1841 H   0  0  0  0  0  0  0  0  0  0  0  0
   -2.9333   25.9852  -25.6038 H   0  0  0  0  0  0  0  0  0  0  0  0
   -2.0021   25.9830  -27.1473 H   0  0  0  0  0  0  0  0  0  0  0  0
   -2.0230   24.4772  -28.1715 H   0  0  0  0  0  0  0  0  0  0  0  0
   -5.0349   21.4410  -30.8234 H   0  0  0  0  0  0  0  0  0  0  0  0
   -2.6980   18.9800  -33.1980 H   0  0  0  0  0  0  0  0  0  0  0  0
   -5.9100   16.6739  -31.4245 H   0  0  0  0  0  0  0  0  0  0  0  0
   -6.8133   16.3436  -32.9416 H   0  0  0  0  0  0  0  0  0  0  0  0
   -5.0172   16.3159  -32.9416 H   0  0  0  0  0  0  0  0  0  0  0  0
  1  2  1  0
  2  3  2  0
  3  4  1  0
  4  5  1  0
  5  6  2  0
  5  7  2  0
  5  8  1  0
  8  9  2  0
  9 10  1  0
 10 11  2  0
 11 12  1  0
 11 13  1  0
 13 14  1  0
 14 15  2  0
 14 16  2  0
 14 17  1  0
 17 18  2  0
 18 19  1  0
 19 20  2  0
 20 21  1  0
 21 22  1  0
 22 23  1  0
 23 24  1  0
 24 25  1  0
 25 26  1  0
 26 27  1  0
 21 28  2  0
 13 29  2  0
  3 30  1  0
 30 31  2  0
 30 32  1  0
 32 33  1  0
 32 34  1  0
 34 35  1  0
 34  2  1  0
 29  8  1  0
 28 17  1  0
 27 22  1  0
  1 36  1  0
  1 37  1  0
  1 38  1  0
  9 39  1  0
 10 40  1  0
 18 41  1  0
 19 42  1  0
 23 43  1  0
 23 44  1  0
 24 45  1  0
 24 46  1  0
 26 47  1  0
 26 48  1  0
 27 49  1  0
 27 50  1  0
 28 51  1  0
 29 52  1  0
 33 53  1  0
 35 54  1  0
 35 55  1  0
 35 56  1  0
M  CHG  2   4  -1  12  -1
M  END
>  <UniqueID>  (17) 
17

>  <SMILES>  (17) 
Cc1c([N-]S(=O)(=O)c2ccc([O-])c(S(=O)(=O)c3ccnc(N4CCOCC4)c3)c2)c(=O)n(O)n1C

>  <Energy>  (17) 
104.8705719432544

>  <Genealogy>  (17) 
Cc1c([N-]S(=O)(=O)c2ccc([O-])c(S(=O)(=O)c3ccnc(N4CCOCC4)c3)c2)c(=O)n(O)n1C (protonated)
Cc1c([N-]S(=O)(=O)c2ccc([O-])c(S(=O)(=O)c3ccnc(N4CCOCC4)c3)c2)c(=O)n(O)n1C (3D coordinates assigned)
Cc1c([N-]S(=O)(=O)c2ccc([O-])c(S(=O)(=O)c3ccnc(N4CCOCC4)c3)c2)c(=O)n(O)n1C (nonaromatic ring conformer: 104.8705719432544 kcal/mol)

>  <smiles>  (17) 
Cc1c(NS(=O)(=O)c2ccc(O)c(S(=O)(=O)c3ccnc(N4CCOCC4)c3)c2)c(=O)n(O)n1C

>  <score_type>  (17) 
oracle

>  <origin>  (17) 
adgpu

>  <m_score__min__energy>  (17) 
-12.57

>  <m_primary>  (17) 
energy

$$$$
17:0
     RDKit          3D

 68 71  0  0  0  0  0  0  0  0999 V2000
    0.4700   20.3610  -28.2100 C   0  0  0  0  0  0  0  0  0  0  0  0
   -0.3690   21.5330  -28.6480 C   0  0  0  0  0  0  0  0  0  0  0  0
   -0.7400   22.4840  -27.6820 C   0  0  0  0  0  0  0  0  0  0  0  0
   -1.5160   23.5890  -28.0310 C   0  0  0  0  0  0  0  0  0  0  0  0
   -1.9260   23.7790  -29.3510 C   0  0  0  0  0  0  0  0  0  0  0  0
   -2.7360   24.9200  -29.6620 N   0  0  0  0  0  0  0  0  0  0  0  0
   -3.9220   24.9300  -30.4680 C   0  0  0  0  0  0  0  0  0  0  0  0
   -4.6520   25.9550  -30.5190 O   0  0  0  0  0  0  0  0  0  0  0  0
   -4.2880   23.7810  -31.2390 N   0  0  0  0  0  0  0  0  0  0  0  0
   -5.6180   23.2690  -31.4140 C   0  0  0  0  0  0  0  0  0  0  0  0
   -6.7310   24.1160  -31.4120 C   0  0  0  0  0  0  0  0  0  0  0  0
   -8.0090   23.5970  -31.5950 C   0  0  0  0  0  0  0  0  0  0  0  0
   -8.2070   22.2250  -31.8190 C   0  0  0  0  0  0  0  0  0  0  0  0
   -9.6240   21.7300  -31.9490 C   0  0  0  0  0  0  0  0  0  0  0  0
   -7.0790   21.3550  -31.8600 C   0  0  0  0  0  0  0  0  0  0  0  0
   -7.2340   19.6020  -32.1730 S   0  0  0  0  0  0  0  0  0  0  0  0
   -7.5820   18.9010  -30.8890 O   0  0  0  0  0  0  0  0  0  0  0  0
   -8.3480   19.3270  -33.1410 O   0  0  0  0  0  0  0  0  0  0  0  0
   -5.7170   18.8840  -32.8220 C   0  0  1  0  0  0  0  0  0  0  0  0
   -5.3670   17.5400  -32.1250 C   0  0  0  0  0  0  0  0  0  0  0  0
   -4.2910   16.7540  -32.9120 C   0  0  2  0  0  0  0  0  0  0  0  0
   -3.0200   17.5970  -33.1100 C   0  0  0  0  0  0  0  0  0  0  0  0
   -3.2520   18.3140  -34.4390 C   0  0  0  0  0  0  0  0  0  0  0  0
   -4.6370   17.8220  -34.8920 C   0  0  2  0  0  0  0  0  0  0  0  0
   -5.7600   18.7510  -34.3710 C   0  0  0  0  0  0  0  0  0  0  0  0
   -4.8420   16.5200  -34.2500 N   0  0  0  0  0  0  0  0  0  0  0  0
   -4.1510   15.4280  -34.9600 C   0  0  0  0  0  0  0  0  0  0  0  0
   -5.7920   21.8990  -31.6490 C   0  0  0  0  0  0  0  0  0  0  0  0
   -4.6680   21.0790  -31.6560 O   0  0  0  0  0  0  0  0  0  0  0  0
   -1.5940   22.8160  -30.3170 C   0  0  0  0  0  0  0  0  0  0  0  0
   -0.8250   21.6900  -29.9830 C   0  0  0  0  0  0  0  0  0  0  0  0
   -0.4620   20.5440  -31.2920 S   0  0  0  0  0  0  0  0  0  0  0  0
    0.9600   20.0580  -31.2370 O   0  0  0  0  0  0  0  0  0  0  0  0
   -1.3620   19.3500  -31.1260 O   0  0  0  0  0  0  0  0  0  0  0  0
   -0.7840   21.2940  -32.8370 N   0  0  0  0  0  0  0  0  0  0  0  0
    0.0140   20.6410  -33.8800 C   0  0  0  0  0  0  0  0  0  0  0  0
   -2.2150   21.1730  -33.1480 C   0  0  0  0  0  0  0  0  0  0  0  0
    0.4987   20.3209  -27.1111 H   0  0  0  0  0  0  0  0  0  0  0  0
    0.0317   19.4303  -28.5995 H   0  0  0  0  0  0  0  0  0  0  0  0
    1.4923   20.4759  -28.5995 H   0  0  0  0  0  0  0  0  0  0  0  0
   -0.4147   22.3554  -26.6391 H   0  0  0  0  0  0  0  0  0  0  0  0
   -1.8072   24.3167  -27.2592 H   0  0  0  0  0  0  0  0  0  0  0  0
   -6.5954   25.1977  -31.2650 H   0  0  0  0  0  0  0  0  0  0  0  0
   -8.8773   24.2716  -31.5637 H   0  0  0  0  0  0  0  0  0  0  0  0
  -10.0533   21.5800  -30.9474 H   0  0  0  0  0  0  0  0  0  0  0  0
  -10.2228   22.4722  -32.4972 H   0  0  0  0  0  0  0  0  0  0  0  0
   -9.6304   20.7764  -32.4972 H   0  0  0  0  0  0  0  0  0  0  0  0
   -4.9002   19.5818  -32.5857 H   0  0  0  0  0  0  0  0  0  0  0  0
   -6.2773   16.9265  -32.0548 H   0  0  0  0  0  0  0  0  0  0  0  0
   -4.9669   17.7646  -31.1253 H   0  0  0  0  0  0  0  0  0  0  0  0
   -4.0397   15.8335  -32.3647 H   0  0  0  0  0  0  0  0  0  0  0  0
   -2.1292   16.9539  -33.1635 H   0  0  0  0  0  0  0  0  0  0  0  0
   -2.8427   18.2953  -32.2788 H   0  0  0  0  0  0  0  0  0  0  0  0
   -2.4800   18.0374  -35.1722 H   0  0  0  0  0  0  0  0  0  0  0  0
   -3.2027   19.4087  -34.3431 H   0  0  0  0  0  0  0  0  0  0  0  0
   -4.6731   17.7891  -35.9909 H   0  0  0  0  0  0  0  0  0  0  0  0
   -6.7342   18.3349  -34.6671 H   0  0  0  0  0  0  0  0  0  0  0  0
   -5.6118   19.7498  -34.8074 H   0  0  0  0  0  0  0  0  0  0  0  0
   -3.7121   14.7344  -34.2276 H   0  0  0  0  0  0  0  0  0  0  0  0
   -4.8716   14.8872  -35.5910 H   0  0  0  0  0  0  0  0  0  0  0  0
   -3.3537   15.8477  -35.5910 H   0  0  0  0  0  0  0  0  0  0  0  0
   -1.9420   22.9458  -31.3524 H   0  0  0  0  0  0  0  0  0  0  0  0
    0.7843   20.0107  -33.4116 H   0  0  0  0  0  0  0  0  0  0  0  0
   -0.6407   20.0162  -34.5053 H   0  0  0  0  0  0  0  0  0  0  0  0
    0.4969   21.4064  -34.5053 H   0  0  0  0  0  0  0  0  0  0  0  0
   -2.7908   21.1243  -32.2120 H   0  0  0  0  0  0  0  0  0  0  0  0
   -2.5384   22.0470  -33.7324 H   0  0  0  0  0  0  0  0  0  0  0  0
   -2.3871   20.2571  -33.7324 H   0  0  0  0  0  0  0  0  0  0  0  0
  1  2  1  0
  2  3  2  0
  3  4  1  0
  4  5  2  0
  5  6  1  0
  6  7  1  0
  7  8  2  0
  7  9  1  0
  9 10  1  0
 10 11  2  0
 11 12  1  0
 12 13  2  0
 13 14  1  0
 13 15  1  0
 15 16  1  0
 16 17  2  0
 16 18  2  0
 16 19  1  0
 19 20  1  0
 20 21  1  0
 21 22  1  0
 22 23  1  0
 23 24  1  0
 24 25  1  0
 24 26  1  0
 26 27  1  0
 15 28  2  0
 28 29  1  0
  5 30  1  0
 30 31  2  0
 31 32  1  0
 32 33  2  0
 32 34  2  0
 32 35  1  0
 35 36  1  0
 35 37  1  0
 31  2  1  0
 28 10  1  0
 25 19  1  0
 26 21  1  0
  1 38  1  0
  1 39  1  0
  1 40  1  0
  3 41  1  0
  4 42  1  0
 11 43  1  0
 12 44  1  0
 14 45  1  0
 14 46  1  0
 14 47  1  0
 19 48  1  6
 20 49  1  0
 20 50  1  0
 21 51  1  1
 22 52  1  0
 22 53  1  0
 23 54  1  0
 23 55  1  0
 24 56  1  6
 25 57  1  0
 25 58  1  0
 27 59  1  0
 27 60  1  0
 27 61  1  0
 30 62  1  0
 36 63  1  0
 36 64  1  0
 36 65  1  0
 37 66  1  0
 37 67  1  0
 37 68  1  0
M  CHG  3   6  -1   9  -1  29  -1
M  END
>  <UniqueID>  (18) 
18

>  <SMILES>  (18) 
Cc1ccc([N-]C(=O)[N-]c2ccc(C)c(S(=O)(=O)C3C[C@H]4CC[C@@H](C3)N4C)c2[O-])cc1S(=O)(=O)N(C)C

>  <Energy>  (18) 
89.1362862381778

>  <Genealogy>  (18) 
Cc1ccc([N-]C(=O)[N-]c2ccc(C)c(S(=O)(=O)C3CC4CCC(C3)N4C)c2[O-])cc1S(=O)(=O)N(C)C (protonated)
Cc1ccc([N-]C(=O)[N-]c2ccc(C)c(S(=O)(=O)C3C[C@H]4CC[C@@H](C3)N4C)c2[O-])cc1S(=O)(=O)N(C)C (chirality)
Cc1ccc([N-]C(=O)[N-]c2ccc(C)c(S(=O)(=O)C3C[C@H]4CC[C@@H](C3)N4C)c2[O-])cc1S(=O)(=O)N(C)C (3D coordinates assigned)
Cc1ccc([N-]C(=O)[N-]c2ccc(C)c(S(=O)(=O)C3C[C@H]4CC[C@@H](C3)N4C)c2[O-])cc1S(=O)(=O)N(C)C (nonaromatic ring conformer: 89.1362862381778 kcal/mol)

>  <smiles>  (18) 
Cc1ccc(NC(=O)Nc2ccc(C)c(S(=O)(=O)C3CC4CCC(C3)N4C)c2O)cc1S(=O)(=O)N(C)C

>  <score_type>  (18) 
oracle

>  <origin>  (18) 
adgpu

>  <m_score__min__energy>  (18) 
-17.73

>  <m_primary>  (18) 
energy

$$$$
18:0
     RDKit          3D

 58 60  0  0  0  0  0  0  0  0999 V2000
   -0.2540   21.1510  -27.4680 C   0  0  0  0  0  0  0  0  0  0  0  0
    0.5500   22.3140  -27.7990 N   0  0  0  0  0  0  0  0  0  0  0  0
   -0.0000   23.6120  -28.0440 C   0  0  0  0  0  0  0  0  0  0  0  0
    0.7750   24.5890  -28.2110 O   0  0  0  0  0  0  0  0  0  0  0  0
   -1.4590   23.8270  -28.0940 C   0  0  0  0  0  0  0  0  0  0  0  0
   -2.0870   24.3750  -26.9670 C   0  0  0  0  0  0  0  0  0  0  0  0
   -3.4670   24.5580  -26.9480 C   0  0  0  0  0  0  0  0  0  0  0  0
   -4.2380   24.1720  -28.0420 C   0  0  0  0  0  0  0  0  0  0  0  0
   -3.6400   23.5980  -29.1720 C   0  0  0  0  0  0  0  0  0  0  0  0
   -4.4890   23.1770  -30.2510 N   0  0  0  0  0  0  0  0  0  0  0  0
   -5.0290   24.0910  -31.2140 C   0  0  0  0  0  0  0  0  0  0  0  0
   -4.7010   25.3100  -31.1920 O   0  0  0  0  0  0  0  0  0  0  0  0
   -5.8880   23.5910  -32.2430 N   0  0  0  0  0  0  0  0  0  0  0  0
   -7.0630   22.7870  -32.0540 C   0  0  0  0  0  0  0  0  0  0  0  0
   -8.3400   23.3670  -31.9790 C   0  0  0  0  0  0  0  0  0  0  0  0
   -9.4680   22.5590  -31.8220 C   0  0  0  0  0  0  0  0  0  0  0  0
   -9.3120   21.1760  -31.7390 C   0  0  0  0  0  0  0  0  0  0  0  0
   -8.0700   20.6280  -31.7930 N   0  0  0  0  0  0  0  0  0  0  0  0
   -6.9470   21.3860  -31.9270 C   0  0  0  0  0  0  0  0  0  0  0  0
   -5.7070   20.7370  -31.9940 O   0  0  0  0  0  0  0  0  0  0  0  0
   -5.4030   19.6730  -32.8550 C   0  0  0  0  0  0  0  0  0  0  0  0
   -6.4300   18.7890  -33.2400 C   0  0  0  0  0  0  0  0  0  0  0  0
   -6.1730   17.7330  -34.1060 C   0  0  0  0  0  0  0  0  0  0  0  0
   -4.8920   17.5480  -34.6070 C   0  0  0  0  0  0  0  0  0  0  0  0
   -3.8590   18.4140  -34.2440 C   0  0  0  0  0  0  0  0  0  0  0  0
   -4.0810   19.4990  -33.3580 C   0  0  0  0  0  0  0  0  0  0  0  0
   -2.9260   20.4450  -32.9280 C   0  0  0  0  0  0  0  0  0  0  0  0
   -3.3600   21.9190  -33.0880 C   0  0  0  0  0  0  0  0  0  0  0  0
   -2.5320   20.1740  -31.4570 C   0  0  0  0  0  0  0  0  0  0  0  0
   -1.6410   20.2560  -33.7770 C   0  0  0  0  0  0  0  0  0  0  0  0
   -2.2280   23.4640  -29.2290 C   0  0  0  0  0  0  0  0  0  0  0  0
   -1.5510   22.9050  -30.4610 C   0  0  0  0  0  0  0  0  0  0  0  0
   -0.3226   21.0518  -26.3746 H   0  0  0  0  0  0  0  0  0  0  0  0
   -1.2630   21.2708  -27.8893 H   0  0  0  0  0  0  0  0  0  0  0  0
    0.2146   20.2494  -27.8893 H   0  0  0  0  0  0  0  0  0  0  0  0
   -1.4856   24.6623  -26.0919 H   0  0  0  0  0  0  0  0  0  0  0  0
   -3.9492   25.0081  -26.0677 H   0  0  0  0  0  0  0  0  0  0  0  0
   -5.3278   24.3193  -28.0187 H   0  0  0  0  0  0  0  0  0  0  0  0
   -4.5220   22.1590  -30.4830 H   0  0  0  0  0  0  0  0  0  0  0  0
   -8.4517   24.4594  -32.0440 H   0  0  0  0  0  0  0  0  0  0  0  0
  -10.4700   23.0093  -31.7644 H   0  0  0  0  0  0  0  0  0  0  0  0
  -10.1945   20.5285  -31.6298 H   0  0  0  0  0  0  0  0  0  0  0  0
   -7.4480   18.9364  -32.8503 H   0  0  0  0  0  0  0  0  0  0  0  0
   -6.9824   17.0458  -34.3935 H   0  0  0  0  0  0  0  0  0  0  0  0
   -4.6894   16.7136  -35.2946 H   0  0  0  0  0  0  0  0  0  0  0  0
   -2.8513   18.2514  -34.6539 H   0  0  0  0  0  0  0  0  0  0  0  0
   -3.4933   22.3719  -32.0945 H   0  0  0  0  0  0  0  0  0  0  0  0
   -2.5863   22.4710  -33.6417 H   0  0  0  0  0  0  0  0  0  0  0  0
   -4.3094   21.9637  -33.6417 H   0  0  0  0  0  0  0  0  0  0  0  0
   -3.2512   20.6687  -30.7877 H   0  0  0  0  0  0  0  0  0  0  0  0
   -2.5413   19.0903  -31.2686 H   0  0  0  0  0  0  0  0  0  0  0  0
   -1.5233   20.5703  -31.2686 H   0  0  0  0  0  0  0  0  0  0  0  0
   -0.7760   20.1288  -33.1095 H   0  0  0  0  0  0  0  0  0  0  0  0
   -1.7487   19.3640  -34.4117 H   0  0  0  0  0  0  0  0  0  0  0  0
   -1.4874   21.1412  -34.4117 H   0  0  0  0  0  0  0  0  0  0  0  0
   -0.7357   22.2318  -30.1577 H   0  0  0  0  0  0  0  0  0  0  0  0
   -2.2844   22.3458  -31.0605 H   0  0  0  0  0  0  0  0  0  0  0  0
   -1.1407   23.7310  -31.0605 H   0  0  0  0  0  0  0  0  0  0  0  0
  1  2  1  0
  2  3  1  0
  3  4  2  0
  3  5  1  0
  5  6  2  0
  6  7  1  0
  7  8  2  0
  8  9  1  0
  9 10  1  0
 10 11  1  0
 11 12  2  0
 11 13  1  0
 13 14  1  0
 14 15  2  0
 15 16  1  0
 16 17  2  0
 17 18  1  0
 18 19  2  0
 19 20  1  0
 20 21  1  0
 21 22  2  0
 22 23  1  0
 23 24  2  0
 24 25  1  0
 25 26  2  0
 26 27  1  0
 27 28  1  0
 27 29  1  0
 27 30  1  0
  9 31  2  0
 31 32  1  0
 31  5  1  0
 19 14  1  0
 26 21  1  0
  1 33  1  0
  1 34  1  0
  1 35  1  0
  6 36  1  0
  7 37  1  0
  8 38  1  0
 10 39  1  0
 15 40  1  0
 16 41  1  0
 17 42  1  0
 22 43  1  0
 23 44  1  0
 24 45  1  0
 25 46  1  0
 28 47  1  0
 28 48  1  0
 28 49  1  0
 29 50  1  0
 29 51  1  0
 29 52  1  0
 30 53  1  0
 30 54  1  0
 30 55  1  0
 32 56  1  0
 32 57  1  0
 32 58  1  0
M  CHG  2   2  -1  13  -1
M  END
>  <UniqueID>  (19) 
19

>  <SMILES>  (19) 
C[N-]C(=O)c1cccc(NC(=O)[N-]c2cccnc2Oc2ccccc2C(C)(C)C)c1C

>  <Energy>  (19) 
87.42527054250345

>  <Genealogy>  (19) 
C[N-]C(=O)c1cccc(NC(=O)[N-]c2cccnc2Oc2ccccc2C(C)(C)C)c1C (protonated)
C[N-]C(=O)c1cccc(NC(=O)[N-]c2cccnc2Oc2ccccc2C(C)(C)C)c1C (3D coordinates assigned)
C[N-]C(=O)c1cccc(NC(=O)[N-]c2cccnc2Oc2ccccc2C(C)(C)C)c1C (optimized conformer: 87.42527054250345 kcal/mol)

>  <smiles>  (19) 
CNC(=O)c1cccc(NC(=O)Nc2cccnc2Oc2ccccc2C(C)(C)C)c1C

>  <score_type>  (19) 
oracle

>  <origin>  (19) 
adgpu

>  <m_score__min__energy>  (19) 
-10.960000000000001

>  <m_primary>  (19) 
energy

$$$$
19:0
     RDKit          3D

 61 64  0  0  0  0  0  0  0  0999 V2000
    0.2480   17.3770  -30.7090 C   0  0  0  0  0  0  0  0  0  0  0  0
    0.7970   17.2430  -29.3570 N   0  0  0  0  0  0  0  0  0  0  0  0
    1.9000   16.3140  -29.0960 C   0  0  0  0  0  0  0  0  0  0  0  0
    0.1600   17.9020  -28.2440 C   0  0  0  0  0  0  0  0  0  0  0  0
    0.1230   17.3260  -27.1220 O   0  0  0  0  0  0  0  0  0  0  0  0
   -0.4580   19.2390  -28.3800 C   0  0  0  0  0  0  0  0  0  0  0  0
   -1.6700   19.5410  -27.7350 C   0  0  0  0  0  0  0  0  0  0  0  0
   -2.2780   20.7850  -27.9200 C   0  0  0  0  0  0  0  0  0  0  0  0
   -1.6920   21.7380  -28.7650 C   0  0  0  0  0  0  0  0  0  0  0  0
   -2.3670   23.0350  -29.0030 C   0  0  0  0  0  0  0  0  0  0  0  0
   -3.2250   23.1970  -30.0480 C   0  0  0  0  0  0  0  0  0  0  0  0
   -3.7850   24.5520  -30.4420 C   0  0  0  0  0  0  0  0  0  0  0  0
   -5.2950   24.4910  -30.7660 C   0  0  0  0  0  0  0  0  0  0  0  0
   -5.7770   23.1280  -31.0950 N   0  0  0  0  0  0  0  0  0  0  0  0
   -7.0730   23.1760  -31.8050 C   0  0  0  0  0  0  0  0  0  0  0  0
   -7.6120   21.7780  -31.9690 C   0  0  0  0  0  0  0  0  0  0  0  0
   -8.6190   21.3120  -31.1050 C   0  0  0  0  0  0  0  0  0  0  0  0
   -9.1040   20.0060  -31.2280 C   0  0  0  0  0  0  0  0  0  0  0  0
   -8.5790   19.1530  -32.2040 C   0  0  0  0  0  0  0  0  0  0  0  0
   -7.5690   19.6060  -33.0610 C   0  0  0  0  0  0  0  0  0  0  0  0
   -7.0850   20.9130  -32.9460 C   0  0  0  0  0  0  0  0  0  0  0  0
   -4.7680   22.3710  -31.8610 C   0  0  0  0  0  0  0  0  0  0  0  0
   -3.6000   22.0230  -30.9350 C   0  0  0  0  0  0  0  0  0  0  0  0
   -2.1020   24.1100  -28.0210 C   0  0  0  0  0  0  0  0  0  0  0  0
   -2.9990   24.3400  -26.9650 C   0  0  0  0  0  0  0  0  0  0  0  0
   -2.7370   25.3430  -26.0260 C   0  0  0  0  0  0  0  0  0  0  0  0
   -1.5730   26.1110  -26.1260 C   0  0  0  0  0  0  0  0  0  0  0  0
   -1.2480   27.3680  -24.9500 Cl  0  0  0  0  0  0  0  0  0  0  0  0
   -0.6650   25.8710  -27.1660 C   0  0  0  0  0  0  0  0  0  0  0  0
   -0.9260   24.8710  -28.1070 C   0  0  0  0  0  0  0  0  0  0  0  0
   -0.4750   21.4470  -29.3960 C   0  0  0  0  0  0  0  0  0  0  0  0
    0.1300   20.2000  -29.2200 C   0  0  0  0  0  0  0  0  0  0  0  0
   -0.8189   17.6374  -30.6473 H   0  0  0  0  0  0  0  0  0  0  0  0
    0.7884   18.1696  -31.2473 H   0  0  0  0  0  0  0  0  0  0  0  0
    0.3624   16.4246  -31.2473 H   0  0  0  0  0  0  0  0  0  0  0  0
    2.0347   16.2006  -28.0102 H   0  0  0  0  0  0  0  0  0  0  0  0
    1.6680   15.3351  -29.5410 H   0  0  0  0  0  0  0  0  0  0  0  0
    2.8252   16.7090  -29.5410 H   0  0  0  0  0  0  0  0  0  0  0  0
   -2.1424   18.7934  -27.0808 H   0  0  0  0  0  0  0  0  0  0  0  0
   -3.2196   21.0176  -27.4010 H   0  0  0  0  0  0  0  0  0  0  0  0
   -3.6299   25.2544  -29.6098 H   0  0  0  0  0  0  0  0  0  0  0  0
   -3.2591   24.8824  -31.3499 H   0  0  0  0  0  0  0  0  0  0  0  0
   -5.8534   24.8556  -29.8912 H   0  0  0  0  0  0  0  0  0  0  0  0
   -5.4592   25.1150  -31.6569 H   0  0  0  0  0  0  0  0  0  0  0  0
   -7.7869   23.7777  -31.2234 H   0  0  0  0  0  0  0  0  0  0  0  0
   -6.9297   23.6308  -32.7963 H   0  0  0  0  0  0  0  0  0  0  0  0
   -9.0267   21.9772  -30.3296 H   0  0  0  0  0  0  0  0  0  0  0  0
   -9.8990   19.6495  -30.5566 H   0  0  0  0  0  0  0  0  0  0  0  0
   -8.9599   18.1254  -32.2983 H   0  0  0  0  0  0  0  0  0  0  0  0
   -7.1553   18.9327  -33.8262 H   0  0  0  0  0  0  0  0  0  0  0  0
   -6.2908   21.2656  -33.6205 H   0  0  0  0  0  0  0  0  0  0  0  0
   -5.2181   21.4462  -32.2510 H   0  0  0  0  0  0  0  0  0  0  0  0
   -4.4069   22.9789  -32.7036 H   0  0  0  0  0  0  0  0  0  0  0  0
   -3.8885   21.1727  -30.2996 H   0  0  0  0  0  0  0  0  0  0  0  0
   -2.7296   21.7686  -31.5576 H   0  0  0  0  0  0  0  0  0  0  0  0
   -3.9099   23.7298  -26.8762 H   0  0  0  0  0  0  0  0  0  0  0  0
   -3.4481   25.5279  -25.2073 H   0  0  0  0  0  0  0  0  0  0  0  0
    0.2543   26.4703  -27.2419 H   0  0  0  0  0  0  0  0  0  0  0  0
   -0.2073   24.6799  -28.9176 H   0  0  0  0  0  0  0  0  0  0  0  0
    0.0062   22.2039  -30.0328 H   0  0  0  0  0  0  0  0  0  0  0  0
    1.0708   19.9694  -29.7413 H   0  0  0  0  0  0  0  0  0  0  0  0
  1  2  1  0
  2  3  1  0
  2  4  1  0
  4  5  2  0
  4  6  1  0
  6  7  2  0
  7  8  1  0
  8  9  2  0
  9 10  1  0
 10 11  2  3
 11 12  1  0
 12 13  1  0
 13 14  1  0
 14 15  1  0
 15 16  1  0
 16 17  2  0
 17 18  1  0
 18 19  2  0
 19 20  1  0
 20 21  2  0
 14 22  1  0
 22 23  1  0
 10 24  1  0
 24 25  2  0
 25 26  1  0
 26 27  2  0
 27 28  1  0
 27 29  1  0
 29 30  2  0
  9 31  1  0
 31 32  2  0
 32  6  1  0
 23 11  1  0
 30 24  1  0
 21 16  1  0
  1 33  1  0
  1 34  1  0
  1 35  1  0
  3 36  1  0
  3 37  1  0
  3 38  1  0
  7 39  1  0
  8 40  1  0
 12 41  1  0
 12 42  1  0
 13 43  1  0
 13 44  1  0
 15 45  1  0
 15 46  1  0
 17 47  1  0
 18 48  1  0
 19 49  1  0
 20 50  1  0
 21 51  1  0
 22 52  1  0
 22 53  1  0
 23 54  1  0
 23 55  1  0
 25 56  1  0
 26 57  1  0
 29 58  1  0
 30 59  1  0
 31 60  1  0
 32 61  1  0
M  END
>  <UniqueID>  (20) 
20

>  <SMILES>  (20) 
CN(C)C(=O)c1ccc(C(=C2CCN(Cc3ccccc3)CC2)c2ccc(Cl)cc2)cc1

>  <Energy>  (20) 
89.19730043344975

>  <Genealogy>  (20) 
CN(C)C(=O)c1ccc(C(=C2CCN(Cc3ccccc3)CC2)c2ccc(Cl)cc2)cc1 (3D coordinates assigned)
CN(C)C(=O)c1ccc(C(=C2CCN(Cc3ccccc3)CC2)c2ccc(Cl)cc2)cc1 (nonaromatic ring conformer: 89.19730043344975 kcal/mol)

>  <smiles>  (20) 
CN(C)C(=O)c1ccc(C(=C2CCN(Cc3ccccc3)CC2)c2ccc(Cl)cc2)cc1

>  <score_type>  (20) 
oracle

>  <origin>  (20) 
adgpu

>  <m_score__min__energy>  (20) 
-10.06

>  <m_primary>  (20) 
energy

$$$$
20:0
     RDKit          3D

 49 51  0  0  0  0  0  0  0  0999 V2000
   -3.3110   17.8610  -34.3120 C   0  0  0  0  0  0  0  0  0  0  0  0
   -4.6060   18.3400  -33.7090 C   0  0  0  0  0  0  0  0  0  0  0  0
   -5.6960   17.4570  -33.6630 C   0  0  0  0  0  0  0  0  0  0  0  0
   -6.9070   17.8480  -33.0930 C   0  0  0  0  0  0  0  0  0  0  0  0
   -7.0570   19.1310  -32.5450 C   0  0  0  0  0  0  0  0  0  0  0  0
   -8.3460   19.5450  -31.9410 C   0  0  0  0  0  0  0  0  0  0  0  0
   -9.1140   18.6770  -31.4440 O   0  0  0  0  0  0  0  0  0  0  0  0
   -8.6950   20.9350  -31.8750 N   0  0  0  0  0  0  0  0  0  0  0  0
   -7.8470   22.0130  -31.4540 C   0  0  0  0  0  0  0  0  0  0  0  0
   -7.6600   22.3290  -30.0970 C   0  0  0  0  0  0  0  0  0  0  0  0
   -6.8430   23.4040  -29.7290 C   0  0  0  0  0  0  0  0  0  0  0  0
   -6.2100   24.1890  -30.7080 C   0  0  0  0  0  0  0  0  0  0  0  0
   -5.3440   25.3250  -30.3160 C   0  0  0  0  0  0  0  0  0  0  0  0
   -3.9450   25.3040  -30.6000 N   0  0  0  0  0  0  0  0  0  0  0  0
   -5.8340   26.3250  -29.7250 O   0  0  0  0  0  0  0  0  0  0  0  0
   -6.4210   23.8820  -32.0640 C   0  0  0  0  0  0  0  0  0  0  0  0
   -7.2390   22.8100  -32.4300 C   0  0  0  0  0  0  0  0  0  0  0  0
   -5.9640   20.0140  -32.5770 C   0  0  0  0  0  0  0  0  0  0  0  0
   -4.7380   19.6320  -33.1460 C   0  0  0  0  0  0  0  0  0  0  0  0
   -3.3920   20.7850  -33.1330 S   0  0  0  0  0  0  0  0  0  0  0  0
   -3.8950   22.1740  -33.4200 O   0  0  0  0  0  0  0  0  0  0  0  0
   -2.4120   20.3980  -34.2050 O   0  0  0  0  0  0  0  0  0  0  0  0
   -2.6090   20.7700  -31.5710 N   0  0  0  0  0  0  0  0  0  0  0  0
   -1.6490   21.8910  -31.4810 C   0  0  0  0  0  0  0  0  0  0  0  0
   -1.2640   22.1800  -30.0270 C   0  0  0  0  0  0  0  0  0  0  0  0
   -2.4920   22.6090  -29.2040 C   0  0  0  0  0  0  0  0  0  0  0  0
   -3.8130   22.0730  -29.7820 C   0  0  0  0  0  0  0  0  0  0  0  0
   -3.6070   20.7180  -30.4730 C   0  0  0  0  0  0  0  0  0  0  0  0
   -2.6066   17.6004  -33.5083 H   0  0  0  0  0  0  0  0  0  0  0  0
   -3.5021   16.9741  -34.9340 H   0  0  0  0  0  0  0  0  0  0  0  0
   -2.8789   18.6588  -34.9340 H   0  0  0  0  0  0  0  0  0  0  0  0
   -5.5938   16.4448  -34.0814 H   0  0  0  0  0  0  0  0  0  0  0  0
   -7.7523   17.1444  -33.0728 H   0  0  0  0  0  0  0  0  0  0  0  0
   -8.1579   21.7288  -29.3212 H   0  0  0  0  0  0  0  0  0  0  0  0
   -6.6949   23.6366  -28.6641 H   0  0  0  0  0  0  0  0  0  0  0  0
   -3.5140   26.0150  -31.2310 H   0  0  0  0  0  0  0  0  0  0  0  0
   -5.9382   24.4907  -32.8428 H   0  0  0  0  0  0  0  0  0  0  0  0
   -7.4064   22.5907  -33.4948 H   0  0  0  0  0  0  0  0  0  0  0  0
   -6.0706   21.0217  -32.1490 H   0  0  0  0  0  0  0  0  0  0  0  0
   -0.7420   21.6321  -32.0469 H   0  0  0  0  0  0  0  0  0  0  0  0
   -2.1256   22.7901  -31.8987 H   0  0  0  0  0  0  0  0  0  0  0  0
   -0.8328   21.2711  -29.5820 H   0  0  0  0  0  0  0  0  0  0  0  0
   -0.5315   23.0006  -30.0158 H   0  0  0  0  0  0  0  0  0  0  0  0
   -2.3776   22.2295  -28.1779 H   0  0  0  0  0  0  0  0  0  0  0  0
   -2.5407   23.7076  -29.2293 H   0  0  0  0  0  0  0  0  0  0  0  0
   -4.5394   21.9523  -28.9649 H   0  0  0  0  0  0  0  0  0  0  0  0
   -4.1840   22.7915  -30.5277 H   0  0  0  0  0  0  0  0  0  0  0  0
   -3.2641   19.9907  -29.7223 H   0  0  0  0  0  0  0  0  0  0  0  0
   -4.5698   20.4272  -30.9184 H   0  0  0  0  0  0  0  0  0  0  0  0
  1  2  1  0
  2  3  2  0
  3  4  1  0
  4  5  2  0
  5  6  1  0
  6  7  2  0
  6  8  1  0
  8  9  1  0
  9 10  2  0
 10 11  1  0
 11 12  2  0
 12 13  1  0
 13 14  1  0
 13 15  2  0
 12 16  1  0
 16 17  2  0
  5 18  1  0
 18 19  2  0
 19 20  1  0
 20 21  2  0
 20 22  2  0
 20 23  1  0
 23 24  1  0
 24 25  1  0
 25 26  1  0
 26 27  1  0
 27 28  1  0
 19  2  1  0
 28 23  1  0
 17  9  1  0
  1 29  1  0
  1 30  1  0
  1 31  1  0
  3 32  1  0
  4 33  1  0
 10 34  1  0
 11 35  1  0
 14 36  1  0
 16 37  1  0
 17 38  1  0
 18 39  1  0
 24 40  1  0
 24 41  1  0
 25 42  1  0
 25 43  1  0
 26 44  1  0
 26 45  1  0
 27 46  1  0
 27 47  1  0
 28 48  1  0
 28 49  1  0
M  CHG  2   8  -1  14  -1
M  END
>  <UniqueID>  (21) 
21

>  <SMILES>  (21) 
Cc1ccc(C(=O)[N-]c2ccc(C([NH-])=O)cc2)cc1S(=O)(=O)N1CCCCC1

>  <Energy>  (21) 
60.949048143480915

>  <Genealogy>  (21) 
Cc1ccc(C(=O)[N-]c2ccc(C([NH-])=O)cc2)cc1S(=O)(=O)N1CCCCC1 (protonated)
Cc1ccc(C(=O)[N-]c2ccc(C([NH-])=O)cc2)cc1S(=O)(=O)N1CCCCC1 (3D coordinates assigned)
Cc1ccc(C(=O)[N-]c2ccc(C([NH-])=O)cc2)cc1S(=O)(=O)N1CCCCC1 (nonaromatic ring conformer: 60.949048143480915 kcal/mol)

>  <smiles>  (21) 
Cc1ccc(C(=O)Nc2ccc(C(N)=O)cc2)cc1S(=O)(=O)N1CCCCC1

>  <score_type>  (21) 
oracle

>  <origin>  (21) 
adgpu

>  <m_score__min__energy>  (21) 
-12.109999999999999

>  <m_primary>  (21) 
energy

$$$$
21:0
     RDKit          3D

 51 54  0  0  0  0  0  0  0  0999 V2000
   -4.8701   26.7719  -30.2096 H   0  0  0  0  0  0  0  0  0  0  0  0
   -4.9760   25.7120  -30.4840 C   0  0  0  0  0  0  0  0  0  0  0  0
   -3.8920   24.8980  -30.4720 N   0  0  0  0  0  0  0  0  0  0  0  0
   -4.0130   23.5870  -30.8130 C   0  0  0  0  0  0  0  0  0  0  0  0
   -2.8580   22.7240  -30.8050 N   0  0  0  0  0  0  0  0  0  0  0  0
   -1.7770   22.9820  -29.8370 C   0  0  0  0  0  0  0  0  0  0  0  0
   -1.4510   24.0279  -29.9363 H   0  0  0  0  0  0  0  0  0  0  0  0
   -2.1656   22.7860  -28.8268 H   0  0  0  0  0  0  0  0  0  0  0  0
   -0.5770   22.0630  -30.0750 C   0  0  0  0  0  0  0  0  0  0  0  0
   -0.0443   22.3837  -30.9824 H   0  0  0  0  0  0  0  0  0  0  0  0
    0.1021   22.1172  -29.2114 H   0  0  0  0  0  0  0  0  0  0  0  0
   -1.0420   20.6820  -30.2440 N   0  0  0  0  0  0  0  0  0  0  0  0
   -0.4970   19.6200  -29.4370 C   0  0  0  0  0  0  0  0  0  0  0  0
   -1.0050   19.3710  -28.1500 C   0  0  0  0  0  0  0  0  0  0  0  0
   -1.8171   19.9972  -27.7520 H   0  0  0  0  0  0  0  0  0  0  0  0
   -0.4840   18.3320  -27.3730 C   0  0  0  0  0  0  0  0  0  0  0  0
   -0.8845   18.1450  -26.3657 H   0  0  0  0  0  0  0  0  0  0  0  0
    0.5450   17.5310  -27.8750 C   0  0  0  0  0  0  0  0  0  0  0  0
    1.0490   16.5230  -27.1200 F   0  0  0  0  0  0  0  0  0  0  0  0
    1.0530   17.7670  -29.1550 C   0  0  0  0  0  0  0  0  0  0  0  0
    1.8628   17.1356  -29.5494 H   0  0  0  0  0  0  0  0  0  0  0  0
    0.5340   18.8040  -29.9350 C   0  0  0  0  0  0  0  0  0  0  0  0
    0.9342   18.9828  -30.9439 H   0  0  0  0  0  0  0  0  0  0  0  0
   -2.1320   20.3910  -31.1870 C   0  0  0  0  0  0  0  0  0  0  0  0
   -1.7479   19.7379  -31.9845 H   0  0  0  0  0  0  0  0  0  0  0  0
   -2.9436   19.8999  -30.6301 H   0  0  0  0  0  0  0  0  0  0  0  0
   -2.6950   21.6710  -31.8210 C   0  0  0  0  0  0  0  0  0  0  0  0
   -2.0024   22.0238  -32.5994 H   0  0  0  0  0  0  0  0  0  0  0  0
   -3.6783   21.4465  -32.2600 H   0  0  0  0  0  0  0  0  0  0  0  0
   -5.2340   23.1050  -31.1640 N   0  0  0  0  0  0  0  0  0  0  0  0
   -6.3280   23.9120  -31.1670 C   0  0  0  0  0  0  0  0  0  0  0  0
   -7.4970   23.4650  -31.5210 N   0  0  0  0  0  0  0  0  0  0  0  0
   -7.8340   22.1080  -31.8550 C   0  0  0  0  0  0  0  0  0  0  0  0
   -9.1520   21.6260  -31.7710 C   0  0  0  0  0  0  0  0  0  0  0  0
   -9.9564   22.2878  -31.4174 H   0  0  0  0  0  0  0  0  0  0  0  0
   -9.4430   20.3100  -32.1350 C   0  0  0  0  0  0  0  0  0  0  0  0
  -10.4743   19.9356  -32.0566 H   0  0  0  0  0  0  0  0  0  0  0  0
   -8.4310   19.4670  -32.5980 C   0  0  0  0  0  0  0  0  0  0  0  0
   -8.6681   18.4299  -32.8775 H   0  0  0  0  0  0  0  0  0  0  0  0
   -7.1090   19.9370  -32.7090 C   0  0  0  0  0  0  0  0  0  0  0  0
   -6.0250   19.0620  -33.2210 C   0  0  0  0  0  0  0  0  0  0  0  0
   -5.1060   18.6950  -32.4390 O   0  0  0  0  0  0  0  0  0  0  0  0
   -6.0150   18.6100  -34.5840 N   0  0  0  0  0  0  0  0  0  0  0  0
   -6.8450   18.7650  -35.1980 H   0  0  0  0  0  0  0  0  0  0  0  0
   -4.8860   17.8670  -35.1320 C   0  0  0  0  0  0  0  0  0  0  0  0
   -4.2766   17.4660  -34.3087 H   0  0  0  0  0  0  0  0  0  0  0  0
   -5.2587   17.0371  -35.7503 H   0  0  0  0  0  0  0  0  0  0  0  0
   -4.2712   18.5376  -35.7503 H   0  0  0  0  0  0  0  0  0  0  0  0
   -6.8270   21.2680  -32.3520 C   0  0  0  0  0  0  0  0  0  0  0  0
   -5.8034   21.6550  -32.4641 H   0  0  0  0  0  0  0  0  0  0  0  0
   -6.1910   25.2210  -30.8340 N   0  0  0  0  0  0  0  0  0  0  0  0
  1  2  1  0
  2  3  2  0
  3  4  1  0
  4  5  1  0
  5  6  1  0
  6  7  1  0
  6  8  1  0
  6  9  1  0
  9 10  1  0
  9 11  1  0
  9 12  1  0
 12 13  1  0
 13 14  2  0
 14 15  1  0
 14 16  1  0
 16 17  1  0
 16 18  2  0
 18 19  1  0
 18 20  1  0
 20 21  1  0
 20 22  2  0
 22 23  1  0
 12 24  1  0
 24 25  1  0
 24 26  1  0
 24 27  1  0
 27 28  1  0
 27 29  1  0
  4 30  2  0
 30 31  1  0
 31 32  2  0
 32 33  1  0
 33 34  2  0
 34 35  1  0
 34 36  1  0
 36 37  1  0
 36 38  2  0
 38 39  1  0
 38 40  1  0
 40 41  1  0
 41 42  2  0
 41 43  1  0
 43 44  1  0
 43 45  1  0
 45 46  1  0
 45 47  1  0
 45 48  1  0
 40 49  2  0
 49 50  1  0
 31 51  1  0
 51  2  1  0
 27  5  1  0
 49 33  1  0
 22 13  1  0
M  CHG  1  51  -1
M  END
>  <UniqueID>  (22) 
22

>  <SMILES>  (22) 
CNC(=O)c1cccc(/N=c2\nc(N3CCN(c4ccc(F)cc4)CC3)nc[n-]2)c1

>  <Energy>  (22) 
65.73432316902323

>  <Genealogy>  (22) 
CNC(=O)c1cccc(N=c2nc(N3CCN(c4ccc(F)cc4)CC3)nc[n-]2)c1 (protonated)
CNC(=O)c1cccc(/N=c2\nc(N3CCN(c4ccc(F)cc4)CC3)nc[n-]2)c1 (cis-trans isomerization)
CNC(=O)c1cccc(/N=c2\nc(N3CCN(c4ccc(F)cc4)CC3)nc[n-]2)c1 (3D coordinates assigned)
CNC(=O)c1cccc(/N=c2\nc(N3CCN(c4ccc(F)cc4)CC3)nc[n-]2)c1 (nonaromatic ring conformer: 65.73432316902323 kcal/mol)

>  <smiles>  (22) 
CNC(=O)c1cccc(N=c2nc(N3CCN(c4ccc(F)cc4)CC3)nc[nH]2)c1

>  <score_type>  (22) 
oracle

>  <origin>  (22) 
adgpu

>  <m_score__min__energy>  (22) 
-10.08

>  <m_primary>  (22) 
energy

$$$$
22:0
     RDKit          3D

 42 43  0  0  0  0  0  0  0  0999 V2000
   -2.3750   20.5680  -27.3240 C   0  0  0  0  0  0  0  0  0  0  0  0
   -3.1080   21.0620  -28.5420 C   0  0  0  0  0  0  0  0  0  0  0  0
   -2.6890   22.4500  -28.8690 C   0  0  0  0  0  0  0  0  0  0  0  0
   -1.5230   22.9710  -28.4410 N   0  0  0  0  0  0  0  0  0  0  0  0
   -1.1500   24.2400  -28.7440 C   0  0  0  0  0  0  0  0  0  0  0  0
   -0.0120   24.6240  -28.2820 N   0  0  0  0  0  0  0  0  0  0  0  0
   -1.9180   25.0570  -29.4890 N   0  0  0  0  0  0  0  0  0  0  0  0
   -3.0860   24.5540  -29.9270 C   0  0  0  0  0  0  0  0  0  0  0  0
   -3.8540   25.3000  -30.6450 N   0  0  0  0  0  0  0  0  0  0  0  0
   -3.5110   23.2730  -29.6470 C   0  0  0  0  0  0  0  0  0  0  0  0
   -4.7890   22.8200  -30.1680 C   0  0  0  0  0  0  0  0  0  0  0  0
   -5.8960   23.6110  -29.8410 C   0  0  0  0  0  0  0  0  0  0  0  0
   -7.1730   23.2680  -30.2830 C   0  0  0  0  0  0  0  0  0  0  0  0
   -7.2390   22.1430  -31.0280 N   0  0  0  0  0  0  0  0  0  0  0  0
   -6.1830   21.3870  -31.3420 C   0  0  0  0  0  0  0  0  0  0  0  0
   -6.3640   20.2180  -32.1330 N   0  0  0  0  0  0  0  0  0  0  0  0
   -7.6220   19.7960  -32.6810 C   0  0  0  0  0  0  0  0  0  0  0  0
   -8.5130   19.0450  -31.7550 C   0  0  0  0  0  0  0  0  0  0  0  0
   -5.2000   19.3680  -32.4270 C   0  0  0  0  0  0  0  0  0  0  0  0
   -5.2100   18.9440  -33.8740 C   0  0  0  0  0  0  0  0  0  0  0  0
   -4.9700   21.7330  -30.9090 N   0  0  0  0  0  0  0  0  0  0  0  0
   -2.8925   20.9167  -26.4181 H   0  0  0  0  0  0  0  0  0  0  0  0
   -2.3503   19.4683  -27.3318 H   0  0  0  0  0  0  0  0  0  0  0  0
   -1.3464   20.9579  -27.3318 H   0  0  0  0  0  0  0  0  0  0  0  0
   -2.8807   20.4042  -29.3938 H   0  0  0  0  0  0  0  0  0  0  0  0
   -4.1887   21.0536  -28.3370 H   0  0  0  0  0  0  0  0  0  0  0  0
   -0.9170   22.3520  -27.8630 H   0  0  0  0  0  0  0  0  0  0  0  0
    0.3600   25.5810  -28.4610 H   0  0  0  0  0  0  0  0  0  0  0  0
   -1.6180   26.0410  -29.7200 H   0  0  0  0  0  0  0  0  0  0  0  0
   -3.5490   26.2790  -30.8690 H   0  0  0  0  0  0  0  0  0  0  0  0
   -5.7571   24.5138  -29.2281 H   0  0  0  0  0  0  0  0  0  0  0  0
   -8.0620   23.8696  -30.0426 H   0  0  0  0  0  0  0  0  0  0  0  0
   -8.1626   20.6938  -33.0154 H   0  0  0  0  0  0  0  0  0  0  0  0
   -7.3744   19.0947  -33.4915 H   0  0  0  0  0  0  0  0  0  0  0  0
   -8.2391   19.2758  -30.7149 H   0  0  0  0  0  0  0  0  0  0  0  0
   -9.5580   19.3388  -31.9329 H   0  0  0  0  0  0  0  0  0  0  0  0
   -8.4003   17.9653  -31.9329 H   0  0  0  0  0  0  0  0  0  0  0  0
   -4.2783   19.9319  -32.2210 H   0  0  0  0  0  0  0  0  0  0  0  0
   -5.2443   18.4707  -31.7922 H   0  0  0  0  0  0  0  0  0  0  0  0
   -5.2359   17.8460  -33.9342 H   0  0  0  0  0  0  0  0  0  0  0  0
   -6.0986   19.3595  -34.3717 H   0  0  0  0  0  0  0  0  0  0  0  0
   -4.3028   19.3172  -34.3717 H   0  0  0  0  0  0  0  0  0  0  0  0
  1  2  1  0
  2  3  1  0
  3  4  1  0
  4  5  1  0
  5  6  2  3
  5  7  1  0
  7  8  1  0
  8  9  2  3
  8 10  1  0
 10 11  1  0
 11 12  2  0
 12 13  1  0
 13 14  2  0
 14 15  1  0
 15 16  1  0
 16 17  1  0
 17 18  1  0
 16 19  1  0
 19 20  1  0
 15 21  2  0
 10  3  2  0
 21 11  1  0
  1 22  1  0
  1 23  1  0
  1 24  1  0
  2 25  1  0
  2 26  1  0
  4 27  1  0
  6 28  1  0
  7 29  1  0
  9 30  1  0
 12 31  1  0
 13 32  1  0
 17 33  1  0
 17 34  1  0
 18 35  1  0
 18 36  1  0
 18 37  1  0
 19 38  1  0
 19 39  1  0
 20 40  1  0
 20 41  1  0
 20 42  1  0
M  END
>  <smiles>  (23) 
CCc1[nH]c(=N)[nH]c(=N)c1-c1ccnc(N(CC)CC)n1

>  <score_type>  (23) 
oracle

>  <origin>  (23) 
adgpu

>  <m_score__min__energy>  (23) 
-7.0999999999999996

>  <m_primary>  (23) 
energy

$$$$
23:0
     RDKit          3D

 58 61  0  0  0  0  0  0  0  0999 V2000
   -3.5250   25.2960  -30.1910 O   0  0  0  0  0  0  0  0  0  0  0  0
   -3.6020   24.0730  -30.4820 C   0  0  0  0  0  0  0  0  0  0  0  0
   -4.4130   23.6820  -31.5980 N   0  0  0  0  0  0  0  0  0  0  0  0
   -5.6290   22.9340  -31.4960 C   0  0  0  0  0  0  0  0  0  0  0  0
   -5.7670   21.7180  -32.1810 C   0  0  0  0  0  0  0  0  0  0  0  0
   -6.9610   20.9880  -32.0920 C   0  0  0  0  0  0  0  0  0  0  0  0
   -7.1480   19.4800  -32.9890 S   0  0  0  0  0  0  0  0  0  0  0  0
   -6.8340   19.7100  -34.4410 O   0  0  0  0  0  0  0  0  0  0  0  0
   -8.5870   19.0460  -32.8850 O   0  0  0  0  0  0  0  0  0  0  0  0
   -6.1170   18.2290  -32.3270 N   0  0  0  0  0  0  0  0  0  0  0  0
   -4.6840   18.5490  -32.4760 C   0  0  0  0  0  0  0  0  0  0  0  0
   -4.1570   18.3360  -33.9090 C   0  0  0  0  0  0  0  0  0  0  0  0
   -4.7560   17.0990  -34.6000 C   0  0  0  0  0  0  0  0  0  0  0  0
   -5.4070   16.1490  -33.6010 C   0  0  0  0  0  0  0  0  0  0  0  0
   -6.5050   16.8780  -32.8090 C   0  0  0  0  0  0  0  0  0  0  0  0
   -8.0180   21.4780  -31.3120 C   0  0  0  0  0  0  0  0  0  0  0  0
   -7.8880   22.6940  -30.6400 C   0  0  0  0  0  0  0  0  0  0  0  0
   -6.7010   23.4310  -30.7390 C   0  0  0  0  0  0  0  0  0  0  0  0
   -6.5680   24.9580  -29.8890 Cl  0  0  0  0  0  0  0  0  0  0  0  0
   -2.9180   23.0510  -29.6000 C   0  0  0  0  0  0  0  0  0  0  0  0
   -2.9150   23.5230  -28.1400 C   0  0  0  0  0  0  0  0  0  0  0  0
   -2.1720   22.5180  -27.2440 C   0  0  0  0  0  0  0  0  0  0  0  0
   -0.8140   22.2020  -27.7280 N   0  0  0  0  0  0  0  0  0  0  0  0
    0.3540   23.4550  -27.3620 S   0  0  0  0  0  0  0  0  0  0  0  0
    0.7440   24.2220  -28.5960 O   0  0  0  0  0  0  0  0  0  0  0  0
    1.5910   22.8410  -26.7700 O   0  0  0  0  0  0  0  0  0  0  0  0
   -0.3270   24.5610  -26.1840 C   0  0  0  0  0  0  0  0  0  0  0  0
   -0.1550   24.4970  -24.8070 C   0  0  0  0  0  0  0  0  0  0  0  0
   -0.7790   25.5560  -24.1330 C   0  0  0  0  0  0  0  0  0  0  0  0
   -1.4310   26.4500  -24.9780 C   0  0  0  0  0  0  0  0  0  0  0  0
   -1.2300   25.9260  -26.5660 S   0  0  0  0  0  0  0  0  0  0  0  0
   -0.7830   21.7870  -29.1430 C   0  0  0  0  0  0  0  0  0  0  0  0
   -1.4840   22.7860  -30.0770 C   0  0  0  0  0  0  0  0  0  0  0  0
   -4.9352   21.3353  -32.7906 H   0  0  0  0  0  0  0  0  0  0  0  0
   -4.5313   19.6031  -32.2010 H   0  0  0  0  0  0  0  0  0  0  0  0
   -4.1274   17.8642  -31.8192 H   0  0  0  0  0  0  0  0  0  0  0  0
   -4.4049   19.2248  -34.5079 H   0  0  0  0  0  0  0  0  0  0  0  0
   -3.0713   18.1748  -33.8363 H   0  0  0  0  0  0  0  0  0  0  0  0
   -5.5157   17.4290  -35.3239 H   0  0  0  0  0  0  0  0  0  0  0  0
   -3.9388   16.5593  -35.1009 H   0  0  0  0  0  0  0  0  0  0  0  0
   -5.8523   15.3018  -34.1431 H   0  0  0  0  0  0  0  0  0  0  0  0
   -4.6406   15.7868  -32.8999 H   0  0  0  0  0  0  0  0  0  0  0  0
   -7.3859   16.9841  -33.4592 H   0  0  0  0  0  0  0  0  0  0  0  0
   -6.7045   16.2698  -31.9144 H   0  0  0  0  0  0  0  0  0  0  0  0
   -8.9519   20.9026  -31.2296 H   0  0  0  0  0  0  0  0  0  0  0  0
   -8.7206   23.0751  -30.0304 H   0  0  0  0  0  0  0  0  0  0  0  0
   -3.4816   22.1087  -29.6672 H   0  0  0  0  0  0  0  0  0  0  0  0
   -2.4145   24.5006  -28.0778 H   0  0  0  0  0  0  0  0  0  0  0  0
   -3.9557   23.6035  -27.7928 H   0  0  0  0  0  0  0  0  0  0  0  0
   -2.0927   22.9431  -26.2326 H   0  0  0  0  0  0  0  0  0  0  0  0
   -2.7491   21.5816  -27.2541 H   0  0  0  0  0  0  0  0  0  0  0  0
    0.4101   23.7010  -24.3000 H   0  0  0  0  0  0  0  0  0  0  0  0
   -0.7557   25.6700  -23.0392 H   0  0  0  0  0  0  0  0  0  0  0  0
   -1.9839   27.3469  -24.6619 H   0  0  0  0  0  0  0  0  0  0  0  0
    0.2668   21.6906  -29.4572 H   0  0  0  0  0  0  0  0  0  0  0  0
   -1.3232   20.8317  -29.2177 H   0  0  0  0  0  0  0  0  0  0  0  0
   -0.9232   23.7323  -30.0816 H   0  0  0  0  0  0  0  0  0  0  0  0
   -1.5188   22.3613  -31.0911 H   0  0  0  0  0  0  0  0  0  0  0  0
  1  2  2  0
  2  3  1  0
  3  4  1  0
  4  5  2  0
  5  6  1  0
  6  7  1  0
  7  8  2  0
  7  9  2  0
  7 10  1  0
 10 11  1  0
 11 12  1  0
 12 13  1  0
 13 14  1  0
 14 15  1  0
  6 16  2  0
 16 17  1  0
 17 18  2  0
 18 19  1  0
  2 20  1  0
 20 21  1  0
 21 22  1  0
 22 23  1  0
 23 24  1  0
 24 25  2  0
 24 26  2  0
 24 27  1  0
 27 28  2  0
 28 29  1  0
 29 30  2  0
 30 31  1  0
 23 32  1  0
 32 33  1  0
 18  4  1  0
 33 20  1  0
 15 10  1  0
 31 27  1  0
  5 34  1  0
 11 35  1  0
 11 36  1  0
 12 37  1  0
 12 38  1  0
 13 39  1  0
 13 40  1  0
 14 41  1  0
 14 42  1  0
 15 43  1  0
 15 44  1  0
 16 45  1  0
 17 46  1  0
 20 47  1  0
 21 48  1  0
 21 49  1  0
 22 50  1  0
 22 51  1  0
 28 52  1  0
 29 53  1  0
 30 54  1  0
 32 55  1  0
 32 56  1  0
 33 57  1  0
 33 58  1  0
M  CHG  1   3  -1
M  END
>  <UniqueID>  (24) 
23

>  <SMILES>  (24) 
O=C([N-]c1cc(S(=O)(=O)N2CCCCC2)ccc1Cl)C1CCN(S(=O)(=O)c2cccs2)CC1

>  <Energy>  (24) 
96.71693979800946

>  <Genealogy>  (24) 
O=C([N-]c1cc(S(=O)(=O)N2CCCCC2)ccc1Cl)C1CCN(S(=O)(=O)c2cccs2)CC1 (protonated)
O=C([N-]c1cc(S(=O)(=O)N2CCCCC2)ccc1Cl)C1CCN(S(=O)(=O)c2cccs2)CC1 (3D coordinates assigned)
O=C([N-]c1cc(S(=O)(=O)N2CCCCC2)ccc1Cl)C1CCN(S(=O)(=O)c2cccs2)CC1 (nonaromatic ring conformer: 96.71693979800946 kcal/mol)

>  <smiles>  (24) 
O=C(Nc1cc(S(=O)(=O)N2CCCCC2)ccc1Cl)C1CCN(S(=O)(=O)c2cccs2)CC1

>  <score_type>  (24) 
oracle

>  <origin>  (24) 
adgpu

>  <m_score__min__energy>  (24) 
-12.609999999999999

>  <m_primary>  (24) 
energy

$$$$
24:0
     RDKit          3D

 37 39  0  0  0  0  0  0  0  0999 V2000
   -0.9500   19.8570  -34.9600 O   0  0  0  0  0  0  0  0  0  0  0  0
   -0.4160   20.8810  -34.4600 C   0  0  0  0  0  0  0  0  0  0  0  0
   -0.7860   21.2760  -33.1330 N   0  0  0  0  0  0  0  0  0  0  0  0
   -2.1090   21.2160  -32.5780 C   0  0  0  0  0  0  0  0  0  0  0  0
   -2.7070   22.3580  -32.0140 C   0  0  0  0  0  0  0  0  0  0  0  0
   -3.9870   22.2850  -31.4530 C   0  0  0  0  0  0  0  0  0  0  0  0
   -4.7200   23.7240  -30.7540 S   0  0  0  0  0  0  0  0  0  0  0  0
   -5.7760   23.3060  -29.7710 O   0  0  0  0  0  0  0  0  0  0  0  0
   -5.3550   24.5710  -31.8220 O   0  0  0  0  0  0  0  0  0  0  0  0
   -3.5170   24.6620  -29.9280 N   0  0  0  0  0  0  0  0  0  0  0  0
   -2.5140   24.1350  -29.0480 C   0  0  0  0  0  0  0  0  0  0  0  0
   -2.6400   22.8670  -28.4490 C   0  0  0  0  0  0  0  0  0  0  0  0
   -1.6350   22.3830  -27.6060 C   0  0  0  0  0  0  0  0  0  0  0  0
   -0.4990   23.1560  -27.3540 C   0  0  0  0  0  0  0  0  0  0  0  0
   -0.3680   24.4160  -27.9410 C   0  0  0  0  0  0  0  0  0  0  0  0
   -1.3730   24.9080  -28.7830 C   0  0  0  0  0  0  0  0  0  0  0  0
   -1.2310   26.1660  -29.3550 O   0  0  0  0  0  0  0  0  0  0  0  0
   -4.6670   21.0620  -31.4340 C   0  0  0  0  0  0  0  0  0  0  0  0
   -4.0710   19.9190  -31.9730 C   0  0  0  0  0  0  0  0  0  0  0  0
   -2.7940   19.9860  -32.5400 C   0  0  0  0  0  0  0  0  0  0  0  0
   -2.2280   18.8240  -33.0630 O   0  0  0  0  0  0  0  0  0  0  0  0
    0.5230   21.6770  -35.2760 C   0  0  0  0  0  0  0  0  0  0  0  0
    0.3170   22.9480  -35.7870 C   0  0  0  0  0  0  0  0  0  0  0  0
    1.3680   23.3350  -36.5350 N   0  0  0  0  0  0  0  0  0  0  0  0
    2.2310   22.3040  -36.4910 C   0  0  0  0  0  0  0  0  0  0  0  0
    3.4570   22.3080  -37.1440 O   0  0  0  0  0  0  0  0  0  0  0  0
    1.7530   21.2580  -35.7350 C   0  0  0  0  0  0  0  0  0  0  0  0
   -2.1645   23.3149  -32.0140 H   0  0  0  0  0  0  0  0  0  0  0  0
   -3.5326   22.2548  -28.6450 H   0  0  0  0  0  0  0  0  0  0  0  0
   -1.7390   21.3918  -27.1404 H   0  0  0  0  0  0  0  0  0  0  0  0
    0.2922   22.7720  -26.6932 H   0  0  0  0  0  0  0  0  0  0  0  0
    0.5269   25.0238  -27.7416 H   0  0  0  0  0  0  0  0  0  0  0  0
   -5.6731   21.0004  -30.9937 H   0  0  0  0  0  0  0  0  0  0  0  0
   -4.6095   18.9601  -31.9513 H   0  0  0  0  0  0  0  0  0  0  0  0
   -1.3820   18.8350  -33.6190 H   0  0  0  0  0  0  0  0  0  0  0  0
   -0.5810   23.5571  -35.6067 H   0  0  0  0  0  0  0  0  0  0  0  0
    2.2466   20.2947  -35.5392 H   0  0  0  0  0  0  0  0  0  0  0  0
  1  2  2  0
  2  3  1  0
  3  4  1  0
  4  5  2  0
  5  6  1  0
  6  7  1  0
  7  8  2  0
  7  9  2  0
  7 10  1  0
 10 11  1  0
 11 12  2  0
 12 13  1  0
 13 14  2  0
 14 15  1  0
 15 16  2  0
 16 17  1  0
  6 18  2  0
 18 19  1  0
 19 20  2  0
 20 21  1  0
  2 22  1  0
 22 23  2  0
 23 24  1  0
 24 25  1  0
 25 26  1  0
 25 27  2  0
 20  4  1  0
 27 22  1  0
 16 11  1  0
  5 28  1  0
 12 29  1  0
 13 30  1  0
 14 31  1  0
 15 32  1  0
 18 33  1  0
 19 34  1  0
 21 35  1  0
 23 36  1  0
 27 37  1  0
M  CHG  5   3  -1  10  -1  17  -1  24  -1  26  -1
M  END
>  <UniqueID>  (25) 
24

>  <SMILES>  (25) 
O=C([N-]c1cc(S(=O)(=O)[N-]c2ccccc2[O-])ccc1O)c1c[n-]c([O-])c1

>  <Energy>  (25) 
70.89832179619602

>  <Genealogy>  (25) 
O=C([N-]c1cc(S(=O)(=O)[N-]c2ccccc2[O-])ccc1O)c1c[n-]c([O-])c1 (protonated)
O=C([N-]c1cc(S(=O)(=O)[N-]c2ccccc2[O-])ccc1O)c1c[n-]c([O-])c1 (3D coordinates assigned)
O=C([N-]c1cc(S(=O)(=O)[N-]c2ccccc2[O-])ccc1O)c1c[n-]c([O-])c1 (optimized conformer: 70.89832179619602 kcal/mol)

>  <smiles>  (25) 
O=C(Nc1cc(S(=O)(=O)Nc2ccccc2O)ccc1O)c1c[nH]c(O)c1

>  <score_type>  (25) 
oracle

>  <origin>  (25) 
adgpu

>  <m_score__min__energy>  (25) 
-13.890000000000001

>  <m_primary>  (25) 
energy

$$$$
25:0
     RDKit          3D

 56 59  0  0  0  0  0  0  0  0999 V2000
   -1.1530   25.3880  -28.8770 O   0  0  0  0  0  0  0  0  0  0  0  0
   -2.3870   24.5360  -28.7930 S   0  0  0  0  0  0  0  0  0  0  0  0
   -3.0910   24.8170  -27.4950 O   0  0  0  0  0  0  0  0  0  0  0  0
   -3.4470   24.9350  -30.1090 N   0  0  0  0  0  0  0  0  0  0  0  0
   -4.6790   24.2450  -30.3860 C   0  0  0  0  0  0  0  0  0  0  0  0
   -4.7200   22.8460  -30.2710 C   0  0  0  0  0  0  0  0  0  0  0  0
   -5.9030   22.1460  -30.5240 C   0  0  0  0  0  0  0  0  0  0  0  0
   -7.0630   22.8350  -30.8970 C   0  0  0  0  0  0  0  0  0  0  0  0
   -8.5390   21.9430  -31.2420 S   0  0  0  0  0  0  0  0  0  0  0  0
   -9.3950   21.9010  -30.0070 O   0  0  0  0  0  0  0  0  0  0  0  0
   -9.3190   22.6220  -32.3330 O   0  0  0  0  0  0  0  0  0  0  0  0
   -8.1140   20.3140  -31.7540 C   0  0  0  0  0  0  0  0  0  0  0  0
   -8.8470   19.2070  -31.3040 C   0  0  0  0  0  0  0  0  0  0  0  0
   -8.4870   17.9190  -31.7060 C   0  0  0  0  0  0  0  0  0  0  0  0
   -7.3950   17.7270  -32.5540 C   0  0  0  0  0  0  0  0  0  0  0  0
   -6.6530   18.8280  -33.0060 C   0  0  0  0  0  0  0  0  0  0  0  0
   -5.2720   18.5880  -34.0790 S   0  0  0  0  0  0  0  0  0  0  0  0
   -4.6890   17.2230  -33.8380 O   0  0  0  0  0  0  0  0  0  0  0  0
   -5.7410   18.6460  -35.5070 O   0  0  0  0  0  0  0  0  0  0  0  0
   -4.0370   19.7960  -33.8290 N   0  0  0  0  0  0  0  0  0  0  0  0
   -2.7180   19.2780  -34.2300 C   0  0  0  0  0  0  0  0  0  0  0  0
   -1.5980   20.2510  -33.8060 C   0  0  0  0  0  0  0  0  0  0  0  0
   -2.1330   21.4900  -33.3810 O   0  0  0  0  0  0  0  0  0  0  0  0
   -2.9230   21.2990  -32.2200 C   0  0  0  0  0  0  0  0  0  0  0  0
   -4.0070   20.2190  -32.4210 C   0  0  0  0  0  0  0  0  0  0  0  0
   -7.0150   20.1200  -32.6000 C   0  0  0  0  0  0  0  0  0  0  0  0
   -7.0270   24.2280  -31.0310 C   0  0  0  0  0  0  0  0  0  0  0  0
   -5.8450   24.9300  -30.7780 C   0  0  0  0  0  0  0  0  0  0  0  0
   -1.9140   22.8420  -28.8910 C   0  0  0  0  0  0  0  0  0  0  0  0
   -0.9190   22.4350  -29.7910 C   0  0  0  0  0  0  0  0  0  0  0  0
   -0.5400   21.0900  -29.8570 C   0  0  0  0  0  0  0  0  0  0  0  0
   -1.1560   20.1470  -29.0290 C   0  0  0  0  0  0  0  0  0  0  0  0
   -2.1550   20.5480  -28.1350 C   0  0  0  0  0  0  0  0  0  0  0  0
   -2.5350   21.8930  -28.0680 C   0  0  0  0  0  0  0  0  0  0  0  0
   -3.1140   25.6650  -30.7790 H   0  0  0  0  0  0  0  0  0  0  0  0
   -3.8130   22.2962  -29.9792 H   0  0  0  0  0  0  0  0  0  0  0  0
   -5.9225   21.0502  -30.4297 H   0  0  0  0  0  0  0  0  0  0  0  0
   -9.7067   19.3531  -30.6335 H   0  0  0  0  0  0  0  0  0  0  0  0
   -9.0660   17.0528  -31.3532 H   0  0  0  0  0  0  0  0  0  0  0  0
   -7.1159   16.7105  -32.8683 H   0  0  0  0  0  0  0  0  0  0  0  0
   -2.5511   18.3033  -33.7482 H   0  0  0  0  0  0  0  0  0  0  0  0
   -2.6979   19.1711  -35.3246 H   0  0  0  0  0  0  0  0  0  0  0  0
   -1.0275   19.8034  -32.9788 H   0  0  0  0  0  0  0  0  0  0  0  0
   -0.9454   20.4314  -34.6729 H   0  0  0  0  0  0  0  0  0  0  0  0
   -2.2669   20.9921  -31.3921 H   0  0  0  0  0  0  0  0  0  0  0  0
   -3.4312   22.2491  -31.9984 H   0  0  0  0  0  0  0  0  0  0  0  0
   -3.7798   19.3513  -31.7842 H   0  0  0  0  0  0  0  0  0  0  0  0
   -4.9878   20.6348  -32.1468 H   0  0  0  0  0  0  0  0  0  0  0  0
   -6.4327   20.9860  -32.9478 H   0  0  0  0  0  0  0  0  0  0  0  0
   -7.9326   24.7724  -31.3367 H   0  0  0  0  0  0  0  0  0  0  0  0
   -5.8257   26.0245  -30.8858 H   0  0  0  0  0  0  0  0  0  0  0  0
   -0.4356   23.1745  -30.4463 H   0  0  0  0  0  0  0  0  0  0  0  0
    0.2437   20.7740  -30.5613 H   0  0  0  0  0  0  0  0  0  0  0  0
   -0.8555   19.0901  -29.0802 H   0  0  0  0  0  0  0  0  0  0  0  0
   -2.6416   19.8059  -27.4849 H   0  0  0  0  0  0  0  0  0  0  0  0
   -3.3232   22.2062  -27.3675 H   0  0  0  0  0  0  0  0  0  0  0  0
  1  2  2  0
  2  3  2  0
  2  4  1  0
  4  5  1  0
  5  6  2  0
  6  7  1  0
  7  8  2  0
  8  9  1  0
  9 10  2  0
  9 11  2  0
  9 12  1  0
 12 13  2  0
 13 14  1  0
 14 15  2  0
 15 16  1  0
 16 17  1  0
 17 18  2  0
 17 19  2  0
 17 20  1  0
 20 21  1  0
 21 22  1  0
 22 23  1  0
 23 24  1  0
 24 25  1  0
 16 26  2  0
  8 27  1  0
 27 28  2  0
  2 29  1  0
 29 30  2  0
 30 31  1  0
 31 32  2  0
 32 33  1  0
 33 34  2  0
 28  5  1  0
 34 29  1  0
 26 12  1  0
 25 20  1  0
  4 35  1  0
  6 36  1  0
  7 37  1  0
 13 38  1  0
 14 39  1  0
 15 40  1  0
 21 41  1  0
 21 42  1  0
 22 43  1  0
 22 44  1  0
 24 45  1  0
 24 46  1  0
 25 47  1  0
 25 48  1  0
 26 49  1  0
 27 50  1  0
 28 51  1  0
 30 52  1  0
 31 53  1  0
 32 54  1  0
 33 55  1  0
 34 56  1  0
M  END
>  <UniqueID>  (26) 
25

>  <SMILES>  (26) 
O=S(=O)(Nc1ccc(S(=O)(=O)c2cccc(S(=O)(=O)N3CCOCC3)c2)cc1)c1ccccc1

>  <Energy>  (26) 
70.7735972561526

>  <Genealogy>  (26) 
O=S(=O)(Nc1ccc(S(=O)(=O)c2cccc(S(=O)(=O)N3CCOCC3)c2)cc1)c1ccccc1 (3D coordinates assigned)
O=S(=O)(Nc1ccc(S(=O)(=O)c2cccc(S(=O)(=O)N3CCOCC3)c2)cc1)c1ccccc1 (nonaromatic ring conformer: 70.7735972561526 kcal/mol)

>  <smiles>  (26) 
O=S(=O)(Nc1ccc(S(=O)(=O)c2cccc(S(=O)(=O)N3CCOCC3)c2)cc1)c1ccccc1

>  <score_type>  (26) 
oracle

>  <origin>  (26) 
adgpu

>  <m_score__min__energy>  (26) 
-11.56

>  <m_primary>  (26) 
energy

$$$$
26:0
     RDKit          3D

 45 48  0  0  0  0  0  0  0  0999 V2000
   -3.8660   24.5010  -27.2930 C   0  0  0  0  0  0  0  0  0  0  0  0
   -3.0590   23.6220  -28.2080 C   0  0  0  0  0  0  0  0  0  0  0  0
   -2.3750   22.5110  -27.6870 C   0  0  0  0  0  0  0  0  0  0  0  0
   -1.6110   21.6950  -28.5230 C   0  0  0  0  0  0  0  0  0  0  0  0
   -1.5240   21.9720  -29.8870 C   0  0  0  0  0  0  0  0  0  0  0  0
   -0.7590   21.1460  -30.7090 O   0  0  0  0  0  0  0  0  0  0  0  0
   -2.2050   23.0750  -30.4200 C   0  0  0  0  0  0  0  0  0  0  0  0
   -2.9740   23.9100  -29.5850 C   0  0  0  0  0  0  0  0  0  0  0  0
   -3.6810   25.0480  -30.1070 N   0  0  0  0  0  0  0  0  0  0  0  0
   -5.4040   25.1870  -30.2430 S   0  0  0  0  0  0  0  0  0  0  0  0
   -5.7350   26.2890  -31.2110 O   0  0  0  0  0  0  0  0  0  0  0  0
   -5.9800   25.5360  -28.8990 O   0  0  0  0  0  0  0  0  0  0  0  0
   -6.0790   23.6790  -30.8480 C   0  0  0  0  0  0  0  0  0  0  0  0
   -7.4830   23.4900  -30.9070 C   0  0  0  0  0  0  0  0  0  0  0  0
   -8.0220   22.2820  -31.3830 C   0  0  0  0  0  0  0  0  0  0  0  0
   -7.1290   21.2920  -31.7960 C   0  0  0  0  0  0  0  0  0  0  0  0
   -5.7780   21.4720  -31.7440 C   0  0  0  0  0  0  0  0  0  0  0  0
   -5.2110   22.6540  -31.2740 C   0  0  0  0  0  0  0  0  0  0  0  0
   -5.1380   20.3820  -32.1990 N   0  0  0  0  0  0  0  0  0  0  0  0
   -6.1550   19.5430  -32.5350 C   0  0  0  0  0  0  0  0  0  0  0  0
   -5.9060   18.1990  -33.0970 C   0  0  0  0  0  0  0  0  0  0  0  0
   -5.6100   17.1350  -32.2320 C   0  0  0  0  0  0  0  0  0  0  0  0
   -5.3580   15.8630  -32.7470 C   0  0  0  0  0  0  0  0  0  0  0  0
   -5.3890   15.6660  -34.1280 C   0  0  0  0  0  0  0  0  0  0  0  0
   -5.6480   16.7090  -34.9590 N   0  0  0  0  0  0  0  0  0  0  0  0
   -5.8960   17.9610  -34.4860 C   0  0  0  0  0  0  0  0  0  0  0  0
   -6.0900   18.9000  -35.3030 O   0  0  0  0  0  0  0  0  0  0  0  0
   -7.3870   20.0650  -32.2800 N   0  0  0  0  0  0  0  0  0  0  0  0
   -8.7000   19.4440  -32.4470 C   0  0  0  0  0  0  0  0  0  0  0  0
   -3.6360   24.2505  -26.2469 H   0  0  0  0  0  0  0  0  0  0  0  0
   -3.6146   25.5552  -27.4814 H   0  0  0  0  0  0  0  0  0  0  0  0
   -4.9378   24.3404  -27.4814 H   0  0  0  0  0  0  0  0  0  0  0  0
   -2.4419   22.2826  -26.6131 H   0  0  0  0  0  0  0  0  0  0  0  0
   -1.0755   20.8302  -28.1043 H   0  0  0  0  0  0  0  0  0  0  0  0
    0.0090   21.5120  -31.2590 H   0  0  0  0  0  0  0  0  0  0  0  0
   -2.1388   23.2902  -31.4967 H   0  0  0  0  0  0  0  0  0  0  0  0
   -8.1561   24.2953  -30.5776 H   0  0  0  0  0  0  0  0  0  0  0  0
   -9.1094   22.1226  -31.4284 H   0  0  0  0  0  0  0  0  0  0  0  0
   -4.1193   22.7834  -31.2365 H   0  0  0  0  0  0  0  0  0  0  0  0
   -5.5765   17.3039  -31.1456 H   0  0  0  0  0  0  0  0  0  0  0  0
   -5.1371   15.0238  -32.0710 H   0  0  0  0  0  0  0  0  0  0  0  0
   -5.2035   14.6649  -34.5444 H   0  0  0  0  0  0  0  0  0  0  0  0
   -9.1364   19.2376  -31.4586 H   0  0  0  0  0  0  0  0  0  0  0  0
   -9.3598   20.1255  -33.0040 H   0  0  0  0  0  0  0  0  0  0  0  0
   -8.5917   18.5017  -33.0040 H   0  0  0  0  0  0  0  0  0  0  0  0
  1  2  1  0
  2  3  2  0
  3  4  1  0
  4  5  2  0
  5  6  1  0
  5  7  1  0
  7  8  2  0
  8  9  1  0
  9 10  1  0
 10 11  2  0
 10 12  2  0
 10 13  1  0
 13 14  2  0
 14 15  1  0
 15 16  2  0
 16 17  1  0
 17 18  2  0
 17 19  1  0
 19 20  2  0
 20 21  1  0
 21 22  2  0
 22 23  1  0
 23 24  2  0
 24 25  1  0
 25 26  1  0
 26 27  2  0
 20 28  1  0
 28 29  1  0
  8  2  1  0
 18 13  1  0
 26 21  1  0
 28 16  1  0
  1 30  1  0
  1 31  1  0
  1 32  1  0
  3 33  1  0
  4 34  1  0
  6 35  1  0
  7 36  1  0
 14 37  1  0
 15 38  1  0
 18 39  1  0
 22 40  1  0
 23 41  1  0
 24 42  1  0
 29 43  1  0
 29 44  1  0
 29 45  1  0
M  CHG  2   9  -1  25  -1
M  END
>  <UniqueID>  (27) 
26

>  <SMILES>  (27) 
Cc1ccc(O)cc1[N-]S(=O)(=O)c1ccc2c(c1)nc(-c1ccc[n-]c1=O)n2C

>  <Energy>  (27) 
97.09958903444429

>  <Genealogy>  (27) 
Cc1ccc(O)cc1[N-]S(=O)(=O)c1ccc2c(c1)nc(-c1ccc[n-]c1=O)n2C (protonated)
Cc1ccc(O)cc1[N-]S(=O)(=O)c1ccc2c(c1)nc(-c1ccc[n-]c1=O)n2C (3D coordinates assigned)
Cc1ccc(O)cc1[N-]S(=O)(=O)c1ccc2c(c1)nc(-c1ccc[n-]c1=O)n2C (optimized conformer: 97.09958903444429 kcal/mol)

>  <smiles>  (27) 
Cc1ccc(O)cc1NS(=O)(=O)c1ccc2c(c1)nc(-c1ccc[nH]c1=O)n2C

>  <score_type>  (27) 
oracle

>  <origin>  (27) 
adgpu

>  <m_score__min__energy>  (27) 
-10.35

>  <m_primary>  (27) 
energy

$$$$
27:0
     RDKit          3D

 62 65  0  0  0  0  0  0  0  0999 V2000
    1.7090   19.8310  -34.3400 C   0  0  0  0  0  0  0  0  0  0  0  0
    1.6270   21.2020  -34.9540 C   0  0  0  0  0  0  0  0  0  0  0  0
    2.8140   21.8690  -35.2970 C   0  0  0  0  0  0  0  0  0  0  0  0
    2.7770   23.1540  -35.8390 C   0  0  0  0  0  0  0  0  0  0  0  0
    1.5520   23.7950  -36.0530 C   0  0  0  0  0  0  0  0  0  0  0  0
    1.5040   25.4110  -36.7630 S   0  0  0  0  0  0  0  0  0  0  0  0
    1.7690   25.3100  -38.2400 O   0  0  0  0  0  0  0  0  0  0  0  0
    2.5890   26.2530  -36.1520 O   0  0  0  0  0  0  0  0  0  0  0  0
   -0.0480   26.1770  -36.5080 N   0  0  0  0  0  0  0  0  0  0  0  0
   -0.0490   27.0110  -35.2790 C   0  0  0  0  0  0  0  0  0  0  0  0
    0.0610   28.5140  -35.5770 C   0  0  0  0  0  0  0  0  0  0  0  0
   -1.0940   28.9900  -36.4750 C   0  0  0  0  0  0  0  0  0  0  0  0
   -1.5900   27.8940  -37.4350 C   0  0  0  0  0  0  0  0  0  0  0  0
   -0.4820   26.8810  -37.7340 C   0  0  0  0  0  0  0  0  0  0  0  0
    0.3620   23.1370  -35.7180 C   0  0  0  0  0  0  0  0  0  0  0  0
    0.3860   21.8340  -35.2020 C   0  0  0  0  0  0  0  0  0  0  0  0
   -0.8590   21.1830  -34.9110 N   0  0  0  0  0  0  0  0  0  0  0  0
   -1.3490   21.0360  -33.5690 C   0  0  0  0  0  0  0  0  0  0  0  0
   -0.5760   21.2610  -32.5970 O   0  0  0  0  0  0  0  0  0  0  0  0
   -2.7410   20.5950  -33.3100 C   0  0  0  0  0  0  0  0  0  0  0  0
   -3.1550   19.2890  -33.6300 C   0  0  0  0  0  0  0  0  0  0  0  0
   -4.4690   18.8840  -33.3800 C   0  0  0  0  0  0  0  0  0  0  0  0
   -5.3840   19.7740  -32.8170 C   0  0  0  0  0  0  0  0  0  0  0  0
   -4.9940   21.0840  -32.5100 C   0  0  0  0  0  0  0  0  0  0  0  0
   -6.1320   22.2110  -31.7770 S   0  0  0  0  0  0  0  0  0  0  0  0
   -7.2710   22.4430  -32.7290 O   0  0  0  0  0  0  0  0  0  0  0  0
   -6.6810   21.6280  -30.5030 O   0  0  0  0  0  0  0  0  0  0  0  0
   -5.3190   23.7210  -31.4590 N   0  0  0  0  0  0  0  0  0  0  0  0
   -4.2960   23.5660  -30.4250 C   0  0  0  0  0  0  0  0  0  0  0  0
   -4.1500   24.9220  -29.7520 C   0  0  0  0  0  0  0  0  0  0  0  0
   -5.4200   25.6840  -30.0990 C   0  0  0  0  0  0  0  0  0  0  0  0
   -6.2470   24.7260  -30.9410 C   0  0  0  0  0  0  0  0  0  0  0  0
   -3.6740   21.4900  -32.7540 C   0  0  0  0  0  0  0  0  0  0  0  0
    1.7037   19.9194  -33.2436 H   0  0  0  0  0  0  0  0  0  0  0  0
    0.8451   19.2320  -34.6637 H   0  0  0  0  0  0  0  0  0  0  0  0
    2.6382   19.3392  -34.6637 H   0  0  0  0  0  0  0  0  0  0  0  0
    3.7829   21.3734  -35.1368 H   0  0  0  0  0  0  0  0  0  0  0  0
    3.7154   23.6656  -36.0993 H   0  0  0  0  0  0  0  0  0  0  0  0
   -0.9859   26.8292  -34.7321 H   0  0  0  0  0  0  0  0  0  0  0  0
    0.8327   26.7264  -34.6860 H   0  0  0  0  0  0  0  0  0  0  0  0
    0.0310   29.0708  -34.6288 H   0  0  0  0  0  0  0  0  0  0  0  0
    1.0092   28.6957  -36.1041 H   0  0  0  0  0  0  0  0  0  0  0  0
   -1.9320   29.3025  -35.8346 H   0  0  0  0  0  0  0  0  0  0  0  0
   -0.7176   29.8227  -37.0873 H   0  0  0  0  0  0  0  0  0  0  0  0
   -2.4406   27.3705  -36.9740 H   0  0  0  0  0  0  0  0  0  0  0  0
   -1.8941   28.3683  -38.3797 H   0  0  0  0  0  0  0  0  0  0  0  0
   -0.8585   26.1420  -38.4566 H   0  0  0  0  0  0  0  0  0  0  0  0
    0.3817   27.4244  -38.1448 H   0  0  0  0  0  0  0  0  0  0  0  0
   -0.6015   23.6480  -35.8613 H   0  0  0  0  0  0  0  0  0  0  0  0
   -1.2950   20.6070  -35.6660 H   0  0  0  0  0  0  0  0  0  0  0  0
   -2.4409   18.5831  -34.0792 H   0  0  0  0  0  0  0  0  0  0  0  0
   -4.7830   17.8594  -33.6281 H   0  0  0  0  0  0  0  0  0  0  0  0
   -6.4142   19.4463  -32.6137 H   0  0  0  0  0  0  0  0  0  0  0  0
   -4.6100   22.8096  -29.6907 H   0  0  0  0  0  0  0  0  0  0  0  0
   -3.3412   23.2331  -30.8581 H   0  0  0  0  0  0  0  0  0  0  0  0
   -4.0582   24.8029  -28.6623 H   0  0  0  0  0  0  0  0  0  0  0  0
   -3.2486   25.4527  -30.0924 H   0  0  0  0  0  0  0  0  0  0  0  0
   -5.9647   25.9613  -29.1844 H   0  0  0  0  0  0  0  0  0  0  0  0
   -5.2027   26.6187  -30.6366 H   0  0  0  0  0  0  0  0  0  0  0  0
   -7.0199   24.2465  -30.3223 H   0  0  0  0  0  0  0  0  0  0  0  0
   -6.7578   25.2549  -31.7591 H   0  0  0  0  0  0  0  0  0  0  0  0
   -3.3652   22.5169  -32.5087 H   0  0  0  0  0  0  0  0  0  0  0  0
  1  2  1  0
  2  3  2  0
  3  4  1  0
  4  5  2  0
  5  6  1  0
  6  7  2  0
  6  8  2  0
  6  9  1  0
  9 10  1  0
 10 11  1  0
 11 12  1  0
 12 13  1  0
 13 14  1  0
  5 15  1  0
 15 16  2  0
 16 17  1  0
 17 18  1  0
 18 19  2  0
 18 20  1  0
 20 21  2  0
 21 22  1  0
 22 23  2  0
 23 24  1  0
 24 25  1  0
 25 26  2  0
 25 27  2  0
 25 28  1  0
 28 29  1  0
 29 30  1  0
 30 31  1  0
 31 32  1  0
 24 33  2  0
 16  2  1  0
 33 20  1  0
 14  9  1  0
 32 28  1  0
  1 34  1  0
  1 35  1  0
  1 36  1  0
  3 37  1  0
  4 38  1  0
 10 39  1  0
 10 40  1  0
 11 41  1  0
 11 42  1  0
 12 43  1  0
 12 44  1  0
 13 45  1  0
 13 46  1  0
 14 47  1  0
 14 48  1  0
 15 49  1  0
 17 50  1  0
 21 51  1  0
 22 52  1  0
 23 53  1  0
 29 54  1  0
 29 55  1  0
 30 56  1  0
 30 57  1  0
 31 58  1  0
 31 59  1  0
 32 60  1  0
 32 61  1  0
 33 62  1  0
M  END
>  <UniqueID>  (28) 
27

>  <SMILES>  (28) 
Cc1ccc(S(=O)(=O)N2CCCCC2)cc1NC(=O)c1cccc(S(=O)(=O)N2CCCC2)c1

>  <Energy>  (28) 
76.02876502844961

>  <Genealogy>  (28) 
Cc1ccc(S(=O)(=O)N2CCCCC2)cc1NC(=O)c1cccc(S(=O)(=O)N2CCCC2)c1 (3D coordinates assigned)
Cc1ccc(S(=O)(=O)N2CCCCC2)cc1NC(=O)c1cccc(S(=O)(=O)N2CCCC2)c1 (nonaromatic ring conformer: 76.02876502844961 kcal/mol)

>  <smiles>  (28) 
Cc1ccc(S(=O)(=O)N2CCCCC2)cc1NC(=O)c1cccc(S(=O)(=O)N2CCCC2)c1

>  <score_type>  (28) 
oracle

>  <origin>  (28) 
adgpu

>  <m_score__min__energy>  (28) 
-11.880000000000001

>  <m_primary>  (28) 
energy

$$$$
28:0
     RDKit          3D

 54 56  0  0  0  0  0  0  0  0999 V2000
   -6.5410   16.3330  -33.8890 C   0  0  0  0  0  0  0  0  0  0  0  0
   -6.0750   17.1540  -34.9350 O   0  0  0  0  0  0  0  0  0  0  0  0
   -4.8980   17.8170  -34.5260 C   0  0  0  0  0  0  0  0  0  0  0  0
   -5.2650   19.1240  -33.8270 C   0  0  0  0  0  0  0  0  0  0  0  0
   -6.6390   19.5090  -34.1640 N   0  0  0  0  0  0  0  0  0  0  0  0
   -7.6170   19.6960  -32.7380 S   0  0  0  0  0  0  0  0  0  0  0  0
   -7.3720   18.5370  -31.8140 O   0  0  0  0  0  0  0  0  0  0  0  0
   -9.0710   19.7080  -33.1160 O   0  0  0  0  0  0  0  0  0  0  0  0
   -7.1850   21.1910  -31.9140 C   0  0  0  0  0  0  0  0  0  0  0  0
   -7.8540   21.5510  -30.7360 C   0  0  0  0  0  0  0  0  0  0  0  0
   -7.4620   22.6860  -30.0230 C   0  0  0  0  0  0  0  0  0  0  0  0
   -6.3860   23.4700  -30.4770 C   0  0  0  0  0  0  0  0  0  0  0  0
   -5.9410   24.6270  -29.7570 N   0  0  0  0  0  0  0  0  0  0  0  0
   -5.0070   25.5970  -30.2420 C   0  0  0  0  0  0  0  0  0  0  0  0
   -5.4060   26.7690  -30.4760 O   0  0  0  0  0  0  0  0  0  0  0  0
   -3.6400   25.2370  -30.4750 N   0  0  0  0  0  0  0  0  0  0  0  0
   -2.8830   24.2950  -29.7030 C   0  0  0  0  0  0  0  0  0  0  0  0
   -3.1780   22.9410  -29.8460 C   0  0  0  0  0  0  0  0  0  0  0  0
   -2.4410   21.9820  -29.1610 C   0  0  0  0  0  0  0  0  0  0  0  0
   -1.3990   22.3570  -28.3000 C   0  0  0  0  0  0  0  0  0  0  0  0
   -0.6460   21.2630  -27.5870 C   0  0  0  0  0  0  0  0  0  0  0  0
   -1.1060   23.7350  -28.1090 C   0  0  0  0  0  0  0  0  0  0  0  0
    0.0890   24.2410  -26.8800 S   0  0  0  0  0  0  0  0  0  0  0  0
    0.9700   23.0920  -26.4760 O   0  0  0  0  0  0  0  0  0  0  0  0
    0.9910   25.2840  -27.4760 O   0  0  0  0  0  0  0  0  0  0  0  0
   -0.7150   24.9600  -25.4430 C   0  0  0  0  0  0  0  0  0  0  0  0
   -2.0540   25.6320  -25.7090 C   0  0  0  0  0  0  0  0  0  0  0  0
   -0.8200   26.4780  -25.4470 C   0  0  0  0  0  0  0  0  0  0  0  0
   -1.8010   24.6970  -28.8940 C   0  0  0  0  0  0  0  0  0  0  0  0
   -1.4080   26.0360  -28.9450 O   0  0  0  0  0  0  0  0  0  0  0  0
   -5.7510   23.1340  -31.6790 C   0  0  0  0  0  0  0  0  0  0  0  0
   -6.1380   21.9940  -32.3880 C   0  0  0  0  0  0  0  0  0  0  0  0
   -6.2822   16.7889  -32.9220 H   0  0  0  0  0  0  0  0  0  0  0  0
   -7.6334   16.2279  -33.9642 H   0  0  0  0  0  0  0  0  0  0  0  0
   -6.0712   15.3412  -33.9642 H   0  0  0  0  0  0  0  0  0  0  0  0
   -4.3382   17.1743  -33.8307 H   0  0  0  0  0  0  0  0  0  0  0  0
   -4.2758   18.0350  -35.4066 H   0  0  0  0  0  0  0  0  0  0  0  0
   -5.1817   18.9899  -32.7384 H   0  0  0  0  0  0  0  0  0  0  0  0
   -4.5779   19.9154  -34.1611 H   0  0  0  0  0  0  0  0  0  0  0  0
   -8.6910   20.9371  -30.3718 H   0  0  0  0  0  0  0  0  0  0  0  0
   -7.9963   22.9677  -29.1037 H   0  0  0  0  0  0  0  0  0  0  0  0
   -4.0005   22.6284  -30.5061 H   0  0  0  0  0  0  0  0  0  0  0  0
   -2.6777   20.9162  -29.2957 H   0  0  0  0  0  0  0  0  0  0  0  0
   -0.7410   21.4010  -26.4998 H   0  0  0  0  0  0  0  0  0  0  0  0
   -1.0636   20.2856  -27.8704 H   0  0  0  0  0  0  0  0  0  0  0  0
    0.4161   21.3041  -27.8704 H   0  0  0  0  0  0  0  0  0  0  0  0
   -0.3501   24.2041  -24.7321 H   0  0  0  0  0  0  0  0  0  0  0  0
   -2.4949   25.5998  -26.7163 H   0  0  0  0  0  0  0  0  0  0  0  0
   -3.0590   25.5650  -25.2668 H   0  0  0  0  0  0  0  0  0  0  0  0
   -0.3675   27.0583  -26.2646 H   0  0  0  0  0  0  0  0  0  0  0  0
   -0.5617   27.2771  -24.7365 H   0  0  0  0  0  0  0  0  0  0  0  0
   -2.0550   26.8100  -28.9660 H   0  0  0  0  0  0  0  0  0  0  0  0
   -4.9428   23.7713  -32.0672 H   0  0  0  0  0  0  0  0  0  0  0  0
   -5.6199   21.7258  -33.3205 H   0  0  0  0  0  0  0  0  0  0  0  0
  1  2  1  0
  2  3  1  0
  3  4  1  0
  4  5  1  0
  5  6  1  0
  6  7  2  0
  6  8  2  0
  6  9  1  0
  9 10  2  0
 10 11  1  0
 11 12  2  0
 12 13  1  0
 13 14  1  0
 14 15  2  0
 14 16  1  0
 16 17  1  0
 17 18  2  0
 18 19  1  0
 19 20  2  0
 20 21  1  0
 20 22  1  0
 22 23  1  0
 23 24  2  0
 23 25  2  0
 23 26  1  0
 26 27  1  0
 27 28  1  0
 22 29  2  0
 29 30  1  0
 12 31  1  0
 31 32  2  0
 32  9  1  0
 29 17  1  0
 28 26  1  0
  1 33  1  0
  1 34  1  0
  1 35  1  0
  3 36  1  0
  3 37  1  0
  4 38  1  0
  4 39  1  0
 10 40  1  0
 11 41  1  0
 18 42  1  0
 19 43  1  0
 21 44  1  0
 21 45  1  0
 21 46  1  0
 26 47  1  0
 27 48  1  0
 27 49  1  0
 28 50  1  0
 28 51  1  0
 30 52  1  0
 31 53  1  0
 32 54  1  0
M  CHG  3   5  -1  13  -1  16  -1
M  END
>  <UniqueID>  (29) 
28

>  <SMILES>  (29) 
COCC[N-]S(=O)(=O)c1ccc([N-]C(=O)[N-]c2ccc(C)c(S(=O)(=O)C3CC3)c2O)cc1

>  <Energy>  (29) 
330.7013564468843

>  <Genealogy>  (29) 
COCC[N-]S(=O)(=O)c1ccc([N-]C(=O)[N-]c2ccc(C)c(S(=O)(=O)C3CC3)c2O)cc1 (protonated)
COCC[N-]S(=O)(=O)c1ccc([N-]C(=O)[N-]c2ccc(C)c(S(=O)(=O)C3CC3)c2O)cc1 (3D coordinates assigned)
COCC[N-]S(=O)(=O)c1ccc([N-]C(=O)[N-]c2ccc(C)c(S(=O)(=O)C3CC3)c2O)cc1 (nonaromatic ring conformer: 330.7013564468843 kcal/mol)

>  <smiles>  (29) 
COCCNS(=O)(=O)c1ccc(NC(=O)Nc2ccc(C)c(S(=O)(=O)C3CC3)c2O)cc1

>  <score_type>  (29) 
oracle

>  <origin>  (29) 
adgpu

>  <m_score__min__energy>  (29) 
-13.23

>  <m_primary>  (29) 
energy

$$$$
29:0
     RDKit          3D

 29 30  0  0  0  0  0  0  0  0999 V2000
   -5.7390   24.8170  -29.1160 O   0  0  0  0  0  0  0  0  0  0  0  0
   -5.2190   24.8770  -30.5230 S   0  0  0  0  0  0  0  0  0  0  0  0
   -5.7310   26.1330  -31.1710 O   0  0  0  0  0  0  0  0  0  0  0  0
   -3.4780   24.9010  -30.4860 N   0  0  0  0  0  0  0  0  0  0  0  0
   -2.9490   23.9620  -29.4930 C   0  0  0  0  0  0  0  0  0  0  0  0
   -2.5190   24.6840  -28.2440 C   0  0  0  0  0  0  0  0  0  0  0  0
   -1.3200   25.4120  -28.2130 C   0  0  0  0  0  0  0  0  0  0  0  0
   -0.9200   26.0460  -27.0340 C   0  0  0  0  0  0  0  0  0  0  0  0
   -1.7270   25.9530  -25.8990 C   0  0  0  0  0  0  0  0  0  0  0  0
   -2.8940   25.2570  -25.9480 N   0  0  0  0  0  0  0  0  0  0  0  0
   -3.3050   24.6300  -27.0830 C   0  0  0  0  0  0  0  0  0  0  0  0
   -5.7930   23.4580  -31.3950 C   0  0  0  0  0  0  0  0  0  0  0  0
   -7.1630   23.1610  -31.4080 C   0  0  0  0  0  0  0  0  0  0  0  0
   -7.6280   22.0110  -32.0520 C   0  0  0  0  0  0  0  0  0  0  0  0
   -6.7260   21.1520  -32.6960 C   0  0  0  0  0  0  0  0  0  0  0  0
   -7.1750   19.9980  -33.3340 O   0  0  0  0  0  0  0  0  0  0  0  0
   -5.3600   21.4550  -32.6960 C   0  0  0  0  0  0  0  0  0  0  0  0
   -4.8940   22.6040  -32.0500 C   0  0  0  0  0  0  0  0  0  0  0  0
   -3.7307   23.2322  -29.2357 H   0  0  0  0  0  0  0  0  0  0  0  0
   -2.0736   23.4532  -29.9229 H   0  0  0  0  0  0  0  0  0  0  0  0
   -0.6957   25.4835  -29.1158 H   0  0  0  0  0  0  0  0  0  0  0  0
    0.0220   26.6131  -27.0006 H   0  0  0  0  0  0  0  0  0  0  0  0
   -1.4186   26.4433  -24.9639 H   0  0  0  0  0  0  0  0  0  0  0  0
   -4.2569   24.0787  -27.0907 H   0  0  0  0  0  0  0  0  0  0  0  0
   -7.8747   23.8356  -30.9095 H   0  0  0  0  0  0  0  0  0  0  0  0
   -8.7033   21.7794  -32.0536 H   0  0  0  0  0  0  0  0  0  0  0  0
   -7.6860   20.0420  -34.2080 H   0  0  0  0  0  0  0  0  0  0  0  0
   -4.6503   20.7869  -33.2060 H   0  0  0  0  0  0  0  0  0  0  0  0
   -3.8194   22.8387  -32.0555 H   0  0  0  0  0  0  0  0  0  0  0  0
  1  2  2  0
  2  3  2  0
  2  4  1  0
  4  5  1  0
  5  6  1  0
  6  7  2  0
  7  8  1  0
  8  9  2  0
  9 10  1  0
 10 11  2  0
  2 12  1  0
 12 13  2  0
 13 14  1  0
 14 15  2  0
 15 16  1  0
 15 17  1  0
 17 18  2  0
 11  6  1  0
 18 12  1  0
  5 19  1  0
  5 20  1  0
  7 21  1  0
  8 22  1  0
  9 23  1  0
 11 24  1  0
 13 25  1  0
 14 26  1  0
 16 27  1  0
 17 28  1  0
 18 29  1  0
M  CHG  1   4  -1
M  END
>  <UniqueID>  (30) 
29

>  <SMILES>  (30) 
O=S(=O)([N-]Cc1cccnc1)c1ccc(O)cc1

>  <Energy>  (30) 
26.33484338672889

>  <Genealogy>  (30) 
O=S(=O)([N-]Cc1cccnc1)c1ccc(O)cc1 (protonated)
O=S(=O)([N-]Cc1cccnc1)c1ccc(O)cc1 (3D coordinates assigned)
O=S(=O)([N-]Cc1cccnc1)c1ccc(O)cc1 (optimized conformer: 26.33484338672889 kcal/mol)

>  <smiles>  (30) 
O=S(=O)(NCc1cccnc1)c1ccc(O)cc1

>  <score_type>  (30) 
oracle

>  <origin>  (30) 
adgpu

>  <m_score__min__energy>  (30) 
-8.3399999999999999

>  <m_primary>  (30) 
energy

$$$$
30:0
     RDKit          3D

 51 54  0  0  0  0  0  0  0  0999 V2000
   -1.7220   18.8730  -34.3130 C   0  0  0  0  0  0  0  0  0  0  0  0
   -3.1940   18.6300  -34.2180 C   0  0  0  0  0  0  0  0  0  0  0  0
   -3.8360   17.7170  -34.9100 O   0  0  0  0  0  0  0  0  0  0  0  0
   -5.1090   17.7320  -34.6410 N   0  0  0  0  0  0  0  0  0  0  0  0
   -5.3170   18.7000  -33.7260 C   0  0  0  0  0  0  0  0  0  0  0  0
   -6.6380   18.9680  -33.1220 C   0  0  0  0  0  0  0  0  0  0  0  0
   -7.3300   17.9340  -32.4700 C   0  0  0  0  0  0  0  0  0  0  0  0
   -8.5760   18.1790  -31.8830 C   0  0  0  0  0  0  0  0  0  0  0  0
   -9.1330   19.4590  -31.9290 C   0  0  0  0  0  0  0  0  0  0  0  0
   -8.4430   20.4990  -32.5550 C   0  0  0  0  0  0  0  0  0  0  0  0
   -7.1980   20.2590  -33.1440 C   0  0  0  0  0  0  0  0  0  0  0  0
   -4.1040   19.3080  -33.4290 C   0  0  0  0  0  0  0  0  0  0  0  0
   -3.8470   20.4750  -32.5650 C   0  0  0  0  0  0  0  0  0  0  0  0
   -3.0420   20.3700  -31.6000 O   0  0  0  0  0  0  0  0  0  0  0  0
   -4.4570   21.7400  -32.8600 N   0  0  0  0  0  0  0  0  0  0  0  0
   -4.6850   22.7650  -31.8800 C   0  0  0  0  0  0  0  0  0  0  0  0
   -5.8980   23.4670  -31.8840 C   0  0  0  0  0  0  0  0  0  0  0  0
   -6.1590   24.4340  -30.9090 C   0  0  0  0  0  0  0  0  0  0  0  0
   -5.2190   24.6930  -29.9090 C   0  0  0  0  0  0  0  0  0  0  0  0
   -4.0110   23.9820  -29.8780 C   0  0  0  0  0  0  0  0  0  0  0  0
   -2.8460   24.2350  -28.5820 S   0  0  0  0  0  0  0  0  0  0  0  0
   -1.9500   25.3820  -28.9570 O   0  0  0  0  0  0  0  0  0  0  0  0
   -3.5590   24.5680  -27.3000 O   0  0  0  0  0  0  0  0  0  0  0  0
   -1.8890   22.7870  -28.3620 N   0  0  0  0  0  0  0  0  0  0  0  0
   -2.7340   21.7010  -27.8320 C   0  0  0  0  0  0  0  0  0  0  0  0
   -1.8690   20.6130  -27.1760 C   0  0  0  0  0  0  0  0  0  0  0  0
   -1.0720   21.0750  -26.0930 O   0  0  0  0  0  0  0  0  0  0  0  0
   -0.8460   22.4770  -26.1040 C   0  0  0  0  0  0  0  0  0  0  0  0
   -0.7000   23.0560  -27.5220 C   0  0  0  0  0  0  0  0  0  0  0  0
   -3.7460   23.0230  -30.8650 C   0  0  0  0  0  0  0  0  0  0  0  0
   -1.2959   18.9433  -33.3013 H   0  0  0  0  0  0  0  0  0  0  0  0
   -1.2472   18.0411  -34.8538 H   0  0  0  0  0  0  0  0  0  0  0  0
   -1.5398   19.8134  -34.8538 H   0  0  0  0  0  0  0  0  0  0  0  0
   -6.8901   16.9270  -32.4207 H   0  0  0  0  0  0  0  0  0  0  0  0
   -9.1181   17.3620  -31.3843 H   0  0  0  0  0  0  0  0  0  0  0  0
  -10.1156   19.6478  -31.4719 H   0  0  0  0  0  0  0  0  0  0  0  0
   -8.8795   21.5083  -32.5848 H   0  0  0  0  0  0  0  0  0  0  0  0
   -6.6533   21.0835  -33.6272 H   0  0  0  0  0  0  0  0  0  0  0  0
   -4.7290   21.9340  -33.8510 H   0  0  0  0  0  0  0  0  0  0  0  0
   -6.6493   23.2557  -32.6592 H   0  0  0  0  0  0  0  0  0  0  0  0
   -7.1067   24.9921  -30.9294 H   0  0  0  0  0  0  0  0  0  0  0  0
   -5.4268   25.4561  -29.1445 H   0  0  0  0  0  0  0  0  0  0  0  0
   -3.4253   22.1139  -27.0825 H   0  0  0  0  0  0  0  0  0  0  0  0
   -3.2975   21.2524  -28.6634 H   0  0  0  0  0  0  0  0  0  0  0  0
   -2.5354   19.8223  -26.8009 H   0  0  0  0  0  0  0  0  0  0  0  0
   -1.1736   20.2539  -27.9490 H   0  0  0  0  0  0  0  0  0  0  0  0
   -1.6951   22.9719  -25.6099 H   0  0  0  0  0  0  0  0  0  0  0  0
    0.1021   22.6595  -25.5770 H   0  0  0  0  0  0  0  0  0  0  0  0
   -0.5582   24.1443  -27.4472 H   0  0  0  0  0  0  0  0  0  0  0  0
    0.1654   22.5707  -27.9970 H   0  0  0  0  0  0  0  0  0  0  0  0
   -2.7965   22.4679  -30.8458 H   0  0  0  0  0  0  0  0  0  0  0  0
  1  2  1  0
  2  3  1  0
  3  4  1  0
  4  5  2  0
  5  6  1  0
  6  7  2  0
  7  8  1  0
  8  9  2  0
  9 10  1  0
 10 11  2  0
  5 12  1  0
 12 13  1  0
 13 14  2  0
 13 15  1  0
 15 16  1  0
 16 17  2  0
 17 18  1  0
 18 19  2  0
 19 20  1  0
 20 21  1  0
 21 22  2  0
 21 23  2  0
 21 24  1  0
 24 25  1  0
 25 26  1  0
 26 27  1  0
 27 28  1  0
 28 29  1  0
 20 30  2  0
 12  2  2  0
 30 16  1  0
 11  6  1  0
 29 24  1  0
  1 31  1  0
  1 32  1  0
  1 33  1  0
  7 34  1  0
  8 35  1  0
  9 36  1  0
 10 37  1  0
 11 38  1  0
 15 39  1  0
 17 40  1  0
 18 41  1  0
 19 42  1  0
 25 43  1  0
 25 44  1  0
 26 45  1  0
 26 46  1  0
 28 47  1  0
 28 48  1  0
 29 49  1  0
 29 50  1  0
 30 51  1  0
M  END
>  <UniqueID>  (31) 
30

>  <SMILES>  (31) 
Cc1onc(-c2ccccc2)c1C(=O)Nc1cccc(S(=O)(=O)N2CCOCC2)c1

>  <Energy>  (31) 
104.08790725609975

>  <Genealogy>  (31) 
Cc1onc(-c2ccccc2)c1C(=O)Nc1cccc(S(=O)(=O)N2CCOCC2)c1 (3D coordinates assigned)
Cc1onc(-c2ccccc2)c1C(=O)Nc1cccc(S(=O)(=O)N2CCOCC2)c1 (nonaromatic ring conformer: 104.08790725609975 kcal/mol)

>  <smiles>  (31) 
Cc1onc(-c2ccccc2)c1C(=O)Nc1cccc(S(=O)(=O)N2CCOCC2)c1

>  <score_type>  (31) 
oracle

>  <origin>  (31) 
adgpu

>  <m_score__min__energy>  (31) 
-10.369999999999999

>  <m_primary>  (31) 
energy

$$$$
31:0
     RDKit          3D

 33 34  0  0  0  0  0  0  0  0999 V2000
   -3.4980   25.6990  -29.7270 H   0  0  0  0  0  0  0  0  0  0  0  0
   -4.1020   25.6730  -30.5790 N   0  0  0  0  0  0  0  0  0  0  0  0
   -5.1420   24.3030  -30.4190 S   0  0  0  0  0  0  0  0  0  0  0  0
   -5.2520   23.9190  -28.9700 O   0  0  0  0  0  0  0  0  0  0  0  0
   -6.5120   24.6490  -30.9310 O   0  0  0  0  0  0  0  0  0  0  0  0
   -4.4830   22.9580  -31.3430 C   0  0  0  0  0  0  0  0  0  0  0  0
   -3.1750   22.5150  -31.1080 C   0  0  0  0  0  0  0  0  0  0  0  0
   -2.5623   23.0021  -30.3351 H   0  0  0  0  0  0  0  0  0  0  0  0
   -2.6450   21.4560  -31.8520 C   0  0  0  0  0  0  0  0  0  0  0  0
   -1.6159   21.1156  -31.6648 H   0  0  0  0  0  0  0  0  0  0  0  0
   -3.4220   20.8260  -32.8370 C   0  0  0  0  0  0  0  0  0  0  0  0
   -2.8450   19.7110  -33.6660 C   0  0  0  0  0  0  0  0  0  0  0  0
   -2.4827   18.9144  -32.9995 H   0  0  0  0  0  0  0  0  0  0  0  0
   -3.6284   19.3206  -34.3322 H   0  0  0  0  0  0  0  0  0  0  0  0
   -1.7350   20.2000  -34.4780 N   0  0  0  0  0  0  0  0  0  0  0  0
   -0.5500   20.4200  -33.9940 C   0  0  0  0  0  0  0  0  0  0  0  0
   -0.3557   20.2253  -32.9289 H   0  0  0  0  0  0  0  0  0  0  0  0
    0.5400   20.9270  -34.8500 C   0  0  0  0  0  0  0  0  0  0  0  0
    1.7260   20.1840  -34.9660 C   0  0  0  0  0  0  0  0  0  0  0  0
    1.8311   19.2340  -34.4216 H   0  0  0  0  0  0  0  0  0  0  0  0
    2.7740   20.6440  -35.7690 C   0  0  0  0  0  0  0  0  0  0  0  0
    3.6998   20.0559  -35.8530 H   0  0  0  0  0  0  0  0  0  0  0  0
    2.6480   21.8490  -36.4650 C   0  0  0  0  0  0  0  0  0  0  0  0
    3.6940   22.2990  -37.2620 O   0  0  0  0  0  0  0  0  0  0  0  0
    1.4710   22.6010  -36.3590 C   0  0  0  0  0  0  0  0  0  0  0  0
    1.3540   23.8020  -37.0560 O   0  0  0  0  0  0  0  0  0  0  0  0
    2.1220   24.1760  -37.6010 H   0  0  0  0  0  0  0  0  0  0  0  0
    0.4190   22.1400  -35.5530 C   0  0  0  0  0  0  0  0  0  0  0  0
   -0.5056   22.7302  -35.4702 H   0  0  0  0  0  0  0  0  0  0  0  0
   -4.7250   21.2840  -33.0840 C   0  0  0  0  0  0  0  0  0  0  0  0
   -5.3339   20.8073  -33.8663 H   0  0  0  0  0  0  0  0  0  0  0  0
   -5.2530   22.3440  -32.3400 C   0  0  0  0  0  0  0  0  0  0  0  0
   -6.2759   22.6969  -32.5380 H   0  0  0  0  0  0  0  0  0  0  0  0
  1  2  1  0
  2  3  1  0
  3  4  2  0
  3  5  2  0
  3  6  1  0
  6  7  2  0
  7  8  1  0
  7  9  1  0
  9 10  1  0
  9 11  2  0
 11 12  1  0
 12 13  1  0
 12 14  1  0
 12 15  1  0
 15 16  2  0
 16 17  1  0
 16 18  1  0
 18 19  2  0
 19 20  1  0
 19 21  1  0
 21 22  1  0
 21 23  2  0
 23 24  1  0
 23 25  1  0
 25 26  1  0
 26 27  1  0
 25 28  2  0
 28 29  1  0
 11 30  1  0
 30 31  1  0
 30 32  2  0
 32 33  1  0
 32  6  1  0
 28 18  1  0
M  CHG  2   2  -1  24  -1
M  END
>  <UniqueID>  (32) 
31

>  <SMILES>  (32) 
[NH-]S(=O)(=O)c1ccc(C/N=C/c2ccc([O-])c(O)c2)cc1

>  <Energy>  (32) 
30.987403517656215

>  <Genealogy>  (32) 
[NH-]S(=O)(=O)c1ccc(CN=Cc2ccc([O-])c(O)c2)cc1 (protonated)
[NH-]S(=O)(=O)c1ccc(C/N=C/c2ccc([O-])c(O)c2)cc1 (cis-trans isomerization)
[NH-]S(=O)(=O)c1ccc(C/N=C/c2ccc([O-])c(O)c2)cc1 (3D coordinates assigned)
[NH-]S(=O)(=O)c1ccc(C/N=C/c2ccc([O-])c(O)c2)cc1 (optimized conformer: 30.987403517656215 kcal/mol)

>  <smiles>  (32) 
NS(=O)(=O)c1ccc(CN=Cc2ccc(O)c(O)c2)cc1

>  <score_type>  (32) 
oracle

>  <origin>  (32) 
adgpu

>  <m_score__min__energy>  (32) 
-10.25

>  <m_primary>  (32) 
energy

$$$$
32:0
     RDKit          3D

 49 51  0  0  0  0  0  0  0  0999 V2000
   -3.0370   20.2530  -27.4680 C   0  0  0  0  0  0  0  0  0  0  0  0
   -2.0660   21.3610  -27.7470 C   0  0  0  0  0  0  0  0  0  0  0  0
   -0.7150   21.2180  -27.4000 C   0  0  0  0  0  0  0  0  0  0  0  0
    0.1850   22.2610  -27.6270 C   0  0  0  0  0  0  0  0  0  0  0  0
   -0.2510   23.4660  -28.1880 C   0  0  0  0  0  0  0  0  0  0  0  0
    0.6910   24.4670  -28.4310 O   0  0  0  0  0  0  0  0  0  0  0  0
   -1.6170   23.6340  -28.5040 C   0  0  0  0  0  0  0  0  0  0  0  0
   -2.1310   24.8980  -29.0620 C   0  0  0  0  0  0  0  0  0  0  0  0
   -1.6620   25.9900  -28.6450 O   0  0  0  0  0  0  0  0  0  0  0  0
   -3.1260   24.9150  -30.0900 N   0  0  0  0  0  0  0  0  0  0  0  0
   -4.5580   24.8150  -29.8370 C   0  0  0  0  0  0  0  0  0  0  0  0
   -5.1030   23.6030  -30.5350 C   0  0  0  0  0  0  0  0  0  0  0  0
   -4.2460   22.7560  -31.2540 C   0  0  0  0  0  0  0  0  0  0  0  0
   -4.7470   21.6100  -31.8780 C   0  0  0  0  0  0  0  0  0  0  0  0
   -6.1110   21.2890  -31.7830 C   0  0  0  0  0  0  0  0  0  0  0  0
   -6.6250   20.1060  -32.4200 N   0  0  0  0  0  0  0  0  0  0  0  0
   -6.5040   19.9200  -33.8690 C   0  0  0  0  0  0  0  0  0  0  0  0
   -5.9660   18.5130  -34.1400 C   0  0  0  0  0  0  0  0  0  0  0  0
   -6.8090   17.4460  -33.5380 N   0  0  0  0  0  0  0  0  0  0  0  0
   -5.9830   16.3240  -33.0630 C   0  0  0  0  0  0  0  0  0  0  0  0
   -7.7560   17.9020  -32.4900 C   0  0  0  0  0  0  0  0  0  0  0  0
   -7.1780   19.0180  -31.6050 C   0  0  0  0  0  0  0  0  0  0  0  0
   -6.9630   22.1240  -31.0440 C   0  0  0  0  0  0  0  0  0  0  0  0
   -6.4620   23.2720  -30.4220 C   0  0  0  0  0  0  0  0  0  0  0  0
   -2.5130   22.5760  -28.2900 C   0  0  0  0  0  0  0  0  0  0  0  0
   -3.1473   20.1272  -26.3808 H   0  0  0  0  0  0  0  0  0  0  0  0
   -4.0135   20.5014  -27.9093 H   0  0  0  0  0  0  0  0  0  0  0  0
   -2.6626   19.3175  -27.9093 H   0  0  0  0  0  0  0  0  0  0  0  0
   -0.3626   20.2797  -26.9468 H   0  0  0  0  0  0  0  0  0  0  0  0
    1.2452   22.1342  -27.3626 H   0  0  0  0  0  0  0  0  0  0  0  0
    0.4360   25.4340  -28.5890 H   0  0  0  0  0  0  0  0  0  0  0  0
   -4.7344   24.7259  -28.7549 H   0  0  0  0  0  0  0  0  0  0  0  0
   -5.0624   25.7159  -30.2163 H   0  0  0  0  0  0  0  0  0  0  0  0
   -3.1748   22.9950  -31.3269 H   0  0  0  0  0  0  0  0  0  0  0  0
   -4.0694   20.9561  -32.4465 H   0  0  0  0  0  0  0  0  0  0  0  0
   -7.4909   20.0361  -34.3408 H   0  0  0  0  0  0  0  0  0  0  0  0
   -5.8173   20.6708  -34.2871 H   0  0  0  0  0  0  0  0  0  0  0  0
   -5.9251   18.3562  -35.2280 H   0  0  0  0  0  0  0  0  0  0  0  0
   -4.9693   18.4460  -33.6794 H   0  0  0  0  0  0  0  0  0  0  0  0
   -5.9757   16.3140  -31.9631 H   0  0  0  0  0  0  0  0  0  0  0  0
   -6.4013   15.3773  -33.4355 H   0  0  0  0  0  0  0  0  0  0  0  0
   -4.9548   16.4422  -33.4355 H   0  0  0  0  0  0  0  0  0  0  0  0
   -8.6663   18.2784  -32.9795 H   0  0  0  0  0  0  0  0  0  0  0  0
   -7.9670   17.0408  -31.8390 H   0  0  0  0  0  0  0  0  0  0  0  0
   -7.9776   19.4193  -30.9650 H   0  0  0  0  0  0  0  0  0  0  0  0
   -6.3685   18.5941  -30.9926 H   0  0  0  0  0  0  0  0  0  0  0  0
   -8.0304   21.8743  -30.9535 H   0  0  0  0  0  0  0  0  0  0  0  0
   -7.1364   23.9186  -29.8414 H   0  0  0  0  0  0  0  0  0  0  0  0
   -3.5747   22.6994  -28.5498 H   0  0  0  0  0  0  0  0  0  0  0  0
  1  2  1  0
  2  3  2  0
  3  4  1  0
  4  5  2  0
  5  6  1  0
  5  7  1  0
  7  8  1  0
  8  9  2  0
  8 10  1  0
 10 11  1  0
 11 12  1  0
 12 13  2  0
 13 14  1  0
 14 15  2  0
 15 16  1  0
 16 17  1  0
 17 18  1  0
 18 19  1  0
 19 20  1  0
 19 21  1  0
 21 22  1  0
 15 23  1  0
 23 24  2  0
  7 25  2  0
 25  2  1  0
 24 12  1  0
 22 16  1  0
  1 26  1  0
  1 27  1  0
  1 28  1  0
  3 29  1  0
  4 30  1  0
  6 31  1  0
 11 32  1  0
 11 33  1  0
 13 34  1  0
 14 35  1  0
 17 36  1  0
 17 37  1  0
 18 38  1  0
 18 39  1  0
 20 40  1  0
 20 41  1  0
 20 42  1  0
 21 43  1  0
 21 44  1  0
 22 45  1  0
 22 46  1  0
 23 47  1  0
 24 48  1  0
 25 49  1  0
M  CHG  1  10  -1
M  END
>  <UniqueID>  (33) 
32

>  <SMILES>  (33) 
Cc1ccc(O)c(C(=O)[N-]Cc2ccc(N3CCN(C)CC3)cc2)c1

>  <Energy>  (33) 
65.68374981085911

>  <Genealogy>  (33) 
Cc1ccc(O)c(C(=O)[N-]Cc2ccc(N3CCN(C)CC3)cc2)c1 (protonated)
Cc1ccc(O)c(C(=O)[N-]Cc2ccc(N3CCN(C)CC3)cc2)c1 (3D coordinates assigned)
Cc1ccc(O)c(C(=O)[N-]Cc2ccc(N3CCN(C)CC3)cc2)c1 (nonaromatic ring conformer: 65.68374981085911 kcal/mol)

>  <smiles>  (33) 
Cc1ccc(O)c(C(=O)NCc2ccc(N3CCN(C)CC3)cc2)c1

>  <score_type>  (33) 
oracle

>  <origin>  (33) 
adgpu

>  <m_score__min__energy>  (33) 
-10.619999999999999

>  <m_primary>  (33) 
energy

$$$$
33:0
     RDKit          3D

 59 62  0  0  0  0  0  0  0  0999 V2000
   -4.6580   17.7940  -33.6810 C   0  0  0  0  0  0  0  0  0  0  0  0
   -5.8340   18.6610  -34.0160 C   0  0  0  0  0  0  0  0  0  0  0  0
   -6.0540   18.9470  -35.2240 O   0  0  0  0  0  0  0  0  0  0  0  0
   -6.6790   19.2090  -32.9850 N   0  0  0  0  0  0  0  0  0  0  0  0
   -7.9740   18.5390  -32.7680 C   0  0  0  0  0  0  0  0  0  0  0  0
   -8.7480   19.1260  -31.5810 C   0  0  0  0  0  0  0  0  0  0  0  0
   -8.8080   20.6500  -31.6850 C   0  0  0  0  0  0  0  0  0  0  0  0
   -7.4150   21.2120  -31.7240 C   0  0  0  0  0  0  0  0  0  0  0  0
   -7.1440   22.4620  -31.1500 C   0  0  0  0  0  0  0  0  0  0  0  0
   -5.8440   22.9770  -31.1580 C   0  0  0  0  0  0  0  0  0  0  0  0
   -5.5190   24.5260  -30.3880 S   0  0  0  0  0  0  0  0  0  0  0  0
   -4.4800   25.3020  -31.1490 O   0  0  0  0  0  0  0  0  0  0  0  0
   -6.7920   25.3240  -30.3530 O   0  0  0  0  0  0  0  0  0  0  0  0
   -4.9620   24.2600  -28.7650 N   0  0  0  0  0  0  0  0  0  0  0  0
   -3.5750   24.1060  -28.4160 C   0  0  0  0  0  0  0  0  0  0  0  0
   -3.2090   23.1360  -27.4710 C   0  0  0  0  0  0  0  0  0  0  0  0
   -1.8690   22.9650  -27.1110 C   0  0  0  0  0  0  0  0  0  0  0  0
   -0.8770   23.7650  -27.6890 C   0  0  0  0  0  0  0  0  0  0  0  0
    0.8100   23.5950  -27.2080 S   0  0  0  0  0  0  0  0  0  0  0  0
    1.2050   22.1430  -27.2330 O   0  0  0  0  0  0  0  0  0  0  0  0
    1.6640   24.3350  -28.2010 O   0  0  0  0  0  0  0  0  0  0  0  0
    1.0620   24.2680  -25.6120 N   0  0  0  0  0  0  0  0  0  0  0  0
    1.3230   25.7220  -25.6530 C   0  0  0  0  0  0  0  0  0  0  0  0
    0.0590   26.5480  -25.9600 C   0  0  0  0  0  0  0  0  0  0  0  0
   -1.2010   26.0040  -25.2600 C   0  0  0  0  0  0  0  0  0  0  0  0
   -0.8560   25.0330  -24.1320 C   0  0  0  0  0  0  0  0  0  0  0  0
   -0.0050   23.8620  -24.6620 C   0  0  0  0  0  0  0  0  0  0  0  0
   -1.2350   24.7430  -28.6240 C   0  0  0  0  0  0  0  0  0  0  0  0
   -2.5740   24.9170  -28.9850 C   0  0  0  0  0  0  0  0  0  0  0  0
   -4.8070   22.2340  -31.7350 C   0  0  0  0  0  0  0  0  0  0  0  0
   -5.0720   20.9950  -32.3220 C   0  0  0  0  0  0  0  0  0  0  0  0
   -6.3850   20.4860  -32.3600 C   0  0  0  0  0  0  0  0  0  0  0  0
   -4.5569   17.7195  -32.5882 H   0  0  0  0  0  0  0  0  0  0  0  0
   -4.8100   16.7902  -34.1045 H   0  0  0  0  0  0  0  0  0  0  0  0
   -3.7441   18.2361  -34.1045 H   0  0  0  0  0  0  0  0  0  0  0  0
   -8.5846   18.6491  -33.6763 H   0  0  0  0  0  0  0  0  0  0  0  0
   -7.7696   17.4817  -32.5435 H   0  0  0  0  0  0  0  0  0  0  0  0
   -9.7712   18.7222  -31.5802 H   0  0  0  0  0  0  0  0  0  0  0  0
   -8.2328   18.8520  -30.6485 H   0  0  0  0  0  0  0  0  0  0  0  0
   -9.3418   20.9327  -32.6043 H   0  0  0  0  0  0  0  0  0  0  0  0
   -9.3384   21.0535  -30.8098 H   0  0  0  0  0  0  0  0  0  0  0  0
   -7.9587   23.0410  -30.6907 H   0  0  0  0  0  0  0  0  0  0  0  0
   -5.6920   24.0880  -28.0370 H   0  0  0  0  0  0  0  0  0  0  0  0
   -3.9827   22.5048  -27.0095 H   0  0  0  0  0  0  0  0  0  0  0  0
   -1.5936   22.1991  -26.3710 H   0  0  0  0  0  0  0  0  0  0  0  0
    1.7188   26.0356  -24.6757 H   0  0  0  0  0  0  0  0  0  0  0  0
    2.0434   25.9060  -26.4636 H   0  0  0  0  0  0  0  0  0  0  0  0
    0.2266   27.5825  -25.6256 H   0  0  0  0  0  0  0  0  0  0  0  0
   -0.1164   26.4900  -27.0444 H   0  0  0  0  0  0  0  0  0  0  0  0
   -1.7667   26.8489  -24.8404 H   0  0  0  0  0  0  0  0  0  0  0  0
   -1.7957   25.4584  -26.0075 H   0  0  0  0  0  0  0  0  0  0  0  0
   -0.2899   25.5682  -23.3554 H   0  0  0  0  0  0  0  0  0  0  0  0
   -1.7904   24.6302  -23.7140 H   0  0  0  0  0  0  0  0  0  0  0  0
    0.4685   23.3631  -23.8036 H   0  0  0  0  0  0  0  0  0  0  0  0
   -0.6870   23.1999  -25.2157 H   0  0  0  0  0  0  0  0  0  0  0  0
   -0.4590   25.3776  -29.0768 H   0  0  0  0  0  0  0  0  0  0  0  0
   -2.8473   25.6912  -29.7171 H   0  0  0  0  0  0  0  0  0  0  0  0
   -3.7799   22.6277  -31.7259 H   0  0  0  0  0  0  0  0  0  0  0  0
   -4.2482   20.4113  -32.7586 H   0  0  0  0  0  0  0  0  0  0  0  0
  1  2  1  0
  2  3  2  0
  2  4  1  0
  4  5  1  0
  5  6  1  0
  6  7  1  0
  7  8  1  0
  8  9  2  0
  9 10  1  0
 10 11  1  0
 11 12  2  0
 11 13  2  0
 11 14  1  0
 14 15  1  0
 15 16  2  0
 16 17  1  0
 17 18  2  0
 18 19  1  0
 19 20  2  0
 19 21  2  0
 19 22  1  0
 22 23  1  0
 23 24  1  0
 24 25  1  0
 25 26  1  0
 26 27  1  0
 18 28  1  0
 28 29  2  0
 10 30  2  0
 30 31  1  0
 31 32  2  0
 32  4  1  0
 32  8  1  0
 29 15  1  0
 27 22  1  0
  1 33  1  0
  1 34  1  0
  1 35  1  0
  5 36  1  0
  5 37  1  0
  6 38  1  0
  6 39  1  0
  7 40  1  0
  7 41  1  0
  9 42  1  0
 14 43  1  0
 16 44  1  0
 17 45  1  0
 23 46  1  0
 23 47  1  0
 24 48  1  0
 24 49  1  0
 25 50  1  0
 25 51  1  0
 26 52  1  0
 26 53  1  0
 27 54  1  0
 27 55  1  0
 28 56  1  0
 29 57  1  0
 30 58  1  0
 31 59  1  0
M  END
>  <UniqueID>  (34) 
33

>  <SMILES>  (34) 
CC(=O)N1CCCc2cc(S(=O)(=O)Nc3ccc(S(=O)(=O)N4CCCCC4)cc3)ccc21

>  <Energy>  (34) 
76.11690780270224

>  <Genealogy>  (34) 
CC(=O)N1CCCc2cc(S(=O)(=O)Nc3ccc(S(=O)(=O)N4CCCCC4)cc3)ccc21 (3D coordinates assigned)
CC(=O)N1CCCc2cc(S(=O)(=O)Nc3ccc(S(=O)(=O)N4CCCCC4)cc3)ccc21 (nonaromatic ring conformer: 76.11690780270224 kcal/mol)

>  <smiles>  (34) 
CC(=O)N1CCCc2cc(S(=O)(=O)Nc3ccc(S(=O)(=O)N4CCCCC4)cc3)ccc21

>  <score_type>  (34) 
oracle

>  <origin>  (34) 
adgpu

>  <m_score__min__energy>  (34) 
-11.880000000000001

>  <m_primary>  (34) 
energy

$$$$
34:0
     RDKit          3D

 51 53  0  0  0  0  0  0  0  0999 V2000
   -7.7470   18.4880  -31.6020 C   0  0  0  0  0  0  0  0  0  0  0  0
   -9.1130   19.0510  -31.9650 C   0  0  0  0  0  0  0  0  0  0  0  0
   -8.9680   20.3890  -32.4400 O   0  0  0  0  0  0  0  0  0  0  0  0
   -8.1330   21.3510  -31.8540 C   0  0  0  0  0  0  0  0  0  0  0  0
   -8.3950   21.9040  -30.5890 C   0  0  0  0  0  0  0  0  0  0  0  0
   -7.5310   22.8520  -30.0430 C   0  0  0  0  0  0  0  0  0  0  0  0
   -6.3960   23.2820  -30.7480 C   0  0  0  0  0  0  0  0  0  0  0  0
   -5.3830   24.5460  -30.0290 S   0  0  0  0  0  0  0  0  0  0  0  0
   -6.2170   25.5950  -29.3480 O   0  0  0  0  0  0  0  0  0  0  0  0
   -4.5700   25.1900  -31.1140 O   0  0  0  0  0  0  0  0  0  0  0  0
   -4.3100   23.8380  -28.8650 N   0  0  0  0  0  0  0  0  0  0  0  0
   -3.4220   22.7550  -29.1710 C   0  0  0  0  0  0  0  0  0  0  0  0
   -2.8430   21.9640  -28.1610 C   0  0  0  0  0  0  0  0  0  0  0  0
   -2.0300   20.8810  -28.4990 C   0  0  0  0  0  0  0  0  0  0  0  0
   -1.8140   20.5570  -29.8400 C   0  0  0  0  0  0  0  0  0  0  0  0
   -2.4080   21.3210  -30.8540 C   0  0  0  0  0  0  0  0  0  0  0  0
   -2.2670   20.8170  -32.5400 S   0  0  0  0  0  0  0  0  0  0  0  0
   -2.7790   21.9110  -33.4320 O   0  0  0  0  0  0  0  0  0  0  0  0
   -0.8190   20.5880  -32.8650 O   0  0  0  0  0  0  0  0  0  0  0  0
   -3.1750   19.3560  -32.8510 N   0  0  0  0  0  0  0  0  0  0  0  0
   -2.4030   18.4340  -33.7080 C   0  0  0  0  0  0  0  0  0  0  0  0
   -3.3070   17.3220  -34.2810 C   0  0  0  0  0  0  0  0  0  0  0  0
   -4.4960   17.2040  -33.5260 O   0  0  0  0  0  0  0  0  0  0  0  0
   -5.2820   18.3770  -33.6730 C   0  0  0  0  0  0  0  0  0  0  0  0
   -4.4670   19.6720  -33.4770 C   0  0  0  0  0  0  0  0  0  0  0  0
   -3.1820   22.4400  -30.5150 C   0  0  0  0  0  0  0  0  0  0  0  0
   -6.1050   22.7030  -32.0060 C   0  0  0  0  0  0  0  0  0  0  0  0
   -4.9080   23.0240  -32.7260 N   0  0  0  0  0  0  0  0  0  0  0  0
   -6.9920   21.7580  -32.5530 C   0  0  0  0  0  0  0  0  0  0  0  0
   -7.6466   18.4466  -30.5074 H   0  0  0  0  0  0  0  0  0  0  0  0
   -7.6456   17.4748  -32.0181 H   0  0  0  0  0  0  0  0  0  0  0  0
   -6.9612   19.1356  -32.0181 H   0  0  0  0  0  0  0  0  0  0  0  0
   -9.5676   18.4305  -32.7513 H   0  0  0  0  0  0  0  0  0  0  0  0
   -9.7584   19.0473  -31.0742 H   0  0  0  0  0  0  0  0  0  0  0  0
   -9.2860   21.5874  -30.0270 H   0  0  0  0  0  0  0  0  0  0  0  0
   -7.7414   23.2684  -29.0468 H   0  0  0  0  0  0  0  0  0  0  0  0
   -3.0316   22.1998  -27.1032 H   0  0  0  0  0  0  0  0  0  0  0  0
   -1.5581   20.2811  -27.7069 H   0  0  0  0  0  0  0  0  0  0  0  0
   -1.1760   19.6999  -30.1013 H   0  0  0  0  0  0  0  0  0  0  0  0
   -1.9605   19.0018  -34.5397 H   0  0  0  0  0  0  0  0  0  0  0  0
   -1.6160   17.9659  -33.0985 H   0  0  0  0  0  0  0  0  0  0  0  0
   -3.5636   17.5665  -35.3223 H   0  0  0  0  0  0  0  0  0  0  0  0
   -2.7635   16.3667  -34.2352 H   0  0  0  0  0  0  0  0  0  0  0  0
   -5.7161   18.3847  -34.6837 H   0  0  0  0  0  0  0  0  0  0  0  0
   -6.0592   18.3542  -32.8949 H   0  0  0  0  0  0  0  0  0  0  0  0
   -4.2933   20.1458  -34.4544 H   0  0  0  0  0  0  0  0  0  0  0  0
   -5.0277   20.3596  -32.8268 H   0  0  0  0  0  0  0  0  0  0  0  0
   -3.6032   23.0743  -31.3089 H   0  0  0  0  0  0  0  0  0  0  0  0
   -4.7980   22.7340  -33.7220 H   0  0  0  0  0  0  0  0  0  0  0  0
   -4.0670   23.4100  -32.2440 H   0  0  0  0  0  0  0  0  0  0  0  0
   -6.7849   21.3325  -33.5460 H   0  0  0  0  0  0  0  0  0  0  0  0
  1  2  1  0
  2  3  1  0
  3  4  1  0
  4  5  2  0
  5  6  1  0
  6  7  2  0
  7  8  1  0
  8  9  2  0
  8 10  2  0
  8 11  1  0
 11 12  1  0
 12 13  2  0
 13 14  1  0
 14 15  2  0
 15 16  1  0
 16 17  1  0
 17 18  2  0
 17 19  2  0
 17 20  1  0
 20 21  1  0
 21 22  1  0
 22 23  1  0
 23 24  1  0
 24 25  1  0
 16 26  2  0
  7 27  1  0
 27 28  1  0
 27 29  2  0
 29  4  1  0
 26 12  1  0
 25 20  1  0
  1 30  1  0
  1 31  1  0
  1 32  1  0
  2 33  1  0
  2 34  1  0
  5 35  1  0
  6 36  1  0
 13 37  1  0
 14 38  1  0
 15 39  1  0
 21 40  1  0
 21 41  1  0
 22 42  1  0
 22 43  1  0
 24 44  1  0
 24 45  1  0
 25 46  1  0
 25 47  1  0
 26 48  1  0
 28 49  1  0
 28 50  1  0
 29 51  1  0
M  CHG  1  11  -1
M  END
>  <UniqueID>  (35) 
34

>  <SMILES>  (35) 
CCOc1ccc(S(=O)(=O)[N-]c2cccc(S(=O)(=O)N3CCOCC3)c2)c(N)c1

>  <Energy>  (35) 
62.466969213571254

>  <Genealogy>  (35) 
CCOc1ccc(S(=O)(=O)[N-]c2cccc(S(=O)(=O)N3CCOCC3)c2)c(N)c1 (protonated)
CCOc1ccc(S(=O)(=O)[N-]c2cccc(S(=O)(=O)N3CCOCC3)c2)c(N)c1 (3D coordinates assigned)
CCOc1ccc(S(=O)(=O)[N-]c2cccc(S(=O)(=O)N3CCOCC3)c2)c(N)c1 (nonaromatic ring conformer: 62.466969213571254 kcal/mol)

>  <smiles>  (35) 
CCOc1ccc(S(=O)(=O)Nc2cccc(S(=O)(=O)N3CCOCC3)c2)c(N)c1

>  <score_type>  (35) 
oracle

>  <origin>  (35) 
adgpu

>  <m_score__min__energy>  (35) 
-10.609999999999999

>  <m_primary>  (35) 
energy

$$$$
35:0
     RDKit          3D

 67 71  0  0  0  0  0  0  0  0999 V2000
   -3.4750   21.4880  -27.8530 C   0  0  0  0  0  0  0  0  0  0  0  0
   -2.3050   22.3560  -27.4810 C   0  0  0  0  0  0  0  0  0  0  0  0
   -1.1820   21.7870  -26.8600 C   0  0  0  0  0  0  0  0  0  0  0  0
   -0.0920   22.5820  -26.5070 C   0  0  0  0  0  0  0  0  0  0  0  0
   -0.1040   23.9540  -26.7720 C   0  0  0  0  0  0  0  0  0  0  0  0
    1.3050   24.9290  -26.3600 S   0  0  0  0  0  0  0  0  0  0  0  0
    1.5180   25.9480  -27.4450 O   0  0  0  0  0  0  0  0  0  0  0  0
    2.5280   24.0590  -26.2760 O   0  0  0  0  0  0  0  0  0  0  0  0
    1.0400   25.7360  -24.8330 N   0  0  0  0  0  0  0  0  0  0  0  0
   -0.3110   25.4120  -24.3210 C   0  0  0  0  0  0  0  0  0  0  0  0
   -0.8010   26.4940  -23.3410 C   0  0  0  0  0  0  0  0  0  0  0  0
   -0.8700   27.8020  -23.9010 O   0  0  0  0  0  0  0  0  0  0  0  0
   -0.0440   27.9830  -25.0400 C   0  0  0  0  0  0  0  0  0  0  0  0
    1.2760   27.1970  -24.9510 C   0  0  0  0  0  0  0  0  0  0  0  0
   -1.2200   24.5310  -27.3950 C   0  0  0  0  0  0  0  0  0  0  0  0
   -2.3340   23.7420  -27.7340 C   0  0  0  0  0  0  0  0  0  0  0  0
   -3.4830   24.3160  -28.3770 N   0  0  0  0  0  0  0  0  0  0  0  0
   -3.8030   24.2840  -29.7750 C   0  0  0  0  0  0  0  0  0  0  0  0
   -3.4860   25.2810  -30.4790 O   0  0  0  0  0  0  0  0  0  0  0  0
   -4.4090   23.0950  -30.4290 C   0  0  0  0  0  0  0  0  0  0  0  0
   -3.6120   22.0790  -30.9840 C   0  0  0  0  0  0  0  0  0  0  0  0
   -4.2010   20.9710  -31.5980 C   0  0  0  0  0  0  0  0  0  0  0  0
   -5.5900   20.8750  -31.6890 C   0  0  0  0  0  0  0  0  0  0  0  0
   -6.4050   21.8930  -31.1730 C   0  0  0  0  0  0  0  0  0  0  0  0
   -8.1630   21.7950  -31.3620 S   0  0  0  0  0  0  0  0  0  0  0  0
   -8.6280   22.9440  -32.2150 O   0  0  0  0  0  0  0  0  0  0  0  0
   -8.8030   21.9260  -30.0070 O   0  0  0  0  0  0  0  0  0  0  0  0
   -8.6860   20.3140  -32.1360 N   0  0  0  0  0  0  0  0  0  0  0  0
   -8.6770   19.1680  -31.1900 C   0  0  0  0  0  0  0  0  0  0  0  0
   -8.4670   17.8140  -31.8790 C   0  0  0  0  0  0  0  0  0  0  0  0
   -7.2160   17.8840  -32.6980 C   0  0  0  0  0  0  0  0  0  0  0  0
   -6.2800   16.8380  -32.7120 C   0  0  0  0  0  0  0  0  0  0  0  0
   -5.1180   16.9550  -33.4810 C   0  0  0  0  0  0  0  0  0  0  0  0
   -4.8950   18.1040  -34.2440 C   0  0  0  0  0  0  0  0  0  0  0  0
   -5.8350   19.1400  -34.2420 C   0  0  0  0  0  0  0  0  0  0  0  0
   -6.9900   19.0380  -33.4570 C   0  0  0  0  0  0  0  0  0  0  0  0
   -8.0420   20.1180  -33.4610 C   0  0  0  0  0  0  0  0  0  0  0  0
   -5.8090   23.0040  -30.5570 C   0  0  0  0  0  0  0  0  0  0  0  0
   -3.9664   21.1234  -26.9389 H   0  0  0  0  0  0  0  0  0  0  0  0
   -4.1924   22.0741  -28.4461 H   0  0  0  0  0  0  0  0  0  0  0  0
   -3.1222   20.6314  -28.4461 H   0  0  0  0  0  0  0  0  0  0  0  0
   -1.1617   20.7073  -26.6505 H   0  0  0  0  0  0  0  0  0  0  0  0
    0.7816   22.1268  -26.0175 H   0  0  0  0  0  0  0  0  0  0  0  0
    1.7450   25.3470  -24.1610 H   0  0  0  0  0  0  0  0  0  0  0  0
   -1.0112   25.3486  -25.1670 H   0  0  0  0  0  0  0  0  0  0  0  0
   -0.2639   24.4506  -23.7885 H   0  0  0  0  0  0  0  0  0  0  0  0
   -1.8064   26.2144  -22.9931 H   0  0  0  0  0  0  0  0  0  0  0  0
   -0.0643   26.5382  -22.5253 H   0  0  0  0  0  0  0  0  0  0  0  0
   -0.5946   27.6455  -25.9305 H   0  0  0  0  0  0  0  0  0  0  0  0
    0.2104   29.0516  -25.0979 H   0  0  0  0  0  0  0  0  0  0  0  0
    1.8674   27.3902  -25.8581 H   0  0  0  0  0  0  0  0  0  0  0  0
    1.8130   27.5307  -24.0509 H   0  0  0  0  0  0  0  0  0  0  0  0
   -1.2242   25.6077  -27.6201 H   0  0  0  0  0  0  0  0  0  0  0  0
   -2.5159   22.1569  -30.9345 H   0  0  0  0  0  0  0  0  0  0  0  0
   -3.5679   20.1719  -32.0109 H   0  0  0  0  0  0  0  0  0  0  0  0
   -6.0479   19.9968  -32.1677 H   0  0  0  0  0  0  0  0  0  0  0  0
   -7.8642   19.3204  -30.4647 H   0  0  0  0  0  0  0  0  0  0  0  0
   -9.6643   19.1375  -30.7059 H   0  0  0  0  0  0  0  0  0  0  0  0
   -8.3696   17.0233  -31.1205 H   0  0  0  0  0  0  0  0  0  0  0  0
   -9.3269   17.5837  -32.5252 H   0  0  0  0  0  0  0  0  0  0  0  0
   -6.4601   15.9288  -32.1197 H   0  0  0  0  0  0  0  0  0  0  0  0
   -4.3782   16.1410  -33.4852 H   0  0  0  0  0  0  0  0  0  0  0  0
   -3.9794   18.1941  -34.8469 H   0  0  0  0  0  0  0  0  0  0  0  0
   -5.6666   20.0358  -34.8578 H   0  0  0  0  0  0  0  0  0  0  0  0
   -7.5701   21.0644  -33.7636 H   0  0  0  0  0  0  0  0  0  0  0  0
   -8.8286   19.8050  -34.1633 H   0  0  0  0  0  0  0  0  0  0  0  0
   -6.4433   23.8146  -30.1689 H   0  0  0  0  0  0  0  0  0  0  0  0
  1  2  1  0
  2  3  2  0
  3  4  1  0
  4  5  2  0
  5  6  1  0
  6  7  2  0
  6  8  2  0
  6  9  1  0
  9 10  1  0
 10 11  1  0
 11 12  1  0
 12 13  1  0
 13 14  1  0
  5 15  1  0
 15 16  2  0
 16 17  1  0
 17 18  1  0
 18 19  2  0
 18 20  1  0
 20 21  2  0
 21 22  1  0
 22 23  2  0
 23 24  1  0
 24 25  1  0
 25 26  2  0
 25 27  2  0
 25 28  1  0
 28 29  1  0
 29 30  1  0
 30 31  1  0
 31 32  2  0
 32 33  1  0
 33 34  2  0
 34 35  1  0
 35 36  2  0
 36 37  1  0
 24 38  2  0
 16  2  1  0
 38 20  1  0
 14  9  1  0
 37 28  1  0
 36 31  1  0
  1 39  1  0
  1 40  1  0
  1 41  1  0
  3 42  1  0
  4 43  1  0
  9 44  1  0
 10 45  1  0
 10 46  1  0
 11 47  1  0
 11 48  1  0
 13 49  1  0
 13 50  1  0
 14 51  1  0
 14 52  1  0
 15 53  1  0
 21 54  1  0
 22 55  1  0
 23 56  1  0
 29 57  1  0
 29 58  1  0
 30 59  1  0
 30 60  1  0
 32 61  1  0
 33 62  1  0
 34 63  1  0
 35 64  1  0
 37 65  1  0
 37 66  1  0
 38 67  1  0
M  CHG  2   9   1  17  -1
M  END
>  <UniqueID>  (36) 
35

>  <SMILES>  (36) 
Cc1ccc(S(=O)(=O)[NH+]2CCOCC2)cc1[N-]C(=O)c1cccc(S(=O)(=O)N2CCc3ccccc3C2)c1

>  <Energy>  (36) 
96.14463906473974

>  <Genealogy>  (36) 
Cc1ccc(S(=O)(=O)[NH+]2CCOCC2)cc1[N-]C(=O)c1cccc(S(=O)(=O)N2CCc3ccccc3C2)c1 (protonated)
Cc1ccc(S(=O)(=O)[NH+]2CCOCC2)cc1[N-]C(=O)c1cccc(S(=O)(=O)N2CCc3ccccc3C2)c1 (3D coordinates assigned)
Cc1ccc(S(=O)(=O)[NH+]2CCOCC2)cc1[N-]C(=O)c1cccc(S(=O)(=O)N2CCc3ccccc3C2)c1 (nonaromatic ring conformer: 96.14463906473974 kcal/mol)

>  <smiles>  (36) 
Cc1ccc(S(=O)(=O)N2CCOCC2)cc1NC(=O)c1cccc(S(=O)(=O)N2CCc3ccccc3C2)c1

>  <score_type>  (36) 
oracle

>  <origin>  (36) 
adgpu

>  <m_score__min__energy>  (36) 
-12.43

>  <m_primary>  (36) 
energy

$$$$
36:0
     RDKit          3D

 36 38  0  0  0  0  0  0  0  0999 V2000
   -9.9960   21.0577  -32.6208 H   0  0  0  0  0  0  0  0  0  0  0  0
   -9.0830   21.5080  -32.2040 C   0  0  0  0  0  0  0  0  0  0  0  0
   -7.9790   20.7050  -31.9120 C   0  0  0  0  0  0  0  0  0  0  0  0
   -8.0252   19.6216  -32.0965 H   0  0  0  0  0  0  0  0  0  0  0  0
   -6.8150   21.2730  -31.3860 C   0  0  0  0  0  0  0  0  0  0  0  0
   -5.9513   20.6331  -31.1526 H   0  0  0  0  0  0  0  0  0  0  0  0
   -6.7420   22.6620  -31.1530 C   0  0  0  0  0  0  0  0  0  0  0  0
   -5.5190   23.2890  -30.5880 C   0  0  0  0  0  0  0  0  0  0  0  0
   -4.9650   24.3620  -31.2150 N   0  0  0  0  0  0  0  0  0  0  0  0
   -3.8670   24.9610  -30.7530 N   0  0  0  0  0  0  0  0  0  0  0  0
   -3.2320   24.5340  -29.6310 C   0  0  0  0  0  0  0  0  0  0  0  0
   -2.1690   25.1740  -29.2340 N   0  0  0  0  0  0  0  0  0  0  0  0
   -1.2090   24.8130  -27.8300 S   0  0  0  0  0  0  0  0  0  0  0  0
    0.0960   25.5530  -27.9220 O   0  0  0  0  0  0  0  0  0  0  0  0
   -1.9450   25.2730  -26.6040 O   0  0  0  0  0  0  0  0  0  0  0  0
   -0.9340   23.0770  -27.7100 C   0  0  0  0  0  0  0  0  0  0  0  0
   -1.6790   22.3120  -26.8020 C   0  0  0  0  0  0  0  0  0  0  0  0
   -2.4289   22.7980  -26.1605 H   0  0  0  0  0  0  0  0  0  0  0  0
   -1.4710   20.9330  -26.7100 C   0  0  0  0  0  0  0  0  0  0  0  0
   -2.0616   20.3358  -25.9997 H   0  0  0  0  0  0  0  0  0  0  0  0
   -0.5120   20.3080  -27.5200 C   0  0  0  0  0  0  0  0  0  0  0  0
   -0.3000   18.8970  -27.4260 N   0  0  0  0  0  0  0  0  0  0  0  0
    0.2960   18.3970  -28.1220 H   0  0  0  0  0  0  0  0  0  0  0  0
   -0.7380   18.3400  -26.6570 H   0  0  0  0  0  0  0  0  0  0  0  0
    0.2360   21.0760  -28.4230 C   0  0  0  0  0  0  0  0  0  0  0  0
    0.9905   20.5916  -29.0603 H   0  0  0  0  0  0  0  0  0  0  0  0
    0.0270   22.4550  -28.5170 C   0  0  0  0  0  0  0  0  0  0  0  0
    0.6184   23.0528  -29.2261 H   0  0  0  0  0  0  0  0  0  0  0  0
   -3.7500   23.4210  -28.9470 C   0  0  0  0  0  0  0  0  0  0  0  0
   -3.2549   23.0465  -28.0389 H   0  0  0  0  0  0  0  0  0  0  0  0
   -4.8980   22.7970  -29.4320 C   0  0  0  0  0  0  0  0  0  0  0  0
   -5.3145   21.9228  -28.9101 H   0  0  0  0  0  0  0  0  0  0  0  0
   -7.8670   23.4570  -31.4410 C   0  0  0  0  0  0  0  0  0  0  0  0
   -7.8327   24.5399  -31.2507 H   0  0  0  0  0  0  0  0  0  0  0  0
   -9.0280   22.8820  -31.9670 C   0  0  0  0  0  0  0  0  0  0  0  0
   -9.8993   23.5138  -32.1943 H   0  0  0  0  0  0  0  0  0  0  0  0
  1  2  1  0
  2  3  2  0
  3  4  1  0
  3  5  1  0
  5  6  1  0
  5  7  2  0
  7  8  1  0
  8  9  2  0
  9 10  1  0
 10 11  1  0
 11 12  2  0
 12 13  1  0
 13 14  2  0
 13 15  2  0
 13 16  1  0
 16 17  2  0
 17 18  1  0
 17 19  1  0
 19 20  1  0
 19 21  2  0
 21 22  1  0
 22 23  1  0
 22 24  1  0
 21 25  1  0
 25 26  1  0
 25 27  2  0
 27 28  1  0
 11 29  1  0
 29 30  1  0
 29 31  2  0
 31 32  1  0
  7 33  1  0
 33 34  1  0
 33 35  2  0
 35 36  1  0
 35  2  1  0
 31  8  1  0
 27 16  1  0
M  CHG  1  10  -1
M  END
>  <UniqueID>  (37) 
36

>  <SMILES>  (37) 
Nc1ccc(S(=O)(=O)/N=c2\ccc(-c3ccccc3)n[n-]2)cc1

>  <Energy>  (37) 
48.26447549912112

>  <Genealogy>  (37) 
Nc1ccc(S(=O)(=O)N=c2ccc(-c3ccccc3)n[n-]2)cc1 (protonated)
Nc1ccc(S(=O)(=O)/N=c2\ccc(-c3ccccc3)n[n-]2)cc1 (cis-trans isomerization)
Nc1ccc(S(=O)(=O)/N=c2\ccc(-c3ccccc3)n[n-]2)cc1 (3D coordinates assigned)
Nc1ccc(S(=O)(=O)/N=c2\ccc(-c3ccccc3)n[n-]2)cc1 (optimized conformer: 48.26447549912112 kcal/mol)

>  <smiles>  (37) 
Nc1ccc(S(=O)(=O)N=c2ccc(-c3ccccc3)n[nH]2)cc1

>  <score_type>  (37) 
oracle

>  <origin>  (37) 
adgpu

>  <m_score__min__energy>  (37) 
-10.800000000000001

>  <m_primary>  (37) 
energy

$$$$
37:0
     RDKit          3D

 36 38  0  0  0  0  0  0  0  0999 V2000
   -6.3310   16.4820  -34.0270 C   0  0  0  0  0  0  0  0  0  0  0  0
   -6.9100   17.5790  -33.1990 C   0  0  0  0  0  0  0  0  0  0  0  0
   -6.5310   18.9040  -33.2330 C   0  0  0  0  0  0  0  0  0  0  0  0
   -7.4040   19.5140  -32.3510 C   0  0  0  0  0  0  0  0  0  0  0  0
   -7.4600   20.9470  -31.9800 C   0  0  0  0  0  0  0  0  0  0  0  0
   -8.6910   21.6230  -32.0100 C   0  0  0  0  0  0  0  0  0  0  0  0
   -8.7650   22.9750  -31.6640 C   0  0  0  0  0  0  0  0  0  0  0  0
   -7.6120   23.6670  -31.2900 C   0  0  0  0  0  0  0  0  0  0  0  0
   -6.3770   23.0100  -31.2600 C   0  0  0  0  0  0  0  0  0  0  0  0
   -4.9260   23.8990  -30.8020 S   0  0  0  0  0  0  0  0  0  0  0  0
   -5.0730   25.3610  -31.1180 O   0  0  0  0  0  0  0  0  0  0  0  0
   -3.7600   23.3470  -31.5720 O   0  0  0  0  0  0  0  0  0  0  0  0
   -4.6310   23.7130  -29.1020 N   0  0  0  0  0  0  0  0  0  0  0  0
   -3.3750   23.2700  -28.5510 C   0  0  0  0  0  0  0  0  0  0  0  0
   -3.2630   22.0420  -27.8680 C   0  0  0  0  0  0  0  0  0  0  0  0
   -2.0330   21.6320  -27.3460 C   0  0  0  0  0  0  0  0  0  0  0  0
   -0.9050   22.4380  -27.4920 C   0  0  0  0  0  0  0  0  0  0  0  0
   -1.0020   23.6610  -28.1580 C   0  0  0  0  0  0  0  0  0  0  0  0
   -2.2290   24.0790  -28.6870 C   0  0  0  0  0  0  0  0  0  0  0  0
   -2.2980   25.2990  -29.3500 O   0  0  0  0  0  0  0  0  0  0  0  0
   -6.3030   21.6520  -31.6000 C   0  0  0  0  0  0  0  0  0  0  0  0
   -8.2180   18.5990  -31.8710 O   0  0  0  0  0  0  0  0  0  0  0  0
   -7.9550   17.4240  -32.3650 N   0  0  0  0  0  0  0  0  0  0  0  0
   -5.9199   15.7031  -33.3680 H   0  0  0  0  0  0  0  0  0  0  0  0
   -7.1173   16.0477  -34.6619 H   0  0  0  0  0  0  0  0  0  0  0  0
   -5.5287   16.8861  -34.6619 H   0  0  0  0  0  0  0  0  0  0  0  0
   -5.7252   19.3664  -33.8220 H   0  0  0  0  0  0  0  0  0  0  0  0
   -9.6028   21.0846  -32.3078 H   0  0  0  0  0  0  0  0  0  0  0  0
   -9.7341   23.4950  -31.6865 H   0  0  0  0  0  0  0  0  0  0  0  0
   -7.6744   24.7311  -31.0183 H   0  0  0  0  0  0  0  0  0  0  0  0
   -5.3940   24.0230  -28.4600 H   0  0  0  0  0  0  0  0  0  0  0  0
   -4.1494   21.4023  -27.7451 H   0  0  0  0  0  0  0  0  0  0  0  0
   -1.9548   20.6701  -26.8182 H   0  0  0  0  0  0  0  0  0  0  0  0
    0.0618   22.1102  -27.0823 H   0  0  0  0  0  0  0  0  0  0  0  0
   -0.1119   24.2980  -28.2675 H   0  0  0  0  0  0  0  0  0  0  0  0
   -5.3333   21.1337  -31.5695 H   0  0  0  0  0  0  0  0  0  0  0  0
  1  2  1  0
  2  3  1  0
  3  4  2  0
  4  5  1  0
  5  6  2  0
  6  7  1  0
  7  8  2  0
  8  9  1  0
  9 10  1  0
 10 11  2  0
 10 12  2  0
 10 13  1  0
 13 14  1  0
 14 15  2  0
 15 16  1  0
 16 17  2  0
 17 18  1  0
 18 19  2  0
 19 20  1  0
  9 21  2  0
  4 22  1  0
 22 23  1  0
 23  2  2  0
 21  5  1  0
 19 14  1  0
  1 24  1  0
  1 25  1  0
  1 26  1  0
  3 27  1  0
  6 28  1  0
  7 29  1  0
  8 30  1  0
 13 31  1  0
 15 32  1  0
 16 33  1  0
 17 34  1  0
 18 35  1  0
 21 36  1  0
M  CHG  1  20  -1
M  END
>  <UniqueID>  (38) 
37

>  <SMILES>  (38) 
Cc1cc(-c2cccc(S(=O)(=O)Nc3ccccc3[O-])c2)on1

>  <Energy>  (38) 
71.7398146794601

>  <Genealogy>  (38) 
Cc1cc(-c2cccc(S(=O)(=O)Nc3ccccc3[O-])c2)on1 (protonated)
Cc1cc(-c2cccc(S(=O)(=O)Nc3ccccc3[O-])c2)on1 (3D coordinates assigned)
Cc1cc(-c2cccc(S(=O)(=O)Nc3ccccc3[O-])c2)on1 (optimized conformer: 71.7398146794601 kcal/mol)

>  <smiles>  (38) 
Cc1cc(-c2cccc(S(=O)(=O)Nc3ccccc3O)c2)on1

>  <score_type>  (38) 
oracle

>  <origin>  (38) 
adgpu

>  <m_score__min__energy>  (38) 
-12.619999999999999

>  <m_primary>  (38) 
energy

$$$$
38:0
     RDKit          3D

 58 61  0  0  0  0  0  0  0  0999 V2000
   -2.1050   23.0920  -30.7390 O   0  0  0  0  0  0  0  0  0  0  0  0
   -3.1680   22.4140  -30.7970 C   0  0  0  0  0  0  0  0  0  0  0  0
   -3.0940   20.9840  -30.8560 N   0  0  0  0  0  0  0  0  0  0  0  0
   -2.8410   20.1890  -32.0240 C   0  0  0  0  0  0  0  0  0  0  0  0
   -3.8720   19.4660  -32.6540 C   0  0  0  0  0  0  0  0  0  0  0  0
   -3.6150   18.7240  -33.8170 C   0  0  0  0  0  0  0  0  0  0  0  0
   -4.9100   17.8220  -34.6040 S   0  0  0  0  0  0  0  0  0  0  0  0
   -5.8480   18.7940  -35.2660 O   0  0  0  0  0  0  0  0  0  0  0  0
   -4.3150   16.9320  -35.6620 O   0  0  0  0  0  0  0  0  0  0  0  0
   -5.7460   16.8570  -33.3950 N   0  0  0  0  0  0  0  0  0  0  0  0
   -4.8230   16.2870  -32.3980 C   0  0  0  0  0  0  0  0  0  0  0  0
   -3.9750   15.1330  -32.9890 C   0  0  0  0  0  0  0  0  0  0  0  0
   -4.4380   14.7070  -34.2580 O   0  0  0  0  0  0  0  0  0  0  0  0
   -5.8300   14.4840  -34.2120 C   0  0  0  0  0  0  0  0  0  0  0  0
   -6.5920   15.8090  -34.0040 C   0  0  0  0  0  0  0  0  0  0  0  0
   -2.3210   18.7080  -34.3540 C   0  0  0  0  0  0  0  0  0  0  0  0
   -1.2990   19.4390  -33.7470 C   0  0  0  0  0  0  0  0  0  0  0  0
   -1.5510   20.1850  -32.5910 C   0  0  0  0  0  0  0  0  0  0  0  0
   -0.5050   20.9080  -32.0190 O   0  0  0  0  0  0  0  0  0  0  0  0
   -4.4810   23.1070  -30.8710 C   0  0  0  0  0  0  0  0  0  0  0  0
   -5.6460   22.3590  -31.1350 C   0  0  0  0  0  0  0  0  0  0  0  0
   -6.8960   22.9840  -31.2210 C   0  0  0  0  0  0  0  0  0  0  0  0
   -8.3580   22.0470  -31.5230 S   0  0  0  0  0  0  0  0  0  0  0  0
   -8.7510   21.3620  -30.2450 O   0  0  0  0  0  0  0  0  0  0  0  0
   -9.4770   22.9590  -31.9420 O   0  0  0  0  0  0  0  0  0  0  0  0
   -8.0380   20.8480  -32.7610 N   0  0  0  0  0  0  0  0  0  0  0  0
   -9.1690   19.9220  -32.9580 C   0  0  0  0  0  0  0  0  0  0  0  0
   -9.1710   18.7750  -31.9350 C   0  0  0  0  0  0  0  0  0  0  0  0
   -7.9330   18.0960  -31.9400 O   0  0  0  0  0  0  0  0  0  0  0  0
   -6.9080   18.9810  -31.5390 C   0  0  0  0  0  0  0  0  0  0  0  0
   -6.7640   20.1390  -32.5400 C   0  0  0  0  0  0  0  0  0  0  0  0
   -6.9940   24.3670  -31.0410 C   0  0  0  0  0  0  0  0  0  0  0  0
   -5.8530   25.1220  -30.7760 C   0  0  0  0  0  0  0  0  0  0  0  0
   -4.5990   24.5050  -30.6940 C   0  0  0  0  0  0  0  0  0  0  0  0
   -3.4850   25.3000  -30.4480 O   0  0  0  0  0  0  0  0  0  0  0  0
   -4.8873   19.4830  -32.2310 H   0  0  0  0  0  0  0  0  0  0  0  0
   -4.1474   17.0799  -32.0446 H   0  0  0  0  0  0  0  0  0  0  0  0
   -5.4234   15.8799  -31.5711 H   0  0  0  0  0  0  0  0  0  0  0  0
   -2.9353   15.4774  -33.0915 H   0  0  0  0  0  0  0  0  0  0  0  0
   -4.0551   14.2773  -32.3024 H   0  0  0  0  0  0  0  0  0  0  0  0
   -6.1533   14.0272  -35.1590 H   0  0  0  0  0  0  0  0  0  0  0  0
   -6.0514   13.8144  -33.3678 H   0  0  0  0  0  0  0  0  0  0  0  0
   -6.9500   16.1674  -34.9804 H   0  0  0  0  0  0  0  0  0  0  0  0
   -7.4270   15.6108  -33.3159 H   0  0  0  0  0  0  0  0  0  0  0  0
   -2.1099   18.1170  -35.2574 H   0  0  0  0  0  0  0  0  0  0  0  0
   -0.2882   19.4285  -34.1807 H   0  0  0  0  0  0  0  0  0  0  0  0
   -0.6510   21.5870  -31.2830 H   0  0  0  0  0  0  0  0  0  0  0  0
   -5.5723   21.2705  -31.2753 H   0  0  0  0  0  0  0  0  0  0  0  0
  -10.1085   20.4855  -32.8590 H   0  0  0  0  0  0  0  0  0  0  0  0
   -9.0692   19.4784  -33.9596 H   0  0  0  0  0  0  0  0  0  0  0  0
   -9.3520   19.1873  -30.9314 H   0  0  0  0  0  0  0  0  0  0  0  0
   -9.9646   18.0629  -32.2055 H   0  0  0  0  0  0  0  0  0  0  0  0
   -7.1520   19.3898  -30.5473 H   0  0  0  0  0  0  0  0  0  0  0  0
   -5.9584   18.4270  -31.5017 H   0  0  0  0  0  0  0  0  0  0  0  0
   -6.0241   20.8537  -32.1504 H   0  0  0  0  0  0  0  0  0  0  0  0
   -6.4433   19.7143  -33.5027 H   0  0  0  0  0  0  0  0  0  0  0  0
   -7.9747   24.8607  -31.1088 H   0  0  0  0  0  0  0  0  0  0  0  0
   -5.9382   26.2090  -30.6304 H   0  0  0  0  0  0  0  0  0  0  0  0
  1  2  2  0
  2  3  1  0
  3  4  1  0
  4  5  2  0
  5  6  1  0
  6  7  1  0
  7  8  2  0
  7  9  2  0
  7 10  1  0
 10 11  1  0
 11 12  1  0
 12 13  1  0
 13 14  1  0
 14 15  1  0
  6 16  2  0
 16 17  1  0
 17 18  2  0
 18 19  1  0
  2 20  1  0
 20 21  2  0
 21 22  1  0
 22 23  1  0
 23 24  2  0
 23 25  2  0
 23 26  1  0
 26 27  1  0
 27 28  1  0
 28 29  1  0
 29 30  1  0
 30 31  1  0
 22 32  2  0
 32 33  1  0
 33 34  2  0
 34 35  1  0
 18  4  1  0
 34 20  1  0
 15 10  1  0
 31 26  1  0
  5 36  1  0
 11 37  1  0
 11 38  1  0
 12 39  1  0
 12 40  1  0
 14 41  1  0
 14 42  1  0
 15 43  1  0
 15 44  1  0
 16 45  1  0
 17 46  1  0
 19 47  1  0
 21 48  1  0
 27 49  1  0
 27 50  1  0
 28 51  1  0
 28 52  1  0
 30 53  1  0
 30 54  1  0
 31 55  1  0
 31 56  1  0
 32 57  1  0
 33 58  1  0
M  CHG  2   3  -1  35  -1
M  END
>  <UniqueID>  (39) 
38

>  <SMILES>  (39) 
O=C([N-]c1cc(S(=O)(=O)N2CCOCC2)ccc1O)c1cc(S(=O)(=O)N2CCOCC2)ccc1[O-]

>  <Energy>  (39) 
84.46263330486025

>  <Genealogy>  (39) 
O=C([N-]c1cc(S(=O)(=O)N2CCOCC2)ccc1O)c1cc(S(=O)(=O)N2CCOCC2)ccc1[O-] (protonated)
O=C([N-]c1cc(S(=O)(=O)N2CCOCC2)ccc1O)c1cc(S(=O)(=O)N2CCOCC2)ccc1[O-] (3D coordinates assigned)
O=C([N-]c1cc(S(=O)(=O)N2CCOCC2)ccc1O)c1cc(S(=O)(=O)N2CCOCC2)ccc1[O-] (nonaromatic ring conformer: 84.46263330486025 kcal/mol)

>  <smiles>  (39) 
O=C(Nc1cc(S(=O)(=O)N2CCOCC2)ccc1O)c1cc(S(=O)(=O)N2CCOCC2)ccc1O

>  <score_type>  (39) 
oracle

>  <origin>  (39) 
adgpu

>  <m_score__min__energy>  (39) 
-13.800000000000001

>  <m_primary>  (39) 
energy

$$$$
39:0
     RDKit          3D

 59 62  0  0  0  0  0  0  0  0999 V2000
   -8.4920   22.0360  -31.9160 C   0  0  0  0  0  0  0  0  0  0  0  0
   -7.2660   22.7500  -31.4440 C   0  0  0  0  0  0  0  0  0  0  0  0
   -5.9930   22.2760  -31.7870 C   0  0  0  0  0  0  0  0  0  0  0  0
   -4.8550   22.9570  -31.3330 C   0  0  0  0  0  0  0  0  0  0  0  0
   -3.4860   22.4360  -31.6550 C   0  0  0  0  0  0  0  0  0  0  0  0
   -3.4830   21.9340  -32.9880 O   0  0  0  0  0  0  0  0  0  0  0  0
   -3.2460   20.5960  -33.3420 C   0  0  0  0  0  0  0  0  0  0  0  0
   -4.3010   19.6790  -33.5190 C   0  0  0  0  0  0  0  0  0  0  0  0
   -4.0370   18.3590  -33.8920 C   0  0  0  0  0  0  0  0  0  0  0  0
   -2.7230   17.9360  -34.0860 C   0  0  0  0  0  0  0  0  0  0  0  0
   -1.6670   18.8320  -33.9090 C   0  0  0  0  0  0  0  0  0  0  0  0
   -1.9150   20.1660  -33.5400 C   0  0  0  0  0  0  0  0  0  0  0  0
   -0.7780   21.0950  -33.3390 C   0  0  0  0  0  0  0  0  0  0  0  0
   -0.4670   21.9030  -34.2550 O   0  0  0  0  0  0  0  0  0  0  0  0
   -0.0600   21.1580  -32.0990 N   0  0  0  0  0  0  0  0  0  0  0  0
   -0.6360   21.2980  -30.7920 C   0  0  0  0  0  0  0  0  0  0  0  0
   -1.1310   20.1910  -30.0800 C   0  0  0  0  0  0  0  0  0  0  0  0
   -1.6740   20.3610  -28.8050 C   0  0  0  0  0  0  0  0  0  0  0  0
   -1.7170   21.6320  -28.2240 C   0  0  0  0  0  0  0  0  0  0  0  0
   -1.2020   22.7380  -28.9140 C   0  0  0  0  0  0  0  0  0  0  0  0
   -1.2370   24.3440  -28.1940 S   0  0  0  0  0  0  0  0  0  0  0  0
   -2.0690   25.2700  -29.0380 O   0  0  0  0  0  0  0  0  0  0  0  0
    0.1720   24.8680  -28.1350 O   0  0  0  0  0  0  0  0  0  0  0  0
   -1.9030   24.2480  -26.5780 N   0  0  0  0  0  0  0  0  0  0  0  0
   -2.6140   25.4870  -26.2400 C   0  0  0  0  0  0  0  0  0  0  0  0
   -1.6520   26.3990  -25.4930 C   0  0  0  0  0  0  0  0  0  0  0  0
   -0.4770   25.5240  -25.1000 C   0  0  0  0  0  0  0  0  0  0  0  0
   -0.8320   24.1270  -25.5850 C   0  0  0  0  0  0  0  0  0  0  0  0
   -0.6570   22.5640  -30.1940 C   0  0  0  0  0  0  0  0  0  0  0  0
   -5.0120   24.0880  -30.5170 C   0  0  0  0  0  0  0  0  0  0  0  0
   -6.3000   24.5300  -30.1900 C   0  0  0  0  0  0  0  0  0  0  0  0
   -6.4880   25.7430  -29.3360 C   0  0  0  0  0  0  0  0  0  0  0  0
   -7.3860   23.8560  -30.6600 N   0  0  0  0  0  0  0  0  0  0  0  0
   -9.0755   21.6962  -31.0477 H   0  0  0  0  0  0  0  0  0  0  0  0
   -9.1032   22.7194  -32.5238 H   0  0  0  0  0  0  0  0  0  0  0  0
   -8.1992   21.1672  -32.5238 H   0  0  0  0  0  0  0  0  0  0  0  0
   -5.8872   21.3748  -32.4089 H   0  0  0  0  0  0  0  0  0  0  0  0
   -2.7512   23.2497  -31.5656 H   0  0  0  0  0  0  0  0  0  0  0  0
   -3.2201   21.6311  -30.9540 H   0  0  0  0  0  0  0  0  0  0  0  0
   -5.3399   20.0049  -33.3624 H   0  0  0  0  0  0  0  0  0  0  0  0
   -4.8677   17.6519  -34.0329 H   0  0  0  0  0  0  0  0  0  0  0  0
   -2.5180   16.8957  -34.3787 H   0  0  0  0  0  0  0  0  0  0  0  0
   -0.6320   18.4914  -34.0595 H   0  0  0  0  0  0  0  0  0  0  0  0
   -1.0903   19.1877  -30.5291 H   0  0  0  0  0  0  0  0  0  0  0  0
   -2.0688   19.4931  -28.2564 H   0  0  0  0  0  0  0  0  0  0  0  0
   -2.1556   21.7642  -27.2239 H   0  0  0  0  0  0  0  0  0  0  0  0
   -2.9575   25.9820  -27.1603 H   0  0  0  0  0  0  0  0  0  0  0  0
   -3.4897   25.2634  -25.6129 H   0  0  0  0  0  0  0  0  0  0  0  0
   -1.3177   27.2198  -26.1446 H   0  0  0  0  0  0  0  0  0  0  0  0
   -2.1280   26.8578  -24.6138 H   0  0  0  0  0  0  0  0  0  0  0  0
    0.4448   25.8770  -25.5855 H   0  0  0  0  0  0  0  0  0  0  0  0
   -0.2960   25.5461  -24.0152 H   0  0  0  0  0  0  0  0  0  0  0  0
    0.0501   23.6562  -26.0435 H   0  0  0  0  0  0  0  0  0  0  0  0
   -1.1632   23.5036  -24.7414 H   0  0  0  0  0  0  0  0  0  0  0  0
   -0.2426   23.4289  -30.7328 H   0  0  0  0  0  0  0  0  0  0  0  0
   -4.1295   24.6235  -30.1369 H   0  0  0  0  0  0  0  0  0  0  0  0
   -6.4434   25.4551  -28.2753 H   0  0  0  0  0  0  0  0  0  0  0  0
   -5.6919   26.4706  -29.5523 H   0  0  0  0  0  0  0  0  0  0  0  0
   -7.4670   26.1955  -29.5523 H   0  0  0  0  0  0  0  0  0  0  0  0
  1  2  1  0
  2  3  2  0
  3  4  1  0
  4  5  1  0
  5  6  1  0
  6  7  1  0
  7  8  2  0
  8  9  1  0
  9 10  2  0
 10 11  1  0
 11 12  2  0
 12 13  1  0
 13 14  2  0
 13 15  1  0
 15 16  1  0
 16 17  2  0
 17 18  1  0
 18 19  2  0
 19 20  1  0
 20 21  1  0
 21 22  2  0
 21 23  2  0
 21 24  1  0
 24 25  1  0
 25 26  1  0
 26 27  1  0
 27 28  1  0
 20 29  2  0
  4 30  2  0
 30 31  1  0
 31 32  1  0
 31 33  2  0
 33  2  1  0
 12  7  1  0
 29 16  1  0
 28 24  1  0
  1 34  1  0
  1 35  1  0
  1 36  1  0
  3 37  1  0
  5 38  1  0
  5 39  1  0
  8 40  1  0
  9 41  1  0
 10 42  1  0
 11 43  1  0
 17 44  1  0
 18 45  1  0
 19 46  1  0
 25 47  1  0
 25 48  1  0
 26 49  1  0
 26 50  1  0
 27 51  1  0
 27 52  1  0
 28 53  1  0
 28 54  1  0
 29 55  1  0
 30 56  1  0
 32 57  1  0
 32 58  1  0
 32 59  1  0
M  CHG  1  15  -1
M  END
>  <UniqueID>  (40) 
39

>  <SMILES>  (40) 
Cc1cc(COc2ccccc2C(=O)[N-]c2cccc(S(=O)(=O)N3CCCC3)c2)cc(C)n1

>  <Energy>  (40) 
67.78584328159026

>  <Genealogy>  (40) 
Cc1cc(COc2ccccc2C(=O)[N-]c2cccc(S(=O)(=O)N3CCCC3)c2)cc(C)n1 (protonated)
Cc1cc(COc2ccccc2C(=O)[N-]c2cccc(S(=O)(=O)N3CCCC3)c2)cc(C)n1 (3D coordinates assigned)
Cc1cc(COc2ccccc2C(=O)[N-]c2cccc(S(=O)(=O)N3CCCC3)c2)cc(C)n1 (nonaromatic ring conformer: 67.78584328159026 kcal/mol)

>  <smiles>  (40) 
Cc1cc(COc2ccccc2C(=O)Nc2cccc(S(=O)(=O)N3CCCC3)c2)cc(C)n1

>  <score_type>  (40) 
oracle

>  <origin>  (40) 
adgpu

>  <m_score__min__energy>  (40) 
-12.199999999999999

>  <m_primary>  (40) 
energy

$$$$
40:0
     RDKit          3D

 55 58  0  0  0  0  0  0  0  0999 V2000
   -6.1631   24.0389  -30.9080 H   0  0  0  0  0  0  0  0  0  0  0  0
   -5.4090   23.2650  -31.1140 C   0  0  0  0  0  0  0  0  0  0  0  0
   -5.6770   22.3760  -32.0290 N   0  0  0  0  0  0  0  0  0  0  0  0
   -4.7870   21.3800  -32.5590 C   0  0  0  0  0  0  0  0  0  0  0  0
   -3.4760   21.7460  -32.8840 C   0  0  0  0  0  0  0  0  0  0  0  0
   -3.1522   22.7893  -32.7546 H   0  0  0  0  0  0  0  0  0  0  0  0
   -2.5750   20.7950  -33.3720 C   0  0  0  0  0  0  0  0  0  0  0  0
   -1.5519   21.0964  -33.6413 H   0  0  0  0  0  0  0  0  0  0  0  0
   -2.9710   19.4600  -33.5190 C   0  0  0  0  0  0  0  0  0  0  0  0
   -1.8210   18.2670  -34.1160 S   0  0  0  0  0  0  0  0  0  0  0  0
   -2.4950   17.4160  -35.1540 O   0  0  0  0  0  0  0  0  0  0  0  0
   -1.3410   17.3850  -32.9970 O   0  0  0  0  0  0  0  0  0  0  0  0
   -0.4570   19.0680  -34.8290 N   0  0  0  0  0  0  0  0  0  0  0  0
    0.7460   19.0130  -34.3450 C   0  0  0  0  0  0  0  0  0  0  0  0
    1.0140   18.3010  -33.2150 N   0  0  0  0  0  0  0  0  0  0  0  0
    2.2670   18.2390  -32.6950 C   0  0  0  0  0  0  0  0  0  0  0  0
    2.4609   17.6582  -31.7811 H   0  0  0  0  0  0  0  0  0  0  0  0
    3.3060   18.9190  -33.3310 C   0  0  0  0  0  0  0  0  0  0  0  0
    5.0790   18.8570  -32.6300 Br  0  0  0  0  0  0  0  0  0  0  0  0
    3.0470   19.6290  -34.4570 N   0  0  0  0  0  0  0  0  0  0  0  0
    1.7920   19.6960  -34.9850 C   0  0  0  0  0  0  0  0  0  0  0  0
    1.5420   20.4320  -36.1470 O   0  0  0  0  0  0  0  0  0  0  0  0
    0.7170   21.5910  -36.1620 C   0  0  0  0  0  0  0  0  0  0  0  0
    0.4980   21.8986  -35.1288 H   0  0  0  0  0  0  0  0  0  0  0  0
    1.2393   22.4061  -36.6844 H   0  0  0  0  0  0  0  0  0  0  0  0
   -0.2242   21.3644  -36.6844 H   0  0  0  0  0  0  0  0  0  0  0  0
   -4.2730   19.0810  -33.1650 C   0  0  0  0  0  0  0  0  0  0  0  0
   -4.5870   18.0322  -33.2718 H   0  0  0  0  0  0  0  0  0  0  0  0
   -5.1730   20.0310  -32.6770 C   0  0  0  0  0  0  0  0  0  0  0  0
   -6.1877   19.7241  -32.3836 H   0  0  0  0  0  0  0  0  0  0  0  0
   -4.1490   23.2950  -30.3350 C   0  0  0  0  0  0  0  0  0  0  0  0
   -3.4260   24.4820  -30.1620 C   0  0  0  0  0  0  0  0  0  0  0  0
   -3.8640   25.6740  -30.7260 O   0  0  0  0  0  0  0  0  0  0  0  0
   -2.2730   24.4720  -29.4500 N   0  0  0  0  0  0  0  0  0  0  0  0
   -1.7850   23.3290  -28.9070 C   0  0  0  0  0  0  0  0  0  0  0  0
   -0.7170   23.3770  -28.2370 O   0  0  0  0  0  0  0  0  0  0  0  0
   -2.4500   22.1420  -29.0790 N   0  0  0  0  0  0  0  0  0  0  0  0
   -1.9260   20.9300  -28.4990 C   0  0  0  0  0  0  0  0  0  0  0  0
   -2.3910   20.4830  -27.2530 C   0  0  0  0  0  0  0  0  0  0  0  0
   -3.1565   21.0603  -26.7139 H   0  0  0  0  0  0  0  0  0  0  0  0
   -1.8840   19.3060  -26.6950 C   0  0  0  0  0  0  0  0  0  0  0  0
   -2.2534   18.9577  -25.7192 H   0  0  0  0  0  0  0  0  0  0  0  0
   -0.9090   18.5710  -27.3740 C   0  0  0  0  0  0  0  0  0  0  0  0
   -0.5144   17.6443  -26.9319 H   0  0  0  0  0  0  0  0  0  0  0  0
   -0.4320   19.0100  -28.6160 C   0  0  0  0  0  0  0  0  0  0  0  0
    0.7810   18.0690  -29.4770 S   0  0  0  0  0  0  0  0  0  0  0  0
    1.2630   16.9450  -28.6030 O   0  0  0  0  0  0  0  0  0  0  0  0
    1.9540   18.9420  -29.8270 O   0  0  0  0  0  0  0  0  0  0  0  0
    0.0940   17.4230  -30.9250 N   0  0  0  0  0  0  0  0  0  0  0  0
    0.8790   17.0150  -31.4800 H   0  0  0  0  0  0  0  0  0  0  0  0
   -0.2760   18.2320  -31.4740 H   0  0  0  0  0  0  0  0  0  0  0  0
   -0.9470   20.1870  -29.1790 C   0  0  0  0  0  0  0  0  0  0  0  0
   -0.5822   20.5300  -30.1584 H   0  0  0  0  0  0  0  0  0  0  0  0
   -3.6200   22.1120  -29.7960 C   0  0  0  0  0  0  0  0  0  0  0  0
   -4.2290   21.0200  -29.9730 O   0  0  0  0  0  0  0  0  0  0  0  0
  1  2  1  0
  2  3  2  3
  3  4  1  0
  4  5  2  0
  5  6  1  0
  5  7  1  0
  7  8  1  0
  7  9  2  0
  9 10  1  0
 10 11  2  0
 10 12  2  0
 10 13  1  0
 13 14  2  0
 14 15  1  0
 15 16  1  0
 16 17  1  0
 16 18  2  0
 18 19  1  0
 18 20  1  0
 20 21  2  0
 21 22  1  0
 22 23  1  0
 23 24  1  0
 23 25  1  0
 23 26  1  0
  9 27  1  0
 27 28  1  0
 27 29  2  0
 29 30  1  0
  2 31  1  0
 31 32  2  0
 32 33  1  0
 32 34  1  0
 34 35  1  0
 35 36  2  0
 35 37  1  0
 37 38  1  0
 38 39  2  0
 39 40  1  0
 39 41  1  0
 41 42  1  0
 41 43  2  0
 43 44  1  0
 43 45  1  0
 45 46  1  0
 46 47  2  0
 46 48  2  0
 46 49  1  0
 49 50  1  0
 49 51  1  0
 45 52  2  0
 52 53  1  0
 37 54  1  0
 54 55  2  0
 29  4  1  0
 54 31  1  0
 21 14  1  0
 52 38  1  0
M  CHG  3  15  -1  33  -1  34  -1
M  END
>  <UniqueID>  (41) 
40

>  <SMILES>  (41) 
COc1nc(Br)c[n-]/c1=N\S(=O)(=O)c1ccc(N=Cc2c([O-])[n-]c(=O)n(-c3cccc(S(N)(=O)=O)c3)c2=O)cc1

>  <Energy>  (41) 
85.05205425288408

>  <Genealogy>  (41) 
COc1nc(Br)c[n-]c1=NS(=O)(=O)c1ccc(N=Cc2c([O-])[n-]c(=O)n(-c3cccc(S(N)(=O)=O)c3)c2=O)cc1 (protonated)
COc1nc(Br)c[n-]/c1=N\S(=O)(=O)c1ccc(N=Cc2c([O-])[n-]c(=O)n(-c3cccc(S(N)(=O)=O)c3)c2=O)cc1 (cis-trans isomerization)
COc1nc(Br)c[n-]/c1=N\S(=O)(=O)c1ccc(N=Cc2c([O-])[n-]c(=O)n(-c3cccc(S(N)(=O)=O)c3)c2=O)cc1 (3D coordinates assigned)
COc1nc(Br)c[n-]/c1=N\S(=O)(=O)c1ccc(N=Cc2c([O-])[n-]c(=O)n(-c3cccc(S(N)(=O)=O)c3)c2=O)cc1 (optimized conformer: 85.05205425288408 kcal/mol)

>  <smiles>  (41) 
COc1nc(Br)c[nH]c1=NS(=O)(=O)c1ccc(N=Cc2c(O)[nH]c(=O)n(-c3cccc(S(N)(=O)=O)c3)c2=O)cc1

>  <score_type>  (41) 
oracle

>  <origin>  (41) 
adgpu

>  <m_score__min__energy>  (41) 
-13.289999999999999

>  <m_primary>  (41) 
energy

$$$$
41:0
     RDKit          3D

 38 40  0  0  0  0  0  0  0  0999 V2000
   -2.3030   17.9710  -34.2870 N   0  0  0  0  0  0  0  0  0  0  0  0
   -2.4350   18.9130  -33.6270 C   0  0  0  0  0  0  0  0  0  0  0  0
   -2.5980   20.0830  -32.8050 C   0  0  0  0  0  0  0  0  0  0  0  0
   -3.5560   21.0480  -33.1390 C   0  0  0  0  0  0  0  0  0  0  0  0
   -3.7200   22.1810  -32.3360 C   0  0  0  0  0  0  0  0  0  0  0  0
   -2.9130   22.3710  -31.2050 C   0  0  0  0  0  0  0  0  0  0  0  0
   -3.1260   23.5370  -30.3980 N   0  0  0  0  0  0  0  0  0  0  0  0
   -4.2390   24.4360  -30.4810 C   0  0  0  0  0  0  0  0  0  0  0  0
   -4.0630   25.6590  -30.7280 O   0  0  0  0  0  0  0  0  0  0  0  0
   -5.6280   23.8930  -30.3820 C   0  0  0  0  0  0  0  0  0  0  0  0
   -6.5240   24.1100  -31.9590 S   0  0  0  0  0  0  0  0  0  0  0  0
   -7.3760   22.5360  -31.8680 C   0  0  0  0  0  0  0  0  0  0  0  0
   -8.6000   22.4600  -31.2870 N   0  0  0  0  0  0  0  0  0  0  0  0
   -9.2710   21.2810  -31.2340 C   0  0  0  0  0  0  0  0  0  0  0  0
   -8.7060   20.1300  -31.7820 C   0  0  0  0  0  0  0  0  0  0  0  0
   -7.4350   20.2180  -32.3740 C   0  0  0  0  0  0  0  0  0  0  0  0
   -6.7760   19.0400  -32.9950 C   0  0  0  0  0  0  0  0  0  0  0  0
   -6.1110   19.1800  -34.2290 C   0  0  0  0  0  0  0  0  0  0  0  0
   -5.4850   18.0830  -34.8280 C   0  0  0  0  0  0  0  0  0  0  0  0
   -5.5050   16.8350  -34.2000 C   0  0  0  0  0  0  0  0  0  0  0  0
   -6.1500   16.6830  -32.9700 C   0  0  0  0  0  0  0  0  0  0  0  0
   -6.7800   17.7770  -32.3660 C   0  0  0  0  0  0  0  0  0  0  0  0
   -6.8050   21.4260  -32.4020 N   0  0  0  0  0  0  0  0  0  0  0  0
   -1.9650   21.3910  -30.8630 C   0  0  0  0  0  0  0  0  0  0  0  0
   -1.8050   20.2550  -31.6620 C   0  0  0  0  0  0  0  0  0  0  0  0
   -4.1806   20.9146  -34.0346 H   0  0  0  0  0  0  0  0  0  0  0  0
   -4.4862   22.9273  -32.5929 H   0  0  0  0  0  0  0  0  0  0  0  0
   -5.5796   22.8212  -30.1394 H   0  0  0  0  0  0  0  0  0  0  0  0
   -6.1650   24.4406  -29.5934 H   0  0  0  0  0  0  0  0  0  0  0  0
  -10.2616   21.2337  -30.7582 H   0  0  0  0  0  0  0  0  0  0  0  0
   -9.2451   19.1716  -31.7514 H   0  0  0  0  0  0  0  0  0  0  0  0
   -6.0841   20.1612  -34.7256 H   0  0  0  0  0  0  0  0  0  0  0  0
   -4.9757   18.2025  -35.7956 H   0  0  0  0  0  0  0  0  0  0  0  0
   -5.0132   15.9726  -34.6737 H   0  0  0  0  0  0  0  0  0  0  0  0
   -6.1627   15.7008  -32.4750 H   0  0  0  0  0  0  0  0  0  0  0  0
   -7.2814   17.6515  -31.3950 H   0  0  0  0  0  0  0  0  0  0  0  0
   -1.3462   21.5186  -29.9625 H   0  0  0  0  0  0  0  0  0  0  0  0
   -1.0561   19.4954  -31.3934 H   0  0  0  0  0  0  0  0  0  0  0  0
  1  2  3  0
  2  3  1  0
  3  4  2  0
  4  5  1  0
  5  6  2  0
  6  7  1  0
  7  8  1  0
  8  9  2  0
  8 10  1  0
 10 11  1  0
 11 12  1  0
 12 13  2  0
 13 14  1  0
 14 15  2  0
 15 16  1  0
 16 17  1  0
 17 18  2  0
 18 19  1  0
 19 20  2  0
 20 21  1  0
 21 22  2  0
 16 23  2  0
  6 24  1  0
 24 25  2  0
 25  3  1  0
 23 12  1  0
 22 17  1  0
  4 26  1  0
  5 27  1  0
 10 28  1  0
 10 29  1  0
 14 30  1  0
 15 31  1  0
 18 32  1  0
 19 33  1  0
 20 34  1  0
 21 35  1  0
 22 36  1  0
 24 37  1  0
 25 38  1  0
M  CHG  1   7  -1
M  END
>  <UniqueID>  (42) 
41

>  <SMILES>  (42) 
N#Cc1ccc([N-]C(=O)CSc2nccc(-c3ccccc3)n2)cc1

>  <Energy>  (42) 
42.44293875489348

>  <Genealogy>  (42) 
N#Cc1ccc([N-]C(=O)CSc2nccc(-c3ccccc3)n2)cc1 (protonated)
N#Cc1ccc([N-]C(=O)CSc2nccc(-c3ccccc3)n2)cc1 (3D coordinates assigned)
N#Cc1ccc([N-]C(=O)CSc2nccc(-c3ccccc3)n2)cc1 (optimized conformer: 42.44293875489348 kcal/mol)

>  <smiles>  (42) 
N#Cc1ccc(NC(=O)CSc2nccc(-c3ccccc3)n2)cc1

>  <score_type>  (42) 
oracle

>  <origin>  (42) 
adgpu

>  <m_score__min__energy>  (42) 
-11.02

>  <m_primary>  (42) 
energy

$$$$
42:0
     RDKit          3D

 38 40  0  0  0  0  0  0  0  0999 V2000
   -0.9470   25.8140  -27.3730 C   0  0  0  0  0  0  0  0  0  0  0  0
   -0.5680   24.5990  -28.6750 S   0  0  0  0  0  0  0  0  0  0  0  0
   -2.2900   24.1690  -28.9250 C   0  0  0  0  0  0  0  0  0  0  0  0
   -3.1100   24.8990  -29.6990 N   0  0  0  0  0  0  0  0  0  0  0  0
   -4.2590   24.1950  -29.6980 C   0  0  0  0  0  0  0  0  0  0  0  0
   -5.6350   24.6230  -30.6940 S   0  0  0  0  0  0  0  0  0  0  0  0
   -6.8890   24.5410  -29.8700 O   0  0  0  0  0  0  0  0  0  0  0  0
   -5.4730   26.0310  -31.1950 O   0  0  0  0  0  0  0  0  0  0  0  0
   -5.7520   23.4970  -32.0760 C   0  0  0  0  0  0  0  0  0  0  0  0
   -6.9130   22.5600  -31.8880 C   0  0  0  0  0  0  0  0  0  0  0  0
   -6.6930   21.1810  -31.7330 C   0  0  0  0  0  0  0  0  0  0  0  0
   -7.7760   20.3020  -31.6370 C   0  0  0  0  0  0  0  0  0  0  0  0
   -9.0840   20.7900  -31.7060 C   0  0  0  0  0  0  0  0  0  0  0  0
   -9.3120   22.1600  -31.8670 C   0  0  0  0  0  0  0  0  0  0  0  0
   -8.2310   23.0430  -31.9580 C   0  0  0  0  0  0  0  0  0  0  0  0
   -4.2040   23.0510  -28.9870 N   0  0  0  0  0  0  0  0  0  0  0  0
   -2.9580   23.0390  -28.4840 C   0  0  0  0  0  0  0  0  0  0  0  0
   -2.4520   21.9200  -27.6690 C   0  0  0  0  0  0  0  0  0  0  0  0
   -1.2680   21.8600  -26.9510 C   0  0  0  0  0  0  0  0  0  0  0  0
   -1.2520   20.6180  -26.3520 C   0  0  0  0  0  0  0  0  0  0  0  0
   -2.4230   20.0020  -26.7400 C   0  0  0  0  0  0  0  0  0  0  0  0
   -2.8670   18.6400  -26.3240 C   0  0  0  0  0  0  0  0  0  0  0  0
   -3.1180   20.7980  -27.5150 O   0  0  0  0  0  0  0  0  0  0  0  0
   -0.8025   25.3507  -26.3858 H   0  0  0  0  0  0  0  0  0  0  0  0
   -0.2763   26.6801  -27.4733 H   0  0  0  0  0  0  0  0  0  0  0  0
   -1.9911   26.1452  -27.4733 H   0  0  0  0  0  0  0  0  0  0  0  0
   -5.8965   24.0727  -33.0021 H   0  0  0  0  0  0  0  0  0  0  0  0
   -4.8242   22.9095  -32.1388 H   0  0  0  0  0  0  0  0  0  0  0  0
   -5.6652   20.7916  -31.6870 H   0  0  0  0  0  0  0  0  0  0  0  0
   -7.5984   19.2243  -31.5069 H   0  0  0  0  0  0  0  0  0  0  0  0
   -9.9343   20.0959  -31.6336 H   0  0  0  0  0  0  0  0  0  0  0  0
  -10.3415   22.5435  -31.9221 H   0  0  0  0  0  0  0  0  0  0  0  0
   -8.4133   24.1203  -32.0849 H   0  0  0  0  0  0  0  0  0  0  0  0
   -0.4988   22.6426  -26.8746 H   0  0  0  0  0  0  0  0  0  0  0  0
   -0.4682   20.2047  -25.7003 H   0  0  0  0  0  0  0  0  0  0  0  0
   -2.8865   18.5802  -25.2258 H   0  0  0  0  0  0  0  0  0  0  0  0
   -3.8749   18.4461  -26.7197 H   0  0  0  0  0  0  0  0  0  0  0  0
   -2.1670   17.8894  -26.7197 H   0  0  0  0  0  0  0  0  0  0  0  0
  1  2  1  0
  2  3  1  0
  3  4  1  0
  4  5  1  0
  5  6  1  0
  6  7  2  0
  6  8  2  0
  6  9  1  0
  9 10  1  0
 10 11  2  0
 11 12  1  0
 12 13  2  0
 13 14  1  0
 14 15  2  0
  5 16  2  0
 16 17  1  0
 17 18  1  0
 18 19  2  0
 19 20  1  0
 20 21  2  0
 21 22  1  0
 21 23  1  0
 17  3  2  0
 23 18  1  0
 15 10  1  0
  1 24  1  0
  1 25  1  0
  1 26  1  0
  9 27  1  0
  9 28  1  0
 11 29  1  0
 12 30  1  0
 13 31  1  0
 14 32  1  0
 15 33  1  0
 19 34  1  0
 20 35  1  0
 22 36  1  0
 22 37  1  0
 22 38  1  0
M  CHG  1   4  -1
M  END
>  <UniqueID>  (43) 
42

>  <SMILES>  (43) 
CSc1[n-]c(S(=O)(=O)Cc2ccccc2)nc1-c1ccc(C)o1

>  <Energy>  (43) 
84.53254745982592

>  <Genealogy>  (43) 
CSc1[n-]c(S(=O)(=O)Cc2ccccc2)nc1-c1ccc(C)o1 (protonated)
CSc1[n-]c(S(=O)(=O)Cc2ccccc2)nc1-c1ccc(C)o1 (3D coordinates assigned)
CSc1[n-]c(S(=O)(=O)Cc2ccccc2)nc1-c1ccc(C)o1 (optimized conformer: 84.53254745982592 kcal/mol)

>  <smiles>  (43) 
CSc1[nH]c(S(=O)(=O)Cc2ccccc2)nc1-c1ccc(C)o1

>  <score_type>  (43) 
oracle

>  <origin>  (43) 
adgpu

>  <m_score__min__energy>  (43) 
-9.3699999999999992

>  <m_primary>  (43) 
energy

$$$$
43:0
     RDKit          3D

 74 78  0  0  1  0  0  0  0  0999 V2000
   -0.2600   23.6010  -29.2810 C   0  0  0  0  0  0  0  0  0  0  0  0
   -1.5250   24.2360  -29.0190 N   0  0  0  0  0  0  0  0  0  0  0  0
   -2.6000   23.9130  -29.6440 C   0  0  0  0  0  0  0  0  0  0  0  0
   -2.4920   22.9380  -30.5720 N   0  0  0  0  0  0  0  0  0  0  0  0
   -3.6030   22.5740  -31.2450 C   0  0  0  0  0  0  0  0  0  0  0  0
   -3.5890   21.6510  -32.1520 N   0  0  0  0  0  0  0  0  0  0  0  0
   -2.3430   21.0220  -32.4230 C   0  0  0  0  0  0  0  0  0  0  0  0
   -1.9580   20.0120  -31.5680 C   0  0  0  0  0  0  0  0  0  0  0  0
   -0.7530   19.4020  -31.8240 C   0  0  0  0  0  0  0  0  0  0  0  0
    0.0630   19.7780  -32.9030 C   0  0  0  0  0  0  0  0  0  0  0  0
    1.2930   19.0740  -32.9890 N   0  0  0  0  0  0  0  0  0  0  0  0
    2.3360   19.4350  -32.0550 C   0  0  0  0  0  0  0  0  0  0  0  0
    3.5810   18.6450  -32.4460 C   0  0  0  0  0  0  0  0  0  0  0  0
    3.7890   18.8040  -33.8040 O   0  0  0  0  0  0  0  0  0  0  0  0
    2.8560   18.2070  -34.6160 C   0  0  0  0  0  0  0  0  0  0  0  0
    1.5140   18.0220  -33.9570 C   0  0  0  0  0  0  0  0  0  0  0  0
   -0.3180   20.7840  -33.7610 C   0  0  0  0  0  0  0  0  0  0  0  0
    0.5990   21.2850  -35.1470 S   0  0  0  0  0  0  0  0  0  0  0  0
    0.0860   20.6280  -36.4100 O   0  0  0  0  0  0  0  0  0  0  0  0
    0.3000   22.7680  -35.3480 O   0  0  0  0  0  0  0  0  0  0  0  0
    2.2640   21.1370  -34.9620 N   0  0  0  0  0  0  0  0  0  0  0  0
    3.0510   22.2580  -35.2870 C   0  0  0  0  0  0  0  0  0  0  0  0
   -1.5440   21.3850  -33.4770 C   0  0  0  0  0  0  0  0  0  0  0  0
   -4.8300   23.1770  -30.9980 C   0  0  0  0  0  0  0  0  0  0  0  0
   -5.9790   22.8010  -31.6940 C   0  0  0  0  0  0  0  0  0  0  0  0
   -7.1960   23.4330  -31.4180 C   0  0  0  0  0  0  0  0  0  0  0  0
   -8.2960   23.0200  -32.1360 O   0  0  0  0  0  0  0  0  0  0  0  0
   -9.2200   22.0940  -31.5660 C   0  0  0  0  0  0  0  0  0  0  0  0
   -9.1680   20.7970  -32.3480 C   0  0  0  0  0  0  0  0  0  0  0  0
   -7.9070   20.1370  -32.2370 N   0  0  0  0  0  0  0  0  0  0  0  0
   -7.9670   18.8670  -31.5920 C   0  0  0  0  0  0  0  0  0  0  0  0
   -6.7830   17.9900  -31.8060 C   0  0  0  0  0  0  0  0  0  0  0  0
   -5.6690   18.7350  -32.1920 O   0  0  0  0  0  0  0  0  0  0  0  0
   -5.9940   19.2180  -33.4800 C   0  0  0  0  0  0  0  0  0  0  0  0
   -7.0290   20.2680  -33.3360 C   0  0  0  0  0  0  0  0  0  0  0  0
   -7.2400   24.4250  -30.4560 C   0  0  0  0  0  0  0  0  0  0  0  0
   -6.0970   24.8130  -29.7510 C   0  0  0  0  0  0  0  0  0  0  0  0
   -4.9040   24.1820  -30.0320 C   0  0  0  0  0  0  0  0  0  0  0  0
   -3.7690   24.5290  -29.3700 N   0  0  0  0  0  0  0  0  0  0  0  0
    0.2309   23.3546  -28.3280 H   0  0  0  0  0  0  0  0  0  0  0  0
   -0.4251   22.6789  -29.8576 H   0  0  0  0  0  0  0  0  0  0  0  0
    0.3808   24.2843  -29.8576 H   0  0  0  0  0  0  0  0  0  0  0  0
   -1.5810   22.4600  -30.7860 H   0  0  0  0  0  0  0  0  0  0  0  0
   -2.5870   19.7075  -30.7185 H   0  0  0  0  0  0  0  0  0  0  0  0
   -0.4165   18.5915  -31.1608 H   0  0  0  0  0  0  0  0  0  0  0  0
    2.5396   20.5143  -32.1153 H   0  0  0  0  0  0  0  0  0  0  0  0
    2.0342   19.2046  -31.0226 H   0  0  0  0  0  0  0  0  0  0  0  0
    4.4513   19.0235  -31.8898 H   0  0  0  0  0  0  0  0  0  0  0  0
    3.4443   17.5802  -32.2062 H   0  0  0  0  0  0  0  0  0  0  0  0
    2.7211   18.8335  -35.5100 H   0  0  0  0  0  0  0  0  0  0  0  0
    3.2360   17.2044  -34.8616 H   0  0  0  0  0  0  0  0  0  0  0  0
    0.7239   18.0577  -34.7216 H   0  0  0  0  0  0  0  0  0  0  0  0
    1.4921   17.0483  -33.4458 H   0  0  0  0  0  0  0  0  0  0  0  0
    2.5360   20.5450  -34.1980 H   0  0  0  0  0  0  0  0  0  0  0  0
    3.3936   22.7459  -34.3626 H   0  0  0  0  0  0  0  0  0  0  0  0
    3.9223   21.9359  -35.8762 H   0  0  0  0  0  0  0  0  0  0  0  0
    2.4521   22.9681  -35.8762 H   0  0  0  0  0  0  0  0  0  0  0  0
   -1.8896   22.1957  -34.1353 H   0  0  0  0  0  0  0  0  0  0  0  0
   -5.9282   22.0104  -32.4571 H   0  0  0  0  0  0  0  0  0  0  0  0
   -8.9501   21.9027  -30.5169 H   0  0  0  0  0  0  0  0  0  0  0  0
  -10.2368   22.5116  -31.6079 H   0  0  0  0  0  0  0  0  0  0  0  0
   -9.9516   20.1251  -31.9677 H   0  0  0  0  0  0  0  0  0  0  0  0
   -9.3224   21.0424  -33.4091 H   0  0  0  0  0  0  0  0  0  0  0  0
   -8.0717   19.0393  -30.5106 H   0  0  0  0  0  0  0  0  0  0  0  0
   -8.8225   18.3386  -32.0380 H   0  0  0  0  0  0  0  0  0  0  0  0
   -6.5541   17.4607  -30.8693 H   0  0  0  0  0  0  0  0  0  0  0  0
   -7.0190   17.2741  -32.6071 H   0  0  0  0  0  0  0  0  0  0  0  0
   -5.0973   19.6424  -33.9552 H   0  0  0  0  0  0  0  0  0  0  0  0
   -6.3715   18.3976  -34.1081 H   0  0  0  0  0  0  0  0  0  0  0  0
   -6.5137   21.2350  -33.2395 H   0  0  0  0  0  0  0  0  0  0  0  0
   -7.6637   20.1777  -34.2299 H   0  0  0  0  0  0  0  0  0  0  0  0
   -8.1978   24.9210  -30.2401 H   0  0  0  0  0  0  0  0  0  0  0  0
   -6.1484   25.6044  -28.9888 H   0  0  0  0  0  0  0  0  0  0  0  0
   -3.8550   25.2650  -28.6690 H   0  0  0  0  0  0  0  0  0  0  0  0
  1  2  1  0
  2  3  2  0
  3  4  1  0
  4  5  1  0
  5  6  2  0
  6  7  1  0
  7  8  2  0
  8  9  1  0
  9 10  2  0
 10 11  1  0
 11 12  1  0
 12 13  1  0
 13 14  1  0
 14 15  1  0
 15 16  1  0
 10 17  1  0
 17 18  1  0
 18 19  2  0
 18 20  2  0
 18 21  1  0
 21 22  1  0
 17 23  2  0
  5 24  1  0
 24 25  2  0
 25 26  1  0
 26 27  1  0
 27 28  1  0
 28 29  1  0
 29 30  1  0
 30 31  1  0
 31 32  1  0
 32 33  1  0
 33 34  1  0
 34 35  1  0
 26 36  2  0
 36 37  1  0
 37 38  2  0
 38 39  1  0
 39  3  1  0
 23  7  1  0
 38 24  1  0
 16 11  1  0
 35 30  1  0
  1 40  1  0
  1 41  1  0
  1 42  1  0
  4 43  1  0
  8 44  1  0
  9 45  1  0
 12 46  1  0
 12 47  1  0
 13 48  1  0
 13 49  1  0
 15 50  1  0
 15 51  1  0
 16 52  1  0
 16 53  1  0
 21 54  1  0
 22 55  1  0
 22 56  1  0
 22 57  1  0
 23 58  1  0
 25 59  1  0
 28 60  1  0
 28 61  1  0
 29 62  1  0
 29 63  1  0
 31 64  1  0
 31 65  1  0
 32 66  1  0
 32 67  1  0
 34 68  1  0
 34 69  1  0
 35 70  1  0
 35 71  1  0
 36 72  1  0
 37 73  1  0
 39 74  1  0
M  END
>  <smiles>  (44) 
CN=c1[nH]c(=Nc2ccc(N3CCOCC3)c(S(=O)(=O)NC)c2)c2cc(OCCN3CCOCC3)ccc2[nH]1

>  <score_type>  (44) 
oracle

>  <origin>  (44) 
adgpu

>  <m_score__min__energy>  (44) 
-10.15

>  <m_primary>  (44) 
energy

$$$$
44:0
     RDKit          3D

 64 66  0  0  0  0  0  0  0  0999 V2000
   -8.7210   19.7460  -32.6800 C   0  0  0  0  0  0  0  0  0  0  0  0
   -7.9180   20.8860  -32.1070 C   0  0  0  0  0  0  0  0  0  0  0  0
   -8.6270   21.9420  -31.5080 C   0  0  0  0  0  0  0  0  0  0  0  0
   -7.9570   22.9770  -30.8600 C   0  0  0  0  0  0  0  0  0  0  0  0
   -6.5640   22.9730  -30.7700 C   0  0  0  0  0  0  0  0  0  0  0  0
   -5.9160   24.0190  -30.0350 N   0  0  0  0  0  0  0  0  0  0  0  0
   -5.1600   25.1000  -30.5940 C   0  0  0  0  0  0  0  0  0  0  0  0
   -5.7440   26.0460  -31.1910 O   0  0  0  0  0  0  0  0  0  0  0  0
   -3.7350   25.0870  -30.4690 N   0  0  0  0  0  0  0  0  0  0  0  0
   -2.9300   24.1690  -29.7070 C   0  0  0  0  0  0  0  0  0  0  0  0
   -3.2230   22.7990  -29.6480 C   0  0  0  0  0  0  0  0  0  0  0  0
   -2.4490   21.9480  -28.8670 C   0  0  0  0  0  0  0  0  0  0  0  0
   -1.3900   22.4400  -28.0880 C   0  0  0  0  0  0  0  0  0  0  0  0
   -0.6090   21.4540  -27.2600 C   0  0  0  0  0  0  0  0  0  0  0  0
   -1.1020   23.8330  -28.1100 C   0  0  0  0  0  0  0  0  0  0  0  0
    0.1480   24.5850  -27.0770 S   0  0  0  0  0  0  0  0  0  0  0  0
    0.5800   23.6870  -25.9540 O   0  0  0  0  0  0  0  0  0  0  0  0
    1.3570   24.8630  -27.9280 O   0  0  0  0  0  0  0  0  0  0  0  0
   -0.4780   26.1450  -26.4160 C   0  0  0  0  0  0  0  0  0  0  0  0
    0.4600   27.3310  -26.7140 C   0  0  0  0  0  0  0  0  0  0  0  0
    1.6570   27.4140  -25.7480 C   0  0  0  0  0  0  0  0  0  0  0  0
    1.2630   27.3450  -24.3240 N   0  0  0  0  0  0  0  0  0  0  0  0
    0.6520   28.5990  -23.8450 C   0  0  0  0  0  0  0  0  0  0  0  0
    0.4370   26.1570  -24.0260 C   0  0  0  0  0  0  0  0  0  0  0  0
   -0.8140   26.0610  -24.9160 C   0  0  0  0  0  0  0  0  0  0  0  0
   -1.8760   24.6790  -28.9350 C   0  0  0  0  0  0  0  0  0  0  0  0
   -1.6070   26.0440  -28.9880 O   0  0  0  0  0  0  0  0  0  0  0  0
   -5.8410   21.9490  -31.4020 C   0  0  0  0  0  0  0  0  0  0  0  0
   -6.4970   20.8910  -32.0560 C   0  0  0  0  0  0  0  0  0  0  0  0
   -5.4770   19.6120  -32.7570 S   0  0  0  0  0  0  0  0  0  0  0  0
   -5.8080   19.3940  -34.2080 O   0  0  0  0  0  0  0  0  0  0  0  0
   -5.7820   18.3260  -32.0420 O   0  0  0  0  0  0  0  0  0  0  0  0
   -3.7720   19.9600  -32.5830 N   0  0  0  0  0  0  0  0  0  0  0  0
   -3.4320   21.1830  -33.3230 C   0  0  0  0  0  0  0  0  0  0  0  0
   -2.9700   18.8360  -33.0770 C   0  0  0  0  0  0  0  0  0  0  0  0
   -9.1433   19.1465  -31.8601 H   0  0  0  0  0  0  0  0  0  0  0  0
   -9.5371   20.1471  -33.2990 H   0  0  0  0  0  0  0  0  0  0  0  0
   -8.0685   19.1126  -33.2990 H   0  0  0  0  0  0  0  0  0  0  0  0
   -9.7261   21.9510  -31.5517 H   0  0  0  0  0  0  0  0  0  0  0  0
   -8.5301   23.8041  -30.4156 H   0  0  0  0  0  0  0  0  0  0  0  0
   -4.0697   22.3954  -30.2226 H   0  0  0  0  0  0  0  0  0  0  0  0
   -2.6704   20.8705  -28.8595 H   0  0  0  0  0  0  0  0  0  0  0  0
   -0.7729   21.6609  -26.1921 H   0  0  0  0  0  0  0  0  0  0  0  0
   -0.9458   20.4328  -27.4915 H   0  0  0  0  0  0  0  0  0  0  0  0
    0.4622   21.5481  -27.4915 H   0  0  0  0  0  0  0  0  0  0  0  0
   -1.4220   26.3355  -26.9476 H   0  0  0  0  0  0  0  0  0  0  0  0
    0.8445   27.2240  -27.7391 H   0  0  0  0  0  0  0  0  0  0  0  0
   -0.1272   28.2526  -26.5877 H   0  0  0  0  0  0  0  0  0  0  0  0
    2.3383   26.5776  -25.9631 H   0  0  0  0  0  0  0  0  0  0  0  0
    2.1380   28.3904  -25.9069 H   0  0  0  0  0  0  0  0  0  0  0  0
    0.6476   28.6080  -22.7450 H   0  0  0  0  0  0  0  0  0  0  0  0
    1.2337   29.4556  -24.2164 H   0  0  0  0  0  0  0  0  0  0  0  0
   -0.3811   28.6688  -24.2164 H   0  0  0  0  0  0  0  0  0  0  0  0
    1.0486   25.2560  -24.1814 H   0  0  0  0  0  0  0  0  0  0  0  0
    0.0956   26.2444  -22.9840 H   0  0  0  0  0  0  0  0  0  0  0  0
   -1.3138   25.1010  -24.7196 H   0  0  0  0  0  0  0  0  0  0  0  0
   -1.4648   26.9133  -24.6710 H   0  0  0  0  0  0  0  0  0  0  0  0
   -4.7414   21.9747  -31.3853 H   0  0  0  0  0  0  0  0  0  0  0  0
   -3.2073   21.9914  -32.6117 H   0  0  0  0  0  0  0  0  0  0  0  0
   -2.5518   20.9960  -33.9556 H   0  0  0  0  0  0  0  0  0  0  0  0
   -4.2824   21.4771  -33.9556 H   0  0  0  0  0  0  0  0  0  0  0  0
   -2.5666   18.2706  -32.2240 H   0  0  0  0  0  0  0  0  0  0  0  0
   -3.6020   18.1755  -33.6888 H   0  0  0  0  0  0  0  0  0  0  0  0
   -2.1398   19.2188  -33.6888 H   0  0  0  0  0  0  0  0  0  0  0  0
  1  2  1  0
  2  3  2  0
  3  4  1  0
  4  5  2  0
  5  6  1  0
  6  7  1  0
  7  8  2  0
  7  9  1  0
  9 10  1  0
 10 11  2  0
 11 12  1  0
 12 13  2  0
 13 14  1  0
 13 15  1  0
 15 16  1  0
 16 17  2  0
 16 18  2  0
 16 19  1  0
 19 20  1  0
 20 21  1  0
 21 22  1  0
 22 23  1  0
 22 24  1  0
 24 25  1  0
 15 26  2  0
 26 27  1  0
  5 28  1  0
 28 29  2  0
 29 30  1  0
 30 31  2  0
 30 32  2  0
 30 33  1  0
 33 34  1  0
 33 35  1  0
 29  2  1  0
 26 10  1  0
 25 19  1  0
  1 36  1  0
  1 37  1  0
  1 38  1  0
  3 39  1  0
  4 40  1  0
 11 41  1  0
 12 42  1  0
 14 43  1  0
 14 44  1  0
 14 45  1  0
 19 46  1  0
 20 47  1  0
 20 48  1  0
 21 49  1  0
 21 50  1  0
 23 51  1  0
 23 52  1  0
 23 53  1  0
 24 54  1  0
 24 55  1  0
 25 56  1  0
 25 57  1  0
 28 58  1  0
 34 59  1  0
 34 60  1  0
 34 61  1  0
 35 62  1  0
 35 63  1  0
 35 64  1  0
M  CHG  3   6  -1   9  -1  27  -1
M  END
>  <UniqueID>  (45) 
43

>  <SMILES>  (45) 
Cc1ccc([N-]C(=O)[N-]c2ccc(C)c(S(=O)(=O)C3CCN(C)CC3)c2[O-])cc1S(=O)(=O)N(C)C

>  <Energy>  (45) 
78.07512985836937

>  <Genealogy>  (45) 
Cc1ccc([N-]C(=O)[N-]c2ccc(C)c(S(=O)(=O)C3CCN(C)CC3)c2[O-])cc1S(=O)(=O)N(C)C (protonated)
Cc1ccc([N-]C(=O)[N-]c2ccc(C)c(S(=O)(=O)C3CCN(C)CC3)c2[O-])cc1S(=O)(=O)N(C)C (3D coordinates assigned)
Cc1ccc([N-]C(=O)[N-]c2ccc(C)c(S(=O)(=O)C3CCN(C)CC3)c2[O-])cc1S(=O)(=O)N(C)C (nonaromatic ring conformer: 78.07512985836937 kcal/mol)

>  <smiles>  (45) 
Cc1ccc(NC(=O)Nc2ccc(C)c(S(=O)(=O)C3CCN(C)CC3)c2O)cc1S(=O)(=O)N(C)C

>  <score_type>  (45) 
oracle

>  <origin>  (45) 
adgpu

>  <m_score__min__energy>  (45) 
-17.190000000000001

>  <m_primary>  (45) 
energy

$$$$
45:0
     RDKit          3D

 34 35  0  0  0  0  0  0  0  0999 V2000
   -4.6924   22.2229  -30.1157 H   0  0  0  0  0  0  0  0  0  0  0  0
   -5.0830   23.2460  -30.2190 C   0  0  0  0  0  0  0  0  0  0  0  0
   -4.2740   24.3710  -29.7200 C   0  0  0  0  0  0  0  0  0  0  0  0
   -3.8150   25.2440  -30.5040 O   0  0  0  0  0  0  0  0  0  0  0  0
   -3.9300   24.5010  -27.9670 S   0  0  0  0  0  0  0  0  0  0  0  0
   -2.4660   23.4640  -28.0850 C   0  0  0  0  0  0  0  0  0  0  0  0
   -2.5180   22.1720  -27.5440 C   0  0  0  0  0  0  0  0  0  0  0  0
   -3.4428   21.8171  -27.0656 H   0  0  0  0  0  0  0  0  0  0  0  0
   -1.4040   21.3320  -27.6080 C   0  0  0  0  0  0  0  0  0  0  0  0
   -1.4523   20.3205  -27.1783 H   0  0  0  0  0  0  0  0  0  0  0  0
   -0.2300   21.7760  -28.2170 C   0  0  0  0  0  0  0  0  0  0  0  0
    0.6473   21.1142  -28.2666 H   0  0  0  0  0  0  0  0  0  0  0  0
   -0.1670   23.0600  -28.7640 C   0  0  0  0  0  0  0  0  0  0  0  0
    0.7615   23.4038  -29.2433 H   0  0  0  0  0  0  0  0  0  0  0  0
   -1.2790   23.9150  -28.7070 C   0  0  0  0  0  0  0  0  0  0  0  0
   -1.1840   25.2260  -29.2800 N   0  0  0  0  0  0  0  0  0  0  0  0
   -2.0010   25.6940  -29.7290 H   0  0  0  0  0  0  0  0  0  0  0  0
   -0.2800   25.7470  -29.2620 H   0  0  0  0  0  0  0  0  0  0  0  0
   -6.2800   23.4280  -30.7950 C   0  0  0  0  0  0  0  0  0  0  0  0
   -6.6502   24.4577  -30.9079 H   0  0  0  0  0  0  0  0  0  0  0  0
   -7.1340   22.3190  -31.2890 C   0  0  0  0  0  0  0  0  0  0  0  0
   -8.5410   22.3930  -31.3040 C   0  0  0  0  0  0  0  0  0  0  0  0
   -9.0437   23.3038  -30.9466 H   0  0  0  0  0  0  0  0  0  0  0  0
   -9.3030   21.3170  -31.7700 C   0  0  0  0  0  0  0  0  0  0  0  0
  -10.4006   21.3884  -31.7830 H   0  0  0  0  0  0  0  0  0  0  0  0
   -8.6740   20.1470  -32.2210 C   0  0  0  0  0  0  0  0  0  0  0  0
   -9.4800   18.9870  -32.7260 C   0  0  0  0  0  0  0  0  0  0  0  0
   -9.8762   18.4167  -31.8729 H   0  0  0  0  0  0  0  0  0  0  0  0
  -10.3150   19.3593  -33.3377 H   0  0  0  0  0  0  0  0  0  0  0  0
   -8.8398   18.3343  -33.3377 H   0  0  0  0  0  0  0  0  0  0  0  0
   -7.2760   20.0640  -32.1960 C   0  0  0  0  0  0  0  0  0  0  0  0
   -6.7755   19.1492  -32.5463 H   0  0  0  0  0  0  0  0  0  0  0  0
   -6.5140   21.1380  -31.7280 C   0  0  0  0  0  0  0  0  0  0  0  0
   -5.4172   21.0574  -31.7033 H   0  0  0  0  0  0  0  0  0  0  0  0
  1  2  1  0
  2  3  1  0
  3  4  2  0
  3  5  1  0
  5  6  1  0
  6  7  2  0
  7  8  1  0
  7  9  1  0
  9 10  1  0
  9 11  2  0
 11 12  1  0
 11 13  1  0
 13 14  1  0
 13 15  2  0
 15 16  1  0
 16 17  1  0
 16 18  1  0
  2 19  2  0
 19 20  1  0
 19 21  1  0
 21 22  2  0
 22 23  1  0
 22 24  1  0
 24 25  1  0
 24 26  2  0
 26 27  1  0
 27 28  1  0
 27 29  1  0
 27 30  1  0
 26 31  1  0
 31 32  1  0
 31 33  2  0
 33 34  1  0
 15  6  1  0
 33 21  1  0
M  END
>  <UniqueID>  (46) 
44

>  <SMILES>  (46) 
Cc1ccc(/C=C/C(=O)Sc2ccccc2N)cc1

>  <Energy>  (46) 
31.219470138761217

>  <Genealogy>  (46) 
Cc1ccc(/C=C/C(=O)Sc2ccccc2N)cc1 (cis-trans isomerization)
Cc1ccc(/C=C/C(=O)Sc2ccccc2N)cc1 (3D coordinates assigned)
Cc1ccc(/C=C/C(=O)Sc2ccccc2N)cc1 (optimized conformer: 31.219470138761217 kcal/mol)

>  <smiles>  (46) 
Cc1ccc(C=CC(=O)Sc2ccccc2N)cc1

>  <score_type>  (46) 
oracle

>  <origin>  (46) 
adgpu

>  <m_score__min__energy>  (46) 
-8.3800000000000008

>  <m_primary>  (46) 
energy

$$$$
46:0
     RDKit          3D

 35 37  0  0  0  0  0  0  0  0999 V2000
   -7.5890   23.1830  -30.0020 O   0  0  0  0  0  0  0  0  0  0  0  0
   -6.7170   23.2130  -30.9130 C   0  0  0  0  0  0  0  0  0  0  0  0
   -6.9590   22.5770  -32.1730 N   0  0  0  0  0  0  0  0  0  0  0  0
   -7.2940   21.1950  -32.3620 C   0  0  0  0  0  0  0  0  0  0  0  0
   -8.5250   20.7310  -31.8810 C   0  0  0  0  0  0  0  0  0  0  0  0
   -8.8840   19.3880  -32.0320 C   0  0  0  0  0  0  0  0  0  0  0  0
   -8.0050   18.4950  -32.6500 C   0  0  0  0  0  0  0  0  0  0  0  0
   -6.7610   18.9400  -33.1050 C   0  0  0  0  0  0  0  0  0  0  0  0
   -6.3970   20.2830  -32.9570 C   0  0  0  0  0  0  0  0  0  0  0  0
   -5.1540   20.6700  -33.3380 F   0  0  0  0  0  0  0  0  0  0  0  0
   -5.4220   23.8570  -30.6640 C   0  0  0  0  0  0  0  0  0  0  0  0
   -4.4010   23.3600  -29.8800 C   0  0  0  0  0  0  0  0  0  0  0  0
   -3.4270   24.3310  -29.9760 C   0  0  0  0  0  0  0  0  0  0  0  0
   -2.0780   24.2940  -29.3400 C   0  0  0  0  0  0  0  0  0  0  0  0
   -1.6990   25.6160  -28.9680 O   0  0  0  0  0  0  0  0  0  0  0  0
   -1.3680   26.0070  -27.6630 C   0  0  0  0  0  0  0  0  0  0  0  0
   -0.4550   27.0450  -27.3930 C   0  0  0  0  0  0  0  0  0  0  0  0
   -0.1590   27.3960  -26.0710 C   0  0  0  0  0  0  0  0  0  0  0  0
   -0.7680   26.7190  -25.0110 C   0  0  0  0  0  0  0  0  0  0  0  0
   -0.3960   27.1610  -23.3560 Cl  0  0  0  0  0  0  0  0  0  0  0  0
   -1.6760   25.6880  -25.2730 C   0  0  0  0  0  0  0  0  0  0  0  0
   -1.9730   25.3340  -26.5930 C   0  0  0  0  0  0  0  0  0  0  0  0
   -3.8570   25.2940  -30.7560 O   0  0  0  0  0  0  0  0  0  0  0  0
   -5.0590   25.0450  -31.1880 N   0  0  0  0  0  0  0  0  0  0  0  0
   -9.2139   21.4278  -31.3811 H   0  0  0  0  0  0  0  0  0  0  0  0
   -9.8586   19.0346  -31.6642 H   0  0  0  0  0  0  0  0  0  0  0  0
   -8.2924   17.4410  -32.7785 H   0  0  0  0  0  0  0  0  0  0  0  0
   -6.0659   18.2326  -33.5808 H   0  0  0  0  0  0  0  0  0  0  0  0
   -4.3714   22.4168  -29.3148 H   0  0  0  0  0  0  0  0  0  0  0  0
   -2.1105   23.6551  -28.4452 H   0  0  0  0  0  0  0  0  0  0  0  0
   -1.3451   23.8859  -30.0515 H   0  0  0  0  0  0  0  0  0  0  0  0
    0.0268   27.5814  -28.2238 H   0  0  0  0  0  0  0  0  0  0  0  0
    0.5551   28.2071  -25.8657 H   0  0  0  0  0  0  0  0  0  0  0  0
   -2.1572   25.1549  -24.4398 H   0  0  0  0  0  0  0  0  0  0  0  0
   -2.6868   24.5213  -26.7928 H   0  0  0  0  0  0  0  0  0  0  0  0
  1  2  2  0
  2  3  1  0
  3  4  1  0
  4  5  2  0
  5  6  1  0
  6  7  2  0
  7  8  1  0
  8  9  2  0
  9 10  1  0
  2 11  1  0
 11 12  1  0
 12 13  2  0
 13 14  1  0
 14 15  1  0
 15 16  1  0
 16 17  2  0
 17 18  1  0
 18 19  2  0
 19 20  1  0
 19 21  1  0
 21 22  2  0
 13 23  1  0
 23 24  1  0
  9  4  1  0
 24 11  2  0
 22 16  1  0
  5 25  1  0
  6 26  1  0
  7 27  1  0
  8 28  1  0
 12 29  1  0
 14 30  1  0
 14 31  1  0
 17 32  1  0
 18 33  1  0
 21 34  1  0
 22 35  1  0
M  CHG  1   3  -1
M  END
>  <UniqueID>  (47) 
45

>  <SMILES>  (47) 
O=C([N-]c1ccccc1F)c1cc(COc2ccc(Cl)cc2)on1

>  <Energy>  (47) 
70.61052705887118

>  <Genealogy>  (47) 
O=C([N-]c1ccccc1F)c1cc(COc2ccc(Cl)cc2)on1 (protonated)
O=C([N-]c1ccccc1F)c1cc(COc2ccc(Cl)cc2)on1 (3D coordinates assigned)
O=C([N-]c1ccccc1F)c1cc(COc2ccc(Cl)cc2)on1 (optimized conformer: 70.61052705887118 kcal/mol)

>  <smiles>  (47) 
O=C(Nc1ccccc1F)c1cc(COc2ccc(Cl)cc2)on1

>  <score_type>  (47) 
oracle

>  <origin>  (47) 
adgpu

>  <m_score__min__energy>  (47) 
-10.699999999999999

>  <m_primary>  (47) 
energy

$$$$
47:0
     RDKit          3D

 42 44  0  0  0  0  0  0  0  0999 V2000
   -5.4090   16.0740  -32.7360 C   0  0  0  0  0  0  0  0  0  0  0  0
   -5.1360   16.6210  -34.0760 N   0  0  0  0  0  0  0  0  0  0  0  0
   -6.1060   17.6740  -34.4640 C   0  0  0  0  0  0  0  0  0  0  0  0
   -5.5890   19.1050  -34.2140 C   0  0  0  0  0  0  0  0  0  0  0  0
   -4.6660   19.1040  -33.0740 N   0  0  0  0  0  0  0  0  0  0  0  0
   -4.2620   20.7400  -32.6210 S   0  0  0  0  0  0  0  0  0  0  0  0
   -3.2390   20.7270  -31.5180 O   0  0  0  0  0  0  0  0  0  0  0  0
   -3.6910   21.4730  -33.8020 O   0  0  0  0  0  0  0  0  0  0  0  0
   -5.7290   21.5750  -32.0950 C   0  0  0  0  0  0  0  0  0  0  0  0
   -6.9850   20.9980  -32.3320 C   0  0  0  0  0  0  0  0  0  0  0  0
   -8.1500   21.6600  -31.9410 C   0  0  0  0  0  0  0  0  0  0  0  0
   -8.0700   22.9060  -31.3190 C   0  0  0  0  0  0  0  0  0  0  0  0
   -6.8240   23.4900  -31.0760 C   0  0  0  0  0  0  0  0  0  0  0  0
   -5.6410   22.8210  -31.4430 C   0  0  0  0  0  0  0  0  0  0  0  0
   -4.3460   23.4080  -31.2260 N   0  0  0  0  0  0  0  0  0  0  0  0
   -4.0430   24.6160  -30.5200 C   0  0  0  0  0  0  0  0  0  0  0  0
   -4.5960   25.7050  -30.8310 O   0  0  0  0  0  0  0  0  0  0  0  0
   -3.1180   24.5630  -29.3820 C   0  0  0  0  0  0  0  0  0  0  0  0
   -3.2430   23.7570  -28.2680 C   0  0  0  0  0  0  0  0  0  0  0  0
   -2.1520   24.0500  -27.4760 C   0  0  0  0  0  0  0  0  0  0  0  0
   -1.4320   25.0130  -28.1560 C   0  0  0  0  0  0  0  0  0  0  0  0
   -2.0340   25.2970  -29.2880 O   0  0  0  0  0  0  0  0  0  0  0  0
   -3.4390   18.3460  -33.3900 C   0  0  0  0  0  0  0  0  0  0  0  0
   -3.7360   17.0690  -34.2110 C   0  0  0  0  0  0  0  0  0  0  0  0
   -5.0556   16.7821  -31.9719 H   0  0  0  0  0  0  0  0  0  0  0  0
   -6.4913   15.9168  -32.6176 H   0  0  0  0  0  0  0  0  0  0  0  0
   -4.8840   15.1146  -32.6176 H   0  0  0  0  0  0  0  0  0  0  0  0
   -6.3279   17.5657  -35.5359 H   0  0  0  0  0  0  0  0  0  0  0  0
   -7.0005   17.5380  -33.8384 H   0  0  0  0  0  0  0  0  0  0  0  0
   -5.0630   19.4657  -35.1102 H   0  0  0  0  0  0  0  0  0  0  0  0
   -6.4396   19.7669  -33.9940 H   0  0  0  0  0  0  0  0  0  0  0  0
   -7.0524   20.0188  -32.8285 H   0  0  0  0  0  0  0  0  0  0  0  0
   -9.1318   21.1988  -32.1235 H   0  0  0  0  0  0  0  0  0  0  0  0
   -8.9896   23.4299  -31.0192 H   0  0  0  0  0  0  0  0  0  0  0  0
   -6.7672   24.4778  -30.5953 H   0  0  0  0  0  0  0  0  0  0  0  0
   -4.0440   23.0334  -28.0564 H   0  0  0  0  0  0  0  0  0  0  0  0
   -1.9053   23.6064  -26.5001 H   0  0  0  0  0  0  0  0  0  0  0  0
   -0.4968   25.4721  -27.8030 H   0  0  0  0  0  0  0  0  0  0  0  0
   -2.7636   18.9914  -33.9708 H   0  0  0  0  0  0  0  0  0  0  0  0
   -2.9789   18.0371  -32.4398 H   0  0  0  0  0  0  0  0  0  0  0  0
   -3.5333   17.2770  -35.2720 H   0  0  0  0  0  0  0  0  0  0  0  0
   -3.0904   16.2665  -33.8247 H   0  0  0  0  0  0  0  0  0  0  0  0
  1  2  1  0
  2  3  1  0
  3  4  1  0
  4  5  1  0
  5  6  1  0
  6  7  2  0
  6  8  2  0
  6  9  1  0
  9 10  2  0
 10 11  1  0
 11 12  2  0
 12 13  1  0
 13 14  2  0
 14 15  1  0
 15 16  1  0
 16 17  2  0
 16 18  1  0
 18 19  2  0
 19 20  1  0
 20 21  2  0
 21 22  1  0
  5 23  1  0
 23 24  1  0
 24  2  1  0
 14  9  1  0
 22 18  1  0
  1 25  1  0
  1 26  1  0
  1 27  1  0
  3 28  1  0
  3 29  1  0
  4 30  1  0
  4 31  1  0
 10 32  1  0
 11 33  1  0
 12 34  1  0
 13 35  1  0
 19 36  1  0
 20 37  1  0
 21 38  1  0
 23 39  1  0
 23 40  1  0
 24 41  1  0
 24 42  1  0
M  CHG  1  15  -1
M  END
>  <UniqueID>  (48) 
46

>  <SMILES>  (48) 
CN1CCN(S(=O)(=O)c2ccccc2[N-]C(=O)c2ccco2)CC1

>  <Energy>  (48) 
79.05795074773742

>  <Genealogy>  (48) 
CN1CCN(S(=O)(=O)c2ccccc2[N-]C(=O)c2ccco2)CC1 (protonated)
CN1CCN(S(=O)(=O)c2ccccc2[N-]C(=O)c2ccco2)CC1 (3D coordinates assigned)
CN1CCN(S(=O)(=O)c2ccccc2[N-]C(=O)c2ccco2)CC1 (nonaromatic ring conformer: 79.05795074773742 kcal/mol)

>  <smiles>  (48) 
CN1CCN(S(=O)(=O)c2ccccc2NC(=O)c2ccco2)CC1

>  <score_type>  (48) 
oracle

>  <origin>  (48) 
adgpu

>  <m_score__min__energy>  (48) 
-9.6799999999999997

>  <m_primary>  (48) 
energy

$$$$
48:0
     RDKit          3D

 43 45  0  0  0  0  0  0  0  0999 V2000
   -4.4340   25.6320  -30.8640 O   0  0  0  0  0  0  0  0  0  0  0  0
   -5.5100   24.9930  -30.0310 S   0  0  0  0  0  0  0  0  0  0  0  0
   -6.5560   26.0220  -29.7060 O   0  0  0  0  0  0  0  0  0  0  0  0
   -4.8070   24.4090  -28.5530 N   0  0  0  0  0  0  0  0  0  0  0  0
   -3.6560   23.5430  -28.4900 C   0  0  0  0  0  0  0  0  0  0  0  0
   -3.7460   22.2320  -27.9780 C   0  0  0  0  0  0  0  0  0  0  0  0
   -2.6090   21.4230  -27.8960 C   0  0  0  0  0  0  0  0  0  0  0  0
   -2.7300   19.8070  -27.2220 Cl  0  0  0  0  0  0  0  0  0  0  0  0
   -1.3740   21.9000  -28.3420 C   0  0  0  0  0  0  0  0  0  0  0  0
   -1.2750   23.1880  -28.8700 C   0  0  0  0  0  0  0  0  0  0  0  0
   -2.4050   24.0100  -28.9430 C   0  0  0  0  0  0  0  0  0  0  0  0
   -2.2740   25.2940  -29.4600 O   0  0  0  0  0  0  0  0  0  0  0  0
   -6.2720   23.6760  -30.9170 C   0  0  0  0  0  0  0  0  0  0  0  0
   -7.6440   23.7200  -31.2040 C   0  0  0  0  0  0  0  0  0  0  0  0
   -8.2380   22.6950  -31.9450 C   0  0  0  0  0  0  0  0  0  0  0  0
   -7.4650   21.6290  -32.4130 C   0  0  0  0  0  0  0  0  0  0  0  0
   -6.0930   21.5770  -32.1320 C   0  0  0  0  0  0  0  0  0  0  0  0
   -5.1110   20.2540  -32.7520 S   0  0  0  0  0  0  0  0  0  0  0  0
   -4.5980   19.4360  -31.5990 O   0  0  0  0  0  0  0  0  0  0  0  0
   -3.9470   20.8370  -33.5030 O   0  0  0  0  0  0  0  0  0  0  0  0
   -6.0700   19.2490  -33.8200 N   0  0  0  0  0  0  0  0  0  0  0  0
   -7.1570   18.5500  -33.1000 C   0  0  0  0  0  0  0  0  0  0  0  0
   -6.8210   17.0810  -32.7910 C   0  0  0  0  0  0  0  0  0  0  0  0
   -5.4400   16.9380  -32.5570 O   0  0  0  0  0  0  0  0  0  0  0  0
   -4.7150   17.1370  -33.7570 C   0  0  0  0  0  0  0  0  0  0  0  0
   -5.2280   18.3280  -34.6030 C   0  0  0  0  0  0  0  0  0  0  0  0
   -5.5040   22.5930  -31.3640 C   0  0  0  0  0  0  0  0  0  0  0  0
   -5.2980   24.6760  -27.6710 H   0  0  0  0  0  0  0  0  0  0  0  0
   -4.7181   21.8432  -27.6407 H   0  0  0  0  0  0  0  0  0  0  0  0
   -0.4808   21.2612  -28.2771 H   0  0  0  0  0  0  0  0  0  0  0  0
   -0.3041   23.5588  -29.2305 H   0  0  0  0  0  0  0  0  0  0  0  0
   -8.2534   24.5626  -30.8453 H   0  0  0  0  0  0  0  0  0  0  0  0
   -9.3162   22.7273  -32.1604 H   0  0  0  0  0  0  0  0  0  0  0  0
   -7.9347   20.8286  -33.0035 H   0  0  0  0  0  0  0  0  0  0  0  0
   -7.3439   19.0745  -32.1513 H   0  0  0  0  0  0  0  0  0  0  0  0
   -8.0429   18.5563  -33.7521 H   0  0  0  0  0  0  0  0  0  0  0  0
   -7.3763   16.7614  -31.8968 H   0  0  0  0  0  0  0  0  0  0  0  0
   -7.1060   16.4584  -33.6519 H   0  0  0  0  0  0  0  0  0  0  0  0
   -3.6615   17.3217  -33.4999 H   0  0  0  0  0  0  0  0  0  0  0  0
   -4.8452   16.2301  -34.3658 H   0  0  0  0  0  0  0  0  0  0  0  0
   -4.3624   18.8843  -34.9919 H   0  0  0  0  0  0  0  0  0  0  0  0
   -5.8436   17.9207  -35.4186 H   0  0  0  0  0  0  0  0  0  0  0  0
   -4.4347   22.5388  -31.1119 H   0  0  0  0  0  0  0  0  0  0  0  0
  1  2  2  0
  2  3  2  0
  2  4  1  0
  4  5  1  0
  5  6  2  0
  6  7  1  0
  7  8  1  0
  7  9  2  0
  9 10  1  0
 10 11  2  0
 11 12  1  0
  2 13  1  0
 13 14  2  0
 14 15  1  0
 15 16  2  0
 16 17  1  0
 17 18  1  0
 18 19  2  0
 18 20  2  0
 18 21  1  0
 21 22  1  0
 22 23  1  0
 23 24  1  0
 24 25  1  0
 25 26  1  0
 17 27  2  0
 11  5  1  0
 27 13  1  0
 26 21  1  0
  4 28  1  0
  6 29  1  0
  9 30  1  0
 10 31  1  0
 14 32  1  0
 15 33  1  0
 16 34  1  0
 22 35  1  0
 22 36  1  0
 23 37  1  0
 23 38  1  0
 25 39  1  0
 25 40  1  0
 26 41  1  0
 26 42  1  0
 27 43  1  0
M  CHG  1  12  -1
M  END
>  <UniqueID>  (49) 
47

>  <SMILES>  (49) 
O=S(=O)(Nc1cc(Cl)ccc1[O-])c1cccc(S(=O)(=O)N2CCOCC2)c1

>  <Energy>  (49) 
55.455191415365846

>  <Genealogy>  (49) 
O=S(=O)(Nc1cc(Cl)ccc1[O-])c1cccc(S(=O)(=O)N2CCOCC2)c1 (protonated)
O=S(=O)(Nc1cc(Cl)ccc1[O-])c1cccc(S(=O)(=O)N2CCOCC2)c1 (3D coordinates assigned)
O=S(=O)(Nc1cc(Cl)ccc1[O-])c1cccc(S(=O)(=O)N2CCOCC2)c1 (nonaromatic ring conformer: 55.455191415365846 kcal/mol)

>  <smiles>  (49) 
O=S(=O)(Nc1cc(Cl)ccc1O)c1cccc(S(=O)(=O)N2CCOCC2)c1

>  <score_type>  (49) 
oracle

>  <origin>  (49) 
adgpu

>  <m_score__min__energy>  (49) 
-13.720000000000001

>  <m_primary>  (49) 
energy

$$$$
49:0
     RDKit          3D

 54 57  0  0  0  0  0  0  0  0999 V2000
   -4.3450   25.6590  -30.6990 N   0  0  0  0  0  0  0  0  0  0  0  0
   -4.2170   23.9450  -30.5260 S   0  0  0  0  0  0  0  0  0  0  0  0
   -3.9090   23.6070  -29.0940 O   0  0  0  0  0  0  0  0  0  0  0  0
   -3.1000   23.4340  -31.3940 O   0  0  0  0  0  0  0  0  0  0  0  0
   -5.7350   23.1880  -31.0020 C   0  0  0  0  0  0  0  0  0  0  0  0
   -6.8790   23.9690  -31.2140 C   0  0  0  0  0  0  0  0  0  0  0  0
   -8.0820   23.3640  -31.5900 C   0  0  0  0  0  0  0  0  0  0  0  0
   -8.1460   21.9780  -31.7670 C   0  0  0  0  0  0  0  0  0  0  0  0
   -7.0060   21.1870  -31.5750 C   0  0  0  0  0  0  0  0  0  0  0  0
   -7.0930   19.7680  -31.7720 N   0  0  0  0  0  0  0  0  0  0  0  0
   -6.3480   19.0220  -32.7460 C   0  0  0  0  0  0  0  0  0  0  0  0
   -6.9350   18.1300  -33.4100 O   0  0  0  0  0  0  0  0  0  0  0  0
   -4.9140   19.2940  -33.0030 C   0  0  0  0  0  0  0  0  0  0  0  0
   -4.4960   20.5800  -33.3840 C   0  0  0  0  0  0  0  0  0  0  0  0
   -3.1530   20.8280  -33.6810 C   0  0  0  0  0  0  0  0  0  0  0  0
   -2.1970   19.8000  -33.5610 C   0  0  0  0  0  0  0  0  0  0  0  0
   -0.8070   19.9870  -33.8720 N   0  0  0  0  0  0  0  0  0  0  0  0
    0.0350   21.1160  -33.5980 C   0  0  0  0  0  0  0  0  0  0  0  0
    0.5800   21.7590  -34.5310 O   0  0  0  0  0  0  0  0  0  0  0  0
    0.2650   21.5290  -32.2470 N   0  0  0  0  0  0  0  0  0  0  0  0
    0.2130   20.6780  -31.0930 C   0  0  0  0  0  0  0  0  0  0  0  0
    0.9990   19.5230  -31.0130 C   0  0  0  0  0  0  0  0  0  0  0  0
    0.8780   18.6660  -29.9240 C   0  0  0  0  0  0  0  0  0  0  0  0
   -0.0060   18.9530  -28.8830 C   0  0  0  0  0  0  0  0  0  0  0  0
   -0.0930   17.7690  -27.5830 Cl  0  0  0  0  0  0  0  0  0  0  0  0
   -0.7970   20.1290  -28.9270 C   0  0  0  0  0  0  0  0  0  0  0  0
   -1.8540   20.5910  -27.5630 S   0  0  0  0  0  0  0  0  0  0  0  0
   -3.0840   21.3030  -28.0520 O   0  0  0  0  0  0  0  0  0  0  0  0
   -2.3260   19.3420  -26.8700 O   0  0  0  0  0  0  0  0  0  0  0  0
   -1.0500   21.6450  -26.3490 C   0  0  0  0  0  0  0  0  0  0  0  0
   -1.1320   23.1300  -26.6720 C   0  0  0  0  0  0  0  0  0  0  0  0
    0.1940   22.3990  -26.7980 C   0  0  0  0  0  0  0  0  0  0  0  0
   -0.7160   20.9620  -30.0770 C   0  0  0  0  0  0  0  0  0  0  0  0
   -1.5530   22.0690  -30.2530 O   0  0  0  0  0  0  0  0  0  0  0  0
   -2.6190   18.5210  -33.1710 C   0  0  0  0  0  0  0  0  0  0  0  0
   -3.9630   18.2680  -32.8930 C   0  0  0  0  0  0  0  0  0  0  0  0
   -5.8080   21.7980  -31.1580 C   0  0  0  0  0  0  0  0  0  0  0  0
   -3.4940   25.9780  -31.2120 H   0  0  0  0  0  0  0  0  0  0  0  0
   -6.8304   25.0602  -31.0843 H   0  0  0  0  0  0  0  0  0  0  0  0
   -8.9802   23.9793  -31.7470 H   0  0  0  0  0  0  0  0  0  0  0  0
   -9.0963   21.5068  -32.0584 H   0  0  0  0  0  0  0  0  0  0  0  0
   -5.2301   21.3966  -33.4490 H   0  0  0  0  0  0  0  0  0  0  0  0
   -2.8410   21.8302  -34.0099 H   0  0  0  0  0  0  0  0  0  0  0  0
    1.7157   19.2918  -31.8148 H   0  0  0  0  0  0  0  0  0  0  0  0
    1.4867   17.7507  -29.8829 H   0  0  0  0  0  0  0  0  0  0  0  0
   -1.2801   21.0007  -25.4877 H   0  0  0  0  0  0  0  0  0  0  0  0
   -1.6616   23.4678  -27.5750 H   0  0  0  0  0  0  0  0  0  0  0  0
   -1.4784   24.0246  -26.1338 H   0  0  0  0  0  0  0  0  0  0  0  0
    0.6241   22.2076  -27.7922 H   0  0  0  0  0  0  0  0  0  0  0  0
    1.2045   22.5454  -26.3888 H   0  0  0  0  0  0  0  0  0  0  0  0
   -2.4700   22.1560  -29.8380 H   0  0  0  0  0  0  0  0  0  0  0  0
   -1.8829   17.7084  -33.0832 H   0  0  0  0  0  0  0  0  0  0  0  0
   -4.2783   17.2598  -32.5863 H   0  0  0  0  0  0  0  0  0  0  0  0
   -4.9223   21.1787  -30.9531 H   0  0  0  0  0  0  0  0  0  0  0  0
  1  2  1  0
  2  3  2  0
  2  4  2  0
  2  5  1  0
  5  6  2  0
  6  7  1  0
  7  8  2  0
  8  9  1  0
  9 10  1  0
 10 11  1  0
 11 12  2  0
 11 13  1  0
 13 14  2  0
 14 15  1  0
 15 16  2  0
 16 17  1  0
 17 18  1  0
 18 19  2  0
 18 20  1  0
 20 21  1  0
 21 22  2  0
 22 23  1  0
 23 24  2  0
 24 25  1  0
 24 26  1  0
 26 27  1  0
 27 28  2  0
 27 29  2  0
 27 30  1  0
 30 31  1  0
 31 32  1  0
 26 33  2  0
 33 34  1  0
 16 35  1  0
 35 36  2  0
  9 37  2  0
 37  5  1  0
 36 13  1  0
 33 21  1  0
 32 30  1  0
  1 38  1  0
  6 39  1  0
  7 40  1  0
  8 41  1  0
 14 42  1  0
 15 43  1  0
 22 44  1  0
 23 45  1  0
 30 46  1  0
 31 47  1  0
 31 48  1  0
 32 49  1  0
 32 50  1  0
 34 51  1  0
 35 52  1  0
 36 53  1  0
 37 54  1  0
M  CHG  4   1  -1  10  -1  17  -1  20  -1
M  END
>  <UniqueID>  (50) 
48

>  <SMILES>  (50) 
[NH-]S(=O)(=O)c1cccc([N-]C(=O)c2ccc([N-]C(=O)[N-]c3ccc(Cl)c(S(=O)(=O)C4CC4)c3O)cc2)c1

>  <Energy>  (50) 
341.4783841826632

>  <Genealogy>  (50) 
[NH-]S(=O)(=O)c1cccc([N-]C(=O)c2ccc([N-]C(=O)[N-]c3ccc(Cl)c(S(=O)(=O)C4CC4)c3O)cc2)c1 (protonated)
[NH-]S(=O)(=O)c1cccc([N-]C(=O)c2ccc([N-]C(=O)[N-]c3ccc(Cl)c(S(=O)(=O)C4CC4)c3O)cc2)c1 (3D coordinates assigned)
[NH-]S(=O)(=O)c1cccc([N-]C(=O)c2ccc([N-]C(=O)[N-]c3ccc(Cl)c(S(=O)(=O)C4CC4)c3O)cc2)c1 (nonaromatic ring conformer: 341.4783841826632 kcal/mol)

>  <smiles>  (50) 
NS(=O)(=O)c1cccc(NC(=O)c2ccc(NC(=O)Nc3ccc(Cl)c(S(=O)(=O)C4CC4)c3O)cc2)c1

>  <score_type>  (50) 
oracle

>  <origin>  (50) 
adgpu

>  <m_score__min__energy>  (50) 
-14.07

>  <m_primary>  (50) 
energy

$$$$
