0:0
     RDKit          3D

 59 62  0  0  0  0  0  0  0  0999 V2000
   -0.3070   26.3160  -24.1140 C   0  0  0  0  0  0  0  0  0  0  0  0
   -1.5930   26.6610  -24.8690 C   0  0  0  0  0  0  0  0  0  0  0  0
   -1.4130   26.6040  -26.3930 C   0  0  0  0  0  0  0  0  0  0  0  0
   -1.5410   25.2040  -26.9170 C   0  0  0  0  0  0  0  0  0  0  0  0
   -1.5240   24.0990  -26.1360 N   0  0  0  0  0  0  0  0  0  0  0  0
   -1.6000   23.0830  -27.0240 C   0  0  0  0  0  0  0  0  0  0  0  0
   -1.5820   21.8720  -26.6770 O   0  0  0  0  0  0  0  0  0  0  0  0
   -1.6660   23.4900  -28.3110 N   0  0  0  0  0  0  0  0  0  0  0  0
   -1.6760   22.6810  -29.4970 C   0  0  0  0  0  0  0  0  0  0  0  0
   -0.6290   21.7760  -29.7120 C   0  0  0  0  0  0  0  0  0  0  0  0
   -0.6130   20.9370  -30.8390 C   0  0  0  0  0  0  0  0  0  0  0  0
    0.5370   19.9760  -31.0080 C   0  0  0  0  0  0  0  0  0  0  0  0
   -1.6540   21.0400  -31.7920 C   0  0  0  0  0  0  0  0  0  0  0  0
   -1.7020   20.0300  -33.2480 S   0  0  0  0  0  0  0  0  0  0  0  0
   -0.6430   20.4720  -34.2210 O   0  0  0  0  0  0  0  0  0  0  0  0
   -1.4210   18.6020  -32.8790 O   0  0  0  0  0  0  0  0  0  0  0  0
   -3.2590   20.2130  -34.0010 N   0  0  0  0  0  0  0  0  0  0  0  0
   -4.5190   19.7690  -33.4770 C   0  0  0  0  0  0  0  0  0  0  0  0
   -5.4630   20.6750  -32.9600 C   0  0  0  0  0  0  0  0  0  0  0  0
   -6.7010   20.2150  -32.4880 C   0  0  0  0  0  0  0  0  0  0  0  0
   -6.9790   18.8410  -32.4800 C   0  0  0  0  0  0  0  0  0  0  0  0
   -6.0250   17.9300  -32.9520 C   0  0  0  0  0  0  0  0  0  0  0  0
   -4.8010   18.3870  -33.4530 C   0  0  0  0  0  0  0  0  0  0  0  0
   -3.8810   17.4490  -33.9300 O   0  0  0  0  0  0  0  0  0  0  0  0
   -8.2990   18.3790  -31.9260 C   0  0  0  0  0  0  0  0  0  0  0  0
   -9.4270   19.2700  -32.4660 C   0  0  0  0  0  0  0  0  0  0  0  0
   -9.1550   20.7910  -32.3130 C   0  0  0  0  0  0  0  0  0  0  0  0
   -7.7140   21.1620  -31.9000 C   0  0  0  0  0  0  0  0  0  0  0  0
   -2.7030   21.9490  -31.5710 C   0  0  0  0  0  0  0  0  0  0  0  0
   -2.7160   22.7850  -30.4430 C   0  0  0  0  0  0  0  0  0  0  0  0
   -3.8530   23.7550  -30.2590 C   0  0  0  0  0  0  0  0  0  0  0  0
   -1.6090   24.8280  -28.2420 C   0  0  0  0  0  0  0  0  0  0  0  0
   -1.6230   25.6830  -29.3420 O   0  0  0  0  0  0  0  0  0  0  0  0
   -0.4930   26.3659  -23.0310 H   0  0  0  0  0  0  0  0  0  0  0  0
    0.0154   25.2996  -24.3842 H   0  0  0  0  0  0  0  0  0  0  0  0
    0.4808   27.0346  -24.3842 H   0  0  0  0  0  0  0  0  0  0  0  0
   -2.3755   25.9443  -24.5791 H   0  0  0  0  0  0  0  0  0  0  0  0
   -1.8705   27.6917  -24.6034 H   0  0  0  0  0  0  0  0  0  0  0  0
   -2.1815   27.2329  -26.8661 H   0  0  0  0  0  0  0  0  0  0  0  0
   -0.4027   26.9675  -26.6319 H   0  0  0  0  0  0  0  0  0  0  0  0
    0.1954   21.7210  -28.9858 H   0  0  0  0  0  0  0  0  0  0  0  0
    0.9058   19.6678  -30.0185 H   0  0  0  0  0  0  0  0  0  0  0  0
    0.1961   19.0904  -31.5644 H   0  0  0  0  0  0  0  0  0  0  0  0
    1.3479   20.4688  -31.5644 H   0  0  0  0  0  0  0  0  0  0  0  0
   -5.2290   21.7493  -32.9258 H   0  0  0  0  0  0  0  0  0  0  0  0
   -6.2390   16.8513  -32.9287 H   0  0  0  0  0  0  0  0  0  0  0  0
   -2.9180   17.6900  -34.1340 H   0  0  0  0  0  0  0  0  0  0  0  0
   -8.4786   17.3372  -32.2299 H   0  0  0  0  0  0  0  0  0  0  0  0
   -8.2765   18.4448  -30.8282 H   0  0  0  0  0  0  0  0  0  0  0  0
   -9.5621   19.0481  -33.5349 H   0  0  0  0  0  0  0  0  0  0  0  0
  -10.3245   19.0446  -31.8712 H   0  0  0  0  0  0  0  0  0  0  0  0
   -9.3675   21.2737  -33.2783 H   0  0  0  0  0  0  0  0  0  0  0  0
   -9.8057   21.1373  -31.4965 H   0  0  0  0  0  0  0  0  0  0  0  0
   -7.4944   22.1810  -32.2512 H   0  0  0  0  0  0  0  0  0  0  0  0
   -7.6457   21.0976  -30.8040 H   0  0  0  0  0  0  0  0  0  0  0  0
   -3.5290   22.0065  -32.2951 H   0  0  0  0  0  0  0  0  0  0  0  0
   -4.0334   23.9089  -29.1849 H   0  0  0  0  0  0  0  0  0  0  0  0
   -3.5951   24.7156  -30.7289 H   0  0  0  0  0  0  0  0  0  0  0  0
   -4.7610   23.3490  -30.7289 H   0  0  0  0  0  0  0  0  0  0  0  0
  1  2  1  0
  2  3  1  0
  3  4  1  0
  4  5  1  0
  5  6  1  0
  6  7  2  0
  6  8  1  0
  8  9  1  0
  9 10  2  0
 10 11  1  0
 11 12  1  0
 11 13  2  0
 13 14  1  0
 14 15  2  0
 14 16  2  0
 14 17  1  0
 17 18  1  0
 18 19  2  0
 19 20  1  0
 20 21  2  0
 21 22  1  0
 22 23  2  0
 23 24  1  0
 21 25  1  0
 25 26  1  0
 26 27  1  0
 27 28  1  0
 13 29  1  0
 29 30  2  0
 30 31  1  0
  8 32  1  0
 32 33  1  0
 32  4  2  0
 30  9  1  0
 23 18  1  0
 28 20  1  0
  1 34  1  0
  1 35  1  0
  1 36  1  0
  2 37  1  0
  2 38  1  0
  3 39  1  0
  3 40  1  0
 10 41  1  0
 12 42  1  0
 12 43  1  0
 12 44  1  0
 19 45  1  0
 22 46  1  0
 24 47  1  0
 25 48  1  0
 25 49  1  0
 26 50  1  0
 26 51  1  0
 27 52  1  0
 27 53  1  0
 28 54  1  0
 28 55  1  0
 29 56  1  0
 31 57  1  0
 31 58  1  0
 31 59  1  0
M  CHG  3   5  -1  17  -1  33  -1
M  END
>  <UniqueID>  (1) 
1

>  <SMILES>  (1) 
CCCc1[n-]c(=O)n(-c2cc(C)c(S(=O)(=O)[N-]c3cc4c(cc3O)CCCC4)cc2C)c1[O-]

>  <Energy>  (1) 
109.46871893707173

>  <Genealogy>  (1) 
CCCc1[n-]c(=O)n(-c2cc(C)c(S(=O)(=O)[N-]c3cc4c(cc3O)CCCC4)cc2C)c1[O-] (protonated)
CCCc1[n-]c(=O)n(-c2cc(C)c(S(=O)(=O)[N-]c3cc4c(cc3O)CCCC4)cc2C)c1[O-] (3D coordinates assigned)
CCCc1[n-]c(=O)n(-c2cc(C)c(S(=O)(=O)[N-]c3cc4c(cc3O)CCCC4)cc2C)c1[O-] (nonaromatic ring conformer: 109.46871893707173 kcal/mol)

>  <smiles>  (1) 
CCCc1[nH]c(=O)n(-c2cc(C)c(S(=O)(=O)Nc3cc4c(cc3O)CCCC4)cc2C)c1O

>  <score_type>  (1) 
oracle

>  <origin>  (1) 
adgpu

>  <m_score__min__energy>  (1) 
-12.67

>  <m_primary>  (1) 
energy

$$$$
1:0
     RDKit          3D

 47 50  0  0  0  0  0  0  0  0999 V2000
   -8.3200   12.3090  -34.8710 C   0  0  0  0  0  0  0  0  0  0  0  0
   -7.1690   13.1340  -34.4000 C   0  0  0  0  0  0  0  0  0  0  0  0
   -7.2530   14.4900  -34.4170 N   0  0  0  0  0  0  0  0  0  0  0  0
   -6.2410   15.2710  -33.9550 C   0  0  0  0  0  0  0  0  0  0  0  0
   -6.3980   16.6940  -33.9780 N   0  0  0  0  0  0  0  0  0  0  0  0
   -5.7570   17.4880  -35.0340 C   0  0  0  0  0  0  0  0  0  0  0  0
   -5.0370   18.6950  -34.4210 C   0  0  0  0  0  0  0  0  0  0  0  0
   -5.8530   19.3480  -33.3850 N   0  0  0  0  0  0  0  0  0  0  0  0
   -5.2890   20.4230  -32.6110 C   0  0  0  0  0  0  0  0  0  0  0  0
   -3.9410   20.7870  -32.7720 C   0  0  0  0  0  0  0  0  0  0  0  0
   -3.3920   21.8220  -32.0100 C   0  0  0  0  0  0  0  0  0  0  0  0
   -4.1800   22.5060  -31.0740 C   0  0  0  0  0  0  0  0  0  0  0  0
   -3.5020   23.8070  -30.1010 S   0  0  0  0  0  0  0  0  0  0  0  0
   -3.8510   25.3280  -30.8440 N   0  0  0  0  0  0  0  0  0  0  0  0
   -4.0980   23.7920  -28.7200 O   0  0  0  0  0  0  0  0  0  0  0  0
   -2.0150   23.6260  -29.9910 O   0  0  0  0  0  0  0  0  0  0  0  0
   -5.5220   22.1420  -30.9060 C   0  0  0  0  0  0  0  0  0  0  0  0
   -6.0730   21.1070  -31.6670 C   0  0  0  0  0  0  0  0  0  0  0  0
   -7.2100   18.8590  -33.1030 C   0  0  0  0  0  0  0  0  0  0  0  0
   -7.1810   17.3400  -32.9180 C   0  0  0  0  0  0  0  0  0  0  0  0
   -5.0740   14.6670  -33.4480 C   0  0  0  0  0  0  0  0  0  0  0  0
   -3.9760   15.4110  -32.9800 C   0  0  0  0  0  0  0  0  0  0  0  0
   -2.8470   14.7530  -32.4810 C   0  0  0  0  0  0  0  0  0  0  0  0
   -2.8020   13.3570  -32.4500 C   0  0  0  0  0  0  0  0  0  0  0  0
   -3.8850   12.6080  -32.9200 C   0  0  0  0  0  0  0  0  0  0  0  0
   -5.0180   13.2560  -33.4250 C   0  0  0  0  0  0  0  0  0  0  0  0
   -6.0640   12.5280  -33.8930 N   0  0  0  0  0  0  0  0  0  0  0  0
   -8.8688   11.9156  -34.0026 H   0  0  0  0  0  0  0  0  0  0  0  0
   -8.9930   12.9316  -35.4788 H   0  0  0  0  0  0  0  0  0  0  0  0
   -7.9465   11.4717  -35.4788 H   0  0  0  0  0  0  0  0  0  0  0  0
   -5.0274   16.8617  -35.5682 H   0  0  0  0  0  0  0  0  0  0  0  0
   -6.5268   17.8449  -35.7340 H   0  0  0  0  0  0  0  0  0  0  0  0
   -4.0931   18.3554  -33.9696 H   0  0  0  0  0  0  0  0  0  0  0  0
   -4.8510   19.4259  -35.2218 H   0  0  0  0  0  0  0  0  0  0  0  0
   -3.3143   20.2540  -33.5022 H   0  0  0  0  0  0  0  0  0  0  0  0
   -2.3367   22.1011  -32.1454 H   0  0  0  0  0  0  0  0  0  0  0  0
   -3.8810   26.0430  -30.0820 H   0  0  0  0  0  0  0  0  0  0  0  0
   -6.1454   22.6732  -30.1717 H   0  0  0  0  0  0  0  0  0  0  0  0
   -7.1272   20.8263  -31.5258 H   0  0  0  0  0  0  0  0  0  0  0  0
   -7.5860   19.3325  -32.1841 H   0  0  0  0  0  0  0  0  0  0  0  0
   -7.8713   19.1116  -33.9449 H   0  0  0  0  0  0  0  0  0  0  0  0
   -6.7286   17.1053  -31.9432 H   0  0  0  0  0  0  0  0  0  0  0  0
   -8.2130   16.9622  -32.9660 H   0  0  0  0  0  0  0  0  0  0  0  0
   -4.0051   16.5103  -33.0064 H   0  0  0  0  0  0  0  0  0  0  0  0
   -1.9912   15.3370  -32.1115 H   0  0  0  0  0  0  0  0  0  0  0  0
   -1.9119   12.8456  -32.0547 H   0  0  0  0  0  0  0  0  0  0  0  0
   -3.8465   11.5090  -32.8928 H   0  0  0  0  0  0  0  0  0  0  0  0
  1  2  1  0
  2  3  2  0
  3  4  1  0
  4  5  1  0
  5  6  1  0
  6  7  1  0
  7  8  1  0
  8  9  1  0
  9 10  2  0
 10 11  1  0
 11 12  2  0
 12 13  1  0
 13 14  1  0
 13 15  2  0
 13 16  2  0
 12 17  1  0
 17 18  2  0
  8 19  1  0
 19 20  1  0
  4 21  2  0
 21 22  1  0
 22 23  2  0
 23 24  1  0
 24 25  2  0
 25 26  1  0
 26 27  2  0
 27  2  1  0
 20  5  1  0
 26 21  1  0
 18  9  1  0
  1 28  1  0
  1 29  1  0
  1 30  1  0
  6 31  1  0
  6 32  1  0
  7 33  1  0
  7 34  1  0
 10 35  1  0
 11 36  1  0
 14 37  1  0
 17 38  1  0
 18 39  1  0
 19 40  1  0
 19 41  1  0
 20 42  1  0
 20 43  1  0
 22 44  1  0
 23 45  1  0
 24 46  1  0
 25 47  1  0
M  CHG  1  14  -1
M  END
>  <UniqueID>  (2) 
2

>  <SMILES>  (2) 
Cc1nc(N2CCN(c3ccc(S([NH-])(=O)=O)cc3)CC2)c2ccccc2n1

>  <Energy>  (2) 
63.0291390598293

>  <Genealogy>  (2) 
Cc1nc(N2CCN(c3ccc(S([NH-])(=O)=O)cc3)CC2)c2ccccc2n1 (protonated)
Cc1nc(N2CCN(c3ccc(S([NH-])(=O)=O)cc3)CC2)c2ccccc2n1 (3D coordinates assigned)
Cc1nc(N2CCN(c3ccc(S([NH-])(=O)=O)cc3)CC2)c2ccccc2n1 (nonaromatic ring conformer: 63.0291390598293 kcal/mol)

>  <smiles>  (2) 
Cc1nc(N2CCN(c3ccc(S(N)(=O)=O)cc3)CC2)c2ccccc2n1

>  <score_type>  (2) 
oracle

>  <origin>  (2) 
adgpu

>  <m_score__min__energy>  (2) 
-10.77

>  <m_primary>  (2) 
energy

$$$$
2:0
     RDKit          3D

 50 53  0  0  0  0  0  0  0  0999 V2000
   -3.2270   15.7330  -32.7650 C   0  0  0  0  0  0  0  0  0  0  0  0
   -4.2240   14.6820  -33.2020 C   0  0  0  0  0  0  0  0  0  0  0  0
   -3.8800   13.3000  -33.1760 C   0  0  0  0  0  0  0  0  0  0  0  0
   -2.6120   12.7990  -32.5830 C   0  0  0  0  0  0  0  0  0  0  0  0
   -1.5030   12.4870  -33.4240 N   0  0  0  0  0  0  0  0  0  0  0  0
   -2.5130   12.6090  -31.3420 O   0  0  0  0  0  0  0  0  0  0  0  0
   -4.7730   12.3580  -33.7180 C   0  0  0  0  0  0  0  0  0  0  0  0
   -6.0000   12.7550  -34.2380 C   0  0  0  0  0  0  0  0  0  0  0  0
   -6.3710   14.0950  -34.2120 C   0  0  0  0  0  0  0  0  0  0  0  0
   -5.5070   15.0660  -33.6850 C   0  0  0  0  0  0  0  0  0  0  0  0
   -5.9830   16.4690  -33.6380 C   0  0  0  0  0  0  0  0  0  0  0  0
   -6.8130   16.8990  -32.5920 C   0  0  0  0  0  0  0  0  0  0  0  0
   -7.2540   18.2240  -32.5400 C   0  0  0  0  0  0  0  0  0  0  0  0
   -6.8570   19.1440  -33.5280 C   0  0  0  0  0  0  0  0  0  0  0  0
   -7.2850   20.4800  -33.5170 O   0  0  0  0  0  0  0  0  0  0  0  0
   -6.7790   21.4730  -32.6670 C   0  0  0  0  0  0  0  0  0  0  0  0
   -5.4100   21.7590  -32.7120 C   0  0  0  0  0  0  0  0  0  0  0  0
   -4.8650   22.7470  -31.8900 C   0  0  0  0  0  0  0  0  0  0  0  0
   -5.6840   23.4570  -31.0030 C   0  0  0  0  0  0  0  0  0  0  0  0
   -4.9880   24.6930  -29.9620 S   0  0  0  0  0  0  0  0  0  0  0  0
   -6.0840   25.4200  -29.2340 O   0  0  0  0  0  0  0  0  0  0  0  0
   -4.2170   25.6750  -30.8000 O   0  0  0  0  0  0  0  0  0  0  0  0
   -3.9280   23.9340  -28.8190 N   0  0  0  0  0  0  0  0  0  0  0  0
   -2.6910   24.2910  -28.6580 C   0  0  0  0  0  0  0  0  0  0  0  0
   -1.8200   23.7130  -27.7650 C   0  0  0  0  0  0  0  0  0  0  0  0
   -0.6540   24.4220  -27.9640 C   0  0  0  0  0  0  0  0  0  0  0  0
   -0.8630   25.3260  -28.8970 O   0  0  0  0  0  0  0  0  0  0  0  0
   -2.0850   25.2790  -29.3420 N   0  0  0  0  0  0  0  0  0  0  0  0
   -7.0500   23.1520  -30.9260 C   0  0  0  0  0  0  0  0  0  0  0  0
   -7.6030   22.1630  -31.7500 C   0  0  0  0  0  0  0  0  0  0  0  0
   -8.9990   21.8290  -31.6040 C   0  0  0  0  0  0  0  0  0  0  0  0
  -10.1180   21.5610  -31.4870 N   0  0  0  0  0  0  0  0  0  0  0  0
   -6.0310   18.7130  -34.5720 C   0  0  0  0  0  0  0  0  0  0  0  0
   -5.5880   17.3880  -34.6250 C   0  0  0  0  0  0  0  0  0  0  0  0
   -3.1915   15.7704  -31.6662 H   0  0  0  0  0  0  0  0  0  0  0  0
   -2.2307   15.4782  -33.1556 H   0  0  0  0  0  0  0  0  0  0  0  0
   -3.5339   16.7145  -33.1556 H   0  0  0  0  0  0  0  0  0  0  0  0
   -0.6440   12.0380  -33.0350 H   0  0  0  0  0  0  0  0  0  0  0  0
   -4.4971   11.2932  -33.7307 H   0  0  0  0  0  0  0  0  0  0  0  0
   -6.6796   12.0065  -34.6715 H   0  0  0  0  0  0  0  0  0  0  0  0
   -7.3517   14.3963  -34.6087 H   0  0  0  0  0  0  0  0  0  0  0  0
   -7.1183   16.1896  -31.8087 H   0  0  0  0  0  0  0  0  0  0  0  0
   -7.9146   18.5494  -31.7229 H   0  0  0  0  0  0  0  0  0  0  0  0
   -4.7582   21.2010  -33.4004 H   0  0  0  0  0  0  0  0  0  0  0  0
   -3.7887   22.9686  -31.9391 H   0  0  0  0  0  0  0  0  0  0  0  0
   -2.0074   22.8869  -27.0633 H   0  0  0  0  0  0  0  0  0  0  0  0
    0.2942   24.2588  -27.4308 H   0  0  0  0  0  0  0  0  0  0  0  0
   -7.6916   23.6924  -30.2144 H   0  0  0  0  0  0  0  0  0  0  0  0
   -5.7280   19.4218  -35.3567 H   0  0  0  0  0  0  0  0  0  0  0  0
   -4.9276   17.0636  -35.4426 H   0  0  0  0  0  0  0  0  0  0  0  0
  1  2  1  0
  2  3  2  0
  3  4  1  0
  4  5  1  0
  4  6  2  0
  3  7  1  0
  7  8  2  0
  8  9  1  0
  9 10  2  0
 10 11  1  0
 11 12  2  0
 12 13  1  0
 13 14  2  0
 14 15  1  0
 15 16  1  0
 16 17  2  0
 17 18  1  0
 18 19  2  0
 19 20  1  0
 20 21  2  0
 20 22  2  0
 20 23  1  0
 23 24  2  3
 24 25  1  0
 25 26  2  0
 26 27  1  0
 27 28  1  0
 19 29  1  0
 29 30  2  0
 30 31  1  0
 31 32  3  0
 14 33  1  0
 33 34  2  0
 10  2  1  0
 34 11  1  0
 30 16  1  0
 28 24  1  0
  1 35  1  0
  1 36  1  0
  1 37  1  0
  5 38  1  0
  7 39  1  0
  8 40  1  0
  9 41  1  0
 12 42  1  0
 13 43  1  0
 17 44  1  0
 18 45  1  0
 25 46  1  0
 26 47  1  0
 29 48  1  0
 33 49  1  0
 34 50  1  0
M  CHG  2   5  -1  28  -1
M  END
>  <UniqueID>  (3) 
3

>  <SMILES>  (3) 
Cc1c(C([NH-])=O)cccc1-c1ccc(Oc2ccc(S(=O)(=O)N=c3cco[n-]3)cc2C#N)cc1

>  <Energy>  (3) 
109.90992532458509

>  <Genealogy>  (3) 
Cc1c(C([NH-])=O)cccc1-c1ccc(Oc2ccc(S(=O)(=O)N=c3cco[n-]3)cc2C#N)cc1 (protonated)
Cc1c(C([NH-])=O)cccc1-c1ccc(Oc2ccc(S(=O)(=O)N=c3cco[n-]3)cc2C#N)cc1 (3D coordinates assigned)
Cc1c(C([NH-])=O)cccc1-c1ccc(Oc2ccc(S(=O)(=O)N=c3cco[n-]3)cc2C#N)cc1 (optimized conformer: 109.90992532458509 kcal/mol)

>  <smiles>  (3) 
Cc1c(C(N)=O)cccc1-c1ccc(Oc2ccc(S(=O)(=O)N=c3cco[nH]3)cc2C#N)cc1

>  <score_type>  (3) 
oracle

>  <origin>  (3) 
adgpu

>  <m_score__min__energy>  (3) 
-11.68

>  <m_primary>  (3) 
energy

$$$$
3:0
     RDKit          3D

 45 47  0  0  0  0  0  0  0  0999 V2000
   -0.9130   22.5040  -34.9830 H   0  0  0  0  0  0  0  0  0  0  0  0
   -0.5360   21.8740  -34.2420 N   0  0  0  0  0  0  0  0  0  0  0  0
   -1.4070   21.0530  -33.4680 C   0  0  0  0  0  0  0  0  0  0  0  0
   -2.6010   20.8850  -33.8410 O   0  0  0  0  0  0  0  0  0  0  0  0
   -0.8970   20.4090  -32.2470 C   0  0  0  0  0  0  0  0  0  0  0  0
   -0.3079   19.4849  -32.3415 H   0  0  0  0  0  0  0  0  0  0  0  0
   -1.1240   20.9070  -31.0260 C   0  0  0  0  0  0  0  0  0  0  0  0
   -1.7226   21.8250  -30.9311 H   0  0  0  0  0  0  0  0  0  0  0  0
   -0.6000   20.2690  -29.8000 C   0  0  0  0  0  0  0  0  0  0  0  0
    0.7580   19.9090  -29.7790 C   0  0  0  0  0  0  0  0  0  0  0  0
    1.3862   20.1041  -30.6607 H   0  0  0  0  0  0  0  0  0  0  0  0
    1.3210   19.3040  -28.6470 C   0  0  0  0  0  0  0  0  0  0  0  0
    2.7010   18.9270  -28.6440 N   0  0  0  0  0  0  0  0  0  0  0  0
    2.9980   17.9880  -28.2990 H   0  0  0  0  0  0  0  0  0  0  0  0
    3.4340   19.5860  -28.9880 H   0  0  0  0  0  0  0  0  0  0  0  0
    0.5250   19.0690  -27.5210 C   0  0  0  0  0  0  0  0  0  0  0  0
    0.9590   18.5830  -26.6348 H   0  0  0  0  0  0  0  0  0  0  0  0
   -0.8180   19.4490  -27.5180 C   0  0  0  0  0  0  0  0  0  0  0  0
   -1.4346   19.2663  -26.6256 H   0  0  0  0  0  0  0  0  0  0  0  0
   -1.3870   20.0610  -28.6420 C   0  0  0  0  0  0  0  0  0  0  0  0
   -3.0960   20.6220  -28.5180 S   0  0  0  0  0  0  0  0  0  0  0  0
   -2.6420   22.3520  -28.6500 C   0  0  0  0  0  0  0  0  0  0  0  0
   -3.2500   23.1650  -29.6120 C   0  0  0  0  0  0  0  0  0  0  0  0
   -3.9977   22.7394  -30.2974 H   0  0  0  0  0  0  0  0  0  0  0  0
   -2.9090   24.5180  -29.7040 C   0  0  0  0  0  0  0  0  0  0  0  0
   -3.5210   25.3190  -30.6610 O   0  0  0  0  0  0  0  0  0  0  0  0
   -1.9530   25.0630  -28.8360 C   0  0  0  0  0  0  0  0  0  0  0  0
   -1.6140   26.4080  -28.9520 O   0  0  0  0  0  0  0  0  0  0  0  0
   -1.3320   24.2480  -27.8680 C   0  0  0  0  0  0  0  0  0  0  0  0
   -0.3370   24.8070  -26.9230 C   0  0  0  0  0  0  0  0  0  0  0  0
   -0.7660   25.3610  -25.7040 C   0  0  0  0  0  0  0  0  0  0  0  0
   -1.8393   25.3848  -25.4643 H   0  0  0  0  0  0  0  0  0  0  0  0
    0.1620   25.8840  -24.7900 C   0  0  0  0  0  0  0  0  0  0  0  0
   -0.3030   26.4340  -23.4740 C   0  0  0  0  0  0  0  0  0  0  0  0
    0.1707   25.8737  -22.6545 H   0  0  0  0  0  0  0  0  0  0  0  0
   -0.0245   27.4957  -23.4013 H   0  0  0  0  0  0  0  0  0  0  0  0
   -1.3962   26.3359  -23.4013 H   0  0  0  0  0  0  0  0  0  0  0  0
    1.5310   25.8200  -25.0850 C   0  0  0  0  0  0  0  0  0  0  0  0
    2.2656   26.2039  -24.3618 H   0  0  0  0  0  0  0  0  0  0  0  0
    1.9660   25.2710  -26.2930 C   0  0  0  0  0  0  0  0  0  0  0  0
    3.0413   25.2341  -26.5219 H   0  0  0  0  0  0  0  0  0  0  0  0
    1.0410   24.7680  -27.2130 C   0  0  0  0  0  0  0  0  0  0  0  0
    1.5000   24.2440  -28.4180 O   0  0  0  0  0  0  0  0  0  0  0  0
   -1.6810   22.8910  -27.7890 C   0  0  0  0  0  0  0  0  0  0  0  0
   -1.1942   22.2456  -27.0431 H   0  0  0  0  0  0  0  0  0  0  0  0
  1  2  1  0
  2  3  1  0
  3  4  2  0
  3  5  1  0
  5  6  1  0
  5  7  2  0
  7  8  1  0
  7  9  1  0
  9 10  2  0
 10 11  1  0
 10 12  1  0
 12 13  1  0
 13 14  1  0
 13 15  1  0
 12 16  2  0
 16 17  1  0
 16 18  1  0
 18 19  1  0
 18 20  2  0
 20 21  1  0
 21 22  1  0
 22 23  2  0
 23 24  1  0
 23 25  1  0
 25 26  1  0
 25 27  2  0
 27 28  1  0
 27 29  1  0
 29 30  1  0
 30 31  2  0
 31 32  1  0
 31 33  1  0
 33 34  1  0
 34 35  1  0
 34 36  1  0
 34 37  1  0
 33 38  2  0
 38 39  1  0
 38 40  1  0
 40 41  1  0
 40 42  2  0
 42 43  1  0
 29 44  2  0
 44 45  1  0
 20  9  1  0
 44 22  1  0
 42 30  1  0
M  CHG  4   2  -1  26  -1  28  -1  43  -1
M  END
>  <UniqueID>  (4) 
4

>  <SMILES>  (4) 
Cc1ccc([O-])c(-c2cc(Sc3ccc(N)cc3/C=C/C([NH-])=O)cc([O-])c2[O-])c1

>  <Energy>  (4) 
52.42328028664732

>  <Genealogy>  (4) 
Cc1ccc([O-])c(-c2cc(Sc3ccc(N)cc3C=CC([NH-])=O)cc([O-])c2[O-])c1 (protonated)
Cc1ccc([O-])c(-c2cc(Sc3ccc(N)cc3/C=C/C([NH-])=O)cc([O-])c2[O-])c1 (cis-trans isomerization)
Cc1ccc([O-])c(-c2cc(Sc3ccc(N)cc3/C=C/C([NH-])=O)cc([O-])c2[O-])c1 (3D coordinates assigned)
Cc1ccc([O-])c(-c2cc(Sc3ccc(N)cc3/C=C/C([NH-])=O)cc([O-])c2[O-])c1 (optimized conformer: 52.42328028664732 kcal/mol)

>  <smiles>  (4) 
Cc1ccc(O)c(-c2cc(Sc3ccc(N)cc3C=CC(N)=O)cc(O)c2O)c1

>  <score_type>  (4) 
oracle

>  <origin>  (4) 
adgpu

>  <m_score__min__energy>  (4) 
-14.380000000000001

>  <m_primary>  (4) 
energy

$$$$
4:0
     RDKit          3D

 51 54  0  0  0  0  0  0  0  0999 V2000
   -6.8170   25.3070  -29.5610 C   0  0  0  0  0  0  0  0  0  0  0  0
   -5.4310   24.8770  -29.9070 C   0  0  0  0  0  0  0  0  0  0  0  0
   -4.6050   25.5890  -30.6960 N   0  0  0  0  0  0  0  0  0  0  0  0
   -3.4930   24.9210  -30.6990 O   0  0  0  0  0  0  0  0  0  0  0  0
   -3.6130   23.8560  -29.9430 C   0  0  0  0  0  0  0  0  0  0  0  0
   -2.5360   22.8700  -29.7190 C   0  0  0  0  0  0  0  0  0  0  0  0
   -2.2800   22.3910  -28.4260 C   0  0  0  0  0  0  0  0  0  0  0  0
   -1.2590   21.4650  -28.2080 C   0  0  0  0  0  0  0  0  0  0  0  0
   -0.4850   21.0060  -29.2760 C   0  0  0  0  0  0  0  0  0  0  0  0
   -0.7220   21.4780  -30.5800 C   0  0  0  0  0  0  0  0  0  0  0  0
    0.0620   21.0350  -31.7030 N   0  0  0  0  0  0  0  0  0  0  0  0
   -0.6030   20.6860  -33.2680 S   0  0  0  0  0  0  0  0  0  0  0  0
    0.0340   19.4390  -33.8120 O   0  0  0  0  0  0  0  0  0  0  0  0
   -0.3040   21.8300  -34.1980 O   0  0  0  0  0  0  0  0  0  0  0  0
   -2.3380   20.4210  -33.1300 C   0  0  0  0  0  0  0  0  0  0  0  0
   -3.2380   21.4850  -33.2840 C   0  0  0  0  0  0  0  0  0  0  0  0
   -4.6130   21.2660  -33.1480 C   0  0  0  0  0  0  0  0  0  0  0  0
   -5.0980   19.9830  -32.8610 C   0  0  0  0  0  0  0  0  0  0  0  0
   -6.8270   19.6920  -32.7000 S   0  0  0  0  0  0  0  0  0  0  0  0
   -7.1020   18.2150  -32.7720 O   0  0  0  0  0  0  0  0  0  0  0  0
   -7.5330   20.3650  -33.8450 O   0  0  0  0  0  0  0  0  0  0  0  0
   -7.3810   20.3520  -31.1750 N   0  0  0  0  0  0  0  0  0  0  0  0
   -8.8570   20.4400  -31.1140 C   0  0  0  0  0  0  0  0  0  0  0  0
   -9.3840   21.8550  -31.4190 C   0  0  0  0  0  0  0  0  0  0  0  0
   -8.5400   22.5040  -32.3420 O   0  0  0  0  0  0  0  0  0  0  0  0
   -7.2880   22.7950  -31.7440 C   0  0  0  0  0  0  0  0  0  0  0  0
   -6.7330   21.6420  -30.8730 C   0  0  0  0  0  0  0  0  0  0  0  0
   -4.1970   18.9190  -32.7180 C   0  0  0  0  0  0  0  0  0  0  0  0
   -2.8230   19.1380  -32.8500 C   0  0  0  0  0  0  0  0  0  0  0  0
   -1.7570   22.4050  -30.7920 C   0  0  0  0  0  0  0  0  0  0  0  0
   -4.8430   23.7760  -29.3960 N   0  0  0  0  0  0  0  0  0  0  0  0
   -6.9279   25.3414  -28.4671 H   0  0  0  0  0  0  0  0  0  0  0  0
   -7.0064   26.3061  -29.9804 H   0  0  0  0  0  0  0  0  0  0  0  0
   -7.5386   24.5905  -29.9804 H   0  0  0  0  0  0  0  0  0  0  0  0
   -2.8866   22.7467  -27.5801 H   0  0  0  0  0  0  0  0  0  0  0  0
   -1.0630   21.0951  -27.1908 H   0  0  0  0  0  0  0  0  0  0  0  0
    0.3141   20.2716  -29.0967 H   0  0  0  0  0  0  0  0  0  0  0  0
    1.0750   20.8200  -31.5630 H   0  0  0  0  0  0  0  0  0  0  0  0
   -2.8624   22.4934  -33.5121 H   0  0  0  0  0  0  0  0  0  0  0  0
   -5.3159   22.1038  -33.2668 H   0  0  0  0  0  0  0  0  0  0  0  0
   -9.2814   19.7408  -31.8495 H   0  0  0  0  0  0  0  0  0  0  0  0
   -9.1616   20.1874  -30.0877 H   0  0  0  0  0  0  0  0  0  0  0  0
  -10.3964   21.7814  -31.8429 H   0  0  0  0  0  0  0  0  0  0  0  0
   -9.4070   22.4366  -30.4856 H   0  0  0  0  0  0  0  0  0  0  0  0
   -6.5623   23.0074  -32.5429 H   0  0  0  0  0  0  0  0  0  0  0  0
   -7.4418   23.6566  -31.0777 H   0  0  0  0  0  0  0  0  0  0  0  0
   -5.6528   21.5473  -31.0577 H   0  0  0  0  0  0  0  0  0  0  0  0
   -6.9402   21.8850  -29.8204 H   0  0  0  0  0  0  0  0  0  0  0  0
   -4.5726   17.9081  -32.5011 H   0  0  0  0  0  0  0  0  0  0  0  0
   -2.1205   18.2996  -32.7335 H   0  0  0  0  0  0  0  0  0  0  0  0
   -1.9595   22.7706  -31.8095 H   0  0  0  0  0  0  0  0  0  0  0  0
  1  2  1  0
  2  3  2  0
  3  4  1  0
  4  5  1  0
  5  6  1  0
  6  7  2  0
  7  8  1  0
  8  9  2  0
  9 10  1  0
 10 11  1  0
 11 12  1  0
 12 13  2  0
 12 14  2  0
 12 15  1  0
 15 16  2  0
 16 17  1  0
 17 18  2  0
 18 19  1  0
 19 20  2  0
 19 21  2  0
 19 22  1  0
 22 23  1  0
 23 24  1  0
 24 25  1  0
 25 26  1  0
 26 27  1  0
 18 28  1  0
 28 29  2  0
 10 30  2  0
  5 31  2  0
 31  2  1  0
 30  6  1  0
 29 15  1  0
 27 22  1  0
  1 32  1  0
  1 33  1  0
  1 34  1  0
  7 35  1  0
  8 36  1  0
  9 37  1  0
 11 38  1  0
 16 39  1  0
 17 40  1  0
 23 41  1  0
 23 42  1  0
 24 43  1  0
 24 44  1  0
 26 45  1  0
 26 46  1  0
 27 47  1  0
 27 48  1  0
 28 49  1  0
 29 50  1  0
 30 51  1  0
M  END
>  <UniqueID>  (5) 
5

>  <SMILES>  (5) 
Cc1noc(-c2cccc(NS(=O)(=O)c3ccc(S(=O)(=O)N4CCOCC4)cc3)c2)n1

>  <Energy>  (5) 
99.32874122828814

>  <Genealogy>  (5) 
Cc1noc(-c2cccc(NS(=O)(=O)c3ccc(S(=O)(=O)N4CCOCC4)cc3)c2)n1 (3D coordinates assigned)
Cc1noc(-c2cccc(NS(=O)(=O)c3ccc(S(=O)(=O)N4CCOCC4)cc3)c2)n1 (nonaromatic ring conformer: 99.32874122828814 kcal/mol)

>  <smiles>  (5) 
Cc1noc(-c2cccc(NS(=O)(=O)c3ccc(S(=O)(=O)N4CCOCC4)cc3)c2)n1

>  <score_type>  (5) 
oracle

>  <origin>  (5) 
adgpu

>  <m_score__min__energy>  (5) 
-11

>  <m_primary>  (5) 
energy

$$$$
5:0
     RDKit          3D

 46 50  0  0  0  0  0  0  0  0999 V2000
   -6.1430   18.4660  -34.4380 O   0  0  0  0  0  0  0  0  0  0  0  0
   -6.8230   19.1770  -33.4540 C   0  0  0  0  0  0  0  0  0  0  0  0
   -7.8180   18.5440  -32.6690 C   0  0  0  0  0  0  0  0  0  0  0  0
   -8.5170   19.2650  -31.6860 C   0  0  0  0  0  0  0  0  0  0  0  0
   -8.1940   20.6100  -31.5090 C   0  0  0  0  0  0  0  0  0  0  0  0
   -8.7610   21.4750  -30.6540 N   0  0  0  0  0  0  0  0  0  0  0  0
   -8.1470   22.6610  -30.8580 C   0  0  0  0  0  0  0  0  0  0  0  0
   -7.1720   22.5430  -31.8450 C   0  0  0  0  0  0  0  0  0  0  0  0
   -6.2730   23.6410  -32.3640 C   0  0  0  0  0  0  0  0  0  0  0  0
   -5.0930   23.8950  -31.5060 N   0  0  0  0  0  0  0  0  0  0  0  0
   -5.3950   24.7210  -30.3070 C   0  0  0  0  0  0  0  0  0  0  0  0
   -4.5930   24.3170  -29.0570 C   0  0  0  0  0  0  0  0  0  0  0  0
   -3.2240   23.9520  -29.4240 N   0  0  0  0  0  0  0  0  0  0  0  0
   -2.1260   24.4250  -28.6360 C   0  0  0  0  0  0  0  0  0  0  0  0
   -1.5900   25.6590  -28.8460 N   0  0  0  0  0  0  0  0  0  0  0  0
   -0.3540   25.8070  -27.7360 S   0  0  0  0  0  0  0  0  0  0  0  0
   -0.4860   24.3310  -26.9840 C   0  0  0  0  0  0  0  0  0  0  0  0
    0.2410   23.7870  -25.9310 C   0  0  0  0  0  0  0  0  0  0  0  0
   -0.1190   22.5060  -25.4820 C   0  0  0  0  0  0  0  0  0  0  0  0
   -1.1910   21.8170  -26.0850 C   0  0  0  0  0  0  0  0  0  0  0  0
   -1.9100   22.3980  -27.1460 C   0  0  0  0  0  0  0  0  0  0  0  0
   -1.5340   23.6680  -27.5980 C   0  0  0  0  0  0  0  0  0  0  0  0
   -2.9720   23.0800  -30.5740 C   0  0  0  0  0  0  0  0  0  0  0  0
   -4.2860   22.6880  -31.2510 C   0  0  0  0  0  0  0  0  0  0  0  0
   -7.2220   21.2230  -32.2580 C   0  0  0  0  0  0  0  0  0  0  0  0
   -6.5200   20.5350  -33.2490 C   0  0  0  0  0  0  0  0  0  0  0  0
   -6.5010   18.3980  -35.3850 H   0  0  0  0  0  0  0  0  0  0  0  0
   -8.0452   17.4799  -32.8302 H   0  0  0  0  0  0  0  0  0  0  0  0
   -9.2948   18.7834  -31.0751 H   0  0  0  0  0  0  0  0  0  0  0  0
   -9.5350   21.2790  -29.9800 H   0  0  0  0  0  0  0  0  0  0  0  0
   -8.3843   23.5903  -30.3194 H   0  0  0  0  0  0  0  0  0  0  0  0
   -5.9198   23.3569  -33.3662 H   0  0  0  0  0  0  0  0  0  0  0  0
   -6.8678   24.5662  -32.3773 H   0  0  0  0  0  0  0  0  0  0  0  0
   -5.1655   25.7708  -30.5421 H   0  0  0  0  0  0  0  0  0  0  0  0
   -6.4579   24.5656  -30.0701 H   0  0  0  0  0  0  0  0  0  0  0  0
   -4.5664   25.1631  -28.3545 H   0  0  0  0  0  0  0  0  0  0  0  0
   -5.0792   23.4496  -28.5865 H   0  0  0  0  0  0  0  0  0  0  0  0
    1.0696   24.3410  -25.4657 H   0  0  0  0  0  0  0  0  0  0  0  0
    0.4377   22.0383  -24.6565 H   0  0  0  0  0  0  0  0  0  0  0  0
   -1.4680   20.8160  -25.7228 H   0  0  0  0  0  0  0  0  0  0  0  0
   -2.7517   21.8640  -27.6113 H   0  0  0  0  0  0  0  0  0  0  0  0
   -2.3368   23.6113  -31.2981 H   0  0  0  0  0  0  0  0  0  0  0  0
   -2.4681   22.1674  -30.2231 H   0  0  0  0  0  0  0  0  0  0  0  0
   -4.0699   22.1844  -32.2048 H   0  0  0  0  0  0  0  0  0  0  0  0
   -4.8462   22.0077  -30.5927 H   0  0  0  0  0  0  0  0  0  0  0  0
   -5.7517   21.0405  -33.8524 H   0  0  0  0  0  0  0  0  0  0  0  0
  1  2  1  0
  2  3  2  0
  3  4  1  0
  4  5  2  0
  5  6  1  0
  6  7  1  0
  7  8  2  0
  8  9  1  0
  9 10  1  0
 10 11  1  0
 11 12  1  0
 12 13  1  0
 13 14  1  0
 14 15  2  0
 15 16  1  0
 16 17  1  0
 17 18  2  0
 18 19  1  0
 19 20  2  0
 20 21  1  0
 21 22  2  0
 13 23  1  0
 23 24  1  0
  8 25  1  0
 25 26  2  0
 26  2  1  0
 25  5  1  0
 24 10  1  0
 22 14  1  0
 22 17  1  0
  1 27  1  0
  3 28  1  0
  4 29  1  0
  6 30  1  0
  7 31  1  0
  9 32  1  0
  9 33  1  0
 11 34  1  0
 11 35  1  0
 12 36  1  0
 12 37  1  0
 18 38  1  0
 19 39  1  0
 20 40  1  0
 21 41  1  0
 23 42  1  0
 23 43  1  0
 24 44  1  0
 24 45  1  0
 26 46  1  0
M  END
>  <UniqueID>  (6) 
6

>  <SMILES>  (6) 
Oc1ccc2[nH]cc(CN3CCN(c4nsc5ccccc45)CC3)c2c1

>  <Energy>  (6) 
135.30470644007912

>  <Genealogy>  (6) 
Oc1ccc2[nH]cc(CN3CCN(c4nsc5ccccc45)CC3)c2c1 (3D coordinates assigned)
Oc1ccc2[nH]cc(CN3CCN(c4nsc5ccccc45)CC3)c2c1 (nonaromatic ring conformer: 135.30470644007912 kcal/mol)

>  <smiles>  (6) 
Oc1ccc2[nH]cc(CN3CCN(c4nsc5ccccc45)CC3)c2c1

>  <score_type>  (6) 
oracle

>  <origin>  (6) 
adgpu

>  <m_score__min__energy>  (6) 
-9.1500000000000004

>  <m_primary>  (6) 
energy

$$$$
6:0
     RDKit          3D

 45 47  0  0  0  0  0  0  0  0999 V2000
   -8.2560   20.3740  -32.5060 C   0  0  0  0  0  0  0  0  0  0  0  0
   -7.4260   21.4830  -31.9090 C   0  0  0  0  0  0  0  0  0  0  0  0
   -8.0880   22.6260  -31.4280 C   0  0  0  0  0  0  0  0  0  0  0  0
   -7.3720   23.6830  -30.8720 C   0  0  0  0  0  0  0  0  0  0  0  0
   -5.9810   23.6220  -30.7940 C   0  0  0  0  0  0  0  0  0  0  0  0
   -5.0820   24.9450  -30.0540 S   0  0  0  0  0  0  0  0  0  0  0  0
   -5.9700   26.1550  -29.9670 O   0  0  0  0  0  0  0  0  0  0  0  0
   -3.8830   25.2990  -30.8870 O   0  0  0  0  0  0  0  0  0  0  0  0
   -4.5900   24.4850  -28.4570 N   0  0  0  0  0  0  0  0  0  0  0  0
   -3.3660   23.7730  -28.2410 C   0  0  0  0  0  0  0  0  0  0  0  0
   -3.4000   22.4670  -27.7240 C   0  0  0  0  0  0  0  0  0  0  0  0
   -4.5870   21.8760  -27.4340 F   0  0  0  0  0  0  0  0  0  0  0  0
   -2.2130   21.7560  -27.5300 C   0  0  0  0  0  0  0  0  0  0  0  0
   -0.9840   22.3460  -27.8370 C   0  0  0  0  0  0  0  0  0  0  0  0
   -0.9400   23.6520  -28.3300 C   0  0  0  0  0  0  0  0  0  0  0  0
   -2.1250   24.3670  -28.5310 C   0  0  0  0  0  0  0  0  0  0  0  0
   -2.0570   25.6490  -28.9670 F   0  0  0  0  0  0  0  0  0  0  0  0
   -5.3070   22.4910  -31.2680 C   0  0  0  0  0  0  0  0  0  0  0  0
   -6.0080   21.4170  -31.8460 C   0  0  0  0  0  0  0  0  0  0  0  0
   -5.1340   19.9830  -32.4570 S   0  0  0  0  0  0  0  0  0  0  0  0
   -5.5370   19.7570  -33.8880 O   0  0  0  0  0  0  0  0  0  0  0  0
   -5.5640   18.7930  -31.6450 O   0  0  0  0  0  0  0  0  0  0  0  0
   -3.3870   20.0600  -32.4250 N   0  0  0  0  0  0  0  0  0  0  0  0
   -2.8650   21.3670  -32.8230 C   0  0  0  0  0  0  0  0  0  0  0  0
   -1.5250   21.1150  -33.4860 C   0  0  0  0  0  0  0  0  0  0  0  0
   -1.6130   19.7030  -34.0290 C   0  0  0  0  0  0  0  0  0  0  0  0
   -2.7360   19.0310  -33.2440 C   0  0  0  0  0  0  0  0  0  0  0  0
   -8.7037   19.7758  -31.6987 H   0  0  0  0  0  0  0  0  0  0  0  0
   -9.0538   20.8069  -33.1273 H   0  0  0  0  0  0  0  0  0  0  0  0
   -7.6157   19.7306  -33.1273 H   0  0  0  0  0  0  0  0  0  0  0  0
   -9.1845   22.6861  -31.4916 H   0  0  0  0  0  0  0  0  0  0  0  0
   -7.9047   24.5679  -30.4936 H   0  0  0  0  0  0  0  0  0  0  0  0
   -5.3400   24.4190  -27.7340 H   0  0  0  0  0  0  0  0  0  0  0  0
   -2.2460   20.7299  -27.1349 H   0  0  0  0  0  0  0  0  0  0  0  0
   -0.0512   21.7818  -27.6904 H   0  0  0  0  0  0  0  0  0  0  0  0
    0.0288   24.1192  -28.5607 H   0  0  0  0  0  0  0  0  0  0  0  0
   -4.2111   22.4409  -31.1873 H   0  0  0  0  0  0  0  0  0  0  0  0
   -3.5537   21.8511  -33.5311 H   0  0  0  0  0  0  0  0  0  0  0  0
   -2.7585   22.0329  -31.9539 H   0  0  0  0  0  0  0  0  0  0  0  0
   -1.3568   21.8329  -34.3023 H   0  0  0  0  0  0  0  0  0  0  0  0
   -0.6879   21.2348  -32.7825 H   0  0  0  0  0  0  0  0  0  0  0  0
   -1.8511   19.7186  -35.1028 H   0  0  0  0  0  0  0  0  0  0  0  0
   -0.6603   19.1643  -33.9188 H   0  0  0  0  0  0  0  0  0  0  0  0
   -3.4653   18.5883  -33.9384 H   0  0  0  0  0  0  0  0  0  0  0  0
   -2.3339   18.2295  -32.6069 H   0  0  0  0  0  0  0  0  0  0  0  0
  1  2  1  0
  2  3  2  0
  3  4  1  0
  4  5  2  0
  5  6  1  0
  6  7  2  0
  6  8  2  0
  6  9  1  0
  9 10  1  0
 10 11  2  0
 11 12  1  0
 11 13  1  0
 13 14  2  0
 14 15  1  0
 15 16  2  0
 16 17  1  0
  5 18  1  0
 18 19  2  0
 19 20  1  0
 20 21  2  0
 20 22  2  0
 20 23  1  0
 23 24  1  0
 24 25  1  0
 25 26  1  0
 26 27  1  0
 19  2  1  0
 27 23  1  0
 16 10  1  0
  1 28  1  0
  1 29  1  0
  1 30  1  0
  3 31  1  0
  4 32  1  0
  9 33  1  0
 13 34  1  0
 14 35  1  0
 15 36  1  0
 18 37  1  0
 24 38  1  0
 24 39  1  0
 25 40  1  0
 25 41  1  0
 26 42  1  0
 26 43  1  0
 27 44  1  0
 27 45  1  0
M  END
>  <UniqueID>  (7) 
7

>  <SMILES>  (7) 
Cc1ccc(S(=O)(=O)Nc2c(F)cccc2F)cc1S(=O)(=O)N1CCCC1

>  <Energy>  (7) 
56.118496804933166

>  <Genealogy>  (7) 
Cc1ccc(S(=O)(=O)Nc2c(F)cccc2F)cc1S(=O)(=O)N1CCCC1 (3D coordinates assigned)
Cc1ccc(S(=O)(=O)Nc2c(F)cccc2F)cc1S(=O)(=O)N1CCCC1 (nonaromatic ring conformer: 56.118496804933166 kcal/mol)

>  <smiles>  (7) 
Cc1ccc(S(=O)(=O)Nc2c(F)cccc2F)cc1S(=O)(=O)N1CCCC1

>  <score_type>  (7) 
oracle

>  <origin>  (7) 
adgpu

>  <m_score__min__energy>  (7) 
-10.09

>  <m_primary>  (7) 
energy

$$$$
7:0
     RDKit          3D

 75 79  0  0  0  0  0  0  0  0999 V2000
   -2.0590   19.7980  -27.1600 C   0  0  0  0  0  0  0  0  0  0  0  0
   -1.9590   20.6860  -28.3270 N   0  0  0  0  0  0  0  0  0  0  0  0
   -1.5310   20.1720  -29.5180 C   0  0  0  0  0  0  0  0  0  0  0  0
   -1.4730   20.9670  -30.6750 C   0  0  0  0  0  0  0  0  0  0  0  0
   -0.8850   20.4320  -31.9320 C   0  0  0  0  0  0  0  0  0  0  0  0
    0.4880   20.1350  -31.9770 C   0  0  0  0  0  0  0  0  0  0  0  0
    1.0590   19.5610  -33.1210 C   0  0  0  0  0  0  0  0  0  0  0  0
    2.7730   19.1590  -33.1680 S   0  0  0  0  0  0  0  0  0  0  0  0
    3.3910   18.9550  -31.5080 C   0  0  0  0  0  0  0  0  0  0  0  0
    3.5210   20.2670  -33.8530 O   0  0  0  0  0  0  0  0  0  0  0  0
    2.9870   17.8820  -33.9350 O   0  0  0  0  0  0  0  0  0  0  0  0
    0.2510   19.2740  -34.2220 C   0  0  0  0  0  0  0  0  0  0  0  0
   -1.1130   19.5660  -34.1940 C   0  0  0  0  0  0  0  0  0  0  0  0
   -1.6950   20.1580  -33.0550 C   0  0  0  0  0  0  0  0  0  0  0  0
   -3.0570   20.5010  -33.0110 O   0  0  0  0  0  0  0  0  0  0  0  0
   -4.0370   19.9210  -32.1470 C   0  0  0  0  0  0  0  0  0  0  0  0
   -4.8030   18.8250  -32.8430 C   0  0  0  0  0  0  0  0  0  0  0  0
   -5.3510   17.7590  -32.1100 C   0  0  0  0  0  0  0  0  0  0  0  0
   -6.0660   16.7510  -32.7670 C   0  0  0  0  0  0  0  0  0  0  0  0
   -6.2330   16.7960  -34.1550 C   0  0  0  0  0  0  0  0  0  0  0  0
   -5.6680   17.8400  -34.8930 C   0  0  0  0  0  0  0  0  0  0  0  0
   -4.9520   18.8510  -34.2400 C   0  0  0  0  0  0  0  0  0  0  0  0
   -1.9000   22.2950  -30.5950 C   0  0  0  0  0  0  0  0  0  0  0  0
   -2.3500   22.8130  -29.3790 C   0  0  0  0  0  0  0  0  0  0  0  0
   -2.8580   24.5340  -29.2960 S   0  0  0  0  0  0  0  0  0  0  0  0
   -4.4250   24.2280  -30.1130 C   0  0  0  0  0  0  0  0  0  0  0  0
   -5.6100   24.7710  -29.6020 C   0  0  0  0  0  0  0  0  0  0  0  0
   -6.8350   24.4870  -30.2180 C   0  0  0  0  0  0  0  0  0  0  0  0
   -6.8820   23.6530  -31.3480 C   0  0  0  0  0  0  0  0  0  0  0  0
   -8.2080   23.2830  -31.9770 C   0  0  0  0  0  0  0  0  0  0  0  0
   -8.9040   22.1880  -31.2480 N   0  0  0  0  0  0  0  0  0  0  0  0
   -9.8680   21.4730  -32.1420 C   0  0  0  0  0  0  0  0  0  0  0  0
   -9.4760   20.0170  -32.4560 C   0  0  0  0  0  0  0  0  0  0  0  0
   -7.9770   19.9120  -32.7340 C   0  0  0  0  0  0  0  0  0  0  0  0
   -7.1420   20.4100  -31.5430 C   0  0  0  0  0  0  0  0  0  0  0  0
   -7.9650   21.2630  -30.5590 C   0  0  0  0  0  0  0  0  0  0  0  0
   -5.6850   23.1230  -31.8610 C   0  0  0  0  0  0  0  0  0  0  0  0
   -4.4670   23.4090  -31.2460 C   0  0  0  0  0  0  0  0  0  0  0  0
   -2.3660   21.9920  -28.2410 C   0  0  0  0  0  0  0  0  0  0  0  0
   -2.7620   22.4630  -27.1400 O   0  0  0  0  0  0  0  0  0  0  0  0
   -1.9918   20.3947  -26.2384 H   0  0  0  0  0  0  0  0  0  0  0  0
   -3.0225   19.2679  -27.1841 H   0  0  0  0  0  0  0  0  0  0  0  0
   -1.2375   19.0669  -27.1841 H   0  0  0  0  0  0  0  0  0  0  0  0
   -1.2262   19.1165  -29.5723 H   0  0  0  0  0  0  0  0  0  0  0  0
    1.1212   20.3554  -31.1050 H   0  0  0  0  0  0  0  0  0  0  0  0
    2.6012   19.2157  -30.7881 H   0  0  0  0  0  0  0  0  0  0  0  0
    3.6950   17.9088  -31.3559 H   0  0  0  0  0  0  0  0  0  0  0  0
    4.2581   19.6146  -31.3559 H   0  0  0  0  0  0  0  0  0  0  0  0
    0.6927   18.8142  -35.1184 H   0  0  0  0  0  0  0  0  0  0  0  0
   -1.7391   19.3324  -35.0677 H   0  0  0  0  0  0  0  0  0  0  0  0
   -3.5324   19.5005  -31.2646 H   0  0  0  0  0  0  0  0  0  0  0  0
   -4.7477   20.7071  -31.8521 H   0  0  0  0  0  0  0  0  0  0  0  0
   -5.2180   17.7166  -31.0189 H   0  0  0  0  0  0  0  0  0  0  0  0
   -6.4982   15.9204  -32.1897 H   0  0  0  0  0  0  0  0  0  0  0  0
   -6.8088   16.0100  -34.6656 H   0  0  0  0  0  0  0  0  0  0  0  0
   -5.7857   17.8675  -35.9863 H   0  0  0  0  0  0  0  0  0  0  0  0
   -4.5042   19.6691  -34.8233 H   0  0  0  0  0  0  0  0  0  0  0  0
   -1.8816   22.9330  -31.4909 H   0  0  0  0  0  0  0  0  0  0  0  0
   -5.5787   25.4215  -28.7155 H   0  0  0  0  0  0  0  0  0  0  0  0
   -7.7637   24.9182  -29.8160 H   0  0  0  0  0  0  0  0  0  0  0  0
   -8.8564   24.1716  -31.9796 H   0  0  0  0  0  0  0  0  0  0  0  0
   -8.0036   22.9255  -32.9970 H   0  0  0  0  0  0  0  0  0  0  0  0
   -9.4740   22.6440  -30.4960 H   0  0  0  0  0  0  0  0  0  0  0  0
  -10.8532   21.4673  -31.6528 H   0  0  0  0  0  0  0  0  0  0  0  0
   -9.8714   22.0134  -33.1001 H   0  0  0  0  0  0  0  0  0  0  0  0
   -9.7296   19.3806  -31.5953 H   0  0  0  0  0  0  0  0  0  0  0  0
  -10.0265   19.6861  -33.3490 H   0  0  0  0  0  0  0  0  0  0  0  0
   -7.7239   18.8600  -32.9318 H   0  0  0  0  0  0  0  0  0  0  0  0
   -7.7443   20.5435  -33.6041 H   0  0  0  0  0  0  0  0  0  0  0  0
   -6.7415   19.5385  -31.0044 H   0  0  0  0  0  0  0  0  0  0  0  0
   -6.3371   21.0447  -31.9422 H   0  0  0  0  0  0  0  0  0  0  0  0
   -8.5458   20.5904  -29.9107 H   0  0  0  0  0  0  0  0  0  0  0  0
   -7.2590   21.8765  -29.9800 H   0  0  0  0  0  0  0  0  0  0  0  0
   -5.7097   22.4791  -32.7525 H   0  0  0  0  0  0  0  0  0  0  0  0
   -3.5355   22.9890  -31.6533 H   0  0  0  0  0  0  0  0  0  0  0  0
  1  2  1  0
  2  3  1  0
  3  4  2  0
  4  5  1  0
  5  6  2  0
  6  7  1  0
  7  8  1  0
  8  9  1  0
  8 10  2  0
  8 11  2  0
  7 12  2  0
 12 13  1  0
 13 14  2  0
 14 15  1  0
 15 16  1  0
 16 17  1  0
 17 18  2  0
 18 19  1  0
 19 20  2  0
 20 21  1  0
 21 22  2  0
  4 23  1  0
 23 24  2  0
 24 25  1  0
 25 26  1  0
 26 27  2  0
 27 28  1  0
 28 29  2  0
 29 30  1  0
 30 31  1  0
 31 32  1  0
 32 33  1  0
 33 34  1  0
 34 35  1  0
 35 36  1  0
 29 37  1  0
 37 38  2  0
 24 39  1  0
 39 40  2  0
 39  2  1  0
 14  5  1  0
 22 17  1  0
 38 26  1  0
 36 31  1  0
  1 41  1  0
  1 42  1  0
  1 43  1  0
  3 44  1  0
  6 45  1  0
  9 46  1  0
  9 47  1  0
  9 48  1  0
 12 49  1  0
 13 50  1  0
 16 51  1  0
 16 52  1  0
 18 53  1  0
 19 54  1  0
 20 55  1  0
 21 56  1  0
 22 57  1  0
 23 58  1  0
 27 59  1  0
 28 60  1  0
 30 61  1  0
 30 62  1  0
 31 63  1  0
 32 64  1  0
 32 65  1  0
 33 66  1  0
 33 67  1  0
 34 68  1  0
 34 69  1  0
 35 70  1  0
 35 71  1  0
 36 72  1  0
 36 73  1  0
 37 74  1  0
 38 75  1  0
M  CHG  1  31   1
M  END
>  <UniqueID>  (8) 
8

>  <SMILES>  (8) 
Cn1cc(-c2cc(S(C)(=O)=O)ccc2OCc2ccccc2)cc(Sc2ccc(C[NH+]3CCCCC3)cc2)c1=O

>  <Energy>  (8) 
91.78134586722592

>  <Genealogy>  (8) 
Cn1cc(-c2cc(S(C)(=O)=O)ccc2OCc2ccccc2)cc(Sc2ccc(C[NH+]3CCCCC3)cc2)c1=O (protonated)
Cn1cc(-c2cc(S(C)(=O)=O)ccc2OCc2ccccc2)cc(Sc2ccc(C[NH+]3CCCCC3)cc2)c1=O (3D coordinates assigned)
Cn1cc(-c2cc(S(C)(=O)=O)ccc2OCc2ccccc2)cc(Sc2ccc(C[NH+]3CCCCC3)cc2)c1=O (nonaromatic ring conformer: 91.78134586722592 kcal/mol)

>  <smiles>  (8) 
Cn1cc(-c2cc(S(C)(=O)=O)ccc2OCc2ccccc2)cc(Sc2ccc(CN3CCCCC3)cc2)c1=O

>  <score_type>  (8) 
oracle

>  <origin>  (8) 
adgpu

>  <m_score__min__energy>  (8) 
-11.07

>  <m_primary>  (8) 
energy

$$$$
8:0
     RDKit          3D

 43 45  0  0  0  0  0  0  0  0999 V2000
   -7.6470   17.4470  -32.3510 C   0  0  0  0  0  0  0  0  0  0  0  0
   -8.7550   18.2540  -31.6870 C   0  0  0  0  0  0  0  0  0  0  0  0
   -9.2330   19.6880  -32.7140 S   0  0  0  0  0  0  0  0  0  0  0  0
   -7.6670   20.5490  -32.5380 C   0  0  0  0  0  0  0  0  0  0  0  0
   -6.5110   20.0340  -33.1350 C   0  0  0  0  0  0  0  0  0  0  0  0
   -5.2940   20.7100  -33.0080 C   0  0  0  0  0  0  0  0  0  0  0  0
   -5.2230   21.9100  -32.2820 C   0  0  0  0  0  0  0  0  0  0  0  0
   -3.9220   22.6600  -32.1750 C   0  0  0  0  0  0  0  0  0  0  0  0
   -3.3900   22.5890  -30.7650 C   0  0  0  0  0  0  0  0  0  0  0  0
   -3.1100   21.3410  -30.1940 C   0  0  0  0  0  0  0  0  0  0  0  0
   -2.6750   21.2530  -28.8650 C   0  0  0  0  0  0  0  0  0  0  0  0
   -2.4000   20.0290  -28.2380 O   0  0  0  0  0  0  0  0  0  0  0  0
   -2.6290   19.7610  -26.8590 C   0  0  0  0  0  0  0  0  0  0  0  0
   -2.5140   22.4290  -28.1310 C   0  0  0  0  0  0  0  0  0  0  0  0
   -2.7550   23.6520  -28.6930 N   0  0  0  0  0  0  0  0  0  0  0  0
   -2.6180   24.8570  -27.8600 C   0  0  0  0  0  0  0  0  0  0  0  0
   -2.0310   24.5990  -26.4770 C   0  0  0  0  0  0  0  0  0  0  0  0
   -3.5140   24.8840  -26.6260 C   0  0  0  0  0  0  0  0  0  0  0  0
   -3.2270   23.7470  -29.9790 C   0  0  0  0  0  0  0  0  0  0  0  0
   -3.5250   24.8750  -30.4620 O   0  0  0  0  0  0  0  0  0  0  0  0
   -6.3900   22.4320  -31.7020 C   0  0  0  0  0  0  0  0  0  0  0  0
   -7.6060   21.7540  -31.8300 C   0  0  0  0  0  0  0  0  0  0  0  0
   -7.0148   16.9865  -31.5775 H   0  0  0  0  0  0  0  0  0  0  0  0
   -8.0918   16.6598  -32.9775 H   0  0  0  0  0  0  0  0  0  0  0  0
   -7.0342   18.1118  -32.9775 H   0  0  0  0  0  0  0  0  0  0  0  0
   -9.6330   17.6073  -31.5427 H   0  0  0  0  0  0  0  0  0  0  0  0
   -8.3844   18.6255  -30.7203 H   0  0  0  0  0  0  0  0  0  0  0  0
   -6.5600   19.0949  -33.7057 H   0  0  0  0  0  0  0  0  0  0  0  0
   -4.3882   20.3002  -33.4787 H   0  0  0  0  0  0  0  0  0  0  0  0
   -3.1884   22.2135  -32.8624 H   0  0  0  0  0  0  0  0  0  0  0  0
   -4.0942   23.7138  -32.4394 H   0  0  0  0  0  0  0  0  0  0  0  0
   -3.2322   20.4257  -30.7917 H   0  0  0  0  0  0  0  0  0  0  0  0
   -2.0353   20.4559  -26.2469 H   0  0  0  0  0  0  0  0  0  0  0  0
   -3.6972   19.8935  -26.6322 H   0  0  0  0  0  0  0  0  0  0  0  0
   -2.3315   18.7266  -26.6322 H   0  0  0  0  0  0  0  0  0  0  0  0
   -2.1876   22.3710  -27.0822 H   0  0  0  0  0  0  0  0  0  0  0  0
   -2.4061   25.5531  -28.6849 H   0  0  0  0  0  0  0  0  0  0  0  0
   -1.6902   23.5893  -26.2043 H   0  0  0  0  0  0  0  0  0  0  0  0
   -1.2116   25.0357  -25.8872 H   0  0  0  0  0  0  0  0  0  0  0  0
   -4.2473   24.0807  -26.4615 H   0  0  0  0  0  0  0  0  0  0  0  0
   -4.2130   25.6123  -26.1891 H   0  0  0  0  0  0  0  0  0  0  0  0
   -6.3475   23.3791  -31.1441 H   0  0  0  0  0  0  0  0  0  0  0  0
   -8.5165   22.1689  -31.3731 H   0  0  0  0  0  0  0  0  0  0  0  0
  1  2  1  0
  2  3  1  0
  3  4  1  0
  4  5  2  0
  5  6  1  0
  6  7  2  0
  7  8  1  0
  8  9  1  0
  9 10  2  0
 10 11  1  0
 11 12  1  0
 12 13  1  0
 11 14  2  0
 14 15  1  0
 15 16  1  0
 16 17  1  0
 17 18  1  0
 15 19  1  0
 19 20  2  0
  7 21  1  0
 21 22  2  0
 22  4  1  0
 19  9  1  0
 18 16  1  0
  1 23  1  0
  1 24  1  0
  1 25  1  0
  2 26  1  0
  2 27  1  0
  5 28  1  0
  6 29  1  0
  8 30  1  0
  8 31  1  0
 10 32  1  0
 13 33  1  0
 13 34  1  0
 13 35  1  0
 14 36  1  0
 16 37  1  0
 17 38  1  0
 17 39  1  0
 18 40  1  0
 18 41  1  0
 21 42  1  0
 22 43  1  0
M  END
>  <UniqueID>  (9) 
9

>  <SMILES>  (9) 
CCSc1ccc(Cc2cc(OC)cn(C3CC3)c2=O)cc1

>  <Energy>  (9) 
303.7122789231583

>  <Genealogy>  (9) 
CCSc1ccc(Cc2cc(OC)cn(C3CC3)c2=O)cc1 (3D coordinates assigned)
CCSc1ccc(Cc2cc(OC)cn(C3CC3)c2=O)cc1 (nonaromatic ring conformer: 303.7122789231583 kcal/mol)

>  <smiles>  (9) 
CCSc1ccc(Cc2cc(OC)cn(C3CC3)c2=O)cc1

>  <score_type>  (9) 
oracle

>  <origin>  (9) 
adgpu

>  <m_score__min__energy>  (9) 
-7.4400000000000004

>  <m_primary>  (9) 
energy

$$$$
9:0
     RDKit          3D

 54 57  0  0  0  0  0  0  0  0999 V2000
   -0.2230   19.6620  -34.9470 C   0  0  0  0  0  0  0  0  0  0  0  0
   -0.2120   18.3200  -34.3730 N   0  0  0  0  0  0  0  0  0  0  0  0
   -1.4170   18.2040  -33.1280 S   0  0  0  0  0  0  0  0  0  0  0  0
   -1.3860   16.8220  -32.5410 O   0  0  0  0  0  0  0  0  0  0  0  0
   -2.7810   18.4400  -33.7160 O   0  0  0  0  0  0  0  0  0  0  0  0
   -1.0960   19.3780  -31.8530 C   0  0  0  0  0  0  0  0  0  0  0  0
   -0.1550   19.0850  -30.8580 C   0  0  0  0  0  0  0  0  0  0  0  0
    0.1230   20.0190  -29.8580 C   0  0  0  0  0  0  0  0  0  0  0  0
   -0.5380   21.2500  -29.8440 C   0  0  0  0  0  0  0  0  0  0  0  0
   -1.4940   21.5540  -30.8310 C   0  0  0  0  0  0  0  0  0  0  0  0
   -2.1660   22.8250  -30.8580 N   0  0  0  0  0  0  0  0  0  0  0  0
   -3.5850   22.9830  -31.0210 C   0  0  0  0  0  0  0  0  0  0  0  0
   -4.3560   21.8740  -31.3990 C   0  0  0  0  0  0  0  0  0  0  0  0
   -5.7490   21.9870  -31.5620 C   0  0  0  0  0  0  0  0  0  0  0  0
   -6.5590   20.8140  -31.9810 C   0  0  0  0  0  0  0  0  0  0  0  0
   -7.9620   20.8720  -31.9690 C   0  0  0  0  0  0  0  0  0  0  0  0
   -8.7030   19.7550  -32.3510 C   0  0  0  0  0  0  0  0  0  0  0  0
   -8.0710   18.6180  -32.7420 N   0  0  0  0  0  0  0  0  0  0  0  0
   -6.7130   18.5230  -32.7850 C   0  0  0  0  0  0  0  0  0  0  0  0
   -6.0990   17.2850  -33.1890 N   0  0  0  0  0  0  0  0  0  0  0  0
   -6.0380   16.8820  -34.5990 C   0  0  0  0  0  0  0  0  0  0  0  0
   -4.6530   16.2950  -34.9390 C   0  0  0  0  0  0  0  0  0  0  0  0
   -3.9630   15.6770  -33.7890 N   0  0  0  0  0  0  0  0  0  0  0  0
   -4.8990   15.1630  -32.7800 C   0  0  0  0  0  0  0  0  0  0  0  0
   -5.7030   16.3150  -32.1610 C   0  0  0  0  0  0  0  0  0  0  0  0
   -5.9350   19.6230  -32.3870 C   0  0  0  0  0  0  0  0  0  0  0  0
   -6.3640   23.2290  -31.3220 C   0  0  0  0  0  0  0  0  0  0  0  0
   -5.6040   24.3280  -30.9160 C   0  0  0  0  0  0  0  0  0  0  0  0
   -4.2220   24.2090  -30.7520 C   0  0  0  0  0  0  0  0  0  0  0  0
   -3.4940   25.3040  -30.3020 O   0  0  0  0  0  0  0  0  0  0  0  0
   -1.7540   20.6170  -31.8430 C   0  0  0  0  0  0  0  0  0  0  0  0
   -0.2291   20.4069  -34.1376 H   0  0  0  0  0  0  0  0  0  0  0  0
    0.6740   19.8026  -35.5680 H   0  0  0  0  0  0  0  0  0  0  0  0
   -1.1222   19.7878  -35.5680 H   0  0  0  0  0  0  0  0  0  0  0  0
    0.3665   18.1165  -30.8643 H   0  0  0  0  0  0  0  0  0  0  0  0
    0.8641   19.7852  -29.0794 H   0  0  0  0  0  0  0  0  0  0  0  0
   -0.3101   21.9849  -29.0579 H   0  0  0  0  0  0  0  0  0  0  0  0
   -1.6010   23.6860  -30.6750 H   0  0  0  0  0  0  0  0  0  0  0  0
   -3.8658   20.9043  -31.5701 H   0  0  0  0  0  0  0  0  0  0  0  0
   -8.4740   21.7950  -31.6594 H   0  0  0  0  0  0  0  0  0  0  0  0
   -9.8022   19.7943  -32.3358 H   0  0  0  0  0  0  0  0  0  0  0  0
   -6.8094   16.1216  -34.7909 H   0  0  0  0  0  0  0  0  0  0  0  0
   -6.2105   17.7680  -35.2277 H   0  0  0  0  0  0  0  0  0  0  0  0
   -4.7840   15.5280  -35.7166 H   0  0  0  0  0  0  0  0  0  0  0  0
   -4.0252   17.1343  -35.2728 H   0  0  0  0  0  0  0  0  0  0  0  0
   -3.3490   16.3950  -33.3360 H   0  0  0  0  0  0  0  0  0  0  0  0
   -5.5910   14.4526  -33.2559 H   0  0  0  0  0  0  0  0  0  0  0  0
   -4.3275   14.6594  -31.9864 H   0  0  0  0  0  0  0  0  0  0  0  0
   -6.6058   15.9082  -31.6820 H   0  0  0  0  0  0  0  0  0  0  0  0
   -5.0728   16.8258  -31.4181 H   0  0  0  0  0  0  0  0  0  0  0  0
   -4.8373   19.5515  -32.3933 H   0  0  0  0  0  0  0  0  0  0  0  0
   -7.4507   23.3354  -31.4550 H   0  0  0  0  0  0  0  0  0  0  0  0
   -6.0965   25.2927  -30.7243 H   0  0  0  0  0  0  0  0  0  0  0  0
   -2.4794   20.8560  -32.6346 H   0  0  0  0  0  0  0  0  0  0  0  0
  1  2  1  0
  2  3  1  0
  3  4  2  0
  3  5  2  0
  3  6  1  0
  6  7  2  0
  7  8  1  0
  8  9  2  0
  9 10  1  0
 10 11  1  0
 11 12  1  0
 12 13  2  0
 13 14  1  0
 14 15  1  0
 15 16  2  0
 16 17  1  0
 17 18  2  0
 18 19  1  0
 19 20  1  0
 20 21  1  0
 21 22  1  0
 22 23  1  0
 23 24  1  0
 24 25  1  0
 19 26  2  0
 14 27  2  0
 27 28  1  0
 28 29  2  0
 29 30  1  0
 10 31  2  0
 31  6  1  0
 29 12  1  0
 26 15  1  0
 25 20  1  0
  1 32  1  0
  1 33  1  0
  1 34  1  0
  7 35  1  0
  8 36  1  0
  9 37  1  0
 11 38  1  0
 13 39  1  0
 16 40  1  0
 17 41  1  0
 21 42  1  0
 21 43  1  0
 22 44  1  0
 22 45  1  0
 23 46  1  0
 24 47  1  0
 24 48  1  0
 25 49  1  0
 25 50  1  0
 26 51  1  0
 27 52  1  0
 28 53  1  0
 31 54  1  0
M  CHG  2   2  -1  30  -1
M  END
>  <UniqueID>  (10) 
10

>  <SMILES>  (10) 
C[N-]S(=O)(=O)c1cccc(Nc2cc(-c3ccnc(N4CCNCC4)c3)ccc2[O-])c1

>  <Energy>  (10) 
75.3508426729558

>  <Genealogy>  (10) 
C[N-]S(=O)(=O)c1cccc(Nc2cc(-c3ccnc(N4CCNCC4)c3)ccc2[O-])c1 (protonated)
C[N-]S(=O)(=O)c1cccc(Nc2cc(-c3ccnc(N4CCNCC4)c3)ccc2[O-])c1 (3D coordinates assigned)
C[N-]S(=O)(=O)c1cccc(Nc2cc(-c3ccnc(N4CCNCC4)c3)ccc2[O-])c1 (nonaromatic ring conformer: 75.3508426729558 kcal/mol)

>  <smiles>  (10) 
CNS(=O)(=O)c1cccc(Nc2cc(-c3ccnc(N4CCNCC4)c3)ccc2O)c1

>  <score_type>  (10) 
oracle

>  <origin>  (10) 
adgpu

>  <m_score__min__energy>  (10) 
-12.869999999999999

>  <m_primary>  (10) 
energy

$$$$
10:0
     RDKit          3D

 46 49  0  0  0  0  0  0  0  0999 V2000
   -4.9060   15.8740  -34.8860 O   0  0  0  0  0  0  0  0  0  0  0  0
   -4.6890   17.0650  -34.5420 C   0  0  0  0  0  0  0  0  0  0  0  0
   -5.8300   18.0380  -34.4170 C   0  0  0  0  0  0  0  0  0  0  0  0
   -5.4940   19.0870  -33.4470 N   0  0  0  0  0  0  0  0  0  0  0  0
   -6.5370   19.3060  -32.0650 S   0  0  0  0  0  0  0  0  0  0  0  0
   -5.8990   18.6570  -30.8660 O   0  0  0  0  0  0  0  0  0  0  0  0
   -7.8860   18.6870  -32.2970 O   0  0  0  0  0  0  0  0  0  0  0  0
   -6.7720   21.0260  -31.7760 C   0  0  0  0  0  0  0  0  0  0  0  0
   -7.9170   21.6760  -32.2490 C   0  0  0  0  0  0  0  0  0  0  0  0
   -8.0520   23.0590  -32.0910 C   0  0  0  0  0  0  0  0  0  0  0  0
   -7.0370   23.7980  -31.4740 C   0  0  0  0  0  0  0  0  0  0  0  0
   -5.8860   23.1520  -31.0020 C   0  0  0  0  0  0  0  0  0  0  0  0
   -4.5690   24.0660  -30.2690 S   0  0  0  0  0  0  0  0  0  0  0  0
   -4.5940   25.4770  -30.7840 O   0  0  0  0  0  0  0  0  0  0  0  0
   -4.7570   24.0980  -28.7800 O   0  0  0  0  0  0  0  0  0  0  0  0
   -3.0230   23.3750  -30.6380 N   0  0  0  0  0  0  0  0  0  0  0  0
   -1.9590   23.2930  -29.6870 C   0  0  0  0  0  0  0  0  0  0  0  0
   -1.1880   22.1240  -29.5880 C   0  0  0  0  0  0  0  0  0  0  0  0
   -0.1560   22.0370  -28.6480 C   0  0  0  0  0  0  0  0  0  0  0  0
    0.1370   23.1290  -27.8300 C   0  0  0  0  0  0  0  0  0  0  0  0
   -0.5980   24.3120  -27.9490 C   0  0  0  0  0  0  0  0  0  0  0  0
   -1.6450   24.4030  -28.8760 C   0  0  0  0  0  0  0  0  0  0  0  0
   -2.3630   25.5960  -28.9670 O   0  0  0  0  0  0  0  0  0  0  0  0
   -5.7690   21.7640  -31.1370 C   0  0  0  0  0  0  0  0  0  0  0  0
   -4.1680   19.6580  -33.4790 C   0  0  0  0  0  0  0  0  0  0  0  0
   -3.9260   20.9960  -33.1240 C   0  0  0  0  0  0  0  0  0  0  0  0
   -2.6200   21.4960  -33.1210 C   0  0  0  0  0  0  0  0  0  0  0  0
   -1.5530   20.6730  -33.4880 C   0  0  0  0  0  0  0  0  0  0  0  0
   -1.7890   19.3510  -33.8760 C   0  0  0  0  0  0  0  0  0  0  0  0
   -3.0950   18.8500  -33.8900 C   0  0  0  0  0  0  0  0  0  0  0  0
   -3.3470   17.5130  -34.3340 N   0  0  0  0  0  0  0  0  0  0  0  0
   -6.0252   18.4977  -35.3971 H   0  0  0  0  0  0  0  0  0  0  0  0
   -6.7252   17.5007  -34.0708 H   0  0  0  0  0  0  0  0  0  0  0  0
   -8.7113   21.0991  -32.7453 H   0  0  0  0  0  0  0  0  0  0  0  0
   -8.9583   23.5668  -32.4527 H   0  0  0  0  0  0  0  0  0  0  0  0
   -7.1422   24.8869  -31.3591 H   0  0  0  0  0  0  0  0  0  0  0  0
   -1.3964   21.2727  -30.2527 H   0  0  0  0  0  0  0  0  0  0  0  0
    0.4248   21.1076  -28.5535 H   0  0  0  0  0  0  0  0  0  0  0  0
    0.9479   23.0587  -27.0901 H   0  0  0  0  0  0  0  0  0  0  0  0
   -0.3536   25.1751  -27.3124 H   0  0  0  0  0  0  0  0  0  0  0  0
   -3.3770   25.6200  -28.9450 H   0  0  0  0  0  0  0  0  0  0  0  0
   -4.8824   21.2493  -30.7381 H   0  0  0  0  0  0  0  0  0  0  0  0
   -4.7654   21.6512  -32.8480 H   0  0  0  0  0  0  0  0  0  0  0  0
   -2.4327   22.5398  -32.8289 H   0  0  0  0  0  0  0  0  0  0  0  0
   -0.5256   21.0656  -33.4717 H   0  0  0  0  0  0  0  0  0  0  0  0
   -0.9485   18.7052  -34.1701 H   0  0  0  0  0  0  0  0  0  0  0  0
  1  2  2  0
  2  3  1  0
  3  4  1  0
  4  5  1  0
  5  6  2  0
  5  7  2  0
  5  8  1  0
  8  9  2  0
  9 10  1  0
 10 11  2  0
 11 12  1  0
 12 13  1  0
 13 14  2  0
 13 15  2  0
 13 16  1  0
 16 17  1  0
 17 18  2  0
 18 19  1  0
 19 20  2  0
 20 21  1  0
 21 22  2  0
 22 23  1  0
 12 24  2  0
  4 25  1  0
 25 26  2  0
 26 27  1  0
 27 28  2  0
 28 29  1  0
 29 30  2  0
 30 31  1  0
 31  2  1  0
 24  8  1  0
 30 25  1  0
 22 17  1  0
  3 32  1  0
  3 33  1  0
  9 34  1  0
 10 35  1  0
 11 36  1  0
 18 37  1  0
 19 38  1  0
 20 39  1  0
 21 40  1  0
 23 41  1  0
 24 42  1  0
 26 43  1  0
 27 44  1  0
 28 45  1  0
 29 46  1  0
M  CHG  2  16  -1  31  -1
M  END
>  <UniqueID>  (11) 
11

>  <SMILES>  (11) 
O=C1CN(S(=O)(=O)c2cccc(S(=O)(=O)[N-]c3ccccc3O)c2)c2ccccc2[N-]1

>  <Energy>  (11) 
61.85699908715493

>  <Genealogy>  (11) 
O=C1CN(S(=O)(=O)c2cccc(S(=O)(=O)[N-]c3ccccc3O)c2)c2ccccc2[N-]1 (protonated)
O=C1CN(S(=O)(=O)c2cccc(S(=O)(=O)[N-]c3ccccc3O)c2)c2ccccc2[N-]1 (3D coordinates assigned)
O=C1CN(S(=O)(=O)c2cccc(S(=O)(=O)[N-]c3ccccc3O)c2)c2ccccc2[N-]1 (nonaromatic ring conformer: 61.85699908715493 kcal/mol)

>  <smiles>  (11) 
O=C1CN(S(=O)(=O)c2cccc(S(=O)(=O)Nc3ccccc3O)c2)c2ccccc2N1

>  <score_type>  (11) 
oracle

>  <origin>  (11) 
adgpu

>  <m_score__min__energy>  (11) 
-11.59

>  <m_primary>  (11) 
energy

$$$$
11:0
     RDKit          3D

 26 27  0  0  0  0  0  0  0  0999 V2000
   -2.4460   26.2190  -28.9850 H   0  0  0  0  0  0  0  0  0  0  0  0
   -1.5180   26.3320  -28.5240 N   0  0  0  0  0  0  0  0  0  0  0  0
   -0.7260   25.3470  -28.2350 C   0  0  0  0  0  0  0  0  0  0  0  0
    0.4370   25.6170  -27.5800 N   0  0  0  0  0  0  0  0  0  0  0  0
    1.2900   24.6370  -27.1810 C   0  0  0  0  0  0  0  0  0  0  0  0
    2.2264   24.8986  -26.6664 H   0  0  0  0  0  0  0  0  0  0  0  0
    0.9780   23.3000  -27.4240 C   0  0  0  0  0  0  0  0  0  0  0  0
    1.6555   22.5015  -27.0872 H   0  0  0  0  0  0  0  0  0  0  0  0
   -0.2010   22.9850  -28.0980 C   0  0  0  0  0  0  0  0  0  0  0  0
   -0.4617   21.9326  -28.2838 H   0  0  0  0  0  0  0  0  0  0  0  0
   -1.0540   24.0030  -28.5390 C   0  0  0  0  0  0  0  0  0  0  0  0
   -2.2380   23.6400  -29.2620 N   0  0  0  0  0  0  0  0  0  0  0  0
   -3.5290   23.4770  -28.6590 C   0  0  0  0  0  0  0  0  0  0  0  0
   -3.6070   23.1970  -27.4320 O   0  0  0  0  0  0  0  0  0  0  0  0
   -4.7600   23.6590  -29.4740 C   0  0  0  0  0  0  0  0  0  0  0  0
   -5.8180   22.7350  -29.3490 C   0  0  0  0  0  0  0  0  0  0  0  0
   -5.7226   21.8891  -28.6523 H   0  0  0  0  0  0  0  0  0  0  0  0
   -6.9860   22.8830  -30.1010 C   0  0  0  0  0  0  0  0  0  0  0  0
   -7.8031   22.1543  -29.9942 H   0  0  0  0  0  0  0  0  0  0  0  0
   -7.1190   23.9510  -30.9860 C   0  0  0  0  0  0  0  0  0  0  0  0
   -8.0400   24.0643  -31.5767 H   0  0  0  0  0  0  0  0  0  0  0  0
   -6.0850   24.8760  -31.1230 C   0  0  0  0  0  0  0  0  0  0  0  0
   -6.1946   25.7174  -31.8230 H   0  0  0  0  0  0  0  0  0  0  0  0
   -4.9060   24.7420  -30.3750 C   0  0  0  0  0  0  0  0  0  0  0  0
   -3.8890   25.6830  -30.5300 O   0  0  0  0  0  0  0  0  0  0  0  0
   -3.0580   25.6720  -29.9490 H   0  0  0  0  0  0  0  0  0  0  0  0
  1  2  1  0
  2  3  2  0
  3  4  1  0
  4  5  1  0
  5  6  1  0
  5  7  2  0
  7  8  1  0
  7  9  1  0
  9 10  1  0
  9 11  2  0
 11 12  1  0
 12 13  1  0
 13 14  2  0
 13 15  1  0
 15 16  2  0
 16 17  1  0
 16 18  1  0
 18 19  1  0
 18 20  2  0
 20 21  1  0
 20 22  1  0
 22 23  1  0
 22 24  2  0
 24 25  1  0
 25 26  1  0
 11  3  1  0
 24 15  1  0
M  CHG  2   4  -1  12  -1
M  END
>  <UniqueID>  (12) 
12

>  <SMILES>  (12) 
[H]/N=c1/[n-]cccc1[N-]C(=O)c1ccccc1O

>  <Energy>  (12) 
38.116458622487464

>  <Genealogy>  (12) 
N=c1[n-]cccc1[N-]C(=O)c1ccccc1O (protonated)
[H]/N=c1/[n-]cccc1[N-]C(=O)c1ccccc1O (cis-trans isomerization)
[H]/N=c1/[n-]cccc1[N-]C(=O)c1ccccc1O (3D coordinates assigned)
[H]/N=c1/[n-]cccc1[N-]C(=O)c1ccccc1O (optimized conformer: 38.116458622487464 kcal/mol)

>  <smiles>  (12) 
N=c1[nH]cccc1NC(=O)c1ccccc1O

>  <score_type>  (12) 
oracle

>  <origin>  (12) 
adgpu

>  <m_score__min__energy>  (12) 
-9.4399999999999995

>  <m_primary>  (12) 
energy

$$$$
12:0
     RDKit          3D

 38 40  0  0  0  0  0  0  0  0999 V2000
   -2.7910   18.8430  -26.1140 C   0  0  0  0  0  0  0  0  0  0  0  0
   -1.6540   19.6210  -26.7060 C   0  0  0  0  0  0  0  0  0  0  0  0
   -0.8690   19.0590  -27.7230 C   0  0  0  0  0  0  0  0  0  0  0  0
    0.1760   19.7930  -28.2920 C   0  0  0  0  0  0  0  0  0  0  0  0
    0.4340   21.0970  -27.8600 C   0  0  0  0  0  0  0  0  0  0  0  0
   -0.3710   21.6880  -26.8700 C   0  0  0  0  0  0  0  0  0  0  0  0
   -0.1680   23.0360  -26.4230 N   0  0  0  0  0  0  0  0  0  0  0  0
   -0.5660   24.4610  -27.3300 S   0  0  0  0  0  0  0  0  0  0  0  0
    0.5940   24.8280  -28.2110 O   0  0  0  0  0  0  0  0  0  0  0  0
   -0.8430   25.5920  -26.3790 O   0  0  0  0  0  0  0  0  0  0  0  0
   -1.9960   24.1660  -28.2970 C   0  0  0  0  0  0  0  0  0  0  0  0
   -2.3430   24.9270  -29.3590 N   0  0  0  0  0  0  0  0  0  0  0  0
   -3.5090   24.5720  -29.8950 N   0  0  0  0  0  0  0  0  0  0  0  0
   -4.0870   23.5340  -29.2510 C   0  0  0  0  0  0  0  0  0  0  0  0
   -5.2390   23.0330  -29.5710 N   0  0  0  0  0  0  0  0  0  0  0  0
   -6.2010   23.6400  -30.8810 S   0  0  0  0  0  0  0  0  0  0  0  0
   -5.2960   24.1550  -31.9630 O   0  0  0  0  0  0  0  0  0  0  0  0
   -7.0560   24.7680  -30.3740 O   0  0  0  0  0  0  0  0  0  0  0  0
   -7.2040   22.3490  -31.5370 C   0  0  0  0  0  0  0  0  0  0  0  0
   -6.6160   21.2480  -32.1760 C   0  0  0  0  0  0  0  0  0  0  0  0
   -7.4190   20.2320  -32.7040 C   0  0  0  0  0  0  0  0  0  0  0  0
   -8.8100   20.3090  -32.5940 C   0  0  0  0  0  0  0  0  0  0  0  0
   -9.5870   19.3240  -33.1070 F   0  0  0  0  0  0  0  0  0  0  0  0
   -9.4010   21.4040  -31.9540 C   0  0  0  0  0  0  0  0  0  0  0  0
   -8.6000   22.4210  -31.4250 C   0  0  0  0  0  0  0  0  0  0  0  0
   -3.1580   22.9910  -27.9590 S   0  0  0  0  0  0  0  0  0  0  0  0
   -1.4090   20.9420  -26.2970 C   0  0  0  0  0  0  0  0  0  0  0  0
   -2.7311   18.8840  -25.0164 H   0  0  0  0  0  0  0  0  0  0  0  0
   -3.7452   19.2784  -26.4457 H   0  0  0  0  0  0  0  0  0  0  0  0
   -2.7308   17.7959  -26.4457 H   0  0  0  0  0  0  0  0  0  0  0  0
   -1.0761   18.0374  -28.0742 H   0  0  0  0  0  0  0  0  0  0  0  0
    0.7964   19.3434  -29.0813 H   0  0  0  0  0  0  0  0  0  0  0  0
    1.2701   21.6632  -28.2962 H   0  0  0  0  0  0  0  0  0  0  0  0
   -5.5213   21.1833  -32.2621 H   0  0  0  0  0  0  0  0  0  0  0  0
   -6.9549   19.3707  -33.2068 H   0  0  0  0  0  0  0  0  0  0  0  0
  -10.4959   21.4649  -31.8670 H   0  0  0  0  0  0  0  0  0  0  0  0
   -9.0662   23.2797  -30.9197 H   0  0  0  0  0  0  0  0  0  0  0  0
   -2.0392   21.3959  -25.5180 H   0  0  0  0  0  0  0  0  0  0  0  0
  1  2  1  0
  2  3  2  0
  3  4  1  0
  4  5  2  0
  5  6  1  0
  6  7  1  0
  7  8  1  0
  8  9  2  0
  8 10  2  0
  8 11  1  0
 11 12  2  0
 12 13  1  0
 13 14  1  0
 14 15  2  3
 15 16  1  0
 16 17  2  0
 16 18  2  0
 16 19  1  0
 19 20  2  0
 20 21  1  0
 21 22  2  0
 22 23  1  0
 22 24  1  0
 24 25  2  0
 14 26  1  0
  6 27  2  0
 27  2  1  0
 26 11  1  0
 25 19  1  0
  1 28  1  0
  1 29  1  0
  1 30  1  0
  3 31  1  0
  4 32  1  0
  5 33  1  0
 20 34  1  0
 21 35  1  0
 24 36  1  0
 25 37  1  0
 27 38  1  0
M  CHG  2   7  -1  13  -1
M  END
>  <UniqueID>  (13) 
13

>  <SMILES>  (13) 
Cc1cccc([N-]S(=O)(=O)c2n[n-]c(=NS(=O)(=O)c3ccc(F)cc3)s2)c1

>  <Energy>  (13) 
79.66189503650362

>  <Genealogy>  (13) 
Cc1cccc([N-]S(=O)(=O)c2n[n-]c(=NS(=O)(=O)c3ccc(F)cc3)s2)c1 (protonated)
Cc1cccc([N-]S(=O)(=O)c2n[n-]c(=NS(=O)(=O)c3ccc(F)cc3)s2)c1 (3D coordinates assigned)
Cc1cccc([N-]S(=O)(=O)c2n[n-]c(=NS(=O)(=O)c3ccc(F)cc3)s2)c1 (optimized conformer: 79.66189503650362 kcal/mol)

>  <smiles>  (13) 
Cc1cccc(NS(=O)(=O)c2n[nH]c(=NS(=O)(=O)c3ccc(F)cc3)s2)c1

>  <score_type>  (13) 
oracle

>  <origin>  (13) 
adgpu

>  <m_score__min__energy>  (13) 
-11.75

>  <m_primary>  (13) 
energy

$$$$
13:0
     RDKit          3D

 42 44  0  0  0  0  0  0  0  0999 V2000
   -8.9060   21.3320  -30.1370 O   0  0  0  0  0  0  0  0  0  0  0  0
   -8.2100   21.7120  -31.4140 S   0  0  0  0  0  0  0  0  0  0  0  0
   -9.2300   22.3180  -32.3390 O   0  0  0  0  0  0  0  0  0  0  0  0
   -7.5010   20.2850  -32.1590 C   0  0  0  0  0  0  0  0  0  0  0  0
   -7.6000   19.0370  -31.5280 C   0  0  0  0  0  0  0  0  0  0  0  0
   -7.0550   17.9000  -32.1320 C   0  0  0  0  0  0  0  0  0  0  0  0
   -6.4140   18.0020  -33.3720 C   0  0  0  0  0  0  0  0  0  0  0  0
   -5.6720   16.4480  -34.1960 Br  0  0  0  0  0  0  0  0  0  0  0  0
   -6.3200   19.2450  -34.0080 C   0  0  0  0  0  0  0  0  0  0  0  0
   -6.8650   20.3840  -33.4050 C   0  0  0  0  0  0  0  0  0  0  0  0
   -6.9340   22.8740  -31.0750 C   0  0  0  0  0  0  0  0  0  0  0  0
   -7.1940   24.2480  -31.1240 C   0  0  0  0  0  0  0  0  0  0  0  0
   -6.1740   25.1650  -30.8670 C   0  0  0  0  0  0  0  0  0  0  0  0
   -4.8780   24.7200  -30.5670 C   0  0  0  0  0  0  0  0  0  0  0  0
   -3.8740   25.6470  -30.2980 O   0  0  0  0  0  0  0  0  0  0  0  0
   -4.6060   23.3380  -30.5360 C   0  0  0  0  0  0  0  0  0  0  0  0
   -2.9940   22.7170  -30.1510 S   0  0  0  0  0  0  0  0  0  0  0  0
   -2.0500   23.8820  -30.0370 O   0  0  0  0  0  0  0  0  0  0  0  0
   -3.0080   21.9910  -28.8350 O   0  0  0  0  0  0  0  0  0  0  0  0
   -2.4480   21.6500  -31.4210 N   0  0  0  0  0  0  0  0  0  0  0  0
   -3.0350   22.0560  -32.7110 C   0  0  0  0  0  0  0  0  0  0  0  0
   -2.9740   20.8980  -33.7200 C   0  0  0  0  0  0  0  0  0  0  0  0
   -3.6610   19.7220  -33.3070 O   0  0  0  0  0  0  0  0  0  0  0  0
   -3.8810   19.6500  -31.9050 C   0  0  0  0  0  0  0  0  0  0  0  0
   -2.7190   20.2340  -31.0820 C   0  0  0  0  0  0  0  0  0  0  0  0
   -5.6400   22.4240  -30.7850 C   0  0  0  0  0  0  0  0  0  0  0  0
   -8.1075   18.9522  -30.5558 H   0  0  0  0  0  0  0  0  0  0  0  0
   -7.1301   16.9233  -31.6316 H   0  0  0  0  0  0  0  0  0  0  0  0
   -5.8172   19.3267  -34.9829 H   0  0  0  0  0  0  0  0  0  0  0  0
   -6.7944   21.3590  -33.9093 H   0  0  0  0  0  0  0  0  0  0  0  0
   -8.2055   24.6064  -31.3658 H   0  0  0  0  0  0  0  0  0  0  0  0
   -6.3876   26.2436  -30.8999 H   0  0  0  0  0  0  0  0  0  0  0  0
   -3.0160   25.6740  -30.8370 H   0  0  0  0  0  0  0  0  0  0  0  0
   -4.0848   22.3455  -32.5556 H   0  0  0  0  0  0  0  0  0  0  0  0
   -2.4618   22.9057  -33.1104 H   0  0  0  0  0  0  0  0  0  0  0  0
   -3.4183   21.2419  -34.6657 H   0  0  0  0  0  0  0  0  0  0  0  0
   -1.9134   20.6236  -33.8195 H   0  0  0  0  0  0  0  0  0  0  0  0
   -4.7966   20.2103  -31.6649 H   0  0  0  0  0  0  0  0  0  0  0  0
   -3.9687   18.5859  -31.6404 H   0  0  0  0  0  0  0  0  0  0  0  0
   -2.9735   20.1682  -30.0139 H   0  0  0  0  0  0  0  0  0  0  0  0
   -1.8149   19.6525  -31.3154 H   0  0  0  0  0  0  0  0  0  0  0  0
   -5.4328   21.3442  -30.7522 H   0  0  0  0  0  0  0  0  0  0  0  0
  1  2  2  0
  2  3  2  0
  2  4  1  0
  4  5  2  0
  5  6  1  0
  6  7  2  0
  7  8  1  0
  7  9  1  0
  9 10  2  0
  2 11  1  0
 11 12  2  0
 12 13  1  0
 13 14  2  0
 14 15  1  0
 14 16  1  0
 16 17  1  0
 17 18  2  0
 17 19  2  0
 17 20  1  0
 20 21  1  0
 21 22  1  0
 22 23  1  0
 23 24  1  0
 24 25  1  0
 16 26  2  0
 10  4  1  0
 26 11  1  0
 25 20  1  0
  5 27  1  0
  6 28  1  0
  9 29  1  0
 10 30  1  0
 12 31  1  0
 13 32  1  0
 15 33  1  0
 21 34  1  0
 21 35  1  0
 22 36  1  0
 22 37  1  0
 24 38  1  0
 24 39  1  0
 25 40  1  0
 25 41  1  0
 26 42  1  0
M  END
>  <UniqueID>  (14) 
14

>  <SMILES>  (14) 
O=S(=O)(c1ccc(Br)cc1)c1ccc(O)c(S(=O)(=O)N2CCOCC2)c1

>  <Energy>  (14) 
58.00806665895003

>  <Genealogy>  (14) 
O=S(=O)(c1ccc(Br)cc1)c1ccc(O)c(S(=O)(=O)N2CCOCC2)c1 (3D coordinates assigned)
O=S(=O)(c1ccc(Br)cc1)c1ccc(O)c(S(=O)(=O)N2CCOCC2)c1 (nonaromatic ring conformer: 58.00806665895003 kcal/mol)

>  <smiles>  (14) 
O=S(=O)(c1ccc(Br)cc1)c1ccc(O)c(S(=O)(=O)N2CCOCC2)c1

>  <score_type>  (14) 
oracle

>  <origin>  (14) 
adgpu

>  <m_score__min__energy>  (14) 
-10.68

>  <m_primary>  (14) 
energy

$$$$
14:0
     RDKit          3D

 51 54  0  0  0  0  0  0  0  0999 V2000
   -9.4930   19.3330  -32.7130 C   0  0  0  0  0  0  0  0  0  0  0  0
   -9.4420   20.7120  -32.3540 O   0  0  0  0  0  0  0  0  0  0  0  0
   -8.3000   21.3620  -31.8580 C   0  0  0  0  0  0  0  0  0  0  0  0
   -7.2200   21.5620  -32.7240 C   0  0  0  0  0  0  0  0  0  0  0  0
   -6.0590   22.2080  -32.2840 C   0  0  0  0  0  0  0  0  0  0  0  0
   -5.9700   22.6750  -30.9600 C   0  0  0  0  0  0  0  0  0  0  0  0
   -4.7210   23.3200  -30.4740 C   0  0  0  0  0  0  0  0  0  0  0  0
   -3.6260   22.5560  -30.0090 C   0  0  0  0  0  0  0  0  0  0  0  0
   -3.6430   21.1160  -30.0200 N   0  0  0  0  0  0  0  0  0  0  0  0
   -3.9740   20.3210  -31.1760 C   0  0  0  0  0  0  0  0  0  0  0  0
   -5.1100   19.4890  -31.2030 C   0  0  0  0  0  0  0  0  0  0  0  0
   -5.3840   18.7080  -32.3270 C   0  0  0  0  0  0  0  0  0  0  0  0
   -4.5570   18.7700  -33.4520 C   0  0  0  0  0  0  0  0  0  0  0  0
   -4.8490   17.9570  -34.5530 O   0  0  0  0  0  0  0  0  0  0  0  0
   -5.1670   16.5930  -34.4880 C   0  0  0  0  0  0  0  0  0  0  0  0
   -6.4970   16.2250  -34.2650 C   0  0  0  0  0  0  0  0  0  0  0  0
   -6.8560   14.8760  -34.2370 C   0  0  0  0  0  0  0  0  0  0  0  0
   -5.8910   13.8840  -34.4350 C   0  0  0  0  0  0  0  0  0  0  0  0
   -4.5570   14.2410  -34.6680 C   0  0  0  0  0  0  0  0  0  0  0  0
   -4.1970   15.5910  -34.7000 C   0  0  0  0  0  0  0  0  0  0  0  0
   -3.4300   19.6110  -33.4360 C   0  0  0  0  0  0  0  0  0  0  0  0
   -3.1450   20.3770  -32.3050 C   0  0  0  0  0  0  0  0  0  0  0  0
   -2.5080   23.2180  -29.4900 C   0  0  0  0  0  0  0  0  0  0  0  0
   -1.5350   22.5470  -29.0550 O   0  0  0  0  0  0  0  0  0  0  0  0
   -2.4700   24.5830  -29.4670 N   0  0  0  0  0  0  0  0  0  0  0  0
   -1.3010   25.2920  -28.9540 C   0  0  0  0  0  0  0  0  0  0  0  0
   -3.4910   25.2970  -29.9410 N   0  0  0  0  0  0  0  0  0  0  0  0
   -4.6120   24.7200  -30.4360 C   0  0  0  0  0  0  0  0  0  0  0  0
   -5.5520   25.4540  -30.8370 O   0  0  0  0  0  0  0  0  0  0  0  0
   -7.0580   22.4790  -30.0890 C   0  0  0  0  0  0  0  0  0  0  0  0
   -8.2070   21.8170  -30.5280 C   0  0  0  0  0  0  0  0  0  0  0  0
   -9.5158   18.7175  -31.8016 H   0  0  0  0  0  0  0  0  0  0  0  0
  -10.3988   19.1420  -33.3072 H   0  0  0  0  0  0  0  0  0  0  0  0
   -8.6038   19.0757  -33.3072 H   0  0  0  0  0  0  0  0  0  0  0  0
   -7.2839   21.2073  -33.7633 H   0  0  0  0  0  0  0  0  0  0  0  0
   -5.2148   22.3508  -32.9746 H   0  0  0  0  0  0  0  0  0  0  0  0
   -3.3480   20.6190  -29.1360 H   0  0  0  0  0  0  0  0  0  0  0  0
   -5.7843   19.4545  -30.3346 H   0  0  0  0  0  0  0  0  0  0  0  0
   -6.2571   18.0389  -32.3273 H   0  0  0  0  0  0  0  0  0  0  0  0
   -7.2624   16.9999  -34.1112 H   0  0  0  0  0  0  0  0  0  0  0  0
   -7.9036   14.5922  -34.0582 H   0  0  0  0  0  0  0  0  0  0  0  0
   -6.1796   12.8229  -34.4078 H   0  0  0  0  0  0  0  0  0  0  0  0
   -3.7960   13.4624  -34.8251 H   0  0  0  0  0  0  0  0  0  0  0  0
   -3.1514   15.8738  -34.8916 H   0  0  0  0  0  0  0  0  0  0  0  0
   -2.7724   19.6651  -34.3161 H   0  0  0  0  0  0  0  0  0  0  0  0
   -2.2609   21.0314  -32.2993 H   0  0  0  0  0  0  0  0  0  0  0  0
   -1.3190   25.2811  -27.8542 H   0  0  0  0  0  0  0  0  0  0  0  0
   -0.3860   24.7966  -29.3107 H   0  0  0  0  0  0  0  0  0  0  0  0
   -1.3175   26.3324  -29.3107 H   0  0  0  0  0  0  0  0  0  0  0  0
   -7.0031   22.8499  -29.0549 H   0  0  0  0  0  0  0  0  0  0  0  0
   -9.0426   21.6503  -29.8324 H   0  0  0  0  0  0  0  0  0  0  0  0
  1  2  1  0
  2  3  1  0
  3  4  2  0
  4  5  1  0
  5  6  2  0
  6  7  1  0
  7  8  2  0
  8  9  1  0
  9 10  1  0
 10 11  2  0
 11 12  1  0
 12 13  2  0
 13 14  1  0
 14 15  1  0
 15 16  2  0
 16 17  1  0
 17 18  2  0
 18 19  1  0
 19 20  2  0
 13 21  1  0
 21 22  2  0
  8 23  1  0
 23 24  2  0
 23 25  1  0
 25 26  1  0
 25 27  1  0
 27 28  1  0
 28 29  2  0
  6 30  1  0
 30 31  2  0
 31  3  1  0
 28  7  1  0
 22 10  1  0
 20 15  1  0
  1 32  1  0
  1 33  1  0
  1 34  1  0
  4 35  1  0
  5 36  1  0
  9 37  1  0
 11 38  1  0
 12 39  1  0
 16 40  1  0
 17 41  1  0
 18 42  1  0
 19 43  1  0
 20 44  1  0
 21 45  1  0
 22 46  1  0
 26 47  1  0
 26 48  1  0
 26 49  1  0
 30 50  1  0
 31 51  1  0
M  CHG  1  27  -1
M  END
>  <UniqueID>  (15) 
15

>  <SMILES>  (15) 
COc1ccc(-c2c(Nc3ccc(Oc4ccccc4)cc3)c(=O)n(C)[n-]c2=O)cc1

>  <Energy>  (15) 
76.37792695335496

>  <Genealogy>  (15) 
COc1ccc(-c2c(Nc3ccc(Oc4ccccc4)cc3)c(=O)n(C)[n-]c2=O)cc1 (protonated)
COc1ccc(-c2c(Nc3ccc(Oc4ccccc4)cc3)c(=O)n(C)[n-]c2=O)cc1 (3D coordinates assigned)
COc1ccc(-c2c(Nc3ccc(Oc4ccccc4)cc3)c(=O)n(C)[n-]c2=O)cc1 (optimized conformer: 76.37792695335496 kcal/mol)

>  <smiles>  (15) 
COc1ccc(-c2c(Nc3ccc(Oc4ccccc4)cc3)c(=O)n(C)[nH]c2=O)cc1

>  <score_type>  (15) 
oracle

>  <origin>  (15) 
adgpu

>  <m_score__min__energy>  (15) 
-9.6600000000000001

>  <m_primary>  (15) 
energy

$$$$
15:0
     RDKit          3D

 63 66  0  0  0  0  0  0  0  0999 V2000
    0.5400   26.8740  -26.6520 C   0  0  0  0  0  0  0  0  0  0  0  0
    0.1750   26.0140  -25.5070 N   0  0  0  0  0  0  0  0  0  0  0  0
   -1.1430   26.3950  -24.9500 C   0  0  0  0  0  0  0  0  0  0  0  0
   -2.2980   26.0240  -25.8940 C   0  0  0  0  0  0  0  0  0  0  0  0
   -2.1150   24.6790  -26.4460 N   0  0  0  0  0  0  0  0  0  0  0  0
   -3.1090   24.1440  -27.3410 C   0  0  0  0  0  0  0  0  0  0  0  0
   -4.3130   24.4850  -27.2020 O   0  0  0  0  0  0  0  0  0  0  0  0
   -2.7360   23.2190  -28.4380 C   0  0  0  0  0  0  0  0  0  0  0  0
   -2.2700   21.9310  -28.1210 C   0  0  0  0  0  0  0  0  0  0  0  0
   -1.8900   21.0460  -29.1330 C   0  0  0  0  0  0  0  0  0  0  0  0
   -1.9760   21.4330  -30.4700 C   0  0  0  0  0  0  0  0  0  0  0  0
   -2.4370   22.7090  -30.8010 C   0  0  0  0  0  0  0  0  0  0  0  0
   -2.8020   23.6200  -29.7920 C   0  0  0  0  0  0  0  0  0  0  0  0
   -3.3200   24.9170  -30.1290 N   0  0  0  0  0  0  0  0  0  0  0  0
   -4.6850   25.2330  -30.4360 C   0  0  0  0  0  0  0  0  0  0  0  0
   -5.0300   26.4440  -30.4730 O   0  0  0  0  0  0  0  0  0  0  0  0
   -5.6780   24.1850  -30.7680 C   0  0  0  0  0  0  0  0  0  0  0  0
   -6.1170   23.2920  -29.7780 C   0  0  0  0  0  0  0  0  0  0  0  0
   -7.0490   22.2950  -30.0870 C   0  0  0  0  0  0  0  0  0  0  0  0
   -7.5560   22.1850  -31.3880 C   0  0  0  0  0  0  0  0  0  0  0  0
   -8.7410   20.9390  -31.7820 S   0  0  0  0  0  0  0  0  0  0  0  0
   -9.9650   21.5750  -32.3810 O   0  0  0  0  0  0  0  0  0  0  0  0
   -9.1390   20.2340  -30.5150 O   0  0  0  0  0  0  0  0  0  0  0  0
   -8.0510   19.7900  -32.9030 N   0  0  0  0  0  0  0  0  0  0  0  0
   -8.0610   18.4350  -32.3050 C   0  0  0  0  0  0  0  0  0  0  0  0
   -7.0930   17.4950  -33.0290 C   0  0  0  0  0  0  0  0  0  0  0  0
   -5.6430   17.9970  -32.9180 C   0  0  0  0  0  0  0  0  0  0  0  0
   -5.5550   19.5170  -32.6950 C   0  0  0  0  0  0  0  0  0  0  0  0
   -6.7200   20.2450  -33.3790 C   0  0  0  0  0  0  0  0  0  0  0  0
   -7.1420   23.0900  -32.3720 C   0  0  0  0  0  0  0  0  0  0  0  0
   -6.2110   24.0860  -32.0650 C   0  0  0  0  0  0  0  0  0  0  0  0
   -1.0640   23.8210  -25.8890 C   0  0  0  0  0  0  0  0  0  0  0  0
    0.2820   24.5660  -25.8600 C   0  0  0  0  0  0  0  0  0  0  0  0
    0.9445   27.8271  -26.2804 H   0  0  0  0  0  0  0  0  0  0  0  0
    1.3004   26.3666  -27.2639 H   0  0  0  0  0  0  0  0  0  0  0  0
   -0.3532   27.0684  -27.2639 H   0  0  0  0  0  0  0  0  0  0  0  0
    0.8820   26.2110  -24.7570 H   0  0  0  0  0  0  0  0  0  0  0  0
   -1.2870   25.8747  -23.9916 H   0  0  0  0  0  0  0  0  0  0  0  0
   -1.1518   27.4868  -24.8163 H   0  0  0  0  0  0  0  0  0  0  0  0
   -3.2445   26.0573  -25.3345 H   0  0  0  0  0  0  0  0  0  0  0  0
   -2.3157   26.7441  -26.7253 H   0  0  0  0  0  0  0  0  0  0  0  0
   -2.2041   21.6178  -27.0686 H   0  0  0  0  0  0  0  0  0  0  0  0
   -1.5223   20.0420  -28.8747 H   0  0  0  0  0  0  0  0  0  0  0  0
   -1.6804   20.7324  -31.2648 H   0  0  0  0  0  0  0  0  0  0  0  0
   -2.5154   23.0042  -31.8577 H   0  0  0  0  0  0  0  0  0  0  0  0
   -5.7261   23.3764  -28.7533 H   0  0  0  0  0  0  0  0  0  0  0  0
   -7.3842   21.5961  -29.3065 H   0  0  0  0  0  0  0  0  0  0  0  0
   -7.7647   18.5085  -31.2482 H   0  0  0  0  0  0  0  0  0  0  0  0
   -9.0768   18.0237  -32.3991 H   0  0  0  0  0  0  0  0  0  0  0  0
   -7.1615   16.4935  -32.5792 H   0  0  0  0  0  0  0  0  0  0  0  0
   -7.3698   17.4619  -34.0931 H   0  0  0  0  0  0  0  0  0  0  0  0
   -5.1587   17.4887  -32.0712 H   0  0  0  0  0  0  0  0  0  0  0  0
   -5.1401   17.7717  -33.8700 H   0  0  0  0  0  0  0  0  0  0  0  0
   -5.5867   19.7239  -31.6151 H   0  0  0  0  0  0  0  0  0  0  0  0
   -4.6125   19.8797  -33.1311 H   0  0  0  0  0  0  0  0  0  0  0  0
   -6.6259   21.3224  -33.1781 H   0  0  0  0  0  0  0  0  0  0  0  0
   -6.6616   20.0199  -34.4541 H   0  0  0  0  0  0  0  0  0  0  0  0
   -7.5508   23.0171  -33.3906 H   0  0  0  0  0  0  0  0  0  0  0  0
   -5.8935   24.7964  -32.8425 H   0  0  0  0  0  0  0  0  0  0  0  0
   -1.3391   23.5308  -24.8643 H   0  0  0  0  0  0  0  0  0  0  0  0
   -0.9620   22.9273  -26.5222 H   0  0  0  0  0  0  0  0  0  0  0  0
    0.9305   24.0774  -25.1179 H   0  0  0  0  0  0  0  0  0  0  0  0
    0.6902   24.5195  -26.8804 H   0  0  0  0  0  0  0  0  0  0  0  0
  1  2  1  0
  2  3  1  0
  3  4  1  0
  4  5  1  0
  5  6  1  0
  6  7  2  0
  6  8  1  0
  8  9  2  0
  9 10  1  0
 10 11  2  0
 11 12  1  0
 12 13  2  0
 13 14  1  0
 14 15  1  0
 15 16  2  0
 15 17  1  0
 17 18  2  0
 18 19  1  0
 19 20  2  0
 20 21  1  0
 21 22  2  0
 21 23  2  0
 21 24  1  0
 24 25  1  0
 25 26  1  0
 26 27  1  0
 27 28  1  0
 28 29  1  0
 20 30  1  0
 30 31  2  0
  5 32  1  0
 32 33  1  0
 33  2  1  0
 13  8  1  0
 31 17  1  0
 29 24  1  0
  1 34  1  0
  1 35  1  0
  1 36  1  0
  2 37  1  0
  3 38  1  0
  3 39  1  0
  4 40  1  0
  4 41  1  0
  9 42  1  0
 10 43  1  0
 11 44  1  0
 12 45  1  0
 18 46  1  0
 19 47  1  0
 25 48  1  0
 25 49  1  0
 26 50  1  0
 26 51  1  0
 27 52  1  0
 27 53  1  0
 28 54  1  0
 28 55  1  0
 29 56  1  0
 29 57  1  0
 30 58  1  0
 31 59  1  0
 32 60  1  0
 32 61  1  0
 33 62  1  0
 33 63  1  0
M  CHG  2   2   1  14  -1
M  END
>  <UniqueID>  (16) 
16

>  <SMILES>  (16) 
C[NH+]1CCN(C(=O)c2ccccc2[N-]C(=O)c2ccc(S(=O)(=O)N3CCCCC3)cc2)CC1

>  <Energy>  (16) 
90.2824410632268

>  <Genealogy>  (16) 
C[NH+]1CCN(C(=O)c2ccccc2[N-]C(=O)c2ccc(S(=O)(=O)N3CCCCC3)cc2)CC1 (protonated)
C[NH+]1CCN(C(=O)c2ccccc2[N-]C(=O)c2ccc(S(=O)(=O)N3CCCCC3)cc2)CC1 (3D coordinates assigned)
C[NH+]1CCN(C(=O)c2ccccc2[N-]C(=O)c2ccc(S(=O)(=O)N3CCCCC3)cc2)CC1 (nonaromatic ring conformer: 90.2824410632268 kcal/mol)

>  <smiles>  (16) 
CN1CCN(C(=O)c2ccccc2NC(=O)c2ccc(S(=O)(=O)N3CCCCC3)cc2)CC1

>  <score_type>  (16) 
oracle

>  <origin>  (16) 
adgpu

>  <m_score__min__energy>  (16) 
-13.74

>  <m_primary>  (16) 
energy

$$$$
16:0
     RDKit          3D

 65 68  0  0  0  0  0  0  0  0999 V2000
    1.6930   16.7600  -27.4790 C   0  0  0  0  0  0  0  0  0  0  0  0
    0.3030   16.9870  -27.0950 N   0  0  0  0  0  0  0  0  0  0  0  0
   -0.4780   18.1010  -27.5620 C   0  0  0  0  0  0  0  0  0  0  0  0
   -0.0920   18.7770  -28.7260 C   0  0  0  0  0  0  0  0  0  0  0  0
   -0.8420   19.8540  -29.2000 C   0  0  0  0  0  0  0  0  0  0  0  0
   -1.9900   20.2620  -28.5000 C   0  0  0  0  0  0  0  0  0  0  0  0
   -2.8360   21.3880  -28.9730 C   0  0  0  0  0  0  0  0  0  0  0  0
   -3.7390   22.0050  -28.0870 C   0  0  0  0  0  0  0  0  0  0  0  0
   -4.5520   23.0560  -28.5190 C   0  0  0  0  0  0  0  0  0  0  0  0
   -4.4740   23.5130  -29.8390 C   0  0  0  0  0  0  0  0  0  0  0  0
   -5.5240   24.8180  -30.3820 S   0  0  0  0  0  0  0  0  0  0  0  0
   -4.7130   25.9960  -30.8440 O   0  0  0  0  0  0  0  0  0  0  0  0
   -6.3940   25.2460  -29.2330 O   0  0  0  0  0  0  0  0  0  0  0  0
   -6.5290   24.2740  -31.6890 N   0  0  0  0  0  0  0  0  0  0  0  0
   -7.0020   22.9220  -31.8380 C   0  0  0  0  0  0  0  0  0  0  0  0
   -6.1480   21.8680  -32.2140 C   0  0  0  0  0  0  0  0  0  0  0  0
   -6.6410   20.5660  -32.3350 C   0  0  0  0  0  0  0  0  0  0  0  0
   -7.9930   20.2920  -32.0830 C   0  0  0  0  0  0  0  0  0  0  0  0
   -8.5310   18.8940  -32.2550 C   0  0  0  0  0  0  0  0  0  0  0  0
   -7.4340   17.8420  -32.0440 C   0  0  0  0  0  0  0  0  0  0  0  0
   -7.1540   17.1130  -33.2890 N   0  0  0  0  0  0  0  0  0  0  0  0
   -6.1400   17.7830  -34.1300 C   0  0  0  0  0  0  0  0  0  0  0  0
   -4.7250   17.1940  -33.9270 C   0  0  2  0  0  0  0  0  0  0  0  0
   -4.7030   16.2130  -32.9180 O   0  0  0  0  0  0  0  0  0  0  0  0
   -3.7180   18.2880  -33.6340 C   0  0  0  0  0  0  0  0  0  0  0  0
   -2.4510   17.9910  -33.1050 C   0  0  0  0  0  0  0  0  0  0  0  0
   -1.5520   19.0210  -32.8170 C   0  0  0  0  0  0  0  0  0  0  0  0
   -1.9280   20.3420  -33.0480 C   0  0  0  0  0  0  0  0  0  0  0  0
   -3.1600   20.6200  -33.5500 N   0  0  0  0  0  0  0  0  0  0  0  0
   -4.0530   19.6370  -33.8430 C   0  0  0  0  0  0  0  0  0  0  0  0
   -8.8510   21.3420  -31.7250 C   0  0  0  0  0  0  0  0  0  0  0  0
   -8.3570   22.6430  -31.5970 C   0  0  0  0  0  0  0  0  0  0  0  0
   -3.5620   22.9220  -30.7230 C   0  0  0  0  0  0  0  0  0  0  0  0
   -2.7490   21.8690  -30.2940 C   0  0  0  0  0  0  0  0  0  0  0  0
   -2.3510   19.5840  -27.3750 N   0  0  0  0  0  0  0  0  0  0  0  0
   -1.6360   18.5350  -26.8930 C   0  0  0  0  0  0  0  0  0  0  0  0
    2.3114   16.6590  -26.5749 H   0  0  0  0  0  0  0  0  0  0  0  0
    1.7628   15.8386  -28.0757 H   0  0  0  0  0  0  0  0  0  0  0  0
    2.0523   17.6114  -28.0757 H   0  0  0  0  0  0  0  0  0  0  0  0
   -0.1420   16.2910  -26.4550 H   0  0  0  0  0  0  0  0  0  0  0  0
    0.8086   18.4568  -29.2704 H   0  0  0  0  0  0  0  0  0  0  0  0
   -0.5363   20.3805  -30.1162 H   0  0  0  0  0  0  0  0  0  0  0  0
   -3.8052   21.6568  -27.0457 H   0  0  0  0  0  0  0  0  0  0  0  0
   -5.2569   23.5265  -27.8177 H   0  0  0  0  0  0  0  0  0  0  0  0
   -6.7900   24.9850  -32.4110 H   0  0  0  0  0  0  0  0  0  0  0  0
   -5.0855   22.0706  -32.4139 H   0  0  0  0  0  0  0  0  0  0  0  0
   -5.9640   19.7507  -32.6299 H   0  0  0  0  0  0  0  0  0  0  0  0
   -9.3333   18.7265  -31.5214 H   0  0  0  0  0  0  0  0  0  0  0  0
   -8.9136   18.7941  -33.2815 H   0  0  0  0  0  0  0  0  0  0  0  0
   -6.5150   18.3438  -31.7070 H   0  0  0  0  0  0  0  0  0  0  0  0
   -7.7808   17.1222  -31.2879 H   0  0  0  0  0  0  0  0  0  0  0  0
   -6.8580   16.1380  -33.0460 H   0  0  0  0  0  0  0  0  0  0  0  0
   -6.4235   17.6657  -35.1864 H   0  0  0  0  0  0  0  0  0  0  0  0
   -6.1078   18.8428  -33.8371 H   0  0  0  0  0  0  0  0  0  0  0  0
   -4.4406   16.7030  -34.8693 H   0  0  0  0  0  0  0  0  0  0  0  0
   -5.5490   15.6970  -32.9680 H   0  0  0  0  0  0  0  0  0  0  0  0
   -2.1661   16.9453  -32.9171 H   0  0  0  0  0  0  0  0  0  0  0  0
   -0.5558   18.7906  -32.4113 H   0  0  0  0  0  0  0  0  0  0  0  0
   -1.2278   21.1603  -32.8241 H   0  0  0  0  0  0  0  0  0  0  0  0
   -5.0426   19.8990  -34.2456 H   0  0  0  0  0  0  0  0  0  0  0  0
   -9.9172   21.1407  -31.5442 H   0  0  0  0  0  0  0  0  0  0  0  0
   -9.0366   23.4569  -31.3044 H   0  0  0  0  0  0  0  0  0  0  0  0
   -3.4855   23.2876  -31.7576 H   0  0  0  0  0  0  0  0  0  0  0  0
   -2.0347   21.4118  -30.9945 H   0  0  0  0  0  0  0  0  0  0  0  0
   -1.9638   18.0231  -25.9762 H   0  0  0  0  0  0  0  0  0  0  0  0
  1  2  1  0
  2  3  1  0
  3  4  2  0
  4  5  1  0
  5  6  2  0
  6  7  1  0
  7  8  2  0
  8  9  1  0
  9 10  2  0
 10 11  1  0
 11 12  2  0
 11 13  2  0
 11 14  1  0
 14 15  1  0
 15 16  2  0
 16 17  1  0
 17 18  2  0
 18 19  1  0
 19 20  1  0
 20 21  1  0
 21 22  1  0
 22 23  1  0
 23 24  1  0
 23 25  1  0
 25 26  2  0
 26 27  1  0
 27 28  2  0
 28 29  1  0
 29 30  2  0
 18 31  1  0
 31 32  2  0
 10 33  1  0
 33 34  2  0
  6 35  1  0
 35 36  2  0
 36  3  1  0
 34  7  1  0
 32 15  1  0
 30 25  1  0
  1 37  1  0
  1 38  1  0
  1 39  1  0
  2 40  1  0
  4 41  1  0
  5 42  1  0
  8 43  1  0
  9 44  1  0
 14 45  1  0
 16 46  1  0
 17 47  1  0
 19 48  1  0
 19 49  1  0
 20 50  1  0
 20 51  1  0
 21 52  1  0
 22 53  1  0
 22 54  1  0
 23 55  1  6
 24 56  1  0
 26 57  1  0
 27 58  1  0
 28 59  1  0
 30 60  1  0
 31 61  1  0
 32 62  1  0
 33 63  1  0
 34 64  1  0
 36 65  1  0
M  END
>  <UniqueID>  (17) 
17

>  <SMILES>  (17) 
CNc1ccc(-c2ccc(S(=O)(=O)Nc3ccc(CCNC[C@H](O)c4cccnc4)cc3)cc2)nc1

>  <Energy>  (17) 
76.68907561118377

>  <Genealogy>  (17) 
CNc1ccc(-c2ccc(S(=O)(=O)Nc3ccc(CCNC[C@H](O)c4cccnc4)cc3)cc2)nc1 (chirality)
CNc1ccc(-c2ccc(S(=O)(=O)Nc3ccc(CCNC[C@H](O)c4cccnc4)cc3)cc2)nc1 (3D coordinates assigned)
CNc1ccc(-c2ccc(S(=O)(=O)Nc3ccc(CCNC[C@H](O)c4cccnc4)cc3)cc2)nc1 (optimized conformer: 76.68907561118377 kcal/mol)

>  <smiles>  (17) 
CNc1ccc(-c2ccc(S(=O)(=O)Nc3ccc(CCNCC(O)c4cccnc4)cc3)cc2)nc1

>  <score_type>  (17) 
oracle

>  <origin>  (17) 
adgpu

>  <m_score__min__energy>  (17) 
-9.8000000000000007

>  <m_primary>  (17) 
energy

$$$$
17:0
     RDKit          3D

 37 39  0  0  0  0  0  0  0  0999 V2000
   -2.9840   15.9540  -33.2560 N   0  0  0  0  0  0  0  0  0  0  0  0
   -3.9350   16.6130  -33.2210 C   0  0  0  0  0  0  0  0  0  0  0  0
   -5.1170   17.4330  -33.1750 C   0  0  0  0  0  0  0  0  0  0  0  0
   -5.2760   18.4860  -34.0840 C   0  0  0  0  0  0  0  0  0  0  0  0
   -6.4230   19.2850  -34.0400 C   0  0  0  0  0  0  0  0  0  0  0  0
   -7.4220   19.0370  -33.0840 C   0  0  0  0  0  0  0  0  0  0  0  0
   -8.6370   19.9200  -33.0040 C   0  0  0  0  0  0  0  0  0  0  0  0
   -9.0220   20.3550  -31.2700 S   0  0  0  0  0  0  0  0  0  0  0  0
   -7.7110   21.5710  -31.1270 C   0  0  0  0  0  0  0  0  0  0  0  0
   -7.9930   22.8000  -30.6290 N   0  0  0  0  0  0  0  0  0  0  0  0
   -7.0250   23.7380  -30.4800 C   0  0  0  0  0  0  0  0  0  0  0  0
   -7.3290   24.8700  -30.0180 O   0  0  0  0  0  0  0  0  0  0  0  0
   -5.7030   23.4400  -30.8400 C   0  0  0  0  0  0  0  0  0  0  0  0
   -4.6780   24.4560  -30.7300 C   0  0  0  0  0  0  0  0  0  0  0  0
   -3.8600   25.2690  -30.6430 N   0  0  0  0  0  0  0  0  0  0  0  0
   -5.4220   22.1550  -31.3520 C   0  0  0  0  0  0  0  0  0  0  0  0
   -4.0500   21.7510  -31.7470 C   0  0  0  0  0  0  0  0  0  0  0  0
   -3.7520   21.5110  -33.0990 C   0  0  0  0  0  0  0  0  0  0  0  0
   -2.4670   21.1110  -33.4760 C   0  0  0  0  0  0  0  0  0  0  0  0
   -1.4740   20.9390  -32.5080 C   0  0  0  0  0  0  0  0  0  0  0  0
   -1.7650   21.1630  -31.1610 C   0  0  0  0  0  0  0  0  0  0  0  0
   -3.0490   21.5620  -30.7780 C   0  0  0  0  0  0  0  0  0  0  0  0
   -6.4400   21.2580  -31.4950 N   0  0  0  0  0  0  0  0  0  0  0  0
   -7.2560   17.9820  -32.1710 C   0  0  0  0  0  0  0  0  0  0  0  0
   -6.1090   17.1830  -32.2190 C   0  0  0  0  0  0  0  0  0  0  0  0
   -4.4969   18.6853  -34.8345 H   0  0  0  0  0  0  0  0  0  0  0  0
   -6.5434   20.1108  -34.7567 H   0  0  0  0  0  0  0  0  0  0  0  0
   -8.4486   20.8427  -33.5725 H   0  0  0  0  0  0  0  0  0  0  0  0
   -9.4939   19.3741  -33.4257 H   0  0  0  0  0  0  0  0  0  0  0  0
   -4.5327   21.6384  -33.8633 H   0  0  0  0  0  0  0  0  0  0  0  0
   -2.2369   20.9313  -34.5365 H   0  0  0  0  0  0  0  0  0  0  0  0
   -0.4626   20.6270  -32.8074 H   0  0  0  0  0  0  0  0  0  0  0  0
   -0.9828   21.0253  -30.3999 H   0  0  0  0  0  0  0  0  0  0  0  0
   -3.2769   21.7286  -29.7148 H   0  0  0  0  0  0  0  0  0  0  0  0
   -6.2450   20.3000  -31.8660 H   0  0  0  0  0  0  0  0  0  0  0  0
   -8.0308   17.7837  -31.4158 H   0  0  0  0  0  0  0  0  0  0  0  0
   -5.9860   16.3562  -31.5040 H   0  0  0  0  0  0  0  0  0  0  0  0
  1  2  3  0
  2  3  1  0
  3  4  2  0
  4  5  1  0
  5  6  2  0
  6  7  1  0
  7  8  1  0
  8  9  1  0
  9 10  2  0
 10 11  1  0
 11 12  2  0
 11 13  1  0
 13 14  1  0
 14 15  3  0
 13 16  2  0
 16 17  1  0
 17 18  2  0
 18 19  1  0
 19 20  2  0
 20 21  1  0
 21 22  2  0
 16 23  1  0
  6 24  1  0
 24 25  2  0
 25  3  1  0
 23  9  1  0
 22 17  1  0
  4 26  1  0
  5 27  1  0
  7 28  1  0
  7 29  1  0
 18 30  1  0
 19 31  1  0
 20 32  1  0
 21 33  1  0
 22 34  1  0
 23 35  1  0
 24 36  1  0
 25 37  1  0
M  END
>  <UniqueID>  (18) 
18

>  <SMILES>  (18) 
N#Cc1ccc(CSc2nc(=O)c(C#N)c(-c3ccccc3)[nH]2)cc1

>  <Energy>  (18) 
41.82438035696848

>  <Genealogy>  (18) 
N#Cc1ccc(CSc2nc(=O)c(C#N)c(-c3ccccc3)[nH]2)cc1 (3D coordinates assigned)
N#Cc1ccc(CSc2nc(=O)c(C#N)c(-c3ccccc3)[nH]2)cc1 (optimized conformer: 41.82438035696848 kcal/mol)

>  <smiles>  (18) 
N#Cc1ccc(CSc2nc(=O)c(C#N)c(-c3ccccc3)[nH]2)cc1

>  <score_type>  (18) 
oracle

>  <origin>  (18) 
adgpu

>  <m_score__min__energy>  (18) 
-8.9700000000000006

>  <m_primary>  (18) 
energy

$$$$
18:0
     RDKit          3D

 52 55  0  0  1  0  0  0  0  0999 V2000
   -2.5000   16.0960  -34.9420 C   0  0  0  0  0  0  0  0  0  0  0  0
   -3.9020   16.0200  -34.9900 O   0  0  0  0  0  0  0  0  0  0  0  0
   -4.7240   16.9800  -34.3890 C   0  0  0  0  0  0  0  0  0  0  0  0
   -5.2670   17.9350  -35.2130 C   0  0  0  0  0  0  0  0  0  0  0  0
   -6.0770   18.8840  -34.6310 C   0  0  0  0  0  0  0  0  0  0  0  0
   -6.3530   18.8980  -33.2670 C   0  0  0  0  0  0  0  0  0  0  0  0
   -7.2140   19.8920  -32.6710 C   0  0  0  0  0  0  0  0  0  0  0  0
   -8.5820   19.6020  -32.6550 C   0  0  0  0  0  0  0  0  0  0  0  0
   -9.4870   20.4840  -32.0670 C   0  0  0  0  0  0  0  0  0  0  0  0
   -9.0330   21.6670  -31.4910 C   0  0  0  0  0  0  0  0  0  0  0  0
   -7.6720   21.9710  -31.5000 C   0  0  0  0  0  0  0  0  0  0  0  0
   -7.1920   23.1530  -30.9380 C   0  0  0  0  0  0  0  0  0  0  0  0
   -5.8540   23.4360  -30.9670 C   0  0  0  0  0  0  0  0  0  0  0  0
   -5.1480   24.8850  -30.2880 S   0  0  0  0  0  0  0  0  0  0  0  0
   -5.8690   25.1450  -28.9960 O   0  0  0  0  0  0  0  0  0  0  0  0
   -5.4110   26.0460  -31.2070 O   0  0  0  0  0  0  0  0  0  0  0  0
   -3.4820   24.6990  -30.0040 N   0  0  0  0  0  0  0  0  0  0  0  0
   -3.0120   23.7790  -29.2360 C   0  0  0  0  0  0  0  0  0  0  0  0
   -1.6290   23.6710  -29.0380 C   0  0  0  0  0  0  0  0  0  0  0  0
   -1.2270   22.6550  -28.2000 C   0  0  0  0  0  0  0  0  0  0  0  0
    0.2270   22.4720  -27.9410 C   0  0  0  0  0  0  0  0  0  0  0  0
   -2.0740   21.8060  -27.5950 N   0  0  0  0  0  0  0  0  0  0  0  0
   -3.3840   21.9760  -27.8360 C   0  0  0  0  0  0  0  0  0  0  0  0
   -3.8730   22.9380  -28.6390 N   0  0  0  0  0  0  0  0  0  0  0  0
   -4.9600   22.5390  -31.5610 C   0  0  0  0  0  0  0  0  0  0  0  0
   -5.4440   21.3700  -32.1170 C   0  0  0  0  0  0  0  0  0  0  0  0
   -6.7880   21.0650  -32.0970 C   0  0  0  0  0  0  0  0  0  0  0  0
   -5.7680   17.9000  -32.4970 C   0  0  0  0  0  0  0  0  0  0  0  0
   -4.9500   16.9290  -33.0210 C   0  0  0  0  0  0  0  0  0  0  0  0
   -4.3440   15.9230  -32.3240 O   0  0  0  0  0  0  0  0  0  0  0  0
   -4.6890   14.5810  -32.4460 C   0  0  0  0  0  0  0  0  0  0  0  0
   -2.1695   16.1139  -33.8930 H   0  0  0  0  0  0  0  0  0  0  0  0
   -2.0678   15.2200  -35.4477 H   0  0  0  0  0  0  0  0  0  0  0  0
   -2.1650   17.0136  -35.4477 H   0  0  0  0  0  0  0  0  0  0  0  0
   -5.0631   17.9415  -36.2939 H   0  0  0  0  0  0  0  0  0  0  0  0
   -6.5233   19.6612  -35.2688 H   0  0  0  0  0  0  0  0  0  0  0  0
   -8.9470   18.6696  -33.1105 H   0  0  0  0  0  0  0  0  0  0  0  0
  -10.5607   20.2450  -32.0582 H   0  0  0  0  0  0  0  0  0  0  0  0
   -9.7484   22.3628  -31.0283 H   0  0  0  0  0  0  0  0  0  0  0  0
   -7.8918   23.8607  -30.4695 H   0  0  0  0  0  0  0  0  0  0  0  0
   -0.9123   24.3523  -29.5198 H   0  0  0  0  0  0  0  0  0  0  0  0
    0.4062   22.4495  -26.8559 H   0  0  0  0  0  0  0  0  0  0  0  0
    0.5626   21.5245  -28.3878 H   0  0  0  0  0  0  0  0  0  0  0  0
    0.7869   23.3068  -28.3878 H   0  0  0  0  0  0  0  0  0  0  0  0
   -1.7780   21.0330  -26.9590 H   0  0  0  0  0  0  0  0  0  0  0  0
   -4.0955   21.2918  -27.3507 H   0  0  0  0  0  0  0  0  0  0  0  0
   -3.8831   22.7617  -31.5853 H   0  0  0  0  0  0  0  0  0  0  0  0
   -4.7404   20.6667  -32.5863 H   0  0  0  0  0  0  0  0  0  0  0  0
   -5.9698   17.8870  -31.4157 H   0  0  0  0  0  0  0  0  0  0  0  0
   -4.8026   14.1392  -31.4451 H   0  0  0  0  0  0  0  0  0  0  0  0
   -5.6385   14.4949  -32.9947 H   0  0  0  0  0  0  0  0  0  0  0  0
   -3.8988   14.0477  -32.9947 H   0  0  0  0  0  0  0  0  0  0  0  0
  1  2  1  0
  2  3  1  0
  3  4  2  0
  4  5  1  0
  5  6  2  0
  6  7  1  0
  7  8  2  0
  8  9  1  0
  9 10  2  0
 10 11  1  0
 11 12  2  0
 12 13  1  0
 13 14  1  0
 14 15  2  0
 14 16  2  0
 14 17  1  0
 17 18  2  0
 18 19  1  0
 19 20  2  0
 20 21  1  0
 20 22  1  0
 22 23  1  0
 23 24  2  0
 13 25  2  0
 25 26  1  0
 26 27  2  0
  6 28  1  0
 28 29  2  0
 29 30  1  0
 30 31  1  0
 29  3  1  0
 27  7  1  0
 27 11  1  0
 24 18  1  0
  1 32  1  0
  1 33  1  0
  1 34  1  0
  4 35  1  0
  5 36  1  0
  8 37  1  0
  9 38  1  0
 10 39  1  0
 12 40  1  0
 19 41  1  0
 21 42  1  0
 21 43  1  0
 21 44  1  0
 22 45  1  0
 23 46  1  0
 25 47  1  0
 26 48  1  0
 28 49  1  0
 31 50  1  0
 31 51  1  0
 31 52  1  0
M  END
>  <smiles>  (19) 
COc1ccc(-c2cccc3cc(S(=O)(=O)N=c4cc(C)[nH]cn4)ccc23)cc1OC

>  <score_type>  (19) 
oracle

>  <origin>  (19) 
adgpu

>  <m_score__min__energy>  (19) 
-11.050000000000001

>  <m_primary>  (19) 
energy

$$$$
19:0
     RDKit          3D

 54 57  0  0  0  0  0  0  0  0999 V2000
   -5.5840   26.4020  -30.4100 O   0  0  0  0  0  0  0  0  0  0  0  0
   -5.1990   25.2160  -30.5910 C   0  0  0  0  0  0  0  0  0  0  0  0
   -3.7960   24.9300  -30.5340 N   0  0  0  0  0  0  0  0  0  0  0  0
   -3.2000   23.6250  -30.4690 C   0  0  0  0  0  0  0  0  0  0  0  0
   -3.2900   22.7390  -31.5580 C   0  0  0  0  0  0  0  0  0  0  0  0
   -2.7160   21.4640  -31.4890 C   0  0  0  0  0  0  0  0  0  0  0  0
   -2.8230   20.3670  -32.8680 S   0  0  0  0  0  0  0  0  0  0  0  0
   -2.2850   19.0200  -32.4710 O   0  0  0  0  0  0  0  0  0  0  0  0
   -1.9680   20.8980  -33.9860 O   0  0  0  0  0  0  0  0  0  0  0  0
   -4.4710   20.1980  -33.4330 N   0  0  0  0  0  0  0  0  0  0  0  0
   -4.6350   18.9030  -34.1400 C   0  0  0  0  0  0  0  0  0  0  0  0
   -6.1110   18.5080  -34.2540 C   0  0  0  0  0  0  0  0  0  0  0  0
   -6.7380   18.3070  -32.8620 C   0  0  0  0  0  0  0  0  0  0  0  0
   -6.0230   19.1150  -31.7650 C   0  0  0  0  0  0  0  0  0  0  0  0
   -5.4460   20.4220  -32.3300 C   0  0  0  0  0  0  0  0  0  0  0  0
   -2.0460   21.0710  -30.3250 C   0  0  0  0  0  0  0  0  0  0  0  0
   -1.9280   21.9530  -29.2490 C   0  0  0  0  0  0  0  0  0  0  0  0
   -2.4860   23.2390  -29.3170 C   0  0  0  0  0  0  0  0  0  0  0  0
   -2.3400   24.1370  -28.2020 N   0  0  0  0  0  0  0  0  0  0  0  0
   -3.3160   24.0900  -27.1030 C   0  0  0  0  0  0  0  0  0  0  0  0
   -3.1650   25.3010  -26.1750 C   0  0  0  0  0  0  0  0  0  0  0  0
   -1.7190   25.4580  -25.6740 C   0  0  0  0  0  0  0  0  0  0  0  0
   -0.6480   25.1610  -26.7480 C   0  0  0  0  0  0  0  0  0  0  0  0
   -1.2280   25.0960  -28.1640 C   0  0  0  0  0  0  0  0  0  0  0  0
   -6.2010   24.1500  -30.7920 C   0  0  0  0  0  0  0  0  0  0  0  0
   -6.6960   23.8000  -32.0500 C   0  0  0  0  0  0  0  0  0  0  0  0
   -7.7910   22.5830  -31.7370 S   0  0  0  0  0  0  0  0  0  0  0  0
   -7.6340   22.5290  -30.0870 N   0  0  0  0  0  0  0  0  0  0  0  0
   -6.7340   23.4470  -29.7460 N   0  0  0  0  0  0  0  0  0  0  0  0
   -3.8163   23.0509  -32.4722 H   0  0  0  0  0  0  0  0  0  0  0  0
   -4.6130   20.9600  -34.1380 H   0  0  0  0  0  0  0  0  0  0  0  0
   -4.2096   18.9912  -35.1506 H   0  0  0  0  0  0  0  0  0  0  0  0
   -4.1136   18.1259  -33.5618 H   0  0  0  0  0  0  0  0  0  0  0  0
   -6.6564   19.3036  -34.7826 H   0  0  0  0  0  0  0  0  0  0  0  0
   -6.1782   17.5604  -34.8086 H   0  0  0  0  0  0  0  0  0  0  0  0
   -7.7909   18.6229  -32.9016 H   0  0  0  0  0  0  0  0  0  0  0  0
   -6.6416   17.2417  -32.6054 H   0  0  0  0  0  0  0  0  0  0  0  0
   -6.7425   19.3545  -30.9682 H   0  0  0  0  0  0  0  0  0  0  0  0
   -5.1948   18.5096  -31.3680 H   0  0  0  0  0  0  0  0  0  0  0  0
   -6.2753   21.0343  -32.7140 H   0  0  0  0  0  0  0  0  0  0  0  0
   -4.9087   20.9252  -31.5127 H   0  0  0  0  0  0  0  0  0  0  0  0
   -1.6105   20.0631  -30.2574 H   0  0  0  0  0  0  0  0  0  0  0  0
   -1.3935   21.6374  -28.3409 H   0  0  0  0  0  0  0  0  0  0  0  0
   -4.3318   24.0860  -27.5252 H   0  0  0  0  0  0  0  0  0  0  0  0
   -3.1361   23.1771  -26.5163 H   0  0  0  0  0  0  0  0  0  0  0  0
   -3.4522   26.2094  -26.7249 H   0  0  0  0  0  0  0  0  0  0  0  0
   -3.8154   25.1464  -25.3014 H   0  0  0  0  0  0  0  0  0  0  0  0
   -1.5833   26.4928  -25.3266 H   0  0  0  0  0  0  0  0  0  0  0  0
   -1.5779   24.7205  -24.8701 H   0  0  0  0  0  0  0  0  0  0  0  0
    0.1117   25.9559  -26.7157 H   0  0  0  0  0  0  0  0  0  0  0  0
   -0.2171   24.1746  -26.5215 H   0  0  0  0  0  0  0  0  0  0  0  0
   -1.5942   26.0917  -28.4548 H   0  0  0  0  0  0  0  0  0  0  0  0
   -0.4437   24.7710  -28.8635 H   0  0  0  0  0  0  0  0  0  0  0  0
   -6.4249   24.2297  -33.0256 H   0  0  0  0  0  0  0  0  0  0  0  0
  1  2  2  0
  2  3  1  0
  3  4  1  0
  4  5  2  0
  5  6  1  0
  6  7  1  0
  7  8  2  0
  7  9  2  0
  7 10  1  0
 10 11  1  0
 11 12  1  0
 12 13  1  0
 13 14  1  0
 14 15  1  0
  6 16  2  0
 16 17  1  0
 17 18  2  0
 18 19  1  0
 19 20  1  0
 20 21  1  0
 21 22  1  0
 22 23  1  0
 23 24  1  0
  2 25  1  0
 25 26  2  0
 26 27  1  0
 27 28  1  0
 28 29  2  0
 18  4  1  0
 24 19  1  0
 29 25  1  0
 15 10  1  0
  5 30  1  0
 10 31  1  0
 11 32  1  0
 11 33  1  0
 12 34  1  0
 12 35  1  0
 13 36  1  0
 13 37  1  0
 14 38  1  0
 14 39  1  0
 15 40  1  0
 15 41  1  0
 16 42  1  0
 17 43  1  0
 20 44  1  0
 20 45  1  0
 21 46  1  0
 21 47  1  0
 22 48  1  0
 22 49  1  0
 23 50  1  0
 23 51  1  0
 24 52  1  0
 24 53  1  0
 26 54  1  0
M  CHG  2   3  -1  10   1
M  END
>  <UniqueID>  (20) 
19

>  <SMILES>  (20) 
O=C([N-]c1cc(S(=O)(=O)[NH+]2CCCCC2)ccc1N1CCCCC1)c1csnn1

>  <Energy>  (20) 
106.70613729782212

>  <Genealogy>  (20) 
O=C([N-]c1cc(S(=O)(=O)[NH+]2CCCCC2)ccc1N1CCCCC1)c1csnn1 (protonated)
O=C([N-]c1cc(S(=O)(=O)[NH+]2CCCCC2)ccc1N1CCCCC1)c1csnn1 (3D coordinates assigned)
O=C([N-]c1cc(S(=O)(=O)[NH+]2CCCCC2)ccc1N1CCCCC1)c1csnn1 (nonaromatic ring conformer: 106.70613729782212 kcal/mol)

>  <smiles>  (20) 
O=C(Nc1cc(S(=O)(=O)N2CCCCC2)ccc1N1CCCCC1)c1csnn1

>  <score_type>  (20) 
oracle

>  <origin>  (20) 
adgpu

>  <m_score__min__energy>  (20) 
-10.76

>  <m_primary>  (20) 
energy

$$$$
20:0
     RDKit          3D

 28 29  0  0  0  0  0  0  0  0999 V2000
   -5.8870   20.7860  -33.4650 O   0  0  0  0  0  0  0  0  0  0  0  0
   -6.2350   21.2670  -32.3550 C   0  0  0  0  0  0  0  0  0  0  0  0
   -7.4480   20.8070  -31.7440 N   0  0  0  0  0  0  0  0  0  0  0  0
   -8.1430   19.5650  -32.0790 C   0  0  0  0  0  0  0  0  0  0  0  0
   -7.1620   18.4400  -32.2870 C   0  0  0  0  0  0  0  0  0  0  0  0
   -6.8250   18.0210  -33.5820 C   0  0  0  0  0  0  0  0  0  0  0  0
   -5.9380   16.9590  -33.7640 C   0  0  0  0  0  0  0  0  0  0  0  0
   -5.3900   16.3270  -32.6450 C   0  0  0  0  0  0  0  0  0  0  0  0
   -5.7180   16.7480  -31.3950 N   0  0  0  0  0  0  0  0  0  0  0  0
   -6.5800   17.7810  -31.1930 C   0  0  0  0  0  0  0  0  0  0  0  0
   -5.4110   22.3240  -31.7420 C   0  0  0  0  0  0  0  0  0  0  0  0
   -6.0410   23.4200  -31.1350 C   0  0  0  0  0  0  0  0  0  0  0  0
   -5.2820   24.4090  -30.5000 C   0  0  0  0  0  0  0  0  0  0  0  0
   -6.0950   25.7540  -29.7170 Cl  0  0  0  0  0  0  0  0  0  0  0  0
   -3.8840   24.3140  -30.4850 C   0  0  0  0  0  0  0  0  0  0  0  0
   -3.1200   25.2890  -29.8560 O   0  0  0  0  0  0  0  0  0  0  0  0
   -3.2510   23.2330  -31.1080 C   0  0  0  0  0  0  0  0  0  0  0  0
   -4.0080   22.2380  -31.7410 C   0  0  0  0  0  0  0  0  0  0  0  0
   -3.3700   21.1720  -32.3740 O   0  0  0  0  0  0  0  0  0  0  0  0
   -8.8251   19.3009  -31.2574 H   0  0  0  0  0  0  0  0  0  0  0  0
   -8.7062   19.7175  -33.0115 H   0  0  0  0  0  0  0  0  0  0  0  0
   -7.2600   18.5296  -34.4550 H   0  0  0  0  0  0  0  0  0  0  0  0
   -5.6732   16.6232  -34.7775 H   0  0  0  0  0  0  0  0  0  0  0  0
   -4.6918   15.4871  -32.7759 H   0  0  0  0  0  0  0  0  0  0  0  0
   -6.8217   18.1008  -30.1686 H   0  0  0  0  0  0  0  0  0  0  0  0
   -7.1377   23.5026  -31.1582 H   0  0  0  0  0  0  0  0  0  0  0  0
   -2.1532   23.1637  -31.1009 H   0  0  0  0  0  0  0  0  0  0  0  0
   -3.8830   20.5020  -32.9350 H   0  0  0  0  0  0  0  0  0  0  0  0
  1  2  2  0
  2  3  1  0
  3  4  1  0
  4  5  1  0
  5  6  2  0
  6  7  1  0
  7  8  2  0
  8  9  1  0
  9 10  2  0
  2 11  1  0
 11 12  2  0
 12 13  1  0
 13 14  1  0
 13 15  2  0
 15 16  1  0
 15 17  1  0
 17 18  2  0
 18 19  1  0
 10  5  1  0
 18 11  1  0
  4 20  1  0
  4 21  1  0
  6 22  1  0
  7 23  1  0
  8 24  1  0
 10 25  1  0
 12 26  1  0
 17 27  1  0
 19 28  1  0
M  CHG  2   3  -1  16  -1
M  END
>  <UniqueID>  (21) 
20

>  <SMILES>  (21) 
O=C([N-]Cc1cccnc1)c1cc(Cl)c([O-])cc1O

>  <Energy>  (21) 
32.7386068718234

>  <Genealogy>  (21) 
O=C([N-]Cc1cccnc1)c1cc(Cl)c([O-])cc1O (protonated)
O=C([N-]Cc1cccnc1)c1cc(Cl)c([O-])cc1O (3D coordinates assigned)
O=C([N-]Cc1cccnc1)c1cc(Cl)c([O-])cc1O (optimized conformer: 32.7386068718234 kcal/mol)

>  <smiles>  (21) 
O=C(NCc1cccnc1)c1cc(Cl)c(O)cc1O

>  <score_type>  (21) 
oracle

>  <origin>  (21) 
adgpu

>  <m_score__min__energy>  (21) 
-9.0399999999999991

>  <m_primary>  (21) 
energy

$$$$
21:0
     RDKit          3D

 51 54  0  0  0  0  0  0  0  0999 V2000
   -1.6070   26.5550  -29.3270 H   0  0  0  0  0  0  0  0  0  0  0  0
   -1.7790   25.6100  -28.9150 N   0  0  0  0  0  0  0  0  0  0  0  0
   -2.7300   24.8450  -29.3430 C   0  0  0  0  0  0  0  0  0  0  0  0
   -3.5290   25.2880  -30.3510 N   0  0  0  0  0  0  0  0  0  0  0  0
   -4.5530   24.5490  -30.8490 C   0  0  0  0  0  0  0  0  0  0  0  0
   -5.1751   24.9537  -31.6609 H   0  0  0  0  0  0  0  0  0  0  0  0
   -4.8220   23.2740  -30.3350 C   0  0  0  0  0  0  0  0  0  0  0  0
   -5.9480   22.4730  -30.8790 C   0  0  0  0  0  0  0  0  0  0  0  0
   -7.2160   22.9590  -30.7890 N   0  0  0  0  0  0  0  0  0  0  0  0
   -8.2770   22.2700  -31.2810 C   0  0  0  0  0  0  0  0  0  0  0  0
   -9.2913   22.6866  -31.1939 H   0  0  0  0  0  0  0  0  0  0  0  0
   -8.0870   21.0680  -31.8800 N   0  0  0  0  0  0  0  0  0  0  0  0
   -6.8440   20.5250  -32.0020 C   0  0  0  0  0  0  0  0  0  0  0  0
   -6.6870   19.2520  -32.6650 N   0  0  0  0  0  0  0  0  0  0  0  0
   -6.1070   19.1630  -34.0150 C   0  0  0  0  0  0  0  0  0  0  0  0
   -6.9192   19.0823  -34.7525 H   0  0  0  0  0  0  0  0  0  0  0  0
   -5.5091   20.0668  -34.2036 H   0  0  0  0  0  0  0  0  0  0  0  0
   -5.1950   17.9340  -34.1330 C   0  0  0  0  0  0  0  0  0  0  0  0
   -4.9473   17.7862  -35.1945 H   0  0  0  0  0  0  0  0  0  0  0  0
   -4.3053   18.1342  -33.5178 H   0  0  0  0  0  0  0  0  0  0  0  0
   -5.8390   16.6180  -33.5890 C   0  0  0  0  0  0  0  0  0  0  0  0
   -5.1433   16.2894  -32.8029 H   0  0  0  0  0  0  0  0  0  0  0  0
   -5.9160   15.5260  -34.5910 N   0  0  0  0  0  0  0  0  0  0  0  0
   -4.8560   14.5070  -34.5070 C   0  0  0  0  0  0  0  0  0  0  0  0
   -4.2218   14.5522  -35.4046 H   0  0  0  0  0  0  0  0  0  0  0  0
   -4.2229   14.6838  -33.6250 H   0  0  0  0  0  0  0  0  0  0  0  0
   -5.5250   13.1450  -34.4150 C   0  0  0  0  0  0  0  0  0  0  0  0
   -5.0040   12.4136  -35.0503 H   0  0  0  0  0  0  0  0  0  0  0  0
   -5.5053   12.7408  -33.3922 H   0  0  0  0  0  0  0  0  0  0  0  0
   -6.9330   13.3730  -34.9110 C   0  0  0  0  0  0  0  0  0  0  0  0
   -6.9988   13.1919  -35.9940 H   0  0  0  0  0  0  0  0  0  0  0  0
   -7.6594   12.6936  -34.4412 H   0  0  0  0  0  0  0  0  0  0  0  0
   -7.2110   14.8290  -34.5920 C   0  0  0  0  0  0  0  0  0  0  0  0
   -7.8726   15.2631  -35.3561 H   0  0  0  0  0  0  0  0  0  0  0  0
   -7.7098   14.9279  -33.6166 H   0  0  0  0  0  0  0  0  0  0  0  0
   -7.2210   16.8450  -32.9470 C   0  0  0  0  0  0  0  0  0  0  0  0
   -7.9599   17.0331  -33.7399 H   0  0  0  0  0  0  0  0  0  0  0  0
   -7.4936   15.9472  -32.3729 H   0  0  0  0  0  0  0  0  0  0  0  0
   -7.1910   18.0440  -31.9950 C   0  0  0  0  0  0  0  0  0  0  0  0
   -8.2109   18.2366  -31.6306 H   0  0  0  0  0  0  0  0  0  0  0  0
   -6.5154   17.8051  -31.1605 H   0  0  0  0  0  0  0  0  0  0  0  0
   -5.7380   21.2360  -31.5090 C   0  0  0  0  0  0  0  0  0  0  0  0
   -4.7214   20.8295  -31.6149 H   0  0  0  0  0  0  0  0  0  0  0  0
   -4.0170   22.7990  -29.2860 C   0  0  0  0  0  0  0  0  0  0  0  0
   -4.2195   21.8071  -28.8558 H   0  0  0  0  0  0  0  0  0  0  0  0
   -2.9620   23.5660  -28.7790 C   0  0  0  0  0  0  0  0  0  0  0  0
   -2.2100   22.9990  -27.7290 O   0  0  0  0  0  0  0  0  0  0  0  0
   -1.5360   21.7430  -27.7360 C   0  0  0  0  0  0  0  0  0  0  0  0
   -0.4505   21.9130  -27.7891 H   0  0  0  0  0  0  0  0  0  0  0  0
   -1.9380   20.9970  -28.8290 F   0  0  0  0  0  0  0  0  0  0  0  0
   -1.8620   21.0550  -26.5840 F   0  0  0  0  0  0  0  0  0  0  0  0
  1  2  1  0
  2  3  2  0
  3  4  1  0
  4  5  1  0
  5  6  1  0
  5  7  2  0
  7  8  1  0
  8  9  2  0
  9 10  1  0
 10 11  1  0
 10 12  2  0
 12 13  1  0
 13 14  1  0
 14 15  1  0
 15 16  1  0
 15 17  1  0
 15 18  1  0
 18 19  1  0
 18 20  1  0
 18 21  1  0
 21 22  1  0
 21 23  1  0
 23 24  1  0
 24 25  1  0
 24 26  1  0
 24 27  1  0
 27 28  1  0
 27 29  1  0
 27 30  1  0
 30 31  1  0
 30 32  1  0
 30 33  1  0
 33 34  1  0
 33 35  1  0
 21 36  1  0
 36 37  1  0
 36 38  1  0
 36 39  1  0
 39 40  1  0
 39 41  1  0
 13 42  2  0
 42 43  1  0
  7 44  1  0
 44 45  1  0
 44 46  2  0
 46 47  1  0
 47 48  1  0
 48 49  1  0
 48 50  1  0
 48 51  1  0
 46  3  1  0
 42  8  1  0
 39 14  1  0
 33 23  1  0
M  CHG  1   4  -1
M  END
>  <UniqueID>  (22) 
21

>  <SMILES>  (22) 
[H]/N=c1\[n-]cc(-c2cc(N3CCC(N4CCCC4)CC3)ncn2)cc1OC(F)F

>  <Energy>  (22) 
72.72756359957862

>  <Genealogy>  (22) 
N=c1[n-]cc(-c2cc(N3CCC(N4CCCC4)CC3)ncn2)cc1OC(F)F (protonated)
[H]/N=c1\[n-]cc(-c2cc(N3CCC(N4CCCC4)CC3)ncn2)cc1OC(F)F (cis-trans isomerization)
[H]/N=c1\[n-]cc(-c2cc(N3CCC(N4CCCC4)CC3)ncn2)cc1OC(F)F (3D coordinates assigned)
[H]/N=c1\[n-]cc(-c2cc(N3CCC(N4CCCC4)CC3)ncn2)cc1OC(F)F (nonaromatic ring conformer: 72.72756359957862 kcal/mol)

>  <smiles>  (22) 
N=c1[nH]cc(-c2cc(N3CCC(N4CCCC4)CC3)ncn2)cc1OC(F)F

>  <score_type>  (22) 
oracle

>  <origin>  (22) 
adgpu

>  <m_score__min__energy>  (22) 
-9.3399999999999999

>  <m_primary>  (22) 
energy

$$$$
22:0
     RDKit          3D

 43 45  0  0  0  0  0  0  0  0999 V2000
   -4.3420   25.6870  -30.8370 O   0  0  0  0  0  0  0  0  0  0  0  0
   -4.2420   24.3180  -30.2270 S   0  0  0  0  0  0  0  0  0  0  0  0
   -4.5380   24.4230  -28.7560 O   0  0  0  0  0  0  0  0  0  0  0  0
   -2.6330   23.7120  -30.4480 N   0  0  0  0  0  0  0  0  0  0  0  0
   -1.6400   23.5880  -29.4190 C   0  0  0  0  0  0  0  0  0  0  0  0
   -0.9500   22.3780  -29.2010 C   0  0  0  0  0  0  0  0  0  0  0  0
    0.0170   22.2870  -28.1950 C   0  0  0  0  0  0  0  0  0  0  0  0
    0.3030   23.3950  -27.3960 C   0  0  0  0  0  0  0  0  0  0  0  0
   -0.3780   24.5970  -27.5990 C   0  0  0  0  0  0  0  0  0  0  0  0
   -1.3470   24.7010  -28.6050 C   0  0  0  0  0  0  0  0  0  0  0  0
   -2.0060   25.9190  -28.7760 O   0  0  0  0  0  0  0  0  0  0  0  0
   -5.3940   23.2550  -31.0310 C   0  0  0  0  0  0  0  0  0  0  0  0
   -6.7660   23.5230  -30.9350 C   0  0  0  0  0  0  0  0  0  0  0  0
   -7.6890   22.6890  -31.5730 C   0  0  0  0  0  0  0  0  0  0  0  0
   -7.2480   21.5860  -32.3060 C   0  0  0  0  0  0  0  0  0  0  0  0
   -5.8760   21.3080  -32.4050 C   0  0  0  0  0  0  0  0  0  0  0  0
   -5.3180   19.9070  -33.3200 S   0  0  0  0  0  0  0  0  0  0  0  0
   -3.9170   20.1600  -33.8060 O   0  0  0  0  0  0  0  0  0  0  0  0
   -6.1970   19.7360  -34.5280 O   0  0  0  0  0  0  0  0  0  0  0  0
   -5.3460   18.4320  -32.3750 N   0  0  0  0  0  0  0  0  0  0  0  0
   -6.3190   18.4880  -31.2670 C   0  0  0  0  0  0  0  0  0  0  0  0
   -7.7630   18.1480  -31.7090 C   0  0  0  0  0  0  0  0  0  0  0  0
   -7.8420   17.6630  -33.0350 O   0  0  0  0  0  0  0  0  0  0  0  0
   -6.8930   16.6390  -33.2220 C   0  0  0  0  0  0  0  0  0  0  0  0
   -5.4680   17.2180  -33.2100 C   0  0  0  0  0  0  0  0  0  0  0  0
   -4.9520   22.1480  -31.7700 C   0  0  0  0  0  0  0  0  0  0  0  0
   -1.1736   21.5007  -29.8257 H   0  0  0  0  0  0  0  0  0  0  0  0
    0.5533   21.3403  -28.0331 H   0  0  0  0  0  0  0  0  0  0  0  0
    1.0651   23.3214  -26.6062 H   0  0  0  0  0  0  0  0  0  0  0  0
   -0.1522   25.4672  -26.9652 H   0  0  0  0  0  0  0  0  0  0  0  0
   -2.8440   26.0080  -29.3390 H   0  0  0  0  0  0  0  0  0  0  0  0
   -7.1172   24.3905  -30.3570 H   0  0  0  0  0  0  0  0  0  0  0  0
   -8.7654   22.9025  -31.4972 H   0  0  0  0  0  0  0  0  0  0  0  0
   -7.9777   20.9331  -32.8073 H   0  0  0  0  0  0  0  0  0  0  0  0
   -6.0110   17.7686  -30.4939 H   0  0  0  0  0  0  0  0  0  0  0  0
   -6.3264   19.5210  -30.8890 H   0  0  0  0  0  0  0  0  0  0  0  0
   -8.1638   17.3796  -31.0316 H   0  0  0  0  0  0  0  0  0  0  0  0
   -8.3447   19.0807  -31.6678 H   0  0  0  0  0  0  0  0  0  0  0  0
   -6.9912   15.9017  -32.4116 H   0  0  0  0  0  0  0  0  0  0  0  0
   -7.0742   16.1587  -34.1949 H   0  0  0  0  0  0  0  0  0  0  0  0
   -4.7817   16.4526  -32.8186 H   0  0  0  0  0  0  0  0  0  0  0  0
   -5.2190   17.5022  -34.2431 H   0  0  0  0  0  0  0  0  0  0  0  0
   -3.8752   21.9384  -31.8514 H   0  0  0  0  0  0  0  0  0  0  0  0
  1  2  2  0
  2  3  2  0
  2  4  1  0
  4  5  1  0
  5  6  2  0
  6  7  1  0
  7  8  2  0
  8  9  1  0
  9 10  2  0
 10 11  1  0
  2 12  1  0
 12 13  2  0
 13 14  1  0
 14 15  2  0
 15 16  1  0
 16 17  1  0
 17 18  2  0
 17 19  2  0
 17 20  1  0
 20 21  1  0
 21 22  1  0
 22 23  1  0
 23 24  1  0
 24 25  1  0
 16 26  2  0
 10  5  1  0
 26 12  1  0
 25 20  1  0
  6 27  1  0
  7 28  1  0
  8 29  1  0
  9 30  1  0
 11 31  1  0
 13 32  1  0
 14 33  1  0
 15 34  1  0
 21 35  1  0
 21 36  1  0
 22 37  1  0
 22 38  1  0
 24 39  1  0
 24 40  1  0
 25 41  1  0
 25 42  1  0
 26 43  1  0
M  CHG  1   4  -1
M  END
>  <UniqueID>  (23) 
22

>  <SMILES>  (23) 
O=S(=O)([N-]c1ccccc1O)c1cccc(S(=O)(=O)N2CCOCC2)c1

>  <Energy>  (23) 
58.26646688403446

>  <Genealogy>  (23) 
O=S(=O)([N-]c1ccccc1O)c1cccc(S(=O)(=O)N2CCOCC2)c1 (protonated)
O=S(=O)([N-]c1ccccc1O)c1cccc(S(=O)(=O)N2CCOCC2)c1 (3D coordinates assigned)
O=S(=O)([N-]c1ccccc1O)c1cccc(S(=O)(=O)N2CCOCC2)c1 (nonaromatic ring conformer: 58.26646688403446 kcal/mol)

>  <smiles>  (23) 
O=S(=O)(Nc1ccccc1O)c1cccc(S(=O)(=O)N2CCOCC2)c1

>  <score_type>  (23) 
oracle

>  <origin>  (23) 
adgpu

>  <m_score__min__energy>  (23) 
-10.859999999999999

>  <m_primary>  (23) 
energy

$$$$
23:0
     RDKit          3D

 74 78  0  0  0  0  0  0  0  0999 V2000
   -4.0530   14.4180  -32.0330 C   0  0  0  0  0  0  0  0  0  0  0  0
   -3.6290   14.0120  -33.3760 N   0  0  0  0  0  0  0  0  0  0  0  0
   -3.7610   12.6160  -33.8000 C   0  0  0  0  0  0  0  0  0  0  0  0
   -3.2630   15.0080  -34.3510 C   0  0  0  0  0  0  0  0  0  0  0  0
   -3.5850   14.8410  -35.5570 O   0  0  0  0  0  0  0  0  0  0  0  0
   -2.5100   16.2200  -33.9680 C   0  0  0  0  0  0  0  0  0  0  0  0
   -2.7760   17.4500  -34.5900 C   0  0  0  0  0  0  0  0  0  0  0  0
   -2.0760   18.5980  -34.2130 C   0  0  0  0  0  0  0  0  0  0  0  0
   -1.0890   18.5300  -33.2150 C   0  0  0  0  0  0  0  0  0  0  0  0
   -0.3420   19.6850  -32.8070 N   0  0  0  0  0  0  0  0  0  0  0  0
   -0.8120   20.7370  -31.9560 C   0  0  0  0  0  0  0  0  0  0  0  0
   -0.9390   21.8930  -32.4360 O   0  0  0  0  0  0  0  0  0  0  0  0
   -1.1710   20.5070  -30.5410 C   0  0  0  0  0  0  0  0  0  0  0  0
   -0.7550   19.4260  -29.7680 C   0  0  0  0  0  0  0  0  0  0  0  0
   -1.2430   19.5360  -28.5100 N   0  0  0  0  0  0  0  0  0  0  0  0
   -1.0160   18.6020  -27.4110 C   0  0  0  0  0  0  0  0  0  0  0  0
   -1.9560   20.6790  -28.4740 C   0  0  0  0  0  0  0  0  0  0  0  0
   -2.6180   21.2370  -27.3800 C   0  0  0  0  0  0  0  0  0  0  0  0
   -3.2390   22.4860  -27.5520 C   0  0  0  0  0  0  0  0  0  0  0  0
   -3.1720   23.1610  -28.7970 C   0  0  0  0  0  0  0  0  0  0  0  0
   -3.6640   24.4970  -28.9530 N   0  0  0  0  0  0  0  0  0  0  0  0
   -4.9810   24.9370  -29.9980 S   0  0  0  0  0  0  0  0  0  0  0  0
   -5.8930   25.8530  -29.2310 O   0  0  0  0  0  0  0  0  0  0  0  0
   -4.4820   25.6700  -31.2110 O   0  0  0  0  0  0  0  0  0  0  0  0
   -5.8830   23.5010  -30.4920 C   0  0  0  0  0  0  0  0  0  0  0  0
   -7.2010   23.3000  -30.0530 C   0  0  0  0  0  0  0  0  0  0  0  0
   -7.9150   22.1700  -30.4610 C   0  0  0  0  0  0  0  0  0  0  0  0
   -7.3210   21.2330  -31.3140 C   0  0  0  0  0  0  0  0  0  0  0  0
   -6.0070   21.4280  -31.7630 C   0  0  0  0  0  0  0  0  0  0  0  0
   -5.2260   20.2450  -32.8120 S   0  0  0  0  0  0  0  0  0  0  0  0
   -4.4180   19.3030  -31.9630 O   0  0  0  0  0  0  0  0  0  0  0  0
   -4.2790   20.9590  -33.7360 O   0  0  0  0  0  0  0  0  0  0  0  0
   -6.3760   19.3210  -33.7510 N   0  0  0  0  0  0  0  0  0  0  0  0
   -5.7290   18.3970  -34.7120 C   0  0  0  0  0  0  0  0  0  0  0  0
   -6.1970   16.9430  -34.5830 C   0  0  0  0  0  0  0  0  0  0  0  0
   -6.2140   16.5360  -33.1170 C   0  0  0  0  0  0  0  0  0  0  0  0
   -7.2070   17.3900  -32.3200 C   0  0  0  0  0  0  0  0  0  0  0  0
   -7.4930   18.7720  -32.9480 C   0  0  0  0  0  0  0  0  0  0  0  0
   -5.2950   22.5560  -31.3450 C   0  0  0  0  0  0  0  0  0  0  0  0
   -2.5240   22.5530  -29.8890 C   0  0  0  0  0  0  0  0  0  0  0  0
   -1.9290   21.3050  -29.6970 C   0  0  0  0  0  0  0  0  0  0  0  0
   -0.8460   17.3090  -32.5720 C   0  0  0  0  0  0  0  0  0  0  0  0
   -1.5530   16.1610  -32.9420 C   0  0  0  0  0  0  0  0  0  0  0  0
   -3.4727   13.8623  -31.2817 H   0  0  0  0  0  0  0  0  0  0  0  0
   -3.8811   15.4969  -31.9047 H   0  0  0  0  0  0  0  0  0  0  0  0
   -5.1234   14.1995  -31.9047 H   0  0  0  0  0  0  0  0  0  0  0  0
   -3.8223   11.9678  -32.9134 H   0  0  0  0  0  0  0  0  0  0  0  0
   -4.6741   12.5006  -34.4025 H   0  0  0  0  0  0  0  0  0  0  0  0
   -2.8858   12.3315  -34.4025 H   0  0  0  0  0  0  0  0  0  0  0  0
   -3.5402   17.5099  -35.3789 H   0  0  0  0  0  0  0  0  0  0  0  0
   -2.2981   19.5594  -34.6992 H   0  0  0  0  0  0  0  0  0  0  0  0
   -0.1214   18.6018  -30.1276 H   0  0  0  0  0  0  0  0  0  0  0  0
   -1.1434   19.1260  -26.4522 H   0  0  0  0  0  0  0  0  0  0  0  0
   -1.7396   17.7760  -27.4764 H   0  0  0  0  0  0  0  0  0  0  0  0
    0.0059   18.2003  -27.4764 H   0  0  0  0  0  0  0  0  0  0  0  0
   -2.6528   20.7152  -26.4122 H   0  0  0  0  0  0  0  0  0  0  0  0
   -3.7823   22.9443  -26.7125 H   0  0  0  0  0  0  0  0  0  0  0  0
   -7.6739   24.0350  -29.3850 H   0  0  0  0  0  0  0  0  0  0  0  0
   -8.9464   22.0167  -30.1108 H   0  0  0  0  0  0  0  0  0  0  0  0
   -7.8848   20.3437  -31.6322 H   0  0  0  0  0  0  0  0  0  0  0  0
   -5.9529   18.7443  -35.7314 H   0  0  0  0  0  0  0  0  0  0  0  0
   -4.6515   18.4076  -34.4908 H   0  0  0  0  0  0  0  0  0  0  0  0
   -7.2101   16.8469  -35.0006 H   0  0  0  0  0  0  0  0  0  0  0  0
   -5.5058   16.2884  -35.1340 H   0  0  0  0  0  0  0  0  0  0  0  0
   -6.5072   15.4785  -33.0408 H   0  0  0  0  0  0  0  0  0  0  0  0
   -5.2077   16.6884  -32.6998 H   0  0  0  0  0  0  0  0  0  0  0  0
   -8.1567   16.8396  -32.2481 H   0  0  0  0  0  0  0  0  0  0  0  0
   -6.7495   17.5758  -31.3371 H   0  0  0  0  0  0  0  0  0  0  0  0
   -8.3729   18.6778  -33.6014 H   0  0  0  0  0  0  0  0  0  0  0  0
   -7.6526   19.4699  -32.1129 H   0  0  0  0  0  0  0  0  0  0  0  0
   -4.2609   22.7041  -31.6894 H   0  0  0  0  0  0  0  0  0  0  0  0
   -2.4875   23.0495  -30.8699 H   0  0  0  0  0  0  0  0  0  0  0  0
   -0.0942   17.2533  -31.7710 H   0  0  0  0  0  0  0  0  0  0  0  0
   -1.3589   15.2082  -32.4276 H   0  0  0  0  0  0  0  0  0  0  0  0
  1  2  1  0
  2  3  1  0
  2  4  1  0
  4  5  2  0
  4  6  1  0
  6  7  2  0
  7  8  1  0
  8  9  2  0
  9 10  1  0
 10 11  1  0
 11 12  2  0
 11 13  1  0
 13 14  2  0
 14 15  1  0
 15 16  1  0
 15 17  1  0
 17 18  2  0
 18 19  1  0
 19 20  2  0
 20 21  1  0
 21 22  1  0
 22 23  2  0
 22 24  2  0
 22 25  1  0
 25 26  2  0
 26 27  1  0
 27 28  2  0
 28 29  1  0
 29 30  1  0
 30 31  2  0
 30 32  2  0
 30 33  1  0
 33 34  1  0
 34 35  1  0
 35 36  1  0
 36 37  1  0
 37 38  1  0
 29 39  2  0
 20 40  1  0
 40 41  2  0
  9 42  1  0
 42 43  2  0
 43  6  1  0
 41 13  1  0
 41 17  1  0
 39 25  1  0
 38 33  1  0
  1 44  1  0
  1 45  1  0
  1 46  1  0
  3 47  1  0
  3 48  1  0
  3 49  1  0
  7 50  1  0
  8 51  1  0
 14 52  1  0
 16 53  1  0
 16 54  1  0
 16 55  1  0
 18 56  1  0
 19 57  1  0
 26 58  1  0
 27 59  1  0
 28 60  1  0
 34 61  1  0
 34 62  1  0
 35 63  1  0
 35 64  1  0
 36 65  1  0
 36 66  1  0
 37 67  1  0
 37 68  1  0
 38 69  1  0
 38 70  1  0
 39 71  1  0
 40 72  1  0
 42 73  1  0
 43 74  1  0
M  CHG  2  10  -1  21  -1
M  END
>  <UniqueID>  (24) 
23

>  <SMILES>  (24) 
CN(C)C(=O)c1ccc([N-]C(=O)c2cn(C)c3ccc([N-]S(=O)(=O)c4cccc(S(=O)(=O)N5CCCCC5)c4)cc23)cc1

>  <Energy>  (24) 
133.16727978460207

>  <Genealogy>  (24) 
CN(C)C(=O)c1ccc([N-]C(=O)c2cn(C)c3ccc([N-]S(=O)(=O)c4cccc(S(=O)(=O)N5CCCCC5)c4)cc23)cc1 (protonated)
CN(C)C(=O)c1ccc([N-]C(=O)c2cn(C)c3ccc([N-]S(=O)(=O)c4cccc(S(=O)(=O)N5CCCCC5)c4)cc23)cc1 (3D coordinates assigned)
CN(C)C(=O)c1ccc([N-]C(=O)c2cn(C)c3ccc([N-]S(=O)(=O)c4cccc(S(=O)(=O)N5CCCCC5)c4)cc23)cc1 (nonaromatic ring conformer: 133.16727978460207 kcal/mol)

>  <smiles>  (24) 
CN(C)C(=O)c1ccc(NC(=O)c2cn(C)c3ccc(NS(=O)(=O)c4cccc(S(=O)(=O)N5CCCCC5)c4)cc23)cc1

>  <score_type>  (24) 
oracle

>  <origin>  (24) 
adgpu

>  <m_score__min__energy>  (24) 
-14.15

>  <m_primary>  (24) 
energy

$$$$
24:0
     RDKit          3D

 52 54  0  0  0  0  0  0  0  0999 V2000
   -7.0180   17.2100  -33.1130 C   0  0  0  0  0  0  0  0  0  0  0  0
   -7.2740   18.2410  -32.0980 N   0  0  0  0  0  0  0  0  0  0  0  0
   -6.0960   18.4020  -31.2360 C   0  0  0  0  0  0  0  0  0  0  0  0
   -7.6270   19.7590  -32.8850 S   0  0  0  0  0  0  0  0  0  0  0  0
   -6.8500   19.8620  -34.1680 O   0  0  0  0  0  0  0  0  0  0  0  0
   -9.0960   19.8420  -33.1960 O   0  0  0  0  0  0  0  0  0  0  0  0
   -7.1550   21.0950  -31.8380 C   0  0  0  0  0  0  0  0  0  0  0  0
   -8.0610   21.6410  -30.9190 C   0  0  0  0  0  0  0  0  0  0  0  0
   -7.6670   22.6920  -30.0870 C   0  0  0  0  0  0  0  0  0  0  0  0
   -6.3660   23.1950  -30.1600 C   0  0  0  0  0  0  0  0  0  0  0  0
   -5.4430   22.6410  -31.0660 C   0  0  0  0  0  0  0  0  0  0  0  0
   -4.0990   23.1310  -31.1650 N   0  0  0  0  0  0  0  0  0  0  0  0
   -3.4850   24.0710  -30.2730 C   0  0  0  0  0  0  0  0  0  0  0  0
   -3.6390   25.3020  -30.4880 O   0  0  0  0  0  0  0  0  0  0  0  0
   -2.6550   23.6340  -29.1280 C   0  0  0  0  0  0  0  0  0  0  0  0
   -2.7910   22.3230  -28.6430 C   0  0  0  0  0  0  0  0  0  0  0  0
   -1.9870   21.8670  -27.5900 C   0  0  0  0  0  0  0  0  0  0  0  0
   -2.1010   20.1950  -27.0480 S   0  0  0  0  0  0  0  0  0  0  0  0
   -1.6140   20.1000  -25.6290 O   0  0  0  0  0  0  0  0  0  0  0  0
   -3.5350   19.7430  -27.0930 O   0  0  0  0  0  0  0  0  0  0  0  0
   -1.1070   19.1930  -28.0740 N   0  0  0  0  0  0  0  0  0  0  0  0
   -0.4450   18.1380  -27.3070 C   0  0  0  0  0  0  0  0  0  0  0  0
    0.8260   17.7880  -28.0630 C   0  0  0  0  0  0  0  0  0  0  0  0
    1.1070   18.9870  -28.9560 C   0  0  0  0  0  0  0  0  0  0  0  0
   -0.0270   19.9650  -28.6890 C   0  0  0  0  0  0  0  0  0  0  0  0
   -1.0490   22.7280  -27.0100 C   0  0  0  0  0  0  0  0  0  0  0  0
   -0.9250   24.0410  -27.4670 C   0  0  0  0  0  0  0  0  0  0  0  0
   -1.7270   24.5040  -28.5190 C   0  0  0  0  0  0  0  0  0  0  0  0
   -1.6120   25.8260  -28.9480 O   0  0  0  0  0  0  0  0  0  0  0  0
   -5.8530   21.6090  -31.9180 C   0  0  0  0  0  0  0  0  0  0  0  0
   -6.7815   16.2574  -32.6165 H   0  0  0  0  0  0  0  0  0  0  0  0
   -7.9121   17.0839  -33.7412 H   0  0  0  0  0  0  0  0  0  0  0  0
   -6.1688   17.5168  -33.7412 H   0  0  0  0  0  0  0  0  0  0  0  0
   -6.4050   18.3598  -30.1811 H   0  0  0  0  0  0  0  0  0  0  0  0
   -5.3787   17.5935  -31.4406 H   0  0  0  0  0  0  0  0  0  0  0  0
   -5.6219   19.3733  -31.4406 H   0  0  0  0  0  0  0  0  0  0  0  0
   -9.0838   21.2416  -30.8525 H   0  0  0  0  0  0  0  0  0  0  0  0
   -8.3831   23.1244  -29.3727 H   0  0  0  0  0  0  0  0  0  0  0  0
   -6.0621   24.0267  -29.5073 H   0  0  0  0  0  0  0  0  0  0  0  0
   -3.5345   21.6489  -29.0933 H   0  0  0  0  0  0  0  0  0  0  0  0
   -0.1995   18.4991  -26.2974 H   0  0  0  0  0  0  0  0  0  0  0  0
   -1.0965   17.2587  -27.1954 H   0  0  0  0  0  0  0  0  0  0  0  0
    1.6585   17.6262  -27.3624 H   0  0  0  0  0  0  0  0  0  0  0  0
    0.7142   16.8613  -28.6450 H   0  0  0  0  0  0  0  0  0  0  0  0
    2.0752   19.4407  -28.6976 H   0  0  0  0  0  0  0  0  0  0  0  0
    1.1603   18.7027  -30.0173 H   0  0  0  0  0  0  0  0  0  0  0  0
    0.3091   20.7588  -28.0057 H   0  0  0  0  0  0  0  0  0  0  0  0
   -0.3630   20.4471  -29.6189 H   0  0  0  0  0  0  0  0  0  0  0  0
   -0.4075   22.3692  -26.1916 H   0  0  0  0  0  0  0  0  0  0  0  0
   -0.1936   24.7162  -26.9988 H   0  0  0  0  0  0  0  0  0  0  0  0
   -1.6120   26.0680  -29.9330 H   0  0  0  0  0  0  0  0  0  0  0  0
   -5.1484   21.1981  -32.6560 H   0  0  0  0  0  0  0  0  0  0  0  0
  1  2  1  0
  2  3  1  0
  2  4  1  0
  4  5  2  0
  4  6  2  0
  4  7  1  0
  7  8  2  0
  8  9  1  0
  9 10  2  0
 10 11  1  0
 11 12  1  0
 12 13  1  0
 13 14  2  0
 13 15  1  0
 15 16  2  0
 16 17  1  0
 17 18  1  0
 18 19  2  0
 18 20  2  0
 18 21  1  0
 21 22  1  0
 22 23  1  0
 23 24  1  0
 24 25  1  0
 17 26  2  0
 26 27  1  0
 27 28  2  0
 28 29  1  0
 11 30  2  0
 30  7  1  0
 28 15  1  0
 25 21  1  0
  1 31  1  0
  1 32  1  0
  1 33  1  0
  3 34  1  0
  3 35  1  0
  3 36  1  0
  8 37  1  0
  9 38  1  0
 10 39  1  0
 16 40  1  0
 22 41  1  0
 22 42  1  0
 23 43  1  0
 23 44  1  0
 24 45  1  0
 24 46  1  0
 25 47  1  0
 25 48  1  0
 26 49  1  0
 27 50  1  0
 29 51  1  0
 30 52  1  0
M  CHG  1  12  -1
M  END
>  <UniqueID>  (25) 
24

>  <SMILES>  (25) 
CN(C)S(=O)(=O)c1cccc([N-]C(=O)c2cc(S(=O)(=O)N3CCCC3)ccc2O)c1

>  <Energy>  (25) 
58.214753557389585

>  <Genealogy>  (25) 
CN(C)S(=O)(=O)c1cccc([N-]C(=O)c2cc(S(=O)(=O)N3CCCC3)ccc2O)c1 (protonated)
CN(C)S(=O)(=O)c1cccc([N-]C(=O)c2cc(S(=O)(=O)N3CCCC3)ccc2O)c1 (3D coordinates assigned)
CN(C)S(=O)(=O)c1cccc([N-]C(=O)c2cc(S(=O)(=O)N3CCCC3)ccc2O)c1 (nonaromatic ring conformer: 58.214753557389585 kcal/mol)

>  <smiles>  (25) 
CN(C)S(=O)(=O)c1cccc(NC(=O)c2cc(S(=O)(=O)N3CCCC3)ccc2O)c1

>  <score_type>  (25) 
oracle

>  <origin>  (25) 
adgpu

>  <m_score__min__energy>  (25) 
-11.720000000000001

>  <m_primary>  (25) 
energy

$$$$
25:0
     RDKit          3D

 41 43  0  0  0  0  0  0  0  0999 V2000
   -1.4810   22.7790  -30.0110 O   0  0  0  0  0  0  0  0  0  0  0  0
   -2.5560   23.2860  -29.5890 C   0  0  0  0  0  0  0  0  0  0  0  0
   -2.6010   23.8570  -28.2740 N   0  0  0  0  0  0  0  0  0  0  0  0
   -1.4990   24.4720  -27.5940 C   0  0  0  0  0  0  0  0  0  0  0  0
   -1.1260   23.9740  -26.3380 C   0  0  0  0  0  0  0  0  0  0  0  0
   -0.0630   24.5490  -25.6360 C   0  0  0  0  0  0  0  0  0  0  0  0
    0.6250   25.6390  -26.1750 C   0  0  0  0  0  0  0  0  0  0  0  0
    0.2390   26.1650  -27.4120 C   0  0  0  0  0  0  0  0  0  0  0  0
   -0.8290   25.5980  -28.1170 C   0  0  0  0  0  0  0  0  0  0  0  0
   -1.2330   26.1810  -29.3120 O   0  0  0  0  0  0  0  0  0  0  0  0
   -3.7870   23.2450  -30.4230 C   0  0  0  0  0  0  0  0  0  0  0  0
   -4.3140   22.0020  -30.8230 C   0  0  0  0  0  0  0  0  0  0  0  0
   -5.4610   21.9300  -31.6250 C   0  0  0  0  0  0  0  0  0  0  0  0
   -6.0840   20.3610  -32.1420 S   0  0  0  0  0  0  0  0  0  0  0  0
   -4.9960   19.3310  -32.0110 O   0  0  0  0  0  0  0  0  0  0  0  0
   -6.4610   20.4450  -33.5940 O   0  0  0  0  0  0  0  0  0  0  0  0
   -7.4780   19.8500  -31.2110 N   0  0  0  0  0  0  0  0  0  0  0  0
   -8.1900   18.7090  -31.8240 C   0  0  0  0  0  0  0  0  0  0  0  0
   -9.4740   19.1290  -32.5600 C   0  0  0  0  0  0  0  0  0  0  0  0
   -9.3460   20.4380  -33.0630 O   0  0  0  0  0  0  0  0  0  0  0  0
   -9.3370   21.3630  -31.9940 C   0  0  0  0  0  0  0  0  0  0  0  0
   -8.3630   20.9750  -30.8560 C   0  0  0  0  0  0  0  0  0  0  0  0
   -6.1060   23.1080  -32.0170 C   0  0  0  0  0  0  0  0  0  0  0  0
   -5.6010   24.3470  -31.6230 C   0  0  0  0  0  0  0  0  0  0  0  0
   -4.4500   24.4250  -30.8330 C   0  0  0  0  0  0  0  0  0  0  0  0
   -3.9790   25.6820  -30.4680 O   0  0  0  0  0  0  0  0  0  0  0  0
   -1.6734   23.1253  -25.9021 H   0  0  0  0  0  0  0  0  0  0  0  0
    0.2325   24.1427  -24.6574 H   0  0  0  0  0  0  0  0  0  0  0  0
    1.4692   26.0829  -25.6271 H   0  0  0  0  0  0  0  0  0  0  0  0
    0.7767   27.0276  -27.8325 H   0  0  0  0  0  0  0  0  0  0  0  0
   -3.8183   21.0742  -30.5014 H   0  0  0  0  0  0  0  0  0  0  0  0
   -7.5165   18.2211  -32.5440 H   0  0  0  0  0  0  0  0  0  0  0  0
   -8.4835   18.0284  -31.0112 H   0  0  0  0  0  0  0  0  0  0  0  0
   -9.6563   18.4362  -33.3948 H   0  0  0  0  0  0  0  0  0  0  0  0
  -10.3163   19.0993  -31.8531 H   0  0  0  0  0  0  0  0  0  0  0  0
   -9.0409   22.3470  -32.3865 H   0  0  0  0  0  0  0  0  0  0  0  0
  -10.3500   21.3749  -31.5654 H   0  0  0  0  0  0  0  0  0  0  0  0
   -7.7394   21.8487  -30.6157 H   0  0  0  0  0  0  0  0  0  0  0  0
   -8.9720   20.6553  -29.9976 H   0  0  0  0  0  0  0  0  0  0  0  0
   -7.0131   23.0569  -32.6371 H   0  0  0  0  0  0  0  0  0  0  0  0
   -6.1119   25.2695  -31.9360 H   0  0  0  0  0  0  0  0  0  0  0  0
  1  2  2  0
  2  3  1  0
  3  4  1  0
  4  5  2  0
  5  6  1  0
  6  7  2  0
  7  8  1  0
  8  9  2  0
  9 10  1  0
  2 11  1  0
 11 12  2  0
 12 13  1  0
 13 14  1  0
 14 15  2  0
 14 16  2  0
 14 17  1  0
 17 18  1  0
 18 19  1  0
 19 20  1  0
 20 21  1  0
 21 22  1  0
 13 23  2  0
 23 24  1  0
 24 25  2  0
 25 26  1  0
  9  4  1  0
 25 11  1  0
 22 17  1  0
  5 27  1  0
  6 28  1  0
  7 29  1  0
  8 30  1  0
 12 31  1  0
 18 32  1  0
 18 33  1  0
 19 34  1  0
 19 35  1  0
 21 36  1  0
 21 37  1  0
 22 38  1  0
 22 39  1  0
 23 40  1  0
 24 41  1  0
M  CHG  3   3  -1  10  -1  26  -1
M  END
>  <UniqueID>  (26) 
25

>  <SMILES>  (26) 
O=C([N-]c1ccccc1[O-])c1cc(S(=O)(=O)N2CCOCC2)ccc1[O-]

>  <Energy>  (26) 
61.295462549646416

>  <Genealogy>  (26) 
O=C([N-]c1ccccc1[O-])c1cc(S(=O)(=O)N2CCOCC2)ccc1[O-] (protonated)
O=C([N-]c1ccccc1[O-])c1cc(S(=O)(=O)N2CCOCC2)ccc1[O-] (3D coordinates assigned)
O=C([N-]c1ccccc1[O-])c1cc(S(=O)(=O)N2CCOCC2)ccc1[O-] (nonaromatic ring conformer: 61.295462549646416 kcal/mol)

>  <smiles>  (26) 
O=C(Nc1ccccc1O)c1cc(S(=O)(=O)N2CCOCC2)ccc1O

>  <score_type>  (26) 
oracle

>  <origin>  (26) 
adgpu

>  <m_score__min__energy>  (26) 
-15.119999999999999

>  <m_primary>  (26) 
energy

$$$$
26:0
     RDKit          3D

 63 67  0  0  0  0  0  0  0  0999 V2000
   -7.5370   23.4320  -32.7250 C   0  0  0  0  0  0  0  0  0  0  0  0
   -6.2750   23.2580  -31.9240 C   0  0  0  0  0  0  0  0  0  0  0  0
   -5.6000   24.3720  -31.5460 N   0  0  0  0  0  0  0  0  0  0  0  0
   -4.4670   24.3050  -30.8130 C   0  0  0  0  0  0  0  0  0  0  0  0
   -3.8880   25.3730  -30.4730 O   0  0  0  0  0  0  0  0  0  0  0  0
   -3.9540   23.0600  -30.4300 C   0  0  0  0  0  0  0  0  0  0  0  0
   -2.7230   22.9960  -29.6070 C   0  0  0  0  0  0  0  0  0  0  0  0
   -2.7830   23.3400  -28.2470 C   0  0  0  0  0  0  0  0  0  0  0  0
   -1.6390   23.2670  -27.4510 C   0  0  0  0  0  0  0  0  0  0  0  0
   -0.4260   22.8540  -28.0040 C   0  0  0  0  0  0  0  0  0  0  0  0
   -0.3540   22.5090  -29.3560 C   0  0  0  0  0  0  0  0  0  0  0  0
   -1.5030   22.5620  -30.1650 C   0  0  0  0  0  0  0  0  0  0  0  0
   -1.4440   22.2070  -31.5560 N   0  0  0  0  0  0  0  0  0  0  0  0
   -0.8110   21.0400  -32.1000 C   0  0  0  0  0  0  0  0  0  0  0  0
    0.4410   20.9330  -32.0030 O   0  0  0  0  0  0  0  0  0  0  0  0
   -1.5800   19.9930  -32.8140 C   0  0  0  0  0  0  0  0  0  0  0  0
   -1.1040   18.6710  -32.8540 C   0  0  0  0  0  0  0  0  0  0  0  0
   -1.8160   17.6810  -33.5380 C   0  0  0  0  0  0  0  0  0  0  0  0
   -3.0170   17.9970  -34.1880 C   0  0  0  0  0  0  0  0  0  0  0  0
   -3.9240   16.7610  -35.0560 S   0  0  0  0  0  0  0  0  0  0  0  0
   -3.1050   16.2740  -36.2200 O   0  0  0  0  0  0  0  0  0  0  0  0
   -5.2070   17.3480  -35.5780 O   0  0  0  0  0  0  0  0  0  0  0  0
   -4.3220   15.4130  -33.9940 C   0  0  0  0  0  0  0  0  0  0  0  0
   -4.6720   14.1710  -34.5430 C   0  0  0  0  0  0  0  0  0  0  0  0
   -5.0090   13.1020  -33.7090 C   0  0  0  0  0  0  0  0  0  0  0  0
   -5.0040   13.2690  -32.3190 C   0  0  0  0  0  0  0  0  0  0  0  0
   -5.4300   11.9280  -31.2720 Cl  0  0  0  0  0  0  0  0  0  0  0  0
   -4.6610   14.5070  -31.7670 C   0  0  0  0  0  0  0  0  0  0  0  0
   -4.3220   15.5790  -32.6010 C   0  0  0  0  0  0  0  0  0  0  0  0
   -3.4850   19.3170  -34.1670 C   0  0  0  0  0  0  0  0  0  0  0  0
   -2.7700   20.3090  -33.4920 C   0  0  0  0  0  0  0  0  0  0  0  0
   -4.6390   21.8940  -30.8480 C   0  0  0  0  0  0  0  0  0  0  0  0
   -4.1110   20.5230  -30.4650 C   0  0  0  0  0  0  0  0  0  0  0  0
   -5.8050   22.0170  -31.5710 N   0  0  0  0  0  0  0  0  0  0  0  0
   -6.5500   20.8430  -31.9510 C   0  0  0  0  0  0  0  0  0  0  0  0
   -6.0970   20.0320  -33.0020 C   0  0  0  0  0  0  0  0  0  0  0  0
   -6.8230   18.8960  -33.3730 C   0  0  0  0  0  0  0  0  0  0  0  0
   -8.0000   18.5650  -32.6950 C   0  0  0  0  0  0  0  0  0  0  0  0
   -8.4560   19.3710  -31.6470 C   0  0  0  0  0  0  0  0  0  0  0  0
   -7.7330   20.5090  -31.2750 C   0  0  0  0  0  0  0  0  0  0  0  0
   -8.3913   23.5498  -32.0422 H   0  0  0  0  0  0  0  0  0  0  0  0
   -7.4484   24.3264  -33.3592 H   0  0  0  0  0  0  0  0  0  0  0  0
   -7.6937   22.5470  -33.3592 H   0  0  0  0  0  0  0  0  0  0  0  0
   -3.7361   23.6685  -27.8069 H   0  0  0  0  0  0  0  0  0  0  0  0
   -1.6935   23.5355  -26.3857 H   0  0  0  0  0  0  0  0  0  0  0  0
    0.4745   22.8000  -27.3746 H   0  0  0  0  0  0  0  0  0  0  0  0
    0.6066   22.1943  -29.7899 H   0  0  0  0  0  0  0  0  0  0  0  0
   -0.1644   18.4134  -32.3434 H   0  0  0  0  0  0  0  0  0  0  0  0
   -1.4323   16.6505  -33.5661 H   0  0  0  0  0  0  0  0  0  0  0  0
   -4.6813   14.0379  -35.6349 H   0  0  0  0  0  0  0  0  0  0  0  0
   -5.2784   12.1286  -34.1447 H   0  0  0  0  0  0  0  0  0  0  0  0
   -4.6575   14.6389  -30.6749 H   0  0  0  0  0  0  0  0  0  0  0  0
   -4.0554   16.5525  -32.1637 H   0  0  0  0  0  0  0  0  0  0  0  0
   -4.4208   19.5738  -34.6850 H   0  0  0  0  0  0  0  0  0  0  0  0
   -3.1407   21.3446  -33.4910 H   0  0  0  0  0  0  0  0  0  0  0  0
   -4.0775   20.4360  -29.3690 H   0  0  0  0  0  0  0  0  0  0  0  0
   -4.7746   19.7470  -30.8743 H   0  0  0  0  0  0  0  0  0  0  0  0
   -3.0983   20.3926  -30.8743 H   0  0  0  0  0  0  0  0  0  0  0  0
   -5.1698   20.2899  -33.5348 H   0  0  0  0  0  0  0  0  0  0  0  0
   -6.4678   18.2623  -34.1990 H   0  0  0  0  0  0  0  0  0  0  0  0
   -8.5682   17.6693  -32.9863 H   0  0  0  0  0  0  0  0  0  0  0  0
   -9.3830   19.1100  -31.1154 H   0  0  0  0  0  0  0  0  0  0  0  0
   -8.0925   21.1431  -30.4512 H   0  0  0  0  0  0  0  0  0  0  0  0
  1  2  1  0
  2  3  2  0
  3  4  1  0
  4  5  2  0
  4  6  1  0
  6  7  1  0
  7  8  2  0
  8  9  1  0
  9 10  2  0
 10 11  1  0
 11 12  2  0
 12 13  1  0
 13 14  1  0
 14 15  2  0
 14 16  1  0
 16 17  2  0
 17 18  1  0
 18 19  2  0
 19 20  1  0
 20 21  2  0
 20 22  2  0
 20 23  1  0
 23 24  2  0
 24 25  1  0
 25 26  2  0
 26 27  1  0
 26 28  1  0
 28 29  2  0
 19 30  1  0
 30 31  2  0
  6 32  2  0
 32 33  1  0
 32 34  1  0
 34 35  1  0
 35 36  2  0
 36 37  1  0
 37 38  2  0
 38 39  1  0
 39 40  2  0
 34  2  1  0
 40 35  1  0
 12  7  1  0
 31 16  1  0
 29 23  1  0
  1 41  1  0
  1 42  1  0
  1 43  1  0
  8 44  1  0
  9 45  1  0
 10 46  1  0
 11 47  1  0
 17 48  1  0
 18 49  1  0
 24 50  1  0
 25 51  1  0
 28 52  1  0
 29 53  1  0
 30 54  1  0
 31 55  1  0
 33 56  1  0
 33 57  1  0
 33 58  1  0
 36 59  1  0
 37 60  1  0
 38 61  1  0
 39 62  1  0
 40 63  1  0
M  CHG  1  13  -1
M  END
>  <UniqueID>  (27) 
26

>  <SMILES>  (27) 
Cc1nc(=O)c(-c2ccccc2[N-]C(=O)c2ccc(S(=O)(=O)c3ccc(Cl)cc3)cc2)c(C)n1-c1ccccc1

>  <Energy>  (27) 
98.5754437774987

>  <Genealogy>  (27) 
Cc1nc(=O)c(-c2ccccc2[N-]C(=O)c2ccc(S(=O)(=O)c3ccc(Cl)cc3)cc2)c(C)n1-c1ccccc1 (protonated)
Cc1nc(=O)c(-c2ccccc2[N-]C(=O)c2ccc(S(=O)(=O)c3ccc(Cl)cc3)cc2)c(C)n1-c1ccccc1 (3D coordinates assigned)
Cc1nc(=O)c(-c2ccccc2[N-]C(=O)c2ccc(S(=O)(=O)c3ccc(Cl)cc3)cc2)c(C)n1-c1ccccc1 (optimized conformer: 98.5754437774987 kcal/mol)

>  <smiles>  (27) 
Cc1nc(=O)c(-c2ccccc2NC(=O)c2ccc(S(=O)(=O)c3ccc(Cl)cc3)cc2)c(C)n1-c1ccccc1

>  <score_type>  (27) 
oracle

>  <origin>  (27) 
adgpu

>  <m_score__min__energy>  (27) 
-13.039999999999999

>  <m_primary>  (27) 
energy

$$$$
27:0
     RDKit          3D

 50 53  0  0  0  0  0  0  0  0999 V2000
    1.5570   28.3000  -22.7080 C   0  0  0  0  0  0  0  0  0  0  0  0
    0.4140   28.1760  -23.5500 O   0  0  0  0  0  0  0  0  0  0  0  0
    0.2090   27.1230  -24.4540 C   0  0  0  0  0  0  0  0  0  0  0  0
   -1.0070   26.4190  -24.5280 C   0  0  0  0  0  0  0  0  0  0  0  0
   -1.1590   25.3710  -25.4400 C   0  0  0  0  0  0  0  0  0  0  0  0
   -0.1050   25.0100  -26.2970 C   0  0  0  0  0  0  0  0  0  0  0  0
   -0.2600   23.8970  -27.2620 C   0  0  0  0  0  0  0  0  0  0  0  0
    0.5540   22.9360  -27.2330 O   0  0  0  0  0  0  0  0  0  0  0  0
   -1.3450   23.8830  -28.2650 C   0  0  0  0  0  0  0  0  0  0  0  0
   -1.8120   24.9710  -28.9830 C   0  0  0  0  0  0  0  0  0  0  0  0
   -1.3720   26.2880  -28.9010 O   0  0  0  0  0  0  0  0  0  0  0  0
   -2.7930   24.5050  -29.8230 C   0  0  0  0  0  0  0  0  0  0  0  0
   -3.5290   25.2900  -30.7020 O   0  0  0  0  0  0  0  0  0  0  0  0
   -2.9660   23.1780  -29.6620 N   0  0  0  0  0  0  0  0  0  0  0  0
   -3.9700   22.3820  -30.3140 C   0  0  0  0  0  0  0  0  0  0  0  0
   -3.6120   21.2020  -30.9840 C   0  0  0  0  0  0  0  0  0  0  0  0
   -4.5850   20.4310  -31.6250 C   0  0  0  0  0  0  0  0  0  0  0  0
   -5.9300   20.8340  -31.6060 C   0  0  0  0  0  0  0  0  0  0  0  0
   -7.1680   19.8830  -32.4190 S   0  0  0  0  0  0  0  0  0  0  0  0
   -6.5760   19.3720  -33.9640 N   0  0  0  0  0  0  0  0  0  0  0  0
   -8.4120   20.7030  -32.6170 O   0  0  0  0  0  0  0  0  0  0  0  0
   -7.5000   18.6820  -31.5780 O   0  0  0  0  0  0  0  0  0  0  0  0
   -6.2890   22.0150  -30.9420 C   0  0  0  0  0  0  0  0  0  0  0  0
   -5.3150   22.7860  -30.3030 C   0  0  0  0  0  0  0  0  0  0  0  0
   -2.0830   22.7840  -28.7080 C   0  0  0  0  0  0  0  0  0  0  0  0
   -1.9380   21.3920  -28.2230 C   0  0  0  0  0  0  0  0  0  0  0  0
   -2.9440   20.7920  -27.4530 C   0  0  0  0  0  0  0  0  0  0  0  0
   -2.7830   19.4860  -26.9870 C   0  0  0  0  0  0  0  0  0  0  0  0
   -1.6180   18.7840  -27.3060 C   0  0  0  0  0  0  0  0  0  0  0  0
   -0.6500   19.3770  -28.0560 N   0  0  0  0  0  0  0  0  0  0  0  0
   -0.7820   20.6490  -28.5150 C   0  0  0  0  0  0  0  0  0  0  0  0
    1.1080   25.7110  -26.2150 C   0  0  0  0  0  0  0  0  0  0  0  0
    1.2580   26.7620  -25.3060 C   0  0  0  0  0  0  0  0  0  0  0  0
    1.2419   28.2658  -21.6547 H   0  0  0  0  0  0  0  0  0  0  0  0
    2.2526   27.4720  -22.9097 H   0  0  0  0  0  0  0  0  0  0  0  0
    2.0588   29.2579  -22.9097 H   0  0  0  0  0  0  0  0  0  0  0  0
   -1.8409   26.6945  -23.8657 H   0  0  0  0  0  0  0  0  0  0  0  0
   -2.1120   24.8237  -25.4876 H   0  0  0  0  0  0  0  0  0  0  0  0
   -1.2450   26.8580  -29.7280 H   0  0  0  0  0  0  0  0  0  0  0  0
   -2.5597   20.8824  -31.0046 H   0  0  0  0  0  0  0  0  0  0  0  0
   -4.2967   19.5060  -32.1458 H   0  0  0  0  0  0  0  0  0  0  0  0
   -7.2410   19.7420  -34.6790 H   0  0  0  0  0  0  0  0  0  0  0  0
   -7.3410   22.3358  -30.9240 H   0  0  0  0  0  0  0  0  0  0  0  0
   -5.6031   23.7146  -29.7884 H   0  0  0  0  0  0  0  0  0  0  0  0
   -3.8613   21.3509  -27.2157 H   0  0  0  0  0  0  0  0  0  0  0  0
   -3.5657   19.0143  -26.3747 H   0  0  0  0  0  0  0  0  0  0  0  0
   -1.4833   17.7517  -26.9508 H   0  0  0  0  0  0  0  0  0  0  0  0
    0.0202   21.0992  -29.1182 H   0  0  0  0  0  0  0  0  0  0  0  0
    1.9461   25.4315  -26.8703 H   0  0  0  0  0  0  0  0  0  0  0  0
    2.2103   27.3107  -25.2601 H   0  0  0  0  0  0  0  0  0  0  0  0
  1  2  1  0
  2  3  1  0
  3  4  2  0
  4  5  1  0
  5  6  2  0
  6  7  1  0
  7  8  2  0
  7  9  1  0
  9 10  1  0
 10 11  1  0
 10 12  2  0
 12 13  1  0
 12 14  1  0
 14 15  1  0
 15 16  2  0
 16 17  1  0
 17 18  2  0
 18 19  1  0
 19 20  1  0
 19 21  2  0
 19 22  2  0
 18 23  1  0
 23 24  2  0
 14 25  1  0
 25 26  1  0
 26 27  2  0
 27 28  1  0
 28 29  2  0
 29 30  1  0
 30 31  2  0
  6 32  1  0
 32 33  2  0
 33  3  1  0
 25  9  2  0
 31 26  1  0
 24 15  1  0
  1 34  1  0
  1 35  1  0
  1 36  1  0
  4 37  1  0
  5 38  1  0
 11 39  1  0
 16 40  1  0
 17 41  1  0
 20 42  1  0
 23 43  1  0
 24 44  1  0
 27 45  1  0
 28 46  1  0
 29 47  1  0
 31 48  1  0
 32 49  1  0
 33 50  1  0
M  CHG  2  13  -1  20  -1
M  END
>  <UniqueID>  (28) 
27

>  <SMILES>  (28) 
COc1ccc(C(=O)c2c(O)c([O-])n(-c3ccc(S([NH-])(=O)=O)cc3)c2-c2cccnc2)cc1

>  <Energy>  (28) 
98.7868464111191

>  <Genealogy>  (28) 
COc1ccc(C(=O)c2c(O)c([O-])n(-c3ccc(S([NH-])(=O)=O)cc3)c2-c2cccnc2)cc1 (protonated)
COc1ccc(C(=O)c2c(O)c([O-])n(-c3ccc(S([NH-])(=O)=O)cc3)c2-c2cccnc2)cc1 (3D coordinates assigned)
COc1ccc(C(=O)c2c(O)c([O-])n(-c3ccc(S([NH-])(=O)=O)cc3)c2-c2cccnc2)cc1 (optimized conformer: 98.7868464111191 kcal/mol)

>  <smiles>  (28) 
COc1ccc(C(=O)c2c(O)c(O)n(-c3ccc(S(N)(=O)=O)cc3)c2-c2cccnc2)cc1

>  <score_type>  (28) 
oracle

>  <origin>  (28) 
adgpu

>  <m_score__min__energy>  (28) 
-12.119999999999999

>  <m_primary>  (28) 
energy

$$$$
28:0
     RDKit          3D

 36 38  0  0  1  0  0  0  0  0999 V2000
   -7.8570   23.7990  -32.6110 N   0  0  0  0  0  0  0  0  0  0  0  0
   -6.8750   23.7530  -32.0100 C   0  0  0  0  0  0  0  0  0  0  0  0
   -5.6570   23.7030  -31.2440 C   0  0  0  0  0  0  0  0  0  0  0  0
   -4.6780   22.7530  -31.5300 C   0  0  0  0  0  0  0  0  0  0  0  0
   -4.9920   21.6280  -32.8530 S   0  0  0  0  0  0  0  0  0  0  0  0
   -6.2670   20.4750  -32.3760 C   0  0  0  0  0  0  0  0  0  0  0  0
   -5.9200   19.1790  -31.9950 C   0  0  0  0  0  0  0  0  0  0  0  0
   -6.8620   18.2460  -31.6160 C   0  0  0  0  0  0  0  0  0  0  0  0
   -8.2080   18.5730  -31.6050 C   0  0  0  0  0  0  0  0  0  0  0  0
   -8.5550   19.8650  -31.9840 C   0  0  0  0  0  0  0  0  0  0  0  0
   -7.6070   20.7940  -32.3620 C   0  0  0  0  0  0  0  0  0  0  0  0
   -3.5830   22.7750  -30.7750 N   0  0  0  0  0  0  0  0  0  0  0  0
   -3.3980   23.6630  -29.7720 C   0  0  0  0  0  0  0  0  0  0  0  0
   -2.3070   23.6120  -29.0930 N   0  0  0  0  0  0  0  0  0  0  0  0
   -2.1090   24.5370  -28.0460 C   0  0  0  0  0  0  0  0  0  0  0  0
   -1.1320   25.5040  -28.2130 C   0  0  0  0  0  0  0  0  0  0  0  0
   -0.8680   26.4540  -27.2370 C   0  0  0  0  0  0  0  0  0  0  0  0
   -1.5850   26.4670  -26.0420 C   0  0  0  0  0  0  0  0  0  0  0  0
   -2.5650   25.4880  -25.8920 C   0  0  0  0  0  0  0  0  0  0  0  0
   -2.8200   24.5460  -26.8700 C   0  0  0  0  0  0  0  0  0  0  0  0
   -4.3460   24.5870  -29.4930 N   0  0  0  0  0  0  0  0  0  0  0  0
   -5.4930   24.6240  -30.2230 C   0  0  0  0  0  0  0  0  0  0  0  0
   -6.4220   25.4870  -29.9900 N   0  0  0  0  0  0  0  0  0  0  0  0
   -4.8583   18.8912  -31.9969 H   0  0  0  0  0  0  0  0  0  0  0  0
   -6.5426   17.2357  -31.3205 H   0  0  0  0  0  0  0  0  0  0  0  0
   -8.9722   17.8395  -31.3082 H   0  0  0  0  0  0  0  0  0  0  0  0
   -9.6161   20.1551  -31.9825 H   0  0  0  0  0  0  0  0  0  0  0  0
   -7.9263   21.8046  -32.6566 H   0  0  0  0  0  0  0  0  0  0  0  0
   -2.8400   22.0720  -30.9750 H   0  0  0  0  0  0  0  0  0  0  0  0
   -0.5489   25.5194  -29.1456 H   0  0  0  0  0  0  0  0  0  0  0  0
   -0.0835   27.2058  -27.4084 H   0  0  0  0  0  0  0  0  0  0  0  0
   -1.3873   27.2121  -25.2573 H   0  0  0  0  0  0  0  0  0  0  0  0
   -3.1553   25.4643  -24.9641 H   0  0  0  0  0  0  0  0  0  0  0  0
   -3.6038   23.7920  -26.7049 H   0  0  0  0  0  0  0  0  0  0  0  0
   -4.2120   25.2740  -28.7230 H   0  0  0  0  0  0  0  0  0  0  0  0
   -6.2860   26.1810  -29.2120 H   0  0  0  0  0  0  0  0  0  0  0  0
  1  2  3  0
  2  3  1  0
  3  4  2  0
  4  5  1  0
  5  6  1  0
  6  7  2  0
  7  8  1  0
  8  9  2  0
  9 10  1  0
 10 11  2  0
  4 12  1  0
 12 13  1  0
 13 14  2  0
 14 15  1  0
 15 16  2  0
 16 17  1  0
 17 18  2  0
 18 19  1  0
 19 20  2  0
 13 21  1  0
 21 22  1  0
 22 23  2  3
 22  3  1  0
 11  6  1  0
 20 15  1  0
  7 24  1  0
  8 25  1  0
  9 26  1  0
 10 27  1  0
 11 28  1  0
 12 29  1  0
 16 30  1  0
 17 31  1  0
 18 32  1  0
 19 33  1  0
 20 34  1  0
 21 35  1  0
 23 36  1  0
M  END
>  <smiles>  (29) 
N#Cc1c(Sc2ccccc2)[nH]c(=Nc2ccccc2)[nH]c1=N

>  <score_type>  (29) 
oracle

>  <origin>  (29) 
adgpu

>  <m_score__min__energy>  (29) 
-8.4800000000000004

>  <m_primary>  (29) 
energy

$$$$
29:0
     RDKit          3D

 49 52  0  0  1  0  0  0  0  0999 V2000
    1.5100   22.9190  -36.0830 C   0  0  0  0  0  0  0  0  0  0  0  0
    0.3140   22.6320  -35.3450 N   0  0  0  0  0  0  0  0  0  0  0  0
    0.2300   20.9740  -34.9530 S   0  0  0  0  0  0  0  0  0  0  0  0
    1.4170   20.5750  -34.1040 O   0  0  0  0  0  0  0  0  0  0  0  0
    0.2560   20.2030  -36.2610 O   0  0  0  0  0  0  0  0  0  0  0  0
   -1.2450   20.5880  -34.1260 C   0  0  0  0  0  0  0  0  0  0  0  0
   -1.6360   19.2510  -34.0500 C   0  0  0  0  0  0  0  0  0  0  0  0
   -2.7920   18.8570  -33.4130 C   0  0  0  0  0  0  0  0  0  0  0  0
   -3.5940   19.8090  -32.8310 C   0  0  0  0  0  0  0  0  0  0  0  0
   -3.2350   21.1440  -32.8890 C   0  0  0  0  0  0  0  0  0  0  0  0
   -4.1050   22.0860  -32.2690 N   0  0  0  0  0  0  0  0  0  0  0  0
   -3.7390   22.6510  -31.1870 C   0  0  0  0  0  0  0  0  0  0  0  0
   -2.5430   22.3440  -30.6580 N   0  0  0  0  0  0  0  0  0  0  0  0
   -2.1250   22.9040  -29.5100 C   0  0  0  0  0  0  0  0  0  0  0  0
   -2.9020   23.7890  -28.8600 N   0  0  0  0  0  0  0  0  0  0  0  0
   -4.1130   24.1070  -29.3860 C   0  0  0  0  0  0  0  0  0  0  0  0
   -5.0860   24.9250  -28.9740 N   0  0  0  0  0  0  0  0  0  0  0  0
   -6.1010   24.8800  -29.8570 C   0  0  0  0  0  0  0  0  0  0  0  0
   -7.1770   25.5730  -29.7010 N   0  0  0  0  0  0  0  0  0  0  0  0
   -5.7960   24.0180  -30.8700 N   0  0  0  0  0  0  0  0  0  0  0  0
   -6.6660   23.7370  -31.9590 C   0  0  0  0  0  0  0  0  0  0  0  0
   -7.3340   22.4250  -31.8460 C   0  0  0  0  0  0  0  0  0  0  0  0
   -8.3750   22.1390  -30.9960 C   0  0  0  0  0  0  0  0  0  0  0  0
   -8.9740   20.8830  -30.9260 C   0  0  0  0  0  0  0  0  0  0  0  0
   -8.5410   19.8460  -31.7240 C   0  0  0  0  0  0  0  0  0  0  0  0
   -9.1020   18.5980  -31.6850 O   0  0  0  0  0  0  0  0  0  0  0  0
   -7.4980   20.1150  -32.5820 C   0  0  0  0  0  0  0  0  0  0  0  0
   -6.9040   21.3630  -32.6520 C   0  0  0  0  0  0  0  0  0  0  0  0
   -4.5730   23.5520  -30.5640 C   0  0  0  0  0  0  0  0  0  0  0  0
   -2.0670   21.5240  -33.5340 C   0  0  0  0  0  0  0  0  0  0  0  0
    2.3346   23.1169  -35.3824 H   0  0  0  0  0  0  0  0  0  0  0  0
    1.7659   22.0568  -36.7163 H   0  0  0  0  0  0  0  0  0  0  0  0
    1.3467   23.8035  -36.7163 H   0  0  0  0  0  0  0  0  0  0  0  0
   -0.5460   22.9700  -35.8450 H   0  0  0  0  0  0  0  0  0  0  0  0
   -0.9987   18.4845  -34.5151 H   0  0  0  0  0  0  0  0  0  0  0  0
   -3.0697   17.7935  -33.3707 H   0  0  0  0  0  0  0  0  0  0  0  0
   -4.5207   19.5100  -32.3194 H   0  0  0  0  0  0  0  0  0  0  0  0
   -1.1403   22.6367  -29.0989 H   0  0  0  0  0  0  0  0  0  0  0  0
   -2.5650   24.2260  -27.9530 H   0  0  0  0  0  0  0  0  0  0  0  0
   -4.9980   25.4860  -28.0850 H   0  0  0  0  0  0  0  0  0  0  0  0
   -7.2440   26.1790  -28.8610 H   0  0  0  0  0  0  0  0  0  0  0  0
   -7.4377   24.5198  -32.0010 H   0  0  0  0  0  0  0  0  0  0  0  0
   -6.0513   23.7135  -32.8709 H   0  0  0  0  0  0  0  0  0  0  0  0
   -8.7526   22.9380  -30.3410 H   0  0  0  0  0  0  0  0  0  0  0  0
   -9.8043   20.7166  -30.2239 H   0  0  0  0  0  0  0  0  0  0  0  0
   -9.4750   18.1320  -30.8900 H   0  0  0  0  0  0  0  0  0  0  0  0
   -7.1246   19.3111  -33.2334 H   0  0  0  0  0  0  0  0  0  0  0  0
   -6.0751   21.5248  -33.3568 H   0  0  0  0  0  0  0  0  0  0  0  0
   -1.7922   22.5884  -33.5739 H   0  0  0  0  0  0  0  0  0  0  0  0
  1  2  1  0
  2  3  1  0
  3  4  2  0
  3  5  2  0
  3  6  1  0
  6  7  2  0
  7  8  1  0
  8  9  2  0
  9 10  1  0
 10 11  1  0
 11 12  2  0
 12 13  1  0
 13 14  2  0
 14 15  1  0
 15 16  1  0
 16 17  1  0
 17 18  1  0
 18 19  2  3
 18 20  1  0
 20 21  1  0
 21 22  1  0
 22 23  2  0
 23 24  1  0
 24 25  2  0
 25 26  1  0
 25 27  1  0
 27 28  2  0
 20 29  1  0
 10 30  2  0
 30  6  1  0
 29 12  1  0
 29 16  2  0
 28 22  1  0
  1 31  1  0
  1 32  1  0
  1 33  1  0
  2 34  1  0
  7 35  1  0
  8 36  1  0
  9 37  1  0
 14 38  1  0
 15 39  1  0
 17 40  1  0
 19 41  1  0
 21 42  1  0
 21 43  1  0
 23 44  1  0
 24 45  1  0
 26 46  1  0
 27 47  1  0
 28 48  1  0
 30 49  1  0
M  END
>  <smiles>  (30) 
CNS(=O)(=O)c1cccc(N=c2nc[nH]c3[nH]c(=N)n(Cc4ccc(O)cc4)c23)c1

>  <score_type>  (30) 
oracle

>  <origin>  (30) 
adgpu

>  <m_score__min__energy>  (30) 
-9.4399999999999995

>  <m_primary>  (30) 
energy

$$$$
30:0
     RDKit          3D

 46 48  0  0  0  0  0  0  0  0999 V2000
   -8.5400   20.0640  -31.5140 C   0  0  0  0  0  0  0  0  0  0  0  0
   -7.5810   21.2250  -31.5420 C   0  0  0  0  0  0  0  0  0  0  0  0
   -7.9080   22.3590  -30.7820 C   0  0  0  0  0  0  0  0  0  0  0  0
   -7.0900   23.4820  -30.7840 C   0  0  0  0  0  0  0  0  0  0  0  0
   -5.9370   23.5140  -31.5740 C   0  0  0  0  0  0  0  0  0  0  0  0
   -5.0770   24.6650  -31.6010 N   0  0  0  0  0  0  0  0  0  0  0  0
   -4.7180   25.5010  -30.4920 C   0  0  0  0  0  0  0  0  0  0  0  0
   -5.4850   26.4240  -30.1090 O   0  0  0  0  0  0  0  0  0  0  0  0
   -3.4820   25.2960  -29.7990 N   0  0  0  0  0  0  0  0  0  0  0  0
   -3.0120   24.0530  -29.2570 C   0  0  0  0  0  0  0  0  0  0  0  0
   -3.8020   23.2720  -28.3920 C   0  0  0  0  0  0  0  0  0  0  0  0
   -3.3160   22.0540  -27.9040 C   0  0  0  0  0  0  0  0  0  0  0  0
   -2.0510   21.6010  -28.2850 C   0  0  0  0  0  0  0  0  0  0  0  0
   -1.2740   22.3600  -29.1650 C   0  0  0  0  0  0  0  0  0  0  0  0
   -1.7560   23.5770  -29.6550 C   0  0  0  0  0  0  0  0  0  0  0  0
   -5.5710   22.3840  -32.3200 C   0  0  0  0  0  0  0  0  0  0  0  0
   -4.4110   22.4780  -33.0980 O   0  0  0  0  0  0  0  0  0  0  0  0
   -6.3690   21.2090  -32.2890 C   0  0  0  0  0  0  0  0  0  0  0  0
   -5.8210   19.7660  -33.1900 S   0  0  0  0  0  0  0  0  0  0  0  0
   -6.1720   18.5450  -32.3850 O   0  0  0  0  0  0  0  0  0  0  0  0
   -6.4870   19.6290  -34.5300 O   0  0  0  0  0  0  0  0  0  0  0  0
   -4.0900   19.8530  -33.4010 N   0  0  0  0  0  0  0  0  0  0  0  0
   -3.6020   18.6310  -34.0560 C   0  0  0  0  0  0  0  0  0  0  0  0
   -2.0690   18.6970  -34.2260 C   0  0  0  0  0  0  0  0  0  0  0  0
   -1.5050   19.8250  -33.5790 O   0  0  0  0  0  0  0  0  0  0  0  0
   -1.9050   19.8470  -32.2230 C   0  0  0  0  0  0  0  0  0  0  0  0
   -3.4310   20.0310  -32.0970 C   0  0  0  0  0  0  0  0  0  0  0  0
   -8.7612   19.7962  -30.4703 H   0  0  0  0  0  0  0  0  0  0  0  0
   -9.4721   20.3459  -32.0256 H   0  0  0  0  0  0  0  0  0  0  0  0
   -8.0871   19.2019  -32.0256 H   0  0  0  0  0  0  0  0  0  0  0  0
   -8.8258   22.3585  -30.1757 H   0  0  0  0  0  0  0  0  0  0  0  0
   -7.3508   24.3502  -30.1610 H   0  0  0  0  0  0  0  0  0  0  0  0
   -4.8035   23.6201  -28.0992 H   0  0  0  0  0  0  0  0  0  0  0  0
   -3.9314   21.4522  -27.2191 H   0  0  0  0  0  0  0  0  0  0  0  0
   -1.6664   20.6479  -27.8930 H   0  0  0  0  0  0  0  0  0  0  0  0
   -0.2815   21.9988  -29.4724 H   0  0  0  0  0  0  0  0  0  0  0  0
   -1.1458   24.1642  -30.3570 H   0  0  0  0  0  0  0  0  0  0  0  0
   -4.2610   21.9710  -33.9580 H   0  0  0  0  0  0  0  0  0  0  0  0
   -3.8625   17.7585  -33.4389 H   0  0  0  0  0  0  0  0  0  0  0  0
   -4.0709   18.5416  -35.0470 H   0  0  0  0  0  0  0  0  0  0  0  0
   -1.6259   17.7855  -33.7984 H   0  0  0  0  0  0  0  0  0  0  0  0
   -1.8526   18.7821  -35.3011 H   0  0  0  0  0  0  0  0  0  0  0  0
   -1.6173   18.8974  -31.7481 H   0  0  0  0  0  0  0  0  0  0  0  0
   -1.4089   20.6938  -31.7262 H   0  0  0  0  0  0  0  0  0  0  0  0
   -3.8263   19.2877  -31.3890 H   0  0  0  0  0  0  0  0  0  0  0  0
   -3.6339   21.0502  -31.7364 H   0  0  0  0  0  0  0  0  0  0  0  0
  1  2  1  0
  2  3  2  0
  3  4  1  0
  4  5  2  0
  5  6  1  0
  6  7  1  0
  7  8  2  0
  7  9  1  0
  9 10  1  0
 10 11  2  0
 11 12  1  0
 12 13  2  0
 13 14  1  0
 14 15  2  0
  5 16  1  0
 16 17  1  0
 16 18  2  0
 18 19  1  0
 19 20  2  0
 19 21  2  0
 19 22  1  0
 22 23  1  0
 23 24  1  0
 24 25  1  0
 25 26  1  0
 26 27  1  0
 18  2  1  0
 27 22  1  0
 15 10  1  0
  1 28  1  0
  1 29  1  0
  1 30  1  0
  3 31  1  0
  4 32  1  0
 11 33  1  0
 12 34  1  0
 13 35  1  0
 14 36  1  0
 15 37  1  0
 17 38  1  0
 23 39  1  0
 23 40  1  0
 24 41  1  0
 24 42  1  0
 26 43  1  0
 26 44  1  0
 27 45  1  0
 27 46  1  0
M  CHG  2   6  -1   9  -1
M  END
>  <UniqueID>  (31) 
28

>  <SMILES>  (31) 
Cc1ccc([N-]C(=O)[N-]c2ccccc2)c(O)c1S(=O)(=O)N1CCOCC1

>  <Energy>  (31) 
67.7225705302193

>  <Genealogy>  (31) 
Cc1ccc([N-]C(=O)[N-]c2ccccc2)c(O)c1S(=O)(=O)N1CCOCC1 (protonated)
Cc1ccc([N-]C(=O)[N-]c2ccccc2)c(O)c1S(=O)(=O)N1CCOCC1 (3D coordinates assigned)
Cc1ccc([N-]C(=O)[N-]c2ccccc2)c(O)c1S(=O)(=O)N1CCOCC1 (nonaromatic ring conformer: 67.7225705302193 kcal/mol)

>  <smiles>  (31) 
Cc1ccc(NC(=O)Nc2ccccc2)c(O)c1S(=O)(=O)N1CCOCC1

>  <score_type>  (31) 
oracle

>  <origin>  (31) 
adgpu

>  <m_score__min__energy>  (31) 
-12.130000000000001

>  <m_primary>  (31) 
energy

$$$$
31:0
     RDKit          3D

 51 54  0  0  0  0  0  0  0  0999 V2000
   -6.8560   16.4990  -34.1830 C   0  0  0  0  0  0  0  0  0  0  0  0
   -5.9930   17.6260  -33.8250 N   0  0  0  0  0  0  0  0  0  0  0  0
   -6.5140   18.6330  -33.1190 N   0  0  0  0  0  0  0  0  0  0  0  0
   -5.7880   19.7230  -32.7490 C   0  0  0  0  0  0  0  0  0  0  0  0
   -6.4320   20.7870  -31.9350 C   0  0  0  0  0  0  0  0  0  0  0  0
   -7.8280   20.9740  -31.9420 C   0  0  0  0  0  0  0  0  0  0  0  0
   -8.4110   21.9780  -31.1660 C   0  0  0  0  0  0  0  0  0  0  0  0
   -7.6140   22.8130  -30.3820 C   0  0  0  0  0  0  0  0  0  0  0  0
   -6.2210   22.6550  -30.3680 C   0  0  0  0  0  0  0  0  0  0  0  0
   -5.4260   23.5170  -29.5340 N   0  0  0  0  0  0  0  0  0  0  0  0
   -4.1650   24.0930  -29.9250 C   0  0  0  0  0  0  0  0  0  0  0  0
   -3.6700   23.8520  -31.0590 O   0  0  0  0  0  0  0  0  0  0  0  0
   -3.4280   24.9170  -29.0120 N   0  0  0  0  0  0  0  0  0  0  0  0
   -2.1590   24.8260  -28.7270 C   0  0  0  0  0  0  0  0  0  0  0  0
   -1.5980   25.7750  -27.8640 C   0  0  0  0  0  0  0  0  0  0  0  0
   -0.2450   25.6870  -27.5200 C   0  0  0  0  0  0  0  0  0  0  0  0
    0.5200   24.6780  -28.0130 N   0  0  0  0  0  0  0  0  0  0  0  0
    0.0030   23.7330  -28.8420 C   0  0  0  0  0  0  0  0  0  0  0  0
   -1.3440   23.7810  -29.2100 C   0  0  0  0  0  0  0  0  0  0  0  0
   -5.6400   21.6200  -31.1230 C   0  0  0  0  0  0  0  0  0  0  0  0
   -4.4360   19.7820  -33.1080 C   0  0  0  0  0  0  0  0  0  0  0  0
   -3.8700   18.7320  -33.8320 C   0  0  0  0  0  0  0  0  0  0  0  0
   -2.4740   18.7780  -34.1740 N   0  0  0  0  0  0  0  0  0  0  0  0
   -1.7640   17.5590  -34.5650 C   0  0  0  0  0  0  0  0  0  0  0  0
   -0.2940   17.6670  -34.1460 C   0  0  0  0  0  0  0  0  0  0  0  0
    0.2770   18.8720  -34.6240 O   0  0  0  0  0  0  0  0  0  0  0  0
   -0.3490   19.9800  -34.0030 C   0  0  0  0  0  0  0  0  0  0  0  0
   -1.8240   20.0680  -34.4070 C   0  0  0  0  0  0  0  0  0  0  0  0
   -4.6770   17.6440  -34.1970 C   0  0  0  0  0  0  0  0  0  0  0  0
   -4.1910   16.6950  -34.8710 O   0  0  0  0  0  0  0  0  0  0  0  0
   -7.2263   16.0154  -33.2671 H   0  0  0  0  0  0  0  0  0  0  0  0
   -7.7081   16.8634  -34.7755 H   0  0  0  0  0  0  0  0  0  0  0  0
   -6.2820   15.7714  -34.7755 H   0  0  0  0  0  0  0  0  0  0  0  0
   -8.4631   20.3250  -32.5628 H   0  0  0  0  0  0  0  0  0  0  0  0
   -9.5029   22.1112  -31.1728 H   0  0  0  0  0  0  0  0  0  0  0  0
   -8.0813   23.5997  -29.7715 H   0  0  0  0  0  0  0  0  0  0  0  0
   -5.8190   23.7850  -28.6030 H   0  0  0  0  0  0  0  0  0  0  0  0
   -2.2190   26.5870  -27.4579 H   0  0  0  0  0  0  0  0  0  0  0  0
    0.2006   26.4362  -26.8490 H   0  0  0  0  0  0  0  0  0  0  0  0
    0.6473   22.9277  -29.2245 H   0  0  0  0  0  0  0  0  0  0  0  0
   -1.7657   23.0097  -29.8713 H   0  0  0  0  0  0  0  0  0  0  0  0
   -4.5527   21.4597  -31.0781 H   0  0  0  0  0  0  0  0  0  0  0  0
   -3.8242   20.6501  -32.8213 H   0  0  0  0  0  0  0  0  0  0  0  0
   -2.2239   16.6917  -34.0687 H   0  0  0  0  0  0  0  0  0  0  0  0
   -1.8258   17.4328  -35.6560 H   0  0  0  0  0  0  0  0  0  0  0  0
   -0.2294   17.6477  -33.0481 H   0  0  0  0  0  0  0  0  0  0  0  0
    0.2590   16.8192  -34.5765 H   0  0  0  0  0  0  0  0  0  0  0  0
   -0.2802   19.8677  -32.9109 H   0  0  0  0  0  0  0  0  0  0  0  0
    0.1606   20.8997  -34.3261 H   0  0  0  0  0  0  0  0  0  0  0  0
   -2.3226   20.8430  -33.8064 H   0  0  0  0  0  0  0  0  0  0  0  0
   -1.8960   20.3262  -35.4738 H   0  0  0  0  0  0  0  0  0  0  0  0
  1  2  1  0
  2  3  1  0
  3  4  2  0
  4  5  1  0
  5  6  2  0
  6  7  1  0
  7  8  2  0
  8  9  1  0
  9 10  1  0
 10 11  1  0
 11 12  2  0
 11 13  1  0
 13 14  2  3
 14 15  1  0
 15 16  2  0
 16 17  1  0
 17 18  1  0
 18 19  2  0
  9 20  2  0
  4 21  1  0
 21 22  2  0
 22 23  1  0
 23 24  1  0
 24 25  1  0
 25 26  1  0
 26 27  1  0
 27 28  1  0
 22 29  1  0
 29 30  2  0
 29  2  1  0
 20  5  1  0
 28 23  1  0
 19 14  1  0
  1 31  1  0
  1 32  1  0
  1 33  1  0
  6 34  1  0
  7 35  1  0
  8 36  1  0
 10 37  1  0
 15 38  1  0
 16 39  1  0
 18 40  1  0
 19 41  1  0
 20 42  1  0
 21 43  1  0
 24 44  1  0
 24 45  1  0
 25 46  1  0
 25 47  1  0
 27 48  1  0
 27 49  1  0
 28 50  1  0
 28 51  1  0
M  CHG  1  17  -1
M  END
>  <UniqueID>  (32) 
29

>  <SMILES>  (32) 
Cn1nc(-c2cccc(NC(=O)N=c3cc[n-]cc3)c2)cc(N2CCOCC2)c1=O

>  <Energy>  (32) 
79.37519187970865

>  <Genealogy>  (32) 
Cn1nc(-c2cccc(NC(=O)N=c3cc[n-]cc3)c2)cc(N2CCOCC2)c1=O (protonated)
Cn1nc(-c2cccc(NC(=O)N=c3cc[n-]cc3)c2)cc(N2CCOCC2)c1=O (3D coordinates assigned)
Cn1nc(-c2cccc(NC(=O)N=c3cc[n-]cc3)c2)cc(N2CCOCC2)c1=O (nonaromatic ring conformer: 79.37519187970865 kcal/mol)

>  <smiles>  (32) 
Cn1nc(-c2cccc(NC(=O)N=c3cc[nH]cc3)c2)cc(N2CCOCC2)c1=O

>  <score_type>  (32) 
oracle

>  <origin>  (32) 
adgpu

>  <m_score__min__energy>  (32) 
-9.8699999999999992

>  <m_primary>  (32) 
energy

$$$$
32:0
     RDKit          3D

 55 58  0  0  0  0  0  0  0  0999 V2000
   -5.5120   26.0460  -30.4160 O   0  0  0  0  0  0  0  0  0  0  0  0
   -5.0500   24.8970  -30.6580 C   0  0  0  0  0  0  0  0  0  0  0  0
   -5.4300   24.2190  -31.8620 N   0  0  0  0  0  0  0  0  0  0  0  0
   -5.8350   22.8450  -31.9540 C   0  0  0  0  0  0  0  0  0  0  0  0
   -7.2000   22.5460  -32.0420 C   0  0  0  0  0  0  0  0  0  0  0  0
   -7.6330   21.2150  -32.0600 C   0  0  0  0  0  0  0  0  0  0  0  0
   -6.7040   20.1710  -31.9740 C   0  0  0  0  0  0  0  0  0  0  0  0
   -7.2620   18.5000  -31.9840 S   0  0  0  0  0  0  0  0  0  0  0  0
   -6.5350   17.7180  -30.9240 O   0  0  0  0  0  0  0  0  0  0  0  0
   -8.7310   18.4870  -31.6640 O   0  0  0  0  0  0  0  0  0  0  0  0
   -6.9800   17.8070  -33.5690 N   0  0  0  0  0  0  0  0  0  0  0  0
   -6.1030   18.6620  -34.3980 C   0  0  0  0  0  0  0  0  0  0  0  0
   -4.6380   18.1860  -34.4040 C   0  0  0  0  0  0  0  0  0  0  0  0
   -4.3140   17.5810  -33.1730 O   0  0  0  0  0  0  0  0  0  0  0  0
   -5.0040   16.3510  -33.0370 C   0  0  0  0  0  0  0  0  0  0  0  0
   -6.4870   16.4200  -33.4770 C   0  0  0  0  0  0  0  0  0  0  0  0
   -5.3370   20.4650  -31.8810 C   0  0  0  0  0  0  0  0  0  0  0  0
   -4.9050   21.7930  -31.8640 C   0  0  0  0  0  0  0  0  0  0  0  0
   -4.1240   24.2520  -29.6980 C   0  0  0  0  0  0  0  0  0  0  0  0
   -4.6180   23.3820  -28.7100 C   0  0  0  0  0  0  0  0  0  0  0  0
   -3.7600   22.8410  -27.7500 C   0  0  0  0  0  0  0  0  0  0  0  0
   -2.4010   23.1590  -27.7640 C   0  0  0  0  0  0  0  0  0  0  0  0
   -1.8830   24.0070  -28.7590 C   0  0  0  0  0  0  0  0  0  0  0  0
   -0.4930   24.3480  -28.8250 N   0  0  0  0  0  0  0  0  0  0  0  0
    0.5940   24.4050  -27.4770 S   0  0  0  0  0  0  0  0  0  0  0  0
    0.8010   23.0100  -26.9540 O   0  0  0  0  0  0  0  0  0  0  0  0
    1.9210   24.9480  -27.9350 O   0  0  0  0  0  0  0  0  0  0  0  0
   -0.0920   25.3950  -26.1910 C   0  0  0  0  0  0  0  0  0  0  0  0
   -0.7170   26.6200  -26.4810 C   0  0  0  0  0  0  0  0  0  0  0  0
   -1.2680   27.3890  -25.4510 C   0  0  0  0  0  0  0  0  0  0  0  0
   -1.1920   26.9430  -24.1270 C   0  0  0  0  0  0  0  0  0  0  0  0
   -0.5660   25.7270  -23.8330 C   0  0  0  0  0  0  0  0  0  0  0  0
   -0.0210   24.9520  -24.8620 C   0  0  0  0  0  0  0  0  0  0  0  0
   -2.7480   24.5440  -29.7220 C   0  0  0  0  0  0  0  0  0  0  0  0
   -7.9361   23.3615  -32.0973 H   0  0  0  0  0  0  0  0  0  0  0  0
   -8.7063   20.9886  -32.1420 H   0  0  0  0  0  0  0  0  0  0  0  0
   -6.4794   18.6539  -35.4316 H   0  0  0  0  0  0  0  0  0  0  0  0
   -6.1210   19.6731  -33.9651 H   0  0  0  0  0  0  0  0  0  0  0  0
   -4.4971   17.4562  -35.2149 H   0  0  0  0  0  0  0  0  0  0  0  0
   -3.9808   19.0543  -34.5593 H   0  0  0  0  0  0  0  0  0  0  0  0
   -4.4934   15.5959  -33.6527 H   0  0  0  0  0  0  0  0  0  0  0  0
   -4.9965   16.0936  -31.9676 H   0  0  0  0  0  0  0  0  0  0  0  0
   -6.5858   15.9434  -34.4635 H   0  0  0  0  0  0  0  0  0  0  0  0
   -7.0879   15.8992  -32.7170 H   0  0  0  0  0  0  0  0  0  0  0  0
   -4.6027   19.6481  -31.8213 H   0  0  0  0  0  0  0  0  0  0  0  0
   -3.8315   22.0178  -31.7798 H   0  0  0  0  0  0  0  0  0  0  0  0
   -5.6876   23.1257  -28.6931 H   0  0  0  0  0  0  0  0  0  0  0  0
   -4.1564   22.1622  -26.9805 H   0  0  0  0  0  0  0  0  0  0  0  0
   -1.7331   22.7450  -26.9943 H   0  0  0  0  0  0  0  0  0  0  0  0
   -0.7729   26.9748  -27.5207 H   0  0  0  0  0  0  0  0  0  0  0  0
   -1.7613   28.3447  -25.6818 H   0  0  0  0  0  0  0  0  0  0  0  0
   -1.6246   27.5487  -23.3171 H   0  0  0  0  0  0  0  0  0  0  0  0
   -0.5023   25.3798  -22.7912 H   0  0  0  0  0  0  0  0  0  0  0  0
    0.4644   23.9929  -24.6285 H   0  0  0  0  0  0  0  0  0  0  0  0
   -2.3460   25.2021  -30.5065 H   0  0  0  0  0  0  0  0  0  0  0  0
  1  2  2  0
  2  3  1  0
  3  4  1  0
  4  5  2  0
  5  6  1  0
  6  7  2  0
  7  8  1  0
  8  9  2  0
  8 10  2  0
  8 11  1  0
 11 12  1  0
 12 13  1  0
 13 14  1  0
 14 15  1  0
 15 16  1  0
  7 17  1  0
 17 18  2  0
  2 19  1  0
 19 20  2  0
 20 21  1  0
 21 22  2  0
 22 23  1  0
 23 24  1  0
 24 25  1  0
 25 26  2  0
 25 27  2  0
 25 28  1  0
 28 29  2  0
 29 30  1  0
 30 31  2  0
 31 32  1  0
 32 33  2  0
 23 34  2  0
 18  4  1  0
 34 19  1  0
 16 11  1  0
 33 28  1  0
  5 35  1  0
  6 36  1  0
 12 37  1  0
 12 38  1  0
 13 39  1  0
 13 40  1  0
 15 41  1  0
 15 42  1  0
 16 43  1  0
 16 44  1  0
 17 45  1  0
 18 46  1  0
 20 47  1  0
 21 48  1  0
 22 49  1  0
 29 50  1  0
 30 51  1  0
 31 52  1  0
 32 53  1  0
 33 54  1  0
 34 55  1  0
M  CHG  2   3  -1  24  -1
M  END
>  <UniqueID>  (33) 
30

>  <SMILES>  (33) 
O=C([N-]c1ccc(S(=O)(=O)N2CCOCC2)cc1)c1cccc([N-]S(=O)(=O)c2ccccc2)c1

>  <Energy>  (33) 
78.25963567715813

>  <Genealogy>  (33) 
O=C([N-]c1ccc(S(=O)(=O)N2CCOCC2)cc1)c1cccc([N-]S(=O)(=O)c2ccccc2)c1 (protonated)
O=C([N-]c1ccc(S(=O)(=O)N2CCOCC2)cc1)c1cccc([N-]S(=O)(=O)c2ccccc2)c1 (3D coordinates assigned)
O=C([N-]c1ccc(S(=O)(=O)N2CCOCC2)cc1)c1cccc([N-]S(=O)(=O)c2ccccc2)c1 (nonaromatic ring conformer: 78.25963567715813 kcal/mol)

>  <smiles>  (33) 
O=C(Nc1ccc(S(=O)(=O)N2CCOCC2)cc1)c1cccc(NS(=O)(=O)c2ccccc2)c1

>  <score_type>  (33) 
oracle

>  <origin>  (33) 
adgpu

>  <m_score__min__energy>  (33) 
-12.199999999999999

>  <m_primary>  (33) 
energy

$$$$
33:0
     RDKit          3D

 56 59  0  0  0  0  0  0  0  0999 V2000
   -5.7280   26.1500  -30.0850 O   0  0  0  0  0  0  0  0  0  0  0  0
   -5.0710   25.1380  -30.4460 C   0  0  0  0  0  0  0  0  0  0  0  0
   -3.6380   25.2290  -30.4860 N   0  0  0  0  0  0  0  0  0  0  0  0
   -2.7140   24.4090  -29.7550 C   0  0  0  0  0  0  0  0  0  0  0  0
   -2.8170   23.0060  -29.7520 C   0  0  0  0  0  0  0  0  0  0  0  0
   -1.9080   22.2270  -29.0240 C   0  0  0  0  0  0  0  0  0  0  0  0
   -2.0400   20.4680  -29.0390 S   0  0  0  0  0  0  0  0  0  0  0  0
   -0.9050   19.8830  -28.2450 O   0  0  0  0  0  0  0  0  0  0  0  0
   -3.3220   20.0740  -28.3620 O   0  0  0  0  0  0  0  0  0  0  0  0
   -2.0200   19.8050  -30.6610 N   0  0  0  0  0  0  0  0  0  0  0  0
   -0.6890   19.3040  -31.0510 C   0  0  0  0  0  0  0  0  0  0  0  0
    0.2530   20.4190  -31.5650 C   0  0  0  0  0  0  0  0  0  0  0  0
   -0.3990   21.6580  -31.7560 O   0  0  0  0  0  0  0  0  0  0  0  0
   -1.5800   21.4630  -32.4990 C   0  0  0  0  0  0  0  0  0  0  0  0
   -2.6250   20.7130  -31.6570 C   0  0  0  0  0  0  0  0  0  0  0  0
   -0.8970   22.8540  -28.2850 C   0  0  0  0  0  0  0  0  0  0  0  0
   -0.8080   24.2480  -28.2590 C   0  0  0  0  0  0  0  0  0  0  0  0
   -1.7140   25.0240  -28.9870 C   0  0  0  0  0  0  0  0  0  0  0  0
   -1.6110   26.4110  -28.9540 O   0  0  0  0  0  0  0  0  0  0  0  0
   -5.7930   23.9120  -30.8570 C   0  0  0  0  0  0  0  0  0  0  0  0
   -5.3540   23.1510  -31.9530 C   0  0  0  0  0  0  0  0  0  0  0  0
   -6.0240   21.9810  -32.3160 C   0  0  0  0  0  0  0  0  0  0  0  0
   -7.1440   21.5560  -31.5900 C   0  0  0  0  0  0  0  0  0  0  0  0
   -7.9980   20.0830  -32.0390 S   0  0  0  0  0  0  0  0  0  0  0  0
   -9.0180   20.4110  -33.0930 O   0  0  0  0  0  0  0  0  0  0  0  0
   -8.7130   19.5220  -30.8390 O   0  0  0  0  0  0  0  0  0  0  0  0
   -6.8580   18.9230  -32.6710 N   0  0  0  0  0  0  0  0  0  0  0  0
   -6.3620   19.3310  -33.9850 C   0  0  0  0  0  0  0  0  0  0  0  0
   -4.9960   18.6860  -34.1420 C   0  0  0  0  0  0  0  0  0  0  0  0
   -4.5130   18.4270  -32.7230 C   0  0  0  0  0  0  0  0  0  0  0  0
   -5.6730   18.8200  -31.8190 C   0  0  0  0  0  0  0  0  0  0  0  0
   -7.6040   22.3270  -30.5140 C   0  0  0  0  0  0  0  0  0  0  0  0
   -6.9360   23.5000  -30.1530 C   0  0  0  0  0  0  0  0  0  0  0  0
   -3.6177   22.5166  -30.3259 H   0  0  0  0  0  0  0  0  0  0  0  0
   -0.2234   18.8287  -30.1750 H   0  0  0  0  0  0  0  0  0  0  0  0
   -0.8356   18.5922  -31.8767 H   0  0  0  0  0  0  0  0  0  0  0  0
    1.0608   20.5590  -30.8317 H   0  0  0  0  0  0  0  0  0  0  0  0
    0.6341   20.0970  -32.5454 H   0  0  0  0  0  0  0  0  0  0  0  0
   -1.9874   22.4408  -32.7954 H   0  0  0  0  0  0  0  0  0  0  0  0
   -1.3452   20.8650  -33.3919 H   0  0  0  0  0  0  0  0  0  0  0  0
   -3.2441   21.4519  -31.1272 H   0  0  0  0  0  0  0  0  0  0  0  0
   -3.2210   20.0960  -32.3455 H   0  0  0  0  0  0  0  0  0  0  0  0
   -0.1712   22.2474  -27.7236 H   0  0  0  0  0  0  0  0  0  0  0  0
   -0.0224   24.7363  -27.6637 H   0  0  0  0  0  0  0  0  0  0  0  0
   -4.4763   23.4790  -32.5293 H   0  0  0  0  0  0  0  0  0  0  0  0
   -5.6712   21.3911  -33.1748 H   0  0  0  0  0  0  0  0  0  0  0  0
   -7.0423   18.9802  -34.7750 H   0  0  0  0  0  0  0  0  0  0  0  0
   -6.2997   20.4261  -34.0673 H   0  0  0  0  0  0  0  0  0  0  0  0
   -5.0769   17.7418  -34.7005 H   0  0  0  0  0  0  0  0  0  0  0  0
   -4.3002   19.3271  -34.7030 H   0  0  0  0  0  0  0  0  0  0  0  0
   -4.2651   17.3636  -32.5896 H   0  0  0  0  0  0  0  0  0  0  0  0
   -3.6033   19.0003  -32.4911 H   0  0  0  0  0  0  0  0  0  0  0  0
   -5.8278   18.0524  -31.0465 H   0  0  0  0  0  0  0  0  0  0  0  0
   -5.4700   19.7732  -31.3089 H   0  0  0  0  0  0  0  0  0  0  0  0
   -8.4939   22.0077  -29.9517 H   0  0  0  0  0  0  0  0  0  0  0  0
   -7.3077   24.1043  -29.3123 H   0  0  0  0  0  0  0  0  0  0  0  0
  1  2  2  0
  2  3  1  0
  3  4  1  0
  4  5  2  0
  5  6  1  0
  6  7  1  0
  7  8  2  0
  7  9  2  0
  7 10  1  0
 10 11  1  0
 11 12  1  0
 12 13  1  0
 13 14  1  0
 14 15  1  0
  6 16  2  0
 16 17  1  0
 17 18  2  0
 18 19  1  0
  2 20  1  0
 20 21  2  0
 21 22  1  0
 22 23  2  0
 23 24  1  0
 24 25  2  0
 24 26  2  0
 24 27  1  0
 27 28  1  0
 28 29  1  0
 29 30  1  0
 30 31  1  0
 23 32  1  0
 32 33  2  0
 18  4  1  0
 33 20  1  0
 15 10  1  0
 31 27  1  0
  5 34  1  0
 11 35  1  0
 11 36  1  0
 12 37  1  0
 12 38  1  0
 14 39  1  0
 14 40  1  0
 15 41  1  0
 15 42  1  0
 16 43  1  0
 17 44  1  0
 21 45  1  0
 22 46  1  0
 28 47  1  0
 28 48  1  0
 29 49  1  0
 29 50  1  0
 30 51  1  0
 30 52  1  0
 31 53  1  0
 31 54  1  0
 32 55  1  0
 33 56  1  0
M  CHG  2   3  -1  19  -1
M  END
>  <UniqueID>  (34) 
31

>  <SMILES>  (34) 
O=C([N-]c1cc(S(=O)(=O)N2CCOCC2)ccc1[O-])c1ccc(S(=O)(=O)N2CCCC2)cc1

>  <Energy>  (34) 
75.5381767309336

>  <Genealogy>  (34) 
O=C([N-]c1cc(S(=O)(=O)N2CCOCC2)ccc1[O-])c1ccc(S(=O)(=O)N2CCCC2)cc1 (protonated)
O=C([N-]c1cc(S(=O)(=O)N2CCOCC2)ccc1[O-])c1ccc(S(=O)(=O)N2CCCC2)cc1 (3D coordinates assigned)
O=C([N-]c1cc(S(=O)(=O)N2CCOCC2)ccc1[O-])c1ccc(S(=O)(=O)N2CCCC2)cc1 (nonaromatic ring conformer: 75.5381767309336 kcal/mol)

>  <smiles>  (34) 
O=C(Nc1cc(S(=O)(=O)N2CCOCC2)ccc1O)c1ccc(S(=O)(=O)N2CCCC2)cc1

>  <score_type>  (34) 
oracle

>  <origin>  (34) 
adgpu

>  <m_score__min__energy>  (34) 
-15.43

>  <m_primary>  (34) 
energy

$$$$
34:0
     RDKit          3D

 53 55  0  0  0  0  0  0  0  0999 V2000
   -1.5830   27.1620  -24.1110 N   0  0  0  0  0  0  0  0  0  0  0  0
   -0.5480   26.1750  -24.2070 C   0  0  0  0  0  0  0  0  0  0  0  0
    0.4310   26.1900  -23.3520 N   0  0  0  0  0  0  0  0  0  0  0  0
   -0.6100   25.1420  -25.2710 C   0  0  0  0  0  0  0  0  0  0  0  0
   -1.7990   24.9140  -25.9860 C   0  0  0  0  0  0  0  0  0  0  0  0
   -1.8490   23.9370  -26.9850 C   0  0  0  0  0  0  0  0  0  0  0  0
   -0.7200   23.1600  -27.2780 C   0  0  0  0  0  0  0  0  0  0  0  0
   -0.7930   22.1770  -28.3250 N   0  0  0  0  0  0  0  0  0  0  0  0
   -1.5320   20.9520  -28.2320 C   0  0  0  0  0  0  0  0  0  0  0  0
   -2.3720   20.7810  -27.3070 O   0  0  0  0  0  0  0  0  0  0  0  0
   -1.3750   19.9640  -29.2580 N   0  0  0  0  0  0  0  0  0  0  0  0
   -0.8730   20.1860  -30.5860 C   0  0  0  0  0  0  0  0  0  0  0  0
    0.0040   19.2750  -31.2030 C   0  0  0  0  0  0  0  0  0  0  0  0
    0.5100   19.5250  -32.4900 C   0  0  0  0  0  0  0  0  0  0  0  0
    1.4060   18.5160  -33.1640 C   0  0  0  0  0  0  0  0  0  0  0  0
    1.2170   18.5380  -34.5350 F   0  0  0  0  0  0  0  0  0  0  0  0
    1.1350   17.2360  -32.7110 F   0  0  0  0  0  0  0  0  0  0  0  0
    2.7250   18.8230  -32.8850 F   0  0  0  0  0  0  0  0  0  0  0  0
    0.0950   20.6800  -33.1730 C   0  0  0  0  0  0  0  0  0  0  0  0
   -0.7540   21.5990  -32.5550 C   0  0  0  0  0  0  0  0  0  0  0  0
   -1.2210   21.3730  -31.2490 C   0  0  0  0  0  0  0  0  0  0  0  0
   -2.0800   22.2810  -30.6110 O   0  0  0  0  0  0  0  0  0  0  0  0
   -3.4530   22.4220  -30.8640 C   0  0  0  0  0  0  0  0  0  0  0  0
   -4.2540   21.3270  -31.2320 C   0  0  0  0  0  0  0  0  0  0  0  0
   -5.6160   21.5040  -31.4920 C   0  0  0  0  0  0  0  0  0  0  0  0
   -6.1970   22.7800  -31.4060 C   0  0  0  0  0  0  0  0  0  0  0  0
   -7.6460   22.9600  -31.6790 C   0  0  0  0  0  0  0  0  0  0  0  0
   -8.6160   22.3650  -30.8070 N   0  0  0  0  0  0  0  0  0  0  0  0
   -8.0470   23.6470  -32.7080 N   0  0  0  0  0  0  0  0  0  0  0  0
   -5.3890   23.8750  -31.0550 C   0  0  0  0  0  0  0  0  0  0  0  0
   -4.0270   23.6970  -30.7920 C   0  0  0  0  0  0  0  0  0  0  0  0
   -3.2450   24.7940  -30.4490 O   0  0  0  0  0  0  0  0  0  0  0  0
    0.4760   23.4010  -26.5790 C   0  0  0  0  0  0  0  0  0  0  0  0
    0.5260   24.3760  -25.5790 C   0  0  0  0  0  0  0  0  0  0  0  0
   -1.5790   27.8680  -23.3400 H   0  0  0  0  0  0  0  0  0  0  0  0
   -2.3270   27.2340  -24.8380 H   0  0  0  0  0  0  0  0  0  0  0  0
    1.1840   25.4660  -23.3640 H   0  0  0  0  0  0  0  0  0  0  0  0
    0.4770   26.9190  -22.6040 H   0  0  0  0  0  0  0  0  0  0  0  0
   -2.6961   25.5083  -25.7579 H   0  0  0  0  0  0  0  0  0  0  0  0
   -2.7819   23.7769  -27.5454 H   0  0  0  0  0  0  0  0  0  0  0  0
   -0.3440   22.3980  -29.2420 H   0  0  0  0  0  0  0  0  0  0  0  0
    0.2967   18.3571  -30.6722 H   0  0  0  0  0  0  0  0  0  0  0  0
    0.4413   20.8612  -34.2012 H   0  0  0  0  0  0  0  0  0  0  0  0
   -1.0601   22.5075  -33.0944 H   0  0  0  0  0  0  0  0  0  0  0  0
   -3.8066   20.3256  -31.3158 H   0  0  0  0  0  0  0  0  0  0  0  0
   -6.2370   20.6383  -31.7658 H   0  0  0  0  0  0  0  0  0  0  0  0
   -8.3240   21.8780  -29.9310 H   0  0  0  0  0  0  0  0  0  0  0  0
   -9.6370   22.4470  -31.0090 H   0  0  0  0  0  0  0  0  0  0  0  0
   -7.3720   24.0640  -33.3870 H   0  0  0  0  0  0  0  0  0  0  0  0
   -9.0650   23.7780  -32.8990 H   0  0  0  0  0  0  0  0  0  0  0  0
   -5.8313   24.8799  -30.9866 H   0  0  0  0  0  0  0  0  0  0  0  0
    1.3775   22.8188  -26.8206 H   0  0  0  0  0  0  0  0  0  0  0  0
    1.4632   24.5449  -25.0284 H   0  0  0  0  0  0  0  0  0  0  0  0
  1  2  1  0
  2  3  2  0
  2  4  1  0
  4  5  2  0
  5  6  1  0
  6  7  2  0
  7  8  1  0
  8  9  1  0
  9 10  2  0
  9 11  1  0
 11 12  1  0
 12 13  2  0
 13 14  1  0
 14 15  1  0
 15 16  1  0
 15 17  1  0
 15 18  1  0
 14 19  2  0
 19 20  1  0
 20 21  2  0
 21 22  1  0
 22 23  1  0
 23 24  2  0
 24 25  1  0
 25 26  2  0
 26 27  1  0
 27 28  1  0
 27 29  2  0
 26 30  1  0
 30 31  2  0
 31 32  1  0
  7 33  1  0
 33 34  2  0
 34  4  1  0
 21 12  1  0
 31 23  1  0
  1 35  1  0
  1 36  1  0
  3 37  1  0
  3 38  1  0
  5 39  1  0
  6 40  1  0
  8 41  1  0
 13 42  1  0
 19 43  1  0
 20 44  1  0
 24 45  1  0
 25 46  1  0
 28 47  1  0
 28 48  1  0
 29 49  1  0
 29 50  1  0
 30 51  1  0
 33 52  1  0
 34 53  1  0
M  CHG  4   3   1  11  -1  29   1  32  -1
M  END
>  <UniqueID>  (35) 
32

>  <SMILES>  (35) 
NC(=[NH2+])c1ccc(NC(=O)[N-]c2cc(C(F)(F)F)ccc2Oc2ccc(C(N)=[NH2+])cc2[O-])cc1

>  <Energy>  (35) 
73.8910078745796

>  <Genealogy>  (35) 
NC(=[NH2+])c1ccc(NC(=O)[N-]c2cc(C(F)(F)F)ccc2Oc2ccc(C(N)=[NH2+])cc2[O-])cc1 (protonated)
NC(=[NH2+])c1ccc(NC(=O)[N-]c2cc(C(F)(F)F)ccc2Oc2ccc(C(N)=[NH2+])cc2[O-])cc1 (3D coordinates assigned)
NC(=[NH2+])c1ccc(NC(=O)[N-]c2cc(C(F)(F)F)ccc2Oc2ccc(C(N)=[NH2+])cc2[O-])cc1 (optimized conformer: 73.8910078745796 kcal/mol)

>  <smiles>  (35) 
N=C(N)c1ccc(NC(=O)Nc2cc(C(F)(F)F)ccc2Oc2ccc(C(=N)N)cc2O)cc1

>  <score_type>  (35) 
oracle

>  <origin>  (35) 
adgpu

>  <m_score__min__energy>  (35) 
-12.140000000000001

>  <m_primary>  (35) 
energy

$$$$
35:0
     RDKit          3D

 45 47  0  0  0  0  0  0  0  0999 V2000
   -0.8470   26.5810  -25.3040 C   0  0  0  0  0  0  0  0  0  0  0  0
   -0.3620   25.9590  -26.6090 C   0  0  0  0  0  0  0  0  0  0  0  0
   -1.4770   25.2100  -27.2880 C   0  0  0  0  0  0  0  0  0  0  0  0
   -1.6200   25.2650  -28.6830 C   0  0  0  0  0  0  0  0  0  0  0  0
   -2.6380   24.5460  -29.3160 C   0  0  0  0  0  0  0  0  0  0  0  0
   -3.5120   23.7420  -28.5710 C   0  0  0  0  0  0  0  0  0  0  0  0
   -4.5650   23.0290  -29.2440 N   0  0  0  0  0  0  0  0  0  0  0  0
   -4.9540   23.2730  -30.6040 C   0  0  0  0  0  0  0  0  0  0  0  0
   -4.6980   24.3850  -31.1420 O   0  0  0  0  0  0  0  0  0  0  0  0
   -5.7150   22.2580  -31.3610 C   0  0  0  0  0  0  0  0  0  0  0  0
   -7.0290   22.3470  -31.8030 C   0  0  0  0  0  0  0  0  0  0  0  0
   -7.9680   23.4920  -31.5990 C   0  0  0  0  0  0  0  0  0  0  0  0
   -7.3600   21.2290  -32.4750 N   0  0  0  0  0  0  0  0  0  0  0  0
   -6.3070   20.4240  -32.4740 N   0  0  0  0  0  0  0  0  0  0  0  0
   -6.3180   19.1340  -33.1070 C   0  0  0  0  0  0  0  0  0  0  0  0
   -6.8770   18.0320  -32.4390 C   0  0  0  0  0  0  0  0  0  0  0  0
   -6.8710   16.7670  -33.0360 C   0  0  0  0  0  0  0  0  0  0  0  0
   -6.2970   16.5900  -34.2970 C   0  0  0  0  0  0  0  0  0  0  0  0
   -5.7200   17.6770  -34.9610 C   0  0  0  0  0  0  0  0  0  0  0  0
   -5.7230   18.9420  -34.3670 C   0  0  0  0  0  0  0  0  0  0  0  0
   -5.2790   21.0240  -31.8250 C   0  0  0  0  0  0  0  0  0  0  0  0
   -3.8780   20.4860  -31.7420 C   0  0  0  0  0  0  0  0  0  0  0  0
   -3.3730   23.6940  -27.1720 C   0  0  0  0  0  0  0  0  0  0  0  0
   -2.3550   24.4140  -26.5390 C   0  0  0  0  0  0  0  0  0  0  0  0
   -0.4179   26.0306  -24.4538 H   0  0  0  0  0  0  0  0  0  0  0  0
   -0.5282   27.6328  -25.2584 H   0  0  0  0  0  0  0  0  0  0  0  0
   -1.9448   26.5283  -25.2584 H   0  0  0  0  0  0  0  0  0  0  0  0
   -0.0028   26.7556  -27.2771 H   0  0  0  0  0  0  0  0  0  0  0  0
    0.4518   25.2540  -26.3838 H   0  0  0  0  0  0  0  0  0  0  0  0
   -0.9281   25.8765  -29.2808 H   0  0  0  0  0  0  0  0  0  0  0  0
   -2.7543   24.6116  -30.4079 H   0  0  0  0  0  0  0  0  0  0  0  0
   -5.1440   22.3640  -28.6840 H   0  0  0  0  0  0  0  0  0  0  0  0
   -8.1086   23.6634  -30.5216 H   0  0  0  0  0  0  0  0  0  0  0  0
   -7.5487   24.3971  -32.0627 H   0  0  0  0  0  0  0  0  0  0  0  0
   -8.9377   23.2581  -32.0627 H   0  0  0  0  0  0  0  0  0  0  0  0
   -7.3216   18.1644  -31.4416 H   0  0  0  0  0  0  0  0  0  0  0  0
   -7.3191   15.9102  -32.5115 H   0  0  0  0  0  0  0  0  0  0  0  0
   -6.2988   15.5958  -34.7676 H   0  0  0  0  0  0  0  0  0  0  0  0
   -5.2633   17.5363  -35.9518 H   0  0  0  0  0  0  0  0  0  0  0  0
   -5.2576   19.7920  -34.8875 H   0  0  0  0  0  0  0  0  0  0  0  0
   -3.5897   20.3753  -30.6862 H   0  0  0  0  0  0  0  0  0  0  0  0
   -3.8315   19.5060  -32.2395 H   0  0  0  0  0  0  0  0  0  0  0  0
   -3.1875   21.1829  -32.2395 H   0  0  0  0  0  0  0  0  0  0  0  0
   -4.0683   23.0873  -26.5732 H   0  0  0  0  0  0  0  0  0  0  0  0
   -2.2424   24.3554  -25.4463 H   0  0  0  0  0  0  0  0  0  0  0  0
  1  2  1  0
  2  3  1  0
  3  4  2  0
  4  5  1  0
  5  6  2  0
  6  7  1  0
  7  8  1  0
  8  9  2  0
  8 10  1  0
 10 11  1  0
 11 12  1  0
 11 13  2  0
 13 14  1  0
 14 15  1  0
 15 16  2  0
 16 17  1  0
 17 18  2  0
 18 19  1  0
 19 20  2  0
 14 21  1  0
 21 22  1  0
  6 23  1  0
 23 24  2  0
 24  3  1  0
 21 10  2  0
 20 15  1  0
  1 25  1  0
  1 26  1  0
  1 27  1  0
  2 28  1  0
  2 29  1  0
  4 30  1  0
  5 31  1  0
  7 32  1  0
 12 33  1  0
 12 34  1  0
 12 35  1  0
 16 36  1  0
 17 37  1  0
 18 38  1  0
 19 39  1  0
 20 40  1  0
 22 41  1  0
 22 42  1  0
 22 43  1  0
 23 44  1  0
 24 45  1  0
M  END
>  <UniqueID>  (36) 
33

>  <SMILES>  (36) 
CCc1ccc(NC(=O)c2c(C)nn(-c3ccccc3)c2C)cc1

>  <Energy>  (36) 
83.38857189995375

>  <Genealogy>  (36) 
CCc1ccc(NC(=O)c2c(C)nn(-c3ccccc3)c2C)cc1 (3D coordinates assigned)
CCc1ccc(NC(=O)c2c(C)nn(-c3ccccc3)c2C)cc1 (optimized conformer: 83.38857189995375 kcal/mol)

>  <smiles>  (36) 
CCc1ccc(NC(=O)c2c(C)nn(-c3ccccc3)c2C)cc1

>  <score_type>  (36) 
oracle

>  <origin>  (36) 
adgpu

>  <m_score__min__energy>  (36) 
-8.9499999999999993

>  <m_primary>  (36) 
energy

$$$$
36:0
     RDKit          3D

 49 53  0  0  0  0  0  0  0  0999 V2000
   -1.5410   25.6610  -29.1860 O   0  0  0  0  0  0  0  0  0  0  0  0
   -2.5500   24.9220  -29.3150 C   0  0  0  0  0  0  0  0  0  0  0  0
   -2.7410   23.8390  -28.3940 N   0  0  0  0  0  0  0  0  0  0  0  0
   -1.9700   22.5990  -28.3480 C   0  0  0  0  0  0  0  0  0  0  0  0
   -2.1740   21.7770  -29.5950 C   0  0  0  0  0  0  0  0  0  0  0  0
   -1.1230   21.6040  -30.5100 C   0  0  0  0  0  0  0  0  0  0  0  0
   -1.3120   20.8420  -31.6660 C   0  0  0  0  0  0  0  0  0  0  0  0
   -2.5510   20.2380  -31.9170 C   0  0  0  0  0  0  0  0  0  0  0  0
   -2.7890   19.2600  -33.3600 S   0  0  0  0  0  0  0  0  0  0  0  0
   -2.5990   20.1150  -34.5820 O   0  0  0  0  0  0  0  0  0  0  0  0
   -1.7800   18.1460  -33.4060 O   0  0  0  0  0  0  0  0  0  0  0  0
   -4.4120   18.5820  -33.3330 C   0  0  0  0  0  0  0  0  0  0  0  0
   -4.9790   18.1240  -32.1380 C   0  0  0  0  0  0  0  0  0  0  0  0
   -6.2620   17.5730  -32.1440 C   0  0  0  0  0  0  0  0  0  0  0  0
   -6.9610   17.4810  -33.3490 C   0  0  0  0  0  0  0  0  0  0  0  0
   -6.3930   17.9240  -34.5010 N   0  0  0  0  0  0  0  0  0  0  0  0
   -5.1450   18.4670  -34.5200 C   0  0  0  0  0  0  0  0  0  0  0  0
   -3.5930   20.3850  -30.9920 C   0  0  0  0  0  0  0  0  0  0  0  0
   -3.4050   21.1470  -29.8360 C   0  0  0  0  0  0  0  0  0  0  0  0
   -3.5140   25.2380  -30.3270 N   0  0  0  0  0  0  0  0  0  0  0  0
   -4.6730   24.4560  -30.6420 C   0  0  0  0  0  0  0  0  0  0  0  0
   -5.9080   24.8020  -30.0510 C   0  0  0  0  0  0  0  0  0  0  0  0
   -7.0700   24.0700  -30.3380 C   0  0  0  0  0  0  0  0  0  0  0  0
   -6.9720   23.0060  -31.2340 C   0  0  0  0  0  0  0  0  0  0  0  0
   -5.7720   22.6710  -31.8400 C   0  0  0  0  0  0  0  0  0  0  0  0
   -4.6090   23.3890  -31.5660 C   0  0  0  0  0  0  0  0  0  0  0  0
   -5.8710   21.5620  -32.7390 N   0  0  0  0  0  0  0  0  0  0  0  0
   -7.2470   21.1830  -32.6810 C   0  0  0  0  0  0  0  0  0  0  0  0
   -7.7340   20.2300  -33.3460 O   0  0  0  0  0  0  0  0  0  0  0  0
   -7.9900   22.0600  -31.7440 C   0  0  0  0  0  0  0  0  0  0  0  0
   -9.4310   22.4550  -31.9730 C   0  0  0  0  0  0  0  0  0  0  0  0
   -9.0530   21.4920  -30.8310 C   0  0  0  0  0  0  0  0  0  0  0  0
   -0.9021   22.8450  -28.2524 H   0  0  0  0  0  0  0  0  0  0  0  0
   -2.3139   22.0097  -27.4852 H   0  0  0  0  0  0  0  0  0  0  0  0
   -0.1460   22.0707  -30.3158 H   0  0  0  0  0  0  0  0  0  0  0  0
   -0.4856   20.7160  -32.3810 H   0  0  0  0  0  0  0  0  0  0  0  0
   -4.4152   18.1980  -31.1964 H   0  0  0  0  0  0  0  0  0  0  0  0
   -6.7173   17.2151  -31.2088 H   0  0  0  0  0  0  0  0  0  0  0  0
   -7.9727   17.0494  -33.3658 H   0  0  0  0  0  0  0  0  0  0  0  0
   -4.7120   18.8158  -35.4691 H   0  0  0  0  0  0  0  0  0  0  0  0
   -4.5624   19.8989  -31.1765 H   0  0  0  0  0  0  0  0  0  0  0  0
   -4.2256   21.2537  -29.1113 H   0  0  0  0  0  0  0  0  0  0  0  0
   -5.9595   25.6547  -29.3581 H   0  0  0  0  0  0  0  0  0  0  0  0
   -8.0312   24.3281  -29.8695 H   0  0  0  0  0  0  0  0  0  0  0  0
   -3.6605   23.1301  -32.0592 H   0  0  0  0  0  0  0  0  0  0  0  0
   -9.7658   23.4776  -31.7444 H   0  0  0  0  0  0  0  0  0  0  0  0
  -10.1244   22.4214  -32.8263 H   0  0  0  0  0  0  0  0  0  0  0  0
   -9.1170   21.8249  -29.7845 H   0  0  0  0  0  0  0  0  0  0  0  0
   -9.3628   20.4816  -30.5258 H   0  0  0  0  0  0  0  0  0  0  0  0
  1  2  2  0
  2  3  1  0
  3  4  1  0
  4  5  1  0
  5  6  2  0
  6  7  1  0
  7  8  2  0
  8  9  1  0
  9 10  2  0
  9 11  2  0
  9 12  1  0
 12 13  2  0
 13 14  1  0
 14 15  2  0
 15 16  1  0
 16 17  2  0
  8 18  1  0
 18 19  2  0
  2 20  1  0
 20 21  1  0
 21 22  2  0
 22 23  1  0
 23 24  2  0
 24 25  1  0
 25 26  2  0
 25 27  1  0
 27 28  1  0
 28 29  2  0
 28 30  1  0
 30 31  1  0
 31 32  1  0
 19  5  1  0
 26 21  1  0
 32 30  1  0
 17 12  1  0
 30 24  1  0
  4 33  1  0
  4 34  1  0
  6 35  1  0
  7 36  1  0
 13 37  1  0
 14 38  1  0
 15 39  1  0
 17 40  1  0
 18 41  1  0
 19 42  1  0
 22 43  1  0
 23 44  1  0
 26 45  1  0
 31 46  1  0
 31 47  1  0
 32 48  1  0
 32 49  1  0
M  CHG  3   3  -1  20  -1  27  -1
M  END
>  <UniqueID>  (37) 
34

>  <SMILES>  (37) 
O=C([N-]Cc1ccc(S(=O)(=O)c2cccnc2)cc1)[N-]c1ccc2c(c1)[N-]C(=O)C21CC1

>  <Energy>  (37) 
359.56732154733874

>  <Genealogy>  (37) 
O=C([N-]Cc1ccc(S(=O)(=O)c2cccnc2)cc1)[N-]c1ccc2c(c1)[N-]C(=O)C21CC1 (protonated)
O=C([N-]Cc1ccc(S(=O)(=O)c2cccnc2)cc1)[N-]c1ccc2c(c1)[N-]C(=O)C21CC1 (3D coordinates assigned)
O=C([N-]Cc1ccc(S(=O)(=O)c2cccnc2)cc1)[N-]c1ccc2c(c1)[N-]C(=O)C21CC1 (nonaromatic ring conformer: 359.56732154733874 kcal/mol)

>  <smiles>  (37) 
O=C(NCc1ccc(S(=O)(=O)c2cccnc2)cc1)Nc1ccc2c(c1)NC(=O)C21CC1

>  <score_type>  (37) 
oracle

>  <origin>  (37) 
adgpu

>  <m_score__min__energy>  (37) 
-13.27

>  <m_primary>  (37) 
energy

$$$$
37:0
     RDKit          3D

 38 40  0  0  0  0  0  0  0  0999 V2000
   -8.0330   22.8730  -31.7140 C   0  0  0  0  0  0  0  0  0  0  0  0
   -7.9270   21.4150  -32.0810 C   0  0  0  0  0  0  0  0  0  0  0  0
   -9.0780   20.6140  -31.9700 C   0  0  0  0  0  0  0  0  0  0  0  0
   -9.0290   19.2520  -32.2660 C   0  0  0  0  0  0  0  0  0  0  0  0
   -7.8330   18.6700  -32.6790 C   0  0  0  0  0  0  0  0  0  0  0  0
   -6.6830   19.4500  -32.8090 C   0  0  0  0  0  0  0  0  0  0  0  0
   -6.7090   20.8290  -32.5260 C   0  0  0  0  0  0  0  0  0  0  0  0
   -5.4580   21.6090  -32.7150 C   0  0  0  0  0  0  0  0  0  0  0  0
   -5.4770   22.8680  -32.6880 O   0  0  0  0  0  0  0  0  0  0  0  0
   -4.2160   20.9170  -32.9070 N   0  0  0  0  0  0  0  0  0  0  0  0
   -2.9930   21.1370  -32.1890 C   0  0  0  0  0  0  0  0  0  0  0  0
   -1.8530   20.4170  -32.5660 C   0  0  0  0  0  0  0  0  0  0  0  0
   -0.6410   20.6130  -31.9010 C   0  0  0  0  0  0  0  0  0  0  0  0
   -0.5500   21.5520  -30.8710 C   0  0  0  0  0  0  0  0  0  0  0  0
   -1.6650   22.3200  -30.5160 C   0  0  0  0  0  0  0  0  0  0  0  0
   -1.5380   23.2780  -29.4550 N   0  0  0  0  0  0  0  0  0  0  0  0
   -2.2360   24.5260  -29.3540 C   0  0  0  0  0  0  0  0  0  0  0  0
   -1.6010   25.5480  -28.9810 O   0  0  0  0  0  0  0  0  0  0  0  0
   -3.6530   24.6570  -29.7400 C   0  0  0  0  0  0  0  0  0  0  0  0
   -4.7200   24.0420  -29.1150 C   0  0  0  0  0  0  0  0  0  0  0  0
   -5.8410   24.4540  -29.8040 C   0  0  0  0  0  0  0  0  0  0  0  0
   -5.3910   25.2950  -30.8010 C   0  0  0  0  0  0  0  0  0  0  0  0
   -4.0840   25.3990  -30.7350 O   0  0  0  0  0  0  0  0  0  0  0  0
   -2.8940   22.0960  -31.1640 C   0  0  0  0  0  0  0  0  0  0  0  0
   -8.0405   22.9758  -30.6188 H   0  0  0  0  0  0  0  0  0  0  0  0
   -7.1722   23.4188  -32.1277 H   0  0  0  0  0  0  0  0  0  0  0  0
   -8.9637   23.2885  -32.1277 H   0  0  0  0  0  0  0  0  0  0  0  0
  -10.0268   21.0667  -31.6463 H   0  0  0  0  0  0  0  0  0  0  0  0
   -9.9361   18.6367  -32.1732 H   0  0  0  0  0  0  0  0  0  0  0  0
   -7.7947   17.5938  -32.9031 H   0  0  0  0  0  0  0  0  0  0  0  0
   -5.7436   18.9811  -33.1370 H   0  0  0  0  0  0  0  0  0  0  0  0
   -1.9125   19.6923  -33.3914 H   0  0  0  0  0  0  0  0  0  0  0  0
    0.2441   20.0267  -32.1889 H   0  0  0  0  0  0  0  0  0  0  0  0
    0.4018   21.6885  -30.3367 H   0  0  0  0  0  0  0  0  0  0  0  0
   -4.6832   23.3651  -28.2487 H   0  0  0  0  0  0  0  0  0  0  0  0
   -6.8838   24.1696  -29.6000 H   0  0  0  0  0  0  0  0  0  0  0  0
   -6.0303   25.8014  -31.5391 H   0  0  0  0  0  0  0  0  0  0  0  0
   -3.7820   22.6737  -30.8677 H   0  0  0  0  0  0  0  0  0  0  0  0
  1  2  1  0
  2  3  2  0
  3  4  1  0
  4  5  2  0
  5  6  1  0
  6  7  2  0
  7  8  1  0
  8  9  2  0
  8 10  1  0
 10 11  1  0
 11 12  2  0
 12 13  1  0
 13 14  2  0
 14 15  1  0
 15 16  1  0
 16 17  1  0
 17 18  2  0
 17 19  1  0
 19 20  2  0
 20 21  1  0
 21 22  2  0
 22 23  1  0
 15 24  2  0
  7  2  1  0
 24 11  1  0
 23 19  1  0
  1 25  1  0
  1 26  1  0
  1 27  1  0
  3 28  1  0
  4 29  1  0
  5 30  1  0
  6 31  1  0
 12 32  1  0
 13 33  1  0
 14 34  1  0
 20 35  1  0
 21 36  1  0
 22 37  1  0
 24 38  1  0
M  CHG  2  10  -1  16  -1
M  END
>  <UniqueID>  (38) 
35

>  <SMILES>  (38) 
Cc1ccccc1C(=O)[N-]c1cccc([N-]C(=O)c2ccco2)c1

>  <Energy>  (38) 
78.5654191641088

>  <Genealogy>  (38) 
Cc1ccccc1C(=O)[N-]c1cccc([N-]C(=O)c2ccco2)c1 (protonated)
Cc1ccccc1C(=O)[N-]c1cccc([N-]C(=O)c2ccco2)c1 (3D coordinates assigned)
Cc1ccccc1C(=O)[N-]c1cccc([N-]C(=O)c2ccco2)c1 (optimized conformer: 78.5654191641088 kcal/mol)

>  <smiles>  (38) 
Cc1ccccc1C(=O)Nc1cccc(NC(=O)c2ccco2)c1

>  <score_type>  (38) 
oracle

>  <origin>  (38) 
adgpu

>  <m_score__min__energy>  (38) 
-10.369999999999999

>  <m_primary>  (38) 
energy

$$$$
38:0
     RDKit          3D

 54 56  0  0  0  0  0  0  0  0999 V2000
    4.5210   19.2060  -36.9300 C   0  0  0  0  0  0  0  0  0  0  0  0
    3.7690   20.1490  -37.8740 C   0  0  0  0  0  0  0  0  0  0  0  0
    4.0030   19.7430  -39.3290 C   0  0  0  0  0  0  0  0  0  0  0  0
    4.2490   21.5220  -37.6820 N   0  0  0  0  0  0  0  0  0  0  0  0
    3.9050   22.0930  -36.0750 S   0  0  0  0  0  0  0  0  0  0  0  0
    3.8960   23.5960  -36.0770 O   0  0  0  0  0  0  0  0  0  0  0  0
    4.9740   21.6110  -35.1330 O   0  0  0  0  0  0  0  0  0  0  0  0
    2.3270   21.5120  -35.5540 C   0  0  0  0  0  0  0  0  0  0  0  0
    2.2390   20.5380  -34.5510 C   0  0  0  0  0  0  0  0  0  0  0  0
    0.9910   20.0740  -34.1260 C   0  0  0  0  0  0  0  0  0  0  0  0
   -0.1910   20.5770  -34.7000 C   0  0  0  0  0  0  0  0  0  0  0  0
   -1.5200   20.0900  -34.2460 C   0  0  0  0  0  0  0  0  0  0  0  0
   -2.5110   20.9990  -33.8340 C   0  0  0  0  0  0  0  0  0  0  0  0
   -3.7650   20.5420  -33.4160 C   0  0  0  0  0  0  0  0  0  0  0  0
   -4.0540   19.1660  -33.4170 C   0  0  0  0  0  0  0  0  0  0  0  0
   -5.3220   18.6540  -32.9820 N   0  0  0  0  0  0  0  0  0  0  0  0
   -6.0590   19.0660  -31.8230 C   0  0  0  0  0  0  0  0  0  0  0  0
   -6.2920   18.2400  -30.8980 O   0  0  0  0  0  0  0  0  0  0  0  0
   -6.5460   20.4620  -31.6920 C   0  0  0  0  0  0  0  0  0  0  0  0
   -5.6290   21.4600  -31.3090 C   0  0  0  0  0  0  0  0  0  0  0  0
   -6.0350   22.7890  -31.1510 C   0  0  0  0  0  0  0  0  0  0  0  0
   -4.8620   24.0070  -30.6560 S   0  0  0  0  0  0  0  0  0  0  0  0
   -4.8250   24.1080  -28.8800 C   0  0  0  0  0  0  0  0  0  0  0  0
   -3.5030   23.6290  -31.1730 O   0  0  0  0  0  0  0  0  0  0  0  0
   -5.2390   25.3520  -31.2110 O   0  0  0  0  0  0  0  0  0  0  0  0
   -7.3700   23.1370  -31.3840 C   0  0  0  0  0  0  0  0  0  0  0  0
   -8.2880   22.1640  -31.7790 C   0  0  0  0  0  0  0  0  0  0  0  0
   -7.8920   20.8310  -31.9390 C   0  0  0  0  0  0  0  0  0  0  0  0
   -9.1070   19.6950  -32.5190 Cl  0  0  0  0  0  0  0  0  0  0  0  0
   -3.0600   18.2590  -33.8000 C   0  0  0  0  0  0  0  0  0  0  0  0
   -1.8070   18.7140  -34.2190 C   0  0  0  0  0  0  0  0  0  0  0  0
   -0.0940   21.5520  -35.7110 C   0  0  0  0  0  0  0  0  0  0  0  0
    1.1550   22.0130  -36.1340 C   0  0  0  0  0  0  0  0  0  0  0  0
    4.3025   19.4800  -35.8873 H   0  0  0  0  0  0  0  0  0  0  0  0
    4.1981   18.1704  -37.1124 H   0  0  0  0  0  0  0  0  0  0  0  0
    5.6025   19.2903  -37.1124 H   0  0  0  0  0  0  0  0  0  0  0  0
    2.6943   20.0886  -37.6475 H   0  0  0  0  0  0  0  0  0  0  0  0
    4.5521   18.7903  -39.3601 H   0  0  0  0  0  0  0  0  0  0  0  0
    3.0345   19.6248  -39.8370 H   0  0  0  0  0  0  0  0  0  0  0  0
    4.5908   20.5217  -39.8370 H   0  0  0  0  0  0  0  0  0  0  0  0
    3.1564   20.1365  -34.0958 H   0  0  0  0  0  0  0  0  0  0  0  0
    0.9324   19.3099  -33.3369 H   0  0  0  0  0  0  0  0  0  0  0  0
   -2.2981   22.0782  -33.8406 H   0  0  0  0  0  0  0  0  0  0  0  0
   -4.5281   21.2619  -33.0852 H   0  0  0  0  0  0  0  0  0  0  0  0
   -4.5775   21.1901  -31.1314 H   0  0  0  0  0  0  0  0  0  0  0  0
   -5.1735   23.1568  -28.4513 H   0  0  0  0  0  0  0  0  0  0  0  0
   -3.7960   24.3059  -28.5453 H   0  0  0  0  0  0  0  0  0  0  0  0
   -5.4827   24.9238  -28.5453 H   0  0  0  0  0  0  0  0  0  0  0  0
   -7.6961   24.1796  -31.2555 H   0  0  0  0  0  0  0  0  0  0  0  0
   -9.3342   22.4472  -31.9668 H   0  0  0  0  0  0  0  0  0  0  0  0
   -3.2665   17.1789  -33.7711 H   0  0  0  0  0  0  0  0  0  0  0  0
   -1.0394   17.9901  -34.5301 H   0  0  0  0  0  0  0  0  0  0  0  0
   -1.0087   21.9538  -36.1713 H   0  0  0  0  0  0  0  0  0  0  0  0
    1.2182   22.7732  -36.9265 H   0  0  0  0  0  0  0  0  0  0  0  0
  1  2  1  0
  2  3  1  0
  2  4  1  0
  4  5  1  0
  5  6  2  0
  5  7  2  0
  5  8  1  0
  8  9  2  0
  9 10  1  0
 10 11  2  0
 11 12  1  0
 12 13  2  0
 13 14  1  0
 14 15  2  0
 15 16  1  0
 16 17  1  0
 17 18  2  0
 17 19  1  0
 19 20  2  0
 20 21  1  0
 21 22  1  0
 22 23  1  0
 22 24  2  0
 22 25  2  0
 21 26  2  0
 26 27  1  0
 27 28  2  0
 28 29  1  0
 15 30  1  0
 30 31  2  0
 11 32  1  0
 32 33  2  0
 33  8  1  0
 31 12  1  0
 28 19  1  0
  1 34  1  0
  1 35  1  0
  1 36  1  0
  2 37  1  0
  3 38  1  0
  3 39  1  0
  3 40  1  0
  9 41  1  0
 10 42  1  0
 13 43  1  0
 14 44  1  0
 20 45  1  0
 23 46  1  0
 23 47  1  0
 23 48  1  0
 26 49  1  0
 27 50  1  0
 30 51  1  0
 31 52  1  0
 32 53  1  0
 33 54  1  0
M  CHG  2   4  -1  16  -1
M  END
>  <UniqueID>  (39) 
36

>  <SMILES>  (39) 
CC(C)[N-]S(=O)(=O)c1ccc(-c2ccc([N-]C(=O)c3cc(S(C)(=O)=O)ccc3Cl)cc2)cc1

>  <Energy>  (39) 
62.3596084194344

>  <Genealogy>  (39) 
CC(C)[N-]S(=O)(=O)c1ccc(-c2ccc([N-]C(=O)c3cc(S(C)(=O)=O)ccc3Cl)cc2)cc1 (protonated)
CC(C)[N-]S(=O)(=O)c1ccc(-c2ccc([N-]C(=O)c3cc(S(C)(=O)=O)ccc3Cl)cc2)cc1 (3D coordinates assigned)
CC(C)[N-]S(=O)(=O)c1ccc(-c2ccc([N-]C(=O)c3cc(S(C)(=O)=O)ccc3Cl)cc2)cc1 (optimized conformer: 62.3596084194344 kcal/mol)

>  <smiles>  (39) 
CC(C)NS(=O)(=O)c1ccc(-c2ccc(NC(=O)c3cc(S(C)(=O)=O)ccc3Cl)cc2)cc1

>  <score_type>  (39) 
oracle

>  <origin>  (39) 
adgpu

>  <m_score__min__energy>  (39) 
-10.84

>  <m_primary>  (39) 
energy

$$$$
39:0
     RDKit          3D

 58 61  0  0  0  0  0  0  0  0999 V2000
   -4.2080   25.6930  -30.8450 O   0  0  0  0  0  0  0  0  0  0  0  0
   -5.0980   24.5700  -30.3850 S   0  0  0  0  0  0  0  0  0  0  0  0
   -6.1200   25.1260  -29.4340 O   0  0  0  0  0  0  0  0  0  0  0  0
   -5.9030   23.8730  -31.7540 N   0  0  0  0  0  0  0  0  0  0  0  0
   -5.8660   22.4700  -32.0690 C   0  0  0  0  0  0  0  0  0  0  0  0
   -4.7770   21.8910  -32.7420 C   0  0  0  0  0  0  0  0  0  0  0  0
   -4.7660   20.5220  -33.0270 C   0  0  0  0  0  0  0  0  0  0  0  0
   -5.8470   19.7050  -32.6550 C   0  0  0  0  0  0  0  0  0  0  0  0
   -5.8360   18.2910  -32.9520 N   0  0  0  0  0  0  0  0  0  0  0  0
   -5.7710   17.3060  -31.8600 C   0  0  0  0  0  0  0  0  0  0  0  0
   -5.1020   16.0130  -32.3350 C   0  0  0  0  0  0  0  0  0  0  0  0
   -5.8090   15.4040  -33.5600 C   0  0  0  0  0  0  0  0  0  0  0  0
   -6.5310   16.4420  -34.4390 C   0  0  0  0  0  0  0  0  0  0  0  0
   -5.8830   17.8290  -34.3490 C   0  0  0  0  0  0  0  0  0  0  0  0
   -6.9420   20.2890  -31.9930 C   0  0  0  0  0  0  0  0  0  0  0  0
   -6.9510   21.6580  -31.7090 C   0  0  0  0  0  0  0  0  0  0  0  0
   -4.1700   23.3260  -29.5520 C   0  0  0  0  0  0  0  0  0  0  0  0
   -4.4760   23.0130  -28.2220 C   0  0  0  0  0  0  0  0  0  0  0  0
   -3.7670   22.0110  -27.5550 C   0  0  0  0  0  0  0  0  0  0  0  0
   -2.7560   21.3090  -28.2170 C   0  0  0  0  0  0  0  0  0  0  0  0
   -2.4520   21.6050  -29.5520 C   0  0  0  0  0  0  0  0  0  0  0  0
   -1.1820   20.7100  -30.3830 S   0  0  0  0  0  0  0  0  0  0  0  0
    0.0890   21.5100  -30.3270 O   0  0  0  0  0  0  0  0  0  0  0  0
   -0.9500   19.3940  -29.6890 O   0  0  0  0  0  0  0  0  0  0  0  0
   -1.6320   20.4440  -32.0490 N   0  0  0  0  0  0  0  0  0  0  0  0
   -1.7480   18.9990  -32.3160 C   0  0  0  0  0  0  0  0  0  0  0  0
   -1.8360   18.7240  -33.8310 C   0  0  0  0  0  0  0  0  0  0  0  0
   -2.1050   19.9130  -34.5460 O   0  0  0  0  0  0  0  0  0  0  0  0
   -1.0150   20.8090  -34.4130 C   0  0  0  0  0  0  0  0  0  0  0  0
   -0.6290   21.0480  -32.9370 C   0  0  0  0  0  0  0  0  0  0  0  0
   -3.1540   22.6220  -30.2150 C   0  0  0  0  0  0  0  0  0  0  0  0
   -6.5500   24.4960  -32.2900 H   0  0  0  0  0  0  0  0  0  0  0  0
   -3.9270   22.5191  -33.0469 H   0  0  0  0  0  0  0  0  0  0  0  0
   -3.9031   20.0806  -33.5472 H   0  0  0  0  0  0  0  0  0  0  0  0
   -5.1896   17.7283  -31.0272 H   0  0  0  0  0  0  0  0  0  0  0  0
   -6.7951   17.0740  -31.5322 H   0  0  0  0  0  0  0  0  0  0  0  0
   -4.0579   16.2327  -32.6024 H   0  0  0  0  0  0  0  0  0  0  0  0
   -5.1620   15.2826  -31.5147 H   0  0  0  0  0  0  0  0  0  0  0  0
   -5.0557   14.8913  -34.1762 H   0  0  0  0  0  0  0  0  0  0  0  0
   -6.5780   14.7166  -33.1779 H   0  0  0  0  0  0  0  0  0  0  0  0
   -6.4994   16.1035  -35.4851 H   0  0  0  0  0  0  0  0  0  0  0  0
   -7.5662   16.5290  -34.0773 H   0  0  0  0  0  0  0  0  0  0  0  0
   -4.8587   17.7756  -34.7465 H   0  0  0  0  0  0  0  0  0  0  0  0
   -6.4835   18.5390  -34.9366 H   0  0  0  0  0  0  0  0  0  0  0  0
   -7.7974   19.6642  -31.6966 H   0  0  0  0  0  0  0  0  0  0  0  0
   -7.8178   22.1025  -31.1981 H   0  0  0  0  0  0  0  0  0  0  0  0
   -5.2770   23.5577  -27.7008 H   0  0  0  0  0  0  0  0  0  0  0  0
   -4.0048   21.7743  -26.5074 H   0  0  0  0  0  0  0  0  0  0  0  0
   -2.1977   20.5222  -27.6885 H   0  0  0  0  0  0  0  0  0  0  0  0
   -0.8652   18.4854  -31.9075 H   0  0  0  0  0  0  0  0  0  0  0  0
   -2.6655   18.6260  -31.8375 H   0  0  0  0  0  0  0  0  0  0  0  0
   -0.8796   18.3047  -34.1768 H   0  0  0  0  0  0  0  0  0  0  0  0
   -2.6557   18.0131  -34.0115 H   0  0  0  0  0  0  0  0  0  0  0  0
   -0.1464   20.3903  -34.9424 H   0  0  0  0  0  0  0  0  0  0  0  0
   -1.3196   21.7752  -34.8417 H   0  0  0  0  0  0  0  0  0  0  0  0
    0.3529   20.5932  -32.7394 H   0  0  0  0  0  0  0  0  0  0  0  0
   -0.5849   22.1306  -32.7470 H   0  0  0  0  0  0  0  0  0  0  0  0
   -2.9071   22.8684  -31.2582 H   0  0  0  0  0  0  0  0  0  0  0  0
  1  2  2  0
  2  3  2  0
  2  4  1  0
  4  5  1  0
  5  6  2  0
  6  7  1  0
  7  8  2  0
  8  9  1  0
  9 10  1  0
 10 11  1  0
 11 12  1  0
 12 13  1  0
 13 14  1  0
  8 15  1  0
 15 16  2  0
  2 17  1  0
 17 18  2  0
 18 19  1  0
 19 20  2  0
 20 21  1  0
 21 22  1  0
 22 23  2  0
 22 24  2  0
 22 25  1  0
 25 26  1  0
 26 27  1  0
 27 28  1  0
 28 29  1  0
 29 30  1  0
 21 31  2  0
 16  5  1  0
 31 17  1  0
 14  9  1  0
 30 25  1  0
  4 32  1  0
  6 33  1  0
  7 34  1  0
 10 35  1  0
 10 36  1  0
 11 37  1  0
 11 38  1  0
 12 39  1  0
 12 40  1  0
 13 41  1  0
 13 42  1  0
 14 43  1  0
 14 44  1  0
 15 45  1  0
 16 46  1  0
 18 47  1  0
 19 48  1  0
 20 49  1  0
 26 50  1  0
 26 51  1  0
 27 52  1  0
 27 53  1  0
 29 54  1  0
 29 55  1  0
 30 56  1  0
 30 57  1  0
 31 58  1  0
M  END
>  <UniqueID>  (40) 
37

>  <SMILES>  (40) 
O=S(=O)(Nc1ccc(N2CCCCC2)cc1)c1cccc(S(=O)(=O)N2CCOCC2)c1

>  <Energy>  (40) 
73.52957748232713

>  <Genealogy>  (40) 
O=S(=O)(Nc1ccc(N2CCCCC2)cc1)c1cccc(S(=O)(=O)N2CCOCC2)c1 (3D coordinates assigned)
O=S(=O)(Nc1ccc(N2CCCCC2)cc1)c1cccc(S(=O)(=O)N2CCOCC2)c1 (nonaromatic ring conformer: 73.52957748232713 kcal/mol)

>  <smiles>  (40) 
O=S(=O)(Nc1ccc(N2CCCCC2)cc1)c1cccc(S(=O)(=O)N2CCOCC2)c1

>  <score_type>  (40) 
oracle

>  <origin>  (40) 
adgpu

>  <m_score__min__energy>  (40) 
-10.949999999999999

>  <m_primary>  (40) 
energy

$$$$
40:0
     RDKit          3D

 58 61  0  0  0  0  0  0  0  0999 V2000
    0.5850   23.3640  -25.5140 C   0  0  0  0  0  0  0  0  0  0  0  0
   -0.3380   23.3990  -26.7040 C   0  0  0  0  0  0  0  0  0  0  0  0
   -0.9460   22.2000  -27.1070 C   0  0  0  0  0  0  0  0  0  0  0  0
   -1.8020   22.1690  -28.2050 C   0  0  0  0  0  0  0  0  0  0  0  0
   -2.0760   23.3340  -28.9240 C   0  0  0  0  0  0  0  0  0  0  0  0
   -2.9390   23.2580  -30.0690 N   0  0  0  0  0  0  0  0  0  0  0  0
   -4.3580   23.4520  -30.0050 C   0  0  0  0  0  0  0  0  0  0  0  0
   -4.9320   23.5930  -28.8920 O   0  0  0  0  0  0  0  0  0  0  0  0
   -5.1090   23.5040  -31.2250 N   0  0  0  0  0  0  0  0  0  0  0  0
   -6.3390   22.8210  -31.5060 C   0  0  0  0  0  0  0  0  0  0  0  0
   -7.5520   23.5070  -31.6910 C   0  0  0  0  0  0  0  0  0  0  0  0
   -8.7290   22.7960  -31.9480 C   0  0  0  0  0  0  0  0  0  0  0  0
   -8.7080   21.4020  -32.0150 C   0  0  0  0  0  0  0  0  0  0  0  0
   -7.5070   20.7070  -31.8260 C   0  0  0  0  0  0  0  0  0  0  0  0
   -7.4790   18.9440  -31.8770 S   0  0  0  0  0  0  0  0  0  0  0  0
   -8.8120   18.4240  -31.4180 O   0  0  0  0  0  0  0  0  0  0  0  0
   -6.4430   18.4560  -30.9050 O   0  0  0  0  0  0  0  0  0  0  0  0
   -7.1090   18.2910  -33.4610 N   0  0  0  0  0  0  0  0  0  0  0  0
   -6.8820   16.8310  -33.4760 C   0  0  0  0  0  0  0  0  0  0  0  0
   -5.4190   16.4350  -33.2180 C   0  0  0  0  0  0  0  0  0  0  0  0
   -4.4710   17.2060  -34.1290 C   0  0  0  0  0  0  0  0  0  0  0  0
   -4.6810   18.7050  -33.9520 C   0  0  0  0  0  0  0  0  0  0  0  0
   -6.1380   19.0840  -34.2410 C   0  0  0  0  0  0  0  0  0  0  0  0
   -6.3320   21.4200  -31.5450 C   0  0  0  0  0  0  0  0  0  0  0  0
   -1.4550   24.5420  -28.5510 C   0  0  0  0  0  0  0  0  0  0  0  0
   -1.6380   25.6730  -29.3390 O   0  0  0  0  0  0  0  0  0  0  0  0
   -0.6200   24.5970  -27.4120 C   0  0  0  0  0  0  0  0  0  0  0  0
    0.1010   26.1540  -26.9370 S   0  0  0  0  0  0  0  0  0  0  0  0
   -0.5390   27.2830  -27.6950 O   0  0  0  0  0  0  0  0  0  0  0  0
    1.5690   26.1640  -27.2620 O   0  0  0  0  0  0  0  0  0  0  0  0
   -0.1700   26.3970  -25.1830 C   0  0  0  0  0  0  0  0  0  0  0  0
   -0.8070   27.7280  -24.8140 C   0  0  0  0  0  0  0  0  0  0  0  0
   -1.6290   26.4480  -24.7610 C   0  0  0  0  0  0  0  0  0  0  0  0
   -0.0090   23.3865  -24.5885 H   0  0  0  0  0  0  0  0  0  0  0  0
    1.1850   22.4425  -25.5423 H   0  0  0  0  0  0  0  0  0  0  0  0
    1.2530   24.2375  -25.5423 H   0  0  0  0  0  0  0  0  0  0  0  0
   -0.7440   21.2738  -26.5490 H   0  0  0  0  0  0  0  0  0  0  0  0
   -2.2660   21.2189  -28.5083 H   0  0  0  0  0  0  0  0  0  0  0  0
   -2.5390   22.9030  -30.9670 H   0  0  0  0  0  0  0  0  0  0  0  0
   -7.5757   24.6052  -31.6335 H   0  0  0  0  0  0  0  0  0  0  0  0
   -9.6746   23.3376  -32.0979 H   0  0  0  0  0  0  0  0  0  0  0  0
   -9.6368   20.8482  -32.2167 H   0  0  0  0  0  0  0  0  0  0  0  0
   -7.5092   16.3731  -32.6969 H   0  0  0  0  0  0  0  0  0  0  0  0
   -7.1410   16.4737  -34.4836 H   0  0  0  0  0  0  0  0  0  0  0  0
   -5.1673   16.6544  -32.1699 H   0  0  0  0  0  0  0  0  0  0  0  0
   -5.3066   15.3609  -33.4269 H   0  0  0  0  0  0  0  0  0  0  0  0
   -3.4321   16.9511  -33.8729 H   0  0  0  0  0  0  0  0  0  0  0  0
   -4.6751   16.9341  -35.1751 H   0  0  0  0  0  0  0  0  0  0  0  0
   -4.4331   18.9850  -32.9175 H   0  0  0  0  0  0  0  0  0  0  0  0
   -4.0289   19.2401  -34.6580 H   0  0  0  0  0  0  0  0  0  0  0  0
   -6.2781   20.1474  -33.9968 H   0  0  0  0  0  0  0  0  0  0  0  0
   -6.3255   18.8773  -35.3050 H   0  0  0  0  0  0  0  0  0  0  0  0
   -5.3963   20.8743  -31.3535 H   0  0  0  0  0  0  0  0  0  0  0  0
    0.7175   25.8382  -24.8513 H   0  0  0  0  0  0  0  0  0  0  0  0
   -0.5192   28.2361  -23.8818 H   0  0  0  0  0  0  0  0  0  0  0  0
   -0.9162   28.7031  -25.3113 H   0  0  0  0  0  0  0  0  0  0  0  0
   -1.9357   26.0311  -23.7904 H   0  0  0  0  0  0  0  0  0  0  0  0
   -2.5790   26.1148  -25.2043 H   0  0  0  0  0  0  0  0  0  0  0  0
  1  2  1  0
  2  3  2  0
  3  4  1  0
  4  5  2  0
  5  6  1  0
  6  7  1  0
  7  8  2  0
  7  9  1  0
  9 10  1  0
 10 11  2  0
 11 12  1  0
 12 13  2  0
 13 14  1  0
 14 15  1  0
 15 16  2  0
 15 17  2  0
 15 18  1  0
 18 19  1  0
 19 20  1  0
 20 21  1  0
 21 22  1  0
 22 23  1  0
 14 24  2  0
  5 25  1  0
 25 26  1  0
 25 27  2  0
 27 28  1  0
 28 29  2  0
 28 30  2  0
 28 31  1  0
 31 32  1  0
 32 33  1  0
 27  2  1  0
 33 31  1  0
 24 10  1  0
 23 18  1  0
  1 34  1  0
  1 35  1  0
  1 36  1  0
  3 37  1  0
  4 38  1  0
  6 39  1  0
 11 40  1  0
 12 41  1  0
 13 42  1  0
 19 43  1  0
 19 44  1  0
 20 45  1  0
 20 46  1  0
 21 47  1  0
 21 48  1  0
 22 49  1  0
 22 50  1  0
 23 51  1  0
 23 52  1  0
 24 53  1  0
 31 54  1  0
 32 55  1  0
 32 56  1  0
 33 57  1  0
 33 58  1  0
M  CHG  2   9  -1  26  -1
M  END
>  <UniqueID>  (41) 
38

>  <SMILES>  (41) 
Cc1ccc(NC(=O)[N-]c2cccc(S(=O)(=O)N3CCCCC3)c2)c([O-])c1S(=O)(=O)C1CC1

>  <Energy>  (41) 
335.3529104525686

>  <Genealogy>  (41) 
Cc1ccc(NC(=O)[N-]c2cccc(S(=O)(=O)N3CCCCC3)c2)c([O-])c1S(=O)(=O)C1CC1 (protonated)
Cc1ccc(NC(=O)[N-]c2cccc(S(=O)(=O)N3CCCCC3)c2)c([O-])c1S(=O)(=O)C1CC1 (3D coordinates assigned)
Cc1ccc(NC(=O)[N-]c2cccc(S(=O)(=O)N3CCCCC3)c2)c([O-])c1S(=O)(=O)C1CC1 (nonaromatic ring conformer: 335.3529104525686 kcal/mol)

>  <smiles>  (41) 
Cc1ccc(NC(=O)Nc2cccc(S(=O)(=O)N3CCCCC3)c2)c(O)c1S(=O)(=O)C1CC1

>  <score_type>  (41) 
oracle

>  <origin>  (41) 
adgpu

>  <m_score__min__energy>  (41) 
-15.44

>  <m_primary>  (41) 
energy

$$$$
41:0
     RDKit          3D

 40 42  0  0  0  0  0  0  0  0999 V2000
   -4.0871   17.8369  -34.1861 H   0  0  0  0  0  0  0  0  0  0  0  0
   -5.0710   18.1340  -33.7940 C   0  0  0  0  0  0  0  0  0  0  0  0
   -5.5930   19.3970  -34.0950 C   0  0  0  0  0  0  0  0  0  0  0  0
   -5.0180   20.0939  -34.7224 H   0  0  0  0  0  0  0  0  0  0  0  0
   -6.8450   19.7740  -33.5990 C   0  0  0  0  0  0  0  0  0  0  0  0
   -7.2524   20.7680  -33.8356 H   0  0  0  0  0  0  0  0  0  0  0  0
   -7.5820   18.8880  -32.8010 C   0  0  0  0  0  0  0  0  0  0  0  0
   -9.1640   19.3520  -32.1820 S   0  0  0  0  0  0  0  0  0  0  0  0
   -9.4760   18.6110  -30.9120 O   0  0  0  0  0  0  0  0  0  0  0  0
  -10.2030   19.0170  -33.2130 O   0  0  0  0  0  0  0  0  0  0  0  0
   -9.2030   21.0590  -31.8650 N   0  0  0  0  0  0  0  0  0  0  0  0
  -10.1250   21.5380  -31.9720 H   0  0  0  0  0  0  0  0  0  0  0  0
   -8.0390   21.8480  -31.5600 C   0  0  0  0  0  0  0  0  0  0  0  0
   -7.5900   22.8760  -32.4120 C   0  0  0  0  0  0  0  0  0  0  0  0
   -8.1328   23.0887  -33.3448 H   0  0  0  0  0  0  0  0  0  0  0  0
   -6.4600   23.6270  -32.0800 C   0  0  0  0  0  0  0  0  0  0  0  0
   -6.1198   24.4300  -32.7504 H   0  0  0  0  0  0  0  0  0  0  0  0
   -5.7580   23.3620  -30.8970 C   0  0  0  0  0  0  0  0  0  0  0  0
   -4.3190   24.2880  -30.4780 S   0  0  0  0  0  0  0  0  0  0  0  0
   -4.5330   25.7250  -30.8590 O   0  0  0  0  0  0  0  0  0  0  0  0
   -3.1180   23.7700  -31.2210 O   0  0  0  0  0  0  0  0  0  0  0  0
   -4.0340   24.1850  -28.7720 N   0  0  0  0  0  0  0  0  0  0  0  0
   -2.9650   24.6500  -28.2030 C   0  0  0  0  0  0  0  0  0  0  0  0
   -1.9590   25.2650  -28.8560 N   0  0  0  0  0  0  0  0  0  0  0  0
   -1.0790   25.5800  -27.9490 O   0  0  0  0  0  0  0  0  0  0  0  0
   -1.4720   25.1940  -26.7550 C   0  0  0  0  0  0  0  0  0  0  0  0
   -0.7000   25.4150  -25.4980 C   0  0  0  0  0  0  0  0  0  0  0  0
   -1.3505   25.2288  -24.6307 H   0  0  0  0  0  0  0  0  0  0  0  0
    0.1571   24.7261  -25.4682 H   0  0  0  0  0  0  0  0  0  0  0  0
   -0.3373   26.4531  -25.4682 H   0  0  0  0  0  0  0  0  0  0  0  0
   -2.7030   24.5810  -26.8550 C   0  0  0  0  0  0  0  0  0  0  0  0
   -3.3210   24.1456  -26.0560 H   0  0  0  0  0  0  0  0  0  0  0  0
   -6.1920   22.3330  -30.0530 C   0  0  0  0  0  0  0  0  0  0  0  0
   -5.6406   22.1149  -29.1265 H   0  0  0  0  0  0  0  0  0  0  0  0
   -7.3230   21.5820  -30.3830 C   0  0  0  0  0  0  0  0  0  0  0  0
   -7.6552   20.7746  -29.7138 H   0  0  0  0  0  0  0  0  0  0  0  0
   -7.0530   17.6260  -32.4970 C   0  0  0  0  0  0  0  0  0  0  0  0
   -7.6241   16.9296  -31.8655 H   0  0  0  0  0  0  0  0  0  0  0  0
   -5.8020   17.2500  -32.9940 C   0  0  0  0  0  0  0  0  0  0  0  0
   -5.3919   16.2575  -32.7556 H   0  0  0  0  0  0  0  0  0  0  0  0
  1  2  1  0
  2  3  2  0
  3  4  1  0
  3  5  1  0
  5  6  1  0
  5  7  2  0
  7  8  1  0
  8  9  2  0
  8 10  2  0
  8 11  1  0
 11 12  1  0
 11 13  1  0
 13 14  2  0
 14 15  1  0
 14 16  1  0
 16 17  1  0
 16 18  2  0
 18 19  1  0
 19 20  2  0
 19 21  2  0
 19 22  1  0
 22 23  2  0
 23 24  1  0
 24 25  1  0
 25 26  1  0
 26 27  1  0
 27 28  1  0
 27 29  1  0
 27 30  1  0
 26 31  2  0
 31 32  1  0
 18 33  1  0
 33 34  1  0
 33 35  2  0
 35 36  1  0
  7 37  1  0
 37 38  1  0
 37 39  2  0
 39 40  1  0
 39  2  1  0
 35 13  1  0
 31 23  1  0
M  CHG  1  24  -1
M  END
>  <UniqueID>  (42) 
39

>  <SMILES>  (42) 
Cc1c/c(=N/S(=O)(=O)c2ccc(NS(=O)(=O)c3ccccc3)cc2)[n-]o1

>  <Energy>  (42) 
77.60798057989746

>  <Genealogy>  (42) 
Cc1cc(=NS(=O)(=O)c2ccc(NS(=O)(=O)c3ccccc3)cc2)[n-]o1 (protonated)
Cc1c/c(=N/S(=O)(=O)c2ccc(NS(=O)(=O)c3ccccc3)cc2)[n-]o1 (cis-trans isomerization)
Cc1c/c(=N/S(=O)(=O)c2ccc(NS(=O)(=O)c3ccccc3)cc2)[n-]o1 (3D coordinates assigned)
Cc1c/c(=N/S(=O)(=O)c2ccc(NS(=O)(=O)c3ccccc3)cc2)[n-]o1 (optimized conformer: 77.60798057989746 kcal/mol)

>  <smiles>  (42) 
Cc1cc(=NS(=O)(=O)c2ccc(NS(=O)(=O)c3ccccc3)cc2)[nH]o1

>  <score_type>  (42) 
oracle

>  <origin>  (42) 
adgpu

>  <m_score__min__energy>  (42) 
-11.18

>  <m_primary>  (42) 
energy

$$$$
42:0
     RDKit          3D

 72 75  0  0  1  0  0  0  0  0999 V2000
   -3.0190   16.3060  -34.4250 C   0  0  0  0  0  0  0  0  0  0  0  0
   -2.6810   17.7400  -34.2180 C   0  0  0  0  0  0  0  0  0  0  0  0
   -1.4440   18.2180  -34.4610 N   0  0  0  0  0  0  0  0  0  0  0  0
   -1.1130   19.5240  -34.2790 C   0  0  0  0  0  0  0  0  0  0  0  0
    0.2390   19.9920  -34.5550 C   0  0  0  0  0  0  0  0  0  0  0  0
    1.3000   19.1150  -34.5400 C   0  0  0  0  0  0  0  0  0  0  0  0
    2.5460   19.6300  -34.8120 C   0  0  0  0  0  0  0  0  0  0  0  0
    2.7340   20.9650  -35.0880 C   0  0  0  0  0  0  0  0  0  0  0  0
    4.1390   21.4310  -35.3730 C   0  0  0  0  0  0  0  0  0  0  0  0
    1.6710   21.8770  -35.1090 C   0  0  0  0  0  0  0  0  0  0  0  0
    1.9400   23.2210  -35.3990 N   0  0  0  0  0  0  0  0  0  0  0  0
    1.0520   24.1970  -35.8710 C   0  0  0  0  0  0  0  0  0  0  0  0
   -0.1460   23.9140  -36.0880 O   0  0  0  0  0  0  0  0  0  0  0  0
    1.4430   25.5910  -36.1450 C   0  0  0  0  0  0  0  0  0  0  0  0
    2.7450   25.9640  -36.3820 C   0  0  0  0  0  0  0  0  0  0  0  0
    3.0910   27.2870  -36.6380 C   0  0  0  0  0  0  0  0  0  0  0  0
    2.1270   28.2680  -36.6590 C   0  0  0  0  0  0  0  0  0  0  0  0
    0.8170   27.9180  -36.4240 C   0  0  0  0  0  0  0  0  0  0  0  0
   -0.2370   28.9610  -36.4430 C   0  0  0  0  0  0  0  0  0  0  0  0
    0.2600   30.2190  -35.7340 C   0  0  0  0  0  0  0  0  0  0  0  0
   -1.4960   28.4820  -35.7680 C   0  0  0  0  0  0  0  0  0  0  0  0
   -0.4790   29.3260  -37.8950 C   0  0  0  0  0  0  0  0  0  0  0  0
    0.4990   26.6090  -36.1750 C   0  0  0  0  0  0  0  0  0  0  0  0
    0.4370   21.3370  -34.8350 C   0  0  0  0  0  0  0  0  0  0  0  0
   -2.1250   20.3420  -33.8280 C   0  0  0  0  0  0  0  0  0  0  0  0
   -3.4020   19.8300  -33.5820 C   0  0  0  0  0  0  0  0  0  0  0  0
   -4.3080   20.6310  -33.1630 N   0  0  0  0  0  0  0  0  0  0  0  0
   -5.6730   20.2070  -32.8750 C   0  0  0  0  0  0  0  0  0  0  0  0
   -6.3850   21.3640  -32.2350 C   0  0  0  0  0  0  0  0  0  0  0  0
   -7.7640   21.4200  -32.1720 C   0  0  0  0  0  0  0  0  0  0  0  0
   -8.3700   22.5220  -31.5640 C   0  0  0  0  0  0  0  0  0  0  0  0
   -7.5870   23.5390  -31.0340 C   0  0  0  0  0  0  0  0  0  0  0  0
   -6.2050   23.4950  -31.0900 C   0  0  0  0  0  0  0  0  0  0  0  0
   -5.2390   24.7880  -30.4150 S   0  0  0  0  0  0  0  0  0  0  0  0
   -5.3470   24.8820  -28.7100 N   0  0  0  0  0  0  0  0  0  0  0  0
   -3.8100   24.5150  -30.8120 O   0  0  0  0  0  0  0  0  0  0  0  0
   -5.7390   26.0600  -31.0350 O   0  0  0  0  0  0  0  0  0  0  0  0
   -5.6310   22.4030  -31.6910 C   0  0  0  0  0  0  0  0  0  0  0  0
   -3.6890   18.5330  -33.7740 N   0  0  0  0  0  0  0  0  0  0  0  0
   -3.1354   15.8121  -33.4490 H   0  0  0  0  0  0  0  0  0  0  0  0
   -3.9599   16.2289  -34.9895 H   0  0  0  0  0  0  0  0  0  0  0  0
   -2.2116   15.8168  -34.9895 H   0  0  0  0  0  0  0  0  0  0  0  0
    1.1572   18.0468  -34.3196 H   0  0  0  0  0  0  0  0  0  0  0  0
    3.4157   18.9566  -34.8088 H   0  0  0  0  0  0  0  0  0  0  0  0
    4.6668   21.6061  -34.4239 H   0  0  0  0  0  0  0  0  0  0  0  0
    4.6704   20.6610  -35.9515 H   0  0  0  0  0  0  0  0  0  0  0  0
    4.1050   22.3660  -35.9515 H   0  0  0  0  0  0  0  0  0  0  0  0
    2.9410   23.5480  -35.2410 H   0  0  0  0  0  0  0  0  0  0  0  0
    3.5332   25.1968  -36.3689 H   0  0  0  0  0  0  0  0  0  0  0  0
    4.1425   27.5503  -36.8249 H   0  0  0  0  0  0  0  0  0  0  0  0
    2.3987   29.3147  -36.8603 H   0  0  0  0  0  0  0  0  0  0  0  0
    0.2024   30.0732  -34.6452 H   0  0  0  0  0  0  0  0  0  0  0  0
    1.3031   30.4149  -36.0230 H   0  0  0  0  0  0  0  0  0  0  0  0
   -0.3675   31.0750  -36.0230 H   0  0  0  0  0  0  0  0  0  0  0  0
   -1.3681   28.5306  -34.6765 H   0  0  0  0  0  0  0  0  0  0  0  0
   -2.3389   29.1223  -36.0673 H   0  0  0  0  0  0  0  0  0  0  0  0
   -1.7001   27.4434  -36.0673 H   0  0  0  0  0  0  0  0  0  0  0  0
   -1.0862   30.2418  -37.9466 H   0  0  0  0  0  0  0  0  0  0  0  0
    0.4854   29.4968  -38.3958 H   0  0  0  0  0  0  0  0  0  0  0  0
   -1.0117   28.5042  -38.3958 H   0  0  0  0  0  0  0  0  0  0  0  0
   -0.5544   26.3520  -35.9900 H   0  0  0  0  0  0  0  0  0  0  0  0
   -0.4375   22.0043  -34.8378 H   0  0  0  0  0  0  0  0  0  0  0  0
   -1.9260   21.4106  -33.6594 H   0  0  0  0  0  0  0  0  0  0  0  0
   -6.1820   19.9236  -33.8080 H   0  0  0  0  0  0  0  0  0  0  0  0
   -5.6722   19.3359  -32.2034 H   0  0  0  0  0  0  0  0  0  0  0  0
   -8.3755   20.6090  -32.5943 H   0  0  0  0  0  0  0  0  0  0  0  0
   -9.4667   22.5841  -31.5051 H   0  0  0  0  0  0  0  0  0  0  0  0
   -8.0774   24.4009  -30.5579 H   0  0  0  0  0  0  0  0  0  0  0  0
   -6.0950   24.2570  -28.3380 H   0  0  0  0  0  0  0  0  0  0  0  0
   -5.3680   25.8480  -28.3340 H   0  0  0  0  0  0  0  0  0  0  0  0
   -4.5339   22.3452  -31.7457 H   0  0  0  0  0  0  0  0  0  0  0  0
   -4.6520   18.1620  -33.5850 H   0  0  0  0  0  0  0  0  0  0  0  0
  1  2  1  0
  2  3  2  0
  3  4  1  0
  4  5  1  0
  5  6  2  0
  6  7  1  0
  7  8  2  0
  8  9  1  0
  8 10  1  0
 10 11  1  0
 11 12  1  0
 12 13  2  0
 12 14  1  0
 14 15  2  0
 15 16  1  0
 16 17  2  0
 17 18  1  0
 18 19  1  0
 19 20  1  0
 19 21  1  0
 19 22  1  0
 18 23  2  0
 10 24  2  0
  4 25  2  0
 25 26  1  0
 26 27  2  0
 27 28  1  0
 28 29  1  0
 29 30  2  0
 30 31  1  0
 31 32  2  0
 32 33  1  0
 33 34  1  0
 34 35  1  0
 34 36  2  0
 34 37  2  0
 33 38  2  0
 26 39  1  0
 39  2  1  0
 24  5  1  0
 38 29  1  0
 23 14  1  0
  1 40  1  0
  1 41  1  0
  1 42  1  0
  6 43  1  0
  7 44  1  0
  9 45  1  0
  9 46  1  0
  9 47  1  0
 11 48  1  0
 15 49  1  0
 16 50  1  0
 17 51  1  0
 20 52  1  0
 20 53  1  0
 20 54  1  0
 21 55  1  0
 21 56  1  0
 21 57  1  0
 22 58  1  0
 22 59  1  0
 22 60  1  0
 23 61  1  0
 24 62  1  0
 25 63  1  0
 28 64  1  0
 28 65  1  0
 30 66  1  0
 31 67  1  0
 32 68  1  0
 35 69  1  0
 35 70  1  0
 38 71  1  0
 39 72  1  0
M  END
>  <smiles>  (43) 
Cc1nc(-c2ccc(C)c(NC(=O)c3cccc(C(C)(C)C)c3)c2)cc(=NCc2cccc(S(N)(=O)=O)c2)[nH]1

>  <score_type>  (43) 
oracle

>  <origin>  (43) 
adgpu

>  <m_score__min__energy>  (43) 
-12.720000000000001

>  <m_primary>  (43) 
energy

$$$$
43:0
     RDKit          3D

 48 51  0  0  0  0  0  0  0  0999 V2000
   -8.9580   21.5130  -30.4560 O   0  0  0  0  0  0  0  0  0  0  0  0
   -7.8990   21.4850  -31.1400 C   0  0  0  0  0  0  0  0  0  0  0  0
   -7.1460   22.7330  -31.3490 C   0  0  0  0  0  0  0  0  0  0  0  0
   -6.5450   23.4920  -30.3640 C   0  0  0  0  0  0  0  0  0  0  0  0
   -6.0200   24.5590  -31.0600 C   0  0  0  0  0  0  0  0  0  0  0  0
   -5.2280   25.6840  -30.4850 C   0  0  0  0  0  0  0  0  0  0  0  0
   -3.8600   25.2980  -30.3970 O   0  0  0  0  0  0  0  0  0  0  0  0
   -3.4020   24.1440  -29.7430 C   0  0  0  0  0  0  0  0  0  0  0  0
   -3.6220   23.9150  -28.3710 C   0  0  0  0  0  0  0  0  0  0  0  0
   -3.1440   22.7480  -27.7670 C   0  0  0  0  0  0  0  0  0  0  0  0
   -2.4470   21.8020  -28.5220 C   0  0  0  0  0  0  0  0  0  0  0  0
   -2.2240   22.0230  -29.8840 C   0  0  0  0  0  0  0  0  0  0  0  0
   -1.5470   21.1060  -30.6180 F   0  0  0  0  0  0  0  0  0  0  0  0
   -2.7000   23.1890  -30.4920 C   0  0  0  0  0  0  0  0  0  0  0  0
   -6.2980   24.4190  -32.3350 O   0  0  0  0  0  0  0  0  0  0  0  0
   -6.9830   23.3330  -32.5460 N   0  0  0  0  0  0  0  0  0  0  0  0
   -7.4740   20.2480  -31.7430 N   0  0  0  0  0  0  0  0  0  0  0  0
   -8.2190   19.6790  -32.8810 C   0  0  0  0  0  0  0  0  0  0  0  0
   -8.3620   18.1680  -32.7270 C   0  0  0  0  0  0  0  0  0  0  0  0
   -6.9920   17.5270  -32.4970 C   0  0  0  0  0  0  0  0  0  0  0  0
   -6.3330   18.1150  -31.2470 C   0  0  0  0  0  0  0  0  0  0  0  0
   -6.1830   19.6540  -31.3390 C   0  0  1  0  0  0  0  0  0  0  0  0
   -5.0190   20.0860  -32.2320 C   0  0  0  0  0  0  0  0  0  0  0  0
   -4.1990   19.1080  -32.8250 C   0  0  0  0  0  0  0  0  0  0  0  0
   -3.1130   19.4760  -33.6200 C   0  0  0  0  0  0  0  0  0  0  0  0
   -2.8250   20.8270  -33.7990 C   0  0  0  0  0  0  0  0  0  0  0  0
   -3.5860   21.7690  -33.1850 N   0  0  0  0  0  0  0  0  0  0  0  0
   -4.6520   21.4390  -32.4090 C   0  0  0  0  0  0  0  0  0  0  0  0
   -6.4970   23.2926  -29.2833 H   0  0  0  0  0  0  0  0  0  0  0  0
   -5.3198   26.5676  -31.1338 H   0  0  0  0  0  0  0  0  0  0  0  0
   -5.6079   25.9280  -29.4819 H   0  0  0  0  0  0  0  0  0  0  0  0
   -4.1716   24.6565  -27.7726 H   0  0  0  0  0  0  0  0  0  0  0  0
   -3.3173   22.5746  -26.6947 H   0  0  0  0  0  0  0  0  0  0  0  0
   -2.0738   20.8837  -28.0451 H   0  0  0  0  0  0  0  0  0  0  0  0
   -2.5226   23.3579  -31.5644 H   0  0  0  0  0  0  0  0  0  0  0  0
   -9.2194   20.1345  -32.9223 H   0  0  0  0  0  0  0  0  0  0  0  0
   -7.6663   19.8904  -33.8082 H   0  0  0  0  0  0  0  0  0  0  0  0
   -9.0135   17.9506  -31.8677 H   0  0  0  0  0  0  0  0  0  0  0  0
   -8.8015   17.7541  -33.6465 H   0  0  0  0  0  0  0  0  0  0  0  0
   -7.1166   16.4421  -32.3652 H   0  0  0  0  0  0  0  0  0  0  0  0
   -6.3515   17.7299  -33.3680 H   0  0  0  0  0  0  0  0  0  0  0  0
   -6.9517   17.8703  -30.3710 H   0  0  0  0  0  0  0  0  0  0  0  0
   -5.3264   17.6804  -31.1574 H   0  0  0  0  0  0  0  0  0  0  0  0
   -5.9213   20.0398  -30.3427 H   0  0  0  0  0  0  0  0  0  0  0  0
   -4.4165   18.0424  -32.6601 H   0  0  0  0  0  0  0  0  0  0  0  0
   -2.4905   18.7069  -34.1006 H   0  0  0  0  0  0  0  0  0  0  0  0
   -1.9819   21.1304  -34.4371 H   0  0  0  0  0  0  0  0  0  0  0  0
   -5.2335   22.2313  -31.9150 H   0  0  0  0  0  0  0  0  0  0  0  0
  1  2  2  0
  2  3  1  0
  3  4  1  0
  4  5  2  0
  5  6  1  0
  6  7  1  0
  7  8  1  0
  8  9  2  0
  9 10  1  0
 10 11  2  0
 11 12  1  0
 12 13  1  0
 12 14  2  0
  5 15  1  0
 15 16  1  0
  2 17  1  0
 17 18  1  0
 18 19  1  0
 19 20  1  0
 20 21  1  0
 21 22  1  0
 22 23  1  0
 23 24  2  0
 24 25  1  0
 25 26  2  0
 26 27  1  0
 27 28  2  0
 16  3  2  0
 22 17  1  0
 28 23  1  0
 14  8  1  0
  4 29  1  0
  6 30  1  0
  6 31  1  0
  9 32  1  0
 10 33  1  0
 11 34  1  0
 14 35  1  0
 18 36  1  0
 18 37  1  0
 19 38  1  0
 19 39  1  0
 20 40  1  0
 20 41  1  0
 21 42  1  0
 21 43  1  0
 22 44  1  1
 24 45  1  0
 25 46  1  0
 26 47  1  0
 28 48  1  0
M  END
>  <UniqueID>  (44) 
40

>  <SMILES>  (44) 
O=C(c1cc(COc2cccc(F)c2)on1)N1CCCC[C@H]1c1cccnc1

>  <Energy>  (44) 
84.8977230307568

>  <Genealogy>  (44) 
O=C(c1cc(COc2cccc(F)c2)on1)N1CCCC[C@H]1c1cccnc1 (chirality)
O=C(c1cc(COc2cccc(F)c2)on1)N1CCCC[C@H]1c1cccnc1 (3D coordinates assigned)
O=C(c1cc(COc2cccc(F)c2)on1)N1CCCC[C@H]1c1cccnc1 (nonaromatic ring conformer: 84.8977230307568 kcal/mol)

>  <smiles>  (44) 
O=C(c1cc(COc2cccc(F)c2)on1)N1CCCCC1c1cccnc1

>  <score_type>  (44) 
oracle

>  <origin>  (44) 
adgpu

>  <m_score__min__energy>  (44) 
-9.6400000000000006

>  <m_primary>  (44) 
energy

$$$$
44:0
     RDKit          3D

 38 40  0  0  0  0  0  0  0  0999 V2000
   -2.8540   21.3130  -33.7970 N   0  0  0  0  0  0  0  0  0  0  0  0
   -1.5360   20.8680  -32.7730 S   0  0  0  0  0  0  0  0  0  0  0  0
   -1.3280   19.3810  -32.8340 O   0  0  0  0  0  0  0  0  0  0  0  0
   -0.2830   21.5510  -33.2420 O   0  0  0  0  0  0  0  0  0  0  0  0
   -1.8930   21.3510  -31.1170 C   0  0  0  0  0  0  0  0  0  0  0  0
   -1.2160   20.7500  -30.0480 C   0  0  0  0  0  0  0  0  0  0  0  0
   -1.4990   21.1340  -28.7340 C   0  0  0  0  0  0  0  0  0  0  0  0
   -2.4700   22.1050  -28.4810 C   0  0  0  0  0  0  0  0  0  0  0  0
   -3.1820   22.6870  -29.5440 C   0  0  0  0  0  0  0  0  0  0  0  0
   -4.1670   23.7060  -29.3210 N   0  0  0  0  0  0  0  0  0  0  0  0
   -4.6650   24.6360  -30.2930 C   0  0  0  0  0  0  0  0  0  0  0  0
   -3.8560   25.4290  -30.8430 O   0  0  0  0  0  0  0  0  0  0  0  0
   -6.1130   24.6570  -30.7060 C   0  0  0  0  0  0  0  0  0  0  0  0
   -6.5740   23.2970  -31.0320 N   0  0  0  0  0  0  0  0  0  0  0  0
   -7.5840   22.7510  -30.2900 C   0  0  0  0  0  0  0  0  0  0  0  0
   -8.0280   21.4930  -30.5400 N   0  0  0  0  0  0  0  0  0  0  0  0
   -7.4800   20.7380  -31.5230 C   0  0  0  0  0  0  0  0  0  0  0  0
   -7.9580   19.4450  -31.7610 C   0  0  0  0  0  0  0  0  0  0  0  0
   -7.3910   18.6640  -32.7710 C   0  0  0  0  0  0  0  0  0  0  0  0
   -6.3460   19.1710  -33.5470 C   0  0  0  0  0  0  0  0  0  0  0  0
   -5.8620   20.4640  -33.3180 C   0  0  0  0  0  0  0  0  0  0  0  0
   -6.4280   21.2590  -32.3030 C   0  0  0  0  0  0  0  0  0  0  0  0
   -5.9800   22.5630  -32.0290 C   0  0  0  0  0  0  0  0  0  0  0  0
   -5.0280   23.0530  -32.6990 O   0  0  0  0  0  0  0  0  0  0  0  0
   -2.8730   22.3200  -30.8610 C   0  0  0  0  0  0  0  0  0  0  0  0
   -2.4650   21.9300  -34.5450 H   0  0  0  0  0  0  0  0  0  0  0  0
   -3.5000   21.9030  -33.2260 H   0  0  0  0  0  0  0  0  0  0  0  0
   -0.4605   19.9746  -30.2429 H   0  0  0  0  0  0  0  0  0  0  0  0
   -0.9556   20.6702  -27.8976 H   0  0  0  0  0  0  0  0  0  0  0  0
   -2.6784   22.4155  -27.4465 H   0  0  0  0  0  0  0  0  0  0  0  0
   -6.7196   25.0570  -29.8802 H   0  0  0  0  0  0  0  0  0  0  0  0
   -6.2206   25.2932  -31.5969 H   0  0  0  0  0  0  0  0  0  0  0  0
   -8.0424   23.3382  -29.4806 H   0  0  0  0  0  0  0  0  0  0  0  0
   -8.7812   19.0428  -31.1522 H   0  0  0  0  0  0  0  0  0  0  0  0
   -7.7683   17.6474  -32.9556 H   0  0  0  0  0  0  0  0  0  0  0  0
   -5.9021   18.5520  -34.3406 H   0  0  0  0  0  0  0  0  0  0  0  0
   -5.0389   20.8595  -33.9313 H   0  0  0  0  0  0  0  0  0  0  0  0
   -3.4031   22.7956  -31.6993 H   0  0  0  0  0  0  0  0  0  0  0  0
  1  2  1  0
  2  3  2  0
  2  4  2  0
  2  5  1  0
  5  6  2  0
  6  7  1  0
  7  8  2  0
  8  9  1  0
  9 10  1  0
 10 11  1  0
 11 12  2  0
 11 13  1  0
 13 14  1  0
 14 15  1  0
 15 16  2  0
 16 17  1  0
 17 18  2  0
 18 19  1  0
 19 20  2  0
 20 21  1  0
 21 22  2  0
 22 23  1  0
 23 24  2  0
  9 25  2  0
 25  5  1  0
 23 14  1  0
 22 17  1  0
  1 26  1  0
  1 27  1  0
  6 28  1  0
  7 29  1  0
  8 30  1  0
 13 31  1  0
 13 32  1  0
 15 33  1  0
 18 34  1  0
 19 35  1  0
 20 36  1  0
 21 37  1  0
 25 38  1  0
M  CHG  1  10  -1
M  END
>  <UniqueID>  (45) 
41

>  <SMILES>  (45) 
NS(=O)(=O)c1cccc([N-]C(=O)Cn2cnc3ccccc3c2=O)c1

>  <Energy>  (45) 
50.18308570411485

>  <Genealogy>  (45) 
NS(=O)(=O)c1cccc([N-]C(=O)Cn2cnc3ccccc3c2=O)c1 (protonated)
NS(=O)(=O)c1cccc([N-]C(=O)Cn2cnc3ccccc3c2=O)c1 (3D coordinates assigned)
NS(=O)(=O)c1cccc([N-]C(=O)Cn2cnc3ccccc3c2=O)c1 (optimized conformer: 50.18308570411485 kcal/mol)

>  <smiles>  (45) 
NS(=O)(=O)c1cccc(NC(=O)Cn2cnc3ccccc3c2=O)c1

>  <score_type>  (45) 
oracle

>  <origin>  (45) 
adgpu

>  <m_score__min__energy>  (45) 
-10.65

>  <m_primary>  (45) 
energy

$$$$
45:0
     RDKit          3D

 43 45  0  0  0  0  0  0  0  0999 V2000
   -3.7920   25.3110  -30.7040 O   0  0  0  0  0  0  0  0  0  0  0  0
   -3.8580   24.3950  -29.8400 C   0  0  0  0  0  0  0  0  0  0  0  0
   -5.1370   23.9100  -29.4080 N   0  0  0  0  0  0  0  0  0  0  0  0
   -6.1980   23.4120  -30.2380 C   0  0  0  0  0  0  0  0  0  0  0  0
   -6.2650   23.8460  -31.5680 C   0  0  0  0  0  0  0  0  0  0  0  0
   -7.3010   23.4130  -32.4020 C   0  0  0  0  0  0  0  0  0  0  0  0
   -8.2870   22.5560  -31.9060 C   0  0  0  0  0  0  0  0  0  0  0  0
   -8.2430   22.1390  -30.5730 C   0  0  0  0  0  0  0  0  0  0  0  0
   -7.2070   22.5700  -29.7360 C   0  0  0  0  0  0  0  0  0  0  0  0
   -2.6190   23.8430  -29.2330 C   0  0  0  0  0  0  0  0  0  0  0  0
   -2.4990   22.4520  -29.0540 C   0  0  0  0  0  0  0  0  0  0  0  0
   -1.3230   21.8910  -28.5460 C   0  0  0  0  0  0  0  0  0  0  0  0
   -1.1650   20.1390  -28.4090 S   0  0  0  0  0  0  0  0  0  0  0  0
   -2.4030   19.5650  -27.7800 O   0  0  0  0  0  0  0  0  0  0  0  0
    0.0030   19.8290  -27.5150 O   0  0  0  0  0  0  0  0  0  0  0  0
   -0.9050   19.3790  -29.9560 N   0  0  0  0  0  0  0  0  0  0  0  0
   -0.8120   20.3560  -31.0460 C   0  0  0  0  0  0  0  0  0  0  0  0
   -2.1570   20.6500  -31.6640 C   0  0  0  0  0  0  0  0  0  0  0  0
   -2.2390   21.3900  -32.8570 C   0  0  0  0  0  0  0  0  0  0  0  0
   -3.4810   21.6520  -33.4420 C   0  0  0  0  0  0  0  0  0  0  0  0
   -4.6490   21.1640  -32.8530 C   0  0  0  0  0  0  0  0  0  0  0  0
   -4.5770   20.4010  -31.6840 C   0  0  0  0  0  0  0  0  0  0  0  0
   -3.3350   20.1360  -31.0960 C   0  0  0  0  0  0  0  0  0  0  0  0
   -0.2590   22.7200  -28.1840 C   0  0  0  0  0  0  0  0  0  0  0  0
   -0.3660   24.1080  -28.3330 C   0  0  0  0  0  0  0  0  0  0  0  0
    0.6940   24.9370  -27.9680 O   0  0  0  0  0  0  0  0  0  0  0  0
   -1.5370   24.6720  -28.8590 C   0  0  0  0  0  0  0  0  0  0  0  0
   -1.6050   26.0530  -29.0140 O   0  0  0  0  0  0  0  0  0  0  0  0
   -5.4985   24.5313  -31.9589 H   0  0  0  0  0  0  0  0  0  0  0  0
   -7.3396   23.7474  -33.4492 H   0  0  0  0  0  0  0  0  0  0  0  0
   -9.0973   22.2098  -32.5645 H   0  0  0  0  0  0  0  0  0  0  0  0
   -9.0238   21.4709  -30.1807 H   0  0  0  0  0  0  0  0  0  0  0  0
   -7.1818   22.2497  -28.6840 H   0  0  0  0  0  0  0  0  0  0  0  0
   -3.3424   21.7968  -29.3175 H   0  0  0  0  0  0  0  0  0  0  0  0
   -0.3927   21.2919  -30.6481 H   0  0  0  0  0  0  0  0  0  0  0  0
   -0.1669   19.9291  -31.8281 H   0  0  0  0  0  0  0  0  0  0  0  0
   -1.3205   21.7647  -33.3324 H   0  0  0  0  0  0  0  0  0  0  0  0
   -3.5383   22.2435  -34.3677 H   0  0  0  0  0  0  0  0  0  0  0  0
   -5.6264   21.3801  -33.3091 H   0  0  0  0  0  0  0  0  0  0  0  0
   -5.4970   20.0087  -31.2260 H   0  0  0  0  0  0  0  0  0  0  0  0
   -3.2807   19.5223  -30.1847 H   0  0  0  0  0  0  0  0  0  0  0  0
    0.6656   22.2813  -27.7807 H   0  0  0  0  0  0  0  0  0  0  0  0
    0.7050   25.9220  -28.2070 H   0  0  0  0  0  0  0  0  0  0  0  0
  1  2  2  0
  2  3  1  0
  3  4  1  0
  4  5  2  0
  5  6  1  0
  6  7  2  0
  7  8  1  0
  8  9  2  0
  2 10  1  0
 10 11  2  0
 11 12  1  0
 12 13  1  0
 13 14  2  0
 13 15  2  0
 13 16  1  0
 16 17  1  0
 17 18  1  0
 18 19  2  0
 19 20  1  0
 20 21  2  0
 21 22  1  0
 22 23  2  0
 12 24  2  0
 24 25  1  0
 25 26  1  0
 25 27  2  0
 27 28  1  0
  9  4  1  0
 27 10  1  0
 23 18  1  0
  5 29  1  0
  6 30  1  0
  7 31  1  0
  8 32  1  0
  9 33  1  0
 11 34  1  0
 17 35  1  0
 17 36  1  0
 19 37  1  0
 20 38  1  0
 21 39  1  0
 22 40  1  0
 23 41  1  0
 24 42  1  0
 26 43  1  0
M  CHG  3   3  -1  16  -1  28  -1
M  END
>  <UniqueID>  (46) 
42

>  <SMILES>  (46) 
O=C([N-]c1ccccc1)c1cc(S(=O)(=O)[N-]Cc2ccccc2)cc(O)c1[O-]

>  <Energy>  (46) 
48.90927730969201

>  <Genealogy>  (46) 
O=C([N-]c1ccccc1)c1cc(S(=O)(=O)[N-]Cc2ccccc2)cc(O)c1[O-] (protonated)
O=C([N-]c1ccccc1)c1cc(S(=O)(=O)[N-]Cc2ccccc2)cc(O)c1[O-] (3D coordinates assigned)
O=C([N-]c1ccccc1)c1cc(S(=O)(=O)[N-]Cc2ccccc2)cc(O)c1[O-] (optimized conformer: 48.90927730969201 kcal/mol)

>  <smiles>  (46) 
O=C(Nc1ccccc1)c1cc(S(=O)(=O)NCc2ccccc2)cc(O)c1O

>  <score_type>  (46) 
oracle

>  <origin>  (46) 
adgpu

>  <m_score__min__energy>  (46) 
-12.26

>  <m_primary>  (46) 
energy

$$$$
46:0
     RDKit          3D

 42 44  0  0  0  0  0  0  0  0999 V2000
   -6.0120   25.9760  -31.2780 O   0  0  0  0  0  0  0  0  0  0  0  0
   -5.4110   24.9450  -30.3660 S   0  0  0  0  0  0  0  0  0  0  0  0
   -5.9970   25.1030  -28.9910 O   0  0  0  0  0  0  0  0  0  0  0  0
   -3.6930   25.1800  -30.2900 N   0  0  0  0  0  0  0  0  0  0  0  0
   -2.8210   24.5440  -29.3440 C   0  0  0  0  0  0  0  0  0  0  0  0
   -3.1520   23.2570  -28.8990 C   0  0  0  0  0  0  0  0  0  0  0  0
   -2.3630   22.6110  -27.9440 C   0  0  0  0  0  0  0  0  0  0  0  0
   -2.7040   21.3750  -27.5050 F   0  0  0  0  0  0  0  0  0  0  0  0
   -1.2230   23.2410  -27.4360 C   0  0  0  0  0  0  0  0  0  0  0  0
   -0.8640   24.5090  -27.8980 C   0  0  0  0  0  0  0  0  0  0  0  0
   -1.6490   25.1610  -28.8560 C   0  0  0  0  0  0  0  0  0  0  0  0
   -1.2320   26.3980  -29.3320 O   0  0  0  0  0  0  0  0  0  0  0  0
   -5.7540   23.3470  -31.0200 C   0  0  0  0  0  0  0  0  0  0  0  0
   -7.0450   22.8160  -30.9010 C   0  0  0  0  0  0  0  0  0  0  0  0
   -7.3620   21.5970  -31.5010 C   0  0  0  0  0  0  0  0  0  0  0  0
   -6.3920   20.8970  -32.2330 C   0  0  0  0  0  0  0  0  0  0  0  0
   -6.8260   19.4200  -33.0970 S   0  0  0  0  0  0  0  0  0  0  0  0
   -8.2570   19.0720  -32.7970 O   0  0  0  0  0  0  0  0  0  0  0  0
   -6.7020   19.6550  -34.5770 O   0  0  0  0  0  0  0  0  0  0  0  0
   -5.7960   18.0840  -32.6280 N   0  0  0  0  0  0  0  0  0  0  0  0
   -6.3700   16.8030  -33.0850 C   0  0  0  0  0  0  0  0  0  0  0  0
   -5.2810   15.7210  -33.1840 C   0  0  0  0  0  0  0  0  0  0  0  0
   -4.2370   16.0360  -34.0980 O   0  0  0  0  0  0  0  0  0  0  0  0
   -4.0640   17.4300  -34.3130 C   0  0  0  0  0  0  0  0  0  0  0  0
   -4.4010   18.2860  -33.0780 C   0  0  0  0  0  0  0  0  0  0  0  0
   -5.0880   21.4070  -32.3150 C   0  0  0  0  0  0  0  0  0  0  0  0
   -4.7700   22.6270  -31.7100 C   0  0  0  0  0  0  0  0  0  0  0  0
   -4.0404   22.7512  -29.3050 H   0  0  0  0  0  0  0  0  0  0  0  0
   -0.6097   22.7386  -26.6735 H   0  0  0  0  0  0  0  0  0  0  0  0
    0.0404   24.9980  -27.5070 H   0  0  0  0  0  0  0  0  0  0  0  0
   -7.8118   23.3624  -30.3322 H   0  0  0  0  0  0  0  0  0  0  0  0
   -8.3763   21.1835  -31.3996 H   0  0  0  0  0  0  0  0  0  0  0  0
   -7.1388   16.4765  -32.3692 H   0  0  0  0  0  0  0  0  0  0  0  0
   -6.8124   16.9503  -34.0813 H   0  0  0  0  0  0  0  0  0  0  0  0
   -4.8382   15.5829  -32.1866 H   0  0  0  0  0  0  0  0  0  0  0  0
   -5.7695   14.8095  -33.5589 H   0  0  0  0  0  0  0  0  0  0  0  0
   -3.0147   17.6128  -34.5881 H   0  0  0  0  0  0  0  0  0  0  0  0
   -4.7607   17.7242  -35.1118 H   0  0  0  0  0  0  0  0  0  0  0  0
   -3.7202   18.0112  -32.2588 H   0  0  0  0  0  0  0  0  0  0  0  0
   -4.2830   19.3439  -33.3552 H   0  0  0  0  0  0  0  0  0  0  0  0
   -4.3129   20.8454  -32.8570 H   0  0  0  0  0  0  0  0  0  0  0  0
   -3.7455   23.0220  -31.7760 H   0  0  0  0  0  0  0  0  0  0  0  0
  1  2  2  0
  2  3  2  0
  2  4  1  0
  4  5  1  0
  5  6  2  0
  6  7  1  0
  7  8  1  0
  7  9  2  0
  9 10  1  0
 10 11  2  0
 11 12  1  0
  2 13  1  0
 13 14  2  0
 14 15  1  0
 15 16  2  0
 16 17  1  0
 17 18  2  0
 17 19  2  0
 17 20  1  0
 20 21  1  0
 21 22  1  0
 22 23  1  0
 23 24  1  0
 24 25  1  0
 16 26  1  0
 26 27  2  0
 11  5  1  0
 27 13  1  0
 25 20  1  0
  6 28  1  0
  9 29  1  0
 10 30  1  0
 14 31  1  0
 15 32  1  0
 21 33  1  0
 21 34  1  0
 22 35  1  0
 22 36  1  0
 24 37  1  0
 24 38  1  0
 25 39  1  0
 25 40  1  0
 26 41  1  0
 27 42  1  0
M  CHG  2   4  -1  12  -1
M  END
>  <UniqueID>  (47) 
43

>  <SMILES>  (47) 
O=S(=O)([N-]c1cc(F)ccc1[O-])c1ccc(S(=O)(=O)N2CCOCC2)cc1

>  <Energy>  (47) 
60.45073459471977

>  <Genealogy>  (47) 
O=S(=O)([N-]c1cc(F)ccc1[O-])c1ccc(S(=O)(=O)N2CCOCC2)cc1 (protonated)
O=S(=O)([N-]c1cc(F)ccc1[O-])c1ccc(S(=O)(=O)N2CCOCC2)cc1 (3D coordinates assigned)
O=S(=O)([N-]c1cc(F)ccc1[O-])c1ccc(S(=O)(=O)N2CCOCC2)cc1 (nonaromatic ring conformer: 60.45073459471977 kcal/mol)

>  <smiles>  (47) 
O=S(=O)(Nc1cc(F)ccc1O)c1ccc(S(=O)(=O)N2CCOCC2)cc1

>  <score_type>  (47) 
oracle

>  <origin>  (47) 
adgpu

>  <m_score__min__energy>  (47) 
-14.210000000000001

>  <m_primary>  (47) 
energy

$$$$
47:0
     RDKit          3D

 45 47  0  0  0  0  0  0  0  0999 V2000
    0.1890   20.3560  -29.4360 O   0  0  0  0  0  0  0  0  0  0  0  0
   -0.3700   21.1140  -30.2720 C   0  0  0  0  0  0  0  0  0  0  0  0
    0.0330   21.0390  -31.6460 N   0  0  0  0  0  0  0  0  0  0  0  0
   -0.7450   21.5440  -32.7710 C   0  0  0  0  0  0  0  0  0  0  0  0
   -2.1120   20.9250  -32.7440 C   0  0  0  0  0  0  0  0  0  0  0  0
   -3.2530   21.7210  -32.9260 C   0  0  0  0  0  0  0  0  0  0  0  0
   -4.5280   21.1520  -32.8580 C   0  0  0  0  0  0  0  0  0  0  0  0
   -4.6780   19.7840  -32.5890 C   0  0  0  0  0  0  0  0  0  0  0  0
   -6.2890   19.0740  -32.4780 S   0  0  0  0  0  0  0  0  0  0  0  0
   -6.3620   18.2350  -31.2330 O   0  0  0  0  0  0  0  0  0  0  0  0
   -7.3050   20.1740  -32.3500 O   0  0  0  0  0  0  0  0  0  0  0  0
   -6.6840   18.0790  -33.8660 N   0  0  0  0  0  0  0  0  0  0  0  0
   -5.7500   18.2780  -34.9900 C   0  0  0  0  0  0  0  0  0  0  0  0
   -4.4460   17.4560  -34.8490 C   0  0  0  0  0  0  0  0  0  0  0  0
   -4.4880   16.5190  -33.7920 O   0  0  0  0  0  0  0  0  0  0  0  0
   -5.6810   15.7730  -33.8650 C   0  0  0  0  0  0  0  0  0  0  0  0
   -6.8890   16.6580  -33.5130 C   0  0  0  0  0  0  0  0  0  0  0  0
   -3.5390   18.9890  -32.4010 C   0  0  0  0  0  0  0  0  0  0  0  0
   -2.2640   19.5570  -32.4680 C   0  0  0  0  0  0  0  0  0  0  0  0
   -1.4420   22.0190  -29.8150 C   0  0  0  0  0  0  0  0  0  0  0  0
   -2.7050   21.5190  -29.4630 C   0  0  0  0  0  0  0  0  0  0  0  0
   -3.7170   22.3890  -29.0450 C   0  0  0  0  0  0  0  0  0  0  0  0
   -3.4800   23.7690  -28.9880 C   0  0  0  0  0  0  0  0  0  0  0  0
   -4.4840   24.6410  -28.5700 O   0  0  0  0  0  0  0  0  0  0  0  0
   -2.2280   24.2750  -29.3590 C   0  0  0  0  0  0  0  0  0  0  0  0
   -1.9870   25.6430  -29.3130 O   0  0  0  0  0  0  0  0  0  0  0  0
   -1.2160   23.4050  -29.7780 C   0  0  0  0  0  0  0  0  0  0  0  0
   -0.8349   22.6377  -32.6946 H   0  0  0  0  0  0  0  0  0  0  0  0
   -0.2412   21.2855  -33.7140 H   0  0  0  0  0  0  0  0  0  0  0  0
   -3.1437   22.7977  -33.1231 H   0  0  0  0  0  0  0  0  0  0  0  0
   -5.4172   21.7799  -33.0161 H   0  0  0  0  0  0  0  0  0  0  0  0
   -6.2537   17.9785  -35.9209 H   0  0  0  0  0  0  0  0  0  0  0  0
   -5.4682   19.3412  -34.9978 H   0  0  0  0  0  0  0  0  0  0  0  0
   -4.2717   16.9135  -35.7899 H   0  0  0  0  0  0  0  0  0  0  0  0
   -3.6361   18.1655  -34.6238 H   0  0  0  0  0  0  0  0  0  0  0  0
   -5.8027   15.3830  -34.8863 H   0  0  0  0  0  0  0  0  0  0  0  0
   -5.6265   14.9415  -33.1470 H   0  0  0  0  0  0  0  0  0  0  0  0
   -7.7684   16.2844  -34.0580 H   0  0  0  0  0  0  0  0  0  0  0  0
   -7.0298   16.6058  -32.4233 H   0  0  0  0  0  0  0  0  0  0  0  0
   -3.6493   17.9132  -32.1998 H   0  0  0  0  0  0  0  0  0  0  0  0
   -1.3756   18.9295  -32.3038 H   0  0  0  0  0  0  0  0  0  0  0  0
   -2.9000   20.4377  -29.5161 H   0  0  0  0  0  0  0  0  0  0  0  0
   -4.7014   21.9891  -28.7603 H   0  0  0  0  0  0  0  0  0  0  0  0
   -4.3560   25.6460  -28.5920 H   0  0  0  0  0  0  0  0  0  0  0  0
   -0.2382   23.8082  -30.0801 H   0  0  0  0  0  0  0  0  0  0  0  0
  1  2  2  0
  2  3  1  0
  3  4  1  0
  4  5  1  0
  5  6  2  0
  6  7  1  0
  7  8  2  0
  8  9  1  0
  9 10  2  0
  9 11  2  0
  9 12  1  0
 12 13  1  0
 13 14  1  0
 14 15  1  0
 15 16  1  0
 16 17  1  0
  8 18  1  0
 18 19  2  0
  2 20  1  0
 20 21  2  0
 21 22  1  0
 22 23  2  0
 23 24  1  0
 23 25  1  0
 25 26  1  0
 25 27  2  0
 19  5  1  0
 27 20  1  0
 17 12  1  0
  4 28  1  0
  4 29  1  0
  6 30  1  0
  7 31  1  0
 13 32  1  0
 13 33  1  0
 14 34  1  0
 14 35  1  0
 16 36  1  0
 16 37  1  0
 17 38  1  0
 17 39  1  0
 18 40  1  0
 19 41  1  0
 21 42  1  0
 22 43  1  0
 24 44  1  0
 27 45  1  0
M  CHG  2   3  -1  26  -1
M  END
>  <UniqueID>  (48) 
44

>  <SMILES>  (48) 
O=C([N-]Cc1ccc(S(=O)(=O)N2CCOCC2)cc1)c1ccc(O)c([O-])c1

>  <Energy>  (48) 
60.26173274922964

>  <Genealogy>  (48) 
O=C([N-]Cc1ccc(S(=O)(=O)N2CCOCC2)cc1)c1ccc(O)c([O-])c1 (protonated)
O=C([N-]Cc1ccc(S(=O)(=O)N2CCOCC2)cc1)c1ccc(O)c([O-])c1 (3D coordinates assigned)
O=C([N-]Cc1ccc(S(=O)(=O)N2CCOCC2)cc1)c1ccc(O)c([O-])c1 (nonaromatic ring conformer: 60.26173274922964 kcal/mol)

>  <smiles>  (48) 
O=C(NCc1ccc(S(=O)(=O)N2CCOCC2)cc1)c1ccc(O)c(O)c1

>  <score_type>  (48) 
oracle

>  <origin>  (48) 
adgpu

>  <m_score__min__energy>  (48) 
-11.029999999999999

>  <m_primary>  (48) 
energy

$$$$
48:0
     RDKit          3D

 69 72  0  0  0  0  0  0  0  0999 V2000
   -9.1340   18.9270  -32.1740 C   0  0  0  0  0  0  0  0  0  0  0  0
   -8.1030   18.1350  -32.7530 O   0  0  0  0  0  0  0  0  0  0  0  0
   -6.7740   18.5550  -32.9130 C   0  0  0  0  0  0  0  0  0  0  0  0
   -6.5390   19.8780  -33.2960 C   0  0  0  0  0  0  0  0  0  0  0  0
   -5.2360   20.3460  -33.4650 C   0  0  0  0  0  0  0  0  0  0  0  0
   -4.1430   19.4960  -33.2570 C   0  0  0  0  0  0  0  0  0  0  0  0
   -2.8110   19.9980  -33.4320 N   0  0  0  0  0  0  0  0  0  0  0  0
   -2.5300   21.4120  -33.2000 C   0  0  0  0  0  0  0  0  0  0  0  0
   -1.5640   18.9560  -34.0460 S   0  0  0  0  0  0  0  0  0  0  0  0
   -2.1910   17.8560  -34.8580 O   0  0  0  0  0  0  0  0  0  0  0  0
   -0.6360   19.7310  -34.9400 O   0  0  0  0  0  0  0  0  0  0  0  0
   -0.6470   18.2730  -32.7060 C   0  0  0  0  0  0  0  0  0  0  0  0
   -0.2190   16.9400  -32.7540 C   0  0  0  0  0  0  0  0  0  0  0  0
    0.5390   16.4110  -31.7080 C   0  0  0  0  0  0  0  0  0  0  0  0
    0.8720   17.2050  -30.6080 C   0  0  0  0  0  0  0  0  0  0  0  0
    0.4450   18.5440  -30.5410 C   0  0  0  0  0  0  0  0  0  0  0  0
    0.7940   19.3890  -29.3740 C   0  0  0  0  0  0  0  0  0  0  0  0
    2.0010   19.6580  -29.1290 O   0  0  0  0  0  0  0  0  0  0  0  0
   -0.2350   19.8410  -28.4840 N   0  0  0  0  0  0  0  0  0  0  0  0
   -1.2850   20.7680  -28.7970 C   0  0  0  0  0  0  0  0  0  0  0  0
   -1.1530   21.5740  -29.9340 C   0  0  0  0  0  0  0  0  0  0  0  0
   -2.1350   22.5170  -30.2520 C   0  0  0  0  0  0  0  0  0  0  0  0
   -3.2550   22.6750  -29.4250 C   0  0  0  0  0  0  0  0  0  0  0  0
   -4.4870   23.8750  -29.8240 S   0  0  0  0  0  0  0  0  0  0  0  0
   -3.8820   24.9250  -30.7120 O   0  0  0  0  0  0  0  0  0  0  0  0
   -4.9520   24.5480  -28.5610 O   0  0  0  0  0  0  0  0  0  0  0  0
   -5.8510   23.1510  -30.6390 N   0  0  0  0  0  0  0  0  0  0  0  0
   -6.9960   23.0450  -29.7210 C   0  0  0  0  0  0  0  0  0  0  0  0
   -8.1230   22.2060  -30.3570 C   0  0  0  0  0  0  0  0  0  0  0  0
   -8.0080   22.1330  -31.8870 C   0  0  0  0  0  0  0  0  0  0  0  0
   -7.5400   23.4700  -32.4690 C   0  0  0  0  0  0  0  0  0  0  0  0
   -6.2100   23.9400  -31.8350 C   0  0  0  0  0  0  0  0  0  0  0  0
   -3.3820   21.8840  -28.2760 C   0  0  0  0  0  0  0  0  0  0  0  0
   -2.4010   20.9380  -27.9590 C   0  0  0  0  0  0  0  0  0  0  0  0
   -0.3150   19.0700  -31.6010 C   0  0  0  0  0  0  0  0  0  0  0  0
   -4.3580   18.1580  -32.8780 C   0  0  0  0  0  0  0  0  0  0  0  0
   -3.2460   17.3200  -32.6990 O   0  0  0  0  0  0  0  0  0  0  0  0
   -3.2660   15.9060  -32.8590 C   0  0  0  0  0  0  0  0  0  0  0  0
   -5.6780   17.6950  -32.7030 C   0  0  0  0  0  0  0  0  0  0  0  0
   -9.0650   18.8740  -31.0774 H   0  0  0  0  0  0  0  0  0  0  0  0
   -9.0198   19.9718  -32.4985 H   0  0  0  0  0  0  0  0  0  0  0  0
  -10.1141   18.5473  -32.4985 H   0  0  0  0  0  0  0  0  0  0  0  0
   -7.3885   20.5560  -33.4656 H   0  0  0  0  0  0  0  0  0  0  0  0
   -5.0658   21.3908  -33.7640 H   0  0  0  0  0  0  0  0  0  0  0  0
   -2.4916   21.6054  -32.1178 H   0  0  0  0  0  0  0  0  0  0  0  0
   -1.5625   21.6728  -33.6537 H   0  0  0  0  0  0  0  0  0  0  0  0
   -3.3243   22.0229  -33.6537 H   0  0  0  0  0  0  0  0  0  0  0  0
   -0.4805   16.3096  -33.6167 H   0  0  0  0  0  0  0  0  0  0  0  0
    0.8755   15.3646  -31.7501 H   0  0  0  0  0  0  0  0  0  0  0  0
    1.4717   16.7808  -29.7892 H   0  0  0  0  0  0  0  0  0  0  0  0
   -0.2706   21.4646  -30.5816 H   0  0  0  0  0  0  0  0  0  0  0  0
   -2.0280   23.1369  -31.1544 H   0  0  0  0  0  0  0  0  0  0  0  0
   -6.6684   22.5630  -28.7880 H   0  0  0  0  0  0  0  0  0  0  0  0
   -7.3790   24.0548  -29.5123 H   0  0  0  0  0  0  0  0  0  0  0  0
   -8.0756   21.1851  -29.9503 H   0  0  0  0  0  0  0  0  0  0  0  0
   -9.0796   22.6925  -30.1159 H   0  0  0  0  0  0  0  0  0  0  0  0
   -7.2830   21.3506  -32.1559 H   0  0  0  0  0  0  0  0  0  0  0  0
   -8.9999   21.8996  -32.3012 H   0  0  0  0  0  0  0  0  0  0  0  0
   -7.3961   23.3551  -33.5535 H   0  0  0  0  0  0  0  0  0  0  0  0
   -8.3086   24.2256  -32.2492 H   0  0  0  0  0  0  0  0  0  0  0  0
   -5.4073   23.8384  -32.5802 H   0  0  0  0  0  0  0  0  0  0  0  0
   -6.3370   24.9870  -31.5225 H   0  0  0  0  0  0  0  0  0  0  0  0
   -4.2565   22.0070  -27.6202 H   0  0  0  0  0  0  0  0  0  0  0  0
   -2.5033   20.3253  -27.0512 H   0  0  0  0  0  0  0  0  0  0  0  0
   -0.6522   20.1164  -31.5629 H   0  0  0  0  0  0  0  0  0  0  0  0
   -3.2728   15.4251  -31.8697 H   0  0  0  0  0  0  0  0  0  0  0  0
   -4.1684   15.6127  -33.4155 H   0  0  0  0  0  0  0  0  0  0  0  0
   -2.3723   15.5873  -33.4155 H   0  0  0  0  0  0  0  0  0  0  0  0
   -5.8539   16.6524  -32.3996 H   0  0  0  0  0  0  0  0  0  0  0  0
  1  2  1  0
  2  3  1  0
  3  4  2  0
  4  5  1  0
  5  6  2  0
  6  7  1  0
  7  8  1  0
  7  9  1  0
  9 10  2  0
  9 11  2  0
  9 12  1  0
 12 13  2  0
 13 14  1  0
 14 15  2  0
 15 16  1  0
 16 17  1  0
 17 18  2  0
 17 19  1  0
 19 20  1  0
 20 21  2  0
 21 22  1  0
 22 23  2  0
 23 24  1  0
 24 25  2  0
 24 26  2  0
 24 27  1  0
 27 28  1  0
 28 29  1  0
 29 30  1  0
 30 31  1  0
 31 32  1  0
 23 33  1  0
 33 34  2  0
 16 35  2  0
  6 36  1  0
 36 37  1  0
 37 38  1  0
 36 39  2  0
 39  3  1  0
 35 12  1  0
 34 20  1  0
 32 27  1  0
  1 40  1  0
  1 41  1  0
  1 42  1  0
  4 43  1  0
  5 44  1  0
  8 45  1  0
  8 46  1  0
  8 47  1  0
 13 48  1  0
 14 49  1  0
 15 50  1  0
 21 51  1  0
 22 52  1  0
 28 53  1  0
 28 54  1  0
 29 55  1  0
 29 56  1  0
 30 57  1  0
 30 58  1  0
 31 59  1  0
 31 60  1  0
 32 61  1  0
 32 62  1  0
 33 63  1  0
 34 64  1  0
 35 65  1  0
 38 66  1  0
 38 67  1  0
 38 68  1  0
 39 69  1  0
M  CHG  1  19  -1
M  END
>  <UniqueID>  (49) 
45

>  <SMILES>  (49) 
COc1ccc(N(C)S(=O)(=O)c2cccc(C(=O)[N-]c3ccc(S(=O)(=O)N4CCCCC4)cc3)c2)c(OC)c1

>  <Energy>  (49) 
83.25426857768662

>  <Genealogy>  (49) 
COc1ccc(N(C)S(=O)(=O)c2cccc(C(=O)[N-]c3ccc(S(=O)(=O)N4CCCCC4)cc3)c2)c(OC)c1 (protonated)
COc1ccc(N(C)S(=O)(=O)c2cccc(C(=O)[N-]c3ccc(S(=O)(=O)N4CCCCC4)cc3)c2)c(OC)c1 (3D coordinates assigned)
COc1ccc(N(C)S(=O)(=O)c2cccc(C(=O)[N-]c3ccc(S(=O)(=O)N4CCCCC4)cc3)c2)c(OC)c1 (nonaromatic ring conformer: 83.25426857768662 kcal/mol)

>  <smiles>  (49) 
COc1ccc(N(C)S(=O)(=O)c2cccc(C(=O)Nc3ccc(S(=O)(=O)N4CCCCC4)cc3)c2)c(OC)c1

>  <score_type>  (49) 
oracle

>  <origin>  (49) 
adgpu

>  <m_score__min__energy>  (49) 
-11.279999999999999

>  <m_primary>  (49) 
energy

$$$$
