0:0
     RDKit          3D

 57 61  0  0  0  0  0  0  0  0999 V2000
   -5.9440   13.3460  -34.6710 C   0  0  0  0  0  0  0  0  0  0  0  0
   -5.7090   14.4550  -33.7550 N   0  0  0  0  0  0  0  0  0  0  0  0
   -6.3260   15.6500  -33.7940 C   0  0  0  0  0  0  0  0  0  0  0  0
   -5.8850   16.3890  -32.7170 C   0  0  0  0  0  0  0  0  0  0  0  0
   -6.2420   17.8070  -32.3580 C   0  0  0  0  0  0  0  0  0  0  0  0
   -5.8490   18.7850  -33.3970 N   0  0  0  0  0  0  0  0  0  0  0  0
   -4.4090   19.1730  -33.3360 C   0  0  0  0  0  0  0  0  0  0  0  0
   -4.1430   20.6860  -33.4790 C   0  0  0  0  0  0  0  0  0  0  0  0
   -5.1420   21.4680  -32.6800 C   0  0  0  0  0  0  0  0  0  0  0  0
   -4.7780   22.6070  -31.9510 C   0  0  0  0  0  0  0  0  0  0  0  0
   -5.7620   23.3650  -31.2970 C   0  0  0  0  0  0  0  0  0  0  0  0
   -5.3190   24.8650  -30.4840 S   0  0  0  0  0  0  0  0  0  0  0  0
   -5.8710   26.0530  -31.2210 O   0  0  0  0  0  0  0  0  0  0  0  0
   -5.8800   24.8370  -29.0860 O   0  0  0  0  0  0  0  0  0  0  0  0
   -3.5870   25.0030  -30.3940 N   0  0  0  0  0  0  0  0  0  0  0  0
   -2.7440   24.1970  -29.5480 C   0  0  0  0  0  0  0  0  0  0  0  0
   -3.0740   22.8700  -29.2250 C   0  0  0  0  0  0  0  0  0  0  0  0
   -2.2860   22.1390  -28.3170 C   0  0  0  0  0  0  0  0  0  0  0  0
   -1.1170   22.7230  -27.7760 C   0  0  0  0  0  0  0  0  0  0  0  0
   -0.7740   24.0400  -28.1210 C   0  0  0  0  0  0  0  0  0  0  0  0
   -1.5780   24.7680  -29.0050 C   0  0  0  0  0  0  0  0  0  0  0  0
   -1.2260   26.0720  -29.3260 O   0  0  0  0  0  0  0  0  0  0  0  0
   -0.3090   21.9980  -26.7270 C   0  0  0  0  0  0  0  0  0  0  0  0
   -0.5310   20.5470  -26.7490 N   0  0  0  0  0  0  0  0  0  0  0  0
   -1.9660   20.2380  -26.7080 C   0  0  0  0  0  0  0  0  0  0  0  0
   -2.6720   20.7250  -27.9820 C   0  0  0  0  0  0  0  0  0  0  0  0
   -7.1080   22.9650  -31.3590 C   0  0  0  0  0  0  0  0  0  0  0  0
   -7.4710   21.8310  -32.0910 C   0  0  0  0  0  0  0  0  0  0  0  0
   -6.4870   21.0810  -32.7530 C   0  0  0  0  0  0  0  0  0  0  0  0
   -6.8320   19.8780  -33.5890 C   0  0  0  0  0  0  0  0  0  0  0  0
   -4.9980   15.5620  -32.0530 C   0  0  0  0  0  0  0  0  0  0  0  0
   -4.9150   14.3840  -32.7010 N   0  0  0  0  0  0  0  0  0  0  0  0
   -6.1382   12.4294  -34.0948 H   0  0  0  0  0  0  0  0  0  0  0  0
   -6.8142   13.5720  -35.3048 H   0  0  0  0  0  0  0  0  0  0  0  0
   -5.0569   13.1996  -35.3048 H   0  0  0  0  0  0  0  0  0  0  0  0
   -7.0532   15.9790  -34.5509 H   0  0  0  0  0  0  0  0  0  0  0  0
   -7.3308   17.8681  -32.2135 H   0  0  0  0  0  0  0  0  0  0  0  0
   -5.6901   18.0624  -31.4414 H   0  0  0  0  0  0  0  0  0  0  0  0
   -4.0062   18.8443  -32.3666 H   0  0  0  0  0  0  0  0  0  0  0  0
   -3.9199   18.6888  -34.1941 H   0  0  0  0  0  0  0  0  0  0  0  0
   -3.1300   20.9123  -33.1148 H   0  0  0  0  0  0  0  0  0  0  0  0
   -4.2340   20.9666  -34.5387 H   0  0  0  0  0  0  0  0  0  0  0  0
   -3.7216   22.9075  -31.8909 H   0  0  0  0  0  0  0  0  0  0  0  0
   -3.9550   22.3990  -29.6854 H   0  0  0  0  0  0  0  0  0  0  0  0
    0.1294   24.5009  -27.6951 H   0  0  0  0  0  0  0  0  0  0  0  0
    0.7584   22.1942  -26.9061 H   0  0  0  0  0  0  0  0  0  0  0  0
   -0.6293   22.3700  -25.7426 H   0  0  0  0  0  0  0  0  0  0  0  0
   -0.1170   20.1540  -27.6310 H   0  0  0  0  0  0  0  0  0  0  0  0
   -2.0969   19.1495  -26.6182 H   0  0  0  0  0  0  0  0  0  0  0  0
   -2.4101   20.7529  -25.8433 H   0  0  0  0  0  0  0  0  0  0  0  0
   -2.3913   20.0694  -28.8195 H   0  0  0  0  0  0  0  0  0  0  0  0
   -3.7579   20.6944  -27.8091 H   0  0  0  0  0  0  0  0  0  0  0  0
   -7.8778   23.5460  -30.8300 H   0  0  0  0  0  0  0  0  0  0  0  0
   -8.5266   21.5269  -32.1481 H   0  0  0  0  0  0  0  0  0  0  0  0
   -7.8300   19.5163  -33.3007 H   0  0  0  0  0  0  0  0  0  0  0  0
   -6.8152   20.1762  -34.6477 H   0  0  0  0  0  0  0  0  0  0  0  0
   -4.4463   15.8249  -31.1384 H   0  0  0  0  0  0  0  0  0  0  0  0
  1  2  1  0
  2  3  1  0
  3  4  2  0
  4  5  1  0
  5  6  1  0
  6  7  1  0
  7  8  1  0
  8  9  1  0
  9 10  2  0
 10 11  1  0
 11 12  1  0
 12 13  2  0
 12 14  2  0
 12 15  1  0
 15 16  1  0
 16 17  2  0
 17 18  1  0
 18 19  2  0
 19 20  1  0
 20 21  2  0
 21 22  1  0
 19 23  1  0
 23 24  1  0
 24 25  1  0
 25 26  1  0
 11 27  2  0
 27 28  1  0
 28 29  2  0
 29 30  1  0
  4 31  1  0
 31 32  2  0
 32  2  1  0
 30  6  1  0
 29  9  1  0
 21 16  1  0
 26 18  1  0
  1 33  1  0
  1 34  1  0
  1 35  1  0
  3 36  1  0
  5 37  1  0
  5 38  1  0
  7 39  1  0
  7 40  1  0
  8 41  1  0
  8 42  1  0
 10 43  1  0
 17 44  1  0
 20 45  1  0
 23 46  1  0
 23 47  1  0
 24 48  1  0
 25 49  1  0
 25 50  1  0
 26 51  1  0
 26 52  1  0
 27 53  1  0
 28 54  1  0
 30 55  1  0
 30 56  1  0
 31 57  1  0
M  CHG  2  15  -1  22  -1
M  END
>  <UniqueID>  (1) 
1

>  <SMILES>  (1) 
Cn1cc(CN2CCc3cc(S(=O)(=O)[N-]c4cc5c(cc4[O-])CNCC5)ccc3C2)cn1

>  <Energy>  (1) 
106.20571980015201

>  <Genealogy>  (1) 
Cn1cc(CN2CCc3cc(S(=O)(=O)[N-]c4cc5c(cc4[O-])CNCC5)ccc3C2)cn1 (protonated)
Cn1cc(CN2CCc3cc(S(=O)(=O)[N-]c4cc5c(cc4[O-])CNCC5)ccc3C2)cn1 (3D coordinates assigned)
Cn1cc(CN2CCc3cc(S(=O)(=O)[N-]c4cc5c(cc4[O-])CNCC5)ccc3C2)cn1 (nonaromatic ring conformer: 106.20571980015201 kcal/mol)

>  <smiles>  (1) 
Cn1cc(CN2CCc3cc(S(=O)(=O)Nc4cc5c(cc4O)CNCC5)ccc3C2)cn1

>  <score_type>  (1) 
oracle

>  <origin>  (1) 
adgpu

>  <m_score__min__energy>  (1) 
-14.94

>  <m_primary>  (1) 
energy

$$$$
1:0
     RDKit          3D

 60 63  0  0  0  0  0  0  0  0999 V2000
   -3.8760   24.3280  -30.5810 O   0  0  0  0  0  0  0  0  0  0  0  0
   -2.9150   23.8530  -29.9160 C   0  0  0  0  0  0  0  0  0  0  0  0
   -2.3620   22.5740  -30.2760 N   0  0  0  0  0  0  0  0  0  0  0  0
   -3.0690   21.5880  -31.0490 C   0  0  0  0  0  0  0  0  0  0  0  0
   -2.5000   21.0120  -32.1990 C   0  0  0  0  0  0  0  0  0  0  0  0
   -3.2160   20.0700  -32.9450 C   0  0  0  0  0  0  0  0  0  0  0  0
   -4.5120   19.7030  -32.5610 C   0  0  0  0  0  0  0  0  0  0  0  0
   -5.4250   18.5170  -33.4890 S   0  0  0  0  0  0  0  0  0  0  0  0
   -4.9080   17.1470  -33.1530 O   0  0  0  0  0  0  0  0  0  0  0  0
   -5.2390   18.7620  -34.9620 O   0  0  0  0  0  0  0  0  0  0  0  0
   -7.1190   18.6240  -33.0820 N   0  0  0  0  0  0  0  0  0  0  0  0
   -7.3490   18.0880  -31.7280 C   0  0  0  0  0  0  0  0  0  0  0  0
   -8.7640   18.4450  -31.2260 C   0  0  0  0  0  0  0  0  0  0  0  0
   -9.5760   18.9020  -32.2900 O   0  0  0  0  0  0  0  0  0  0  0  0
   -9.0630   20.1220  -32.7970 C   0  0  0  0  0  0  0  0  0  0  0  0
   -7.5640   20.0230  -33.1560 C   0  0  0  0  0  0  0  0  0  0  0  0
   -5.0880   20.2880  -31.4260 C   0  0  0  0  0  0  0  0  0  0  0  0
   -4.3750   21.2310  -30.6810 C   0  0  0  0  0  0  0  0  0  0  0  0
   -2.3350   24.6450  -28.8040 C   0  0  0  0  0  0  0  0  0  0  0  0
   -1.1420   25.3700  -28.9780 C   0  0  0  0  0  0  0  0  0  0  0  0
   -0.6010   26.1080  -27.9210 C   0  0  0  0  0  0  0  0  0  0  0  0
   -1.2400   26.1330  -26.6760 C   0  0  0  0  0  0  0  0  0  0  0  0
   -0.5330   27.0450  -25.3440 S   0  0  0  0  0  0  0  0  0  0  0  0
   -1.6060   27.8200  -24.6290 O   0  0  0  0  0  0  0  0  0  0  0  0
    0.4670   28.0180  -25.9030 O   0  0  0  0  0  0  0  0  0  0  0  0
    0.2640   25.9600  -24.2300 N   0  0  0  0  0  0  0  0  0  0  0  0
    1.5070   25.4380  -24.8390 C   0  0  0  0  0  0  0  0  0  0  0  0
    1.9910   24.1680  -24.1320 C   0  0  0  0  0  0  0  0  0  0  0  0
    0.9530   23.0370  -24.2540 C   0  0  0  0  0  0  0  0  0  0  0  0
   -0.4790   23.5630  -24.4470 C   0  0  0  0  0  0  0  0  0  0  0  0
   -0.6720   24.9150  -23.7450 C   0  0  0  0  0  0  0  0  0  0  0  0
   -2.4190   25.4020  -26.4900 C   0  0  0  0  0  0  0  0  0  0  0  0
   -2.9620   24.6620  -27.5450 C   0  0  0  0  0  0  0  0  0  0  0  0
   -1.3540   22.3980  -30.0660 H   0  0  0  0  0  0  0  0  0  0  0  0
   -1.4870   21.3037  -32.5133 H   0  0  0  0  0  0  0  0  0  0  0  0
   -2.7595   19.6157  -33.8367 H   0  0  0  0  0  0  0  0  0  0  0  0
   -7.2407   16.9936  -31.7510 H   0  0  0  0  0  0  0  0  0  0  0  0
   -6.6114   18.5334  -31.0443 H   0  0  0  0  0  0  0  0  0  0  0  0
   -9.2242   17.5510  -30.7799 H   0  0  0  0  0  0  0  0  0  0  0  0
   -8.6799   19.2473  -30.4781 H   0  0  0  0  0  0  0  0  0  0  0  0
   -9.6263   20.3939  -33.7019 H   0  0  0  0  0  0  0  0  0  0  0  0
   -9.1715   20.8850  -32.0121 H   0  0  0  0  0  0  0  0  0  0  0  0
   -7.4086   20.4008  -34.1773 H   0  0  0  0  0  0  0  0  0  0  0  0
   -6.9820   20.6245  -32.4422 H   0  0  0  0  0  0  0  0  0  0  0  0
   -6.1057   20.0039  -31.1200 H   0  0  0  0  0  0  0  0  0  0  0  0
   -4.8408   21.6966  -29.8000 H   0  0  0  0  0  0  0  0  0  0  0  0
   -0.6314   25.3561  -29.9522 H   0  0  0  0  0  0  0  0  0  0  0  0
    0.3318   26.6720  -28.0686 H   0  0  0  0  0  0  0  0  0  0  0  0
    1.3162   25.2068  -25.8974 H   0  0  0  0  0  0  0  0  0  0  0  0
    2.2880   26.2062  -24.7394 H   0  0  0  0  0  0  0  0  0  0  0  0
    2.9358   23.8397  -24.5897 H   0  0  0  0  0  0  0  0  0  0  0  0
    2.1370   24.3953  -23.0657 H   0  0  0  0  0  0  0  0  0  0  0  0
    1.2166   22.4093  -25.1180 H   0  0  0  0  0  0  0  0  0  0  0  0
    0.9728   22.4655  -23.3143 H   0  0  0  0  0  0  0  0  0  0  0  0
   -0.6745   23.6858  -25.5225 H   0  0  0  0  0  0  0  0  0  0  0  0
   -1.1792   22.8381  -24.0064 H   0  0  0  0  0  0  0  0  0  0  0  0
   -1.7021   25.2578  -23.9220 H   0  0  0  0  0  0  0  0  0  0  0  0
   -0.4679   24.7619  -22.6750 H   0  0  0  0  0  0  0  0  0  0  0  0
   -2.9201   25.4096  -25.5108 H   0  0  0  0  0  0  0  0  0  0  0  0
   -3.8875   24.0882  -27.3890 H   0  0  0  0  0  0  0  0  0  0  0  0
  1  2  2  0
  2  3  1  0
  3  4  1  0
  4  5  2  0
  5  6  1  0
  6  7  2  0
  7  8  1  0
  8  9  2  0
  8 10  2  0
  8 11  1  0
 11 12  1  0
 12 13  1  0
 13 14  1  0
 14 15  1  0
 15 16  1  0
  7 17  1  0
 17 18  2  0
  2 19  1  0
 19 20  2  0
 20 21  1  0
 21 22  2  0
 22 23  1  0
 23 24  2  0
 23 25  2  0
 23 26  1  0
 26 27  1  0
 27 28  1  0
 28 29  1  0
 29 30  1  0
 30 31  1  0
 22 32  1  0
 32 33  2  0
 18  4  1  0
 33 19  1  0
 16 11  1  0
 31 26  1  0
  3 34  1  0
  5 35  1  0
  6 36  1  0
 12 37  1  0
 12 38  1  0
 13 39  1  0
 13 40  1  0
 15 41  1  0
 15 42  1  0
 16 43  1  0
 16 44  1  0
 17 45  1  0
 18 46  1  0
 20 47  1  0
 21 48  1  0
 27 49  1  0
 27 50  1  0
 28 51  1  0
 28 52  1  0
 29 53  1  0
 29 54  1  0
 30 55  1  0
 30 56  1  0
 31 57  1  0
 31 58  1  0
 32 59  1  0
 33 60  1  0
M  END
>  <UniqueID>  (2) 
2

>  <SMILES>  (2) 
O=C(Nc1ccc(S(=O)(=O)N2CCOCC2)cc1)c1ccc(S(=O)(=O)N2CCCCC2)cc1

>  <Energy>  (2) 
79.9426030103623

>  <Genealogy>  (2) 
O=C(Nc1ccc(S(=O)(=O)N2CCOCC2)cc1)c1ccc(S(=O)(=O)N2CCCCC2)cc1 (3D coordinates assigned)
O=C(Nc1ccc(S(=O)(=O)N2CCOCC2)cc1)c1ccc(S(=O)(=O)N2CCCCC2)cc1 (nonaromatic ring conformer: 79.9426030103623 kcal/mol)

>  <smiles>  (2) 
O=C(Nc1ccc(S(=O)(=O)N2CCOCC2)cc1)c1ccc(S(=O)(=O)N2CCCCC2)cc1

>  <score_type>  (2) 
oracle

>  <origin>  (2) 
adgpu

>  <m_score__min__energy>  (2) 
-10.210000000000001

>  <m_primary>  (2) 
energy

$$$$
2:0
     RDKit          3D

 65 68  0  0  0  0  0  0  0  0999 V2000
    0.6840   24.2750  -27.0960 C   0  0  0  0  0  0  0  0  0  0  0  0
   -0.1040   24.5140  -28.3160 N   0  0  0  0  0  0  0  0  0  0  0  0
   -1.2070   25.4800  -28.0690 C   0  0  0  0  0  0  0  0  0  0  0  0
   -2.6050   24.8450  -28.1150 C   0  0  0  0  0  0  0  0  0  0  0  0
   -2.7810   24.1070  -29.3720 N   0  0  0  0  0  0  0  0  0  0  0  0
   -4.0850   23.9910  -29.9840 C   0  0  0  0  0  0  0  0  0  0  0  0
   -5.1450   24.8230  -29.5780 C   0  0  0  0  0  0  0  0  0  0  0  0
   -6.4020   24.7130  -30.1770 C   0  0  0  0  0  0  0  0  0  0  0  0
   -6.6200   23.7740  -31.1870 C   0  0  0  0  0  0  0  0  0  0  0  0
   -5.5790   22.9300  -31.6020 C   0  0  0  0  0  0  0  0  0  0  0  0
   -5.7970   21.9400  -32.7170 C   0  0  0  0  0  0  0  0  0  0  0  0
   -6.8600   20.9400  -32.3330 C   0  0  0  0  0  0  0  0  0  0  0  0
   -8.1180   21.3970  -31.9040 C   0  0  0  0  0  0  0  0  0  0  0  0
   -9.1040   20.4910  -31.5130 C   0  0  0  0  0  0  0  0  0  0  0  0
   -8.8420   19.1210  -31.5350 C   0  0  0  0  0  0  0  0  0  0  0  0
   -7.5930   18.6520  -31.9480 C   0  0  0  0  0  0  0  0  0  0  0  0
   -6.5880   19.5550  -32.3490 C   0  0  0  0  0  0  0  0  0  0  0  0
   -5.3130   19.1220  -32.7580 O   0  0  0  0  0  0  0  0  0  0  0  0
   -5.0110   18.4620  -33.9870 C   0  0  0  0  0  0  0  0  0  0  0  0
   -3.4880   18.4750  -34.2430 C   0  0  0  0  0  0  0  0  0  0  0  0
   -2.6920   19.2040  -33.2230 N   0  0  0  0  0  0  0  0  0  0  0  0
   -1.3380   18.6350  -33.0370 C   0  0  0  0  0  0  0  0  0  0  0  0
   -0.6620   19.2060  -31.7730 C   0  0  0  0  0  0  0  0  0  0  0  0
   -1.1350   20.6330  -31.4430 C   0  0  0  0  0  0  0  0  0  0  0  0
   -1.5310   21.3950  -32.7090 C   0  0  0  0  0  0  0  0  0  0  0  0
   -2.6520   20.6670  -33.4860 C   0  0  0  0  0  0  0  0  0  0  0  0
   -4.3170   23.0420  -30.9980 C   0  0  0  0  0  0  0  0  0  0  0  0
   -1.6220   23.4240  -29.9630 C   0  0  0  0  0  0  0  0  0  0  0  0
   -0.5270   23.2270  -28.9100 C   0  0  0  0  0  0  0  0  0  0  0  0
    0.0577   24.4650  -26.2119 H   0  0  0  0  0  0  0  0  0  0  0  0
    1.0309   23.2312  -27.0822 H   0  0  0  0  0  0  0  0  0  0  0  0
    1.5523   24.9502  -27.0822 H   0  0  0  0  0  0  0  0  0  0  0  0
   -1.0611   25.9271  -27.0746 H   0  0  0  0  0  0  0  0  0  0  0  0
   -1.1665   26.2275  -28.8749 H   0  0  0  0  0  0  0  0  0  0  0  0
   -2.7187   24.1530  -27.2675 H   0  0  0  0  0  0  0  0  0  0  0  0
   -3.3640   25.6388  -28.0534 H   0  0  0  0  0  0  0  0  0  0  0  0
   -4.9823   25.5655  -28.7829 H   0  0  0  0  0  0  0  0  0  0  0  0
   -7.2232   25.3686  -29.8518 H   0  0  0  0  0  0  0  0  0  0  0  0
   -7.6107   23.6957  -31.6586 H   0  0  0  0  0  0  0  0  0  0  0  0
   -6.1156   22.4779  -33.6221 H   0  0  0  0  0  0  0  0  0  0  0  0
   -4.8554   21.4041  -32.9072 H   0  0  0  0  0  0  0  0  0  0  0  0
   -8.3265   22.4767  -31.8764 H   0  0  0  0  0  0  0  0  0  0  0  0
  -10.0888   20.8571  -31.1871 H   0  0  0  0  0  0  0  0  0  0  0  0
   -9.6210   18.4084  -31.2263 H   0  0  0  0  0  0  0  0  0  0  0  0
   -7.3923   17.5705  -31.9604 H   0  0  0  0  0  0  0  0  0  0  0  0
   -5.3612   17.4205  -33.9351 H   0  0  0  0  0  0  0  0  0  0  0  0
   -5.5163   18.9893  -34.8096 H   0  0  0  0  0  0  0  0  0  0  0  0
   -3.1366   17.4330  -34.2709 H   0  0  0  0  0  0  0  0  0  0  0  0
   -3.3379   19.0088  -35.1930 H   0  0  0  0  0  0  0  0  0  0  0  0
   -3.2090   19.0690  -32.3200 H   0  0  0  0  0  0  0  0  0  0  0  0
   -1.4183   17.5424  -32.9385 H   0  0  0  0  0  0  0  0  0  0  0  0
   -0.7250   18.9015  -33.9106 H   0  0  0  0  0  0  0  0  0  0  0  0
   -0.8971   18.5510  -30.9212 H   0  0  0  0  0  0  0  0  0  0  0  0
    0.4204   19.2494  -31.9644 H   0  0  0  0  0  0  0  0  0  0  0  0
   -2.0051   20.5758  -30.7725 H   0  0  0  0  0  0  0  0  0  0  0  0
   -0.3055   21.1703  -30.9600 H   0  0  0  0  0  0  0  0  0  0  0  0
   -1.8859   22.3970  -32.4259 H   0  0  0  0  0  0  0  0  0  0  0  0
   -0.6476   21.4601  -33.3612 H   0  0  0  0  0  0  0  0  0  0  0  0
   -3.6192   21.1014  -33.1932 H   0  0  0  0  0  0  0  0  0  0  0  0
   -2.4466   20.8009  -34.5583 H   0  0  0  0  0  0  0  0  0  0  0  0
   -3.4995   22.3805  -31.3206 H   0  0  0  0  0  0  0  0  0  0  0  0
   -1.9364   22.4425  -30.3475 H   0  0  0  0  0  0  0  0  0  0  0  0
   -1.2235   24.0399  -30.7827 H   0  0  0  0  0  0  0  0  0  0  0  0
   -0.9124   22.5752  -28.1121 H   0  0  0  0  0  0  0  0  0  0  0  0
    0.3454   22.7723  -29.4021 H   0  0  0  0  0  0  0  0  0  0  0  0
  1  2  1  0
  2  3  1  0
  3  4  1  0
  4  5  1  0
  5  6  1  0
  6  7  2  0
  7  8  1  0
  8  9  2  0
  9 10  1  0
 10 11  1  0
 11 12  1  0
 12 13  2  0
 13 14  1  0
 14 15  2  0
 15 16  1  0
 16 17  2  0
 17 18  1  0
 18 19  1  0
 19 20  1  0
 20 21  1  0
 21 22  1  0
 22 23  1  0
 23 24  1  0
 24 25  1  0
 25 26  1  0
 10 27  2  0
  5 28  1  0
 28 29  1  0
 29  2  1  0
 27  6  1  0
 17 12  1  0
 26 21  1  0
  1 30  1  0
  1 31  1  0
  1 32  1  0
  3 33  1  0
  3 34  1  0
  4 35  1  0
  4 36  1  0
  7 37  1  0
  8 38  1  0
  9 39  1  0
 11 40  1  0
 11 41  1  0
 13 42  1  0
 14 43  1  0
 15 44  1  0
 16 45  1  0
 19 46  1  0
 19 47  1  0
 20 48  1  0
 20 49  1  0
 21 50  1  0
 22 51  1  0
 22 52  1  0
 23 53  1  0
 23 54  1  0
 24 55  1  0
 24 56  1  0
 25 57  1  0
 25 58  1  0
 26 59  1  0
 26 60  1  0
 27 61  1  0
 28 62  1  0
 28 63  1  0
 29 64  1  0
 29 65  1  0
M  CHG  1  21   1
M  END
>  <UniqueID>  (3) 
3

>  <SMILES>  (3) 
CN1CCN(c2cccc(Cc3ccccc3OCC[NH+]3CCCCC3)c2)CC1

>  <Energy>  (3) 
82.50517073747956

>  <Genealogy>  (3) 
CN1CCN(c2cccc(Cc3ccccc3OCC[NH+]3CCCCC3)c2)CC1 (protonated)
CN1CCN(c2cccc(Cc3ccccc3OCC[NH+]3CCCCC3)c2)CC1 (3D coordinates assigned)
CN1CCN(c2cccc(Cc3ccccc3OCC[NH+]3CCCCC3)c2)CC1 (nonaromatic ring conformer: 82.50517073747956 kcal/mol)

>  <smiles>  (3) 
CN1CCN(c2cccc(Cc3ccccc3OCCN3CCCCC3)c2)CC1

>  <score_type>  (3) 
oracle

>  <origin>  (3) 
adgpu

>  <m_score__min__energy>  (3) 
-8.3300000000000001

>  <m_primary>  (3) 
energy

$$$$
3:0
     RDKit          3D

 59 62  0  0  0  0  0  0  0  0999 V2000
   -7.6670   22.6700  -30.5730 C   0  0  0  0  0  0  0  0  0  0  0  0
   -7.9180   22.0370  -31.8760 N   0  0  0  0  0  0  0  0  0  0  0  0
   -9.0640   21.0950  -31.8100 C   0  0  0  0  0  0  0  0  0  0  0  0
   -8.6120   19.6280  -31.7700 C   0  0  0  0  0  0  0  0  0  0  0  0
   -7.8290   19.2720  -32.9750 N   0  0  0  0  0  0  0  0  0  0  0  0
   -6.8650   17.8500  -32.6550 S   0  0  0  0  0  0  0  0  0  0  0  0
   -6.9220   17.5150  -31.1900 O   0  0  0  0  0  0  0  0  0  0  0  0
   -7.3980   16.6770  -33.4340 O   0  0  0  0  0  0  0  0  0  0  0  0
   -5.1870   18.1490  -33.1050 C   0  0  0  0  0  0  0  0  0  0  0  0
   -4.4310   19.0870  -32.3900 C   0  0  0  0  0  0  0  0  0  0  0  0
   -3.1090   19.3540  -32.7600 C   0  0  0  0  0  0  0  0  0  0  0  0
   -2.5340   18.6960  -33.8590 C   0  0  0  0  0  0  0  0  0  0  0  0
   -1.1040   18.9660  -34.2410 C   0  0  0  0  0  0  0  0  0  0  0  0
   -0.2230   18.8040  -33.0730 N   0  0  0  0  0  0  0  0  0  0  0  0
   -0.0900   17.5610  -32.5150 C   0  0  0  0  0  0  0  0  0  0  0  0
    0.7540   17.3530  -31.4220 C   0  0  0  0  0  0  0  0  0  0  0  0
    1.4810   18.4290  -30.8930 C   0  0  0  0  0  0  0  0  0  0  0  0
    2.3460   18.2950  -29.7930 O   0  0  0  0  0  0  0  0  0  0  0  0
    1.9450   18.3380  -28.4230 C   0  0  0  0  0  0  0  0  0  0  0  0
    0.6670   19.1120  -28.2670 C   0  0  0  0  0  0  0  0  0  0  0  0
   -0.4730   18.5110  -27.7140 C   0  0  0  0  0  0  0  0  0  0  0  0
   -1.6410   19.2630  -27.5640 C   0  0  0  0  0  0  0  0  0  0  0  0
   -1.6580   20.6040  -27.9550 C   0  0  0  0  0  0  0  0  0  0  0  0
   -3.1150   21.5630  -27.7710 Cl  0  0  0  0  0  0  0  0  0  0  0  0
   -0.4990   21.1740  -28.4890 C   0  0  0  0  0  0  0  0  0  0  0  0
    0.6270   20.4250  -28.6280 N   0  0  0  0  0  0  0  0  0  0  0  0
    1.3470   19.6870  -31.4800 C   0  0  0  0  0  0  0  0  0  0  0  0
    0.4930   19.8630  -32.5730 C   0  0  0  0  0  0  0  0  0  0  0  0
    0.3920   21.0110  -33.0870 O   0  0  0  0  0  0  0  0  0  0  0  0
   -3.2940   17.7530  -34.5700 C   0  0  0  0  0  0  0  0  0  0  0  0
   -4.6140   17.4840  -34.1960 C   0  0  0  0  0  0  0  0  0  0  0  0
   -6.9810   20.3830  -33.4840 C   0  0  0  0  0  0  0  0  0  0  0  0
   -6.6740   21.4250  -32.3970 C   0  0  0  0  0  0  0  0  0  0  0  0
   -7.9432   21.9734  -29.7677 H   0  0  0  0  0  0  0  0  0  0  0  0
   -6.6001   22.9240  -30.4882 H   0  0  0  0  0  0  0  0  0  0  0  0
   -8.2699   23.5861  -30.4882 H   0  0  0  0  0  0  0  0  0  0  0  0
   -9.6469   21.3103  -30.9023 H   0  0  0  0  0  0  0  0  0  0  0  0
   -9.6679   21.2361  -32.7185 H   0  0  0  0  0  0  0  0  0  0  0  0
   -7.9882   19.4697  -30.8779 H   0  0  0  0  0  0  0  0  0  0  0  0
   -9.5076   18.9901  -31.7376 H   0  0  0  0  0  0  0  0  0  0  0  0
   -8.5020   19.0090  -33.7330 H   0  0  0  0  0  0  0  0  0  0  0  0
   -4.8785   19.6150  -31.5351 H   0  0  0  0  0  0  0  0  0  0  0  0
   -2.5169   20.0830  -32.1873 H   0  0  0  0  0  0  0  0  0  0  0  0
   -0.7987   18.2590  -35.0264 H   0  0  0  0  0  0  0  0  0  0  0  0
   -1.0216   19.9989  -34.6103 H   0  0  0  0  0  0  0  0  0  0  0  0
   -0.6553   16.7150  -32.9330 H   0  0  0  0  0  0  0  0  0  0  0  0
    0.8479   16.3507  -30.9786 H   0  0  0  0  0  0  0  0  0  0  0  0
    1.7918   17.3112  -28.0594 H   0  0  0  0  0  0  0  0  0  0  0  0
    2.7333   18.8363  -27.8396 H   0  0  0  0  0  0  0  0  0  0  0  0
   -0.4479   17.4568  -27.4011 H   0  0  0  0  0  0  0  0  0  0  0  0
   -2.5443   18.8006  -27.1394 H   0  0  0  0  0  0  0  0  0  0  0  0
   -0.4979   22.2299  -28.7972 H   0  0  0  0  0  0  0  0  0  0  0  0
    1.9139   20.5418  -31.0826 H   0  0  0  0  0  0  0  0  0  0  0  0
   -2.8486   17.2236  -35.4252 H   0  0  0  0  0  0  0  0  0  0  0  0
   -5.2045   16.7475  -34.7607 H   0  0  0  0  0  0  0  0  0  0  0  0
   -6.0324   19.9646  -33.8515 H   0  0  0  0  0  0  0  0  0  0  0  0
   -7.5347   20.8884  -34.2890 H   0  0  0  0  0  0  0  0  0  0  0  0
   -6.1416   20.9339  -31.5692 H   0  0  0  0  0  0  0  0  0  0  0  0
   -6.0541   22.2185  -32.8399 H   0  0  0  0  0  0  0  0  0  0  0  0
  1  2  1  0
  2  3  1  0
  3  4  1  0
  4  5  1  0
  5  6  1  0
  6  7  2  0
  6  8  2  0
  6  9  1  0
  9 10  2  0
 10 11  1  0
 11 12  2  0
 12 13  1  0
 13 14  1  0
 14 15  1  0
 15 16  2  0
 16 17  1  0
 17 18  1  0
 18 19  1  0
 19 20  1  0
 20 21  2  0
 21 22  1  0
 22 23  2  0
 23 24  1  0
 23 25  1  0
 25 26  2  0
 17 27  2  0
 27 28  1  0
 28 29  2  0
 12 30  1  0
 30 31  2  0
  5 32  1  0
 32 33  1  0
 33  2  1  0
 31  9  1  0
 28 14  1  0
 26 20  1  0
  1 34  1  0
  1 35  1  0
  1 36  1  0
  3 37  1  0
  3 38  1  0
  4 39  1  0
  4 40  1  0
  5 41  1  0
 10 42  1  0
 11 43  1  0
 13 44  1  0
 13 45  1  0
 15 46  1  0
 16 47  1  0
 19 48  1  0
 19 49  1  0
 21 50  1  0
 22 51  1  0
 25 52  1  0
 27 53  1  0
 30 54  1  0
 31 55  1  0
 32 56  1  0
 32 57  1  0
 33 58  1  0
 33 59  1  0
M  CHG  1   5   1
M  END
>  <UniqueID>  (4) 
4

>  <SMILES>  (4) 
CN1CC[NH+](S(=O)(=O)c2ccc(Cn3ccc(OCc4ccc(Cl)cn4)cc3=O)cc2)CC1

>  <Energy>  (4) 
73.65723802054681

>  <Genealogy>  (4) 
CN1CC[NH+](S(=O)(=O)c2ccc(Cn3ccc(OCc4ccc(Cl)cn4)cc3=O)cc2)CC1 (protonated)
CN1CC[NH+](S(=O)(=O)c2ccc(Cn3ccc(OCc4ccc(Cl)cn4)cc3=O)cc2)CC1 (3D coordinates assigned)
CN1CC[NH+](S(=O)(=O)c2ccc(Cn3ccc(OCc4ccc(Cl)cn4)cc3=O)cc2)CC1 (nonaromatic ring conformer: 73.65723802054681 kcal/mol)

>  <smiles>  (4) 
CN1CCN(S(=O)(=O)c2ccc(Cn3ccc(OCc4ccc(Cl)cn4)cc3=O)cc2)CC1

>  <score_type>  (4) 
oracle

>  <origin>  (4) 
adgpu

>  <m_score__min__energy>  (4) 
-9.5

>  <m_primary>  (4) 
energy

$$$$
4:0
     RDKit          3D

 57 60  0  0  0  0  0  0  0  0999 V2000
   -6.4490   25.5720  -29.5330 C   0  0  0  0  0  0  0  0  0  0  0  0
   -5.8140   24.8710  -30.6940 C   0  0  0  0  0  0  0  0  0  0  0  0
   -4.7170   25.3050  -31.1360 O   0  0  0  0  0  0  0  0  0  0  0  0
   -6.4260   23.6980  -31.2680 N   0  0  0  0  0  0  0  0  0  0  0  0
   -7.8760   23.5100  -31.3890 C   0  0  0  0  0  0  0  0  0  0  0  0
   -8.0840   22.1050  -31.9960 C   0  0  0  0  0  0  0  0  0  0  0  0
   -6.6970   21.6120  -32.2080 C   0  0  0  0  0  0  0  0  0  0  0  0
   -6.3050   20.3960  -32.7670 C   0  0  0  0  0  0  0  0  0  0  0  0
   -4.9350   20.1250  -32.8950 C   0  0  0  0  0  0  0  0  0  0  0  0
   -3.9810   21.0700  -32.4640 C   0  0  0  0  0  0  0  0  0  0  0  0
   -2.2560   20.7360  -32.6050 S   0  0  0  0  0  0  0  0  0  0  0  0
   -1.6160   21.8410  -33.4000 O   0  0  0  0  0  0  0  0  0  0  0  0
   -2.0100   19.4330  -33.3140 O   0  0  0  0  0  0  0  0  0  0  0  0
   -1.5430   20.6750  -31.0210 N   0  0  0  0  0  0  0  0  0  0  0  0
   -1.8060   21.6360  -29.9810 C   0  0  0  0  0  0  0  0  0  0  0  0
   -1.9020   21.2630  -28.6280 C   0  0  0  0  0  0  0  0  0  0  0  0
   -2.1450   22.2260  -27.6450 C   0  0  0  0  0  0  0  0  0  0  0  0
   -2.2840   23.5790  -27.9860 C   0  0  0  0  0  0  0  0  0  0  0  0
   -2.5320   24.5870  -26.9300 C   0  0  0  0  0  0  0  0  0  0  0  0
   -3.6990   24.7070  -26.4630 O   0  0  0  0  0  0  0  0  0  0  0  0
   -1.4730   25.4330  -26.4330 N   0  0  0  0  0  0  0  0  0  0  0  0
   -1.5080   25.9450  -25.0580 C   0  0  0  0  0  0  0  0  0  0  0  0
   -1.3060   27.4760  -25.0260 C   0  0  0  0  0  0  0  0  0  0  0  0
   -0.6380   28.0030  -26.2390 N   0  0  0  0  0  0  0  0  0  0  0  0
   -0.0190   29.3090  -25.9630 C   0  0  0  0  0  0  0  0  0  0  0  0
    0.3610   27.0580  -26.7620 C   0  0  0  0  0  0  0  0  0  0  0  0
   -0.3610   25.8270  -27.3140 C   0  0  0  0  0  0  0  0  0  0  0  0
   -2.2150   23.9530  -29.3400 C   0  0  0  0  0  0  0  0  0  0  0  0
   -2.3670   25.2820  -29.7180 O   0  0  0  0  0  0  0  0  0  0  0  0
   -1.9730   22.9890  -30.3240 C   0  0  0  0  0  0  0  0  0  0  0  0
   -4.4050   22.2910  -31.9070 C   0  0  0  0  0  0  0  0  0  0  0  0
   -5.7790   22.5360  -31.7820 C   0  0  0  0  0  0  0  0  0  0  0  0
   -6.0647   25.1477  -28.5937 H   0  0  0  0  0  0  0  0  0  0  0  0
   -6.2087   26.6446  -29.5762 H   0  0  0  0  0  0  0  0  0  0  0  0
   -7.5400   25.4386  -29.5762 H   0  0  0  0  0  0  0  0  0  0  0  0
   -8.3515   23.5710  -30.3990 H   0  0  0  0  0  0  0  0  0  0  0  0
   -8.3278   24.2886  -32.0212 H   0  0  0  0  0  0  0  0  0  0  0  0
   -8.6315   21.4526  -31.2998 H   0  0  0  0  0  0  0  0  0  0  0  0
   -8.6801   22.1206  -32.9204 H   0  0  0  0  0  0  0  0  0  0  0  0
   -7.0553   19.6641  -33.1008 H   0  0  0  0  0  0  0  0  0  0  0  0
   -4.6034   19.1721  -33.3331 H   0  0  0  0  0  0  0  0  0  0  0  0
   -0.8430   19.9170  -30.8480 H   0  0  0  0  0  0  0  0  0  0  0  0
   -1.7851   20.2072  -28.3422 H   0  0  0  0  0  0  0  0  0  0  0  0
   -2.2282   21.9192  -26.5919 H   0  0  0  0  0  0  0  0  0  0  0  0
   -2.4827   25.7024  -24.6096 H   0  0  0  0  0  0  0  0  0  0  0  0
   -0.6917   25.4743  -24.4905 H   0  0  0  0  0  0  0  0  0  0  0  0
   -2.2911   27.9566  -24.9329 H   0  0  0  0  0  0  0  0  0  0  0  0
   -0.6532   27.7013  -24.1698 H   0  0  0  0  0  0  0  0  0  0  0  0
    0.0519   29.4587  -24.8755 H   0  0  0  0  0  0  0  0  0  0  0  0
    0.9885   29.3377  -26.4036 H   0  0  0  0  0  0  0  0  0  0  0  0
   -0.6347   30.1070  -26.4036 H   0  0  0  0  0  0  0  0  0  0  0  0
    0.9383   27.5385  -27.5656 H   0  0  0  0  0  0  0  0  0  0  0  0
    1.0466   26.7572  -25.9561 H   0  0  0  0  0  0  0  0  0  0  0  0
   -0.7578   26.0598  -28.3132 H   0  0  0  0  0  0  0  0  0  0  0  0
    0.3556   24.9943  -27.3705 H   0  0  0  0  0  0  0  0  0  0  0  0
   -1.9126   23.2933  -31.3793 H   0  0  0  0  0  0  0  0  0  0  0  0
   -3.6706   23.0399  -31.5756 H   0  0  0  0  0  0  0  0  0  0  0  0
  1  2  1  0
  2  3  2  0
  2  4  1  0
  4  5  1  0
  5  6  1  0
  6  7  1  0
  7  8  2  0
  8  9  1  0
  9 10  2  0
 10 11  1  0
 11 12  2  0
 11 13  2  0
 11 14  1  0
 14 15  1  0
 15 16  2  0
 16 17  1  0
 17 18  2  0
 18 19  1  0
 19 20  2  0
 19 21  1  0
 21 22  1  0
 22 23  1  0
 23 24  1  0
 24 25  1  0
 24 26  1  0
 26 27  1  0
 18 28  1  0
 28 29  1  0
 28 30  2  0
 10 31  1  0
 31 32  2  0
 32  4  1  0
 32  7  1  0
 30 15  1  0
 27 21  1  0
  1 33  1  0
  1 34  1  0
  1 35  1  0
  5 36  1  0
  5 37  1  0
  6 38  1  0
  6 39  1  0
  8 40  1  0
  9 41  1  0
 14 42  1  0
 16 43  1  0
 17 44  1  0
 22 45  1  0
 22 46  1  0
 23 47  1  0
 23 48  1  0
 25 49  1  0
 25 50  1  0
 25 51  1  0
 26 52  1  0
 26 53  1  0
 27 54  1  0
 27 55  1  0
 30 56  1  0
 31 57  1  0
M  CHG  1  29  -1
M  END
>  <UniqueID>  (5) 
5

>  <SMILES>  (5) 
CC(=O)N1CCc2ccc(S(=O)(=O)Nc3ccc(C(=O)N4CCN(C)CC4)c([O-])c3)cc21

>  <Energy>  (5) 
88.56743509485948

>  <Genealogy>  (5) 
CC(=O)N1CCc2ccc(S(=O)(=O)Nc3ccc(C(=O)N4CCN(C)CC4)c([O-])c3)cc21 (protonated)
CC(=O)N1CCc2ccc(S(=O)(=O)Nc3ccc(C(=O)N4CCN(C)CC4)c([O-])c3)cc21 (3D coordinates assigned)
CC(=O)N1CCc2ccc(S(=O)(=O)Nc3ccc(C(=O)N4CCN(C)CC4)c([O-])c3)cc21 (nonaromatic ring conformer: 88.56743509485948 kcal/mol)

>  <smiles>  (5) 
CC(=O)N1CCc2ccc(S(=O)(=O)Nc3ccc(C(=O)N4CCN(C)CC4)c(O)c3)cc21

>  <score_type>  (5) 
oracle

>  <origin>  (5) 
adgpu

>  <m_score__min__energy>  (5) 
-13.35

>  <m_primary>  (5) 
energy

$$$$
5:0
     RDKit          3D

 70 74  0  0  0  0  0  0  0  0999 V2000
   -9.1220   23.1160  -32.0320 C   0  0  0  0  0  0  0  0  0  0  0  0
   -8.6580   21.6960  -32.1560 C   0  0  0  0  0  0  0  0  0  0  0  0
   -7.3080   21.4240  -32.4180 C   0  0  0  0  0  0  0  0  0  0  0  0
   -6.8660   20.1030  -32.5450 C   0  0  0  0  0  0  0  0  0  0  0  0
   -7.7730   19.0390  -32.4280 C   0  0  0  0  0  0  0  0  0  0  0  0
   -7.3160   17.6210  -32.6470 C   0  0  0  0  0  0  0  0  0  0  0  0
   -6.0270   17.1750  -31.4300 S   0  0  0  0  0  0  0  0  0  0  0  0
   -5.0490   16.1940  -32.5850 C   0  0  0  0  0  0  0  0  0  0  0  0
   -4.8120   14.9020  -32.2370 N   0  0  0  0  0  0  0  0  0  0  0  0
   -4.1630   14.0510  -33.0570 C   0  0  0  0  0  0  0  0  0  0  0  0
   -3.9500   12.8650  -32.6910 O   0  0  0  0  0  0  0  0  0  0  0  0
   -3.7440   14.4880  -34.3010 C   0  0  0  0  0  0  0  0  0  0  0  0
   -3.9780   15.8170  -34.6760 C   0  0  0  0  0  0  0  0  0  0  0  0
   -3.4860   16.2320  -36.0430 C   0  0  0  0  0  0  0  0  0  0  0  0
   -4.5830   16.6910  -33.7870 N   0  0  0  0  0  0  0  0  0  0  0  0
   -4.6090   18.1580  -34.0430 C   0  0  0  0  0  0  0  0  0  0  0  0
   -3.6500   18.8710  -33.1160 C   0  0  0  0  0  0  0  0  0  0  0  0
   -3.9020   20.1890  -32.6990 C   0  0  0  0  0  0  0  0  0  0  0  0
   -2.9140   20.9200  -32.0300 C   0  0  0  0  0  0  0  0  0  0  0  0
   -1.6680   20.3350  -31.7520 C   0  0  0  0  0  0  0  0  0  0  0  0
   -0.6070   21.1310  -31.1020 C   0  0  0  0  0  0  0  0  0  0  0  0
    0.2580   21.6780  -31.8440 O   0  0  0  0  0  0  0  0  0  0  0  0
   -0.4940   21.2730  -29.6560 N   0  0  0  0  0  0  0  0  0  0  0  0
   -0.3480   22.6750  -29.2360 C   0  0  0  0  0  0  0  0  0  0  0  0
   -1.5780   23.5070  -29.5970 C   0  0  0  0  0  0  0  0  0  0  0  0
   -2.8410   22.7690  -29.3980 N   0  0  0  0  0  0  0  0  0  0  0  0
   -4.1100   23.4090  -29.6910 C   0  0  0  0  0  0  0  0  0  0  0  0
   -4.1890   24.7470  -30.1330 C   0  0  0  0  0  0  0  0  0  0  0  0
   -5.4280   25.3000  -30.4540 C   0  0  0  0  0  0  0  0  0  0  0  0
   -6.5830   24.5390  -30.3170 C   0  0  0  0  0  0  0  0  0  0  0  0
   -6.4830   23.2280  -29.8560 C   0  0  0  0  0  0  0  0  0  0  0  0
   -5.2670   22.6950  -29.5720 N   0  0  0  0  0  0  0  0  0  0  0  0
   -2.8860   21.4180  -28.7920 C   0  0  0  0  0  0  0  0  0  0  0  0
   -1.5590   20.6200  -28.8700 C   0  0  0  0  0  0  0  0  0  0  0  0
   -1.4700   18.9780  -32.0330 C   0  0  0  0  0  0  0  0  0  0  0  0
   -2.4450   18.2560  -32.7250 C   0  0  0  0  0  0  0  0  0  0  0  0
   -9.1240   19.3130  -32.1630 C   0  0  0  0  0  0  0  0  0  0  0  0
   -9.5630   20.6320  -32.0210 C   0  0  0  0  0  0  0  0  0  0  0  0
   -9.2088   23.3818  -30.9681 H   0  0  0  0  0  0  0  0  0  0  0  0
   -8.3951   23.7831  -32.5184 H   0  0  0  0  0  0  0  0  0  0  0  0
  -10.1025   23.2251  -32.5184 H   0  0  0  0  0  0  0  0  0  0  0  0
   -6.5930   22.2532  -32.5242 H   0  0  0  0  0  0  0  0  0  0  0  0
   -5.8026   19.8975  -32.7374 H   0  0  0  0  0  0  0  0  0  0  0  0
   -8.1735   16.9416  -32.5328 H   0  0  0  0  0  0  0  0  0  0  0  0
   -6.8974   17.5323  -33.6604 H   0  0  0  0  0  0  0  0  0  0  0  0
   -3.2322   13.7986  -34.9886 H   0  0  0  0  0  0  0  0  0  0  0  0
   -2.6494   16.9377  -35.9329 H   0  0  0  0  0  0  0  0  0  0  0  0
   -3.1461   15.3437  -36.5956 H   0  0  0  0  0  0  0  0  0  0  0  0
   -4.3043   16.7168  -36.5956 H   0  0  0  0  0  0  0  0  0  0  0  0
   -4.3154   18.3494  -35.0857 H   0  0  0  0  0  0  0  0  0  0  0  0
   -5.6268   18.5342  -33.8623 H   0  0  0  0  0  0  0  0  0  0  0  0
   -4.8811   20.6485  -32.8995 H   0  0  0  0  0  0  0  0  0  0  0  0
   -3.1140   21.9565  -31.7208 H   0  0  0  0  0  0  0  0  0  0  0  0
    0.3980   20.7890  -29.3900 H   0  0  0  0  0  0  0  0  0  0  0  0
   -0.2040   22.7069  -28.1459 H   0  0  0  0  0  0  0  0  0  0  0  0
    0.5191   23.1008  -29.7621 H   0  0  0  0  0  0  0  0  0  0  0  0
   -1.5925   24.4070  -28.9647 H   0  0  0  0  0  0  0  0  0  0  0  0
   -1.5059   23.7622  -30.6645 H   0  0  0  0  0  0  0  0  0  0  0  0
   -3.2750   25.3523  -30.2241 H   0  0  0  0  0  0  0  0  0  0  0  0
   -5.4913   26.3371  -30.8152 H   0  0  0  0  0  0  0  0  0  0  0  0
   -7.5645   24.9667  -30.5696 H   0  0  0  0  0  0  0  0  0  0  0  0
   -7.3919   22.6230  -29.7217 H   0  0  0  0  0  0  0  0  0  0  0  0
   -3.1557   21.5287  -27.7313 H   0  0  0  0  0  0  0  0  0  0  0  0
   -3.6237   20.8450  -29.3730 H   0  0  0  0  0  0  0  0  0  0  0  0
   -1.1872   20.4717  -27.8454 H   0  0  0  0  0  0  0  0  0  0  0  0
   -1.7926   19.6767  -29.3853 H   0  0  0  0  0  0  0  0  0  0  0  0
   -0.5448   18.4794  -31.7082 H   0  0  0  0  0  0  0  0  0  0  0  0
   -2.2700   17.1973  -32.9668 H   0  0  0  0  0  0  0  0  0  0  0  0
   -9.8413   18.4846  -32.0666 H   0  0  0  0  0  0  0  0  0  0  0  0
  -10.6215   20.8370  -31.8027 H   0  0  0  0  0  0  0  0  0  0  0  0
  1  2  1  0
  2  3  2  0
  3  4  1  0
  4  5  2  0
  5  6  1  0
  6  7  1  0
  7  8  1  0
  8  9  2  0
  9 10  1  0
 10 11  2  0
 10 12  1  0
 12 13  2  0
 13 14  1  0
 13 15  1  0
 15 16  1  0
 16 17  1  0
 17 18  2  0
 18 19  1  0
 19 20  2  0
 20 21  1  0
 21 22  2  0
 21 23  1  0
 23 24  1  0
 24 25  1  0
 25 26  1  0
 26 27  1  0
 27 28  2  0
 28 29  1  0
 29 30  2  0
 30 31  1  0
 31 32  2  0
 26 33  1  0
 33 34  1  0
 20 35  1  0
 35 36  2  0
  5 37  1  0
 37 38  2  0
 38  2  1  0
 15  8  1  0
 36 17  1  0
 34 23  1  0
 32 27  1  0
  1 39  1  0
  1 40  1  0
  1 41  1  0
  3 42  1  0
  4 43  1  0
  6 44  1  0
  6 45  1  0
 12 46  1  0
 14 47  1  0
 14 48  1  0
 14 49  1  0
 16 50  1  0
 16 51  1  0
 18 52  1  0
 19 53  1  0
 23 54  1  0
 24 55  1  0
 24 56  1  0
 25 57  1  0
 25 58  1  0
 28 59  1  0
 29 60  1  0
 30 61  1  0
 31 62  1  0
 33 63  1  0
 33 64  1  0
 34 65  1  0
 34 66  1  0
 35 67  1  0
 36 68  1  0
 37 69  1  0
 38 70  1  0
M  CHG  1  23   1
M  END
>  <UniqueID>  (6) 
6

>  <SMILES>  (6) 
Cc1ccc(CSc2nc(=O)cc(C)n2Cc2ccc(C(=O)[NH+]3CCN(c4ccccn4)CC3)cc2)cc1

>  <Energy>  (6) 
97.59560562509402

>  <Genealogy>  (6) 
Cc1ccc(CSc2nc(=O)cc(C)n2Cc2ccc(C(=O)[NH+]3CCN(c4ccccn4)CC3)cc2)cc1 (protonated)
Cc1ccc(CSc2nc(=O)cc(C)n2Cc2ccc(C(=O)[NH+]3CCN(c4ccccn4)CC3)cc2)cc1 (3D coordinates assigned)
Cc1ccc(CSc2nc(=O)cc(C)n2Cc2ccc(C(=O)[NH+]3CCN(c4ccccn4)CC3)cc2)cc1 (nonaromatic ring conformer: 97.59560562509402 kcal/mol)

>  <smiles>  (6) 
Cc1ccc(CSc2nc(=O)cc(C)n2Cc2ccc(C(=O)N3CCN(c4ccccn4)CC3)cc2)cc1

>  <score_type>  (6) 
oracle

>  <origin>  (6) 
adgpu

>  <m_score__min__energy>  (6) 
-9.5099999999999998

>  <m_primary>  (6) 
energy

$$$$
6:0
     RDKit          3D

 44 46  0  0  0  0  0  0  0  0999 V2000
   -8.6010   19.7850  -31.6630 C   0  0  0  0  0  0  0  0  0  0  0  0
   -7.7560   21.0250  -31.6860 C   0  0  0  0  0  0  0  0  0  0  0  0
   -8.3510   22.2830  -31.5310 C   0  0  0  0  0  0  0  0  0  0  0  0
   -7.5730   23.4400  -31.5820 C   0  0  0  0  0  0  0  0  0  0  0  0
   -6.1920   23.3630  -31.7970 C   0  0  0  0  0  0  0  0  0  0  0  0
   -5.4570   24.5490  -31.7550 O   0  0  0  0  0  0  0  0  0  0  0  0
   -5.5870   22.1000  -32.0110 C   0  0  0  0  0  0  0  0  0  0  0  0
   -4.1550   21.9600  -32.3490 C   0  0  0  0  0  0  0  0  0  0  0  0
   -3.8030   21.1280  -33.2300 O   0  0  0  0  0  0  0  0  0  0  0  0
   -3.1900   22.8450  -31.7650 N   0  0  0  0  0  0  0  0  0  0  0  0
   -2.8690   22.9550  -30.3700 C   0  0  0  0  0  0  0  0  0  0  0  0
   -2.4480   21.8430  -29.6180 C   0  0  0  0  0  0  0  0  0  0  0  0
   -2.1550   21.9790  -28.2540 C   0  0  0  0  0  0  0  0  0  0  0  0
   -1.6180   20.5790  -27.3290 S   0  0  0  0  0  0  0  0  0  0  0  0
   -1.6420   20.9010  -25.8600 O   0  0  0  0  0  0  0  0  0  0  0  0
   -2.5570   19.4380  -27.6010 O   0  0  0  0  0  0  0  0  0  0  0  0
    0.0070   20.1370  -27.8140 N   0  0  0  0  0  0  0  0  0  0  0  0
    0.1790   18.6800  -27.7630 C   0  0  0  0  0  0  0  0  0  0  0  0
   -0.0990   18.1190  -29.1510 C   0  0  0  0  0  0  0  0  0  0  0  0
   -0.1010   19.3150  -30.0840 C   0  0  0  0  0  0  0  0  0  0  0  0
    0.2470   20.5110  -29.2110 C   0  0  0  0  0  0  0  0  0  0  0  0
   -2.3110   23.2220  -27.6310 C   0  0  0  0  0  0  0  0  0  0  0  0
   -2.7560   24.3230  -28.3670 C   0  0  0  0  0  0  0  0  0  0  0  0
   -3.0400   24.1910  -29.7290 C   0  0  0  0  0  0  0  0  0  0  0  0
   -3.4870   25.2950  -30.4460 O   0  0  0  0  0  0  0  0  0  0  0  0
   -6.3800   20.9400  -31.9390 C   0  0  0  0  0  0  0  0  0  0  0  0
   -8.7985   19.4952  -30.6204 H   0  0  0  0  0  0  0  0  0  0  0  0
   -9.5541   19.9812  -32.1759 H   0  0  0  0  0  0  0  0  0  0  0  0
   -8.0697   18.9697  -32.1759 H   0  0  0  0  0  0  0  0  0  0  0  0
   -9.4362   22.3594  -31.3684 H   0  0  0  0  0  0  0  0  0  0  0  0
   -8.0497   24.4228  -31.4519 H   0  0  0  0  0  0  0  0  0  0  0  0
   -4.4670   24.5810  -31.5540 H   0  0  0  0  0  0  0  0  0  0  0  0
   -2.3482   20.8609  -30.1033 H   0  0  0  0  0  0  0  0  0  0  0  0
    1.2089   18.4370  -27.4626 H   0  0  0  0  0  0  0  0  0  0  0  0
   -0.5140   18.2411  -27.0301 H   0  0  0  0  0  0  0  0  0  0  0  0
    0.6876   17.4071  -29.4416 H   0  0  0  0  0  0  0  0  0  0  0  0
   -1.0547   17.5755  -29.1854 H   0  0  0  0  0  0  0  0  0  0  0  0
    0.6507   19.1857  -30.8766 H   0  0  0  0  0  0  0  0  0  0  0  0
   -1.0732   19.4424  -30.5826 H   0  0  0  0  0  0  0  0  0  0  0  0
    1.3049   20.7789  -29.3493 H   0  0  0  0  0  0  0  0  0  0  0  0
   -0.3715   21.3780  -29.4862 H   0  0  0  0  0  0  0  0  0  0  0  0
   -2.0830   23.3325  -26.5606 H   0  0  0  0  0  0  0  0  0  0  0  0
   -2.8833   25.2974  -27.8726 H   0  0  0  0  0  0  0  0  0  0  0  0
   -5.9142   19.9540  -32.0831 H   0  0  0  0  0  0  0  0  0  0  0  0
  1  2  1  0
  2  3  2  0
  3  4  1  0
  4  5  2  0
  5  6  1  0
  5  7  1  0
  7  8  1  0
  8  9  2  0
  8 10  1  0
 10 11  1  0
 11 12  2  0
 12 13  1  0
 13 14  1  0
 14 15  2  0
 14 16  2  0
 14 17  1  0
 17 18  1  0
 18 19  1  0
 19 20  1  0
 20 21  1  0
 13 22  2  0
 22 23  1  0
 23 24  2  0
 24 25  1  0
  7 26  2  0
 26  2  1  0
 24 11  1  0
 21 17  1  0
  1 27  1  0
  1 28  1  0
  1 29  1  0
  3 30  1  0
  4 31  1  0
  6 32  1  0
 12 33  1  0
 18 34  1  0
 18 35  1  0
 19 36  1  0
 19 37  1  0
 20 38  1  0
 20 39  1  0
 21 40  1  0
 21 41  1  0
 22 42  1  0
 23 43  1  0
 26 44  1  0
M  CHG  2  10  -1  25  -1
M  END
>  <UniqueID>  (7) 
7

>  <SMILES>  (7) 
Cc1ccc(O)c(C(=O)[N-]c2cc(S(=O)(=O)N3CCCC3)ccc2[O-])c1

>  <Energy>  (7) 
54.671545531253585

>  <Genealogy>  (7) 
Cc1ccc(O)c(C(=O)[N-]c2cc(S(=O)(=O)N3CCCC3)ccc2[O-])c1 (protonated)
Cc1ccc(O)c(C(=O)[N-]c2cc(S(=O)(=O)N3CCCC3)ccc2[O-])c1 (3D coordinates assigned)
Cc1ccc(O)c(C(=O)[N-]c2cc(S(=O)(=O)N3CCCC3)ccc2[O-])c1 (nonaromatic ring conformer: 54.671545531253585 kcal/mol)

>  <smiles>  (7) 
Cc1ccc(O)c(C(=O)Nc2cc(S(=O)(=O)N3CCCC3)ccc2O)c1

>  <score_type>  (7) 
oracle

>  <origin>  (7) 
adgpu

>  <m_score__min__energy>  (7) 
-12.82

>  <m_primary>  (7) 
energy

$$$$
7:0
     RDKit          3D

 59 62  0  0  0  0  0  0  0  0999 V2000
    0.5540   14.7550  -35.7920 C   0  0  0  0  0  0  0  0  0  0  0  0
   -0.6980   14.2590  -35.3290 O   0  0  0  0  0  0  0  0  0  0  0  0
   -1.7630   15.0690  -34.9090 C   0  0  0  0  0  0  0  0  0  0  0  0
   -2.7120   15.5990  -35.8060 C   0  0  0  0  0  0  0  0  0  0  0  0
   -3.7600   16.3950  -35.3350 C   0  0  0  0  0  0  0  0  0  0  0  0
   -3.8720   16.6840  -33.9670 C   0  0  0  0  0  0  0  0  0  0  0  0
   -4.9900   17.5200  -33.4680 C   0  0  0  0  0  0  0  0  0  0  0  0
   -6.2720   16.9580  -33.3830 C   0  0  0  0  0  0  0  0  0  0  0  0
   -7.3270   17.6790  -32.8240 C   0  0  0  0  0  0  0  0  0  0  0  0
   -7.0950   18.9690  -32.3330 C   0  0  0  0  0  0  0  0  0  0  0  0
   -8.1870   19.7770  -31.7520 C   0  0  0  0  0  0  0  0  0  0  0  0
   -9.3880   19.5040  -32.0280 O   0  0  0  0  0  0  0  0  0  0  0  0
   -7.8860   20.8920  -30.9000 N   0  0  0  0  0  0  0  0  0  0  0  0
   -8.7430   22.0780  -30.8440 C   0  0  0  0  0  0  0  0  0  0  0  0
   -8.1910   23.1860  -31.7480 C   0  0  0  0  0  0  0  0  0  0  0  0
   -6.8670   23.7020  -31.2450 C   0  0  0  0  0  0  0  0  0  0  0  0
   -6.8100   24.8860  -30.4940 C   0  0  0  0  0  0  0  0  0  0  0  0
   -5.5760   25.4120  -30.0970 C   0  0  0  0  0  0  0  0  0  0  0  0
   -4.3900   24.7660  -30.4610 C   0  0  0  0  0  0  0  0  0  0  0  0
   -3.1630   25.2990  -30.0810 O   0  0  0  0  0  0  0  0  0  0  0  0
   -4.4380   23.5860  -31.2110 C   0  0  0  0  0  0  0  0  0  0  0  0
   -5.6710   23.0530  -31.5980 C   0  0  0  0  0  0  0  0  0  0  0  0
   -5.8530   19.5090  -32.4440 N   0  0  0  0  0  0  0  0  0  0  0  0
   -4.8030   18.8460  -33.0040 C   0  0  0  0  0  0  0  0  0  0  0  0
   -3.5200   19.5730  -33.1350 C   0  0  0  0  0  0  0  0  0  0  0  0
   -3.0850   20.4630  -32.1380 C   0  0  0  0  0  0  0  0  0  0  0  0
   -1.8590   21.1220  -32.2650 C   0  0  0  0  0  0  0  0  0  0  0  0
   -1.0410   20.8910  -33.3770 C   0  0  0  0  0  0  0  0  0  0  0  0
    0.1780   21.5790  -33.4600 O   0  0  0  0  0  0  0  0  0  0  0  0
    1.0330   21.5610  -34.5980 C   0  0  0  0  0  0  0  0  0  0  0  0
   -1.4640   19.9820  -34.3650 C   0  0  0  0  0  0  0  0  0  0  0  0
   -2.6900   19.3250  -34.2390 C   0  0  0  0  0  0  0  0  0  0  0  0
   -2.9280   16.1520  -33.0730 C   0  0  0  0  0  0  0  0  0  0  0  0
   -1.8820   15.3540  -33.5440 C   0  0  0  0  0  0  0  0  0  0  0  0
    1.1899   15.0069  -34.9305 H   0  0  0  0  0  0  0  0  0  0  0  0
    1.0504   13.9856  -36.4016 H   0  0  0  0  0  0  0  0  0  0  0  0
    0.3888   15.6556  -36.4016 H   0  0  0  0  0  0  0  0  0  0  0  0
   -2.6276   15.3853  -36.8817 H   0  0  0  0  0  0  0  0  0  0  0  0
   -4.5012   16.7971  -36.0413 H   0  0  0  0  0  0  0  0  0  0  0  0
   -6.4471   15.9397  -33.7605 H   0  0  0  0  0  0  0  0  0  0  0  0
   -8.3330   17.2375  -32.7695 H   0  0  0  0  0  0  0  0  0  0  0  0
   -6.9310   20.9720  -30.4850 H   0  0  0  0  0  0  0  0  0  0  0  0
   -9.7554   21.8086  -31.1795 H   0  0  0  0  0  0  0  0  0  0  0  0
   -8.7708   22.4467  -29.8080 H   0  0  0  0  0  0  0  0  0  0  0  0
   -8.0557   22.7846  -32.7632 H   0  0  0  0  0  0  0  0  0  0  0  0
   -8.9083   24.0199  -31.7486 H   0  0  0  0  0  0  0  0  0  0  0  0
   -7.7402   25.4031  -30.2161 H   0  0  0  0  0  0  0  0  0  0  0  0
   -5.5384   26.3340  -29.4983 H   0  0  0  0  0  0  0  0  0  0  0  0
   -3.5052   23.0775  -31.4963 H   0  0  0  0  0  0  0  0  0  0  0  0
   -5.7056   22.1212  -32.1816 H   0  0  0  0  0  0  0  0  0  0  0  0
   -3.7130   20.6419  -31.2528 H   0  0  0  0  0  0  0  0  0  0  0  0
   -1.5347   21.8272  -31.4855 H   0  0  0  0  0  0  0  0  0  0  0  0
    2.0821   21.5389  -34.2681 H   0  0  0  0  0  0  0  0  0  0  0  0
    0.8199   20.6671  -35.2026 H   0  0  0  0  0  0  0  0  0  0  0  0
    0.8577   22.4630  -35.2026 H   0  0  0  0  0  0  0  0  0  0  0  0
   -0.8262   19.7883  -35.2401 H   0  0  0  0  0  0  0  0  0  0  0  0
   -3.0072   18.6081  -35.0106 H   0  0  0  0  0  0  0  0  0  0  0  0
   -3.0126   16.3646  -31.9971 H   0  0  0  0  0  0  0  0  0  0  0  0
   -1.1457   14.9463  -32.8357 H   0  0  0  0  0  0  0  0  0  0  0  0
  1  2  1  0
  2  3  1  0
  3  4  2  0
  4  5  1  0
  5  6  2  0
  6  7  1  0
  7  8  2  0
  8  9  1  0
  9 10  2  0
 10 11  1  0
 11 12  2  0
 11 13  1  0
 13 14  1  0
 14 15  1  0
 15 16  1  0
 16 17  2  0
 17 18  1  0
 18 19  2  0
 19 20  1  0
 19 21  1  0
 21 22  2  0
 10 23  1  0
 23 24  2  0
 24 25  1  0
 25 26  2  0
 26 27  1  0
 27 28  2  0
 28 29  1  0
 29 30  1  0
 28 31  1  0
 31 32  2  0
  6 33  1  0
 33 34  2  0
 34  3  1  0
 24  7  1  0
 32 25  1  0
 22 16  1  0
  1 35  1  0
  1 36  1  0
  1 37  1  0
  4 38  1  0
  5 39  1  0
  8 40  1  0
  9 41  1  0
 13 42  1  0
 14 43  1  0
 14 44  1  0
 15 45  1  0
 15 46  1  0
 17 47  1  0
 18 48  1  0
 21 49  1  0
 22 50  1  0
 26 51  1  0
 27 52  1  0
 30 53  1  0
 30 54  1  0
 30 55  1  0
 31 56  1  0
 32 57  1  0
 33 58  1  0
 34 59  1  0
M  CHG  1  20  -1
M  END
>  <UniqueID>  (8) 
8

>  <SMILES>  (8) 
COc1ccc(-c2ccc(C(=O)NCCc3ccc([O-])cc3)nc2-c2ccc(OC)cc2)cc1

>  <Energy>  (8) 
69.24211246838433

>  <Genealogy>  (8) 
COc1ccc(-c2ccc(C(=O)NCCc3ccc([O-])cc3)nc2-c2ccc(OC)cc2)cc1 (protonated)
COc1ccc(-c2ccc(C(=O)NCCc3ccc([O-])cc3)nc2-c2ccc(OC)cc2)cc1 (3D coordinates assigned)
COc1ccc(-c2ccc(C(=O)NCCc3ccc([O-])cc3)nc2-c2ccc(OC)cc2)cc1 (optimized conformer: 69.24211246838433 kcal/mol)

>  <smiles>  (8) 
COc1ccc(-c2ccc(C(=O)NCCc3ccc(O)cc3)nc2-c2ccc(OC)cc2)cc1

>  <score_type>  (8) 
oracle

>  <origin>  (8) 
adgpu

>  <m_score__min__energy>  (8) 
-12.08

>  <m_primary>  (8) 
energy

$$$$
8:0
     RDKit          3D

 26 29  0  0  0  0  0  0  0  0999 V2000
   -8.4610   21.2650  -31.5660 C   0  0  0  0  0  0  0  0  0  0  0  0
   -8.7390   22.5930  -31.9480 C   0  0  0  0  0  0  0  0  0  0  0  0
   -7.7120   23.5500  -31.9940 C   0  0  0  0  0  0  0  0  0  0  0  0
   -6.4220   23.1380  -31.6690 C   0  0  0  0  0  0  0  0  0  0  0  0
   -6.1400   21.8390  -31.2790 C   0  0  0  0  0  0  0  0  0  0  0  0
   -7.1530   20.8810  -31.2200 C   0  0  0  0  0  0  0  0  0  0  0  0
   -4.6920   21.6790  -30.8860 C   0  0  0  0  0  0  0  0  0  0  0  0
   -4.2040   23.0750  -31.1460 C   0  0  0  0  0  0  0  0  0  0  0  0
   -5.1930   23.8900  -31.5880 C   0  0  0  0  0  0  0  0  0  0  0  0
   -5.0120   25.1510  -31.1630 N   0  0  0  0  0  0  0  0  0  0  0  0
   -3.8650   25.1720  -30.4920 N   0  0  0  0  0  0  0  0  0  0  0  0
   -3.3660   23.9130  -30.4350 C   0  0  0  0  0  0  0  0  0  0  0  0
   -2.2030   23.5280  -29.6130 C   0  0  0  0  0  0  0  0  0  0  0  0
   -1.6160   24.3590  -28.6420 C   0  0  0  0  0  0  0  0  0  0  0  0
   -0.5400   23.7760  -27.9890 C   0  0  0  0  0  0  0  0  0  0  0  0
   -0.3250   22.2310  -28.6100 S   0  0  0  0  0  0  0  0  0  0  0  0
   -1.5910   22.2820  -29.7130 C   0  0  0  0  0  0  0  0  0  0  0  0
   -9.2730   20.5235  -31.5383 H   0  0  0  0  0  0  0  0  0  0  0  0
   -9.7671   22.8818  -32.2118 H   0  0  0  0  0  0  0  0  0  0  0  0
   -7.9201   24.5922  -32.2778 H   0  0  0  0  0  0  0  0  0  0  0  0
   -6.9334   19.8487  -30.9098 H   0  0  0  0  0  0  0  0  0  0  0  0
   -4.5834   21.3975  -29.8282 H   0  0  0  0  0  0  0  0  0  0  0  0
   -4.1480   20.8873  -31.4220 H   0  0  0  0  0  0  0  0  0  0  0  0
   -1.9760   25.3747  -28.4214 H   0  0  0  0  0  0  0  0  0  0  0  0
    0.0673   24.2448  -27.2007 H   0  0  0  0  0  0  0  0  0  0  0  0
   -1.8852   21.4713  -30.3958 H   0  0  0  0  0  0  0  0  0  0  0  0
  1  2  2  0
  2  3  1  0
  3  4  2  0
  4  5  1  0
  5  6  2  0
  5  7  1  0
  7  8  1  0
  8  9  1  0
  9 10  2  0
 10 11  1  0
 11 12  1  0
 12 13  1  0
 13 14  1  0
 14 15  2  0
 15 16  1  0
 16 17  1  0
  6  1  1  0
 12  8  2  0
 17 13  2  0
  9  4  1  0
  1 18  1  0
  2 19  1  0
  3 20  1  0
  6 21  1  0
  7 22  1  0
  7 23  1  0
 14 24  1  0
 15 25  1  0
 17 26  1  0
M  CHG  1  11  -1
M  END
>  <UniqueID>  (9) 
9

>  <SMILES>  (9) 
c1ccc2c(c1)Cc1c-2n[n-]c1-c1ccsc1

>  <Energy>  (9) 
127.02379769964818

>  <Genealogy>  (9) 
c1ccc2c(c1)Cc1c-2n[n-]c1-c1ccsc1 (protonated)
c1ccc2c(c1)Cc1c-2n[n-]c1-c1ccsc1 (3D coordinates assigned)
c1ccc2c(c1)Cc1c-2n[n-]c1-c1ccsc1 (nonaromatic ring conformer: 127.02379769964818 kcal/mol)

>  <smiles>  (9) 
c1ccc2c(c1)Cc1c-2n[nH]c1-c1ccsc1

>  <score_type>  (9) 
oracle

>  <origin>  (9) 
adgpu

>  <m_score__min__energy>  (9) 
-8.7200000000000006

>  <m_primary>  (9) 
energy

$$$$
9:0
     RDKit          3D

 53 55  0  0  0  0  0  0  0  0999 V2000
   -6.2880   17.1970  -33.3890 C   0  0  0  0  0  0  0  0  0  0  0  0
   -5.3800   17.9440  -32.4140 C   0  0  0  0  0  0  0  0  0  0  0  0
   -5.1850   19.3330  -32.8540 N   0  0  0  0  0  0  0  0  0  0  0  0
   -6.3340   20.1460  -33.1980 C   0  0  0  0  0  0  0  0  0  0  0  0
   -6.8560   20.0240  -34.3400 O   0  0  0  0  0  0  0  0  0  0  0  0
   -6.9400   21.0870  -32.2170 C   0  0  0  0  0  0  0  0  0  0  0  0
   -6.1680   22.0730  -31.6900 N   0  0  0  0  0  0  0  0  0  0  0  0
   -6.6590   22.9670  -30.7960 C   0  0  0  0  0  0  0  0  0  0  0  0
   -5.6210   24.2270  -30.1640 S   0  0  0  0  0  0  0  0  0  0  0  0
   -6.4410   25.1970  -29.3570 O   0  0  0  0  0  0  0  0  0  0  0  0
   -4.9880   24.9800  -31.3020 O   0  0  0  0  0  0  0  0  0  0  0  0
   -4.3720   23.4980  -29.1610 C   0  0  0  0  0  0  0  0  0  0  0  0
   -3.9050   24.1740  -28.0250 C   0  0  0  0  0  0  0  0  0  0  0  0
   -2.8980   23.6080  -27.2330 C   0  0  0  0  0  0  0  0  0  0  0  0
   -2.3380   22.3670  -27.5810 C   0  0  0  0  0  0  0  0  0  0  0  0
   -1.2830   21.7410  -26.7140 C   0  0  0  0  0  0  0  0  0  0  0  0
   -2.8160   21.6880  -28.7140 C   0  0  0  0  0  0  0  0  0  0  0  0
   -3.8220   22.2550  -29.5040 C   0  0  0  0  0  0  0  0  0  0  0  0
   -7.9470   22.8760  -30.3870 N   0  0  0  0  0  0  0  0  0  0  0  0
   -8.7640   21.9060  -30.8690 C   0  0  0  0  0  0  0  0  0  0  0  0
   -8.2850   20.9790  -31.8120 C   0  0  0  0  0  0  0  0  0  0  0  0
   -9.1070   19.9780  -32.3560 O   0  0  0  0  0  0  0  0  0  0  0  0
   -9.1130   18.6190  -31.9310 C   0  0  0  0  0  0  0  0  0  0  0  0
   -3.8470   19.7900  -33.1320 C   0  0  0  0  0  0  0  0  0  0  0  0
   -3.4210   21.0510  -32.6870 C   0  0  0  0  0  0  0  0  0  0  0  0
   -2.1120   21.4790  -32.9260 C   0  0  0  0  0  0  0  0  0  0  0  0
   -1.2170   20.6590  -33.6290 C   0  0  0  0  0  0  0  0  0  0  0  0
    0.2010   21.0970  -33.8460 C   0  0  0  0  0  0  0  0  0  0  0  0
   -1.6380   19.3940  -34.0650 C   0  0  0  0  0  0  0  0  0  0  0  0
   -2.9460   18.9650  -33.8220 C   0  0  0  0  0  0  0  0  0  0  0  0
   -7.0172   16.5971  -32.8247 H   0  0  0  0  0  0  0  0  0  0  0  0
   -6.8210   17.9216  -34.0222 H   0  0  0  0  0  0  0  0  0  0  0  0
   -5.6797   16.5344  -34.0222 H   0  0  0  0  0  0  0  0  0  0  0  0
   -5.8414   17.9419  -31.4154 H   0  0  0  0  0  0  0  0  0  0  0  0
   -4.4025   17.4405  -32.3809 H   0  0  0  0  0  0  0  0  0  0  0  0
   -4.3307   25.1517  -27.7549 H   0  0  0  0  0  0  0  0  0  0  0  0
   -2.5443   24.1367  -26.3356 H   0  0  0  0  0  0  0  0  0  0  0  0
   -1.5403   21.8936  -25.6555 H   0  0  0  0  0  0  0  0  0  0  0  0
   -1.2264   20.6631  -26.9258 H   0  0  0  0  0  0  0  0  0  0  0  0
   -0.3098   22.2079  -26.9258 H   0  0  0  0  0  0  0  0  0  0  0  0
   -2.3976   20.7064  -28.9813 H   0  0  0  0  0  0  0  0  0  0  0  0
   -4.1825   21.7237  -30.3972 H   0  0  0  0  0  0  0  0  0  0  0  0
   -9.8056   21.8443  -30.5207 H   0  0  0  0  0  0  0  0  0  0  0  0
   -9.1132   18.5786  -30.8317 H   0  0  0  0  0  0  0  0  0  0  0  0
  -10.0134   18.1182  -32.3165 H   0  0  0  0  0  0  0  0  0  0  0  0
   -8.2171   18.1103  -32.3165 H   0  0  0  0  0  0  0  0  0  0  0  0
   -4.1209   21.7059  -32.1473 H   0  0  0  0  0  0  0  0  0  0  0  0
   -1.7823   22.4630  -32.5613 H   0  0  0  0  0  0  0  0  0  0  0  0
    0.6910   21.2484  -32.8729 H   0  0  0  0  0  0  0  0  0  0  0  0
    0.7410   20.3238  -34.4121 H   0  0  0  0  0  0  0  0  0  0  0  0
    0.2109   22.0401  -34.4121 H   0  0  0  0  0  0  0  0  0  0  0  0
   -0.9363   18.7372  -34.6001 H   0  0  0  0  0  0  0  0  0  0  0  0
   -3.2708   17.9747  -34.1738 H   0  0  0  0  0  0  0  0  0  0  0  0
  1  2  1  0
  2  3  1  0
  3  4  1  0
  4  5  2  0
  4  6  1  0
  6  7  2  0
  7  8  1  0
  8  9  1  0
  9 10  2  0
  9 11  2  0
  9 12  1  0
 12 13  2  0
 13 14  1  0
 14 15  2  0
 15 16  1  0
 15 17  1  0
 17 18  2  0
  8 19  2  0
 19 20  1  0
 20 21  2  0
 21 22  1  0
 22 23  1  0
  3 24  1  0
 24 25  2  0
 25 26  1  0
 26 27  2  0
 27 28  1  0
 27 29  1  0
 29 30  2  0
 21  6  1  0
 30 24  1  0
 18 12  1  0
  1 31  1  0
  1 32  1  0
  1 33  1  0
  2 34  1  0
  2 35  1  0
 13 36  1  0
 14 37  1  0
 16 38  1  0
 16 39  1  0
 16 40  1  0
 17 41  1  0
 18 42  1  0
 20 43  1  0
 23 44  1  0
 23 45  1  0
 23 46  1  0
 25 47  1  0
 26 48  1  0
 28 49  1  0
 28 50  1  0
 28 51  1  0
 29 52  1  0
 30 53  1  0
M  END
>  <UniqueID>  (10) 
10

>  <SMILES>  (10) 
CCN(C(=O)c1nc(S(=O)(=O)c2ccc(C)cc2)ncc1OC)c1ccc(C)cc1

>  <Energy>  (10) 
59.6984934379209

>  <Genealogy>  (10) 
CCN(C(=O)c1nc(S(=O)(=O)c2ccc(C)cc2)ncc1OC)c1ccc(C)cc1 (3D coordinates assigned)
CCN(C(=O)c1nc(S(=O)(=O)c2ccc(C)cc2)ncc1OC)c1ccc(C)cc1 (optimized conformer: 59.6984934379209 kcal/mol)

>  <smiles>  (10) 
CCN(C(=O)c1nc(S(=O)(=O)c2ccc(C)cc2)ncc1OC)c1ccc(C)cc1

>  <score_type>  (10) 
oracle

>  <origin>  (10) 
adgpu

>  <m_score__min__energy>  (10) 
-9.1199999999999992

>  <m_primary>  (10) 
energy

$$$$
10:0
     RDKit          3D

 55 58  0  0  0  0  0  0  0  0999 V2000
   -3.6160   19.7340  -26.8570 O   0  0  0  0  0  0  0  0  0  0  0  0
   -2.3350   20.4370  -27.2170 S   0  0  0  0  0  0  0  0  0  0  0  0
   -1.6440   20.8520  -25.9480 O   0  0  0  0  0  0  0  0  0  0  0  0
   -2.6980   21.8700  -28.1770 C   0  0  0  0  0  0  0  0  0  0  0  0
   -2.5490   23.1450  -27.6200 C   0  0  0  0  0  0  0  0  0  0  0  0
   -2.8150   24.2790  -28.3880 C   0  0  0  0  0  0  0  0  0  0  0  0
   -3.2210   24.1520  -29.7200 C   0  0  0  0  0  0  0  0  0  0  0  0
   -3.4750   25.3020  -30.4600 O   0  0  0  0  0  0  0  0  0  0  0  0
   -3.3660   22.8770  -30.3010 C   0  0  0  0  0  0  0  0  0  0  0  0
   -3.7740   22.7580  -31.6810 N   0  0  0  0  0  0  0  0  0  0  0  0
   -5.0680   23.2310  -32.1940 C   0  0  2  0  0  0  0  0  0  0  0  0
   -5.4150   24.4570  -31.6020 O   0  0  0  0  0  0  0  0  0  0  0  0
   -6.1500   22.2150  -31.9440 C   0  0  0  0  0  0  0  0  0  0  0  0
   -7.2490   22.3670  -31.1150 C   0  0  0  0  0  0  0  0  0  0  0  0
   -7.9600   21.1890  -31.2230 C   0  0  0  0  0  0  0  0  0  0  0  0
   -9.1560   20.9080  -30.5690 O   0  0  0  0  0  0  0  0  0  0  0  0
   -7.3420   20.3320  -32.0620 N   0  0  0  0  0  0  0  0  0  0  0  0
   -7.8250   19.0210  -32.4870 C   0  0  0  0  0  0  0  0  0  0  0  0
   -6.6670   18.1620  -32.9180 C   0  0  0  0  0  0  0  0  0  0  0  0
   -6.1430   18.2850  -34.2150 C   0  0  0  0  0  0  0  0  0  0  0  0
   -5.0950   17.4580  -34.6320 C   0  0  0  0  0  0  0  0  0  0  0  0
   -4.5700   16.4990  -33.7610 C   0  0  0  0  0  0  0  0  0  0  0  0
   -5.0970   16.3620  -32.4730 C   0  0  0  0  0  0  0  0  0  0  0  0
   -6.1450   17.1860  -32.0530 C   0  0  0  0  0  0  0  0  0  0  0  0
   -6.2380   20.9580  -32.5160 C   0  0  0  0  0  0  0  0  0  0  0  0
   -3.1020   21.7380  -29.5120 C   0  0  0  0  0  0  0  0  0  0  0  0
   -1.2870   19.3810  -28.1300 N   0  0  0  0  0  0  0  0  0  0  0  0
   -0.8000   18.2740  -27.3090 C   0  0  0  0  0  0  0  0  0  0  0  0
    0.5310   17.8470  -27.9080 C   0  0  0  0  0  0  0  0  0  0  0  0
    1.0020   19.0360  -28.7290 C   0  0  0  0  0  0  0  0  0  0  0  0
   -0.0900   20.0850  -28.5860 C   0  0  0  0  0  0  0  0  0  0  0  0
   -2.2218   23.2533  -26.5754 H   0  0  0  0  0  0  0  0  0  0  0  0
   -2.7047   25.2789  -27.9430 H   0  0  0  0  0  0  0  0  0  0  0  0
   -3.1170   22.2980  -32.3520 H   0  0  0  0  0  0  0  0  0  0  0  0
   -4.9687   23.3750  -33.2800 H   0  0  0  0  0  0  0  0  0  0  0  0
   -4.6010   25.0260  -31.5930 H   0  0  0  0  0  0  0  0  0  0  0  0
   -7.5021   23.2429  -30.4996 H   0  0  0  0  0  0  0  0  0  0  0  0
   -9.8330   21.6400  -30.3890 H   0  0  0  0  0  0  0  0  0  0  0  0
   -8.3468   18.5356  -31.6491 H   0  0  0  0  0  0  0  0  0  0  0  0
   -8.5162   19.1473  -33.3334 H   0  0  0  0  0  0  0  0  0  0  0  0
   -6.5581   19.0342  -34.9052 H   0  0  0  0  0  0  0  0  0  0  0  0
   -4.6834   17.5624  -35.6467 H   0  0  0  0  0  0  0  0  0  0  0  0
   -3.7426   15.8524  -34.0886 H   0  0  0  0  0  0  0  0  0  0  0  0
   -4.6861   15.6046  -31.7893 H   0  0  0  0  0  0  0  0  0  0  0  0
   -6.5623   17.0698  -31.0419 H   0  0  0  0  0  0  0  0  0  0  0  0
   -5.5176   20.5347  -33.2314 H   0  0  0  0  0  0  0  0  0  0  0  0
   -3.2145   20.7351  -29.9496 H   0  0  0  0  0  0  0  0  0  0  0  0
   -0.6605   18.6045  -26.2691 H   0  0  0  0  0  0  0  0  0  0  0  0
   -1.5176   17.4404  -27.2980 H   0  0  0  0  0  0  0  0  0  0  0  0
    1.2552   17.6170  -27.1126 H   0  0  0  0  0  0  0  0  0  0  0  0
    0.4320   16.9391  -28.5211 H   0  0  0  0  0  0  0  0  0  0  0  0
    1.9566   19.4188  -28.3389 H   0  0  0  0  0  0  0  0  0  0  0  0
    1.1723   18.7643  -29.7812 H   0  0  0  0  0  0  0  0  0  0  0  0
    0.2077   20.8449  -27.8485 H   0  0  0  0  0  0  0  0  0  0  0  0
   -0.2722   20.6011  -29.5402 H   0  0  0  0  0  0  0  0  0  0  0  0
  1  2  2  0
  2  3  2  0
  2  4  1  0
  4  5  2  0
  5  6  1  0
  6  7  2  0
  7  8  1  0
  7  9  1  0
  9 10  1  0
 10 11  1  0
 11 12  1  0
 11 13  1  0
 13 14  1  0
 14 15  2  0
 15 16  1  0
 15 17  1  0
 17 18  1  0
 18 19  1  0
 19 20  2  0
 20 21  1  0
 21 22  2  0
 22 23  1  0
 23 24  2  0
 17 25  1  0
  9 26  2  0
  2 27  1  0
 27 28  1  0
 28 29  1  0
 29 30  1  0
 30 31  1  0
 26  4  1  0
 31 27  1  0
 25 13  2  0
 24 19  1  0
  5 32  1  0
  6 33  1  0
 10 34  1  0
 11 35  1  6
 12 36  1  0
 14 37  1  0
 16 38  1  0
 18 39  1  0
 18 40  1  0
 20 41  1  0
 21 42  1  0
 22 43  1  0
 23 44  1  0
 24 45  1  0
 25 46  1  0
 26 47  1  0
 28 48  1  0
 28 49  1  0
 29 50  1  0
 29 51  1  0
 30 52  1  0
 30 53  1  0
 31 54  1  0
 31 55  1  0
M  CHG  1   8  -1
M  END
>  <UniqueID>  (11) 
11

>  <SMILES>  (11) 
O=S(=O)(c1ccc([O-])c(N[C@H](O)c2cc(O)n(Cc3ccccc3)c2)c1)N1CCCC1

>  <Energy>  (11) 
84.10258393219732

>  <Genealogy>  (11) 
O=S(=O)(c1ccc([O-])c(NC(O)c2cc(O)n(Cc3ccccc3)c2)c1)N1CCCC1 (protonated)
O=S(=O)(c1ccc([O-])c(N[C@H](O)c2cc(O)n(Cc3ccccc3)c2)c1)N1CCCC1 (chirality)
O=S(=O)(c1ccc([O-])c(N[C@H](O)c2cc(O)n(Cc3ccccc3)c2)c1)N1CCCC1 (3D coordinates assigned)
O=S(=O)(c1ccc([O-])c(N[C@H](O)c2cc(O)n(Cc3ccccc3)c2)c1)N1CCCC1 (nonaromatic ring conformer: 84.10258393219732 kcal/mol)

>  <smiles>  (11) 
O=S(=O)(c1ccc(O)c(NC(O)c2cc(O)n(Cc3ccccc3)c2)c1)N1CCCC1

>  <score_type>  (11) 
oracle

>  <origin>  (11) 
adgpu

>  <m_score__min__energy>  (11) 
-12.26

>  <m_primary>  (11) 
energy

$$$$
11:0
     RDKit          3D

 59 62  0  0  0  0  0  0  0  0999 V2000
   -7.3100   17.4790  -32.0660 C   0  0  0  0  0  0  0  0  0  0  0  0
   -6.8550   18.7110  -32.7050 N   0  0  0  0  0  0  0  0  0  0  0  0
   -5.7630   18.9050  -33.4770 C   0  0  0  0  0  0  0  0  0  0  0  0
   -4.7650   17.8490  -33.8590 C   0  0  0  0  0  0  0  0  0  0  0  0
   -3.5120   18.0330  -33.1230 N   0  0  0  0  0  0  0  0  0  0  0  0
   -2.6050   19.1270  -33.3650 C   0  0  0  0  0  0  0  0  0  0  0  0
   -1.4710   18.9140  -34.1660 C   0  0  0  0  0  0  0  0  0  0  0  0
   -0.5730   19.9550  -34.4140 C   0  0  0  0  0  0  0  0  0  0  0  0
   -0.7940   21.2180  -33.8590 C   0  0  0  0  0  0  0  0  0  0  0  0
   -1.9160   21.4430  -33.0600 C   0  0  0  0  0  0  0  0  0  0  0  0
   -2.8210   20.4060  -32.8130 C   0  0  0  0  0  0  0  0  0  0  0  0
   -5.6860   20.1810  -33.9040 N   0  0  0  0  0  0  0  0  0  0  0  0
   -6.7530   20.8110  -33.4380 N   0  0  0  0  0  0  0  0  0  0  0  0
   -7.4600   19.9150  -32.7270 C   0  0  0  0  0  0  0  0  0  0  0  0
   -9.0380   20.3010  -31.9540 S   0  0  0  0  0  0  0  0  0  0  0  0
   -8.6870   22.0780  -31.6740 C   0  0  0  0  0  0  0  0  0  0  0  0
   -7.5020   22.3020  -30.7820 C   0  0  0  0  0  0  0  0  0  0  0  0
   -7.6930   22.5290  -29.5580 O   0  0  0  0  0  0  0  0  0  0  0  0
   -6.1680   22.1880  -31.3020 N   0  0  0  0  0  0  0  0  0  0  0  0
   -5.0050   22.7390  -30.6540 C   0  0  0  0  0  0  0  0  0  0  0  0
   -4.9640   24.1110  -30.3670 C   0  0  0  0  0  0  0  0  0  0  0  0
   -3.8510   24.6710  -29.7340 C   0  0  0  0  0  0  0  0  0  0  0  0
   -2.7670   23.8640  -29.3670 C   0  0  0  0  0  0  0  0  0  0  0  0
   -1.3480   24.5790  -28.5900 S   0  0  0  0  0  0  0  0  0  0  0  0
   -1.2430   26.0230  -28.9930 O   0  0  0  0  0  0  0  0  0  0  0  0
   -0.1120   23.8700  -29.0720 O   0  0  0  0  0  0  0  0  0  0  0  0
   -1.4300   24.4750  -26.8450 N   0  0  0  0  0  0  0  0  0  0  0  0
   -0.2050   24.9860  -26.2150 C   0  0  0  0  0  0  0  0  0  0  0  0
   -0.5470   26.2880  -25.5300 C   0  0  0  0  0  0  0  0  0  0  0  0
   -2.0100   26.1520  -25.2090 C   0  0  0  0  0  0  0  0  0  0  0  0
   -2.5520   25.2590  -26.3120 C   0  0  0  0  0  0  0  0  0  0  0  0
   -2.8080   22.4900  -29.6370 C   0  0  0  0  0  0  0  0  0  0  0  0
   -3.9240   21.9270  -30.2610 C   0  0  0  0  0  0  0  0  0  0  0  0
   -7.2670   17.5953  -30.9730 H   0  0  0  0  0  0  0  0  0  0  0  0
   -8.3453   17.2680  -32.3719 H   0  0  0  0  0  0  0  0  0  0  0  0
   -6.6603   16.6457  -32.3719 H   0  0  0  0  0  0  0  0  0  0  0  0
   -5.1799   16.8577  -33.6241 H   0  0  0  0  0  0  0  0  0  0  0  0
   -4.5584   17.9297  -34.9364 H   0  0  0  0  0  0  0  0  0  0  0  0
   -3.2540   17.3420  -32.3820 H   0  0  0  0  0  0  0  0  0  0  0  0
   -1.2887   17.9203  -34.6012 H   0  0  0  0  0  0  0  0  0  0  0  0
    0.3093   19.7801  -35.0471 H   0  0  0  0  0  0  0  0  0  0  0  0
   -0.0835   22.0353  -34.0518 H   0  0  0  0  0  0  0  0  0  0  0  0
   -2.0887   22.4379  -32.6238 H   0  0  0  0  0  0  0  0  0  0  0  0
   -3.7054   20.5891  -32.1851 H   0  0  0  0  0  0  0  0  0  0  0  0
   -8.4909   22.5550  -32.6456 H   0  0  0  0  0  0  0  0  0  0  0  0
   -9.5647   22.5148  -31.1752 H   0  0  0  0  0  0  0  0  0  0  0  0
   -6.0340   21.6490  -32.1880 H   0  0  0  0  0  0  0  0  0  0  0  0
   -5.8148   24.7516  -30.6423 H   0  0  0  0  0  0  0  0  0  0  0  0
   -3.8263   25.7503  -29.5231 H   0  0  0  0  0  0  0  0  0  0  0  0
    0.1664   24.2607  -25.4761 H   0  0  0  0  0  0  0  0  0  0  0  0
    0.5788   25.1435  -26.9705 H   0  0  0  0  0  0  0  0  0  0  0  0
    0.0453   26.4150  -24.6118 H   0  0  0  0  0  0  0  0  0  0  0  0
   -0.3287   27.1669  -26.1544 H   0  0  0  0  0  0  0  0  0  0  0  0
   -2.1513   25.6842  -24.2235 H   0  0  0  0  0  0  0  0  0  0  0  0
   -2.5234   27.1237  -25.1631 H   0  0  0  0  0  0  0  0  0  0  0  0
   -3.3198   24.5848  -25.9046 H   0  0  0  0  0  0  0  0  0  0  0  0
   -3.0103   25.8650  -27.1075 H   0  0  0  0  0  0  0  0  0  0  0  0
   -1.9575   21.8514  -29.3564 H   0  0  0  0  0  0  0  0  0  0  0  0
   -3.9583   20.8433  -30.4463 H   0  0  0  0  0  0  0  0  0  0  0  0
  1  2  1  0
  2  3  1  0
  3  4  1  0
  4  5  1  0
  5  6  1  0
  6  7  2  0
  7  8  1  0
  8  9  2  0
  9 10  1  0
 10 11  2  0
  3 12  2  0
 12 13  1  0
 13 14  2  0
 14 15  1  0
 15 16  1  0
 16 17  1  0
 17 18  2  0
 17 19  1  0
 19 20  1  0
 20 21  2  0
 21 22  1  0
 22 23  2  0
 23 24  1  0
 24 25  2  0
 24 26  2  0
 24 27  1  0
 27 28  1  0
 28 29  1  0
 29 30  1  0
 30 31  1  0
 23 32  1  0
 32 33  2  0
 14  2  1  0
 33 20  1  0
 11  6  1  0
 31 27  1  0
  1 34  1  0
  1 35  1  0
  1 36  1  0
  4 37  1  0
  4 38  1  0
  5 39  1  0
  7 40  1  0
  8 41  1  0
  9 42  1  0
 10 43  1  0
 11 44  1  0
 16 45  1  0
 16 46  1  0
 19 47  1  0
 21 48  1  0
 22 49  1  0
 28 50  1  0
 28 51  1  0
 29 52  1  0
 29 53  1  0
 30 54  1  0
 30 55  1  0
 31 56  1  0
 31 57  1  0
 32 58  1  0
 33 59  1  0
M  END
>  <UniqueID>  (12) 
12

>  <SMILES>  (12) 
Cn1c(CNc2ccccc2)nnc1SCC(=O)Nc1ccc(S(=O)(=O)N2CCCC2)cc1

>  <Energy>  (12) 
95.22509696795834

>  <Genealogy>  (12) 
Cn1c(CNc2ccccc2)nnc1SCC(=O)Nc1ccc(S(=O)(=O)N2CCCC2)cc1 (3D coordinates assigned)
Cn1c(CNc2ccccc2)nnc1SCC(=O)Nc1ccc(S(=O)(=O)N2CCCC2)cc1 (nonaromatic ring conformer: 95.22509696795834 kcal/mol)

>  <smiles>  (12) 
Cn1c(CNc2ccccc2)nnc1SCC(=O)Nc1ccc(S(=O)(=O)N2CCCC2)cc1

>  <score_type>  (12) 
oracle

>  <origin>  (12) 
adgpu

>  <m_score__min__energy>  (12) 
-10.630000000000001

>  <m_primary>  (12) 
energy

$$$$
12:0
     RDKit          3D

 51 54  0  0  0  0  0  0  0  0999 V2000
   -5.6230   25.2880  -28.9200 O   0  0  0  0  0  0  0  0  0  0  0  0
   -5.2480   25.0220  -30.3550 S   0  0  0  0  0  0  0  0  0  0  0  0
   -5.7190   26.1740  -31.2070 O   0  0  0  0  0  0  0  0  0  0  0  0
   -3.5150   24.8980  -30.4860 N   0  0  0  0  0  0  0  0  0  0  0  0
   -2.7080   24.1460  -29.5690 C   0  0  0  0  0  0  0  0  0  0  0  0
   -3.0390   22.8280  -29.2120 C   0  0  0  0  0  0  0  0  0  0  0  0
   -2.1540   22.0630  -28.4400 C   0  0  0  0  0  0  0  0  0  0  0  0
   -0.9630   22.6380  -27.9650 C   0  0  0  0  0  0  0  0  0  0  0  0
   -0.6850   23.9880  -28.2310 C   0  0  0  0  0  0  0  0  0  0  0  0
   -1.5520   24.7370  -29.0360 C   0  0  0  0  0  0  0  0  0  0  0  0
   -1.2500   26.0630  -29.3280 O   0  0  0  0  0  0  0  0  0  0  0  0
   -0.0370   21.7980  -27.1230 C   0  0  0  0  0  0  0  0  0  0  0  0
    0.1040   20.3630  -27.6750 C   0  0  0  0  0  0  0  0  0  0  0  0
   -1.1650   19.7900  -28.3680 C   0  0  0  0  0  0  0  0  0  0  0  0
   -2.4320   20.6210  -28.1240 C   0  0  0  0  0  0  0  0  0  0  0  0
   -6.0350   23.5470  -30.9200 C   0  0  0  0  0  0  0  0  0  0  0  0
   -7.4340   23.4540  -30.8960 C   0  0  0  0  0  0  0  0  0  0  0  0
   -8.0740   22.3450  -31.4570 C   0  0  0  0  0  0  0  0  0  0  0  0
   -7.3220   21.3280  -32.0550 C   0  0  0  0  0  0  0  0  0  0  0  0
   -5.9220   21.4140  -32.0860 C   0  0  0  0  0  0  0  0  0  0  0  0
   -4.9590   20.1660  -32.8730 S   0  0  0  0  0  0  0  0  0  0  0  0
   -5.6750   19.7060  -34.1130 O   0  0  0  0  0  0  0  0  0  0  0  0
   -4.7900   18.9880  -31.9520 O   0  0  0  0  0  0  0  0  0  0  0  0
   -3.4040   20.8270  -33.3080 N   0  0  0  0  0  0  0  0  0  0  0  0
   -2.6430   21.2130  -32.1190 C   0  0  0  0  0  0  0  0  0  0  0  0
   -1.1740   21.1040  -32.4900 C   0  0  0  0  0  0  0  0  0  0  0  0
   -1.1330   20.2130  -33.7230 C   0  0  0  0  0  0  0  0  0  0  0  0
   -2.5800   19.8380  -34.0000 C   0  0  0  0  0  0  0  0  0  0  0  0
   -5.2810   22.5140  -31.4980 C   0  0  0  0  0  0  0  0  0  0  0  0
   -3.9958   22.3951  -29.5394 H   0  0  0  0  0  0  0  0  0  0  0  0
    0.2146   24.4578  -27.8067 H   0  0  0  0  0  0  0  0  0  0  0  0
    0.9558   22.2714  -27.1066 H   0  0  0  0  0  0  0  0  0  0  0  0
   -0.4632   21.7326  -26.1110 H   0  0  0  0  0  0  0  0  0  0  0  0
    0.9229   20.3603  -28.4095 H   0  0  0  0  0  0  0  0  0  0  0  0
    0.2918   19.7188  -26.8034 H   0  0  0  0  0  0  0  0  0  0  0  0
   -0.9801   19.7494  -29.4516 H   0  0  0  0  0  0  0  0  0  0  0  0
   -1.3456   18.7953  -27.9344 H   0  0  0  0  0  0  0  0  0  0  0  0
   -3.2418   20.2534  -28.7713 H   0  0  0  0  0  0  0  0  0  0  0  0
   -2.7339   20.5283  -27.0703 H   0  0  0  0  0  0  0  0  0  0  0  0
   -8.0293   24.2557  -30.4346 H   0  0  0  0  0  0  0  0  0  0  0  0
   -9.1712   22.2718  -31.4282 H   0  0  0  0  0  0  0  0  0  0  0  0
   -7.8290   20.4599  -32.5014 H   0  0  0  0  0  0  0  0  0  0  0  0
   -2.8863   22.2466  -31.8316 H   0  0  0  0  0  0  0  0  0  0  0  0
   -2.8857   20.5641  -31.2646 H   0  0  0  0  0  0  0  0  0  0  0  0
   -0.7603   22.0972  -32.7191 H   0  0  0  0  0  0  0  0  0  0  0  0
   -0.5739   20.6900  -31.6663 H   0  0  0  0  0  0  0  0  0  0  0  0
   -0.7066   20.7585  -34.5778 H   0  0  0  0  0  0  0  0  0  0  0  0
   -0.5039   19.3247  -33.5644 H   0  0  0  0  0  0  0  0  0  0  0  0
   -2.7798   19.8664  -35.0813 H   0  0  0  0  0  0  0  0  0  0  0  0
   -2.8015   18.8194  -33.6487 H   0  0  0  0  0  0  0  0  0  0  0  0
   -4.1823   22.5674  -31.4898 H   0  0  0  0  0  0  0  0  0  0  0  0
  1  2  2  0
  2  3  2  0
  2  4  1  0
  4  5  1  0
  5  6  2  0
  6  7  1  0
  7  8  2  0
  8  9  1  0
  9 10  2  0
 10 11  1  0
  8 12  1  0
 12 13  1  0
 13 14  1  0
 14 15  1  0
  2 16  1  0
 16 17  2  0
 17 18  1  0
 18 19  2  0
 19 20  1  0
 20 21  1  0
 21 22  2  0
 21 23  2  0
 21 24  1  0
 24 25  1  0
 25 26  1  0
 26 27  1  0
 27 28  1  0
 20 29  2  0
 10  5  1  0
 29 16  1  0
 15  7  1  0
 28 24  1  0
  6 30  1  0
  9 31  1  0
 12 32  1  0
 12 33  1  0
 13 34  1  0
 13 35  1  0
 14 36  1  0
 14 37  1  0
 15 38  1  0
 15 39  1  0
 17 40  1  0
 18 41  1  0
 19 42  1  0
 25 43  1  0
 25 44  1  0
 26 45  1  0
 26 46  1  0
 27 47  1  0
 27 48  1  0
 28 49  1  0
 28 50  1  0
 29 51  1  0
M  CHG  2   4  -1  11  -1
M  END
>  <UniqueID>  (13) 
13

>  <SMILES>  (13) 
O=S(=O)([N-]c1cc2c(cc1[O-])CCCC2)c1cccc(S(=O)(=O)N2CCCC2)c1

>  <Energy>  (13) 
64.19878831343267

>  <Genealogy>  (13) 
O=S(=O)([N-]c1cc2c(cc1[O-])CCCC2)c1cccc(S(=O)(=O)N2CCCC2)c1 (protonated)
O=S(=O)([N-]c1cc2c(cc1[O-])CCCC2)c1cccc(S(=O)(=O)N2CCCC2)c1 (3D coordinates assigned)
O=S(=O)([N-]c1cc2c(cc1[O-])CCCC2)c1cccc(S(=O)(=O)N2CCCC2)c1 (nonaromatic ring conformer: 64.19878831343267 kcal/mol)

>  <smiles>  (13) 
O=S(=O)(Nc1cc2c(cc1O)CCCC2)c1cccc(S(=O)(=O)N2CCCC2)c1

>  <score_type>  (13) 
oracle

>  <origin>  (13) 
adgpu

>  <m_score__min__energy>  (13) 
-15.06

>  <m_primary>  (13) 
energy

$$$$
13:0
     RDKit          3D

 57 59  0  0  0  0  0  0  0  0999 V2000
   -1.2780   20.8340  -26.0060 C   0  0  0  0  0  0  0  0  0  0  0  0
   -1.9620   19.8610  -26.9820 C   0  0  0  0  0  0  0  0  0  0  0  0
   -2.4900   18.6600  -26.1690 C   0  0  0  0  0  0  0  0  0  0  0  0
   -3.1300   20.6060  -27.6600 C   0  0  0  0  0  0  0  0  0  0  0  0
   -0.9350   19.4730  -27.9730 N   0  0  0  0  0  0  0  0  0  0  0  0
   -0.0640   20.7570  -28.7800 S   0  0  0  0  0  0  0  0  0  0  0  0
    0.9020   21.3500  -27.7940 O   0  0  0  0  0  0  0  0  0  0  0  0
    0.7420   20.1990  -29.9190 O   0  0  0  0  0  0  0  0  0  0  0  0
   -1.1380   22.0570  -29.3120 C   0  0  0  0  0  0  0  0  0  0  0  0
   -1.2700   23.1870  -28.4900 C   0  0  0  0  0  0  0  0  0  0  0  0
   -2.1050   24.2420  -28.8590 C   0  0  0  0  0  0  0  0  0  0  0  0
   -2.8340   24.1840  -30.0490 C   0  0  0  0  0  0  0  0  0  0  0  0
   -3.6920   25.2850  -30.3930 N   0  0  0  0  0  0  0  0  0  0  0  0
   -5.1250   25.2710  -30.4950 C   0  0  0  0  0  0  0  0  0  0  0  0
   -5.7540   26.3410  -30.2760 O   0  0  0  0  0  0  0  0  0  0  0  0
   -5.8820   24.0560  -30.8730 C   0  0  0  0  0  0  0  0  0  0  0  0
   -6.7910   23.4610  -29.9840 C   0  0  0  0  0  0  0  0  0  0  0  0
   -7.5440   22.3580  -30.3890 C   0  0  0  0  0  0  0  0  0  0  0  0
   -7.3750   21.8490  -31.6770 C   0  0  0  0  0  0  0  0  0  0  0  0
   -6.4770   22.4210  -32.5220 N   0  0  0  0  0  0  0  0  0  0  0  0
   -5.7310   23.4950  -32.1520 C   0  0  0  0  0  0  0  0  0  0  0  0
   -2.7440   23.0340  -30.8480 C   0  0  0  0  0  0  0  0  0  0  0  0
   -1.8690   21.9820  -30.5140 C   0  0  0  0  0  0  0  0  0  0  0  0
   -1.6830   20.8880  -31.3770 O   0  0  0  0  0  0  0  0  0  0  0  0
   -2.7210   20.1800  -31.9920 C   0  0  0  0  0  0  0  0  0  0  0  0
   -3.9900   20.1740  -31.4050 C   0  0  0  0  0  0  0  0  0  0  0  0
   -5.0200   19.4140  -31.9670 C   0  0  0  0  0  0  0  0  0  0  0  0
   -4.7910   18.6670  -33.1300 C   0  0  0  0  0  0  0  0  0  0  0  0
   -6.0820   17.6940  -33.8260 S   0  0  0  0  0  0  0  0  0  0  0  0
   -5.7920   15.9780  -33.4620 C   0  0  0  0  0  0  0  0  0  0  0  0
   -7.4040   18.1160  -33.2490 O   0  0  0  0  0  0  0  0  0  0  0  0
   -6.1220   17.8930  -35.3150 O   0  0  0  0  0  0  0  0  0  0  0  0
   -3.5330   18.7120  -33.7460 C   0  0  0  0  0  0  0  0  0  0  0  0
   -2.5020   19.4700  -33.1820 C   0  0  0  0  0  0  0  0  0  0  0  0
   -1.4933   20.5277  -24.9717 H   0  0  0  0  0  0  0  0  0  0  0  0
   -0.1911   20.8185  -26.1743 H   0  0  0  0  0  0  0  0  0  0  0  0
   -1.6606   21.8515  -26.1743 H   0  0  0  0  0  0  0  0  0  0  0  0
   -2.3956   18.8748  -25.0943 H   0  0  0  0  0  0  0  0  0  0  0  0
   -3.5476   18.4861  -26.4166 H   0  0  0  0  0  0  0  0  0  0  0  0
   -1.9032   17.7632  -26.4166 H   0  0  0  0  0  0  0  0  0  0  0  0
   -3.7920   21.0283  -26.8897 H   0  0  0  0  0  0  0  0  0  0  0  0
   -2.7325   21.4178  -28.2869 H   0  0  0  0  0  0  0  0  0  0  0  0
   -3.6985   19.9033  -28.2869 H   0  0  0  0  0  0  0  0  0  0  0  0
   -0.7093   23.2413  -27.5452 H   0  0  0  0  0  0  0  0  0  0  0  0
   -2.1898   25.1251  -28.2086 H   0  0  0  0  0  0  0  0  0  0  0  0
   -6.9098   23.8644  -28.9676 H   0  0  0  0  0  0  0  0  0  0  0  0
   -8.2642   21.8941  -29.6990 H   0  0  0  0  0  0  0  0  0  0  0  0
   -7.9687   20.9845  -32.0088 H   0  0  0  0  0  0  0  0  0  0  0  0
   -5.0057   23.9270  -32.8572 H   0  0  0  0  0  0  0  0  0  0  0  0
   -3.3674   22.9527  -31.7506 H   0  0  0  0  0  0  0  0  0  0  0  0
   -4.1783   20.7686  -30.4989 H   0  0  0  0  0  0  0  0  0  0  0  0
   -6.0134   19.4024  -31.4946 H   0  0  0  0  0  0  0  0  0  0  0  0
   -5.7676   15.8335  -32.3718 H   0  0  0  0  0  0  0  0  0  0  0  0
   -6.6001   15.3698  -33.8945 H   0  0  0  0  0  0  0  0  0  0  0  0
   -4.8289   15.6691  -33.8945 H   0  0  0  0  0  0  0  0  0  0  0  0
   -3.3562   18.1500  -34.6749 H   0  0  0  0  0  0  0  0  0  0  0  0
   -1.5180   19.5096  -33.6721 H   0  0  0  0  0  0  0  0  0  0  0  0
  1  2  1  0
  2  3  1  0
  2  4  1  0
  2  5  1  0
  5  6  1  0
  6  7  2  0
  6  8  2  0
  6  9  1  0
  9 10  2  0
 10 11  1  0
 11 12  2  0
 12 13  1  0
 13 14  1  0
 14 15  2  0
 14 16  1  0
 16 17  2  0
 17 18  1  0
 18 19  2  0
 19 20  1  0
 20 21  2  0
 12 22  1  0
 22 23  2  0
 23 24  1  0
 24 25  1  0
 25 26  2  0
 26 27  1  0
 27 28  2  0
 28 29  1  0
 29 30  1  0
 29 31  2  0
 29 32  2  0
 28 33  1  0
 33 34  2  0
 23  9  1  0
 34 25  1  0
 21 16  1  0
  1 35  1  0
  1 36  1  0
  1 37  1  0
  3 38  1  0
  3 39  1  0
  3 40  1  0
  4 41  1  0
  4 42  1  0
  4 43  1  0
 10 44  1  0
 11 45  1  0
 17 46  1  0
 18 47  1  0
 19 48  1  0
 21 49  1  0
 22 50  1  0
 26 51  1  0
 27 52  1  0
 30 53  1  0
 30 54  1  0
 30 55  1  0
 33 56  1  0
 34 57  1  0
M  CHG  2   5  -1  13  -1
M  END
>  <UniqueID>  (14) 
14

>  <SMILES>  (14) 
CC(C)(C)[N-]S(=O)(=O)c1ccc([N-]C(=O)c2cccnc2)cc1Oc1ccc(S(C)(=O)=O)cc1

>  <Energy>  (14) 
71.99255073288451

>  <Genealogy>  (14) 
CC(C)(C)[N-]S(=O)(=O)c1ccc([N-]C(=O)c2cccnc2)cc1Oc1ccc(S(C)(=O)=O)cc1 (protonated)
CC(C)(C)[N-]S(=O)(=O)c1ccc([N-]C(=O)c2cccnc2)cc1Oc1ccc(S(C)(=O)=O)cc1 (3D coordinates assigned)
CC(C)(C)[N-]S(=O)(=O)c1ccc([N-]C(=O)c2cccnc2)cc1Oc1ccc(S(C)(=O)=O)cc1 (optimized conformer: 71.99255073288451 kcal/mol)

>  <smiles>  (14) 
CC(C)(C)NS(=O)(=O)c1ccc(NC(=O)c2cccnc2)cc1Oc1ccc(S(C)(=O)=O)cc1

>  <score_type>  (14) 
oracle

>  <origin>  (14) 
adgpu

>  <m_score__min__energy>  (14) 
-11.34

>  <m_primary>  (14) 
energy

$$$$
14:0
     RDKit          3D

 47 50  0  0  0  0  0  0  0  0999 V2000
   -6.5950   19.5950  -32.5060 O   0  0  0  0  0  0  0  0  0  0  0  0
   -5.3450   19.7520  -32.5750 C   0  0  0  0  0  0  0  0  0  0  0  0
   -4.5300   18.7740  -33.2400 N   0  0  0  0  0  0  0  0  0  0  0  0
   -4.9650   17.4340  -33.5320 C   0  0  0  0  0  0  0  0  0  0  0  0
   -4.0740   16.3470  -33.4830 C   0  0  0  0  0  0  0  0  0  0  0  0
   -4.5170   15.0580  -33.7980 C   0  0  0  0  0  0  0  0  0  0  0  0
   -5.8460   14.8400  -34.1850 C   0  0  0  0  0  0  0  0  0  0  0  0
   -6.4050   13.2090  -34.5760 S   0  0  0  0  0  0  0  0  0  0  0  0
   -5.5030   12.6230  -35.6270 O   0  0  0  0  0  0  0  0  0  0  0  0
   -6.3030   12.3510  -33.3470 O   0  0  0  0  0  0  0  0  0  0  0  0
   -8.0520   13.1750  -35.1590 N   0  0  0  0  0  0  0  0  0  0  0  0
   -8.8200   12.0790  -34.5730 C   0  0  0  0  0  0  0  0  0  0  0  0
   -9.9360   11.7650  -35.5570 C   0  0  0  0  0  0  0  0  0  0  0  0
   -9.4780   12.3490  -36.8870 C   0  0  0  0  0  0  0  0  0  0  0  0
   -8.1190   12.9730  -36.6040 C   0  0  0  0  0  0  0  0  0  0  0  0
   -6.7320   15.9240  -34.2450 C   0  0  0  0  0  0  0  0  0  0  0  0
   -6.2910   17.2130  -33.9320 C   0  0  0  0  0  0  0  0  0  0  0  0
   -4.7480   20.9710  -32.0050 C   0  0  0  0  0  0  0  0  0  0  0  0
   -3.8980   21.0440  -30.9200 C   0  0  0  0  0  0  0  0  0  0  0  0
   -3.6480   22.3970  -30.7780 C   0  0  0  0  0  0  0  0  0  0  0  0
   -2.8200   23.0550  -29.7370 C   0  0  0  0  0  0  0  0  0  0  0  0
   -2.1050   22.2530  -28.8280 C   0  0  0  0  0  0  0  0  0  0  0  0
   -1.3050   22.8360  -27.8410 C   0  0  0  0  0  0  0  0  0  0  0  0
   -1.2150   24.2240  -27.7430 C   0  0  0  0  0  0  0  0  0  0  0  0
   -1.9320   25.0340  -28.6270 C   0  0  0  0  0  0  0  0  0  0  0  0
   -2.7380   24.4610  -29.6170 C   0  0  0  0  0  0  0  0  0  0  0  0
   -3.4690   25.3000  -30.4490 O   0  0  0  0  0  0  0  0  0  0  0  0
   -4.3310   23.0760  -31.7230 N   0  0  0  0  0  0  0  0  0  0  0  0
   -4.9970   22.2100  -32.4690 N   0  0  0  0  0  0  0  0  0  0  0  0
   -3.6060   19.0790  -33.6220 H   0  0  0  0  0  0  0  0  0  0  0  0
   -3.0249   16.5110  -33.1959 H   0  0  0  0  0  0  0  0  0  0  0  0
   -3.8179   14.2106  -33.7416 H   0  0  0  0  0  0  0  0  0  0  0  0
   -8.1779   11.1972  -34.4315 H   0  0  0  0  0  0  0  0  0  0  0  0
   -9.2225   12.3555  -33.5873 H   0  0  0  0  0  0  0  0  0  0  0  0
  -10.0789   10.6777  -35.6428 H   0  0  0  0  0  0  0  0  0  0  0  0
  -10.8981   12.1888  -35.2335 H   0  0  0  0  0  0  0  0  0  0  0  0
   -9.3882   11.5571  -37.6452 H   0  0  0  0  0  0  0  0  0  0  0  0
  -10.1940   13.0857  -37.2801 H   0  0  0  0  0  0  0  0  0  0  0  0
   -7.3146   12.2980  -36.9317 H   0  0  0  0  0  0  0  0  0  0  0  0
   -7.9949   13.9221  -37.1460 H   0  0  0  0  0  0  0  0  0  0  0  0
   -7.7790   15.7599  -34.5397 H   0  0  0  0  0  0  0  0  0  0  0  0
   -6.9891   18.0603  -33.9999 H   0  0  0  0  0  0  0  0  0  0  0  0
   -3.5088   20.2164  -30.3087 H   0  0  0  0  0  0  0  0  0  0  0  0
   -2.1763   21.1574  -28.8948 H   0  0  0  0  0  0  0  0  0  0  0  0
   -0.7455   22.1987  -27.1404 H   0  0  0  0  0  0  0  0  0  0  0  0
   -0.5797   24.6810  -26.9700 H   0  0  0  0  0  0  0  0  0  0  0  0
   -1.8626   26.1287  -28.5443 H   0  0  0  0  0  0  0  0  0  0  0  0
  1  2  2  0
  2  3  1  0
  3  4  1  0
  4  5  2  0
  5  6  1  0
  6  7  2  0
  7  8  1  0
  8  9  2  0
  8 10  2  0
  8 11  1  0
 11 12  1  0
 12 13  1  0
 13 14  1  0
 14 15  1  0
  7 16  1  0
 16 17  2  0
  2 18  1  0
 18 19  1  0
 19 20  2  0
 20 21  1  0
 21 22  2  0
 22 23  1  0
 23 24  2  0
 24 25  1  0
 25 26  2  0
 26 27  1  0
 20 28  1  0
 28 29  1  0
 17  4  1  0
 29 18  2  0
 15 11  1  0
 26 21  1  0
  3 30  1  0
  5 31  1  0
  6 32  1  0
 12 33  1  0
 12 34  1  0
 13 35  1  0
 13 36  1  0
 14 37  1  0
 14 38  1  0
 15 39  1  0
 15 40  1  0
 16 41  1  0
 17 42  1  0
 19 43  1  0
 22 44  1  0
 23 45  1  0
 24 46  1  0
 25 47  1  0
M  CHG  2  27  -1  28  -1
M  END
>  <UniqueID>  (15) 
15

>  <SMILES>  (15) 
O=C(Nc1ccc(S(=O)(=O)N2CCCC2)cc1)c1cc(-c2ccccc2[O-])[n-]n1

>  <Energy>  (15) 
88.08160882379822

>  <Genealogy>  (15) 
O=C(Nc1ccc(S(=O)(=O)N2CCCC2)cc1)c1cc(-c2ccccc2[O-])[n-]n1 (protonated)
O=C(Nc1ccc(S(=O)(=O)N2CCCC2)cc1)c1cc(-c2ccccc2[O-])[n-]n1 (3D coordinates assigned)
O=C(Nc1ccc(S(=O)(=O)N2CCCC2)cc1)c1cc(-c2ccccc2[O-])[n-]n1 (nonaromatic ring conformer: 88.08160882379822 kcal/mol)

>  <smiles>  (15) 
O=C(Nc1ccc(S(=O)(=O)N2CCCC2)cc1)c1cc(-c2ccccc2O)[nH]n1

>  <score_type>  (15) 
oracle

>  <origin>  (15) 
adgpu

>  <m_score__min__energy>  (15) 
-12.4

>  <m_primary>  (15) 
energy

$$$$
15:0
     RDKit          3D

 34 37  0  0  0  0  0  0  0  0999 V2000
    0.2680   25.4330  -28.1630 O   0  0  0  0  0  0  0  0  0  0  0  0
   -0.7710   24.8330  -28.5440 C   0  0  0  0  0  0  0  0  0  0  0  0
   -1.9620   25.5020  -28.9650 N   0  0  0  0  0  0  0  0  0  0  0  0
   -2.8430   24.4250  -29.2970 C   0  0  0  0  0  0  0  0  0  0  0  0
   -4.1490   24.5510  -29.7670 C   0  0  0  0  0  0  0  0  0  0  0  0
   -4.8820   23.3780  -30.0400 C   0  0  0  0  0  0  0  0  0  0  0  0
   -6.5430   23.4820  -30.6130 S   0  0  0  0  0  0  0  0  0  0  0  0
   -7.4790   22.7840  -29.6680 O   0  0  0  0  0  0  0  0  0  0  0  0
   -6.9340   24.9280  -30.7110 O   0  0  0  0  0  0  0  0  0  0  0  0
   -6.6690   22.7500  -32.1810 N   0  0  0  0  0  0  0  0  0  0  0  0
   -6.7600   21.3410  -32.4280 C   0  0  0  0  0  0  0  0  0  0  0  0
   -7.8520   20.6350  -31.9100 C   0  0  0  0  0  0  0  0  0  0  0  0
   -7.9830   19.3020  -32.1380 N   0  0  0  0  0  0  0  0  0  0  0  0
   -7.0700   18.6060  -32.8650 C   0  0  0  0  0  0  0  0  0  0  0  0
   -7.2410   17.2350  -33.0850 C   0  0  0  0  0  0  0  0  0  0  0  0
   -6.3000   16.5230  -33.8370 C   0  0  0  0  0  0  0  0  0  0  0  0
   -5.1870   17.1790  -34.3720 C   0  0  0  0  0  0  0  0  0  0  0  0
   -5.0060   18.5490  -34.1570 C   0  0  0  0  0  0  0  0  0  0  0  0
   -5.9460   19.2710  -33.4050 C   0  0  0  0  0  0  0  0  0  0  0  0
   -5.7970   20.6450  -33.1790 C   0  0  0  0  0  0  0  0  0  0  0  0
   -4.2880   22.1100  -29.8430 C   0  0  0  0  0  0  0  0  0  0  0  0
   -2.9700   22.0030  -29.3710 C   0  0  0  0  0  0  0  0  0  0  0  0
   -2.2740   23.1790  -29.1060 C   0  0  0  0  0  0  0  0  0  0  0  0
   -0.9290   23.3890  -28.6170 C   0  0  0  0  0  0  0  0  0  0  0  0
   -0.0760   22.5110  -28.3200 O   0  0  0  0  0  0  0  0  0  0  0  0
   -4.5978   25.5433  -29.9215 H   0  0  0  0  0  0  0  0  0  0  0  0
   -8.6102   21.1636  -31.3136 H   0  0  0  0  0  0  0  0  0  0  0  0
   -8.1160   16.7163  -32.6664 H   0  0  0  0  0  0  0  0  0  0  0  0
   -6.4361   15.4449  -34.0077 H   0  0  0  0  0  0  0  0  0  0  0  0
   -4.4511   16.6154  -34.9642 H   0  0  0  0  0  0  0  0  0  0  0  0
   -4.1274   19.0605  -34.5770 H   0  0  0  0  0  0  0  0  0  0  0  0
   -4.9271   21.1791  -33.5888 H   0  0  0  0  0  0  0  0  0  0  0  0
   -4.8640   21.1987  -30.0616 H   0  0  0  0  0  0  0  0  0  0  0  0
   -2.5017   21.0199  -29.2154 H   0  0  0  0  0  0  0  0  0  0  0  0
  1  2  2  0
  2  3  1  0
  3  4  1  0
  4  5  2  0
  5  6  1  0
  6  7  1  0
  7  8  2  0
  7  9  2  0
  7 10  1  0
 10 11  1  0
 11 12  2  0
 12 13  1  0
 13 14  2  0
 14 15  1  0
 15 16  2  0
 16 17  1  0
 17 18  2  0
 18 19  1  0
 19 20  2  0
  6 21  2  0
 21 22  1  0
 22 23  2  0
 23 24  1  0
 24 25  2  0
 24  2  1  0
 23  4  1  0
 20 11  1  0
 19 14  1  0
  5 26  1  0
 12 27  1  0
 15 28  1  0
 16 29  1  0
 17 30  1  0
 18 31  1  0
 20 32  1  0
 21 33  1  0
 22 34  1  0
M  CHG  2   3  -1  10  -1
M  END
>  <UniqueID>  (16) 
16

>  <SMILES>  (16) 
O=C1[N-]c2cc(S(=O)(=O)[N-]c3cnc4ccccc4c3)ccc2C1=O

>  <Energy>  (16) 
75.38488406551761

>  <Genealogy>  (16) 
O=C1[N-]c2cc(S(=O)(=O)[N-]c3cnc4ccccc4c3)ccc2C1=O (protonated)
O=C1[N-]c2cc(S(=O)(=O)[N-]c3cnc4ccccc4c3)ccc2C1=O (3D coordinates assigned)
O=C1[N-]c2cc(S(=O)(=O)[N-]c3cnc4ccccc4c3)ccc2C1=O (nonaromatic ring conformer: 75.38488406551761 kcal/mol)

>  <smiles>  (16) 
O=C1Nc2cc(S(=O)(=O)Nc3cnc4ccccc4c3)ccc2C1=O

>  <score_type>  (16) 
oracle

>  <origin>  (16) 
adgpu

>  <m_score__min__energy>  (16) 
-10.789999999999999

>  <m_primary>  (16) 
energy

$$$$
16:0
     RDKit          3D

 54 57  0  0  0  0  0  0  0  0999 V2000
   -0.7150   16.7760  -34.8370 C   0  0  0  0  0  0  0  0  0  0  0  0
   -1.1390   18.1310  -34.9360 O   0  0  0  0  0  0  0  0  0  0  0  0
   -1.2520   19.0130  -33.8490 C   0  0  0  0  0  0  0  0  0  0  0  0
   -0.1760   19.8250  -33.4370 C   0  0  0  0  0  0  0  0  0  0  0  0
   -0.3100   20.6710  -32.3320 C   0  0  0  0  0  0  0  0  0  0  0  0
   -1.5200   20.7330  -31.6360 C   0  0  0  0  0  0  0  0  0  0  0  0
   -1.6710   21.7360  -30.1920 S   0  0  0  0  0  0  0  0  0  0  0  0
   -0.3170   21.9960  -29.5950 O   0  0  0  0  0  0  0  0  0  0  0  0
   -2.5090   21.0190  -29.1710 O   0  0  0  0  0  0  0  0  0  0  0  0
   -2.4420   23.2340  -30.6080 N   0  0  0  0  0  0  0  0  0  0  0  0
   -3.8380   23.2910  -30.9340 C   0  0  0  0  0  0  0  0  0  0  0  0
   -4.5270   22.1320  -31.3250 C   0  0  0  0  0  0  0  0  0  0  0  0
   -5.9030   22.1690  -31.5560 C   0  0  0  0  0  0  0  0  0  0  0  0
   -6.6070   23.3790  -31.4220 C   0  0  0  0  0  0  0  0  0  0  0  0
   -5.9110   24.5500  -31.0950 C   0  0  0  0  0  0  0  0  0  0  0  0
   -4.5350   24.5070  -30.8440 C   0  0  0  0  0  0  0  0  0  0  0  0
   -3.8710   25.6750  -30.4840 O   0  0  0  0  0  0  0  0  0  0  0  0
   -8.0910   23.4230  -31.6880 C   0  0  0  0  0  0  0  0  0  0  0  0
   -8.7360   22.0430  -31.4970 C   0  0  0  0  0  0  0  0  0  0  0  0
   -7.9530   20.9830  -32.2780 C   0  0  0  0  0  0  0  0  0  0  0  0
   -6.5810   20.9880  -31.8870 O   0  0  0  0  0  0  0  0  0  0  0  0
   -2.5970   19.9430  -32.0520 C   0  0  0  0  0  0  0  0  0  0  0  0
   -2.4700   19.0780  -33.1470 C   0  0  0  0  0  0  0  0  0  0  0  0
   -3.8120   18.0150  -33.5870 S   0  0  0  0  0  0  0  0  0  0  0  0
   -3.8900   17.8960  -35.0850 O   0  0  0  0  0  0  0  0  0  0  0  0
   -3.5540   16.6590  -32.9930 O   0  0  0  0  0  0  0  0  0  0  0  0
   -5.3280   18.6290  -32.9660 N   0  0  0  0  0  0  0  0  0  0  0  0
   -6.4600   18.2960  -33.8490 C   0  0  0  0  0  0  0  0  0  0  0  0
   -7.5410   17.6380  -33.0030 C   0  0  0  0  0  0  0  0  0  0  0  0
   -7.1300   17.8990  -31.5740 C   0  0  0  0  0  0  0  0  0  0  0  0
   -5.6260   18.0460  -31.6550 C   0  0  0  0  0  0  0  0  0  0  0  0
   -0.6273   16.4958  -33.7769 H   0  0  0  0  0  0  0  0  0  0  0  0
   -1.4522   16.1243  -35.3288 H   0  0  0  0  0  0  0  0  0  0  0  0
    0.2622   16.6607  -35.3288 H   0  0  0  0  0  0  0  0  0  0  0  0
    0.7753   19.7929  -33.9884 H   0  0  0  0  0  0  0  0  0  0  0  0
    0.5402   21.2900  -32.0094 H   0  0  0  0  0  0  0  0  0  0  0  0
   -1.9470   24.1130  -30.3370 H   0  0  0  0  0  0  0  0  0  0  0  0
   -3.9780   21.1871  -31.4503 H   0  0  0  0  0  0  0  0  0  0  0  0
   -6.4487   25.5078  -31.0353 H   0  0  0  0  0  0  0  0  0  0  0  0
   -8.5582   24.1357  -30.9924 H   0  0  0  0  0  0  0  0  0  0  0  0
   -8.2464   23.7362  -32.7310 H   0  0  0  0  0  0  0  0  0  0  0  0
   -8.7316   21.7842  -30.4279 H   0  0  0  0  0  0  0  0  0  0  0  0
   -9.7702   22.0743  -31.8704 H   0  0  0  0  0  0  0  0  0  0  0  0
   -8.3839   19.9915  -32.0748 H   0  0  0  0  0  0  0  0  0  0  0  0
   -8.0182   21.2113  -33.3521 H   0  0  0  0  0  0  0  0  0  0  0  0
   -3.5543   20.0015  -31.5134 H   0  0  0  0  0  0  0  0  0  0  0  0
   -6.8546   19.2128  -34.3114 H   0  0  0  0  0  0  0  0  0  0  0  0
   -6.1329   17.6141  -34.6478 H   0  0  0  0  0  0  0  0  0  0  0  0
   -8.5228   18.0881  -33.2115 H   0  0  0  0  0  0  0  0  0  0  0  0
   -7.6362   16.5631  -33.2163 H   0  0  0  0  0  0  0  0  0  0  0  0
   -7.5945   18.8210  -31.1943 H   0  0  0  0  0  0  0  0  0  0  0  0
   -7.4440   17.0993  -30.8871 H   0  0  0  0  0  0  0  0  0  0  0  0
   -5.2667   18.7097  -30.8548 H   0  0  0  0  0  0  0  0  0  0  0  0
   -5.1270   17.0733  -31.5327 H   0  0  0  0  0  0  0  0  0  0  0  0
  1  2  1  0
  2  3  1  0
  3  4  2  0
  4  5  1  0
  5  6  2  0
  6  7  1  0
  7  8  2  0
  7  9  2  0
  7 10  1  0
 10 11  1  0
 11 12  2  0
 12 13  1  0
 13 14  2  0
 14 15  1  0
 15 16  2  0
 16 17  1  0
 14 18  1  0
 18 19  1  0
 19 20  1  0
 20 21  1  0
  6 22  1  0
 22 23  2  0
 23 24  1  0
 24 25  2  0
 24 26  2  0
 24 27  1  0
 27 28  1  0
 28 29  1  0
 29 30  1  0
 30 31  1  0
 23  3  1  0
 31 27  1  0
 16 11  1  0
 21 13  1  0
  1 32  1  0
  1 33  1  0
  1 34  1  0
  4 35  1  0
  5 36  1  0
 10 37  1  0
 12 38  1  0
 15 39  1  0
 18 40  1  0
 18 41  1  0
 19 42  1  0
 19 43  1  0
 20 44  1  0
 20 45  1  0
 22 46  1  0
 28 47  1  0
 28 48  1  0
 29 49  1  0
 29 50  1  0
 30 51  1  0
 30 52  1  0
 31 53  1  0
 31 54  1  0
M  CHG  1  17  -1
M  END
>  <UniqueID>  (17) 
17

>  <SMILES>  (17) 
COc1ccc(S(=O)(=O)Nc2cc3c(cc2[O-])CCCO3)cc1S(=O)(=O)N1CCCC1

>  <Energy>  (17) 
58.69844465007754

>  <Genealogy>  (17) 
COc1ccc(S(=O)(=O)Nc2cc3c(cc2[O-])CCCO3)cc1S(=O)(=O)N1CCCC1 (protonated)
COc1ccc(S(=O)(=O)Nc2cc3c(cc2[O-])CCCO3)cc1S(=O)(=O)N1CCCC1 (3D coordinates assigned)
COc1ccc(S(=O)(=O)Nc2cc3c(cc2[O-])CCCO3)cc1S(=O)(=O)N1CCCC1 (nonaromatic ring conformer: 58.69844465007754 kcal/mol)

>  <smiles>  (17) 
COc1ccc(S(=O)(=O)Nc2cc3c(cc2O)CCCO3)cc1S(=O)(=O)N1CCCC1

>  <score_type>  (17) 
oracle

>  <origin>  (17) 
adgpu

>  <m_score__min__energy>  (17) 
-13.529999999999999

>  <m_primary>  (17) 
energy

$$$$
17:0
     RDKit          3D

 53 56  0  0  0  0  0  0  0  0999 V2000
   -4.2360   25.7500  -30.5120 O   0  0  0  0  0  0  0  0  0  0  0  0
   -4.0950   24.4990  -30.5000 C   0  0  0  0  0  0  0  0  0  0  0  0
   -4.6120   23.7490  -31.6080 N   0  0  0  0  0  0  0  0  0  0  0  0
   -4.2200   22.4270  -32.0020 C   0  0  0  0  0  0  0  0  0  0  0  0
   -2.8730   22.2040  -32.3110 C   0  0  0  0  0  0  0  0  0  0  0  0
   -2.4200   20.9280  -32.6690 C   0  0  0  0  0  0  0  0  0  0  0  0
   -0.7080   20.6500  -33.0020 S   0  0  0  0  0  0  0  0  0  0  0  0
   -0.5430   19.2900  -33.6240 O   0  0  0  0  0  0  0  0  0  0  0  0
   -0.2240   21.6720  -33.9920 O   0  0  0  0  0  0  0  0  0  0  0  0
    0.2700   20.7620  -31.5530 N   0  0  0  0  0  0  0  0  0  0  0  0
    0.7480   19.4420  -31.1190 C   0  0  0  0  0  0  0  0  0  0  0  0
   -0.0700   18.9960  -29.9130 C   0  0  0  0  0  0  0  0  0  0  0  0
   -0.9990   20.1470  -29.5930 C   0  0  0  0  0  0  0  0  0  0  0  0
   -0.5050   21.3090  -30.4360 C   0  0  0  0  0  0  0  0  0  0  0  0
   -3.3310   19.8720  -32.7470 C   0  0  0  0  0  0  0  0  0  0  0  0
   -4.6820   20.0850  -32.4660 C   0  0  0  0  0  0  0  0  0  0  0  0
   -5.1470   21.3600  -32.0980 C   0  0  0  0  0  0  0  0  0  0  0  0
   -6.5620   21.5770  -31.9170 N   0  0  0  0  0  0  0  0  0  0  0  0
   -7.1300   22.8540  -32.3610 C   0  0  0  0  0  0  0  0  0  0  0  0
   -8.4960   23.0720  -31.7080 C   0  0  0  0  0  0  0  0  0  0  0  0
   -9.3390   21.9610  -31.9400 O   0  0  0  0  0  0  0  0  0  0  0  0
   -8.8230   20.8270  -31.2710 C   0  0  0  0  0  0  0  0  0  0  0  0
   -7.4610   20.4190  -31.8430 C   0  0  0  0  0  0  0  0  0  0  0  0
   -3.3450   23.8580  -29.3860 C   0  0  0  0  0  0  0  0  0  0  0  0
   -3.7500   22.6050  -28.8880 C   0  0  0  0  0  0  0  0  0  0  0  0
   -3.0650   22.0030  -27.8300 C   0  0  0  0  0  0  0  0  0  0  0  0
   -1.9500   22.6280  -27.2730 C   0  0  0  0  0  0  0  0  0  0  0  0
   -1.5070   23.8500  -27.7850 C   0  0  0  0  0  0  0  0  0  0  0  0
   -2.1880   24.4600  -28.8440 C   0  0  0  0  0  0  0  0  0  0  0  0
   -1.7100   25.6690  -29.3410 O   0  0  0  0  0  0  0  0  0  0  0  0
   -2.1612   23.0417  -32.2721 H   0  0  0  0  0  0  0  0  0  0  0  0
    0.6258   18.7171  -31.9373 H   0  0  0  0  0  0  0  0  0  0  0  0
    1.8125   19.5004  -30.8479 H   0  0  0  0  0  0  0  0  0  0  0  0
   -0.6493   18.0931  -30.1564 H   0  0  0  0  0  0  0  0  0  0  0  0
    0.5749   18.7477  -29.0572 H   0  0  0  0  0  0  0  0  0  0  0  0
   -2.0351   19.8911  -29.8595 H   0  0  0  0  0  0  0  0  0  0  0  0
   -0.9962   20.3893  -28.5200 H   0  0  0  0  0  0  0  0  0  0  0  0
   -1.3618   21.8813  -30.8212 H   0  0  0  0  0  0  0  0  0  0  0  0
    0.1205   21.9812  -29.8303 H   0  0  0  0  0  0  0  0  0  0  0  0
   -2.9825   18.8681  -33.0311 H   0  0  0  0  0  0  0  0  0  0  0  0
   -5.3904   19.2462  -32.5332 H   0  0  0  0  0  0  0  0  0  0  0  0
   -6.4540   23.6731  -32.0744 H   0  0  0  0  0  0  0  0  0  0  0  0
   -7.2502   22.8360  -33.4543 H   0  0  0  0  0  0  0  0  0  0  0  0
   -8.3621   23.2046  -30.6243 H   0  0  0  0  0  0  0  0  0  0  0  0
   -8.9603   23.9682  -32.1454 H   0  0  0  0  0  0  0  0  0  0  0  0
   -8.7077   21.0621  -30.2026 H   0  0  0  0  0  0  0  0  0  0  0  0
   -9.5242   19.9910  -31.4104 H   0  0  0  0  0  0  0  0  0  0  0  0
   -7.0112   19.6535  -31.1937 H   0  0  0  0  0  0  0  0  0  0  0  0
   -7.6084   20.0200  -32.8574 H   0  0  0  0  0  0  0  0  0  0  0  0
   -4.6150   22.0947  -29.3368 H   0  0  0  0  0  0  0  0  0  0  0  0
   -3.4057   21.0343  -27.4356 H   0  0  0  0  0  0  0  0  0  0  0  0
   -1.4196   22.1592  -26.4310 H   0  0  0  0  0  0  0  0  0  0  0  0
   -0.6188   24.3347  -27.3536 H   0  0  0  0  0  0  0  0  0  0  0  0
  1  2  2  0
  2  3  1  0
  3  4  1  0
  4  5  2  0
  5  6  1  0
  6  7  1  0
  7  8  2  0
  7  9  2  0
  7 10  1  0
 10 11  1  0
 11 12  1  0
 12 13  1  0
 13 14  1  0
  6 15  2  0
 15 16  1  0
 16 17  2  0
 17 18  1  0
 18 19  1  0
 19 20  1  0
 20 21  1  0
 21 22  1  0
 22 23  1  0
  2 24  1  0
 24 25  2  0
 25 26  1  0
 26 27  2  0
 27 28  1  0
 28 29  2  0
 29 30  1  0
 17  4  1  0
 23 18  1  0
 29 24  1  0
 14 10  1  0
  5 31  1  0
 11 32  1  0
 11 33  1  0
 12 34  1  0
 12 35  1  0
 13 36  1  0
 13 37  1  0
 14 38  1  0
 14 39  1  0
 15 40  1  0
 16 41  1  0
 19 42  1  0
 19 43  1  0
 20 44  1  0
 20 45  1  0
 22 46  1  0
 22 47  1  0
 23 48  1  0
 23 49  1  0
 25 50  1  0
 26 51  1  0
 27 52  1  0
 28 53  1  0
M  CHG  2   3  -1  30  -1
M  END
>  <UniqueID>  (18) 
18

>  <SMILES>  (18) 
O=C([N-]c1cc(S(=O)(=O)N2CCCC2)ccc1N1CCOCC1)c1ccccc1[O-]

>  <Energy>  (18) 
68.34171704272829

>  <Genealogy>  (18) 
O=C([N-]c1cc(S(=O)(=O)N2CCCC2)ccc1N1CCOCC1)c1ccccc1[O-] (protonated)
O=C([N-]c1cc(S(=O)(=O)N2CCCC2)ccc1N1CCOCC1)c1ccccc1[O-] (3D coordinates assigned)
O=C([N-]c1cc(S(=O)(=O)N2CCCC2)ccc1N1CCOCC1)c1ccccc1[O-] (nonaromatic ring conformer: 68.34171704272829 kcal/mol)

>  <smiles>  (18) 
O=C(Nc1cc(S(=O)(=O)N2CCCC2)ccc1N1CCOCC1)c1ccccc1O

>  <score_type>  (18) 
oracle

>  <origin>  (18) 
adgpu

>  <m_score__min__energy>  (18) 
-13.57

>  <m_primary>  (18) 
energy

$$$$
18:0
     RDKit          3D

 44 46  0  0  0  0  0  0  0  0999 V2000
   -7.5380   18.3340  -32.5400 C   0  0  0  0  0  0  0  0  0  0  0  0
   -7.2400   19.7990  -32.4090 C   0  0  0  0  0  0  0  0  0  0  0  0
   -5.9130   20.2490  -32.3820 C   0  0  0  0  0  0  0  0  0  0  0  0
   -5.6230   21.6120  -32.2230 C   0  0  0  0  0  0  0  0  0  0  0  0
   -4.1910   22.0690  -32.2340 C   0  0  0  0  0  0  0  0  0  0  0  0
   -6.6800   22.5380  -32.1100 C   0  0  0  0  0  0  0  0  0  0  0  0
   -6.4110   23.9040  -31.9980 O   0  0  0  0  0  0  0  0  0  0  0  0
   -6.4590   24.5690  -30.7410 C   0  0  0  0  0  0  0  0  0  0  0  0
   -5.0850   24.6110  -30.1580 C   0  0  0  0  0  0  0  0  0  0  0  0
   -4.1370   25.0880  -30.8390 O   0  0  0  0  0  0  0  0  0  0  0  0
   -4.8400   24.0240  -28.8700 N   0  0  0  0  0  0  0  0  0  0  0  0
   -3.6050   24.1540  -28.1460 C   0  0  0  0  0  0  0  0  0  0  0  0
   -2.4050   23.5700  -28.6260 C   0  0  0  0  0  0  0  0  0  0  0  0
   -1.2020   23.7240  -27.9190 C   0  0  0  0  0  0  0  0  0  0  0  0
   -1.2200   24.4730  -26.7480 C   0  0  0  0  0  0  0  0  0  0  0  0
    0.0490   24.8210  -25.7060 S   0  0  0  0  0  0  0  0  0  0  0  0
   -0.9500   25.7390  -24.6890 C   0  0  0  0  0  0  0  0  0  0  0  0
   -0.4990   26.3670  -23.4150 C   0  0  0  0  0  0  0  0  0  0  0  0
   -2.2350   25.7680  -25.1190 N   0  0  0  0  0  0  0  0  0  0  0  0
   -2.3760   25.0670  -26.2730 C   0  0  0  0  0  0  0  0  0  0  0  0
   -3.5790   24.9230  -26.9640 C   0  0  0  0  0  0  0  0  0  0  0  0
   -8.0130   22.0860  -32.0890 C   0  0  0  0  0  0  0  0  0  0  0  0
   -9.1480   23.0640  -31.9580 C   0  0  0  0  0  0  0  0  0  0  0  0
   -8.2850   20.7180  -32.2450 C   0  0  0  0  0  0  0  0  0  0  0  0
   -7.6289   17.8874  -31.5389 H   0  0  0  0  0  0  0  0  0  0  0  0
   -8.4819   18.1994  -33.0886 H   0  0  0  0  0  0  0  0  0  0  0  0
   -6.7217   17.8414  -33.0886 H   0  0  0  0  0  0  0  0  0  0  0  0
   -5.0906   19.5260  -32.4866 H   0  0  0  0  0  0  0  0  0  0  0  0
   -3.8345   22.1828  -31.1996 H   0  0  0  0  0  0  0  0  0  0  0  0
   -3.5723   21.3237  -32.7552 H   0  0  0  0  0  0  0  0  0  0  0  0
   -4.1184   23.0350  -32.7552 H   0  0  0  0  0  0  0  0  0  0  0  0
   -6.8314   25.5946  -30.8808 H   0  0  0  0  0  0  0  0  0  0  0  0
   -7.1338   24.0283  -30.0611 H   0  0  0  0  0  0  0  0  0  0  0  0
   -5.5760   23.3950  -28.4770 H   0  0  0  0  0  0  0  0  0  0  0  0
   -2.4170   22.9909  -29.5611 H   0  0  0  0  0  0  0  0  0  0  0  0
   -0.2706   23.2646  -28.2817 H   0  0  0  0  0  0  0  0  0  0  0  0
   -0.9052   25.8014  -22.5635 H   0  0  0  0  0  0  0  0  0  0  0  0
    0.6001   26.3577  -23.3706 H   0  0  0  0  0  0  0  0  0  0  0  0
   -0.8590   27.4055  -23.3706 H   0  0  0  0  0  0  0  0  0  0  0  0
   -4.4960   25.4032  -26.5917 H   0  0  0  0  0  0  0  0  0  0  0  0
   -9.3563   23.2435  -30.8929 H   0  0  0  0  0  0  0  0  0  0  0  0
   -8.8727   24.0123  -32.4426 H   0  0  0  0  0  0  0  0  0  0  0  0
  -10.0452   22.6515  -32.4426 H   0  0  0  0  0  0  0  0  0  0  0  0
   -9.3266   20.3645  -32.2385 H   0  0  0  0  0  0  0  0  0  0  0  0
  1  2  1  0
  2  3  2  0
  3  4  1  0
  4  5  1  0
  4  6  2  0
  6  7  1  0
  7  8  1  0
  8  9  1  0
  9 10  2  0
  9 11  1  0
 11 12  1  0
 12 13  2  0
 13 14  1  0
 14 15  2  0
 15 16  1  0
 16 17  1  0
 17 18  1  0
 17 19  2  0
 19 20  1  0
 20 21  2  0
  6 22  1  0
 22 23  1  0
 22 24  2  0
 24  2  1  0
 21 12  1  0
 20 15  1  0
  1 25  1  0
  1 26  1  0
  1 27  1  0
  3 28  1  0
  5 29  1  0
  5 30  1  0
  5 31  1  0
  8 32  1  0
  8 33  1  0
 11 34  1  0
 13 35  1  0
 14 36  1  0
 18 37  1  0
 18 38  1  0
 18 39  1  0
 21 40  1  0
 23 41  1  0
 23 42  1  0
 23 43  1  0
 24 44  1  0
M  END
>  <UniqueID>  (19) 
19

>  <SMILES>  (19) 
Cc1cc(C)c(OCC(=O)Nc2ccc3sc(C)nc3c2)c(C)c1

>  <Energy>  (19) 
84.79549617596597

>  <Genealogy>  (19) 
Cc1cc(C)c(OCC(=O)Nc2ccc3sc(C)nc3c2)c(C)c1 (3D coordinates assigned)
Cc1cc(C)c(OCC(=O)Nc2ccc3sc(C)nc3c2)c(C)c1 (optimized conformer: 84.79549617596597 kcal/mol)

>  <smiles>  (19) 
Cc1cc(C)c(OCC(=O)Nc2ccc3sc(C)nc3c2)c(C)c1

>  <score_type>  (19) 
oracle

>  <origin>  (19) 
adgpu

>  <m_score__min__energy>  (19) 
-9.4000000000000004

>  <m_primary>  (19) 
energy

$$$$
19:0
     RDKit          3D

 59 61  0  0  0  0  0  0  0  0999 V2000
   -3.2760   18.9730  -26.6790 C   0  0  0  0  0  0  0  0  0  0  0  0
   -1.7550   19.0970  -26.5590 C   0  0  0  0  0  0  0  0  0  0  0  0
   -1.0860   19.3670  -27.9090 C   0  0  0  0  0  0  0  0  0  0  0  0
   -1.4910   20.6660  -28.4590 N   0  0  0  0  0  0  0  0  0  0  0  0
   -2.2770   20.7980  -29.5450 C   0  0  0  0  0  0  0  0  0  0  0  0
   -2.4380   22.1370  -29.8280 C   0  0  0  0  0  0  0  0  0  0  0  0
   -3.1440   22.6900  -30.9410 N   0  0  0  0  0  0  0  0  0  0  0  0
   -3.9990   23.8360  -30.8440 C   0  0  0  0  0  0  0  0  0  0  0  0
   -3.5050   24.9380  -30.4790 O   0  0  0  0  0  0  0  0  0  0  0  0
   -5.4520   23.7200  -31.0660 C   0  0  0  0  0  0  0  0  0  0  0  0
   -6.0340   22.8090  -31.9300 C   0  0  0  0  0  0  0  0  0  0  0  0
   -7.3930   22.9530  -31.7560 C   0  0  0  0  0  0  0  0  0  0  0  0
   -8.4270   22.1750  -32.3600 N   0  0  0  0  0  0  0  0  0  0  0  0
   -8.7730   20.5300  -31.9350 S   0  0  0  0  0  0  0  0  0  0  0  0
  -10.0110   20.0900  -32.6650 O   0  0  0  0  0  0  0  0  0  0  0  0
   -9.0410   20.4220  -30.4570 O   0  0  0  0  0  0  0  0  0  0  0  0
   -7.4260   19.4990  -32.4060 C   0  0  0  0  0  0  0  0  0  0  0  0
   -7.1750   18.2870  -31.7420 C   0  0  0  0  0  0  0  0  0  0  0  0
   -6.1000   17.4790  -32.1330 C   0  0  0  0  0  0  0  0  0  0  0  0
   -5.2770   17.8740  -33.1980 C   0  0  0  0  0  0  0  0  0  0  0  0
   -3.9300   16.8640  -33.6890 Cl  0  0  0  0  0  0  0  0  0  0  0  0
   -5.5190   19.0840  -33.8590 C   0  0  0  0  0  0  0  0  0  0  0  0
   -6.5900   19.8940  -33.4590 C   0  0  0  0  0  0  0  0  0  0  0  0
   -7.5990   23.9400  -30.8210 C   0  0  0  0  0  0  0  0  0  0  0  0
   -6.4090   24.4160  -30.4090 N   0  0  0  0  0  0  0  0  0  0  0  0
   -6.2110   25.4330  -29.3800 C   0  0  0  0  0  0  0  0  0  0  0  0
   -1.7300   22.8570  -28.8950 C   0  0  0  0  0  0  0  0  0  0  0  0
   -1.1650   21.9180  -28.0440 C   0  0  0  0  0  0  0  0  0  0  0  0
   -0.3430   22.2790  -26.8660 C   0  0  0  0  0  0  0  0  0  0  0  0
    0.8310   21.8260  -26.7720 O   0  0  0  0  0  0  0  0  0  0  0  0
   -0.8460   23.1470  -25.8480 N   0  0  0  0  0  0  0  0  0  0  0  0
   -0.3420   24.4960  -25.6340 C   0  0  0  0  0  0  0  0  0  0  0  0
   -1.0950   25.4920  -26.5200 C   0  0  0  0  0  0  0  0  0  0  0  0
   -0.5440   25.5040  -27.9150 C   0  0  0  0  0  0  0  0  0  0  0  0
   -1.2490   26.1830  -28.9550 N   0  0  0  0  0  0  0  0  0  0  0  0
    0.5500   24.9340  -28.1670 O   0  0  0  0  0  0  0  0  0  0  0  0
   -3.7214   18.9367  -25.6738 H   0  0  0  0  0  0  0  0  0  0  0  0
   -3.6728   19.8418  -27.2247 H   0  0  0  0  0  0  0  0  0  0  0  0
   -3.5268   18.0514  -27.2247 H   0  0  0  0  0  0  0  0  0  0  0  0
   -1.5205   19.9266  -25.8758 H   0  0  0  0  0  0  0  0  0  0  0  0
   -1.3684   18.1406  -26.1771 H   0  0  0  0  0  0  0  0  0  0  0  0
    0.0058   19.3603  -27.7747 H   0  0  0  0  0  0  0  0  0  0  0  0
   -1.3985   18.5814  -28.6126 H   0  0  0  0  0  0  0  0  0  0  0  0
   -2.7201   19.9684  -30.1155 H   0  0  0  0  0  0  0  0  0  0  0  0
   -5.5198   22.1159  -32.6120 H   0  0  0  0  0  0  0  0  0  0  0  0
   -7.8247   17.9715  -30.9124 H   0  0  0  0  0  0  0  0  0  0  0  0
   -5.9011   16.5347  -31.6050 H   0  0  0  0  0  0  0  0  0  0  0  0
   -4.8703   19.3980  -34.6900 H   0  0  0  0  0  0  0  0  0  0  0  0
   -6.7760   20.8472  -33.9755 H   0  0  0  0  0  0  0  0  0  0  0  0
   -8.5809   24.2860  -30.4658 H   0  0  0  0  0  0  0  0  0  0  0  0
   -6.3009   24.9710  -28.3858 H   0  0  0  0  0  0  0  0  0  0  0  0
   -5.2099   25.8754  -29.4895 H   0  0  0  0  0  0  0  0  0  0  0  0
   -6.9730   26.2187  -29.4895 H   0  0  0  0  0  0  0  0  0  0  0  0
   -1.6318   23.9510  -28.8355 H   0  0  0  0  0  0  0  0  0  0  0  0
   -0.4813   24.7721  -24.5784 H   0  0  0  0  0  0  0  0  0  0  0  0
    0.7267   24.5237  -25.8932 H   0  0  0  0  0  0  0  0  0  0  0  0
   -2.1570   25.2077  -26.5565 H   0  0  0  0  0  0  0  0  0  0  0  0
   -0.9764   26.4978  -26.0908 H   0  0  0  0  0  0  0  0  0  0  0  0
   -1.5850   25.6740  -29.8050 H   0  0  0  0  0  0  0  0  0  0  0  0
  1  2  1  0
  2  3  1  0
  3  4  1  0
  4  5  1  0
  5  6  2  0
  6  7  1  0
  7  8  1  0
  8  9  2  0
  8 10  1  0
 10 11  2  0
 11 12  1  0
 12 13  1  0
 13 14  1  0
 14 15  2  0
 14 16  2  0
 14 17  1  0
 17 18  2  0
 18 19  1  0
 19 20  2  0
 20 21  1  0
 20 22  1  0
 22 23  2  0
 12 24  2  0
 24 25  1  0
 25 26  1  0
  6 27  1  0
 27 28  2  0
 28 29  1  0
 29 30  2  0
 29 31  1  0
 31 32  1  0
 32 33  1  0
 33 34  1  0
 34 35  1  0
 34 36  2  0
 28  4  1  0
 25 10  1  0
 23 17  1  0
  1 37  1  0
  1 38  1  0
  1 39  1  0
  2 40  1  0
  2 41  1  0
  3 42  1  0
  3 43  1  0
  5 44  1  0
 11 45  1  0
 18 46  1  0
 19 47  1  0
 22 48  1  0
 23 49  1  0
 24 50  1  0
 26 51  1  0
 26 52  1  0
 26 53  1  0
 27 54  1  0
 32 55  1  0
 32 56  1  0
 33 57  1  0
 33 58  1  0
 35 59  1  0
M  CHG  4   7  -1  13  -1  31  -1  35  -1
M  END
>  <UniqueID>  (20) 
20

>  <SMILES>  (20) 
CCCn1cc([N-]C(=O)c2cc([N-]S(=O)(=O)c3ccc(Cl)cc3)cn2C)cc1C(=O)[N-]CCC([NH-])=O

>  <Energy>  (20) 
103.82953125568666

>  <Genealogy>  (20) 
CCCn1cc([N-]C(=O)c2cc([N-]S(=O)(=O)c3ccc(Cl)cc3)cn2C)cc1C(=O)[N-]CCC([NH-])=O (protonated)
CCCn1cc([N-]C(=O)c2cc([N-]S(=O)(=O)c3ccc(Cl)cc3)cn2C)cc1C(=O)[N-]CCC([NH-])=O (3D coordinates assigned)
CCCn1cc([N-]C(=O)c2cc([N-]S(=O)(=O)c3ccc(Cl)cc3)cn2C)cc1C(=O)[N-]CCC([NH-])=O (optimized conformer: 103.82953125568666 kcal/mol)

>  <smiles>  (20) 
CCCn1cc(NC(=O)c2cc(NS(=O)(=O)c3ccc(Cl)cc3)cn2C)cc1C(=O)NCCC(N)=O

>  <score_type>  (20) 
oracle

>  <origin>  (20) 
adgpu

>  <m_score__min__energy>  (20) 
-13.630000000000001

>  <m_primary>  (20) 
energy

$$$$
20:0
     RDKit          3D

 40 43  0  0  0  0  0  0  0  0999 V2000
   -3.2449   20.8420  -26.8504 H   0  0  0  0  0  0  0  0  0  0  0  0
   -2.4450   20.2970  -27.3730 C   0  0  0  0  0  0  0  0  0  0  0  0
   -1.8457   19.5489  -26.8333 H   0  0  0  0  0  0  0  0  0  0  0  0
   -2.2010   20.5440  -28.6650 C   0  0  0  0  0  0  0  0  0  0  0  0
   -2.8440   21.4910  -29.4830 C   0  0  0  0  0  0  0  0  0  0  0  0
   -3.8200   22.3410  -29.1020 C   0  0  0  0  0  0  0  0  0  0  0  0
   -4.3322   22.1346  -28.1507 H   0  0  0  0  0  0  0  0  0  0  0  0
   -4.2510   23.5260  -29.8660 C   0  0  0  0  0  0  0  0  0  0  0  0
   -5.3220   23.6720  -30.7410 C   0  0  0  0  0  0  0  0  0  0  0  0
   -6.3450   22.6620  -31.0960 C   0  0  0  0  0  0  0  0  0  0  0  0
   -6.0550   21.6860  -32.0640 C   0  0  0  0  0  0  0  0  0  0  0  0
   -5.0598   21.6580  -32.5317 H   0  0  0  0  0  0  0  0  0  0  0  0
   -7.0250   20.7500  -32.4360 C   0  0  0  0  0  0  0  0  0  0  0  0
   -6.7942   19.9940  -33.2010 H   0  0  0  0  0  0  0  0  0  0  0  0
   -8.2870   20.7740  -31.8370 C   0  0  0  0  0  0  0  0  0  0  0  0
   -9.2270   19.8670  -32.2000 F   0  0  0  0  0  0  0  0  0  0  0  0
   -8.5790   21.7300  -30.8600 C   0  0  0  0  0  0  0  0  0  0  0  0
   -9.5711   21.7452  -30.3850 H   0  0  0  0  0  0  0  0  0  0  0  0
   -7.6110   22.6670  -30.4860 C   0  0  0  0  0  0  0  0  0  0  0  0
   -7.8416   23.4120  -29.7102 H   0  0  0  0  0  0  0  0  0  0  0  0
   -5.2910   24.9220  -31.2490 N   0  0  0  0  0  0  0  0  0  0  0  0
   -5.9640   25.3270  -31.9360 H   0  0  0  0  0  0  0  0  0  0  0  0
   -4.2370   25.5720  -30.7790 N   0  0  0  0  0  0  0  0  0  0  0  0
   -3.5920   24.7340  -29.9500 C   0  0  0  0  0  0  0  0  0  0  0  0
   -2.5350   25.0350  -29.3370 O   0  0  0  0  0  0  0  0  0  0  0  0
   -2.2330   21.3540  -30.7340 C   0  0  0  0  0  0  0  0  0  0  0  0
   -2.5180   21.9130  -31.9860 C   0  0  0  0  0  0  0  0  0  0  0  0
   -3.3466   22.6261  -32.1080 H   0  0  0  0  0  0  0  0  0  0  0  0
   -1.7230   21.5430  -33.0810 C   0  0  0  0  0  0  0  0  0  0  0  0
   -1.9110   21.9916  -34.0676 H   0  0  0  0  0  0  0  0  0  0  0  0
   -0.6860   20.6020  -32.9280 C   0  0  0  0  0  0  0  0  0  0  0  0
   -0.0615   20.3322  -33.7924 H   0  0  0  0  0  0  0  0  0  0  0  0
   -0.4430   20.0040  -31.6760 C   0  0  0  0  0  0  0  0  0  0  0  0
    0.6270   18.9640  -31.5090 C   0  0  0  0  0  0  0  0  0  0  0  0
    0.8056   18.7904  -30.4376 H   0  0  0  0  0  0  0  0  0  0  0  0
    0.3037   18.0258  -31.9835 H   0  0  0  0  0  0  0  0  0  0  0  0
    1.5557   19.3139  -31.9835 H   0  0  0  0  0  0  0  0  0  0  0  0
   -1.2520   20.3960  -30.5990 C   0  0  0  0  0  0  0  0  0  0  0  0
   -1.2290   19.9000  -29.3500 N   0  0  0  0  0  0  0  0  0  0  0  0
   -0.5950   19.1550  -28.9830 H   0  0  0  0  0  0  0  0  0  0  0  0
  1  2  1  0
  2  3  1  0
  2  4  2  0
  4  5  1  0
  5  6  2  0
  6  7  1  0
  6  8  1  0
  8  9  2  0
  9 10  1  0
 10 11  2  0
 11 12  1  0
 11 13  1  0
 13 14  1  0
 13 15  2  0
 15 16  1  0
 15 17  1  0
 17 18  1  0
 17 19  2  0
 19 20  1  0
  9 21  1  0
 21 22  1  0
 21 23  1  0
 23 24  1  0
 24 25  2  0
  5 26  1  0
 26 27  2  0
 27 28  1  0
 27 29  1  0
 29 30  1  0
 29 31  2  0
 31 32  1  0
 31 33  1  0
 33 34  1  0
 34 35  1  0
 34 36  1  0
 34 37  1  0
 33 38  2  0
 38 39  1  0
 39 40  1  0
 39  4  1  0
 24  8  1  0
 38 26  1  0
 19 10  1  0
M  CHG  1  23  -1
M  END
>  <UniqueID>  (21) 
21

>  <SMILES>  (21) 
C=c1[nH]c2c(C)cccc2/c1=C\c1c(-c2ccc(F)cc2)[nH][n-]c1=O

>  <Energy>  (21) 
123.14148006912505

>  <Genealogy>  (21) 
C=c1[nH]c2c(C)cccc2c1=Cc1c(-c2ccc(F)cc2)[nH][n-]c1=O (protonated)
C=c1[nH]c2c(C)cccc2/c1=C\c1c(-c2ccc(F)cc2)[nH][n-]c1=O (cis-trans isomerization)
C=c1[nH]c2c(C)cccc2/c1=C\c1c(-c2ccc(F)cc2)[nH][n-]c1=O (3D coordinates assigned)
C=c1[nH]c2c(C)cccc2/c1=C\c1c(-c2ccc(F)cc2)[nH][n-]c1=O (optimized conformer: 123.14148006912505 kcal/mol)

>  <smiles>  (21) 
C=c1[nH]c2c(C)cccc2c1=Cc1c(-c2ccc(F)cc2)[nH][nH]c1=O

>  <score_type>  (21) 
oracle

>  <origin>  (21) 
adgpu

>  <m_score__min__energy>  (21) 
-10.01

>  <m_primary>  (21) 
energy

$$$$
21:0
     RDKit          3D

 45 47  0  0  0  0  0  0  0  0999 V2000
    0.0400   18.1810  -27.4540 C   0  0  0  0  0  0  0  0  0  0  0  0
   -0.9090   19.2260  -27.9470 C   0  0  0  0  0  0  0  0  0  0  0  0
   -2.0940   19.2410  -27.5190 O   0  0  0  0  0  0  0  0  0  0  0  0
   -0.4730   20.1810  -28.9260 N   0  0  0  0  0  0  0  0  0  0  0  0
   -1.2200   21.3520  -29.2960 C   0  0  0  0  0  0  0  0  0  0  0  0
   -1.6360   21.5730  -30.6190 C   0  0  0  0  0  0  0  0  0  0  0  0
   -2.3890   22.7050  -30.9470 C   0  0  0  0  0  0  0  0  0  0  0  0
   -2.7450   23.6300  -29.9610 C   0  0  0  0  0  0  0  0  0  0  0  0
   -3.5170   24.7760  -30.3490 N   0  0  0  0  0  0  0  0  0  0  0  0
   -5.2470   24.9030  -30.3540 S   0  0  0  0  0  0  0  0  0  0  0  0
   -5.6850   26.0470  -31.2220 O   0  0  0  0  0  0  0  0  0  0  0  0
   -5.7100   25.1830  -28.9520 O   0  0  0  0  0  0  0  0  0  0  0  0
   -5.9590   23.3880  -30.9010 C   0  0  0  0  0  0  0  0  0  0  0  0
   -7.2250   23.0160  -30.4490 C   0  0  0  0  0  0  0  0  0  0  0  0
   -7.8070   21.8300  -30.8820 C   0  0  0  0  0  0  0  0  0  0  0  0
   -7.1220   20.9610  -31.7660 C   0  0  0  0  0  0  0  0  0  0  0  0
   -5.8150   21.3210  -32.2080 C   0  0  0  0  0  0  0  0  0  0  0  0
   -5.2660   22.5550  -31.7810 C   0  0  0  0  0  0  0  0  0  0  0  0
   -5.1120   20.4690  -33.0330 N   0  0  0  0  0  0  0  0  0  0  0  0
   -3.7350   20.7920  -33.4640 C   0  0  0  0  0  0  0  0  0  0  0  0
   -5.7000   19.3100  -33.4680 C   0  0  0  0  0  0  0  0  0  0  0  0
   -5.0860   18.5300  -34.2500 O   0  0  0  0  0  0  0  0  0  0  0  0
   -6.9910   18.9660  -33.0490 C   0  0  0  0  0  0  0  0  0  0  0  0
   -7.4980   17.8890  -33.4710 O   0  0  0  0  0  0  0  0  0  0  0  0
   -7.6890   19.7810  -32.1970 N   0  0  0  0  0  0  0  0  0  0  0  0
   -9.0470   19.3880  -31.7570 C   0  0  0  0  0  0  0  0  0  0  0  0
   -2.3440   23.4020  -28.6340 C   0  0  0  0  0  0  0  0  0  0  0  0
   -1.5930   22.2670  -28.3070 C   0  0  0  0  0  0  0  0  0  0  0  0
    0.0428   18.1779  -26.3540 H   0  0  0  0  0  0  0  0  0  0  0  0
   -0.2772   17.1944  -27.8227 H   0  0  0  0  0  0  0  0  0  0  0  0
    1.0526   18.4020  -27.8227 H   0  0  0  0  0  0  0  0  0  0  0  0
    0.4180   19.9820  -29.4390 H   0  0  0  0  0  0  0  0  0  0  0  0
   -1.3675   20.8501  -31.4034 H   0  0  0  0  0  0  0  0  0  0  0  0
   -2.7034   22.8687  -31.9883 H   0  0  0  0  0  0  0  0  0  0  0  0
   -7.7665   23.6653  -29.7453 H   0  0  0  0  0  0  0  0  0  0  0  0
   -8.8151   21.5624  -30.5326 H   0  0  0  0  0  0  0  0  0  0  0  0
   -4.2761   22.8623  -32.1494 H   0  0  0  0  0  0  0  0  0  0  0  0
   -3.0992   20.9411  -32.5788 H   0  0  0  0  0  0  0  0  0  0  0  0
   -3.3356   19.9632  -34.0669 H   0  0  0  0  0  0  0  0  0  0  0  0
   -3.7458   21.7120  -34.0669 H   0  0  0  0  0  0  0  0  0  0  0  0
   -9.0873   19.3764  -30.6578 H   0  0  0  0  0  0  0  0  0  0  0  0
   -9.7810   20.1106  -32.1432 H   0  0  0  0  0  0  0  0  0  0  0  0
   -9.2817   18.3851  -32.1432 H   0  0  0  0  0  0  0  0  0  0  0  0
   -2.6217   24.1194  -27.8477 H   0  0  0  0  0  0  0  0  0  0  0  0
   -1.2937   22.0935  -27.2628 H   0  0  0  0  0  0  0  0  0  0  0  0
  1  2  1  0
  2  3  2  0
  2  4  1  0
  4  5  1  0
  5  6  2  0
  6  7  1  0
  7  8  2  0
  8  9  1  0
  9 10  1  0
 10 11  2  0
 10 12  2  0
 10 13  1  0
 13 14  2  0
 14 15  1  0
 15 16  2  0
 16 17  1  0
 17 18  2  0
 17 19  1  0
 19 20  1  0
 19 21  1  0
 21 22  2  0
 21 23  1  0
 23 24  2  0
 23 25  1  0
 25 26  1  0
  8 27  1  0
 27 28  2  0
 28  5  1  0
 18 13  1  0
 25 16  1  0
  1 29  1  0
  1 30  1  0
  1 31  1  0
  4 32  1  0
  6 33  1  0
  7 34  1  0
 14 35  1  0
 15 36  1  0
 18 37  1  0
 20 38  1  0
 20 39  1  0
 20 40  1  0
 26 41  1  0
 26 42  1  0
 26 43  1  0
 27 44  1  0
 28 45  1  0
M  CHG  1   9  -1
M  END
>  <UniqueID>  (22) 
22

>  <SMILES>  (22) 
CC(=O)Nc1ccc([N-]S(=O)(=O)c2ccc3c(c2)n(C)c(=O)c(=O)n3C)cc1

>  <Energy>  (22) 
70.74915183180362

>  <Genealogy>  (22) 
CC(=O)Nc1ccc([N-]S(=O)(=O)c2ccc3c(c2)n(C)c(=O)c(=O)n3C)cc1 (protonated)
CC(=O)Nc1ccc([N-]S(=O)(=O)c2ccc3c(c2)n(C)c(=O)c(=O)n3C)cc1 (3D coordinates assigned)
CC(=O)Nc1ccc([N-]S(=O)(=O)c2ccc3c(c2)n(C)c(=O)c(=O)n3C)cc1 (optimized conformer: 70.74915183180362 kcal/mol)

>  <smiles>  (22) 
CC(=O)Nc1ccc(NS(=O)(=O)c2ccc3c(c2)n(C)c(=O)c(=O)n3C)cc1

>  <score_type>  (22) 
oracle

>  <origin>  (22) 
adgpu

>  <m_score__min__energy>  (22) 
-10.76

>  <m_primary>  (22) 
energy

$$$$
22:0
     RDKit          3D

 63 66  0  0  0  0  0  0  0  0999 V2000
   -6.5140   24.8150  -30.1550 C   0  0  0  0  0  0  0  0  0  0  0  0
   -6.3360   24.0530  -31.3450 O   0  0  0  0  0  0  0  0  0  0  0  0
   -6.5810   22.6750  -31.4540 C   0  0  0  0  0  0  0  0  0  0  0  0
   -7.8890   22.1510  -31.4380 C   0  0  0  0  0  0  0  0  0  0  0  0
   -8.1000   20.7750  -31.5370 C   0  0  0  0  0  0  0  0  0  0  0  0
   -7.0130   19.9010  -31.6610 C   0  0  0  0  0  0  0  0  0  0  0  0
   -7.2730   18.1590  -31.7490 S   0  0  0  0  0  0  0  0  0  0  0  0
   -8.7420   17.8810  -31.5880 O   0  0  0  0  0  0  0  0  0  0  0  0
   -6.5320   17.4770  -30.6320 O   0  0  0  0  0  0  0  0  0  0  0  0
   -6.7290   17.5370  -33.2900 N   0  0  0  0  0  0  0  0  0  0  0  0
   -6.1340   18.6250  -34.0970 C   0  0  0  0  0  0  0  0  0  0  0  0
   -5.1850   18.0630  -35.1570 C   0  0  0  0  0  0  0  0  0  0  0  0
   -4.0250   17.3900  -34.5300 N   0  0  0  0  0  0  0  0  0  0  0  0
   -3.4120   16.4350  -35.4660 C   0  0  0  0  0  0  0  0  0  0  0  0
   -4.3420   16.7460  -33.2300 C   0  0  0  0  0  0  0  0  0  0  0  0
   -5.8310   16.3720  -33.1050 C   0  0  0  0  0  0  0  0  0  0  0  0
   -5.7110   20.4140  -31.6830 C   0  0  0  0  0  0  0  0  0  0  0  0
   -5.4890   21.7950  -31.5850 C   0  0  0  0  0  0  0  0  0  0  0  0
   -3.8410   22.4330  -31.6220 S   0  0  0  0  0  0  0  0  0  0  0  0
   -3.3700   22.3180  -33.0410 O   0  0  0  0  0  0  0  0  0  0  0  0
   -3.8340   23.8800  -31.2170 O   0  0  0  0  0  0  0  0  0  0  0  0
   -2.8230   21.5210  -30.4810 C   0  0  0  0  0  0  0  0  0  0  0  0
   -2.7440   22.0160  -29.1670 C   0  0  0  0  0  0  0  0  0  0  0  0
   -2.0000   21.3510  -28.1930 C   0  0  0  0  0  0  0  0  0  0  0  0
   -1.3070   20.1910  -28.5160 C   0  0  0  0  0  0  0  0  0  0  0  0
   -1.3460   19.6970  -29.8190 C   0  0  0  0  0  0  0  0  0  0  0  0
   -2.0870   20.3500  -30.8210 C   0  0  0  0  0  0  0  0  0  0  0  0
   -2.0310   19.6660  -32.4570 S   0  0  0  0  0  0  0  0  0  0  0  0
   -3.3270   19.9710  -33.1560 O   0  0  0  0  0  0  0  0  0  0  0  0
   -1.8740   18.1720  -32.3890 O   0  0  0  0  0  0  0  0  0  0  0  0
   -0.6590   20.2980  -33.3670 C   0  0  0  0  0  0  0  0  0  0  0  0
    0.5930   19.6720  -33.2800 C   0  0  0  0  0  0  0  0  0  0  0  0
    1.6800   20.1740  -33.9970 C   0  0  0  0  0  0  0  0  0  0  0  0
    1.5190   21.2890  -34.8250 C   0  0  0  0  0  0  0  0  0  0  0  0
    0.2670   21.9080  -34.9330 C   0  0  0  0  0  0  0  0  0  0  0  0
    0.0910   23.0130  -35.7600 O   0  0  0  0  0  0  0  0  0  0  0  0
   -0.8200   21.4130  -34.2030 C   0  0  0  0  0  0  0  0  0  0  0  0
   -6.3627   24.1674  -29.2788 H   0  0  0  0  0  0  0  0  0  0  0  0
   -5.7838   25.6374  -30.1335 H   0  0  0  0  0  0  0  0  0  0  0  0
   -7.5330   25.2288  -30.1335 H   0  0  0  0  0  0  0  0  0  0  0  0
   -8.7491   22.8307  -31.3469 H   0  0  0  0  0  0  0  0  0  0  0  0
   -9.1246   20.3753  -31.5175 H   0  0  0  0  0  0  0  0  0  0  0  0
   -6.9389   19.1853  -34.5951 H   0  0  0  0  0  0  0  0  0  0  0  0
   -5.5623   19.2856  -33.4286 H   0  0  0  0  0  0  0  0  0  0  0  0
   -5.7296   17.3364  -35.7779 H   0  0  0  0  0  0  0  0  0  0  0  0
   -4.8151   18.8964  -35.7723 H   0  0  0  0  0  0  0  0  0  0  0  0
   -2.9027   15.6416  -34.8992 H   0  0  0  0  0  0  0  0  0  0  0  0
   -4.1933   15.9895  -36.0993 H   0  0  0  0  0  0  0  0  0  0  0  0
   -2.6816   16.9598  -36.0993 H   0  0  0  0  0  0  0  0  0  0  0  0
   -3.7391   15.8311  -33.1332 H   0  0  0  0  0  0  0  0  0  0  0  0
   -4.1107   17.4687  -32.4336 H   0  0  0  0  0  0  0  0  0  0  0  0
   -6.0702   15.6180  -33.8693 H   0  0  0  0  0  0  0  0  0  0  0  0
   -5.9930   15.9847  -32.0883 H   0  0  0  0  0  0  0  0  0  0  0  0
   -4.8557   19.7288  -31.7779 H   0  0  0  0  0  0  0  0  0  0  0  0
   -3.2770   22.9415  -28.9037 H   0  0  0  0  0  0  0  0  0  0  0  0
   -1.9617   21.7456  -27.1669 H   0  0  0  0  0  0  0  0  0  0  0  0
   -0.7280   19.6628  -27.7442 H   0  0  0  0  0  0  0  0  0  0  0  0
   -0.7885   18.7820  -30.0678 H   0  0  0  0  0  0  0  0  0  0  0  0
    0.7186   18.7828  -32.6448 H   0  0  0  0  0  0  0  0  0  0  0  0
    2.6649   19.6917  -33.9106 H   0  0  0  0  0  0  0  0  0  0  0  0
    2.3763   21.6806  -35.3922 H   0  0  0  0  0  0  0  0  0  0  0  0
   -0.8210   23.2520  -36.1370 H   0  0  0  0  0  0  0  0  0  0  0  0
   -1.8031   21.8996  -34.2851 H   0  0  0  0  0  0  0  0  0  0  0  0
  1  2  1  0
  2  3  1  0
  3  4  2  0
  4  5  1  0
  5  6  2  0
  6  7  1  0
  7  8  2  0
  7  9  2  0
  7 10  1  0
 10 11  1  0
 11 12  1  0
 12 13  1  0
 13 14  1  0
 13 15  1  0
 15 16  1  0
  6 17  1  0
 17 18  2  0
 18 19  1  0
 19 20  2  0
 19 21  2  0
 19 22  1  0
 22 23  2  0
 23 24  1  0
 24 25  2  0
 25 26  1  0
 26 27  2  0
 27 28  1  0
 28 29  2  0
 28 30  2  0
 28 31  1  0
 31 32  2  0
 32 33  1  0
 33 34  2  0
 34 35  1  0
 35 36  1  0
 35 37  2  0
 18  3  1  0
 27 22  1  0
 37 31  1  0
 16 10  1  0
  1 38  1  0
  1 39  1  0
  1 40  1  0
  4 41  1  0
  5 42  1  0
 11 43  1  0
 11 44  1  0
 12 45  1  0
 12 46  1  0
 14 47  1  0
 14 48  1  0
 14 49  1  0
 15 50  1  0
 15 51  1  0
 16 52  1  0
 16 53  1  0
 17 54  1  0
 23 55  1  0
 24 56  1  0
 25 57  1  0
 26 58  1  0
 32 59  1  0
 33 60  1  0
 34 61  1  0
 36 62  1  0
 37 63  1  0
M  END
>  <UniqueID>  (23) 
23

>  <SMILES>  (23) 
COc1ccc(S(=O)(=O)N2CCN(C)CC2)cc1S(=O)(=O)c1ccccc1S(=O)(=O)c1cccc(O)c1

>  <Energy>  (23) 
84.01163662905135

>  <Genealogy>  (23) 
COc1ccc(S(=O)(=O)N2CCN(C)CC2)cc1S(=O)(=O)c1ccccc1S(=O)(=O)c1cccc(O)c1 (3D coordinates assigned)
COc1ccc(S(=O)(=O)N2CCN(C)CC2)cc1S(=O)(=O)c1ccccc1S(=O)(=O)c1cccc(O)c1 (nonaromatic ring conformer: 84.01163662905135 kcal/mol)

>  <smiles>  (23) 
COc1ccc(S(=O)(=O)N2CCN(C)CC2)cc1S(=O)(=O)c1ccccc1S(=O)(=O)c1cccc(O)c1

>  <score_type>  (23) 
oracle

>  <origin>  (23) 
adgpu

>  <m_score__min__energy>  (23) 
-12.19

>  <m_primary>  (23) 
energy

$$$$
23:0
     RDKit          3D

 74 79  0  0  0  0  0  0  0  0999 V2000
   -1.5806   25.7151  -28.9569 H   0  0  0  0  0  0  0  0  0  0  0  0
   -2.2670   24.9300  -29.3070 C   0  0  0  0  0  0  0  0  0  0  0  0
   -3.4650   25.2750  -29.8370 N   0  0  0  0  0  0  0  0  0  0  0  0
   -4.3470   24.3490  -30.2830 C   0  0  0  0  0  0  0  0  0  0  0  0
   -5.5740   24.7670  -30.8100 C   0  0  0  0  0  0  0  0  0  0  0  0
   -5.8144   25.8395  -30.8536 H   0  0  0  0  0  0  0  0  0  0  0  0
   -6.4930   23.8300  -31.2800 C   0  0  0  0  0  0  0  0  0  0  0  0
   -7.4621   24.1660  -31.6774 H   0  0  0  0  0  0  0  0  0  0  0  0
   -6.1890   22.4630  -31.2490 C   0  0  0  0  0  0  0  0  0  0  0  0
   -7.1750   21.4730  -31.7360 C   0  0  0  0  0  0  0  0  0  0  0  0
   -8.4470   21.4650  -31.1400 C   0  0  0  0  0  0  0  0  0  0  0  0
   -8.6918   22.2105  -30.3691 H   0  0  0  0  0  0  0  0  0  0  0  0
   -9.4030   20.5210  -31.5160 C   0  0  0  0  0  0  0  0  0  0  0  0
  -10.3986   20.5304  -31.0485 H   0  0  0  0  0  0  0  0  0  0  0  0
   -9.0970   19.5670  -32.4830 C   0  0  0  0  0  0  0  0  0  0  0  0
   -9.8452   18.8111  -32.7637 H   0  0  0  0  0  0  0  0  0  0  0  0
   -7.8440   19.5670  -33.0970 C   0  0  0  0  0  0  0  0  0  0  0  0
   -7.6107   18.8042  -33.8544 H   0  0  0  0  0  0  0  0  0  0  0  0
   -6.8750   20.5300  -32.7600 C   0  0  0  0  0  0  0  0  0  0  0  0
   -5.5550   20.5390  -33.5230 C   0  0  0  0  0  0  0  0  0  0  0  0
   -5.7386   20.1510  -34.5358 H   0  0  0  0  0  0  0  0  0  0  0  0
   -5.1966   21.5790  -33.5255 H   0  0  0  0  0  0  0  0  0  0  0  0
   -4.4900   19.7210  -32.8970 N   0  0  0  0  0  0  0  0  0  0  0  0
   -3.1370   20.3060  -33.0080 C   0  0  0  0  0  0  0  0  0  0  0  0
   -2.9466   20.5843  -34.0550 H   0  0  0  0  0  0  0  0  0  0  0  0
   -3.0780   21.1966  -32.3650 H   0  0  0  0  0  0  0  0  0  0  0  0
   -2.0830   19.2940  -32.5550 C   0  0  0  0  0  0  0  0  0  0  0  0
   -1.0927   19.7722  -32.5803 H   0  0  0  0  0  0  0  0  0  0  0  0
   -2.3309   18.9672  -31.5343 H   0  0  0  0  0  0  0  0  0  0  0  0
   -2.0670   18.1020  -33.4380 N   0  0  0  0  0  0  0  0  0  0  0  0
   -1.5160   16.9390  -32.7240 C   0  0  0  0  0  0  0  0  0  0  0  0
   -1.5941   17.1039  -31.6392 H   0  0  0  0  0  0  0  0  0  0  0  0
   -2.0827   16.0374  -32.9995 H   0  0  0  0  0  0  0  0  0  0  0  0
   -0.4594   16.8064  -32.9995 H   0  0  0  0  0  0  0  0  0  0  0  0
   -3.3830   17.7890  -34.0500 C   0  0  0  0  0  0  0  0  0  0  0  0
   -3.4416   18.2811  -35.0320 H   0  0  0  0  0  0  0  0  0  0  0  0
   -3.4582   16.6954  -34.1413 H   0  0  0  0  0  0  0  0  0  0  0  0
   -4.5620   18.2690  -33.1860 C   0  0  0  0  0  0  0  0  0  0  0  0
   -5.5006   18.0603  -33.7202 H   0  0  0  0  0  0  0  0  0  0  0  0
   -4.5188   17.7314  -32.2273 H   0  0  0  0  0  0  0  0  0  0  0  0
   -4.9730   22.0360  -30.6920 C   0  0  0  0  0  0  0  0  0  0  0  0
   -4.7512   20.9604  -30.6294 H   0  0  0  0  0  0  0  0  0  0  0  0
   -4.0310   22.9730  -30.2110 C   0  0  0  0  0  0  0  0  0  0  0  0
   -2.7830   22.5710  -29.6710 C   0  0  0  0  0  0  0  0  0  0  0  0
   -2.5160   21.2890  -29.6260 N   0  0  0  0  0  0  0  0  0  0  0  0
   -1.3150   20.6350  -29.2070 C   0  0  0  0  0  0  0  0  0  0  0  0
   -0.2660   20.4400  -30.1160 C   0  0  0  0  0  0  0  0  0  0  0  0
   -0.3704   20.7796  -31.1570 H   0  0  0  0  0  0  0  0  0  0  0  0
    0.9130   19.8140  -29.7000 C   0  0  0  0  0  0  0  0  0  0  0  0
    1.7389   19.6685  -30.4119 H   0  0  0  0  0  0  0  0  0  0  0  0
    1.0430   19.3720  -28.3770 C   0  0  0  0  0  0  0  0  0  0  0  0
    2.5820   18.6450  -27.8180 S   0  0  0  0  0  0  0  0  0  0  0  0
    1.9670   16.9740  -28.0620 C   0  0  0  0  0  0  0  0  0  0  0  0
    1.5970   16.1250  -27.0380 C   0  0  0  0  0  0  0  0  0  0  0  0
    1.5916   16.3536  -25.9620 H   0  0  0  0  0  0  0  0  0  0  0  0
    1.2350   14.9320  -27.6320 C   0  0  0  0  0  0  0  0  0  0  0  0
    0.8949   14.0192  -27.1210 H   0  0  0  0  0  0  0  0  0  0  0  0
    1.3840   15.1100  -28.9960 C   0  0  0  0  0  0  0  0  0  0  0  0
    1.1550   14.0520  -30.0290 C   0  0  0  0  0  0  0  0  0  0  0  0
    0.9474   13.0930  -29.5318 H   0  0  0  0  0  0  0  0  0  0  0  0
    0.2968   14.3326  -30.6573 H   0  0  0  0  0  0  0  0  0  0  0  0
    2.0524   13.9526  -30.6573 H   0  0  0  0  0  0  0  0  0  0  0  0
    1.8430   16.3540  -29.2560 N   0  0  0  0  0  0  0  0  0  0  0  0
    2.0940   16.9180  -30.5820 C   0  0  0  0  0  0  0  0  0  0  0  0
    2.5392   17.9184  -30.4767 H   0  0  0  0  0  0  0  0  0  0  0  0
    2.7863   16.2647  -31.1333 H   0  0  0  0  0  0  0  0  0  0  0  0
    1.1452   16.9951  -31.1333 H   0  0  0  0  0  0  0  0  0  0  0  0
   -0.0250   19.5240  -27.4830 C   0  0  0  0  0  0  0  0  0  0  0  0
    0.0648   19.1515  -26.4519 H   0  0  0  0  0  0  0  0  0  0  0  0
   -1.2040   20.1480  -27.8990 C   0  0  0  0  0  0  0  0  0  0  0  0
   -2.0452   20.2567  -27.1986 H   0  0  0  0  0  0  0  0  0  0  0  0
   -1.8930   23.5850  -29.2000 C   0  0  0  0  0  0  0  0  0  0  0  0
   -0.6240   23.3200  -28.5600 C   0  0  0  0  0  0  0  0  0  0  0  0
    0.3930   23.1180  -28.0450 N   0  0  0  0  0  0  0  0  0  0  0  0
  1  2  1  0
  2  3  1  0
  3  4  1  0
  4  5  2  0
  5  6  1  0
  5  7  1  0
  7  8  1  0
  7  9  2  0
  9 10  1  0
 10 11  2  0
 11 12  1  0
 11 13  1  0
 13 14  1  0
 13 15  2  0
 15 16  1  0
 15 17  1  0
 17 18  1  0
 17 19  2  0
 19 20  1  0
 20 21  1  0
 20 22  1  0
 20 23  1  0
 23 24  1  0
 24 25  1  0
 24 26  1  0
 24 27  1  0
 27 28  1  0
 27 29  1  0
 27 30  1  0
 30 31  1  0
 31 32  1  0
 31 33  1  0
 31 34  1  0
 30 35  1  0
 35 36  1  0
 35 37  1  0
 35 38  1  0
 38 39  1  0
 38 40  1  0
  9 41  1  0
 41 42  1  0
 41 43  2  0
 43 44  1  0
 44 45  2  0
 45 46  1  0
 46 47  2  0
 47 48  1  0
 47 49  1  0
 49 50  1  0
 49 51  2  0
 51 52  1  0
 52 53  1  0
 53 54  2  0
 54 55  1  0
 54 56  1  0
 56 57  1  0
 56 58  2  0
 58 59  1  0
 59 60  1  0
 59 61  1  0
 59 62  1  0
 58 63  1  0
 63 64  1  0
 64 65  1  0
 64 66  1  0
 64 67  1  0
 51 68  1  0
 68 69  1  0
 68 70  2  0
 70 71  1  0
 44 72  1  0
 72 73  1  0
 73 74  3  0
 72  2  2  0
 43  4  1  0
 70 46  1  0
 19 10  1  0
 38 23  1  0
 63 53  1  0
M  CHG  1   3  -1
M  END
>  <UniqueID>  (24) 
24

>  <SMILES>  (24) 
Cc1ccc(Sc2ccc(/N=c3\c(C#N)c[n-]c4ccc(-c5ccccc5CN5CCN(C)CC5)cc34)cc2)n1C

>  <Energy>  (24) 
144.291380154234

>  <Genealogy>  (24) 
Cc1ccc(Sc2ccc(N=c3c(C#N)c[n-]c4ccc(-c5ccccc5CN5CCN(C)CC5)cc34)cc2)n1C (protonated)
Cc1ccc(Sc2ccc(/N=c3\c(C#N)c[n-]c4ccc(-c5ccccc5CN5CCN(C)CC5)cc34)cc2)n1C (cis-trans isomerization)
Cc1ccc(Sc2ccc(/N=c3\c(C#N)c[n-]c4ccc(-c5ccccc5CN5CCN(C)CC5)cc34)cc2)n1C (3D coordinates assigned)
Cc1ccc(Sc2ccc(/N=c3\c(C#N)c[n-]c4ccc(-c5ccccc5CN5CCN(C)CC5)cc34)cc2)n1C (nonaromatic ring conformer: 144.291380154234 kcal/mol)

>  <smiles>  (24) 
Cc1ccc(Sc2ccc(N=c3c(C#N)c[nH]c4ccc(-c5ccccc5CN5CCN(C)CC5)cc34)cc2)n1C

>  <score_type>  (24) 
oracle

>  <origin>  (24) 
adgpu

>  <m_score__min__energy>  (24) 
-13.539999999999999

>  <m_primary>  (24) 
energy

$$$$
24:0
     RDKit          3D

 42 44  0  0  0  0  0  0  0  0999 V2000
   -1.2840   26.6240  -29.6110 H   0  0  0  0  0  0  0  0  0  0  0  0
   -1.3280   25.8210  -28.9470 N   0  0  0  0  0  0  0  0  0  0  0  0
   -2.2090   24.8820  -29.0770 C   0  0  0  0  0  0  0  0  0  0  0  0
   -2.2340   23.8530  -28.1940 N   0  0  0  0  0  0  0  0  0  0  0  0
   -3.1510   22.8630  -28.3260 C   0  0  0  0  0  0  0  0  0  0  0  0
   -3.1820   21.8000  -27.3730 N   0  0  0  0  0  0  0  0  0  0  0  0
   -2.1880   20.3890  -27.5100 S   0  0  0  0  0  0  0  0  0  0  0  0
   -1.2050   20.3530  -26.3720 O   0  0  0  0  0  0  0  0  0  0  0  0
   -3.0550   19.1640  -27.4290 O   0  0  0  0  0  0  0  0  0  0  0  0
   -1.3500   20.3990  -29.0560 C   0  0  0  0  0  0  0  0  0  0  0  0
   -0.0740   19.8340  -29.1820 C   0  0  0  0  0  0  0  0  0  0  0  0
    0.4005   19.3544  -28.3132 H   0  0  0  0  0  0  0  0  0  0  0  0
    0.5990   19.8770  -30.4070 C   0  0  0  0  0  0  0  0  0  0  0  0
    1.6071   19.4454  -30.4928 H   0  0  0  0  0  0  0  0  0  0  0  0
   -0.0030   20.4660  -31.5240 C   0  0  0  0  0  0  0  0  0  0  0  0
    0.7210   20.5140  -32.7620 N   0  0  0  0  0  0  0  0  0  0  0  0
    0.2330   21.0230  -34.0120 C   0  0  0  0  0  0  0  0  0  0  0  0
    0.8470   21.9700  -34.5670 O   0  0  0  0  0  0  0  0  0  0  0  0
   -0.9560   20.4220  -34.7030 C   0  0  0  0  0  0  0  0  0  0  0  0
   -1.6726   20.0598  -33.9512 H   0  0  0  0  0  0  0  0  0  0  0  0
   -1.4386   21.1844  -35.3321 H   0  0  0  0  0  0  0  0  0  0  0  0
   -0.6283   19.5813  -35.3321 H   0  0  0  0  0  0  0  0  0  0  0  0
   -1.2710   21.0570  -31.3900 C   0  0  0  0  0  0  0  0  0  0  0  0
   -1.7395   21.5506  -32.2542 H   0  0  0  0  0  0  0  0  0  0  0  0
   -1.9390   21.0200  -30.1630 C   0  0  0  0  0  0  0  0  0  0  0  0
   -2.9329   21.4814  -30.0670 H   0  0  0  0  0  0  0  0  0  0  0  0
   -4.0410   22.9010  -29.3510 N   0  0  0  0  0  0  0  0  0  0  0  0
   -4.0210   23.9300  -30.2410 C   0  0  0  0  0  0  0  0  0  0  0  0
   -4.8860   23.9960  -31.2100 N   0  0  0  0  0  0  0  0  0  0  0  0
   -5.8650   22.9900  -31.5060 C   0  0  0  0  0  0  0  0  0  0  0  0
   -7.1990   23.1300  -31.0890 C   0  0  0  0  0  0  0  0  0  0  0  0
   -7.5070   24.0264  -30.5308 H   0  0  0  0  0  0  0  0  0  0  0  0
   -8.1360   22.1360  -31.3800 C   0  0  0  0  0  0  0  0  0  0  0  0
   -9.1793   22.2505  -31.0508 H   0  0  0  0  0  0  0  0  0  0  0  0
   -7.7480   20.9950  -32.0900 C   0  0  0  0  0  0  0  0  0  0  0  0
   -8.7150   19.9770  -32.4070 C   0  0  0  0  0  0  0  0  0  0  0  0
   -9.4940   19.1600  -32.6580 N   0  0  0  0  0  0  0  0  0  0  0  0
   -6.4140   20.8400  -32.4850 C   0  0  0  0  0  0  0  0  0  0  0  0
   -6.1059   19.9401  -33.0376 H   0  0  0  0  0  0  0  0  0  0  0  0
   -5.4720   21.8280  -32.1780 C   0  0  0  0  0  0  0  0  0  0  0  0
   -4.4193   21.6905  -32.4660 H   0  0  0  0  0  0  0  0  0  0  0  0
   -3.1080   24.9220  -30.0950 N   0  0  0  0  0  0  0  0  0  0  0  0
  1  2  1  0
  2  3  2  0
  3  4  1  0
  4  5  2  0
  5  6  1  0
  6  7  1  0
  7  8  2  0
  7  9  2  0
  7 10  1  0
 10 11  2  0
 11 12  1  0
 11 13  1  0
 13 14  1  0
 13 15  2  0
 15 16  1  0
 16 17  1  0
 17 18  2  0
 17 19  1  0
 19 20  1  0
 19 21  1  0
 19 22  1  0
 15 23  1  0
 23 24  1  0
 23 25  2  0
 25 26  1  0
  5 27  1  0
 27 28  1  0
 28 29  2  0
 29 30  1  0
 30 31  2  0
 31 32  1  0
 31 33  1  0
 33 34  1  0
 33 35  2  0
 35 36  1  0
 36 37  3  0
 35 38  1  0
 38 39  1  0
 38 40  2  0
 40 41  1  0
 28 42  1  0
 42  3  1  0
 25 10  1  0
 40 30  1  0
M  CHG  4   6  -1  16  -1  27  -1  42  -1
M  END
>  <UniqueID>  (25) 
25

>  <SMILES>  (25) 
[H]/N=c1/nc([N-]S(=O)(=O)c2ccc([N-]C(C)=O)cc2)[n-]/c(=N\c2ccc(C#N)cc2)[n-]1

>  <Energy>  (25) 
53.047107857535565

>  <Genealogy>  (25) 
CC(=O)[N-]c1ccc(S(=O)(=O)[N-]c2nc(=N)[n-]c(=Nc3ccc(C#N)cc3)[n-]2)cc1 (protonated)
[H]/N=c1/nc([N-]S(=O)(=O)c2ccc([N-]C(C)=O)cc2)[n-]/c(=N\c2ccc(C#N)cc2)[n-]1 (cis-trans isomerization)
[H]/N=c1/nc([N-]S(=O)(=O)c2ccc([N-]C(C)=O)cc2)[n-]/c(=N\c2ccc(C#N)cc2)[n-]1 (3D coordinates assigned)
[H]/N=c1/nc([N-]S(=O)(=O)c2ccc([N-]C(C)=O)cc2)[n-]/c(=N\c2ccc(C#N)cc2)[n-]1 (optimized conformer: 53.047107857535565 kcal/mol)

>  <smiles>  (25) 
CC(=O)Nc1ccc(S(=O)(=O)Nc2nc(=N)[nH]c(=Nc3ccc(C#N)cc3)[nH]2)cc1

>  <score_type>  (25) 
oracle

>  <origin>  (25) 
adgpu

>  <m_score__min__energy>  (25) 
-12.07

>  <m_primary>  (25) 
energy

$$$$
25:0
     RDKit          3D

 45 48  0  0  0  0  0  0  0  0999 V2000
   -0.0810   22.6600  -23.8230 O   0  0  0  0  0  0  0  0  0  0  0  0
   -0.4350   23.6200  -24.5580 C   0  0  0  0  0  0  0  0  0  0  0  0
   -0.2450   25.0300  -24.0870 C   0  0  0  0  0  0  0  0  0  0  0  0
   -1.2400   25.9510  -24.7930 C   0  0  0  0  0  0  0  0  0  0  0  0
   -1.1850   25.7510  -26.3120 C   0  0  0  0  0  0  0  0  0  0  0  0
   -1.3440   24.2910  -26.6890 C   0  0  0  0  0  0  0  0  0  0  0  0
   -1.8500   23.9020  -28.0330 C   0  0  0  0  0  0  0  0  0  0  0  0
   -1.5410   22.6390  -28.5670 C   0  0  0  0  0  0  0  0  0  0  0  0
   -2.0100   22.2630  -29.8270 C   0  0  0  0  0  0  0  0  0  0  0  0
   -2.8010   23.1460  -30.5860 C   0  0  0  0  0  0  0  0  0  0  0  0
   -3.3000   22.8080  -31.8560 O   0  0  0  0  0  0  0  0  0  0  0  0
   -4.2560   21.7810  -32.1160 C   0  0  0  0  0  0  0  0  0  0  0  0
   -5.6520   22.3230  -31.9960 C   0  0  0  0  0  0  0  0  0  0  0  0
   -5.9180   23.6120  -31.7040 N   0  0  0  0  0  0  0  0  0  0  0  0
   -7.2360   23.7350  -31.6390 N   0  0  0  0  0  0  0  0  0  0  0  0
   -7.7530   22.5180  -31.8870 C   0  0  0  0  0  0  0  0  0  0  0  0
   -9.3630   22.2290  -31.9660 S   0  0  0  0  0  0  0  0  0  0  0  0
   -6.7890   21.6040  -32.1260 N   0  0  0  0  0  0  0  0  0  0  0  0
   -6.9360   20.2100  -32.4450 C   0  0  0  0  0  0  0  0  0  0  0  0
   -6.2280   19.6520  -33.5210 C   0  0  0  0  0  0  0  0  0  0  0  0
   -6.3780   18.2980  -33.8340 C   0  0  0  0  0  0  0  0  0  0  0  0
   -7.2320   17.4930  -33.0750 C   0  0  0  0  0  0  0  0  0  0  0  0
   -7.9390   18.0430  -32.0010 C   0  0  0  0  0  0  0  0  0  0  0  0
   -7.7920   19.3970  -31.6860 C   0  0  0  0  0  0  0  0  0  0  0  0
   -3.1040   24.4110  -30.0660 C   0  0  0  0  0  0  0  0  0  0  0  0
   -3.8780   25.2940  -30.8160 O   0  0  0  0  0  0  0  0  0  0  0  0
   -2.6320   24.7860  -28.8000 C   0  0  0  0  0  0  0  0  0  0  0  0
   -0.9700   23.3550  -25.8600 N   0  0  0  0  0  0  0  0  0  0  0  0
   -0.4110   25.0775  -23.0006 H   0  0  0  0  0  0  0  0  0  0  0  0
    0.7795   25.3556  -24.3203 H   0  0  0  0  0  0  0  0  0  0  0  0
   -2.2558   25.7254  -24.4362 H   0  0  0  0  0  0  0  0  0  0  0  0
   -0.9767   26.9945  -24.5654 H   0  0  0  0  0  0  0  0  0  0  0  0
   -1.9958   26.3303  -26.7779 H   0  0  0  0  0  0  0  0  0  0  0  0
   -0.2024   26.0933  -26.6687 H   0  0  0  0  0  0  0  0  0  0  0  0
   -0.9228   21.9391  -27.9856 H   0  0  0  0  0  0  0  0  0  0  0  0
   -1.7598   21.2703  -30.2293 H   0  0  0  0  0  0  0  0  0  0  0  0
   -4.1039   21.3934  -33.1342 H   0  0  0  0  0  0  0  0  0  0  0  0
   -4.1219   20.9740  -31.3806 H   0  0  0  0  0  0  0  0  0  0  0  0
   -5.5534   20.2819  -34.1194 H   0  0  0  0  0  0  0  0  0  0  0  0
   -5.8229   17.8652  -34.6793 H   0  0  0  0  0  0  0  0  0  0  0  0
   -7.3480   16.4274  -33.3223 H   0  0  0  0  0  0  0  0  0  0  0  0
   -8.6113   17.4096  -31.4036 H   0  0  0  0  0  0  0  0  0  0  0  0
   -8.3491   19.8267  -30.8404 H   0  0  0  0  0  0  0  0  0  0  0  0
   -4.4610   24.9730  -31.5800 H   0  0  0  0  0  0  0  0  0  0  0  0
   -2.8755   25.7821  -28.4018 H   0  0  0  0  0  0  0  0  0  0  0  0
  1  2  2  0
  2  3  1  0
  3  4  1  0
  4  5  1  0
  5  6  1  0
  6  7  1  0
  7  8  2  0
  8  9  1  0
  9 10  2  0
 10 11  1  0
 11 12  1  0
 12 13  1  0
 13 14  2  0
 14 15  1  0
 15 16  1  0
 16 17  2  0
 16 18  1  0
 18 19  1  0
 19 20  2  0
 20 21  1  0
 21 22  2  0
 22 23  1  0
 23 24  2  0
 10 25  1  0
 25 26  1  0
 25 27  2  0
  6 28  2  0
 28  2  1  0
 27  7  1  0
 18 13  1  0
 24 19  1  0
  3 29  1  0
  3 30  1  0
  4 31  1  0
  4 32  1  0
  5 33  1  0
  5 34  1  0
  8 35  1  0
  9 36  1  0
 12 37  1  0
 12 38  1  0
 20 39  1  0
 21 40  1  0
 22 41  1  0
 23 42  1  0
 24 43  1  0
 26 44  1  0
 27 45  1  0
M  CHG  1  15  -1
M  END
>  <UniqueID>  (26) 
26

>  <SMILES>  (26) 
O=C1CCCC(c2ccc(OCc3n[n-]c(=S)n3-c3ccccc3)c(O)c2)=N1

>  <Energy>  (26) 
90.25519793643596

>  <Genealogy>  (26) 
O=C1CCCC(c2ccc(OCc3n[n-]c(=S)n3-c3ccccc3)c(O)c2)=N1 (protonated)
O=C1CCCC(c2ccc(OCc3n[n-]c(=S)n3-c3ccccc3)c(O)c2)=N1 (3D coordinates assigned)
O=C1CCCC(c2ccc(OCc3n[n-]c(=S)n3-c3ccccc3)c(O)c2)=N1 (nonaromatic ring conformer: 90.25519793643596 kcal/mol)

>  <smiles>  (26) 
O=C1CCCC(c2ccc(OCc3n[nH]c(=S)n3-c3ccccc3)c(O)c2)=N1

>  <score_type>  (26) 
oracle

>  <origin>  (26) 
adgpu

>  <m_score__min__energy>  (26) 
-10.359999999999999

>  <m_primary>  (26) 
energy

$$$$
26:0
     RDKit          3D

 39 41  0  0  0  0  0  0  0  0999 V2000
   -3.5690   24.9210  -27.8300 O   0  0  0  0  0  0  0  0  0  0  0  0
   -2.6380   24.6050  -28.9670 S   0  0  0  0  0  0  0  0  0  0  0  0
   -1.5300   25.6190  -28.9900 O   0  0  0  0  0  0  0  0  0  0  0  0
   -3.5160   24.6900  -30.4590 N   0  0  0  0  0  0  0  0  0  0  0  0
   -4.7330   23.9850  -30.7450 C   0  0  0  0  0  0  0  0  0  0  0  0
   -4.7440   22.8050  -31.5100 C   0  0  0  0  0  0  0  0  0  0  0  0
   -5.9510   22.1500  -31.7980 C   0  0  0  0  0  0  0  0  0  0  0  0
   -7.1590   22.6540  -31.2770 C   0  0  0  0  0  0  0  0  0  0  0  0
   -7.1470   23.8330  -30.5190 C   0  0  0  0  0  0  0  0  0  0  0  0
   -5.9410   24.4940  -30.2490 C   0  0  0  0  0  0  0  0  0  0  0  0
   -5.9380   25.6640  -29.4910 O   0  0  0  0  0  0  0  0  0  0  0  0
   -8.4790   21.9980  -31.6120 C   0  0  0  0  0  0  0  0  0  0  0  0
   -8.3170   20.5960  -32.0230 N   0  0  0  0  0  0  0  0  0  0  0  0
   -7.3180   20.4790  -33.0910 C   0  0  0  0  0  0  0  0  0  0  0  0
   -5.9250   20.8640  -32.5820 C   0  0  0  0  0  0  0  0  0  0  0  0
   -1.9370   23.0010  -28.7720 C   0  0  0  0  0  0  0  0  0  0  0  0
   -2.2370   22.2410  -27.6350 C   0  0  0  0  0  0  0  0  0  0  0  0
   -1.6660   20.9780  -27.4610 C   0  0  0  0  0  0  0  0  0  0  0  0
   -0.8020   20.4470  -28.4340 C   0  0  0  0  0  0  0  0  0  0  0  0
   -0.1430   19.1070  -28.2220 C   0  0  0  0  0  0  0  0  0  0  0  0
   -0.8310   18.3700  -27.2730 F   0  0  0  0  0  0  0  0  0  0  0  0
   -0.1210   18.3800  -29.4000 F   0  0  0  0  0  0  0  0  0  0  0  0
    1.1540   19.3010  -27.7880 F   0  0  0  0  0  0  0  0  0  0  0  0
   -0.4870   21.2230  -29.5640 C   0  0  0  0  0  0  0  0  0  0  0  0
   -1.0600   22.4870  -29.7350 C   0  0  0  0  0  0  0  0  0  0  0  0
   -3.7968   22.3913  -31.8864 H   0  0  0  0  0  0  0  0  0  0  0  0
   -8.0920   24.2428  -30.1329 H   0  0  0  0  0  0  0  0  0  0  0  0
   -5.1200   25.9580  -28.9710 H   0  0  0  0  0  0  0  0  0  0  0  0
   -9.1271   22.0336  -30.7239 H   0  0  0  0  0  0  0  0  0  0  0  0
   -8.9229   22.5468  -32.4557 H   0  0  0  0  0  0  0  0  0  0  0  0
   -8.0040   20.0340  -31.1960 H   0  0  0  0  0  0  0  0  0  0  0  0
   -7.2954   19.4397  -33.4506 H   0  0  0  0  0  0  0  0  0  0  0  0
   -7.5949   21.1623  -33.9073 H   0  0  0  0  0  0  0  0  0  0  0  0
   -5.5480   20.0594  -31.9336 H   0  0  0  0  0  0  0  0  0  0  0  0
   -5.2705   21.0087  -33.4542 H   0  0  0  0  0  0  0  0  0  0  0  0
   -2.9253   22.6402  -26.8754 H   0  0  0  0  0  0  0  0  0  0  0  0
   -1.8941   20.3952  -26.5564 H   0  0  0  0  0  0  0  0  0  0  0  0
    0.2138   20.8335  -30.3171 H   0  0  0  0  0  0  0  0  0  0  0  0
   -0.8208   23.0802  -30.6299 H   0  0  0  0  0  0  0  0  0  0  0  0
  1  2  2  0
  2  3  2  0
  2  4  1  0
  4  5  1  0
  5  6  2  0
  6  7  1  0
  7  8  2  0
  8  9  1  0
  9 10  2  0
 10 11  1  0
  8 12  1  0
 12 13  1  0
 13 14  1  0
 14 15  1  0
  2 16  1  0
 16 17  2  0
 17 18  1  0
 18 19  2  0
 19 20  1  0
 20 21  1  0
 20 22  1  0
 20 23  1  0
 19 24  1  0
 24 25  2  0
 10  5  1  0
 25 16  1  0
 15  7  1  0
  6 26  1  0
  9 27  1  0
 11 28  1  0
 12 29  1  0
 12 30  1  0
 13 31  1  0
 14 32  1  0
 14 33  1  0
 15 34  1  0
 15 35  1  0
 17 36  1  0
 18 37  1  0
 24 38  1  0
 25 39  1  0
M  CHG  1   4  -1
M  END
>  <UniqueID>  (27) 
27

>  <SMILES>  (27) 
O=S(=O)([N-]c1cc2c(cc1O)CNCC2)c1ccc(C(F)(F)F)cc1

>  <Energy>  (27) 
45.66744389802108

>  <Genealogy>  (27) 
O=S(=O)([N-]c1cc2c(cc1O)CNCC2)c1ccc(C(F)(F)F)cc1 (protonated)
O=S(=O)([N-]c1cc2c(cc1O)CNCC2)c1ccc(C(F)(F)F)cc1 (3D coordinates assigned)
O=S(=O)([N-]c1cc2c(cc1O)CNCC2)c1ccc(C(F)(F)F)cc1 (nonaromatic ring conformer: 45.66744389802108 kcal/mol)

>  <smiles>  (27) 
O=S(=O)(Nc1cc2c(cc1O)CNCC2)c1ccc(C(F)(F)F)cc1

>  <score_type>  (27) 
oracle

>  <origin>  (27) 
adgpu

>  <m_score__min__energy>  (27) 
-11.039999999999999

>  <m_primary>  (27) 
energy

$$$$
27:0
     RDKit          3D

 43 46  0  0  0  0  0  0  0  0999 V2000
   -0.9690   25.1130  -28.9990 O   0  0  0  0  0  0  0  0  0  0  0  0
   -1.9700   24.4290  -29.3370 C   0  0  0  0  0  0  0  0  0  0  0  0
   -1.8630   23.0390  -29.4330 C   0  0  0  0  0  0  0  0  0  0  0  0
   -2.9830   22.2830  -29.8040 C   0  0  0  0  0  0  0  0  0  0  0  0
   -2.8550   20.7750  -29.8860 C   0  0  0  0  0  0  0  0  0  0  0  0
   -2.3880   20.2160  -28.6170 N   0  0  0  0  0  0  0  0  0  0  0  0
   -1.1680   19.7250  -28.3420 C   0  0  0  0  0  0  0  0  0  0  0  0
   -1.1390   19.3890  -27.0060 C   0  0  0  0  0  0  0  0  0  0  0  0
   -2.3290   19.6810  -26.4400 N   0  0  0  0  0  0  0  0  0  0  0  0
   -3.0630   20.1890  -27.4510 C   0  0  0  0  0  0  0  0  0  0  0  0
   -4.1920   22.9630  -30.0900 C   0  0  0  0  0  0  0  0  0  0  0  0
   -5.3660   22.2970  -30.4950 C   0  0  0  0  0  0  0  0  0  0  0  0
   -6.5410   23.0160  -30.7590 C   0  0  0  0  0  0  0  0  0  0  0  0
   -7.9950   22.1790  -31.2960 S   0  0  0  0  0  0  0  0  0  0  0  0
   -8.9240   21.9660  -30.1320 O   0  0  0  0  0  0  0  0  0  0  0  0
   -8.6940   23.0180  -32.3280 O   0  0  0  0  0  0  0  0  0  0  0  0
   -7.5770   20.6070  -31.9790 C   0  0  0  0  0  0  0  0  0  0  0  0
   -8.4570   19.5270  -31.8340 C   0  0  0  0  0  0  0  0  0  0  0  0
   -8.1080   18.2690  -32.3280 C   0  0  0  0  0  0  0  0  0  0  0  0
   -6.8730   18.0760  -32.9550 C   0  0  0  0  0  0  0  0  0  0  0  0
   -5.9660   19.1420  -33.0810 C   0  0  0  0  0  0  0  0  0  0  0  0
   -4.6470   18.9350  -33.7850 C   0  0  0  0  0  0  0  0  0  0  0  0
   -4.8550   18.4730  -35.0740 F   0  0  0  0  0  0  0  0  0  0  0  0
   -3.9670   20.1380  -33.8400 F   0  0  0  0  0  0  0  0  0  0  0  0
   -3.8660   18.0070  -33.1150 F   0  0  0  0  0  0  0  0  0  0  0  0
   -6.3370   20.4140  -32.6080 C   0  0  0  0  0  0  0  0  0  0  0  0
   -6.5470   24.4090  -30.6210 C   0  0  0  0  0  0  0  0  0  0  0  0
   -5.3910   25.0830  -30.2230 C   0  0  0  0  0  0  0  0  0  0  0  0
   -4.2140   24.3730  -29.9630 C   0  0  0  0  0  0  0  0  0  0  0  0
   -3.1220   25.0350  -29.5970 O   0  0  0  0  0  0  0  0  0  0  0  0
   -0.9057   22.5415  -29.2187 H   0  0  0  0  0  0  0  0  0  0  0  0
   -3.8374   20.3438  -30.1286 H   0  0  0  0  0  0  0  0  0  0  0  0
   -2.1209   20.5287  -30.6674 H   0  0  0  0  0  0  0  0  0  0  0  0
   -0.3394   19.6114  -29.0565 H   0  0  0  0  0  0  0  0  0  0  0  0
   -0.2778   18.9500  -26.4811 H   0  0  0  0  0  0  0  0  0  0  0  0
   -4.0984   20.5423  -27.3364 H   0  0  0  0  0  0  0  0  0  0  0  0
   -5.3608   21.2025  -30.6052 H   0  0  0  0  0  0  0  0  0  0  0  0
   -9.4243   19.6704  -31.3302 H   0  0  0  0  0  0  0  0  0  0  0  0
   -8.8071   17.4262  -32.2237 H   0  0  0  0  0  0  0  0  0  0  0  0
   -6.6101   17.0843  -33.3518 H   0  0  0  0  0  0  0  0  0  0  0  0
   -5.6499   21.2640  -32.7321 H   0  0  0  0  0  0  0  0  0  0  0  0
   -7.4672   24.9754  -30.8272 H   0  0  0  0  0  0  0  0  0  0  0  0
   -5.4057   26.1774  -30.1133 H   0  0  0  0  0  0  0  0  0  0  0  0
  1  2  2  0
  2  3  1  0
  3  4  2  0
  4  5  1  0
  5  6  1  0
  6  7  1  0
  7  8  2  0
  8  9  1  0
  9 10  2  0
  4 11  1  0
 11 12  2  0
 12 13  1  0
 13 14  1  0
 14 15  2  0
 14 16  2  0
 14 17  1  0
 17 18  2  0
 18 19  1  0
 19 20  2  0
 20 21  1  0
 21 22  1  0
 22 23  1  0
 22 24  1  0
 22 25  1  0
 21 26  2  0
 13 27  2  0
 27 28  1  0
 28 29  2  0
 29 30  1  0
 30  2  1  0
 10  6  1  0
 29 11  1  0
 26 17  1  0
  3 31  1  0
  5 32  1  0
  5 33  1  0
  7 34  1  0
  8 35  1  0
 10 36  1  0
 12 37  1  0
 18 38  1  0
 19 39  1  0
 20 40  1  0
 26 41  1  0
 27 42  1  0
 28 43  1  0
M  END
>  <UniqueID>  (28) 
28

>  <SMILES>  (28) 
O=c1cc(Cn2ccnc2)c2cc(S(=O)(=O)c3cccc(C(F)(F)F)c3)ccc2o1

>  <Energy>  (28) 
82.30936512599492

>  <Genealogy>  (28) 
O=c1cc(Cn2ccnc2)c2cc(S(=O)(=O)c3cccc(C(F)(F)F)c3)ccc2o1 (3D coordinates assigned)
O=c1cc(Cn2ccnc2)c2cc(S(=O)(=O)c3cccc(C(F)(F)F)c3)ccc2o1 (optimized conformer: 82.30936512599492 kcal/mol)

>  <smiles>  (28) 
O=c1cc(Cn2ccnc2)c2cc(S(=O)(=O)c3cccc(C(F)(F)F)c3)ccc2o1

>  <score_type>  (28) 
oracle

>  <origin>  (28) 
adgpu

>  <m_score__min__energy>  (28) 
-9.9700000000000006

>  <m_primary>  (28) 
energy

$$$$
28:0
     RDKit          3D

 62 66  0  0  0  0  0  0  0  0999 V2000
   -1.8760   24.8510  -27.9630 C   0  0  0  0  0  0  0  0  0  0  0  0
   -2.1140   25.2550  -29.3470 N   0  0  0  0  0  0  0  0  0  0  0  0
   -3.5650   24.5040  -29.9390 S   0  0  0  0  0  0  0  0  0  0  0  0
   -4.2730   25.4630  -30.8570 O   0  0  0  0  0  0  0  0  0  0  0  0
   -4.4820   24.1840  -28.7900 O   0  0  0  0  0  0  0  0  0  0  0  0
   -3.1770   23.0320  -30.8300 C   0  0  0  0  0  0  0  0  0  0  0  0
   -3.9030   22.6970  -31.9800 C   0  0  0  0  0  0  0  0  0  0  0  0
   -3.5880   21.5400  -32.6950 C   0  0  0  0  0  0  0  0  0  0  0  0
   -2.5500   20.7100  -32.2660 C   0  0  0  0  0  0  0  0  0  0  0  0
   -1.8200   21.0280  -31.1070 C   0  0  0  0  0  0  0  0  0  0  0  0
   -0.7080   20.1720  -30.6500 C   0  0  0  0  0  0  0  0  0  0  0  0
    0.1870   20.5440  -29.7020 N   0  0  0  0  0  0  0  0  0  0  0  0
    1.0550   19.5560  -29.5070 N   0  0  0  0  0  0  0  0  0  0  0  0
    0.7050   18.5500  -30.3270 C   0  0  0  0  0  0  0  0  0  0  0  0
    1.3090   17.3050  -30.4450 C   0  0  0  0  0  0  0  0  0  0  0  0
    0.7360   16.3810  -31.3370 C   0  0  0  0  0  0  0  0  0  0  0  0
   -0.4290   16.7020  -32.0770 C   0  0  0  0  0  0  0  0  0  0  0  0
   -0.9700   15.6860  -32.9390 N   0  0  0  0  0  0  0  0  0  0  0  0
   -2.1770   15.6850  -33.7140 C   0  0  0  0  0  0  0  0  0  0  0  0
   -2.8710   14.6410  -33.8390 O   0  0  0  0  0  0  0  0  0  0  0  0
   -2.5710   16.8880  -34.3850 N   0  0  0  0  0  0  0  0  0  0  0  0
   -3.7080   16.9430  -35.3030 C   0  0  0  0  0  0  0  0  0  0  0  0
   -4.9270   17.4670  -34.5930 C   0  0  0  0  0  0  0  0  0  0  0  0
   -5.7840   16.5810  -33.9190 C   0  0  0  0  0  0  0  0  0  0  0  0
   -6.8800   17.0680  -33.2020 C   0  0  0  0  0  0  0  0  0  0  0  0
   -7.1380   18.4440  -33.1560 C   0  0  0  0  0  0  0  0  0  0  0  0
   -8.4740   19.0670  -32.1960 S   0  0  0  0  0  0  0  0  0  0  0  0
   -9.7610   18.9380  -32.9620 O   0  0  0  0  0  0  0  0  0  0  0  0
   -8.6060   18.2770  -30.9250 O   0  0  0  0  0  0  0  0  0  0  0  0
   -8.1640   20.7610  -31.8280 C   0  0  0  0  0  0  0  0  0  0  0  0
   -9.0950   21.7410  -32.2030 C   0  0  0  0  0  0  0  0  0  0  0  0
   -8.8400   23.0890  -31.9420 C   0  0  0  0  0  0  0  0  0  0  0  0
   -7.6520   23.4670  -31.3100 C   0  0  0  0  0  0  0  0  0  0  0  0
   -6.7180   22.4950  -30.9390 C   0  0  0  0  0  0  0  0  0  0  0  0
   -6.9700   21.1440  -31.2000 C   0  0  0  0  0  0  0  0  0  0  0  0
   -6.2890   19.3310  -33.8340 C   0  0  0  0  0  0  0  0  0  0  0  0
   -5.1920   18.8450  -34.5490 C   0  0  0  0  0  0  0  0  0  0  0  0
   -1.0080   17.9910  -31.9370 C   0  0  0  0  0  0  0  0  0  0  0  0
   -0.3980   18.8880  -31.0580 C   0  0  0  0  0  0  0  0  0  0  0  0
   -2.1310   22.2010  -30.4030 C   0  0  0  0  0  0  0  0  0  0  0  0
   -2.3149   25.5959  -27.2829 H   0  0  0  0  0  0  0  0  0  0  0  0
   -2.3408   23.8706  -27.7821 H   0  0  0  0  0  0  0  0  0  0  0  0
   -0.7931   24.7824  -27.7821 H   0  0  0  0  0  0  0  0  0  0  0  0
   -4.7228   23.3467  -32.3204 H   0  0  0  0  0  0  0  0  0  0  0  0
   -4.1591   21.2814  -33.5989 H   0  0  0  0  0  0  0  0  0  0  0  0
   -2.3023   19.8033  -32.8374 H   0  0  0  0  0  0  0  0  0  0  0  0
    2.2053   17.0502  -29.8605 H   0  0  0  0  0  0  0  0  0  0  0  0
    1.2003   15.3917  -31.4624 H   0  0  0  0  0  0  0  0  0  0  0  0
   -2.0160   17.7580  -34.2220 H   0  0  0  0  0  0  0  0  0  0  0  0
   -3.4636   17.6086  -36.1440 H   0  0  0  0  0  0  0  0  0  0  0  0
   -3.9180   15.9290  -35.6740 H   0  0  0  0  0  0  0  0  0  0  0  0
   -5.5913   15.4986  -33.9559 H   0  0  0  0  0  0  0  0  0  0  0  0
   -7.5426   16.3682  -32.6717 H   0  0  0  0  0  0  0  0  0  0  0  0
  -10.0289   21.4467  -32.7042 H   0  0  0  0  0  0  0  0  0  0  0  0
   -9.5746   23.8539  -32.2340 H   0  0  0  0  0  0  0  0  0  0  0  0
   -7.4519   24.5290  -31.1046 H   0  0  0  0  0  0  0  0  0  0  0  0
   -5.7835   22.7931  -30.4411 H   0  0  0  0  0  0  0  0  0  0  0  0
   -6.2311   20.3815  -30.9125 H   0  0  0  0  0  0  0  0  0  0  0  0
   -6.4877   20.4125  -33.8025 H   0  0  0  0  0  0  0  0  0  0  0  0
   -4.5318   19.5460  -35.0807 H   0  0  0  0  0  0  0  0  0  0  0  0
   -1.9080   18.2737  -32.5028 H   0  0  0  0  0  0  0  0  0  0  0  0
   -1.5498   22.4711  -29.5090 H   0  0  0  0  0  0  0  0  0  0  0  0
  1  2  1  0
  2  3  1  0
  3  4  2  0
  3  5  2  0
  3  6  1  0
  6  7  2  0
  7  8  1  0
  8  9  2  0
  9 10  1  0
 10 11  1  0
 11 12  2  0
 12 13  1  0
 13 14  1  0
 14 15  2  0
 15 16  1  0
 16 17  2  0
 17 18  1  0
 18 19  1  0
 19 20  2  0
 19 21  1  0
 21 22  1  0
 22 23  1  0
 23 24  2  0
 24 25  1  0
 25 26  2  0
 26 27  1  0
 27 28  2  0
 27 29  2  0
 27 30  1  0
 30 31  2  0
 31 32  1  0
 32 33  2  0
 33 34  1  0
 34 35  2  0
 26 36  1  0
 36 37  2  0
 17 38  1  0
 38 39  2  0
 10 40  2  0
 40  6  1  0
 39 11  1  0
 39 14  1  0
 37 23  1  0
 35 30  1  0
  1 41  1  0
  1 42  1  0
  1 43  1  0
  7 44  1  0
  8 45  1  0
  9 46  1  0
 15 47  1  0
 16 48  1  0
 21 49  1  0
 22 50  1  0
 22 51  1  0
 24 52  1  0
 25 53  1  0
 31 54  1  0
 32 55  1  0
 33 56  1  0
 34 57  1  0
 35 58  1  0
 36 59  1  0
 37 60  1  0
 38 61  1  0
 40 62  1  0
M  CHG  3   2  -1  13  -1  18  -1
M  END
>  <UniqueID>  (29) 
29

>  <SMILES>  (29) 
C[N-]S(=O)(=O)c1cccc(-c2n[n-]c3ccc([N-]C(=O)NCc4ccc(S(=O)(=O)c5ccccc5)cc4)cc23)c1

>  <Energy>  (29) 
111.79187194751661

>  <Genealogy>  (29) 
C[N-]S(=O)(=O)c1cccc(-c2n[n-]c3ccc([N-]C(=O)NCc4ccc(S(=O)(=O)c5ccccc5)cc4)cc23)c1 (protonated)
C[N-]S(=O)(=O)c1cccc(-c2n[n-]c3ccc([N-]C(=O)NCc4ccc(S(=O)(=O)c5ccccc5)cc4)cc23)c1 (3D coordinates assigned)
C[N-]S(=O)(=O)c1cccc(-c2n[n-]c3ccc([N-]C(=O)NCc4ccc(S(=O)(=O)c5ccccc5)cc4)cc23)c1 (optimized conformer: 111.79187194751661 kcal/mol)

>  <smiles>  (29) 
CNS(=O)(=O)c1cccc(-c2n[nH]c3ccc(NC(=O)NCc4ccc(S(=O)(=O)c5ccccc5)cc4)cc23)c1

>  <score_type>  (29) 
oracle

>  <origin>  (29) 
adgpu

>  <m_score__min__energy>  (29) 
-14.039999999999999

>  <m_primary>  (29) 
energy

$$$$
29:0
     RDKit          3D

 91 94  0  0  0  0  0  0  0  0999 V2000
   -8.2160   18.6260  -31.3320 C   0  0  0  0  0  0  0  0  0  0  0  0
   -8.0300   19.8960  -32.5610 S   0  0  0  0  0  0  0  0  0  0  0  0
   -7.2350   19.3600  -33.7200 O   0  0  0  0  0  0  0  0  0  0  0  0
   -9.3910   20.3000  -33.0550 O   0  0  0  0  0  0  0  0  0  0  0  0
   -7.2030   21.2840  -31.8620 C   0  0  0  0  0  0  0  0  0  0  0  0
   -6.2290   21.9630  -32.6020 C   0  0  0  0  0  0  0  0  0  0  0  0
   -5.5770   23.0770  -32.0610 C   0  0  0  0  0  0  0  0  0  0  0  0
   -5.9010   23.5210  -30.7700 C   0  0  0  0  0  0  0  0  0  0  0  0
   -5.1100   24.9430  -30.0920 S   0  0  0  0  0  0  0  0  0  0  0  0
   -6.1370   25.9540  -29.6660 O   0  0  0  0  0  0  0  0  0  0  0  0
   -4.2410   25.5670  -31.1460 O   0  0  0  0  0  0  0  0  0  0  0  0
   -4.1190   24.5010  -28.7360 N   0  0  0  0  0  0  0  0  0  0  0  0
   -2.7230   24.8600  -28.9850 C   0  0  0  0  0  0  0  0  0  0  0  0
   -1.8620   23.5880  -29.0300 C   0  0  1  0  0  0  0  0  0  0  0  0
   -1.8450   22.8750  -27.6570 C   0  0  0  0  0  0  0  0  0  0  0  0
   -1.3300   21.4330  -27.7590 C   0  0  0  0  0  0  0  0  0  0  0  0
   -2.4410   20.4780  -28.2270 C   0  0  0  0  0  0  0  0  0  0  0  0
   -3.1740   19.9310  -27.0830 N   0  0  0  0  0  0  0  0  0  0  0  0
   -2.7540   18.9330  -26.3490 C   0  0  0  0  0  0  0  0  0  0  0  0
   -1.5340   18.2370  -26.6420 N   0  0  0  0  0  0  0  0  0  0  0  0
   -3.5240   18.5130  -25.2180 N   0  0  0  0  0  0  0  0  0  0  0  0
   -2.3910   22.6790  -30.0540 N   0  0  0  0  0  0  0  0  0  0  0  0
   -1.5430   21.8640  -30.8770 C   0  0  0  0  0  0  0  0  0  0  0  0
   -0.2930   22.0360  -30.8520 O   0  0  0  0  0  0  0  0  0  0  0  0
   -2.1020   20.7950  -31.7350 C   0  0  0  0  0  0  0  0  0  0  0  0
   -3.4930   20.5990  -31.7860 C   0  0  0  0  0  0  0  0  0  0  0  0
   -4.0390   19.5850  -32.5780 C   0  0  0  0  0  0  0  0  0  0  0  0
   -3.2060   18.7550  -33.3250 C   0  0  0  0  0  0  0  0  0  0  0  0
   -1.8190   18.9320  -33.2870 C   0  0  0  0  0  0  0  0  0  0  0  0
   -0.9570   17.9790  -34.0090 C   0  0  0  0  0  0  0  0  0  0  0  0
   -1.1430   17.8520  -35.2470 O   0  0  0  0  0  0  0  0  0  0  0  0
    0.0960   17.2220  -33.3590 N   0  0  0  0  0  0  0  0  0  0  0  0
    1.4350   17.0690  -33.9610 C   0  0  0  0  0  0  0  0  0  0  0  0
    2.2480   18.3740  -33.8550 C   0  0  0  0  0  0  0  0  0  0  0  0
    1.5880   19.4950  -34.6120 C   0  0  0  0  0  0  0  0  0  0  0  0
    1.4130   20.7600  -34.0180 C   0  0  0  0  0  0  0  0  0  0  0  0
    0.8250   21.7930  -34.7570 C   0  0  0  0  0  0  0  0  0  0  0  0
    0.4420   21.5630  -36.0800 C   0  0  0  0  0  0  0  0  0  0  0  0
    0.6420   20.2990  -36.6420 C   0  0  0  0  0  0  0  0  0  0  0  0
    1.2030   19.3030  -35.9050 N   0  0  0  0  0  0  0  0  0  0  0  0
   -0.1890   16.5450  -32.0820 C   0  0  0  0  0  0  0  0  0  0  0  0
    0.3880   17.3270  -30.9350 C   0  0  0  0  0  0  0  0  0  0  0  0
    1.0130   18.5650  -31.1670 C   0  0  0  0  0  0  0  0  0  0  0  0
    1.5040   19.3170  -30.0980 C   0  0  0  0  0  0  0  0  0  0  0  0
    1.3640   18.8490  -28.7890 C   0  0  0  0  0  0  0  0  0  0  0  0
    0.7380   17.6210  -28.5500 C   0  0  0  0  0  0  0  0  0  0  0  0
    0.5980   17.1550  -27.2490 O   0  0  0  0  0  0  0  0  0  0  0  0
    0.2570   16.8570  -29.6190 C   0  0  0  0  0  0  0  0  0  0  0  0
   -1.2660   19.9410  -32.4800 C   0  0  0  0  0  0  0  0  0  0  0  0
   -6.8550   22.8220  -30.0200 C   0  0  0  0  0  0  0  0  0  0  0  0
   -7.5020   21.7060  -30.5610 C   0  0  0  0  0  0  0  0  0  0  0  0
   -8.1504   19.0736  -30.3293 H   0  0  0  0  0  0  0  0  0  0  0  0
   -9.1950   18.1393  -31.4530 H   0  0  0  0  0  0  0  0  0  0  0  0
   -7.4177   17.8790  -31.4530 H   0  0  0  0  0  0  0  0  0  0  0  0
   -5.9741   21.6192  -33.6153 H   0  0  0  0  0  0  0  0  0  0  0  0
   -4.8106   23.6045  -32.6479 H   0  0  0  0  0  0  0  0  0  0  0  0
   -2.6470   25.3874  -29.9473 H   0  0  0  0  0  0  0  0  0  0  0  0
   -2.3650   25.5142  -28.1764 H   0  0  0  0  0  0  0  0  0  0  0  0
   -0.8295   23.8744  -29.2787 H   0  0  0  0  0  0  0  0  0  0  0  0
   -1.1912   23.4372  -26.9740 H   0  0  0  0  0  0  0  0  0  0  0  0
   -2.8786   22.8387  -27.2825 H   0  0  0  0  0  0  0  0  0  0  0  0
   -0.4999   21.3985  -28.4799 H   0  0  0  0  0  0  0  0  0  0  0  0
   -0.9917   21.1124  -26.7626 H   0  0  0  0  0  0  0  0  0  0  0  0
   -3.1405   21.0281  -28.8736 H   0  0  0  0  0  0  0  0  0  0  0  0
   -1.9805   19.6464  -28.7805 H   0  0  0  0  0  0  0  0  0  0  0  0
   -4.0620   20.4130  -26.8190 H   0  0  0  0  0  0  0  0  0  0  0  0
   -0.9490   18.4390  -27.4840 H   0  0  0  0  0  0  0  0  0  0  0  0
   -1.2540   17.4120  -26.0610 H   0  0  0  0  0  0  0  0  0  0  0  0
   -4.4960   18.8550  -25.0730 H   0  0  0  0  0  0  0  0  0  0  0  0
   -3.1620   17.7670  -24.5870 H   0  0  0  0  0  0  0  0  0  0  0  0
   -3.4140   22.4670  -30.0280 H   0  0  0  0  0  0  0  0  0  0  0  0
   -4.1573   21.2491  -31.1977 H   0  0  0  0  0  0  0  0  0  0  0  0
   -5.1291   19.4420  -32.6116 H   0  0  0  0  0  0  0  0  0  0  0  0
   -3.6403   17.9581  -33.9465 H   0  0  0  0  0  0  0  0  0  0  0  0
    1.9745   16.2669  -33.4361 H   0  0  0  0  0  0  0  0  0  0  0  0
    1.3113   16.8221  -35.0258 H   0  0  0  0  0  0  0  0  0  0  0  0
    2.3321   18.6583  -32.7957 H   0  0  0  0  0  0  0  0  0  0  0  0
    3.2421   18.1991  -34.2922 H   0  0  0  0  0  0  0  0  0  0  0  0
    1.7360   20.9348  -32.9811 H   0  0  0  0  0  0  0  0  0  0  0  0
    0.6655   22.7800  -34.2984 H   0  0  0  0  0  0  0  0  0  0  0  0
   -0.0129   22.3691  -36.6744 H   0  0  0  0  0  0  0  0  0  0  0  0
    0.3447   20.1091  -37.6839 H   0  0  0  0  0  0  0  0  0  0  0  0
   -1.2780   16.4602  -31.9517 H   0  0  0  0  0  0  0  0  0  0  0  0
    0.2683   15.5447  -32.0982 H   0  0  0  0  0  0  0  0  0  0  0  0
    1.1155   18.9426  -32.1950 H   0  0  0  0  0  0  0  0  0  0  0  0
    2.0019   20.2795  -30.2867 H   0  0  0  0  0  0  0  0  0  0  0  0
    1.7456   19.4455  -27.9472 H   0  0  0  0  0  0  0  0  0  0  0  0
   -0.2245   15.8866  -29.4277 H   0  0  0  0  0  0  0  0  0  0  0  0
   -0.1741   20.0644  -32.4300 H   0  0  0  0  0  0  0  0  0  0  0  0
   -7.0971   23.1526  -28.9992 H   0  0  0  0  0  0  0  0  0  0  0  0
   -8.2465   21.1594  -29.9636 H   0  0  0  0  0  0  0  0  0  0  0  0
  1  2  1  0
  2  3  2  0
  2  4  2  0
  2  5  1  0
  5  6  2  0
  6  7  1  0
  7  8  2  0
  8  9  1  0
  9 10  2  0
  9 11  2  0
  9 12  1  0
 12 13  1  0
 13 14  1  0
 14 15  1  0
 15 16  1  0
 16 17  1  0
 17 18  1  0
 18 19  2  3
 19 20  1  0
 19 21  1  0
 14 22  1  0
 22 23  1  0
 23 24  2  0
 23 25  1  0
 25 26  2  0
 26 27  1  0
 27 28  2  0
 28 29  1  0
 29 30  1  0
 30 31  2  0
 30 32  1  0
 32 33  1  0
 33 34  1  0
 34 35  1  0
 35 36  2  0
 36 37  1  0
 37 38  2  0
 38 39  1  0
 39 40  2  0
 32 41  1  0
 41 42  1  0
 42 43  2  0
 43 44  1  0
 44 45  2  0
 45 46  1  0
 46 47  1  0
 46 48  2  0
 29 49  2  0
  8 50  1  0
 50 51  2  0
 51  5  1  0
 49 25  1  0
 40 35  1  0
 48 42  1  0
  1 52  1  0
  1 53  1  0
  1 54  1  0
  6 55  1  0
  7 56  1  0
 13 57  1  0
 13 58  1  0
 14 59  1  6
 15 60  1  0
 15 61  1  0
 16 62  1  0
 16 63  1  0
 17 64  1  0
 17 65  1  0
 18 66  1  0
 20 67  1  0
 20 68  1  0
 21 69  1  0
 21 70  1  0
 22 71  1  0
 26 72  1  0
 27 73  1  0
 28 74  1  0
 33 75  1  0
 33 76  1  0
 34 77  1  0
 34 78  1  0
 36 79  1  0
 37 80  1  0
 38 81  1  0
 39 82  1  0
 41 83  1  0
 41 84  1  0
 43 85  1  0
 44 86  1  0
 45 87  1  0
 48 88  1  0
 49 89  1  0
 50 90  1  0
 51 91  1  0
M  CHG  3  12  -1  18   1  47  -1
M  END
>  <UniqueID>  (30) 
30

>  <SMILES>  (30) 
CS(=O)(=O)c1ccc(S(=O)(=O)[N-]C[C@@H](CCC[NH+]=C(N)N)NC(=O)c2cccc(C(=O)N(CCc3ccccn3)Cc3cccc([O-])c3)c2)cc1

>  <Energy>  (30) 
88.2065713273765

>  <Genealogy>  (30) 
CS(=O)(=O)c1ccc(S(=O)(=O)[N-]CC(CCC[NH+]=C(N)N)NC(=O)c2cccc(C(=O)N(CCc3ccccn3)Cc3cccc([O-])c3)c2)cc1 (protonated)
CS(=O)(=O)c1ccc(S(=O)(=O)[N-]C[C@@H](CCC[NH+]=C(N)N)NC(=O)c2cccc(C(=O)N(CCc3ccccn3)Cc3cccc([O-])c3)c2)cc1 (chirality)
CS(=O)(=O)c1ccc(S(=O)(=O)[N-]C[C@@H](CCC[NH+]=C(N)N)NC(=O)c2cccc(C(=O)N(CCc3ccccn3)Cc3cccc([O-])c3)c2)cc1 (3D coordinates assigned)
CS(=O)(=O)c1ccc(S(=O)(=O)[N-]C[C@@H](CCC[NH+]=C(N)N)NC(=O)c2cccc(C(=O)N(CCc3ccccn3)Cc3cccc([O-])c3)c2)cc1 (optimized conformer: 88.2065713273765 kcal/mol)

>  <smiles>  (30) 
CS(=O)(=O)c1ccc(S(=O)(=O)NCC(CCCN=C(N)N)NC(=O)c2cccc(C(=O)N(CCc3ccccn3)Cc3cccc(O)c3)c2)cc1

>  <score_type>  (30) 
oracle

>  <origin>  (30) 
adgpu

>  <m_score__min__energy>  (30) 
-14.49

>  <m_primary>  (30) 
energy

$$$$
30:0
     RDKit          3D

 60 63  0  0  0  0  0  0  0  0999 V2000
   -0.4930   23.9660  -24.7460 C   0  0  0  0  0  0  0  0  0  0  0  0
   -1.0720   24.0580  -26.1330 C   0  0  0  0  0  0  0  0  0  0  0  0
   -1.6170   22.8920  -26.6980 C   0  0  0  0  0  0  0  0  0  0  0  0
   -2.1690   22.9100  -27.9750 C   0  0  0  0  0  0  0  0  0  0  0  0
   -2.2070   24.0930  -28.7140 C   0  0  0  0  0  0  0  0  0  0  0  0
   -2.7710   24.0720  -30.0330 N   0  0  0  0  0  0  0  0  0  0  0  0
   -4.0890   23.5730  -30.3120 C   0  0  0  0  0  0  0  0  0  0  0  0
   -4.8650   23.2630  -29.3690 O   0  0  0  0  0  0  0  0  0  0  0  0
   -4.5570   23.4540  -31.6610 N   0  0  0  0  0  0  0  0  0  0  0  0
   -4.9430   22.2310  -32.3010 C   0  0  0  0  0  0  0  0  0  0  0  0
   -6.2990   21.8840  -32.3470 C   0  0  0  0  0  0  0  0  0  0  0  0
   -6.7030   20.6880  -32.9470 C   0  0  0  0  0  0  0  0  0  0  0  0
   -5.7520   19.8040  -33.4830 C   0  0  0  0  0  0  0  0  0  0  0  0
   -6.1900   18.5460  -34.1290 C   0  0  0  0  0  0  0  0  0  0  0  0
   -6.1290   18.4520  -35.3850 O   0  0  0  0  0  0  0  0  0  0  0  0
   -6.6820   17.4310  -33.3600 N   0  0  0  0  0  0  0  0  0  0  0  0
   -7.6910   17.6670  -32.3280 C   0  0  0  0  0  0  0  0  0  0  0  0
   -6.2250   16.0590  -33.6180 C   0  0  0  0  0  0  0  0  0  0  0  0
   -5.0480   15.6420  -32.7460 C   0  0  0  0  0  0  0  0  0  0  0  0
   -4.8280   15.9520  -34.2150 C   0  0  0  0  0  0  0  0  0  0  0  0
   -4.3920   20.1470  -33.4240 C   0  0  0  0  0  0  0  0  0  0  0  0
   -3.9890   21.3440  -32.8260 C   0  0  0  0  0  0  0  0  0  0  0  0
   -1.6380   25.2620  -28.1800 C   0  0  0  0  0  0  0  0  0  0  0  0
   -1.6120   26.4230  -28.9510 O   0  0  0  0  0  0  0  0  0  0  0  0
   -1.0710   25.2630  -26.8880 C   0  0  0  0  0  0  0  0  0  0  0  0
   -0.3870   26.7990  -26.2930 S   0  0  0  0  0  0  0  0  0  0  0  0
    0.1270   27.6760  -27.3990 O   0  0  0  0  0  0  0  0  0  0  0  0
   -1.4900   27.5420  -25.5900 O   0  0  0  0  0  0  0  0  0  0  0  0
    0.8990   26.4630  -25.1490 N   0  0  0  0  0  0  0  0  0  0  0  0
    2.1770   27.0660  -25.5650 C   0  0  0  0  0  0  0  0  0  0  0  0
    2.2250   28.5920  -25.3110 C   0  0  0  0  0  0  0  0  0  0  0  0
    1.1910   29.0530  -24.4610 O   0  0  0  0  0  0  0  0  0  0  0  0
    1.0730   28.2050  -23.3430 C   0  0  0  0  0  0  0  0  0  0  0  0
    0.5210   26.8310  -23.7670 C   0  0  0  0  0  0  0  0  0  0  0  0
   -1.2954   24.0935  -24.0045 H   0  0  0  0  0  0  0  0  0  0  0  0
   -0.0212   22.9816  -24.6102 H   0  0  0  0  0  0  0  0  0  0  0  0
    0.2606   24.7557  -24.6102 H   0  0  0  0  0  0  0  0  0  0  0  0
   -1.6070   21.9539  -26.1236 H   0  0  0  0  0  0  0  0  0  0  0  0
   -2.5787   21.9843  -28.4055 H   0  0  0  0  0  0  0  0  0  0  0  0
   -2.1400   24.3140  -30.8290 H   0  0  0  0  0  0  0  0  0  0  0  0
   -7.0507   22.5567  -31.9083 H   0  0  0  0  0  0  0  0  0  0  0  0
   -7.7728   20.4373  -32.9998 H   0  0  0  0  0  0  0  0  0  0  0  0
   -7.2314   17.5595  -31.3344 H   0  0  0  0  0  0  0  0  0  0  0  0
   -8.0957   18.6840  -32.4367 H   0  0  0  0  0  0  0  0  0  0  0  0
   -8.5048   16.9350  -32.4367 H   0  0  0  0  0  0  0  0  0  0  0  0
   -7.2090   15.6380  -33.8722 H   0  0  0  0  0  0  0  0  0  0  0  0
   -4.6643   16.3275  -31.9761 H   0  0  0  0  0  0  0  0  0  0  0  0
   -4.8309   14.7849  -32.0917 H   0  0  0  0  0  0  0  0  0  0  0  0
   -4.2849   16.8621  -34.5094 H   0  0  0  0  0  0  0  0  0  0  0  0
   -4.3855   15.4124  -35.0653 H   0  0  0  0  0  0  0  0  0  0  0  0
   -3.6385   19.4690  -33.8513 H   0  0  0  0  0  0  0  0  0  0  0  0
   -2.9192   21.5928  -32.7662 H   0  0  0  0  0  0  0  0  0  0  0  0
    2.9919   26.5890  -25.0008 H   0  0  0  0  0  0  0  0  0  0  0  0
    2.2850   26.9046  -26.6477 H   0  0  0  0  0  0  0  0  0  0  0  0
    3.1923   28.8383  -24.8488 H   0  0  0  0  0  0  0  0  0  0  0  0
    2.0910   29.0876  -26.2838 H   0  0  0  0  0  0  0  0  0  0  0  0
    2.0633   28.0715  -22.8832 H   0  0  0  0  0  0  0  0  0  0  0  0
    0.3794   28.6608  -22.6211 H   0  0  0  0  0  0  0  0  0  0  0  0
    0.9140   26.0671  -23.0799 H   0  0  0  0  0  0  0  0  0  0  0  0
   -0.5768   26.8888  -23.7282 H   0  0  0  0  0  0  0  0  0  0  0  0
  1  2  1  0
  2  3  2  0
  3  4  1  0
  4  5  2  0
  5  6  1  0
  6  7  1  0
  7  8  2  0
  7  9  1  0
  9 10  1  0
 10 11  2  0
 11 12  1  0
 12 13  2  0
 13 14  1  0
 14 15  2  0
 14 16  1  0
 16 17  1  0
 16 18  1  0
 18 19  1  0
 19 20  1  0
 13 21  1  0
 21 22  2  0
  5 23  1  0
 23 24  1  0
 23 25  2  0
 25 26  1  0
 26 27  2  0
 26 28  2  0
 26 29  1  0
 29 30  1  0
 30 31  1  0
 31 32  1  0
 32 33  1  0
 33 34  1  0
 25  2  1  0
 34 29  1  0
 22 10  1  0
 20 18  1  0
  1 35  1  0
  1 36  1  0
  1 37  1  0
  3 38  1  0
  4 39  1  0
  6 40  1  0
 11 41  1  0
 12 42  1  0
 17 43  1  0
 17 44  1  0
 17 45  1  0
 18 46  1  0
 19 47  1  0
 19 48  1  0
 20 49  1  0
 20 50  1  0
 21 51  1  0
 22 52  1  0
 30 53  1  0
 30 54  1  0
 31 55  1  0
 31 56  1  0
 33 57  1  0
 33 58  1  0
 34 59  1  0
 34 60  1  0
M  CHG  2   9  -1  24  -1
M  END
>  <UniqueID>  (31) 
31

>  <SMILES>  (31) 
Cc1ccc(NC(=O)[N-]c2ccc(C(=O)N(C)C3CC3)cc2)c([O-])c1S(=O)(=O)N1CCOCC1

>  <Energy>  (31) 
354.2219525334957

>  <Genealogy>  (31) 
Cc1ccc(NC(=O)[N-]c2ccc(C(=O)N(C)C3CC3)cc2)c([O-])c1S(=O)(=O)N1CCOCC1 (protonated)
Cc1ccc(NC(=O)[N-]c2ccc(C(=O)N(C)C3CC3)cc2)c([O-])c1S(=O)(=O)N1CCOCC1 (3D coordinates assigned)
Cc1ccc(NC(=O)[N-]c2ccc(C(=O)N(C)C3CC3)cc2)c([O-])c1S(=O)(=O)N1CCOCC1 (nonaromatic ring conformer: 354.2219525334957 kcal/mol)

>  <smiles>  (31) 
Cc1ccc(NC(=O)Nc2ccc(C(=O)N(C)C3CC3)cc2)c(O)c1S(=O)(=O)N1CCOCC1

>  <score_type>  (31) 
oracle

>  <origin>  (31) 
adgpu

>  <m_score__min__energy>  (31) 
-13.74

>  <m_primary>  (31) 
energy

$$$$
31:0
     RDKit          3D

 88 92  0  0  0  0  0  0  0  0999 V2000
   -7.5450   23.3550  -32.3230 C   0  0  0  0  0  0  0  0  0  0  0  0
   -8.2450   22.2490  -31.6290 N   0  0  0  0  0  0  0  0  0  0  0  0
   -7.8980   22.2320  -30.1870 C   0  0  0  0  0  0  0  0  0  0  0  0
   -7.9720   20.9450  -32.2800 C   0  0  0  0  0  0  0  0  0  0  0  0
   -9.1020   19.9420  -32.0400 C   0  0  0  0  0  0  0  0  0  0  0  0
   -8.5820   18.4970  -32.0330 C   0  0  0  0  0  0  0  0  0  0  0  0
   -7.1500   18.4840  -32.2800 N   0  0  0  0  0  0  0  0  0  0  0  0
   -6.2470   17.4980  -31.7570 C   0  0  0  0  0  0  0  0  0  0  0  0
   -6.1090   17.3830  -30.5070 O   0  0  0  0  0  0  0  0  0  0  0  0
   -5.5200   16.5980  -32.6610 C   0  0  0  0  0  0  0  0  0  0  0  0
   -5.0050   15.3670  -32.2960 C   0  0  0  0  0  0  0  0  0  0  0  0
   -4.4750   14.8390  -33.4600 C   0  0  0  0  0  0  0  0  0  0  0  0
   -3.7200   13.6380  -33.5980 N   0  0  0  0  0  0  0  0  0  0  0  0
   -2.3520   13.6020  -34.0060 C   0  0  0  0  0  0  0  0  0  0  0  0
   -1.8500   12.5660  -34.5220 O   0  0  0  0  0  0  0  0  0  0  0  0
   -1.5030   14.7590  -33.7160 C   0  0  0  0  0  0  0  0  0  0  0  0
   -1.1100   15.1200  -32.4370 C   0  0  0  0  0  0  0  0  0  0  0  0
   -0.6210   16.4090  -32.5590 C   0  0  0  0  0  0  0  0  0  0  0  0
   -0.3910   17.3520  -31.5090 N   0  0  0  0  0  0  0  0  0  0  0  0
    0.5350   17.1570  -30.4390 C   0  0  0  0  0  0  0  0  0  0  0  0
    1.1130   16.0460  -30.3310 O   0  0  0  0  0  0  0  0  0  0  0  0
    0.7790   18.1710  -29.4130 C   0  0  0  0  0  0  0  0  0  0  0  0
   -0.1740   18.6590  -28.5300 C   0  0  0  0  0  0  0  0  0  0  0  0
    0.4490   19.7130  -27.8900 C   0  0  0  0  0  0  0  0  0  0  0  0
   -0.1420   20.5180  -26.8710 N   0  0  0  0  0  0  0  0  0  0  0  0
   -1.3120   21.2950  -27.1500 C   0  0  0  0  0  0  0  0  0  0  0  0
   -2.4610   20.8160  -26.9170 O   0  0  0  0  0  0  0  0  0  0  0  0
   -1.1790   22.6250  -27.7770 C   0  0  0  0  0  0  0  0  0  0  0  0
   -2.1950   23.1470  -28.5840 C   0  0  0  0  0  0  0  0  0  0  0  0
   -2.0810   24.4320  -29.1310 C   0  0  0  0  0  0  0  0  0  0  0  0
   -3.1620   24.9280  -29.9440 N   0  0  0  0  0  0  0  0  0  0  0  0
   -4.5960   24.0580  -30.4250 S   0  0  0  0  0  0  0  0  0  0  0  0
   -5.5770   23.8680  -29.2860 O   0  0  0  0  0  0  0  0  0  0  0  0
   -5.2870   24.8500  -31.4970 O   0  0  0  0  0  0  0  0  0  0  0  0
   -4.1260   22.4960  -31.0600 C   0  0  0  0  0  0  0  0  0  0  0  0
   -4.0020   21.3230  -30.3390 C   0  0  0  0  0  0  0  0  0  0  0  0
   -3.6170   20.3680  -31.2590 C   0  0  0  0  0  0  0  0  0  0  0  0
   -3.4790   20.9220  -32.4780 N   0  0  0  0  0  0  0  0  0  0  0  0
   -3.0960   20.2290  -33.7000 C   0  0  0  0  0  0  0  0  0  0  0  0
   -3.8340   22.2170  -32.3780 C   0  0  0  0  0  0  0  0  0  0  0  0
   -0.8840   25.1370  -28.9540 C   0  0  0  0  0  0  0  0  0  0  0  0
    0.1030   24.6140  -28.1840 N   0  0  0  0  0  0  0  0  0  0  0  0
   -0.0210   23.4050  -27.5920 C   0  0  0  0  0  0  0  0  0  0  0  0
    0.9380   22.9670  -26.8870 O   0  0  0  0  0  0  0  0  0  0  0  0
    1.7370   19.8280  -28.3760 C   0  0  0  0  0  0  0  0  0  0  0  0
    1.9390   18.8600  -29.2960 N   0  0  0  0  0  0  0  0  0  0  0  0
    3.1540   18.6980  -30.0970 C   0  0  0  0  0  0  0  0  0  0  0  0
   -0.6700   16.7660  -33.8940 C   0  0  0  0  0  0  0  0  0  0  0  0
   -1.2140   15.7490  -34.5950 N   0  0  0  0  0  0  0  0  0  0  0  0
   -1.5380   15.7730  -36.0180 C   0  0  0  0  0  0  0  0  0  0  0  0
   -4.6750   15.7590  -34.4710 C   0  0  0  0  0  0  0  0  0  0  0  0
   -5.3140   16.8360  -33.9740 N   0  0  0  0  0  0  0  0  0  0  0  0
   -5.7340   18.0150  -34.7200 C   0  0  0  0  0  0  0  0  0  0  0  0
   -7.1119   24.0392  -31.5785 H   0  0  0  0  0  0  0  0  0  0  0  0
   -6.7427   22.9432  -32.9529 H   0  0  0  0  0  0  0  0  0  0  0  0
   -8.2606   23.9038  -32.9529 H   0  0  0  0  0  0  0  0  0  0  0  0
   -8.8193   22.2771  -29.5876 H   0  0  0  0  0  0  0  0  0  0  0  0
   -7.3527   21.3061  -29.9520 H   0  0  0  0  0  0  0  0  0  0  0  0
   -7.2648   23.1002  -29.9520 H   0  0  0  0  0  0  0  0  0  0  0  0
   -7.8612   21.1040  -33.3628 H   0  0  0  0  0  0  0  0  0  0  0  0
   -7.0502   20.5320  -31.8444 H   0  0  0  0  0  0  0  0  0  0  0  0
   -9.5706   20.1576  -31.0685 H   0  0  0  0  0  0  0  0  0  0  0  0
   -9.8307   20.0419  -32.8579 H   0  0  0  0  0  0  0  0  0  0  0  0
   -8.7870   18.0406  -31.0534 H   0  0  0  0  0  0  0  0  0  0  0  0
   -9.0905   17.9260  -32.8238 H   0  0  0  0  0  0  0  0  0  0  0  0
   -5.0147   14.9074  -31.2967 H   0  0  0  0  0  0  0  0  0  0  0  0
   -1.1731   14.5128  -31.5219 H   0  0  0  0  0  0  0  0  0  0  0  0
   -1.1981   18.2888  -28.3743 H   0  0  0  0  0  0  0  0  0  0  0  0
   -3.0912   22.5437  -28.7911 H   0  0  0  0  0  0  0  0  0  0  0  0
   -4.1735   21.1807  -29.2618 H   0  0  0  0  0  0  0  0  0  0  0  0
   -3.4473   19.3059  -31.0286 H   0  0  0  0  0  0  0  0  0  0  0  0
   -2.5786   19.2927  -33.4438 H   0  0  0  0  0  0  0  0  0  0  0  0
   -3.9961   20.0009  -34.2897 H   0  0  0  0  0  0  0  0  0  0  0  0
   -2.4240   20.8698  -34.2897 H   0  0  0  0  0  0  0  0  0  0  0  0
   -3.8829   22.9341  -33.2107 H   0  0  0  0  0  0  0  0  0  0  0  0
   -0.7441   26.1143  -29.4390 H   0  0  0  0  0  0  0  0  0  0  0  0
    2.4751   20.5822  -28.0655 H   0  0  0  0  0  0  0  0  0  0  0  0
    4.0206   18.5825  -29.4294 H   0  0  0  0  0  0  0  0  0  0  0  0
    3.0584   17.8047  -30.7317 H   0  0  0  0  0  0  0  0  0  0  0  0
    3.2958   19.5852  -30.7317 H   0  0  0  0  0  0  0  0  0  0  0  0
   -0.3229   17.7211  -34.3151 H   0  0  0  0  0  0  0  0  0  0  0  0
   -2.6277   15.8537  -36.1446 H   0  0  0  0  0  0  0  0  0  0  0  0
   -1.0489   16.6374  -36.4909 H   0  0  0  0  0  0  0  0  0  0  0  0
   -1.1816   14.8460  -36.4909 H   0  0  0  0  0  0  0  0  0  0  0  0
   -4.3616   15.6321  -35.5178 H   0  0  0  0  0  0  0  0  0  0  0  0
   -6.0179   18.8119  -34.0169 H   0  0  0  0  0  0  0  0  0  0  0  0
   -4.9045   18.3630  -35.3532 H   0  0  0  0  0  0  0  0  0  0  0  0
   -6.5967   17.7602  -35.3532 H   0  0  0  0  0  0  0  0  0  0  0  0
  1  2  1  0
  2  3  1  0
  2  4  1  0
  4  5  1  0
  5  6  1  0
  6  7  1  0
  7  8  1  0
  8  9  2  0
  8 10  1  0
 10 11  2  0
 11 12  1  0
 12 13  1  0
 13 14  1  0
 14 15  2  0
 14 16  1  0
 16 17  2  0
 17 18  1  0
 18 19  1  0
 19 20  1  0
 20 21  2  0
 20 22  1  0
 22 23  2  0
 23 24  1  0
 24 25  1  0
 25 26  1  0
 26 27  2  0
 26 28  1  0
 28 29  2  0
 29 30  1  0
 30 31  1  0
 31 32  1  0
 32 33  2  0
 32 34  2  0
 32 35  1  0
 35 36  1  0
 36 37  2  0
 37 38  1  0
 38 39  1  0
 38 40  1  0
 30 41  2  0
 41 42  1  0
 42 43  1  0
 43 44  2  0
 24 45  2  0
 45 46  1  0
 46 47  1  0
 18 48  2  0
 48 49  1  0
 49 50  1  0
 12 51  2  0
 51 52  1  0
 52 53  1  0
 52 10  1  0
 49 16  1  0
 46 22  1  0
 43 28  1  0
 40 35  2  0
  1 54  1  0
  1 55  1  0
  1 56  1  0
  3 57  1  0
  3 58  1  0
  3 59  1  0
  4 60  1  0
  4 61  1  0
  5 62  1  0
  5 63  1  0
  6 64  1  0
  6 65  1  0
 11 66  1  0
 17 67  1  0
 23 68  1  0
 29 69  1  0
 36 70  1  0
 37 71  1  0
 39 72  1  0
 39 73  1  0
 39 74  1  0
 40 75  1  0
 41 76  1  0
 45 77  1  0
 47 78  1  0
 47 79  1  0
 47 80  1  0
 48 81  1  0
 50 82  1  0
 50 83  1  0
 50 84  1  0
 51 85  1  0
 53 86  1  0
 53 87  1  0
 53 88  1  0
M  CHG  6   7  -1  13  -1  19  -1  25  -1  31  -1  42  -1
M  END
>  <UniqueID>  (32) 
32

>  <SMILES>  (32) 
CN(C)CCC[N-]C(=O)c1cc([N-]C(=O)c2cc([N-]C(=O)c3cc([N-]C(=O)c4cc([N-]S(=O)(=O)c5ccn(C)c5)c[n-]c4=O)cn3C)cn2C)cn1C

>  <Energy>  (32) 
257.5037193947131

>  <Genealogy>  (32) 
CN(C)CCC[N-]C(=O)c1cc([N-]C(=O)c2cc([N-]C(=O)c3cc([N-]C(=O)c4cc([N-]S(=O)(=O)c5ccn(C)c5)c[n-]c4=O)cn3C)cn2C)cn1C (protonated)
CN(C)CCC[N-]C(=O)c1cc([N-]C(=O)c2cc([N-]C(=O)c3cc([N-]C(=O)c4cc([N-]S(=O)(=O)c5ccn(C)c5)c[n-]c4=O)cn3C)cn2C)cn1C (3D coordinates assigned)
CN(C)CCC[N-]C(=O)c1cc([N-]C(=O)c2cc([N-]C(=O)c3cc([N-]C(=O)c4cc([N-]S(=O)(=O)c5ccn(C)c5)c[n-]c4=O)cn3C)cn2C)cn1C (optimized conformer: 257.5037193947131 kcal/mol)

>  <smiles>  (32) 
CN(C)CCCNC(=O)c1cc(NC(=O)c2cc(NC(=O)c3cc(NC(=O)c4cc(NS(=O)(=O)c5ccn(C)c5)c[nH]c4=O)cn3C)cn2C)cn1C

>  <score_type>  (32) 
oracle

>  <origin>  (32) 
adgpu

>  <m_score__min__energy>  (32) 
-13.949999999999999

>  <m_primary>  (32) 
energy

$$$$
32:0
     RDKit          3D

 35 38  0  0  0  0  0  0  0  0999 V2000
    0.4830   25.5180  -27.8590 O   0  0  0  0  0  0  0  0  0  0  0  0
   -0.5550   24.9480  -28.2840 C   0  0  0  0  0  0  0  0  0  0  0  0
   -1.6090   25.6280  -28.9690 N   0  0  0  0  0  0  0  0  0  0  0  0
   -2.5460   24.5840  -29.2470 C   0  0  0  0  0  0  0  0  0  0  0  0
   -3.7610   24.7320  -29.9140 C   0  0  0  0  0  0  0  0  0  0  0  0
   -4.5640   23.5900  -30.1100 C   0  0  0  0  0  0  0  0  0  0  0  0
   -6.0920   23.7140  -30.9780 S   0  0  0  0  0  0  0  0  0  0  0  0
   -6.4810   25.1520  -31.1720 O   0  0  0  0  0  0  0  0  0  0  0  0
   -7.1580   23.0230  -30.1750 O   0  0  0  0  0  0  0  0  0  0  0  0
   -5.9520   22.9470  -32.5280 N   0  0  0  0  0  0  0  0  0  0  0  0
   -5.7660   21.5280  -32.6950 C   0  0  0  0  0  0  0  0  0  0  0  0
   -4.5050   20.9970  -33.0280 C   0  0  0  0  0  0  0  0  0  0  0  0
   -4.3260   19.6180  -33.1760 C   0  0  0  0  0  0  0  0  0  0  0  0
   -2.7430   18.9810  -33.5790 Cl  0  0  0  0  0  0  0  0  0  0  0  0
   -5.4040   18.7470  -33.0050 C   0  0  0  0  0  0  0  0  0  0  0  0
   -6.6700   19.2530  -32.6870 C   0  0  0  0  0  0  0  0  0  0  0  0
   -7.7660   18.3960  -32.5120 C   0  0  0  0  0  0  0  0  0  0  0  0
   -9.0160   18.9250  -32.1880 C   0  0  0  0  0  0  0  0  0  0  0  0
   -9.1600   20.3050  -32.0400 C   0  0  0  0  0  0  0  0  0  0  0  0
   -8.0910   21.1260  -32.2120 N   0  0  0  0  0  0  0  0  0  0  0  0
   -6.8550   20.6480  -32.5320 C   0  0  0  0  0  0  0  0  0  0  0  0
   -4.1360   22.3310  -29.6300 C   0  0  0  0  0  0  0  0  0  0  0  0
   -2.9080   22.2020  -28.9610 C   0  0  0  0  0  0  0  0  0  0  0  0
   -2.1360   23.3480  -28.7850 C   0  0  0  0  0  0  0  0  0  0  0  0
   -0.8480   23.5290  -28.1510 C   0  0  0  0  0  0  0  0  0  0  0  0
   -0.1330   22.6490  -27.6040 O   0  0  0  0  0  0  0  0  0  0  0  0
   -4.0859   25.7175  -30.2791 H   0  0  0  0  0  0  0  0  0  0  0  0
   -6.1310   23.5470  -33.3640 H   0  0  0  0  0  0  0  0  0  0  0  0
   -3.6509   21.6748  -33.1734 H   0  0  0  0  0  0  0  0  0  0  0  0
   -5.2584   17.6628  -33.1202 H   0  0  0  0  0  0  0  0  0  0  0  0
   -7.6408   17.3095  -32.6298 H   0  0  0  0  0  0  0  0  0  0  0  0
   -9.8809   18.2594  -32.0504 H   0  0  0  0  0  0  0  0  0  0  0  0
  -10.1418   20.7295  -31.7833 H   0  0  0  0  0  0  0  0  0  0  0  0
   -4.7701   21.4451  -29.7818 H   0  0  0  0  0  0  0  0  0  0  0  0
   -2.5661   21.2255  -28.5873 H   0  0  0  0  0  0  0  0  0  0  0  0
  1  2  2  0
  2  3  1  0
  3  4  1  0
  4  5  2  0
  5  6  1  0
  6  7  1  0
  7  8  2  0
  7  9  2  0
  7 10  1  0
 10 11  1  0
 11 12  2  0
 12 13  1  0
 13 14  1  0
 13 15  2  0
 15 16  1  0
 16 17  2  0
 17 18  1  0
 18 19  2  0
 19 20  1  0
 20 21  2  0
  6 22  2  0
 22 23  1  0
 23 24  2  0
 24 25  1  0
 25 26  2  0
 25  2  1  0
 24  4  1  0
 21 11  1  0
 21 16  1  0
  5 27  1  0
 10 28  1  0
 12 29  1  0
 15 30  1  0
 17 31  1  0
 18 32  1  0
 19 33  1  0
 22 34  1  0
 23 35  1  0
M  CHG  1   3  -1
M  END
>  <UniqueID>  (33) 
33

>  <SMILES>  (33) 
O=C1[N-]c2cc(S(=O)(=O)Nc3cc(Cl)cc4cccnc34)ccc2C1=O

>  <Energy>  (33) 
76.88077549138809

>  <Genealogy>  (33) 
O=C1[N-]c2cc(S(=O)(=O)Nc3cc(Cl)cc4cccnc34)ccc2C1=O (protonated)
O=C1[N-]c2cc(S(=O)(=O)Nc3cc(Cl)cc4cccnc34)ccc2C1=O (3D coordinates assigned)
O=C1[N-]c2cc(S(=O)(=O)Nc3cc(Cl)cc4cccnc34)ccc2C1=O (nonaromatic ring conformer: 76.88077549138809 kcal/mol)

>  <smiles>  (33) 
O=C1Nc2cc(S(=O)(=O)Nc3cc(Cl)cc4cccnc34)ccc2C1=O

>  <score_type>  (33) 
oracle

>  <origin>  (33) 
adgpu

>  <m_score__min__energy>  (33) 
-11.4

>  <m_primary>  (33) 
energy

$$$$
33:0
     RDKit          3D

 45 48  0  0  0  0  0  0  0  0999 V2000
   -0.4780   19.0690  -28.9720 C   0  0  0  0  0  0  0  0  0  0  0  0
   -0.2860   19.7400  -27.6750 N   0  0  0  0  0  0  0  0  0  0  0  0
   -1.3820   19.4670  -26.7250 C   0  0  0  0  0  0  0  0  0  0  0  0
   -2.7230   20.0500  -27.1950 C   0  0  0  0  0  0  0  0  0  0  0  0
   -2.5830   21.4480  -27.7380 C   0  0  0  0  0  0  0  0  0  0  0  0
   -3.7380   22.2120  -27.9580 C   0  0  0  0  0  0  0  0  0  0  0  0
   -3.6530   23.5110  -28.4920 C   0  0  0  0  0  0  0  0  0  0  0  0
   -4.8310   24.3170  -28.6830 N   0  0  0  0  0  0  0  0  0  0  0  0
   -5.4560   24.7320  -30.2490 S   0  0  0  0  0  0  0  0  0  0  0  0
   -6.5920   25.7020  -30.0900 O   0  0  0  0  0  0  0  0  0  0  0  0
   -4.3650   25.3790  -31.0560 O   0  0  0  0  0  0  0  0  0  0  0  0
   -6.0550   23.2870  -31.0580 C   0  0  0  0  0  0  0  0  0  0  0  0
   -5.1570   22.3700  -31.6430 C   0  0  0  0  0  0  0  0  0  0  0  0
   -5.6290   21.1940  -32.2520 C   0  0  0  0  0  0  0  0  0  0  0  0
   -7.0090   20.9460  -32.2680 C   0  0  0  0  0  0  0  0  0  0  0  0
   -7.8820   21.8620  -31.6950 C   0  0  0  0  0  0  0  0  0  0  0  0
   -7.4380   23.0340  -31.0900 C   0  0  0  0  0  0  0  0  0  0  0  0
   -9.4620   21.3100  -31.8510 S   0  0  0  0  0  0  0  0  0  0  0  0
   -8.9640   19.9110  -32.6560 C   0  0  0  0  0  0  0  0  0  0  0  0
   -9.7570   19.0240  -33.0660 O   0  0  0  0  0  0  0  0  0  0  0  0
   -7.6140   19.8490  -32.8110 N   0  0  0  0  0  0  0  0  0  0  0  0
   -6.9030   18.7480  -33.4670 C   0  0  0  0  0  0  0  0  0  0  0  0
   -2.3910   24.0220  -28.8420 C   0  0  0  0  0  0  0  0  0  0  0  0
   -2.2690   25.3000  -29.3740 O   0  0  0  0  0  0  0  0  0  0  0  0
   -1.2400   23.2550  -28.6440 C   0  0  0  0  0  0  0  0  0  0  0  0
   -1.3260   21.9640  -28.1050 C   0  0  0  0  0  0  0  0  0  0  0  0
   -0.0560   21.1900  -27.8300 C   0  0  0  0  0  0  0  0  0  0  0  0
   -0.7770   18.0239  -28.8034 H   0  0  0  0  0  0  0  0  0  0  0  0
   -1.2637   19.5880  -29.5406 H   0  0  0  0  0  0  0  0  0  0  0  0
    0.4633   19.0939  -29.5406 H   0  0  0  0  0  0  0  0  0  0  0  0
   -1.4899   18.3780  -26.6136 H   0  0  0  0  0  0  0  0  0  0  0  0
   -1.1245   19.9464  -25.7690 H   0  0  0  0  0  0  0  0  0  0  0  0
   -3.1316   19.4033  -27.9855 H   0  0  0  0  0  0  0  0  0  0  0  0
   -3.3930   20.0943  -26.3237 H   0  0  0  0  0  0  0  0  0  0  0  0
   -4.7232   21.7904  -27.7099 H   0  0  0  0  0  0  0  0  0  0  0  0
   -5.4230   24.5670  -27.8610 H   0  0  0  0  0  0  0  0  0  0  0  0
   -4.0768   22.5770  -31.6225 H   0  0  0  0  0  0  0  0  0  0  0  0
   -4.9273   20.4803  -32.7084 H   0  0  0  0  0  0  0  0  0  0  0  0
   -8.1513   23.7450  -30.6477 H   0  0  0  0  0  0  0  0  0  0  0  0
   -6.4733   18.0826  -32.7037 H   0  0  0  0  0  0  0  0  0  0  0  0
   -7.6055   18.1803  -34.0948 H   0  0  0  0  0  0  0  0  0  0  0  0
   -6.0965   19.1548  -34.0948 H   0  0  0  0  0  0  0  0  0  0  0  0
   -0.2569   23.6683  -28.9137 H   0  0  0  0  0  0  0  0  0  0  0  0
    0.6386   21.3470  -28.6683 H   0  0  0  0  0  0  0  0  0  0  0  0
    0.3562   21.5611  -26.8800 H   0  0  0  0  0  0  0  0  0  0  0  0
  1  2  1  0
  2  3  1  0
  3  4  1  0
  4  5  1  0
  5  6  2  0
  6  7  1  0
  7  8  1  0
  8  9  1  0
  9 10  2  0
  9 11  2  0
  9 12  1  0
 12 13  2  0
 13 14  1  0
 14 15  2  0
 15 16  1  0
 16 17  2  0
 16 18  1  0
 18 19  1  0
 19 20  2  0
 19 21  1  0
 21 22  1  0
  7 23  2  0
 23 24  1  0
 23 25  1  0
 25 26  2  0
 26 27  1  0
 27  2  1  0
 26  5  1  0
 17 12  1  0
 21 15  1  0
  1 28  1  0
  1 29  1  0
  1 30  1  0
  3 31  1  0
  3 32  1  0
  4 33  1  0
  4 34  1  0
  6 35  1  0
  8 36  1  0
 13 37  1  0
 14 38  1  0
 17 39  1  0
 22 40  1  0
 22 41  1  0
 22 42  1  0
 25 43  1  0
 27 44  1  0
 27 45  1  0
M  CHG  1  24  -1
M  END
>  <UniqueID>  (34) 
34

>  <SMILES>  (34) 
CN1CCc2cc(NS(=O)(=O)c3ccc4c(c3)sc(=O)n4C)c([O-])cc2C1

>  <Energy>  (34) 
92.80044389737355

>  <Genealogy>  (34) 
CN1CCc2cc(NS(=O)(=O)c3ccc4c(c3)sc(=O)n4C)c([O-])cc2C1 (protonated)
CN1CCc2cc(NS(=O)(=O)c3ccc4c(c3)sc(=O)n4C)c([O-])cc2C1 (3D coordinates assigned)
CN1CCc2cc(NS(=O)(=O)c3ccc4c(c3)sc(=O)n4C)c([O-])cc2C1 (nonaromatic ring conformer: 92.80044389737355 kcal/mol)

>  <smiles>  (34) 
CN1CCc2cc(NS(=O)(=O)c3ccc4c(c3)sc(=O)n4C)c(O)cc2C1

>  <score_type>  (34) 
oracle

>  <origin>  (34) 
adgpu

>  <m_score__min__energy>  (34) 
-14.109999999999999

>  <m_primary>  (34) 
energy

$$$$
34:0
     RDKit          3D

 58 61  0  0  0  0  0  0  0  0999 V2000
    1.0110   21.3630  -34.3100 C   0  0  0  0  0  0  0  0  0  0  0  0
    0.3860   20.2500  -33.6750 O   0  0  0  0  0  0  0  0  0  0  0  0
   -0.0180   19.0780  -34.3340 C   0  0  0  0  0  0  0  0  0  0  0  0
    0.8480   18.3950  -35.2130 C   0  0  0  0  0  0  0  0  0  0  0  0
    0.4290   17.2360  -35.8680 C   0  0  0  0  0  0  0  0  0  0  0  0
   -0.8620   16.7500  -35.6710 C   0  0  0  0  0  0  0  0  0  0  0  0
   -1.7350   17.4170  -34.8120 C   0  0  0  0  0  0  0  0  0  0  0  0
   -1.3230   18.5730  -34.1180 C   0  0  0  0  0  0  0  0  0  0  0  0
   -2.3070   19.2920  -33.2030 C   0  0  0  0  0  0  0  0  0  0  0  0
   -2.3020   20.8060  -33.5090 C   0  0  0  0  0  0  0  0  0  0  0  0
   -3.3730   21.5410  -32.6910 C   0  0  0  0  0  0  0  0  0  0  0  0
   -4.6810   20.8630  -32.7640 N   0  0  0  0  0  0  0  0  0  0  0  0
   -5.7420   21.2310  -31.8530 C   0  0  0  0  0  0  0  0  0  0  0  0
   -6.5850   20.3650  -31.4880 O   0  0  0  0  0  0  0  0  0  0  0  0
   -5.8580   22.6010  -31.3100 C   0  0  0  0  0  0  0  0  0  0  0  0
   -7.1090   23.1550  -31.0360 C   0  0  0  0  0  0  0  0  0  0  0  0
   -7.2000   24.4250  -30.4680 C   0  0  0  0  0  0  0  0  0  0  0  0
   -6.0540   25.1680  -30.1590 C   0  0  0  0  0  0  0  0  0  0  0  0
   -6.2770   26.4200  -29.5890 O   0  0  0  0  0  0  0  0  0  0  0  0
   -4.7690   24.6050  -30.4160 C   0  0  0  0  0  0  0  0  0  0  0  0
   -3.4980   25.1820  -30.0580 N   0  0  0  0  0  0  0  0  0  0  0  0
   -2.2370   24.6490  -28.9860 S   0  0  0  0  0  0  0  0  0  0  0  0
   -2.6410   24.9060  -27.5600 O   0  0  0  0  0  0  0  0  0  0  0  0
   -1.0000   25.4540  -29.2760 O   0  0  0  0  0  0  0  0  0  0  0  0
   -1.8550   22.9480  -29.2480 C   0  0  0  0  0  0  0  0  0  0  0  0
   -2.5190   21.9580  -28.5100 C   0  0  0  0  0  0  0  0  0  0  0  0
   -2.2220   20.6080  -28.7210 C   0  0  0  0  0  0  0  0  0  0  0  0
   -1.2560   20.2420  -29.6630 C   0  0  0  0  0  0  0  0  0  0  0  0
   -0.5840   21.2260  -30.3930 C   0  0  0  0  0  0  0  0  0  0  0  0
   -0.8820   22.5770  -30.1870 C   0  0  0  0  0  0  0  0  0  0  0  0
   -4.7010   23.3200  -30.9750 C   0  0  0  0  0  0  0  0  0  0  0  0
   -4.8190   19.6740  -33.6150 C   0  0  0  0  0  0  0  0  0  0  0  0
   -3.7300   18.6580  -33.2600 C   0  0  0  0  0  0  0  0  0  0  0  0
    1.3979   22.0520  -33.5448 H   0  0  0  0  0  0  0  0  0  0  0  0
    1.8418   21.0081  -34.9376 H   0  0  0  0  0  0  0  0  0  0  0  0
    0.2755   21.8876  -34.9376 H   0  0  0  0  0  0  0  0  0  0  0  0
    1.8642   18.7798  -35.3841 H   0  0  0  0  0  0  0  0  0  0  0  0
    1.1189   16.7054  -36.5407 H   0  0  0  0  0  0  0  0  0  0  0  0
   -1.1926   15.8400  -36.1932 H   0  0  0  0  0  0  0  0  0  0  0  0
   -2.7578   17.0364  -34.6742 H   0  0  0  0  0  0  0  0  0  0  0  0
   -1.9777   19.1651  -32.1611 H   0  0  0  0  0  0  0  0  0  0  0  0
   -1.3136   21.2192  -33.2596 H   0  0  0  0  0  0  0  0  0  0  0  0
   -2.5225   20.9462  -34.5775 H   0  0  0  0  0  0  0  0  0  0  0  0
   -3.0518   21.5822  -31.6398 H   0  0  0  0  0  0  0  0  0  0  0  0
   -3.4885   22.5516  -33.1097 H   0  0  0  0  0  0  0  0  0  0  0  0
   -8.0236   22.5896  -31.2682 H   0  0  0  0  0  0  0  0  0  0  0  0
   -8.1919   24.8519  -30.2584 H   0  0  0  0  0  0  0  0  0  0  0  0
   -5.7710   26.8000  -28.8160 H   0  0  0  0  0  0  0  0  0  0  0  0
   -3.2749   22.2438  -27.7637 H   0  0  0  0  0  0  0  0  0  0  0  0
   -2.7491   19.8330  -28.1451 H   0  0  0  0  0  0  0  0  0  0  0  0
   -1.0249   19.1795  -29.8295 H   0  0  0  0  0  0  0  0  0  0  0  0
    0.1799   20.9379  -31.1302 H   0  0  0  0  0  0  0  0  0  0  0  0
   -0.3520   23.3500  -30.7628 H   0  0  0  0  0  0  0  0  0  0  0  0
   -3.7159   22.8650  -31.1551 H   0  0  0  0  0  0  0  0  0  0  0  0
   -5.8084   19.2213  -33.4536 H   0  0  0  0  0  0  0  0  0  0  0  0
   -4.7152   19.9665  -34.6703 H   0  0  0  0  0  0  0  0  0  0  0  0
   -3.9612   18.2246  -32.2758 H   0  0  0  0  0  0  0  0  0  0  0  0
   -3.7202   17.8934  -34.0508 H   0  0  0  0  0  0  0  0  0  0  0  0
  1  2  1  0
  2  3  1  0
  3  4  2  0
  4  5  1  0
  5  6  2  0
  6  7  1  0
  7  8  2  0
  8  9  1  0
  9 10  1  0
 10 11  1  0
 11 12  1  0
 12 13  1  0
 13 14  2  0
 13 15  1  0
 15 16  2  0
 16 17  1  0
 17 18  2  0
 18 19  1  0
 18 20  1  0
 20 21  1  0
 21 22  1  0
 22 23  2  0
 22 24  2  0
 22 25  1  0
 25 26  2  0
 26 27  1  0
 27 28  2  0
 28 29  1  0
 29 30  2  0
 20 31  2  0
 12 32  1  0
 32 33  1  0
  8  3  1  0
 33  9  1  0
 31 15  1  0
 30 25  1  0
  1 34  1  0
  1 35  1  0
  1 36  1  0
  4 37  1  0
  5 38  1  0
  6 39  1  0
  7 40  1  0
  9 41  1  0
 10 42  1  0
 10 43  1  0
 11 44  1  0
 11 45  1  0
 16 46  1  0
 17 47  1  0
 19 48  1  0
 26 49  1  0
 27 50  1  0
 28 51  1  0
 29 52  1  0
 30 53  1  0
 31 54  1  0
 32 55  1  0
 32 56  1  0
 33 57  1  0
 33 58  1  0
M  CHG  1  21  -1
M  END
>  <UniqueID>  (35) 
35

>  <SMILES>  (35) 
COc1ccccc1C1CCN(C(=O)c2ccc(O)c([N-]S(=O)(=O)c3ccccc3)c2)CC1

>  <Energy>  (35) 
87.08409370482987

>  <Genealogy>  (35) 
COc1ccccc1C1CCN(C(=O)c2ccc(O)c([N-]S(=O)(=O)c3ccccc3)c2)CC1 (protonated)
COc1ccccc1C1CCN(C(=O)c2ccc(O)c([N-]S(=O)(=O)c3ccccc3)c2)CC1 (3D coordinates assigned)
COc1ccccc1C1CCN(C(=O)c2ccc(O)c([N-]S(=O)(=O)c3ccccc3)c2)CC1 (nonaromatic ring conformer: 87.08409370482987 kcal/mol)

>  <smiles>  (35) 
COc1ccccc1C1CCN(C(=O)c2ccc(O)c(NS(=O)(=O)c3ccccc3)c2)CC1

>  <score_type>  (35) 
oracle

>  <origin>  (35) 
adgpu

>  <m_score__min__energy>  (35) 
-11.16

>  <m_primary>  (35) 
energy

$$$$
35:0
     RDKit          3D

 68 72  0  0  0  0  0  0  0  0999 V2000
   -7.3190   23.6280  -32.2320 C   0  0  0  0  0  0  0  0  0  0  0  0
   -6.6580   22.5020  -31.5660 N   0  0  0  0  0  0  0  0  0  0  0  0
   -5.4430   22.7240  -30.7880 C   0  0  0  0  0  0  0  0  0  0  0  0
   -5.2490   24.2110  -30.4740 C   0  0  0  0  0  0  0  0  0  0  0  0
   -3.9630   24.6400  -30.8390 O   0  0  0  0  0  0  0  0  0  0  0  0
   -7.2470   21.1910  -31.6220 C   0  0  0  0  0  0  0  0  0  0  0  0
   -8.3320   20.9590  -31.0270 O   0  0  0  0  0  0  0  0  0  0  0  0
   -6.5680   20.0930  -32.3260 C   0  0  0  0  0  0  0  0  0  0  0  0
   -6.5320   20.0750  -33.7270 C   0  0  0  0  0  0  0  0  0  0  0  0
   -5.9050   19.0270  -34.4010 C   0  0  0  0  0  0  0  0  0  0  0  0
   -5.3060   17.9820  -33.6870 C   0  0  0  0  0  0  0  0  0  0  0  0
   -4.5810   16.9710  -34.3910 N   0  0  0  0  0  0  0  0  0  0  0  0
   -3.1970   16.6740  -34.1500 C   0  0  0  0  0  0  0  0  0  0  0  0
   -2.8140   15.4780  -34.1800 O   0  0  0  0  0  0  0  0  0  0  0  0
   -2.2270   17.7180  -33.9660 N   0  0  0  0  0  0  0  0  0  0  0  0
   -2.3900   19.0450  -34.5610 C   0  0  0  0  0  0  0  0  0  0  0  0
   -2.2090   19.9500  -33.4050 C   0  0  0  0  0  0  0  0  0  0  0  0
   -2.6690   21.2560  -33.2550 C   0  0  0  0  0  0  0  0  0  0  0  0
   -2.5540   21.8660  -31.9960 C   0  0  0  0  0  0  0  0  0  0  0  0
   -2.0070   21.1560  -30.9030 C   0  0  0  0  0  0  0  0  0  0  0  0
   -1.9280   21.9260  -29.3210 S   0  0  0  0  0  0  0  0  0  0  0  0
   -1.5530   20.9170  -28.2750 O   0  0  0  0  0  0  0  0  0  0  0  0
   -3.2680   22.5060  -28.9660 O   0  0  0  0  0  0  0  0  0  0  0  0
   -0.7140   23.1550  -29.3720 N   0  0  0  0  0  0  0  0  0  0  0  0
   -0.4860   24.0470  -28.2850 C   0  0  0  0  0  0  0  0  0  0  0  0
    0.3980   23.7060  -27.2480 C   0  0  0  0  0  0  0  0  0  0  0  0
    0.6280   24.5980  -26.1910 C   0  0  0  0  0  0  0  0  0  0  0  0
   -0.0710   25.8240  -26.1430 C   0  0  0  0  0  0  0  0  0  0  0  0
   -0.9330   26.1690  -27.2000 C   0  0  0  0  0  0  0  0  0  0  0  0
   -1.1310   25.2900  -28.2720 C   0  0  0  0  0  0  0  0  0  0  0  0
   -1.9750   25.6560  -29.3100 O   0  0  0  0  0  0  0  0  0  0  0  0
    0.2080   26.8380  -25.0540 C   0  0  0  0  0  0  0  0  0  0  0  0
    0.9330   26.2690  -23.9040 N   0  0  0  0  0  0  0  0  0  0  0  0
    2.0760   25.4560  -24.3530 C   0  0  0  0  0  0  0  0  0  0  0  0
    1.5670   24.2110  -25.0800 C   0  0  0  0  0  0  0  0  0  0  0  0
   -1.5450   19.8330  -31.0860 C   0  0  0  0  0  0  0  0  0  0  0  0
   -1.6620   19.2580  -32.3530 C   0  0  0  0  0  0  0  0  0  0  0  0
   -1.4640   17.8370  -32.7200 C   0  0  0  0  0  0  0  0  0  0  0  0
   -5.3950   17.9670  -32.2840 C   0  0  0  0  0  0  0  0  0  0  0  0
   -6.0300   19.0120  -31.6060 C   0  0  0  0  0  0  0  0  0  0  0  0
   -7.7229   24.3161  -31.4748 H   0  0  0  0  0  0  0  0  0  0  0  0
   -6.5905   24.1612  -32.8605 H   0  0  0  0  0  0  0  0  0  0  0  0
   -8.1396   23.2518  -32.8605 H   0  0  0  0  0  0  0  0  0  0  0  0
   -5.5146   22.1644  -29.8437 H   0  0  0  0  0  0  0  0  0  0  0  0
   -4.5828   22.3783  -31.3800 H   0  0  0  0  0  0  0  0  0  0  0  0
   -5.9950   24.7964  -31.0315 H   0  0  0  0  0  0  0  0  0  0  0  0
   -5.3729   24.3590  -29.3911 H   0  0  0  0  0  0  0  0  0  0  0  0
   -3.3430   24.2450  -30.1760 H   0  0  0  0  0  0  0  0  0  0  0  0
   -7.0002   20.8907  -34.2974 H   0  0  0  0  0  0  0  0  0  0  0  0
   -5.8810   19.0215  -35.5007 H   0  0  0  0  0  0  0  0  0  0  0  0
   -1.6269   19.2297  -35.3315 H   0  0  0  0  0  0  0  0  0  0  0  0
   -3.3565   19.1774  -35.0692 H   0  0  0  0  0  0  0  0  0  0  0  0
   -3.1124   21.7972  -34.1039 H   0  0  0  0  0  0  0  0  0  0  0  0
   -2.8919   22.9038  -31.8590 H   0  0  0  0  0  0  0  0  0  0  0  0
    0.9126   22.7339  -27.2653 H   0  0  0  0  0  0  0  0  0  0  0  0
   -1.4556   27.1368  -27.1842 H   0  0  0  0  0  0  0  0  0  0  0  0
    0.8125   27.6520  -25.4806 H   0  0  0  0  0  0  0  0  0  0  0  0
   -0.7638   27.1961  -24.6835 H   0  0  0  0  0  0  0  0  0  0  0  0
    0.2800   25.6610  -23.3420 H   0  0  0  0  0  0  0  0  0  0  0  0
    2.7008   26.0493  -25.0369 H   0  0  0  0  0  0  0  0  0  0  0  0
    2.6719   25.1508  -23.4802 H   0  0  0  0  0  0  0  0  0  0  0  0
    2.4222   23.6634  -25.5028 H   0  0  0  0  0  0  0  0  0  0  0  0
    1.0275   23.5751  -24.3627 H   0  0  0  0  0  0  0  0  0  0  0  0
   -1.1039   19.2698  -30.2504 H   0  0  0  0  0  0  0  0  0  0  0  0
   -0.3994   17.6140  -32.8837 H   0  0  0  0  0  0  0  0  0  0  0  0
   -1.7902   17.1344  -31.9390 H   0  0  0  0  0  0  0  0  0  0  0  0
   -4.9630   17.1292  -31.7170 H   0  0  0  0  0  0  0  0  0  0  0  0
   -6.1086   18.9883  -30.5091 H   0  0  0  0  0  0  0  0  0  0  0  0
  1  2  1  0
  2  3  1  0
  3  4  1  0
  4  5  1  0
  2  6  1  0
  6  7  2  0
  6  8  1  0
  8  9  2  0
  9 10  1  0
 10 11  2  0
 11 12  1  0
 12 13  1  0
 13 14  2  0
 13 15  1  0
 15 16  1  0
 16 17  1  0
 17 18  2  0
 18 19  1  0
 19 20  2  0
 20 21  1  0
 21 22  2  0
 21 23  2  0
 21 24  1  0
 24 25  1  0
 25 26  2  0
 26 27  1  0
 27 28  2  0
 28 29  1  0
 29 30  2  0
 30 31  1  0
 28 32  1  0
 32 33  1  0
 33 34  1  0
 34 35  1  0
 20 36  1  0
 36 37  2  0
 37 38  1  0
 11 39  1  0
 39 40  2  0
 40  8  1  0
 38 15  1  0
 37 17  1  0
 30 25  1  0
 35 27  1  0
  1 41  1  0
  1 42  1  0
  1 43  1  0
  3 44  1  0
  3 45  1  0
  4 46  1  0
  4 47  1  0
  5 48  1  0
  9 49  1  0
 10 50  1  0
 16 51  1  0
 16 52  1  0
 18 53  1  0
 19 54  1  0
 26 55  1  0
 29 56  1  0
 32 57  1  0
 32 58  1  0
 33 59  1  0
 34 60  1  0
 34 61  1  0
 35 62  1  0
 35 63  1  0
 36 64  1  0
 38 65  1  0
 38 66  1  0
 39 67  1  0
 40 68  1  0
M  CHG  3  12  -1  24  -1  31  -1
M  END
>  <UniqueID>  (36) 
36

>  <SMILES>  (36) 
CN(CCO)C(=O)c1ccc([N-]C(=O)N2Cc3ccc(S(=O)(=O)[N-]c4cc5c(cc4[O-])CNCC5)cc3C2)cc1

>  <Energy>  (36) 
115.89145965619905

>  <Genealogy>  (36) 
CN(CCO)C(=O)c1ccc([N-]C(=O)N2Cc3ccc(S(=O)(=O)[N-]c4cc5c(cc4[O-])CNCC5)cc3C2)cc1 (protonated)
CN(CCO)C(=O)c1ccc([N-]C(=O)N2Cc3ccc(S(=O)(=O)[N-]c4cc5c(cc4[O-])CNCC5)cc3C2)cc1 (3D coordinates assigned)
CN(CCO)C(=O)c1ccc([N-]C(=O)N2Cc3ccc(S(=O)(=O)[N-]c4cc5c(cc4[O-])CNCC5)cc3C2)cc1 (nonaromatic ring conformer: 115.89145965619905 kcal/mol)

>  <smiles>  (36) 
CN(CCO)C(=O)c1ccc(NC(=O)N2Cc3ccc(S(=O)(=O)Nc4cc5c(cc4O)CNCC5)cc3C2)cc1

>  <score_type>  (36) 
oracle

>  <origin>  (36) 
adgpu

>  <m_score__min__energy>  (36) 
-15.720000000000001

>  <m_primary>  (36) 
energy

$$$$
36:0
     RDKit          3D

 44 46  0  0  0  0  0  0  0  0999 V2000
   -2.1920   24.3870  -29.0090 O   0  0  0  0  0  0  0  0  0  0  0  0
   -3.0040   23.1230  -29.0300 S   0  0  0  0  0  0  0  0  0  0  0  0
   -3.5110   22.8690  -27.6370 O   0  0  0  0  0  0  0  0  0  0  0  0
   -1.9850   21.8100  -29.5370 N   0  0  0  0  0  0  0  0  0  0  0  0
   -1.4020   22.1090  -30.8410 C   0  0  0  0  0  0  0  0  0  0  0  0
   -1.9920   21.1940  -31.8610 C   0  0  0  0  0  0  0  0  0  0  0  0
   -2.8860   21.5590  -32.8600 C   0  0  0  0  0  0  0  0  0  0  0  0
   -3.2090   20.5030  -33.7210 C   0  0  0  0  0  0  0  0  0  0  0  0
   -2.5620   19.3130  -33.4110 C   0  0  0  0  0  0  0  0  0  0  0  0
   -1.5840   19.5760  -32.0680 S   0  0  0  0  0  0  0  0  0  0  0  0
   -4.3510   23.3250  -30.1570 C   0  0  0  0  0  0  0  0  0  0  0  0
   -5.1580   22.2180  -30.4590 C   0  0  0  0  0  0  0  0  0  0  0  0
   -6.2430   22.3460  -31.3360 C   0  0  0  0  0  0  0  0  0  0  0  0
   -7.2240   20.9330  -31.7220 S   0  0  0  0  0  0  0  0  0  0  0  0
   -8.2590   21.2920  -32.7530 O   0  0  0  0  0  0  0  0  0  0  0  0
   -7.9270   20.4800  -30.4730 O   0  0  0  0  0  0  0  0  0  0  0  0
   -6.2050   19.6470  -32.3230 N   0  0  0  0  0  0  0  0  0  0  0  0
   -6.3520   19.5340  -33.7920 C   0  0  0  0  0  0  0  0  0  0  0  0
   -5.8630   18.1760  -34.3030 C   0  0  0  0  0  0  0  0  0  0  0  0
   -6.6980   17.0280  -33.7070 C   0  0  0  0  0  0  0  0  0  0  0  0
   -7.3280   17.3920  -32.3530 C   0  0  0  0  0  0  0  0  0  0  0  0
   -6.4480   18.3850  -31.5800 C   0  0  0  0  0  0  0  0  0  0  0  0
   -6.5180   23.5880  -31.9210 C   0  0  0  0  0  0  0  0  0  0  0  0
   -5.7250   24.6960  -31.6180 C   0  0  0  0  0  0  0  0  0  0  0  0
   -4.6470   24.5730  -30.7350 C   0  0  0  0  0  0  0  0  0  0  0  0
   -3.8840   25.6980  -30.4380 O   0  0  0  0  0  0  0  0  0  0  0  0
   -1.6208   23.1525  -31.1118 H   0  0  0  0  0  0  0  0  0  0  0  0
   -0.3121   21.9660  -30.8012 H   0  0  0  0  0  0  0  0  0  0  0  0
   -3.2979   22.5737  -32.9639 H   0  0  0  0  0  0  0  0  0  0  0  0
   -3.9089   20.6058  -34.5633 H   0  0  0  0  0  0  0  0  0  0  0  0
   -2.6708   18.3613  -33.9517 H   0  0  0  0  0  0  0  0  0  0  0  0
   -4.9371   21.2414  -30.0035 H   0  0  0  0  0  0  0  0  0  0  0  0
   -7.4134   19.6536  -34.0551 H   0  0  0  0  0  0  0  0  0  0  0  0
   -5.7409   20.3192  -34.2610 H   0  0  0  0  0  0  0  0  0  0  0  0
   -5.9495   18.1520  -35.3993 H   0  0  0  0  0  0  0  0  0  0  0  0
   -4.8152   18.0429  -33.9957 H   0  0  0  0  0  0  0  0  0  0  0  0
   -7.5029   16.7754  -34.4129 H   0  0  0  0  0  0  0  0  0  0  0  0
   -6.0209   16.1774  -33.5398 H   0  0  0  0  0  0  0  0  0  0  0  0
   -8.3144   17.8467  -32.5269 H   0  0  0  0  0  0  0  0  0  0  0  0
   -7.4242   16.4735  -31.7554 H   0  0  0  0  0  0  0  0  0  0  0  0
   -6.9459   18.6283  -30.6298 H   0  0  0  0  0  0  0  0  0  0  0  0
   -5.4715   17.9040  -31.4213 H   0  0  0  0  0  0  0  0  0  0  0  0
   -7.3606   23.6908  -32.6207 H   0  0  0  0  0  0  0  0  0  0  0  0
   -5.9489   25.6708  -32.0759 H   0  0  0  0  0  0  0  0  0  0  0  0
  1  2  2  0
  2  3  2  0
  2  4  1  0
  4  5  1  0
  5  6  1  0
  6  7  2  0
  7  8  1  0
  8  9  2  0
  9 10  1  0
  2 11  1  0
 11 12  2  0
 12 13  1  0
 13 14  1  0
 14 15  2  0
 14 16  2  0
 14 17  1  0
 17 18  1  0
 18 19  1  0
 19 20  1  0
 20 21  1  0
 21 22  1  0
 13 23  2  0
 23 24  1  0
 24 25  2  0
 25 26  1  0
 10  6  1  0
 25 11  1  0
 22 17  1  0
  5 27  1  0
  5 28  1  0
  7 29  1  0
  8 30  1  0
  9 31  1  0
 12 32  1  0
 18 33  1  0
 18 34  1  0
 19 35  1  0
 19 36  1  0
 20 37  1  0
 20 38  1  0
 21 39  1  0
 21 40  1  0
 22 41  1  0
 22 42  1  0
 23 43  1  0
 24 44  1  0
M  CHG  2   4  -1  26  -1
M  END
>  <UniqueID>  (37) 
37

>  <SMILES>  (37) 
O=S(=O)([N-]Cc1cccs1)c1cc(S(=O)(=O)N2CCCCC2)ccc1[O-]

>  <Energy>  (37) 
73.99772772521509

>  <Genealogy>  (37) 
O=S(=O)([N-]Cc1cccs1)c1cc(S(=O)(=O)N2CCCCC2)ccc1[O-] (protonated)
O=S(=O)([N-]Cc1cccs1)c1cc(S(=O)(=O)N2CCCCC2)ccc1[O-] (3D coordinates assigned)
O=S(=O)([N-]Cc1cccs1)c1cc(S(=O)(=O)N2CCCCC2)ccc1[O-] (nonaromatic ring conformer: 73.99772772521509 kcal/mol)

>  <smiles>  (37) 
O=S(=O)(NCc1cccs1)c1cc(S(=O)(=O)N2CCCCC2)ccc1O

>  <score_type>  (37) 
oracle

>  <origin>  (37) 
adgpu

>  <m_score__min__energy>  (37) 
-12.68

>  <m_primary>  (37) 
energy

$$$$
37:0
     RDKit          3D

 39 41  0  0  0  0  0  0  0  0999 V2000
   -5.2250   20.3120  -32.4900 C   0  0  0  0  0  0  0  0  0  0  0  0
   -6.6170   20.8300  -32.2400 C   0  0  0  0  0  0  0  0  0  0  0  0
   -7.7150   20.0140  -32.5710 C   0  0  0  0  0  0  0  0  0  0  0  0
   -9.0200   20.4610  -32.3640 C   0  0  0  0  0  0  0  0  0  0  0  0
   -9.2480   21.7280  -31.8300 C   0  0  0  0  0  0  0  0  0  0  0  0
   -8.1710   22.5560  -31.5080 C   0  0  0  0  0  0  0  0  0  0  0  0
   -6.8500   22.1260  -31.7140 C   0  0  0  0  0  0  0  0  0  0  0  0
   -5.5170   23.2150  -31.2930 S   0  0  0  0  0  0  0  0  0  0  0  0
   -4.4200   23.0450  -32.3060 O   0  0  0  0  0  0  0  0  0  0  0  0
   -6.0120   24.6330  -31.2870 O   0  0  0  0  0  0  0  0  0  0  0  0
   -4.9100   22.8210  -29.7160 N   0  0  0  0  0  0  0  0  0  0  0  0
   -3.6690   23.2340  -29.1200 C   0  0  0  0  0  0  0  0  0  0  0  0
   -3.1450   22.4250  -28.1030 C   0  0  0  0  0  0  0  0  0  0  0  0
   -1.9380   22.7490  -27.4680 C   0  0  0  0  0  0  0  0  0  0  0  0
   -1.2230   23.8910  -27.8770 C   0  0  0  0  0  0  0  0  0  0  0  0
   -1.7570   24.7210  -28.8700 C   0  0  0  0  0  0  0  0  0  0  0  0
   -2.9740   24.4070  -29.4930 C   0  0  0  0  0  0  0  0  0  0  0  0
   -3.4830   25.2740  -30.4560 O   0  0  0  0  0  0  0  0  0  0  0  0
    0.0560   24.2920  -27.1770 C   0  0  0  0  0  0  0  0  0  0  0  0
    0.6960   23.1610  -26.4910 N   0  0  0  0  0  0  0  0  0  0  0  0
   -0.2600   22.4790  -25.6110 C   0  0  0  0  0  0  0  0  0  0  0  0
   -1.3780   21.8170  -26.4250 C   0  0  0  0  0  0  0  0  0  0  0  0
   -4.7248   20.1259  -31.5282 H   0  0  0  0  0  0  0  0  0  0  0  0
   -5.2800   19.3742  -33.0622 H   0  0  0  0  0  0  0  0  0  0  0  0
   -4.6535   21.0577  -33.0622 H   0  0  0  0  0  0  0  0  0  0  0  0
   -7.5424   19.0146  -32.9968 H   0  0  0  0  0  0  0  0  0  0  0  0
   -9.8702   19.8127  -32.6225 H   0  0  0  0  0  0  0  0  0  0  0  0
  -10.2779   22.0761  -31.6620 H   0  0  0  0  0  0  0  0  0  0  0  0
   -8.3590   23.5554  -31.0887 H   0  0  0  0  0  0  0  0  0  0  0  0
   -3.6903   21.5198  -27.7976 H   0  0  0  0  0  0  0  0  0  0  0  0
   -1.2150   25.6314  -29.1656 H   0  0  0  0  0  0  0  0  0  0  0  0
   -3.8620   24.9360  -31.3340 H   0  0  0  0  0  0  0  0  0  0  0  0
    0.7563   24.6947  -27.9236 H   0  0  0  0  0  0  0  0  0  0  0  0
   -0.1989   25.0452  -26.4170 H   0  0  0  0  0  0  0  0  0  0  0  0
    1.0470   22.4830  -27.2070 H   0  0  0  0  0  0  0  0  0  0  0  0
    0.2698   21.7074  -25.0331 H   0  0  0  0  0  0  0  0  0  0  0  0
   -0.7097   23.2232  -24.9372 H   0  0  0  0  0  0  0  0  0  0  0  0
   -0.9737   20.9246  -26.9252 H   0  0  0  0  0  0  0  0  0  0  0  0
   -2.1910   21.5489  -25.7342 H   0  0  0  0  0  0  0  0  0  0  0  0
  1  2  1  0
  2  3  2  0
  3  4  1  0
  4  5  2  0
  5  6  1  0
  6  7  2  0
  7  8  1  0
  8  9  2  0
  8 10  2  0
  8 11  1  0
 11 12  1  0
 12 13  2  0
 13 14  1  0
 14 15  2  0
 15 16  1  0
 16 17  2  0
 17 18  1  0
 15 19  1  0
 19 20  1  0
 20 21  1  0
 21 22  1  0
  7  2  1  0
 17 12  1  0
 22 14  1  0
  1 23  1  0
  1 24  1  0
  1 25  1  0
  3 26  1  0
  4 27  1  0
  5 28  1  0
  6 29  1  0
 13 30  1  0
 16 31  1  0
 18 32  1  0
 19 33  1  0
 19 34  1  0
 20 35  1  0
 21 36  1  0
 21 37  1  0
 22 38  1  0
 22 39  1  0
M  CHG  1  11  -1
M  END
>  <UniqueID>  (38) 
38

>  <SMILES>  (38) 
Cc1ccccc1S(=O)(=O)[N-]c1cc2c(cc1O)CNCC2

>  <Energy>  (38) 
51.27954660745478

>  <Genealogy>  (38) 
Cc1ccccc1S(=O)(=O)[N-]c1cc2c(cc1O)CNCC2 (protonated)
Cc1ccccc1S(=O)(=O)[N-]c1cc2c(cc1O)CNCC2 (3D coordinates assigned)
Cc1ccccc1S(=O)(=O)[N-]c1cc2c(cc1O)CNCC2 (nonaromatic ring conformer: 51.27954660745478 kcal/mol)

>  <smiles>  (38) 
Cc1ccccc1S(=O)(=O)Nc1cc2c(cc1O)CNCC2

>  <score_type>  (38) 
oracle

>  <origin>  (38) 
adgpu

>  <m_score__min__energy>  (38) 
-9.8200000000000003

>  <m_primary>  (38) 
energy

$$$$
38:0
     RDKit          3D

 54 57  0  0  0  0  0  0  0  0999 V2000
   -2.7360   15.6700  -33.4910 C   0  0  0  0  0  0  0  0  0  0  0  0
   -2.3700   16.8930  -32.8610 O   0  0  0  0  0  0  0  0  0  0  0  0
   -1.5570   17.8790  -33.4440 C   0  0  0  0  0  0  0  0  0  0  0  0
   -0.1650   17.7080  -33.5840 C   0  0  0  0  0  0  0  0  0  0  0  0
    0.6160   18.7110  -34.1640 C   0  0  0  0  0  0  0  0  0  0  0  0
    0.0210   19.8910  -34.6230 C   0  0  0  0  0  0  0  0  0  0  0  0
    1.0000   21.1680  -35.3400 S   0  0  0  0  0  0  0  0  0  0  0  0
    2.6340   21.1150  -34.6420 C   0  0  0  0  0  0  0  0  0  0  0  0
    1.0860   20.9800  -36.8290 O   0  0  0  0  0  0  0  0  0  0  0  0
    0.3710   22.5030  -35.0560 O   0  0  0  0  0  0  0  0  0  0  0  0
   -1.3600   20.0680  -34.4900 C   0  0  0  0  0  0  0  0  0  0  0  0
   -2.1510   19.0750  -33.8910 C   0  0  0  0  0  0  0  0  0  0  0  0
   -3.6130   19.2720  -33.7790 C   0  0  0  0  0  0  0  0  0  0  0  0
   -4.4270   18.3370  -34.3430 N   0  0  0  0  0  0  0  0  0  0  0  0
   -5.7790   18.4420  -34.3270 C   0  0  0  0  0  0  0  0  0  0  0  0
   -6.3900   19.5390  -33.7240 C   0  0  0  0  0  0  0  0  0  0  0  0
   -5.6000   20.5200  -33.1160 C   0  0  0  0  0  0  0  0  0  0  0  0
   -6.2010   21.6200  -32.4840 C   0  0  0  0  0  0  0  0  0  0  0  0
   -5.4140   22.5840  -31.8420 C   0  0  0  0  0  0  0  0  0  0  0  0
   -6.1610   23.9330  -30.9900 S   0  0  0  0  0  0  0  0  0  0  0  0
   -7.6570   23.9030  -31.1410 O   0  0  0  0  0  0  0  0  0  0  0  0
   -5.6390   25.2170  -31.5690 O   0  0  0  0  0  0  0  0  0  0  0  0
   -5.7570   23.8530  -29.3040 N   0  0  0  0  0  0  0  0  0  0  0  0
   -4.4370   23.5540  -28.8150 C   0  0  0  0  0  0  0  0  0  0  0  0
   -4.2060   22.3280  -28.1760 C   0  0  0  0  0  0  0  0  0  0  0  0
   -2.9400   22.0180  -27.6740 C   0  0  0  0  0  0  0  0  0  0  0  0
   -1.8890   22.9280  -27.8080 C   0  0  0  0  0  0  0  0  0  0  0  0
   -2.0930   24.1590  -28.4560 C   0  0  0  0  0  0  0  0  0  0  0  0
   -0.9850   25.1290  -28.6000 C   0  0  0  0  0  0  0  0  0  0  0  0
    0.2010   24.7910  -28.3400 O   0  0  0  0  0  0  0  0  0  0  0  0
   -1.2370   26.4290  -29.0240 O   0  0  0  0  0  0  0  0  0  0  0  0
   -3.3690   24.4590  -28.9660 C   0  0  0  0  0  0  0  0  0  0  0  0
   -4.0220   22.4500  -31.8330 C   0  0  0  0  0  0  0  0  0  0  0  0
   -3.4110   21.3650  -32.4650 C   0  0  0  0  0  0  0  0  0  0  0  0
   -4.1870   20.3930  -33.1280 C   0  0  0  0  0  0  0  0  0  0  0  0
   -2.9619   14.9153  -32.7233 H   0  0  0  0  0  0  0  0  0  0  0  0
   -3.6249   15.8323  -34.1183 H   0  0  0  0  0  0  0  0  0  0  0  0
   -1.9040   15.3173  -34.1183 H   0  0  0  0  0  0  0  0  0  0  0  0
    0.3095   16.7792  -33.2345 H   0  0  0  0  0  0  0  0  0  0  0  0
    1.7030   18.5722  -34.2601 H   0  0  0  0  0  0  0  0  0  0  0  0
    2.5640   21.1173  -33.5442 H   0  0  0  0  0  0  0  0  0  0  0  0
    3.1454   20.1998  -34.9749 H   0  0  0  0  0  0  0  0  0  0  0  0
    3.2037   21.9951  -34.9749 H   0  0  0  0  0  0  0  0  0  0  0  0
   -1.8298   20.9922  -34.8575 H   0  0  0  0  0  0  0  0  0  0  0  0
   -6.3952   17.6582  -34.7918 H   0  0  0  0  0  0  0  0  0  0  0  0
   -7.4860   19.6331  -33.7260 H   0  0  0  0  0  0  0  0  0  0  0  0
   -7.2959   21.7252  -32.4931 H   0  0  0  0  0  0  0  0  0  0  0  0
   -6.4890   24.1670  -28.6270 H   0  0  0  0  0  0  0  0  0  0  0  0
   -5.0278   21.6047  -28.0691 H   0  0  0  0  0  0  0  0  0  0  0  0
   -2.7702   21.0543  -27.1716 H   0  0  0  0  0  0  0  0  0  0  0  0
   -0.8962   22.6803  -27.4044 H   0  0  0  0  0  0  0  0  0  0  0  0
   -3.5346   25.4123  -29.4892 H   0  0  0  0  0  0  0  0  0  0  0  0
   -3.4040   23.2046  -31.3245 H   0  0  0  0  0  0  0  0  0  0  0  0
   -2.3155   21.2681  -32.4453 H   0  0  0  0  0  0  0  0  0  0  0  0
  1  2  1  0
  2  3  1  0
  3  4  2  0
  4  5  1  0
  5  6  2  0
  6  7  1  0
  7  8  1  0
  7  9  2  0
  7 10  2  0
  6 11  1  0
 11 12  2  0
 12 13  1  0
 13 14  2  0
 14 15  1  0
 15 16  2  0
 16 17  1  0
 17 18  2  0
 18 19  1  0
 19 20  1  0
 20 21  2  0
 20 22  2  0
 20 23  1  0
 23 24  1  0
 24 25  2  0
 25 26  1  0
 26 27  2  0
 27 28  1  0
 28 29  1  0
 29 30  2  0
 29 31  1  0
 28 32  2  0
 19 33  2  0
 33 34  1  0
 34 35  2  0
 12  3  1  0
 35 13  1  0
 35 17  1  0
 32 24  1  0
  1 36  1  0
  1 37  1  0
  1 38  1  0
  4 39  1  0
  5 40  1  0
  8 41  1  0
  8 42  1  0
  8 43  1  0
 11 44  1  0
 15 45  1  0
 16 46  1  0
 18 47  1  0
 23 48  1  0
 25 49  1  0
 26 50  1  0
 27 51  1  0
 32 52  1  0
 33 53  1  0
 34 54  1  0
M  CHG  1  31  -1
M  END
>  <UniqueID>  (39) 
39

>  <SMILES>  (39) 
COc1ccc(S(C)(=O)=O)cc1-c1nccc2cc(S(=O)(=O)Nc3cccc(C(=O)[O-])c3)ccc12

>  <Energy>  (39) 
70.14189285537518

>  <Genealogy>  (39) 
COc1ccc(S(C)(=O)=O)cc1-c1nccc2cc(S(=O)(=O)Nc3cccc(C(=O)[O-])c3)ccc12 (protonated)
COc1ccc(S(C)(=O)=O)cc1-c1nccc2cc(S(=O)(=O)Nc3cccc(C(=O)[O-])c3)ccc12 (3D coordinates assigned)
COc1ccc(S(C)(=O)=O)cc1-c1nccc2cc(S(=O)(=O)Nc3cccc(C(=O)[O-])c3)ccc12 (optimized conformer: 70.14189285537518 kcal/mol)

>  <smiles>  (39) 
COc1ccc(S(C)(=O)=O)cc1-c1nccc2cc(S(=O)(=O)Nc3cccc(C(=O)O)c3)ccc12

>  <score_type>  (39) 
oracle

>  <origin>  (39) 
adgpu

>  <m_score__min__energy>  (39) 
-12.57

>  <m_primary>  (39) 
energy

$$$$
39:0
     RDKit          3D

 51 53  0  0  0  0  0  0  0  0999 V2000
   -2.1190   24.5370  -28.0180 C   0  0  0  0  0  0  0  0  0  0  0  0
   -2.3270   25.0900  -29.3520 N   0  0  0  0  0  0  0  0  0  0  0  0
   -3.8490   24.5400  -29.9850 S   0  0  0  0  0  0  0  0  0  0  0  0
   -4.4450   25.6140  -30.8520 O   0  0  0  0  0  0  0  0  0  0  0  0
   -4.7870   24.2610  -28.8450 O   0  0  0  0  0  0  0  0  0  0  0  0
   -3.6210   23.0580  -30.9120 C   0  0  0  0  0  0  0  0  0  0  0  0
   -2.3750   22.4240  -30.9470 C   0  0  0  0  0  0  0  0  0  0  0  0
   -2.2100   21.2430  -31.6720 C   0  0  0  0  0  0  0  0  0  0  0  0
   -3.2860   20.6760  -32.3750 C   0  0  0  0  0  0  0  0  0  0  0  0
   -3.0680   19.4050  -33.1010 C   0  0  0  0  0  0  0  0  0  0  0  0
   -1.9290   19.2400  -33.9050 C   0  0  0  0  0  0  0  0  0  0  0  0
   -1.7100   18.0350  -34.5780 C   0  0  0  0  0  0  0  0  0  0  0  0
   -2.6230   16.9790  -34.4470 C   0  0  0  0  0  0  0  0  0  0  0  0
   -2.3400   15.4390  -35.2540 S   0  0  0  0  0  0  0  0  0  0  0  0
   -0.8850   15.2670  -35.5860 O   0  0  0  0  0  0  0  0  0  0  0  0
   -3.1400   15.4090  -36.5260 O   0  0  0  0  0  0  0  0  0  0  0  0
   -2.8470   14.1400  -34.2230 N   0  0  0  0  0  0  0  0  0  0  0  0
   -4.0980   13.4540  -34.4070 C   0  0  0  0  0  0  0  0  0  0  0  0
   -4.4750   13.0130  -35.6900 C   0  0  0  0  0  0  0  0  0  0  0  0
   -5.6860   12.3490  -35.8870 C   0  0  0  0  0  0  0  0  0  0  0  0
   -6.5400   12.1200  -34.8100 C   0  0  0  0  0  0  0  0  0  0  0  0
   -6.1860   12.5540  -33.5320 C   0  0  0  0  0  0  0  0  0  0  0  0
   -4.9690   13.2200  -33.3130 C   0  0  0  0  0  0  0  0  0  0  0  0
   -4.5350   13.7080  -31.6690 S   0  0  0  0  0  0  0  0  0  0  0  0
   -5.2890   12.6800  -30.5000 N   0  0  0  0  0  0  0  0  0  0  0  0
   -3.0460   13.6100  -31.4940 O   0  0  0  0  0  0  0  0  0  0  0  0
   -4.9790   15.1240  -31.4310 O   0  0  0  0  0  0  0  0  0  0  0  0
   -3.7550   17.1390  -33.6390 C   0  0  0  0  0  0  0  0  0  0  0  0
   -3.9750   18.3430  -32.9650 C   0  0  0  0  0  0  0  0  0  0  0  0
   -4.5410   21.3350  -32.3700 C   0  0  0  0  0  0  0  0  0  0  0  0
   -5.7240   20.7980  -33.1340 C   0  0  0  0  0  0  0  0  0  0  0  0
   -4.6970   22.5140  -31.6210 C   0  0  0  0  0  0  0  0  0  0  0  0
   -2.4006   25.2856  -27.2628 H   0  0  0  0  0  0  0  0  0  0  0  0
   -2.7405   23.6381  -27.8927 H   0  0  0  0  0  0  0  0  0  0  0  0
   -1.0592   24.2704  -27.8927 H   0  0  0  0  0  0  0  0  0  0  0  0
   -1.5233   22.8570  -30.4020 H   0  0  0  0  0  0  0  0  0  0  0  0
   -1.2266   20.7507  -31.6932 H   0  0  0  0  0  0  0  0  0  0  0  0
   -1.2058   20.0627  -34.0056 H   0  0  0  0  0  0  0  0  0  0  0  0
   -0.8192   17.9147  -35.2120 H   0  0  0  0  0  0  0  0  0  0  0  0
   -2.1560   13.7940  -33.5220 H   0  0  0  0  0  0  0  0  0  0  0  0
   -3.8078   13.1939  -36.5457 H   0  0  0  0  0  0  0  0  0  0  0  0
   -5.9670   12.0058  -36.8936 H   0  0  0  0  0  0  0  0  0  0  0  0
   -7.4945   11.5964  -34.9675 H   0  0  0  0  0  0  0  0  0  0  0  0
   -6.8670   12.3727  -32.6874 H   0  0  0  0  0  0  0  0  0  0  0  0
   -5.8710   13.2900  -29.8820 H   0  0  0  0  0  0  0  0  0  0  0  0
   -4.4743   16.3134  -33.5343 H   0  0  0  0  0  0  0  0  0  0  0  0
   -4.8624   18.4588  -32.3254 H   0  0  0  0  0  0  0  0  0  0  0  0
   -6.4905   20.4501  -32.4259 H   0  0  0  0  0  0  0  0  0  0  0  0
   -6.1437   21.5938  -33.7669 H   0  0  0  0  0  0  0  0  0  0  0  0
   -5.4012   19.9582  -33.7669 H   0  0  0  0  0  0  0  0  0  0  0  0
   -5.6761   23.0145  -31.5921 H   0  0  0  0  0  0  0  0  0  0  0  0
  1  2  1  0
  2  3  1  0
  3  4  2  0
  3  5  2  0
  3  6  1  0
  6  7  2  0
  7  8  1  0
  8  9  2  0
  9 10  1  0
 10 11  2  0
 11 12  1  0
 12 13  2  0
 13 14  1  0
 14 15  2  0
 14 16  2  0
 14 17  1  0
 17 18  1  0
 18 19  2  0
 19 20  1  0
 20 21  2  0
 21 22  1  0
 22 23  2  0
 23 24  1  0
 24 25  1  0
 24 26  2  0
 24 27  2  0
 13 28  1  0
 28 29  2  0
  9 30  1  0
 30 31  1  0
 30 32  2  0
 32  6  1  0
 29 10  1  0
 23 18  1  0
  1 33  1  0
  1 34  1  0
  1 35  1  0
  7 36  1  0
  8 37  1  0
 11 38  1  0
 12 39  1  0
 17 40  1  0
 19 41  1  0
 20 42  1  0
 21 43  1  0
 22 44  1  0
 25 45  1  0
 28 46  1  0
 29 47  1  0
 31 48  1  0
 31 49  1  0
 31 50  1  0
 32 51  1  0
M  CHG  2   2  -1  25  -1
M  END
>  <UniqueID>  (40) 
40

>  <SMILES>  (40) 
C[N-]S(=O)(=O)c1ccc(-c2ccc(S(=O)(=O)Nc3ccccc3S([NH-])(=O)=O)cc2)c(C)c1

>  <Energy>  (40) 
63.20252884623146

>  <Genealogy>  (40) 
C[N-]S(=O)(=O)c1ccc(-c2ccc(S(=O)(=O)Nc3ccccc3S([NH-])(=O)=O)cc2)c(C)c1 (protonated)
C[N-]S(=O)(=O)c1ccc(-c2ccc(S(=O)(=O)Nc3ccccc3S([NH-])(=O)=O)cc2)c(C)c1 (3D coordinates assigned)
C[N-]S(=O)(=O)c1ccc(-c2ccc(S(=O)(=O)Nc3ccccc3S([NH-])(=O)=O)cc2)c(C)c1 (optimized conformer: 63.20252884623146 kcal/mol)

>  <smiles>  (40) 
CNS(=O)(=O)c1ccc(-c2ccc(S(=O)(=O)Nc3ccccc3S(N)(=O)=O)cc2)c(C)c1

>  <score_type>  (40) 
oracle

>  <origin>  (40) 
adgpu

>  <m_score__min__energy>  (40) 
-12.32

>  <m_primary>  (40) 
energy

$$$$
40:0
     RDKit          3D

 44 46  0  0  0  0  0  0  0  0999 V2000
   -4.6952   21.9168  -27.4191 H   0  0  0  0  0  0  0  0  0  0  0  0
   -4.0190   22.3110  -28.1920 C   0  0  0  0  0  0  0  0  0  0  0  0
   -4.3790   23.4010  -28.9160 N   0  0  0  0  0  0  0  0  0  0  0  0
   -3.5620   23.9090  -29.8790 C   0  0  0  0  0  0  0  0  0  0  0  0
   -3.9120   24.9500  -30.5740 N   0  0  0  0  0  0  0  0  0  0  0  0
   -5.1790   25.6700  -30.4330 C   0  0  0  0  0  0  0  0  0  0  0  0
   -5.3023   25.9721  -29.3825 H   0  0  0  0  0  0  0  0  0  0  0  0
   -5.1497   26.5479  -31.0951 H   0  0  0  0  0  0  0  0  0  0  0  0
   -6.3750   24.8010  -30.8440 C   0  0  0  0  0  0  0  0  0  0  0  0
   -6.6859   24.2150  -29.9665 H   0  0  0  0  0  0  0  0  0  0  0  0
   -7.1450   25.4980  -31.2064 H   0  0  0  0  0  0  0  0  0  0  0  0
   -6.1110   23.8110  -32.0120 C   0  0  0  0  0  0  0  0  0  0  0  0
   -7.0787   23.5882  -32.4852 H   0  0  0  0  0  0  0  0  0  0  0  0
   -5.3868   24.3206  -32.6645 H   0  0  0  0  0  0  0  0  0  0  0  0
   -5.4730   22.5140  -31.6580 N   0  0  1  0  0  0  0  0  0  0  0  0
   -4.9050   22.6610  -30.7900 H   0  0  0  0  0  0  0  0  0  0  0  0
   -6.4070   21.4660  -31.3830 C   0  0  0  0  0  0  0  0  0  0  0  0
   -7.2330   21.5500  -30.4860 O   0  0  0  0  0  0  0  0  0  0  0  0
   -6.2620   20.2500  -32.2080 C   0  0  0  0  0  0  0  0  0  0  0  0
   -7.1393   20.1059  -32.8558 H   0  0  0  0  0  0  0  0  0  0  0  0
   -6.1819   19.3301  -31.6102 H   0  0  0  0  0  0  0  0  0  0  0  0
   -5.0170   20.5360  -33.0320 C   0  0  0  0  0  0  0  0  0  0  0  0
   -5.2447   20.4454  -34.1044 H   0  0  0  0  0  0  0  0  0  0  0  0
   -4.2165   19.8197  -32.7952 H   0  0  0  0  0  0  0  0  0  0  0  0
   -4.5810   21.9750  -32.7040 C   0  0  0  0  0  0  0  0  0  0  0  0
   -4.6517   22.5981  -33.6077 H   0  0  0  0  0  0  0  0  0  0  0  0
   -3.5405   21.9789  -32.3472 H   0  0  0  0  0  0  0  0  0  0  0  0
   -2.3620   23.3230  -30.1200 N   0  0  0  0  0  0  0  0  0  0  0  0
   -1.9490   22.2360  -29.4140 C   0  0  0  0  0  0  0  0  0  0  0  0
   -2.7880   21.6880  -28.4280 C   0  0  0  0  0  0  0  0  0  0  0  0
   -2.3490   20.5070  -27.6510 C   0  0  0  0  0  0  0  0  0  0  0  0
   -3.0930   20.0180  -26.7580 O   0  0  0  0  0  0  0  0  0  0  0  0
   -1.0340   19.8460  -27.9590 C   0  0  0  0  0  0  0  0  0  0  0  0
   -1.2044   19.0349  -28.6822 H   0  0  0  0  0  0  0  0  0  0  0  0
   -0.6191   19.4569  -27.0175 H   0  0  0  0  0  0  0  0  0  0  0  0
   -0.0170   20.8400  -28.5550 C   0  0  2  0  0  0  0  0  0  0  0  0
    0.8446   20.2625  -28.9211 H   0  0  0  0  0  0  0  0  0  0  0  0
    0.5160   21.8120  -27.4910 C   0  0  0  0  0  0  0  0  0  0  0  0
    0.2979   21.4143  -26.4889 H   0  0  0  0  0  0  0  0  0  0  0  0
    1.6034   21.9270  -27.6112 H   0  0  0  0  0  0  0  0  0  0  0  0
    0.0283   22.7906  -27.6112 H   0  0  0  0  0  0  0  0  0  0  0  0
   -0.6300   21.5930  -29.7550 C   0  0  0  0  0  0  0  0  0  0  0  0
   -0.7865   20.8796  -30.5776 H   0  0  0  0  0  0  0  0  0  0  0  0
    0.0690   22.3920  -30.0432 H   0  0  0  0  0  0  0  0  0  0  0  0
  1  2  1  0
  2  3  1  0
  3  4  1  0
  4  5  2  0
  5  6  1  0
  6  7  1  0
  6  8  1  0
  6  9  1  0
  9 10  1  0
  9 11  1  0
  9 12  1  0
 12 13  1  0
 12 14  1  0
 12 15  1  0
 15 16  1  1
 15 17  1  0
 17 18  2  0
 17 19  1  0
 19 20  1  0
 19 21  1  0
 19 22  1  0
 22 23  1  0
 22 24  1  0
 22 25  1  0
 25 26  1  0
 25 27  1  0
  4 28  1  0
 28 29  2  0
 29 30  1  0
 30 31  1  0
 31 32  2  0
 31 33  1  0
 33 34  1  0
 33 35  1  0
 33 36  1  0
 36 37  1  6
 36 38  1  0
 38 39  1  0
 38 40  1  0
 38 41  1  0
 36 42  1  0
 42 43  1  0
 42 44  1  0
 30  2  2  0
 25 15  1  0
 42 29  1  0
M  CHG  2   3  -1  15   1
M  END
>  <UniqueID>  (41) 
41

>  <SMILES>  (41) 
C[C@H]1CC(=O)c2c[n-]/c(=N\CCC[N@@H+]3CCCC3=O)nc2C1

>  <Energy>  (41) 
50.08317902242815

>  <Genealogy>  (41) 
CC1CC(=O)c2c[n-]c(=NCCC[NH+]3CCCC3=O)nc2C1 (protonated)
C[C@H]1CC(=O)c2c[n-]c(=NCCC[N@@H+]3CCCC3=O)nc2C1 (chirality)
C[C@H]1CC(=O)c2c[n-]/c(=N\CCC[N@@H+]3CCCC3=O)nc2C1 (cis-trans isomerization)
C[C@H]1CC(=O)c2c[n-]/c(=N\CCC[N@@H+]3CCCC3=O)nc2C1 (3D coordinates assigned)
C[C@H]1CC(=O)c2c[n-]/c(=N\CCC[N@@H+]3CCCC3=O)nc2C1 (nonaromatic ring conformer: 50.08317902242815 kcal/mol)

>  <smiles>  (41) 
CC1CC(=O)c2c[nH]c(=NCCCN3CCCC3=O)nc2C1

>  <score_type>  (41) 
oracle

>  <origin>  (41) 
adgpu

>  <m_score__min__energy>  (41) 
-6.96

>  <m_primary>  (41) 
energy

$$$$
41:0
     RDKit          3D

 41 43  0  0  0  0  0  0  0  0999 V2000
   -7.5230   19.9410  -33.0750 C   0  0  0  0  0  0  0  0  0  0  0  0
   -6.9480   21.1430  -32.3850 C   0  0  0  0  0  0  0  0  0  0  0  0
   -5.5930   21.4700  -32.5430 C   0  0  0  0  0  0  0  0  0  0  0  0
   -5.0580   22.5920  -31.9020 C   0  0  0  0  0  0  0  0  0  0  0  0
   -5.8710   23.3920  -31.0860 C   0  0  0  0  0  0  0  0  0  0  0  0
   -5.2450   24.8960  -30.4070 S   0  0  0  0  0  0  0  0  0  0  0  0
   -5.7890   26.0450  -31.2090 O   0  0  0  0  0  0  0  0  0  0  0  0
   -5.6740   25.0450  -28.9740 O   0  0  0  0  0  0  0  0  0  0  0  0
   -3.5090   24.9240  -30.4750 N   0  0  0  0  0  0  0  0  0  0  0  0
   -2.6290   24.2000  -29.6000 C   0  0  0  0  0  0  0  0  0  0  0  0
   -2.6930   22.8030  -29.4780 C   0  0  0  0  0  0  0  0  0  0  0  0
   -1.7250   22.0900  -28.7470 C   0  0  0  0  0  0  0  0  0  0  0  0
   -1.7210   20.6060  -28.8040 C   0  0  0  0  0  0  0  0  0  0  0  0
   -2.1870   19.9240  -27.8500 O   0  0  0  0  0  0  0  0  0  0  0  0
   -1.1760   19.9430  -29.9520 N   0  0  0  0  0  0  0  0  0  0  0  0
   -1.2560   20.3860  -31.3130 C   0  0  0  0  0  0  0  0  0  0  0  0
   -2.4250   20.2460  -32.0800 C   0  0  0  0  0  0  0  0  0  0  0  0
   -2.4300   20.6350  -33.4200 C   0  0  0  0  0  0  0  0  0  0  0  0
   -1.2620   21.1460  -33.9890 C   0  0  0  0  0  0  0  0  0  0  0  0
   -0.1320   21.2570  -33.2400 N   0  0  0  0  0  0  0  0  0  0  0  0
   -0.1050   20.8900  -31.9320 C   0  0  0  0  0  0  0  0  0  0  0  0
   -0.7420   22.8180  -28.0390 C   0  0  0  0  0  0  0  0  0  0  0  0
    0.2290   22.1690  -27.2830 O   0  0  0  0  0  0  0  0  0  0  0  0
   -0.7250   24.2160  -28.0970 C   0  0  0  0  0  0  0  0  0  0  0  0
   -1.6520   24.9040  -28.8850 C   0  0  0  0  0  0  0  0  0  0  0  0
   -1.5880   26.2910  -28.9650 O   0  0  0  0  0  0  0  0  0  0  0  0
   -7.2130   23.0400  -30.8890 C   0  0  0  0  0  0  0  0  0  0  0  0
   -7.7480   21.9210  -31.5340 C   0  0  0  0  0  0  0  0  0  0  0  0
   -7.8693   19.2171  -32.3227 H   0  0  0  0  0  0  0  0  0  0  0  0
   -8.3708   20.2500  -33.7041 H   0  0  0  0  0  0  0  0  0  0  0  0
   -6.7504   19.4748  -33.7041 H   0  0  0  0  0  0  0  0  0  0  0  0
   -4.9481   20.8409  -33.1741 H   0  0  0  0  0  0  0  0  0  0  0  0
   -3.9968   22.8476  -32.0382 H   0  0  0  0  0  0  0  0  0  0  0  0
   -3.5149   22.2557  -29.9627 H   0  0  0  0  0  0  0  0  0  0  0  0
   -3.3357   19.8300  -31.6243 H   0  0  0  0  0  0  0  0  0  0  0  0
   -3.3455   20.5400  -34.0223 H   0  0  0  0  0  0  0  0  0  0  0  0
   -1.2555   21.4590  -35.0435 H   0  0  0  0  0  0  0  0  0  0  0  0
    0.8266   20.9893  -31.3556 H   0  0  0  0  0  0  0  0  0  0  0  0
    0.0232   24.7775  -27.5183 H   0  0  0  0  0  0  0  0  0  0  0  0
   -7.8472   23.6458  -30.2251 H   0  0  0  0  0  0  0  0  0  0  0  0
   -8.8017   21.6489  -31.3736 H   0  0  0  0  0  0  0  0  0  0  0  0
  1  2  1  0
  2  3  2  0
  3  4  1  0
  4  5  2  0
  5  6  1  0
  6  7  2  0
  6  8  2  0
  6  9  1  0
  9 10  1  0
 10 11  2  0
 11 12  1  0
 12 13  1  0
 13 14  2  0
 13 15  1  0
 15 16  1  0
 16 17  2  0
 17 18  1  0
 18 19  2  0
 19 20  1  0
 20 21  2  0
 12 22  2  0
 22 23  1  0
 22 24  1  0
 24 25  2  0
 25 26  1  0
  5 27  1  0
 27 28  2  0
 28  2  1  0
 25 10  1  0
 21 16  1  0
  1 29  1  0
  1 30  1  0
  1 31  1  0
  3 32  1  0
  4 33  1  0
 11 34  1  0
 17 35  1  0
 18 36  1  0
 19 37  1  0
 21 38  1  0
 24 39  1  0
 27 40  1  0
 28 41  1  0
M  CHG  4   9  -1  15  -1  23  -1  26  -1
M  END
>  <UniqueID>  (42) 
42

>  <SMILES>  (42) 
Cc1ccc(S(=O)(=O)[N-]c2cc(C(=O)[N-]c3cccnc3)c([O-])cc2[O-])cc1

>  <Energy>  (42) 
51.64179800211271

>  <Genealogy>  (42) 
Cc1ccc(S(=O)(=O)[N-]c2cc(C(=O)[N-]c3cccnc3)c([O-])cc2[O-])cc1 (protonated)
Cc1ccc(S(=O)(=O)[N-]c2cc(C(=O)[N-]c3cccnc3)c([O-])cc2[O-])cc1 (3D coordinates assigned)
Cc1ccc(S(=O)(=O)[N-]c2cc(C(=O)[N-]c3cccnc3)c([O-])cc2[O-])cc1 (optimized conformer: 51.64179800211271 kcal/mol)

>  <smiles>  (42) 
Cc1ccc(S(=O)(=O)Nc2cc(C(=O)Nc3cccnc3)c(O)cc2O)cc1

>  <score_type>  (42) 
oracle

>  <origin>  (42) 
adgpu

>  <m_score__min__energy>  (42) 
-13.359999999999999

>  <m_primary>  (42) 
energy

$$$$
42:0
     RDKit          3D

 42 44  0  0  0  0  0  0  0  0999 V2000
   -5.7580   17.4550  -35.2340 O   0  0  0  0  0  0  0  0  0  0  0  0
   -5.9410   17.4230  -33.9850 C   0  0  0  0  0  0  0  0  0  0  0  0
   -5.6220   16.2280  -33.2550 N   0  0  0  0  0  0  0  0  0  0  0  0
   -4.9340   15.1090  -33.8970 C   0  0  0  0  0  0  0  0  0  0  0  0
   -4.6170   14.0420  -32.8980 C   0  0  0  0  0  0  0  0  0  0  0  0
   -4.0110   12.8320  -33.1750 C   0  0  0  0  0  0  0  0  0  0  0  0
   -3.9520   12.1640  -31.9700 C   0  0  0  0  0  0  0  0  0  0  0  0
   -4.5290   13.0050  -31.0380 C   0  0  0  0  0  0  0  0  0  0  0  0
   -4.9180   14.1140  -31.6230 O   0  0  0  0  0  0  0  0  0  0  0  0
   -6.4990   18.6160  -33.3010 C   0  0  0  0  0  0  0  0  0  0  0  0
   -6.1110   19.9050  -33.7100 C   0  0  0  0  0  0  0  0  0  0  0  0
   -6.6250   21.0360  -33.0710 C   0  0  0  0  0  0  0  0  0  0  0  0
   -7.5310   20.8990  -32.0130 C   0  0  0  0  0  0  0  0  0  0  0  0
   -8.1730   22.3310  -31.2150 S   0  0  0  0  0  0  0  0  0  0  0  0
   -9.2960   21.9160  -30.3070 O   0  0  0  0  0  0  0  0  0  0  0  0
   -8.6980   23.2970  -32.2420 O   0  0  0  0  0  0  0  0  0  0  0  0
   -6.9100   23.1030  -30.2850 N   0  0  0  0  0  0  0  0  0  0  0  0
   -5.6010   22.4490  -30.5120 C   0  0  0  0  0  0  0  0  0  0  0  0
   -4.6680   23.3050  -31.3880 C   0  0  0  0  0  0  0  0  0  0  0  0
   -4.4170   24.5920  -30.8430 O   0  0  0  0  0  0  0  0  0  0  0  0
   -5.5370   25.1600  -30.1740 C   0  0  0  0  0  0  0  0  0  0  0  0
   -6.8910   24.5490  -30.5710 C   0  0  0  0  0  0  0  0  0  0  0  0
   -7.9070   19.6190  -31.5880 C   0  0  0  0  0  0  0  0  0  0  0  0
   -7.3940   18.4850  -32.2250 C   0  0  0  0  0  0  0  0  0  0  0  0
   -5.9390   16.1320  -32.2630 H   0  0  0  0  0  0  0  0  0  0  0  0
   -5.5809   14.6890  -34.6813 H   0  0  0  0  0  0  0  0  0  0  0  0
   -3.9936   15.4753  -34.3346 H   0  0  0  0  0  0  0  0  0  0  0  0
   -3.6511   12.4760  -34.1516 H   0  0  0  0  0  0  0  0  0  0  0  0
   -3.5309   11.1643  -31.7878 H   0  0  0  0  0  0  0  0  0  0  0  0
   -4.6449   12.7794  -29.9676 H   0  0  0  0  0  0  0  0  0  0  0  0
   -5.3977   20.0232  -34.5390 H   0  0  0  0  0  0  0  0  0  0  0  0
   -6.3162   22.0389  -33.4009 H   0  0  0  0  0  0  0  0  0  0  0  0
   -5.1164   22.2789  -29.5392 H   0  0  0  0  0  0  0  0  0  0  0  0
   -5.7838   21.5009  -31.0391 H   0  0  0  0  0  0  0  0  0  0  0  0
   -3.7087   22.7778  -31.4966 H   0  0  0  0  0  0  0  0  0  0  0  0
   -5.1699   23.4511  -32.3559 H   0  0  0  0  0  0  0  0  0  0  0  0
   -5.3996   25.0182  -29.0919 H   0  0  0  0  0  0  0  0  0  0  0  0
   -5.5730   26.2198  -30.4665 H   0  0  0  0  0  0  0  0  0  0  0  0
   -7.6916   25.0414  -29.9995 H   0  0  0  0  0  0  0  0  0  0  0  0
   -7.0463   24.6999  -31.6495 H   0  0  0  0  0  0  0  0  0  0  0  0
   -8.6093   19.5050  -30.7490 H   0  0  0  0  0  0  0  0  0  0  0  0
   -7.6928   17.4835  -31.8818 H   0  0  0  0  0  0  0  0  0  0  0  0
  1  2  2  0
  2  3  1  0
  3  4  1  0
  4  5  1  0
  5  6  2  0
  6  7  1  0
  7  8  2  0
  8  9  1  0
  2 10  1  0
 10 11  2  0
 11 12  1  0
 12 13  2  0
 13 14  1  0
 14 15  2  0
 14 16  2  0
 14 17  1  0
 17 18  1  0
 18 19  1  0
 19 20  1  0
 20 21  1  0
 21 22  1  0
 13 23  1  0
 23 24  2  0
  9  5  1  0
 24 10  1  0
 22 17  1  0
  3 25  1  0
  4 26  1  0
  4 27  1  0
  6 28  1  0
  7 29  1  0
  8 30  1  0
 11 31  1  0
 12 32  1  0
 18 33  1  0
 18 34  1  0
 19 35  1  0
 19 36  1  0
 21 37  1  0
 21 38  1  0
 22 39  1  0
 22 40  1  0
 23 41  1  0
 24 42  1  0
M  END
>  <UniqueID>  (43) 
43

>  <SMILES>  (43) 
O=C(NCc1ccco1)c1ccc(S(=O)(=O)N2CCOCC2)cc1

>  <Energy>  (43) 
81.07001094188986

>  <Genealogy>  (43) 
O=C(NCc1ccco1)c1ccc(S(=O)(=O)N2CCOCC2)cc1 (3D coordinates assigned)
O=C(NCc1ccco1)c1ccc(S(=O)(=O)N2CCOCC2)cc1 (nonaromatic ring conformer: 81.07001094188986 kcal/mol)

>  <smiles>  (43) 
O=C(NCc1ccco1)c1ccc(S(=O)(=O)N2CCOCC2)cc1

>  <score_type>  (43) 
oracle

>  <origin>  (43) 
adgpu

>  <m_score__min__energy>  (43) 
-8.1300000000000008

>  <m_primary>  (43) 
energy

$$$$
43:0
     RDKit          3D

 48 50  0  0  0  0  0  0  0  0999 V2000
    2.4190   24.9020  -27.5630 H   0  0  0  0  0  0  0  0  0  0  0  0
    1.4170   24.8920  -27.8600 N   0  0  0  0  0  0  0  0  0  0  0  0
    0.4630   25.2010  -27.0410 C   0  0  0  0  0  0  0  0  0  0  0  0
    0.7670   25.5480  -25.7610 N   0  0  0  0  0  0  0  0  0  0  0  0
   -0.1940   25.8770  -24.8630 C   0  0  0  0  0  0  0  0  0  0  0  0
    0.0782   26.1521  -23.8333 H   0  0  0  0  0  0  0  0  0  0  0  0
   -1.5290   25.8630  -25.2580 C   0  0  0  0  0  0  0  0  0  0  0  0
   -2.3215   26.1271  -24.5424 H   0  0  0  0  0  0  0  0  0  0  0  0
   -1.8450   25.5210  -26.5330 N   0  0  0  0  0  0  0  0  0  0  0  0
   -0.8940   25.1870  -27.4490 C   0  0  0  0  0  0  0  0  0  0  0  0
   -1.3380   24.8180  -28.8140 C   0  0  0  0  0  0  0  0  0  0  0  0
   -0.6240   24.0350  -29.4970 O   0  0  0  0  0  0  0  0  0  0  0  0
   -2.5840   25.2950  -29.3430 N   0  0  0  0  0  0  0  0  0  0  0  0
   -3.6500   24.4990  -29.8820 C   0  0  0  0  0  0  0  0  0  0  0  0
   -3.6560   23.0950  -29.7880 C   0  0  0  0  0  0  0  0  0  0  0  0
   -2.8395   22.5768  -29.2639 H   0  0  0  0  0  0  0  0  0  0  0  0
   -4.6970   22.3570  -30.3590 C   0  0  0  0  0  0  0  0  0  0  0  0
   -4.7080   21.2615  -30.2607 H   0  0  0  0  0  0  0  0  0  0  0  0
   -5.7270   23.0040  -31.0560 C   0  0  0  0  0  0  0  0  0  0  0  0
   -7.0550   22.0780  -31.7620 S   0  0  0  0  0  0  0  0  0  0  0  0
   -7.7800   21.3260  -30.6800 O   0  0  0  0  0  0  0  0  0  0  0  0
   -8.0360   23.0610  -32.3410 O   0  0  0  0  0  0  0  0  0  0  0  0
   -6.5440   20.9370  -33.0050 N   0  0  0  0  0  0  0  0  0  0  0  0
   -5.0620   20.9480  -33.1040 C   0  0  0  0  0  0  0  0  0  0  0  0
   -4.7603   21.7953  -33.7373 H   0  0  0  0  0  0  0  0  0  0  0  0
   -4.6669   21.0352  -32.0811 H   0  0  0  0  0  0  0  0  0  0  0  0
   -4.4880   19.6630  -33.7050 C   0  0  0  0  0  0  0  0  0  0  0  0
   -4.9014   19.5188  -34.7141 H   0  0  0  0  0  0  0  0  0  0  0  0
   -3.3926   19.7506  -33.7539 H   0  0  0  0  0  0  0  0  0  0  0  0
   -4.8520   18.4540  -32.8320 C   0  0  0  0  0  0  0  0  0  0  0  0
   -4.8012   17.5465  -33.4515 H   0  0  0  0  0  0  0  0  0  0  0  0
   -4.1353   18.4230  -31.9981 H   0  0  0  0  0  0  0  0  0  0  0  0
   -6.2650   18.5540  -32.2220 C   0  0  0  0  0  0  0  0  0  0  0  0
   -6.7408   17.5630  -32.2614 H   0  0  0  0  0  0  0  0  0  0  0  0
   -6.1653   18.9037  -31.1839 H   0  0  0  0  0  0  0  0  0  0  0  0
   -7.1530   19.5680  -32.9890 C   0  0  1  0  0  0  0  0  0  0  0  0
   -7.1525   19.2201  -34.0325 H   0  0  0  0  0  0  0  0  0  0  0  0
   -8.6890   19.5180  -32.6760 C   0  0  0  0  0  0  0  0  0  0  0  0
   -9.0045   20.5292  -32.3795 H   0  0  0  0  0  0  0  0  0  0  0  0
   -9.1657   19.1473  -33.5954 H   0  0  0  0  0  0  0  0  0  0  0  0
   -9.1210   18.5500  -31.5700 C   0  0  0  0  0  0  0  0  0  0  0  0
   -8.9193   19.0020  -30.5877 H   0  0  0  0  0  0  0  0  0  0  0  0
  -10.1971   18.3425  -31.6641 H   0  0  0  0  0  0  0  0  0  0  0  0
   -8.5568   17.6104  -31.6641 H   0  0  0  0  0  0  0  0  0  0  0  0
   -5.7260   24.4030  -31.1400 C   0  0  0  0  0  0  0  0  0  0  0  0
   -6.5477   24.9215  -31.6558 H   0  0  0  0  0  0  0  0  0  0  0  0
   -4.6850   25.1420  -30.5710 C   0  0  0  0  0  0  0  0  0  0  0  0
   -4.6790   26.2379  -30.6654 H   0  0  0  0  0  0  0  0  0  0  0  0
  1  2  1  0
  2  3  2  0
  3  4  1  0
  4  5  1  0
  5  6  1  0
  5  7  2  0
  7  8  1  0
  7  9  1  0
  9 10  2  0
 10 11  1  0
 11 12  2  0
 11 13  1  0
 13 14  1  0
 14 15  2  0
 15 16  1  0
 15 17  1  0
 17 18  1  0
 17 19  2  0
 19 20  1  0
 20 21  2  0
 20 22  2  0
 20 23  1  0
 23 24  1  0
 24 25  1  0
 24 26  1  0
 24 27  1  0
 27 28  1  0
 27 29  1  0
 27 30  1  0
 30 31  1  0
 30 32  1  0
 30 33  1  0
 33 34  1  0
 33 35  1  0
 33 36  1  0
 36 37  1  6
 36 38  1  0
 38 39  1  0
 38 40  1  0
 38 41  1  0
 41 42  1  0
 41 43  1  0
 41 44  1  0
 19 45  1  0
 45 46  1  0
 45 47  2  0
 47 48  1  0
 10  3  1  0
 47 14  1  0
 36 23  1  0
M  CHG  2   4  -1  13  -1
M  END
>  <UniqueID>  (44) 
44

>  <SMILES>  (44) 
[H]/N=c1\[n-]ccnc1C(=O)[N-]c1ccc(S(=O)(=O)N2CCCC[C@H]2CC)cc1

>  <Energy>  (44) 
76.65978112533371

>  <Genealogy>  (44) 
CCC1CCCCN1S(=O)(=O)c1ccc([N-]C(=O)c2ncc[n-]c2=N)cc1 (protonated)
CC[C@@H]1CCCCN1S(=O)(=O)c1ccc([N-]C(=O)c2ncc[n-]c2=N)cc1 (chirality)
[H]/N=c1\[n-]ccnc1C(=O)[N-]c1ccc(S(=O)(=O)N2CCCC[C@H]2CC)cc1 (cis-trans isomerization)
[H]/N=c1\[n-]ccnc1C(=O)[N-]c1ccc(S(=O)(=O)N2CCCC[C@H]2CC)cc1 (3D coordinates assigned)
[H]/N=c1\[n-]ccnc1C(=O)[N-]c1ccc(S(=O)(=O)N2CCCC[C@H]2CC)cc1 (nonaromatic ring conformer: 76.65978112533371 kcal/mol)

>  <smiles>  (44) 
CCC1CCCCN1S(=O)(=O)c1ccc(NC(=O)c2ncc[nH]c2=N)cc1

>  <score_type>  (44) 
oracle

>  <origin>  (44) 
adgpu

>  <m_score__min__energy>  (44) 
-11.220000000000001

>  <m_primary>  (44) 
energy

$$$$
44:0
     RDKit          3D

 51 53  0  0  0  0  0  0  0  0999 V2000
   -6.2080   25.1540  -29.7890 C   0  0  0  0  0  0  0  0  0  0  0  0
   -5.0320   24.9810  -30.7000 C   0  0  0  0  0  0  0  0  0  0  0  0
   -3.9780   25.6260  -30.4640 O   0  0  0  0  0  0  0  0  0  0  0  0
   -5.0830   24.1330  -31.8550 N   0  0  0  0  0  0  0  0  0  0  0  0
   -5.8750   22.9460  -32.0130 C   0  0  0  0  0  0  0  0  0  0  0  0
   -7.2660   23.0300  -32.1920 C   0  0  0  0  0  0  0  0  0  0  0  0
   -8.0430   21.8720  -32.2590 C   0  0  0  0  0  0  0  0  0  0  0  0
   -7.4460   20.6140  -32.1300 C   0  0  0  0  0  0  0  0  0  0  0  0
   -8.4370   19.1530  -32.1180 S   0  0  0  0  0  0  0  0  0  0  0  0
   -9.0460   18.9770  -30.7550 O   0  0  0  0  0  0  0  0  0  0  0  0
   -9.5560   19.3050  -33.1110 O   0  0  0  0  0  0  0  0  0  0  0  0
   -7.4940   17.7350  -32.5180 N   0  0  0  0  0  0  0  0  0  0  0  0
   -6.8590   17.8530  -33.8500 C   0  0  0  0  0  0  0  0  0  0  0  0
   -5.3520   18.1490  -33.7500 C   0  0  0  0  0  0  0  0  0  0  0  0
   -4.6310   17.1630  -33.0220 O   0  0  0  0  0  0  0  0  0  0  0  0
   -5.3800   16.5630  -31.9710 C   0  0  0  0  0  0  0  0  0  0  0  0
   -6.5280   17.4380  -31.4420 C   0  0  0  0  0  0  0  0  0  0  0  0
   -6.0590   20.5220  -31.9590 C   0  0  0  0  0  0  0  0  0  0  0  0
   -5.2720   21.6800  -31.8870 C   0  0  0  0  0  0  0  0  0  0  0  0
   -3.5460   21.5210  -31.5480 S   0  0  0  0  0  0  0  0  0  0  0  0
   -3.1830   20.0780  -31.3400 O   0  0  0  0  0  0  0  0  0  0  0  0
   -2.7420   22.0430  -32.7050 O   0  0  0  0  0  0  0  0  0  0  0  0
   -3.1930   22.4270  -30.0820 C   0  0  0  0  0  0  0  0  0  0  0  0
   -4.0740   22.3980  -28.9930 C   0  0  0  0  0  0  0  0  0  0  0  0
   -3.7630   23.0910  -27.8180 C   0  0  0  0  0  0  0  0  0  0  0  0
   -2.5600   23.8130  -27.7110 C   0  0  0  0  0  0  0  0  0  0  0  0
   -2.2150   24.5550  -26.4740 C   0  0  0  0  0  0  0  0  0  0  0  0
   -2.9800   25.6820  -26.0400 N   0  0  0  0  0  0  0  0  0  0  0  0
   -1.2360   24.1790  -25.7750 O   0  0  0  0  0  0  0  0  0  0  0  0
   -1.6850   23.8400  -28.8130 C   0  0  0  0  0  0  0  0  0  0  0  0
   -1.9980   23.1480  -29.9860 C   0  0  0  0  0  0  0  0  0  0  0  0
   -5.8718   25.1045  -28.7428 H   0  0  0  0  0  0  0  0  0  0  0  0
   -6.6773   26.1308  -29.9775 H   0  0  0  0  0  0  0  0  0  0  0  0
   -6.9387   24.3537  -29.9775 H   0  0  0  0  0  0  0  0  0  0  0  0
   -7.7465   24.0156  -32.2800 H   0  0  0  0  0  0  0  0  0  0  0  0
   -9.1293   21.9495  -32.4139 H   0  0  0  0  0  0  0  0  0  0  0  0
   -6.9992   16.9076  -34.3945 H   0  0  0  0  0  0  0  0  0  0  0  0
   -7.3343   18.6927  -34.3781 H   0  0  0  0  0  0  0  0  0  0  0  0
   -4.9387   18.2028  -34.7680 H   0  0  0  0  0  0  0  0  0  0  0  0
   -5.2425   19.0992  -33.2067 H   0  0  0  0  0  0  0  0  0  0  0  0
   -5.8074   15.6210  -32.3451 H   0  0  0  0  0  0  0  0  0  0  0  0
   -4.6847   16.4096  -31.1325 H   0  0  0  0  0  0  0  0  0  0  0  0
   -7.0441   16.9049  -30.6300 H   0  0  0  0  0  0  0  0  0  0  0  0
   -6.1095   18.3849  -31.0702 H   0  0  0  0  0  0  0  0  0  0  0  0
   -5.5833   19.5333  -31.8806 H   0  0  0  0  0  0  0  0  0  0  0  0
   -5.0128   21.8288  -29.0620 H   0  0  0  0  0  0  0  0  0  0  0  0
   -4.4646   23.0713  -26.9710 H   0  0  0  0  0  0  0  0  0  0  0  0
   -2.6790   26.2200  -25.1970 H   0  0  0  0  0  0  0  0  0  0  0  0
   -3.8860   25.9380  -26.4870 H   0  0  0  0  0  0  0  0  0  0  0  0
   -0.7467   24.4107  -28.7504 H   0  0  0  0  0  0  0  0  0  0  0  0
   -1.3019   23.1703  -30.8374 H   0  0  0  0  0  0  0  0  0  0  0  0
  1  2  1  0
  2  3  2  0
  2  4  1  0
  4  5  1  0
  5  6  2  0
  6  7  1  0
  7  8  2  0
  8  9  1  0
  9 10  2  0
  9 11  2  0
  9 12  1  0
 12 13  1  0
 13 14  1  0
 14 15  1  0
 15 16  1  0
 16 17  1  0
  8 18  1  0
 18 19  2  0
 19 20  1  0
 20 21  2  0
 20 22  2  0
 20 23  1  0
 23 24  2  0
 24 25  1  0
 25 26  2  0
 26 27  1  0
 27 28  1  0
 27 29  2  0
 26 30  1  0
 30 31  2  0
 19  5  1  0
 31 23  1  0
 17 12  1  0
  1 32  1  0
  1 33  1  0
  1 34  1  0
  6 35  1  0
  7 36  1  0
 13 37  1  0
 13 38  1  0
 14 39  1  0
 14 40  1  0
 16 41  1  0
 16 42  1  0
 17 43  1  0
 17 44  1  0
 18 45  1  0
 24 46  1  0
 25 47  1  0
 28 48  1  0
 28 49  1  0
 30 50  1  0
 31 51  1  0
M  CHG  1   4  -1
M  END
>  <UniqueID>  (45) 
45

>  <SMILES>  (45) 
CC(=O)[N-]c1ccc(S(=O)(=O)N2CCOCC2)cc1S(=O)(=O)c1ccc(C(N)=O)cc1

>  <Energy>  (45) 
69.57215084322964

>  <Genealogy>  (45) 
CC(=O)[N-]c1ccc(S(=O)(=O)N2CCOCC2)cc1S(=O)(=O)c1ccc(C(N)=O)cc1 (protonated)
CC(=O)[N-]c1ccc(S(=O)(=O)N2CCOCC2)cc1S(=O)(=O)c1ccc(C(N)=O)cc1 (3D coordinates assigned)
CC(=O)[N-]c1ccc(S(=O)(=O)N2CCOCC2)cc1S(=O)(=O)c1ccc(C(N)=O)cc1 (nonaromatic ring conformer: 69.57215084322964 kcal/mol)

>  <smiles>  (45) 
CC(=O)Nc1ccc(S(=O)(=O)N2CCOCC2)cc1S(=O)(=O)c1ccc(C(N)=O)cc1

>  <score_type>  (45) 
oracle

>  <origin>  (45) 
adgpu

>  <m_score__min__energy>  (45) 
-11.220000000000001

>  <m_primary>  (45) 
energy

$$$$
45:0
     RDKit          3D

 42 42  0  0  0  0  0  0  0  0999 V2000
   -6.6520   17.9450  -31.7530 C   0  0  0  0  0  0  0  0  0  0  0  0
   -7.8190   18.5610  -32.5240 C   0  0  0  0  0  0  0  0  0  0  0  0
   -8.7680   19.3780  -31.6290 C   0  0  0  0  0  0  0  0  0  0  0  0
   -9.5110   20.5190  -32.3500 C   0  0  0  0  0  0  0  0  0  0  0  0
   -8.8210   21.8820  -32.1720 C   0  0  0  0  0  0  0  0  0  0  0  0
   -7.5660   21.7990  -31.2860 C   0  0  0  0  0  0  0  0  0  0  0  0
   -6.3830   22.5910  -31.8670 C   0  0  0  0  0  0  0  0  0  0  0  0
   -5.1520   21.7090  -32.1420 C   0  0  0  0  0  0  0  0  0  0  0  0
   -3.8060   22.3550  -31.7630 C   0  0  0  0  0  0  0  0  0  0  0  0
   -3.5780   22.4240  -30.2740 C   0  0  0  0  0  0  0  0  0  0  0  0
   -4.4490   21.9250  -29.5100 O   0  0  0  0  0  0  0  0  0  0  0  0
   -2.3600   23.0320  -29.6780 C   0  0  0  0  0  0  0  0  0  0  0  0
   -1.3080   22.1990  -29.2420 C   0  0  0  0  0  0  0  0  0  0  0  0
   -1.3940   20.8160  -29.3740 O   0  0  0  0  0  0  0  0  0  0  0  0
   -0.1520   22.7540  -28.6850 C   0  0  0  0  0  0  0  0  0  0  0  0
   -0.0240   24.1370  -28.5530 C   0  0  0  0  0  0  0  0  0  0  0  0
    1.1380   24.6720  -28.0000 O   0  0  0  0  0  0  0  0  0  0  0  0
   -1.0640   24.9730  -28.9760 C   0  0  0  0  0  0  0  0  0  0  0  0
   -2.2300   24.4300  -29.5270 C   0  0  0  0  0  0  0  0  0  0  0  0
   -3.2560   25.2910  -29.8970 O   0  0  0  0  0  0  0  0  0  0  0  0
   -6.8347   18.0414  -30.6726 H   0  0  0  0  0  0  0  0  0  0  0  0
   -6.5599   16.8808  -32.0158 H   0  0  0  0  0  0  0  0  0  0  0  0
   -5.7214   18.4694  -32.0158 H   0  0  0  0  0  0  0  0  0  0  0  0
   -7.4135   19.2244  -33.3021 H   0  0  0  0  0  0  0  0  0  0  0  0
   -8.4030   17.7333  -32.9527 H   0  0  0  0  0  0  0  0  0  0  0  0
   -9.5185   18.6919  -31.2095 H   0  0  0  0  0  0  0  0  0  0  0  0
   -8.1389   19.8533  -30.8620 H   0  0  0  0  0  0  0  0  0  0  0  0
   -9.5572   20.2855  -33.4239 H   0  0  0  0  0  0  0  0  0  0  0  0
  -10.5149   20.5943  -31.9066 H   0  0  0  0  0  0  0  0  0  0  0  0
   -8.5285   22.2607  -33.1625 H   0  0  0  0  0  0  0  0  0  0  0  0
   -9.5356   22.5546  -31.6750 H   0  0  0  0  0  0  0  0  0  0  0  0
   -7.8080   22.2041  -30.2924 H   0  0  0  0  0  0  0  0  0  0  0  0
   -7.2657   20.7423  -31.2291 H   0  0  0  0  0  0  0  0  0  0  0  0
   -6.7011   23.0550  -32.8123 H   0  0  0  0  0  0  0  0  0  0  0  0
   -6.0905   23.3443  -31.1207 H   0  0  0  0  0  0  0  0  0  0  0  0
   -5.2607   20.7782  -31.5660 H   0  0  0  0  0  0  0  0  0  0  0  0
   -5.1236   21.5414  -33.2288 H   0  0  0  0  0  0  0  0  0  0  0  0
   -2.9953   21.7637  -32.2137 H   0  0  0  0  0  0  0  0  0  0  0  0
   -3.8223   23.3885  -32.1392 H   0  0  0  0  0  0  0  0  0  0  0  0
    0.6624   22.0956  -28.3484 H   0  0  0  0  0  0  0  0  0  0  0  0
    1.7710   25.2440  -28.5470 H   0  0  0  0  0  0  0  0  0  0  0  0
   -0.9640   26.0637  -28.8746 H   0  0  0  0  0  0  0  0  0  0  0  0
  1  2  1  0
  2  3  1  0
  3  4  1  0
  4  5  1  0
  5  6  1  0
  6  7  1  0
  7  8  1  0
  8  9  1  0
  9 10  1  0
 10 11  2  0
 10 12  1  0
 12 13  2  0
 13 14  1  0
 13 15  1  0
 15 16  2  0
 16 17  1  0
 16 18  1  0
 18 19  2  0
 19 20  1  0
 19 12  1  0
  1 21  1  0
  1 22  1  0
  1 23  1  0
  2 24  1  0
  2 25  1  0
  3 26  1  0
  3 27  1  0
  4 28  1  0
  4 29  1  0
  5 30  1  0
  5 31  1  0
  6 32  1  0
  6 33  1  0
  7 34  1  0
  7 35  1  0
  8 36  1  0
  8 37  1  0
  9 38  1  0
  9 39  1  0
 15 40  1  0
 17 41  1  0
 18 42  1  0
M  CHG  2  14  -1  20  -1
M  END
>  <UniqueID>  (46) 
46

>  <SMILES>  (46) 
CCCCCCCCCC(=O)c1c([O-])cc(O)cc1[O-]

>  <Energy>  (46) 
32.27789164065095

>  <Genealogy>  (46) 
CCCCCCCCCC(=O)c1c([O-])cc(O)cc1[O-] (protonated)
CCCCCCCCCC(=O)c1c([O-])cc(O)cc1[O-] (3D coordinates assigned)
CCCCCCCCCC(=O)c1c([O-])cc(O)cc1[O-] (optimized conformer: 32.27789164065095 kcal/mol)

>  <smiles>  (46) 
CCCCCCCCCC(=O)c1c(O)cc(O)cc1O

>  <score_type>  (46) 
oracle

>  <origin>  (46) 
adgpu

>  <m_score__min__energy>  (46) 
-9.8000000000000007

>  <m_primary>  (46) 
energy

$$$$
46:0
     RDKit          3D

 30 32  0  0  0  0  0  0  0  0999 V2000
   -1.9480   25.6740  -28.9660 O   0  0  0  0  0  0  0  0  0  0  0  0
   -2.7280   24.8500  -29.5120 C   0  0  0  0  0  0  0  0  0  0  0  0
   -2.6060   23.5100  -29.3370 N   0  0  0  0  0  0  0  0  0  0  0  0
   -3.6180   23.0390  -30.0810 C   0  0  0  0  0  0  0  0  0  0  0  0
   -3.9830   21.7120  -30.2770 C   0  0  0  0  0  0  0  0  0  0  0  0
   -5.0900   21.4500  -31.1060 C   0  0  0  0  0  0  0  0  0  0  0  0
   -5.8030   22.5160  -31.7230 C   0  0  0  0  0  0  0  0  0  0  0  0
   -6.9360   22.2740  -32.5800 N   0  0  0  0  0  0  0  0  0  0  0  0
   -7.9650   21.2650  -32.3270 C   0  0  0  0  0  0  0  0  0  0  0  0
   -7.4800   19.8890  -32.7210 C   0  0  0  0  0  0  0  0  0  0  0  0
   -6.4430   19.7680  -33.6640 C   0  0  0  0  0  0  0  0  0  0  0  0
   -5.9830   18.5070  -34.0540 C   0  0  0  0  0  0  0  0  0  0  0  0
   -4.9500   18.3990  -34.9780 O   0  0  0  0  0  0  0  0  0  0  0  0
   -6.5610   17.3550  -33.5170 C   0  0  0  0  0  0  0  0  0  0  0  0
   -7.6040   17.4610  -32.5950 C   0  0  0  0  0  0  0  0  0  0  0  0
   -8.0740   18.7220  -32.1970 C   0  0  0  0  0  0  0  0  0  0  0  0
   -9.1260   18.8120  -31.2870 O   0  0  0  0  0  0  0  0  0  0  0  0
   -5.3950   23.8490  -31.4880 C   0  0  0  0  0  0  0  0  0  0  0  0
   -4.2970   24.0640  -30.6620 C   0  0  0  0  0  0  0  0  0  0  0  0
   -3.7500   25.2390  -30.3160 N   0  0  0  0  0  0  0  0  0  0  0  0
   -3.4247   20.8932  -29.7997 H   0  0  0  0  0  0  0  0  0  0  0  0
   -5.4072   20.4110  -31.2787 H   0  0  0  0  0  0  0  0  0  0  0  0
   -7.0170   22.8260  -33.4640 H   0  0  0  0  0  0  0  0  0  0  0  0
   -8.2144   21.2658  -31.2556 H   0  0  0  0  0  0  0  0  0  0  0  0
   -8.8528   21.5101  -32.9285 H   0  0  0  0  0  0  0  0  0  0  0  0
   -5.9909   20.6723  -34.0975 H   0  0  0  0  0  0  0  0  0  0  0  0
   -6.1944   16.3633  -33.8206 H   0  0  0  0  0  0  0  0  0  0  0  0
   -8.0600   16.5509  -32.1781 H   0  0  0  0  0  0  0  0  0  0  0  0
   -9.5020   17.9910  -30.8260 H   0  0  0  0  0  0  0  0  0  0  0  0
   -5.9314   24.6931  -31.9460 H   0  0  0  0  0  0  0  0  0  0  0  0
  1  2  2  0
  2  3  1  0
  3  4  1  0
  4  5  2  0
  5  6  1  0
  6  7  2  0
  7  8  1  0
  8  9  1  0
  9 10  1  0
 10 11  2  0
 11 12  1  0
 12 13  1  0
 12 14  2  0
 14 15  1  0
 15 16  2  0
 16 17  1  0
  7 18  1  0
 18 19  2  0
 19 20  1  0
 20  2  1  0
 19  4  1  0
 16 10  1  0
  5 21  1  0
  6 22  1  0
  8 23  1  0
  9 24  1  0
  9 25  1  0
 11 26  1  0
 14 27  1  0
 15 28  1  0
 17 29  1  0
 18 30  1  0
M  CHG  3   3  -1  13  -1  20  -1
M  END
>  <UniqueID>  (47) 
47

>  <SMILES>  (47) 
O=c1[n-]c2ccc(NCc3cc([O-])ccc3O)cc2[n-]1

>  <Energy>  (47) 
67.85516064392874

>  <Genealogy>  (47) 
O=c1[n-]c2ccc(NCc3cc([O-])ccc3O)cc2[n-]1 (protonated)
O=c1[n-]c2ccc(NCc3cc([O-])ccc3O)cc2[n-]1 (3D coordinates assigned)
O=c1[n-]c2ccc(NCc3cc([O-])ccc3O)cc2[n-]1 (optimized conformer: 67.85516064392874 kcal/mol)

>  <smiles>  (47) 
O=c1[nH]c2ccc(NCc3cc(O)ccc3O)cc2[nH]1

>  <score_type>  (47) 
oracle

>  <origin>  (47) 
adgpu

>  <m_score__min__energy>  (47) 
-9.5600000000000005

>  <m_primary>  (47) 
energy

$$$$
47:0
     RDKit          3D

 48 51  0  0  0  0  0  0  0  0999 V2000
   -3.2520   20.8470  -29.4960 O   0  0  0  0  0  0  0  0  0  0  0  0
   -3.4250   21.9220  -30.1300 C   0  0  0  0  0  0  0  0  0  0  0  0
   -4.1520   21.9200  -31.3710 N   0  0  0  0  0  0  0  0  0  0  0  0
   -4.4060   20.7350  -32.1470 C   0  0  0  0  0  0  0  0  0  0  0  0
   -5.7160   20.2860  -32.3900 C   0  0  0  0  0  0  0  0  0  0  0  0
   -5.9370   19.1200  -33.1300 C   0  0  0  0  0  0  0  0  0  0  0  0
   -4.8540   18.3830  -33.6300 C   0  0  0  0  0  0  0  0  0  0  0  0
   -5.1350   16.9230  -34.5820 S   0  0  0  0  0  0  0  0  0  0  0  0
   -6.6150   16.6820  -34.6930 O   0  0  0  0  0  0  0  0  0  0  0  0
   -4.5910   17.1240  -35.9700 O   0  0  0  0  0  0  0  0  0  0  0  0
   -4.3760   15.5240  -33.8550 N   0  0  0  0  0  0  0  0  0  0  0  0
   -4.6870   15.4600  -32.4150 C   0  0  0  0  0  0  0  0  0  0  0  0
   -4.4830   14.0330  -31.8800 C   0  0  0  0  0  0  0  0  0  0  0  0
   -5.3010   13.0550  -32.5110 O   0  0  0  0  0  0  0  0  0  0  0  0
   -5.7430   13.4260  -33.8110 C   0  0  0  0  0  0  0  0  0  0  0  0
   -4.7170   14.2800  -34.5790 C   0  0  0  0  0  0  0  0  0  0  0  0
   -3.5480   18.8130  -33.3620 C   0  0  0  0  0  0  0  0  0  0  0  0
   -3.3260   19.9780  -32.6220 C   0  0  0  0  0  0  0  0  0  0  0  0
   -2.9120   23.1780  -29.5590 C   0  0  0  0  0  0  0  0  0  0  0  0
   -2.2100   23.3250  -28.3800 C   0  0  0  0  0  0  0  0  0  0  0  0
   -1.9840   24.6880  -28.2870 C   0  0  0  0  0  0  0  0  0  0  0  0
   -1.2610   25.3980  -27.1980 C   0  0  0  0  0  0  0  0  0  0  0  0
   -1.9800   26.0050  -26.1480 C   0  0  0  0  0  0  0  0  0  0  0  0
   -1.3100   26.6710  -25.1170 C   0  0  0  0  0  0  0  0  0  0  0  0
    0.0830   26.7420  -25.1170 C   0  0  0  0  0  0  0  0  0  0  0  0
    0.8110   26.1460  -26.1470 C   0  0  0  0  0  0  0  0  0  0  0  0
    0.1510   25.4780  -27.1860 C   0  0  0  0  0  0  0  0  0  0  0  0
    0.9130   24.9060  -28.2000 O   0  0  0  0  0  0  0  0  0  0  0  0
   -2.5300   25.2990  -29.3580 N   0  0  0  0  0  0  0  0  0  0  0  0
   -3.0950   24.3840  -30.1290 N   0  0  0  0  0  0  0  0  0  0  0  0
   -4.6090   22.8070  -31.6770 H   0  0  0  0  0  0  0  0  0  0  0  0
   -6.5713   20.8546  -31.9961 H   0  0  0  0  0  0  0  0  0  0  0  0
   -6.9654   18.7794  -33.3207 H   0  0  0  0  0  0  0  0  0  0  0  0
   -4.0235   16.1483  -31.8710 H   0  0  0  0  0  0  0  0  0  0  0  0
   -5.7383   15.7475  -32.2662 H   0  0  0  0  0  0  0  0  0  0  0  0
   -3.4301   13.7538  -32.0328 H   0  0  0  0  0  0  0  0  0  0  0  0
   -4.7679   14.0481  -30.8176 H   0  0  0  0  0  0  0  0  0  0  0  0
   -5.9382   12.5104  -34.3886 H   0  0  0  0  0  0  0  0  0  0  0  0
   -6.6494   14.0367  -33.6866 H   0  0  0  0  0  0  0  0  0  0  0  0
   -3.7998   13.6897  -34.7216 H   0  0  0  0  0  0  0  0  0  0  0  0
   -5.1644   14.5611  -35.5438 H   0  0  0  0  0  0  0  0  0  0  0  0
   -2.6927   18.2309  -33.7358 H   0  0  0  0  0  0  0  0  0  0  0  0
   -2.2965   20.3030  -32.4109 H   0  0  0  0  0  0  0  0  0  0  0  0
   -1.9007   22.5391  -27.6752 H   0  0  0  0  0  0  0  0  0  0  0  0
   -3.0788   25.9542  -26.1398 H   0  0  0  0  0  0  0  0  0  0  0  0
   -1.8831   27.1402  -24.3037 H   0  0  0  0  0  0  0  0  0  0  0  0
    0.6072   27.2677  -24.3053 H   0  0  0  0  0  0  0  0  0  0  0  0
    1.9096   26.2010  -26.1431 H   0  0  0  0  0  0  0  0  0  0  0  0
  1  2  2  0
  2  3  1  0
  3  4  1  0
  4  5  2  0
  5  6  1  0
  6  7  2  0
  7  8  1  0
  8  9  2  0
  8 10  2  0
  8 11  1  0
 11 12  1  0
 12 13  1  0
 13 14  1  0
 14 15  1  0
 15 16  1  0
  7 17  1  0
 17 18  2  0
  2 19  1  0
 19 20  1  0
 20 21  2  0
 21 22  1  0
 22 23  2  0
 23 24  1  0
 24 25  2  0
 25 26  1  0
 26 27  2  0
 27 28  1  0
 21 29  1  0
 29 30  1  0
 18  4  1  0
 30 19  2  0
 16 11  1  0
 27 22  1  0
  3 31  1  0
  5 32  1  0
  6 33  1  0
 12 34  1  0
 12 35  1  0
 13 36  1  0
 13 37  1  0
 15 38  1  0
 15 39  1  0
 16 40  1  0
 16 41  1  0
 17 42  1  0
 18 43  1  0
 20 44  1  0
 23 45  1  0
 24 46  1  0
 25 47  1  0
 26 48  1  0
M  CHG  2  28  -1  29  -1
M  END
>  <UniqueID>  (48) 
48

>  <SMILES>  (48) 
O=C(Nc1ccc(S(=O)(=O)N2CCOCC2)cc1)c1cc(-c2ccccc2[O-])[n-]n1

>  <Energy>  (48) 
99.0420321395326

>  <Genealogy>  (48) 
O=C(Nc1ccc(S(=O)(=O)N2CCOCC2)cc1)c1cc(-c2ccccc2[O-])[n-]n1 (protonated)
O=C(Nc1ccc(S(=O)(=O)N2CCOCC2)cc1)c1cc(-c2ccccc2[O-])[n-]n1 (3D coordinates assigned)
O=C(Nc1ccc(S(=O)(=O)N2CCOCC2)cc1)c1cc(-c2ccccc2[O-])[n-]n1 (nonaromatic ring conformer: 99.0420321395326 kcal/mol)

>  <smiles>  (48) 
O=C(Nc1ccc(S(=O)(=O)N2CCOCC2)cc1)c1cc(-c2ccccc2O)[nH]n1

>  <score_type>  (48) 
oracle

>  <origin>  (48) 
adgpu

>  <m_score__min__energy>  (48) 
-12.220000000000001

>  <m_primary>  (48) 
energy

$$$$
48:0
     RDKit          3D

 49 52  0  0  0  0  0  0  0  0999 V2000
   -8.6760   18.3090  -32.0560 C   0  0  0  0  0  0  0  0  0  0  0  0
   -7.5920   19.1770  -32.5120 N   0  0  0  0  0  0  0  0  0  0  0  0
   -6.6410   18.9360  -33.4570 C   0  0  0  0  0  0  0  0  0  0  0  0
   -6.4990   17.6490  -34.2230 C   0  0  0  0  0  0  0  0  0  0  0  0
   -5.3650   16.8570  -33.7380 N   0  0  0  0  0  0  0  0  0  0  0  0
   -4.0080   17.3150  -33.8270 C   0  0  0  0  0  0  0  0  0  0  0  0
   -3.5490   18.2440  -32.8820 C   0  0  0  0  0  0  0  0  0  0  0  0
   -2.2670   18.8040  -32.9860 C   0  0  0  0  0  0  0  0  0  0  0  0
   -1.8120   19.8030  -31.9910 C   0  0  0  0  0  0  0  0  0  0  0  0
   -0.5790   20.0370  -31.8740 O   0  0  0  0  0  0  0  0  0  0  0  0
   -2.7320   20.5580  -31.1890 N   0  0  0  0  0  0  0  0  0  0  0  0
   -2.4520   21.7780  -30.4880 C   0  0  0  0  0  0  0  0  0  0  0  0
   -1.5080   21.7600  -29.4580 C   0  0  0  0  0  0  0  0  0  0  0  0
   -1.2050   22.9280  -28.7560 C   0  0  0  0  0  0  0  0  0  0  0  0
   -1.8530   24.1400  -29.0620 C   0  0  0  0  0  0  0  0  0  0  0  0
   -1.5020   25.3700  -28.3080 C   0  0  0  0  0  0  0  0  0  0  0  0
   -1.4450   25.3510  -27.0490 O   0  0  0  0  0  0  0  0  0  0  0  0
   -1.2290   26.5620  -28.9680 O   0  0  0  0  0  0  0  0  0  0  0  0
   -2.8260   24.1480  -30.0860 C   0  0  0  0  0  0  0  0  0  0  0  0
   -3.4990   25.3140  -30.4270 O   0  0  0  0  0  0  0  0  0  0  0  0
   -3.1280   22.9720  -30.7810 C   0  0  0  0  0  0  0  0  0  0  0  0
   -1.4260   18.3910  -34.0320 C   0  0  0  0  0  0  0  0  0  0  0  0
   -1.8640   17.4440  -34.9590 C   0  0  0  0  0  0  0  0  0  0  0  0
   -3.1430   16.8860  -34.8540 C   0  0  0  0  0  0  0  0  0  0  0  0
   -3.5040   15.8840  -35.7550 O   0  0  0  0  0  0  0  0  0  0  0  0
   -5.7910   19.9830  -33.6420 N   0  0  0  0  0  0  0  0  0  0  0  0
   -6.2480   20.9030  -32.7750 C   0  0  0  0  0  0  0  0  0  0  0  0
   -5.7550   22.1880  -32.5630 C   0  0  0  0  0  0  0  0  0  0  0  0
   -6.4090   22.9910  -31.6090 C   0  0  0  0  0  0  0  0  0  0  0  0
   -7.5210   22.4910  -30.8930 C   0  0  0  0  0  0  0  0  0  0  0  0
   -7.9950   21.1870  -31.1320 C   0  0  0  0  0  0  0  0  0  0  0  0
   -7.3270   20.4230  -32.0910 C   0  0  0  0  0  0  0  0  0  0  0  0
   -8.6954   18.2935  -30.9563 H   0  0  0  0  0  0  0  0  0  0  0  0
   -9.6356   18.6912  -32.4343 H   0  0  0  0  0  0  0  0  0  0  0  0
   -8.5128   17.2891  -32.4343 H   0  0  0  0  0  0  0  0  0  0  0  0
   -7.4212   17.0607  -34.1073 H   0  0  0  0  0  0  0  0  0  0  0  0
   -6.3210   17.8947  -35.2803 H   0  0  0  0  0  0  0  0  0  0  0  0
   -5.5740   16.1000  -33.0490 H   0  0  0  0  0  0  0  0  0  0  0  0
   -4.2032   18.5376  -32.0478 H   0  0  0  0  0  0  0  0  0  0  0  0
   -1.0003   20.8193  -29.1986 H   0  0  0  0  0  0  0  0  0  0  0  0
   -0.4517   22.9012  -27.9549 H   0  0  0  0  0  0  0  0  0  0  0  0
   -3.9014   22.9836  -31.5632 H   0  0  0  0  0  0  0  0  0  0  0  0
   -0.4156   18.8166  -34.1213 H   0  0  0  0  0  0  0  0  0  0  0  0
   -1.1988   17.1339  -35.7783 H   0  0  0  0  0  0  0  0  0  0  0  0
   -3.3470   15.9680  -36.7500 H   0  0  0  0  0  0  0  0  0  0  0  0
   -4.8846   22.5628  -33.1216 H   0  0  0  0  0  0  0  0  0  0  0  0
   -6.0524   24.0142  -31.4195 H   0  0  0  0  0  0  0  0  0  0  0  0
   -8.0189   23.1249  -30.1445 H   0  0  0  0  0  0  0  0  0  0  0  0
   -8.8596   20.7849  -30.5835 H   0  0  0  0  0  0  0  0  0  0  0  0
  1  2  1  0
  2  3  1  0
  3  4  1  0
  4  5  1  0
  5  6  1  0
  6  7  2  0
  7  8  1  0
  8  9  1  0
  9 10  2  0
  9 11  1  0
 11 12  1  0
 12 13  2  0
 13 14  1  0
 14 15  2  0
 15 16  1  0
 16 17  2  0
 16 18  1  0
 15 19  1  0
 19 20  1  0
 19 21  2  0
  8 22  2  0
 22 23  1  0
 23 24  2  0
 24 25  1  0
  3 26  2  0
 26 27  1  0
 27 28  2  0
 28 29  1  0
 29 30  2  0
 30 31  1  0
 31 32  2  0
 32  2  1  0
 24  6  1  0
 32 27  1  0
 21 12  1  0
  1 33  1  0
  1 34  1  0
  1 35  1  0
  4 36  1  0
  4 37  1  0
  5 38  1  0
  7 39  1  0
 13 40  1  0
 14 41  1  0
 21 42  1  0
 22 43  1  0
 23 44  1  0
 25 45  1  0
 28 46  1  0
 29 47  1  0
 30 48  1  0
 31 49  1  0
M  CHG  3  11  -1  18  -1  20  -1
M  END
>  <UniqueID>  (49) 
49

>  <SMILES>  (49) 
Cn1c(CNc2cc(C(=O)[N-]c3ccc(C(=O)[O-])c([O-])c3)ccc2O)nc2ccccc21

>  <Energy>  (49) 
102.03449548497963

>  <Genealogy>  (49) 
Cn1c(CNc2cc(C(=O)[N-]c3ccc(C(=O)[O-])c([O-])c3)ccc2O)nc2ccccc21 (protonated)
Cn1c(CNc2cc(C(=O)[N-]c3ccc(C(=O)[O-])c([O-])c3)ccc2O)nc2ccccc21 (3D coordinates assigned)
Cn1c(CNc2cc(C(=O)[N-]c3ccc(C(=O)[O-])c([O-])c3)ccc2O)nc2ccccc21 (optimized conformer: 102.03449548497963 kcal/mol)

>  <smiles>  (49) 
Cn1c(CNc2cc(C(=O)Nc3ccc(C(=O)O)c(O)c3)ccc2O)nc2ccccc21

>  <score_type>  (49) 
oracle

>  <origin>  (49) 
adgpu

>  <m_score__min__energy>  (49) 
-13.539999999999999

>  <m_primary>  (49) 
energy

$$$$
