0:0
     RDKit          3D

 60 64  0  0  0  0  0  0  0  0999 V2000
    1.8700   21.3950  -36.8200 N   0  0  0  0  0  0  0  0  0  0  0  0
    1.8750   21.3250  -35.0940 S   0  0  0  0  0  0  0  0  0  0  0  0
    0.6500   22.0080  -34.5540 O   0  0  0  0  0  0  0  0  0  0  0  0
    3.0950   22.0370  -34.5790 O   0  0  0  0  0  0  0  0  0  0  0  0
    1.8900   19.6410  -34.5840 C   0  0  0  0  0  0  0  0  0  0  0  0
    3.0600   19.0630  -34.0600 C   0  0  0  0  0  0  0  0  0  0  0  0
    3.0660   17.7180  -33.6760 C   0  0  0  0  0  0  0  0  0  0  0  0
    1.9160   16.9370  -33.8380 C   0  0  0  0  0  0  0  0  0  0  0  0
    0.7540   17.5040  -34.3680 C   0  0  0  0  0  0  0  0  0  0  0  0
   -0.4060   16.6990  -34.5650 N   0  0  0  0  0  0  0  0  0  0  0  0
   -1.8130   15.7360  -34.7990 S   0  0  0  0  0  0  0  0  0  0  0  0
   -1.9480   15.3900  -36.2550 O   0  0  0  0  0  0  0  0  0  0  0  0
   -1.6850   14.4640  -34.0110 O   0  0  0  0  0  0  0  0  0  0  0  0
   -3.2180   16.6380  -34.2500 C   0  0  0  0  0  0  0  0  0  0  0  0
   -4.5180   16.1670  -34.5600 C   0  0  0  0  0  0  0  0  0  0  0  0
   -5.6540   16.9060  -34.1840 C   0  0  0  0  0  0  0  0  0  0  0  0
   -5.4610   18.1020  -33.4980 C   0  0  0  0  0  0  0  0  0  0  0  0
   -4.1950   18.5530  -33.1750 C   0  0  0  0  0  0  0  0  0  0  0  0
   -3.0510   17.8480  -33.5470 C   0  0  0  0  0  0  0  0  0  0  0  0
   -4.3480   19.8220  -32.4660 C   0  0  0  0  0  0  0  0  0  0  0  0
   -3.4090   20.5510  -32.0510 O   0  0  0  0  0  0  0  0  0  0  0  0
   -5.7380   20.1470  -32.3520 N   0  0  0  0  0  0  0  0  0  0  0  0
   -6.2970   21.3750  -31.8770 C   0  0  0  0  0  0  0  0  0  0  0  0
   -7.6330   21.6860  -32.1580 C   0  0  0  0  0  0  0  0  0  0  0  0
   -8.1570   22.9240  -31.7720 C   0  0  0  0  0  0  0  0  0  0  0  0
   -7.3580   23.8450  -31.0890 C   0  0  0  0  0  0  0  0  0  0  0  0
   -6.0300   23.5210  -30.7580 C   0  0  0  0  0  0  0  0  0  0  0  0
   -5.0270   24.6790  -29.8790 S   0  0  0  0  0  0  0  0  0  0  0  0
   -4.4570   25.6690  -30.8600 O   0  0  0  0  0  0  0  0  0  0  0  0
   -5.8890   25.4280  -28.9010 O   0  0  0  0  0  0  0  0  0  0  0  0
   -3.7150   23.8680  -29.0490 N   0  0  0  0  0  0  0  0  0  0  0  0
   -2.7510   23.3380  -30.0290 C   0  0  0  0  0  0  0  0  0  0  0  0
   -1.6670   22.5240  -29.3110 C   0  0  0  0  0  0  0  0  0  0  0  0
   -2.2460   21.4510  -28.5990 O   0  0  0  0  0  0  0  0  0  0  0  0
   -3.1160   21.9570  -27.6020 C   0  0  0  0  0  0  0  0  0  0  0  0
   -4.2600   22.7660  -28.2360 C   0  0  0  0  0  0  0  0  0  0  0  0
   -5.5000   22.2850  -31.1680 C   0  0  0  0  0  0  0  0  0  0  0  0
   -6.4250   19.0850  -33.0150 C   0  0  0  0  0  0  0  0  0  0  0  0
   -7.6790   19.0180  -33.1420 O   0  0  0  0  0  0  0  0  0  0  0  0
    0.7360   18.8550  -34.7320 C   0  0  0  0  0  0  0  0  0  0  0  0
    2.1450   22.3680  -37.0870 H   0  0  0  0  0  0  0  0  0  0  0  0
    3.9715   19.6693  -33.9520 H   0  0  0  0  0  0  0  0  0  0  0  0
    3.9758   17.2735  -33.2461 H   0  0  0  0  0  0  0  0  0  0  0  0
    1.9269   15.8760  -33.5479 H   0  0  0  0  0  0  0  0  0  0  0  0
   -4.6396   15.2158  -35.0990 H   0  0  0  0  0  0  0  0  0  0  0  0
   -6.6662   16.5492  -34.4251 H   0  0  0  0  0  0  0  0  0  0  0  0
   -2.0478   18.2251  -33.2991 H   0  0  0  0  0  0  0  0  0  0  0  0
   -8.2696   20.9576  -32.6816 H   0  0  0  0  0  0  0  0  0  0  0  0
   -9.2022   23.1737  -32.0069 H   0  0  0  0  0  0  0  0  0  0  0  0
   -7.7690   24.8263  -30.8094 H   0  0  0  0  0  0  0  0  0  0  0  0
   -3.2782   22.6907  -30.7452 H   0  0  0  0  0  0  0  0  0  0  0  0
   -2.2793   24.1769  -30.5616 H   0  0  0  0  0  0  0  0  0  0  0  0
   -0.9607   22.1261  -30.0546 H   0  0  0  0  0  0  0  0  0  0  0  0
   -1.1406   23.1794  -28.6016 H   0  0  0  0  0  0  0  0  0  0  0  0
   -3.5405   21.1166  -27.0333 H   0  0  0  0  0  0  0  0  0  0  0  0
   -2.5427   22.6187  -26.9361 H   0  0  0  0  0  0  0  0  0  0  0  0
   -4.8609   22.1043  -28.8771 H   0  0  0  0  0  0  0  0  0  0  0  0
   -4.8879   23.1865  -27.4367 H   0  0  0  0  0  0  0  0  0  0  0  0
   -4.4562   22.0309  -30.9317 H   0  0  0  0  0  0  0  0  0  0  0  0
   -0.1845   19.3024  -35.1351 H   0  0  0  0  0  0  0  0  0  0  0  0
  1  2  1  0
  2  3  2  0
  2  4  2  0
  2  5  1  0
  5  6  2  0
  6  7  1  0
  7  8  2  0
  8  9  1  0
  9 10  1  0
 10 11  1  0
 11 12  2  0
 11 13  2  0
 11 14  1  0
 14 15  2  0
 15 16  1  0
 16 17  2  0
 17 18  1  0
 18 19  2  0
 18 20  1  0
 20 21  2  0
 20 22  1  0
 22 23  1  0
 23 24  2  0
 24 25  1  0
 25 26  2  0
 26 27  1  0
 27 28  1  0
 28 29  2  0
 28 30  2  0
 28 31  1  0
 31 32  1  0
 32 33  1  0
 33 34  1  0
 34 35  1  0
 35 36  1  0
 27 37  2  0
 22 38  1  0
 38 39  2  0
  9 40  2  0
 40  5  1  0
 19 14  1  0
 37 23  1  0
 38 17  1  0
 36 31  1  0
  1 41  1  0
  6 42  1  0
  7 43  1  0
  8 44  1  0
 15 45  1  0
 16 46  1  0
 19 47  1  0
 24 48  1  0
 25 49  1  0
 26 50  1  0
 32 51  1  0
 32 52  1  0
 33 53  1  0
 33 54  1  0
 35 55  1  0
 35 56  1  0
 36 57  1  0
 36 58  1  0
 37 59  1  0
 40 60  1  0
M  CHG  2   1  -1  10  -1
M  END
>  <UniqueID>  (1) 
1

>  <SMILES>  (1) 
[NH-]S(=O)(=O)c1cccc([N-]S(=O)(=O)c2ccc3c(c2)C(=O)N(c2cccc(S(=O)(=O)N4CCOCC4)c2)C3=O)c1

>  <Energy>  (1) 
153.52482377287214

>  <Genealogy>  (1) 
[NH-]S(=O)(=O)c1cccc([N-]S(=O)(=O)c2ccc3c(c2)C(=O)N(c2cccc(S(=O)(=O)N4CCOCC4)c2)C3=O)c1 (protonated)
[NH-]S(=O)(=O)c1cccc([N-]S(=O)(=O)c2ccc3c(c2)C(=O)N(c2cccc(S(=O)(=O)N4CCOCC4)c2)C3=O)c1 (3D coordinates assigned)
[NH-]S(=O)(=O)c1cccc([N-]S(=O)(=O)c2ccc3c(c2)C(=O)N(c2cccc(S(=O)(=O)N4CCOCC4)c2)C3=O)c1 (nonaromatic ring conformer: 153.52482377287214 kcal/mol)

>  <smiles>  (1) 
NS(=O)(=O)c1cccc(NS(=O)(=O)c2ccc3c(c2)C(=O)N(c2cccc(S(=O)(=O)N4CCOCC4)c2)C3=O)c1

>  <score_type>  (1) 
oracle

>  <origin>  (1) 
adgpu

>  <m_score__min__energy>  (1) 
-12.449999999999999

>  <m_primary>  (1) 
energy

$$$$
1:0
     RDKit          3D

 42 44  0  0  0  0  0  0  0  0999 V2000
   -4.9980   17.7410  -34.3900 C   0  0  0  0  0  0  0  0  0  0  0  0
   -6.2630   17.3180  -33.2140 S   0  0  0  0  0  0  0  0  0  0  0  0
   -5.6380   16.6660  -32.0130 O   0  0  0  0  0  0  0  0  0  0  0  0
   -7.2260   16.3490  -33.8420 O   0  0  0  0  0  0  0  0  0  0  0  0
   -7.1150   18.7760  -32.7210 C   0  0  0  0  0  0  0  0  0  0  0  0
   -8.4210   18.6970  -32.2170 C   0  0  0  0  0  0  0  0  0  0  0  0
   -9.1020   19.8610  -31.8500 C   0  0  0  0  0  0  0  0  0  0  0  0
   -8.4840   21.1070  -31.9810 C   0  0  0  0  0  0  0  0  0  0  0  0
   -7.1760   21.2000  -32.4710 C   0  0  0  0  0  0  0  0  0  0  0  0
   -6.5960   22.4700  -32.6050 O   0  0  0  0  0  0  0  0  0  0  0  0
   -6.1780   23.2900  -31.5460 C   0  0  0  0  0  0  0  0  0  0  0  0
   -7.0670   24.1490  -30.8790 C   0  0  0  0  0  0  0  0  0  0  0  0
   -6.6100   24.9600  -29.8390 C   0  0  0  0  0  0  0  0  0  0  0  0
   -5.2650   24.9310  -29.4630 C   0  0  0  0  0  0  0  0  0  0  0  0
   -4.3560   24.0920  -30.1330 C   0  0  0  0  0  0  0  0  0  0  0  0
   -2.9270   24.0650  -29.7390 C   0  0  0  0  0  0  0  0  0  0  0  0
   -2.3050   22.9680  -29.7080 O   0  0  0  0  0  0  0  0  0  0  0  0
   -2.2680   25.2750  -29.3430 N   0  0  0  0  0  0  0  0  0  0  0  0
   -1.7700   25.5900  -28.0340 C   0  0  0  0  0  0  0  0  0  0  0  0
   -2.3970   25.0150  -26.9200 C   0  0  0  0  0  0  0  0  0  0  0  0
   -1.9550   25.3110  -25.6270 C   0  0  0  0  0  0  0  0  0  0  0  0
   -0.8920   26.1970  -25.4380 C   0  0  0  0  0  0  0  0  0  0  0  0
   -0.2760   26.7960  -26.5400 C   0  0  0  0  0  0  0  0  0  0  0  0
    0.7420   27.6730  -26.3530 F   0  0  0  0  0  0  0  0  0  0  0  0
   -0.7150   26.5000  -27.8350 C   0  0  0  0  0  0  0  0  0  0  0  0
   -4.8270   23.2780  -31.1800 C   0  0  0  0  0  0  0  0  0  0  0  0
   -6.5010   20.0280  -32.8610 C   0  0  0  0  0  0  0  0  0  0  0  0
   -4.0867   18.0457  -33.8546 H   0  0  0  0  0  0  0  0  0  0  0  0
   -4.7776   16.8677  -35.0214 H   0  0  0  0  0  0  0  0  0  0  0  0
   -5.3472   18.5713  -35.0214 H   0  0  0  0  0  0  0  0  0  0  0  0
   -8.9103   17.7176  -32.1103 H   0  0  0  0  0  0  0  0  0  0  0  0
  -10.1273   19.7959  -31.4570 H   0  0  0  0  0  0  0  0  0  0  0  0
   -9.0282   22.0200  -31.6976 H   0  0  0  0  0  0  0  0  0  0  0  0
   -8.1254   24.1826  -31.1769 H   0  0  0  0  0  0  0  0  0  0  0  0
   -7.3116   25.6245  -29.3135 H   0  0  0  0  0  0  0  0  0  0  0  0
   -4.9144   25.5682  -28.6378 H   0  0  0  0  0  0  0  0  0  0  0  0
   -3.2425   24.3262  -27.0640 H   0  0  0  0  0  0  0  0  0  0  0  0
   -2.4445   24.8461  -24.7585 H   0  0  0  0  0  0  0  0  0  0  0  0
   -0.5394   26.4234  -24.4209 H   0  0  0  0  0  0  0  0  0  0  0  0
   -0.2342   26.9799  -28.7002 H   0  0  0  0  0  0  0  0  0  0  0  0
   -4.1246   22.6241  -31.7175 H   0  0  0  0  0  0  0  0  0  0  0  0
   -5.4854   20.0952  -33.2782 H   0  0  0  0  0  0  0  0  0  0  0  0
  1  2  1  0
  2  3  2  0
  2  4  2  0
  2  5  1  0
  5  6  2  0
  6  7  1  0
  7  8  2  0
  8  9  1  0
  9 10  1  0
 10 11  1  0
 11 12  2  0
 12 13  1  0
 13 14  2  0
 14 15  1  0
 15 16  1  0
 16 17  2  0
 16 18  1  0
 18 19  1  0
 19 20  2  0
 20 21  1  0
 21 22  2  0
 22 23  1  0
 23 24  1  0
 23 25  2  0
 15 26  2  0
  9 27  2  0
 27  5  1  0
 26 11  1  0
 25 19  1  0
  1 28  1  0
  1 29  1  0
  1 30  1  0
  6 31  1  0
  7 32  1  0
  8 33  1  0
 12 34  1  0
 13 35  1  0
 14 36  1  0
 20 37  1  0
 21 38  1  0
 22 39  1  0
 25 40  1  0
 26 41  1  0
 27 42  1  0
M  CHG  1  18  -1
M  END
>  <UniqueID>  (2) 
2

>  <SMILES>  (2) 
CS(=O)(=O)c1cccc(Oc2cccc(C(=O)[N-]c3cccc(F)c3)c2)c1

>  <Energy>  (2) 
52.74915419073452

>  <Genealogy>  (2) 
CS(=O)(=O)c1cccc(Oc2cccc(C(=O)[N-]c3cccc(F)c3)c2)c1 (protonated)
CS(=O)(=O)c1cccc(Oc2cccc(C(=O)[N-]c3cccc(F)c3)c2)c1 (3D coordinates assigned)
CS(=O)(=O)c1cccc(Oc2cccc(C(=O)[N-]c3cccc(F)c3)c2)c1 (optimized conformer: 52.74915419073452 kcal/mol)

>  <smiles>  (2) 
CS(=O)(=O)c1cccc(Oc2cccc(C(=O)Nc3cccc(F)c3)c2)c1

>  <score_type>  (2) 
oracle

>  <origin>  (2) 
adgpu

>  <m_score__min__energy>  (2) 
-10.58

>  <m_primary>  (2) 
energy

$$$$
2:0
     RDKit          3D

 53 55  0  0  0  0  0  0  0  0999 V2000
   -5.0770   18.0350  -34.6230 C   0  0  0  0  0  0  0  0  0  0  0  0
   -6.0090   18.8520  -33.8320 N   0  0  0  0  0  0  0  0  0  0  0  0
   -6.8130   17.9870  -32.9620 C   0  0  0  0  0  0  0  0  0  0  0  0
   -5.1080   19.9900  -32.8550 S   0  0  0  0  0  0  0  0  0  0  0  0
   -4.5960   19.3040  -31.6190 O   0  0  0  0  0  0  0  0  0  0  0  0
   -3.9450   20.5140  -33.6530 O   0  0  0  0  0  0  0  0  0  0  0  0
   -6.1430   21.3380  -32.3530 C   0  0  0  0  0  0  0  0  0  0  0  0
   -7.5080   21.0990  -32.1320 C   0  0  0  0  0  0  0  0  0  0  0  0
   -8.3570   22.1370  -31.7500 C   0  0  0  0  0  0  0  0  0  0  0  0
   -7.8570   23.4280  -31.5930 C   0  0  0  0  0  0  0  0  0  0  0  0
   -6.5020   23.6950  -31.8150 C   0  0  0  0  0  0  0  0  0  0  0  0
   -6.0330   25.0360  -31.6210 N   0  0  0  0  0  0  0  0  0  0  0  0
   -5.2810   25.4960  -30.4920 C   0  0  0  0  0  0  0  0  0  0  0  0
   -5.8460   26.1470  -29.5740 O   0  0  0  0  0  0  0  0  0  0  0  0
   -3.8760   25.2350  -30.3940 N   0  0  0  0  0  0  0  0  0  0  0  0
   -3.2500   24.2710  -29.5340 C   0  0  0  0  0  0  0  0  0  0  0  0
   -3.8810   23.0640  -29.1860 C   0  0  0  0  0  0  0  0  0  0  0  0
   -3.2520   22.1670  -28.3180 C   0  0  0  0  0  0  0  0  0  0  0  0
   -1.9970   22.4710  -27.7840 C   0  0  0  0  0  0  0  0  0  0  0  0
   -1.3670   23.6780  -28.1100 C   0  0  0  0  0  0  0  0  0  0  0  0
    0.1960   24.0900  -27.4110 S   0  0  0  0  0  0  0  0  0  0  0  0
    1.1220   24.5340  -28.5080 O   0  0  0  0  0  0  0  0  0  0  0  0
    0.7900   22.8810  -26.7410 O   0  0  0  0  0  0  0  0  0  0  0  0
   -0.0120   25.3870  -26.2620 N   0  0  0  0  0  0  0  0  0  0  0  0
   -0.4360   26.6200  -26.9240 C   0  0  0  0  0  0  0  0  0  0  0  0
   -1.2100   27.4210  -25.8900 C   0  0  0  0  0  0  0  0  0  0  0  0
   -1.6330   26.4110  -24.8320 C   0  0  0  0  0  0  0  0  0  0  0  0
   -1.0670   25.0780  -25.2970 C   0  0  0  0  0  0  0  0  0  0  0  0
   -2.0040   24.5810  -28.9730 C   0  0  0  0  0  0  0  0  0  0  0  0
   -5.6240   22.6400  -32.1440 C   0  0  0  0  0  0  0  0  0  0  0  0
   -4.2520   22.9000  -32.2090 O   0  0  0  0  0  0  0  0  0  0  0  0
   -4.4250   17.4635  -33.9460 H   0  0  0  0  0  0  0  0  0  0  0  0
   -5.6464   17.3398  -35.2574 H   0  0  0  0  0  0  0  0  0  0  0  0
   -4.4623   18.6905  -35.2574 H   0  0  0  0  0  0  0  0  0  0  0  0
   -6.5952   18.2213  -31.9096 H   0  0  0  0  0  0  0  0  0  0  0  0
   -7.8812   18.1570  -33.1620 H   0  0  0  0  0  0  0  0  0  0  0  0
   -6.5655   16.9340  -33.1620 H   0  0  0  0  0  0  0  0  0  0  0  0
   -7.9117   20.0840  -32.2612 H   0  0  0  0  0  0  0  0  0  0  0  0
   -9.4238   21.9362  -31.5722 H   0  0  0  0  0  0  0  0  0  0  0  0
   -8.5323   24.2427  -31.2925 H   0  0  0  0  0  0  0  0  0  0  0  0
   -4.8725   22.8248  -29.5979 H   0  0  0  0  0  0  0  0  0  0  0  0
   -3.7458   21.2200  -28.0548 H   0  0  0  0  0  0  0  0  0  0  0  0
   -1.5027   21.7600  -27.1056 H   0  0  0  0  0  0  0  0  0  0  0  0
    0.4413   27.1886  -27.2663 H   0  0  0  0  0  0  0  0  0  0  0  0
   -1.0567   26.4046  -27.8063 H   0  0  0  0  0  0  0  0  0  0  0  0
   -0.5698   28.1979  -25.4466 H   0  0  0  0  0  0  0  0  0  0  0  0
   -2.0749   27.9357  -26.3340 H   0  0  0  0  0  0  0  0  0  0  0  0
   -1.2173   26.6844  -23.8509 H   0  0  0  0  0  0  0  0  0  0  0  0
   -2.7263   26.3733  -24.7164 H   0  0  0  0  0  0  0  0  0  0  0  0
   -0.6502   24.5238  -24.4431 H   0  0  0  0  0  0  0  0  0  0  0  0
   -1.8488   24.4510  -25.7505 H   0  0  0  0  0  0  0  0  0  0  0  0
   -1.5217   25.5404  -29.2115 H   0  0  0  0  0  0  0  0  0  0  0  0
   -3.8380   23.7880  -31.9640 H   0  0  0  0  0  0  0  0  0  0  0  0
  1  2  1  0
  2  3  1  0
  2  4  1  0
  4  5  2  0
  4  6  2  0
  4  7  1  0
  7  8  2  0
  8  9  1  0
  9 10  2  0
 10 11  1  0
 11 12  1  0
 12 13  1  0
 13 14  2  0
 13 15  1  0
 15 16  1  0
 16 17  2  0
 17 18  1  0
 18 19  2  0
 19 20  1  0
 20 21  1  0
 21 22  2  0
 21 23  2  0
 21 24  1  0
 24 25  1  0
 25 26  1  0
 26 27  1  0
 27 28  1  0
 20 29  2  0
 11 30  2  0
 30 31  1  0
 30  7  1  0
 29 16  1  0
 28 24  1  0
  1 32  1  0
  1 33  1  0
  1 34  1  0
  3 35  1  0
  3 36  1  0
  3 37  1  0
  8 38  1  0
  9 39  1  0
 10 40  1  0
 17 41  1  0
 18 42  1  0
 19 43  1  0
 25 44  1  0
 25 45  1  0
 26 46  1  0
 26 47  1  0
 27 48  1  0
 27 49  1  0
 28 50  1  0
 28 51  1  0
 29 52  1  0
 31 53  1  0
M  CHG  2  12  -1  15  -1
M  END
>  <UniqueID>  (3) 
3

>  <SMILES>  (3) 
CN(C)S(=O)(=O)c1cccc([N-]C(=O)[N-]c2cccc(S(=O)(=O)N3CCCC3)c2)c1O

>  <Energy>  (3) 
64.19902516225302

>  <Genealogy>  (3) 
CN(C)S(=O)(=O)c1cccc([N-]C(=O)[N-]c2cccc(S(=O)(=O)N3CCCC3)c2)c1O (protonated)
CN(C)S(=O)(=O)c1cccc([N-]C(=O)[N-]c2cccc(S(=O)(=O)N3CCCC3)c2)c1O (3D coordinates assigned)
CN(C)S(=O)(=O)c1cccc([N-]C(=O)[N-]c2cccc(S(=O)(=O)N3CCCC3)c2)c1O (nonaromatic ring conformer: 64.19902516225302 kcal/mol)

>  <smiles>  (3) 
CN(C)S(=O)(=O)c1cccc(NC(=O)Nc2cccc(S(=O)(=O)N3CCCC3)c2)c1O

>  <score_type>  (3) 
oracle

>  <origin>  (3) 
adgpu

>  <m_score__min__energy>  (3) 
-14.07

>  <m_primary>  (3) 
energy

$$$$
3:0
     RDKit          3D

 73 77  0  0  0  0  0  0  0  0999 V2000
    1.4120   21.8900  -34.7130 O   0  0  0  0  0  0  0  0  0  0  0  0
    0.6580   21.2570  -33.9220 C   0  0  0  0  0  0  0  0  0  0  0  0
   -0.6940   21.6890  -33.7090 N   0  0  0  0  0  0  0  0  0  0  0  0
   -1.8610   20.8630  -33.5990 C   0  0  0  0  0  0  0  0  0  0  0  0
   -1.8480   19.6090  -34.2210 C   0  0  0  0  0  0  0  0  0  0  0  0
   -2.9750   18.7850  -34.1770 C   0  0  0  0  0  0  0  0  0  0  0  0
   -4.1390   19.2120  -33.5270 C   0  0  0  0  0  0  0  0  0  0  0  0
   -5.5840   18.1960  -33.5290 S   0  0  0  0  0  0  0  0  0  0  0  0
   -6.0850   18.0490  -34.9380 O   0  0  0  0  0  0  0  0  0  0  0  0
   -5.2210   16.8270  -33.0240 O   0  0  0  0  0  0  0  0  0  0  0  0
   -6.8540   18.8530  -32.5250 N   0  0  0  0  0  0  0  0  0  0  0  0
   -7.4120   20.0720  -33.1290 C   0  0  0  0  0  0  0  0  0  0  0  0
   -8.5530   20.6280  -32.2470 C   0  0  0  0  0  0  0  0  0  0  0  0
   -8.8080   19.8000  -31.1260 O   0  0  0  0  0  0  0  0  0  0  0  0
   -9.1050   18.4850  -31.5560 C   0  0  0  0  0  0  0  0  0  0  0  0
   -7.9100   17.8530  -32.3030 C   0  0  0  0  0  0  0  0  0  0  0  0
   -4.1570   20.4720  -32.9140 C   0  0  0  0  0  0  0  0  0  0  0  0
   -3.0290   21.2950  -32.9500 C   0  0  0  0  0  0  0  0  0  0  0  0
    1.1960   20.1200  -33.1380 C   0  0  0  0  0  0  0  0  0  0  0  0
    2.4810   19.6190  -33.3980 C   0  0  0  0  0  0  0  0  0  0  0  0
    2.9890   18.5550  -32.6460 C   0  0  0  0  0  0  0  0  0  0  0  0
    2.2380   18.0030  -31.6060 C   0  0  0  0  0  0  0  0  0  0  0  0
    2.7450   16.9230  -30.8890 O   0  0  0  0  0  0  0  0  0  0  0  0
    0.9680   18.5190  -31.3110 C   0  0  0  0  0  0  0  0  0  0  0  0
    0.1940   17.9930  -30.2330 N   0  0  0  0  0  0  0  0  0  0  0  0
    0.0430   18.8290  -28.7200 S   0  0  0  0  0  0  0  0  0  0  0  0
    1.4110   19.2260  -28.2370 O   0  0  0  0  0  0  0  0  0  0  0  0
   -0.5690   17.9100  -27.6960 O   0  0  0  0  0  0  0  0  0  0  0  0
   -0.9550   20.2670  -28.9140 C   0  0  0  0  0  0  0  0  0  0  0  0
   -2.1740   20.3850  -28.2330 C   0  0  0  0  0  0  0  0  0  0  0  0
   -2.9200   21.5640  -28.3270 C   0  0  0  0  0  0  0  0  0  0  0  0
   -2.4620   22.6320  -29.1120 C   0  0  0  0  0  0  0  0  0  0  0  0
   -3.3760   24.1410  -29.1760 S   0  0  0  0  0  0  0  0  0  0  0  0
   -2.4210   25.2950  -29.0070 O   0  0  0  0  0  0  0  0  0  0  0  0
   -4.3530   24.1670  -28.0300 O   0  0  0  0  0  0  0  0  0  0  0  0
   -4.2070   24.2600  -30.7190 N   0  0  0  0  0  0  0  0  0  0  0  0
   -4.8360   22.9820  -31.1390 C   0  0  0  0  0  0  0  0  0  0  0  0
   -6.3790   22.9830  -31.0710 C   0  0  0  0  0  0  0  0  0  0  0  0
   -6.8770   23.7680  -29.8590 C   0  0  0  0  0  0  0  0  0  0  0  0
   -6.3600   25.2160  -29.8660 C   0  0  0  0  0  0  0  0  0  0  0  0
   -5.1270   25.4110  -30.7710 C   0  0  0  0  0  0  0  0  0  0  0  0
   -1.2560   22.5000  -29.8150 C   0  0  0  0  0  0  0  0  0  0  0  0
   -0.5050   21.3240  -29.7150 C   0  0  0  0  0  0  0  0  0  0  0  0
    0.4410   19.5550  -32.0920 C   0  0  0  0  0  0  0  0  0  0  0  0
   -0.9439   19.2701  -34.7481 H   0  0  0  0  0  0  0  0  0  0  0  0
   -2.9477   17.7950  -34.6558 H   0  0  0  0  0  0  0  0  0  0  0  0
   -6.6193   20.8294  -33.2183 H   0  0  0  0  0  0  0  0  0  0  0  0
   -7.8122   19.8296  -34.1245 H   0  0  0  0  0  0  0  0  0  0  0  0
   -8.2712   21.6302  -31.8917 H   0  0  0  0  0  0  0  0  0  0  0  0
   -9.4674   20.6651  -32.8574 H   0  0  0  0  0  0  0  0  0  0  0  0
   -9.3456   17.8672  -30.6783 H   0  0  0  0  0  0  0  0  0  0  0  0
   -9.9598   18.5314  -32.2468 H   0  0  0  0  0  0  0  0  0  0  0  0
   -7.5044   17.0254  -31.7025 H   0  0  0  0  0  0  0  0  0  0  0  0
   -8.2570   17.4796  -33.2778 H   0  0  0  0  0  0  0  0  0  0  0  0
   -5.0669   20.8157  -32.4003 H   0  0  0  0  0  0  0  0  0  0  0  0
   -3.0556   22.2838  -32.4689 H   0  0  0  0  0  0  0  0  0  0  0  0
    3.0913   20.0653  -34.1969 H   0  0  0  0  0  0  0  0  0  0  0  0
    3.9860   18.1505  -32.8750 H   0  0  0  0  0  0  0  0  0  0  0  0
   -2.5450   19.5482  -27.6230 H   0  0  0  0  0  0  0  0  0  0  0  0
   -3.8713   21.6542  -27.7822 H   0  0  0  0  0  0  0  0  0  0  0  0
   -4.5366   22.7750  -32.1771 H   0  0  0  0  0  0  0  0  0  0  0  0
   -4.4892   22.2124  -30.4337 H   0  0  0  0  0  0  0  0  0  0  0  0
   -6.7784   23.4443  -31.9863 H   0  0  0  0  0  0  0  0  0  0  0  0
   -6.7247   21.9428  -30.9788 H   0  0  0  0  0  0  0  0  0  0  0  0
   -7.9768   23.7824  -29.8713 H   0  0  0  0  0  0  0  0  0  0  0  0
   -6.4986   23.2738  -28.9520 H   0  0  0  0  0  0  0  0  0  0  0  0
   -7.1654   25.8740  -30.2243 H   0  0  0  0  0  0  0  0  0  0  0  0
   -6.0557   25.4618  -28.8379 H   0  0  0  0  0  0  0  0  0  0  0  0
   -5.4673   25.5452  -31.8084 H   0  0  0  0  0  0  0  0  0  0  0  0
   -4.5809   26.2949  -30.4098 H   0  0  0  0  0  0  0  0  0  0  0  0
   -0.8986   23.3253  -30.4483 H   0  0  0  0  0  0  0  0  0  0  0  0
    0.4417   21.2292  -30.2671 H   0  0  0  0  0  0  0  0  0  0  0  0
   -0.5721   19.9310  -31.8866 H   0  0  0  0  0  0  0  0  0  0  0  0
  1  2  2  0
  2  3  1  0
  3  4  1  0
  4  5  2  0
  5  6  1  0
  6  7  2  0
  7  8  1  0
  8  9  2  0
  8 10  2  0
  8 11  1  0
 11 12  1  0
 12 13  1  0
 13 14  1  0
 14 15  1  0
 15 16  1  0
  7 17  1  0
 17 18  2  0
  2 19  1  0
 19 20  2  0
 20 21  1  0
 21 22  2  0
 22 23  1  0
 22 24  1  0
 24 25  1  0
 25 26  1  0
 26 27  2  0
 26 28  2  0
 26 29  1  0
 29 30  2  0
 30 31  1  0
 31 32  2  0
 32 33  1  0
 33 34  2  0
 33 35  2  0
 33 36  1  0
 36 37  1  0
 37 38  1  0
 38 39  1  0
 39 40  1  0
 40 41  1  0
 32 42  1  0
 42 43  2  0
 24 44  2  0
 18  4  1  0
 44 19  1  0
 16 11  1  0
 43 29  1  0
 41 36  1  0
  5 45  1  0
  6 46  1  0
 12 47  1  0
 12 48  1  0
 13 49  1  0
 13 50  1  0
 15 51  1  0
 15 52  1  0
 16 53  1  0
 16 54  1  0
 17 55  1  0
 18 56  1  0
 20 57  1  0
 21 58  1  0
 30 59  1  0
 31 60  1  0
 37 61  1  0
 37 62  1  0
 38 63  1  0
 38 64  1  0
 39 65  1  0
 39 66  1  0
 40 67  1  0
 40 68  1  0
 41 69  1  0
 41 70  1  0
 42 71  1  0
 43 72  1  0
 44 73  1  0
M  CHG  3   3  -1  23  -1  25  -1
M  END
>  <UniqueID>  (4) 
4

>  <SMILES>  (4) 
O=C([N-]c1ccc(S(=O)(=O)N2CCOCC2)cc1)c1ccc([O-])c([N-]S(=O)(=O)c2ccc(S(=O)(=O)N3CCCCC3)cc2)c1

>  <Energy>  (4) 
107.98641605499093

>  <Genealogy>  (4) 
O=C([N-]c1ccc(S(=O)(=O)N2CCOCC2)cc1)c1ccc([O-])c([N-]S(=O)(=O)c2ccc(S(=O)(=O)N3CCCCC3)cc2)c1 (protonated)
O=C([N-]c1ccc(S(=O)(=O)N2CCOCC2)cc1)c1ccc([O-])c([N-]S(=O)(=O)c2ccc(S(=O)(=O)N3CCCCC3)cc2)c1 (3D coordinates assigned)
O=C([N-]c1ccc(S(=O)(=O)N2CCOCC2)cc1)c1ccc([O-])c([N-]S(=O)(=O)c2ccc(S(=O)(=O)N3CCCCC3)cc2)c1 (nonaromatic ring conformer: 107.98641605499093 kcal/mol)

>  <smiles>  (4) 
O=C(Nc1ccc(S(=O)(=O)N2CCOCC2)cc1)c1ccc(O)c(NS(=O)(=O)c2ccc(S(=O)(=O)N3CCCCC3)cc2)c1

>  <score_type>  (4) 
oracle

>  <origin>  (4) 
adgpu

>  <m_score__min__energy>  (4) 
-17.379999999999999

>  <m_primary>  (4) 
energy

$$$$
4:0
     RDKit          3D

 48 49  0  0  0  0  0  0  0  0999 V2000
   -4.2990   24.9290  -26.3650 C   0  0  0  0  0  0  0  0  0  0  0  0
   -4.5320   24.6350  -27.7830 N   0  0  0  0  0  0  0  0  0  0  0  0
   -3.4430   23.8250  -28.3690 C   0  0  0  0  0  0  0  0  0  0  0  0
   -2.8920   24.4180  -29.6770 C   0  0  0  0  0  0  0  0  0  0  0  0
   -3.8790   25.2760  -30.3310 N   0  0  0  0  0  0  0  0  0  0  0  0
   -5.2930   25.0470  -30.3990 C   0  0  0  0  0  0  0  0  0  0  0  0
   -6.0660   25.8790  -29.8540 O   0  0  0  0  0  0  0  0  0  0  0  0
   -5.8740   23.8740  -31.0800 C   0  0  0  0  0  0  0  0  0  0  0  0
   -7.2070   23.5200  -30.8420 C   0  0  0  0  0  0  0  0  0  0  0  0
   -7.7580   22.3960  -31.4590 C   0  0  0  0  0  0  0  0  0  0  0  0
   -6.9710   21.5860  -32.2990 C   0  0  0  0  0  0  0  0  0  0  0  0
   -7.4870   20.4410  -32.9260 O   0  0  0  0  0  0  0  0  0  0  0  0
   -8.4740   19.5850  -32.3570 C   0  0  0  0  0  0  0  0  0  0  0  0
   -5.6230   21.9110  -32.5120 C   0  0  0  0  0  0  0  0  0  0  0  0
   -4.8570   21.0490  -33.3170 O   0  0  0  0  0  0  0  0  0  0  0  0
   -3.6870   20.3290  -32.9150 C   0  0  0  0  0  0  0  0  0  0  0  0
   -3.2730   19.2920  -33.9690 C   0  0  0  0  0  0  0  0  0  0  0  0
   -4.1830   18.0870  -33.9820 C   0  0  0  0  0  0  0  0  0  0  0  0
   -5.5740   18.2880  -33.9220 C   0  0  0  0  0  0  0  0  0  0  0  0
   -6.4540   17.2070  -34.0120 C   0  0  0  0  0  0  0  0  0  0  0  0
   -5.9570   15.9110  -34.1590 C   0  0  0  0  0  0  0  0  0  0  0  0
   -7.0640   14.5570  -34.2900 Cl  0  0  0  0  0  0  0  0  0  0  0  0
   -4.5780   15.6930  -34.2070 C   0  0  0  0  0  0  0  0  0  0  0  0
   -3.6860   16.7690  -34.1170 C   0  0  0  0  0  0  0  0  0  0  0  0
   -1.9620   16.4210  -34.2040 Cl  0  0  0  0  0  0  0  0  0  0  0  0
   -5.0850   23.0670  -31.9120 C   0  0  0  0  0  0  0  0  0  0  0  0
   -4.8635   24.2167  -25.7453 H   0  0  0  0  0  0  0  0  0  0  0  0
   -3.2255   24.8375  -26.1431 H   0  0  0  0  0  0  0  0  0  0  0  0
   -4.6333   25.9532  -26.1431 H   0  0  0  0  0  0  0  0  0  0  0  0
   -4.5860   25.5490  -28.2900 H   0  0  0  0  0  0  0  0  0  0  0  0
   -5.4610   24.1660  -27.8900 H   0  0  0  0  0  0  0  0  0  0  0  0
   -2.6220   23.7608  -27.6397 H   0  0  0  0  0  0  0  0  0  0  0  0
   -3.8593   22.8347  -28.6056 H   0  0  0  0  0  0  0  0  0  0  0  0
   -1.9949   25.0128  -29.4503 H   0  0  0  0  0  0  0  0  0  0  0  0
   -2.6488   23.5888  -30.3577 H   0  0  0  0  0  0  0  0  0  0  0  0
   -7.8232   24.1305  -30.1655 H   0  0  0  0  0  0  0  0  0  0  0  0
   -8.8143   22.1414  -31.2877 H   0  0  0  0  0  0  0  0  0  0  0  0
   -8.4151   19.6361  -31.2598 H   0  0  0  0  0  0  0  0  0  0  0  0
   -9.4728   19.9076  -32.6860 H   0  0  0  0  0  0  0  0  0  0  0  0
   -8.2959   18.5506  -32.6860 H   0  0  0  0  0  0  0  0  0  0  0  0
   -2.8612   21.0412  -32.7710 H   0  0  0  0  0  0  0  0  0  0  0  0
   -3.9141   19.7974  -31.9792 H   0  0  0  0  0  0  0  0  0  0  0  0
   -3.3014   19.7664  -34.9610 H   0  0  0  0  0  0  0  0  0  0  0  0
   -2.2605   18.9440  -33.7164 H   0  0  0  0  0  0  0  0  0  0  0  0
   -5.9726   19.3063  -33.8031 H   0  0  0  0  0  0  0  0  0  0  0  0
   -7.5398   17.3772  -33.9670 H   0  0  0  0  0  0  0  0  0  0  0  0
   -4.1901   14.6695  -34.3162 H   0  0  0  0  0  0  0  0  0  0  0  0
   -4.0356   23.3390  -32.0982 H   0  0  0  0  0  0  0  0  0  0  0  0
  1  2  1  0
  2  3  1  0
  3  4  1  0
  4  5  1  0
  5  6  1  0
  6  7  2  0
  6  8  1  0
  8  9  2  0
  9 10  1  0
 10 11  2  0
 11 12  1  0
 12 13  1  0
 11 14  1  0
 14 15  1  0
 15 16  1  0
 16 17  1  0
 17 18  1  0
 18 19  2  0
 19 20  1  0
 20 21  2  0
 21 22  1  0
 21 23  1  0
 23 24  2  0
 24 25  1  0
 14 26  2  0
 26  8  1  0
 24 18  1  0
  1 27  1  0
  1 28  1  0
  1 29  1  0
  2 30  1  0
  2 31  1  0
  3 32  1  0
  3 33  1  0
  4 34  1  0
  4 35  1  0
  9 36  1  0
 10 37  1  0
 13 38  1  0
 13 39  1  0
 13 40  1  0
 16 41  1  0
 16 42  1  0
 17 43  1  0
 17 44  1  0
 19 45  1  0
 20 46  1  0
 23 47  1  0
 26 48  1  0
M  CHG  2   2   1   5  -1
M  END
>  <UniqueID>  (5) 
5

>  <SMILES>  (5) 
C[NH2+]CC[N-]C(=O)c1ccc(OC)c(OCCc2ccc(Cl)cc2Cl)c1

>  <Energy>  (5) 
48.78853986241865

>  <Genealogy>  (5) 
C[NH2+]CC[N-]C(=O)c1ccc(OC)c(OCCc2ccc(Cl)cc2Cl)c1 (protonated)
C[NH2+]CC[N-]C(=O)c1ccc(OC)c(OCCc2ccc(Cl)cc2Cl)c1 (3D coordinates assigned)
C[NH2+]CC[N-]C(=O)c1ccc(OC)c(OCCc2ccc(Cl)cc2Cl)c1 (optimized conformer: 48.78853986241865 kcal/mol)

>  <smiles>  (5) 
CNCCNC(=O)c1ccc(OC)c(OCCc2ccc(Cl)cc2Cl)c1

>  <score_type>  (5) 
oracle

>  <origin>  (5) 
adgpu

>  <m_score__min__energy>  (5) 
-8.9000000000000004

>  <m_primary>  (5) 
energy

$$$$
5:0
     RDKit          3D

 60 63  0  0  1  0  0  0  0  0999 V2000
   -3.9460   24.1590  -27.4410 C   0  0  0  0  0  0  0  0  0  0  0  0
   -3.1590   23.9260  -28.6870 C   0  0  0  0  0  0  0  0  0  0  0  0
   -4.1850   23.4670  -30.0760 S   0  0  0  0  0  0  0  0  0  0  0  0
   -5.3380   22.6960  -29.5580 O   0  0  0  0  0  0  0  0  0  0  0  0
   -4.5890   24.7120  -30.7860 O   0  0  0  0  0  0  0  0  0  0  0  0
   -3.2330   22.4880  -31.2080 C   0  0  0  0  0  0  0  0  0  0  0  0
   -2.0200   21.9850  -30.7780 C   0  0  0  0  0  0  0  0  0  0  0  0
   -1.2620   21.2670  -31.6760 C   0  0  0  0  0  0  0  0  0  0  0  0
   -1.6730   21.0330  -32.9840 C   0  0  0  0  0  0  0  0  0  0  0  0
   -0.7560   20.3420  -33.8070 N   0  0  0  0  0  0  0  0  0  0  0  0
   -0.9350   19.2270  -34.3500 C   0  0  0  0  0  0  0  0  0  0  0  0
   -2.0810   18.5610  -34.1890 N   0  0  0  0  0  0  0  0  0  0  0  0
   -2.1880   17.3640  -34.7780 C   0  0  0  0  0  0  0  0  0  0  0  0
   -3.2650   16.7170  -34.6970 N   0  0  0  0  0  0  0  0  0  0  0  0
   -4.4100   17.1470  -34.0260 C   0  0  0  0  0  0  0  0  0  0  0  0
   -4.6850   16.9720  -32.6930 C   0  0  0  0  0  0  0  0  0  0  0  0
   -5.7960   17.4850  -32.0600 C   0  0  0  0  0  0  0  0  0  0  0  0
   -6.6680   18.2200  -32.8440 C   0  0  0  0  0  0  0  0  0  0  0  0
   -7.8690   18.8720  -32.2730 C   0  0  0  0  0  0  0  0  0  0  0  0
   -8.8760   18.1850  -31.9450 O   0  0  0  0  0  0  0  0  0  0  0  0
   -7.8580   20.3130  -32.1000 N   0  0  0  0  0  0  0  0  0  0  0  0
   -9.0480   20.8810  -31.5500 C   0  0  0  0  0  0  0  0  0  0  0  0
   -9.0170   22.3630  -31.4480 C   0  0  0  0  0  0  0  0  0  0  0  0
   -7.9840   22.9750  -32.3470 C   0  0  0  0  0  0  0  0  0  0  0  0
   -6.5990   22.3880  -32.0470 C   0  0  0  0  0  0  0  0  0  0  0  0
   -6.6550   20.9740  -32.5080 C   0  0  0  0  0  0  0  0  0  0  0  0
   -6.4520   18.4270  -34.1770 C   0  0  0  0  0  0  0  0  0  0  0  0
   -5.3290   17.8940  -34.7700 C   0  0  0  0  0  0  0  0  0  0  0  0
   -1.1920   16.8100  -35.5190 N   0  0  0  0  0  0  0  0  0  0  0  0
   -0.0060   17.4550  -35.7080 C   0  0  0  0  0  0  0  0  0  0  0  0
    0.0930   18.6880  -35.0990 C   0  0  0  0  0  0  0  0  0  0  0  0
    1.6110   19.5600  -35.3010 Cl  0  0  0  0  0  0  0  0  0  0  0  0
   -2.8820   21.5360  -33.3950 C   0  0  0  0  0  0  0  0  0  0  0  0
   -3.6830   22.2720  -32.5160 C   0  0  0  0  0  0  0  0  0  0  0  0
   -3.3090   23.9704  -26.5643 H   0  0  0  0  0  0  0  0  0  0  0  0
   -4.2997   25.2004  -27.4200 H   0  0  0  0  0  0  0  0  0  0  0  0
   -4.8096   23.4780  -27.4200 H   0  0  0  0  0  0  0  0  0  0  0  0
   -2.6181   24.8500  -28.9394 H   0  0  0  0  0  0  0  0  0  0  0  0
   -2.4699   23.0908  -28.4930 H   0  0  0  0  0  0  0  0  0  0  0  0
   -1.6701   22.1531  -29.7488 H   0  0  0  0  0  0  0  0  0  0  0  0
   -0.2937   20.8628  -31.3459 H   0  0  0  0  0  0  0  0  0  0  0  0
   -2.8200   19.0030  -33.6120 H   0  0  0  0  0  0  0  0  0  0  0  0
   -3.9741   16.3856  -32.0924 H   0  0  0  0  0  0  0  0  0  0  0  0
   -5.9802   17.3192  -30.9883 H   0  0  0  0  0  0  0  0  0  0  0  0
   -9.8958   20.5957  -32.1902 H   0  0  0  0  0  0  0  0  0  0  0  0
   -9.1428   20.4926  -30.5252 H   0  0  0  0  0  0  0  0  0  0  0  0
  -10.0056   22.7573  -31.7257 H   0  0  0  0  0  0  0  0  0  0  0  0
   -8.7569   22.6231  -30.4113 H   0  0  0  0  0  0  0  0  0  0  0  0
   -8.2465   22.7673  -33.3948 H   0  0  0  0  0  0  0  0  0  0  0  0
   -7.9570   24.0607  -32.1723 H   0  0  0  0  0  0  0  0  0  0  0  0
   -5.8211   22.9400  -32.5950 H   0  0  0  0  0  0  0  0  0  0  0  0
   -6.3503   22.4579  -30.9778 H   0  0  0  0  0  0  0  0  0  0  0  0
   -6.5986   20.9583  -33.6064 H   0  0  0  0  0  0  0  0  0  0  0  0
   -5.8082   20.4395  -32.0527 H   0  0  0  0  0  0  0  0  0  0  0  0
   -7.1682   19.0138  -34.7710 H   0  0  0  0  0  0  0  0  0  0  0  0
   -5.1525   18.0580  -35.8433 H   0  0  0  0  0  0  0  0  0  0  0  0
   -1.2900   15.8690  -35.9720 H   0  0  0  0  0  0  0  0  0  0  0  0
    0.8123   17.0233  -36.3030 H   0  0  0  0  0  0  0  0  0  0  0  0
   -3.2241   21.3586  -34.4253 H   0  0  0  0  0  0  0  0  0  0  0  0
   -4.6515   22.6749  -32.8472 H   0  0  0  0  0  0  0  0  0  0  0  0
  1  2  1  0
  2  3  1  0
  3  4  2  0
  3  5  2  0
  3  6  1  0
  6  7  2  0
  7  8  1  0
  8  9  2  0
  9 10  1  0
 10 11  2  0
 11 12  1  0
 12 13  1  0
 13 14  2  0
 14 15  1  0
 15 16  2  0
 16 17  1  0
 17 18  2  0
 18 19  1  0
 19 20  2  0
 19 21  1  0
 21 22  1  0
 22 23  1  0
 23 24  1  0
 24 25  1  0
 25 26  1  0
 18 27  1  0
 27 28  2  0
 13 29  1  0
 29 30  1  0
 30 31  2  0
 31 32  1  0
  9 33  1  0
 33 34  2  0
 34  6  1  0
 31 11  1  0
 28 15  1  0
 26 21  1  0
  1 35  1  0
  1 36  1  0
  1 37  1  0
  2 38  1  0
  2 39  1  0
  7 40  1  0
  8 41  1  0
 12 42  1  0
 16 43  1  0
 17 44  1  0
 22 45  1  0
 22 46  1  0
 23 47  1  0
 23 48  1  0
 24 49  1  0
 24 50  1  0
 25 51  1  0
 25 52  1  0
 26 53  1  0
 26 54  1  0
 27 55  1  0
 28 56  1  0
 29 57  1  0
 30 58  1  0
 33 59  1  0
 34 60  1  0
M  END
>  <smiles>  (6) 
CCS(=O)(=O)c1ccc(N=c2[nH]c(=Nc3ccc(C(=O)N4CCCCC4)cc3)[nH]cc2Cl)cc1

>  <score_type>  (6) 
oracle

>  <origin>  (6) 
adgpu

>  <m_score__min__energy>  (6) 
-10.76

>  <m_primary>  (6) 
energy

$$$$
6:0
     RDKit          3D

 69 73  0  0  0  0  0  0  0  0999 V2000
   -1.5030   19.8910  -34.1680 C   0  0  0  0  0  0  0  0  0  0  0  0
   -1.4430   20.0560  -32.6300 C   0  0  0  0  0  0  0  0  0  0  0  0
   -1.1830   21.5480  -32.3280 C   0  0  0  0  0  0  0  0  0  0  0  0
   -2.8190   19.6500  -32.0600 C   0  0  0  0  0  0  0  0  0  0  0  0
   -0.3400   19.1990  -31.9730 C   0  0  0  0  0  0  0  0  0  0  0  0
    0.8900   19.7980  -31.6150 C   0  0  0  0  0  0  0  0  0  0  0  0
    1.9110   19.0530  -31.0210 C   0  0  0  0  0  0  0  0  0  0  0  0
    1.7370   17.6870  -30.7690 C   0  0  0  0  0  0  0  0  0  0  0  0
    2.8340   16.8940  -30.1050 C   0  0  0  0  0  0  0  0  0  0  0  0
    2.5470   16.6690  -28.6700 N   0  0  0  0  0  0  0  0  0  0  0  0
    1.1680   16.1190  -28.4720 C   0  0  0  0  0  0  0  0  0  0  0  0
    0.2540   16.9430  -27.5360 C   0  0  0  0  0  0  0  0  0  0  0  0
    0.4460   18.4120  -27.7760 C   0  0  0  0  0  0  0  0  0  0  0  0
   -0.6260   19.3140  -27.7840 C   0  0  0  0  0  0  0  0  0  0  0  0
   -0.3890   20.6820  -27.9920 C   0  0  0  0  0  0  0  0  0  0  0  0
   -1.7330   21.8170  -27.9060 S   0  0  0  0  0  0  0  0  0  0  0  0
   -2.9970   21.1210  -27.4840 O   0  0  0  0  0  0  0  0  0  0  0  0
   -1.4060   22.8800  -26.8940 O   0  0  0  0  0  0  0  0  0  0  0  0
   -1.9620   22.5500  -29.4610 N   0  0  0  0  0  0  0  0  0  0  0  0
   -3.2610   22.9370  -29.9420 C   0  0  0  0  0  0  0  0  0  0  0  0
   -4.2170   21.9670  -30.2940 C   0  0  0  0  0  0  0  0  0  0  0  0
   -5.4610   22.3470  -30.8030 C   0  0  0  0  0  0  0  0  0  0  0  0
   -5.7700   23.7110  -30.9620 C   0  0  0  0  0  0  0  0  0  0  0  0
   -4.8370   24.6810  -30.5700 C   0  0  0  0  0  0  0  0  0  0  0  0
   -3.5880   24.2990  -30.0690 C   0  0  0  0  0  0  0  0  0  0  0  0
   -2.6680   25.2820  -29.7150 O   0  0  0  0  0  0  0  0  0  0  0  0
   -7.1210   24.1200  -31.4950 C   0  0  0  0  0  0  0  0  0  0  0  0
   -7.7470   23.0060  -32.3450 C   0  0  0  0  0  0  0  0  0  0  0  0
   -7.7170   21.6800  -31.5800 C   0  0  0  0  0  0  0  0  0  0  0  0
   -6.3820   21.3630  -31.1840 O   0  0  0  0  0  0  0  0  0  0  0  0
    0.9240   21.1380  -28.1890 C   0  0  0  0  0  0  0  0  0  0  0  0
    1.9950   20.2390  -28.1520 C   0  0  0  0  0  0  0  0  0  0  0  0
    1.7520   18.8770  -27.9360 C   0  0  0  0  0  0  0  0  0  0  0  0
    2.8570   17.8660  -27.8480 C   0  0  0  0  0  0  0  0  0  0  0  0
    0.5240   17.0760  -31.1140 C   0  0  0  0  0  0  0  0  0  0  0  0
   -0.5000   17.8190  -31.7070 C   0  0  0  0  0  0  0  0  0  0  0  0
   -1.8693   18.8836  -34.4147 H   0  0  0  0  0  0  0  0  0  0  0  0
   -2.1852   20.6430  -34.5911 H   0  0  0  0  0  0  0  0  0  0  0  0
   -0.4971   20.0292  -34.5911 H   0  0  0  0  0  0  0  0  0  0  0  0
   -1.1561   21.7024  -31.2392 H   0  0  0  0  0  0  0  0  0  0  0  0
   -0.2190   21.8480  -32.7648 H   0  0  0  0  0  0  0  0  0  0  0  0
   -1.9887   22.1563  -32.7648 H   0  0  0  0  0  0  0  0  0  0  0  0
   -2.7785   19.6619  -30.9608 H   0  0  0  0  0  0  0  0  0  0  0  0
   -3.5836   20.3608  -32.4065 H   0  0  0  0  0  0  0  0  0  0  0  0
   -3.0753   18.6380  -32.4065 H   0  0  0  0  0  0  0  0  0  0  0  0
    1.0453   20.8698  -31.8078 H   0  0  0  0  0  0  0  0  0  0  0  0
    2.8579   19.5426  -30.7494 H   0  0  0  0  0  0  0  0  0  0  0  0
    2.9262   15.9202  -30.6083 H   0  0  0  0  0  0  0  0  0  0  0  0
    3.7705   17.4656  -30.1847 H   0  0  0  0  0  0  0  0  0  0  0  0
    0.6812   16.0606  -29.4567 H   0  0  0  0  0  0  0  0  0  0  0  0
    1.2984   15.1413  -27.9850 H   0  0  0  0  0  0  0  0  0  0  0  0
   -0.7959   16.6784  -27.7299 H   0  0  0  0  0  0  0  0  0  0  0  0
    0.5150   16.7153  -26.4920 H   0  0  0  0  0  0  0  0  0  0  0  0
   -1.6524   18.9507  -27.6275 H   0  0  0  0  0  0  0  0  0  0  0  0
   -1.1590   22.5080  -30.1290 H   0  0  0  0  0  0  0  0  0  0  0  0
   -3.9828   20.8997  -30.1673 H   0  0  0  0  0  0  0  0  0  0  0  0
   -5.0884   25.7484  -30.6568 H   0  0  0  0  0  0  0  0  0  0  0  0
   -7.7876   24.3422  -30.6487 H   0  0  0  0  0  0  0  0  0  0  0  0
   -6.9886   25.0081  -32.1304 H   0  0  0  0  0  0  0  0  0  0  0  0
   -8.7897   23.2683  -32.5776 H   0  0  0  0  0  0  0  0  0  0  0  0
   -7.1715   22.8973  -33.2762 H   0  0  0  0  0  0  0  0  0  0  0  0
   -8.3503   21.7639  -30.6845 H   0  0  0  0  0  0  0  0  0  0  0  0
   -8.0934   20.8813  -32.2361 H   0  0  0  0  0  0  0  0  0  0  0  0
    1.1113   22.2062  -28.3731 H   0  0  0  0  0  0  0  0  0  0  0  0
    3.0244   20.6006  -28.2921 H   0  0  0  0  0  0  0  0  0  0  0  0
    3.7906   18.3204  -28.2113 H   0  0  0  0  0  0  0  0  0  0  0  0
    2.9645   17.5535  -26.7988 H   0  0  0  0  0  0  0  0  0  0  0  0
    0.3770   16.0039  -30.9166 H   0  0  0  0  0  0  0  0  0  0  0  0
   -1.4456   17.3229  -31.9712 H   0  0  0  0  0  0  0  0  0  0  0  0
  1  2  1  0
  2  3  1  0
  2  4  1  0
  2  5  1  0
  5  6  2  0
  6  7  1  0
  7  8  2  0
  8  9  1  0
  9 10  1  0
 10 11  1  0
 11 12  1  0
 12 13  1  0
 13 14  2  0
 14 15  1  0
 15 16  1  0
 16 17  2  0
 16 18  2  0
 16 19  1  0
 19 20  1  0
 20 21  2  0
 21 22  1  0
 22 23  2  0
 23 24  1  0
 24 25  2  0
 25 26  1  0
 23 27  1  0
 27 28  1  0
 28 29  1  0
 29 30  1  0
 15 31  2  0
 31 32  1  0
 32 33  2  0
 33 34  1  0
  8 35  1  0
 35 36  2  0
 36  5  1  0
 34 10  1  0
 33 13  1  0
 25 20  1  0
 30 22  1  0
  1 37  1  0
  1 38  1  0
  1 39  1  0
  3 40  1  0
  3 41  1  0
  3 42  1  0
  4 43  1  0
  4 44  1  0
  4 45  1  0
  6 46  1  0
  7 47  1  0
  9 48  1  0
  9 49  1  0
 11 50  1  0
 11 51  1  0
 12 52  1  0
 12 53  1  0
 14 54  1  0
 19 55  1  0
 21 56  1  0
 24 57  1  0
 27 58  1  0
 27 59  1  0
 28 60  1  0
 28 61  1  0
 29 62  1  0
 29 63  1  0
 31 64  1  0
 32 65  1  0
 34 66  1  0
 34 67  1  0
 35 68  1  0
 36 69  1  0
M  CHG  1  26  -1
M  END
>  <UniqueID>  (7) 
6

>  <SMILES>  (7) 
CC(C)(C)c1ccc(CN2CCc3cc(S(=O)(=O)Nc4cc5c(cc4[O-])CCCO5)ccc3C2)cc1

>  <Energy>  (7) 
89.21054403519665

>  <Genealogy>  (7) 
CC(C)(C)c1ccc(CN2CCc3cc(S(=O)(=O)Nc4cc5c(cc4[O-])CCCO5)ccc3C2)cc1 (protonated)
CC(C)(C)c1ccc(CN2CCc3cc(S(=O)(=O)Nc4cc5c(cc4[O-])CCCO5)ccc3C2)cc1 (3D coordinates assigned)
CC(C)(C)c1ccc(CN2CCc3cc(S(=O)(=O)Nc4cc5c(cc4[O-])CCCO5)ccc3C2)cc1 (nonaromatic ring conformer: 89.21054403519665 kcal/mol)

>  <smiles>  (7) 
CC(C)(C)c1ccc(CN2CCc3cc(S(=O)(=O)Nc4cc5c(cc4O)CCCO5)ccc3C2)cc1

>  <score_type>  (7) 
oracle

>  <origin>  (7) 
adgpu

>  <m_score__min__energy>  (7) 
-14.35

>  <m_primary>  (7) 
energy

$$$$
7:0
     RDKit          3D

 43 45  0  0  0  0  0  0  0  0999 V2000
   -6.2550   25.8320  -29.7420 O   0  0  0  0  0  0  0  0  0  0  0  0
   -5.2390   24.7460  -29.9570 S   0  0  0  0  0  0  0  0  0  0  0  0
   -4.1880   25.2440  -30.9100 O   0  0  0  0  0  0  0  0  0  0  0  0
   -4.4920   24.3580  -28.4410 N   0  0  0  0  0  0  0  0  0  0  0  0
   -3.2580   23.6410  -28.2860 C   0  0  0  0  0  0  0  0  0  0  0  0
   -3.2180   22.3300  -27.7730 C   0  0  0  0  0  0  0  0  0  0  0  0
   -1.9970   21.6650  -27.6290 C   0  0  0  0  0  0  0  0  0  0  0  0
   -1.9560   20.0360  -26.9800 Cl  0  0  0  0  0  0  0  0  0  0  0  0
   -0.8070   22.2990  -28.0000 C   0  0  0  0  0  0  0  0  0  0  0  0
   -0.8380   23.5970  -28.5150 C   0  0  0  0  0  0  0  0  0  0  0  0
   -2.0590   24.2700  -28.6600 C   0  0  0  0  0  0  0  0  0  0  0  0
   -2.0880   25.5660  -29.1720 O   0  0  0  0  0  0  0  0  0  0  0  0
   -6.0510   23.3270  -30.6070 C   0  0  0  0  0  0  0  0  0  0  0  0
   -7.2290   22.8470  -30.0170 C   0  0  0  0  0  0  0  0  0  0  0  0
   -7.8770   21.7300  -30.5510 C   0  0  0  0  0  0  0  0  0  0  0  0
   -7.3530   21.0810  -31.6790 C   0  0  0  0  0  0  0  0  0  0  0  0
   -8.1510   19.6580  -32.3420 S   0  0  0  0  0  0  0  0  0  0  0  0
   -8.9390   18.9650  -31.2640 O   0  0  0  0  0  0  0  0  0  0  0  0
   -9.1010   20.0950  -33.4230 O   0  0  0  0  0  0  0  0  0  0  0  0
   -6.9620   18.5660  -33.0130 N   0  0  0  0  0  0  0  0  0  0  0  0
   -6.3650   19.1540  -34.2260 C   0  0  0  0  0  0  0  0  0  0  0  0
   -5.0020   18.5100  -34.5280 C   0  0  0  0  0  0  0  0  0  0  0  0
   -4.0410   18.6720  -33.4900 O   0  0  0  0  0  0  0  0  0  0  0  0
   -4.6130   18.9160  -32.2130 C   0  0  0  0  0  0  0  0  0  0  0  0
   -5.9530   18.1880  -31.9970 C   0  0  0  0  0  0  0  0  0  0  0  0
   -6.1680   21.5540  -32.2600 C   0  0  0  0  0  0  0  0  0  0  0  0
   -5.5210   22.6730  -31.7270 C   0  0  0  0  0  0  0  0  0  0  0  0
   -4.1525   21.8268  -27.4841 H   0  0  0  0  0  0  0  0  0  0  0  0
    0.1537   21.7754  -27.8862 H   0  0  0  0  0  0  0  0  0  0  0  0
    0.0992   24.0929  -28.8079 H   0  0  0  0  0  0  0  0  0  0  0  0
   -2.9630   26.0490  -29.3470 H   0  0  0  0  0  0  0  0  0  0  0  0
   -7.6440   23.3509  -29.1317 H   0  0  0  0  0  0  0  0  0  0  0  0
   -8.8015   21.3582  -30.0851 H   0  0  0  0  0  0  0  0  0  0  0  0
   -7.0401   18.9867  -35.0782 H   0  0  0  0  0  0  0  0  0  0  0  0
   -6.2182   20.2316  -34.0611 H   0  0  0  0  0  0  0  0  0  0  0  0
   -5.1569   17.4332  -34.6907 H   0  0  0  0  0  0  0  0  0  0  0  0
   -4.5996   19.0196  -35.4159 H   0  0  0  0  0  0  0  0  0  0  0  0
   -3.9041   18.5786  -31.4426 H   0  0  0  0  0  0  0  0  0  0  0  0
   -4.8141   19.9954  -32.1467 H   0  0  0  0  0  0  0  0  0  0  0  0
   -5.7807   17.1031  -32.0547 H   0  0  0  0  0  0  0  0  0  0  0  0
   -6.3411   18.4783  -31.0095 H   0  0  0  0  0  0  0  0  0  0  0  0
   -5.7459   21.0431  -33.1380 H   0  0  0  0  0  0  0  0  0  0  0  0
   -4.5928   23.0411  -32.1885 H   0  0  0  0  0  0  0  0  0  0  0  0
  1  2  2  0
  2  3  2  0
  2  4  1  0
  4  5  1  0
  5  6  2  0
  6  7  1  0
  7  8  1  0
  7  9  2  0
  9 10  1  0
 10 11  2  0
 11 12  1  0
  2 13  1  0
 13 14  2  0
 14 15  1  0
 15 16  2  0
 16 17  1  0
 17 18  2  0
 17 19  2  0
 17 20  1  0
 20 21  1  0
 21 22  1  0
 22 23  1  0
 23 24  1  0
 24 25  1  0
 16 26  1  0
 26 27  2  0
 11  5  1  0
 27 13  1  0
 25 20  1  0
  6 28  1  0
  9 29  1  0
 10 30  1  0
 12 31  1  0
 14 32  1  0
 15 33  1  0
 21 34  1  0
 21 35  1  0
 22 36  1  0
 22 37  1  0
 24 38  1  0
 24 39  1  0
 25 40  1  0
 25 41  1  0
 26 42  1  0
 27 43  1  0
M  CHG  1   4  -1
M  END
>  <UniqueID>  (8) 
7

>  <SMILES>  (8) 
O=S(=O)([N-]c1cc(Cl)ccc1O)c1ccc(S(=O)(=O)N2CCOCC2)cc1

>  <Energy>  (8) 
59.26213226657008

>  <Genealogy>  (8) 
O=S(=O)([N-]c1cc(Cl)ccc1O)c1ccc(S(=O)(=O)N2CCOCC2)cc1 (protonated)
O=S(=O)([N-]c1cc(Cl)ccc1O)c1ccc(S(=O)(=O)N2CCOCC2)cc1 (3D coordinates assigned)
O=S(=O)([N-]c1cc(Cl)ccc1O)c1ccc(S(=O)(=O)N2CCOCC2)cc1 (nonaromatic ring conformer: 59.26213226657008 kcal/mol)

>  <smiles>  (8) 
O=S(=O)(Nc1cc(Cl)ccc1O)c1ccc(S(=O)(=O)N2CCOCC2)cc1

>  <score_type>  (8) 
oracle

>  <origin>  (8) 
adgpu

>  <m_score__min__energy>  (8) 
-12.58

>  <m_primary>  (8) 
energy

$$$$
8:0
     RDKit          3D

 44 47  0  0  0  0  0  0  0  0999 V2000
   -3.8640   25.6690  -30.4730 O   0  0  0  0  0  0  0  0  0  0  0  0
   -3.7290   24.3160  -30.1850 C   0  0  0  0  0  0  0  0  0  0  0  0
   -4.0940   23.8300  -28.9260 C   0  0  0  0  0  0  0  0  0  0  0  0
   -3.9640   22.4690  -28.6360 C   0  0  0  0  0  0  0  0  0  0  0  0
   -3.4620   21.5920  -29.6020 C   0  0  0  0  0  0  0  0  0  0  0  0
   -3.0780   22.0770  -30.8620 C   0  0  0  0  0  0  0  0  0  0  0  0
   -2.5370   21.1490  -31.8770 C   0  0  0  0  0  0  0  0  0  0  0  0
   -1.2470   21.3870  -32.3800 C   0  0  0  0  0  0  0  0  0  0  0  0
   -0.7010   20.5400  -33.3450 C   0  0  0  0  0  0  0  0  0  0  0  0
   -1.4510   19.4720  -33.8490 C   0  0  0  0  0  0  0  0  0  0  0  0
   -2.7320   19.2210  -33.3570 C   0  0  0  0  0  0  0  0  0  0  0  0
   -3.2890   20.0470  -32.3630 C   0  0  0  0  0  0  0  0  0  0  0  0
   -4.7110   19.7900  -31.9160 C   0  0  0  0  0  0  0  0  0  0  0  0
   -5.6930   20.0210  -33.0690 C   0  0  0  0  0  0  0  0  0  0  0  0
   -6.8710   20.8320  -32.6030 C   0  0  0  0  0  0  0  0  0  0  0  0
   -8.1290   20.2280  -32.4380 C   0  0  0  0  0  0  0  0  0  0  0  0
   -9.2130   20.9780  -31.9700 C   0  0  0  0  0  0  0  0  0  0  0  0
   -9.0470   22.3290  -31.6550 C   0  0  0  0  0  0  0  0  0  0  0  0
   -7.7940   22.9320  -31.8020 C   0  0  0  0  0  0  0  0  0  0  0  0
   -6.7070   22.1860  -32.2700 C   0  0  0  0  0  0  0  0  0  0  0  0
   -0.9000   18.6690  -34.8520 O   0  0  0  0  0  0  0  0  0  0  0  0
    0.2770   19.0700  -35.5580 C   0  0  0  0  0  0  0  0  0  0  0  0
    1.2650   19.7460  -34.5990 C   0  0  0  0  0  0  0  0  0  0  0  0
    0.5970   20.7460  -33.8240 O   0  0  0  0  0  0  0  0  0  0  0  0
   -3.2270   23.4410  -31.1540 C   0  0  0  0  0  0  0  0  0  0  0  0
   -4.4839   24.5195  -28.1628 H   0  0  0  0  0  0  0  0  0  0  0  0
   -4.2570   22.0875  -27.6467 H   0  0  0  0  0  0  0  0  0  0  0  0
   -3.3678   20.5200  -29.3743 H   0  0  0  0  0  0  0  0  0  0  0  0
   -0.6650   22.2446  -32.0115 H   0  0  0  0  0  0  0  0  0  0  0  0
   -3.3108   18.3715  -33.7487 H   0  0  0  0  0  0  0  0  0  0  0  0
   -4.7982   18.7492  -31.5709 H   0  0  0  0  0  0  0  0  0  0  0  0
   -4.9554   20.4854  -31.0995 H   0  0  0  0  0  0  0  0  0  0  0  0
   -5.1799   20.5602  -33.8790 H   0  0  0  0  0  0  0  0  0  0  0  0
   -6.0527   19.0464  -33.4307 H   0  0  0  0  0  0  0  0  0  0  0  0
   -8.2617   19.1626  -32.6775 H   0  0  0  0  0  0  0  0  0  0  0  0
  -10.1980   20.5033  -31.8497 H   0  0  0  0  0  0  0  0  0  0  0  0
   -9.9018   22.9182  -31.2914 H   0  0  0  0  0  0  0  0  0  0  0  0
   -7.6628   23.9945  -31.5493 H   0  0  0  0  0  0  0  0  0  0  0  0
   -5.7210   22.6616  -32.3774 H   0  0  0  0  0  0  0  0  0  0  0  0
    0.7524   18.1843  -36.0046 H   0  0  0  0  0  0  0  0  0  0  0  0
   -0.0031   19.7836  -36.3468 H   0  0  0  0  0  0  0  0  0  0  0  0
    1.6921   18.9891  -33.9247 H   0  0  0  0  0  0  0  0  0  0  0  0
    2.0650   20.2218  -35.1852 H   0  0  0  0  0  0  0  0  0  0  0  0
   -2.9485   23.8233  -32.1471 H   0  0  0  0  0  0  0  0  0  0  0  0
  1  2  1  0
  2  3  2  0
  3  4  1  0
  4  5  2  0
  5  6  1  0
  6  7  1  0
  7  8  2  0
  8  9  1  0
  9 10  2  0
 10 11  1  0
 11 12  2  0
 12 13  1  0
 13 14  1  0
 14 15  1  0
 15 16  2  0
 16 17  1  0
 17 18  2  0
 18 19  1  0
 19 20  2  0
 10 21  1  0
 21 22  1  0
 22 23  1  0
 23 24  1  0
  6 25  2  0
 25  2  1  0
 12  7  1  0
 20 15  1  0
 24  9  1  0
  3 26  1  0
  4 27  1  0
  5 28  1  0
  8 29  1  0
 11 30  1  0
 13 31  1  0
 13 32  1  0
 14 33  1  0
 14 34  1  0
 16 35  1  0
 17 36  1  0
 18 37  1  0
 19 38  1  0
 20 39  1  0
 22 40  1  0
 22 41  1  0
 23 42  1  0
 23 43  1  0
 25 44  1  0
M  CHG  1   1  -1
M  END
>  <UniqueID>  (9) 
8

>  <SMILES>  (9) 
[O-]c1cccc(-c2cc3c(cc2CCc2ccccc2)OCCO3)c1

>  <Energy>  (9) 
53.03975409653771

>  <Genealogy>  (9) 
[O-]c1cccc(-c2cc3c(cc2CCc2ccccc2)OCCO3)c1 (protonated)
[O-]c1cccc(-c2cc3c(cc2CCc2ccccc2)OCCO3)c1 (3D coordinates assigned)
[O-]c1cccc(-c2cc3c(cc2CCc2ccccc2)OCCO3)c1 (nonaromatic ring conformer: 53.03975409653771 kcal/mol)

>  <smiles>  (9) 
Oc1cccc(-c2cc3c(cc2CCc2ccccc2)OCCO3)c1

>  <score_type>  (9) 
oracle

>  <origin>  (9) 
adgpu

>  <m_score__min__energy>  (9) 
-10.83

>  <m_primary>  (9) 
energy

$$$$
9:0
     RDKit          3D

 59 62  0  0  0  0  0  0  0  0999 V2000
    0.9140   24.4740  -28.5890 O   0  0  0  0  0  0  0  0  0  0  0  0
   -0.1610   23.8570  -28.8030 C   0  0  0  0  0  0  0  0  0  0  0  0
   -0.1610   22.4390  -29.0170 N   0  0  0  0  0  0  0  0  0  0  0  0
   -0.6380   21.7260  -30.1660 C   0  0  0  0  0  0  0  0  0  0  0  0
   -1.5880   22.2700  -31.0500 C   0  0  0  0  0  0  0  0  0  0  0  0
   -2.0680   21.5090  -32.1200 C   0  0  0  0  0  0  0  0  0  0  0  0
   -1.6230   20.2000  -32.3070 C   0  0  0  0  0  0  0  0  0  0  0  0
   -0.6910   19.6420  -31.4250 C   0  0  0  0  0  0  0  0  0  0  0  0
   -0.1840   17.9670  -31.6260 S   0  0  0  0  0  0  0  0  0  0  0  0
    0.0050   17.3590  -30.2640 O   0  0  0  0  0  0  0  0  0  0  0  0
   -1.2520   17.1930  -32.3500 O   0  0  0  0  0  0  0  0  0  0  0  0
    1.3240   17.9040  -32.5140 N   0  0  0  0  0  0  0  0  0  0  0  0
    2.2680   16.9840  -31.8700 C   0  0  0  0  0  0  0  0  0  0  0  0
    3.1420   17.7900  -30.9190 C   0  0  0  0  0  0  0  0  0  0  0  0
    2.9480   19.2410  -31.3200 C   0  0  0  0  0  0  0  0  0  0  0  0
    1.9830   19.2140  -32.4950 C   0  0  0  0  0  0  0  0  0  0  0  0
   -0.2030   20.4080  -30.3560 C   0  0  0  0  0  0  0  0  0  0  0  0
   -1.4000   24.5700  -28.7360 N   0  0  0  0  0  0  0  0  0  0  0  0
   -2.6950   23.9540  -28.7090 C   0  0  0  0  0  0  0  0  0  0  0  0
   -2.9720   23.0180  -27.7060 C   0  0  0  0  0  0  0  0  0  0  0  0
   -4.2100   22.3760  -27.6600 C   0  0  0  0  0  0  0  0  0  0  0  0
   -5.1890   22.6710  -28.6110 C   0  0  0  0  0  0  0  0  0  0  0  0
   -4.9430   23.6320  -29.6020 C   0  0  0  0  0  0  0  0  0  0  0  0
   -6.1840   24.0140  -30.7990 S   0  0  0  0  0  0  0  0  0  0  0  0
   -5.5530   24.5550  -32.0520 O   0  0  0  0  0  0  0  0  0  0  0  0
   -7.0920   25.0650  -30.2220 O   0  0  0  0  0  0  0  0  0  0  0  0
   -7.1050   22.5800  -31.1730 N   0  0  0  0  0  0  0  0  0  0  0  0
   -6.3180   21.6960  -32.0610 C   0  0  0  0  0  0  0  0  0  0  0  0
   -7.1770   20.5810  -32.6980 C   0  0  0  0  0  0  0  0  0  0  0  0
   -8.5100   20.4040  -31.9660 C   0  0  0  0  0  0  0  0  0  0  0  0
   -9.2990   21.7230  -31.9290 C   0  0  0  0  0  0  0  0  0  0  0  0
   -8.3820   22.9550  -31.8030 C   0  0  0  0  0  0  0  0  0  0  0  0
   -3.7030   24.2940  -29.6360 C   0  0  0  0  0  0  0  0  0  0  0  0
   -3.4890   25.3060  -30.5670 O   0  0  0  0  0  0  0  0  0  0  0  0
   -1.9538   23.2963  -30.8988 H   0  0  0  0  0  0  0  0  0  0  0  0
   -2.7993   21.9439  -32.8171 H   0  0  0  0  0  0  0  0  0  0  0  0
   -2.0056   19.6053  -33.1496 H   0  0  0  0  0  0  0  0  0  0  0  0
    1.7156   16.2163  -31.3082 H   0  0  0  0  0  0  0  0  0  0  0  0
    2.8899   16.4850  -32.6277 H   0  0  0  0  0  0  0  0  0  0  0  0
    2.8233   17.6331  -29.8779 H   0  0  0  0  0  0  0  0  0  0  0  0
    4.1979   17.4877  -30.9803 H   0  0  0  0  0  0  0  0  0  0  0  0
    2.5210   19.8164  -30.4854 H   0  0  0  0  0  0  0  0  0  0  0  0
    3.9012   19.7210  -31.5866 H   0  0  0  0  0  0  0  0  0  0  0  0
    1.2308   20.0080  -32.3779 H   0  0  0  0  0  0  0  0  0  0  0  0
    2.5254   19.3812  -33.4372 H   0  0  0  0  0  0  0  0  0  0  0  0
    0.5279   19.9698  -29.6605 H   0  0  0  0  0  0  0  0  0  0  0  0
   -2.2084   22.7869  -26.9487 H   0  0  0  0  0  0  0  0  0  0  0  0
   -4.4153   21.6357  -26.8727 H   0  0  0  0  0  0  0  0  0  0  0  0
   -6.1562   22.1479  -28.5826 H   0  0  0  0  0  0  0  0  0  0  0  0
   -5.8777   22.3047  -32.8645 H   0  0  0  0  0  0  0  0  0  0  0  0
   -5.5425   21.2121  -31.4490 H   0  0  0  0  0  0  0  0  0  0  0  0
   -7.3787   20.8421  -33.7474 H   0  0  0  0  0  0  0  0  0  0  0  0
   -6.6189   19.6357  -32.6268 H   0  0  0  0  0  0  0  0  0  0  0  0
   -9.1079   19.6419  -32.4872 H   0  0  0  0  0  0  0  0  0  0  0  0
   -8.3026   20.0912  -30.9320 H   0  0  0  0  0  0  0  0  0  0  0  0
   -9.8829   21.8111  -32.8571 H   0  0  0  0  0  0  0  0  0  0  0  0
   -9.9501   21.6986  -31.0428 H   0  0  0  0  0  0  0  0  0  0  0  0
   -8.1857   23.3651  -32.8046 H   0  0  0  0  0  0  0  0  0  0  0  0
   -8.8812   23.7098  -31.1776 H   0  0  0  0  0  0  0  0  0  0  0  0
  1  2  2  0
  2  3  1  0
  3  4  1  0
  4  5  2  0
  5  6  1  0
  6  7  2  0
  7  8  1  0
  8  9  1  0
  9 10  2  0
  9 11  2  0
  9 12  1  0
 12 13  1  0
 13 14  1  0
 14 15  1  0
 15 16  1  0
  8 17  2  0
  2 18  1  0
 18 19  1  0
 19 20  2  0
 20 21  1  0
 21 22  2  0
 22 23  1  0
 23 24  1  0
 24 25  2  0
 24 26  2  0
 24 27  1  0
 27 28  1  0
 28 29  1  0
 29 30  1  0
 30 31  1  0
 31 32  1  0
 23 33  2  0
 33 34  1  0
 17  4  1  0
 33 19  1  0
 16 12  1  0
 32 27  1  0
  5 35  1  0
  6 36  1  0
  7 37  1  0
 13 38  1  0
 13 39  1  0
 14 40  1  0
 14 41  1  0
 15 42  1  0
 15 43  1  0
 16 44  1  0
 16 45  1  0
 17 46  1  0
 20 47  1  0
 21 48  1  0
 22 49  1  0
 28 50  1  0
 28 51  1  0
 29 52  1  0
 29 53  1  0
 30 54  1  0
 30 55  1  0
 31 56  1  0
 31 57  1  0
 32 58  1  0
 32 59  1  0
M  CHG  3   3  -1  18  -1  34  -1
M  END
>  <UniqueID>  (10) 
9

>  <SMILES>  (10) 
O=C([N-]c1cccc(S(=O)(=O)N2CCCC2)c1)[N-]c1cccc(S(=O)(=O)N2CCCCC2)c1[O-]

>  <Energy>  (10) 
73.23436740767904

>  <Genealogy>  (10) 
O=C([N-]c1cccc(S(=O)(=O)N2CCCC2)c1)[N-]c1cccc(S(=O)(=O)N2CCCCC2)c1[O-] (protonated)
O=C([N-]c1cccc(S(=O)(=O)N2CCCC2)c1)[N-]c1cccc(S(=O)(=O)N2CCCCC2)c1[O-] (3D coordinates assigned)
O=C([N-]c1cccc(S(=O)(=O)N2CCCC2)c1)[N-]c1cccc(S(=O)(=O)N2CCCCC2)c1[O-] (nonaromatic ring conformer: 73.23436740767904 kcal/mol)

>  <smiles>  (10) 
O=C(Nc1cccc(S(=O)(=O)N2CCCC2)c1)Nc1cccc(S(=O)(=O)N2CCCCC2)c1O

>  <score_type>  (10) 
oracle

>  <origin>  (10) 
adgpu

>  <m_score__min__energy>  (10) 
-17.300000000000001

>  <m_primary>  (10) 
energy

$$$$
10:0
     RDKit          3D

 67 70  0  0  0  0  0  0  0  0999 V2000
   -2.9650   24.3330  -27.0740 C   0  0  0  0  0  0  0  0  0  0  0  0
   -1.8030   23.6500  -27.8460 C   0  0  0  0  0  0  0  0  0  0  0  0
   -1.0480   22.7670  -26.8190 C   0  0  0  0  0  0  0  0  0  0  0  0
   -2.3160   22.7870  -29.0230 C   0  0  0  0  0  0  0  0  0  0  0  0
   -1.9590   23.0570  -30.3670 C   0  0  0  0  0  0  0  0  0  0  0  0
   -2.3920   22.2310  -31.4070 C   0  0  0  0  0  0  0  0  0  0  0  0
   -3.1700   21.1020  -31.1380 C   0  0  0  0  0  0  0  0  0  0  0  0
   -3.6660   20.0400  -32.4530 S   0  0  0  0  0  0  0  0  0  0  0  0
   -2.9400   18.7270  -32.3560 O   0  0  0  0  0  0  0  0  0  0  0  0
   -3.3020   20.6860  -33.7610 O   0  0  0  0  0  0  0  0  0  0  0  0
   -5.4120   19.7480  -32.3910 C   0  0  0  0  0  0  0  0  0  0  0  0
   -6.2500   20.7840  -31.9460 C   0  0  0  0  0  0  0  0  0  0  0  0
   -7.6350   20.6030  -31.8730 C   0  0  0  0  0  0  0  0  0  0  0  0
   -8.6630   21.9370  -31.3570 S   0  0  0  0  0  0  0  0  0  0  0  0
   -9.3600   21.5460  -30.0830 O   0  0  0  0  0  0  0  0  0  0  0  0
   -9.7040   22.2210  -32.4050 O   0  0  0  0  0  0  0  0  0  0  0  0
   -7.6870   23.3620  -31.0840 N   0  0  0  0  0  0  0  0  0  0  0  0
   -7.0340   23.8100  -32.3400 C   0  0  0  0  0  0  0  0  0  0  0  0
   -5.5400   23.4410  -32.3760 C   0  0  0  0  0  0  0  0  0  0  0  0
   -4.8020   24.0040  -31.3000 O   0  0  0  0  0  0  0  0  0  0  0  0
   -5.5310   24.0790  -30.0800 C   0  0  0  0  0  0  0  0  0  0  0  0
   -6.7200   23.1070  -29.9940 C   0  0  0  0  0  0  0  0  0  0  0  0
   -8.1940   19.3780  -32.2510 C   0  0  0  0  0  0  0  0  0  0  0  0
   -7.3730   18.3390  -32.6870 C   0  0  0  0  0  0  0  0  0  0  0  0
   -5.9820   18.5090  -32.7600 C   0  0  0  0  0  0  0  0  0  0  0  0
   -5.1790   17.4090  -33.2140 N   0  0  0  0  0  0  0  0  0  0  0  0
   -5.0070   16.2320  -32.3480 C   0  0  0  0  0  0  0  0  0  0  0  0
   -4.9160   14.9110  -33.1490 C   0  0  0  0  0  0  0  0  0  0  0  0
   -4.9990   15.0790  -34.5540 O   0  0  0  0  0  0  0  0  0  0  0  0
   -4.0940   16.0760  -34.9690 C   0  0  0  0  0  0  0  0  0  0  0  0
   -4.6540   17.4390  -34.5830 C   0  0  0  0  0  0  0  0  0  0  0  0
   -3.5240   20.8100  -29.8190 C   0  0  0  0  0  0  0  0  0  0  0  0
   -3.0950   21.6320  -28.7750 C   0  0  0  0  0  0  0  0  0  0  0  0
   -0.8540   24.7500  -28.3930 C   0  0  0  0  0  0  0  0  0  0  0  0
    0.2070   24.1740  -29.0730 F   0  0  0  0  0  0  0  0  0  0  0  0
   -0.3420   25.5210  -27.3620 F   0  0  0  0  0  0  0  0  0  0  0  0
   -1.5300   25.5880  -29.2640 F   0  0  0  0  0  0  0  0  0  0  0  0
   -2.7949   24.2330  -25.9918 H   0  0  0  0  0  0  0  0  0  0  0  0
   -3.0064   25.3991  -27.3417 H   0  0  0  0  0  0  0  0  0  0  0  0
   -3.9166   23.8505  -27.3417 H   0  0  0  0  0  0  0  0  0  0  0  0
   -1.3159   23.0803  -25.7991 H   0  0  0  0  0  0  0  0  0  0  0  0
   -1.3289   21.7135  -26.9647 H   0  0  0  0  0  0  0  0  0  0  0  0
    0.0364   22.8808  -26.9647 H   0  0  0  0  0  0  0  0  0  0  0  0
   -1.3310   23.9308  -30.5953 H   0  0  0  0  0  0  0  0  0  0  0  0
   -2.1185   22.4711  -32.4451 H   0  0  0  0  0  0  0  0  0  0  0  0
   -5.8117   21.7490  -31.6515 H   0  0  0  0  0  0  0  0  0  0  0  0
   -8.3400   24.1180  -30.7690 H   0  0  0  0  0  0  0  0  0  0  0  0
   -7.5386   23.3322  -33.1927 H   0  0  0  0  0  0  0  0  0  0  0  0
   -7.1149   24.9057  -32.3932 H   0  0  0  0  0  0  0  0  0  0  0  0
   -5.4484   22.3459  -32.3285 H   0  0  0  0  0  0  0  0  0  0  0  0
   -5.1233   23.8484  -33.3089 H   0  0  0  0  0  0  0  0  0  0  0  0
   -4.8420   23.8550  -29.2523 H   0  0  0  0  0  0  0  0  0  0  0  0
   -5.9491   25.0949  -30.0241 H   0  0  0  0  0  0  0  0  0  0  0  0
   -6.3486   22.0748  -30.0756 H   0  0  0  0  0  0  0  0  0  0  0  0
   -7.2282   23.2561  -29.0299 H   0  0  0  0  0  0  0  0  0  0  0  0
   -9.2835   19.2340  -32.2042 H   0  0  0  0  0  0  0  0  0  0  0  0
   -7.8200   17.3765  -32.9766 H   0  0  0  0  0  0  0  0  0  0  0  0
   -4.0818   16.3553  -31.7659 H   0  0  0  0  0  0  0  0  0  0  0  0
   -5.8909   16.1660  -31.6966 H   0  0  0  0  0  0  0  0  0  0  0  0
   -3.9546   14.4306  -32.9148 H   0  0  0  0  0  0  0  0  0  0  0  0
   -5.7804   14.2994  -32.8512 H   0  0  0  0  0  0  0  0  0  0  0  0
   -3.1229   15.9222  -34.4758 H   0  0  0  0  0  0  0  0  0  0  0  0
   -3.9550   16.0242  -36.0590 H   0  0  0  0  0  0  0  0  0  0  0  0
   -3.8536   18.1908  -34.6475 H   0  0  0  0  0  0  0  0  0  0  0  0
   -5.4718   17.6961  -35.2723 H   0  0  0  0  0  0  0  0  0  0  0  0
   -4.1440   19.9278  -29.6014 H   0  0  0  0  0  0  0  0  0  0  0  0
   -3.3677   21.3769  -27.7403 H   0  0  0  0  0  0  0  0  0  0  0  0
  1  2  1  0
  2  3  1  0
  2  4  1  0
  4  5  2  0
  5  6  1  0
  6  7  2  0
  7  8  1  0
  8  9  2  0
  8 10  2  0
  8 11  1  0
 11 12  2  0
 12 13  1  0
 13 14  1  0
 14 15  2  0
 14 16  2  0
 14 17  1  0
 17 18  1  0
 18 19  1  0
 19 20  1  0
 20 21  1  0
 21 22  1  0
 13 23  2  0
 23 24  1  0
 24 25  2  0
 25 26  1  0
 26 27  1  0
 27 28  1  0
 28 29  1  0
 29 30  1  0
 30 31  1  0
  7 32  1  0
 32 33  2  0
  2 34  1  0
 34 35  1  0
 34 36  1  0
 34 37  1  0
 33  4  1  0
 25 11  1  0
 31 26  1  0
 22 17  1  0
  1 38  1  0
  1 39  1  0
  1 40  1  0
  3 41  1  0
  3 42  1  0
  3 43  1  0
  5 44  1  0
  6 45  1  0
 12 46  1  0
 17 47  1  0
 18 48  1  0
 18 49  1  0
 19 50  1  0
 19 51  1  0
 21 52  1  0
 21 53  1  0
 22 54  1  0
 22 55  1  0
 23 56  1  0
 24 57  1  0
 27 58  1  0
 27 59  1  0
 28 60  1  0
 28 61  1  0
 30 62  1  0
 30 63  1  0
 31 64  1  0
 31 65  1  0
 32 66  1  0
 33 67  1  0
M  CHG  1  17   1
M  END
>  <UniqueID>  (11) 
10

>  <SMILES>  (11) 
CC(C)(c1ccc(S(=O)(=O)c2cc(S(=O)(=O)[NH+]3CCOCC3)ccc2N2CCOCC2)cc1)C(F)(F)F

>  <Energy>  (11) 
97.96994552258336

>  <Genealogy>  (11) 
CC(C)(c1ccc(S(=O)(=O)c2cc(S(=O)(=O)[NH+]3CCOCC3)ccc2N2CCOCC2)cc1)C(F)(F)F (protonated)
CC(C)(c1ccc(S(=O)(=O)c2cc(S(=O)(=O)[NH+]3CCOCC3)ccc2N2CCOCC2)cc1)C(F)(F)F (3D coordinates assigned)
CC(C)(c1ccc(S(=O)(=O)c2cc(S(=O)(=O)[NH+]3CCOCC3)ccc2N2CCOCC2)cc1)C(F)(F)F (nonaromatic ring conformer: 97.96994552258336 kcal/mol)

>  <smiles>  (11) 
CC(C)(c1ccc(S(=O)(=O)c2cc(S(=O)(=O)N3CCOCC3)ccc2N2CCOCC2)cc1)C(F)(F)F

>  <score_type>  (11) 
oracle

>  <origin>  (11) 
adgpu

>  <m_score__min__energy>  (11) 
-9.3900000000000006

>  <m_primary>  (11) 
energy

$$$$
11:0
     RDKit          3D

 65 69  0  0  0  0  0  0  0  0999 V2000
   -2.9870   18.7270  -33.7220 C   0  0  0  0  0  0  0  0  0  0  0  0
   -3.6560   17.4800  -34.1320 N   0  0  0  0  0  0  0  0  0  0  0  0
   -4.2650   16.7720  -32.9740 C   0  0  0  0  0  0  0  0  0  0  0  0
   -5.7980   16.9100  -32.8940 C   0  0  0  0  0  0  0  0  0  0  0  0
   -6.2230   18.2010  -33.4420 N   0  0  0  0  0  0  0  0  0  0  0  0
   -7.0320   19.1120  -32.6720 C   0  0  0  0  0  0  0  0  0  0  0  0
   -8.1760   18.6530  -31.9980 C   0  0  0  0  0  0  0  0  0  0  0  0
   -8.9610   19.5380  -31.2540 C   0  0  0  0  0  0  0  0  0  0  0  0
   -8.6170   20.8900  -31.1810 C   0  0  0  0  0  0  0  0  0  0  0  0
   -7.4920   21.3660  -31.8650 C   0  0  0  0  0  0  0  0  0  0  0  0
   -7.0430   23.0630  -31.7610 S   0  0  0  0  0  0  0  0  0  0  0  0
   -7.9840   23.7950  -30.8460 O   0  0  0  0  0  0  0  0  0  0  0  0
   -7.1290   23.6940  -33.1230 O   0  0  0  0  0  0  0  0  0  0  0  0
   -5.4020   23.1790  -31.1360 C   0  0  0  0  0  0  0  0  0  0  0  0
   -4.5460   22.0740  -31.2160 C   0  0  0  0  0  0  0  0  0  0  0  0
   -3.2350   22.1620  -30.7400 C   0  0  0  0  0  0  0  0  0  0  0  0
   -2.7570   23.3690  -30.1970 C   0  0  0  0  0  0  0  0  0  0  0  0
   -1.4290   23.4900  -29.6600 N   0  0  0  0  0  0  0  0  0  0  0  0
   -1.0310   24.3240  -28.7440 C   0  0  0  0  0  0  0  0  0  0  0  0
   -1.9100   25.1460  -28.1030 N   0  0  0  0  0  0  0  0  0  0  0  0
   -1.4960   25.9990  -27.1320 C   0  0  0  0  0  0  0  0  0  0  0  0
   -0.1470   26.0390  -26.7690 C   0  0  0  0  0  0  0  0  0  0  0  0
    0.3150   26.9320  -25.7510 N   0  0  0  0  0  0  0  0  0  0  0  0
    1.4750   27.7880  -25.5790 C   0  0  0  0  0  0  0  0  0  0  0  0
    1.0340   28.2560  -24.2810 C   0  0  0  0  0  0  0  0  0  0  0  0
    1.9230   27.8100  -23.1110 C   0  0  0  0  0  0  0  0  0  0  0  0
    0.6820   29.7500  -24.2350 C   0  0  0  0  0  0  0  0  0  0  0  0
   -0.1800   27.3900  -24.4310 C   0  0  0  0  0  0  0  0  0  0  0  0
   -1.1960   27.1500  -23.7260 O   0  0  0  0  0  0  0  0  0  0  0  0
    0.7390   25.1810  -27.4250 C   0  0  0  0  0  0  0  0  0  0  0  0
    0.2810   24.3420  -28.3910 N   0  0  0  0  0  0  0  0  0  0  0  0
   -3.6250   24.4640  -30.0980 C   0  0  0  0  0  0  0  0  0  0  0  0
   -4.9350   24.3760  -30.5780 C   0  0  0  0  0  0  0  0  0  0  0  0
   -6.7010   20.4760  -32.6060 C   0  0  0  0  0  0  0  0  0  0  0  0
   -5.8110   18.5510  -34.8070 C   0  0  0  0  0  0  0  0  0  0  0  0
   -4.6040   17.7040  -35.2450 C   0  0  0  0  0  0  0  0  0  0  0  0
   -2.9569   18.7830  -32.6238 H   0  0  0  0  0  0  0  0  0  0  0  0
   -1.9608   18.7399  -34.1180 H   0  0  0  0  0  0  0  0  0  0  0  0
   -3.5437   19.5891  -34.1180 H   0  0  0  0  0  0  0  0  0  0  0  0
   -4.0170   15.7032  -33.0520 H   0  0  0  0  0  0  0  0  0  0  0  0
   -3.8547   17.2352  -32.0646 H   0  0  0  0  0  0  0  0  0  0  0  0
   -6.2657   16.0992  -33.4717 H   0  0  0  0  0  0  0  0  0  0  0  0
   -6.1076   16.8499  -31.8402 H   0  0  0  0  0  0  0  0  0  0  0  0
   -8.4555   17.5907  -32.0562 H   0  0  0  0  0  0  0  0  0  0  0  0
   -9.8519   19.1691  -30.7246 H   0  0  0  0  0  0  0  0  0  0  0  0
   -9.2309   21.5815  -30.5853 H   0  0  0  0  0  0  0  0  0  0  0  0
   -4.9070   21.1324  -31.6555 H   0  0  0  0  0  0  0  0  0  0  0  0
   -2.5740   21.2841  -30.7900 H   0  0  0  0  0  0  0  0  0  0  0  0
   -2.2210   26.6578  -26.6316 H   0  0  0  0  0  0  0  0  0  0  0  0
    2.4250   27.2346  -25.5443 H   0  0  0  0  0  0  0  0  0  0  0  0
    1.7059   28.5292  -26.3583 H   0  0  0  0  0  0  0  0  0  0  0  0
    1.4290   28.0578  -22.1599 H   0  0  0  0  0  0  0  0  0  0  0  0
    2.0857   26.7236  -23.1675 H   0  0  0  0  0  0  0  0  0  0  0  0
    2.8912   28.3291  -23.1675 H   0  0  0  0  0  0  0  0  0  0  0  0
    0.6051   30.0765  -23.1874 H   0  0  0  0  0  0  0  0  0  0  0  0
    1.4686   30.3278  -24.7423 H   0  0  0  0  0  0  0  0  0  0  0  0
   -0.2798   29.9159  -24.7423 H   0  0  0  0  0  0  0  0  0  0  0  0
    1.8066   25.1845  -27.1598 H   0  0  0  0  0  0  0  0  0  0  0  0
   -3.2733   25.3999  -29.6393 H   0  0  0  0  0  0  0  0  0  0  0  0
   -5.6011   25.2493  -30.5173 H   0  0  0  0  0  0  0  0  0  0  0  0
   -5.8144   20.8487  -33.1398 H   0  0  0  0  0  0  0  0  0  0  0  0
   -6.6493   18.3680  -35.4953 H   0  0  0  0  0  0  0  0  0  0  0  0
   -5.5242   19.6127  -34.8284 H   0  0  0  0  0  0  0  0  0  0  0  0
   -4.9652   16.7298  -35.6063 H   0  0  0  0  0  0  0  0  0  0  0  0
   -4.0745   18.2496  -36.0400 H   0  0  0  0  0  0  0  0  0  0  0  0
  1  2  1  0
  2  3  1  0
  3  4  1  0
  4  5  1  0
  5  6  1  0
  6  7  2  0
  7  8  1  0
  8  9  2  0
  9 10  1  0
 10 11  1  0
 11 12  2  0
 11 13  2  0
 11 14  1  0
 14 15  2  0
 15 16  1  0
 16 17  2  0
 17 18  1  0
 18 19  2  3
 19 20  1  0
 20 21  2  0
 21 22  1  0
 22 23  1  0
 23 24  1  0
 24 25  1  0
 25 26  1  0
 25 27  1  0
 25 28  1  0
 28 29  2  0
 22 30  2  0
 30 31  1  0
 17 32  1  0
 32 33  2  0
 10 34  2  0
  5 35  1  0
 35 36  1  0
 36  2  1  0
 34  6  1  0
 33 14  1  0
 31 19  1  0
 28 23  1  0
  1 37  1  0
  1 38  1  0
  1 39  1  0
  3 40  1  0
  3 41  1  0
  4 42  1  0
  4 43  1  0
  7 44  1  0
  8 45  1  0
  9 46  1  0
 15 47  1  0
 16 48  1  0
 21 49  1  0
 24 50  1  0
 24 51  1  0
 26 52  1  0
 26 53  1  0
 26 54  1  0
 27 55  1  0
 27 56  1  0
 27 57  1  0
 30 58  1  0
 32 59  1  0
 33 60  1  0
 34 61  1  0
 35 62  1  0
 35 63  1  0
 36 64  1  0
 36 65  1  0
M  CHG  1  31  -1
M  END
>  <UniqueID>  (12) 
11

>  <SMILES>  (12) 
CN1CCN(c2cccc(S(=O)(=O)c3ccc(N=c4ncc(N5CC(C)(C)C5=O)c[n-]4)cc3)c2)CC1

>  <Energy>  (12) 
118.82129608866738

>  <Genealogy>  (12) 
CN1CCN(c2cccc(S(=O)(=O)c3ccc(N=c4ncc(N5CC(C)(C)C5=O)c[n-]4)cc3)c2)CC1 (protonated)
CN1CCN(c2cccc(S(=O)(=O)c3ccc(N=c4ncc(N5CC(C)(C)C5=O)c[n-]4)cc3)c2)CC1 (3D coordinates assigned)
CN1CCN(c2cccc(S(=O)(=O)c3ccc(N=c4ncc(N5CC(C)(C)C5=O)c[n-]4)cc3)c2)CC1 (nonaromatic ring conformer: 118.82129608866738 kcal/mol)

>  <smiles>  (12) 
CN1CCN(c2cccc(S(=O)(=O)c3ccc(N=c4ncc(N5CC(C)(C)C5=O)c[nH]4)cc3)c2)CC1

>  <score_type>  (12) 
oracle

>  <origin>  (12) 
adgpu

>  <m_score__min__energy>  (12) 
-11.970000000000001

>  <m_primary>  (12) 
energy

$$$$
12:0
     RDKit          3D

 51 53  0  0  0  0  0  0  0  0999 V2000
   -2.1190   20.3190  -26.9060 C   0  0  0  0  0  0  0  0  0  0  0  0
   -2.8410   21.1850  -27.8960 C   0  0  0  0  0  0  0  0  0  0  0  0
   -3.3620   22.4270  -27.4990 C   0  0  0  0  0  0  0  0  0  0  0  0
   -4.0010   23.2520  -28.4290 C   0  0  0  0  0  0  0  0  0  0  0  0
   -4.1170   22.8490  -29.7670 C   0  0  0  0  0  0  0  0  0  0  0  0
   -4.9010   23.8860  -30.9550 S   0  0  0  0  0  0  0  0  0  0  0  0
   -4.3650   25.2810  -30.7960 O   0  0  0  0  0  0  0  0  0  0  0  0
   -4.5800   23.4040  -32.3430 O   0  0  0  0  0  0  0  0  0  0  0  0
   -6.6300   23.8660  -30.6760 N   0  0  0  0  0  0  0  0  0  0  0  0
   -7.0300   22.8130  -29.7140 C   0  0  0  0  0  0  0  0  0  0  0  0
   -7.5850   21.5460  -30.3900 C   0  0  0  0  0  0  0  0  0  0  0  0
   -6.9400   21.3640  -31.6930 N   0  0  0  0  0  0  0  0  0  0  0  0
   -7.3150   19.7960  -32.3670 S   0  0  0  0  0  0  0  0  0  0  0  0
   -8.3260   19.9490  -33.4680 O   0  0  0  0  0  0  0  0  0  0  0  0
   -7.9420   18.9480  -31.2940 O   0  0  0  0  0  0  0  0  0  0  0  0
   -5.8740   18.9750  -32.9900 C   0  0  0  0  0  0  0  0  0  0  0  0
   -5.7420   17.6250  -33.2910 C   0  0  0  0  0  0  0  0  0  0  0  0
   -6.8040   16.5750  -33.2170 C   0  0  0  0  0  0  0  0  0  0  0  0
   -4.4970   17.3790  -33.7420 N   0  0  0  0  0  0  0  0  0  0  0  0
   -3.8300   18.5220  -33.7250 N   0  0  0  0  0  0  0  0  0  0  0  0
   -2.4430   18.6460  -34.1580 C   0  0  0  0  0  0  0  0  0  0  0  0
   -4.6330   19.5200  -33.2970 C   0  0  0  0  0  0  0  0  0  0  0  0
   -4.1890   20.9460  -33.1350 C   0  0  0  0  0  0  0  0  0  0  0  0
   -7.3320   22.4360  -32.6260 C   0  0  0  0  0  0  0  0  0  0  0  0
   -7.3940   23.8180  -31.9370 C   0  0  0  0  0  0  0  0  0  0  0  0
   -3.5780   21.6210  -30.1690 C   0  0  0  0  0  0  0  0  0  0  0  0
   -2.9380   20.7950  -29.2400 C   0  0  0  0  0  0  0  0  0  0  0  0
   -2.3807   20.6330  -25.8848 H   0  0  0  0  0  0  0  0  0  0  0  0
   -2.4133   19.2694  -27.0537 H   0  0  0  0  0  0  0  0  0  0  0  0
   -1.0336   20.4197  -27.0537 H   0  0  0  0  0  0  0  0  0  0  0  0
   -3.2669   22.7519  -26.4524 H   0  0  0  0  0  0  0  0  0  0  0  0
   -4.4141   24.2204  -28.1102 H   0  0  0  0  0  0  0  0  0  0  0  0
   -6.1492   22.5327  -29.1177 H   0  0  0  0  0  0  0  0  0  0  0  0
   -7.8368   23.2298  -29.0933 H   0  0  0  0  0  0  0  0  0  0  0  0
   -7.3802   20.6719  -29.7544 H   0  0  0  0  0  0  0  0  0  0  0  0
   -8.6709   21.6515  -30.5304 H   0  0  0  0  0  0  0  0  0  0  0  0
   -7.0279   16.3536  -32.1630 H   0  0  0  0  0  0  0  0  0  0  0  0
   -7.7141   16.9382  -33.7168 H   0  0  0  0  0  0  0  0  0  0  0  0
   -6.4512   15.6608  -33.7168 H   0  0  0  0  0  0  0  0  0  0  0  0
   -1.7876   18.7046  -33.2766 H   0  0  0  0  0  0  0  0  0  0  0  0
   -2.1676   17.7689  -34.7620 H   0  0  0  0  0  0  0  0  0  0  0  0
   -2.3276   19.5580  -34.7620 H   0  0  0  0  0  0  0  0  0  0  0  0
   -4.1139   21.1873  -32.0644 H   0  0  0  0  0  0  0  0  0  0  0  0
   -3.2065   21.0804  -33.6110 H   0  0  0  0  0  0  0  0  0  0  0  0
   -4.9215   21.6144  -33.6110 H   0  0  0  0  0  0  0  0  0  0  0  0
   -6.5968   22.4805  -33.4430 H   0  0  0  0  0  0  0  0  0  0  0  0
   -8.3382   22.2025  -33.0041 H   0  0  0  0  0  0  0  0  0  0  0  0
   -6.9835   24.5718  -32.6249 H   0  0  0  0  0  0  0  0  0  0  0  0
   -8.4477   24.0176  -31.6922 H   0  0  0  0  0  0  0  0  0  0  0  0
   -3.6583   21.3049  -31.2195 H   0  0  0  0  0  0  0  0  0  0  0  0
   -2.5088   19.8355  -29.5643 H   0  0  0  0  0  0  0  0  0  0  0  0
  1  2  1  0
  2  3  2  0
  3  4  1  0
  4  5  2  0
  5  6  1  0
  6  7  2  0
  6  8  2  0
  6  9  1  0
  9 10  1  0
 10 11  1  0
 11 12  1  0
 12 13  1  0
 13 14  2  0
 13 15  2  0
 13 16  1  0
 16 17  1  0
 17 18  1  0
 17 19  2  0
 19 20  1  0
 20 21  1  0
 20 22  1  0
 22 23  1  0
 12 24  1  0
 24 25  1  0
  5 26  1  0
 26 27  2  0
 27  2  1  0
 25  9  1  0
 22 16  2  0
  1 28  1  0
  1 29  1  0
  1 30  1  0
  3 31  1  0
  4 32  1  0
 10 33  1  0
 10 34  1  0
 11 35  1  0
 11 36  1  0
 18 37  1  0
 18 38  1  0
 18 39  1  0
 21 40  1  0
 21 41  1  0
 21 42  1  0
 23 43  1  0
 23 44  1  0
 23 45  1  0
 24 46  1  0
 24 47  1  0
 25 48  1  0
 25 49  1  0
 26 50  1  0
 27 51  1  0
M  END
>  <UniqueID>  (13) 
12

>  <SMILES>  (13) 
Cc1ccc(S(=O)(=O)N2CCN(S(=O)(=O)c3c(C)nn(C)c3C)CC2)cc1

>  <Energy>  (13) 
87.83790446513527

>  <Genealogy>  (13) 
Cc1ccc(S(=O)(=O)N2CCN(S(=O)(=O)c3c(C)nn(C)c3C)CC2)cc1 (3D coordinates assigned)
Cc1ccc(S(=O)(=O)N2CCN(S(=O)(=O)c3c(C)nn(C)c3C)CC2)cc1 (nonaromatic ring conformer: 87.83790446513527 kcal/mol)

>  <smiles>  (13) 
Cc1ccc(S(=O)(=O)N2CCN(S(=O)(=O)c3c(C)nn(C)c3C)CC2)cc1

>  <score_type>  (13) 
oracle

>  <origin>  (13) 
adgpu

>  <m_score__min__energy>  (13) 
-9.8599999999999994

>  <m_primary>  (13) 
energy

$$$$
13:0
     RDKit          3D

 63 68  0  0  0  0  0  0  0  0999 V2000
   -4.7530   14.3600  -33.9290 C   0  0  0  0  0  0  0  0  0  0  0  0
   -4.4230   15.7230  -34.3670 N   0  0  0  0  0  0  0  0  0  0  0  0
   -3.3170   15.9160  -35.3130 C   0  0  0  0  0  0  0  0  0  0  0  0
   -5.1820   16.8600  -33.8760 C   0  0  0  0  0  0  0  0  0  0  0  0
   -5.7380   16.8550  -32.5780 C   0  0  0  0  0  0  0  0  0  0  0  0
   -6.4630   17.9530  -32.1060 C   0  0  0  0  0  0  0  0  0  0  0  0
   -6.6320   19.0860  -32.9080 C   0  0  0  0  0  0  0  0  0  0  0  0
   -7.4170   20.2300  -32.4120 C   0  0  0  0  0  0  0  0  0  0  0  0
   -8.7920   20.1140  -32.1890 C   0  0  0  0  0  0  0  0  0  0  0  0
   -9.4190   21.6110  -31.7300 S   0  0  0  0  0  0  0  0  0  0  0  0
   -7.9490   22.4050  -31.7990 C   0  0  0  0  0  0  0  0  0  0  0  0
   -7.7320   23.7110  -31.5220 N   0  0  0  0  0  0  0  0  0  0  0  0
   -6.4650   24.1990  -31.6010 C   0  0  0  0  0  0  0  0  0  0  0  0
   -5.4310   23.3750  -31.9340 N   0  0  0  0  0  0  0  0  0  0  0  0
   -5.6200   22.0540  -32.2140 C   0  0  0  0  0  0  0  0  0  0  0  0
   -4.1700   21.0540  -32.5500 S   0  0  0  0  0  0  0  0  0  0  0  0
   -3.4030   21.4920  -30.9970 C   0  0  0  0  0  0  0  0  0  0  0  0
   -3.1790   20.5980  -30.0040 N   0  0  0  0  0  0  0  0  0  0  0  0
   -2.5900   21.1980  -28.9400 C   0  0  0  0  0  0  0  0  0  0  0  0
   -2.2240   20.5370  -27.7690 C   0  0  0  0  0  0  0  0  0  0  0  0
   -1.6070   21.2730  -26.7430 C   0  0  0  0  0  0  0  0  0  0  0  0
   -1.3740   22.6610  -26.8850 C   0  0  0  0  0  0  0  0  0  0  0  0
   -0.7110   23.3740  -25.8270 N   0  0  0  0  0  0  0  0  0  0  0  0
   -1.1080   24.6730  -25.3640 C   0  0  0  0  0  0  0  0  0  0  0  0
   -2.2500   25.1300  -25.6500 O   0  0  0  0  0  0  0  0  0  0  0  0
   -0.1490   25.4810  -24.5120 C   0  0  2  0  0  0  0  0  0  0  0  0
   -0.8120   26.4570  -23.5440 C   0  0  0  0  0  0  0  0  0  0  0  0
    0.2550   27.5070  -23.2900 C   0  0  0  0  0  0  0  0  0  0  0  0
    1.3460   27.2480  -24.3290 C   0  0  0  0  0  0  0  0  0  0  0  0
    0.8410   26.2520  -25.2890 N   0  0  0  0  0  0  0  0  0  0  0  0
    0.2560   26.9330  -26.4640 C   0  0  0  0  0  0  0  0  0  0  0  0
   -1.7400   23.3080  -28.0870 C   0  0  0  0  0  0  0  0  0  0  0  0
   -2.3470   22.5530  -29.0860 C   0  0  0  0  0  0  0  0  0  0  0  0
   -2.8760   23.0500  -30.6010 S   0  0  0  0  0  0  0  0  0  0  0  0
   -6.9330   21.5390  -32.1700 C   0  0  0  0  0  0  0  0  0  0  0  0
   -6.1140   19.0940  -34.2090 C   0  0  0  0  0  0  0  0  0  0  0  0
   -5.3900   17.9980  -34.6860 C   0  0  0  0  0  0  0  0  0  0  0  0
   -4.7626   14.3203  -32.8298 H   0  0  0  0  0  0  0  0  0  0  0  0
   -5.7447   14.0809  -34.3147 H   0  0  0  0  0  0  0  0  0  0  0  0
   -3.9988   13.6582  -34.3147 H   0  0  0  0  0  0  0  0  0  0  0  0
   -2.3825   16.0791  -34.7562 H   0  0  0  0  0  0  0  0  0  0  0  0
   -3.2155   15.0220  -35.9458 H   0  0  0  0  0  0  0  0  0  0  0  0
   -3.5243   16.7915  -35.9458 H   0  0  0  0  0  0  0  0  0  0  0  0
   -5.5990   15.9766  -31.9306 H   0  0  0  0  0  0  0  0  0  0  0  0
   -6.9030   17.9256  -31.0982 H   0  0  0  0  0  0  0  0  0  0  0  0
   -9.3759   19.1880  -32.2964 H   0  0  0  0  0  0  0  0  0  0  0  0
   -6.2737   25.2626  -31.3955 H   0  0  0  0  0  0  0  0  0  0  0  0
   -2.4143   19.4601  -27.6501 H   0  0  0  0  0  0  0  0  0  0  0  0
   -1.3013   20.7631  -25.8175 H   0  0  0  0  0  0  0  0  0  0  0  0
    0.0750   22.8980  -25.3300 H   0  0  0  0  0  0  0  0  0  0  0  0
    0.3513   24.6868  -23.9385 H   0  0  0  0  0  0  0  0  0  0  0  0
   -1.7060   26.9101  -23.9972 H   0  0  0  0  0  0  0  0  0  0  0  0
   -1.1533   25.9689  -22.6192 H   0  0  0  0  0  0  0  0  0  0  0  0
   -0.1628   28.5167  -23.4162 H   0  0  0  0  0  0  0  0  0  0  0  0
    0.6484   27.4463  -22.2645 H   0  0  0  0  0  0  0  0  0  0  0  0
    1.5882   28.1830  -24.8554 H   0  0  0  0  0  0  0  0  0  0  0  0
    2.2568   26.8744  -23.8381 H   0  0  0  0  0  0  0  0  0  0  0  0
   -0.4260   27.7270  -26.1257 H   0  0  0  0  0  0  0  0  0  0  0  0
    1.0607   27.3746  -27.0702 H   0  0  0  0  0  0  0  0  0  0  0  0
   -0.3019   26.2041  -27.0702 H   0  0  0  0  0  0  0  0  0  0  0  0
   -1.5497   24.3820  -28.2294 H   0  0  0  0  0  0  0  0  0  0  0  0
   -6.2777   19.9667  -34.8583 H   0  0  0  0  0  0  0  0  0  0  0  0
   -4.9769   18.0220  -35.7052 H   0  0  0  0  0  0  0  0  0  0  0  0
  1  2  1  0
  2  3  1  0
  2  4  1  0
  4  5  2  0
  5  6  1  0
  6  7  2  0
  7  8  1  0
  8  9  2  0
  9 10  1  0
 10 11  1  0
 11 12  2  0
 12 13  1  0
 13 14  2  0
 14 15  1  0
 15 16  1  0
 16 17  1  0
 17 18  2  0
 18 19  1  0
 19 20  2  0
 20 21  1  0
 21 22  2  0
 22 23  1  0
 23 24  1  0
 24 25  2  0
 24 26  1  0
 26 27  1  0
 27 28  1  0
 28 29  1  0
 29 30  1  0
 30 31  1  0
 22 32  1  0
 32 33  2  0
 33 34  1  0
 15 35  2  0
  7 36  1  0
 36 37  2  0
 37  4  1  0
 35  8  1  0
 35 11  1  0
 34 17  1  0
 33 19  1  0
 30 26  1  0
  1 38  1  0
  1 39  1  0
  1 40  1  0
  3 41  1  0
  3 42  1  0
  3 43  1  0
  5 44  1  0
  6 45  1  0
  9 46  1  0
 13 47  1  0
 20 48  1  0
 21 49  1  0
 23 50  1  0
 26 51  1  1
 27 52  1  0
 27 53  1  0
 28 54  1  0
 28 55  1  0
 29 56  1  0
 29 57  1  0
 31 58  1  0
 31 59  1  0
 31 60  1  0
 32 61  1  0
 36 62  1  0
 37 63  1  0
M  END
>  <UniqueID>  (14) 
13

>  <SMILES>  (14) 
CN(C)c1ccc(-c2csc3ncnc(Sc4nc5ccc(NC(=O)[C@@H]6CCCN6C)cc5s4)c23)cc1

>  <Energy>  (14) 
153.13152234188897

>  <Genealogy>  (14) 
CN(C)c1ccc(-c2csc3ncnc(Sc4nc5ccc(NC(=O)[C@@H]6CCCN6C)cc5s4)c23)cc1 (chirality)
CN(C)c1ccc(-c2csc3ncnc(Sc4nc5ccc(NC(=O)[C@@H]6CCCN6C)cc5s4)c23)cc1 (3D coordinates assigned)
CN(C)c1ccc(-c2csc3ncnc(Sc4nc5ccc(NC(=O)[C@@H]6CCCN6C)cc5s4)c23)cc1 (nonaromatic ring conformer: 153.13152234188897 kcal/mol)

>  <smiles>  (14) 
CN(C)c1ccc(-c2csc3ncnc(Sc4nc5ccc(NC(=O)C6CCCN6C)cc5s4)c23)cc1

>  <score_type>  (14) 
oracle

>  <origin>  (14) 
adgpu

>  <m_score__min__energy>  (14) 
-10.76

>  <m_primary>  (14) 
energy

$$$$
14:0
     RDKit          3D

 64 67  0  0  0  0  0  0  0  0999 V2000
   -0.8520   26.5860  -28.1930 C   0  0  0  0  0  0  0  0  0  0  0  0
   -1.7520   25.7480  -28.9110 O   0  0  0  0  0  0  0  0  0  0  0  0
   -2.0700   24.4250  -28.5600 C   0  0  0  0  0  0  0  0  0  0  0  0
   -1.4190   23.7650  -27.5000 C   0  0  0  0  0  0  0  0  0  0  0  0
   -1.7430   22.4360  -27.1610 C   0  0  0  0  0  0  0  0  0  0  0  0
   -2.7160   21.7590  -27.9280 C   0  0  0  0  0  0  0  0  0  0  0  0
   -3.3810   22.4240  -28.9660 C   0  0  0  0  0  0  0  0  0  0  0  0
   -3.0700   23.7550  -29.2890 C   0  0  0  0  0  0  0  0  0  0  0  0
   -3.7450   24.4350  -30.3660 N   0  0  0  0  0  0  0  0  0  0  0  0
   -5.4510   24.7490  -30.3860 S   0  0  0  0  0  0  0  0  0  0  0  0
   -5.7180   25.9630  -31.2300 O   0  0  0  0  0  0  0  0  0  0  0  0
   -5.9240   25.0270  -28.9850 O   0  0  0  0  0  0  0  0  0  0  0  0
   -6.3060   23.3740  -31.0770 C   0  0  0  0  0  0  0  0  0  0  0  0
   -7.6660   23.4610  -31.3940 C   0  0  0  0  0  0  0  0  0  0  0  0
   -8.3250   22.3690  -31.9650 C   0  0  0  0  0  0  0  0  0  0  0  0
   -7.6300   21.1730  -32.2300 C   0  0  0  0  0  0  0  0  0  0  0  0
   -8.2520   20.0740  -32.8440 O   0  0  0  0  0  0  0  0  0  0  0  0
   -9.1110   19.1560  -32.1810 C   0  0  0  0  0  0  0  0  0  0  0  0
   -6.2650   21.0800  -31.8910 C   0  0  0  0  0  0  0  0  0  0  0  0
   -5.5260   19.8770  -32.1650 N   0  0  0  0  0  0  0  0  0  0  0  0
   -5.9260   18.5960  -31.5760 C   0  0  0  0  0  0  0  0  0  0  0  0
   -6.0130   17.5030  -32.6590 C   0  0  0  0  0  0  0  0  0  0  0  0
   -5.0900   17.7110  -33.8070 N   0  0  0  0  0  0  0  0  0  0  0  0
   -5.7960   18.2320  -34.9910 C   0  0  0  0  0  0  0  0  0  0  0  0
   -3.9100   18.5310  -33.4620 C   0  0  0  0  0  0  0  0  0  0  0  0
   -4.3110   19.9350  -32.9830 C   0  0  0  0  0  0  0  0  0  0  0  0
   -5.6120   22.1840  -31.3230 C   0  0  0  0  0  0  0  0  0  0  0  0
   -3.1030   20.3420  -27.5960 C   0  0  0  0  0  0  0  0  0  0  0  0
   -1.9490   19.5990  -26.9300 C   0  0  0  0  0  0  0  0  0  0  0  0
   -1.4610   20.3740  -25.7070 C   0  0  0  0  0  0  0  0  0  0  0  0
   -1.0800   21.7500  -26.0660 N   0  0  0  0  0  0  0  0  0  0  0  0
   -0.1340   22.4510  -25.1900 C   0  0  0  0  0  0  0  0  0  0  0  0
   -1.0030   26.4454  -27.1125 H   0  0  0  0  0  0  0  0  0  0  0  0
    0.1831   26.3226  -28.4559 H   0  0  0  0  0  0  0  0  0  0  0  0
   -1.0409   27.6373  -28.4559 H   0  0  0  0  0  0  0  0  0  0  0  0
   -0.6445   24.2957  -26.9269 H   0  0  0  0  0  0  0  0  0  0  0  0
   -4.1588   21.8957  -29.5370 H   0  0  0  0  0  0  0  0  0  0  0  0
   -3.1880   24.8500  -31.1460 H   0  0  0  0  0  0  0  0  0  0  0  0
   -8.2178   24.3912  -31.1933 H   0  0  0  0  0  0  0  0  0  0  0  0
   -9.3949   22.4441  -32.2094 H   0  0  0  0  0  0  0  0  0  0  0  0
   -9.0021   19.2724  -31.0926 H   0  0  0  0  0  0  0  0  0  0  0  0
  -10.1537   19.3562  -32.4686 H   0  0  0  0  0  0  0  0  0  0  0  0
   -8.8421   18.1289  -32.4686 H   0  0  0  0  0  0  0  0  0  0  0  0
   -5.1837   18.2981  -30.8209 H   0  0  0  0  0  0  0  0  0  0  0  0
   -6.9161   18.7137  -31.1115 H   0  0  0  0  0  0  0  0  0  0  0  0
   -5.7730   16.5356  -32.1936 H   0  0  0  0  0  0  0  0  0  0  0  0
   -7.0353   17.5377  -33.0635 H   0  0  0  0  0  0  0  0  0  0  0  0
   -6.6421   18.8564  -34.6681 H   0  0  0  0  0  0  0  0  0  0  0  0
   -5.1031   18.8369  -35.5943 H   0  0  0  0  0  0  0  0  0  0  0  0
   -6.1697   17.3916  -35.5943 H   0  0  0  0  0  0  0  0  0  0  0  0
   -3.3489   18.0281  -32.6606 H   0  0  0  0  0  0  0  0  0  0  0  0
   -3.2940   18.6413  -34.3666 H   0  0  0  0  0  0  0  0  0  0  0  0
   -3.4922   20.3593  -32.3835 H   0  0  0  0  0  0  0  0  0  0  0  0
   -4.5071   20.5657  -33.8626 H   0  0  0  0  0  0  0  0  0  0  0  0
   -4.5442   22.1136  -31.0685 H   0  0  0  0  0  0  0  0  0  0  0  0
   -3.9640   20.3557  -26.9116 H   0  0  0  0  0  0  0  0  0  0  0  0
   -3.3602   19.8220  -28.5306 H   0  0  0  0  0  0  0  0  0  0  0  0
   -2.2914   18.6019  -26.6160 H   0  0  0  0  0  0  0  0  0  0  0  0
   -1.1215   19.5019  -27.6481 H   0  0  0  0  0  0  0  0  0  0  0  0
   -2.2668   20.4084  -24.9590 H   0  0  0  0  0  0  0  0  0  0  0  0
   -0.5761   19.8623  -25.3006 H   0  0  0  0  0  0  0  0  0  0  0  0
   -0.3950   22.2576  -24.1391 H   0  0  0  0  0  0  0  0  0  0  0  0
    0.8858   22.0888  -25.3872 H   0  0  0  0  0  0  0  0  0  0  0  0
   -0.1837   23.5320  -25.3872 H   0  0  0  0  0  0  0  0  0  0  0  0
  1  2  1  0
  2  3  1  0
  3  4  2  0
  4  5  1  0
  5  6  2  0
  6  7  1  0
  7  8  2  0
  8  9  1  0
  9 10  1  0
 10 11  2  0
 10 12  2  0
 10 13  1  0
 13 14  2  0
 14 15  1  0
 15 16  2  0
 16 17  1  0
 17 18  1  0
 16 19  1  0
 19 20  1  0
 20 21  1  0
 21 22  1  0
 22 23  1  0
 23 24  1  0
 23 25  1  0
 25 26  1  0
 19 27  2  0
  6 28  1  0
 28 29  1  0
 29 30  1  0
 30 31  1  0
 31 32  1  0
  8  3  1  0
 27 13  1  0
 31  5  1  0
 26 20  1  0
  1 33  1  0
  1 34  1  0
  1 35  1  0
  4 36  1  0
  7 37  1  0
  9 38  1  0
 14 39  1  0
 15 40  1  0
 18 41  1  0
 18 42  1  0
 18 43  1  0
 21 44  1  0
 21 45  1  0
 22 46  1  0
 22 47  1  0
 24 48  1  0
 24 49  1  0
 24 50  1  0
 25 51  1  0
 25 52  1  0
 26 53  1  0
 26 54  1  0
 27 55  1  0
 28 56  1  0
 28 57  1  0
 29 58  1  0
 29 59  1  0
 30 60  1  0
 30 61  1  0
 32 62  1  0
 32 63  1  0
 32 64  1  0
M  END
>  <UniqueID>  (15) 
14

>  <SMILES>  (15) 
COc1cc2c(cc1NS(=O)(=O)c1ccc(OC)c(N3CCN(C)CC3)c1)CCCN2C

>  <Energy>  (15) 
79.75903000739135

>  <Genealogy>  (15) 
COc1cc2c(cc1NS(=O)(=O)c1ccc(OC)c(N3CCN(C)CC3)c1)CCCN2C (3D coordinates assigned)
COc1cc2c(cc1NS(=O)(=O)c1ccc(OC)c(N3CCN(C)CC3)c1)CCCN2C (nonaromatic ring conformer: 79.75903000739135 kcal/mol)

>  <smiles>  (15) 
COc1cc2c(cc1NS(=O)(=O)c1ccc(OC)c(N3CCN(C)CC3)c1)CCCN2C

>  <score_type>  (15) 
oracle

>  <origin>  (15) 
adgpu

>  <m_score__min__energy>  (15) 
-10.630000000000001

>  <m_primary>  (15) 
energy

$$$$
15:0
     RDKit          3D

 35 37  0  0  0  0  0  0  0  0999 V2000
   -0.7670   20.8020  -29.5120 C   0  0  0  0  0  0  0  0  0  0  0  0
   -1.7600   21.3020  -30.5080 C   0  0  0  0  0  0  0  0  0  0  0  0
   -1.6100   21.1630  -31.8380 N   0  0  0  0  0  0  0  0  0  0  0  0
   -2.6400   21.7420  -32.4390 N   0  0  0  0  0  0  0  0  0  0  0  0
   -3.4540   22.2630  -31.4980 C   0  0  0  0  0  0  0  0  0  0  0  0
   -4.7240   22.9560  -31.8080 C   0  0  0  0  0  0  0  0  0  0  0  0
   -4.9640   24.0830  -31.3030 O   0  0  0  0  0  0  0  0  0  0  0  0
   -5.6770   22.3990  -32.7220 N   0  0  0  0  0  0  0  0  0  0  0  0
   -6.9260   21.7880  -32.3690 C   0  0  0  0  0  0  0  0  0  0  0  0
   -7.1430   20.4440  -32.7040 C   0  0  0  0  0  0  0  0  0  0  0  0
   -8.3620   19.8290  -32.3990 C   0  0  0  0  0  0  0  0  0  0  0  0
   -9.3760   20.5580  -31.7730 C   0  0  0  0  0  0  0  0  0  0  0  0
   -9.1770   21.9050  -31.4590 C   0  0  0  0  0  0  0  0  0  0  0  0
   -7.9610   22.5230  -31.7630 C   0  0  0  0  0  0  0  0  0  0  0  0
   -2.9080   22.0250  -30.2480 C   0  0  0  0  0  0  0  0  0  0  0  0
   -3.5540   22.5140  -28.6420 S   0  0  0  0  0  0  0  0  0  0  0  0
   -2.1830   23.6220  -28.2860 C   0  0  0  0  0  0  0  0  0  0  0  0
   -1.1570   23.2140  -27.4230 C   0  0  0  0  0  0  0  0  0  0  0  0
   -0.0920   24.0740  -27.1370 C   0  0  0  0  0  0  0  0  0  0  0  0
   -0.0400   25.3420  -27.7240 C   0  0  0  0  0  0  0  0  0  0  0  0
    1.0170   26.1980  -27.4370 O   0  0  0  0  0  0  0  0  0  0  0  0
   -1.0500   25.7470  -28.6020 C   0  0  0  0  0  0  0  0  0  0  0  0
   -2.1150   24.8880  -28.8920 C   0  0  0  0  0  0  0  0  0  0  0  0
   -3.0920   25.2930  -29.7950 O   0  0  0  0  0  0  0  0  0  0  0  0
   -1.1412   20.9904  -28.4949 H   0  0  0  0  0  0  0  0  0  0  0  0
   -0.6180   19.7214  -29.6536 H   0  0  0  0  0  0  0  0  0  0  0  0
    0.1899   21.3258  -29.6536 H   0  0  0  0  0  0  0  0  0  0  0  0
   -6.3515   19.8707  -33.2088 H   0  0  0  0  0  0  0  0  0  0  0  0
   -8.5221   18.7706  -32.6523 H   0  0  0  0  0  0  0  0  0  0  0  0
  -10.3314   20.0715  -31.5272 H   0  0  0  0  0  0  0  0  0  0  0  0
   -9.9785   22.4797  -30.9719 H   0  0  0  0  0  0  0  0  0  0  0  0
   -7.8128   23.5873  -31.5277 H   0  0  0  0  0  0  0  0  0  0  0  0
   -1.1895   22.2128  -26.9685 H   0  0  0  0  0  0  0  0  0  0  0  0
    0.7049   23.7529  -26.4501 H   0  0  0  0  0  0  0  0  0  0  0  0
   -1.0069   26.7435  -29.0657 H   0  0  0  0  0  0  0  0  0  0  0  0
  1  2  1  0
  2  3  1  0
  3  4  1  0
  4  5  2  0
  5  6  1  0
  6  7  2  0
  6  8  1  0
  8  9  1  0
  9 10  2  0
 10 11  1  0
 11 12  2  0
 12 13  1  0
 13 14  2  0
  5 15  1  0
 15 16  1  0
 16 17  1  0
 17 18  2  0
 18 19  1  0
 19 20  2  0
 20 21  1  0
 20 22  1  0
 22 23  2  0
 23 24  1  0
 15  2  2  0
 23 17  1  0
 14  9  1  0
  1 25  1  0
  1 26  1  0
  1 27  1  0
 10 28  1  0
 11 29  1  0
 12 30  1  0
 13 31  1  0
 14 32  1  0
 18 33  1  0
 19 34  1  0
 22 35  1  0
M  CHG  4   3  -1   8  -1  21  -1  24  -1
M  END
>  <UniqueID>  (16) 
15

>  <SMILES>  (16) 
Cc1[n-]nc(C(=O)[N-]c2ccccc2)c1Sc1ccc([O-])cc1[O-]

>  <Energy>  (16) 
69.45924723274045

>  <Genealogy>  (16) 
Cc1[n-]nc(C(=O)[N-]c2ccccc2)c1Sc1ccc([O-])cc1[O-] (protonated)
Cc1[n-]nc(C(=O)[N-]c2ccccc2)c1Sc1ccc([O-])cc1[O-] (3D coordinates assigned)
Cc1[n-]nc(C(=O)[N-]c2ccccc2)c1Sc1ccc([O-])cc1[O-] (optimized conformer: 69.45924723274045 kcal/mol)

>  <smiles>  (16) 
Cc1[nH]nc(C(=O)Nc2ccccc2)c1Sc1ccc(O)cc1O

>  <score_type>  (16) 
oracle

>  <origin>  (16) 
adgpu

>  <m_score__min__energy>  (16) 
-11.77

>  <m_primary>  (16) 
energy

$$$$
16:0
     RDKit          3D

 54 58  0  0  0  0  0  0  0  0999 V2000
    2.7690   19.5910  -27.4230 O   0  0  0  0  0  0  0  0  0  0  0  0
    1.8600   19.9520  -28.2160 C   0  0  0  0  0  0  0  0  0  0  0  0
    1.5860   19.2070  -29.3700 C   0  0  0  0  0  0  0  0  0  0  0  0
    0.5980   19.6140  -30.2120 N   0  0  0  0  0  0  0  0  0  0  0  0
   -0.1320   20.7330  -29.9540 C   0  0  0  0  0  0  0  0  0  0  0  0
   -1.1410   21.1570  -30.8360 C   0  0  0  0  0  0  0  0  0  0  0  0
   -1.4530   20.4040  -32.0170 N   0  0  0  0  0  0  0  0  0  0  0  0
   -2.7200   19.6730  -32.1080 C   0  0  0  0  0  0  0  0  0  0  0  0
   -3.3420   19.8160  -33.5140 C   0  0  0  0  0  0  0  0  0  0  0  0
   -2.3580   20.0380  -34.5930 N   0  0  0  0  0  0  0  0  0  0  0  0
   -1.0250   19.5120  -34.2700 C   0  0  0  0  0  0  0  0  0  0  0  0
   -0.4400   20.2570  -33.0680 C   0  0  0  0  0  0  0  0  0  0  0  0
   -1.8450   22.3400  -30.5620 C   0  0  0  0  0  0  0  0  0  0  0  0
   -1.5500   23.0980  -29.4200 C   0  0  0  0  0  0  0  0  0  0  0  0
   -2.3000   24.6750  -29.1680 S   0  0  0  0  0  0  0  0  0  0  0  0
   -1.2450   25.7340  -29.3330 O   0  0  0  0  0  0  0  0  0  0  0  0
   -2.8910   24.7780  -27.7840 O   0  0  0  0  0  0  0  0  0  0  0  0
   -3.5510   24.9220  -30.3480 N   0  0  0  0  0  0  0  0  0  0  0  0
   -4.7300   24.1100  -30.4270 C   0  0  0  0  0  0  0  0  0  0  0  0
   -4.8250   23.0730  -31.3670 C   0  0  0  0  0  0  0  0  0  0  0  0
   -6.0380   22.4070  -31.5780 C   0  0  0  0  0  0  0  0  0  0  0  0
   -7.1660   22.7570  -30.8120 C   0  0  0  0  0  0  0  0  0  0  0  0
   -7.0370   23.7110  -29.7950 C   0  0  0  0  0  0  0  0  0  0  0  0
   -5.8320   24.3960  -29.6070 C   0  0  0  0  0  0  0  0  0  0  0  0
   -5.7620   25.3780  -28.6190 O   0  0  0  0  0  0  0  0  0  0  0  0
   -8.4880   22.0590  -31.0200 C   0  0  0  0  0  0  0  0  0  0  0  0
   -8.5950   21.4570  -32.3570 N   0  0  0  0  0  0  0  0  0  0  0  0
   -7.4370   20.6000  -32.6360 C   0  0  0  0  0  0  0  0  0  0  0  0
   -6.1480   21.4280  -32.7190 C   0  0  0  0  0  0  0  0  0  0  0  0
   -0.5610   22.6590  -28.5290 C   0  0  0  0  0  0  0  0  0  0  0  0
    0.1510   21.4860  -28.7950 C   0  0  0  0  0  0  0  0  0  0  0  0
    1.1380   21.0740  -27.9560 N   0  0  0  0  0  0  0  0  0  0  0  0
    2.1656   18.2993  -29.5939 H   0  0  0  0  0  0  0  0  0  0  0  0
   -2.5364   18.6081  -31.9026 H   0  0  0  0  0  0  0  0  0  0  0  0
   -3.4203   20.0927  -31.3708 H   0  0  0  0  0  0  0  0  0  0  0  0
   -3.8992   18.8948  -33.7398 H   0  0  0  0  0  0  0  0  0  0  0  0
   -3.9853   20.7078  -33.4852 H   0  0  0  0  0  0  0  0  0  0  0  0
   -2.2700   21.0680  -34.7570 H   0  0  0  0  0  0  0  0  0  0  0  0
   -1.1051   18.4415  -34.0301 H   0  0  0  0  0  0  0  0  0  0  0  0
   -0.3633   19.6540  -35.1371 H   0  0  0  0  0  0  0  0  0  0  0  0
    0.4150   19.6902  -32.6710 H   0  0  0  0  0  0  0  0  0  0  0  0
   -0.1127   21.2562  -33.3914 H   0  0  0  0  0  0  0  0  0  0  0  0
   -2.6354   22.6755  -31.2495 H   0  0  0  0  0  0  0  0  0  0  0  0
   -3.9361   22.7799  -31.9449 H   0  0  0  0  0  0  0  0  0  0  0  0
   -7.8924   23.9240  -29.1370 H   0  0  0  0  0  0  0  0  0  0  0  0
   -4.8820   25.6730  -28.2100 H   0  0  0  0  0  0  0  0  0  0  0  0
   -8.5921   21.2657  -30.2651 H   0  0  0  0  0  0  0  0  0  0  0  0
   -9.2851   22.8109  -30.9239 H   0  0  0  0  0  0  0  0  0  0  0  0
   -8.6350   22.2210  -33.0730 H   0  0  0  0  0  0  0  0  0  0  0  0
   -7.3365   19.8576  -31.8306 H   0  0  0  0  0  0  0  0  0  0  0  0
   -7.5956   20.1002  -33.6030 H   0  0  0  0  0  0  0  0  0  0  0  0
   -5.2846   20.7471  -32.6886 H   0  0  0  0  0  0  0  0  0  0  0  0
   -6.1678   21.9989  -33.6591 H   0  0  0  0  0  0  0  0  0  0  0  0
   -0.3449   23.2384  -27.6193 H   0  0  0  0  0  0  0  0  0  0  0  0
  1  2  2  0
  2  3  1  0
  3  4  2  0
  4  5  1  0
  5  6  2  0
  6  7  1  0
  7  8  1  0
  8  9  1  0
  9 10  1  0
 10 11  1  0
 11 12  1  0
  6 13  1  0
 13 14  2  0
 14 15  1  0
 15 16  2  0
 15 17  2  0
 15 18  1  0
 18 19  1  0
 19 20  2  0
 20 21  1  0
 21 22  2  0
 22 23  1  0
 23 24  2  0
 24 25  1  0
 22 26  1  0
 26 27  1  0
 27 28  1  0
 28 29  1  0
 14 30  1  0
 30 31  2  0
 31 32  1  0
 32  2  1  0
 31  5  1  0
 12  7  1  0
 24 19  1  0
 29 21  1  0
  3 33  1  0
  8 34  1  0
  8 35  1  0
  9 36  1  0
  9 37  1  0
 10 38  1  0
 11 39  1  0
 11 40  1  0
 12 41  1  0
 12 42  1  0
 13 43  1  0
 20 44  1  0
 23 45  1  0
 25 46  1  0
 26 47  1  0
 26 48  1  0
 27 49  1  0
 28 50  1  0
 28 51  1  0
 29 52  1  0
 29 53  1  0
 30 54  1  0
M  CHG  2  18  -1  32  -1
M  END
>  <UniqueID>  (17) 
16

>  <SMILES>  (17) 
O=c1cnc2c(N3CCNCC3)cc(S(=O)(=O)[N-]c3cc4c(cc3O)CNCC4)cc2[n-]1

>  <Energy>  (17) 
77.91535260985957

>  <Genealogy>  (17) 
O=c1cnc2c(N3CCNCC3)cc(S(=O)(=O)[N-]c3cc4c(cc3O)CNCC4)cc2[n-]1 (protonated)
O=c1cnc2c(N3CCNCC3)cc(S(=O)(=O)[N-]c3cc4c(cc3O)CNCC4)cc2[n-]1 (3D coordinates assigned)
O=c1cnc2c(N3CCNCC3)cc(S(=O)(=O)[N-]c3cc4c(cc3O)CNCC4)cc2[n-]1 (nonaromatic ring conformer: 77.91535260985957 kcal/mol)

>  <smiles>  (17) 
O=c1cnc2c(N3CCNCC3)cc(S(=O)(=O)Nc3cc4c(cc3O)CNCC4)cc2[nH]1

>  <score_type>  (17) 
oracle

>  <origin>  (17) 
adgpu

>  <m_score__min__energy>  (17) 
-13.039999999999999

>  <m_primary>  (17) 
energy

$$$$
17:0
     RDKit          3D

 51 54  0  0  0  0  0  0  0  0999 V2000
   -4.3280   25.3280  -30.9790 O   0  0  0  0  0  0  0  0  0  0  0  0
   -5.4180   24.8040  -30.0840 S   0  0  0  0  0  0  0  0  0  0  0  0
   -6.3500   25.9300  -29.7290 O   0  0  0  0  0  0  0  0  0  0  0  0
   -4.7120   24.1780  -28.6270 N   0  0  0  0  0  0  0  0  0  0  0  0
   -3.5480   23.3400  -28.5660 C   0  0  0  0  0  0  0  0  0  0  0  0
   -3.6100   22.0180  -28.0900 C   0  0  0  0  0  0  0  0  0  0  0  0
   -2.4470   21.2410  -27.9830 C   0  0  0  0  0  0  0  0  0  0  0  0
   -1.2000   21.8000  -28.3360 C   0  0  0  0  0  0  0  0  0  0  0  0
   -1.1470   23.1000  -28.8580 C   0  0  0  0  0  0  0  0  0  0  0  0
   -2.3140   23.8700  -28.9700 C   0  0  0  0  0  0  0  0  0  0  0  0
   -2.2510   25.1690  -29.4730 O   0  0  0  0  0  0  0  0  0  0  0  0
    0.0670   20.9800  -28.2390 C   0  0  0  0  0  0  0  0  0  0  0  0
   -0.0620   19.8740  -27.2820 N   0  0  0  0  0  0  0  0  0  0  0  0
   -1.2430   19.0560  -27.5980 C   0  0  0  0  0  0  0  0  0  0  0  0
   -2.5390   19.8540  -27.3960 C   0  0  0  0  0  0  0  0  0  0  0  0
   -6.3420   23.5480  -30.9080 C   0  0  0  0  0  0  0  0  0  0  0  0
   -7.7000   23.7450  -31.1980 C   0  0  0  0  0  0  0  0  0  0  0  0
   -8.4240   22.7590  -31.8750 C   0  0  0  0  0  0  0  0  0  0  0  0
   -7.7970   21.5730  -32.2660 C   0  0  0  0  0  0  0  0  0  0  0  0
   -6.4420   21.3600  -31.9690 C   0  0  0  0  0  0  0  0  0  0  0  0
   -5.6380   19.8740  -32.4870 S   0  0  0  0  0  0  0  0  0  0  0  0
   -5.9590   18.7760  -31.5080 O   0  0  0  0  0  0  0  0  0  0  0  0
   -6.1790   19.4690  -33.8320 O   0  0  0  0  0  0  0  0  0  0  0  0
   -3.9010   20.0450  -32.5970 N   0  0  0  0  0  0  0  0  0  0  0  0
   -3.2860   20.2850  -31.2920 C   0  0  0  0  0  0  0  0  0  0  0  0
   -2.0080   21.0750  -31.5480 C   0  0  0  0  0  0  0  0  0  0  0  0
   -2.1160   21.5700  -32.9830 C   0  0  0  0  0  0  0  0  0  0  0  0
   -3.5130   21.1810  -33.4290 C   0  0  0  0  0  0  0  0  0  0  0  0
   -5.7190   22.3510  -31.2870 C   0  0  0  0  0  0  0  0  0  0  0  0
   -4.5801   21.5891  -27.7987 H   0  0  0  0  0  0  0  0  0  0  0  0
   -0.1831   23.5193  -29.1821 H   0  0  0  0  0  0  0  0  0  0  0  0
   -3.0880   25.6830  -29.7250 H   0  0  0  0  0  0  0  0  0  0  0  0
    0.2977   20.5651  -29.2313 H   0  0  0  0  0  0  0  0  0  0  0  0
    0.8718   21.6413  -27.8855 H   0  0  0  0  0  0  0  0  0  0  0  0
   -0.1670   20.2710  -26.3150 H   0  0  0  0  0  0  0  0  0  0  0  0
   -1.1828   18.7282  -28.6463 H   0  0  0  0  0  0  0  0  0  0  0  0
   -1.2581   18.1887  -26.9216 H   0  0  0  0  0  0  0  0  0  0  0  0
   -3.3663   19.3167  -27.8827 H   0  0  0  0  0  0  0  0  0  0  0  0
   -2.7109   19.9540  -26.3141 H   0  0  0  0  0  0  0  0  0  0  0  0
   -8.1967   24.6776  -30.8920 H   0  0  0  0  0  0  0  0  0  0  0  0
   -9.4890   22.9171  -32.1002 H   0  0  0  0  0  0  0  0  0  0  0  0
   -8.3671   20.8042  -32.8081 H   0  0  0  0  0  0  0  0  0  0  0  0
   -3.9680   20.8645  -30.6524 H   0  0  0  0  0  0  0  0  0  0  0  0
   -3.0687   19.3376  -30.7770 H   0  0  0  0  0  0  0  0  0  0  0  0
   -1.9355   21.9244  -30.8529 H   0  0  0  0  0  0  0  0  0  0  0  0
   -1.1099   20.4584  -31.3957 H   0  0  0  0  0  0  0  0  0  0  0  0
   -1.9864   22.6615  -33.0262 H   0  0  0  0  0  0  0  0  0  0  0  0
   -1.3398   21.1346  -33.6296 H   0  0  0  0  0  0  0  0  0  0  0  0
   -4.2091   22.0195  -33.2793 H   0  0  0  0  0  0  0  0  0  0  0  0
   -3.5369   20.9234  -34.4981 H   0  0  0  0  0  0  0  0  0  0  0  0
   -4.6577   22.1874  -31.0486 H   0  0  0  0  0  0  0  0  0  0  0  0
  1  2  2  0
  2  3  2  0
  2  4  1  0
  4  5  1  0
  5  6  2  0
  6  7  1  0
  7  8  2  0
  8  9  1  0
  9 10  2  0
 10 11  1  0
  8 12  1  0
 12 13  1  0
 13 14  1  0
 14 15  1  0
  2 16  1  0
 16 17  2  0
 17 18  1  0
 18 19  2  0
 19 20  1  0
 20 21  1  0
 21 22  2  0
 21 23  2  0
 21 24  1  0
 24 25  1  0
 25 26  1  0
 26 27  1  0
 27 28  1  0
 20 29  2  0
 10  5  1  0
 29 16  1  0
 15  7  1  0
 28 24  1  0
  6 30  1  0
  9 31  1  0
 11 32  1  0
 12 33  1  0
 12 34  1  0
 13 35  1  0
 14 36  1  0
 14 37  1  0
 15 38  1  0
 15 39  1  0
 17 40  1  0
 18 41  1  0
 19 42  1  0
 25 43  1  0
 25 44  1  0
 26 45  1  0
 26 46  1  0
 27 47  1  0
 27 48  1  0
 28 49  1  0
 28 50  1  0
 29 51  1  0
M  CHG  1   4  -1
M  END
>  <UniqueID>  (18) 
17

>  <SMILES>  (18) 
O=S(=O)([N-]c1cc2c(cc1O)CNCC2)c1cccc(S(=O)(=O)N2CCCC2)c1

>  <Energy>  (18) 
58.41760075397004

>  <Genealogy>  (18) 
O=S(=O)([N-]c1cc2c(cc1O)CNCC2)c1cccc(S(=O)(=O)N2CCCC2)c1 (protonated)
O=S(=O)([N-]c1cc2c(cc1O)CNCC2)c1cccc(S(=O)(=O)N2CCCC2)c1 (3D coordinates assigned)
O=S(=O)([N-]c1cc2c(cc1O)CNCC2)c1cccc(S(=O)(=O)N2CCCC2)c1 (nonaromatic ring conformer: 58.41760075397004 kcal/mol)

>  <smiles>  (18) 
O=S(=O)(Nc1cc2c(cc1O)CNCC2)c1cccc(S(=O)(=O)N2CCCC2)c1

>  <score_type>  (18) 
oracle

>  <origin>  (18) 
adgpu

>  <m_score__min__energy>  (18) 
-12.74

>  <m_primary>  (18) 
energy

$$$$
18:0
     RDKit          3D

 61 65  0  0  0  0  0  0  0  0999 V2000
   -1.2360   20.0430  -28.5030 C   0  0  0  0  0  0  0  0  0  0  0  0
   -1.4310   21.5200  -28.6690 C   0  0  0  0  0  0  0  0  0  0  0  0
   -0.3430   22.3950  -28.5660 C   0  0  0  0  0  0  0  0  0  0  0  0
   -0.5400   23.7750  -28.6990 C   0  0  0  0  0  0  0  0  0  0  0  0
   -1.8240   24.2900  -28.9430 C   0  0  0  0  0  0  0  0  0  0  0  0
   -2.0160   25.6640  -29.0370 O   0  0  0  0  0  0  0  0  0  0  0  0
   -2.9150   23.4160  -29.0700 C   0  0  0  0  0  0  0  0  0  0  0  0
   -4.2340   23.8950  -29.3570 N   0  0  0  0  0  0  0  0  0  0  0  0
   -4.5790   24.5960  -30.5490 C   0  0  0  0  0  0  0  0  0  0  0  0
   -3.9250   25.6220  -30.8730 O   0  0  0  0  0  0  0  0  0  0  0  0
   -5.6840   24.1550  -31.3480 N   0  0  0  0  0  0  0  0  0  0  0  0
   -5.7990   22.8590  -31.9600 C   0  0  0  0  0  0  0  0  0  0  0  0
   -4.6950   22.2720  -32.5980 C   0  0  0  0  0  0  0  0  0  0  0  0
   -4.8030   21.0110  -33.1870 C   0  0  0  0  0  0  0  0  0  0  0  0
   -6.0100   20.3060  -33.1450 C   0  0  0  0  0  0  0  0  0  0  0  0
   -6.0910   18.6850  -33.8410 S   0  0  0  0  0  0  0  0  0  0  0  0
   -6.0670   18.7730  -35.3400 O   0  0  0  0  0  0  0  0  0  0  0  0
   -7.3620   18.0300  -33.3820 O   0  0  0  0  0  0  0  0  0  0  0  0
   -4.7450   17.7410  -33.2870 N   0  0  0  0  0  0  0  0  0  0  0  0
   -3.3740   18.0650  -33.5430 C   0  0  0  0  0  0  0  0  0  0  0  0
   -2.7670   19.0600  -32.7670 C   0  0  0  0  0  0  0  0  0  0  0  0
   -1.4110   19.3830  -32.9370 C   0  0  0  0  0  0  0  0  0  0  0  0
   -0.6520   18.6980  -33.9080 C   0  0  0  0  0  0  0  0  0  0  0  0
   -1.2750   17.7490  -34.7280 C   0  0  0  0  0  0  0  0  0  0  0  0
   -2.6280   17.4300  -34.5520 C   0  0  0  0  0  0  0  0  0  0  0  0
   -3.2220   16.5060  -35.4050 O   0  0  0  0  0  0  0  0  0  0  0  0
    0.8020   19.0360  -34.1360 C   0  0  0  0  0  0  0  0  0  0  0  0
    1.4360   19.6600  -32.9550 N   0  0  0  0  0  0  0  0  0  0  0  0
    1.7410   18.6700  -31.9030 C   0  0  0  0  0  0  0  0  0  0  0  0
    0.6340   20.7950  -32.4540 C   0  0  0  0  0  0  0  0  0  0  0  0
   -0.7690   20.3650  -31.9950 C   0  0  0  0  0  0  0  0  0  0  0  0
   -7.1360   20.8980  -32.5450 C   0  0  0  0  0  0  0  0  0  0  0  0
   -8.3300   20.2380  -32.5160 N   0  0  0  0  0  0  0  0  0  0  0  0
   -9.4460   20.7760  -31.9520 C   0  0  0  0  0  0  0  0  0  0  0  0
   -9.3900   22.0370  -31.3660 C   0  0  0  0  0  0  0  0  0  0  0  0
   -8.1840   22.7420  -31.3680 C   0  0  0  0  0  0  0  0  0  0  0  0
   -7.0350   22.1860  -31.9620 C   0  0  0  0  0  0  0  0  0  0  0  0
   -2.7190   22.0360  -28.8920 C   0  0  0  0  0  0  0  0  0  0  0  0
   -1.2033   19.7956  -27.4317 H   0  0  0  0  0  0  0  0  0  0  0  0
   -2.0712   19.5072  -28.9778 H   0  0  0  0  0  0  0  0  0  0  0  0
   -0.2904   19.7423  -28.9778 H   0  0  0  0  0  0  0  0  0  0  0  0
    0.6662   21.9986  -28.3807 H   0  0  0  0  0  0  0  0  0  0  0  0
    0.3161   24.4601  -28.6119 H   0  0  0  0  0  0  0  0  0  0  0  0
   -2.8990   26.0490  -29.3390 H   0  0  0  0  0  0  0  0  0  0  0  0
   -3.7364   22.8103  -32.6341 H   0  0  0  0  0  0  0  0  0  0  0  0
   -3.9304   20.5677  -33.6890 H   0  0  0  0  0  0  0  0  0  0  0  0
   -3.3613   19.5967  -32.0129 H   0  0  0  0  0  0  0  0  0  0  0  0
   -0.6962   17.2488  -35.5185 H   0  0  0  0  0  0  0  0  0  0  0  0
    1.3444   18.1102  -34.3783 H   0  0  0  0  0  0  0  0  0  0  0  0
    0.8483   19.7630  -34.9602 H   0  0  0  0  0  0  0  0  0  0  0  0
    1.5992   19.1303  -30.9141 H   0  0  0  0  0  0  0  0  0  0  0  0
    1.0672   17.8066  -32.0056 H   0  0  0  0  0  0  0  0  0  0  0  0
    2.7839   18.3355  -32.0056 H   0  0  0  0  0  0  0  0  0  0  0  0
    1.1601   21.2503  -31.6020 H   0  0  0  0  0  0  0  0  0  0  0  0
    0.5115   21.5096  -33.2812 H   0  0  0  0  0  0  0  0  0  0  0  0
   -0.6872   19.8987  -31.0021 H   0  0  0  0  0  0  0  0  0  0  0  0
   -1.4014   21.2647  -31.9702 H   0  0  0  0  0  0  0  0  0  0  0  0
  -10.3917   20.2142  -31.9594 H   0  0  0  0  0  0  0  0  0  0  0  0
  -10.2877   22.4749  -30.9052 H   0  0  0  0  0  0  0  0  0  0  0  0
   -8.1318   23.7374  -30.9027 H   0  0  0  0  0  0  0  0  0  0  0  0
   -3.5811   21.3537  -28.9275 H   0  0  0  0  0  0  0  0  0  0  0  0
  1  2  1  0
  2  3  2  0
  3  4  1  0
  4  5  2  0
  5  6  1  0
  5  7  1  0
  7  8  1  0
  8  9  1  0
  9 10  2  0
  9 11  1  0
 11 12  1  0
 12 13  2  0
 13 14  1  0
 14 15  2  0
 15 16  1  0
 16 17  2  0
 16 18  2  0
 16 19  1  0
 19 20  1  0
 20 21  2  0
 21 22  1  0
 22 23  2  0
 23 24  1  0
 24 25  2  0
 25 26  1  0
 23 27  1  0
 27 28  1  0
 28 29  1  0
 28 30  1  0
 30 31  1  0
 15 32  1  0
 32 33  2  0
 33 34  1  0
 34 35  2  0
 35 36  1  0
 36 37  2  0
  7 38  2  0
 38  2  1  0
 37 12  1  0
 25 20  1  0
 37 32  1  0
 31 22  1  0
  1 39  1  0
  1 40  1  0
  1 41  1  0
  3 42  1  0
  4 43  1  0
  6 44  1  0
 13 45  1  0
 14 46  1  0
 21 47  1  0
 24 48  1  0
 27 49  1  0
 27 50  1  0
 29 51  1  0
 29 52  1  0
 29 53  1  0
 30 54  1  0
 30 55  1  0
 31 56  1  0
 31 57  1  0
 34 58  1  0
 35 59  1  0
 36 60  1  0
 38 61  1  0
M  CHG  4   8  -1  11  -1  19  -1  26  -1
M  END
>  <UniqueID>  (19) 
18

>  <SMILES>  (19) 
Cc1ccc(O)c([N-]C(=O)[N-]c2ccc(S(=O)(=O)[N-]c3cc4c(cc3[O-])CN(C)CC4)c3ncccc23)c1

>  <Energy>  (19) 
94.05908275102853

>  <Genealogy>  (19) 
Cc1ccc(O)c([N-]C(=O)[N-]c2ccc(S(=O)(=O)[N-]c3cc4c(cc3[O-])CN(C)CC4)c3ncccc23)c1 (protonated)
Cc1ccc(O)c([N-]C(=O)[N-]c2ccc(S(=O)(=O)[N-]c3cc4c(cc3[O-])CN(C)CC4)c3ncccc23)c1 (3D coordinates assigned)
Cc1ccc(O)c([N-]C(=O)[N-]c2ccc(S(=O)(=O)[N-]c3cc4c(cc3[O-])CN(C)CC4)c3ncccc23)c1 (nonaromatic ring conformer: 94.05908275102853 kcal/mol)

>  <smiles>  (19) 
Cc1ccc(O)c(NC(=O)Nc2ccc(S(=O)(=O)Nc3cc4c(cc3O)CN(C)CC4)c3ncccc23)c1

>  <score_type>  (19) 
oracle

>  <origin>  (19) 
adgpu

>  <m_score__min__energy>  (19) 
-16.300000000000001

>  <m_primary>  (19) 
energy

$$$$
19:0
     RDKit          3D

 80 85  0  0  0  0  0  0  0  0999 V2000
    3.7970   13.0340  -26.2220 C   0  0  0  0  0  0  0  0  0  0  0  0
    2.4840   12.5150  -26.8510 C   0  0  0  0  0  0  0  0  0  0  0  0
    1.3250   13.3410  -26.2540 C   0  0  0  0  0  0  0  0  0  0  0  0
    2.4580   12.6210  -28.3410 N   0  0  0  0  0  0  0  0  0  0  0  0
    1.5630   11.6090  -28.9490 C   0  0  0  0  0  0  0  0  0  0  0  0
    1.2120   12.0600  -30.3690 C   0  0  0  0  0  0  0  0  0  0  0  0
    2.3730   12.6940  -31.0060 N   0  0  0  0  0  0  0  0  0  0  0  0
    2.2110   13.4390  -32.2240 C   0  0  0  0  0  0  0  0  0  0  0  0
    2.9080   13.1360  -33.2330 O   0  0  0  0  0  0  0  0  0  0  0  0
    1.2930   14.5990  -32.2910 C   0  0  0  0  0  0  0  0  0  0  0  0
    1.0520   15.2520  -33.5140 C   0  0  0  0  0  0  0  0  0  0  0  0
    0.2110   16.3680  -33.5650 C   0  0  0  0  0  0  0  0  0  0  0  0
   -0.4070   16.8450  -32.3980 C   0  0  0  0  0  0  0  0  0  0  0  0
   -1.2530   18.0070  -32.4160 N   0  0  0  0  0  0  0  0  0  0  0  0
   -2.3930   18.1590  -33.2810 C   0  0  0  0  0  0  0  0  0  0  0  0
   -2.6410   17.2880  -34.1600 O   0  0  0  0  0  0  0  0  0  0  0  0
   -3.2950   19.2690  -33.1210 N   0  0  0  0  0  0  0  0  0  0  0  0
   -4.7110   19.1060  -32.7930 C   0  0  0  0  0  0  0  0  0  0  0  0
   -5.1290   20.4810  -32.4170 C   0  0  0  0  0  0  0  0  0  0  0  0
   -6.3280   20.8740  -31.8260 C   0  0  0  0  0  0  0  0  0  0  0  0
   -6.4410   22.1870  -31.3420 C   0  0  0  0  0  0  0  0  0  0  0  0
   -5.3570   23.0860  -31.4570 C   0  0  0  0  0  0  0  0  0  0  0  0
   -5.3800   24.6250  -30.5940 S   0  0  0  0  0  0  0  0  0  0  0  0
   -6.2700   24.5240  -29.3870 O   0  0  0  0  0  0  0  0  0  0  0  0
   -5.9210   25.6790  -31.5200 O   0  0  0  0  0  0  0  0  0  0  0  0
   -3.7860   25.0890  -30.0810 N   0  0  0  0  0  0  0  0  0  0  0  0
   -2.9110   24.2770  -29.2830 C   0  0  0  0  0  0  0  0  0  0  0  0
   -3.2840   22.9880  -28.8670 C   0  0  0  0  0  0  0  0  0  0  0  0
   -2.3470   22.1350  -28.2610 C   0  0  0  0  0  0  0  0  0  0  0  0
   -1.0350   22.5960  -28.0310 C   0  0  0  0  0  0  0  0  0  0  0  0
   -0.7010   23.9220  -28.3430 C   0  0  0  0  0  0  0  0  0  0  0  0
   -1.6310   24.7550  -28.9750 C   0  0  0  0  0  0  0  0  0  0  0  0
   -1.2600   26.0470  -29.3280 O   0  0  0  0  0  0  0  0  0  0  0  0
   -0.0060   21.6990  -27.3840 C   0  0  0  0  0  0  0  0  0  0  0  0
   -0.3160   20.2770  -27.5780 N   0  0  0  0  0  0  0  0  0  0  0  0
   -1.6800   19.9760  -27.1270 C   0  0  0  0  0  0  0  0  0  0  0  0
   -2.7200   20.6980  -27.9940 C   0  0  0  0  0  0  0  0  0  0  0  0
   -4.1870   22.6850  -32.1290 C   0  0  0  0  0  0  0  0  0  0  0  0
   -4.0880   21.3660  -32.5700 C   0  0  0  0  0  0  0  0  0  0  0  0
   -2.8680   20.6690  -33.0330 C   0  0  0  0  0  0  0  0  0  0  0  0
   -0.1440   16.2120  -31.1740 C   0  0  0  0  0  0  0  0  0  0  0  0
    0.6980   15.1000  -31.1190 C   0  0  0  0  0  0  0  0  0  0  0  0
    3.7150   12.3660  -30.5190 C   0  0  0  0  0  0  0  0  0  0  0  0
    3.7960   12.5480  -28.9860 C   0  0  0  0  0  0  0  0  0  0  0  0
    3.7160   13.0020  -25.1255 H   0  0  0  0  0  0  0  0  0  0  0  0
    4.6349   12.3994  -26.5464 H   0  0  0  0  0  0  0  0  0  0  0  0
    3.9746   14.0700  -26.5464 H   0  0  0  0  0  0  0  0  0  0  0  0
    2.3917   11.4436  -26.6195 H   0  0  0  0  0  0  0  0  0  0  0  0
    1.3763   13.3044  -25.1558 H   0  0  0  0  0  0  0  0  0  0  0  0
    1.4076   14.3851  -26.5903 H   0  0  0  0  0  0  0  0  0  0  0  0
    0.3650   12.9222  -26.5903 H   0  0  0  0  0  0  0  0  0  0  0  0
    2.0740   10.6356  -28.9847 H   0  0  0  0  0  0  0  0  0  0  0  0
    0.6467   11.5077  -28.3489 H   0  0  0  0  0  0  0  0  0  0  0  0
    0.9059   11.1855  -30.9618 H   0  0  0  0  0  0  0  0  0  0  0  0
    0.3899   12.7891  -30.3190 H   0  0  0  0  0  0  0  0  0  0  0  0
    1.5276   14.8827  -34.4345 H   0  0  0  0  0  0  0  0  0  0  0  0
    0.0326   16.8750  -34.5247 H   0  0  0  0  0  0  0  0  0  0  0  0
   -1.1110   18.7030  -31.6500 H   0  0  0  0  0  0  0  0  0  0  0  0
   -5.2789   18.7444  -33.6629 H   0  0  0  0  0  0  0  0  0  0  0  0
   -4.8888   18.3669  -31.9979 H   0  0  0  0  0  0  0  0  0  0  0  0
   -7.1688   20.1699  -31.7404 H   0  0  0  0  0  0  0  0  0  0  0  0
   -7.3784   22.5176  -30.8708 H   0  0  0  0  0  0  0  0  0  0  0  0
   -4.3180   22.6441  -29.0171 H   0  0  0  0  0  0  0  0  0  0  0  0
    0.2970   24.3091  -28.0896 H   0  0  0  0  0  0  0  0  0  0  0  0
    0.9785   21.9114  -27.8262 H   0  0  0  0  0  0  0  0  0  0  0  0
   -0.0091   21.9030  -26.3031 H   0  0  0  0  0  0  0  0  0  0  0  0
   -0.2340   20.0430  -28.5960 H   0  0  0  0  0  0  0  0  0  0  0  0
   -1.8488   18.8910  -27.1921 H   0  0  0  0  0  0  0  0  0  0  0  0
   -1.7893   20.3224  -26.0887 H   0  0  0  0  0  0  0  0  0  0  0  0
   -2.8060   20.1707  -28.9555 H   0  0  0  0  0  0  0  0  0  0  0  0
   -3.6740   20.6949  -27.4464 H   0  0  0  0  0  0  0  0  0  0  0  0
   -3.3674   23.3978  -32.3027 H   0  0  0  0  0  0  0  0  0  0  0  0
   -2.5471   21.0460  -34.0153 H   0  0  0  0  0  0  0  0  0  0  0  0
   -2.0070   20.8162  -32.3644 H   0  0  0  0  0  0  0  0  0  0  0  0
   -0.6045   16.5946  -30.2512 H   0  0  0  0  0  0  0  0  0  0  0  0
    0.8974   14.6125  -30.1533 H   0  0  0  0  0  0  0  0  0  0  0  0
    3.9460   11.3207  -30.7718 H   0  0  0  0  0  0  0  0  0  0  0  0
    4.4406   13.0416  -30.9956 H   0  0  0  0  0  0  0  0  0  0  0  0
    4.3452   11.6955  -28.5598 H   0  0  0  0  0  0  0  0  0  0  0  0
    4.3082   13.5022  -28.7932 H   0  0  0  0  0  0  0  0  0  0  0  0
  1  2  1  0
  2  3  1  0
  2  4  1  0
  4  5  1  0
  5  6  1  0
  6  7  1  0
  7  8  1  0
  8  9  2  0
  8 10  1  0
 10 11  2  0
 11 12  1  0
 12 13  2  0
 13 14  1  0
 14 15  1  0
 15 16  2  0
 15 17  1  0
 17 18  1  0
 18 19  1  0
 19 20  2  0
 20 21  1  0
 21 22  2  0
 22 23  1  0
 23 24  2  0
 23 25  2  0
 23 26  1  0
 26 27  1  0
 27 28  2  0
 28 29  1  0
 29 30  2  0
 30 31  1  0
 31 32  2  0
 32 33  1  0
 30 34  1  0
 34 35  1  0
 35 36  1  0
 36 37  1  0
 22 38  1  0
 38 39  2  0
 39 40  1  0
 13 41  1  0
 41 42  2  0
  7 43  1  0
 43 44  1  0
 44  4  1  0
 42 10  1  0
 40 17  1  0
 39 19  1  0
 32 27  1  0
 37 29  1  0
  1 45  1  0
  1 46  1  0
  1 47  1  0
  2 48  1  0
  3 49  1  0
  3 50  1  0
  3 51  1  0
  5 52  1  0
  5 53  1  0
  6 54  1  0
  6 55  1  0
 11 56  1  0
 12 57  1  0
 14 58  1  0
 18 59  1  0
 18 60  1  0
 20 61  1  0
 21 62  1  0
 28 63  1  0
 31 64  1  0
 34 65  1  0
 34 66  1  0
 35 67  1  0
 36 68  1  0
 36 69  1  0
 37 70  1  0
 37 71  1  0
 38 72  1  0
 40 73  1  0
 40 74  1  0
 41 75  1  0
 42 76  1  0
 43 77  1  0
 43 78  1  0
 44 79  1  0
 44 80  1  0
M  CHG  2  26  -1  33  -1
M  END
>  <UniqueID>  (20) 
19

>  <SMILES>  (20) 
CC(C)N1CCN(C(=O)c2ccc(NC(=O)N3Cc4ccc(S(=O)(=O)[N-]c5cc6c(cc5[O-])CNCC6)cc4C3)cc2)CC1

>  <Energy>  (20) 
119.8273393527023

>  <Genealogy>  (20) 
CC(C)N1CCN(C(=O)c2ccc(NC(=O)N3Cc4ccc(S(=O)(=O)[N-]c5cc6c(cc5[O-])CNCC6)cc4C3)cc2)CC1 (protonated)
CC(C)N1CCN(C(=O)c2ccc(NC(=O)N3Cc4ccc(S(=O)(=O)[N-]c5cc6c(cc5[O-])CNCC6)cc4C3)cc2)CC1 (3D coordinates assigned)
CC(C)N1CCN(C(=O)c2ccc(NC(=O)N3Cc4ccc(S(=O)(=O)[N-]c5cc6c(cc5[O-])CNCC6)cc4C3)cc2)CC1 (nonaromatic ring conformer: 119.8273393527023 kcal/mol)

>  <smiles>  (20) 
CC(C)N1CCN(C(=O)c2ccc(NC(=O)N3Cc4ccc(S(=O)(=O)Nc5cc6c(cc5O)CNCC6)cc4C3)cc2)CC1

>  <score_type>  (20) 
oracle

>  <origin>  (20) 
adgpu

>  <m_score__min__energy>  (20) 
-14.56

>  <m_primary>  (20) 
energy

$$$$
20:0
     RDKit          3D

 45 47  0  0  0  0  0  0  0  0999 V2000
   -4.2700   17.2790  -35.0280 C   0  0  0  0  0  0  0  0  0  0  0  0
   -4.3340   18.2970  -33.9770 N   0  0  0  0  0  0  0  0  0  0  0  0
   -3.1590   19.0820  -33.6940 C   0  0  0  0  0  0  0  0  0  0  0  0
   -2.0690   18.7780  -34.2530 O   0  0  0  0  0  0  0  0  0  0  0  0
   -3.2070   20.2480  -32.7780 C   0  0  0  0  0  0  0  0  0  0  0  0
   -2.5120   20.2180  -31.5570 C   0  0  0  0  0  0  0  0  0  0  0  0
   -2.5150   21.3310  -30.7110 C   0  0  0  0  0  0  0  0  0  0  0  0
   -3.2170   22.4880  -31.0680 C   0  0  0  0  0  0  0  0  0  0  0  0
   -3.2050   23.8850  -29.9950 S   0  0  0  0  0  0  0  0  0  0  0  0
   -1.7990   24.2020  -29.5650 O   0  0  0  0  0  0  0  0  0  0  0  0
   -4.0170   23.5570  -28.7740 O   0  0  0  0  0  0  0  0  0  0  0  0
   -3.9050   25.2700  -30.7850 N   0  0  0  0  0  0  0  0  0  0  0  0
   -5.2640   25.5310  -30.3060 C   0  0  0  0  0  0  0  0  0  0  0  0
   -6.1940   24.4170  -30.7000 C   0  0  0  0  0  0  0  0  0  0  0  0
   -6.7700   23.5940  -29.7210 C   0  0  0  0  0  0  0  0  0  0  0  0
   -7.6150   22.5480  -30.0970 C   0  0  0  0  0  0  0  0  0  0  0  0
   -7.8820   22.3380  -31.4510 C   0  0  0  0  0  0  0  0  0  0  0  0
   -7.3210   23.1470  -32.3890 N   0  0  0  0  0  0  0  0  0  0  0  0
   -6.4940   24.1710  -32.0490 C   0  0  0  0  0  0  0  0  0  0  0  0
   -3.9080   22.5280  -32.2860 C   0  0  0  0  0  0  0  0  0  0  0  0
   -3.9000   21.4190  -33.1370 C   0  0  0  0  0  0  0  0  0  0  0  0
   -5.5720   18.5460  -33.2760 C   0  0  0  0  0  0  0  0  0  0  0  0
   -6.5070   19.4720  -33.7750 C   0  0  0  0  0  0  0  0  0  0  0  0
   -7.7010   19.7110  -33.0880 C   0  0  0  0  0  0  0  0  0  0  0  0
   -7.9770   19.0260  -31.9020 C   0  0  0  0  0  0  0  0  0  0  0  0
   -7.0590   18.1000  -31.4020 C   0  0  0  0  0  0  0  0  0  0  0  0
   -5.8610   17.8610  -32.0830 C   0  0  0  0  0  0  0  0  0  0  0  0
   -4.2073   16.2814  -34.5688 H   0  0  0  0  0  0  0  0  0  0  0  0
   -5.1737   17.3392  -35.6523 H   0  0  0  0  0  0  0  0  0  0  0  0
   -3.3809   17.4519  -35.6523 H   0  0  0  0  0  0  0  0  0  0  0  0
   -1.9613   19.3118  -31.2646 H   0  0  0  0  0  0  0  0  0  0  0  0
   -1.9630   21.2972  -29.7602 H   0  0  0  0  0  0  0  0  0  0  0  0
   -5.2492   25.6172  -29.2095 H   0  0  0  0  0  0  0  0  0  0  0  0
   -5.6234   26.4664  -30.7597 H   0  0  0  0  0  0  0  0  0  0  0  0
   -6.5560   23.7727  -28.6569 H   0  0  0  0  0  0  0  0  0  0  0  0
   -8.0657   21.8961  -29.3341 H   0  0  0  0  0  0  0  0  0  0  0  0
   -8.5467   21.5175  -31.7594 H   0  0  0  0  0  0  0  0  0  0  0  0
   -6.0589   24.8083  -32.8329 H   0  0  0  0  0  0  0  0  0  0  0  0
   -4.4590   23.4355  -32.5738 H   0  0  0  0  0  0  0  0  0  0  0  0
   -4.4395   21.4620  -34.0946 H   0  0  0  0  0  0  0  0  0  0  0  0
   -6.2972   20.0108  -34.7108 H   0  0  0  0  0  0  0  0  0  0  0  0
   -8.4246   20.4398  -33.4820 H   0  0  0  0  0  0  0  0  0  0  0  0
   -8.9166   19.2159  -31.3625 H   0  0  0  0  0  0  0  0  0  0  0  0
   -7.2786   17.5575  -30.4706 H   0  0  0  0  0  0  0  0  0  0  0  0
   -5.1405   17.1326  -31.6826 H   0  0  0  0  0  0  0  0  0  0  0  0
  1  2  1  0
  2  3  1  0
  3  4  2  0
  3  5  1  0
  5  6  2  0
  6  7  1  0
  7  8  2  0
  8  9  1  0
  9 10  2  0
  9 11  2  0
  9 12  1  0
 12 13  1  0
 13 14  1  0
 14 15  2  0
 15 16  1  0
 16 17  2  0
 17 18  1  0
 18 19  2  0
  8 20  1  0
 20 21  2  0
  2 22  1  0
 22 23  2  0
 23 24  1  0
 24 25  2  0
 25 26  1  0
 26 27  2  0
 21  5  1  0
 27 22  1  0
 19 14  1  0
  1 28  1  0
  1 29  1  0
  1 30  1  0
  6 31  1  0
  7 32  1  0
 13 33  1  0
 13 34  1  0
 15 35  1  0
 16 36  1  0
 17 37  1  0
 19 38  1  0
 20 39  1  0
 21 40  1  0
 23 41  1  0
 24 42  1  0
 25 43  1  0
 26 44  1  0
 27 45  1  0
M  CHG  1  12  -1
M  END
>  <UniqueID>  (21) 
20

>  <SMILES>  (21) 
CN(C(=O)c1ccc(S(=O)(=O)[N-]Cc2cccnc2)cc1)c1ccccc1

>  <Energy>  (21) 
51.78198959586298

>  <Genealogy>  (21) 
CN(C(=O)c1ccc(S(=O)(=O)[N-]Cc2cccnc2)cc1)c1ccccc1 (protonated)
CN(C(=O)c1ccc(S(=O)(=O)[N-]Cc2cccnc2)cc1)c1ccccc1 (3D coordinates assigned)
CN(C(=O)c1ccc(S(=O)(=O)[N-]Cc2cccnc2)cc1)c1ccccc1 (optimized conformer: 51.78198959586298 kcal/mol)

>  <smiles>  (21) 
CN(C(=O)c1ccc(S(=O)(=O)NCc2cccnc2)cc1)c1ccccc1

>  <score_type>  (21) 
oracle

>  <origin>  (21) 
adgpu

>  <m_score__min__energy>  (21) 
-10.210000000000001

>  <m_primary>  (21) 
energy

$$$$
21:0
     RDKit          3D

 47 49  0  0  0  0  0  0  0  0999 V2000
   -2.4630   21.3600  -31.1710 C   0  0  0  0  0  0  0  0  0  0  0  0
   -3.2790   22.2720  -31.9000 O   0  0  0  0  0  0  0  0  0  0  0  0
   -4.5860   22.6440  -31.5440 C   0  0  0  0  0  0  0  0  0  0  0  0
   -5.6870   21.8390  -31.8990 C   0  0  0  0  0  0  0  0  0  0  0  0
   -6.9860   22.1910  -31.5230 C   0  0  0  0  0  0  0  0  0  0  0  0
   -8.3390   21.1420  -31.9400 S   0  0  0  0  0  0  0  0  0  0  0  0
   -9.5090   21.9980  -32.3340 O   0  0  0  0  0  0  0  0  0  0  0  0
   -8.7280   20.2850  -30.7680 O   0  0  0  0  0  0  0  0  0  0  0  0
   -7.9050   20.1170  -33.2730 N   0  0  0  0  0  0  0  0  0  0  0  0
   -6.9730   19.0250  -33.1650 C   0  0  0  0  0  0  0  0  0  0  0  0
   -7.3800   17.7520  -32.7580 C   0  0  0  0  0  0  0  0  0  0  0  0
   -6.4570   16.7150  -32.6460 C   0  0  0  0  0  0  0  0  0  0  0  0
   -5.0890   16.9170  -32.9450 C   0  0  0  0  0  0  0  0  0  0  0  0
   -4.6640   18.2070  -33.3740 C   0  0  0  0  0  0  0  0  0  0  0  0
   -5.6280   19.2420  -33.4800 C   0  0  0  0  0  0  0  0  0  0  0  0
   -3.3350   18.4260  -33.6720 N   0  0  0  0  0  0  0  0  0  0  0  0
   -2.8660   19.7610  -34.1010 C   0  0  0  0  0  0  0  0  0  0  0  0
   -2.4400   17.3930  -33.5750 C   0  0  0  0  0  0  0  0  0  0  0  0
   -1.2220   17.5640  -33.8620 O   0  0  0  0  0  0  0  0  0  0  0  0
   -2.8570   16.1270  -33.1550 C   0  0  0  0  0  0  0  0  0  0  0  0
   -2.0010   15.2010  -33.0790 O   0  0  0  0  0  0  0  0  0  0  0  0
   -4.1690   15.8960  -32.8340 N   0  0  0  0  0  0  0  0  0  0  0  0
   -4.5840   14.5530  -32.3790 C   0  0  0  0  0  0  0  0  0  0  0  0
   -7.2010   23.3680  -30.8040 C   0  0  0  0  0  0  0  0  0  0  0  0
   -6.1260   24.1880  -30.4560 C   0  0  0  0  0  0  0  0  0  0  0  0
   -6.4430   25.6620  -29.5520 Cl  0  0  0  0  0  0  0  0  0  0  0  0
   -4.8120   23.8400  -30.8140 C   0  0  0  0  0  0  0  0  0  0  0  0
   -3.7850   24.7180  -30.4130 O   0  0  0  0  0  0  0  0  0  0  0  0
   -2.8530   24.5080  -29.3580 C   0  0  0  0  0  0  0  0  0  0  0  0
   -2.6069   21.5208  -30.0924 H   0  0  0  0  0  0  0  0  0  0  0  0
   -2.7453   20.3286  -31.4288 H   0  0  0  0  0  0  0  0  0  0  0  0
   -1.4067   21.5263  -31.4288 H   0  0  0  0  0  0  0  0  0  0  0  0
   -5.5214   20.9201  -32.4806 H   0  0  0  0  0  0  0  0  0  0  0  0
   -8.2450   20.4040  -34.2180 H   0  0  0  0  0  0  0  0  0  0  0  0
   -8.4388   17.5671  -32.5239 H   0  0  0  0  0  0  0  0  0  0  0  0
   -6.7977   15.7214  -32.3193 H   0  0  0  0  0  0  0  0  0  0  0  0
   -5.3100   20.2393  -33.8181 H   0  0  0  0  0  0  0  0  0  0  0  0
   -2.6500   20.3759  -33.2149 H   0  0  0  0  0  0  0  0  0  0  0  0
   -1.9522   19.6524  -34.7036 H   0  0  0  0  0  0  0  0  0  0  0  0
   -3.6469   20.2478  -34.7036 H   0  0  0  0  0  0  0  0  0  0  0  0
   -4.5927   14.5249  -31.2794 H   0  0  0  0  0  0  0  0  0  0  0  0
   -5.5922   14.3323  -32.7594 H   0  0  0  0  0  0  0  0  0  0  0  0
   -3.8760   13.8020  -32.7594 H   0  0  0  0  0  0  0  0  0  0  0  0
   -8.2226   23.6509  -30.5101 H   0  0  0  0  0  0  0  0  0  0  0  0
   -3.3628   24.6229  -28.3901 H   0  0  0  0  0  0  0  0  0  0  0  0
   -2.4354   23.4932  -29.4343 H   0  0  0  0  0  0  0  0  0  0  0  0
   -2.0405   25.2456  -29.4343 H   0  0  0  0  0  0  0  0  0  0  0  0
  1  2  1  0
  2  3  1  0
  3  4  2  0
  4  5  1  0
  5  6  1  0
  6  7  2  0
  6  8  2  0
  6  9  1  0
  9 10  1  0
 10 11  2  0
 11 12  1  0
 12 13  2  0
 13 14  1  0
 14 15  2  0
 14 16  1  0
 16 17  1  0
 16 18  1  0
 18 19  2  0
 18 20  1  0
 20 21  2  0
 20 22  1  0
 22 23  1  0
  5 24  2  0
 24 25  1  0
 25 26  1  0
 25 27  2  0
 27 28  1  0
 28 29  1  0
 27  3  1  0
 15 10  1  0
 22 13  1  0
  1 30  1  0
  1 31  1  0
  1 32  1  0
  4 33  1  0
  9 34  1  0
 11 35  1  0
 12 36  1  0
 15 37  1  0
 17 38  1  0
 17 39  1  0
 17 40  1  0
 23 41  1  0
 23 42  1  0
 23 43  1  0
 24 44  1  0
 29 45  1  0
 29 46  1  0
 29 47  1  0
M  END
>  <UniqueID>  (22) 
21

>  <SMILES>  (22) 
COc1cc(S(=O)(=O)Nc2ccc3c(c2)n(C)c(=O)c(=O)n3C)cc(Cl)c1OC

>  <Energy>  (22) 
70.97930310977605

>  <Genealogy>  (22) 
COc1cc(S(=O)(=O)Nc2ccc3c(c2)n(C)c(=O)c(=O)n3C)cc(Cl)c1OC (3D coordinates assigned)
COc1cc(S(=O)(=O)Nc2ccc3c(c2)n(C)c(=O)c(=O)n3C)cc(Cl)c1OC (optimized conformer: 70.97930310977605 kcal/mol)

>  <smiles>  (22) 
COc1cc(S(=O)(=O)Nc2ccc3c(c2)n(C)c(=O)c(=O)n3C)cc(Cl)c1OC

>  <score_type>  (22) 
oracle

>  <origin>  (22) 
adgpu

>  <m_score__min__energy>  (22) 
-8.9600000000000009

>  <m_primary>  (22) 
energy

$$$$
22:0
     RDKit          3D

 53 56  0  0  0  0  0  0  0  0999 V2000
   -1.0589   23.5026  -27.8120 H   0  0  0  0  0  0  0  0  0  0  0  0
   -1.3550   22.9040  -28.6860 C   0  0  0  0  0  0  0  0  0  0  0  0
   -0.6310   21.8630  -28.9870 N   0  0  0  0  0  0  0  0  0  0  0  0
   -0.7240   21.0330  -30.1550 C   0  0  0  0  0  0  0  0  0  0  0  0
   -0.8100   21.5820  -31.4490 C   0  0  0  0  0  0  0  0  0  0  0  0
   -0.8806   22.6721  -31.5784 H   0  0  0  0  0  0  0  0  0  0  0  0
   -0.8060   20.7460  -32.5700 C   0  0  0  0  0  0  0  0  0  0  0  0
   -0.8952   21.1796  -33.5770 H   0  0  0  0  0  0  0  0  0  0  0  0
   -0.6890   19.3600  -32.4160 C   0  0  0  0  0  0  0  0  0  0  0  0
   -0.6310   18.3240  -33.8390 S   0  0  0  0  0  0  0  0  0  0  0  0
   -1.3220   19.0240  -34.9760 O   0  0  0  0  0  0  0  0  0  0  0  0
    0.7930   18.0490  -34.2370 O   0  0  0  0  0  0  0  0  0  0  0  0
   -1.4330   16.8180  -33.5260 N   0  0  0  0  0  0  0  0  0  0  0  0
   -2.7070   16.6280  -33.6880 C   0  0  0  0  0  0  0  0  0  0  0  0
   -3.5030   17.6250  -34.1620 N   0  0  0  0  0  0  0  0  0  0  0  0
   -4.8370   17.4440  -34.3330 C   0  0  0  0  0  0  0  0  0  0  0  0
   -5.6740   18.5470  -34.8910 C   0  0  0  0  0  0  0  0  0  0  0  0
   -6.1139   19.1267  -34.0661 H   0  0  0  0  0  0  0  0  0  0  0  0
   -5.0469   19.2064  -35.5090 H   0  0  0  0  0  0  0  0  0  0  0  0
   -6.4779   18.1206  -35.5090 H   0  0  0  0  0  0  0  0  0  0  0  0
   -5.4130   16.2170  -34.0020 C   0  0  0  0  0  0  0  0  0  0  0  0
   -6.4920   16.0502  -34.1361 H   0  0  0  0  0  0  0  0  0  0  0  0
   -4.5920   15.2020  -33.4960 C   0  0  0  0  0  0  0  0  0  0  0  0
   -5.1760   13.8630  -33.1470 C   0  0  0  0  0  0  0  0  0  0  0  0
   -5.2222   13.7570  -32.0531 H   0  0  0  0  0  0  0  0  0  0  0  0
   -6.1900   13.7847  -33.5661 H   0  0  0  0  0  0  0  0  0  0  0  0
   -4.5435   13.0666  -33.5661 H   0  0  0  0  0  0  0  0  0  0  0  0
   -3.2530   15.4210  -33.3730 N   0  0  0  0  0  0  0  0  0  0  0  0
   -2.6350   14.6570  -33.0140 H   0  0  0  0  0  0  0  0  0  0  0  0
   -0.5890   18.8130  -31.1290 C   0  0  0  0  0  0  0  0  0  0  0  0
   -0.5023   17.7238  -31.0018 H   0  0  0  0  0  0  0  0  0  0  0  0
   -0.5990   19.6470  -30.0060 C   0  0  0  0  0  0  0  0  0  0  0  0
   -0.5081   19.2111  -29.0002 H   0  0  0  0  0  0  0  0  0  0  0  0
   -2.5500   23.3310  -29.4460 C   0  0  0  0  0  0  0  0  0  0  0  0
   -2.7500   24.6870  -29.7180 C   0  0  0  0  0  0  0  0  0  0  0  0
   -1.8170   25.6390  -29.3170 O   0  0  0  0  0  0  0  0  0  0  0  0
   -3.8580   25.0850  -30.3900 N   0  0  0  0  0  0  0  0  0  0  0  0
   -4.8010   24.1970  -30.7990 C   0  0  0  0  0  0  0  0  0  0  0  0
   -6.1110   24.7770  -31.6070 S   0  0  0  0  0  0  0  0  0  0  0  0
   -4.6520   22.8580  -30.5260 N   0  0  0  0  0  0  0  0  0  0  0  0
   -5.6680   21.9090  -30.9050 C   0  0  0  0  0  0  0  0  0  0  0  0
   -5.3360   20.7920  -31.6800 C   0  0  0  0  0  0  0  0  0  0  0  0
   -4.2924   20.6217  -31.9832 H   0  0  0  0  0  0  0  0  0  0  0  0
   -6.3320   19.8950  -32.0670 C   0  0  0  0  0  0  0  0  0  0  0  0
   -6.0754   19.0269  -32.6920 H   0  0  0  0  0  0  0  0  0  0  0  0
   -7.6550   20.0960  -31.6630 C   0  0  0  0  0  0  0  0  0  0  0  0
   -8.4355   19.3805  -31.9612 H   0  0  0  0  0  0  0  0  0  0  0  0
   -7.9870   21.2060  -30.8800 C   0  0  0  0  0  0  0  0  0  0  0  0
   -9.0274   21.3637  -30.5597 H   0  0  0  0  0  0  0  0  0  0  0  0
   -6.9970   22.1110  -30.5070 C   0  0  0  0  0  0  0  0  0  0  0  0
   -7.2587   22.9884  -29.8973 H   0  0  0  0  0  0  0  0  0  0  0  0
   -3.5420   22.4170  -29.8500 C   0  0  0  0  0  0  0  0  0  0  0  0
   -3.4160   21.1900  -29.5700 O   0  0  0  0  0  0  0  0  0  0  0  0
  1  2  1  0
  2  3  2  3
  3  4  1  0
  4  5  2  0
  5  6  1  0
  5  7  1  0
  7  8  1  0
  7  9  2  0
  9 10  1  0
 10 11  2  0
 10 12  2  0
 10 13  1  0
 13 14  2  0
 14 15  1  0
 15 16  2  0
 16 17  1  0
 17 18  1  0
 17 19  1  0
 17 20  1  0
 16 21  1  0
 21 22  1  0
 21 23  2  0
 23 24  1  0
 24 25  1  0
 24 26  1  0
 24 27  1  0
 23 28  1  0
 28 29  1  0
  9 30  1  0
 30 31  1  0
 30 32  2  0
 32 33  1  0
  2 34  1  0
 34 35  2  0
 35 36  1  0
 35 37  1  0
 37 38  1  0
 38 39  2  0
 38 40  1  0
 40 41  1  0
 41 42  2  0
 42 43  1  0
 42 44  1  0
 44 45  1  0
 44 46  2  0
 46 47  1  0
 46 48  1  0
 48 49  1  0
 48 50  2  0
 50 51  1  0
 40 52  1  0
 52 53  2  0
 32  4  1  0
 52 34  1  0
 28 14  1  0
 50 41  1  0
M  CHG  2  36  -1  37  -1
M  END
>  <UniqueID>  (23) 
22

>  <SMILES>  (23) 
Cc1cc(C)[nH]/c(=N/S(=O)(=O)c2ccc(N=Cc3c([O-])[n-]c(=S)n(-c4ccccc4)c3=O)cc2)n1

>  <Energy>  (23) 
80.81910469954691

>  <Genealogy>  (23) 
Cc1cc(C)[nH]c(=NS(=O)(=O)c2ccc(N=Cc3c([O-])[n-]c(=S)n(-c4ccccc4)c3=O)cc2)n1 (protonated)
Cc1cc(C)[nH]/c(=N/S(=O)(=O)c2ccc(N=Cc3c([O-])[n-]c(=S)n(-c4ccccc4)c3=O)cc2)n1 (cis-trans isomerization)
Cc1cc(C)[nH]/c(=N/S(=O)(=O)c2ccc(N=Cc3c([O-])[n-]c(=S)n(-c4ccccc4)c3=O)cc2)n1 (3D coordinates assigned)
Cc1cc(C)[nH]/c(=N/S(=O)(=O)c2ccc(N=Cc3c([O-])[n-]c(=S)n(-c4ccccc4)c3=O)cc2)n1 (optimized conformer: 80.81910469954691 kcal/mol)

>  <smiles>  (23) 
Cc1cc(C)[nH]c(=NS(=O)(=O)c2ccc(N=Cc3c(O)[nH]c(=S)n(-c4ccccc4)c3=O)cc2)n1

>  <score_type>  (23) 
oracle

>  <origin>  (23) 
adgpu

>  <m_score__min__energy>  (23) 
-12.609999999999999

>  <m_primary>  (23) 
energy

$$$$
23:0
     RDKit          3D

 66 70  0  0  0  0  0  0  0  0999 V2000
   -4.6520   23.0110  -32.1910 O   0  0  0  0  0  0  0  0  0  0  0  0
   -3.5270   22.6770  -31.7310 C   0  0  0  0  0  0  0  0  0  0  0  0
   -2.5570   22.0790  -32.6020 N   0  0  0  0  0  0  0  0  0  0  0  0
   -2.6370   20.7600  -33.1580 C   0  0  0  0  0  0  0  0  0  0  0  0
   -3.8690   20.0920  -33.1170 C   0  0  0  0  0  0  0  0  0  0  0  0
   -3.9930   18.7920  -33.6220 C   0  0  0  0  0  0  0  0  0  0  0  0
   -5.5420   17.9530  -33.5460 S   0  0  0  0  0  0  0  0  0  0  0  0
   -5.3250   16.5850  -32.9600 O   0  0  0  0  0  0  0  0  0  0  0  0
   -6.0970   17.7940  -34.9360 O   0  0  0  0  0  0  0  0  0  0  0  0
   -6.6580   18.8480  -32.5440 N   0  0  0  0  0  0  0  0  0  0  0  0
   -7.0230   20.1130  -33.1980 C   0  0  0  0  0  0  0  0  0  0  0  0
   -8.0600   20.8790  -32.3480 C   0  0  0  0  0  0  0  0  0  0  0  0
   -8.4780   20.1350  -31.2190 O   0  0  0  0  0  0  0  0  0  0  0  0
   -8.9720   18.8790  -31.6380 C   0  0  0  0  0  0  0  0  0  0  0  0
   -7.8580   18.0320  -32.2870 C   0  0  0  0  0  0  0  0  0  0  0  0
   -2.8720   18.1480  -34.1590 C   0  0  0  0  0  0  0  0  0  0  0  0
   -1.6350   18.7950  -34.1830 C   0  0  0  0  0  0  0  0  0  0  0  0
   -1.5030   20.0920  -33.6670 C   0  0  0  0  0  0  0  0  0  0  0  0
   -0.2460   20.6950  -33.6290 O   0  0  0  0  0  0  0  0  0  0  0  0
   -3.2180   22.8610  -30.2880 C   0  0  0  0  0  0  0  0  0  0  0  0
   -2.9060   21.7380  -29.4950 C   0  0  0  0  0  0  0  0  0  0  0  0
   -2.5600   21.8850  -28.1440 C   0  0  0  0  0  0  0  0  0  0  0  0
   -2.1340   20.4700  -27.1770 S   0  0  0  0  0  0  0  0  0  0  0  0
   -3.3840   19.6940  -26.8620 O   0  0  0  0  0  0  0  0  0  0  0  0
   -1.5280   20.9220  -25.8790 O   0  0  0  0  0  0  0  0  0  0  0  0
   -0.9970   19.4390  -28.0100 N   0  0  0  0  0  0  0  0  0  0  0  0
   -0.5760   18.3300  -27.1380 C   0  0  0  0  0  0  0  0  0  0  0  0
    0.2420   17.2920  -27.9360 C   0  0  0  0  0  0  0  0  0  0  0  0
    0.8450   17.8720  -29.2370 C   0  0  0  0  0  0  0  0  0  0  0  0
    1.3090   19.3210  -28.9970 C   0  0  0  0  0  0  0  0  0  0  0  0
    0.1710   20.2220  -28.4640 C   0  0  0  0  0  0  0  0  0  0  0  0
    1.9610   17.0920  -29.6140 O   0  0  0  0  0  0  0  0  0  0  0  0
    1.7380   16.7120  -30.9330 C   0  0  0  0  0  0  0  0  0  0  0  0
    0.2830   16.9420  -31.1960 C   0  0  0  0  0  0  0  0  0  0  0  0
   -0.1430   17.8680  -30.2500 O   0  0  0  0  0  0  0  0  0  0  0  0
   -2.5390   23.1600  -27.5700 C   0  0  0  0  0  0  0  0  0  0  0  0
   -2.8630   24.2800  -28.3370 C   0  0  0  0  0  0  0  0  0  0  0  0
   -3.1990   24.1420  -29.6880 C   0  0  0  0  0  0  0  0  0  0  0  0
   -3.5040   25.2860  -30.4180 O   0  0  0  0  0  0  0  0  0  0  0  0
   -4.7467   20.5941  -32.6839 H   0  0  0  0  0  0  0  0  0  0  0  0
   -6.1221   20.7331  -33.3161 H   0  0  0  0  0  0  0  0  0  0  0  0
   -7.4617   19.8922  -34.1823 H   0  0  0  0  0  0  0  0  0  0  0  0
   -7.6097   21.8220  -32.0043 H   0  0  0  0  0  0  0  0  0  0  0  0
   -8.9431   21.0640  -32.9773 H   0  0  0  0  0  0  0  0  0  0  0  0
   -9.3705   18.3405  -30.7655 H   0  0  0  0  0  0  0  0  0  0  0  0
   -9.7630   19.0461  -32.3839 H   0  0  0  0  0  0  0  0  0  0  0  0
   -7.5935   17.2059  -31.6105 H   0  0  0  0  0  0  0  0  0  0  0  0
   -8.2282   17.6404  -33.2459 H   0  0  0  0  0  0  0  0  0  0  0  0
   -2.9660   17.1293  -34.5632 H   0  0  0  0  0  0  0  0  0  0  0  0
   -0.7589   18.2843  -34.6092 H   0  0  0  0  0  0  0  0  0  0  0  0
   -0.1080   21.6110  -33.2180 H   0  0  0  0  0  0  0  0  0  0  0  0
   -2.9343   20.7332  -29.9418 H   0  0  0  0  0  0  0  0  0  0  0  0
    0.0437   18.7278  -26.3208 H   0  0  0  0  0  0  0  0  0  0  0  0
   -1.4722   17.8387  -26.7313 H   0  0  0  0  0  0  0  0  0  0  0  0
    1.0628   16.9283  -27.3004 H   0  0  0  0  0  0  0  0  0  0  0  0
   -0.4438   16.4812  -28.2229 H   0  0  0  0  0  0  0  0  0  0  0  0
    2.1273   19.3130  -28.2620 H   0  0  0  0  0  0  0  0  0  0  0  0
    1.6393   19.7324  -29.9622 H   0  0  0  0  0  0  0  0  0  0  0  0
    0.5531   20.8110  -27.6172 H   0  0  0  0  0  0  0  0  0  0  0  0
   -0.1586   20.8716  -29.2883 H   0  0  0  0  0  0  0  0  0  0  0  0
    2.3493   17.3226  -31.6138 H   0  0  0  0  0  0  0  0  0  0  0  0
    2.0126   15.6597  -31.0978 H   0  0  0  0  0  0  0  0  0  0  0  0
    0.1377   17.3402  -32.2111 H   0  0  0  0  0  0  0  0  0  0  0  0
   -0.2892   16.0053  -31.1245 H   0  0  0  0  0  0  0  0  0  0  0  0
   -2.2664   23.2805  -26.5111 H   0  0  0  0  0  0  0  0  0  0  0  0
   -2.8541   25.2786  -27.8759 H   0  0  0  0  0  0  0  0  0  0  0  0
  1  2  2  0
  2  3  1  0
  3  4  1  0
  4  5  2  0
  5  6  1  0
  6  7  1  0
  7  8  2  0
  7  9  2  0
  7 10  1  0
 10 11  1  0
 11 12  1  0
 12 13  1  0
 13 14  1  0
 14 15  1  0
  6 16  2  0
 16 17  1  0
 17 18  2  0
 18 19  1  0
  2 20  1  0
 20 21  2  0
 21 22  1  0
 22 23  1  0
 23 24  2  0
 23 25  2  0
 23 26  1  0
 26 27  1  0
 27 28  1  0
 28 29  1  0
 29 30  1  0
 30 31  1  0
 29 32  1  0
 32 33  1  0
 33 34  1  0
 34 35  1  0
 22 36  2  0
 36 37  1  0
 37 38  2  0
 38 39  1  0
 18  4  1  0
 38 20  1  0
 15 10  1  0
 31 26  1  0
 35 29  1  0
  5 40  1  0
 11 41  1  0
 11 42  1  0
 12 43  1  0
 12 44  1  0
 14 45  1  0
 14 46  1  0
 15 47  1  0
 15 48  1  0
 16 49  1  0
 17 50  1  0
 19 51  1  0
 21 52  1  0
 27 53  1  0
 27 54  1  0
 28 55  1  0
 28 56  1  0
 30 57  1  0
 30 58  1  0
 31 59  1  0
 31 60  1  0
 33 61  1  0
 33 62  1  0
 34 63  1  0
 34 64  1  0
 36 65  1  0
 37 66  1  0
M  CHG  2   3  -1  39  -1
M  END
>  <UniqueID>  (24) 
23

>  <SMILES>  (24) 
O=C([N-]c1cc(S(=O)(=O)N2CCOCC2)ccc1O)c1cc(S(=O)(=O)N2CCC3(CC2)OCCO3)ccc1[O-]

>  <Energy>  (24) 
84.4903444309667

>  <Genealogy>  (24) 
O=C([N-]c1cc(S(=O)(=O)N2CCOCC2)ccc1O)c1cc(S(=O)(=O)N2CCC3(CC2)OCCO3)ccc1[O-] (protonated)
O=C([N-]c1cc(S(=O)(=O)N2CCOCC2)ccc1O)c1cc(S(=O)(=O)N2CCC3(CC2)OCCO3)ccc1[O-] (3D coordinates assigned)
O=C([N-]c1cc(S(=O)(=O)N2CCOCC2)ccc1O)c1cc(S(=O)(=O)N2CCC3(CC2)OCCO3)ccc1[O-] (nonaromatic ring conformer: 84.4903444309667 kcal/mol)

>  <smiles>  (24) 
O=C(Nc1cc(S(=O)(=O)N2CCOCC2)ccc1O)c1cc(S(=O)(=O)N2CCC3(CC2)OCCO3)ccc1O

>  <score_type>  (24) 
oracle

>  <origin>  (24) 
adgpu

>  <m_score__min__energy>  (24) 
-14.42

>  <m_primary>  (24) 
energy

$$$$
24:0
     RDKit          3D

 62 66  0  0  0  0  0  0  0  0999 V2000
   -5.5670   25.1790  -28.8120 O   0  0  0  0  0  0  0  0  0  0  0  0
   -5.2450   24.9660  -30.2640 S   0  0  0  0  0  0  0  0  0  0  0  0
   -5.7290   26.1420  -31.0590 O   0  0  0  0  0  0  0  0  0  0  0  0
   -3.5240   24.8150  -30.4440 N   0  0  0  0  0  0  0  0  0  0  0  0
   -2.7290   24.1560  -29.4480 C   0  0  0  0  0  0  0  0  0  0  0  0
   -3.0500   22.8550  -29.0310 C   0  0  0  0  0  0  0  0  0  0  0  0
   -2.1880   22.1360  -28.1910 C   0  0  0  0  0  0  0  0  0  0  0  0
   -0.9800   22.7290  -27.7680 C   0  0  0  0  0  0  0  0  0  0  0  0
   -0.7060   24.0610  -28.1100 C   0  0  0  0  0  0  0  0  0  0  0  0
   -1.5680   24.7700  -28.9520 C   0  0  0  0  0  0  0  0  0  0  0  0
   -1.2430   26.0700  -29.3240 O   0  0  0  0  0  0  0  0  0  0  0  0
    0.0050   21.9590  -26.9220 C   0  0  0  0  0  0  0  0  0  0  0  0
   -0.1550   20.5010  -27.0650 N   0  0  0  0  0  0  0  0  0  0  0  0
    0.3910   20.0060  -28.3530 C   0  0  0  0  0  0  0  0  0  0  0  0
   -0.0080   18.5430  -28.6430 C   0  0  0  0  0  0  0  0  0  0  0  0
   -0.4700   17.8250  -27.3760 C   0  0  0  0  0  0  0  0  0  0  0  0
   -1.6730   18.5460  -26.7470 C   0  0  0  0  0  0  0  0  0  0  0  0
   -1.5550   20.0930  -26.8200 C   0  0  2  0  0  0  0  0  0  0  0  0
   -2.5160   20.7010  -27.8650 C   0  0  0  0  0  0  0  0  0  0  0  0
   -6.0390   23.5090  -30.8650 C   0  0  0  0  0  0  0  0  0  0  0  0
   -5.5500   22.8810  -32.0180 C   0  0  0  0  0  0  0  0  0  0  0  0
   -6.1310   21.6940  -32.4730 C   0  0  0  0  0  0  0  0  0  0  0  0
   -7.2180   21.1330  -31.7890 C   0  0  0  0  0  0  0  0  0  0  0  0
   -8.0020   19.6730  -32.3890 S   0  0  0  0  0  0  0  0  0  0  0  0
   -9.1010   20.0650  -33.3360 O   0  0  0  0  0  0  0  0  0  0  0  0
   -8.5990   18.9010  -31.2430 O   0  0  0  0  0  0  0  0  0  0  0  0
   -6.8310   18.6830  -33.2240 N   0  0  0  0  0  0  0  0  0  0  0  0
   -5.5010   18.8540  -32.6220 C   0  0  0  0  0  0  0  0  0  0  0  0
   -4.4650   18.0130  -33.4020 C   0  0  0  0  0  0  0  0  0  0  0  0
   -5.0670   17.0320  -34.2310 O   0  0  0  0  0  0  0  0  0  0  0  0
   -6.0600   16.3320  -33.5130 C   0  0  0  0  0  0  0  0  0  0  0  0
   -7.2420   17.2650  -33.1850 C   0  0  0  0  0  0  0  0  0  0  0  0
   -7.7190   21.7730  -30.6480 C   0  0  0  0  0  0  0  0  0  0  0  0
   -7.1330   22.9550  -30.1870 C   0  0  0  0  0  0  0  0  0  0  0  0
   -3.1300   24.9780  -31.3990 H   0  0  0  0  0  0  0  0  0  0  0  0
   -3.9900   22.3934  -29.3676 H   0  0  0  0  0  0  0  0  0  0  0  0
    0.1945   24.5521  -27.7126 H   0  0  0  0  0  0  0  0  0  0  0  0
    1.0251   22.2346  -27.2276 H   0  0  0  0  0  0  0  0  0  0  0  0
   -0.1822   22.2165  -25.8691 H   0  0  0  0  0  0  0  0  0  0  0  0
    0.0103   20.6428  -29.1652 H   0  0  0  0  0  0  0  0  0  0  0  0
    1.4883   20.0457  -28.2873 H   0  0  0  0  0  0  0  0  0  0  0  0
   -0.8274   18.5351  -29.3769 H   0  0  0  0  0  0  0  0  0  0  0  0
    0.8748   18.0165  -29.0347 H   0  0  0  0  0  0  0  0  0  0  0  0
   -0.7599   16.7949  -27.6307 H   0  0  0  0  0  0  0  0  0  0  0  0
    0.3574   17.8221  -26.6511 H   0  0  0  0  0  0  0  0  0  0  0  0
   -2.5848   18.2378  -27.2795 H   0  0  0  0  0  0  0  0  0  0  0  0
   -1.7066   18.2669  -25.6835 H   0  0  0  0  0  0  0  0  0  0  0  0
   -1.8605   20.4942  -25.8424 H   0  0  0  0  0  0  0  0  0  0  0  0
   -2.4531   20.1070  -28.7887 H   0  0  0  0  0  0  0  0  0  0  0  0
   -3.5290   20.6806  -27.4367 H   0  0  0  0  0  0  0  0  0  0  0  0
   -4.7059   23.3237  -32.5671 H   0  0  0  0  0  0  0  0  0  0  0  0
   -5.7337   21.1984  -33.3711 H   0  0  0  0  0  0  0  0  0  0  0  0
   -5.2151   19.9155  -32.6619 H   0  0  0  0  0  0  0  0  0  0  0  0
   -5.5289   18.5185  -31.5748 H   0  0  0  0  0  0  0  0  0  0  0  0
   -3.8674   18.6877  -34.0326 H   0  0  0  0  0  0  0  0  0  0  0  0
   -3.8419   17.4866  -32.6640 H   0  0  0  0  0  0  0  0  0  0  0  0
   -6.4210   15.4893  -34.1209 H   0  0  0  0  0  0  0  0  0  0  0  0
   -5.6263   15.9605  -32.5728 H   0  0  0  0  0  0  0  0  0  0  0  0
   -8.0420   17.1031  -33.9224 H   0  0  0  0  0  0  0  0  0  0  0  0
   -7.5968   17.0334  -32.1699 H   0  0  0  0  0  0  0  0  0  0  0  0
   -8.5780   21.3430  -30.1122 H   0  0  0  0  0  0  0  0  0  0  0  0
   -7.5314   23.4515  -29.2899 H   0  0  0  0  0  0  0  0  0  0  0  0
  1  2  2  0
  2  3  2  0
  2  4  1  0
  4  5  1  0
  5  6  2  0
  6  7  1  0
  7  8  2  0
  8  9  1  0
  9 10  2  0
 10 11  1  0
  8 12  1  0
 12 13  1  0
 13 14  1  0
 14 15  1  0
 15 16  1  0
 16 17  1  0
 17 18  1  0
 18 19  1  0
  2 20  1  0
 20 21  2  0
 21 22  1  0
 22 23  2  0
 23 24  1  0
 24 25  2  0
 24 26  2  0
 24 27  1  0
 27 28  1  0
 28 29  1  0
 29 30  1  0
 30 31  1  0
 31 32  1  0
 23 33  1  0
 33 34  2  0
 10  5  1  0
 18 13  1  0
 34 20  1  0
 19  7  1  0
 32 27  1  0
  4 35  1  0
  6 36  1  0
  9 37  1  0
 12 38  1  0
 12 39  1  0
 14 40  1  0
 14 41  1  0
 15 42  1  0
 15 43  1  0
 16 44  1  0
 16 45  1  0
 17 46  1  0
 17 47  1  0
 18 48  1  1
 19 49  1  0
 19 50  1  0
 21 51  1  0
 22 52  1  0
 28 53  1  0
 28 54  1  0
 29 55  1  0
 29 56  1  0
 31 57  1  0
 31 58  1  0
 32 59  1  0
 32 60  1  0
 33 61  1  0
 34 62  1  0
M  CHG  1  11  -1
M  END
>  <UniqueID>  (25) 
24

>  <SMILES>  (25) 
O=S(=O)(Nc1cc2c(cc1[O-])CN1CCCC[C@@H]1C2)c1ccc(S(=O)(=O)N2CCOCC2)cc1

>  <Energy>  (25) 
86.13091309436923

>  <Genealogy>  (25) 
O=S(=O)(Nc1cc2c(cc1[O-])CN1CCCCC1C2)c1ccc(S(=O)(=O)N2CCOCC2)cc1 (protonated)
O=S(=O)(Nc1cc2c(cc1[O-])CN1CCCC[C@@H]1C2)c1ccc(S(=O)(=O)N2CCOCC2)cc1 (chirality)
O=S(=O)(Nc1cc2c(cc1[O-])CN1CCCC[C@@H]1C2)c1ccc(S(=O)(=O)N2CCOCC2)cc1 (3D coordinates assigned)
O=S(=O)(Nc1cc2c(cc1[O-])CN1CCCC[C@@H]1C2)c1ccc(S(=O)(=O)N2CCOCC2)cc1 (nonaromatic ring conformer: 86.13091309436923 kcal/mol)

>  <smiles>  (25) 
O=S(=O)(Nc1cc2c(cc1O)CN1CCCCC1C2)c1ccc(S(=O)(=O)N2CCOCC2)cc1

>  <score_type>  (25) 
oracle

>  <origin>  (25) 
adgpu

>  <m_score__min__energy>  (25) 
-15.220000000000001

>  <m_primary>  (25) 
energy

$$$$
25:0
     RDKit          3D

 51 54  0  0  0  0  0  0  0  0999 V2000
   -0.3020   24.3190  -25.4440 C   0  0  0  0  0  0  0  0  0  0  0  0
    0.0600   23.0890  -26.1720 N   0  0  0  0  0  0  0  0  0  0  0  0
   -0.7650   21.9270  -25.7250 C   0  0  0  0  0  0  0  0  0  0  0  0
   -1.7020   21.3260  -26.8000 C   0  0  0  0  0  0  0  0  0  0  0  0
   -2.2270   22.3820  -27.7280 C   0  0  0  0  0  0  0  0  0  0  0  0
   -3.5430   22.3610  -28.2080 C   0  0  0  0  0  0  0  0  0  0  0  0
   -3.9780   23.3400  -29.1210 C   0  0  0  0  0  0  0  0  0  0  0  0
   -5.3210   23.3630  -29.6260 N   0  0  0  0  0  0  0  0  0  0  0  0
   -5.7590   23.5440  -31.2950 S   0  0  0  0  0  0  0  0  0  0  0  0
   -4.5410   23.2690  -32.1290 O   0  0  0  0  0  0  0  0  0  0  0  0
   -6.2410   24.9500  -31.5210 O   0  0  0  0  0  0  0  0  0  0  0  0
   -7.0630   22.4090  -31.6970 C   0  0  0  0  0  0  0  0  0  0  0  0
   -8.3860   22.8590  -31.5390 C   0  0  0  0  0  0  0  0  0  0  0  0
   -9.4650   22.0340  -31.8470 C   0  0  0  0  0  0  0  0  0  0  0  0
   -9.2440   20.7470  -32.3230 C   0  0  0  0  0  0  0  0  0  0  0  0
   -7.9420   20.2800  -32.5000 C   0  0  0  0  0  0  0  0  0  0  0  0
   -6.8360   21.0960  -32.2010 C   0  0  0  0  0  0  0  0  0  0  0  0
   -5.2170   20.4210  -32.4820 S   0  0  0  0  0  0  0  0  0  0  0  0
   -4.4090   20.4670  -31.2150 O   0  0  0  0  0  0  0  0  0  0  0  0
   -4.5070   21.2510  -33.5150 O   0  0  0  0  0  0  0  0  0  0  0  0
   -5.3080   18.7340  -32.9800 C   0  0  0  0  0  0  0  0  0  0  0  0
   -4.9980   18.3860  -34.3030 C   0  0  0  0  0  0  0  0  0  0  0  0
   -5.0620   17.0510  -34.7100 C   0  0  0  0  0  0  0  0  0  0  0  0
   -5.4410   16.0580  -33.8010 C   0  0  0  0  0  0  0  0  0  0  0  0
   -5.7590   16.4020  -32.4850 C   0  0  0  0  0  0  0  0  0  0  0  0
   -5.6980   17.7370  -32.0730 C   0  0  0  0  0  0  0  0  0  0  0  0
   -3.0760   24.3240  -29.5570 C   0  0  0  0  0  0  0  0  0  0  0  0
   -3.4870   25.2990  -30.4590 O   0  0  0  0  0  0  0  0  0  0  0  0
   -1.7570   24.3310  -29.0890 C   0  0  0  0  0  0  0  0  0  0  0  0
   -1.3350   23.3610  -28.1730 C   0  0  0  0  0  0  0  0  0  0  0  0
    0.0670   23.3220  -27.6340 C   0  0  0  0  0  0  0  0  0  0  0  0
   -0.2474   24.1336  -24.3611 H   0  0  0  0  0  0  0  0  0  0  0  0
    0.3973   25.1241  -25.7139 H   0  0  0  0  0  0  0  0  0  0  0  0
   -1.3259   24.6169  -25.7139 H   0  0  0  0  0  0  0  0  0  0  0  0
   -0.0806   21.1339  -25.3895 H   0  0  0  0  0  0  0  0  0  0  0  0
   -1.4218   22.3095  -24.9298 H   0  0  0  0  0  0  0  0  0  0  0  0
   -1.1422   20.5821  -27.3859 H   0  0  0  0  0  0  0  0  0  0  0  0
   -2.5578   20.8606  -26.2891 H   0  0  0  0  0  0  0  0  0  0  0  0
   -4.2378   21.5778  -27.8707 H   0  0  0  0  0  0  0  0  0  0  0  0
   -8.5713   23.8774  -31.1667 H   0  0  0  0  0  0  0  0  0  0  0  0
  -10.4932   22.4014  -31.7134 H   0  0  0  0  0  0  0  0  0  0  0  0
  -10.0979   20.0955  -32.5606 H   0  0  0  0  0  0  0  0  0  0  0  0
   -7.7778   19.2603  -32.8784 H   0  0  0  0  0  0  0  0  0  0  0  0
   -4.7040   19.1655  -35.0213 H   0  0  0  0  0  0  0  0  0  0  0  0
   -4.8139   16.7805  -35.7470 H   0  0  0  0  0  0  0  0  0  0  0  0
   -5.4886   15.0070  -34.1221 H   0  0  0  0  0  0  0  0  0  0  0  0
   -6.0582   15.6207  -31.7708 H   0  0  0  0  0  0  0  0  0  0  0  0
   -5.9558   18.0055  -31.0379 H   0  0  0  0  0  0  0  0  0  0  0  0
   -1.0523   25.0987  -29.4411 H   0  0  0  0  0  0  0  0  0  0  0  0
    0.6206   22.5089  -28.1264 H   0  0  0  0  0  0  0  0  0  0  0  0
    0.5500   24.2896  -27.8353 H   0  0  0  0  0  0  0  0  0  0  0  0
  1  2  1  0
  2  3  1  0
  3  4  1  0
  4  5  1  0
  5  6  2  0
  6  7  1  0
  7  8  1  0
  8  9  1  0
  9 10  2  0
  9 11  2  0
  9 12  1  0
 12 13  2  0
 13 14  1  0
 14 15  2  0
 15 16  1  0
 16 17  2  0
 17 18  1  0
 18 19  2  0
 18 20  2  0
 18 21  1  0
 21 22  2  0
 22 23  1  0
 23 24  2  0
 24 25  1  0
 25 26  2  0
  7 27  2  0
 27 28  1  0
 27 29  1  0
 29 30  2  0
 30 31  1  0
 31  2  1  0
 30  5  1  0
 17 12  1  0
 26 21  1  0
  1 32  1  0
  1 33  1  0
  1 34  1  0
  3 35  1  0
  3 36  1  0
  4 37  1  0
  4 38  1  0
  6 39  1  0
 13 40  1  0
 14 41  1  0
 15 42  1  0
 16 43  1  0
 22 44  1  0
 23 45  1  0
 24 46  1  0
 25 47  1  0
 26 48  1  0
 29 49  1  0
 31 50  1  0
 31 51  1  0
M  CHG  2   8  -1  28  -1
M  END
>  <UniqueID>  (26) 
25

>  <SMILES>  (26) 
CN1CCc2cc([N-]S(=O)(=O)c3ccccc3S(=O)(=O)c3ccccc3)c([O-])cc2C1

>  <Energy>  (26) 
75.57872291763071

>  <Genealogy>  (26) 
CN1CCc2cc([N-]S(=O)(=O)c3ccccc3S(=O)(=O)c3ccccc3)c([O-])cc2C1 (protonated)
CN1CCc2cc([N-]S(=O)(=O)c3ccccc3S(=O)(=O)c3ccccc3)c([O-])cc2C1 (3D coordinates assigned)
CN1CCc2cc([N-]S(=O)(=O)c3ccccc3S(=O)(=O)c3ccccc3)c([O-])cc2C1 (nonaromatic ring conformer: 75.57872291763071 kcal/mol)

>  <smiles>  (26) 
CN1CCc2cc(NS(=O)(=O)c3ccccc3S(=O)(=O)c3ccccc3)c(O)cc2C1

>  <score_type>  (26) 
oracle

>  <origin>  (26) 
adgpu

>  <m_score__min__energy>  (26) 
-14.15

>  <m_primary>  (26) 
energy

$$$$
26:0
     RDKit          3D

 41 43  0  0  0  0  0  0  0  0999 V2000
   -1.8460   20.8910  -31.0050 O   0  0  0  0  0  0  0  0  0  0  0  0
   -2.6490   21.8620  -30.9720 C   0  0  0  0  0  0  0  0  0  0  0  0
   -3.4110   22.2360  -32.2100 C   0  0  0  0  0  0  0  0  0  0  0  0
   -5.2060   21.9450  -32.0130 S   0  0  0  0  0  0  0  0  0  0  0  0
   -5.5220   23.4810  -31.1460 C   0  0  0  0  0  0  0  0  0  0  0  0
   -4.6860   24.5410  -31.1790 N   0  0  0  0  0  0  0  0  0  0  0  0
   -5.1500   25.5690  -30.4210 C   0  0  0  0  0  0  0  0  0  0  0  0
   -6.3600   25.3300  -29.7790 C   0  0  0  0  0  0  0  0  0  0  0  0
   -6.8610   23.7740  -30.1760 S   0  0  0  0  0  0  0  0  0  0  0  0
   -2.8270   22.6200  -29.7650 N   0  0  0  0  0  0  0  0  0  0  0  0
   -2.3220   22.1860  -28.4930 C   0  0  0  0  0  0  0  0  0  0  0  0
   -2.5300   20.8560  -28.0890 C   0  0  0  0  0  0  0  0  0  0  0  0
   -1.9990   20.3880  -26.8870 C   0  0  0  0  0  0  0  0  0  0  0  0
   -1.2400   21.2360  -26.0850 C   0  0  0  0  0  0  0  0  0  0  0  0
   -1.0150   22.5560  -26.4770 C   0  0  0  0  0  0  0  0  0  0  0  0
   -1.5620   23.0580  -27.6710 C   0  0  0  0  0  0  0  0  0  0  0  0
   -1.2710   24.7580  -28.1320 S   0  0  0  0  0  0  0  0  0  0  0  0
   -2.0800   25.0930  -29.3530 O   0  0  0  0  0  0  0  0  0  0  0  0
    0.1850   24.9130  -28.4740 O   0  0  0  0  0  0  0  0  0  0  0  0
   -1.7140   25.9350  -26.9130 N   0  0  0  0  0  0  0  0  0  0  0  0
   -2.0200   25.3320  -25.6090 C   0  0  0  0  0  0  0  0  0  0  0  0
   -1.1680   26.0270  -24.5580 C   0  0  0  0  0  0  0  0  0  0  0  0
   -0.6410   27.2750  -25.2310 C   0  0  0  0  0  0  0  0  0  0  0  0
   -0.6960   26.9720  -26.7170 C   0  0  0  0  0  0  0  0  0  0  0  0
   -3.2439   23.3022  -32.4230 H   0  0  0  0  0  0  0  0  0  0  0  0
   -3.0504   21.6075  -33.0377 H   0  0  0  0  0  0  0  0  0  0  0  0
   -4.6078   26.5210  -30.3225 H   0  0  0  0  0  0  0  0  0  0  0  0
   -6.8957   26.0348  -29.1260 H   0  0  0  0  0  0  0  0  0  0  0  0
   -3.4340   23.4700  -29.7950 H   0  0  0  0  0  0  0  0  0  0  0  0
   -3.1167   20.1781  -28.7263 H   0  0  0  0  0  0  0  0  0  0  0  0
   -2.1799   19.3494  -26.5729 H   0  0  0  0  0  0  0  0  0  0  0  0
   -0.8167   20.8644  -25.1401 H   0  0  0  0  0  0  0  0  0  0  0  0
   -0.4012   23.2130  -25.8432 H   0  0  0  0  0  0  0  0  0  0  0  0
   -3.0862   25.4689  -25.3754 H   0  0  0  0  0  0  0  0  0  0  0  0
   -1.8018   24.2540  -25.6259 H   0  0  0  0  0  0  0  0  0  0  0  0
   -1.7774   26.2905  -23.6810 H   0  0  0  0  0  0  0  0  0  0  0  0
   -0.3538   25.3809  -24.1980 H   0  0  0  0  0  0  0  0  0  0  0  0
   -1.2741   28.1415  -24.9893 H   0  0  0  0  0  0  0  0  0  0  0  0
    0.3767   27.5262  -24.8976 H   0  0  0  0  0  0  0  0  0  0  0  0
   -0.9698   27.8788  -27.2762 H   0  0  0  0  0  0  0  0  0  0  0  0
    0.2839   26.6297  -27.0813 H   0  0  0  0  0  0  0  0  0  0  0  0
  1  2  2  0
  2  3  1  0
  3  4  1  0
  4  5  1  0
  5  6  2  0
  6  7  1  0
  7  8  2  0
  8  9  1  0
  2 10  1  0
 10 11  1  0
 11 12  2  0
 12 13  1  0
 13 14  2  0
 14 15  1  0
 15 16  2  0
 16 17  1  0
 17 18  2  0
 17 19  2  0
 17 20  1  0
 20 21  1  0
 21 22  1  0
 22 23  1  0
 23 24  1  0
  9  5  1  0
 16 11  1  0
 24 20  1  0
  3 25  1  0
  3 26  1  0
  7 27  1  0
  8 28  1  0
 10 29  1  0
 12 30  1  0
 13 31  1  0
 14 32  1  0
 15 33  1  0
 21 34  1  0
 21 35  1  0
 22 36  1  0
 22 37  1  0
 23 38  1  0
 23 39  1  0
 24 40  1  0
 24 41  1  0
M  END
>  <UniqueID>  (27) 
26

>  <SMILES>  (27) 
O=C(CSc1nccs1)Nc1ccccc1S(=O)(=O)N1CCCC1

>  <Energy>  (27) 
75.66282884618438

>  <Genealogy>  (27) 
O=C(CSc1nccs1)Nc1ccccc1S(=O)(=O)N1CCCC1 (3D coordinates assigned)
O=C(CSc1nccs1)Nc1ccccc1S(=O)(=O)N1CCCC1 (nonaromatic ring conformer: 75.66282884618438 kcal/mol)

>  <smiles>  (27) 
O=C(CSc1nccs1)Nc1ccccc1S(=O)(=O)N1CCCC1

>  <score_type>  (27) 
oracle

>  <origin>  (27) 
adgpu

>  <m_score__min__energy>  (27) 
-8.6099999999999994

>  <m_primary>  (27) 
energy

$$$$
27:0
     RDKit          3D

 43 45  0  0  0  0  0  0  0  0999 V2000
   -3.1340   19.2750  -26.7230 C   0  0  0  0  0  0  0  0  0  0  0  0
   -1.7090   19.6870  -26.3760 C   0  0  0  0  0  0  0  0  0  0  0  0
   -1.2460   21.1770  -27.2440 S   0  0  0  0  0  0  0  0  0  0  0  0
    0.2020   21.1060  -27.6430 O   0  0  0  0  0  0  0  0  0  0  0  0
   -1.4440   22.3710  -26.3530 O   0  0  0  0  0  0  0  0  0  0  0  0
   -2.2500   21.3400  -28.6800 C   0  0  0  0  0  0  0  0  0  0  0  0
   -2.0780   20.4720  -29.7630 C   0  0  0  0  0  0  0  0  0  0  0  0
   -2.8850   20.5920  -30.8950 C   0  0  0  0  0  0  0  0  0  0  0  0
   -3.8770   21.5830  -30.9640 C   0  0  0  0  0  0  0  0  0  0  0  0
   -4.8450   21.7320  -32.4400 S   0  0  0  0  0  0  0  0  0  0  0  0
   -4.0730   21.2380  -33.6310 O   0  0  0  0  0  0  0  0  0  0  0  0
   -5.2020   23.1750  -32.6540 O   0  0  0  0  0  0  0  0  0  0  0  0
   -6.3090   20.7590  -32.3080 C   0  0  0  0  0  0  0  0  0  0  0  0
   -7.5750   21.3650  -32.3250 C   0  0  0  0  0  0  0  0  0  0  0  0
   -8.7280   20.5840  -32.2020 C   0  0  0  0  0  0  0  0  0  0  0  0
   -8.6230   19.1960  -32.0590 C   0  0  0  0  0  0  0  0  0  0  0  0
   -7.3640   18.5900  -32.0370 C   0  0  0  0  0  0  0  0  0  0  0  0
   -6.2090   19.3680  -32.1600 C   0  0  0  0  0  0  0  0  0  0  0  0
   -4.0730   22.4410  -29.8590 C   0  0  0  0  0  0  0  0  0  0  0  0
   -5.1130   23.4270  -29.8640 N   0  0  0  0  0  0  0  0  0  0  0  0
   -6.5420   23.1480  -29.8020 C   0  0  0  0  0  0  0  0  0  0  0  0
   -7.2300   24.5000  -30.1130 C   0  0  0  0  0  0  0  0  0  0  0  0
   -6.1780   25.3980  -30.4470 O   0  0  0  0  0  0  0  0  0  0  0  0
   -4.9690   24.7610  -30.3010 C   0  0  0  0  0  0  0  0  0  0  0  0
   -3.8620   25.2990  -30.5670 O   0  0  0  0  0  0  0  0  0  0  0  0
   -3.2520   22.3150  -28.7290 C   0  0  0  0  0  0  0  0  0  0  0  0
   -3.7039   19.1102  -25.7967 H   0  0  0  0  0  0  0  0  0  0  0  0
   -3.6130   20.0714  -27.3114 H   0  0  0  0  0  0  0  0  0  0  0  0
   -3.1141   18.3458  -27.3114 H   0  0  0  0  0  0  0  0  0  0  0  0
   -1.6395   19.8651  -25.2927 H   0  0  0  0  0  0  0  0  0  0  0  0
   -1.0266   18.8787  -26.6776 H   0  0  0  0  0  0  0  0  0  0  0  0
   -1.3037   19.6918  -29.7223 H   0  0  0  0  0  0  0  0  0  0  0  0
   -2.7426   19.9037  -31.7412 H   0  0  0  0  0  0  0  0  0  0  0  0
   -7.6600   22.4561  -32.4353 H   0  0  0  0  0  0  0  0  0  0  0  0
   -9.7190   21.0612  -32.2177 H   0  0  0  0  0  0  0  0  0  0  0  0
   -9.5309   18.5823  -31.9640 H   0  0  0  0  0  0  0  0  0  0  0  0
   -7.2816   17.4991  -31.9227 H   0  0  0  0  0  0  0  0  0  0  0  0
   -5.2194   18.8880  -32.1407 H   0  0  0  0  0  0  0  0  0  0  0  0
   -6.8207   22.3915  -30.5504 H   0  0  0  0  0  0  0  0  0  0  0  0
   -6.8421   22.7483  -28.8221 H   0  0  0  0  0  0  0  0  0  0  0  0
   -7.9249   24.3914  -30.9588 H   0  0  0  0  0  0  0  0  0  0  0  0
   -7.8182   24.8631  -29.2574 H   0  0  0  0  0  0  0  0  0  0  0  0
   -3.3974   22.9897  -27.8725 H   0  0  0  0  0  0  0  0  0  0  0  0
  1  2  1  0
  2  3  1  0
  3  4  2  0
  3  5  2  0
  3  6  1  0
  6  7  2  0
  7  8  1  0
  8  9  2  0
  9 10  1  0
 10 11  2  0
 10 12  2  0
 10 13  1  0
 13 14  2  0
 14 15  1  0
 15 16  2  0
 16 17  1  0
 17 18  2  0
  9 19  1  0
 19 20  1  0
 20 21  1  0
 21 22  1  0
 22 23  1  0
 23 24  1  0
 24 25  2  0
 19 26  2  0
 26  6  1  0
 18 13  1  0
 24 20  1  0
  1 27  1  0
  1 28  1  0
  1 29  1  0
  2 30  1  0
  2 31  1  0
  7 32  1  0
  8 33  1  0
 14 34  1  0
 15 35  1  0
 16 36  1  0
 17 37  1  0
 18 38  1  0
 21 39  1  0
 21 40  1  0
 22 41  1  0
 22 42  1  0
 26 43  1  0
M  END
>  <UniqueID>  (28) 
27

>  <SMILES>  (28) 
CCS(=O)(=O)c1ccc(S(=O)(=O)c2ccccc2)c(N2CCOC2=O)c1

>  <Energy>  (28) 
63.05277728033495

>  <Genealogy>  (28) 
CCS(=O)(=O)c1ccc(S(=O)(=O)c2ccccc2)c(N2CCOC2=O)c1 (3D coordinates assigned)
CCS(=O)(=O)c1ccc(S(=O)(=O)c2ccccc2)c(N2CCOC2=O)c1 (nonaromatic ring conformer: 63.05277728033495 kcal/mol)

>  <smiles>  (28) 
CCS(=O)(=O)c1ccc(S(=O)(=O)c2ccccc2)c(N2CCOC2=O)c1

>  <score_type>  (28) 
oracle

>  <origin>  (28) 
adgpu

>  <m_score__min__energy>  (28) 
-9

>  <m_primary>  (28) 
energy

$$$$
28:0
     RDKit          3D

 55 57  0  0  1  0  0  0  0  0999 V2000
   -4.2070   20.5970  -33.1560 C   0  0  0  0  0  0  0  0  0  0  0  0
   -5.0960   19.4230  -32.8980 C   0  0  0  0  0  0  0  0  0  0  0  0
   -6.4880   19.5870  -33.5240 C   0  0  0  0  0  0  0  0  0  0  0  0
   -7.1530   20.6680  -32.7160 C   0  0  0  0  0  0  0  0  0  0  0  0
   -6.9140   21.6900  -32.1740 N   0  0  0  0  0  0  0  0  0  0  0  0
   -7.7080   22.4800  -31.4760 C   0  0  0  0  0  0  0  0  0  0  0  0
   -7.2390   23.7350  -30.8320 C   0  0  0  0  0  0  0  0  0  0  0  0
   -6.2670   23.5930  -29.7960 N   0  0  0  0  0  0  0  0  0  0  0  0
   -4.9090   23.8700  -30.0440 C   0  0  0  0  0  0  0  0  0  0  0  0
   -4.5820   24.2350  -31.2190 O   0  0  0  0  0  0  0  0  0  0  0  0
   -3.8250   23.7860  -29.0850 C   0  0  0  0  0  0  0  0  0  0  0  0
   -3.8060   24.5000  -27.9050 C   0  0  0  0  0  0  0  0  0  0  0  0
   -2.7800   24.3680  -26.9690 C   0  0  0  0  0  0  0  0  0  0  0  0
   -1.7610   23.4920  -27.2400 C   0  0  0  0  0  0  0  0  0  0  0  0
   -0.4350   23.1750  -26.1190 S   0  0  0  0  0  0  0  0  0  0  0  0
   -0.9390   22.1400  -25.1670 O   0  0  0  0  0  0  0  0  0  0  0  0
    0.7240   22.7180  -26.9530 O   0  0  0  0  0  0  0  0  0  0  0  0
   -0.1190   24.7040  -25.3080 C   0  0  0  0  0  0  0  0  0  0  0  0
   -0.7160   25.0130  -24.0970 C   0  0  0  0  0  0  0  0  0  0  0  0
   -0.5020   26.1810  -23.4100 C   0  0  0  0  0  0  0  0  0  0  0  0
    0.3590   27.1220  -23.9450 C   0  0  0  0  0  0  0  0  0  0  0  0
    0.9470   26.8070  -25.1470 C   0  0  0  0  0  0  0  0  0  0  0  0
    0.7490   25.6490  -25.8480 C   0  0  0  0  0  0  0  0  0  0  0  0
    1.4260   25.4100  -27.1120 C   0  0  0  0  0  0  0  0  0  0  0  0
    0.6610   24.9350  -28.1950 O   0  0  0  0  0  0  0  0  0  0  0  0
    2.6630   25.5940  -27.3330 N   0  0  0  0  0  0  0  0  0  0  0  0
    3.2140   25.3320  -28.5820 O   0  0  0  0  0  0  0  0  0  0  0  0
   -1.7810   22.7910  -28.4020 C   0  0  0  0  0  0  0  0  0  0  0  0
   -2.7800   22.8990  -29.3490 C   0  0  0  0  0  0  0  0  0  0  0  0
   -2.6870   22.0840  -30.5690 C   0  0  0  0  0  0  0  0  0  0  0  0
   -9.0020   22.0160  -31.3880 C   0  0  0  0  0  0  0  0  0  0  0  0
   -8.9810   20.4370  -32.3390 S   0  0  0  0  0  0  0  0  0  0  0  0
   -3.8809   21.0276  -32.1977 H   0  0  0  0  0  0  0  0  0  0  0  0
   -3.3270   20.2714  -33.7300 H   0  0  0  0  0  0  0  0  0  0  0  0
   -4.7590   21.3558  -33.7300 H   0  0  0  0  0  0  0  0  0  0  0  0
   -4.6236   18.5239  -33.3204 H   0  0  0  0  0  0  0  0  0  0  0  0
   -5.2284   19.3386  -31.8093 H   0  0  0  0  0  0  0  0  0  0  0  0
   -6.4046   19.8884  -34.5786 H   0  0  0  0  0  0  0  0  0  0  0  0
   -7.0611   18.6482  -33.5093 H   0  0  0  0  0  0  0  0  0  0  0  0
   -6.8015   24.3702  -31.6163 H   0  0  0  0  0  0  0  0  0  0  0  0
   -8.1271   24.1613  -30.3425 H   0  0  0  0  0  0  0  0  0  0  0  0
   -6.5380   23.2800  -28.8350 H   0  0  0  0  0  0  0  0  0  0  0  0
   -4.6293   25.1985  -27.6945 H   0  0  0  0  0  0  0  0  0  0  0  0
   -2.7885   24.9522  -26.0370 H   0  0  0  0  0  0  0  0  0  0  0  0
   -1.4048   24.2758  -23.6587 H   0  0  0  0  0  0  0  0  0  0  0  0
   -1.0065   26.3660  -22.4502 H   0  0  0  0  0  0  0  0  0  0  0  0
    0.5630   28.0747  -23.4343 H   0  0  0  0  0  0  0  0  0  0  0  0
    1.6341   27.5480  -25.5815 H   0  0  0  0  0  0  0  0  0  0  0  0
    0.8880   24.0510  -28.6510 H   0  0  0  0  0  0  0  0  0  0  0  0
    2.5310   25.2780  -29.3590 H   0  0  0  0  0  0  0  0  0  0  0  0
   -0.9523   22.0956  -28.6011 H   0  0  0  0  0  0  0  0  0  0  0  0
   -2.5662   21.0256  -30.2946 H   0  0  0  0  0  0  0  0  0  0  0  0
   -3.6049   22.2064  -31.1626 H   0  0  0  0  0  0  0  0  0  0  0  0
   -1.8202   22.4101  -31.1626 H   0  0  0  0  0  0  0  0  0  0  0  0
   -9.8530   22.4812  -30.8690 H   0  0  0  0  0  0  0  0  0  0  0  0
  1  2  1  0
  2  3  1  0
  3  4  1  0
  4  5  2  0
  5  6  1  0
  6  7  1  0
  7  8  1  0
  8  9  1  0
  9 10  2  0
  9 11  1  0
 11 12  2  0
 12 13  1  0
 13 14  2  0
 14 15  1  0
 15 16  2  0
 15 17  2  0
 15 18  1  0
 18 19  2  0
 19 20  1  0
 20 21  2  0
 21 22  1  0
 22 23  2  0
 23 24  1  0
 24 25  1  0
 24 26  2  0
 26 27  1  0
 14 28  1  0
 28 29  2  0
 29 30  1  0
  6 31  2  0
 31 32  1  0
 32  4  1  0
 29 11  1  0
 23 18  1  0
  1 33  1  0
  1 34  1  0
  1 35  1  0
  2 36  1  0
  2 37  1  0
  3 38  1  0
  3 39  1  0
  7 40  1  0
  7 41  1  0
  8 42  1  0
 12 43  1  0
 13 44  1  0
 19 45  1  0
 20 46  1  0
 21 47  1  0
 22 48  1  0
 25 49  1  0
 27 50  1  0
 28 51  1  0
 30 52  1  0
 30 53  1  0
 30 54  1  0
 31 55  1  0
M  END
>  <smiles>  (29) 
CCCc1nc(CNC(=O)c2ccc(S(=O)(=O)c3ccccc3C(O)=NO)cc2C)cs1

>  <score_type>  (29) 
oracle

>  <origin>  (29) 
adgpu

>  <m_score__min__energy>  (29) 
-10.26

>  <m_primary>  (29) 
energy

$$$$
29:0
     RDKit          3D

 55 57  0  0  0  0  0  0  0  0999 V2000
    3.9520   17.8400  -36.0320 C   0  0  0  0  0  0  0  0  0  0  0  0
    3.4020   17.5740  -37.4270 C   0  0  0  0  0  0  0  0  0  0  0  0
    2.4420   18.9610  -38.0130 S   0  0  0  0  0  0  0  0  0  0  0  0
    3.3580   20.0430  -38.5120 O   0  0  0  0  0  0  0  0  0  0  0  0
    1.5510   18.5220  -39.1430 O   0  0  0  0  0  0  0  0  0  0  0  0
    1.4620   19.5790  -36.6890 C   0  0  0  0  0  0  0  0  0  0  0  0
    0.6020   18.7250  -35.9880 C   0  0  0  0  0  0  0  0  0  0  0  0
   -0.1640   19.2120  -34.9240 C   0  0  0  0  0  0  0  0  0  0  0  0
   -0.0830   20.5660  -34.5470 C   0  0  0  0  0  0  0  0  0  0  0  0
   -0.8890   21.1150  -33.4270 C   0  0  0  0  0  0  0  0  0  0  0  0
   -2.0510   21.5470  -33.6680 O   0  0  0  0  0  0  0  0  0  0  0  0
   -0.3780   21.1570  -32.0820 N   0  0  0  0  0  0  0  0  0  0  0  0
   -1.1950   21.4120  -30.9270 C   0  0  0  0  0  0  0  0  0  0  0  0
   -1.5400   20.3500  -30.0780 C   0  0  0  0  0  0  0  0  0  0  0  0
   -2.3520   20.5720  -28.9620 C   0  0  0  0  0  0  0  0  0  0  0  0
   -2.8410   21.8530  -28.6940 C   0  0  0  0  0  0  0  0  0  0  0  0
   -2.5230   22.9190  -29.5430 C   0  0  0  0  0  0  0  0  0  0  0  0
   -3.1160   24.5390  -29.1760 S   0  0  0  0  0  0  0  0  0  0  0  0
   -4.1050   24.4850  -28.0450 O   0  0  0  0  0  0  0  0  0  0  0  0
   -1.9550   25.3930  -28.7480 O   0  0  0  0  0  0  0  0  0  0  0  0
   -3.8700   25.2610  -30.5670 N   0  0  0  0  0  0  0  0  0  0  0  0
   -5.3310   25.1770  -30.4870 C   0  0  0  0  0  0  0  0  0  0  0  0
   -5.8310   23.9040  -31.1210 C   0  0  0  0  0  0  0  0  0  0  0  0
   -7.1890   23.5610  -31.0500 C   0  0  0  0  0  0  0  0  0  0  0  0
   -7.6460   22.3570  -31.5920 C   0  0  0  0  0  0  0  0  0  0  0  0
   -6.7520   21.4880  -32.2370 C   0  0  0  0  0  0  0  0  0  0  0  0
   -7.2500   20.1900  -32.8000 C   0  0  0  0  0  0  0  0  0  0  0  0
   -5.3960   21.8450  -32.3450 C   0  0  0  0  0  0  0  0  0  0  0  0
   -4.9400   23.0470  -31.7950 C   0  0  0  0  0  0  0  0  0  0  0  0
   -1.7090   22.6960  -30.6640 C   0  0  0  0  0  0  0  0  0  0  0  0
    0.8010   21.4120  -35.2450 C   0  0  0  0  0  0  0  0  0  0  0  0
    1.5650   20.9230  -36.3070 C   0  0  0  0  0  0  0  0  0  0  0  0
    3.2292   17.4904  -35.2801 H   0  0  0  0  0  0  0  0  0  0  0  0
    4.9031   17.3023  -35.9042 H   0  0  0  0  0  0  0  0  0  0  0  0
    4.1210   18.9194  -35.9042 H   0  0  0  0  0  0  0  0  0  0  0  0
    4.2408   17.4002  -38.1171 H   0  0  0  0  0  0  0  0  0  0  0  0
    2.7489   16.6900  -37.3830 H   0  0  0  0  0  0  0  0  0  0  0  0
    0.5284   17.6658  -36.2755 H   0  0  0  0  0  0  0  0  0  0  0  0
   -0.8345   18.5322  -34.3778 H   0  0  0  0  0  0  0  0  0  0  0  0
    0.6430   21.0270  -31.9170 H   0  0  0  0  0  0  0  0  0  0  0  0
   -1.1694   19.3366  -30.2917 H   0  0  0  0  0  0  0  0  0  0  0  0
   -2.6065   19.7364  -28.2934 H   0  0  0  0  0  0  0  0  0  0  0  0
   -3.4776   22.0241  -27.8134 H   0  0  0  0  0  0  0  0  0  0  0  0
   -5.6358   25.1971  -29.4303 H   0  0  0  0  0  0  0  0  0  0  0  0
   -5.7628   26.0324  -31.0272 H   0  0  0  0  0  0  0  0  0  0  0  0
   -7.8999   24.2452  -30.5638 H   0  0  0  0  0  0  0  0  0  0  0  0
   -8.7100   22.0892  -31.5130 H   0  0  0  0  0  0  0  0  0  0  0  0
   -7.5112   19.5093  -31.9764 H   0  0  0  0  0  0  0  0  0  0  0  0
   -8.1406   20.3761  -33.4183 H   0  0  0  0  0  0  0  0  0  0  0  0
   -6.4635   19.7327  -33.4183 H   0  0  0  0  0  0  0  0  0  0  0  0
   -4.6924   21.1770  -32.8634 H   0  0  0  0  0  0  0  0  0  0  0  0
   -3.8798   23.3245  -31.8894 H   0  0  0  0  0  0  0  0  0  0  0  0
   -1.4711   23.5294  -31.3413 H   0  0  0  0  0  0  0  0  0  0  0  0
    0.8905   22.4681  -34.9507 H   0  0  0  0  0  0  0  0  0  0  0  0
    2.2496   21.5951  -36.8451 H   0  0  0  0  0  0  0  0  0  0  0  0
  1  2  1  0
  2  3  1  0
  3  4  2  0
  3  5  2  0
  3  6  1  0
  6  7  2  0
  7  8  1  0
  8  9  2  0
  9 10  1  0
 10 11  2  0
 10 12  1  0
 12 13  1  0
 13 14  2  0
 14 15  1  0
 15 16  2  0
 16 17  1  0
 17 18  1  0
 18 19  2  0
 18 20  2  0
 18 21  1  0
 21 22  1  0
 22 23  1  0
 23 24  2  0
 24 25  1  0
 25 26  2  0
 26 27  1  0
 26 28  1  0
 28 29  2  0
 17 30  2  0
  9 31  1  0
 31 32  2  0
 32  6  1  0
 30 13  1  0
 29 23  1  0
  1 33  1  0
  1 34  1  0
  1 35  1  0
  2 36  1  0
  2 37  1  0
  7 38  1  0
  8 39  1  0
 12 40  1  0
 14 41  1  0
 15 42  1  0
 16 43  1  0
 22 44  1  0
 22 45  1  0
 24 46  1  0
 25 47  1  0
 27 48  1  0
 27 49  1  0
 27 50  1  0
 28 51  1  0
 29 52  1  0
 30 53  1  0
 31 54  1  0
 32 55  1  0
M  CHG  1  21  -1
M  END
>  <UniqueID>  (30) 
28

>  <SMILES>  (30) 
CCS(=O)(=O)c1ccc(C(=O)Nc2cccc(S(=O)(=O)[N-]Cc3ccc(C)cc3)c2)cc1

>  <Energy>  (30) 
53.34997120226368

>  <Genealogy>  (30) 
CCS(=O)(=O)c1ccc(C(=O)Nc2cccc(S(=O)(=O)[N-]Cc3ccc(C)cc3)c2)cc1 (protonated)
CCS(=O)(=O)c1ccc(C(=O)Nc2cccc(S(=O)(=O)[N-]Cc3ccc(C)cc3)c2)cc1 (3D coordinates assigned)
CCS(=O)(=O)c1ccc(C(=O)Nc2cccc(S(=O)(=O)[N-]Cc3ccc(C)cc3)c2)cc1 (optimized conformer: 53.34997120226368 kcal/mol)

>  <smiles>  (30) 
CCS(=O)(=O)c1ccc(C(=O)Nc2cccc(S(=O)(=O)NCc3ccc(C)cc3)c2)cc1

>  <score_type>  (30) 
oracle

>  <origin>  (30) 
adgpu

>  <m_score__min__energy>  (30) 
-11.17

>  <m_primary>  (30) 
energy

$$$$
30:0
     RDKit          3D

 48 51  0  0  0  0  0  0  0  0999 V2000
   -1.6290   20.2870  -25.9710 C   0  0  0  0  0  0  0  0  0  0  0  0
   -0.5720   20.1190  -26.9860 N   0  0  0  0  0  0  0  0  0  0  0  0
   -1.0630   19.4520  -28.2080 C   0  0  0  0  0  0  0  0  0  0  0  0
   -2.1100   20.2910  -28.9550 C   0  0  0  0  0  0  0  0  0  0  0  0
   -1.7500   21.7530  -29.0100 C   0  0  0  0  0  0  0  0  0  0  0  0
   -2.5230   22.6100  -29.8010 C   0  0  0  0  0  0  0  0  0  0  0  0
   -2.3280   23.9990  -29.7630 C   0  0  0  0  0  0  0  0  0  0  0  0
   -3.2470   24.8870  -30.4120 N   0  0  0  0  0  0  0  0  0  0  0  0
   -4.9370   24.9420  -30.0170 S   0  0  0  0  0  0  0  0  0  0  0  0
   -5.1250   24.6280  -28.5600 O   0  0  0  0  0  0  0  0  0  0  0  0
   -5.4710   26.3180  -30.3000 O   0  0  0  0  0  0  0  0  0  0  0  0
   -5.7810   23.7300  -30.9810 C   0  0  0  0  0  0  0  0  0  0  0  0
   -7.1650   23.5840  -30.8370 C   0  0  0  0  0  0  0  0  0  0  0  0
   -7.8220   22.4970  -31.4150 C   0  0  0  0  0  0  0  0  0  0  0  0
   -7.1020   21.5330  -32.1330 C   0  0  0  0  0  0  0  0  0  0  0  0
   -5.7150   21.7060  -32.3330 C   0  0  0  0  0  0  0  0  0  0  0  0
   -5.0620   22.8010  -31.7470 C   0  0  0  0  0  0  0  0  0  0  0  0
   -4.9030   20.6470  -33.0400 C   0  0  0  0  0  0  0  0  0  0  0  0
   -5.7440   19.7860  -33.8820 N   0  0  0  0  0  0  0  0  0  0  0  0
   -6.8550   19.2340  -33.1020 C   0  0  0  0  0  0  0  0  0  0  0  0
   -7.8260   20.3540  -32.7270 C   0  0  0  0  0  0  0  0  0  0  0  0
   -1.2680   24.5240  -29.0020 C   0  0  0  0  0  0  0  0  0  0  0  0
   -1.0010   25.8940  -28.9790 O   0  0  0  0  0  0  0  0  0  0  0  0
   -0.4770   23.6690  -28.2280 C   0  0  0  0  0  0  0  0  0  0  0  0
   -0.7440   22.2920  -28.1840 C   0  0  0  0  0  0  0  0  0  0  0  0
    0.0980   21.3940  -27.3060 C   0  0  0  0  0  0  0  0  0  0  0  0
   -1.1869   20.2167  -24.9662 H   0  0  0  0  0  0  0  0  0  0  0  0
   -2.1032   21.2718  -26.0949 H   0  0  0  0  0  0  0  0  0  0  0  0
   -2.3851   19.4978  -26.0949 H   0  0  0  0  0  0  0  0  0  0  0  0
   -0.2101   19.2729  -28.8792 H   0  0  0  0  0  0  0  0  0  0  0  0
   -1.5435   18.5101  -27.9049 H   0  0  0  0  0  0  0  0  0  0  0  0
   -2.1973   19.9109  -29.9835 H   0  0  0  0  0  0  0  0  0  0  0  0
   -3.0599   20.2025  -28.4074 H   0  0  0  0  0  0  0  0  0  0  0  0
   -3.2947   22.1888  -30.4622 H   0  0  0  0  0  0  0  0  0  0  0  0
   -7.7377   24.3293  -30.2657 H   0  0  0  0  0  0  0  0  0  0  0  0
   -8.9120   22.3963  -31.3063 H   0  0  0  0  0  0  0  0  0  0  0  0
   -3.9791   22.9316  -31.8894 H   0  0  0  0  0  0  0  0  0  0  0  0
   -4.1507   21.1393  -33.6738 H   0  0  0  0  0  0  0  0  0  0  0  0
   -4.4250   20.0161  -32.2761 H   0  0  0  0  0  0  0  0  0  0  0  0
   -5.1520   18.9850  -34.2080 H   0  0  0  0  0  0  0  0  0  0  0  0
   -7.3828   18.4777  -33.7015 H   0  0  0  0  0  0  0  0  0  0  0  0
   -6.4621   18.7696  -32.1855 H   0  0  0  0  0  0  0  0  0  0  0  0
   -8.3613   20.6810  -33.6306 H   0  0  0  0  0  0  0  0  0  0  0  0
   -8.5292   19.9653  -31.9757 H   0  0  0  0  0  0  0  0  0  0  0  0
   -1.6510   26.5770  -29.3470 H   0  0  0  0  0  0  0  0  0  0  0  0
    0.3626   24.0798  -27.6481 H   0  0  0  0  0  0  0  0  0  0  0  0
    1.0407   21.1746  -27.8286 H   0  0  0  0  0  0  0  0  0  0  0  0
    0.2719   21.9247  -26.3583 H   0  0  0  0  0  0  0  0  0  0  0  0
  1  2  1  0
  2  3  1  0
  3  4  1  0
  4  5  1  0
  5  6  2  0
  6  7  1  0
  7  8  1  0
  8  9  1  0
  9 10  2  0
  9 11  2  0
  9 12  1  0
 12 13  2  0
 13 14  1  0
 14 15  2  0
 15 16  1  0
 16 17  2  0
 16 18  1  0
 18 19  1  0
 19 20  1  0
 20 21  1  0
  7 22  2  0
 22 23  1  0
 22 24  1  0
 24 25  2  0
 25 26  1  0
 26  2  1  0
 25  5  1  0
 17 12  1  0
 21 15  1  0
  1 27  1  0
  1 28  1  0
  1 29  1  0
  3 30  1  0
  3 31  1  0
  4 32  1  0
  4 33  1  0
  6 34  1  0
 13 35  1  0
 14 36  1  0
 17 37  1  0
 18 38  1  0
 18 39  1  0
 19 40  1  0
 20 41  1  0
 20 42  1  0
 21 43  1  0
 21 44  1  0
 23 45  1  0
 24 46  1  0
 26 47  1  0
 26 48  1  0
M  CHG  1   8  -1
M  END
>  <UniqueID>  (31) 
29

>  <SMILES>  (31) 
CN1CCc2cc([N-]S(=O)(=O)c3ccc4c(c3)CNCC4)c(O)cc2C1

>  <Energy>  (31) 
60.23009622596393

>  <Genealogy>  (31) 
CN1CCc2cc([N-]S(=O)(=O)c3ccc4c(c3)CNCC4)c(O)cc2C1 (protonated)
CN1CCc2cc([N-]S(=O)(=O)c3ccc4c(c3)CNCC4)c(O)cc2C1 (3D coordinates assigned)
CN1CCc2cc([N-]S(=O)(=O)c3ccc4c(c3)CNCC4)c(O)cc2C1 (nonaromatic ring conformer: 60.23009622596393 kcal/mol)

>  <smiles>  (31) 
CN1CCc2cc(NS(=O)(=O)c3ccc4c(c3)CNCC4)c(O)cc2C1

>  <score_type>  (31) 
oracle

>  <origin>  (31) 
adgpu

>  <m_score__min__energy>  (31) 
-11.91

>  <m_primary>  (31) 
energy

$$$$
31:0
     RDKit          3D

 74 78  0  0  0  0  0  0  0  0999 V2000
   -1.3740   21.1860  -26.4000 C   0  0  0  0  0  0  0  0  0  0  0  0
   -1.9580   21.9270  -27.5720 C   0  0  0  0  0  0  0  0  0  0  0  0
   -3.0400   21.3520  -28.2570 C   0  0  0  0  0  0  0  0  0  0  0  0
   -3.6040   21.9880  -29.3630 C   0  0  0  0  0  0  0  0  0  0  0  0
   -3.0860   23.2070  -29.8150 C   0  0  0  0  0  0  0  0  0  0  0  0
   -3.6240   23.8570  -30.9740 N   0  0  0  0  0  0  0  0  0  0  0  0
   -5.0110   24.1660  -31.1630 C   0  0  0  0  0  0  0  0  0  0  0  0
   -5.3890   25.3680  -31.0790 O   0  0  0  0  0  0  0  0  0  0  0  0
   -6.0160   23.1020  -31.4530 C   0  0  0  0  0  0  0  0  0  0  0  0
   -7.3340   23.2870  -30.9840 C   0  0  0  0  0  0  0  0  0  0  0  0
   -8.3050   22.2980  -31.1500 C   0  0  0  0  0  0  0  0  0  0  0  0
   -7.9810   21.1010  -31.7830 C   0  0  0  0  0  0  0  0  0  0  0  0
   -6.6890   20.8950  -32.2660 C   0  0  0  0  0  0  0  0  0  0  0  0
   -5.7040   21.8860  -32.1270 C   0  0  0  0  0  0  0  0  0  0  0  0
   -4.3880   21.6140  -32.7250 C   0  0  0  0  0  0  0  0  0  0  0  0
   -4.0130   22.2990  -33.7160 O   0  0  0  0  0  0  0  0  0  0  0  0
   -3.5430   20.5870  -32.1800 N   0  0  0  0  0  0  0  0  0  0  0  0
   -2.1960   20.3450  -32.6180 C   0  0  0  0  0  0  0  0  0  0  0  0
   -1.1080   21.0360  -32.0560 C   0  0  0  0  0  0  0  0  0  0  0  0
    0.1920   20.7930  -32.5080 C   0  0  0  0  0  0  0  0  0  0  0  0
    0.4220   19.8510  -33.5190 C   0  0  0  0  0  0  0  0  0  0  0  0
    2.0520   19.5890  -34.1360 S   0  0  0  0  0  0  0  0  0  0  0  0
    2.2480   18.1230  -34.4070 O   0  0  0  0  0  0  0  0  0  0  0  0
    3.0430   19.9960  -33.0810 O   0  0  0  0  0  0  0  0  0  0  0  0
    2.3610   20.4940  -35.6040 N   0  0  0  0  0  0  0  0  0  0  0  0
    1.1490   20.6570  -36.4290 C   0  0  0  0  0  0  0  0  0  0  0  0
    0.2570   21.8360  -35.9750 C   0  0  0  0  0  0  0  0  0  0  0  0
    0.8680   22.6630  -35.0040 O   0  0  0  0  0  0  0  0  0  0  0  0
    2.1720   22.9950  -35.4180 C   0  0  0  0  0  0  0  0  0  0  0  0
    3.0840   21.7600  -35.3550 C   0  0  0  0  0  0  0  0  0  0  0  0
   -0.6550   19.1290  -34.0450 C   0  0  0  0  0  0  0  0  0  0  0  0
   -1.9550   19.3670  -33.5940 C   0  0  0  0  0  0  0  0  0  0  0  0
   -2.0000   23.7840  -29.1480 C   0  0  0  0  0  0  0  0  0  0  0  0
   -1.4630   23.1880  -27.9940 C   0  0  0  0  0  0  0  0  0  0  0  0
   -0.1670   24.0430  -27.1330 S   0  0  0  0  0  0  0  0  0  0  0  0
    0.6190   24.8430  -28.1320 O   0  0  0  0  0  0  0  0  0  0  0  0
    0.7540   23.0650  -26.4560 O   0  0  0  0  0  0  0  0  0  0  0  0
   -0.8390   25.1080  -25.9180 N   0  0  0  0  0  0  0  0  0  0  0  0
   -0.1570   24.8920  -24.6270 C   0  0  0  0  0  0  0  0  0  0  0  0
   -0.4880   26.0150  -23.6250 C   0  0  0  0  0  0  0  0  0  0  0  0
   -1.5750   26.7950  -24.0750 O   0  0  0  0  0  0  0  0  0  0  0  0
   -1.2210   27.4680  -25.2710 C   0  0  0  0  0  0  0  0  0  0  0  0
   -0.6760   26.5050  -26.3480 C   0  0  0  0  0  0  0  0  0  0  0  0
   -1.7317   21.6399  -25.4641 H   0  0  0  0  0  0  0  0  0  0  0  0
   -1.6871   20.1322  -26.4395 H   0  0  0  0  0  0  0  0  0  0  0  0
   -0.2762   21.2441  -26.4395 H   0  0  0  0  0  0  0  0  0  0  0  0
   -3.4479   20.3885  -27.9176 H   0  0  0  0  0  0  0  0  0  0  0  0
   -4.4589   21.5298  -29.8817 H   0  0  0  0  0  0  0  0  0  0  0  0
   -7.6009   24.2270  -30.4788 H   0  0  0  0  0  0  0  0  0  0  0  0
   -9.3275   22.4646  -30.7802 H   0  0  0  0  0  0  0  0  0  0  0  0
   -8.7441   20.3177  -31.9022 H   0  0  0  0  0  0  0  0  0  0  0  0
   -6.4387   19.9453  -32.7615 H   0  0  0  0  0  0  0  0  0  0  0  0
   -3.9640   19.9220  -31.4910 H   0  0  0  0  0  0  0  0  0  0  0  0
   -1.2809   21.7715  -31.2566 H   0  0  0  0  0  0  0  0  0  0  0  0
    1.0371   21.3431  -32.0685 H   0  0  0  0  0  0  0  0  0  0  0  0
    1.4561   20.8319  -37.4707 H   0  0  0  0  0  0  0  0  0  0  0  0
    0.5548   19.7375  -36.3222 H   0  0  0  0  0  0  0  0  0  0  0  0
    0.0174   22.4507  -36.8552 H   0  0  0  0  0  0  0  0  0  0  0  0
   -0.6420   21.4027  -35.5123 H   0  0  0  0  0  0  0  0  0  0  0  0
    2.1399   23.3696  -36.4517 H   0  0  0  0  0  0  0  0  0  0  0  0
    2.5731   23.7696  -34.7479 H   0  0  0  0  0  0  0  0  0  0  0  0
    3.8731   21.8680  -36.1137 H   0  0  0  0  0  0  0  0  0  0  0  0
    3.4973   21.7080  -34.3369 H   0  0  0  0  0  0  0  0  0  0  0  0
   -0.4763   18.3684  -34.8194 H   0  0  0  0  0  0  0  0  0  0  0  0
   -2.7930   18.7854  -34.0057 H   0  0  0  0  0  0  0  0  0  0  0  0
   -1.5606   24.7165  -29.5318 H   0  0  0  0  0  0  0  0  0  0  0  0
   -0.4823   23.9290  -24.2065 H   0  0  0  0  0  0  0  0  0  0  0  0
    0.9288   24.8924  -24.8032 H   0  0  0  0  0  0  0  0  0  0  0  0
   -0.7458   25.5658  -22.6546 H   0  0  0  0  0  0  0  0  0  0  0  0
    0.3927   26.6669  -23.5282 H   0  0  0  0  0  0  0  0  0  0  0  0
   -2.1127   27.9747  -25.6686 H   0  0  0  0  0  0  0  0  0  0  0  0
   -0.4241   28.1865  -25.0287 H   0  0  0  0  0  0  0  0  0  0  0  0
   -1.2276   26.6618  -27.2867 H   0  0  0  0  0  0  0  0  0  0  0  0
    0.3943   26.7087  -26.4994 H   0  0  0  0  0  0  0  0  0  0  0  0
  1  2  1  0
  2  3  2  0
  3  4  1  0
  4  5  2  0
  5  6  1  0
  6  7  1  0
  7  8  2  0
  7  9  1  0
  9 10  2  0
 10 11  1  0
 11 12  2  0
 12 13  1  0
 13 14  2  0
 14 15  1  0
 15 16  2  0
 15 17  1  0
 17 18  1  0
 18 19  2  0
 19 20  1  0
 20 21  2  0
 21 22  1  0
 22 23  2  0
 22 24  2  0
 22 25  1  0
 25 26  1  0
 26 27  1  0
 27 28  1  0
 28 29  1  0
 29 30  1  0
 21 31  1  0
 31 32  2  0
  5 33  1  0
 33 34  2  0
 34 35  1  0
 35 36  2  0
 35 37  2  0
 35 38  1  0
 38 39  1  0
 39 40  1  0
 40 41  1  0
 41 42  1  0
 42 43  1  0
 34  2  1  0
 43 38  1  0
 14  9  1  0
 32 18  1  0
 30 25  1  0
  1 44  1  0
  1 45  1  0
  1 46  1  0
  3 47  1  0
  4 48  1  0
 10 49  1  0
 11 50  1  0
 12 51  1  0
 13 52  1  0
 17 53  1  0
 19 54  1  0
 20 55  1  0
 26 56  1  0
 26 57  1  0
 27 58  1  0
 27 59  1  0
 29 60  1  0
 29 61  1  0
 30 62  1  0
 30 63  1  0
 31 64  1  0
 32 65  1  0
 33 66  1  0
 39 67  1  0
 39 68  1  0
 40 69  1  0
 40 70  1  0
 42 71  1  0
 42 72  1  0
 43 73  1  0
 43 74  1  0
M  CHG  1   6  -1
M  END
>  <UniqueID>  (32) 
30

>  <SMILES>  (32) 
Cc1ccc([N-]C(=O)c2ccccc2C(=O)Nc2ccc(S(=O)(=O)N3CCOCC3)cc2)cc1S(=O)(=O)N1CCOCC1

>  <Energy>  (32) 
109.8084915776279

>  <Genealogy>  (32) 
Cc1ccc([N-]C(=O)c2ccccc2C(=O)Nc2ccc(S(=O)(=O)N3CCOCC3)cc2)cc1S(=O)(=O)N1CCOCC1 (protonated)
Cc1ccc([N-]C(=O)c2ccccc2C(=O)Nc2ccc(S(=O)(=O)N3CCOCC3)cc2)cc1S(=O)(=O)N1CCOCC1 (3D coordinates assigned)
Cc1ccc([N-]C(=O)c2ccccc2C(=O)Nc2ccc(S(=O)(=O)N3CCOCC3)cc2)cc1S(=O)(=O)N1CCOCC1 (nonaromatic ring conformer: 109.8084915776279 kcal/mol)

>  <smiles>  (32) 
Cc1ccc(NC(=O)c2ccccc2C(=O)Nc2ccc(S(=O)(=O)N3CCOCC3)cc2)cc1S(=O)(=O)N1CCOCC1

>  <score_type>  (32) 
oracle

>  <origin>  (32) 
adgpu

>  <m_score__min__energy>  (32) 
-12.789999999999999

>  <m_primary>  (32) 
energy

$$$$
32:0
     RDKit          3D

 62 65  0  0  0  0  0  0  0  0999 V2000
    0.2260   19.9830  -35.4250 C   0  0  0  0  0  0  0  0  0  0  0  0
   -0.4630   21.0160  -34.5790 C   0  0  0  0  0  0  0  0  0  0  0  0
   -0.1120   22.1850  -34.6760 O   0  0  0  0  0  0  0  0  0  0  0  0
   -1.5220   20.6420  -33.6580 N   0  0  2  0  0  0  0  0  0  0  0  0
   -1.0170   20.6190  -32.3190 C   0  0  0  0  0  0  0  0  0  0  0  0
   -0.5680   21.7370  -31.6060 C   0  0  0  0  0  0  0  0  0  0  0  0
   -0.1120   21.5620  -30.2900 C   0  0  0  0  0  0  0  0  0  0  0  0
   -0.1110   20.2800  -29.7030 C   0  0  0  0  0  0  0  0  0  0  0  0
    0.4360   20.0750  -28.0410 S   0  0  0  0  0  0  0  0  0  0  0  0
   -0.2410   18.8850  -27.4200 O   0  0  0  0  0  0  0  0  0  0  0  0
    1.9190   19.8320  -28.0370 O   0  0  0  0  0  0  0  0  0  0  0  0
    0.0900   21.5010  -27.1130 N   0  0  0  0  0  0  0  0  0  0  0  0
   -1.3110   21.4970  -26.7000 C   0  0  0  0  0  0  0  0  0  0  0  0
   -2.1740   21.8200  -27.8850 C   0  0  0  0  0  0  0  0  0  0  0  0
   -2.8410   20.7950  -28.5740 C   0  0  0  0  0  0  0  0  0  0  0  0
   -3.6240   21.0920  -29.6920 C   0  0  0  0  0  0  0  0  0  0  0  0
   -3.7340   22.4130  -30.1470 C   0  0  0  0  0  0  0  0  0  0  0  0
   -4.7170   22.7830  -31.5660 S   0  0  0  0  0  0  0  0  0  0  0  0
   -3.9500   22.4240  -32.8090 O   0  0  0  0  0  0  0  0  0  0  0  0
   -4.9930   24.2600  -31.6010 O   0  0  0  0  0  0  0  0  0  0  0  0
   -6.2310   21.9120  -31.5470 N   0  0  0  0  0  0  0  0  0  0  0  0
   -7.3660   22.8590  -31.5290 C   0  0  0  0  0  0  0  0  0  0  0  0
   -8.7170   22.1680  -31.8230 C   0  0  0  0  0  0  0  0  0  0  0  0
   -8.6220   20.6480  -31.6530 C   0  0  0  0  0  0  0  0  0  0  0  0
   -7.5200   20.0570  -32.5500 C   0  0  0  0  0  0  0  0  0  0  0  0
   -6.3170   21.0070  -32.7030 C   0  0  0  0  0  0  0  0  0  0  0  0
   -3.0530   23.4360  -29.4720 C   0  0  0  0  0  0  0  0  0  0  0  0
   -2.2750   23.1410  -28.3490 C   0  0  0  0  0  0  0  0  0  0  0  0
   -0.5830   19.1750  -30.4360 C   0  0  0  0  0  0  0  0  0  0  0  0
   -1.0320   19.3800  -31.7410 C   0  0  0  0  0  0  0  0  0  0  0  0
   -1.5830   18.3810  -32.6730 C   0  0  0  0  0  0  0  0  0  0  0  0
   -1.9920   19.2430  -33.8990 C   0  0  1  0  0  0  0  0  0  0  0  0
   -3.5130   19.1980  -34.1180 C   0  0  0  0  0  0  0  0  0  0  0  0
    0.7182   19.2451  -34.7744 H   0  0  0  0  0  0  0  0  0  0  0  0
   -0.5151   19.4754  -36.0600 H   0  0  0  0  0  0  0  0  0  0  0  0
    0.9793   20.4722  -36.0600 H   0  0  0  0  0  0  0  0  0  0  0  0
   -2.3090   21.3310  -33.6980 H   0  0  0  0  0  0  0  0  0  0  0  0
   -0.5725   22.7349  -32.0688 H   0  0  0  0  0  0  0  0  0  0  0  0
    0.2459   22.4284  -29.7144 H   0  0  0  0  0  0  0  0  0  0  0  0
   -1.5772   20.5033  -26.3105 H   0  0  0  0  0  0  0  0  0  0  0  0
   -1.4670   22.2488  -25.9123 H   0  0  0  0  0  0  0  0  0  0  0  0
   -2.7467   19.7537  -28.2322 H   0  0  0  0  0  0  0  0  0  0  0  0
   -4.1565   20.2856  -30.2175 H   0  0  0  0  0  0  0  0  0  0  0  0
   -7.4184   23.3282  -30.5355 H   0  0  0  0  0  0  0  0  0  0  0  0
   -7.1925   23.6044  -32.3191 H   0  0  0  0  0  0  0  0  0  0  0  0
   -9.4760   22.5581  -31.1289 H   0  0  0  0  0  0  0  0  0  0  0  0
   -8.9924   22.3809  -32.8665 H   0  0  0  0  0  0  0  0  0  0  0  0
   -8.3916   20.4179  -30.6023 H   0  0  0  0  0  0  0  0  0  0  0  0
   -9.5850   20.2034  -31.9445 H   0  0  0  0  0  0  0  0  0  0  0  0
   -7.1709   19.1132  -32.1058 H   0  0  0  0  0  0  0  0  0  0  0  0
   -7.9505   19.8963  -33.5494 H   0  0  0  0  0  0  0  0  0  0  0  0
   -5.3927   20.4143  -32.7694 H   0  0  0  0  0  0  0  0  0  0  0  0
   -6.4475   21.6053  -33.6168 H   0  0  0  0  0  0  0  0  0  0  0  0
   -3.1313   24.4741  -29.8274 H   0  0  0  0  0  0  0  0  0  0  0  0
   -1.7395   23.9474  -27.8265 H   0  0  0  0  0  0  0  0  0  0  0  0
   -0.5976   18.1700  -29.9890 H   0  0  0  0  0  0  0  0  0  0  0  0
   -0.8232   17.6350  -32.9489 H   0  0  0  0  0  0  0  0  0  0  0  0
   -2.4175   17.8033  -32.2489 H   0  0  0  0  0  0  0  0  0  0  0  0
   -1.5262   18.8455  -34.8128 H   0  0  0  0  0  0  0  0  0  0  0  0
   -4.0234   19.1829  -33.1437 H   0  0  0  0  0  0  0  0  0  0  0  0
   -3.8285   20.0872  -34.6835 H   0  0  0  0  0  0  0  0  0  0  0  0
   -3.7754   18.2917  -34.6835 H   0  0  0  0  0  0  0  0  0  0  0  0
  1  2  1  0
  2  3  2  0
  2  4  1  0
  4  5  1  0
  5  6  2  0
  6  7  1  0
  7  8  2  0
  8  9  1  0
  9 10  2  0
  9 11  2  0
  9 12  1  0
 12 13  1  0
 13 14  1  0
 14 15  2  0
 15 16  1  0
 16 17  2  0
 17 18  1  0
 18 19  2  0
 18 20  2  0
 18 21  1  0
 21 22  1  0
 22 23  1  0
 23 24  1  0
 24 25  1  0
 25 26  1  0
 17 27  1  0
 27 28  2  0
  8 29  1  0
 29 30  2  0
 30 31  1  0
 31 32  1  0
 32 33  1  0
 32  4  1  0
 30  5  1  0
 28 14  1  0
 26 21  1  0
  1 34  1  0
  1 35  1  0
  1 36  1  0
  4 37  1  1
  6 38  1  0
  7 39  1  0
 13 40  1  0
 13 41  1  0
 15 42  1  0
 16 43  1  0
 22 44  1  0
 22 45  1  0
 23 46  1  0
 23 47  1  0
 24 48  1  0
 24 49  1  0
 25 50  1  0
 25 51  1  0
 26 52  1  0
 26 53  1  0
 27 54  1  0
 28 55  1  0
 29 56  1  0
 31 57  1  0
 31 58  1  0
 32 59  1  6
 33 60  1  0
 33 61  1  0
 33 62  1  0
M  CHG  2   4   1  12  -1
M  END
>  <UniqueID>  (33) 
31

>  <SMILES>  (33) 
CC(=O)[N@@H+]1c2ccc(S(=O)(=O)[N-]Cc3ccc(S(=O)(=O)N4CCCCC4)cc3)cc2C[C@H]1C

>  <Energy>  (33) 
73.88233239890323

>  <Genealogy>  (33) 
CC(=O)[NH+]1c2ccc(S(=O)(=O)[N-]Cc3ccc(S(=O)(=O)N4CCCCC4)cc3)cc2CC1C (protonated)
CC(=O)[N@@H+]1c2ccc(S(=O)(=O)[N-]Cc3ccc(S(=O)(=O)N4CCCCC4)cc3)cc2C[C@H]1C (chirality)
CC(=O)[N@@H+]1c2ccc(S(=O)(=O)[N-]Cc3ccc(S(=O)(=O)N4CCCCC4)cc3)cc2C[C@H]1C (3D coordinates assigned)
CC(=O)[N@@H+]1c2ccc(S(=O)(=O)[N-]Cc3ccc(S(=O)(=O)N4CCCCC4)cc3)cc2C[C@H]1C (nonaromatic ring conformer: 73.88233239890323 kcal/mol)

>  <smiles>  (33) 
CC(=O)N1c2ccc(S(=O)(=O)NCc3ccc(S(=O)(=O)N4CCCCC4)cc3)cc2CC1C

>  <score_type>  (33) 
oracle

>  <origin>  (33) 
adgpu

>  <m_score__min__energy>  (33) 
-13.130000000000001

>  <m_primary>  (33) 
energy

$$$$
33:0
     RDKit          3D

 47 49  0  0  0  0  0  0  0  0999 V2000
   -1.7820   20.2590  -26.7570 C   0  0  0  0  0  0  0  0  0  0  0  0
   -1.8890   21.5940  -27.4310 C   0  0  0  0  0  0  0  0  0  0  0  0
   -0.7480   22.3760  -27.6600 C   0  0  0  0  0  0  0  0  0  0  0  0
   -0.8660   23.6180  -28.2910 C   0  0  0  0  0  0  0  0  0  0  0  0
   -2.1200   24.1000  -28.6840 C   0  0  0  0  0  0  0  0  0  0  0  0
   -2.1950   25.3440  -29.3120 O   0  0  0  0  0  0  0  0  0  0  0  0
   -3.2770   23.3330  -28.4390 C   0  0  0  0  0  0  0  0  0  0  0  0
   -4.5610   23.8500  -28.8210 N   0  0  0  0  0  0  0  0  0  0  0  0
   -5.1090   24.0590  -30.4510 S   0  0  0  0  0  0  0  0  0  0  0  0
   -6.6110   24.0600  -30.4760 O   0  0  0  0  0  0  0  0  0  0  0  0
   -4.6170   25.3790  -30.9750 O   0  0  0  0  0  0  0  0  0  0  0  0
   -4.5200   22.7250  -31.4390 C   0  0  0  0  0  0  0  0  0  0  0  0
   -3.1580   22.6470  -31.7540 C   0  0  0  0  0  0  0  0  0  0  0  0
   -2.6860   21.6300  -32.5870 C   0  0  0  0  0  0  0  0  0  0  0  0
   -3.5740   20.6920  -33.1250 C   0  0  0  0  0  0  0  0  0  0  0  0
   -3.0880   19.7130  -33.9830 O   0  0  0  0  0  0  0  0  0  0  0  0
   -4.9450   20.7590  -32.8140 C   0  0  0  0  0  0  0  0  0  0  0  0
   -5.8770   19.8110  -33.3660 N   0  0  0  0  0  0  0  0  0  0  0  0
   -5.3990   18.5420  -33.9250 C   0  0  0  0  0  0  0  0  0  0  0  0
   -6.4900   17.4610  -33.8290 C   0  0  0  0  0  0  0  0  0  0  0  0
   -7.2680   17.5730  -32.5750 N   0  0  0  0  0  0  0  0  0  0  0  0
   -6.4500   17.2510  -31.3930 C   0  0  0  0  0  0  0  0  0  0  0  0
   -7.9620   18.8800  -32.4290 C   0  0  0  0  0  0  0  0  0  0  0  0
   -7.3230   20.0220  -33.2410 C   0  0  0  0  0  0  0  0  0  0  0  0
   -5.4070   21.7740  -31.9590 C   0  0  0  0  0  0  0  0  0  0  0  0
   -3.1470   22.0750  -27.8170 C   0  0  0  0  0  0  0  0  0  0  0  0
   -1.7931   20.3972  -25.6658 H   0  0  0  0  0  0  0  0  0  0  0  0
   -2.6325   19.6284  -27.0554 H   0  0  0  0  0  0  0  0  0  0  0  0
   -0.8419   19.7719  -27.0554 H   0  0  0  0  0  0  0  0  0  0  0  0
    0.2405   22.0121  -27.3430 H   0  0  0  0  0  0  0  0  0  0  0  0
    0.0341   24.2214  -28.4802 H   0  0  0  0  0  0  0  0  0  0  0  0
   -3.0410   25.6790  -29.7570 H   0  0  0  0  0  0  0  0  0  0  0  0
   -2.4572   23.3892  -31.3440 H   0  0  0  0  0  0  0  0  0  0  0  0
   -1.6130   21.5663  -32.8208 H   0  0  0  0  0  0  0  0  0  0  0  0
   -5.1301   18.6910  -34.9812 H   0  0  0  0  0  0  0  0  0  0  0  0
   -4.5210   18.2108  -33.3511 H   0  0  0  0  0  0  0  0  0  0  0  0
   -7.1745   17.5695  -34.6832 H   0  0  0  0  0  0  0  0  0  0  0  0
   -5.9976   16.4774  -33.8384 H   0  0  0  0  0  0  0  0  0  0  0  0
   -7.0207   17.4757  -30.4799 H   0  0  0  0  0  0  0  0  0  0  0  0
   -6.1882   16.1827  -31.4082 H   0  0  0  0  0  0  0  0  0  0  0  0
   -5.5302   17.8542  -31.4082 H   0  0  0  0  0  0  0  0  0  0  0  0
   -9.0029   18.7583  -32.7631 H   0  0  0  0  0  0  0  0  0  0  0  0
   -7.8882   19.1631  -31.3686 H   0  0  0  0  0  0  0  0  0  0  0  0
   -7.7736   20.0502  -34.2441 H   0  0  0  0  0  0  0  0  0  0  0  0
   -7.5018   20.9744  -32.7205 H   0  0  0  0  0  0  0  0  0  0  0  0
   -6.4740   21.8220  -31.6960 H   0  0  0  0  0  0  0  0  0  0  0  0
   -4.0430   21.4641  -27.6326 H   0  0  0  0  0  0  0  0  0  0  0  0
  1  2  1  0
  2  3  2  0
  3  4  1  0
  4  5  2  0
  5  6  1  0
  5  7  1  0
  7  8  1  0
  8  9  1  0
  9 10  2  0
  9 11  2  0
  9 12  1  0
 12 13  2  0
 13 14  1  0
 14 15  2  0
 15 16  1  0
 15 17  1  0
 17 18  1  0
 18 19  1  0
 19 20  1  0
 20 21  1  0
 21 22  1  0
 21 23  1  0
 23 24  1  0
 17 25  2  0
  7 26  2  0
 26  2  1  0
 25 12  1  0
 24 18  1  0
  1 27  1  0
  1 28  1  0
  1 29  1  0
  3 30  1  0
  4 31  1  0
  6 32  1  0
 13 33  1  0
 14 34  1  0
 19 35  1  0
 19 36  1  0
 20 37  1  0
 20 38  1  0
 22 39  1  0
 22 40  1  0
 22 41  1  0
 23 42  1  0
 23 43  1  0
 24 44  1  0
 24 45  1  0
 25 46  1  0
 26 47  1  0
M  CHG  2   8  -1  16  -1
M  END
>  <UniqueID>  (34) 
32

>  <SMILES>  (34) 
Cc1ccc(O)c([N-]S(=O)(=O)c2ccc([O-])c(N3CCN(C)CC3)c2)c1

>  <Energy>  (34) 
62.59584254649468

>  <Genealogy>  (34) 
Cc1ccc(O)c([N-]S(=O)(=O)c2ccc([O-])c(N3CCN(C)CC3)c2)c1 (protonated)
Cc1ccc(O)c([N-]S(=O)(=O)c2ccc([O-])c(N3CCN(C)CC3)c2)c1 (3D coordinates assigned)
Cc1ccc(O)c([N-]S(=O)(=O)c2ccc([O-])c(N3CCN(C)CC3)c2)c1 (nonaromatic ring conformer: 62.59584254649468 kcal/mol)

>  <smiles>  (34) 
Cc1ccc(O)c(NS(=O)(=O)c2ccc(O)c(N3CCN(C)CC3)c2)c1

>  <score_type>  (34) 
oracle

>  <origin>  (34) 
adgpu

>  <m_score__min__energy>  (34) 
-10.99

>  <m_primary>  (34) 
energy

$$$$
34:0
     RDKit          3D

 58 61  0  0  0  0  0  0  0  0999 V2000
    0.1240   22.3580  -29.8610 H   0  0  0  0  0  0  0  0  0  0  0  0
   -0.8310   22.7440  -30.0180 N   0  0  0  0  0  0  0  0  0  0  0  0
   -1.7340   22.2640  -30.8240 C   0  0  0  0  0  0  0  0  0  0  0  0
   -3.0030   22.8870  -30.8590 C   0  0  0  0  0  0  0  0  0  0  0  0
   -3.3030   24.1440  -30.1160 C   0  0  0  0  0  0  0  0  0  0  0  0
   -3.0940   24.2020  -28.8730 O   0  0  0  0  0  0  0  0  0  0  0  0
   -3.8520   25.2830  -30.7920 N   0  0  0  0  0  0  0  0  0  0  0  0
   -5.2480   25.6920  -30.6860 C   0  0  0  0  0  0  0  0  0  0  0  0
   -5.4194   26.1473  -29.6995 H   0  0  0  0  0  0  0  0  0  0  0  0
   -5.4700   26.4209  -31.4794 H   0  0  0  0  0  0  0  0  0  0  0  0
   -6.1510   24.5010  -30.8470 C   0  0  0  0  0  0  0  0  0  0  0  0
   -6.6880   24.1730  -32.1020 C   0  0  0  0  0  0  0  0  0  0  0  0
   -6.4264   24.7765  -32.9837 H   0  0  0  0  0  0  0  0  0  0  0  0
   -7.5530   23.0840  -32.2370 C   0  0  0  0  0  0  0  0  0  0  0  0
   -7.9719   22.8371  -33.2237 H   0  0  0  0  0  0  0  0  0  0  0  0
   -7.8900   22.3040  -31.1210 C   0  0  0  0  0  0  0  0  0  0  0  0
   -8.8600   21.1690  -31.2590 C   0  0  0  0  0  0  0  0  0  0  0  0
   -9.1592   20.8189  -30.2601 H   0  0  0  0  0  0  0  0  0  0  0  0
   -9.7490   21.5112  -31.8091 H   0  0  0  0  0  0  0  0  0  0  0  0
   -8.3834   20.3442  -31.8091 H   0  0  0  0  0  0  0  0  0  0  0  0
   -7.3700   22.6420  -29.8620 C   0  0  0  0  0  0  0  0  0  0  0  0
   -7.6472   22.0493  -28.9778 H   0  0  0  0  0  0  0  0  0  0  0  0
   -6.5010   23.7290  -29.7270 C   0  0  0  0  0  0  0  0  0  0  0  0
   -6.0893   23.9809  -28.7385 H   0  0  0  0  0  0  0  0  0  0  0  0
   -4.0160   22.3040  -31.6210 C   0  0  0  0  0  0  0  0  0  0  0  0
   -4.9997   22.7925  -31.6820 H   0  0  0  0  0  0  0  0  0  0  0  0
   -3.7960   21.1080  -32.3070 C   0  0  0  0  0  0  0  0  0  0  0  0
   -4.8240   20.4800  -33.0330 C   0  0  0  0  0  0  0  0  0  0  0  0
   -5.9620   21.0270  -33.0940 O   0  0  0  0  0  0  0  0  0  0  0  0
   -4.5970   19.2850  -33.6680 N   0  0  0  0  0  0  0  0  0  0  0  0
   -5.6750   18.6350  -34.4400 C   0  0  0  0  0  0  0  0  0  0  0  0
   -6.4070   18.1936  -33.7476 H   0  0  0  0  0  0  0  0  0  0  0  0
   -6.1743   19.3827  -35.0737 H   0  0  0  0  0  0  0  0  0  0  0  0
   -5.2467   17.8444  -35.0737 H   0  0  0  0  0  0  0  0  0  0  0  0
   -3.3590   18.6940  -33.5740 C   0  0  0  0  0  0  0  0  0  0  0  0
   -3.0440   17.2410  -34.2930 S   0  0  0  0  0  0  0  0  0  0  0  0
   -2.3580   19.2970  -32.8740 N   0  0  0  0  0  0  0  0  0  0  0  0
   -1.4670   18.7640  -32.7780 H   0  0  0  0  0  0  0  0  0  0  0  0
   -2.5230   20.5130  -32.2670 C   0  0  0  0  0  0  0  0  0  0  0  0
   -1.4820   21.1450  -31.6020 N   0  0  0  0  0  0  0  0  0  0  0  0
   -0.0870   20.6700  -31.7720 C   0  0  0  0  0  0  0  0  0  0  0  0
    0.5960   21.4377  -31.3794 H   0  0  0  0  0  0  0  0  0  0  0  0
    0.0086   19.7205  -31.2248 H   0  0  0  0  0  0  0  0  0  0  0  0
    0.2690   20.4000  -33.2200 C   0  0  0  0  0  0  0  0  0  0  0  0
    0.8410   19.1830  -33.6360 C   0  0  0  0  0  0  0  0  0  0  0  0
    1.0611   18.4009  -32.8945 H   0  0  0  0  0  0  0  0  0  0  0  0
    1.1310   18.9620  -34.9850 C   0  0  0  0  0  0  0  0  0  0  0  0
    1.5880   18.0114  -35.2974 H   0  0  0  0  0  0  0  0  0  0  0  0
    0.8420   19.9480  -35.9460 C   0  0  0  0  0  0  0  0  0  0  0  0
    1.1190   19.7750  -37.3110 O   0  0  0  0  0  0  0  0  0  0  0  0
    1.1270   18.5160  -37.9750 C   0  0  0  0  0  0  0  0  0  0  0  0
    1.1321   17.7079  -37.2287 H   0  0  0  0  0  0  0  0  0  0  0  0
    0.2294   18.4279  -38.6047 H   0  0  0  0  0  0  0  0  0  0  0  0
    2.0257   18.4393  -38.6047 H   0  0  0  0  0  0  0  0  0  0  0  0
    0.2560   21.1490  -35.5350 C   0  0  0  0  0  0  0  0  0  0  0  0
    0.0207   21.9242  -36.2791 H   0  0  0  0  0  0  0  0  0  0  0  0
   -0.0330   21.3720  -34.1860 C   0  0  0  0  0  0  0  0  0  0  0  0
   -0.5017   22.3185  -33.8785 H   0  0  0  0  0  0  0  0  0  0  0  0
  1  2  1  0
  2  3  2  0
  3  4  1  0
  4  5  1  0
  5  6  2  0
  5  7  1  0
  7  8  1  0
  8  9  1  0
  8 10  1  0
  8 11  1  0
 11 12  2  0
 12 13  1  0
 12 14  1  0
 14 15  1  0
 14 16  2  0
 16 17  1  0
 17 18  1  0
 17 19  1  0
 17 20  1  0
 16 21  1  0
 21 22  1  0
 21 23  2  0
 23 24  1  0
  4 25  2  0
 25 26  1  0
 25 27  1  0
 27 28  1  0
 28 29  2  0
 28 30  1  0
 30 31  1  0
 31 32  1  0
 31 33  1  0
 31 34  1  0
 30 35  1  0
 35 36  2  0
 35 37  1  0
 37 38  1  0
 37 39  1  0
 39 40  1  0
 40 41  1  0
 41 42  1  0
 41 43  1  0
 41 44  1  0
 44 45  2  0
 45 46  1  0
 45 47  1  0
 47 48  1  0
 47 49  2  0
 49 50  1  0
 50 51  1  0
 51 52  1  0
 51 53  1  0
 51 54  1  0
 49 55  1  0
 55 56  1  0
 55 57  2  0
 57 58  1  0
 40  3  1  0
 57 44  1  0
 23 11  1  0
 39 27  2  0
M  CHG  1   7  -1
M  END
>  <UniqueID>  (35) 
33

>  <SMILES>  (35) 
[H]/N=c1/c(C(=O)[N-]Cc2ccc(C)cc2)cc2c(=O)n(C)c(=S)[nH]c2n1Cc1ccc(OC)cc1

>  <Energy>  (35) 
86.44961799742339

>  <Genealogy>  (35) 
COc1ccc(Cn2c(=N)c(C(=O)[N-]Cc3ccc(C)cc3)cc3c(=O)n(C)c(=S)[nH]c32)cc1 (protonated)
[H]/N=c1/c(C(=O)[N-]Cc2ccc(C)cc2)cc2c(=O)n(C)c(=S)[nH]c2n1Cc1ccc(OC)cc1 (cis-trans isomerization)
[H]/N=c1/c(C(=O)[N-]Cc2ccc(C)cc2)cc2c(=O)n(C)c(=S)[nH]c2n1Cc1ccc(OC)cc1 (3D coordinates assigned)
[H]/N=c1/c(C(=O)[N-]Cc2ccc(C)cc2)cc2c(=O)n(C)c(=S)[nH]c2n1Cc1ccc(OC)cc1 (optimized conformer: 86.44961799742339 kcal/mol)

>  <smiles>  (35) 
COc1ccc(Cn2c(=N)c(C(=O)NCc3ccc(C)cc3)cc3c(=O)n(C)c(=S)[nH]c32)cc1

>  <score_type>  (35) 
oracle

>  <origin>  (35) 
adgpu

>  <m_score__min__energy>  (35) 
-10.66

>  <m_primary>  (35) 
energy

$$$$
35:0
     RDKit          3D

 56 59  0  0  0  0  0  0  0  0999 V2000
   -4.0914   22.9280  -32.0837 H   0  0  0  0  0  0  0  0  0  0  0  0
   -4.9590   23.3000  -31.5190 C   0  0  0  0  0  0  0  0  0  0  0  0
   -6.2200   22.7340  -31.7310 C   0  0  0  0  0  0  0  0  0  0  0  0
   -6.3366   21.9074  -32.4473 H   0  0  0  0  0  0  0  0  0  0  0  0
   -7.3430   23.2200  -31.0290 C   0  0  0  0  0  0  0  0  0  0  0  0
   -8.6280   22.6850  -31.2060 O   0  0  0  0  0  0  0  0  0  0  0  0
   -8.8900   21.3560  -31.6600 C   0  0  0  0  0  0  0  0  0  0  0  0
   -9.0210   20.6916  -30.7932 H   0  0  0  0  0  0  0  0  0  0  0  0
   -9.8066   21.3503  -32.2682 H   0  0  0  0  0  0  0  0  0  0  0  0
   -8.0442   21.0029  -32.2682 H   0  0  0  0  0  0  0  0  0  0  0  0
   -7.1800   24.2810  -30.1250 C   0  0  0  0  0  0  0  0  0  0  0  0
   -8.0518   24.6742  -29.5816 H   0  0  0  0  0  0  0  0  0  0  0  0
   -5.9170   24.8420  -29.9100 C   0  0  0  0  0  0  0  0  0  0  0  0
   -5.8014   25.6794  -29.2061 H   0  0  0  0  0  0  0  0  0  0  0  0
   -4.7930   24.3380  -30.5920 C   0  0  0  0  0  0  0  0  0  0  0  0
   -3.4900   24.9180  -30.4250 N   0  0  0  0  0  0  0  0  0  0  0  0
   -2.7750   24.8940  -29.3400 C   0  0  0  0  0  0  0  0  0  0  0  0
   -1.5620   25.4810  -29.2700 N   0  0  0  0  0  0  0  0  0  0  0  0
   -0.9550   25.2850  -28.1020 N   0  0  0  0  0  0  0  0  0  0  0  0
   -1.6810   24.5340  -27.2410 C   0  0  0  0  0  0  0  0  0  0  0  0
   -1.1170   24.0830  -25.6020 S   0  0  0  0  0  0  0  0  0  0  0  0
   -0.2330   22.5790  -26.1450 C   0  0  0  0  0  0  0  0  0  0  0  0
    0.7319   22.8676  -26.5873 H   0  0  0  0  0  0  0  0  0  0  0  0
   -0.0746   21.9285  -25.2722 H   0  0  0  0  0  0  0  0  0  0  0  0
   -1.0360   21.8290  -27.1640 C   0  0  0  0  0  0  0  0  0  0  0  0
   -1.7510   20.8560  -26.7900 O   0  0  0  0  0  0  0  0  0  0  0  0
   -1.0500   22.2650  -28.5310 N   0  0  0  0  0  0  0  0  0  0  0  0
   -0.6920   23.2250  -28.7360 H   0  0  0  0  0  0  0  0  0  0  0  0
   -1.5980   21.5110  -29.6260 C   0  0  0  0  0  0  0  0  0  0  0  0
   -0.8120   21.1450  -30.7310 C   0  0  0  0  0  0  0  0  0  0  0  0
    0.2549   21.4118  -30.7546 H   0  0  0  0  0  0  0  0  0  0  0  0
   -1.3760   20.4440  -31.8010 C   0  0  0  0  0  0  0  0  0  0  0  0
   -0.7485   20.1510  -32.6556 H   0  0  0  0  0  0  0  0  0  0  0  0
   -2.7380   20.1130  -31.7890 C   0  0  0  0  0  0  0  0  0  0  0  0
   -3.4580   19.2580  -33.1530 S   0  0  0  0  0  0  0  0  0  0  0  0
   -2.8220   19.7280  -34.4320 O   0  0  0  0  0  0  0  0  0  0  0  0
   -3.1710   17.7910  -32.9950 O   0  0  0  0  0  0  0  0  0  0  0  0
   -5.1920   19.5210  -33.1700 N   0  0  0  0  0  0  0  0  0  0  0  0
   -5.8300   19.0350  -34.4100 C   0  0  0  0  0  0  0  0  0  0  0  0
   -6.7832   19.5662  -34.5488 H   0  0  0  0  0  0  0  0  0  0  0  0
   -5.1370   19.2278  -35.2422 H   0  0  0  0  0  0  0  0  0  0  0  0
   -6.1080   17.5230  -34.3710 C   0  0  0  0  0  0  0  0  0  0  0  0
   -6.6716   17.2374  -35.2714 H   0  0  0  0  0  0  0  0  0  0  0  0
   -5.1463   16.9903  -34.3337 H   0  0  0  0  0  0  0  0  0  0  0  0
   -6.8590   17.1770  -33.2270 O   0  0  0  0  0  0  0  0  0  0  0  0
   -6.1160   17.4790  -32.0650 C   0  0  0  0  0  0  0  0  0  0  0  0
   -6.6814   17.1512  -31.1802 H   0  0  0  0  0  0  0  0  0  0  0  0
   -5.1502   16.9551  -32.1181 H   0  0  0  0  0  0  0  0  0  0  0  0
   -5.8520   18.9890  -31.9630 C   0  0  0  0  0  0  0  0  0  0  0  0
   -6.8120   19.5082  -31.8260 H   0  0  0  0  0  0  0  0  0  0  0  0
   -5.1806   19.1579  -31.1082 H   0  0  0  0  0  0  0  0  0  0  0  0
   -3.5320   20.4970  -30.6990 C   0  0  0  0  0  0  0  0  0  0  0  0
   -4.6037   20.2492  -30.6866 H   0  0  0  0  0  0  0  0  0  0  0  0
   -2.9650   21.1940  -29.6280 C   0  0  0  0  0  0  0  0  0  0  0  0
   -3.5960   21.4966  -28.7793 H   0  0  0  0  0  0  0  0  0  0  0  0
   -3.1480   24.0610  -27.9110 S   0  0  0  0  0  0  0  0  0  0  0  0
  1  2  1  0
  2  3  2  0
  3  4  1  0
  3  5  1  0
  5  6  1  0
  6  7  1  0
  7  8  1  0
  7  9  1  0
  7 10  1  0
  5 11  2  0
 11 12  1  0
 11 13  1  0
 13 14  1  0
 13 15  2  0
 15 16  1  0
 16 17  2  0
 17 18  1  0
 18 19  1  0
 19 20  2  0
 20 21  1  0
 21 22  1  0
 22 23  1  0
 22 24  1  0
 22 25  1  0
 25 26  2  0
 25 27  1  0
 27 28  1  0
 27 29  1  0
 29 30  2  0
 30 31  1  0
 30 32  1  0
 32 33  1  0
 32 34  2  0
 34 35  1  0
 35 36  2  0
 35 37  2  0
 35 38  1  0
 38 39  1  0
 39 40  1  0
 39 41  1  0
 39 42  1  0
 42 43  1  0
 42 44  1  0
 42 45  1  0
 45 46  1  0
 46 47  1  0
 46 48  1  0
 46 49  1  0
 49 50  1  0
 49 51  1  0
 34 52  1  0
 52 53  1  0
 52 54  2  0
 54 55  1  0
 20 56  1  0
 15  2  1  0
 56 17  1  0
 54 29  1  0
 49 38  1  0
M  CHG  1  18  -1
M  END
>  <UniqueID>  (36) 
34

>  <SMILES>  (36) 
COc1ccc(/N=c2/[n-]nc(SCC(=O)Nc3ccc(S(=O)(=O)N4CCOCC4)cc3)s2)cc1

>  <Energy>  (36) 
102.89538045156355

>  <Genealogy>  (36) 
COc1ccc(N=c2[n-]nc(SCC(=O)Nc3ccc(S(=O)(=O)N4CCOCC4)cc3)s2)cc1 (protonated)
COc1ccc(/N=c2/[n-]nc(SCC(=O)Nc3ccc(S(=O)(=O)N4CCOCC4)cc3)s2)cc1 (cis-trans isomerization)
COc1ccc(/N=c2/[n-]nc(SCC(=O)Nc3ccc(S(=O)(=O)N4CCOCC4)cc3)s2)cc1 (3D coordinates assigned)
COc1ccc(/N=c2/[n-]nc(SCC(=O)Nc3ccc(S(=O)(=O)N4CCOCC4)cc3)s2)cc1 (nonaromatic ring conformer: 102.89538045156355 kcal/mol)

>  <smiles>  (36) 
COc1ccc(N=c2[nH]nc(SCC(=O)Nc3ccc(S(=O)(=O)N4CCOCC4)cc3)s2)cc1

>  <score_type>  (36) 
oracle

>  <origin>  (36) 
adgpu

>  <m_score__min__energy>  (36) 
-10.5

>  <m_primary>  (36) 
energy

$$$$
36:0
     RDKit          3D

 53 55  0  0  0  0  0  0  0  0999 V2000
   -1.0640   21.8540  -30.1090 C   0  0  0  0  0  0  0  0  0  0  0  0
   -2.1260   22.7610  -29.6460 N   0  0  0  0  0  0  0  0  0  0  0  0
   -3.2500   21.9920  -29.0710 C   0  0  0  0  0  0  0  0  0  0  0  0
   -4.1420   22.8530  -28.1500 C   0  0  0  0  0  0  0  0  0  0  0  0
   -4.0460   24.2950  -28.4450 N   0  0  0  0  0  0  0  0  0  0  0  0
   -4.8240   24.7180  -29.9580 S   0  0  0  0  0  0  0  0  0  0  0  0
   -6.0060   25.6030  -29.6740 O   0  0  0  0  0  0  0  0  0  0  0  0
   -3.8750   25.4700  -30.8500 O   0  0  0  0  0  0  0  0  0  0  0  0
   -5.4000   23.2740  -30.7870 C   0  0  0  0  0  0  0  0  0  0  0  0
   -6.6210   22.6850  -30.4400 C   0  0  0  0  0  0  0  0  0  0  0  0
   -7.0710   21.5550  -31.1240 C   0  0  0  0  0  0  0  0  0  0  0  0
   -6.2930   21.0150  -32.1660 C   0  0  0  0  0  0  0  0  0  0  0  0
   -6.7300   19.8530  -32.9090 N   0  0  0  0  0  0  0  0  0  0  0  0
   -5.8380   19.2060  -33.8880 C   0  0  0  0  0  0  0  0  0  0  0  0
   -6.3470   17.8130  -34.2900 C   0  0  0  0  0  0  0  0  0  0  0  0
   -6.8540   17.0370  -33.0610 C   0  0  0  0  0  0  0  0  0  0  0  0
   -5.7460   16.8160  -32.1230 N   0  0  0  0  0  0  0  0  0  0  0  0
   -4.8290   15.3980  -32.5420 S   0  0  0  0  0  0  0  0  0  0  0  0
   -5.6130   14.5920  -33.9190 C   0  0  0  0  0  0  0  0  0  0  0  0
   -4.7770   14.4460  -31.3790 O   0  0  0  0  0  0  0  0  0  0  0  0
   -3.4320   15.7920  -32.9300 O   0  0  0  0  0  0  0  0  0  0  0  0
   -7.9920   17.8010  -32.3350 C   0  0  0  0  0  0  0  0  0  0  0  0
   -8.0740   19.2910  -32.7040 C   0  0  0  0  0  0  0  0  0  0  0  0
   -5.1110   21.6160  -32.4820 N   0  0  0  0  0  0  0  0  0  0  0  0
   -4.6540   22.7160  -31.8270 C   0  0  0  0  0  0  0  0  0  0  0  0
   -2.6560   24.8040  -28.3750 C   0  0  0  0  0  0  0  0  0  0  0  0
   -1.5950   23.7290  -28.6760 C   0  0  0  0  0  0  0  0  0  0  0  0
   -0.5512   21.4160  -29.2400 H   0  0  0  0  0  0  0  0  0  0  0  0
   -1.5067   21.0510  -30.7166 H   0  0  0  0  0  0  0  0  0  0  0  0
   -0.3401   22.4169  -30.7166 H   0  0  0  0  0  0  0  0  0  0  0  0
   -3.8663   21.5991  -29.8930 H   0  0  0  0  0  0  0  0  0  0  0  0
   -2.8246   21.1802  -28.4627 H   0  0  0  0  0  0  0  0  0  0  0  0
   -5.1878   22.5370  -28.2784 H   0  0  0  0  0  0  0  0  0  0  0  0
   -3.7937   22.7027  -27.1175 H   0  0  0  0  0  0  0  0  0  0  0  0
   -7.2265   23.1130  -29.6275 H   0  0  0  0  0  0  0  0  0  0  0  0
   -8.0288   21.0884  -30.8505 H   0  0  0  0  0  0  0  0  0  0  0  0
   -5.7790   19.8368  -34.7873 H   0  0  0  0  0  0  0  0  0  0  0  0
   -4.8483   19.0874  -33.4228 H   0  0  0  0  0  0  0  0  0  0  0  0
   -7.1708   17.9247  -35.0103 H   0  0  0  0  0  0  0  0  0  0  0  0
   -5.5153   17.2519  -34.7411 H   0  0  0  0  0  0  0  0  0  0  0  0
   -7.2526   16.0738  -33.4121 H   0  0  0  0  0  0  0  0  0  0  0  0
   -6.3348   13.8499  -33.5471 H   0  0  0  0  0  0  0  0  0  0  0  0
   -6.1385   15.3399  -34.5310 H   0  0  0  0  0  0  0  0  0  0  0  0
   -4.8508   14.0874  -34.5310 H   0  0  0  0  0  0  0  0  0  0  0  0
   -8.9494   17.3262  -32.5955 H   0  0  0  0  0  0  0  0  0  0  0  0
   -7.7754   17.7496  -31.2578 H   0  0  0  0  0  0  0  0  0  0  0  0
   -8.6563   19.4016  -33.6306 H   0  0  0  0  0  0  0  0  0  0  0  0
   -8.5605   19.8323  -31.8792 H   0  0  0  0  0  0  0  0  0  0  0  0
   -3.6939   23.1677  -32.1171 H   0  0  0  0  0  0  0  0  0  0  0  0
   -2.5454   25.6176  -29.1069 H   0  0  0  0  0  0  0  0  0  0  0  0
   -2.4873   25.1468  -27.3435 H   0  0  0  0  0  0  0  0  0  0  0  0
   -0.6975   24.2089  -29.0934 H   0  0  0  0  0  0  0  0  0  0  0  0
   -1.3364   23.2041  -27.7445 H   0  0  0  0  0  0  0  0  0  0  0  0
  1  2  1  0
  2  3  1  0
  3  4  1  0
  4  5  1  0
  5  6  1  0
  6  7  2  0
  6  8  2  0
  6  9  1  0
  9 10  2  0
 10 11  1  0
 11 12  2  0
 12 13  1  0
 13 14  1  0
 14 15  1  0
 15 16  1  0
 16 17  1  0
 17 18  1  0
 18 19  1  0
 18 20  2  0
 18 21  2  0
 16 22  1  0
 22 23  1  0
 12 24  1  0
 24 25  2  0
  5 26  1  0
 26 27  1  0
 27  2  1  0
 25  9  1  0
 23 13  1  0
  1 28  1  0
  1 29  1  0
  1 30  1  0
  3 31  1  0
  3 32  1  0
  4 33  1  0
  4 34  1  0
 10 35  1  0
 11 36  1  0
 14 37  1  0
 14 38  1  0
 15 39  1  0
 15 40  1  0
 16 41  1  0
 19 42  1  0
 19 43  1  0
 19 44  1  0
 22 45  1  0
 22 46  1  0
 23 47  1  0
 23 48  1  0
 25 49  1  0
 26 50  1  0
 26 51  1  0
 27 52  1  0
 27 53  1  0
M  CHG  1  17  -1
M  END
>  <UniqueID>  (37) 
35

>  <SMILES>  (37) 
CN1CCN(S(=O)(=O)c2ccc(N3CCC([N-]S(C)(=O)=O)CC3)nc2)CC1

>  <Energy>  (37) 
63.170571590149166

>  <Genealogy>  (37) 
CN1CCN(S(=O)(=O)c2ccc(N3CCC([N-]S(C)(=O)=O)CC3)nc2)CC1 (protonated)
CN1CCN(S(=O)(=O)c2ccc(N3CCC([N-]S(C)(=O)=O)CC3)nc2)CC1 (3D coordinates assigned)
CN1CCN(S(=O)(=O)c2ccc(N3CCC([N-]S(C)(=O)=O)CC3)nc2)CC1 (nonaromatic ring conformer: 63.170571590149166 kcal/mol)

>  <smiles>  (37) 
CN1CCN(S(=O)(=O)c2ccc(N3CCC(NS(C)(=O)=O)CC3)nc2)CC1

>  <score_type>  (37) 
oracle

>  <origin>  (37) 
adgpu

>  <m_score__min__energy>  (37) 
-9.7899999999999991

>  <m_primary>  (37) 
energy

$$$$
37:0
     RDKit          3D

 47 49  0  0  0  0  0  0  0  0999 V2000
    0.1390   18.3320  -27.8920 C   0  0  0  0  0  0  0  0  0  0  0  0
   -0.9940   19.3080  -28.0030 C   0  0  0  0  0  0  0  0  0  0  0  0
   -2.0420   19.2850  -27.0700 C   0  0  0  0  0  0  0  0  0  0  0  0
   -3.0810   20.2160  -27.1550 C   0  0  0  0  0  0  0  0  0  0  0  0
   -3.0740   21.1850  -28.1630 C   0  0  0  0  0  0  0  0  0  0  0  0
   -2.0210   21.2320  -29.0860 C   0  0  0  0  0  0  0  0  0  0  0  0
   -1.9970   22.4410  -30.3640 S   0  0  0  0  0  0  0  0  0  0  0  0
   -0.9480   23.4830  -30.0920 O   0  0  0  0  0  0  0  0  0  0  0  0
   -1.6690   21.7700  -31.6690 O   0  0  0  0  0  0  0  0  0  0  0  0
   -3.5790   23.2160  -30.4470 C   0  0  0  0  0  0  0  0  0  0  0  0
   -4.6980   22.4850  -30.8760 C   0  0  0  0  0  0  0  0  0  0  0  0
   -5.9610   23.0880  -30.9280 C   0  0  0  0  0  0  0  0  0  0  0  0
   -7.3480   22.1530  -31.4880 S   0  0  0  0  0  0  0  0  0  0  0  0
   -8.2530   23.0210  -32.3190 O   0  0  0  0  0  0  0  0  0  0  0  0
   -8.1150   21.6710  -30.2880 O   0  0  0  0  0  0  0  0  0  0  0  0
   -6.8000   20.7890  -32.4330 N   0  0  0  0  0  0  0  0  0  0  0  0
   -5.9520   19.9110  -31.5900 C   0  0  0  0  0  0  0  0  0  0  0  0
   -5.8360   18.5010  -32.1810 C   0  0  0  0  0  0  0  0  0  0  0  0
   -7.2140   17.8170  -32.2480 C   0  0  0  0  0  0  0  0  0  0  0  0
   -8.3740   18.8220  -32.3340 C   0  0  0  0  0  0  0  0  0  0  0  0
   -7.9490   20.0950  -33.0790 C   0  0  0  0  0  0  0  0  0  0  0  0
   -6.1070   24.4290  -30.5500 C   0  0  0  0  0  0  0  0  0  0  0  0
   -4.9980   25.1590  -30.1150 C   0  0  0  0  0  0  0  0  0  0  0  0
   -3.7370   24.5580  -30.0580 C   0  0  0  0  0  0  0  0  0  0  0  0
   -2.6490   25.2980  -29.6100 O   0  0  0  0  0  0  0  0  0  0  0  0
   -0.9810   20.2950  -29.0010 C   0  0  0  0  0  0  0  0  0  0  0  0
    0.3579   18.1435  -26.8306 H   0  0  0  0  0  0  0  0  0  0  0  0
   -0.1411   17.3878  -28.3820 H   0  0  0  0  0  0  0  0  0  0  0  0
    1.0313   18.7488  -28.3820 H   0  0  0  0  0  0  0  0  0  0  0  0
   -2.0458   18.5314  -26.2687 H   0  0  0  0  0  0  0  0  0  0  0  0
   -3.9057   20.1863  -26.4276 H   0  0  0  0  0  0  0  0  0  0  0  0
   -3.8968   21.9118  -28.2315 H   0  0  0  0  0  0  0  0  0  0  0  0
   -4.5822   21.4322  -31.1731 H   0  0  0  0  0  0  0  0  0  0  0  0
   -6.1950   21.1800  -33.1930 H   0  0  0  0  0  0  0  0  0  0  0  0
   -4.9464   20.3506  -31.5157 H   0  0  0  0  0  0  0  0  0  0  0  0
   -6.4202   19.8305  -30.5979 H   0  0  0  0  0  0  0  0  0  0  0  0
   -5.4184   18.5695  -33.1963 H   0  0  0  0  0  0  0  0  0  0  0  0
   -5.1781   17.9023  -31.5340 H   0  0  0  0  0  0  0  0  0  0  0  0
   -7.2426   17.1703  -33.1374 H   0  0  0  0  0  0  0  0  0  0  0  0
   -7.3432   17.2405  -31.3201 H   0  0  0  0  0  0  0  0  0  0  0  0
   -9.2141   18.3559  -32.8697 H   0  0  0  0  0  0  0  0  0  0  0  0
   -8.6726   19.0988  -31.3121 H   0  0  0  0  0  0  0  0  0  0  0  0
   -7.6620   19.8218  -34.1051 H   0  0  0  0  0  0  0  0  0  0  0  0
   -8.8037   20.7873  -33.0633 H   0  0  0  0  0  0  0  0  0  0  0  0
   -7.0962   24.9079  -30.5957 H   0  0  0  0  0  0  0  0  0  0  0  0
   -5.1175   26.2109  -29.8162 H   0  0  0  0  0  0  0  0  0  0  0  0
   -0.1501   20.3338  -29.7208 H   0  0  0  0  0  0  0  0  0  0  0  0
  1  2  1  0
  2  3  2  0
  3  4  1  0
  4  5  2  0
  5  6  1  0
  6  7  1  0
  7  8  2  0
  7  9  2  0
  7 10  1  0
 10 11  2  0
 11 12  1  0
 12 13  1  0
 13 14  2  0
 13 15  2  0
 13 16  1  0
 16 17  1  0
 17 18  1  0
 18 19  1  0
 19 20  1  0
 20 21  1  0
 12 22  2  0
 22 23  1  0
 23 24  2  0
 24 25  1  0
  6 26  2  0
 26  2  1  0
 24 10  1  0
 21 16  1  0
  1 27  1  0
  1 28  1  0
  1 29  1  0
  3 30  1  0
  4 31  1  0
  5 32  1  0
 11 33  1  0
 16 34  1  0
 17 35  1  0
 17 36  1  0
 18 37  1  0
 18 38  1  0
 19 39  1  0
 19 40  1  0
 20 41  1  0
 20 42  1  0
 21 43  1  0
 21 44  1  0
 22 45  1  0
 23 46  1  0
 26 47  1  0
M  CHG  2  16   1  25  -1
M  END
>  <UniqueID>  (38) 
36

>  <SMILES>  (38) 
Cc1cccc(S(=O)(=O)c2cc(S(=O)(=O)[NH+]3CCCCC3)ccc2[O-])c1

>  <Energy>  (38) 
54.78371783007819

>  <Genealogy>  (38) 
Cc1cccc(S(=O)(=O)c2cc(S(=O)(=O)[NH+]3CCCCC3)ccc2[O-])c1 (protonated)
Cc1cccc(S(=O)(=O)c2cc(S(=O)(=O)[NH+]3CCCCC3)ccc2[O-])c1 (3D coordinates assigned)
Cc1cccc(S(=O)(=O)c2cc(S(=O)(=O)[NH+]3CCCCC3)ccc2[O-])c1 (nonaromatic ring conformer: 54.78371783007819 kcal/mol)

>  <smiles>  (38) 
Cc1cccc(S(=O)(=O)c2cc(S(=O)(=O)N3CCCCC3)ccc2O)c1

>  <score_type>  (38) 
oracle

>  <origin>  (38) 
adgpu

>  <m_score__min__energy>  (38) 
-12.300000000000001

>  <m_primary>  (38) 
energy

$$$$
38:0
     RDKit          3D

 53 56  0  0  0  0  0  0  0  0999 V2000
   -5.6780   18.1660  -34.6140 C   0  0  0  0  0  0  0  0  0  0  0  0
   -5.4880   19.2880  -33.6410 C   0  0  0  0  0  0  0  0  0  0  0  0
   -4.3630   19.8510  -33.5780 O   0  0  0  0  0  0  0  0  0  0  0  0
   -6.5810   19.7370  -32.8160 N   0  0  0  0  0  0  0  0  0  0  0  0
   -7.7140   18.8890  -32.4300 C   0  0  0  0  0  0  0  0  0  0  0  0
   -8.6930   19.7970  -31.6520 C   0  0  0  0  0  0  0  0  0  0  0  0
   -7.9940   21.1090  -31.6240 C   0  0  0  0  0  0  0  0  0  0  0  0
   -8.4350   22.2910  -31.0300 C   0  0  0  0  0  0  0  0  0  0  0  0
   -7.6220   23.4310  -31.1170 C   0  0  0  0  0  0  0  0  0  0  0  0
   -6.3690   23.3690  -31.7770 C   0  0  0  0  0  0  0  0  0  0  0  0
   -5.5150   24.5180  -31.9020 N   0  0  0  0  0  0  0  0  0  0  0  0
   -5.0300   25.3480  -30.8410 C   0  0  0  0  0  0  0  0  0  0  0  0
   -5.8210   26.0700  -30.1790 O   0  0  0  0  0  0  0  0  0  0  0  0
   -3.6450   25.2710  -30.4840 N   0  0  0  0  0  0  0  0  0  0  0  0
   -3.0740   24.4660  -29.4400 C   0  0  0  0  0  0  0  0  0  0  0  0
   -3.7420   23.3410  -28.9280 C   0  0  0  0  0  0  0  0  0  0  0  0
   -3.1860   22.6170  -27.8740 C   0  0  0  0  0  0  0  0  0  0  0  0
   -1.9690   23.0060  -27.3160 C   0  0  0  0  0  0  0  0  0  0  0  0
   -1.2770   24.1230  -27.8150 C   0  0  0  0  0  0  0  0  0  0  0  0
    0.2540   24.6730  -27.0900 S   0  0  0  0  0  0  0  0  0  0  0  0
    0.7920   23.5680  -26.2220 O   0  0  0  0  0  0  0  0  0  0  0  0
    1.2360   24.9240  -28.2010 O   0  0  0  0  0  0  0  0  0  0  0  0
    0.1490   26.1040  -26.0870 N   0  0  0  0  0  0  0  0  0  0  0  0
   -0.7670   25.9140  -24.9510 C   0  0  0  0  0  0  0  0  0  0  0  0
   -0.7780   27.1740  -24.0520 C   0  0  0  0  0  0  0  0  0  0  0  0
   -0.2760   28.3350  -24.6980 O   0  0  0  0  0  0  0  0  0  0  0  0
   -0.7720   28.4120  -26.0180 C   0  0  0  0  0  0  0  0  0  0  0  0
   -0.1220   27.3200  -26.8790 C   0  0  0  0  0  0  0  0  0  0  0  0
   -1.8560   24.8670  -28.8660 C   0  0  0  0  0  0  0  0  0  0  0  0
   -1.2330   26.0170  -29.3410 O   0  0  0  0  0  0  0  0  0  0  0  0
   -5.9640   22.1650  -32.3810 C   0  0  0  0  0  0  0  0  0  0  0  0
   -6.8020   21.0430  -32.2940 C   0  0  0  0  0  0  0  0  0  0  0  0
   -5.8371   17.2267  -34.0640 H   0  0  0  0  0  0  0  0  0  0  0  0
   -6.5538   18.3734  -35.2464 H   0  0  0  0  0  0  0  0  0  0  0  0
   -4.7827   18.0735  -35.2464 H   0  0  0  0  0  0  0  0  0  0  0  0
   -8.2048   18.4791  -33.3251 H   0  0  0  0  0  0  0  0  0  0  0  0
   -7.3844   18.0385  -31.8151 H   0  0  0  0  0  0  0  0  0  0  0  0
   -9.6576   19.8755  -32.1748 H   0  0  0  0  0  0  0  0  0  0  0  0
   -8.9300   19.4141  -30.6484 H   0  0  0  0  0  0  0  0  0  0  0  0
   -9.4004   22.3288  -30.5041 H   0  0  0  0  0  0  0  0  0  0  0  0
   -7.9587   24.3783  -30.6706 H   0  0  0  0  0  0  0  0  0  0  0  0
   -4.7052   23.0309  -29.3593 H   0  0  0  0  0  0  0  0  0  0  0  0
   -3.7106   21.7338  -27.4805 H   0  0  0  0  0  0  0  0  0  0  0  0
   -1.5464   22.4333  -26.4773 H   0  0  0  0  0  0  0  0  0  0  0  0
   -1.7829   25.7306  -25.3310 H   0  0  0  0  0  0  0  0  0  0  0  0
   -0.4255   25.0538  -24.3565 H   0  0  0  0  0  0  0  0  0  0  0  0
   -1.8144   27.3699  -23.7397 H   0  0  0  0  0  0  0  0  0  0  0  0
   -0.1168   26.9677  -23.1974 H   0  0  0  0  0  0  0  0  0  0  0  0
   -1.8626   28.2689  -26.0078 H   0  0  0  0  0  0  0  0  0  0  0  0
   -0.5331   29.3993  -26.4401 H   0  0  0  0  0  0  0  0  0  0  0  0
   -0.8002   27.0650  -27.7067 H   0  0  0  0  0  0  0  0  0  0  0  0
    0.8341   27.7042  -27.2641 H   0  0  0  0  0  0  0  0  0  0  0  0
   -5.0038   22.1039  -32.9141 H   0  0  0  0  0  0  0  0  0  0  0  0
  1  2  1  0
  2  3  2  0
  2  4  1  0
  4  5  1  0
  5  6  1  0
  6  7  1  0
  7  8  2  0
  8  9  1  0
  9 10  2  0
 10 11  1  0
 11 12  1  0
 12 13  2  0
 12 14  1  0
 14 15  1  0
 15 16  2  0
 16 17  1  0
 17 18  2  0
 18 19  1  0
 19 20  1  0
 20 21  2  0
 20 22  2  0
 20 23  1  0
 23 24  1  0
 24 25  1  0
 25 26  1  0
 26 27  1  0
 27 28  1  0
 19 29  2  0
 29 30  1  0
 10 31  1  0
 31 32  2  0
 32  4  1  0
 32  7  1  0
 29 15  1  0
 28 23  1  0
  1 33  1  0
  1 34  1  0
  1 35  1  0
  5 36  1  0
  5 37  1  0
  6 38  1  0
  6 39  1  0
  8 40  1  0
  9 41  1  0
 16 42  1  0
 17 43  1  0
 18 44  1  0
 24 45  1  0
 24 46  1  0
 25 47  1  0
 25 48  1  0
 27 49  1  0
 27 50  1  0
 28 51  1  0
 28 52  1  0
 31 53  1  0
M  CHG  3  11  -1  14  -1  30  -1
M  END
>  <UniqueID>  (39) 
37

>  <SMILES>  (39) 
CC(=O)N1CCc2ccc([N-]C(=O)[N-]c3cccc(S(=O)(=O)N4CCOCC4)c3[O-])cc21

>  <Energy>  (39) 
91.41904623239591

>  <Genealogy>  (39) 
CC(=O)N1CCc2ccc([N-]C(=O)[N-]c3cccc(S(=O)(=O)N4CCOCC4)c3[O-])cc21 (protonated)
CC(=O)N1CCc2ccc([N-]C(=O)[N-]c3cccc(S(=O)(=O)N4CCOCC4)c3[O-])cc21 (3D coordinates assigned)
CC(=O)N1CCc2ccc([N-]C(=O)[N-]c3cccc(S(=O)(=O)N4CCOCC4)c3[O-])cc21 (nonaromatic ring conformer: 91.41904623239591 kcal/mol)

>  <smiles>  (39) 
CC(=O)N1CCc2ccc(NC(=O)Nc3cccc(S(=O)(=O)N4CCOCC4)c3O)cc21

>  <score_type>  (39) 
oracle

>  <origin>  (39) 
adgpu

>  <m_score__min__energy>  (39) 
-16.489999999999998

>  <m_primary>  (39) 
energy

$$$$
39:0
     RDKit          3D

 83 88  0  0  0  0  0  0  0  0999 V2000
   -7.0350   17.5850  -32.8370 C   0  0  0  0  0  0  0  0  0  0  0  0
   -7.4510   19.0030  -32.5220 C   0  0  0  0  0  0  0  0  0  0  0  0
   -8.5930   19.1940  -31.7150 C   0  0  0  0  0  0  0  0  0  0  0  0
   -9.2820   18.1320  -31.2220 F   0  0  0  0  0  0  0  0  0  0  0  0
   -9.0440   20.4790  -31.4130 C   0  0  0  0  0  0  0  0  0  0  0  0
   -8.3660   21.5920  -31.8990 C   0  0  0  0  0  0  0  0  0  0  0  0
   -7.2210   21.4270  -32.6740 C   0  0  0  0  0  0  0  0  0  0  0  0
   -6.7220   20.1440  -32.9740 C   0  0  0  0  0  0  0  0  0  0  0  0
   -5.4400   20.0600  -33.7980 C   0  0  0  0  0  0  0  0  0  0  0  0
   -4.2150   20.4950  -33.0840 N   0  0  0  0  0  0  0  0  0  0  0  0
   -4.3490   21.8210  -32.4650 C   0  0  0  0  0  0  0  0  0  0  0  0
   -3.2170   22.0440  -31.4520 C   0  0  0  0  0  0  0  0  0  0  0  0
   -2.0710   21.1610  -31.7170 N   0  0  0  0  0  0  0  0  0  0  0  0
   -1.2420   20.7010  -30.6320 C   0  0  0  0  0  0  0  0  0  0  0  0
   -0.8420   19.3980  -30.6100 N   0  0  0  0  0  0  0  0  0  0  0  0
   -0.0930   18.8990  -29.5940 C   0  0  0  0  0  0  0  0  0  0  0  0
    0.2950   17.5550  -29.5890 C   0  0  0  0  0  0  0  0  0  0  0  0
    1.0610   17.0440  -28.5260 C   0  0  0  0  0  0  0  0  0  0  0  0
    1.4260   15.6520  -28.4940 N   0  0  0  0  0  0  0  0  0  0  0  0
    1.4940   14.9030  -29.7570 C   0  0  0  0  0  0  0  0  0  0  0  0
    1.7450   13.4200  -29.5040 C   0  0  0  0  0  0  0  0  0  0  0  0
    0.9890   13.0060  -28.3880 O   0  0  0  0  0  0  0  0  0  0  0  0
    1.5920   13.4970  -27.2050 C   0  0  0  0  0  0  0  0  0  0  0  0
    1.8110   15.0290  -27.2150 C   0  0  0  0  0  0  0  0  0  0  0  0
    1.4320   17.8980  -27.4720 C   0  0  0  0  0  0  0  0  0  0  0  0
    1.0490   19.2430  -27.4800 C   0  0  0  0  0  0  0  0  0  0  0  0
    0.2870   19.7450  -28.5380 C   0  0  0  0  0  0  0  0  0  0  0  0
   -0.0970   21.0480  -28.5610 N   0  0  0  0  0  0  0  0  0  0  0  0
   -0.8530   21.5530  -29.5770 C   0  0  0  0  0  0  0  0  0  0  0  0
   -1.1590   22.8180  -29.6160 N   0  0  0  0  0  0  0  0  0  0  0  0
   -0.8850   23.8040  -28.6070 C   0  0  0  0  0  0  0  0  0  0  0  0
    0.4400   24.1300  -28.2620 C   0  0  0  0  0  0  0  0  0  0  0  0
    0.7010   25.0440  -27.2390 C   0  0  0  0  0  0  0  0  0  0  0  0
   -0.3550   25.6340  -26.5440 C   0  0  0  0  0  0  0  0  0  0  0  0
   -1.6730   25.3030  -26.8630 C   0  0  0  0  0  0  0  0  0  0  0  0
   -1.9510   24.3760  -27.8790 C   0  0  0  0  0  0  0  0  0  0  0  0
   -3.6420   24.0150  -28.2630 S   0  0  0  0  0  0  0  0  0  0  0  0
   -3.8230   22.5230  -28.2720 O   0  0  0  0  0  0  0  0  0  0  0  0
   -4.5670   24.6110  -27.2440 O   0  0  0  0  0  0  0  0  0  0  0  0
   -4.0520   24.6410  -29.8340 N   0  0  0  0  0  0  0  0  0  0  0  0
   -5.4920   24.5410  -30.0950 C   0  0  0  0  0  0  0  0  0  0  0  0
   -5.7470   24.5380  -31.6060 C   0  0  0  0  0  0  0  0  0  0  0  0
   -6.1940   25.7340  -29.4470 C   0  0  0  0  0  0  0  0  0  0  0  0
   -1.7360   20.7740  -33.0930 C   0  0  0  0  0  0  0  0  0  0  0  0
   -2.9960   20.4260  -33.9130 C   0  0  0  0  0  0  0  0  0  0  0  0
   -6.8732   17.0334  -31.8991 H   0  0  0  0  0  0  0  0  0  0  0  0
   -7.8263   17.0918  -33.4206 H   0  0  0  0  0  0  0  0  0  0  0  0
   -6.1027   17.5975  -33.4206 H   0  0  0  0  0  0  0  0  0  0  0  0
   -9.9393   20.6126  -30.7881 H   0  0  0  0  0  0  0  0  0  0  0  0
   -8.7345   22.6030  -31.6710 H   0  0  0  0  0  0  0  0  0  0  0  0
   -6.6967   22.3141  -33.0589 H   0  0  0  0  0  0  0  0  0  0  0  0
   -5.3014   19.0145  -34.1106 H   0  0  0  0  0  0  0  0  0  0  0  0
   -5.5685   20.7511  -34.6441 H   0  0  0  0  0  0  0  0  0  0  0  0
   -4.2971   22.5944  -33.2455 H   0  0  0  0  0  0  0  0  0  0  0  0
   -5.3163   21.8807  -31.9447 H   0  0  0  0  0  0  0  0  0  0  0  0
   -2.8833   23.0903  -31.5143 H   0  0  0  0  0  0  0  0  0  0  0  0
   -3.6035   21.8138  -30.4482 H   0  0  0  0  0  0  0  0  0  0  0  0
    0.0001   16.8960  -30.4189 H   0  0  0  0  0  0  0  0  0  0  0  0
    0.5418   15.0193  -30.2952 H   0  0  0  0  0  0  0  0  0  0  0  0
    2.3274   15.3011  -30.3545 H   0  0  0  0  0  0  0  0  0  0  0  0
    1.4436   12.8396  -30.3885 H   0  0  0  0  0  0  0  0  0  0  0  0
    2.8146   13.2542  -29.3081 H   0  0  0  0  0  0  0  0  0  0  0  0
    0.9445   13.2432  -26.3527 H   0  0  0  0  0  0  0  0  0  0  0  0
    2.5842   13.0283  -27.1285 H   0  0  0  0  0  0  0  0  0  0  0  0
    1.2079   15.4756  -26.4108 H   0  0  0  0  0  0  0  0  0  0  0  0
    2.8858   15.2112  -27.0678 H   0  0  0  0  0  0  0  0  0  0  0  0
    2.0279   17.5051  -26.6350 H   0  0  0  0  0  0  0  0  0  0  0  0
    1.3475   19.9052  -26.6539 H   0  0  0  0  0  0  0  0  0  0  0  0
    1.2759   23.6615  -28.8021 H   0  0  0  0  0  0  0  0  0  0  0  0
    1.7395   25.2988  -26.9811 H   0  0  0  0  0  0  0  0  0  0  0  0
   -0.1489   26.3605  -25.7442 H   0  0  0  0  0  0  0  0  0  0  0  0
   -2.5014   25.7732  -26.3128 H   0  0  0  0  0  0  0  0  0  0  0  0
   -5.8853   23.6055  -29.6706 H   0  0  0  0  0  0  0  0  0  0  0  0
   -6.8306   24.5253  -31.7950 H   0  0  0  0  0  0  0  0  0  0  0  0
   -5.3073   25.4414  -32.0539 H   0  0  0  0  0  0  0  0  0  0  0  0
   -5.2862   23.6452  -32.0539 H   0  0  0  0  0  0  0  0  0  0  0  0
   -6.1394   25.6412  -28.3523 H   0  0  0  0  0  0  0  0  0  0  0  0
   -5.6998   26.6652  -29.7612 H   0  0  0  0  0  0  0  0  0  0  0  0
   -7.2480   25.7542  -29.7612 H   0  0  0  0  0  0  0  0  0  0  0  0
   -1.2133   21.6100  -33.5808 H   0  0  0  0  0  0  0  0  0  0  0  0
   -1.0975   19.8793  -33.0508 H   0  0  0  0  0  0  0  0  0  0  0  0
   -3.0889   21.1386  -34.7458 H   0  0  0  0  0  0  0  0  0  0  0  0
   -2.8910   19.3975  -34.2886 H   0  0  0  0  0  0  0  0  0  0  0  0
  1  2  1  0
  2  3  2  0
  3  4  1  0
  3  5  1  0
  5  6  2  0
  6  7  1  0
  7  8  2  0
  8  9  1  0
  9 10  1  0
 10 11  1  0
 11 12  1  0
 12 13  1  0
 13 14  1  0
 14 15  2  0
 15 16  1  0
 16 17  2  0
 17 18  1  0
 18 19  1  0
 19 20  1  0
 20 21  1  0
 21 22  1  0
 22 23  1  0
 23 24  1  0
 18 25  2  0
 25 26  1  0
 26 27  2  0
 27 28  1  0
 28 29  1  0
 29 30  2  3
 30 31  1  0
 31 32  2  0
 32 33  1  0
 33 34  2  0
 34 35  1  0
 35 36  2  0
 36 37  1  0
 37 38  2  0
 37 39  2  0
 37 40  1  0
 40 41  1  0
 41 42  1  0
 41 43  1  0
 13 44  1  0
 44 45  1  0
  8  2  1  0
 45 10  1  0
 29 14  1  0
 36 31  1  0
 27 16  1  0
 24 19  1  0
  1 46  1  0
  1 47  1  0
  1 48  1  0
  5 49  1  0
  6 50  1  0
  7 51  1  0
  9 52  1  0
  9 53  1  0
 11 54  1  0
 11 55  1  0
 12 56  1  0
 12 57  1  0
 17 58  1  0
 20 59  1  0
 20 60  1  0
 21 61  1  0
 21 62  1  0
 23 63  1  0
 23 64  1  0
 24 65  1  0
 24 66  1  0
 25 67  1  0
 26 68  1  0
 32 69  1  0
 33 70  1  0
 34 71  1  0
 35 72  1  0
 41 73  1  0
 42 74  1  0
 42 75  1  0
 42 76  1  0
 43 77  1  0
 43 78  1  0
 43 79  1  0
 44 80  1  0
 44 81  1  0
 45 82  1  0
 45 83  1  0
M  CHG  2  28  -1  40  -1
M  END
>  <UniqueID>  (40) 
38

>  <SMILES>  (40) 
Cc1c(F)cccc1CN1CCN(c2nc3cc(N4CCOCC4)ccc3[n-]c2=Nc2ccccc2S(=O)(=O)[N-]C(C)C)CC1

>  <Energy>  (40) 
123.22620715419525

>  <Genealogy>  (40) 
Cc1c(F)cccc1CN1CCN(c2nc3cc(N4CCOCC4)ccc3[n-]c2=Nc2ccccc2S(=O)(=O)[N-]C(C)C)CC1 (protonated)
Cc1c(F)cccc1CN1CCN(c2nc3cc(N4CCOCC4)ccc3[n-]c2=Nc2ccccc2S(=O)(=O)[N-]C(C)C)CC1 (3D coordinates assigned)
Cc1c(F)cccc1CN1CCN(c2nc3cc(N4CCOCC4)ccc3[n-]c2=Nc2ccccc2S(=O)(=O)[N-]C(C)C)CC1 (nonaromatic ring conformer: 123.22620715419525 kcal/mol)

>  <smiles>  (40) 
Cc1c(F)cccc1CN1CCN(c2nc3cc(N4CCOCC4)ccc3[nH]c2=Nc2ccccc2S(=O)(=O)NC(C)C)CC1

>  <score_type>  (40) 
oracle

>  <origin>  (40) 
adgpu

>  <m_score__min__energy>  (40) 
-11.81

>  <m_primary>  (40) 
energy

$$$$
40:0
     RDKit          3D

 57 59  0  0  0  0  0  0  0  0999 V2000
   -0.8830   20.0010  -28.9140 C   0  0  0  0  0  0  0  0  0  0  0  0
   -1.6730   21.1160  -28.3690 N   0  0  0  0  0  0  0  0  0  0  0  0
   -2.7900   20.5830  -27.5690 C   0  0  0  0  0  0  0  0  0  0  0  0
   -2.1680   21.9850  -29.4600 C   0  0  0  0  0  0  0  0  0  0  0  0
   -3.6230   21.6430  -29.8250 C   0  0  0  0  0  0  0  0  0  0  0  0
   -4.4590   22.8930  -30.0040 C   0  0  0  0  0  0  0  0  0  0  0  0
   -4.6250   23.7510  -28.8990 C   0  0  0  0  0  0  0  0  0  0  0  0
   -5.3730   24.9230  -29.0120 C   0  0  0  0  0  0  0  0  0  0  0  0
   -5.9810   25.2500  -30.2210 C   0  0  0  0  0  0  0  0  0  0  0  0
   -5.8390   24.4070  -31.3230 C   0  0  0  0  0  0  0  0  0  0  0  0
   -5.0700   23.2370  -31.2380 C   0  0  0  0  0  0  0  0  0  0  0  0
   -5.0180   22.1740  -32.6970 S   0  0  0  0  0  0  0  0  0  0  0  0
   -6.5310   21.2720  -32.3260 C   0  0  0  0  0  0  0  0  0  0  0  0
   -7.3800   21.7620  -31.3250 C   0  0  0  0  0  0  0  0  0  0  0  0
   -8.5770   21.1080  -31.0300 C   0  0  0  0  0  0  0  0  0  0  0  0
   -8.9440   19.9700  -31.7480 C   0  0  0  0  0  0  0  0  0  0  0  0
   -8.1190   19.4850  -32.7650 C   0  0  0  0  0  0  0  0  0  0  0  0
   -6.9040   20.1340  -33.0660 C   0  0  0  0  0  0  0  0  0  0  0  0
   -6.0480   19.6730  -34.0770 O   0  0  0  0  0  0  0  0  0  0  0  0
   -5.5630   18.3390  -34.1870 C   0  0  0  0  0  0  0  0  0  0  0  0
   -4.0650   18.3630  -34.1290 C   0  0  0  0  0  0  0  0  0  0  0  0
   -3.3240   17.2630  -34.5880 C   0  0  0  0  0  0  0  0  0  0  0  0
   -1.9270   17.3110  -34.5950 C   0  0  0  0  0  0  0  0  0  0  0  0
   -1.2610   18.4600  -34.1600 C   0  0  0  0  0  0  0  0  0  0  0  0
   -1.9900   19.5710  -33.7150 C   0  0  0  0  0  0  0  0  0  0  0  0
   -1.1370   21.0150  -33.1790 S   0  0  0  0  0  0  0  0  0  0  0  0
    0.1790   20.5510  -32.0750 C   0  0  0  0  0  0  0  0  0  0  0  0
   -2.0760   21.9390  -32.4550 O   0  0  0  0  0  0  0  0  0  0  0  0
   -0.5710   21.7320  -34.3720 O   0  0  0  0  0  0  0  0  0  0  0  0
   -3.3920   19.5210  -33.7040 C   0  0  0  0  0  0  0  0  0  0  0  0
   -0.4640   19.4096  -28.0865 H   0  0  0  0  0  0  0  0  0  0  0  0
   -1.5300   19.3606  -29.5315 H   0  0  0  0  0  0  0  0  0  0  0  0
   -0.0643   20.3991  -29.5315 H   0  0  0  0  0  0  0  0  0  0  0  0
   -2.5598   20.6928  -26.4990 H   0  0  0  0  0  0  0  0  0  0  0  0
   -3.7088   21.1397  -27.8054 H   0  0  0  0  0  0  0  0  0  0  0  0
   -2.9352   19.5186  -27.8054 H   0  0  0  0  0  0  0  0  0  0  0  0
   -2.1166   23.0345  -29.1345 H   0  0  0  0  0  0  0  0  0  0  0  0
   -1.5384   21.8237  -30.3475 H   0  0  0  0  0  0  0  0  0  0  0  0
   -3.6307   21.0703  -30.7642 H   0  0  0  0  0  0  0  0  0  0  0  0
   -4.0554   21.0534  -29.0032 H   0  0  0  0  0  0  0  0  0  0  0  0
   -4.1595   23.4938  -27.9361 H   0  0  0  0  0  0  0  0  0  0  0  0
   -5.4827   25.5901  -28.1443 H   0  0  0  0  0  0  0  0  0  0  0  0
   -6.5732   26.1730  -30.3071 H   0  0  0  0  0  0  0  0  0  0  0  0
   -6.3361   24.6628  -32.2703 H   0  0  0  0  0  0  0  0  0  0  0  0
   -7.1011   22.6685  -30.7678 H   0  0  0  0  0  0  0  0  0  0  0  0
   -9.2306   21.4897  -30.2318 H   0  0  0  0  0  0  0  0  0  0  0  0
   -9.8860   19.4530  -31.5125 H   0  0  0  0  0  0  0  0  0  0  0  0
   -8.4184   18.5925  -33.3339 H   0  0  0  0  0  0  0  0  0  0  0  0
   -5.9554   17.7333  -33.3568 H   0  0  0  0  0  0  0  0  0  0  0  0
   -5.8931   17.8988  -35.1395 H   0  0  0  0  0  0  0  0  0  0  0  0
   -3.8438   16.3609  -34.9431 H   0  0  0  0  0  0  0  0  0  0  0  0
   -1.3502   16.4418  -34.9439 H   0  0  0  0  0  0  0  0  0  0  0  0
   -0.1615   18.4924  -34.1669 H   0  0  0  0  0  0  0  0  0  0  0  0
   -0.1567   20.6694  -31.0342 H   0  0  0  0  0  0  0  0  0  0  0  0
    0.4550   19.5014  -32.2542 H   0  0  0  0  0  0  0  0  0  0  0  0
    1.0523   21.1954  -32.2542 H   0  0  0  0  0  0  0  0  0  0  0  0
   -3.9677   20.3932  -33.3607 H   0  0  0  0  0  0  0  0  0  0  0  0
  1  2  1  0
  2  3  1  0
  2  4  1  0
  4  5  1  0
  5  6  1  0
  6  7  2  0
  7  8  1  0
  8  9  2  0
  9 10  1  0
 10 11  2  0
 11 12  1  0
 12 13  1  0
 13 14  2  0
 14 15  1  0
 15 16  2  0
 16 17  1  0
 17 18  2  0
 18 19  1  0
 19 20  1  0
 20 21  1  0
 21 22  2  0
 22 23  1  0
 23 24  2  0
 24 25  1  0
 25 26  1  0
 26 27  1  0
 26 28  2  0
 26 29  2  0
 25 30  2  0
 11  6  1  0
 18 13  1  0
 30 21  1  0
  1 31  1  0
  1 32  1  0
  1 33  1  0
  3 34  1  0
  3 35  1  0
  3 36  1  0
  4 37  1  0
  4 38  1  0
  5 39  1  0
  5 40  1  0
  7 41  1  0
  8 42  1  0
  9 43  1  0
 10 44  1  0
 14 45  1  0
 15 46  1  0
 16 47  1  0
 17 48  1  0
 20 49  1  0
 20 50  1  0
 22 51  1  0
 23 52  1  0
 24 53  1  0
 27 54  1  0
 27 55  1  0
 27 56  1  0
 30 57  1  0
M  END
>  <UniqueID>  (41) 
39

>  <SMILES>  (41) 
CN(C)CCc1ccccc1Sc1ccccc1OCc1cccc(S(C)(=O)=O)c1

>  <Energy>  (41) 
49.73341130476426

>  <Genealogy>  (41) 
CN(C)CCc1ccccc1Sc1ccccc1OCc1cccc(S(C)(=O)=O)c1 (3D coordinates assigned)
CN(C)CCc1ccccc1Sc1ccccc1OCc1cccc(S(C)(=O)=O)c1 (optimized conformer: 49.73341130476426 kcal/mol)

>  <smiles>  (41) 
CN(C)CCc1ccccc1Sc1ccccc1OCc1cccc(S(C)(=O)=O)c1

>  <score_type>  (41) 
oracle

>  <origin>  (41) 
adgpu

>  <m_score__min__energy>  (41) 
-9.9600000000000009

>  <m_primary>  (41) 
energy

$$$$
41:0
     RDKit          3D

 47 49  0  0  0  0  0  0  0  0999 V2000
   -1.3900   21.5370  -31.6910 C   0  0  0  0  0  0  0  0  0  0  0  0
   -0.0350   21.1910  -31.4260 O   0  0  0  0  0  0  0  0  0  0  0  0
    0.3820   19.8680  -31.2470 C   0  0  0  0  0  0  0  0  0  0  0  0
    0.9480   19.2520  -32.1900 O   0  0  0  0  0  0  0  0  0  0  0  0
    0.1530   19.1900  -29.9500 C   0  0  0  0  0  0  0  0  0  0  0  0
    0.9030   18.0560  -29.5880 C   0  0  0  0  0  0  0  0  0  0  0  0
    0.6980   17.4360  -28.3510 C   0  0  0  0  0  0  0  0  0  0  0  0
   -0.2650   17.9300  -27.4700 C   0  0  0  0  0  0  0  0  0  0  0  0
   -1.0270   19.0510  -27.8200 C   0  0  0  0  0  0  0  0  0  0  0  0
   -2.2600   19.6510  -26.7150 S   0  0  0  0  0  0  0  0  0  0  0  0
   -1.6220   20.3290  -25.5360 O   0  0  0  0  0  0  0  0  0  0  0  0
   -3.0850   18.4950  -26.2260 O   0  0  0  0  0  0  0  0  0  0  0  0
   -3.3000   20.7800  -27.5260 N   0  0  0  0  0  0  0  0  0  0  0  0
   -2.9130   22.0830  -27.9830 C   0  0  0  0  0  0  0  0  0  0  0  0
   -1.6230   22.5400  -27.6890 C   0  0  0  0  0  0  0  0  0  0  0  0
   -1.1970   23.7950  -28.1300 C   0  0  0  0  0  0  0  0  0  0  0  0
   -2.0520   24.6020  -28.8850 C   0  0  0  0  0  0  0  0  0  0  0  0
   -1.6100   25.8410  -29.3320 O   0  0  0  0  0  0  0  0  0  0  0  0
   -3.3470   24.1560  -29.1880 C   0  0  0  0  0  0  0  0  0  0  0  0
   -4.4400   25.1540  -30.2040 S   0  0  0  0  0  0  0  0  0  0  0  0
   -5.1090   23.7290  -31.0530 C   0  0  0  0  0  0  0  0  0  0  0  0
   -4.3140   22.9960  -31.8730 N   0  0  0  0  0  0  0  0  0  0  0  0
   -4.7920   21.9080  -32.5270 C   0  0  0  0  0  0  0  0  0  0  0  0
   -4.0190   21.2590  -33.2800 O   0  0  0  0  0  0  0  0  0  0  0  0
   -6.1340   21.5180  -32.3580 C   0  0  0  0  0  0  0  0  0  0  0  0
   -6.7050   20.3320  -33.0980 C   0  0  0  0  0  0  0  0  0  0  0  0
   -6.9360   22.2880  -31.4850 C   0  0  0  0  0  0  0  0  0  0  0  0
   -8.3680   21.9360  -31.2080 C   0  0  0  0  0  0  0  0  0  0  0  0
   -6.4020   23.3700  -30.8590 N   0  0  0  0  0  0  0  0  0  0  0  0
   -3.7790   22.9020  -28.7330 C   0  0  0  0  0  0  0  0  0  0  0  0
   -0.8170   19.6790  -29.0580 C   0  0  0  0  0  0  0  0  0  0  0  0
   -1.9261   21.6739  -30.7403 H   0  0  0  0  0  0  0  0  0  0  0  0
   -1.4233   22.4725  -32.2687 H   0  0  0  0  0  0  0  0  0  0  0  0
   -1.8677   20.7320  -32.2687 H   0  0  0  0  0  0  0  0  0  0  0  0
    1.6556   17.6543  -30.2824 H   0  0  0  0  0  0  0  0  0  0  0  0
    1.2973   16.5568  -28.0719 H   0  0  0  0  0  0  0  0  0  0  0  0
   -0.4255   17.4379  -26.4994 H   0  0  0  0  0  0  0  0  0  0  0  0
   -0.9392   21.9056  -27.1059 H   0  0  0  0  0  0  0  0  0  0  0  0
   -0.1855   24.1491  -27.8822 H   0  0  0  0  0  0  0  0  0  0  0  0
   -7.0641   19.5861  -32.3737 H   0  0  0  0  0  0  0  0  0  0  0  0
   -7.5427   20.6626  -33.7297 H   0  0  0  0  0  0  0  0  0  0  0  0
   -5.9242   19.8834  -33.7297 H   0  0  0  0  0  0  0  0  0  0  0  0
   -8.5320   21.8957  -30.1210 H   0  0  0  0  0  0  0  0  0  0  0  0
   -9.0253   22.6993  -31.6499 H   0  0  0  0  0  0  0  0  0  0  0  0
   -8.5965   20.9549  -31.6499 H   0  0  0  0  0  0  0  0  0  0  0  0
   -4.7979   22.5568  -28.9627 H   0  0  0  0  0  0  0  0  0  0  0  0
   -1.4159   20.5601  -29.3319 H   0  0  0  0  0  0  0  0  0  0  0  0
  1  2  1  0
  2  3  1  0
  3  4  2  0
  3  5  1  0
  5  6  2  0
  6  7  1  0
  7  8  2  0
  8  9  1  0
  9 10  1  0
 10 11  2  0
 10 12  2  0
 10 13  1  0
 13 14  1  0
 14 15  2  0
 15 16  1  0
 16 17  2  0
 17 18  1  0
 17 19  1  0
 19 20  1  0
 20 21  1  0
 21 22  2  0
 22 23  1  0
 23 24  2  0
 23 25  1  0
 25 26  1  0
 25 27  2  0
 27 28  1  0
 27 29  1  0
 19 30  2  0
  9 31  2  0
 31  5  1  0
 30 14  1  0
 29 21  1  0
  1 32  1  0
  1 33  1  0
  1 34  1  0
  6 35  1  0
  7 36  1  0
  8 37  1  0
 15 38  1  0
 16 39  1  0
 26 40  1  0
 26 41  1  0
 26 42  1  0
 28 43  1  0
 28 44  1  0
 28 45  1  0
 30 46  1  0
 31 47  1  0
M  CHG  3  13  -1  18  -1  29  -1
M  END
>  <UniqueID>  (42) 
40

>  <SMILES>  (42) 
COC(=O)c1cccc(S(=O)(=O)[N-]c2ccc([O-])c(Sc3nc(=O)c(C)c(C)[n-]3)c2)c1

>  <Energy>  (42) 
45.127758774579284

>  <Genealogy>  (42) 
COC(=O)c1cccc(S(=O)(=O)[N-]c2ccc([O-])c(Sc3nc(=O)c(C)c(C)[n-]3)c2)c1 (protonated)
COC(=O)c1cccc(S(=O)(=O)[N-]c2ccc([O-])c(Sc3nc(=O)c(C)c(C)[n-]3)c2)c1 (3D coordinates assigned)
COC(=O)c1cccc(S(=O)(=O)[N-]c2ccc([O-])c(Sc3nc(=O)c(C)c(C)[n-]3)c2)c1 (optimized conformer: 45.127758774579284 kcal/mol)

>  <smiles>  (42) 
COC(=O)c1cccc(S(=O)(=O)Nc2ccc(O)c(Sc3nc(=O)c(C)c(C)[nH]3)c2)c1

>  <score_type>  (42) 
oracle

>  <origin>  (42) 
adgpu

>  <m_score__min__energy>  (42) 
-13.51

>  <m_primary>  (42) 
energy

$$$$
42:0
     RDKit          3D

 43 46  0  0  1  0  0  0  0  0999 V2000
   -5.2040   24.9250  -28.7540 N   0  0  0  0  0  0  0  0  0  0  0  0
   -5.1100   24.7020  -30.4430 S   0  0  0  0  0  0  0  0  0  0  0  0
   -3.6740   24.4910  -30.8270 O   0  0  0  0  0  0  0  0  0  0  0  0
   -5.6340   25.8970  -31.1940 O   0  0  0  0  0  0  0  0  0  0  0  0
   -5.9900   23.2510  -30.8890 C   0  0  0  0  0  0  0  0  0  0  0  0
   -5.3990   21.9950  -30.8760 C   0  0  0  0  0  0  0  0  0  0  0  0
   -6.0910   20.8520  -31.2290 C   0  0  0  0  0  0  0  0  0  0  0  0
   -7.4350   20.9850  -31.6100 C   0  0  0  0  0  0  0  0  0  0  0  0
   -8.1630   19.8410  -31.9720 C   0  0  0  0  0  0  0  0  0  0  0  0
   -7.3150   18.2990  -31.9180 S   0  0  0  0  0  0  0  0  0  0  0  0
   -6.0430   18.1720  -33.1340 C   0  0  0  0  0  0  0  0  0  0  0  0
   -6.0620   17.3620  -34.2380 C   0  0  0  0  0  0  0  0  0  0  0  0
   -5.0080   17.3280  -35.1390 C   0  0  0  0  0  0  0  0  0  0  0  0
   -3.8880   18.1110  -34.9700 C   0  0  0  0  0  0  0  0  0  0  0  0
   -3.8550   18.9440  -33.8460 C   0  0  0  0  0  0  0  0  0  0  0  0
   -2.6610   19.7680  -33.6790 C   0  0  0  0  0  0  0  0  0  0  0  0
   -2.8800   20.9680  -33.2970 O   0  0  0  0  0  0  0  0  0  0  0  0
   -1.3430   19.2800  -33.9210 N   0  0  0  0  0  0  0  0  0  0  0  0
   -0.4720   20.1090  -34.4410 C   0  0  0  0  0  0  0  0  0  0  0  0
    0.8520   19.8500  -34.7540 C   0  0  0  0  0  0  0  0  0  0  0  0
    1.3520   21.0310  -35.2740 C   0  0  0  0  0  0  0  0  0  0  0  0
    0.3590   21.9680  -35.2710 N   0  0  0  0  0  0  0  0  0  0  0  0
   -0.7250   21.4000  -34.7700 N   0  0  0  0  0  0  0  0  0  0  0  0
   -4.9120   18.9600  -32.9640 C   0  0  0  0  0  0  0  0  0  0  0  0
   -9.4300   20.0480  -32.3200 N   0  0  0  0  0  0  0  0  0  0  0  0
  -10.0070   21.2590  -32.3350 C   0  0  0  0  0  0  0  0  0  0  0  0
   -9.2970   22.3750  -31.9810 N   0  0  0  0  0  0  0  0  0  0  0  0
   -7.9940   22.2400  -31.6140 C   0  0  0  0  0  0  0  0  0  0  0  0
   -7.3100   23.3610  -31.2660 C   0  0  0  0  0  0  0  0  0  0  0  0
   -5.9300   24.3170  -28.3500 H   0  0  0  0  0  0  0  0  0  0  0  0
   -5.4070   25.9310  -28.5640 H   0  0  0  0  0  0  0  0  0  0  0  0
   -4.3448   21.9065  -30.5747 H   0  0  0  0  0  0  0  0  0  0  0  0
   -5.6025   19.8666  -31.2118 H   0  0  0  0  0  0  0  0  0  0  0  0
   -6.9377   16.7203  -34.4152 H   0  0  0  0  0  0  0  0  0  0  0  0
   -5.0683   16.6590  -36.0101 H   0  0  0  0  0  0  0  0  0  0  0  0
   -3.0549   18.0829  -35.6878 H   0  0  0  0  0  0  0  0  0  0  0  0
    1.3937   18.9024  -34.6176 H   0  0  0  0  0  0  0  0  0  0  0  0
    2.3804   21.1888  -35.6310 H   0  0  0  0  0  0  0  0  0  0  0  0
    0.4300   22.9690  -35.6050 H   0  0  0  0  0  0  0  0  0  0  0  0
   -1.6240   21.9310  -34.6690 H   0  0  0  0  0  0  0  0  0  0  0  0
   -4.8586   19.6241  -32.0887 H   0  0  0  0  0  0  0  0  0  0  0  0
  -11.0609   21.3564  -32.6346 H   0  0  0  0  0  0  0  0  0  0  0  0
   -7.8040   24.3436  -31.2851 H   0  0  0  0  0  0  0  0  0  0  0  0
  1  2  1  0
  2  3  2  0
  2  4  2  0
  2  5  1  0
  5  6  2  0
  6  7  1  0
  7  8  2  0
  8  9  1  0
  9 10  1  0
 10 11  1  0
 11 12  2  0
 12 13  1  0
 13 14  2  0
 14 15  1  0
 15 16  1  0
 16 17  2  0
 16 18  1  0
 18 19  2  0
 19 20  1  0
 20 21  2  0
 21 22  1  0
 22 23  1  0
 15 24  2  0
  9 25  2  0
 25 26  1  0
 26 27  2  0
 27 28  1  0
 28 29  2  0
 29  5  1  0
 28  8  1  0
 24 11  1  0
 23 19  1  0
  1 30  1  0
  1 31  1  0
  6 32  1  0
  7 33  1  0
 12 34  1  0
 13 35  1  0
 14 36  1  0
 20 37  1  0
 21 38  1  0
 22 39  1  0
 23 40  1  0
 24 41  1  0
 26 42  1  0
 29 43  1  0
M  END
>  <smiles>  (43) 
NS(=O)(=O)c1ccc2c(Sc3cccc(C(=O)N=c4cc[nH][nH]4)c3)ncnc2c1

>  <score_type>  (43) 
oracle

>  <origin>  (43) 
adgpu

>  <m_score__min__energy>  (43) 
-10.76

>  <m_primary>  (43) 
energy

$$$$
43:0
     RDKit          3D

 65 68  0  0  0  0  0  0  0  0999 V2000
   -4.0040   24.9170  -30.8260 O   0  0  0  0  0  0  0  0  0  0  0  0
   -4.1330   23.6670  -30.7480 C   0  0  0  0  0  0  0  0  0  0  0  0
   -5.4570   23.1190  -30.6660 N   0  0  0  0  0  0  0  0  0  0  0  0
   -6.6740   23.6820  -31.2510 C   0  0  0  0  0  0  0  0  0  0  0  0
   -7.9330   23.0280  -30.6770 C   0  0  0  0  0  0  0  0  0  0  0  0
   -8.9110   22.2050  -31.9920 S   0  0  0  0  0  0  0  0  0  0  0  0
   -8.7260   20.4880  -31.3900 C   0  0  0  0  0  0  0  0  0  0  0  0
   -7.7400   19.7220  -32.2300 C   0  0  0  0  0  0  0  0  0  0  0  0
   -7.7580   18.3180  -32.2340 C   0  0  0  0  0  0  0  0  0  0  0  0
   -6.8620   17.6020  -33.0330 C   0  0  0  0  0  0  0  0  0  0  0  0
   -5.9400   18.2830  -33.8340 C   0  0  0  0  0  0  0  0  0  0  0  0
   -4.8180   17.3850  -34.8410 Cl  0  0  0  0  0  0  0  0  0  0  0  0
   -5.9140   19.6820  -33.8340 C   0  0  0  0  0  0  0  0  0  0  0  0
   -6.8100   20.4000  -33.0340 C   0  0  0  0  0  0  0  0  0  0  0  0
   -2.9200   22.8200  -30.7580 C   0  0  0  0  0  0  0  0  0  0  0  0
   -2.7870   21.8260  -31.7410 C   0  0  0  0  0  0  0  0  0  0  0  0
   -1.6330   21.0360  -31.8100 C   0  0  0  0  0  0  0  0  0  0  0  0
   -1.4790   19.7970  -33.0520 S   0  0  0  0  0  0  0  0  0  0  0  0
   -1.2420   18.4680  -32.3880 O   0  0  0  0  0  0  0  0  0  0  0  0
   -2.7580   19.7110  -33.8420 O   0  0  0  0  0  0  0  0  0  0  0  0
   -0.1420   20.1730  -34.1080 N   0  0  0  0  0  0  0  0  0  0  0  0
   -0.0770   19.1940  -35.2110 C   0  0  0  0  0  0  0  0  0  0  0  0
    0.8960   19.6530  -36.3180 C   0  0  0  0  0  0  0  0  0  0  0  0
    1.6860   20.7410  -35.8850 O   0  0  0  0  0  0  0  0  0  0  0  0
    0.8570   21.8620  -35.6380 C   0  0  0  0  0  0  0  0  0  0  0  0
   -0.2750   21.5430  -34.6340 C   0  0  0  0  0  0  0  0  0  0  0  0
   -0.5860   21.2620  -30.9120 C   0  0  0  0  0  0  0  0  0  0  0  0
   -0.6920   22.2650  -29.9490 C   0  0  0  0  0  0  0  0  0  0  0  0
   -1.8500   23.0500  -29.8610 C   0  0  0  0  0  0  0  0  0  0  0  0
   -1.9160   24.0730  -28.8530 N   0  0  0  0  0  0  0  0  0  0  0  0
   -0.9090   25.1350  -28.8300 C   0  0  0  0  0  0  0  0  0  0  0  0
   -0.6540   25.5720  -27.3840 C   0  0  0  0  0  0  0  0  0  0  0  0
   -1.8710   25.8770  -26.7300 O   0  0  0  0  0  0  0  0  0  0  0  0
   -2.6560   24.7050  -26.6060 C   0  0  0  0  0  0  0  0  0  0  0  0
   -3.0870   24.1880  -27.9810 C   0  0  0  0  0  0  0  0  0  0  0  0
   -6.7049   24.7611  -31.0397 H   0  0  0  0  0  0  0  0  0  0  0  0
   -6.6529   23.4929  -32.3344 H   0  0  0  0  0  0  0  0  0  0  0  0
   -7.6383   22.2791  -29.9271 H   0  0  0  0  0  0  0  0  0  0  0  0
   -8.5547   23.8115  -30.2191 H   0  0  0  0  0  0  0  0  0  0  0  0
   -8.3712   20.5087  -30.3490 H   0  0  0  0  0  0  0  0  0  0  0  0
   -9.7035   19.9878  -31.4558 H   0  0  0  0  0  0  0  0  0  0  0  0
   -8.4813   17.7785  -31.6048 H   0  0  0  0  0  0  0  0  0  0  0  0
   -6.8822   16.5022  -33.0317 H   0  0  0  0  0  0  0  0  0  0  0  0
   -5.1885   20.2180  -34.4635 H   0  0  0  0  0  0  0  0  0  0  0  0
   -6.7855   21.4997  -33.0351 H   0  0  0  0  0  0  0  0  0  0  0  0
   -3.5991   21.6661  -32.4655 H   0  0  0  0  0  0  0  0  0  0  0  0
    0.7350   20.1080  -33.5390 H   0  0  0  0  0  0  0  0  0  0  0  0
    0.2658   18.2280  -34.8118 H   0  0  0  0  0  0  0  0  0  0  0  0
   -1.0812   19.1019  -35.6505 H   0  0  0  0  0  0  0  0  0  0  0  0
    1.5559   18.8147  -36.5859 H   0  0  0  0  0  0  0  0  0  0  0  0
    0.3059   19.9757  -37.1885 H   0  0  0  0  0  0  0  0  0  0  0  0
    1.4742   22.6755  -35.2289 H   0  0  0  0  0  0  0  0  0  0  0  0
    0.3906   22.1529  -36.5908 H   0  0  0  0  0  0  0  0  0  0  0  0
   -0.2260   22.2560  -33.7978 H   0  0  0  0  0  0  0  0  0  0  0  0
   -1.2402   21.6268  -35.1550 H   0  0  0  0  0  0  0  0  0  0  0  0
    0.3243   20.6468  -30.9651 H   0  0  0  0  0  0  0  0  0  0  0  0
    0.1406   22.4418  -29.2522 H   0  0  0  0  0  0  0  0  0  0  0  0
    0.0273   24.7609  -29.2697 H   0  0  0  0  0  0  0  0  0  0  0  0
   -1.2722   25.9947  -29.4122 H   0  0  0  0  0  0  0  0  0  0  0  0
   -0.1489   24.7572  -26.8446 H   0  0  0  0  0  0  0  0  0  0  0  0
   -0.0231   26.4730  -27.3937 H   0  0  0  0  0  0  0  0  0  0  0  0
   -2.0656   23.9282  -26.0980 H   0  0  0  0  0  0  0  0  0  0  0  0
   -3.5571   24.9457  -26.0228 H   0  0  0  0  0  0  0  0  0  0  0  0
   -3.5584   23.2004  -27.8693 H   0  0  0  0  0  0  0  0  0  0  0  0
   -3.8059   24.8915  -28.4264 H   0  0  0  0  0  0  0  0  0  0  0  0
  1  2  2  0
  2  3  1  0
  3  4  1  0
  4  5  1  0
  5  6  1  0
  6  7  1  0
  7  8  1  0
  8  9  2  0
  9 10  1  0
 10 11  2  0
 11 12  1  0
 11 13  1  0
 13 14  2  0
  2 15  1  0
 15 16  2  0
 16 17  1  0
 17 18  1  0
 18 19  2  0
 18 20  2  0
 18 21  1  0
 21 22  1  0
 22 23  1  0
 23 24  1  0
 24 25  1  0
 25 26  1  0
 17 27  2  0
 27 28  1  0
 28 29  2  0
 29 30  1  0
 30 31  1  0
 31 32  1  0
 32 33  1  0
 33 34  1  0
 34 35  1  0
 14  8  1  0
 29 15  1  0
 35 30  1  0
 26 21  1  0
  4 36  1  0
  4 37  1  0
  5 38  1  0
  5 39  1  0
  7 40  1  0
  7 41  1  0
  9 42  1  0
 10 43  1  0
 13 44  1  0
 14 45  1  0
 16 46  1  0
 21 47  1  0
 22 48  1  0
 22 49  1  0
 23 50  1  0
 23 51  1  0
 25 52  1  0
 25 53  1  0
 26 54  1  0
 26 55  1  0
 27 56  1  0
 28 57  1  0
 31 58  1  0
 31 59  1  0
 32 60  1  0
 32 61  1  0
 34 62  1  0
 34 63  1  0
 35 64  1  0
 35 65  1  0
M  CHG  2   3  -1  21   1
M  END
>  <UniqueID>  (44) 
41

>  <SMILES>  (44) 
O=C([N-]CCSCc1ccc(Cl)cc1)c1cc(S(=O)(=O)[NH+]2CCOCC2)ccc1N1CCOCC1

>  <Energy>  (44) 
78.88010622075664

>  <Genealogy>  (44) 
O=C([N-]CCSCc1ccc(Cl)cc1)c1cc(S(=O)(=O)[NH+]2CCOCC2)ccc1N1CCOCC1 (protonated)
O=C([N-]CCSCc1ccc(Cl)cc1)c1cc(S(=O)(=O)[NH+]2CCOCC2)ccc1N1CCOCC1 (3D coordinates assigned)
O=C([N-]CCSCc1ccc(Cl)cc1)c1cc(S(=O)(=O)[NH+]2CCOCC2)ccc1N1CCOCC1 (nonaromatic ring conformer: 78.88010622075664 kcal/mol)

>  <smiles>  (44) 
O=C(NCCSCc1ccc(Cl)cc1)c1cc(S(=O)(=O)N2CCOCC2)ccc1N1CCOCC1

>  <score_type>  (44) 
oracle

>  <origin>  (44) 
adgpu

>  <m_score__min__energy>  (44) 
-11.630000000000001

>  <m_primary>  (44) 
energy

$$$$
44:0
     RDKit          3D

 43 45  0  0  0  0  0  0  0  0999 V2000
   -6.7250   16.5710  -33.4050 C   0  0  0  0  0  0  0  0  0  0  0  0
   -7.0210   17.9850  -33.0050 C   0  0  0  0  0  0  0  0  0  0  0  0
   -6.4750   19.0510  -33.7370 C   0  0  0  0  0  0  0  0  0  0  0  0
   -6.7770   20.3710  -33.3920 C   0  0  0  0  0  0  0  0  0  0  0  0
   -7.6530   20.6410  -32.3310 C   0  0  0  0  0  0  0  0  0  0  0  0
   -8.0070   22.0330  -32.0030 C   0  0  0  0  0  0  0  0  0  0  0  0
   -9.1090   22.2690  -31.4420 O   0  0  0  0  0  0  0  0  0  0  0  0
   -7.1230   23.1250  -32.2810 N   0  0  0  0  0  0  0  0  0  0  0  0
   -5.7220   23.5180  -31.3350 S   0  0  0  0  0  0  0  0  0  0  0  0
   -6.0540   23.3500  -29.8790 O   0  0  0  0  0  0  0  0  0  0  0  0
   -5.3530   24.9540  -31.5810 O   0  0  0  0  0  0  0  0  0  0  0  0
   -4.4000   22.4050  -31.7310 C   0  0  0  0  0  0  0  0  0  0  0  0
   -4.2510   22.0220  -33.0720 C   0  0  0  0  0  0  0  0  0  0  0  0
   -3.2140   21.1720  -33.4570 C   0  0  0  0  0  0  0  0  0  0  0  0
   -2.3270   20.6790  -32.5030 C   0  0  0  0  0  0  0  0  0  0  0  0
   -2.4670   21.0410  -31.1610 C   0  0  0  0  0  0  0  0  0  0  0  0
   -3.4880   21.9250  -30.7610 C   0  0  0  0  0  0  0  0  0  0  0  0
   -3.6540   22.2940  -29.3830 N   0  0  0  0  0  0  0  0  0  0  0  0
   -2.6340   22.4480  -28.3840 C   0  0  0  0  0  0  0  0  0  0  0  0
   -2.2830   21.4690  -27.6730 O   0  0  0  0  0  0  0  0  0  0  0  0
   -1.9880   23.7690  -28.2000 C   0  0  0  0  0  0  0  0  0  0  0  0
   -2.2850   24.8810  -29.0270 C   0  0  0  0  0  0  0  0  0  0  0  0
   -3.2690   24.8410  -30.0160 O   0  0  0  0  0  0  0  0  0  0  0  0
   -1.6150   26.0490  -28.8450 N   0  0  0  0  0  0  0  0  0  0  0  0
   -0.6800   26.1880  -27.8750 C   0  0  0  0  0  0  0  0  0  0  0  0
   -0.0810   27.2840  -27.7320 O   0  0  0  0  0  0  0  0  0  0  0  0
   -0.3930   25.1480  -27.0560 N   0  0  0  0  0  0  0  0  0  0  0  0
   -1.0180   23.9510  -27.1930 C   0  0  0  0  0  0  0  0  0  0  0  0
   -0.7010   23.0060  -26.4210 O   0  0  0  0  0  0  0  0  0  0  0  0
   -8.1950   19.5770  -31.5950 C   0  0  0  0  0  0  0  0  0  0  0  0
   -7.8860   18.2570  -31.9340 C   0  0  0  0  0  0  0  0  0  0  0  0
   -6.5959   15.9543  -32.5034 H   0  0  0  0  0  0  0  0  0  0  0  0
   -7.5600   16.1765  -34.0026 H   0  0  0  0  0  0  0  0  0  0  0  0
   -5.8019   16.5446  -34.0026 H   0  0  0  0  0  0  0  0  0  0  0  0
   -5.8063   18.8463  -34.5861 H   0  0  0  0  0  0  0  0  0  0  0  0
   -6.3258   21.2014  -33.9549 H   0  0  0  0  0  0  0  0  0  0  0  0
   -4.9584   22.3953  -33.8271 H   0  0  0  0  0  0  0  0  0  0  0  0
   -3.0968   20.8911  -34.5141 H   0  0  0  0  0  0  0  0  0  0  0  0
   -1.5143   20.0030  -32.8070 H   0  0  0  0  0  0  0  0  0  0  0  0
   -1.7742   20.6323  -30.4106 H   0  0  0  0  0  0  0  0  0  0  0  0
   -4.0720   24.2310  -29.9850 H   0  0  0  0  0  0  0  0  0  0  0  0
   -8.8658   19.7824  -30.7478 H   0  0  0  0  0  0  0  0  0  0  0  0
   -8.3228   17.4274  -31.3587 H   0  0  0  0  0  0  0  0  0  0  0  0
  1  2  1  0
  2  3  2  0
  3  4  1  0
  4  5  2  0
  5  6  1  0
  6  7  2  0
  6  8  1  0
  8  9  1  0
  9 10  2  0
  9 11  2  0
  9 12  1  0
 12 13  2  0
 13 14  1  0
 14 15  2  0
 15 16  1  0
 16 17  2  0
 17 18  1  0
 18 19  1  0
 19 20  2  0
 19 21  1  0
 21 22  2  0
 22 23  1  0
 22 24  1  0
 24 25  1  0
 25 26  2  0
 25 27  1  0
 27 28  1  0
 28 29  2  0
  5 30  1  0
 30 31  2  0
 31  2  1  0
 17 12  1  0
 28 21  1  0
  1 32  1  0
  1 33  1  0
  1 34  1  0
  3 35  1  0
  4 36  1  0
 13 37  1  0
 14 38  1  0
 15 39  1  0
 16 40  1  0
 23 41  1  0
 30 42  1  0
 31 43  1  0
M  CHG  4   8  -1  18  -1  24  -1  27  -1
M  END
>  <UniqueID>  (45) 
42

>  <SMILES>  (45) 
Cc1ccc(C(=O)[N-]S(=O)(=O)c2ccccc2[N-]C(=O)c2c(O)[n-]c(=O)[n-]c2=O)cc1

>  <Energy>  (45) 
61.7847263525941

>  <Genealogy>  (45) 
Cc1ccc(C(=O)[N-]S(=O)(=O)c2ccccc2[N-]C(=O)c2c(O)[n-]c(=O)[n-]c2=O)cc1 (protonated)
Cc1ccc(C(=O)[N-]S(=O)(=O)c2ccccc2[N-]C(=O)c2c(O)[n-]c(=O)[n-]c2=O)cc1 (3D coordinates assigned)
Cc1ccc(C(=O)[N-]S(=O)(=O)c2ccccc2[N-]C(=O)c2c(O)[n-]c(=O)[n-]c2=O)cc1 (optimized conformer: 61.7847263525941 kcal/mol)

>  <smiles>  (45) 
Cc1ccc(C(=O)NS(=O)(=O)c2ccccc2NC(=O)c2c(O)[nH]c(=O)[nH]c2=O)cc1

>  <score_type>  (45) 
oracle

>  <origin>  (45) 
adgpu

>  <m_score__min__energy>  (45) 
-11.82

>  <m_primary>  (45) 
energy

$$$$
45:0
     RDKit          3D

 50 53  0  0  0  0  0  0  0  0999 V2000
   -3.9540   18.4540  -34.0700 O   0  0  0  0  0  0  0  0  0  0  0  0
   -4.7680   19.3280  -33.6710 C   0  0  0  0  0  0  0  0  0  0  0  0
   -6.2150   19.2390  -34.0610 C   0  0  0  0  0  0  0  0  0  0  0  0
   -7.0500   19.9760  -33.1630 O   0  0  0  0  0  0  0  0  0  0  0  0
   -6.6120   21.1260  -32.4940 C   0  0  0  0  0  0  0  0  0  0  0  0
   -7.5420   22.0040  -31.9340 C   0  0  0  0  0  0  0  0  0  0  0  0
   -7.1060   23.1570  -31.2760 C   0  0  0  0  0  0  0  0  0  0  0  0
   -5.7360   23.4310  -31.1610 C   0  0  0  0  0  0  0  0  0  0  0  0
   -5.2140   24.9270  -30.3930 S   0  0  0  0  0  0  0  0  0  0  0  0
   -5.7410   25.0260  -28.9870 O   0  0  0  0  0  0  0  0  0  0  0  0
   -5.7330   26.0890  -31.1920 O   0  0  0  0  0  0  0  0  0  0  0  0
   -3.4820   24.9790  -30.3660 N   0  0  0  0  0  0  0  0  0  0  0  0
   -2.6540   24.0010  -29.7220 C   0  0  0  0  0  0  0  0  0  0  0  0
   -2.3090   24.0990  -28.3640 C   0  0  0  0  0  0  0  0  0  0  0  0
   -1.5250   23.1100  -27.7650 C   0  0  0  0  0  0  0  0  0  0  0  0
   -1.0870   22.0140  -28.5110 C   0  0  0  0  0  0  0  0  0  0  0  0
   -1.4250   21.9060  -29.8670 C   0  0  0  0  0  0  0  0  0  0  0  0
   -0.8850   20.5140  -30.8020 S   0  0  0  0  0  0  0  0  0  0  0  0
    0.0130   19.6780  -29.9320 O   0  0  0  0  0  0  0  0  0  0  0  0
   -2.0800   19.6990  -31.2100 O   0  0  0  0  0  0  0  0  0  0  0  0
   -0.0120   21.0410  -32.2250 N   0  0  0  0  0  0  0  0  0  0  0  0
   -0.9230   21.5010  -33.3050 C   0  0  0  0  0  0  0  0  0  0  0  0
   -0.7970   20.7020  -34.6120 C   0  0  0  0  0  0  0  0  0  0  0  0
   -0.7680   19.2070  -34.3140 C   0  0  0  0  0  0  0  0  0  0  0  0
    0.3860   18.8350  -33.3690 C   0  0  0  0  0  0  0  0  0  0  0  0
    0.9980   20.0490  -32.6450 C   0  0  0  0  0  0  0  0  0  0  0  0
   -2.1890   22.9140  -30.4730 C   0  0  0  0  0  0  0  0  0  0  0  0
   -4.8010   22.5340  -31.7010 C   0  0  0  0  0  0  0  0  0  0  0  0
   -5.2390   21.3840  -32.3710 C   0  0  0  0  0  0  0  0  0  0  0  0
   -4.3010   20.4470  -32.9120 N   0  0  0  0  0  0  0  0  0  0  0  0
   -6.3366   19.6454  -35.0759 H   0  0  0  0  0  0  0  0  0  0  0  0
   -6.5170   18.1820  -34.0216 H   0  0  0  0  0  0  0  0  0  0  0  0
   -8.6179   21.7881  -32.0108 H   0  0  0  0  0  0  0  0  0  0  0  0
   -7.8413   23.8531  -30.8461 H   0  0  0  0  0  0  0  0  0  0  0  0
   -2.6572   24.9571  -27.7703 H   0  0  0  0  0  0  0  0  0  0  0  0
   -1.2520   23.1949  -26.7028 H   0  0  0  0  0  0  0  0  0  0  0  0
   -0.4756   21.2340  -28.0337 H   0  0  0  0  0  0  0  0  0  0  0  0
   -1.9586   21.4135  -32.9446 H   0  0  0  0  0  0  0  0  0  0  0  0
   -0.6418   22.5386  -33.5380 H   0  0  0  0  0  0  0  0  0  0  0  0
   -1.6571   20.9268  -35.2598 H   0  0  0  0  0  0  0  0  0  0  0  0
    0.1379   20.9856  -35.1176 H   0  0  0  0  0  0  0  0  0  0  0  0
   -1.7199   18.9192  -33.8439 H   0  0  0  0  0  0  0  0  0  0  0  0
   -0.6181   18.6722  -35.2635 H   0  0  0  0  0  0  0  0  0  0  0  0
    0.0050   18.1333  -32.6124 H   0  0  0  0  0  0  0  0  0  0  0  0
    1.1806   18.3896  -33.9857 H   0  0  0  0  0  0  0  0  0  0  0  0
    1.5310   19.6919  -31.7515 H   0  0  0  0  0  0  0  0  0  0  0  0
    1.6738   20.5485  -33.3548 H   0  0  0  0  0  0  0  0  0  0  0  0
   -2.4247   22.8505  -31.5456 H   0  0  0  0  0  0  0  0  0  0  0  0
   -3.7242   22.7339  -31.5981 H   0  0  0  0  0  0  0  0  0  0  0  0
   -3.2780   20.5690  -32.7430 H   0  0  0  0  0  0  0  0  0  0  0  0
  1  2  2  0
  2  3  1  0
  3  4  1  0
  4  5  1  0
  5  6  2  0
  6  7  1  0
  7  8  2  0
  8  9  1  0
  9 10  2  0
  9 11  2  0
  9 12  1  0
 12 13  1  0
 13 14  2  0
 14 15  1  0
 15 16  2  0
 16 17  1  0
 17 18  1  0
 18 19  2  0
 18 20  2  0
 18 21  1  0
 21 22  1  0
 22 23  1  0
 23 24  1  0
 24 25  1  0
 25 26  1  0
 17 27  2  0
  8 28  1  0
 28 29  2  0
 29 30  1  0
 30  2  1  0
 29  5  1  0
 27 13  1  0
 26 21  1  0
  3 31  1  0
  3 32  1  0
  6 33  1  0
  7 34  1  0
 14 35  1  0
 15 36  1  0
 16 37  1  0
 22 38  1  0
 22 39  1  0
 23 40  1  0
 23 41  1  0
 24 42  1  0
 24 43  1  0
 25 44  1  0
 25 45  1  0
 26 46  1  0
 26 47  1  0
 27 48  1  0
 28 49  1  0
 30 50  1  0
M  CHG  1  12  -1
M  END
>  <UniqueID>  (46) 
43

>  <SMILES>  (46) 
O=C1COc2ccc(S(=O)(=O)[N-]c3cccc(S(=O)(=O)N4CCCCC4)c3)cc2N1

>  <Energy>  (46) 
64.75885684615334

>  <Genealogy>  (46) 
O=C1COc2ccc(S(=O)(=O)[N-]c3cccc(S(=O)(=O)N4CCCCC4)c3)cc2N1 (protonated)
O=C1COc2ccc(S(=O)(=O)[N-]c3cccc(S(=O)(=O)N4CCCCC4)c3)cc2N1 (3D coordinates assigned)
O=C1COc2ccc(S(=O)(=O)[N-]c3cccc(S(=O)(=O)N4CCCCC4)c3)cc2N1 (nonaromatic ring conformer: 64.75885684615334 kcal/mol)

>  <smiles>  (46) 
O=C1COc2ccc(S(=O)(=O)Nc3cccc(S(=O)(=O)N4CCCCC4)c3)cc2N1

>  <score_type>  (46) 
oracle

>  <origin>  (46) 
adgpu

>  <m_score__min__energy>  (46) 
-11.630000000000001

>  <m_primary>  (46) 
energy

$$$$
46:0
     RDKit          3D

 45 48  0  0  0  0  0  0  0  0999 V2000
    1.3380   21.5720  -27.8270 O   0  0  0  0  0  0  0  0  0  0  0  0
    0.1010   21.3980  -27.6770 C   0  0  0  0  0  0  0  0  0  0  0  0
   -0.4700   20.1990  -27.1450 N   0  0  0  0  0  0  0  0  0  0  0  0
   -1.8730   20.4700  -27.1740 C   0  0  0  0  0  0  0  0  0  0  0  0
   -2.7480   19.6480  -26.7970 O   0  0  0  0  0  0  0  0  0  0  0  0
   -2.1410   21.8000  -27.7020 C   0  0  0  0  0  0  0  0  0  0  0  0
   -3.3410   22.4760  -27.9060 C   0  0  0  0  0  0  0  0  0  0  0  0
   -3.2920   23.7810  -28.4540 C   0  0  0  0  0  0  0  0  0  0  0  0
   -4.4840   24.5500  -28.6680 N   0  0  0  0  0  0  0  0  0  0  0  0
   -5.1500   24.9150  -30.2270 S   0  0  0  0  0  0  0  0  0  0  0  0
   -4.0470   25.3510  -31.1520 O   0  0  0  0  0  0  0  0  0  0  0  0
   -6.1470   26.0300  -30.0950 O   0  0  0  0  0  0  0  0  0  0  0  0
   -5.9700   23.4850  -30.8470 C   0  0  0  0  0  0  0  0  0  0  0  0
   -7.2950   23.5910  -31.2880 C   0  0  0  0  0  0  0  0  0  0  0  0
   -7.9900   22.4540  -31.7050 C   0  0  0  0  0  0  0  0  0  0  0  0
   -7.3710   21.1970  -31.6740 C   0  0  0  0  0  0  0  0  0  0  0  0
   -8.2760   19.7500  -32.1250 S   0  0  0  0  0  0  0  0  0  0  0  0
   -8.7560   19.0560  -30.8800 O   0  0  0  0  0  0  0  0  0  0  0  0
   -9.4830   20.1510  -32.9290 O   0  0  0  0  0  0  0  0  0  0  0  0
   -7.2970   18.6480  -33.0660 N   0  0  0  0  0  0  0  0  0  0  0  0
   -6.5290   17.7530  -32.1790 C   0  0  0  0  0  0  0  0  0  0  0  0
   -5.3220   17.1600  -32.9230 C   0  0  0  0  0  0  0  0  0  0  0  0
   -4.3980   18.1350  -33.3910 O   0  0  0  0  0  0  0  0  0  0  0  0
   -4.9730   19.4180  -33.5980 C   0  0  0  0  0  0  0  0  0  0  0  0
   -6.4470   19.3660  -34.0410 C   0  0  0  0  0  0  0  0  0  0  0  0
   -6.0360   21.0950  -31.2570 C   0  0  0  0  0  0  0  0  0  0  0  0
   -5.3380   22.2350  -30.8440 C   0  0  0  0  0  0  0  0  0  0  0  0
   -2.0400   24.3500  -28.7930 C   0  0  0  0  0  0  0  0  0  0  0  0
   -1.9820   25.6260  -29.3430 O   0  0  0  0  0  0  0  0  0  0  0  0
   -0.8450   23.6410  -28.5700 C   0  0  0  0  0  0  0  0  0  0  0  0
   -0.9330   22.3670  -28.0150 C   0  0  0  0  0  0  0  0  0  0  0  0
   -4.3027   22.0084  -27.6481 H   0  0  0  0  0  0  0  0  0  0  0  0
   -7.7898   24.5732  -31.3059 H   0  0  0  0  0  0  0  0  0  0  0  0
   -9.0274   22.5452  -32.0592 H   0  0  0  0  0  0  0  0  0  0  0  0
   -6.1725   18.3246  -31.3094 H   0  0  0  0  0  0  0  0  0  0  0  0
   -7.1829   16.9311  -31.8519 H   0  0  0  0  0  0  0  0  0  0  0  0
   -4.7923   16.4813  -32.2383 H   0  0  0  0  0  0  0  0  0  0  0  0
   -5.7163   16.6420  -33.8097 H   0  0  0  0  0  0  0  0  0  0  0  0
   -4.9122   19.9829  -32.6561 H   0  0  0  0  0  0  0  0  0  0  0  0
   -4.4078   19.8989  -34.4100 H   0  0  0  0  0  0  0  0  0  0  0  0
   -6.8216   20.3947  -34.1479 H   0  0  0  0  0  0  0  0  0  0  0  0
   -6.4943   18.8223  -34.9961 H   0  0  0  0  0  0  0  0  0  0  0  0
   -5.5359   20.1153  -31.2546 H   0  0  0  0  0  0  0  0  0  0  0  0
   -4.2914   22.1495  -30.5165 H   0  0  0  0  0  0  0  0  0  0  0  0
    0.1302   24.0805  -28.8267 H   0  0  0  0  0  0  0  0  0  0  0  0
  1  2  2  0
  2  3  1  0
  3  4  1  0
  4  5  2  0
  4  6  1  0
  6  7  2  0
  7  8  1  0
  8  9  1  0
  9 10  1  0
 10 11  2  0
 10 12  2  0
 10 13  1  0
 13 14  2  0
 14 15  1  0
 15 16  2  0
 16 17  1  0
 17 18  2  0
 17 19  2  0
 17 20  1  0
 20 21  1  0
 21 22  1  0
 22 23  1  0
 23 24  1  0
 24 25  1  0
 16 26  1  0
 26 27  2  0
  8 28  2  0
 28 29  1  0
 28 30  1  0
 30 31  2  0
 31  2  1  0
 31  6  1  0
 27 13  1  0
 25 20  1  0
  7 32  1  0
 14 33  1  0
 15 34  1  0
 21 35  1  0
 21 36  1  0
 22 37  1  0
 22 38  1  0
 24 39  1  0
 24 40  1  0
 25 41  1  0
 25 42  1  0
 26 43  1  0
 27 44  1  0
 30 45  1  0
M  CHG  3   3  -1   9  -1  29  -1
M  END
>  <UniqueID>  (47) 
44

>  <SMILES>  (47) 
O=C1[N-]C(=O)c2cc([N-]S(=O)(=O)c3ccc(S(=O)(=O)N4CCOCC4)cc3)c([O-])cc21

>  <Energy>  (47) 
92.07653522184778

>  <Genealogy>  (47) 
O=C1[N-]C(=O)c2cc([N-]S(=O)(=O)c3ccc(S(=O)(=O)N4CCOCC4)cc3)c([O-])cc21 (protonated)
O=C1[N-]C(=O)c2cc([N-]S(=O)(=O)c3ccc(S(=O)(=O)N4CCOCC4)cc3)c([O-])cc21 (3D coordinates assigned)
O=C1[N-]C(=O)c2cc([N-]S(=O)(=O)c3ccc(S(=O)(=O)N4CCOCC4)cc3)c([O-])cc21 (nonaromatic ring conformer: 92.07653522184778 kcal/mol)

>  <smiles>  (47) 
O=C1NC(=O)c2cc(NS(=O)(=O)c3ccc(S(=O)(=O)N4CCOCC4)cc3)c(O)cc21

>  <score_type>  (47) 
oracle

>  <origin>  (47) 
adgpu

>  <m_score__min__energy>  (47) 
-15.199999999999999

>  <m_primary>  (47) 
energy

$$$$
47:0
     RDKit          3D

 45 48  0  0  0  0  0  0  0  0999 V2000
   -9.4850   18.1330  -31.9070 O   0  0  0  0  0  0  0  0  0  0  0  0
   -8.4170   18.7420  -32.1820 C   0  0  0  0  0  0  0  0  0  0  0  0
   -7.3560   18.0360  -32.5460 O   0  0  0  0  0  0  0  0  0  0  0  0
   -6.1900   18.5850  -32.8590 C   0  0  0  0  0  0  0  0  0  0  0  0
   -5.1390   17.7500  -33.2440 C   0  0  0  0  0  0  0  0  0  0  0  0
   -3.9070   18.2890  -33.6120 C   0  0  0  0  0  0  0  0  0  0  0  0
   -3.7050   19.6700  -33.5980 C   0  0  0  0  0  0  0  0  0  0  0  0
   -2.4590   20.1590  -34.0330 O   0  0  0  0  0  0  0  0  0  0  0  0
   -1.2440   20.1130  -33.2840 C   0  0  0  0  0  0  0  0  0  0  0  0
   -1.3020   21.0590  -32.1640 C   0  0  0  0  0  0  0  0  0  0  0  0
   -1.4080   21.8120  -31.2290 C   0  0  0  0  0  0  0  0  0  0  0  0
   -1.5730   22.6790  -30.0580 C   0  0  0  0  0  0  0  0  0  0  0  0
   -2.8880   22.4280  -29.4290 N   0  0  0  0  0  0  0  0  0  0  0  0
   -3.9320   22.1520  -30.4350 C   0  0  0  0  0  0  0  0  0  0  0  0
   -4.3290   23.4270  -31.2180 C   0  0  0  0  0  0  0  0  0  0  0  0
   -3.9440   24.6280  -30.5710 O   0  0  0  0  0  0  0  0  0  0  0  0
   -4.2280   24.5480  -29.1910 C   0  0  0  0  0  0  0  0  0  0  0  0
   -3.3040   23.5200  -28.5120 C   0  0  0  0  0  0  0  0  0  0  0  0
   -4.7480   20.5170  -33.1700 C   0  0  0  0  0  0  0  0  0  0  0  0
   -6.0120   19.9900  -32.8110 C   0  0  0  0  0  0  0  0  0  0  0  0
   -7.1210   20.7910  -32.4190 C   0  0  0  0  0  0  0  0  0  0  0  0
   -7.0660   22.2040  -32.3290 C   0  0  0  0  0  0  0  0  0  0  0  0
   -8.1940   22.9400  -31.9590 C   0  0  0  0  0  0  0  0  0  0  0  0
   -9.3910   22.2950  -31.6650 C   0  0  0  0  0  0  0  0  0  0  0  0
   -9.4710   20.9060  -31.7330 C   0  0  0  0  0  0  0  0  0  0  0  0
   -8.3470   20.1440  -32.1080 C   0  0  0  0  0  0  0  0  0  0  0  0
   -5.2841   16.6597  -33.2570 H   0  0  0  0  0  0  0  0  0  0  0  0
   -3.0878   17.6207  -33.9157 H   0  0  0  0  0  0  0  0  0  0  0  0
   -1.0969   19.0955  -32.8927 H   0  0  0  0  0  0  0  0  0  0  0  0
   -0.4065   20.3875  -33.9422 H   0  0  0  0  0  0  0  0  0  0  0  0
   -0.7745   22.4672  -29.3316 H   0  0  0  0  0  0  0  0  0  0  0  0
   -1.5171   23.7310  -30.3747 H   0  0  0  0  0  0  0  0  0  0  0  0
   -3.5528   21.4021  -31.1448 H   0  0  0  0  0  0  0  0  0  0  0  0
   -4.8245   21.7830  -29.9084 H   0  0  0  0  0  0  0  0  0  0  0  0
   -3.8471   23.3934  -32.2062 H   0  0  0  0  0  0  0  0  0  0  0  0
   -5.4266   23.4348  -31.2905 H   0  0  0  0  0  0  0  0  0  0  0  0
   -4.0722   25.5350  -28.7310 H   0  0  0  0  0  0  0  0  0  0  0  0
   -5.2729   24.2306  -29.0593 H   0  0  0  0  0  0  0  0  0  0  0  0
   -2.4036   24.0397  -28.1527 H   0  0  0  0  0  0  0  0  0  0  0  0
   -3.8674   23.0626  -27.6854 H   0  0  0  0  0  0  0  0  0  0  0  0
   -4.5771   21.6022  -33.1143 H   0  0  0  0  0  0  0  0  0  0  0  0
   -6.1246   22.7271  -32.5530 H   0  0  0  0  0  0  0  0  0  0  0  0
   -8.1355   24.0368  -31.8997 H   0  0  0  0  0  0  0  0  0  0  0  0
  -10.2756   22.8827  -31.3784 H   0  0  0  0  0  0  0  0  0  0  0  0
  -10.4180   20.4008  -31.4923 H   0  0  0  0  0  0  0  0  0  0  0  0
  1  2  2  0
  2  3  1  0
  3  4  1  0
  4  5  2  0
  5  6  1  0
  6  7  2  0
  7  8  1  0
  8  9  1  0
  9 10  1  0
 10 11  3  0
 11 12  1  0
 12 13  1  0
 13 14  1  0
 14 15  1  0
 15 16  1  0
 16 17  1  0
 17 18  1  0
  7 19  1  0
 19 20  2  0
 20 21  1  0
 21 22  2  0
 22 23  1  0
 23 24  2  0
 24 25  1  0
 25 26  2  0
 26  2  1  0
 20  4  1  0
 26 21  1  0
 18 13  1  0
  5 27  1  0
  6 28  1  0
  9 29  1  0
  9 30  1  0
 12 31  1  0
 12 32  1  0
 14 33  1  0
 14 34  1  0
 15 35  1  0
 15 36  1  0
 17 37  1  0
 17 38  1  0
 18 39  1  0
 18 40  1  0
 19 41  1  0
 22 42  1  0
 23 43  1  0
 24 44  1  0
 25 45  1  0
M  END
>  <UniqueID>  (48) 
45

>  <SMILES>  (48) 
O=c1oc2ccc(OCC#CCN3CCOCC3)cc2c2ccccc12

>  <Energy>  (48) 
66.04604653320739

>  <Genealogy>  (48) 
O=c1oc2ccc(OCC#CCN3CCOCC3)cc2c2ccccc12 (3D coordinates assigned)
O=c1oc2ccc(OCC#CCN3CCOCC3)cc2c2ccccc12 (nonaromatic ring conformer: 66.04604653320739 kcal/mol)

>  <smiles>  (48) 
O=c1oc2ccc(OCC#CCN3CCOCC3)cc2c2ccccc12

>  <score_type>  (48) 
oracle

>  <origin>  (48) 
adgpu

>  <m_score__min__energy>  (48) 
-9.6500000000000004

>  <m_primary>  (48) 
energy

$$$$
48:0
     RDKit          3D

 64 68  0  0  0  0  0  0  0  0999 V2000
   -9.3740   20.5150  -32.3440 C   0  0  0  0  0  0  0  0  0  0  0  0
   -7.6290   20.1750  -32.3720 S   0  0  0  0  0  0  0  0  0  0  0  0
   -7.3120   19.0730  -31.4020 O   0  0  0  0  0  0  0  0  0  0  0  0
   -7.2360   19.7350  -33.7550 O   0  0  0  0  0  0  0  0  0  0  0  0
   -6.7420   21.6310  -31.9200 C   0  0  0  0  0  0  0  0  0  0  0  0
   -7.3700   22.6530  -31.1960 C   0  0  0  0  0  0  0  0  0  0  0  0
   -6.6570   23.8010  -30.8360 C   0  0  0  0  0  0  0  0  0  0  0  0
   -5.3070   23.9420  -31.2010 C   0  0  0  0  0  0  0  0  0  0  0  0
   -4.5420   25.1640  -30.7790 C   0  0  0  0  0  0  0  0  0  0  0  0
   -3.9090   24.9290  -29.4840 N   0  0  0  0  0  0  0  0  0  0  0  0
   -2.5440   24.5360  -29.2960 C   0  0  0  0  0  0  0  0  0  0  0  0
   -1.6480   25.4210  -29.3310 O   0  0  0  0  0  0  0  0  0  0  0  0
   -2.1590   23.1260  -29.0820 C   0  0  0  0  0  0  0  0  0  0  0  0
   -2.1090   22.6010  -27.7880 C   0  0  0  0  0  0  0  0  0  0  0  0
   -1.7240   21.2760  -27.5830 C   0  0  0  0  0  0  0  0  0  0  0  0
   -1.3690   20.4570  -28.6650 C   0  0  0  0  0  0  0  0  0  0  0  0
   -0.9050   19.1220  -28.4030 N   0  0  0  0  0  0  0  0  0  0  0  0
    0.4760   18.8200  -28.1640 C   0  0  0  0  0  0  0  0  0  0  0  0
    1.2860   19.7400  -27.8680 O   0  0  0  0  0  0  0  0  0  0  0  0
    0.9460   17.4260  -28.1870 C   0  0  0  0  0  0  0  0  0  0  0  0
    1.5170   16.7420  -27.1270 C   0  0  0  0  0  0  0  0  0  0  0  0
    1.7760   15.4630  -27.4900 N   0  0  0  0  0  0  0  0  0  0  0  0
    1.3660   15.4080  -28.7740 C   0  0  0  0  0  0  0  0  0  0  0  0
    1.4500   14.2930  -29.6060 C   0  0  0  0  0  0  0  0  0  0  0  0
    1.0170   14.4360  -30.9330 C   0  0  0  0  0  0  0  0  0  0  0  0
    0.5290   15.6730  -31.3920 C   0  0  0  0  0  0  0  0  0  0  0  0
    0.4580   16.7600  -30.5080 C   0  0  0  0  0  0  0  0  0  0  0  0
    0.8650   16.5740  -29.2240 N   0  0  0  0  0  0  0  0  0  0  0  0
   -1.4130   20.9740  -29.9850 C   0  0  0  0  0  0  0  0  0  0  0  0
   -1.1540   20.0840  -31.2020 C   0  0  0  0  0  0  0  0  0  0  0  0
   -0.0500   20.6260  -32.1240 C   0  0  0  0  0  0  0  0  0  0  0  0
   -0.7290   21.1390  -33.3940 C   0  0  0  0  0  0  0  0  0  0  0  0
   -2.2300   20.9380  -33.2220 C   0  0  0  0  0  0  0  0  0  0  0  0
   -2.4040   19.9570  -32.0740 C   0  0  0  0  0  0  0  0  0  0  0  0
   -1.8010   22.3170  -30.1680 C   0  0  0  0  0  0  0  0  0  0  0  0
   -4.6730   22.9080  -31.9100 C   0  0  0  0  0  0  0  0  0  0  0  0
   -5.3900   21.7620  -32.2750 C   0  0  0  0  0  0  0  0  0  0  0  0
   -9.7178   20.5820  -31.3013 H   0  0  0  0  0  0  0  0  0  0  0  0
   -9.5701   21.4682  -32.8567 H   0  0  0  0  0  0  0  0  0  0  0  0
   -9.9136   19.7051  -32.8567 H   0  0  0  0  0  0  0  0  0  0  0  0
   -8.4273   22.5521  -30.9098 H   0  0  0  0  0  0  0  0  0  0  0  0
   -7.1553   24.5977  -30.2642 H   0  0  0  0  0  0  0  0  0  0  0  0
   -3.7684   25.3873  -31.5284 H   0  0  0  0  0  0  0  0  0  0  0  0
   -5.2342   26.0149  -30.6957 H   0  0  0  0  0  0  0  0  0  0  0  0
   -2.3740   23.2344  -26.9286 H   0  0  0  0  0  0  0  0  0  0  0  0
   -1.6985   20.8689  -26.5614 H   0  0  0  0  0  0  0  0  0  0  0  0
   -1.6030   18.3460  -28.3730 H   0  0  0  0  0  0  0  0  0  0  0  0
    1.7287   17.1732  -26.1374 H   0  0  0  0  0  0  0  0  0  0  0  0
    1.8420   13.3344  -29.2353 H   0  0  0  0  0  0  0  0  0  0  0  0
    1.0594   13.5763  -31.6180 H   0  0  0  0  0  0  0  0  0  0  0  0
    0.2053   15.7872  -32.4371 H   0  0  0  0  0  0  0  0  0  0  0  0
    0.0827   17.7376  -30.8449 H   0  0  0  0  0  0  0  0  0  0  0  0
   -0.8490   19.1166  -30.7765 H   0  0  0  0  0  0  0  0  0  0  0  0
    0.4866   21.4471  -31.6262 H   0  0  0  0  0  0  0  0  0  0  0  0
    0.6789   19.8378  -32.3635 H   0  0  0  0  0  0  0  0  0  0  0  0
   -0.5064   22.2071  -33.5340 H   0  0  0  0  0  0  0  0  0  0  0  0
   -0.3631   20.5944  -34.2769 H   0  0  0  0  0  0  0  0  0  0  0  0
   -2.7167   21.8948  -32.9817 H   0  0  0  0  0  0  0  0  0  0  0  0
   -2.6891   20.5557  -34.1456 H   0  0  0  0  0  0  0  0  0  0  0  0
   -3.3017   20.2098  -31.4907 H   0  0  0  0  0  0  0  0  0  0  0  0
   -2.5282   18.9287  -32.4444 H   0  0  0  0  0  0  0  0  0  0  0  0
   -1.8230   22.7380  -31.1840 H   0  0  0  0  0  0  0  0  0  0  0  0
   -3.6103   22.9990  -32.1791 H   0  0  0  0  0  0  0  0  0  0  0  0
   -4.8922   20.9615  -32.8419 H   0  0  0  0  0  0  0  0  0  0  0  0
  1  2  1  0
  2  3  2  0
  2  4  2  0
  2  5  1  0
  5  6  2  0
  6  7  1  0
  7  8  2  0
  8  9  1  0
  9 10  1  0
 10 11  1  0
 11 12  2  0
 11 13  1  0
 13 14  2  0
 14 15  1  0
 15 16  2  0
 16 17  1  0
 17 18  1  0
 18 19  2  0
 18 20  1  0
 20 21  2  0
 21 22  1  0
 22 23  2  0
 23 24  1  0
 24 25  2  0
 25 26  1  0
 26 27  2  0
 27 28  1  0
 16 29  1  0
 29 30  1  0
 30 31  1  0
 31 32  1  0
 32 33  1  0
 33 34  1  0
 29 35  2  0
  8 36  1  0
 36 37  2  0
 37  5  1  0
 35 13  1  0
 28 20  1  0
 34 30  1  0
 28 23  1  0
  1 38  1  0
  1 39  1  0
  1 40  1  0
  6 41  1  0
  7 42  1  0
  9 43  1  0
  9 44  1  0
 14 45  1  0
 15 46  1  0
 17 47  1  0
 21 48  1  0
 24 49  1  0
 25 50  1  0
 26 51  1  0
 27 52  1  0
 30 53  1  0
 31 54  1  0
 31 55  1  0
 32 56  1  0
 32 57  1  0
 33 58  1  0
 33 59  1  0
 34 60  1  0
 34 61  1  0
 35 62  1  0
 36 63  1  0
 37 64  1  0
M  CHG  1  10  -1
M  END
>  <UniqueID>  (49) 
46

>  <SMILES>  (49) 
CS(=O)(=O)c1ccc(C[N-]C(=O)c2ccc(NC(=O)c3cnc4ccccn34)c(C3CCCC3)c2)cc1

>  <Energy>  (49) 
116.08654761539296

>  <Genealogy>  (49) 
CS(=O)(=O)c1ccc(C[N-]C(=O)c2ccc(NC(=O)c3cnc4ccccn34)c(C3CCCC3)c2)cc1 (protonated)
CS(=O)(=O)c1ccc(C[N-]C(=O)c2ccc(NC(=O)c3cnc4ccccn34)c(C3CCCC3)c2)cc1 (3D coordinates assigned)
CS(=O)(=O)c1ccc(C[N-]C(=O)c2ccc(NC(=O)c3cnc4ccccn34)c(C3CCCC3)c2)cc1 (nonaromatic ring conformer: 116.08654761539296 kcal/mol)

>  <smiles>  (49) 
CS(=O)(=O)c1ccc(CNC(=O)c2ccc(NC(=O)c3cnc4ccccn34)c(C3CCCC3)c2)cc1

>  <score_type>  (49) 
oracle

>  <origin>  (49) 
adgpu

>  <m_score__min__energy>  (49) 
-11.73

>  <m_primary>  (49) 
energy

$$$$
49:0
     RDKit          3D

 58 61  0  0  0  0  0  0  0  0999 V2000
   -2.7870   20.3390  -33.0760 C   0  0  0  0  0  0  0  0  0  0  0  0
   -1.5220   20.7640  -32.4830 N   0  0  0  0  0  0  0  0  0  0  0  0
   -0.5050   21.3420  -33.3610 C   0  0  0  0  0  0  0  0  0  0  0  0
   -1.0900   20.1540  -31.2550 C   0  0  0  0  0  0  0  0  0  0  0  0
   -0.4670   18.8960  -31.2980 C   0  0  0  0  0  0  0  0  0  0  0  0
   -0.0040   18.2930  -30.1270 C   0  0  0  0  0  0  0  0  0  0  0  0
   -0.1590   18.9430  -28.8960 C   0  0  0  0  0  0  0  0  0  0  0  0
   -0.7890   20.1930  -28.8400 C   0  0  0  0  0  0  0  0  0  0  0  0
   -1.2690   20.8020  -30.0100 C   0  0  0  0  0  0  0  0  0  0  0  0
   -2.0950   22.3640  -29.8800 S   0  0  0  0  0  0  0  0  0  0  0  0
   -1.0910   23.4820  -29.8880 O   0  0  0  0  0  0  0  0  0  0  0  0
   -2.8560   22.4350  -28.5870 O   0  0  0  0  0  0  0  0  0  0  0  0
   -3.2040   22.5490  -31.1960 N   0  0  0  0  0  0  0  0  0  0  0  0
   -4.4850   23.1630  -31.0480 C   0  0  0  0  0  0  0  0  0  0  0  0
   -5.6330   22.3820  -31.2240 C   0  0  0  0  0  0  0  0  0  0  0  0
   -6.9070   22.9550  -31.1290 C   0  0  0  0  0  0  0  0  0  0  0  0
   -8.3410   21.9900  -31.4680 S   0  0  0  0  0  0  0  0  0  0  0  0
   -8.7860   21.3020  -30.2050 O   0  0  0  0  0  0  0  0  0  0  0  0
   -9.4520   22.9010  -31.9110 O   0  0  0  0  0  0  0  0  0  0  0  0
   -8.0450   20.7850  -32.7030 N   0  0  0  0  0  0  0  0  0  0  0  0
   -6.6040   20.5820  -32.9830 C   0  0  0  0  0  0  0  0  0  0  0  0
   -6.1580   19.1140  -32.9060 C   0  0  0  0  0  0  0  0  0  0  0  0
   -6.6940   18.4810  -31.6300 C   0  0  0  0  0  0  0  0  0  0  0  0
   -8.2270   18.5090  -31.5890 C   0  0  0  0  0  0  0  0  0  0  0  0
   -8.8580   19.5600  -32.5260 C   0  0  0  0  0  0  0  0  0  0  0  0
   -7.0280   24.3040  -30.7740 C   0  0  0  0  0  0  0  0  0  0  0  0
   -5.8860   25.0830  -30.5620 C   0  0  0  0  0  0  0  0  0  0  0  0
   -4.6140   24.5200  -30.7010 C   0  0  0  0  0  0  0  0  0  0  0  0
   -3.4940   25.3060  -30.4590 O   0  0  0  0  0  0  0  0  0  0  0  0
    0.2870   18.2920  -27.7010 N   0  0  0  0  0  0  0  0  0  0  0  0
    0.9470   17.0260  -27.7780 C   0  0  0  0  0  0  0  0  0  0  0  0
    1.2420   16.4050  -26.7220 O   0  0  0  0  0  0  0  0  0  0  0  0
    1.3580   16.4680  -29.1140 C   0  0  0  0  0  0  0  0  0  0  0  0
    0.5960   17.0300  -30.1860 O   0  0  0  0  0  0  0  0  0  0  0  0
   -3.5038   20.0982  -32.2772 H   0  0  0  0  0  0  0  0  0  0  0  0
   -3.1911   21.1507  -33.6988 H   0  0  0  0  0  0  0  0  0  0  0  0
   -2.6190   19.4480  -33.6988 H   0  0  0  0  0  0  0  0  0  0  0  0
    0.2912   21.7945  -32.7517 H   0  0  0  0  0  0  0  0  0  0  0  0
   -0.0769   20.5522  -33.9958 H   0  0  0  0  0  0  0  0  0  0  0  0
   -0.9645   22.1139  -33.9958 H   0  0  0  0  0  0  0  0  0  0  0  0
   -0.3428   18.3815  -32.2623 H   0  0  0  0  0  0  0  0  0  0  0  0
   -0.9084   20.7011  -27.8717 H   0  0  0  0  0  0  0  0  0  0  0  0
   -5.5334   21.3078  -31.4390 H   0  0  0  0  0  0  0  0  0  0  0  0
   -6.3913   20.9564  -33.9952 H   0  0  0  0  0  0  0  0  0  0  0  0
   -6.0470   21.1271  -32.2067 H   0  0  0  0  0  0  0  0  0  0  0  0
   -6.5481   18.5672  -33.7771 H   0  0  0  0  0  0  0  0  0  0  0  0
   -5.0590   19.0670  -32.9020 H   0  0  0  0  0  0  0  0  0  0  0  0
   -6.3542   17.4360  -31.5795 H   0  0  0  0  0  0  0  0  0  0  0  0
   -6.3155   19.0580  -30.7734 H   0  0  0  0  0  0  0  0  0  0  0  0
   -8.5995   17.5161  -31.8813 H   0  0  0  0  0  0  0  0  0  0  0  0
   -8.5142   18.7823  -30.5629 H   0  0  0  0  0  0  0  0  0  0  0  0
   -9.0040   19.0978  -33.5134 H   0  0  0  0  0  0  0  0  0  0  0  0
   -9.8023   19.8737  -32.0570 H   0  0  0  0  0  0  0  0  0  0  0  0
   -8.0258   24.7531  -30.6613 H   0  0  0  0  0  0  0  0  0  0  0  0
   -5.9890   26.1425  -30.2849 H   0  0  0  0  0  0  0  0  0  0  0  0
    0.1030   18.7210  -26.7680 H   0  0  0  0  0  0  0  0  0  0  0  0
    2.4224   16.6907  -29.2798 H   0  0  0  0  0  0  0  0  0  0  0  0
    1.1764   15.3832  -29.0999 H   0  0  0  0  0  0  0  0  0  0  0  0
  1  2  1  0
  2  3  1  0
  2  4  1  0
  4  5  2  0
  5  6  1  0
  6  7  2  0
  7  8  1  0
  8  9  2  0
  9 10  1  0
 10 11  2  0
 10 12  2  0
 10 13  1  0
 13 14  1  0
 14 15  2  0
 15 16  1  0
 16 17  1  0
 17 18  2  0
 17 19  2  0
 17 20  1  0
 20 21  1  0
 21 22  1  0
 22 23  1  0
 23 24  1  0
 24 25  1  0
 16 26  2  0
 26 27  1  0
 27 28  2  0
 28 29  1  0
  7 30  1  0
 30 31  1  0
 31 32  2  0
 31 33  1  0
 33 34  1  0
  9  4  1  0
 28 14  1  0
 34  6  1  0
 25 20  1  0
  1 35  1  0
  1 36  1  0
  1 37  1  0
  3 38  1  0
  3 39  1  0
  3 40  1  0
  5 41  1  0
  8 42  1  0
 15 43  1  0
 21 44  1  0
 21 45  1  0
 22 46  1  0
 22 47  1  0
 23 48  1  0
 23 49  1  0
 24 50  1  0
 24 51  1  0
 25 52  1  0
 25 53  1  0
 26 54  1  0
 27 55  1  0
 30 56  1  0
 33 57  1  0
 33 58  1  0
M  CHG  2  13  -1  29  -1
M  END
>  <UniqueID>  (50) 
47

>  <SMILES>  (50) 
CN(C)c1cc2c(cc1S(=O)(=O)[N-]c1cc(S(=O)(=O)N3CCCCC3)ccc1[O-])NC(=O)CO2

>  <Energy>  (50) 
76.66886163843732

>  <Genealogy>  (50) 
CN(C)c1cc2c(cc1S(=O)(=O)[N-]c1cc(S(=O)(=O)N3CCCCC3)ccc1[O-])NC(=O)CO2 (protonated)
CN(C)c1cc2c(cc1S(=O)(=O)[N-]c1cc(S(=O)(=O)N3CCCCC3)ccc1[O-])NC(=O)CO2 (3D coordinates assigned)
CN(C)c1cc2c(cc1S(=O)(=O)[N-]c1cc(S(=O)(=O)N3CCCCC3)ccc1[O-])NC(=O)CO2 (nonaromatic ring conformer: 76.66886163843732 kcal/mol)

>  <smiles>  (50) 
CN(C)c1cc2c(cc1S(=O)(=O)Nc1cc(S(=O)(=O)N3CCCCC3)ccc1O)NC(=O)CO2

>  <score_type>  (50) 
oracle

>  <origin>  (50) 
adgpu

>  <m_score__min__energy>  (50) 
-13.69

>  <m_primary>  (50) 
energy

$$$$
