0:0
     RDKit          3D

 28 30  0  0  0  0  0  0  0  0999 V2000
   -9.2200   22.6940  -31.5280 O   0  0  0  0  0  0  0  0  0  0  0  0
   -8.0500   22.2600  -31.7070 C   0  0  0  0  0  0  0  0  0  0  0  0
   -7.8580   20.9830  -32.2440 C   0  0  0  0  0  0  0  0  0  0  0  0
   -8.9610   20.2170  -32.6130 O   0  0  0  0  0  0  0  0  0  0  0  0
   -6.5440   20.5070  -32.4300 C   0  0  0  0  0  0  0  0  0  0  0  0
   -6.2640   19.1610  -32.9780 C   0  0  0  0  0  0  0  0  0  0  0  0
   -6.9730   18.0530  -32.4850 C   0  0  0  0  0  0  0  0  0  0  0  0
   -6.7410   16.7760  -33.0020 C   0  0  0  0  0  0  0  0  0  0  0  0
   -5.8080   16.5910  -34.0320 C   0  0  0  0  0  0  0  0  0  0  0  0
   -5.5700   15.3200  -34.5520 O   0  0  0  0  0  0  0  0  0  0  0  0
   -5.1140   17.6930  -34.5450 C   0  0  0  0  0  0  0  0  0  0  0  0
   -4.1980   17.5220  -35.5770 O   0  0  0  0  0  0  0  0  0  0  0  0
   -5.3440   18.9720  -34.0260 C   0  0  0  0  0  0  0  0  0  0  0  0
   -5.5110   21.2890  -32.1230 O   0  0  0  0  0  0  0  0  0  0  0  0
   -5.6480   22.5110  -31.6180 C   0  0  0  0  0  0  0  0  0  0  0  0
   -4.5100   23.2680  -31.3160 C   0  0  0  0  0  0  0  0  0  0  0  0
   -4.6420   24.5530  -30.7810 C   0  0  0  0  0  0  0  0  0  0  0  0
   -3.5090   25.2990  -30.4830 O   0  0  0  0  0  0  0  0  0  0  0  0
   -5.9130   25.0860  -30.5450 C   0  0  0  0  0  0  0  0  0  0  0  0
   -7.0570   24.3400  -30.8420 C   0  0  0  0  0  0  0  0  0  0  0  0
   -6.9330   23.0460  -31.3820 C   0  0  0  0  0  0  0  0  0  0  0  0
   -7.7163   18.1919  -31.6861 H   0  0  0  0  0  0  0  0  0  0  0  0
   -7.2920   15.9131  -32.5997 H   0  0  0  0  0  0  0  0  0  0  0  0
   -4.8730   15.1640  -35.2710 H   0  0  0  0  0  0  0  0  0  0  0  0
   -4.8022   19.8352  -34.4399 H   0  0  0  0  0  0  0  0  0  0  0  0
   -3.5090   22.8507  -31.5001 H   0  0  0  0  0  0  0  0  0  0  0  0
   -6.0130   26.0972  -30.1236 H   0  0  0  0  0  0  0  0  0  0  0  0
   -8.0543   24.7641  -30.6537 H   0  0  0  0  0  0  0  0  0  0  0  0
  1  2  2  0
  2  3  1  0
  3  4  1  0
  3  5  2  0
  5  6  1  0
  6  7  2  0
  7  8  1  0
  8  9  2  0
  9 10  1  0
  9 11  1  0
 11 12  1  0
 11 13  2  0
  5 14  1  0
 14 15  1  0
 15 16  2  0
 16 17  1  0
 17 18  1  0
 17 19  2  0
 19 20  1  0
 20 21  2  0
 21  2  1  0
 13  6  1  0
 21 15  1  0
  7 22  1  0
  8 23  1  0
 10 24  1  0
 13 25  1  0
 16 26  1  0
 19 27  1  0
 20 28  1  0
M  CHG  3   4  -1  12  -1  18  -1
M  END
>  <UniqueID>  (1) 
1

>  <SMILES>  (1) 
O=c1c([O-])c(-c2ccc(O)c([O-])c2)oc2cc([O-])ccc12

>  <Energy>  (1) 
42.209016227802145

>  <Genealogy>  (1) 
O=c1c([O-])c(-c2ccc(O)c([O-])c2)oc2cc([O-])ccc12 (protonated)
O=c1c([O-])c(-c2ccc(O)c([O-])c2)oc2cc([O-])ccc12 (3D coordinates assigned)
O=c1c([O-])c(-c2ccc(O)c([O-])c2)oc2cc([O-])ccc12 (optimized conformer: 42.209016227802145 kcal/mol)

>  <smiles>  (1) 
O=c1c(O)c(-c2ccc(O)c(O)c2)oc2cc(O)ccc12

>  <score_type>  (1) 
oracle

>  <origin>  (1) 
adgpu

>  <m_score__min__energy>  (1) 
-10.199999999999999

>  <m_primary>  (1) 
energy

$$$$
1:0
     RDKit          3D

 45 47  0  0  0  0  0  0  0  0999 V2000
   -3.8900   22.3630  -31.9770 C   0  0  0  0  0  0  0  0  0  0  0  0
   -5.3420   22.2760  -31.5860 C   0  0  0  0  0  0  0  0  0  0  0  0
   -6.1650   21.3490  -32.2480 C   0  0  0  0  0  0  0  0  0  0  0  0
   -7.5200   21.2400  -31.9250 C   0  0  0  0  0  0  0  0  0  0  0  0
   -8.5520   20.0280  -32.7540 S   0  0  0  0  0  0  0  0  0  0  0  0
   -7.2650   18.7710  -32.7190 C   0  0  0  0  0  0  0  0  0  0  0  0
   -7.1460   17.9720  -31.5750 C   0  0  0  0  0  0  0  0  0  0  0  0
   -6.1350   17.0150  -31.4830 C   0  0  0  0  0  0  0  0  0  0  0  0
   -5.2350   16.8330  -32.5430 C   0  0  0  0  0  0  0  0  0  0  0  0
   -4.1090   15.8430  -32.4180 C   0  0  0  0  0  0  0  0  0  0  0  0
   -4.6490   14.4390  -32.4500 C   0  0  0  0  0  0  0  0  0  0  0  0
   -5.2930   13.9540  -33.6010 C   0  0  0  0  0  0  0  0  0  0  0  0
   -5.8330   12.6640  -33.6140 C   0  0  0  0  0  0  0  0  0  0  0  0
   -5.7400   11.8540  -32.4800 C   0  0  0  0  0  0  0  0  0  0  0  0
   -5.1120   12.3330  -31.3270 C   0  0  0  0  0  0  0  0  0  0  0  0
   -4.5710   13.6230  -31.3090 C   0  0  0  0  0  0  0  0  0  0  0  0
   -5.3550   17.6270  -33.6930 C   0  0  0  0  0  0  0  0  0  0  0  0
   -6.3710   18.5900  -33.7960 C   0  0  0  0  0  0  0  0  0  0  0  0
   -6.4780   19.3660  -34.9970 N   0  0  0  0  0  0  0  0  0  0  0  0
   -8.0720   22.0770  -30.9540 C   0  0  0  0  0  0  0  0  0  0  0  0
   -7.2730   23.0130  -30.2970 C   0  0  0  0  0  0  0  0  0  0  0  0
   -5.9070   23.1290  -30.6040 C   0  0  0  0  0  0  0  0  0  0  0  0
   -4.9390   24.3370  -29.7380 S   0  0  0  0  0  0  0  0  0  0  0  0
   -3.7600   25.0240  -30.8010 N   0  0  0  0  0  0  0  0  0  0  0  0
   -5.8230   25.4440  -29.2370 O   0  0  0  0  0  0  0  0  0  0  0  0
   -4.2620   23.6920  -28.5610 O   0  0  0  0  0  0  0  0  0  0  0  0
   -3.2678   22.4003  -31.0706 H   0  0  0  0  0  0  0  0  0  0  0  0
   -3.6172   21.4796  -32.5730 H   0  0  0  0  0  0  0  0  0  0  0  0
   -3.7246   23.2727  -32.5730 H   0  0  0  0  0  0  0  0  0  0  0  0
   -5.7379   20.7024  -33.0287 H   0  0  0  0  0  0  0  0  0  0  0  0
   -7.8545   18.0998  -30.7433 H   0  0  0  0  0  0  0  0  0  0  0  0
   -6.0434   16.4006  -30.5752 H   0  0  0  0  0  0  0  0  0  0  0  0
   -3.4077   15.9822  -33.2539 H   0  0  0  0  0  0  0  0  0  0  0  0
   -3.5896   16.0073  -31.4624 H   0  0  0  0  0  0  0  0  0  0  0  0
   -5.3726   14.5909  -34.4944 H   0  0  0  0  0  0  0  0  0  0  0  0
   -6.3318   12.2867  -34.5189 H   0  0  0  0  0  0  0  0  0  0  0  0
   -6.1615   10.8380  -32.4944 H   0  0  0  0  0  0  0  0  0  0  0  0
   -5.0431   11.6954  -30.4333 H   0  0  0  0  0  0  0  0  0  0  0  0
   -4.0828   13.9998  -30.3982 H   0  0  0  0  0  0  0  0  0  0  0  0
   -4.6454   17.4936  -34.5229 H   0  0  0  0  0  0  0  0  0  0  0  0
   -7.2500   20.0600  -35.1110 H   0  0  0  0  0  0  0  0  0  0  0  0
   -5.7820   19.2930  -35.7690 H   0  0  0  0  0  0  0  0  0  0  0  0
   -9.1408   21.9983  -30.7059 H   0  0  0  0  0  0  0  0  0  0  0  0
   -7.7167   23.6664  -29.5314 H   0  0  0  0  0  0  0  0  0  0  0  0
   -3.9330   26.0530  -30.8380 H   0  0  0  0  0  0  0  0  0  0  0  0
  1  2  1  0
  2  3  2  0
  3  4  1  0
  4  5  1  0
  5  6  1  0
  6  7  2  0
  7  8  1  0
  8  9  2  0
  9 10  1  0
 10 11  1  0
 11 12  2  0
 12 13  1  0
 13 14  2  0
 14 15  1  0
 15 16  2  0
  9 17  1  0
 17 18  2  0
 18 19  1  0
  4 20  2  0
 20 21  1  0
 21 22  2  0
 22 23  1  0
 23 24  1  0
 23 25  2  0
 23 26  2  0
 22  2  1  0
 18  6  1  0
 16 11  1  0
  1 27  1  0
  1 28  1  0
  1 29  1  0
  3 30  1  0
  7 31  1  0
  8 32  1  0
 10 33  1  0
 10 34  1  0
 12 35  1  0
 13 36  1  0
 14 37  1  0
 15 38  1  0
 16 39  1  0
 17 40  1  0
 19 41  1  0
 19 42  1  0
 20 43  1  0
 21 44  1  0
 24 45  1  0
M  CHG  1  24  -1
M  END
>  <UniqueID>  (2) 
2

>  <SMILES>  (2) 
Cc1cc(Sc2ccc(Cc3ccccc3)cc2N)ccc1S([NH-])(=O)=O

>  <Energy>  (2) 
43.266618830356606

>  <Genealogy>  (2) 
Cc1cc(Sc2ccc(Cc3ccccc3)cc2N)ccc1S([NH-])(=O)=O (protonated)
Cc1cc(Sc2ccc(Cc3ccccc3)cc2N)ccc1S([NH-])(=O)=O (3D coordinates assigned)
Cc1cc(Sc2ccc(Cc3ccccc3)cc2N)ccc1S([NH-])(=O)=O (optimized conformer: 43.266618830356606 kcal/mol)

>  <smiles>  (2) 
Cc1cc(Sc2ccc(Cc3ccccc3)cc2N)ccc1S(N)(=O)=O

>  <score_type>  (2) 
oracle

>  <origin>  (2) 
adgpu

>  <m_score__min__energy>  (2) 
-11.08

>  <m_primary>  (2) 
energy

$$$$
2:0
     RDKit          3D

 33 34  0  0  0  0  0  0  0  0999 V2000
   -3.6531   19.4901  -33.9155 H   0  0  0  0  0  0  0  0  0  0  0  0
   -4.6510   19.3720  -33.4680 C   0  0  0  0  0  0  0  0  0  0  0  0
   -5.5990   18.5260  -34.0510 C   0  0  0  0  0  0  0  0  0  0  0  0
   -5.2800   17.7820  -35.3080 C   0  0  0  0  0  0  0  0  0  0  0  0
   -4.8582   16.7982  -35.0547 H   0  0  0  0  0  0  0  0  0  0  0  0
   -6.1990   17.6463  -35.8970 H   0  0  0  0  0  0  0  0  0  0  0  0
   -4.5481   18.3542  -35.8970 H   0  0  0  0  0  0  0  0  0  0  0  0
   -6.8250   18.3940  -33.4780 N   0  0  0  0  0  0  0  0  0  0  0  0
   -7.1430   19.0650  -32.3410 C   0  0  0  0  0  0  0  0  0  0  0  0
   -8.7470   18.8270  -31.5810 S   0  0  0  0  0  0  0  0  0  0  0  0
   -9.4940   20.3180  -32.3300 C   0  0  0  0  0  0  0  0  0  0  0  0
   -9.2987   20.3129  -33.4125 H   0  0  0  0  0  0  0  0  0  0  0  0
  -10.5762   20.3040  -32.1332 H   0  0  0  0  0  0  0  0  0  0  0  0
   -8.9140   21.5720  -31.7310 C   0  0  0  0  0  0  0  0  0  0  0  0
   -9.2700   21.9090  -30.5710 O   0  0  0  0  0  0  0  0  0  0  0  0
   -7.8390   22.2890  -32.3560 N   0  0  0  0  0  0  0  0  0  0  0  0
   -6.9340   23.0170  -31.7710 C   0  0  0  0  0  0  0  0  0  0  0  0
   -6.7060   23.1570  -30.4110 C   0  0  0  0  0  0  0  0  0  0  0  0
   -7.2435   22.6872  -29.5741 H   0  0  0  0  0  0  0  0  0  0  0  0
   -5.6360   24.0330  -30.3650 C   0  0  0  0  0  0  0  0  0  0  0  0
   -4.9810   24.5520  -29.1290 C   0  0  0  0  0  0  0  0  0  0  0  0
   -5.4934   24.1460  -28.2444 H   0  0  0  0  0  0  0  0  0  0  0  0
   -3.9256   24.2424  -29.1157 H   0  0  0  0  0  0  0  0  0  0  0  0
   -5.0411   25.6503  -29.1157 H   0  0  0  0  0  0  0  0  0  0  0  0
   -5.2760   24.3510  -31.5870 O   0  0  0  0  0  0  0  0  0  0  0  0
   -6.0320   23.7450  -32.4530 N   0  0  0  0  0  0  0  0  0  0  0  0
   -5.9480   23.8350  -33.4900 H   0  0  0  0  0  0  0  0  0  0  0  0
   -6.2340   19.8950  -31.7650 N   0  0  0  0  0  0  0  0  0  0  0  0
   -4.9980   20.0650  -32.3040 C   0  0  0  0  0  0  0  0  0  0  0  0
   -4.0020   20.9460  -31.6200 C   0  0  0  0  0  0  0  0  0  0  0  0
   -4.1131   20.8477  -30.5300 H   0  0  0  0  0  0  0  0  0  0  0  0
   -2.9851   20.6464  -31.9134 H   0  0  0  0  0  0  0  0  0  0  0  0
   -4.1752   21.9919  -31.9134 H   0  0  0  0  0  0  0  0  0  0  0  0
  1  2  1  0
  2  3  2  0
  3  4  1  0
  4  5  1  0
  4  6  1  0
  4  7  1  0
  3  8  1  0
  8  9  2  0
  9 10  1  0
 10 11  1  0
 11 12  1  0
 11 13  1  0
 11 14  1  0
 14 15  2  0
 14 16  1  0
 16 17  2  0
 17 18  1  0
 18 19  1  0
 18 20  2  0
 20 21  1  0
 21 22  1  0
 21 23  1  0
 21 24  1  0
 20 25  1  0
 25 26  1  0
 26 27  1  0
  9 28  1  0
 28 29  2  0
 29 30  1  0
 30 31  1  0
 30 32  1  0
 30 33  1  0
 29  2  1  0
 26 17  1  0
M  END
>  <UniqueID>  (3) 
3

>  <SMILES>  (3) 
Cc1cc(C)nc(SCC(=O)/N=c2\cc(C)o[nH]2)n1

>  <Energy>  (3) 
62.62358199885366

>  <Genealogy>  (3) 
Cc1cc(C)nc(SCC(=O)/N=c2\cc(C)o[nH]2)n1 (cis-trans isomerization)
Cc1cc(C)nc(SCC(=O)/N=c2\cc(C)o[nH]2)n1 (3D coordinates assigned)
Cc1cc(C)nc(SCC(=O)/N=c2\cc(C)o[nH]2)n1 (optimized conformer: 62.62358199885366 kcal/mol)

>  <smiles>  (3) 
Cc1cc(C)nc(SCC(=O)N=c2cc(C)o[nH]2)n1

>  <score_type>  (3) 
oracle

>  <origin>  (3) 
adgpu

>  <m_score__min__energy>  (3) 
-8.3599999999999994

>  <m_primary>  (3) 
energy

$$$$
3:0
     RDKit          3D

 52 54  0  0  0  0  0  0  0  0999 V2000
   -0.0660   21.1920  -35.0960 C   0  0  0  0  0  0  0  0  0  0  0  0
    0.5730   20.6890  -34.0370 C   0  0  0  0  0  0  0  0  0  0  0  0
    0.0710   19.4550  -33.3430 C   0  0  0  0  0  0  0  0  0  0  0  0
   -0.4050   19.7700  -32.0330 O   0  0  0  0  0  0  0  0  0  0  0  0
   -1.3450   20.7700  -31.7320 C   0  0  0  0  0  0  0  0  0  0  0  0
   -1.2150   21.6260  -30.6210 C   0  0  0  0  0  0  0  0  0  0  0  0
   -2.1890   22.5940  -30.3580 C   0  0  0  0  0  0  0  0  0  0  0  0
   -3.2960   22.7330  -31.2080 C   0  0  0  0  0  0  0  0  0  0  0  0
   -4.5450   23.9170  -30.8390 S   0  0  0  0  0  0  0  0  0  0  0  0
   -5.1570   23.5870  -29.5060 O   0  0  0  0  0  0  0  0  0  0  0  0
   -3.9680   25.3020  -30.7630 O   0  0  0  0  0  0  0  0  0  0  0  0
   -5.7790   23.8330  -32.0540 N   0  0  0  0  0  0  0  0  0  0  0  0
   -6.8970   22.9410  -32.0050 C   0  0  0  0  0  0  0  0  0  0  0  0
   -8.2210   23.4110  -31.9520 C   0  0  0  0  0  0  0  0  0  0  0  0
   -9.2870   22.5070  -31.9370 C   0  0  0  0  0  0  0  0  0  0  0  0
   -9.0420   21.1330  -31.9870 C   0  0  0  0  0  0  0  0  0  0  0  0
   -7.7260   20.6550  -32.0230 C   0  0  0  0  0  0  0  0  0  0  0  0
   -7.4180   18.9360  -32.2380 S   0  0  0  0  0  0  0  0  0  0  0  0
   -8.7020   18.1720  -32.0760 O   0  0  0  0  0  0  0  0  0  0  0  0
   -6.4330   18.4410  -31.2180 O   0  0  0  0  0  0  0  0  0  0  0  0
   -6.7980   18.6900  -33.8350 N   0  0  0  0  0  0  0  0  0  0  0  0
   -5.5450   18.0200  -34.0280 C   0  0  0  0  0  0  0  0  0  0  0  0
   -4.3560   18.7670  -34.0820 C   0  0  0  0  0  0  0  0  0  0  0  0
   -3.1270   18.1320  -34.2660 C   0  0  0  0  0  0  0  0  0  0  0  0
   -3.0720   16.7420  -34.3910 C   0  0  0  0  0  0  0  0  0  0  0  0
   -4.2460   15.9860  -34.3540 C   0  0  0  0  0  0  0  0  0  0  0  0
   -5.4930   16.6150  -34.1820 C   0  0  0  0  0  0  0  0  0  0  0  0
   -6.7500   15.7860  -34.1660 C   0  0  0  0  0  0  0  0  0  0  0  0
   -6.6570   21.5620  -32.0110 C   0  0  0  0  0  0  0  0  0  0  0  0
   -3.4230   21.8860  -32.3190 C   0  0  0  0  0  0  0  0  0  0  0  0
   -2.4550   20.9100  -32.5750 C   0  0  0  0  0  0  0  0  0  0  0  0
    0.3170   22.0966  -35.5909 H   0  0  0  0  0  0  0  0  0  0  0  0
   -0.9755   20.7018  -35.4735 H   0  0  0  0  0  0  0  0  0  0  0  0
    1.4817   21.1863  -33.6668 H   0  0  0  0  0  0  0  0  0  0  0  0
   -0.7506   19.0193  -33.9305 H   0  0  0  0  0  0  0  0  0  0  0  0
    0.8998   18.7372  -33.2548 H   0  0  0  0  0  0  0  0  0  0  0  0
   -0.3430   21.5325  -29.9571 H   0  0  0  0  0  0  0  0  0  0  0  0
   -2.0867   23.2495  -29.4806 H   0  0  0  0  0  0  0  0  0  0  0  0
   -8.4185   24.4927  -31.9223 H   0  0  0  0  0  0  0  0  0  0  0  0
  -10.3211   22.8786  -31.8857 H   0  0  0  0  0  0  0  0  0  0  0  0
   -9.8839   20.4251  -31.9981 H   0  0  0  0  0  0  0  0  0  0  0  0
   -7.1860   19.2850  -34.6010 H   0  0  0  0  0  0  0  0  0  0  0  0
   -4.3943   19.8614  -33.9784 H   0  0  0  0  0  0  0  0  0  0  0  0
   -2.2022   18.7258  -34.3126 H   0  0  0  0  0  0  0  0  0  0  0  0
   -2.1011   16.2410  -34.5190 H   0  0  0  0  0  0  0  0  0  0  0  0
   -4.1954   14.8923  -34.4600 H   0  0  0  0  0  0  0  0  0  0  0  0
   -7.0469   15.5902  -33.1251 H   0  0  0  0  0  0  0  0  0  0  0  0
   -7.5552   16.3309  -34.6806 H   0  0  0  0  0  0  0  0  0  0  0  0
   -6.5662   14.8313  -34.6806 H   0  0  0  0  0  0  0  0  0  0  0  0
   -5.6227   21.1874  -32.0063 H   0  0  0  0  0  0  0  0  0  0  0  0
   -4.2874   21.9900  -32.9913 H   0  0  0  0  0  0  0  0  0  0  0  0
   -2.5660   20.2467  -33.4455 H   0  0  0  0  0  0  0  0  0  0  0  0
  1  2  2  0
  2  3  1  0
  3  4  1  0
  4  5  1  0
  5  6  2  0
  6  7  1  0
  7  8  2  0
  8  9  1  0
  9 10  2  0
  9 11  2  0
  9 12  1  0
 12 13  1  0
 13 14  2  0
 14 15  1  0
 15 16  2  0
 16 17  1  0
 17 18  1  0
 18 19  2  0
 18 20  2  0
 18 21  1  0
 21 22  1  0
 22 23  2  0
 23 24  1  0
 24 25  2  0
 25 26  1  0
 26 27  2  0
 27 28  1  0
 17 29  2  0
  8 30  1  0
 30 31  2  0
 31  5  1  0
 29 13  1  0
 27 22  1  0
  1 32  1  0
  1 33  1  0
  2 34  1  0
  3 35  1  0
  3 36  1  0
  6 37  1  0
  7 38  1  0
 14 39  1  0
 15 40  1  0
 16 41  1  0
 21 42  1  0
 23 43  1  0
 24 44  1  0
 25 45  1  0
 26 46  1  0
 28 47  1  0
 28 48  1  0
 28 49  1  0
 29 50  1  0
 30 51  1  0
 31 52  1  0
M  CHG  1  12  -1
M  END
>  <UniqueID>  (4) 
4

>  <SMILES>  (4) 
C=CCOc1ccc(S(=O)(=O)[N-]c2cccc(S(=O)(=O)Nc3ccccc3C)c2)cc1

>  <Energy>  (4) 
57.99106094291475

>  <Genealogy>  (4) 
C=CCOc1ccc(S(=O)(=O)[N-]c2cccc(S(=O)(=O)Nc3ccccc3C)c2)cc1 (protonated)
C=CCOc1ccc(S(=O)(=O)[N-]c2cccc(S(=O)(=O)Nc3ccccc3C)c2)cc1 (3D coordinates assigned)
C=CCOc1ccc(S(=O)(=O)[N-]c2cccc(S(=O)(=O)Nc3ccccc3C)c2)cc1 (optimized conformer: 57.99106094291475 kcal/mol)

>  <smiles>  (4) 
C=CCOc1ccc(S(=O)(=O)Nc2cccc(S(=O)(=O)Nc3ccccc3C)c2)cc1

>  <score_type>  (4) 
oracle

>  <origin>  (4) 
adgpu

>  <m_score__min__energy>  (4) 
-11.27

>  <m_primary>  (4) 
energy

$$$$
4:0
     RDKit          3D

 41 43  0  0  0  0  0  0  0  0999 V2000
   -3.8720   22.2620  -33.4280 N   0  0  0  0  0  0  0  0  0  0  0  0
   -4.7940   20.9380  -32.8000 S   0  0  0  0  0  0  0  0  0  0  0  0
   -4.0920   20.3880  -31.5890 O   0  0  0  0  0  0  0  0  0  0  0  0
   -4.8990   19.8580  -33.8360 O   0  0  0  0  0  0  0  0  0  0  0  0
   -6.4130   21.4980  -32.3700 C   0  0  0  0  0  0  0  0  0  0  0  0
   -7.4920   20.6020  -32.4170 C   0  0  0  0  0  0  0  0  0  0  0  0
   -8.7730   21.0200  -32.0490 C   0  0  0  0  0  0  0  0  0  0  0  0
   -8.9860   22.3330  -31.6350 C   0  0  0  0  0  0  0  0  0  0  0  0
   -7.9230   23.2370  -31.5950 C   0  0  0  0  0  0  0  0  0  0  0  0
   -6.6270   22.8290  -31.9600 C   0  0  0  0  0  0  0  0  0  0  0  0
   -5.5190   23.7420  -31.9320 N   0  0  0  0  0  0  0  0  0  0  0  0
   -4.6800   24.2630  -30.5080 S   0  0  0  0  0  0  0  0  0  0  0  0
   -5.6790   24.6100  -29.4410 O   0  0  0  0  0  0  0  0  0  0  0  0
   -3.8720   25.4880  -30.8330 O   0  0  0  0  0  0  0  0  0  0  0  0
   -3.5900   22.9940  -29.9640 C   0  0  0  0  0  0  0  0  0  0  0  0
   -3.8670   22.3020  -28.7800 C   0  0  0  0  0  0  0  0  0  0  0  0
   -3.0120   21.2880  -28.3400 C   0  0  0  0  0  0  0  0  0  0  0  0
   -1.8640   20.9520  -29.0780 C   0  0  0  0  0  0  0  0  0  0  0  0
   -0.9600   19.8650  -28.6190 C   0  0  0  0  0  0  0  0  0  0  0  0
   -1.3360   19.0250  -27.5550 C   0  0  0  0  0  0  0  0  0  0  0  0
   -0.4860   18.0030  -27.1230 C   0  0  0  0  0  0  0  0  0  0  0  0
    0.7480   17.8060  -27.7480 C   0  0  0  0  0  0  0  0  0  0  0  0
    1.8120   16.5220  -27.2030 Cl  0  0  0  0  0  0  0  0  0  0  0  0
    1.1350   18.6360  -28.8040 C   0  0  0  0  0  0  0  0  0  0  0  0
    0.2880   19.6600  -29.2370 C   0  0  0  0  0  0  0  0  0  0  0  0
   -1.5890   21.6560  -30.2650 C   0  0  0  0  0  0  0  0  0  0  0  0
   -2.4470   22.6690  -30.7030 C   0  0  0  0  0  0  0  0  0  0  0  0
   -3.4030   21.9250  -34.2960 H   0  0  0  0  0  0  0  0  0  0  0  0
   -4.5510   23.0010  -33.7130 H   0  0  0  0  0  0  0  0  0  0  0  0
   -7.3281   19.5650  -32.7454 H   0  0  0  0  0  0  0  0  0  0  0  0
   -9.6141   20.3120  -32.0861 H   0  0  0  0  0  0  0  0  0  0  0  0
   -9.9942   22.6582  -31.3389 H   0  0  0  0  0  0  0  0  0  0  0  0
   -8.0998   24.2748  -31.2761 H   0  0  0  0  0  0  0  0  0  0  0  0
   -4.7616   22.5572  -28.1930 H   0  0  0  0  0  0  0  0  0  0  0  0
   -3.2392   20.7485  -27.4087 H   0  0  0  0  0  0  0  0  0  0  0  0
   -2.3066   19.1737  -27.0591 H   0  0  0  0  0  0  0  0  0  0  0  0
   -0.7891   17.3525  -26.2893 H   0  0  0  0  0  0  0  0  0  0  0  0
    2.1074   18.4831  -29.2949 H   0  0  0  0  0  0  0  0  0  0  0  0
    0.5991   20.3109  -30.0674 H   0  0  0  0  0  0  0  0  0  0  0  0
   -0.6927   21.4075  -30.8523 H   0  0  0  0  0  0  0  0  0  0  0  0
   -2.2227   23.2129  -31.6324 H   0  0  0  0  0  0  0  0  0  0  0  0
  1  2  1  0
  2  3  2  0
  2  4  2  0
  2  5  1  0
  5  6  2  0
  6  7  1  0
  7  8  2  0
  8  9  1  0
  9 10  2  0
 10 11  1  0
 11 12  1  0
 12 13  2  0
 12 14  2  0
 12 15  1  0
 15 16  2  0
 16 17  1  0
 17 18  2  0
 18 19  1  0
 19 20  2  0
 20 21  1  0
 21 22  2  0
 22 23  1  0
 22 24  1  0
 24 25  2  0
 18 26  1  0
 26 27  2  0
 10  5  1  0
 27 15  1  0
 25 19  1  0
  1 28  1  0
  1 29  1  0
  6 30  1  0
  7 31  1  0
  8 32  1  0
  9 33  1  0
 16 34  1  0
 17 35  1  0
 20 36  1  0
 21 37  1  0
 24 38  1  0
 25 39  1  0
 26 40  1  0
 27 41  1  0
M  CHG  1  11  -1
M  END
>  <UniqueID>  (5) 
5

>  <SMILES>  (5) 
NS(=O)(=O)c1ccccc1[N-]S(=O)(=O)c1ccc(-c2ccc(Cl)cc2)cc1

>  <Energy>  (5) 
51.46249619546486

>  <Genealogy>  (5) 
NS(=O)(=O)c1ccccc1[N-]S(=O)(=O)c1ccc(-c2ccc(Cl)cc2)cc1 (protonated)
NS(=O)(=O)c1ccccc1[N-]S(=O)(=O)c1ccc(-c2ccc(Cl)cc2)cc1 (3D coordinates assigned)
NS(=O)(=O)c1ccccc1[N-]S(=O)(=O)c1ccc(-c2ccc(Cl)cc2)cc1 (optimized conformer: 51.46249619546486 kcal/mol)

>  <smiles>  (5) 
NS(=O)(=O)c1ccccc1NS(=O)(=O)c1ccc(-c2ccc(Cl)cc2)cc1

>  <score_type>  (5) 
oracle

>  <origin>  (5) 
adgpu

>  <m_score__min__energy>  (5) 
-10.27

>  <m_primary>  (5) 
energy

$$$$
5:0
     RDKit          3D

 52 55  0  0  1  0  0  0  0  0999 V2000
   -4.1770   13.3860  -31.5860 C   0  0  0  0  0  0  0  0  0  0  0  0
   -4.9180   14.1450  -32.6080 C   0  0  0  0  0  0  0  0  0  0  0  0
   -4.8640   15.5080  -32.8260 C   0  0  0  0  0  0  0  0  0  0  0  0
   -5.7240   15.7430  -33.8800 C   0  0  0  0  0  0  0  0  0  0  0  0
   -6.0290   16.8520  -34.4650 N   0  0  0  0  0  0  0  0  0  0  0  0
   -5.4060   18.0370  -33.9810 C   0  0  0  0  0  0  0  0  0  0  0  0
   -6.1600   18.9130  -33.2670 N   0  0  0  0  0  0  0  0  0  0  0  0
   -5.6020   20.0460  -32.7930 C   0  0  0  0  0  0  0  0  0  0  0  0
   -6.3410   20.8520  -32.1230 N   0  0  0  0  0  0  0  0  0  0  0  0
   -5.7570   22.0500  -31.6200 C   0  0  0  0  0  0  0  0  0  0  0  0
   -4.7040   22.0840  -30.7510 C   0  0  0  0  0  0  0  0  0  0  0  0
   -4.1600   23.2800  -30.2800 C   0  0  0  0  0  0  0  0  0  0  0  0
   -4.7230   24.4810  -30.7210 C   0  0  0  0  0  0  0  0  0  0  0  0
   -4.1620   25.6440  -30.2370 O   0  0  0  0  0  0  0  0  0  0  0  0
   -5.7870   24.4490  -31.6000 C   0  0  0  0  0  0  0  0  0  0  0  0
   -6.3100   23.2590  -32.0530 C   0  0  0  0  0  0  0  0  0  0  0  0
   -4.2680   20.3000  -33.0390 C   0  0  0  0  0  0  0  0  0  0  0  0
   -3.4840   19.4070  -33.7700 C   0  0  0  0  0  0  0  0  0  0  0  0
   -2.1100   19.6740  -34.0210 N   0  0  0  0  0  0  0  0  0  0  0  0
   -1.4950   20.9660  -33.7860 C   0  0  0  0  0  0  0  0  0  0  0  0
   -0.4860   21.1630  -34.9140 C   0  0  0  0  0  0  0  0  0  0  0  0
    0.5750   20.2150  -34.7820 N   0  0  0  0  0  0  0  0  0  0  0  0
    1.6210   20.7910  -33.9780 C   0  0  0  0  0  0  0  0  0  0  0  0
    0.1720   18.9650  -34.2120 C   0  0  0  0  0  0  0  0  0  0  0  0
   -1.2790   18.6100  -34.5380 C   0  0  0  0  0  0  0  0  0  0  0  0
   -4.0990   18.3000  -34.2130 N   0  0  0  0  0  0  0  0  0  0  0  0
   -6.2430   14.5570  -34.2430 N   0  0  0  0  0  0  0  0  0  0  0  0
   -5.7710   13.5920  -33.4930 N   0  0  0  0  0  0  0  0  0  0  0  0
   -4.4952   13.7119  -30.5848 H   0  0  0  0  0  0  0  0  0  0  0  0
   -4.3839   12.3122  -31.7050 H   0  0  0  0  0  0  0  0  0  0  0  0
   -3.0985   13.5670  -31.7050 H   0  0  0  0  0  0  0  0  0  0  0  0
   -4.2637   16.2483  -32.2768 H   0  0  0  0  0  0  0  0  0  0  0  0
   -4.2684   21.1334  -30.4095 H   0  0  0  0  0  0  0  0  0  0  0  0
   -3.3110   23.2775  -29.5805 H   0  0  0  0  0  0  0  0  0  0  0  0
   -3.8530   26.4300  -30.8190 H   0  0  0  0  0  0  0  0  0  0  0  0
   -6.2269   25.3959  -31.9463 H   0  0  0  0  0  0  0  0  0  0  0  0
   -7.1590   23.2592  -32.7524 H   0  0  0  0  0  0  0  0  0  0  0  0
   -3.8143   21.2240  -32.6514 H   0  0  0  0  0  0  0  0  0  0  0  0
   -2.2549   21.7610  -33.8097 H   0  0  0  0  0  0  0  0  0  0  0  0
   -1.0099   21.0079  -32.7996 H   0  0  0  0  0  0  0  0  0  0  0  0
   -0.9873   21.0183  -35.8824 H   0  0  0  0  0  0  0  0  0  0  0  0
   -0.0735   22.1813  -34.8601 H   0  0  0  0  0  0  0  0  0  0  0  0
    1.3800   20.6583  -32.9130 H   0  0  0  0  0  0  0  0  0  0  0  0
    2.5744   20.2907  -34.2033 H   0  0  0  0  0  0  0  0  0  0  0  0
    1.7079   21.8642  -34.2033 H   0  0  0  0  0  0  0  0  0  0  0  0
    0.8254   18.1719  -34.6046 H   0  0  0  0  0  0  0  0  0  0  0  0
    0.2551   19.0554  -33.1189 H   0  0  0  0  0  0  0  0  0  0  0  0
   -1.4101   18.5256  -35.6269 H   0  0  0  0  0  0  0  0  0  0  0  0
   -1.5547   17.6463  -34.0850 H   0  0  0  0  0  0  0  0  0  0  0  0
   -3.5830   17.5890  -34.7640 H   0  0  0  0  0  0  0  0  0  0  0  0
   -6.9340   14.3950  -35.0170 H   0  0  0  0  0  0  0  0  0  0  0  0
   -6.0020   12.5740  -33.5520 H   0  0  0  0  0  0  0  0  0  0  0  0
  1  2  1  0
  2  3  2  0
  3  4  1  0
  4  5  2  0
  5  6  1  0
  6  7  2  0
  7  8  1  0
  8  9  2  0
  9 10  1  0
 10 11  2  0
 11 12  1  0
 12 13  2  0
 13 14  1  0
 13 15  1  0
 15 16  2  0
  8 17  1  0
 17 18  2  0
 18 19  1  0
 19 20  1  0
 20 21  1  0
 21 22  1  0
 22 23  1  0
 22 24  1  0
 24 25  1  0
 18 26  1  0
  4 27  1  0
 27 28  1  0
 28  2  1  0
 26  6  1  0
 16 10  1  0
 25 19  1  0
  1 29  1  0
  1 30  1  0
  1 31  1  0
  3 32  1  0
 11 33  1  0
 12 34  1  0
 14 35  1  0
 15 36  1  0
 16 37  1  0
 17 38  1  0
 20 39  1  0
 20 40  1  0
 21 41  1  0
 21 42  1  0
 23 43  1  0
 23 44  1  0
 23 45  1  0
 24 46  1  0
 24 47  1  0
 25 48  1  0
 25 49  1  0
 26 50  1  0
 27 51  1  0
 28 52  1  0
M  END
>  <smiles>  (6) 
Cc1cc(=Nc2nc(=Nc3ccc(O)cc3)cc(N3CCN(C)CC3)[nH]2)[nH][nH]1

>  <score_type>  (6) 
oracle

>  <origin>  (6) 
adgpu

>  <m_score__min__energy>  (6) 
-8.2300000000000004

>  <m_primary>  (6) 
energy

$$$$
6:0
     RDKit          3D

 29 30  0  0  1  0  0  0  0  0999 V2000
   -1.0910   25.3190  -28.2200 C   0  0  0  0  0  0  0  0  0  0  0  0
   -1.9480   25.2960  -29.3240 O   0  0  0  0  0  0  0  0  0  0  0  0
   -3.0930   24.5570  -29.4570 C   0  0  0  0  0  0  0  0  0  0  0  0
   -3.9590   24.7110  -30.4930 N   0  0  0  0  0  0  0  0  0  0  0  0
   -5.0810   23.9530  -30.5800 C   0  0  0  0  0  0  0  0  0  0  0  0
   -5.8780   24.1200  -31.5670 N   0  0  0  0  0  0  0  0  0  0  0  0
   -7.3170   23.1790  -31.7190 S   0  0  0  0  0  0  0  0  0  0  0  0
   -7.9660   22.9110  -30.3810 O   0  0  0  0  0  0  0  0  0  0  0  0
   -8.2810   23.7380  -32.7200 O   0  0  0  0  0  0  0  0  0  0  0  0
   -6.7930   21.6120  -32.3480 C   0  0  0  0  0  0  0  0  0  0  0  0
   -7.7040   20.6090  -32.4700 C   0  0  0  0  0  0  0  0  0  0  0  0
   -7.3420   19.3590  -32.9600 C   0  0  0  0  0  0  0  0  0  0  0  0
   -6.0290   19.1300  -33.3300 C   0  0  0  0  0  0  0  0  0  0  0  0
   -5.5280   17.5630  -33.9540 Cl  0  0  0  0  0  0  0  0  0  0  0  0
   -5.0910   20.1540  -33.2070 C   0  0  0  0  0  0  0  0  0  0  0  0
   -5.4620   21.4040  -32.7160 C   0  0  0  0  0  0  0  0  0  0  0  0
   -5.3420   23.0210  -29.6070 C   0  0  0  0  0  0  0  0  0  0  0  0
   -4.4710   22.8560  -28.5500 C   0  0  0  0  0  0  0  0  0  0  0  0
   -3.3630   23.6380  -28.5090 N   0  0  0  0  0  0  0  0  0  0  0  0
   -1.6850   25.3031  -27.2943 H   0  0  0  0  0  0  0  0  0  0  0  0
   -0.4327   24.4382  -28.2484 H   0  0  0  0  0  0  0  0  0  0  0  0
   -0.4809   26.2338  -28.2484 H   0  0  0  0  0  0  0  0  0  0  0  0
   -8.7481   20.7905  -32.1751 H   0  0  0  0  0  0  0  0  0  0  0  0
   -8.0925   18.5601  -33.0525 H   0  0  0  0  0  0  0  0  0  0  0  0
   -4.0465   19.9731  -33.5008 H   0  0  0  0  0  0  0  0  0  0  0  0
   -4.7210   22.2113  -32.6201 H   0  0  0  0  0  0  0  0  0  0  0  0
   -6.2497   22.4028  -29.6702 H   0  0  0  0  0  0  0  0  0  0  0  0
   -4.6689   22.1125  -27.7638 H   0  0  0  0  0  0  0  0  0  0  0  0
   -2.7060   23.5100  -27.7080 H   0  0  0  0  0  0  0  0  0  0  0  0
  1  2  1  0
  2  3  1  0
  3  4  2  0
  4  5  1  0
  5  6  2  0
  6  7  1  0
  7  8  2  0
  7  9  2  0
  7 10  1  0
 10 11  2  0
 11 12  1  0
 12 13  2  0
 13 14  1  0
 13 15  1  0
 15 16  2  0
  5 17  1  0
 17 18  2  0
 18 19  1  0
 19  3  1  0
 16 10  1  0
  1 20  1  0
  1 21  1  0
  1 22  1  0
 11 23  1  0
 12 24  1  0
 15 25  1  0
 16 26  1  0
 17 27  1  0
 18 28  1  0
 19 29  1  0
M  END
>  <smiles>  (7) 
COc1nc(=NS(=O)(=O)c2ccc(Cl)cc2)cc[nH]1

>  <score_type>  (7) 
oracle

>  <origin>  (7) 
adgpu

>  <m_score__min__energy>  (7) 
-7.9400000000000004

>  <m_primary>  (7) 
energy

$$$$
7:0
     RDKit          3D

 47 50  0  0  0  0  0  0  0  0999 V2000
   -0.3020   21.4740  -31.8560 C   0  0  0  0  0  0  0  0  0  0  0  0
   -1.3820   20.5700  -32.3720 C   0  0  0  0  0  0  0  0  0  0  0  0
   -1.3160   19.1810  -32.1720 C   0  0  0  0  0  0  0  0  0  0  0  0
   -2.3180   18.3490  -32.6800 C   0  0  0  0  0  0  0  0  0  0  0  0
   -3.3860   18.8930  -33.4070 C   0  0  0  0  0  0  0  0  0  0  0  0
   -4.6190   17.8430  -34.1030 S   0  0  0  0  0  0  0  0  0  0  0  0
   -4.8200   16.6330  -33.2350 O   0  0  0  0  0  0  0  0  0  0  0  0
   -4.1650   17.3990  -35.4640 O   0  0  0  0  0  0  0  0  0  0  0  0
   -6.1320   18.6800  -34.2530 N   0  0  0  0  0  0  0  0  0  0  0  0
   -6.7790   19.4100  -33.2040 C   0  0  0  0  0  0  0  0  0  0  0  0
   -8.0220   18.9430  -32.7180 C   0  0  0  0  0  0  0  0  0  0  0  0
   -8.7110   19.6420  -31.7130 C   0  0  0  0  0  0  0  0  0  0  0  0
   -8.1310   20.8030  -31.2110 C   0  0  0  0  0  0  0  0  0  0  0  0
   -8.6500   21.6420  -30.2990 N   0  0  0  0  0  0  0  0  0  0  0  0
   -7.7620   22.6530  -30.1700 C   0  0  0  0  0  0  0  0  0  0  0  0
   -6.6610   22.4430  -30.9960 C   0  0  0  0  0  0  0  0  0  0  0  0
   -5.5200   23.3640  -31.1660 C   0  0  0  0  0  0  0  0  0  0  0  0
   -5.5810   24.2460  -32.0660 O   0  0  0  0  0  0  0  0  0  0  0  0
   -4.2990   23.2750  -30.3410 C   0  0  0  0  0  0  0  0  0  0  0  0
   -3.9010   22.0520  -29.8920 N   0  0  0  0  0  0  0  0  0  0  0  0
   -2.7890   21.8850  -29.1250 C   0  0  0  0  0  0  0  0  0  0  0  0
   -2.3890   20.5110  -28.6910 C   0  0  0  0  0  0  0  0  0  0  0  0
   -2.0000   22.9930  -28.7960 C   0  0  0  0  0  0  0  0  0  0  0  0
   -2.3720   24.2570  -29.2550 C   0  0  0  0  0  0  0  0  0  0  0  0
   -3.5180   24.4070  -30.0360 C   0  0  0  0  0  0  0  0  0  0  0  0
   -3.8550   25.6680  -30.5170 O   0  0  0  0  0  0  0  0  0  0  0  0
   -6.9190   21.2580  -31.6650 C   0  0  0  0  0  0  0  0  0  0  0  0
   -6.2180   20.5910  -32.6670 C   0  0  0  0  0  0  0  0  0  0  0  0
   -3.4570   20.2780  -33.6000 C   0  0  0  0  0  0  0  0  0  0  0  0
   -2.4630   21.1130  -33.0810 C   0  0  0  0  0  0  0  0  0  0  0  0
   -0.3116   21.4660  -30.7561 H   0  0  0  0  0  0  0  0  0  0  0  0
    0.6753   21.1208  -32.2168 H   0  0  0  0  0  0  0  0  0  0  0  0
   -0.4777   22.4982  -32.2168 H   0  0  0  0  0  0  0  0  0  0  0  0
   -0.4733   18.7468  -31.6140 H   0  0  0  0  0  0  0  0  0  0  0  0
   -2.2682   17.2636  -32.5086 H   0  0  0  0  0  0  0  0  0  0  0  0
   -8.4550   18.0205  -33.1322 H   0  0  0  0  0  0  0  0  0  0  0  0
   -9.6793   19.2826  -31.3345 H   0  0  0  0  0  0  0  0  0  0  0  0
   -9.5670   21.5480  -29.8050 H   0  0  0  0  0  0  0  0  0  0  0  0
   -7.8911   23.5201  -29.5056 H   0  0  0  0  0  0  0  0  0  0  0  0
   -2.3751   20.4631  -27.5921 H   0  0  0  0  0  0  0  0  0  0  0  0
   -3.1112   19.7786  -29.0808 H   0  0  0  0  0  0  0  0  0  0  0  0
   -1.3865   20.2807  -29.0808 H   0  0  0  0  0  0  0  0  0  0  0  0
   -1.0959   22.8687  -28.1819 H   0  0  0  0  0  0  0  0  0  0  0  0
   -1.7612   25.1358  -29.0008 H   0  0  0  0  0  0  0  0  0  0  0  0
   -5.2529   20.9734  -33.0309 H   0  0  0  0  0  0  0  0  0  0  0  0
   -4.2978   20.7106  -34.1620 H   0  0  0  0  0  0  0  0  0  0  0  0
   -2.5293   22.2009  -33.2295 H   0  0  0  0  0  0  0  0  0  0  0  0
  1  2  1  0
  2  3  2  0
  3  4  1  0
  4  5  2  0
  5  6  1  0
  6  7  2  0
  6  8  2  0
  6  9  1  0
  9 10  1  0
 10 11  2  0
 11 12  1  0
 12 13  2  0
 13 14  1  0
 14 15  1  0
 15 16  2  0
 16 17  1  0
 17 18  2  0
 17 19  1  0
 19 20  2  0
 20 21  1  0
 21 22  1  0
 21 23  2  0
 23 24  1  0
 24 25  2  0
 25 26  1  0
 16 27  1  0
 27 28  2  0
  5 29  1  0
 29 30  2  0
 30  2  1  0
 28 10  1  0
 27 13  1  0
 25 19  1  0
  1 31  1  0
  1 32  1  0
  1 33  1  0
  3 34  1  0
  4 35  1  0
 11 36  1  0
 12 37  1  0
 14 38  1  0
 15 39  1  0
 22 40  1  0
 22 41  1  0
 22 42  1  0
 23 43  1  0
 24 44  1  0
 28 45  1  0
 29 46  1  0
 30 47  1  0
M  CHG  2   9  -1  26  -1
M  END
>  <UniqueID>  (8) 
6

>  <SMILES>  (8) 
Cc1ccc(S(=O)(=O)[N-]c2ccc3[nH]cc(C(=O)c4nc(C)ccc4[O-])c3c2)cc1

>  <Energy>  (8) 
88.45930805915074

>  <Genealogy>  (8) 
Cc1ccc(S(=O)(=O)[N-]c2ccc3[nH]cc(C(=O)c4nc(C)ccc4[O-])c3c2)cc1 (protonated)
Cc1ccc(S(=O)(=O)[N-]c2ccc3[nH]cc(C(=O)c4nc(C)ccc4[O-])c3c2)cc1 (3D coordinates assigned)
Cc1ccc(S(=O)(=O)[N-]c2ccc3[nH]cc(C(=O)c4nc(C)ccc4[O-])c3c2)cc1 (optimized conformer: 88.45930805915074 kcal/mol)

>  <smiles>  (8) 
Cc1ccc(S(=O)(=O)Nc2ccc3[nH]cc(C(=O)c4nc(C)ccc4O)c3c2)cc1

>  <score_type>  (8) 
oracle

>  <origin>  (8) 
adgpu

>  <m_score__min__energy>  (8) 
-12.67

>  <m_primary>  (8) 
energy

$$$$
8:0
     RDKit          3D

 67 70  0  0  0  0  0  0  0  0999 V2000
    0.4200   19.7050  -33.4510 C   0  0  0  0  0  0  0  0  0  0  0  0
   -0.4370   20.8300  -33.6270 O   0  0  0  0  0  0  0  0  0  0  0  0
   -1.8090   20.8290  -33.3390 C   0  0  0  0  0  0  0  0  0  0  0  0
   -2.5620   19.7020  -33.6870 C   0  0  0  0  0  0  0  0  0  0  0  0
   -3.9320   19.6470  -33.4090 C   0  0  0  0  0  0  0  0  0  0  0  0
   -4.5660   20.7190  -32.7650 C   0  0  0  0  0  0  0  0  0  0  0  0
   -6.0150   20.6540  -32.4770 C   0  0  0  0  0  0  0  0  0  0  0  0
   -6.7560   19.4860  -32.3870 C   0  0  0  0  0  0  0  0  0  0  0  0
   -8.0320   19.8180  -32.1050 N   0  0  0  0  0  0  0  0  0  0  0  0
   -9.1690   18.9110  -31.9980 C   0  0  0  0  0  0  0  0  0  0  0  0
   -8.0500   21.1640  -32.0350 C   0  0  0  0  0  0  0  0  0  0  0  0
   -9.0920   21.8370  -31.8140 O   0  0  0  0  0  0  0  0  0  0  0  0
   -6.8330   21.7110  -32.2390 N   0  0  0  0  0  0  0  0  0  0  0  0
   -6.5000   23.1360  -32.1830 C   0  0  0  0  0  0  0  0  0  0  0  0
   -6.8290   23.6980  -30.8240 C   0  0  0  0  0  0  0  0  0  0  0  0
   -6.1200   24.6780  -30.2410 C   0  0  0  0  0  0  0  0  0  0  0  0
   -4.8690   25.2670  -30.8400 C   0  0  0  0  0  0  0  0  0  0  0  0
   -3.7630   25.1140  -29.9480 O   0  0  0  0  0  0  0  0  0  0  0  0
   -3.0930   23.9060  -29.6920 C   0  0  0  0  0  0  0  0  0  0  0  0
   -3.8570   22.7670  -29.4120 C   0  0  0  0  0  0  0  0  0  0  0  0
   -3.2380   21.5420  -29.1440 C   0  0  0  0  0  0  0  0  0  0  0  0
   -1.8400   21.4370  -29.1620 C   0  0  0  0  0  0  0  0  0  0  0  0
   -1.2040   20.1750  -28.9000 N   0  0  0  0  0  0  0  0  0  0  0  0
   -1.2570   19.6010  -27.5480 C   0  0  0  0  0  0  0  0  0  0  0  0
   -0.6450   18.1950  -27.5050 C   0  0  0  0  0  0  0  0  0  0  0  0
    0.6440   18.1650  -28.2190 N   0  0  0  0  0  0  0  0  0  0  0  0
    1.7260   17.3480  -27.7200 C   0  0  0  0  0  0  0  0  0  0  0  0
    3.0600   17.3080  -28.4080 C   0  0  0  0  0  0  0  0  0  0  0  0
    1.5590   16.6290  -26.6970 O   0  0  0  0  0  0  0  0  0  0  0  0
    0.7790   18.8570  -29.5140 C   0  0  0  0  0  0  0  0  0  0  0  0
   -0.5540   19.4410  -29.9920 C   0  0  0  0  0  0  0  0  0  0  0  0
   -1.0690   22.5740  -29.4510 C   0  0  0  0  0  0  0  0  0  0  0  0
   -1.6880   23.8000  -29.7120 C   0  0  0  0  0  0  0  0  0  0  0  0
   -3.8180   21.8600  -32.4350 C   0  0  0  0  0  0  0  0  0  0  0  0
   -2.4500   21.9160  -32.7190 C   0  0  0  0  0  0  0  0  0  0  0  0
    0.5629   19.5174  -32.3766 H   0  0  0  0  0  0  0  0  0  0  0  0
   -0.0352   18.8204  -33.9203 H   0  0  0  0  0  0  0  0  0  0  0  0
    1.3938   19.9089  -33.9203 H   0  0  0  0  0  0  0  0  0  0  0  0
   -2.0722   18.8515  -34.1837 H   0  0  0  0  0  0  0  0  0  0  0  0
   -4.5141   18.7592  -33.6968 H   0  0  0  0  0  0  0  0  0  0  0  0
   -6.3698   18.4649  -32.5222 H   0  0  0  0  0  0  0  0  0  0  0  0
   -9.3954   18.7304  -30.9368 H   0  0  0  0  0  0  0  0  0  0  0  0
  -10.0447   19.3613  -32.4882 H   0  0  0  0  0  0  0  0  0  0  0  0
   -8.9245   17.9571  -32.4882 H   0  0  0  0  0  0  0  0  0  0  0  0
   -5.4252   23.2653  -32.3784 H   0  0  0  0  0  0  0  0  0  0  0  0
   -7.0887   23.6707  -32.9429 H   0  0  0  0  0  0  0  0  0  0  0  0
   -7.6929   23.2849  -30.2827 H   0  0  0  0  0  0  0  0  0  0  0  0
   -6.4708   25.0715  -29.2755 H   0  0  0  0  0  0  0  0  0  0  0  0
   -4.6443   24.7523  -31.7858 H   0  0  0  0  0  0  0  0  0  0  0  0
   -5.0334   26.3397  -31.0197 H   0  0  0  0  0  0  0  0  0  0  0  0
   -4.9548   22.8362  -29.4027 H   0  0  0  0  0  0  0  0  0  0  0  0
   -3.8507   20.6568  -28.9180 H   0  0  0  0  0  0  0  0  0  0  0  0
   -0.6987   20.2541  -26.8611 H   0  0  0  0  0  0  0  0  0  0  0  0
   -2.3127   19.5251  -27.2485 H   0  0  0  0  0  0  0  0  0  0  0  0
   -0.4838   17.9034  -26.4567 H   0  0  0  0  0  0  0  0  0  0  0  0
   -1.3365   17.4935  -27.9946 H   0  0  0  0  0  0  0  0  0  0  0  0
    3.8608   17.2840  -27.6542 H   0  0  0  0  0  0  0  0  0  0  0  0
    3.1214   16.4076  -29.0369 H   0  0  0  0  0  0  0  0  0  0  0  0
    3.1752   18.2031  -29.0369 H   0  0  0  0  0  0  0  0  0  0  0  0
    1.5070   19.6746  -29.4060 H   0  0  0  0  0  0  0  0  0  0  0  0
    1.1157   18.1217  -30.2597 H   0  0  0  0  0  0  0  0  0  0  0  0
   -0.3703   20.1266  -30.8323 H   0  0  0  0  0  0  0  0  0  0  0  0
   -1.2112   18.6202  -30.3151 H   0  0  0  0  0  0  0  0  0  0  0  0
    0.0283   22.4998  -29.4722 H   0  0  0  0  0  0  0  0  0  0  0  0
   -1.0753   24.6862  -29.9340 H   0  0  0  0  0  0  0  0  0  0  0  0
   -4.3110   22.7154  -31.9500 H   0  0  0  0  0  0  0  0  0  0  0  0
   -1.8726   22.8146  -32.4561 H   0  0  0  0  0  0  0  0  0  0  0  0
  1  2  1  0
  2  3  1  0
  3  4  2  0
  4  5  1  0
  5  6  2  0
  6  7  1  0
  7  8  2  0
  8  9  1  0
  9 10  1  0
  9 11  1  0
 11 12  2  0
 11 13  1  0
 13 14  1  0
 14 15  1  0
 15 16  2  3
 16 17  1  0
 17 18  1  0
 18 19  1  0
 19 20  2  0
 20 21  1  0
 21 22  2  0
 22 23  1  0
 23 24  1  0
 24 25  1  0
 25 26  1  0
 26 27  1  0
 27 28  1  0
 27 29  2  0
 26 30  1  0
 30 31  1  0
 22 32  1  0
 32 33  2  0
  6 34  1  0
 34 35  2  0
 35  3  1  0
 13  7  1  0
 33 19  1  0
 31 23  1  0
  1 36  1  0
  1 37  1  0
  1 38  1  0
  4 39  1  0
  5 40  1  0
  8 41  1  0
 10 42  1  0
 10 43  1  0
 10 44  1  0
 14 45  1  0
 14 46  1  0
 15 47  1  0
 16 48  1  0
 17 49  1  0
 17 50  1  0
 20 51  1  0
 21 52  1  0
 24 53  1  0
 24 54  1  0
 25 55  1  0
 25 56  1  0
 28 57  1  0
 28 58  1  0
 28 59  1  0
 30 60  1  0
 30 61  1  0
 31 62  1  0
 31 63  1  0
 32 64  1  0
 33 65  1  0
 34 66  1  0
 35 67  1  0
M  END
>  <UniqueID>  (9) 
7

>  <SMILES>  (9) 
COc1ccc(-c2cn(C)c(=O)n2CC=CCOc2ccc(N3CCN(C(C)=O)CC3)cc2)cc1

>  <Energy>  (9) 
106.99029805804477

>  <Genealogy>  (9) 
COc1ccc(-c2cn(C)c(=O)n2CC=CCOc2ccc(N3CCN(C(C)=O)CC3)cc2)cc1 (3D coordinates assigned)
COc1ccc(-c2cn(C)c(=O)n2CC=CCOc2ccc(N3CCN(C(C)=O)CC3)cc2)cc1 (nonaromatic ring conformer: 106.99029805804477 kcal/mol)

>  <smiles>  (9) 
COc1ccc(-c2cn(C)c(=O)n2CC=CCOc2ccc(N3CCN(C(C)=O)CC3)cc2)cc1

>  <score_type>  (9) 
oracle

>  <origin>  (9) 
adgpu

>  <m_score__min__energy>  (9) 
-9.2100000000000009

>  <m_primary>  (9) 
energy

$$$$
9:0
     RDKit          3D

 64 68  0  0  0  0  0  0  0  0999 V2000
    0.9710   17.4270  -28.4190 C   0  0  0  0  0  0  0  0  0  0  0  0
    1.0510   16.9370  -29.7540 O   0  0  0  0  0  0  0  0  0  0  0  0
    0.2930   17.4310  -30.8260 C   0  0  0  0  0  0  0  0  0  0  0  0
    0.1210   18.8080  -31.0560 C   0  0  0  0  0  0  0  0  0  0  0  0
   -0.6390   19.2550  -32.1410 C   0  0  0  0  0  0  0  0  0  0  0  0
   -1.2510   18.3350  -33.0090 C   0  0  0  0  0  0  0  0  0  0  0  0
   -2.0310   18.7910  -34.2220 C   0  0  0  0  0  0  0  0  0  0  0  0
   -3.4560   19.0550  -33.9030 N   0  0  0  0  0  0  0  0  0  0  0  0
   -4.4060   18.1290  -34.2860 C   0  0  0  0  0  0  0  0  0  0  0  0
   -3.9870   16.6220  -35.1900 S   0  0  0  0  0  0  0  0  0  0  0  0
   -4.9940   15.5100  -34.1390 C   0  0  0  0  0  0  0  0  0  0  0  0
   -4.1330   14.6670  -33.2390 C   0  0  0  0  0  0  0  0  0  0  0  0
   -4.6340   14.1960  -32.0130 C   0  0  0  0  0  0  0  0  0  0  0  0
   -3.8630   13.3450  -31.2170 C   0  0  0  0  0  0  0  0  0  0  0  0
   -2.5840   12.9650  -31.6340 C   0  0  0  0  0  0  0  0  0  0  0  0
   -1.8440   12.1210  -30.8720 F   0  0  0  0  0  0  0  0  0  0  0  0
   -2.0740   13.4370  -32.8470 C   0  0  0  0  0  0  0  0  0  0  0  0
   -2.8450   14.2820  -33.6510 C   0  0  0  0  0  0  0  0  0  0  0  0
   -5.7180   18.3400  -34.0260 N   0  0  0  0  0  0  0  0  0  0  0  0
   -6.1610   19.4600  -33.4180 C   0  0  0  0  0  0  0  0  0  0  0  0
   -7.3980   19.6060  -33.2260 O   0  0  0  0  0  0  0  0  0  0  0  0
   -5.2450   20.4350  -33.0110 C   0  0  0  0  0  0  0  0  0  0  0  0
   -5.6770   21.6200  -32.3890 C   0  0  0  0  0  0  0  0  0  0  0  0
   -4.7500   22.5630  -31.9260 C   0  0  0  0  0  0  0  0  0  0  0  0
   -5.1630   23.8010  -31.3300 N   0  0  0  0  0  0  0  0  0  0  0  0
   -4.4040   24.6090  -30.4200 C   0  0  0  0  0  0  0  0  0  0  0  0
   -3.8810   25.6730  -30.8480 O   0  0  0  0  0  0  0  0  0  0  0  0
   -4.1730   24.1950  -28.9910 C   0  0  0  0  0  0  0  0  0  0  0  0
   -3.1110   23.1300  -28.9100 C   0  0  0  0  0  0  0  0  0  0  0  0
   -3.4160   21.8610  -28.3890 C   0  0  0  0  0  0  0  0  0  0  0  0
   -2.4210   20.8840  -28.2880 C   0  0  0  0  0  0  0  0  0  0  0  0
   -1.1170   21.1670  -28.7060 C   0  0  0  0  0  0  0  0  0  0  0  0
   -0.8030   22.4310  -29.2130 C   0  0  0  0  0  0  0  0  0  0  0  0
   -1.7940   23.4130  -29.3080 C   0  0  0  0  0  0  0  0  0  0  0  0
   -3.3900   22.3280  -32.1120 C   0  0  0  0  0  0  0  0  0  0  0  0
   -2.9440   21.1640  -32.7390 C   0  0  0  0  0  0  0  0  0  0  0  0
   -3.8610   20.2000  -33.2330 C   0  0  0  0  0  0  0  0  0  0  0  0
   -1.0680   16.9610  -32.7820 C   0  0  0  0  0  0  0  0  0  0  0  0
   -0.3090   16.5150  -31.6970 C   0  0  0  0  0  0  0  0  0  0  0  0
   -0.1470   15.1830  -31.4960 F   0  0  0  0  0  0  0  0  0  0  0  0
    1.1070   16.5938  -27.7138 H   0  0  0  0  0  0  0  0  0  0  0  0
    1.7585   18.1775  -28.2561 H   0  0  0  0  0  0  0  0  0  0  0  0
   -0.0143   17.8881  -28.2561 H   0  0  0  0  0  0  0  0  0  0  0  0
    0.5874   19.5378  -30.3779 H   0  0  0  0  0  0  0  0  0  0  0  0
   -0.7587   20.3343  -32.3164 H   0  0  0  0  0  0  0  0  0  0  0  0
   -1.5770   19.7154  -34.6086 H   0  0  0  0  0  0  0  0  0  0  0  0
   -1.9952   17.9853  -34.9701 H   0  0  0  0  0  0  0  0  0  0  0  0
   -5.6687   16.1190  -33.5193 H   0  0  0  0  0  0  0  0  0  0  0  0
   -5.5639   14.8379  -34.7974 H   0  0  0  0  0  0  0  0  0  0  0  0
   -5.6374   14.4987  -31.6788 H   0  0  0  0  0  0  0  0  0  0  0  0
   -4.2626   12.9739  -30.2617 H   0  0  0  0  0  0  0  0  0  0  0  0
   -1.0643   13.1431  -33.1695 H   0  0  0  0  0  0  0  0  0  0  0  0
   -2.4431   14.6464  -34.6079 H   0  0  0  0  0  0  0  0  0  0  0  0
   -6.7536   21.8084  -32.2647 H   0  0  0  0  0  0  0  0  0  0  0  0
   -3.8509   25.0710  -28.4089 H   0  0  0  0  0  0  0  0  0  0  0  0
   -5.1114   23.7902  -28.5841 H   0  0  0  0  0  0  0  0  0  0  0  0
   -4.4410   21.6356  -28.0595 H   0  0  0  0  0  0  0  0  0  0  0  0
   -2.6641   19.8921  -27.8794 H   0  0  0  0  0  0  0  0  0  0  0  0
   -0.3375   20.3940  -28.6357 H   0  0  0  0  0  0  0  0  0  0  0  0
    0.2242   22.6535  -29.5375 H   0  0  0  0  0  0  0  0  0  0  0  0
   -1.5412   24.4108  -29.6959 H   0  0  0  0  0  0  0  0  0  0  0  0
   -2.6578   23.0697  -31.7600 H   0  0  0  0  0  0  0  0  0  0  0  0
   -1.8637   20.9906  -32.8523 H   0  0  0  0  0  0  0  0  0  0  0  0
   -1.5262   16.2298  -33.4643 H   0  0  0  0  0  0  0  0  0  0  0  0
  1  2  1  0
  2  3  1  0
  3  4  2  0
  4  5  1  0
  5  6  2  0
  6  7  1  0
  7  8  1  0
  8  9  1  0
  9 10  1  0
 10 11  1  0
 11 12  1  0
 12 13  2  0
 13 14  1  0
 14 15  2  0
 15 16  1  0
 15 17  1  0
 17 18  2  0
  9 19  2  0
 19 20  1  0
 20 21  2  0
 20 22  1  0
 22 23  2  0
 23 24  1  0
 24 25  1  0
 25 26  1  0
 26 27  2  0
 26 28  1  0
 28 29  1  0
 29 30  2  0
 30 31  1  0
 31 32  2  0
 32 33  1  0
 33 34  2  0
 24 35  2  0
 35 36  1  0
 36 37  2  0
  6 38  1  0
 38 39  2  0
 39 40  1  0
 39  3  1  0
 37  8  1  0
 18 12  1  0
 37 22  1  0
 34 29  1  0
  1 41  1  0
  1 42  1  0
  1 43  1  0
  4 44  1  0
  5 45  1  0
  7 46  1  0
  7 47  1  0
 11 48  1  0
 11 49  1  0
 13 50  1  0
 14 51  1  0
 17 52  1  0
 18 53  1  0
 23 54  1  0
 28 55  1  0
 28 56  1  0
 30 57  1  0
 31 58  1  0
 32 59  1  0
 33 60  1  0
 34 61  1  0
 35 62  1  0
 36 63  1  0
 38 64  1  0
M  CHG  1  25  -1
M  END
>  <UniqueID>  (10) 
8

>  <SMILES>  (10) 
COc1ccc(Cn2c(SCc3ccc(F)cc3)nc(=O)c3cc([N-]C(=O)Cc4ccccc4)ccc32)cc1F

>  <Energy>  (10) 
82.37712401170803

>  <Genealogy>  (10) 
COc1ccc(Cn2c(SCc3ccc(F)cc3)nc(=O)c3cc([N-]C(=O)Cc4ccccc4)ccc32)cc1F (protonated)
COc1ccc(Cn2c(SCc3ccc(F)cc3)nc(=O)c3cc([N-]C(=O)Cc4ccccc4)ccc32)cc1F (3D coordinates assigned)
COc1ccc(Cn2c(SCc3ccc(F)cc3)nc(=O)c3cc([N-]C(=O)Cc4ccccc4)ccc32)cc1F (optimized conformer: 82.37712401170803 kcal/mol)

>  <smiles>  (10) 
COc1ccc(Cn2c(SCc3ccc(F)cc3)nc(=O)c3cc(NC(=O)Cc4ccccc4)ccc32)cc1F

>  <score_type>  (10) 
oracle

>  <origin>  (10) 
adgpu

>  <m_score__min__energy>  (10) 
-11.19

>  <m_primary>  (10) 
energy

$$$$
10:0
     RDKit          3D

 49 51  0  0  0  0  0  0  0  0999 V2000
   -2.2310   24.9020  -29.1000 O   0  0  0  0  0  0  0  0  0  0  0  0
   -3.1140   24.4310  -29.8680 C   0  0  0  0  0  0  0  0  0  0  0  0
   -3.8760   25.3120  -30.7030 N   0  0  0  0  0  0  0  0  0  0  0  0
   -5.3030   25.5550  -30.5200 C   0  0  0  0  0  0  0  0  0  0  0  0
   -6.1230   24.4790  -31.2430 C   0  0  0  0  0  0  0  0  0  0  0  0
   -6.7110   23.4530  -30.2660 C   0  0  0  0  0  0  0  0  0  0  0  0
   -7.8220   22.7240  -30.8750 N   0  0  0  0  0  0  0  0  0  0  0  0
   -8.3460   21.5560  -30.4690 C   0  0  0  0  0  0  0  0  0  0  0  0
   -9.3850   21.2400  -31.3170 C   0  0  0  0  0  0  0  0  0  0  0  0
   -9.5150   22.2040  -32.2520 N   0  0  0  0  0  0  0  0  0  0  0  0
   -8.5440   23.0920  -31.9520 C   0  0  0  0  0  0  0  0  0  0  0  0
   -3.3710   22.9780  -29.9100 C   0  0  0  0  0  0  0  0  0  0  0  0
   -3.7870   22.2450  -28.6440 C   0  0  0  0  0  0  0  0  0  0  0  0
   -2.7140   21.3060  -28.1490 C   0  0  0  0  0  0  0  0  0  0  0  0
   -3.0570   20.1390  -27.4450 C   0  0  0  0  0  0  0  0  0  0  0  0
   -2.0570   19.2770  -26.9830 C   0  0  0  0  0  0  0  0  0  0  0  0
   -0.7100   19.5760  -27.2090 C   0  0  0  0  0  0  0  0  0  0  0  0
   -0.3610   20.7430  -27.8940 C   0  0  0  0  0  0  0  0  0  0  0  0
   -1.3570   21.6090  -28.3560 C   0  0  0  0  0  0  0  0  0  0  0  0
   -3.2700   22.3750  -31.0640 N   0  0  0  0  0  0  0  0  0  0  0  0
   -3.4400   20.9740  -31.3200 C   0  0  0  0  0  0  0  0  0  0  0  0
   -2.5170   20.1840  -30.9880 O   0  0  0  0  0  0  0  0  0  0  0  0
   -4.6910   20.4320  -31.9000 C   0  0  0  0  0  0  0  0  0  0  0  0
   -5.1070   19.1290  -31.5800 C   0  0  0  0  0  0  0  0  0  0  0  0
   -6.2770   18.6030  -32.1390 C   0  0  0  0  0  0  0  0  0  0  0  0
   -7.0440   19.3770  -33.0130 C   0  0  0  0  0  0  0  0  0  0  0  0
   -6.6520   20.6820  -33.3180 C   0  0  0  0  0  0  0  0  0  0  0  0
   -5.4840   21.2120  -32.7620 C   0  0  0  0  0  0  0  0  0  0  0  0
   -5.5403   25.5317  -29.4462 H   0  0  0  0  0  0  0  0  0  0  0  0
   -5.5552   26.5398  -30.9402 H   0  0  0  0  0  0  0  0  0  0  0  0
   -6.9468   24.9652  -31.7861 H   0  0  0  0  0  0  0  0  0  0  0  0
   -5.4520   23.9462  -31.9329 H   0  0  0  0  0  0  0  0  0  0  0  0
   -5.9256   22.7378  -29.9801 H   0  0  0  0  0  0  0  0  0  0  0  0
   -7.0869   23.9880  -29.3814 H   0  0  0  0  0  0  0  0  0  0  0  0
   -8.0058   20.9574  -29.6111 H   0  0  0  0  0  0  0  0  0  0  0  0
  -10.0125   20.3396  -31.2430 H   0  0  0  0  0  0  0  0  0  0  0  0
   -8.3619   24.0142  -32.5233 H   0  0  0  0  0  0  0  0  0  0  0  0
   -3.9986   22.9861  -27.8591 H   0  0  0  0  0  0  0  0  0  0  0  0
   -4.6782   21.6447  -28.8793 H   0  0  0  0  0  0  0  0  0  0  0  0
   -4.1147   19.9029  -27.2568 H   0  0  0  0  0  0  0  0  0  0  0  0
   -2.3313   18.3606  -26.4399 H   0  0  0  0  0  0  0  0  0  0  0  0
    0.0738   18.8937  -26.8482 H   0  0  0  0  0  0  0  0  0  0  0  0
    0.6985   20.9807  -28.0700 H   0  0  0  0  0  0  0  0  0  0  0  0
   -1.0771   22.5323  -28.8843 H   0  0  0  0  0  0  0  0  0  0  0  0
   -4.5098   18.5189  -30.8863 H   0  0  0  0  0  0  0  0  0  0  0  0
   -6.5930   17.5792  -31.8900 H   0  0  0  0  0  0  0  0  0  0  0  0
   -7.9572   18.9583  -33.4611 H   0  0  0  0  0  0  0  0  0  0  0  0
   -7.2635   21.2943  -33.9971 H   0  0  0  0  0  0  0  0  0  0  0  0
   -5.1835   22.2432  -32.9993 H   0  0  0  0  0  0  0  0  0  0  0  0
  1  2  2  0
  2  3  1  0
  3  4  1  0
  4  5  1  0
  5  6  1  0
  6  7  1  0
  7  8  1  0
  8  9  2  0
  9 10  1  0
 10 11  2  0
  2 12  1  0
 12 13  1  0
 13 14  1  0
 14 15  2  0
 15 16  1  0
 16 17  2  0
 17 18  1  0
 18 19  2  0
 12 20  2  3
 20 21  1  0
 21 22  2  0
 21 23  1  0
 23 24  2  0
 24 25  1  0
 25 26  2  0
 26 27  1  0
 27 28  2  0
 11  7  1  0
 19 14  1  0
 28 23  1  0
  4 29  1  0
  4 30  1  0
  5 31  1  0
  5 32  1  0
  6 33  1  0
  6 34  1  0
  8 35  1  0
  9 36  1  0
 11 37  1  0
 13 38  1  0
 13 39  1  0
 15 40  1  0
 16 41  1  0
 17 42  1  0
 18 43  1  0
 19 44  1  0
 24 45  1  0
 25 46  1  0
 26 47  1  0
 27 48  1  0
 28 49  1  0
M  CHG  1   3  -1
M  END
>  <UniqueID>  (11) 
9

>  <SMILES>  (11) 
O=C([N-]CCCn1ccnc1)C(Cc1ccccc1)=NC(=O)c1ccccc1

>  <Energy>  (11) 
80.94373542058986

>  <Genealogy>  (11) 
O=C([N-]CCCn1ccnc1)C(Cc1ccccc1)=NC(=O)c1ccccc1 (protonated)
O=C([N-]CCCn1ccnc1)C(Cc1ccccc1)=NC(=O)c1ccccc1 (3D coordinates assigned)
O=C([N-]CCCn1ccnc1)C(Cc1ccccc1)=NC(=O)c1ccccc1 (optimized conformer: 80.94373542058986 kcal/mol)

>  <smiles>  (11) 
O=C(NCCCn1ccnc1)C(Cc1ccccc1)=NC(=O)c1ccccc1

>  <score_type>  (11) 
oracle

>  <origin>  (11) 
adgpu

>  <m_score__min__energy>  (11) 
-10.17

>  <m_primary>  (11) 
energy

$$$$
11:0
     RDKit          3D

 52 55  0  0  0  0  0  0  0  0999 V2000
    1.2100   24.6830  -26.5930 C   0  0  0  0  0  0  0  0  0  0  0  0
    0.6360   24.5490  -27.8890 O   0  0  0  0  0  0  0  0  0  0  0  0
   -0.7110   24.2450  -28.1290 C   0  0  0  0  0  0  0  0  0  0  0  0
   -1.3300   23.2840  -27.3220 C   0  0  0  0  0  0  0  0  0  0  0  0
   -2.6780   22.9650  -27.5060 C   0  0  0  0  0  0  0  0  0  0  0  0
   -3.4170   23.5990  -28.5070 C   0  0  0  0  0  0  0  0  0  0  0  0
   -2.8030   24.5420  -29.3500 C   0  0  0  0  0  0  0  0  0  0  0  0
   -3.5340   25.2160  -30.3860 N   0  0  0  0  0  0  0  0  0  0  0  0
   -4.9410   25.1010  -30.6400 C   0  0  0  0  0  0  0  0  0  0  0  0
   -5.6650   26.1210  -30.4890 O   0  0  0  0  0  0  0  0  0  0  0  0
   -5.5520   23.8380  -31.1140 C   0  0  0  0  0  0  0  0  0  0  0  0
   -6.8690   23.4990  -30.7610 C   0  0  0  0  0  0  0  0  0  0  0  0
   -7.4520   22.3250  -31.2410 C   0  0  0  0  0  0  0  0  0  0  0  0
   -6.7220   21.4590  -32.0710 C   0  0  0  0  0  0  0  0  0  0  0  0
   -7.3730   20.2220  -32.6430 C   0  0  0  0  0  0  0  0  0  0  0  0
   -7.0730   19.0100  -31.8350 N   0  0  1  0  0  0  0  0  0  0  0  0
   -7.5650   17.7780  -32.4910 C   0  0  0  0  0  0  0  0  0  0  0  0
   -6.8500   17.4830  -33.8220 C   0  0  0  0  0  0  0  0  0  0  0  0
   -5.3700   17.7720  -33.7710 C   0  0  0  0  0  0  0  0  0  0  0  0
   -4.5610   17.3910  -34.8540 C   0  0  0  0  0  0  0  0  0  0  0  0
   -3.1990   17.7050  -34.8640 C   0  0  0  0  0  0  0  0  0  0  0  0
   -2.6350   18.4060  -33.7960 C   0  0  0  0  0  0  0  0  0  0  0  0
   -3.4310   18.7970  -32.7170 C   0  0  0  0  0  0  0  0  0  0  0  0
   -4.8030   18.4990  -32.7040 C   0  0  0  0  0  0  0  0  0  0  0  0
   -5.6360   18.8700  -31.5030 C   0  0  0  0  0  0  0  0  0  0  0  0
   -5.3960   21.7790  -32.4000 C   0  0  0  0  0  0  0  0  0  0  0  0
   -4.8130   22.9550  -31.9200 C   0  0  0  0  0  0  0  0  0  0  0  0
   -1.4590   24.8770  -29.1430 C   0  0  0  0  0  0  0  0  0  0  0  0
    0.4385   24.5029  -25.8299 H   0  0  0  0  0  0  0  0  0  0  0  0
    2.0217   23.9502  -26.4739 H   0  0  0  0  0  0  0  0  0  0  0  0
    1.6133   25.6994  -26.4739 H   0  0  0  0  0  0  0  0  0  0  0  0
   -0.7511   22.7758  -26.5368 H   0  0  0  0  0  0  0  0  0  0  0  0
   -3.1576   22.2136  -26.8615 H   0  0  0  0  0  0  0  0  0  0  0  0
   -4.4829   23.3599  -28.6364 H   0  0  0  0  0  0  0  0  0  0  0  0
   -7.4453   24.1641  -30.1011 H   0  0  0  0  0  0  0  0  0  0  0  0
   -8.4883   22.0771  -30.9677 H   0  0  0  0  0  0  0  0  0  0  0  0
   -8.4624   20.3725  -32.6663 H   0  0  0  0  0  0  0  0  0  0  0  0
   -6.9713   20.0637  -33.6547 H   0  0  0  0  0  0  0  0  0  0  0  0
   -7.5940   19.0930  -30.9290 H   0  0  0  0  0  0  0  0  0  0  0  0
   -7.4039   16.9292  -31.8101 H   0  0  0  0  0  0  0  0  0  0  0  0
   -8.6319   17.9259  -32.7145 H   0  0  0  0  0  0  0  0  0  0  0  0
   -6.9917   16.4203  -34.0684 H   0  0  0  0  0  0  0  0  0  0  0  0
   -7.2887   18.1426  -34.5852 H   0  0  0  0  0  0  0  0  0  0  0  0
   -5.0018   16.8423  -35.6993 H   0  0  0  0  0  0  0  0  0  0  0  0
   -2.5709   17.3997  -35.7138 H   0  0  0  0  0  0  0  0  0  0  0  0
   -1.5626   18.6505  -33.8045 H   0  0  0  0  0  0  0  0  0  0  0  0
   -2.9809   19.3409  -31.8735 H   0  0  0  0  0  0  0  0  0  0  0  0
   -5.5244   18.0859  -30.7396 H   0  0  0  0  0  0  0  0  0  0  0  0
   -5.2799   19.8436  -31.1352 H   0  0  0  0  0  0  0  0  0  0  0  0
   -4.8121   21.1005  -33.0393 H   0  0  0  0  0  0  0  0  0  0  0  0
   -3.7692   23.1910  -32.1746 H   0  0  0  0  0  0  0  0  0  0  0  0
   -0.9831   25.6396  -29.7770 H   0  0  0  0  0  0  0  0  0  0  0  0
  1  2  1  0
  2  3  1  0
  3  4  2  0
  4  5  1  0
  5  6  2  0
  6  7  1  0
  7  8  1  0
  8  9  1  0
  9 10  2  0
  9 11  1  0
 11 12  2  0
 12 13  1  0
 13 14  2  0
 14 15  1  0
 15 16  1  0
 16 17  1  0
 17 18  1  0
 18 19  1  0
 19 20  2  0
 20 21  1  0
 21 22  2  0
 22 23  1  0
 23 24  2  0
 24 25  1  0
 14 26  1  0
 26 27  2  0
  7 28  2  0
 28  3  1  0
 27 11  1  0
 25 16  1  0
 24 19  1  0
  1 29  1  0
  1 30  1  0
  1 31  1  0
  4 32  1  0
  5 33  1  0
  6 34  1  0
 12 35  1  0
 13 36  1  0
 15 37  1  0
 15 38  1  0
 16 39  1  1
 17 40  1  0
 17 41  1  0
 18 42  1  0
 18 43  1  0
 20 44  1  0
 21 45  1  0
 22 46  1  0
 23 47  1  0
 25 48  1  0
 25 49  1  0
 26 50  1  0
 27 51  1  0
 28 52  1  0
M  CHG  2   8  -1  16   1
M  END
>  <UniqueID>  (12) 
10

>  <SMILES>  (12) 
COc1cccc([N-]C(=O)c2ccc(C[N@H+]3CCc4ccccc4C3)cc2)c1

>  <Energy>  (12) 
67.62462574075639

>  <Genealogy>  (12) 
COc1cccc([N-]C(=O)c2ccc(C[NH+]3CCc4ccccc4C3)cc2)c1 (protonated)
COc1cccc([N-]C(=O)c2ccc(C[N@H+]3CCc4ccccc4C3)cc2)c1 (chirality)
COc1cccc([N-]C(=O)c2ccc(C[N@H+]3CCc4ccccc4C3)cc2)c1 (3D coordinates assigned)
COc1cccc([N-]C(=O)c2ccc(C[N@H+]3CCc4ccccc4C3)cc2)c1 (nonaromatic ring conformer: 67.62462574075639 kcal/mol)

>  <smiles>  (12) 
COc1cccc(NC(=O)c2ccc(CN3CCc4ccccc4C3)cc2)c1

>  <score_type>  (12) 
oracle

>  <origin>  (12) 
adgpu

>  <m_score__min__energy>  (12) 
-10.630000000000001

>  <m_primary>  (12) 
energy

$$$$
12:0
     RDKit          3D

 38 40  0  0  0  0  0  0  0  0999 V2000
    0.8490   20.8840  -36.4640 O   0  0  0  0  0  0  0  0  0  0  0  0
    0.3660   20.9400  -35.3150 N   0  0  0  0  0  0  0  0  0  0  0  0
    0.6700   22.0230  -34.5210 O   0  0  0  0  0  0  0  0  0  0  0  0
   -0.4870   19.8900  -34.8230 C   0  0  0  0  0  0  0  0  0  0  0  0
   -0.0600   18.5500  -34.8470 C   0  0  0  0  0  0  0  0  0  0  0  0
   -0.8860   17.5350  -34.3620 C   0  0  0  0  0  0  0  0  0  0  0  0
   -2.1470   17.8410  -33.8480 C   0  0  0  0  0  0  0  0  0  0  0  0
   -2.5990   19.1700  -33.8180 C   0  0  0  0  0  0  0  0  0  0  0  0
   -3.9440   19.4940  -33.2790 C   0  0  0  0  0  0  0  0  0  0  0  0
   -4.7490   18.4880  -32.7180 C   0  0  0  0  0  0  0  0  0  0  0  0
   -6.0140   18.7960  -32.2070 C   0  0  0  0  0  0  0  0  0  0  0  0
   -6.4940   20.1100  -32.2540 C   0  0  0  0  0  0  0  0  0  0  0  0
   -8.0820   20.4870  -31.5940 S   0  0  0  0  0  0  0  0  0  0  0  0
   -9.0390   20.8670  -32.6880 O   0  0  0  0  0  0  0  0  0  0  0  0
   -8.6100   19.2750  -30.8810 O   0  0  0  0  0  0  0  0  0  0  0  0
   -7.9560   21.8010  -30.4680 N   0  0  0  0  0  0  0  0  0  0  0  0
   -6.9370   22.8090  -30.4870 C   0  0  0  0  0  0  0  0  0  0  0  0
   -6.9720   23.8960  -31.3810 C   0  0  0  0  0  0  0  0  0  0  0  0
   -5.9470   24.8470  -31.3740 C   0  0  0  0  0  0  0  0  0  0  0  0
   -4.8860   24.7300  -30.4710 C   0  0  0  0  0  0  0  0  0  0  0  0
   -3.8720   25.6790  -30.4630 O   0  0  0  0  0  0  0  0  0  0  0  0
   -4.8490   23.6570  -29.5760 C   0  0  0  0  0  0  0  0  0  0  0  0
   -5.8700   22.7010  -29.5840 C   0  0  0  0  0  0  0  0  0  0  0  0
   -5.6990   21.1170  -32.8190 C   0  0  0  0  0  0  0  0  0  0  0  0
   -4.4320   20.8130  -33.3240 C   0  0  0  0  0  0  0  0  0  0  0  0
   -1.7620   20.1890  -34.3070 C   0  0  0  0  0  0  0  0  0  0  0  0
    0.9322   18.3003  -35.2510 H   0  0  0  0  0  0  0  0  0  0  0  0
   -0.5421   16.4904  -34.3849 H   0  0  0  0  0  0  0  0  0  0  0  0
   -2.7908   17.0360  -33.4640 H   0  0  0  0  0  0  0  0  0  0  0  0
   -4.3819   17.4517  -32.6805 H   0  0  0  0  0  0  0  0  0  0  0  0
   -6.6345   18.0019  -31.7661 H   0  0  0  0  0  0  0  0  0  0  0  0
   -7.8088   23.9975  -32.0877 H   0  0  0  0  0  0  0  0  0  0  0  0
   -5.9755   25.6894  -32.0808 H   0  0  0  0  0  0  0  0  0  0  0  0
   -4.0155   23.5642  -28.8642 H   0  0  0  0  0  0  0  0  0  0  0  0
   -5.8355   21.8589  -28.8771 H   0  0  0  0  0  0  0  0  0  0  0  0
   -6.0739   22.1501  -32.8650 H   0  0  0  0  0  0  0  0  0  0  0  0
   -3.8119   21.6103  -33.7597 H   0  0  0  0  0  0  0  0  0  0  0  0
   -2.1082   21.2329  -34.2859 H   0  0  0  0  0  0  0  0  0  0  0  0
  1  2  2  0
  2  3  1  0
  2  4  1  0
  4  5  2  0
  5  6  1  0
  6  7  2  0
  7  8  1  0
  8  9  1  0
  9 10  2  0
 10 11  1  0
 11 12  2  0
 12 13  1  0
 13 14  2  0
 13 15  2  0
 13 16  1  0
 16 17  1  0
 17 18  2  0
 18 19  1  0
 19 20  2  0
 20 21  1  0
 20 22  1  0
 22 23  2  0
 12 24  1  0
 24 25  2  0
  8 26  2  0
 26  4  1  0
 25  9  1  0
 23 17  1  0
  5 27  1  0
  6 28  1  0
  7 29  1  0
 10 30  1  0
 11 31  1  0
 18 32  1  0
 19 33  1  0
 22 34  1  0
 23 35  1  0
 24 36  1  0
 25 37  1  0
 26 38  1  0
M  CHG  4   2   1   3  -1  16  -1  21  -1
M  END
>  <UniqueID>  (13) 
11

>  <SMILES>  (13) 
O=[N+]([O-])c1cccc(-c2ccc(S(=O)(=O)[N-]c3ccc([O-])cc3)cc2)c1

>  <Energy>  (13) 
50.622699039642306

>  <Genealogy>  (13) 
O=[N+]([O-])c1cccc(-c2ccc(S(=O)(=O)[N-]c3ccc([O-])cc3)cc2)c1 (protonated)
O=[N+]([O-])c1cccc(-c2ccc(S(=O)(=O)[N-]c3ccc([O-])cc3)cc2)c1 (3D coordinates assigned)
O=[N+]([O-])c1cccc(-c2ccc(S(=O)(=O)[N-]c3ccc([O-])cc3)cc2)c1 (optimized conformer: 50.622699039642306 kcal/mol)

>  <smiles>  (13) 
O=[N+]([O-])c1cccc(-c2ccc(S(=O)(=O)Nc3ccc(O)cc3)cc2)c1

>  <score_type>  (13) 
oracle

>  <origin>  (13) 
adgpu

>  <m_score__min__energy>  (13) 
-12

>  <m_primary>  (13) 
energy

$$$$
13:0
     RDKit          3D

 38 40  0  0  0  0  0  0  0  0999 V2000
   -1.4970   25.7620  -28.8230 O   0  0  0  0  0  0  0  0  0  0  0  0
   -2.5950   24.7430  -28.9360 S   0  0  0  0  0  0  0  0  0  0  0  0
   -3.5160   24.9020  -27.7580 O   0  0  0  0  0  0  0  0  0  0  0  0
   -3.4900   25.0240  -30.3950 N   0  0  0  0  0  0  0  0  0  0  0  0
   -4.6080   24.2480  -30.8450 C   0  0  0  0  0  0  0  0  0  0  0  0
   -4.3610   23.0670  -31.5540 C   0  0  0  0  0  0  0  0  0  0  0  0
   -5.4210   22.2760  -32.0060 C   0  0  0  0  0  0  0  0  0  0  0  0
   -6.7440   22.6610  -31.7670 C   0  0  0  0  0  0  0  0  0  0  0  0
   -7.7810   21.8310  -32.2210 O   0  0  0  0  0  0  0  0  0  0  0  0
   -7.7190   20.4340  -32.3230 C   0  0  0  0  0  0  0  0  0  0  0  0
   -8.5650   19.5950  -31.5740 C   0  0  0  0  0  0  0  0  0  0  0  0
   -8.4850   18.2060  -31.7170 C   0  0  0  0  0  0  0  0  0  0  0  0
   -7.5710   17.6460  -32.6150 C   0  0  0  0  0  0  0  0  0  0  0  0
   -6.7440   18.4750  -33.3760 C   0  0  0  0  0  0  0  0  0  0  0  0
   -6.8220   19.8650  -33.2350 C   0  0  0  0  0  0  0  0  0  0  0  0
   -6.9970   23.8370  -31.0400 C   0  0  0  0  0  0  0  0  0  0  0  0
   -5.9360   24.6300  -30.5880 C   0  0  0  0  0  0  0  0  0  0  0  0
   -1.8760   23.1270  -28.9660 C   0  0  0  0  0  0  0  0  0  0  0  0
   -2.7190   22.0050  -29.0450 C   0  0  0  0  0  0  0  0  0  0  0  0
   -2.1820   20.7170  -29.0960 C   0  0  0  0  0  0  0  0  0  0  0  0
   -0.7990   20.5340  -29.0660 C   0  0  0  0  0  0  0  0  0  0  0  0
   -0.2660   19.2510  -29.1190 O   0  0  0  0  0  0  0  0  0  0  0  0
    0.0490   21.6400  -28.9800 C   0  0  0  0  0  0  0  0  0  0  0  0
   -0.4750   22.9370  -28.9270 C   0  0  0  0  0  0  0  0  0  0  0  0
    0.4210   24.0040  -28.8320 O   0  0  0  0  0  0  0  0  0  0  0  0
   -3.3248   22.7589  -31.7571 H   0  0  0  0  0  0  0  0  0  0  0  0
   -5.2132   21.3447  -32.5532 H   0  0  0  0  0  0  0  0  0  0  0  0
   -9.2915   20.0331  -30.8738 H   0  0  0  0  0  0  0  0  0  0  0  0
   -9.1416   17.5536  -31.1226 H   0  0  0  0  0  0  0  0  0  0  0  0
   -7.5035   16.5533  -32.7219 H   0  0  0  0  0  0  0  0  0  0  0  0
   -6.0300   18.0345  -34.0875 H   0  0  0  0  0  0  0  0  0  0  0  0
   -6.1753   20.5139  -33.8438 H   0  0  0  0  0  0  0  0  0  0  0  0
   -8.0337   24.1355  -30.8253 H   0  0  0  0  0  0  0  0  0  0  0  0
   -6.1421   25.5552  -30.0298 H   0  0  0  0  0  0  0  0  0  0  0  0
   -3.8101   22.1426  -29.0668 H   0  0  0  0  0  0  0  0  0  0  0  0
   -2.8501   19.8455  -29.1599 H   0  0  0  0  0  0  0  0  0  0  0  0
    1.1385   21.4908  -28.9537 H   0  0  0  0  0  0  0  0  0  0  0  0
    0.2240   24.9290  -29.1860 H   0  0  0  0  0  0  0  0  0  0  0  0
  1  2  2  0
  2  3  2  0
  2  4  1  0
  4  5  1  0
  5  6  2  0
  6  7  1  0
  7  8  2  0
  8  9  1  0
  9 10  1  0
 10 11  2  0
 11 12  1  0
 12 13  2  0
 13 14  1  0
 14 15  2  0
  8 16  1  0
 16 17  2  0
  2 18  1  0
 18 19  2  0
 19 20  1  0
 20 21  2  0
 21 22  1  0
 21 23  1  0
 23 24  2  0
 24 25  1  0
 17  5  1  0
 24 18  1  0
 15 10  1  0
  6 26  1  0
  7 27  1  0
 11 28  1  0
 12 29  1  0
 13 30  1  0
 14 31  1  0
 15 32  1  0
 16 33  1  0
 17 34  1  0
 19 35  1  0
 20 36  1  0
 23 37  1  0
 25 38  1  0
M  CHG  2   4  -1  22  -1
M  END
>  <UniqueID>  (14) 
12

>  <SMILES>  (14) 
O=S(=O)([N-]c1ccc(Oc2ccccc2)cc1)c1ccc([O-])cc1O

>  <Energy>  (14) 
52.280389299386954

>  <Genealogy>  (14) 
O=S(=O)([N-]c1ccc(Oc2ccccc2)cc1)c1ccc([O-])cc1O (protonated)
O=S(=O)([N-]c1ccc(Oc2ccccc2)cc1)c1ccc([O-])cc1O (3D coordinates assigned)
O=S(=O)([N-]c1ccc(Oc2ccccc2)cc1)c1ccc([O-])cc1O (optimized conformer: 52.280389299386954 kcal/mol)

>  <smiles>  (14) 
O=S(=O)(Nc1ccc(Oc2ccccc2)cc1)c1ccc(O)cc1O

>  <score_type>  (14) 
oracle

>  <origin>  (14) 
adgpu

>  <m_score__min__energy>  (14) 
-10.220000000000001

>  <m_primary>  (14) 
energy

$$$$
14:0
     RDKit          3D

 47 49  0  0  0  0  0  0  0  0999 V2000
   -8.9530   18.3230  -31.8780 C   0  0  0  0  0  0  0  0  0  0  0  0
   -9.1450   19.6990  -32.1890 O   0  0  0  0  0  0  0  0  0  0  0  0
   -8.1930   20.7030  -31.9560 C   0  0  0  0  0  0  0  0  0  0  0  0
   -6.9550   20.7390  -32.6230 C   0  0  0  0  0  0  0  0  0  0  0  0
   -6.0330   21.7510  -32.3430 C   0  0  0  0  0  0  0  0  0  0  0  0
   -6.3290   22.7360  -31.3880 C   0  0  0  0  0  0  0  0  0  0  0  0
   -5.3500   23.7910  -31.0680 C   0  0  0  0  0  0  0  0  0  0  0  0
   -5.6220   25.1240  -30.8450 C   0  0  0  0  0  0  0  0  0  0  0  0
   -4.4820   25.7570  -30.5090 N   0  0  0  0  0  0  0  0  0  0  0  0
   -3.4940   24.8740  -30.4920 N   0  0  0  0  0  0  0  0  0  0  0  0
   -3.9900   23.6690  -30.8320 C   0  0  0  0  0  0  0  0  0  0  0  0
   -3.1840   22.4020  -30.7690 C   0  0  0  0  0  0  0  0  0  0  0  0
   -2.2510   22.4250  -29.5860 C   0  0  0  0  0  0  0  0  0  0  0  0
   -2.3820   21.4860  -28.5580 C   0  0  0  0  0  0  0  0  0  0  0  0
   -1.5430   21.5360  -27.4320 C   0  0  0  0  0  0  0  0  0  0  0  0
   -1.6610   20.6130  -26.3790 O   0  0  0  0  0  0  0  0  0  0  0  0
   -2.3600   19.3750  -26.4620 C   0  0  0  0  0  0  0  0  0  0  0  0
   -0.5530   22.5290  -27.3350 C   0  0  0  0  0  0  0  0  0  0  0  0
    0.2480   22.5100  -26.1770 O   0  0  0  0  0  0  0  0  0  0  0  0
   -0.1290   22.9470  -24.8770 C   0  0  0  0  0  0  0  0  0  0  0  0
   -0.4080   23.4810  -28.3770 C   0  0  0  0  0  0  0  0  0  0  0  0
    0.5780   24.4760  -28.2880 O   0  0  0  0  0  0  0  0  0  0  0  0
    0.6840   25.4310  -27.2370 C   0  0  0  0  0  0  0  0  0  0  0  0
   -1.2640   23.4130  -29.4930 C   0  0  0  0  0  0  0  0  0  0  0  0
   -7.5730   22.7140  -30.7420 C   0  0  0  0  0  0  0  0  0  0  0  0
   -8.4940   21.7000  -31.0200 C   0  0  0  0  0  0  0  0  0  0  0  0
   -8.9349   18.1930  -30.7859 H   0  0  0  0  0  0  0  0  0  0  0  0
   -9.7774   17.7323  -32.3039 H   0  0  0  0  0  0  0  0  0  0  0  0
   -7.9984   17.9806  -32.3039 H   0  0  0  0  0  0  0  0  0  0  0  0
   -6.7117   19.9673  -33.3681 H   0  0  0  0  0  0  0  0  0  0  0  0
   -5.0699   21.7758  -32.8740 H   0  0  0  0  0  0  0  0  0  0  0  0
   -6.6124   25.5954  -30.9283 H   0  0  0  0  0  0  0  0  0  0  0  0
   -3.8660   21.5441  -30.6749 H   0  0  0  0  0  0  0  0  0  0  0  0
   -2.5877   22.3150  -31.6892 H   0  0  0  0  0  0  0  0  0  0  0  0
   -3.1490   20.7010  -28.6316 H   0  0  0  0  0  0  0  0  0  0  0  0
   -2.5697   19.0036  -25.4480 H   0  0  0  0  0  0  0  0  0  0  0  0
   -3.3072   19.5242  -27.0010 H   0  0  0  0  0  0  0  0  0  0  0  0
   -1.7430   18.6410  -27.0010 H   0  0  0  0  0  0  0  0  0  0  0  0
    0.3930   22.3419  -24.1211 H   0  0  0  0  0  0  0  0  0  0  0  0
    0.1443   24.0052  -24.7523 H   0  0  0  0  0  0  0  0  0  0  0  0
   -1.2158   22.8318  -24.7523 H   0  0  0  0  0  0  0  0  0  0  0  0
    0.6269   24.9161  -26.2666 H   0  0  0  0  0  0  0  0  0  0  0  0
    1.6462   25.9582  -27.3163 H   0  0  0  0  0  0  0  0  0  0  0  0
   -0.1391   26.1564  -27.3163 H   0  0  0  0  0  0  0  0  0  0  0  0
   -1.1553   24.1478  -30.3043 H   0  0  0  0  0  0  0  0  0  0  0  0
   -7.8254   23.4982  -30.0131 H   0  0  0  0  0  0  0  0  0  0  0  0
   -9.4629   21.6851  -30.4994 H   0  0  0  0  0  0  0  0  0  0  0  0
  1  2  1  0
  2  3  1  0
  3  4  2  0
  4  5  1  0
  5  6  2  0
  6  7  1  0
  7  8  1  0
  8  9  2  0
  9 10  1  0
 10 11  1  0
 11 12  1  0
 12 13  1  0
 13 14  2  0
 14 15  1  0
 15 16  1  0
 16 17  1  0
 15 18  2  0
 18 19  1  0
 19 20  1  0
 18 21  1  0
 21 22  1  0
 22 23  1  0
 21 24  2  0
  6 25  1  0
 25 26  2  0
 26  3  1  0
 11  7  2  0
 24 13  1  0
  1 27  1  0
  1 28  1  0
  1 29  1  0
  4 30  1  0
  5 31  1  0
  8 32  1  0
 12 33  1  0
 12 34  1  0
 14 35  1  0
 17 36  1  0
 17 37  1  0
 17 38  1  0
 20 39  1  0
 20 40  1  0
 20 41  1  0
 23 42  1  0
 23 43  1  0
 23 44  1  0
 24 45  1  0
 25 46  1  0
 26 47  1  0
M  CHG  1  10  -1
M  END
>  <UniqueID>  (15) 
13

>  <SMILES>  (15) 
COc1ccc(-c2cn[n-]c2Cc2cc(OC)c(OC)c(OC)c2)cc1

>  <Energy>  (15) 
80.37108039404553

>  <Genealogy>  (15) 
COc1ccc(-c2cn[n-]c2Cc2cc(OC)c(OC)c(OC)c2)cc1 (protonated)
COc1ccc(-c2cn[n-]c2Cc2cc(OC)c(OC)c(OC)c2)cc1 (3D coordinates assigned)
COc1ccc(-c2cn[n-]c2Cc2cc(OC)c(OC)c(OC)c2)cc1 (optimized conformer: 80.37108039404553 kcal/mol)

>  <smiles>  (15) 
COc1ccc(-c2cn[nH]c2Cc2cc(OC)c(OC)c(OC)c2)cc1

>  <score_type>  (15) 
oracle

>  <origin>  (15) 
adgpu

>  <m_score__min__energy>  (15) 
-9.8200000000000003

>  <m_primary>  (15) 
energy

$$$$
15:0
     RDKit          3D

 33 34  0  0  0  0  0  0  0  0999 V2000
   -0.8820   26.0430  -28.0700 C   0  0  0  0  0  0  0  0  0  0  0  0
   -1.9040   25.6650  -28.9640 O   0  0  0  0  0  0  0  0  0  0  0  0
   -2.4590   24.4180  -28.5890 C   0  0  0  0  0  0  0  0  0  0  0  0
   -2.2830   23.4050  -29.7220 C   0  0  0  0  0  0  0  0  0  0  0  0
   -3.5360   23.2390  -30.4670 N   0  0  0  0  0  0  0  0  0  0  0  0
   -3.9370   21.9970  -30.7530 N   0  0  0  0  0  0  0  0  0  0  0  0
   -5.0960   21.7420  -31.4110 C   0  0  0  0  0  0  0  0  0  0  0  0
   -5.9210   22.8040  -31.8070 C   0  0  0  0  0  0  0  0  0  0  0  0
   -7.1630   22.5960  -32.5070 N   0  0  0  0  0  0  0  0  0  0  0  0
   -8.2940   21.8370  -31.9750 C   0  0  0  0  0  0  0  0  0  0  0  0
   -8.0710   20.3680  -32.1590 C   0  0  0  0  0  0  0  0  0  0  0  0
   -8.7910   19.3600  -31.5510 C   0  0  0  0  0  0  0  0  0  0  0  0
   -8.2410   18.1830  -32.0120 C   0  0  0  0  0  0  0  0  0  0  0  0
   -7.2230   18.5470  -32.8710 C   0  0  0  0  0  0  0  0  0  0  0  0
   -7.1450   19.8560  -32.9360 O   0  0  0  0  0  0  0  0  0  0  0  0
   -5.5110   24.1040  -31.4990 C   0  0  0  0  0  0  0  0  0  0  0  0
   -4.3110   24.3120  -30.8220 C   0  0  0  0  0  0  0  0  0  0  0  0
   -3.9550   25.4900  -30.5400 O   0  0  0  0  0  0  0  0  0  0  0  0
   -1.2331   25.9131  -27.0357 H   0  0  0  0  0  0  0  0  0  0  0  0
    0.0039   25.4131  -28.2383 H   0  0  0  0  0  0  0  0  0  0  0  0
   -0.6192   27.0978  -28.2383 H   0  0  0  0  0  0  0  0  0  0  0  0
   -1.9486   24.0485  -27.6874 H   0  0  0  0  0  0  0  0  0  0  0  0
   -3.5319   24.5474  -28.3837 H   0  0  0  0  0  0  0  0  0  0  0  0
   -1.4998   23.7617  -30.4071 H   0  0  0  0  0  0  0  0  0  0  0  0
   -1.9974   22.4351  -29.2887 H   0  0  0  0  0  0  0  0  0  0  0  0
   -5.3874   20.7048  -31.6331 H   0  0  0  0  0  0  0  0  0  0  0  0
   -7.2680   22.9980  -33.4670 H   0  0  0  0  0  0  0  0  0  0  0  0
   -8.4042   22.0551  -30.9025 H   0  0  0  0  0  0  0  0  0  0  0  0
   -9.2057   22.1296  -32.5165 H   0  0  0  0  0  0  0  0  0  0  0  0
   -9.6282   19.4721  -30.8463 H   0  0  0  0  0  0  0  0  0  0  0  0
   -8.5505   17.1608  -31.7488 H   0  0  0  0  0  0  0  0  0  0  0  0
   -6.5753   17.8462  -33.4181 H   0  0  0  0  0  0  0  0  0  0  0  0
   -6.1347   24.9619  -31.7906 H   0  0  0  0  0  0  0  0  0  0  0  0
  1  2  1  0
  2  3  1  0
  3  4  1  0
  4  5  1  0
  5  6  1  0
  6  7  2  0
  7  8  1  0
  8  9  1  0
  9 10  1  0
 10 11  1  0
 11 12  2  0
 12 13  1  0
 13 14  2  0
 14 15  1  0
  8 16  2  0
 16 17  1  0
 17 18  2  0
 17  5  1  0
 15 11  1  0
  1 19  1  0
  1 20  1  0
  1 21  1  0
  3 22  1  0
  3 23  1  0
  4 24  1  0
  4 25  1  0
  7 26  1  0
  9 27  1  0
 10 28  1  0
 10 29  1  0
 12 30  1  0
 13 31  1  0
 14 32  1  0
 16 33  1  0
M  END
>  <UniqueID>  (16) 
14

>  <SMILES>  (16) 
COCCn1ncc(NCc2ccco2)cc1=O

>  <Energy>  (16) 
58.78326376575208

>  <Genealogy>  (16) 
COCCn1ncc(NCc2ccco2)cc1=O (3D coordinates assigned)
COCCn1ncc(NCc2ccco2)cc1=O (optimized conformer: 58.78326376575208 kcal/mol)

>  <smiles>  (16) 
COCCn1ncc(NCc2ccco2)cc1=O

>  <score_type>  (16) 
oracle

>  <origin>  (16) 
adgpu

>  <m_score__min__energy>  (16) 
-6.6699999999999999

>  <m_primary>  (16) 
energy

$$$$
16:0
     RDKit          3D

 35 37  0  0  0  0  0  0  0  0999 V2000
   -5.5040   25.9690  -30.4920 O   0  0  0  0  0  0  0  0  0  0  0  0
   -5.6100   24.7360  -30.7260 C   0  0  0  0  0  0  0  0  0  0  0  0
   -4.5400   24.0460  -31.1970 N   0  0  0  0  0  0  0  0  0  0  0  0
   -4.6140   22.7140  -31.4680 C   0  0  0  0  0  0  0  0  0  0  0  0
   -3.4120   22.0060  -31.9800 C   0  0  0  0  0  0  0  0  0  0  0  0
   -2.2080   21.9780  -31.2470 C   0  0  0  0  0  0  0  0  0  0  0  0
   -1.0920   21.2990  -31.7440 C   0  0  0  0  0  0  0  0  0  0  0  0
   -1.1620   20.6350  -32.9710 C   0  0  0  0  0  0  0  0  0  0  0  0
   -2.3520   20.6460  -33.7020 C   0  0  0  0  0  0  0  0  0  0  0  0
   -3.4720   21.3220  -33.2100 C   0  0  0  0  0  0  0  0  0  0  0  0
   -5.8250   22.0420  -31.2400 C   0  0  0  0  0  0  0  0  0  0  0  0
   -6.9180   22.7690  -30.7640 C   0  0  0  0  0  0  0  0  0  0  0  0
   -8.4900   21.9470  -30.4870 S   0  0  0  0  0  0  0  0  0  0  0  0
   -8.7000   21.4190  -32.2250 C   0  0  0  0  0  0  0  0  0  0  0  0
   -7.9700   20.1310  -32.4900 C   0  0  0  0  0  0  0  0  0  0  0  0
   -6.9610   20.0800  -33.4650 C   0  0  0  0  0  0  0  0  0  0  0  0
   -6.2550   18.8930  -33.6870 C   0  0  0  0  0  0  0  0  0  0  0  0
   -6.5480   17.7530  -32.9340 C   0  0  0  0  0  0  0  0  0  0  0  0
   -7.5480   17.7960  -31.9580 C   0  0  0  0  0  0  0  0  0  0  0  0
   -8.2580   18.9810  -31.7350 C   0  0  0  0  0  0  0  0  0  0  0  0
   -6.7910   24.1000  -30.5120 N   0  0  0  0  0  0  0  0  0  0  0  0
   -2.1465   22.4940  -30.2775 H   0  0  0  0  0  0  0  0  0  0  0  0
   -0.1555   21.2874  -31.1671 H   0  0  0  0  0  0  0  0  0  0  0  0
   -0.2810   20.1042  -33.3610 H   0  0  0  0  0  0  0  0  0  0  0  0
   -2.4079   20.1214  -34.6672 H   0  0  0  0  0  0  0  0  0  0  0  0
   -4.4079   21.3199  -33.7880 H   0  0  0  0  0  0  0  0  0  0  0  0
   -5.9114   20.9625  -31.4328 H   0  0  0  0  0  0  0  0  0  0  0  0
   -9.7710   21.2740  -32.4298 H   0  0  0  0  0  0  0  0  0  0  0  0
   -8.2839   22.1984  -32.8803 H   0  0  0  0  0  0  0  0  0  0  0  0
   -6.7248   20.9768  -34.0565 H   0  0  0  0  0  0  0  0  0  0  0  0
   -5.4684   18.8570  -34.4551 H   0  0  0  0  0  0  0  0  0  0  0  0
   -5.9912   16.8207  -33.1094 H   0  0  0  0  0  0  0  0  0  0  0  0
   -7.7768   16.8981  -31.3652 H   0  0  0  0  0  0  0  0  0  0  0  0
   -9.0441   19.0126  -30.9663 H   0  0  0  0  0  0  0  0  0  0  0  0
   -7.6130   24.6380  -30.1530 H   0  0  0  0  0  0  0  0  0  0  0  0
  1  2  2  0
  2  3  1  0
  3  4  2  0
  4  5  1  0
  5  6  2  0
  6  7  1  0
  7  8  2  0
  8  9  1  0
  9 10  2  0
  4 11  1  0
 11 12  2  0
 12 13  1  0
 13 14  1  0
 14 15  1  0
 15 16  2  0
 16 17  1  0
 17 18  2  0
 18 19  1  0
 19 20  2  0
 12 21  1  0
 21  2  1  0
 10  5  1  0
 20 15  1  0
  6 22  1  0
  7 23  1  0
  8 24  1  0
  9 25  1  0
 10 26  1  0
 11 27  1  0
 14 28  1  0
 14 29  1  0
 16 30  1  0
 17 31  1  0
 18 32  1  0
 19 33  1  0
 20 34  1  0
 21 35  1  0
M  END
>  <UniqueID>  (17) 
15

>  <SMILES>  (17) 
O=c1nc(-c2ccccc2)cc(SCc2ccccc2)[nH]1

>  <Energy>  (17) 
36.783392011311044

>  <Genealogy>  (17) 
O=c1nc(-c2ccccc2)cc(SCc2ccccc2)[nH]1 (3D coordinates assigned)
O=c1nc(-c2ccccc2)cc(SCc2ccccc2)[nH]1 (optimized conformer: 36.783392011311044 kcal/mol)

>  <smiles>  (17) 
O=c1nc(-c2ccccc2)cc(SCc2ccccc2)[nH]1

>  <score_type>  (17) 
oracle

>  <origin>  (17) 
adgpu

>  <m_score__min__energy>  (17) 
-8.2699999999999996

>  <m_primary>  (17) 
energy

$$$$
17:0
     RDKit          3D

 44 47  0  0  0  0  0  0  0  0999 V2000
   -2.4270   20.9960  -34.1440 N   0  0  0  0  0  0  0  0  0  0  0  0
   -2.3040   20.5600  -32.7540 C   0  0  0  0  0  0  0  0  0  0  0  0
   -3.3700   19.5210  -32.3830 C   0  0  0  0  0  0  0  0  0  0  0  0
   -4.5170   19.6100  -33.2880 N   0  0  0  0  0  0  0  0  0  0  0  0
   -5.8550   19.2620  -32.8920 C   0  0  0  0  0  0  0  0  0  0  0  0
   -6.3680   17.9880  -33.1850 C   0  0  0  0  0  0  0  0  0  0  0  0
   -7.6250   17.6090  -32.7180 C   0  0  0  0  0  0  0  0  0  0  0  0
   -8.3630   18.5040  -31.9460 C   0  0  0  0  0  0  0  0  0  0  0  0
   -7.8620   19.7340  -31.6660 N   0  0  0  0  0  0  0  0  0  0  0  0
   -6.6440   20.1460  -32.1150 C   0  0  0  0  0  0  0  0  0  0  0  0
   -6.2070   21.5240  -31.7880 C   0  0  0  0  0  0  0  0  0  0  0  0
   -6.9080   22.6320  -32.3320 C   0  0  0  0  0  0  0  0  0  0  0  0
   -6.4900   23.9490  -32.0680 C   0  0  0  0  0  0  0  0  0  0  0  0
   -5.3730   24.1260  -31.2580 C   0  0  0  0  0  0  0  0  0  0  0  0
   -4.7920   25.2860  -30.9070 N   0  0  0  0  0  0  0  0  0  0  0  0
   -3.7450   24.9730  -30.1500 N   0  0  0  0  0  0  0  0  0  0  0  0
   -3.6560   23.6300  -30.0080 C   0  0  0  0  0  0  0  0  0  0  0  0
   -2.6280   22.9400  -29.1990 C   0  0  0  0  0  0  0  0  0  0  0  0
   -1.2710   23.2890  -29.3130 C   0  0  0  0  0  0  0  0  0  0  0  0
   -0.3060   22.6270  -28.5490 C   0  0  0  0  0  0  0  0  0  0  0  0
   -0.6850   21.6060  -27.6740 C   0  0  0  0  0  0  0  0  0  0  0  0
   -2.0290   21.2400  -27.5680 C   0  0  0  0  0  0  0  0  0  0  0  0
   -2.9980   21.8990  -28.3310 C   0  0  0  0  0  0  0  0  0  0  0  0
   -4.6940   23.0650  -30.7240 C   0  0  0  0  0  0  0  0  0  0  0  0
   -5.0580   21.7470  -30.9930 C   0  0  0  0  0  0  0  0  0  0  0  0
   -3.2690   21.6110  -34.2370 H   0  0  0  0  0  0  0  0  0  0  0  0
   -1.5850   21.5630  -34.3980 H   0  0  0  0  0  0  0  0  0  0  0  0
   -1.3084   20.1157  -32.6076 H   0  0  0  0  0  0  0  0  0  0  0  0
   -2.4455   21.4388  -32.1077 H   0  0  0  0  0  0  0  0  0  0  0  0
   -2.9325   18.5142  -32.4527 H   0  0  0  0  0  0  0  0  0  0  0  0
   -3.7134   19.7180  -31.3567 H   0  0  0  0  0  0  0  0  0  0  0  0
   -4.3190   19.7850  -34.2990 H   0  0  0  0  0  0  0  0  0  0  0  0
   -5.7738   17.2848  -33.7870 H   0  0  0  0  0  0  0  0  0  0  0  0
   -8.0301   16.6144  -32.9561 H   0  0  0  0  0  0  0  0  0  0  0  0
   -9.3525   18.2135  -31.5632 H   0  0  0  0  0  0  0  0  0  0  0  0
   -7.7888   22.4587  -32.9677 H   0  0  0  0  0  0  0  0  0  0  0  0
   -7.0289   24.8109  -32.4884 H   0  0  0  0  0  0  0  0  0  0  0  0
   -3.1110   25.6820  -29.7200 H   0  0  0  0  0  0  0  0  0  0  0  0
   -0.9673   24.0868  -30.0067 H   0  0  0  0  0  0  0  0  0  0  0  0
    0.7533   22.9102  -28.6367 H   0  0  0  0  0  0  0  0  0  0  0  0
    0.0749   21.0903  -27.0685 H   0  0  0  0  0  0  0  0  0  0  0  0
   -2.3256   20.4319  -26.8831 H   0  0  0  0  0  0  0  0  0  0  0  0
   -4.0539   21.6012  -28.2513 H   0  0  0  0  0  0  0  0  0  0  0  0
   -4.4696   20.9052  -30.5991 H   0  0  0  0  0  0  0  0  0  0  0  0
  1  2  1  0
  2  3  1  0
  3  4  1  0
  4  5  1  0
  5  6  2  0
  6  7  1  0
  7  8  2  0
  8  9  1  0
  9 10  2  0
 10 11  1  0
 11 12  1  0
 12 13  2  0
 13 14  1  0
 14 15  2  0
 15 16  1  0
 16 17  1  0
 17 18  1  0
 18 19  2  0
 19 20  1  0
 20 21  2  0
 21 22  1  0
 22 23  2  0
 17 24  2  0
 24 25  1  0
 10  5  1  0
 25 11  2  0
 24 14  1  0
 23 18  1  0
  1 26  1  0
  1 27  1  0
  2 28  1  0
  2 29  1  0
  3 30  1  0
  3 31  1  0
  4 32  1  0
  6 33  1  0
  7 34  1  0
  8 35  1  0
 12 36  1  0
 13 37  1  0
 16 38  1  0
 19 39  1  0
 20 40  1  0
 21 41  1  0
 22 42  1  0
 23 43  1  0
 25 44  1  0
M  END
>  <UniqueID>  (18) 
16

>  <SMILES>  (18) 
NCCNc1cccnc1-c1ccc2n[nH]c(-c3ccccc3)c2c1

>  <Energy>  (18) 
95.88556851445155

>  <Genealogy>  (18) 
NCCNc1cccnc1-c1ccc2n[nH]c(-c3ccccc3)c2c1 (3D coordinates assigned)
NCCNc1cccnc1-c1ccc2n[nH]c(-c3ccccc3)c2c1 (optimized conformer: 95.88556851445155 kcal/mol)

>  <smiles>  (18) 
NCCNc1cccnc1-c1ccc2n[nH]c(-c3ccccc3)c2c1

>  <score_type>  (18) 
oracle

>  <origin>  (18) 
adgpu

>  <m_score__min__energy>  (18) 
-9.0800000000000001

>  <m_primary>  (18) 
energy

$$$$
18:0
     RDKit          3D

 55 58  0  0  0  0  0  0  0  0999 V2000
   -1.6720   22.3110  -31.0570 C   0  0  0  0  0  0  0  0  0  0  0  0
   -1.0390   21.2260  -30.2250 C   0  0  0  0  0  0  0  0  0  0  0  0
   -0.4230   21.5660  -29.0090 C   0  0  0  0  0  0  0  0  0  0  0  0
    0.1720   20.5820  -28.2160 C   0  0  0  0  0  0  0  0  0  0  0  0
    0.1540   19.2480  -28.6230 C   0  0  0  0  0  0  0  0  0  0  0  0
   -0.4680   18.8920  -29.8220 C   0  0  0  0  0  0  0  0  0  0  0  0
   -1.0790   19.8680  -30.6230 C   0  0  0  0  0  0  0  0  0  0  0  0
   -1.7530   19.4440  -31.8700 C   0  0  0  0  0  0  0  0  0  0  0  0
   -3.1240   19.6870  -32.0270 C   0  0  0  0  0  0  0  0  0  0  0  0
   -3.7960   19.2870  -33.1940 C   0  0  0  0  0  0  0  0  0  0  0  0
   -5.2500   19.5280  -33.3470 C   0  0  0  0  0  0  0  0  0  0  0  0
   -6.0400   18.5520  -33.4570 O   0  0  0  0  0  0  0  0  0  0  0  0
   -5.7480   20.8700  -33.4320 N   0  0  0  0  0  0  0  0  0  0  0  0
   -6.0900   21.7340  -32.3370 C   0  0  0  0  0  0  0  0  0  0  0  0
   -5.3640   22.9100  -32.0690 C   0  0  0  0  0  0  0  0  0  0  0  0
   -5.7340   23.7570  -31.0100 C   0  0  0  0  0  0  0  0  0  0  0  0
   -4.9510   24.9820  -30.7310 C   0  0  0  0  0  0  0  0  0  0  0  0
   -5.5250   26.1030  -30.7660 O   0  0  0  0  0  0  0  0  0  0  0  0
   -3.5400   24.9430  -30.4720 N   0  0  0  0  0  0  0  0  0  0  0  0
   -2.9140   24.5450  -29.2440 C   0  0  0  0  0  0  0  0  0  0  0  0
   -1.6780   25.1100  -28.9000 C   0  0  0  0  0  0  0  0  0  0  0  0
   -1.0500   24.7580  -27.7010 C   0  0  0  0  0  0  0  0  0  0  0  0
   -1.6590   23.8500  -26.8300 C   0  0  0  0  0  0  0  0  0  0  0  0
   -2.9040   23.3020  -27.1520 C   0  0  0  0  0  0  0  0  0  0  0  0
   -3.5340   23.6500  -28.3520 C   0  0  0  0  0  0  0  0  0  0  0  0
   -6.8370   23.4140  -30.2130 C   0  0  0  0  0  0  0  0  0  0  0  0
   -7.5760   22.2620  -30.4890 C   0  0  0  0  0  0  0  0  0  0  0  0
   -7.2140   21.4290  -31.5520 C   0  0  0  0  0  0  0  0  0  0  0  0
   -8.1720   19.9910  -31.8750 Cl  0  0  0  0  0  0  0  0  0  0  0  0
   -3.0660   18.6490  -34.2110 C   0  0  0  0  0  0  0  0  0  0  0  0
   -1.6980   18.4130  -34.0650 C   0  0  0  0  0  0  0  0  0  0  0  0
   -1.0250   18.8090  -32.8930 C   0  0  0  0  0  0  0  0  0  0  0  0
    0.3520   18.5970  -32.7160 O   0  0  0  0  0  0  0  0  0  0  0  0
    1.3610   19.5840  -32.9040 C   0  0  0  0  0  0  0  0  0  0  0  0
    2.1850   19.6300  -31.7940 F   0  0  0  0  0  0  0  0  0  0  0  0
    0.7590   20.8170  -33.0680 F   0  0  0  0  0  0  0  0  0  0  0  0
   -2.1146   23.0697  -30.3948 H   0  0  0  0  0  0  0  0  0  0  0  0
   -0.9060   22.7803  -31.6918 H   0  0  0  0  0  0  0  0  0  0  0  0
   -2.4575   21.8751  -31.6918 H   0  0  0  0  0  0  0  0  0  0  0  0
   -0.4091   22.6152  -28.6788 H   0  0  0  0  0  0  0  0  0  0  0  0
    0.6560   20.8599  -27.2681 H   0  0  0  0  0  0  0  0  0  0  0  0
    0.6296   18.4763  -27.9998 H   0  0  0  0  0  0  0  0  0  0  0  0
   -0.4787   17.8391  -30.1402 H   0  0  0  0  0  0  0  0  0  0  0  0
   -3.6807   20.1970  -31.2270 H   0  0  0  0  0  0  0  0  0  0  0  0
   -4.4976   23.1689  -32.6953 H   0  0  0  0  0  0  0  0  0  0  0  0
   -1.1998   25.8337  -29.5764 H   0  0  0  0  0  0  0  0  0  0  0  0
   -0.0748   25.1966  -27.4428 H   0  0  0  0  0  0  0  0  0  0  0  0
   -1.1590   23.5669  -25.8920 H   0  0  0  0  0  0  0  0  0  0  0  0
   -3.3890   22.5965  -26.4613 H   0  0  0  0  0  0  0  0  0  0  0  0
   -4.5170   23.2227  -28.5990 H   0  0  0  0  0  0  0  0  0  0  0  0
   -7.1209   24.0562  -29.3663 H   0  0  0  0  0  0  0  0  0  0  0  0
   -8.4472   22.0085  -29.8671 H   0  0  0  0  0  0  0  0  0  0  0  0
   -3.5778   18.3322  -35.1317 H   0  0  0  0  0  0  0  0  0  0  0  0
   -1.1412   17.9138  -34.8717 H   0  0  0  0  0  0  0  0  0  0  0  0
    1.9583   19.3310  -33.7924 H   0  0  0  0  0  0  0  0  0  0  0  0
  1  2  1  0
  2  3  2  0
  3  4  1  0
  4  5  2  0
  5  6  1  0
  6  7  2  0
  7  8  1  0
  8  9  2  0
  9 10  1  0
 10 11  1  0
 11 12  2  0
 11 13  1  0
 13 14  1  0
 14 15  2  0
 15 16  1  0
 16 17  1  0
 17 18  2  0
 17 19  1  0
 19 20  1  0
 20 21  2  0
 21 22  1  0
 22 23  2  0
 23 24  1  0
 24 25  2  0
 16 26  2  0
 26 27  1  0
 27 28  2  0
 28 29  1  0
 10 30  2  0
 30 31  1  0
 31 32  2  0
 32 33  1  0
 33 34  1  0
 34 35  1  0
 34 36  1  0
  7  2  1  0
 32  8  1  0
 28 14  1  0
 25 20  1  0
  1 37  1  0
  1 38  1  0
  1 39  1  0
  3 40  1  0
  4 41  1  0
  5 42  1  0
  6 43  1  0
  9 44  1  0
 15 45  1  0
 21 46  1  0
 22 47  1  0
 23 48  1  0
 24 49  1  0
 25 50  1  0
 26 51  1  0
 27 52  1  0
 30 53  1  0
 31 54  1  0
 34 55  1  0
M  CHG  2  13  -1  19  -1
M  END
>  <UniqueID>  (19) 
17

>  <SMILES>  (19) 
Cc1ccccc1-c1cc(C(=O)[N-]c2cc(C(=O)[N-]c3ccccc3)ccc2Cl)ccc1OC(F)F

>  <Energy>  (19) 
78.93337606472804

>  <Genealogy>  (19) 
Cc1ccccc1-c1cc(C(=O)[N-]c2cc(C(=O)[N-]c3ccccc3)ccc2Cl)ccc1OC(F)F (protonated)
Cc1ccccc1-c1cc(C(=O)[N-]c2cc(C(=O)[N-]c3ccccc3)ccc2Cl)ccc1OC(F)F (3D coordinates assigned)
Cc1ccccc1-c1cc(C(=O)[N-]c2cc(C(=O)[N-]c3ccccc3)ccc2Cl)ccc1OC(F)F (optimized conformer: 78.93337606472804 kcal/mol)

>  <smiles>  (19) 
Cc1ccccc1-c1cc(C(=O)Nc2cc(C(=O)Nc3ccccc3)ccc2Cl)ccc1OC(F)F

>  <score_type>  (19) 
oracle

>  <origin>  (19) 
adgpu

>  <m_score__min__energy>  (19) 
-12.25

>  <m_primary>  (19) 
energy

$$$$
19:0
     RDKit          3D

 71 75  0  0  0  0  0  0  0  0999 V2000
   -6.9590   15.4610  -34.5750 C   0  0  0  0  0  0  0  0  0  0  0  0
   -6.1120   15.8130  -33.4330 N   0  0  0  0  0  0  0  0  0  0  0  0
   -5.0770   14.8710  -32.9890 C   0  0  0  0  0  0  0  0  0  0  0  0
   -4.4760   14.0700  -34.1610 C   0  0  0  0  0  0  0  0  0  0  0  0
   -3.2610   14.7040  -34.7450 N   0  0  0  0  0  0  0  0  0  0  0  0
   -3.1140   14.3800  -36.1760 C   0  0  0  0  0  0  0  0  0  0  0  0
   -2.0560   14.2580  -34.0190 C   0  0  0  0  0  0  0  0  0  0  0  0
   -6.0090   17.1940  -33.0420 C   0  0  0  0  0  0  0  0  0  0  0  0
   -7.0290   17.7790  -32.2840 C   0  0  0  0  0  0  0  0  0  0  0  0
   -6.9300   19.1070  -31.8660 C   0  0  0  0  0  0  0  0  0  0  0  0
   -5.8120   19.8830  -32.2120 C   0  0  0  0  0  0  0  0  0  0  0  0
   -5.7070   21.2950  -31.7610 C   0  0  0  0  0  0  0  0  0  0  0  0
   -6.5970   22.2670  -32.2490 C   0  0  0  0  0  0  0  0  0  0  0  0
   -6.4800   23.5990  -31.8470 C   0  0  0  0  0  0  0  0  0  0  0  0
   -5.4690   23.9860  -30.9640 C   0  0  0  0  0  0  0  0  0  0  0  0
   -5.3560   25.6740  -30.4790 Cl  0  0  0  0  0  0  0  0  0  0  0  0
   -4.5710   23.0270  -30.4660 C   0  0  0  0  0  0  0  0  0  0  0  0
   -3.5070   23.4100  -29.5830 N   0  0  0  0  0  0  0  0  0  0  0  0
   -2.1190   23.4170  -30.0820 C   0  0  0  0  0  0  0  0  0  0  0  0
   -1.0920   23.1910  -28.9500 C   0  0  0  0  0  0  0  0  0  0  0  0
   -1.4010   24.0610  -27.7630 C   0  0  0  0  0  0  0  0  0  0  0  0
   -0.4760   24.4750  -26.7990 C   0  0  0  0  0  0  0  0  0  0  0  0
   -1.0670   25.2080  -25.7700 C   0  0  0  0  0  0  0  0  0  0  0  0
   -0.3590   25.7450  -24.5690 C   0  0  0  0  0  0  0  0  0  0  0  0
    0.8500   25.0610  -24.3970 O   0  0  0  0  0  0  0  0  0  0  0  0
   -2.7350   25.2970  -26.0280 S   0  0  0  0  0  0  0  0  0  0  0  0
   -2.6980   24.4300  -27.4660 C   0  0  0  0  0  0  0  0  0  0  0  0
   -3.8090   24.0740  -28.3400 C   0  0  0  0  0  0  0  0  0  0  0  0
   -4.9970   24.3450  -28.0150 O   0  0  0  0  0  0  0  0  0  0  0  0
   -4.7020   21.6860  -30.8570 C   0  0  0  0  0  0  0  0  0  0  0  0
   -4.7960   19.3010  -32.9900 C   0  0  0  0  0  0  0  0  0  0  0  0
   -4.8790   17.9550  -33.3950 C   0  0  0  0  0  0  0  0  0  0  0  0
   -3.8650   17.3600  -34.2190 N   0  0  0  0  0  0  0  0  0  0  0  0
   -2.4760   17.7090  -34.2380 C   0  0  0  0  0  0  0  0  0  0  0  0
   -1.6550   17.0400  -34.9230 O   0  0  0  0  0  0  0  0  0  0  0  0
   -2.0140   18.8860  -33.4930 C   0  0  0  0  0  0  0  0  0  0  0  0
   -1.5500   18.8930  -32.1820 C   0  0  0  0  0  0  0  0  0  0  0  0
   -1.1410   20.1600  -31.7520 C   0  0  0  0  0  0  0  0  0  0  0  0
   -1.2980   21.1540  -32.7080 C   0  0  0  0  0  0  0  0  0  0  0  0
   -1.9240   20.4520  -34.1010 S   0  0  0  0  0  0  0  0  0  0  0  0
   -7.9177   15.0626  -34.2114 H   0  0  0  0  0  0  0  0  0  0  0  0
   -7.1424   16.3574  -35.1856 H   0  0  0  0  0  0  0  0  0  0  0  0
   -6.4530   14.6987  -35.1856 H   0  0  0  0  0  0  0  0  0  0  0  0
   -4.2718   15.4359  -32.4965 H   0  0  0  0  0  0  0  0  0  0  0  0
   -5.5461   14.1559  -32.2971 H   0  0  0  0  0  0  0  0  0  0  0  0
   -4.2063   13.0676  -33.7971 H   0  0  0  0  0  0  0  0  0  0  0  0
   -5.2372   14.0315  -34.9542 H   0  0  0  0  0  0  0  0  0  0  0  0
   -3.3170   15.7460  -34.6480 H   0  0  0  0  0  0  0  0  0  0  0  0
   -2.6616   13.3829  -36.2816 H   0  0  0  0  0  0  0  0  0  0  0  0
   -4.1033   14.3866  -36.6570 H   0  0  0  0  0  0  0  0  0  0  0  0
   -2.4675   15.1288  -36.6570 H   0  0  0  0  0  0  0  0  0  0  0  0
   -2.2351   14.3243  -32.9357 H   0  0  0  0  0  0  0  0  0  0  0  0
   -1.8291   13.2163  -34.2901 H   0  0  0  0  0  0  0  0  0  0  0  0
   -1.2056   14.9009  -34.2901 H   0  0  0  0  0  0  0  0  0  0  0  0
   -7.9165   17.1874  -32.0152 H   0  0  0  0  0  0  0  0  0  0  0  0
   -7.7346   19.5495  -31.2604 H   0  0  0  0  0  0  0  0  0  0  0  0
   -7.3912   21.9764  -32.9525 H   0  0  0  0  0  0  0  0  0  0  0  0
   -7.1888   24.3488  -32.2282 H   0  0  0  0  0  0  0  0  0  0  0  0
   -2.0064   22.6163  -30.8278 H   0  0  0  0  0  0  0  0  0  0  0  0
   -1.9234   24.4052  -30.5238 H   0  0  0  0  0  0  0  0  0  0  0  0
   -1.1232   22.1358  -28.6409 H   0  0  0  0  0  0  0  0  0  0  0  0
   -0.0917   23.4520  -29.3259 H   0  0  0  0  0  0  0  0  0  0  0  0
    0.5992   24.2476  -26.8471 H   0  0  0  0  0  0  0  0  0  0  0  0
   -0.1571   26.8170  -24.7109 H   0  0  0  0  0  0  0  0  0  0  0  0
   -0.9895   25.6060  -23.6784 H   0  0  0  0  0  0  0  0  0  0  0  0
    0.8660   24.7670  -23.4500 H   0  0  0  0  0  0  0  0  0  0  0  0
   -4.0112   20.9317  -30.4523 H   0  0  0  0  0  0  0  0  0  0  0  0
   -3.9254   19.9046  -33.2860 H   0  0  0  0  0  0  0  0  0  0  0  0
   -1.5088   17.9948  -31.5483 H   0  0  0  0  0  0  0  0  0  0  0  0
   -0.7326   20.3508  -30.7486 H   0  0  0  0  0  0  0  0  0  0  0  0
   -1.0545   22.2186  -32.5765 H   0  0  0  0  0  0  0  0  0  0  0  0
  1  2  1  0
  2  3  1  0
  3  4  1  0
  4  5  1  0
  5  6  1  0
  5  7  1  0
  2  8  1  0
  8  9  2  0
  9 10  1  0
 10 11  2  0
 11 12  1  0
 12 13  2  0
 13 14  1  0
 14 15  2  0
 15 16  1  0
 15 17  1  0
 17 18  1  0
 18 19  1  0
 19 20  1  0
 20 21  1  0
 21 22  1  0
 22 23  2  0
 23 24  1  0
 24 25  1  0
 23 26  1  0
 26 27  1  0
 27 28  1  0
 28 29  2  0
 17 30  2  0
 11 31  1  0
 31 32  2  0
 32 33  1  0
 33 34  1  0
 34 35  2  0
 34 36  1  0
 36 37  2  0
 37 38  1  0
 38 39  2  0
 39 40  1  0
 32  8  1  0
 40 36  1  0
 30 12  1  0
 28 18  1  0
 27 21  2  0
  1 41  1  0
  1 42  1  0
  1 43  1  0
  3 44  1  0
  3 45  1  0
  4 46  1  0
  4 47  1  0
  5 48  1  0
  6 49  1  0
  6 50  1  0
  6 51  1  0
  7 52  1  0
  7 53  1  0
  7 54  1  0
  9 55  1  0
 10 56  1  0
 13 57  1  0
 14 58  1  0
 19 59  1  0
 19 60  1  0
 20 61  1  0
 20 62  1  0
 22 63  1  0
 24 64  1  0
 24 65  1  0
 25 66  1  0
 30 67  1  0
 31 68  1  0
 37 69  1  0
 38 70  1  0
 39 71  1  0
M  CHG  2   5   1  33  -1
M  END
>  <UniqueID>  (20) 
18

>  <SMILES>  (20) 
CN(CC[NH+](C)C)c1ccc(-c2ccc(Cl)c(N3CCc4cc(CO)sc4C3=O)c2)cc1[N-]C(=O)c1cccs1

>  <Energy>  (20) 
147.87636308808425

>  <Genealogy>  (20) 
CN(CC[NH+](C)C)c1ccc(-c2ccc(Cl)c(N3CCc4cc(CO)sc4C3=O)c2)cc1[N-]C(=O)c1cccs1 (protonated)
CN(CC[NH+](C)C)c1ccc(-c2ccc(Cl)c(N3CCc4cc(CO)sc4C3=O)c2)cc1[N-]C(=O)c1cccs1 (3D coordinates assigned)
CN(CC[NH+](C)C)c1ccc(-c2ccc(Cl)c(N3CCc4cc(CO)sc4C3=O)c2)cc1[N-]C(=O)c1cccs1 (nonaromatic ring conformer: 147.87636308808425 kcal/mol)

>  <smiles>  (20) 
CN(C)CCN(C)c1ccc(-c2ccc(Cl)c(N3CCc4cc(CO)sc4C3=O)c2)cc1NC(=O)c1cccs1

>  <score_type>  (20) 
oracle

>  <origin>  (20) 
adgpu

>  <m_score__min__energy>  (20) 
-10.380000000000001

>  <m_primary>  (20) 
energy

$$$$
20:0
     RDKit          3D

 48 50  0  0  0  0  0  0  0  0999 V2000
   -0.2870   18.5650  -27.4710 C   0  0  0  0  0  0  0  0  0  0  0  0
   -1.0650   19.5620  -28.2880 C   0  0  0  0  0  0  0  0  0  0  0  0
   -0.4590   20.1470  -29.4130 C   0  0  0  0  0  0  0  0  0  0  0  0
   -1.1490   21.0780  -30.1890 C   0  0  0  0  0  0  0  0  0  0  0  0
   -2.4620   21.4420  -29.8620 C   0  0  0  0  0  0  0  0  0  0  0  0
   -3.1760   22.3970  -30.6700 N   0  0  0  0  0  0  0  0  0  0  0  0
   -3.1570   22.2960  -32.1310 C   0  0  0  0  0  0  0  0  0  0  0  0
   -4.4640   21.7530  -32.6190 C   0  0  0  0  0  0  0  0  0  0  0  0
   -4.4750   20.9540  -33.5940 O   0  0  0  0  0  0  0  0  0  0  0  0
   -5.6860   22.1280  -31.9710 N   0  0  0  0  0  0  0  0  0  0  0  0
   -6.8590   21.2990  -31.9200 C   0  0  0  0  0  0  0  0  0  0  0  0
   -8.1540   21.8460  -31.9240 C   0  0  0  0  0  0  0  0  0  0  0  0
   -9.2680   21.0040  -31.9470 C   0  0  0  0  0  0  0  0  0  0  0  0
   -9.0800   19.6240  -31.9690 C   0  0  0  0  0  0  0  0  0  0  0  0
   -7.8210   19.1070  -31.9810 N   0  0  0  0  0  0  0  0  0  0  0  0
   -6.7220   19.9070  -31.9650 C   0  0  0  0  0  0  0  0  0  0  0  0
   -4.0940   23.6750  -29.9280 S   0  0  0  0  0  0  0  0  0  0  0  0
   -4.4690   24.7200  -30.9410 O   0  0  0  0  0  0  0  0  0  0  0  0
   -5.3560   23.0980  -29.3480 O   0  0  0  0  0  0  0  0  0  0  0  0
   -3.1510   24.4250  -28.6520 C   0  0  0  0  0  0  0  0  0  0  0  0
   -3.5820   24.3740  -27.3220 C   0  0  0  0  0  0  0  0  0  0  0  0
   -2.8170   24.9870  -26.3290 C   0  0  0  0  0  0  0  0  0  0  0  0
   -1.6360   25.6480  -26.6730 C   0  0  0  0  0  0  0  0  0  0  0  0
   -1.2350   25.6770  -28.0110 C   0  0  0  0  0  0  0  0  0  0  0  0
   -1.9960   25.0710  -28.9620 N   0  0  0  0  0  0  0  0  0  0  0  0
   -3.0700   20.8750  -28.7320 C   0  0  0  0  0  0  0  0  0  0  0  0
   -2.3770   19.9540  -27.9260 C   0  0  0  0  0  0  0  0  0  0  0  0
   -3.0780   19.3580  -26.7320 C   0  0  0  0  0  0  0  0  0  0  0  0
   -0.4437   18.7659  -26.4009 H   0  0  0  0  0  0  0  0  0  0  0  0
   -0.6325   17.5478  -27.7076 H   0  0  0  0  0  0  0  0  0  0  0  0
    0.7837   18.6529  -27.7076 H   0  0  0  0  0  0  0  0  0  0  0  0
    0.5698   19.8678  -29.6842 H   0  0  0  0  0  0  0  0  0  0  0  0
   -0.6589   21.5298  -31.0641 H   0  0  0  0  0  0  0  0  0  0  0  0
   -2.9916   23.2936  -32.5639 H   0  0  0  0  0  0  0  0  0  0  0  0
   -2.3456   21.6196  -32.4377 H   0  0  0  0  0  0  0  0  0  0  0  0
   -5.7170   23.0540  -31.4880 H   0  0  0  0  0  0  0  0  0  0  0  0
   -8.2899   22.9375  -31.9090 H   0  0  0  0  0  0  0  0  0  0  0  0
  -10.2837   21.4264  -31.9477 H   0  0  0  0  0  0  0  0  0  0  0  0
   -9.9502   18.9512  -31.9767 H   0  0  0  0  0  0  0  0  0  0  0  0
   -5.7184   19.4572  -31.9876 H   0  0  0  0  0  0  0  0  0  0  0  0
   -4.5162   23.8550  -27.0613 H   0  0  0  0  0  0  0  0  0  0  0  0
   -3.1430   24.9497  -25.2791 H   0  0  0  0  0  0  0  0  0  0  0  0
   -1.0284   26.1402  -25.8994 H   0  0  0  0  0  0  0  0  0  0  0  0
   -0.3043   26.1897  -28.2954 H   0  0  0  0  0  0  0  0  0  0  0  0
   -4.1019   21.1543  -28.4730 H   0  0  0  0  0  0  0  0  0  0  0  0
   -2.6227   19.7451  -25.8085 H   0  0  0  0  0  0  0  0  0  0  0  0
   -4.1432   19.6312  -26.7581 H   0  0  0  0  0  0  0  0  0  0  0  0
   -2.9797   18.2627  -26.7581 H   0  0  0  0  0  0  0  0  0  0  0  0
  1  2  1  0
  2  3  2  0
  3  4  1  0
  4  5  2  0
  5  6  1  0
  6  7  1  0
  7  8  1  0
  8  9  2  0
  8 10  1  0
 10 11  1  0
 11 12  2  0
 12 13  1  0
 13 14  2  0
 14 15  1  0
 15 16  2  0
  6 17  1  0
 17 18  2  0
 17 19  2  0
 17 20  1  0
 20 21  2  0
 21 22  1  0
 22 23  2  0
 23 24  1  0
 24 25  2  0
  5 26  1  0
 26 27  2  0
 27 28  1  0
 27  2  1  0
 16 11  1  0
 25 20  1  0
  1 29  1  0
  1 30  1  0
  1 31  1  0
  3 32  1  0
  4 33  1  0
  7 34  1  0
  7 35  1  0
 10 36  1  0
 12 37  1  0
 13 38  1  0
 14 39  1  0
 16 40  1  0
 21 41  1  0
 22 42  1  0
 23 43  1  0
 24 44  1  0
 26 45  1  0
 28 46  1  0
 28 47  1  0
 28 48  1  0
M  END
>  <UniqueID>  (21) 
19

>  <SMILES>  (21) 
Cc1ccc(N(CC(=O)Nc2cccnc2)S(=O)(=O)c2ccccn2)cc1C

>  <Energy>  (21) 
55.702459346417555

>  <Genealogy>  (21) 
Cc1ccc(N(CC(=O)Nc2cccnc2)S(=O)(=O)c2ccccn2)cc1C (3D coordinates assigned)
Cc1ccc(N(CC(=O)Nc2cccnc2)S(=O)(=O)c2ccccn2)cc1C (optimized conformer: 55.702459346417555 kcal/mol)

>  <smiles>  (21) 
Cc1ccc(N(CC(=O)Nc2cccnc2)S(=O)(=O)c2ccccn2)cc1C

>  <score_type>  (21) 
oracle

>  <origin>  (21) 
adgpu

>  <m_score__min__energy>  (21) 
-9.3900000000000006

>  <m_primary>  (21) 
energy

$$$$
21:0
     RDKit          3D

 60 64  0  0  0  0  0  0  0  0999 V2000
    0.3980   20.1760  -27.4720 O   0  0  0  0  0  0  0  0  0  0  0  0
   -0.4590   20.2000  -28.4010 C   0  0  0  0  0  0  0  0  0  0  0  0
   -1.4530   21.3190  -28.4060 C   0  0  0  0  0  0  0  0  0  0  0  0
   -1.1470   22.6020  -28.8950 C   0  0  0  0  0  0  0  0  0  0  0  0
   -2.1130   23.6120  -28.9030 C   0  0  0  0  0  0  0  0  0  0  0  0
   -3.4090   23.3560  -28.4530 C   0  0  0  0  0  0  0  0  0  0  0  0
   -4.3840   24.3990  -28.5210 N   0  0  0  0  0  0  0  0  0  0  0  0
   -5.1000   24.9790  -29.9920 S   0  0  0  0  0  0  0  0  0  0  0  0
   -6.1210   26.0490  -29.7260 O   0  0  0  0  0  0  0  0  0  0  0  0
   -4.0150   25.5750  -30.8430 O   0  0  0  0  0  0  0  0  0  0  0  0
   -5.8630   23.6160  -30.8340 C   0  0  0  0  0  0  0  0  0  0  0  0
   -7.2650   23.5330  -30.8230 C   0  0  0  0  0  0  0  0  0  0  0  0
   -7.9270   22.5120  -31.5030 C   0  0  0  0  0  0  0  0  0  0  0  0
   -7.2040   21.5600  -32.2160 C   0  0  0  0  0  0  0  0  0  0  0  0
   -5.8040   21.6140  -32.2500 C   0  0  0  0  0  0  0  0  0  0  0  0
   -5.0830   20.6550  -32.9800 C   0  0  0  0  0  0  0  0  0  0  0  0
   -3.6910   20.7000  -33.0240 C   0  0  0  0  0  0  0  0  0  0  0  0
   -3.0040   21.6950  -32.3360 C   0  0  0  0  0  0  0  0  0  0  0  0
   -3.7050   22.6540  -31.6000 C   0  0  0  0  0  0  0  0  0  0  0  0
   -5.1140   22.6410  -31.5500 C   0  0  0  0  0  0  0  0  0  0  0  0
   -3.7230   22.0890  -27.9470 C   0  0  0  0  0  0  0  0  0  0  0  0
   -2.7550   21.0790  -27.9300 C   0  0  0  0  0  0  0  0  0  0  0  0
   -0.4100   19.1550  -29.4110 N   0  0  1  0  0  0  0  0  0  0  0  0
   -0.6270   19.6910  -30.7830 C   0  0  0  0  0  0  0  0  0  0  0  0
    0.2980   19.0780  -31.8550 C   0  0  0  0  0  0  0  0  0  0  0  0
    0.5130   17.5560  -31.6980 C   0  0  2  0  0  0  0  0  0  0  0  0
   -0.5790   16.7640  -32.4000 C   0  0  0  0  0  0  0  0  0  0  0  0
   -1.5620   17.3980  -33.1870 C   0  0  0  0  0  0  0  0  0  0  0  0
   -2.5310   16.6430  -33.8590 C   0  0  0  0  0  0  0  0  0  0  0  0
   -2.5300   15.2510  -33.7570 C   0  0  0  0  0  0  0  0  0  0  0  0
   -1.5600   14.6110  -32.9810 C   0  0  0  0  0  0  0  0  0  0  0  0
   -0.5890   15.3590  -32.3100 C   0  0  0  0  0  0  0  0  0  0  0  0
    0.7280   17.1130  -30.2260 C   0  0  0  0  0  0  0  0  0  0  0  0
    0.7880   18.3010  -29.2600 C   0  0  0  0  0  0  0  0  0  0  0  0
   -0.1365   22.8126  -29.2752 H   0  0  0  0  0  0  0  0  0  0  0  0
   -1.8498   24.6162  -29.2667 H   0  0  0  0  0  0  0  0  0  0  0  0
   -7.8486   24.2839  -30.2702 H   0  0  0  0  0  0  0  0  0  0  0  0
   -9.0254   22.4584  -31.4760 H   0  0  0  0  0  0  0  0  0  0  0  0
   -7.7341   20.7613  -32.7555 H   0  0  0  0  0  0  0  0  0  0  0  0
   -5.6211   19.8626  -33.5209 H   0  0  0  0  0  0  0  0  0  0  0  0
   -3.1349   19.9482  -33.6032 H   0  0  0  0  0  0  0  0  0  0  0  0
   -1.9050   21.7270  -32.3715 H   0  0  0  0  0  0  0  0  0  0  0  0
   -3.1499   23.4297  -31.0521 H   0  0  0  0  0  0  0  0  0  0  0  0
   -4.7334   21.8871  -27.5618 H   0  0  0  0  0  0  0  0  0  0  0  0
   -3.0153   20.0842  -27.5393 H   0  0  0  0  0  0  0  0  0  0  0  0
   -1.2220   18.5220  -29.2090 H   0  0  0  0  0  0  0  0  0  0  0  0
   -0.4559   20.7774  -30.7600 H   0  0  0  0  0  0  0  0  0  0  0  0
   -1.6568   19.4277  -31.0660 H   0  0  0  0  0  0  0  0  0  0  0  0
    1.2775   19.5747  -31.7927 H   0  0  0  0  0  0  0  0  0  0  0  0
   -0.1923   19.2333  -32.8274 H   0  0  0  0  0  0  0  0  0  0  0  0
    1.4601   17.3204  -32.2055 H   0  0  0  0  0  0  0  0  0  0  0  0
   -1.5678   18.4946  -33.2738 H   0  0  0  0  0  0  0  0  0  0  0  0
   -3.2947   17.1480  -34.4687 H   0  0  0  0  0  0  0  0  0  0  0  0
   -3.2912   14.6590  -34.2863 H   0  0  0  0  0  0  0  0  0  0  0  0
   -1.5608   13.5141  -32.8980 H   0  0  0  0  0  0  0  0  0  0  0  0
    0.1740   14.8458  -31.7064 H   0  0  0  0  0  0  0  0  0  0  0  0
    1.6741   16.5559  -30.1596 H   0  0  0  0  0  0  0  0  0  0  0  0
   -0.1296   16.4883  -29.9356 H   0  0  0  0  0  0  0  0  0  0  0  0
    1.6868   18.8974  -29.4757 H   0  0  0  0  0  0  0  0  0  0  0  0
    0.8237   17.9187  -28.2292 H   0  0  0  0  0  0  0  0  0  0  0  0
  1  2  2  0
  2  3  1  0
  3  4  2  0
  4  5  1  0
  5  6  2  0
  6  7  1  0
  7  8  1  0
  8  9  2  0
  8 10  2  0
  8 11  1  0
 11 12  2  0
 12 13  1  0
 13 14  2  0
 14 15  1  0
 15 16  2  0
 16 17  1  0
 17 18  2  0
 18 19  1  0
 19 20  2  0
  6 21  1  0
 21 22  2  0
  2 23  1  0
 23 24  1  0
 24 25  1  0
 25 26  1  0
 26 27  1  0
 27 28  2  0
 28 29  1  0
 29 30  2  0
 30 31  1  0
 31 32  2  0
 26 33  1  0
 33 34  1  0
 22  3  1  0
 34 23  1  0
 20 11  1  0
 32 27  1  0
 20 15  1  0
  4 35  1  0
  5 36  1  0
 12 37  1  0
 13 38  1  0
 14 39  1  0
 16 40  1  0
 17 41  1  0
 18 42  1  0
 19 43  1  0
 21 44  1  0
 22 45  1  0
 23 46  1  1
 24 47  1  0
 24 48  1  0
 25 49  1  0
 25 50  1  0
 26 51  1  6
 28 52  1  0
 29 53  1  0
 30 54  1  0
 31 55  1  0
 32 56  1  0
 33 57  1  0
 33 58  1  0
 34 59  1  0
 34 60  1  0
M  CHG  2   7  -1  23   1
M  END
>  <UniqueID>  (22) 
20

>  <SMILES>  (22) 
O=C(c1ccc([N-]S(=O)(=O)c2cccc3ccccc23)cc1)[NH+]1CCC(c2ccccc2)CC1

>  <Energy>  (22) 
98.147508701981

>  <Genealogy>  (22) 
O=C(c1ccc([N-]S(=O)(=O)c2cccc3ccccc23)cc1)[NH+]1CCC(c2ccccc2)CC1 (protonated)
O=C(c1ccc([N-]S(=O)(=O)c2cccc3ccccc23)cc1)[NH+]1CCC(c2ccccc2)CC1 (3D coordinates assigned)
O=C(c1ccc([N-]S(=O)(=O)c2cccc3ccccc23)cc1)[NH+]1CCC(c2ccccc2)CC1 (nonaromatic ring conformer: 98.147508701981 kcal/mol)

>  <smiles>  (22) 
O=C(c1ccc(NS(=O)(=O)c2cccc3ccccc23)cc1)N1CCC(c2ccccc2)CC1

>  <score_type>  (22) 
oracle

>  <origin>  (22) 
adgpu

>  <m_score__min__energy>  (22) 
-11.859999999999999

>  <m_primary>  (22) 
energy

$$$$
22:0
     RDKit          3D

 41 43  0  0  0  0  0  0  0  0999 V2000
   -5.7090   26.2390  -30.7740 O   0  0  0  0  0  0  0  0  0  0  0  0
   -5.0450   25.1700  -30.7900 C   0  0  0  0  0  0  0  0  0  0  0  0
   -3.6540   25.2200  -30.4460 N   0  0  0  0  0  0  0  0  0  0  0  0
   -3.0280   24.5410  -29.3470 C   0  0  0  0  0  0  0  0  0  0  0  0
   -3.6670   23.4870  -28.6680 C   0  0  0  0  0  0  0  0  0  0  0  0
   -3.0210   22.8370  -27.6110 C   0  0  0  0  0  0  0  0  0  0  0  0
   -1.7320   23.2240  -27.2350 C   0  0  0  0  0  0  0  0  0  0  0  0
   -1.0840   24.2540  -27.9210 C   0  0  0  0  0  0  0  0  0  0  0  0
   -1.7270   24.9050  -28.9780 C   0  0  0  0  0  0  0  0  0  0  0  0
   -5.7310   23.8950  -31.1100 C   0  0  0  0  0  0  0  0  0  0  0  0
   -7.0290   23.6360  -30.6350 C   0  0  0  0  0  0  0  0  0  0  0  0
   -7.6680   22.4310  -30.9430 C   0  0  0  0  0  0  0  0  0  0  0  0
   -7.0240   21.4730  -31.7330 C   0  0  0  0  0  0  0  0  0  0  0  0
   -7.8460   19.9700  -32.1390 S   0  0  0  0  0  0  0  0  0  0  0  0
   -8.8220   20.2270  -33.2540 O   0  0  0  0  0  0  0  0  0  0  0  0
   -8.6090   19.4690  -30.9420 O   0  0  0  0  0  0  0  0  0  0  0  0
   -6.6720   18.7870  -32.6520 N   0  0  0  0  0  0  0  0  0  0  0  0
   -6.1750   19.0610  -34.0020 C   0  0  0  0  0  0  0  0  0  0  0  0
   -5.7480   17.7220  -34.5890 C   0  0  0  0  0  0  0  0  0  0  0  0
   -6.4400   16.6650  -33.7400 C   0  0  0  0  0  0  0  0  0  0  0  0
   -7.2420   17.4390  -32.7020 C   0  0  0  0  0  0  0  0  0  0  0  0
   -5.7410   21.7350  -32.2310 C   0  0  0  0  0  0  0  0  0  0  0  0
   -5.1000   22.9390  -31.9240 C   0  0  0  0  0  0  0  0  0  0  0  0
   -4.6774   23.1733  -28.9692 H   0  0  0  0  0  0  0  0  0  0  0  0
   -3.5280   22.0208  -27.0755 H   0  0  0  0  0  0  0  0  0  0  0  0
   -1.2276   22.7176  -26.3989 H   0  0  0  0  0  0  0  0  0  0  0  0
   -0.0665   24.5532  -27.6291 H   0  0  0  0  0  0  0  0  0  0  0  0
   -1.2082   25.7075  -29.5228 H   0  0  0  0  0  0  0  0  0  0  0  0
   -7.5448   24.3860  -30.0173 H   0  0  0  0  0  0  0  0  0  0  0  0
   -8.6814   22.2356  -30.5624 H   0  0  0  0  0  0  0  0  0  0  0  0
   -5.8690   18.7980  -31.9780 H   0  0  0  0  0  0  0  0  0  0  0  0
   -6.9708   19.5080  -34.6159 H   0  0  0  0  0  0  0  0  0  0  0  0
   -5.3343   19.7700  -33.9788 H   0  0  0  0  0  0  0  0  0  0  0  0
   -6.0688   17.6426  -35.6382 H   0  0  0  0  0  0  0  0  0  0  0  0
   -4.6546   17.6021  -34.5777 H   0  0  0  0  0  0  0  0  0  0  0  0
   -7.1074   16.0494  -34.3609 H   0  0  0  0  0  0  0  0  0  0  0  0
   -5.7177   15.9807  -33.2709 H   0  0  0  0  0  0  0  0  0  0  0  0
   -8.3005   17.4854  -32.9977 H   0  0  0  0  0  0  0  0  0  0  0  0
   -7.1921   16.9507  -31.7176 H   0  0  0  0  0  0  0  0  0  0  0  0
   -5.2365   20.9913  -32.8654 H   0  0  0  0  0  0  0  0  0  0  0  0
   -4.0945   23.1394  -32.3225 H   0  0  0  0  0  0  0  0  0  0  0  0
  1  2  2  0
  2  3  1  0
  3  4  1  0
  4  5  2  0
  5  6  1  0
  6  7  2  0
  7  8  1  0
  8  9  2  0
  2 10  1  0
 10 11  2  0
 11 12  1  0
 12 13  2  0
 13 14  1  0
 14 15  2  0
 14 16  2  0
 14 17  1  0
 17 18  1  0
 18 19  1  0
 19 20  1  0
 20 21  1  0
 13 22  1  0
 22 23  2  0
  9  4  1  0
 23 10  1  0
 21 17  1  0
  5 24  1  0
  6 25  1  0
  7 26  1  0
  8 27  1  0
  9 28  1  0
 11 29  1  0
 12 30  1  0
 17 31  1  0
 18 32  1  0
 18 33  1  0
 19 34  1  0
 19 35  1  0
 20 36  1  0
 20 37  1  0
 21 38  1  0
 21 39  1  0
 22 40  1  0
 23 41  1  0
M  CHG  2   3  -1  17   1
M  END
>  <UniqueID>  (23) 
21

>  <SMILES>  (23) 
O=C([N-]c1ccccc1)c1ccc(S(=O)(=O)[NH+]2CCCC2)cc1

>  <Energy>  (23) 
49.68023583731931

>  <Genealogy>  (23) 
O=C([N-]c1ccccc1)c1ccc(S(=O)(=O)[NH+]2CCCC2)cc1 (protonated)
O=C([N-]c1ccccc1)c1ccc(S(=O)(=O)[NH+]2CCCC2)cc1 (3D coordinates assigned)
O=C([N-]c1ccccc1)c1ccc(S(=O)(=O)[NH+]2CCCC2)cc1 (nonaromatic ring conformer: 49.68023583731931 kcal/mol)

>  <smiles>  (23) 
O=C(Nc1ccccc1)c1ccc(S(=O)(=O)N2CCCC2)cc1

>  <score_type>  (23) 
oracle

>  <origin>  (23) 
adgpu

>  <m_score__min__energy>  (23) 
-10.720000000000001

>  <m_primary>  (23) 
energy

$$$$
23:0
     RDKit          3D

 28 29  0  0  0  0  0  0  0  0999 V2000
   -6.1090   26.0350  -29.8070 C   0  0  0  0  0  0  0  0  0  0  0  0
   -6.0040   24.8690  -30.4620 C   0  0  0  0  0  0  0  0  0  0  0  0
   -7.1380   24.1960  -30.8130 N   0  0  0  0  0  0  0  0  0  0  0  0
   -7.0950   23.0170  -31.4840 C   0  0  0  0  0  0  0  0  0  0  0  0
   -5.8720   22.4360  -31.8410 C   0  0  0  0  0  0  0  0  0  0  0  0
   -5.9030   21.1730  -32.6170 C   0  0  0  0  0  0  0  0  0  0  0  0
   -5.0300   20.9900  -33.5100 O   0  0  0  0  0  0  0  0  0  0  0  0
   -6.9510   20.1420  -32.3960 C   0  0  0  0  0  0  0  0  0  0  0  0
   -6.6000   18.8720  -31.9000 C   0  0  0  0  0  0  0  0  0  0  0  0
   -7.5810   17.9000  -31.6820 C   0  0  0  0  0  0  0  0  0  0  0  0
   -8.9220   18.1840  -31.9500 C   0  0  0  0  0  0  0  0  0  0  0  0
   -9.2840   19.4420  -32.4350 C   0  0  0  0  0  0  0  0  0  0  0  0
   -8.3080   20.4190  -32.6540 C   0  0  0  0  0  0  0  0  0  0  0  0
   -4.6670   23.0920  -31.4830 C   0  0  0  0  0  0  0  0  0  0  0  0
   -3.4650   22.5500  -31.7630 C   0  0  0  0  0  0  0  0  0  0  0  0
   -4.7430   24.3270  -30.7930 C   0  0  0  0  0  0  0  0  0  0  0  0
   -3.6860   24.9420  -30.4690 O   0  0  0  0  0  0  0  0  0  0  0  0
   -5.2025   26.5873  -29.5184 H   0  0  0  0  0  0  0  0  0  0  0  0
   -7.1016   26.4388  -29.5585 H   0  0  0  0  0  0  0  0  0  0  0  0
   -8.0800   24.5840  -30.5740 H   0  0  0  0  0  0  0  0  0  0  0  0
   -8.0343   22.5107  -31.7512 H   0  0  0  0  0  0  0  0  0  0  0  0
   -5.5464   18.6428  -31.6824 H   0  0  0  0  0  0  0  0  0  0  0  0
   -7.2960   16.9092  -31.2985 H   0  0  0  0  0  0  0  0  0  0  0  0
   -9.6920   17.4173  -31.7791 H   0  0  0  0  0  0  0  0  0  0  0  0
  -10.3403   19.6653  -32.6455 H   0  0  0  0  0  0  0  0  0  0  0  0
   -8.6016   21.4101  -33.0301 H   0  0  0  0  0  0  0  0  0  0  0  0
   -2.5435   23.0774  -31.4755 H   0  0  0  0  0  0  0  0  0  0  0  0
   -3.4056   21.5803  -32.2790 H   0  0  0  0  0  0  0  0  0  0  0  0
  1  2  2  0
  2  3  1  0
  3  4  1  0
  4  5  2  0
  5  6  1  0
  6  7  2  0
  6  8  1  0
  8  9  2  0
  9 10  1  0
 10 11  2  0
 11 12  1  0
 12 13  2  0
  5 14  1  0
 14 15  2  0
 14 16  1  0
 16 17  2  0
 16  2  1  0
 13  8  1  0
  1 18  1  0
  1 19  1  0
  3 20  1  0
  4 21  1  0
  9 22  1  0
 10 23  1  0
 11 24  1  0
 12 25  1  0
 13 26  1  0
 15 27  1  0
 15 28  1  0
M  END
>  <UniqueID>  (24) 
22

>  <SMILES>  (24) 
C=c1[nH]cc(C(=O)c2ccccc2)c(=C)c1=O

>  <Energy>  (24) 
44.16607985912843

>  <Genealogy>  (24) 
C=c1[nH]cc(C(=O)c2ccccc2)c(=C)c1=O (3D coordinates assigned)
C=c1[nH]cc(C(=O)c2ccccc2)c(=C)c1=O (optimized conformer: 44.16607985912843 kcal/mol)

>  <smiles>  (24) 
C=c1[nH]cc(C(=O)c2ccccc2)c(=C)c1=O

>  <score_type>  (24) 
oracle

>  <origin>  (24) 
adgpu

>  <m_score__min__energy>  (24) 
-7.5499999999999998

>  <m_primary>  (24) 
energy

$$$$
24:0
     RDKit          3D

 14 14  0  0  0  0  0  0  0  0999 V2000
   -0.7360   21.1680  -26.4350 O   0  0  0  0  0  0  0  0  0  0  0  0
   -0.2300   22.0110  -27.2230 C   0  0  0  0  0  0  0  0  0  0  0  0
   -1.0710   22.8970  -28.0580 C   0  0  0  0  0  0  0  0  0  0  0  0
   -2.2440   22.3700  -28.6230 C   0  0  0  0  0  0  0  0  0  0  0  0
   -3.0690   23.1700  -29.4190 C   0  0  0  0  0  0  0  0  0  0  0  0
   -2.7340   24.5030  -29.6600 C   0  0  0  0  0  0  0  0  0  0  0  0
   -3.5600   25.2920  -30.4520 O   0  0  0  0  0  0  0  0  0  0  0  0
   -1.5690   25.0420  -29.1040 C   0  0  0  0  0  0  0  0  0  0  0  0
   -1.2370   26.3720  -29.3450 O   0  0  0  0  0  0  0  0  0  0  0  0
   -0.7350   24.2480  -28.3040 C   0  0  0  0  0  0  0  0  0  0  0  0
    0.4170   24.8090  -27.7640 O   0  0  0  0  0  0  0  0  0  0  0  0
    0.8650   22.0903  -27.2920 H   0  0  0  0  0  0  0  0  0  0  0  0
   -2.5154   21.3202  -28.4378 H   0  0  0  0  0  0  0  0  0  0  0  0
   -3.9853   22.7473  -29.8568 H   0  0  0  0  0  0  0  0  0  0  0  0
  1  2  2  0
  2  3  1  0
  3  4  2  0
  4  5  1  0
  5  6  2  0
  6  7  1  0
  6  8  1  0
  8  9  1  0
  8 10  2  0
 10 11  1  0
 10  3  1  0
  2 12  1  0
  4 13  1  0
  5 14  1  0
M  CHG  3   7  -1   9  -1  11  -1
M  END
>  <UniqueID>  (25) 
23

>  <SMILES>  (25) 
O=Cc1ccc([O-])c([O-])c1[O-]

>  <Energy>  (25) 
14.831524542917226

>  <Genealogy>  (25) 
O=Cc1ccc([O-])c([O-])c1[O-] (protonated)
O=Cc1ccc([O-])c([O-])c1[O-] (3D coordinates assigned)
O=Cc1ccc([O-])c([O-])c1[O-] (optimized conformer: 14.831524542917226 kcal/mol)

>  <smiles>  (25) 
O=Cc1ccc(O)c(O)c1O

>  <score_type>  (25) 
oracle

>  <origin>  (25) 
adgpu

>  <m_score__min__energy>  (25) 
-10.93

>  <m_primary>  (25) 
energy

$$$$
25:0
     RDKit          3D

 47 49  0  0  0  0  0  0  0  0999 V2000
   -2.6070   16.7710  -34.1180 C   0  0  0  0  0  0  0  0  0  0  0  0
   -3.5580   16.7530  -33.0580 O   0  0  0  0  0  0  0  0  0  0  0  0
   -4.7600   17.4780  -33.0620 C   0  0  0  0  0  0  0  0  0  0  0  0
   -5.7810   17.2480  -32.1240 C   0  0  0  0  0  0  0  0  0  0  0  0
   -6.9520   18.0120  -32.1520 C   0  0  0  0  0  0  0  0  0  0  0  0
   -7.1200   19.0180  -33.1230 C   0  0  0  0  0  0  0  0  0  0  0  0
   -8.3050   19.8310  -33.1680 N   0  0  0  0  0  0  0  0  0  0  0  0
   -8.9160   20.7090  -31.8030 S   0  0  0  0  0  0  0  0  0  0  0  0
  -10.3010   21.2040  -32.1160 O   0  0  0  0  0  0  0  0  0  0  0  0
   -8.9930   19.7940  -30.6170 O   0  0  0  0  0  0  0  0  0  0  0  0
   -7.8390   22.0500  -31.4220 C   0  0  0  0  0  0  0  0  0  0  0  0
   -7.2280   22.7900  -32.4430 C   0  0  0  0  0  0  0  0  0  0  0  0
   -6.3800   23.8560  -32.1290 C   0  0  0  0  0  0  0  0  0  0  0  0
   -6.1340   24.2030  -30.7890 C   0  0  0  0  0  0  0  0  0  0  0  0
   -5.2530   25.3460  -30.4560 C   0  0  0  0  0  0  0  0  0  0  0  0
   -5.7580   26.4450  -30.0970 O   0  0  0  0  0  0  0  0  0  0  0  0
   -3.8280   25.2040  -30.5200 N   0  0  0  0  0  0  0  0  0  0  0  0
   -3.0790   24.2090  -29.7640 C   0  0  0  0  0  0  0  0  0  0  0  0
   -3.2790   22.8410  -30.3620 C   0  0  0  0  0  0  0  0  0  0  0  0
   -3.4270   22.7090  -31.7540 C   0  0  0  0  0  0  0  0  0  0  0  0
   -3.6010   21.4500  -32.3290 C   0  0  0  0  0  0  0  0  0  0  0  0
   -3.6250   20.3110  -31.5240 C   0  0  0  0  0  0  0  0  0  0  0  0
   -3.4770   20.4270  -30.1410 C   0  0  0  0  0  0  0  0  0  0  0  0
   -3.2980   21.6830  -29.5550 C   0  0  0  0  0  0  0  0  0  0  0  0
   -3.1020   21.7680  -27.8110 Cl  0  0  0  0  0  0  0  0  0  0  0  0
   -6.7480   23.4520  -29.7690 C   0  0  0  0  0  0  0  0  0  0  0  0
   -7.5920   22.3840  -30.0860 C   0  0  0  0  0  0  0  0  0  0  0  0
   -6.1100   19.2260  -34.0700 C   0  0  0  0  0  0  0  0  0  0  0  0
   -4.9350   18.4660  -34.0360 C   0  0  0  0  0  0  0  0  0  0  0  0
   -1.5904   16.7902  -33.6983 H   0  0  0  0  0  0  0  0  0  0  0  0
   -2.7310   15.8703  -34.7372 H   0  0  0  0  0  0  0  0  0  0  0  0
   -2.7650   17.6663  -34.7372 H   0  0  0  0  0  0  0  0  0  0  0  0
   -5.6584   16.4627  -31.3636 H   0  0  0  0  0  0  0  0  0  0  0  0
   -7.7450   17.8264  -31.4126 H   0  0  0  0  0  0  0  0  0  0  0  0
   -8.7750   19.9950  -34.0840 H   0  0  0  0  0  0  0  0  0  0  0  0
   -7.4163   22.5312  -33.4954 H   0  0  0  0  0  0  0  0  0  0  0  0
   -5.9011   24.4282  -32.9372 H   0  0  0  0  0  0  0  0  0  0  0  0
   -2.0091   24.4635  -29.7891 H   0  0  0  0  0  0  0  0  0  0  0  0
   -3.4396   24.2022  -28.7248 H   0  0  0  0  0  0  0  0  0  0  0  0
   -3.4055   23.6038  -32.3934 H   0  0  0  0  0  0  0  0  0  0  0  0
   -3.7194   21.3553  -33.4185 H   0  0  0  0  0  0  0  0  0  0  0  0
   -3.7609   19.3193  -31.9802 H   0  0  0  0  0  0  0  0  0  0  0  0
   -3.5013   19.5264  -29.5099 H   0  0  0  0  0  0  0  0  0  0  0  0
   -6.5623   23.7074  -28.7153 H   0  0  0  0  0  0  0  0  0  0  0  0
   -8.0647   21.8028  -29.2806 H   0  0  0  0  0  0  0  0  0  0  0  0
   -6.2409   19.9932  -34.8474 H   0  0  0  0  0  0  0  0  0  0  0  0
   -4.1449   18.6470  -34.7796 H   0  0  0  0  0  0  0  0  0  0  0  0
  1  2  1  0
  2  3  1  0
  3  4  2  0
  4  5  1  0
  5  6  2  0
  6  7  1  0
  7  8  1  0
  8  9  2  0
  8 10  2  0
  8 11  1  0
 11 12  2  0
 12 13  1  0
 13 14  2  0
 14 15  1  0
 15 16  2  0
 15 17  1  0
 17 18  1  0
 18 19  1  0
 19 20  2  0
 20 21  1  0
 21 22  2  0
 22 23  1  0
 23 24  2  0
 24 25  1  0
 14 26  1  0
 26 27  2  0
  6 28  1  0
 28 29  2  0
 29  3  1  0
 27 11  1  0
 24 19  1  0
  1 30  1  0
  1 31  1  0
  1 32  1  0
  4 33  1  0
  5 34  1  0
  7 35  1  0
 12 36  1  0
 13 37  1  0
 18 38  1  0
 18 39  1  0
 20 40  1  0
 21 41  1  0
 22 42  1  0
 23 43  1  0
 26 44  1  0
 27 45  1  0
 28 46  1  0
 29 47  1  0
M  CHG  1  17  -1
M  END
>  <UniqueID>  (26) 
24

>  <SMILES>  (26) 
COc1ccc(NS(=O)(=O)c2ccc(C(=O)[N-]Cc3ccccc3Cl)cc2)cc1

>  <Energy>  (26) 
51.75792294440246

>  <Genealogy>  (26) 
COc1ccc(NS(=O)(=O)c2ccc(C(=O)[N-]Cc3ccccc3Cl)cc2)cc1 (protonated)
COc1ccc(NS(=O)(=O)c2ccc(C(=O)[N-]Cc3ccccc3Cl)cc2)cc1 (3D coordinates assigned)
COc1ccc(NS(=O)(=O)c2ccc(C(=O)[N-]Cc3ccccc3Cl)cc2)cc1 (optimized conformer: 51.75792294440246 kcal/mol)

>  <smiles>  (26) 
COc1ccc(NS(=O)(=O)c2ccc(C(=O)NCc3ccccc3Cl)cc2)cc1

>  <score_type>  (26) 
oracle

>  <origin>  (26) 
adgpu

>  <m_score__min__energy>  (26) 
-11.640000000000001

>  <m_primary>  (26) 
energy

$$$$
26:0
     RDKit          3D

 55 58  0  0  0  0  0  0  0  0999 V2000
   -1.3560   19.7920  -28.0990 C   0  0  0  0  0  0  0  0  0  0  0  0
   -1.8440   20.7410  -29.0490 O   0  0  0  0  0  0  0  0  0  0  0  0
   -2.2340   22.0560  -28.7470 C   0  0  0  0  0  0  0  0  0  0  0  0
   -2.1410   22.5580  -27.4370 C   0  0  0  0  0  0  0  0  0  0  0  0
   -2.5530   23.8570  -27.1610 C   0  0  0  0  0  0  0  0  0  0  0  0
   -3.0440   24.6360  -28.1520 N   0  0  0  0  0  0  0  0  0  0  0  0
   -3.1500   24.2010  -29.4380 C   0  0  0  0  0  0  0  0  0  0  0  0
   -3.6730   25.0520  -30.4170 O   0  0  0  0  0  0  0  0  0  0  0  0
   -5.0620   25.3130  -30.5490 C   0  0  0  0  0  0  0  0  0  0  0  0
   -2.7370   22.8920  -29.7780 C   0  0  0  0  0  0  0  0  0  0  0  0
   -2.8490   22.4030  -31.2260 C   0  0  2  0  0  0  0  0  0  0  0  0
   -4.3220   22.2440  -31.6650 C   0  0  0  0  0  0  0  0  0  0  0  0
   -4.4130   21.3100  -32.7930 N   0  0  0  0  0  0  0  0  0  0  0  0
   -5.5130   20.3930  -32.8640 C   0  0  0  0  0  0  0  0  0  0  0  0
   -5.2520   19.0900  -33.1470 N   0  0  0  0  0  0  0  0  0  0  0  0
   -6.2300   18.1510  -33.1790 C   0  0  0  0  0  0  0  0  0  0  0  0
   -5.8720   16.7400  -33.4610 C   0  0  0  0  0  0  0  0  0  0  0  0
   -6.8590   15.8590  -33.9360 C   0  0  0  0  0  0  0  0  0  0  0  0
   -6.5280   14.5330  -34.2170 C   0  0  0  0  0  0  0  0  0  0  0  0
   -5.2610   14.0900  -34.0170 N   0  0  0  0  0  0  0  0  0  0  0  0
   -4.2890   14.9070  -33.5360 C   0  0  0  0  0  0  0  0  0  0  0  0
   -4.5710   16.2450  -33.2460 C   0  0  0  0  0  0  0  0  0  0  0  0
   -3.5920   17.0300  -32.7240 F   0  0  0  0  0  0  0  0  0  0  0  0
   -7.5410   18.5330  -32.8790 C   0  0  0  0  0  0  0  0  0  0  0  0
   -7.8080   19.8710  -32.5960 C   0  0  0  0  0  0  0  0  0  0  0  0
   -8.9920   20.2070  -32.3200 O   0  0  0  0  0  0  0  0  0  0  0  0
   -6.8010   20.8020  -32.6150 N   0  0  0  0  0  0  0  0  0  0  0  0
   -7.0880   22.2130  -32.3150 C   0  0  0  0  0  0  0  0  0  0  0  0
   -3.2620   21.1430  -33.6840 C   0  0  0  0  0  0  0  0  0  0  0  0
   -1.9860   20.8160  -32.8810 C   0  0  0  0  0  0  0  0  0  0  0  0
   -2.1040   21.1450  -31.4450 N   0  0  0  0  0  0  0  0  0  0  0  0
   -1.5461   20.1617  -27.0806 H   0  0  0  0  0  0  0  0  0  0  0  0
   -1.8718   18.8311  -28.2425 H   0  0  0  0  0  0  0  0  0  0  0  0
   -0.2744   19.6525  -28.2425 H   0  0  0  0  0  0  0  0  0  0  0  0
   -1.7427   21.9238  -26.6313 H   0  0  0  0  0  0  0  0  0  0  0  0
   -2.4797   24.2513  -26.1367 H   0  0  0  0  0  0  0  0  0  0  0  0
   -5.5156   25.3982  -29.5505 H   0  0  0  0  0  0  0  0  0  0  0  0
   -5.2075   26.2542  -31.0994 H   0  0  0  0  0  0  0  0  0  0  0  0
   -5.5393   24.4888  -31.0994 H   0  0  0  0  0  0  0  0  0  0  0  0
   -2.3884   23.1801  -31.8536 H   0  0  0  0  0  0  0  0  0  0  0  0
   -4.9131   21.8558  -30.8224 H   0  0  0  0  0  0  0  0  0  0  0  0
   -4.7132   23.2239  -31.9760 H   0  0  0  0  0  0  0  0  0  0  0  0
   -7.8893   16.2139  -34.0857 H   0  0  0  0  0  0  0  0  0  0  0  0
   -7.2956   13.8453  -34.6014 H   0  0  0  0  0  0  0  0  0  0  0  0
   -3.2745   14.5140  -33.3737 H   0  0  0  0  0  0  0  0  0  0  0  0
   -8.3502   17.7879  -32.8666 H   0  0  0  0  0  0  0  0  0  0  0  0
   -7.1174   22.3575  -31.2249 H   0  0  0  0  0  0  0  0  0  0  0  0
   -6.3005   22.8474  -32.7479 H   0  0  0  0  0  0  0  0  0  0  0  0
   -8.0608   22.4894  -32.7479 H   0  0  0  0  0  0  0  0  0  0  0  0
   -3.4663   20.3209  -34.3858 H   0  0  0  0  0  0  0  0  0  0  0  0
   -3.1015   22.0841  -34.2303 H   0  0  0  0  0  0  0  0  0  0  0  0
   -1.7777   19.7402  -32.9776 H   0  0  0  0  0  0  0  0  0  0  0  0
   -1.1728   21.4318  -33.2927 H   0  0  0  0  0  0  0  0  0  0  0  0
   -1.1390   21.2340  -31.0450 H   0  0  0  0  0  0  0  0  0  0  0  0
   -2.5800   20.3430  -30.9710 H   0  0  0  0  0  0  0  0  0  0  0  0
  1  2  1  0
  2  3  1  0
  3  4  2  0
  4  5  1  0
  5  6  2  0
  6  7  1  0
  7  8  1  0
  8  9  1  0
  7 10  2  0
 10 11  1  0
 11 12  1  0
 12 13  1  0
 13 14  1  0
 14 15  2  0
 15 16  1  0
 16 17  1  0
 17 18  2  0
 18 19  1  0
 19 20  2  0
 20 21  1  0
 21 22  2  0
 22 23  1  0
 16 24  2  0
 24 25  1  0
 25 26  2  0
 25 27  1  0
 27 28  1  0
 13 29  1  0
 29 30  1  0
 30 31  1  0
 10  3  1  0
 31 11  1  0
 27 14  1  0
 22 17  1  0
  1 32  1  0
  1 33  1  0
  1 34  1  0
  4 35  1  0
  5 36  1  0
  9 37  1  0
  9 38  1  0
  9 39  1  0
 11 40  1  6
 12 41  1  0
 12 42  1  0
 18 43  1  0
 19 44  1  0
 21 45  1  0
 24 46  1  0
 28 47  1  0
 28 48  1  0
 28 49  1  0
 29 50  1  0
 29 51  1  0
 30 52  1  0
 30 53  1  0
 31 54  1  0
 31 55  1  0
M  CHG  1  31   1
M  END
>  <UniqueID>  (27) 
25

>  <SMILES>  (27) 
COc1ccnc(OC)c1[C@@H]1CN(c2nc(-c3ccncc3F)cc(=O)n2C)CC[NH2+]1

>  <Energy>  (27) 
80.66371331379052

>  <Genealogy>  (27) 
COc1ccnc(OC)c1C1CN(c2nc(-c3ccncc3F)cc(=O)n2C)CC[NH2+]1 (protonated)
COc1ccnc(OC)c1[C@@H]1CN(c2nc(-c3ccncc3F)cc(=O)n2C)CC[NH2+]1 (chirality)
COc1ccnc(OC)c1[C@@H]1CN(c2nc(-c3ccncc3F)cc(=O)n2C)CC[NH2+]1 (3D coordinates assigned)
COc1ccnc(OC)c1[C@@H]1CN(c2nc(-c3ccncc3F)cc(=O)n2C)CC[NH2+]1 (nonaromatic ring conformer: 80.66371331379052 kcal/mol)

>  <smiles>  (27) 
COc1ccnc(OC)c1C1CN(c2nc(-c3ccncc3F)cc(=O)n2C)CCN1

>  <score_type>  (27) 
oracle

>  <origin>  (27) 
adgpu

>  <m_score__min__energy>  (27) 
-7.21

>  <m_primary>  (27) 
energy

$$$$
27:0
     RDKit          3D

 48 50  0  0  0  0  0  0  0  0999 V2000
   -1.3630   18.9560  -27.1050 C   0  0  0  0  0  0  0  0  0  0  0  0
   -2.1560   20.1750  -26.7440 C   0  0  0  0  0  0  0  0  0  0  0  0
   -1.3470   21.3730  -26.5410 C   0  0  0  0  0  0  0  0  0  0  0  0
   -0.8640   21.6530  -25.3060 N   0  0  0  0  0  0  0  0  0  0  0  0
   -0.1150   22.7510  -25.0480 C   0  0  0  0  0  0  0  0  0  0  0  0
    0.3350   23.0040  -23.8430 N   0  0  0  0  0  0  0  0  0  0  0  0
    0.1840   23.6270  -26.0470 N   0  0  0  0  0  0  0  0  0  0  0  0
   -0.2610   23.4110  -27.2850 C   0  0  0  0  0  0  0  0  0  0  0  0
    0.0260   24.2600  -28.2320 N   0  0  0  0  0  0  0  0  0  0  0  0
   -1.0330   22.2730  -27.5340 C   0  0  0  0  0  0  0  0  0  0  0  0
   -1.4740   22.1090  -28.9130 C   0  0  0  0  0  0  0  0  0  0  0  0
   -0.6140   21.6070  -29.8980 C   0  0  0  0  0  0  0  0  0  0  0  0
   -1.1560   21.4460  -31.1550 C   0  0  0  0  0  0  0  0  0  0  0  0
   -2.4810   21.7580  -31.4490 C   0  0  0  0  0  0  0  0  0  0  0  0
   -3.1330   21.5420  -33.0540 Cl  0  0  0  0  0  0  0  0  0  0  0  0
   -3.3150   22.2530  -30.4620 C   0  0  0  0  0  0  0  0  0  0  0  0
   -4.6820   22.5530  -30.6770 N   0  0  0  0  0  0  0  0  0  0  0  0
   -5.2370   23.7850  -30.9990 C   0  0  0  0  0  0  0  0  0  0  0  0
   -4.5150   24.8000  -31.1360 O   0  0  0  0  0  0  0  0  0  0  0  0
   -6.7260   23.8800  -31.1870 C   0  0  0  0  0  0  0  0  0  0  0  0
   -7.2550   22.5730  -31.6960 C   0  0  0  0  0  0  0  0  0  0  0  0
   -8.4950   22.2050  -31.1540 C   0  0  0  0  0  0  0  0  0  0  0  0
   -9.1060   21.0260  -31.5160 C   0  0  0  0  0  0  0  0  0  0  0  0
   -8.4470   20.2290  -32.4300 C   0  0  0  0  0  0  0  0  0  0  0  0
   -9.0890   19.0350  -32.7790 O   0  0  0  0  0  0  0  0  0  0  0  0
   -7.2270   20.5940  -32.9620 C   0  0  0  0  0  0  0  0  0  0  0  0
   -6.5920   21.7890  -32.6050 C   0  0  0  0  0  0  0  0  0  0  0  0
   -2.7970   22.4250  -29.1970 C   0  0  0  0  0  0  0  0  0  0  0  0
   -1.0327   18.4483  -26.1868 H   0  0  0  0  0  0  0  0  0  0  0  0
   -1.9899   18.2727  -27.6966 H   0  0  0  0  0  0  0  0  0  0  0  0
   -0.4842   19.2522  -27.6966 H   0  0  0  0  0  0  0  0  0  0  0  0
   -2.8715   20.3746  -27.5553 H   0  0  0  0  0  0  0  0  0  0  0  0
   -2.6505   19.9596  -25.7853 H   0  0  0  0  0  0  0  0  0  0  0  0
   -1.0420   21.0400  -24.4790 H   0  0  0  0  0  0  0  0  0  0  0  0
    0.8990   23.8490  -23.7010 H   0  0  0  0  0  0  0  0  0  0  0  0
    0.7700   24.4890  -25.8520 H   0  0  0  0  0  0  0  0  0  0  0  0
    0.6020   25.0800  -27.9570 H   0  0  0  0  0  0  0  0  0  0  0  0
    0.4346   21.3555  -29.6807 H   0  0  0  0  0  0  0  0  0  0  0  0
   -0.5155   21.0549  -31.9592 H   0  0  0  0  0  0  0  0  0  0  0  0
   -5.3430   21.7260  -30.5740 H   0  0  0  0  0  0  0  0  0  0  0  0
   -7.2018   24.1170  -30.2240 H   0  0  0  0  0  0  0  0  0  0  0  0
   -6.9515   24.6729  -31.9153 H   0  0  0  0  0  0  0  0  0  0  0  0
   -8.9870   22.8691  -30.4281 H   0  0  0  0  0  0  0  0  0  0  0  0
  -10.0785   20.7314  -31.0947 H   0  0  0  0  0  0  0  0  0  0  0  0
   -9.2110   18.8680  -33.7910 H   0  0  0  0  0  0  0  0  0  0  0  0
   -6.7396   19.9263  -33.6877 H   0  0  0  0  0  0  0  0  0  0  0  0
   -5.6197   22.0817  -33.0280 H   0  0  0  0  0  0  0  0  0  0  0  0
   -3.4420   22.8193  -28.3979 H   0  0  0  0  0  0  0  0  0  0  0  0
  1  2  1  0
  2  3  1  0
  3  4  1  0
  4  5  1  0
  5  6  2  3
  5  7  1  0
  7  8  1  0
  8  9  2  3
  8 10  1  0
 10 11  1  0
 11 12  2  0
 12 13  1  0
 13 14  2  0
 14 15  1  0
 14 16  1  0
 16 17  1  0
 17 18  1  0
 18 19  2  0
 18 20  1  0
 20 21  1  0
 21 22  2  0
 22 23  1  0
 23 24  2  0
 24 25  1  0
 24 26  1  0
 26 27  2  0
 16 28  2  0
 10  3  2  0
 28 11  1  0
 27 21  1  0
  1 29  1  0
  1 30  1  0
  1 31  1  0
  2 32  1  0
  2 33  1  0
  4 34  1  0
  6 35  1  0
  7 36  1  0
  9 37  1  0
 12 38  1  0
 13 39  1  0
 17 40  1  0
 20 41  1  0
 20 42  1  0
 22 43  1  0
 23 44  1  0
 25 45  1  0
 26 46  1  0
 27 47  1  0
 28 48  1  0
M  END
>  <smiles>  (28) 
CCc1[nH]c(=N)[nH]c(=N)c1-c1ccc(Cl)c(NC(=O)Cc2ccc(O)cc2)c1

>  <score_type>  (28) 
oracle

>  <origin>  (28) 
adgpu

>  <m_score__min__energy>  (28) 
-9.5299999999999994

>  <m_primary>  (28) 
energy

$$$$
28:0
     RDKit          3D

 51 53  0  0  0  0  0  0  0  0999 V2000
   -3.0810   26.0490  -29.3300 H   0  0  0  0  0  0  0  0  0  0  0  0
   -3.4940   25.2850  -29.8550 O   0  0  0  0  0  0  0  0  0  0  0  0
   -2.8300   24.0730  -30.0420 C   0  0  0  0  0  0  0  0  0  0  0  0
   -3.4490   23.0750  -30.8080 C   0  0  0  0  0  0  0  0  0  0  0  0
   -4.4426   23.2594  -31.2425 H   0  0  0  0  0  0  0  0  0  0  0  0
   -2.8120   21.8410  -31.0260 C   0  0  0  0  0  0  0  0  0  0  0  0
   -3.4720   20.8040  -31.8600 C   0  0  0  0  0  0  0  0  0  0  0  0
   -4.2190   19.9510  -31.3040 O   0  0  0  0  0  0  0  0  0  0  0  0
   -3.2600   20.7100  -33.2800 N   0  0  0  0  0  0  0  0  0  0  0  0
   -2.2150   19.9690  -33.9270 C   0  0  0  0  0  0  0  0  0  0  0  0
   -1.0270   20.6150  -34.3350 C   0  0  0  0  0  0  0  0  0  0  0  0
   -0.9158   21.6981  -34.1787 H   0  0  0  0  0  0  0  0  0  0  0  0
    0.0070   19.8950  -34.9340 C   0  0  0  0  0  0  0  0  0  0  0  0
    0.9362   20.4053  -35.2276 H   0  0  0  0  0  0  0  0  0  0  0  0
   -0.1400   18.5300  -35.1590 C   0  0  0  0  0  0  0  0  0  0  0  0
    0.6753   17.9613  -35.6300 H   0  0  0  0  0  0  0  0  0  0  0  0
   -1.3190   17.8790  -34.7890 C   0  0  0  0  0  0  0  0  0  0  0  0
   -1.4293   16.8018  -34.9826 H   0  0  0  0  0  0  0  0  0  0  0  0
   -2.3660   18.5850  -34.1720 C   0  0  0  0  0  0  0  0  0  0  0  0
   -3.8720   17.7080  -33.8390 S   0  0  0  0  0  0  0  0  0  0  0  0
   -3.6510   16.7440  -32.7030 O   0  0  0  0  0  0  0  0  0  0  0  0
   -4.2280   16.9190  -35.0700 O   0  0  0  0  0  0  0  0  0  0  0  0
   -5.2160   18.7340  -33.4270 N   0  0  0  0  0  0  0  0  0  0  0  0
   -4.9700   19.7360  -33.2600 H   0  0  0  0  0  0  0  0  0  0  0  0
   -6.4730   18.3640  -33.4310 C   0  0  0  0  0  0  0  0  0  0  0  0
   -6.8540   17.0270  -33.7910 N   0  0  0  0  0  0  0  0  0  0  0  0
   -6.1800   16.3300  -34.1710 H   0  0  0  0  0  0  0  0  0  0  0  0
   -7.8560   16.7390  -33.7250 H   0  0  0  0  0  0  0  0  0  0  0  0
   -7.5250   19.3190  -33.1760 N   0  0  0  0  0  0  0  0  0  0  0  0
   -8.4690   19.0950  -33.5710 H   0  0  0  0  0  0  0  0  0  0  0  0
   -7.3870   20.5730  -32.4800 C   0  0  0  0  0  0  0  0  0  0  0  0
   -8.1380   20.7980  -31.3120 C   0  0  0  0  0  0  0  0  0  0  0  0
   -8.8490   20.0338  -30.9650 H   0  0  0  0  0  0  0  0  0  0  0  0
   -7.9880   21.9860  -30.5880 C   0  0  0  0  0  0  0  0  0  0  0  0
   -8.5894   22.1579  -29.6831 H   0  0  0  0  0  0  0  0  0  0  0  0
   -7.0740   22.9550  -31.0140 C   0  0  0  0  0  0  0  0  0  0  0  0
   -6.8800   24.4420  -30.1030 Cl  0  0  0  0  0  0  0  0  0  0  0  0
   -6.3060   22.7310  -32.1630 C   0  0  0  0  0  0  0  0  0  0  0  0
   -5.5819   23.4895  -32.4952 H   0  0  0  0  0  0  0  0  0  0  0  0
   -6.4570   21.5450  -32.8900 C   0  0  0  0  0  0  0  0  0  0  0  0
   -5.8448   21.3719  -33.7873 H   0  0  0  0  0  0  0  0  0  0  0  0
   -1.5610   21.6050  -30.4240 C   0  0  0  0  0  0  0  0  0  0  0  0
   -1.0698   20.6294  -30.5542 H   0  0  0  0  0  0  0  0  0  0  0  0
   -0.9370   22.5970  -29.6630 C   0  0  0  0  0  0  0  0  0  0  0  0
    0.0458   22.4015  -29.2092 H   0  0  0  0  0  0  0  0  0  0  0  0
   -1.5600   23.8460  -29.4740 C   0  0  0  0  0  0  0  0  0  0  0  0
   -0.9510   24.8720  -28.7310 O   0  0  0  0  0  0  0  0  0  0  0  0
   -1.3040   25.2260  -27.3870 C   0  0  0  0  0  0  0  0  0  0  0  0
   -0.7079   24.6282  -26.6818 H   0  0  0  0  0  0  0  0  0  0  0  0
   -1.1015   26.2949  -27.2241 H   0  0  0  0  0  0  0  0  0  0  0  0
   -2.3734   25.0265  -27.2241 H   0  0  0  0  0  0  0  0  0  0  0  0
  1  2  1  0
  2  3  1  0
  3  4  2  0
  4  5  1  0
  4  6  1  0
  6  7  1  0
  7  8  2  0
  7  9  1  0
  9 10  1  0
 10 11  2  0
 11 12  1  0
 11 13  1  0
 13 14  1  0
 13 15  2  0
 15 16  1  0
 15 17  1  0
 17 18  1  0
 17 19  2  0
 19 20  1  0
 20 21  2  0
 20 22  2  0
 20 23  1  0
 23 24  1  0
 23 25  2  0
 25 26  1  0
 26 27  1  0
 26 28  1  0
 25 29  1  0
 29 30  1  0
 29 31  1  0
 31 32  2  0
 32 33  1  0
 32 34  1  0
 34 35  1  0
 34 36  2  0
 36 37  1  0
 36 38  1  0
 38 39  1  0
 38 40  2  0
 40 41  1  0
  6 42  2  0
 42 43  1  0
 42 44  1  0
 44 45  1  0
 44 46  2  0
 46 47  1  0
 47 48  1  0
 48 49  1  0
 48 50  1  0
 48 51  1  0
 46  3  1  0
 19 10  1  0
 40 31  1  0
M  CHG  2   9  -1  23   1
M  END
>  <UniqueID>  (29) 
26

>  <SMILES>  (29) 
COc1ccc(C(=O)[N-]c2ccccc2S(=O)(=O)/[NH+]=C(\N)Nc2ccc(Cl)cc2)cc1O

>  <Energy>  (29) 
68.9691759814871

>  <Genealogy>  (29) 
COc1ccc(C(=O)[N-]c2ccccc2S(=O)(=O)[NH+]=C(N)Nc2ccc(Cl)cc2)cc1O (protonated)
COc1ccc(C(=O)[N-]c2ccccc2S(=O)(=O)/[NH+]=C(\N)Nc2ccc(Cl)cc2)cc1O (cis-trans isomerization)
COc1ccc(C(=O)[N-]c2ccccc2S(=O)(=O)/[NH+]=C(\N)Nc2ccc(Cl)cc2)cc1O (3D coordinates assigned)
COc1ccc(C(=O)[N-]c2ccccc2S(=O)(=O)/[NH+]=C(\N)Nc2ccc(Cl)cc2)cc1O (optimized conformer: 68.9691759814871 kcal/mol)

>  <smiles>  (29) 
COc1ccc(C(=O)Nc2ccccc2S(=O)(=O)N=C(N)Nc2ccc(Cl)cc2)cc1O

>  <score_type>  (29) 
oracle

>  <origin>  (29) 
adgpu

>  <m_score__min__energy>  (29) 
-9.3000000000000007

>  <m_primary>  (29) 
energy

$$$$
29:0
     RDKit          3D

 23 24  0  0  0  0  0  0  0  0999 V2000
   -3.8170   25.2970  -30.1250 N   0  0  0  0  0  0  0  0  0  0  0  0
   -4.7460   24.2990  -30.5540 C   0  0  0  0  0  0  0  0  0  0  0  0
   -6.1120   24.4430  -30.2790 C   0  0  0  0  0  0  0  0  0  0  0  0
   -7.0230   23.4680  -30.6970 C   0  0  0  0  0  0  0  0  0  0  0  0
   -6.5790   22.3270  -31.3950 C   0  0  0  0  0  0  0  0  0  0  0  0
   -7.5310   21.2830  -31.8570 C   0  0  0  0  0  0  0  0  0  0  0  0
   -8.9220   21.4990  -31.8620 C   0  0  0  0  0  0  0  0  0  0  0  0
   -9.7750   20.4850  -32.3020 C   0  0  0  0  0  0  0  0  0  0  0  0
   -9.2460   19.2660  -32.7260 C   0  0  0  0  0  0  0  0  0  0  0  0
   -7.8640   19.0760  -32.6990 C   0  0  0  0  0  0  0  0  0  0  0  0
   -7.0490   20.0760  -32.2680 N   0  0  0  0  0  0  0  0  0  0  0  0
   -5.2070   22.1980  -31.6780 C   0  0  0  0  0  0  0  0  0  0  0  0
   -4.2990   23.1740  -31.2570 C   0  0  0  0  0  0  0  0  0  0  0  0
   -3.0970   25.6760  -30.7810 H   0  0  0  0  0  0  0  0  0  0  0  0
   -3.8420   25.6660  -29.1480 H   0  0  0  0  0  0  0  0  0  0  0  0
   -6.4698   25.3275  -29.7315 H   0  0  0  0  0  0  0  0  0  0  0  0
   -8.0941   23.5925  -30.4794 H   0  0  0  0  0  0  0  0  0  0  0  0
   -9.3342   22.4603  -31.5215 H   0  0  0  0  0  0  0  0  0  0  0  0
  -10.8629   20.6473  -32.3143 H   0  0  0  0  0  0  0  0  0  0  0  0
   -9.9109   18.4634  -33.0777 H   0  0  0  0  0  0  0  0  0  0  0  0
   -7.4338   18.1179  -33.0261 H   0  0  0  0  0  0  0  0  0  0  0  0
   -4.8455   21.3214  -32.2355 H   0  0  0  0  0  0  0  0  0  0  0  0
   -3.2280   23.0574  -31.4792 H   0  0  0  0  0  0  0  0  0  0  0  0
  1  2  1  0
  2  3  2  0
  3  4  1  0
  4  5  2  0
  5  6  1  0
  6  7  2  0
  7  8  1  0
  8  9  2  0
  9 10  1  0
 10 11  2  0
  5 12  1  0
 12 13  2  0
 13  2  1  0
 11  6  1  0
  1 14  1  0
  1 15  1  0
  3 16  1  0
  4 17  1  0
  7 18  1  0
  8 19  1  0
  9 20  1  0
 10 21  1  0
 12 22  1  0
 13 23  1  0
M  END
>  <UniqueID>  (30) 
27

>  <SMILES>  (30) 
Nc1ccc(-c2ccccn2)cc1

>  <Energy>  (30) 
27.499626578300358

>  <Genealogy>  (30) 
Nc1ccc(-c2ccccn2)cc1 (3D coordinates assigned)
Nc1ccc(-c2ccccn2)cc1 (optimized conformer: 27.499626578300358 kcal/mol)

>  <smiles>  (30) 
Nc1ccc(-c2ccccn2)cc1

>  <score_type>  (30) 
oracle

>  <origin>  (30) 
adgpu

>  <m_score__min__energy>  (30) 
-6.75

>  <m_primary>  (30) 
energy

$$$$
30:0
     RDKit          3D

 50 54  0  0  0  0  0  0  0  0999 V2000
   -3.7860   25.6530  -30.8400 O   0  0  0  0  0  0  0  0  0  0  0  0
   -4.8800   24.8000  -30.7590 C   0  0  0  0  0  0  0  0  0  0  0  0
   -6.1470   25.3140  -30.4620 C   0  0  0  0  0  0  0  0  0  0  0  0
   -7.2490   24.4570  -30.3790 C   0  0  0  0  0  0  0  0  0  0  0  0
   -7.0930   23.0790  -30.6060 C   0  0  0  0  0  0  0  0  0  0  0  0
   -8.2700   22.1520  -30.4800 C   0  0  0  0  0  0  0  0  0  0  0  0
   -8.1300   21.0190  -31.4430 C   0  0  0  0  0  0  0  0  0  0  0  0
   -7.1280   20.1210  -31.4090 N   0  0  0  0  0  0  0  0  0  0  0  0
   -7.4280   19.3480  -32.4750 C   0  0  0  0  0  0  0  0  0  0  0  0
   -6.6210   18.1820  -32.8990 C   0  0  0  0  0  0  0  0  0  0  0  0
   -5.2190   18.2090  -32.7940 C   0  0  0  0  0  0  0  0  0  0  0  0
   -4.4600   17.1060  -33.1940 C   0  0  0  0  0  0  0  0  0  0  0  0
   -5.0840   15.9570  -33.6920 C   0  0  0  0  0  0  0  0  0  0  0  0
   -4.2840   14.8770  -34.0960 O   0  0  0  0  0  0  0  0  0  0  0  0
   -3.4220   14.1480  -33.2650 C   0  0  0  0  0  0  0  0  0  0  0  0
   -3.8770   13.5090  -32.0980 C   0  0  0  0  0  0  0  0  0  0  0  0
   -2.9850   12.8070  -31.2830 C   0  0  0  0  0  0  0  0  0  0  0  0
   -1.6160   12.7600  -31.6070 C   0  0  0  0  0  0  0  0  0  0  0  0
   -0.6700   12.0200  -30.8170 N   0  0  0  0  0  0  0  0  0  0  0  0
    0.3240   12.5020  -30.1290 C   0  0  0  0  0  0  0  0  0  0  0  0
    0.6320   13.8290  -30.1650 N   0  0  0  0  0  0  0  0  0  0  0  0
    1.6860   14.3240  -29.4650 C   0  0  0  0  0  0  0  0  0  0  0  0
    2.4750   13.4690  -28.6990 C   0  0  0  0  0  0  0  0  0  0  0  0
    2.1560   12.1120  -28.6800 C   0  0  0  0  0  0  0  0  0  0  0  0
    1.0930   11.6550  -29.3930 N   0  0  0  0  0  0  0  0  0  0  0  0
   -1.1690   13.3880  -32.7750 C   0  0  0  0  0  0  0  0  0  0  0  0
   -2.0630   14.0920  -33.5890 C   0  0  0  0  0  0  0  0  0  0  0  0
   -6.4830   15.9350  -33.8190 C   0  0  0  0  0  0  0  0  0  0  0  0
   -7.2450   17.0360  -33.4190 C   0  0  0  0  0  0  0  0  0  0  0  0
   -8.5410   19.7630  -33.1140 N   0  0  0  0  0  0  0  0  0  0  0  0
   -8.9440   20.8010  -32.4460 O   0  0  0  0  0  0  0  0  0  0  0  0
   -5.8150   22.5680  -30.8910 C   0  0  0  0  0  0  0  0  0  0  0  0
   -4.7160   23.4280  -30.9720 C   0  0  0  0  0  0  0  0  0  0  0  0
   -6.2764   26.3933  -30.2936 H   0  0  0  0  0  0  0  0  0  0  0  0
   -8.2417   24.8631  -30.1351 H   0  0  0  0  0  0  0  0  0  0  0  0
   -8.3142   21.7559  -29.4547 H   0  0  0  0  0  0  0  0  0  0  0  0
   -9.1932   22.7063  -30.7046 H   0  0  0  0  0  0  0  0  0  0  0  0
   -4.7172   19.1029  -32.3950 H   0  0  0  0  0  0  0  0  0  0  0  0
   -3.3633   17.1414  -33.1167 H   0  0  0  0  0  0  0  0  0  0  0  0
   -4.9413   13.5620  -31.8250 H   0  0  0  0  0  0  0  0  0  0  0  0
   -3.3539   12.2894  -30.3852 H   0  0  0  0  0  0  0  0  0  0  0  0
    1.9161   15.3990  -29.5031 H   0  0  0  0  0  0  0  0  0  0  0  0
    3.3290   13.8551  -28.1231 H   0  0  0  0  0  0  0  0  0  0  0  0
    2.7641   11.4118  -28.0885 H   0  0  0  0  0  0  0  0  0  0  0  0
   -0.1070   13.3277  -33.0552 H   0  0  0  0  0  0  0  0  0  0  0  0
   -1.6944   14.6047  -34.4897 H   0  0  0  0  0  0  0  0  0  0  0  0
   -6.9809   15.0469  -34.2353 H   0  0  0  0  0  0  0  0  0  0  0  0
   -8.3406   17.0050  -33.5120 H   0  0  0  0  0  0  0  0  0  0  0  0
   -5.6793   21.4882  -31.0508 H   0  0  0  0  0  0  0  0  0  0  0  0
   -3.7194   23.0242  -31.2040 H   0  0  0  0  0  0  0  0  0  0  0  0
  1  2  1  0
  2  3  2  0
  3  4  1  0
  4  5  2  0
  5  6  1  0
  6  7  1  0
  7  8  2  0
  8  9  1  0
  9 10  1  0
 10 11  2  0
 11 12  1  0
 12 13  2  0
 13 14  1  0
 14 15  1  0
 15 16  2  0
 16 17  1  0
 17 18  2  0
 18 19  1  0
 19 20  2  3
 20 21  1  0
 21 22  2  0
 22 23  1  0
 23 24  2  0
 24 25  1  0
 18 26  1  0
 26 27  2  0
 13 28  1  0
 28 29  2  0
  9 30  2  0
 30 31  1  0
  5 32  1  0
 32 33  2  0
 33  2  1  0
 31  7  1  0
 29 10  1  0
 27 15  1  0
 25 20  1  0
  3 34  1  0
  4 35  1  0
  6 36  1  0
  6 37  1  0
 11 38  1  0
 12 39  1  0
 16 40  1  0
 17 41  1  0
 22 42  1  0
 23 43  1  0
 24 44  1  0
 26 45  1  0
 27 46  1  0
 28 47  1  0
 29 48  1  0
 32 49  1  0
 33 50  1  0
M  CHG  2   1  -1  25  -1
M  END
>  <UniqueID>  (31) 
28

>  <SMILES>  (31) 
[O-]c1ccc(Cc2nc(-c3ccc(Oc4ccc(N=c5nccc[n-]5)cc4)cc3)no2)cc1

>  <Energy>  (31) 
102.7049958009355

>  <Genealogy>  (31) 
[O-]c1ccc(Cc2nc(-c3ccc(Oc4ccc(N=c5nccc[n-]5)cc4)cc3)no2)cc1 (protonated)
[O-]c1ccc(Cc2nc(-c3ccc(Oc4ccc(N=c5nccc[n-]5)cc4)cc3)no2)cc1 (3D coordinates assigned)
[O-]c1ccc(Cc2nc(-c3ccc(Oc4ccc(N=c5nccc[n-]5)cc4)cc3)no2)cc1 (optimized conformer: 102.7049958009355 kcal/mol)

>  <smiles>  (31) 
Oc1ccc(Cc2nc(-c3ccc(Oc4ccc(N=c5nccc[nH]5)cc4)cc3)no2)cc1

>  <score_type>  (31) 
oracle

>  <origin>  (31) 
adgpu

>  <m_score__min__energy>  (31) 
-11.58

>  <m_primary>  (31) 
energy

$$$$
31:0
     RDKit          3D

 49 52  0  0  0  0  0  0  0  0999 V2000
   -6.4190   25.8610  -28.9500 C   0  0  0  0  0  0  0  0  0  0  0  0
   -6.1830   25.6730  -30.3410 O   0  0  0  0  0  0  0  0  0  0  0  0
   -5.6330   24.5100  -30.9040 C   0  0  0  0  0  0  0  0  0  0  0  0
   -6.4260   23.5300  -31.5260 C   0  0  0  0  0  0  0  0  0  0  0  0
   -5.8370   22.3800  -32.0780 C   0  0  0  0  0  0  0  0  0  0  0  0
   -6.6400   21.4120  -32.6900 C   0  0  0  0  0  0  0  0  0  0  0  0
   -6.0740   20.2650  -33.2440 C   0  0  0  0  0  0  0  0  0  0  0  0
   -6.9130   19.3190  -33.8250 O   0  0  0  0  0  0  0  0  0  0  0  0
   -4.6810   20.0680  -33.2110 C   0  0  0  0  0  0  0  0  0  0  0  0
   -4.0970   18.8010  -33.7980 C   0  0  0  0  0  0  0  0  0  0  0  0
   -5.0140   17.3560  -33.1660 S   0  0  0  0  0  0  0  0  0  0  0  0
   -3.5520   16.3140  -33.0600 C   0  0  0  0  0  0  0  0  0  0  0  0
   -2.2920   16.9130  -33.1920 C   0  0  0  0  0  0  0  0  0  0  0  0
   -1.1320   16.1380  -33.1280 C   0  0  0  0  0  0  0  0  0  0  0  0
   -1.2220   14.7610  -32.9250 C   0  0  0  0  0  0  0  0  0  0  0  0
   -2.4730   14.1530  -32.7820 C   0  0  0  0  0  0  0  0  0  0  0  0
   -3.6490   14.9210  -32.8420 C   0  0  0  0  0  0  0  0  0  0  0  0
   -4.9860   14.2500  -32.6810 C   0  0  0  0  0  0  0  0  0  0  0  0
   -3.8540   21.0290  -32.5730 C   0  0  0  0  0  0  0  0  0  0  0  0
   -2.3930   20.7980  -32.4750 C   0  0  0  0  0  0  0  0  0  0  0  0
   -1.8740   20.0080  -31.4390 C   0  0  0  0  0  0  0  0  0  0  0  0
   -0.4980   19.7810  -31.3530 C   0  0  0  0  0  0  0  0  0  0  0  0
    0.3670   20.3430  -32.2980 C   0  0  0  0  0  0  0  0  0  0  0  0
    1.7330   20.1070  -32.2100 O   0  0  0  0  0  0  0  0  0  0  0  0
   -0.1460   21.1380  -33.3310 C   0  0  0  0  0  0  0  0  0  0  0  0
    0.7090   21.6990  -34.2710 O   0  0  0  0  0  0  0  0  0  0  0  0
   -1.5240   21.3690  -33.4170 C   0  0  0  0  0  0  0  0  0  0  0  0
   -4.4340   22.1960  -32.0110 C   0  0  0  0  0  0  0  0  0  0  0  0
   -3.6520   23.1890  -31.3840 C   0  0  0  0  0  0  0  0  0  0  0  0
   -4.2470   24.3300  -30.8400 C   0  0  0  0  0  0  0  0  0  0  0  0
   -3.4510   25.2920  -30.2280 O   0  0  0  0  0  0  0  0  0  0  0  0
   -5.6871   25.2779  -28.3718 H   0  0  0  0  0  0  0  0  0  0  0  0
   -6.3166   26.9277  -28.7016 H   0  0  0  0  0  0  0  0  0  0  0  0
   -7.4358   25.5227  -28.7016 H   0  0  0  0  0  0  0  0  0  0  0  0
   -7.5164   23.6646  -31.5810 H   0  0  0  0  0  0  0  0  0  0  0  0
   -7.7294   21.5574  -32.7346 H   0  0  0  0  0  0  0  0  0  0  0  0
   -4.1770   18.8346  -34.8946 H   0  0  0  0  0  0  0  0  0  0  0  0
   -3.0389   18.7178  -33.5089 H   0  0  0  0  0  0  0  0  0  0  0  0
   -2.2162   17.9994  -33.3469 H   0  0  0  0  0  0  0  0  0  0  0  0
   -0.1464   16.6140  -33.2378 H   0  0  0  0  0  0  0  0  0  0  0  0
   -0.3071   14.1522  -32.8773 H   0  0  0  0  0  0  0  0  0  0  0  0
   -2.5374   13.0667  -32.6215 H   0  0  0  0  0  0  0  0  0  0  0  0
   -5.2126   14.1363  -31.6106 H   0  0  0  0  0  0  0  0  0  0  0  0
   -5.7643   14.8643  -33.1573 H   0  0  0  0  0  0  0  0  0  0  0  0
   -4.9586   13.2589  -33.1573 H   0  0  0  0  0  0  0  0  0  0  0  0
   -2.5512   19.5664  -30.6930 H   0  0  0  0  0  0  0  0  0  0  0  0
   -0.0940   19.1591  -30.5406 H   0  0  0  0  0  0  0  0  0  0  0  0
   -1.9260   21.9990  -34.2241 H   0  0  0  0  0  0  0  0  0  0  0  0
   -2.5609   23.0633  -31.3228 H   0  0  0  0  0  0  0  0  0  0  0  0
  1  2  1  0
  2  3  1  0
  3  4  2  0
  4  5  1  0
  5  6  2  0
  6  7  1  0
  7  8  1  0
  7  9  2  0
  9 10  1  0
 10 11  1  0
 11 12  1  0
 12 13  2  0
 13 14  1  0
 14 15  2  0
 15 16  1  0
 16 17  2  0
 17 18  1  0
  9 19  1  0
 19 20  1  0
 20 21  2  0
 21 22  1  0
 22 23  2  0
 23 24  1  0
 23 25  1  0
 25 26  1  0
 25 27  2  0
 19 28  2  0
 28 29  1  0
 29 30  2  0
 30 31  1  0
 30  3  1  0
 28  5  1  0
 17 12  1  0
 27 20  1  0
  1 32  1  0
  1 33  1  0
  1 34  1  0
  4 35  1  0
  6 36  1  0
 10 37  1  0
 10 38  1  0
 13 39  1  0
 14 40  1  0
 15 41  1  0
 16 42  1  0
 18 43  1  0
 18 44  1  0
 18 45  1  0
 21 46  1  0
 22 47  1  0
 27 48  1  0
 29 49  1  0
M  CHG  4   8  -1  24  -1  26  -1  31  -1
M  END
>  <UniqueID>  (32) 
29

>  <SMILES>  (32) 
COc1cc2cc([O-])c(CSc3ccccc3C)c(-c3ccc([O-])c([O-])c3)c2cc1[O-]

>  <Energy>  (32) 
62.609693540158545

>  <Genealogy>  (32) 
COc1cc2cc([O-])c(CSc3ccccc3C)c(-c3ccc([O-])c([O-])c3)c2cc1[O-] (protonated)
COc1cc2cc([O-])c(CSc3ccccc3C)c(-c3ccc([O-])c([O-])c3)c2cc1[O-] (3D coordinates assigned)
COc1cc2cc([O-])c(CSc3ccccc3C)c(-c3ccc([O-])c([O-])c3)c2cc1[O-] (optimized conformer: 62.609693540158545 kcal/mol)

>  <smiles>  (32) 
COc1cc2cc(O)c(CSc3ccccc3C)c(-c3ccc(O)c(O)c3)c2cc1O

>  <score_type>  (32) 
oracle

>  <origin>  (32) 
adgpu

>  <m_score__min__energy>  (32) 
-12.75

>  <m_primary>  (32) 
energy

$$$$
32:0
     RDKit          3D

 49 52  0  0  0  0  0  0  0  0999 V2000
   -1.6820   18.1930  -33.5600 C   0  0  0  0  0  0  0  0  0  0  0  0
   -1.1830   19.5460  -33.2850 N   0  0  0  0  0  0  0  0  0  0  0  0
    0.2280   19.8520  -33.5590 C   0  0  0  0  0  0  0  0  0  0  0  0
   -2.0680   20.5650  -32.7510 C   0  0  0  0  0  0  0  0  0  0  0  0
   -1.8290   21.1400  -31.4840 C   0  0  0  0  0  0  0  0  0  0  0  0
   -2.6800   22.1230  -30.9710 C   0  0  0  0  0  0  0  0  0  0  0  0
   -3.7800   22.5690  -31.7140 C   0  0  0  0  0  0  0  0  0  0  0  0
   -4.6800   23.5970  -31.1500 C   0  0  0  0  0  0  0  0  0  0  0  0
   -4.2280   24.7630  -30.6460 N   0  0  0  0  0  0  0  0  0  0  0  0
   -5.2620   25.4160  -30.1410 N   0  0  0  0  0  0  0  0  0  0  0  0
   -6.3830   24.6920  -30.3050 C   0  0  0  0  0  0  0  0  0  0  0  0
   -6.0580   23.5230  -30.9610 C   0  0  0  0  0  0  0  0  0  0  0  0
   -7.0210   22.5010  -31.4130 C   0  0  0  0  0  0  0  0  0  0  0  0
   -8.4030   22.6730  -31.2490 C   0  0  0  0  0  0  0  0  0  0  0  0
   -9.2730   21.6720  -31.6770 C   0  0  0  0  0  0  0  0  0  0  0  0
   -8.7670   20.5020  -32.2450 C   0  0  0  0  0  0  0  0  0  0  0  0
   -7.3750   20.3380  -32.3690 C   0  0  0  0  0  0  0  0  0  0  0  0
   -6.8030   19.1380  -32.9370 N   0  0  0  0  0  0  0  0  0  0  0  0
   -6.1070   19.2160  -34.2280 C   0  0  0  0  0  0  0  0  0  0  0  0
   -5.0680   18.0980  -34.3410 C   0  0  0  0  0  0  0  0  0  0  0  0
   -5.6520   16.8410  -34.0560 O   0  0  0  0  0  0  0  0  0  0  0  0
   -6.0500   16.8040  -32.7010 C   0  0  0  0  0  0  0  0  0  0  0  0
   -7.1740   17.8090  -32.4330 C   0  0  0  0  0  0  0  0  0  0  0  0
   -6.5540   21.3400  -31.9480 N   0  0  0  0  0  0  0  0  0  0  0  0
   -4.0410   21.9880  -32.9630 C   0  0  0  0  0  0  0  0  0  0  0  0
   -3.1930   21.0050  -33.4790 C   0  0  0  0  0  0  0  0  0  0  0  0
   -1.8739   17.6728  -32.6100 H   0  0  0  0  0  0  0  0  0  0  0  0
   -2.6157   18.2570  -34.1381 H   0  0  0  0  0  0  0  0  0  0  0  0
   -0.9304   17.6354  -34.1381 H   0  0  0  0  0  0  0  0  0  0  0  0
    0.7690   19.9693  -32.6085 H   0  0  0  0  0  0  0  0  0  0  0  0
    0.6759   19.0301  -34.1368 H   0  0  0  0  0  0  0  0  0  0  0  0
    0.2952   20.7856  -34.1368 H   0  0  0  0  0  0  0  0  0  0  0  0
   -0.9619   20.8102  -30.8929 H   0  0  0  0  0  0  0  0  0  0  0  0
   -2.4842   22.5495  -29.9761 H   0  0  0  0  0  0  0  0  0  0  0  0
   -5.1990   26.3540  -29.6870 H   0  0  0  0  0  0  0  0  0  0  0  0
   -7.3902   24.9831  -29.9720 H   0  0  0  0  0  0  0  0  0  0  0  0
   -8.7969   23.5900  -30.7866 H   0  0  0  0  0  0  0  0  0  0  0  0
  -10.3595   21.8042  -31.5670 H   0  0  0  0  0  0  0  0  0  0  0  0
   -9.4511   19.7141  -32.5931 H   0  0  0  0  0  0  0  0  0  0  0  0
   -6.8399   19.1136  -35.0419 H   0  0  0  0  0  0  0  0  0  0  0  0
   -5.5959   20.1874  -34.3003 H   0  0  0  0  0  0  0  0  0  0  0  0
   -4.6624   18.0841  -35.3634 H   0  0  0  0  0  0  0  0  0  0  0  0
   -4.2646   18.2874  -33.6139 H   0  0  0  0  0  0  0  0  0  0  0  0
   -6.4064   15.7921  -32.4580 H   0  0  0  0  0  0  0  0  0  0  0  0
   -5.1858   17.0684  -32.0739 H   0  0  0  0  0  0  0  0  0  0  0  0
   -8.0902   17.4719  -32.9398 H   0  0  0  0  0  0  0  0  0  0  0  0
   -7.3442   17.8733  -31.3482 H   0  0  0  0  0  0  0  0  0  0  0  0
   -4.9202   22.3086  -33.5411 H   0  0  0  0  0  0  0  0  0  0  0  0
   -3.4055   20.5684  -34.4660 H   0  0  0  0  0  0  0  0  0  0  0  0
  1  2  1  0
  2  3  1  0
  2  4  1  0
  4  5  2  0
  5  6  1  0
  6  7  2  0
  7  8  1  0
  8  9  2  0
  9 10  1  0
 10 11  1  0
 11 12  2  0
 12 13  1  0
 13 14  2  0
 14 15  1  0
 15 16  2  0
 16 17  1  0
 17 18  1  0
 18 19  1  0
 19 20  1  0
 20 21  1  0
 21 22  1  0
 22 23  1  0
 17 24  2  0
  7 25  1  0
 25 26  2  0
 26  4  1  0
 12  8  1  0
 24 13  1  0
 23 18  1  0
  1 27  1  0
  1 28  1  0
  1 29  1  0
  3 30  1  0
  3 31  1  0
  3 32  1  0
  5 33  1  0
  6 34  1  0
 10 35  1  0
 11 36  1  0
 14 37  1  0
 15 38  1  0
 16 39  1  0
 19 40  1  0
 19 41  1  0
 20 42  1  0
 20 43  1  0
 22 44  1  0
 22 45  1  0
 23 46  1  0
 23 47  1  0
 25 48  1  0
 26 49  1  0
M  END
>  <UniqueID>  (33) 
30

>  <SMILES>  (33) 
CN(C)c1ccc(-c2n[nH]cc2-c2cccc(N3CCOCC3)n2)cc1

>  <Energy>  (33) 
95.14017260727874

>  <Genealogy>  (33) 
CN(C)c1ccc(-c2n[nH]cc2-c2cccc(N3CCOCC3)n2)cc1 (3D coordinates assigned)
CN(C)c1ccc(-c2n[nH]cc2-c2cccc(N3CCOCC3)n2)cc1 (nonaromatic ring conformer: 95.14017260727874 kcal/mol)

>  <smiles>  (33) 
CN(C)c1ccc(-c2n[nH]cc2-c2cccc(N3CCOCC3)n2)cc1

>  <score_type>  (33) 
oracle

>  <origin>  (33) 
adgpu

>  <m_score__min__energy>  (33) 
-9.3699999999999992

>  <m_primary>  (33) 
energy

$$$$
33:0
     RDKit          3D

 47 49  0  0  0  0  0  0  0  0999 V2000
   -4.2040   16.2900  -34.9450 C   0  0  0  0  0  0  0  0  0  0  0  0
   -5.3420   17.2220  -34.9450 N   0  0  0  0  0  0  0  0  0  0  0  0
   -4.9040   18.5680  -34.5110 C   0  0  0  0  0  0  0  0  0  0  0  0
   -6.0950   19.4140  -34.0420 C   0  0  0  0  0  0  0  0  0  0  0  0
   -6.8070   18.8030  -32.8870 N   0  0  0  0  0  0  0  0  0  0  0  0
   -6.4760   19.4670  -31.6090 C   0  0  0  0  0  0  0  0  0  0  0  0
   -6.8000   20.9420  -31.6750 C   0  0  0  0  0  0  0  0  0  0  0  0
   -5.7650   21.8830  -31.5480 C   0  0  0  0  0  0  0  0  0  0  0  0
   -6.0260   23.2570  -31.6710 C   0  0  0  0  0  0  0  0  0  0  0  0
   -4.9760   24.2280  -31.5700 N   0  0  0  0  0  0  0  0  0  0  0  0
   -3.9170   24.2050  -30.6030 C   0  0  0  0  0  0  0  0  0  0  0  0
   -3.5460   25.2910  -30.0870 O   0  0  0  0  0  0  0  0  0  0  0  0
   -3.2730   22.9680  -30.2500 N   0  0  0  0  0  0  0  0  0  0  0  0
   -2.3180   22.8320  -29.1860 C   0  0  0  0  0  0  0  0  0  0  0  0
   -2.5730   22.0150  -28.0700 C   0  0  0  0  0  0  0  0  0  0  0  0
   -1.6410   21.9300  -27.0310 C   0  0  0  0  0  0  0  0  0  0  0  0
   -0.4540   22.6650  -27.0910 C   0  0  0  0  0  0  0  0  0  0  0  0
    0.4440   22.5830  -26.0790 F   0  0  0  0  0  0  0  0  0  0  0  0
   -0.2020   23.4940  -28.1890 C   0  0  0  0  0  0  0  0  0  0  0  0
    0.9440   24.2180  -28.2460 F   0  0  0  0  0  0  0  0  0  0  0  0
   -1.1330   23.5820  -29.2290 C   0  0  0  0  0  0  0  0  0  0  0  0
   -7.3420   23.6930  -31.8510 C   0  0  0  0  0  0  0  0  0  0  0  0
   -8.3810   22.7670  -31.9650 C   0  0  0  0  0  0  0  0  0  0  0  0
   -8.1190   21.3940  -31.8920 C   0  0  0  0  0  0  0  0  0  0  0  0
   -9.4640   20.2710  -32.0690 Cl  0  0  0  0  0  0  0  0  0  0  0  0
   -6.5980   17.3410  -32.7760 C   0  0  0  0  0  0  0  0  0  0  0  0
   -6.4820   16.6850  -34.1590 C   0  0  0  0  0  0  0  0  0  0  0  0
   -3.9203   16.0577  -33.9079 H   0  0  0  0  0  0  0  0  0  0  0  0
   -4.4894   15.3628  -35.4635 H   0  0  0  0  0  0  0  0  0  0  0  0
   -3.3513   16.7525  -35.4635 H   0  0  0  0  0  0  0  0  0  0  0  0
   -4.1896   18.4628  -33.6812 H   0  0  0  0  0  0  0  0  0  0  0  0
   -4.4325   19.0738  -35.3665 H   0  0  0  0  0  0  0  0  0  0  0  0
   -5.7272   20.4071  -33.7446 H   0  0  0  0  0  0  0  0  0  0  0  0
   -6.8077   19.4807  -34.8772 H   0  0  0  0  0  0  0  0  0  0  0  0
   -7.0601   19.0046  -30.7997 H   0  0  0  0  0  0  0  0  0  0  0  0
   -5.3993   19.3491  -31.4171 H   0  0  0  0  0  0  0  0  0  0  0  0
   -4.7389   21.5397  -31.3500 H   0  0  0  0  0  0  0  0  0  0  0  0
   -3.5840   22.0900  -30.7250 H   0  0  0  0  0  0  0  0  0  0  0  0
   -3.5094   21.4405  -28.0142 H   0  0  0  0  0  0  0  0  0  0  0  0
   -1.8427   21.2831  -26.1645 H   0  0  0  0  0  0  0  0  0  0  0  0
   -0.9350   24.2430  -30.0856 H   0  0  0  0  0  0  0  0  0  0  0  0
   -7.5599   24.7699  -31.9030 H   0  0  0  0  0  0  0  0  0  0  0  0
   -9.4125   23.1191  -32.1132 H   0  0  0  0  0  0  0  0  0  0  0  0
   -5.6722   17.1536  -32.2123 H   0  0  0  0  0  0  0  0  0  0  0  0
   -7.4654   16.9057  -32.2581 H   0  0  0  0  0  0  0  0  0  0  0  0
   -6.3408   15.6022  -34.0260 H   0  0  0  0  0  0  0  0  0  0  0  0
   -7.4060   16.9051  -34.7138 H   0  0  0  0  0  0  0  0  0  0  0  0
  1  2  1  0
  2  3  1  0
  3  4  1  0
  4  5  1  0
  5  6  1  0
  6  7  1  0
  7  8  2  0
  8  9  1  0
  9 10  1  0
 10 11  1  0
 11 12  2  0
 11 13  1  0
 13 14  1  0
 14 15  2  0
 15 16  1  0
 16 17  2  0
 17 18  1  0
 17 19  1  0
 19 20  1  0
 19 21  2  0
  9 22  2  0
 22 23  1  0
 23 24  2  0
 24 25  1  0
  5 26  1  0
 26 27  1  0
 27  2  1  0
 24  7  1  0
 21 14  1  0
  1 28  1  0
  1 29  1  0
  1 30  1  0
  3 31  1  0
  3 32  1  0
  4 33  1  0
  4 34  1  0
  6 35  1  0
  6 36  1  0
  8 37  1  0
 13 38  1  0
 15 39  1  0
 16 40  1  0
 21 41  1  0
 22 42  1  0
 23 43  1  0
 26 44  1  0
 26 45  1  0
 27 46  1  0
 27 47  1  0
M  CHG  1  10  -1
M  END
>  <UniqueID>  (34) 
31

>  <SMILES>  (34) 
CN1CCN(Cc2cc([N-]C(=O)Nc3ccc(F)c(F)c3)ccc2Cl)CC1

>  <Energy>  (34) 
67.93572548803252

>  <Genealogy>  (34) 
CN1CCN(Cc2cc([N-]C(=O)Nc3ccc(F)c(F)c3)ccc2Cl)CC1 (protonated)
CN1CCN(Cc2cc([N-]C(=O)Nc3ccc(F)c(F)c3)ccc2Cl)CC1 (3D coordinates assigned)
CN1CCN(Cc2cc([N-]C(=O)Nc3ccc(F)c(F)c3)ccc2Cl)CC1 (nonaromatic ring conformer: 67.93572548803252 kcal/mol)

>  <smiles>  (34) 
CN1CCN(Cc2cc(NC(=O)Nc3ccc(F)c(F)c3)ccc2Cl)CC1

>  <score_type>  (34) 
oracle

>  <origin>  (34) 
adgpu

>  <m_score__min__energy>  (34) 
-10.43

>  <m_primary>  (34) 
energy

$$$$
34:0
     RDKit          3D

 65 69  0  0  0  0  0  0  0  0999 V2000
    3.5020   29.0380  -33.4640 C   0  0  0  0  0  0  0  0  0  0  0  0
    2.3570   29.2580  -34.3920 C   0  0  0  0  0  0  0  0  0  0  0  0
    2.0930   28.5420  -35.5400 C   0  0  0  0  0  0  0  0  0  0  0  0
    0.9320   29.1330  -36.0070 C   0  0  0  0  0  0  0  0  0  0  0  0
    0.2650   28.8100  -37.0720 N   0  0  0  0  0  0  0  0  0  0  0  0
    0.7020   27.5310  -38.1600 S   0  0  0  0  0  0  0  0  0  0  0  0
    1.9360   27.9240  -38.9310 O   0  0  0  0  0  0  0  0  0  0  0  0
   -0.4220   27.3130  -39.1350 O   0  0  0  0  0  0  0  0  0  0  0  0
    0.9630   26.0410  -37.2620 C   0  0  0  0  0  0  0  0  0  0  0  0
   -0.1190   25.2700  -36.8240 C   0  0  0  0  0  0  0  0  0  0  0  0
    0.1020   24.0890  -36.1100 C   0  0  0  0  0  0  0  0  0  0  0  0
    1.4050   23.6670  -35.8150 C   0  0  0  0  0  0  0  0  0  0  0  0
    1.5630   22.4480  -35.0720 N   0  0  0  0  0  0  0  0  0  0  0  0
    0.6520   21.5630  -34.8060 C   0  0  0  0  0  0  0  0  0  0  0  0
    1.0020   20.3260  -34.0670 C   0  0  0  0  0  0  0  0  0  0  0  0
    0.0550   19.6390  -33.2720 C   0  0  0  0  0  0  0  0  0  0  0  0
   -1.3250   20.0240  -33.2580 N   0  0  0  0  0  0  0  0  0  0  0  0
   -1.8420   21.0500  -32.3930 C   0  0  0  0  0  0  0  0  0  0  0  0
   -1.0910   21.5380  -31.3090 C   0  0  0  0  0  0  0  0  0  0  0  0
   -1.5920   22.5740  -30.5170 C   0  0  0  0  0  0  0  0  0  0  0  0
   -2.8430   23.1390  -30.7920 C   0  0  0  0  0  0  0  0  0  0  0  0
   -3.4700   24.4600  -29.8120 S   0  0  0  0  0  0  0  0  0  0  0  0
   -4.2660   25.6150  -30.8220 N   0  0  0  0  0  0  0  0  0  0  0  0
   -2.3340   25.1190  -29.0780 O   0  0  0  0  0  0  0  0  0  0  0  0
   -4.4620   23.9380  -28.8090 O   0  0  0  0  0  0  0  0  0  0  0  0
   -3.5850   22.6690  -31.8830 C   0  0  0  0  0  0  0  0  0  0  0  0
   -3.0850   21.6370  -32.6830 C   0  0  0  0  0  0  0  0  0  0  0  0
    0.4440   18.5650  -32.5360 N   0  0  0  0  0  0  0  0  0  0  0  0
    1.7250   18.1100  -32.5200 C   0  0  0  0  0  0  0  0  0  0  0  0
    2.0810   16.9610  -31.7330 N   0  0  0  0  0  0  0  0  0  0  0  0
    1.7110   16.7920  -30.3550 C   0  0  0  0  0  0  0  0  0  0  0  0
    1.1850   17.8580  -29.6010 C   0  0  0  0  0  0  0  0  0  0  0  0
    0.8260   17.6640  -28.2630 C   0  0  0  0  0  0  0  0  0  0  0  0
    1.0060   16.4150  -27.6610 C   0  0  0  0  0  0  0  0  0  0  0  0
    1.5560   15.3590  -28.3940 C   0  0  0  0  0  0  0  0  0  0  0  0
    1.9170   15.5490  -29.7320 C   0  0  0  0  0  0  0  0  0  0  0  0
    2.6860   18.7390  -33.3180 C   0  0  0  0  0  0  0  0  0  0  0  0
    2.3270   19.8460  -34.0900 C   0  0  0  0  0  0  0  0  0  0  0  0
    3.2080   20.4170  -34.7890 O   0  0  0  0  0  0  0  0  0  0  0  0
    2.4940   24.4360  -36.2720 C   0  0  0  0  0  0  0  0  0  0  0  0
    2.2690   25.6160  -36.9890 C   0  0  0  0  0  0  0  0  0  0  0  0
    0.5500   30.1290  -35.1860 N   0  0  0  0  0  0  0  0  0  0  0  0
    1.4300   30.1740  -34.2270 O   0  0  0  0  0  0  0  0  0  0  0  0
    3.1495   29.1057  -32.4242 H   0  0  0  0  0  0  0  0  0  0  0  0
    3.9314   28.0409  -33.6414 H   0  0  0  0  0  0  0  0  0  0  0  0
    4.2703   29.8049  -33.6414 H   0  0  0  0  0  0  0  0  0  0  0  0
    2.6631   27.7085  -35.9762 H   0  0  0  0  0  0  0  0  0  0  0  0
   -1.1472   25.5943  -37.0423 H   0  0  0  0  0  0  0  0  0  0  0  0
   -0.7550   23.4853  -35.7766 H   0  0  0  0  0  0  0  0  0  0  0  0
   -0.3855   21.7313  -35.1305 H   0  0  0  0  0  0  0  0  0  0  0  0
   -1.9700   19.5570  -33.9350 H   0  0  0  0  0  0  0  0  0  0  0  0
   -0.1062   21.1027  -31.0840 H   0  0  0  0  0  0  0  0  0  0  0  0
   -0.9985   22.9490  -29.6701 H   0  0  0  0  0  0  0  0  0  0  0  0
   -4.2600   26.5280  -30.3170 H   0  0  0  0  0  0  0  0  0  0  0  0
   -4.5649   23.1135  -32.1114 H   0  0  0  0  0  0  0  0  0  0  0  0
   -3.6688   21.2823  -33.5452 H   0  0  0  0  0  0  0  0  0  0  0  0
    2.5280   16.1530  -32.2190 H   0  0  0  0  0  0  0  0  0  0  0  0
    1.0559   18.8467  -30.0655 H   0  0  0  0  0  0  0  0  0  0  0  0
    0.4009   18.4964  -27.6829 H   0  0  0  0  0  0  0  0  0  0  0  0
    0.7150   16.2632  -26.6111 H   0  0  0  0  0  0  0  0  0  0  0  0
    1.7049   14.3784  -27.9183 H   0  0  0  0  0  0  0  0  0  0  0  0
    2.3649   14.7204  -30.3002 H   0  0  0  0  0  0  0  0  0  0  0  0
    3.7198   18.3635  -33.3375 H   0  0  0  0  0  0  0  0  0  0  0  0
    3.5231   24.1077  -36.0645 H   0  0  0  0  0  0  0  0  0  0  0  0
    3.1231   26.2135  -37.3404 H   0  0  0  0  0  0  0  0  0  0  0  0
  1  2  1  0
  2  3  2  0
  3  4  1  0
  4  5  2  3
  5  6  1  0
  6  7  2  0
  6  8  2  0
  6  9  1  0
  9 10  2  0
 10 11  1  0
 11 12  2  0
 12 13  1  0
 13 14  2  3
 14 15  1  0
 15 16  2  0
 16 17  1  0
 17 18  1  0
 18 19  2  0
 19 20  1  0
 20 21  2  0
 21 22  1  0
 22 23  1  0
 22 24  2  0
 22 25  2  0
 21 26  1  0
 26 27  2  0
 16 28  1  0
 28 29  1  0
 29 30  1  0
 30 31  1  0
 31 32  2  0
 32 33  1  0
 33 34  2  0
 34 35  1  0
 35 36  2  0
 29 37  2  0
 37 38  1  0
 38 39  2  0
 12 40  1  0
 40 41  2  0
  4 42  1  0
 42 43  1  0
 43  2  1  0
 41  9  1  0
 38 15  1  0
 27 18  1  0
 36 31  1  0
  1 44  1  0
  1 45  1  0
  1 46  1  0
  3 47  1  0
 10 48  1  0
 11 49  1  0
 14 50  1  0
 17 51  1  0
 19 52  1  0
 20 53  1  0
 23 54  1  0
 26 55  1  0
 27 56  1  0
 30 57  1  0
 32 58  1  0
 33 59  1  0
 34 60  1  0
 35 61  1  0
 36 62  1  0
 37 63  1  0
 40 64  1  0
 41 65  1  0
M  CHG  3  23  -1  28  -1  42  -1
M  END
>  <UniqueID>  (35) 
32

>  <SMILES>  (35) 
Cc1cc(=NS(=O)(=O)c2ccc(N=Cc3c(Nc4ccc(S([NH-])(=O)=O)cc4)[n-]c(Nc4ccccc4)cc3=O)cc2)[n-]o1

>  <Energy>  (35) 
120.16430594253562

>  <Genealogy>  (35) 
Cc1cc(=NS(=O)(=O)c2ccc(N=Cc3c(Nc4ccc(S([NH-])(=O)=O)cc4)[n-]c(Nc4ccccc4)cc3=O)cc2)[n-]o1 (protonated)
Cc1cc(=NS(=O)(=O)c2ccc(N=Cc3c(Nc4ccc(S([NH-])(=O)=O)cc4)[n-]c(Nc4ccccc4)cc3=O)cc2)[n-]o1 (3D coordinates assigned)
Cc1cc(=NS(=O)(=O)c2ccc(N=Cc3c(Nc4ccc(S([NH-])(=O)=O)cc4)[n-]c(Nc4ccccc4)cc3=O)cc2)[n-]o1 (optimized conformer: 120.16430594253562 kcal/mol)

>  <smiles>  (35) 
Cc1cc(=NS(=O)(=O)c2ccc(N=Cc3c(Nc4ccc(S(N)(=O)=O)cc4)[nH]c(Nc4ccccc4)cc3=O)cc2)[nH]o1

>  <score_type>  (35) 
oracle

>  <origin>  (35) 
adgpu

>  <m_score__min__energy>  (35) 
-13.15

>  <m_primary>  (35) 
energy

$$$$
35:0
     RDKit          3D

 59 63  0  0  1  0  0  0  0  0999 V2000
   -0.4910   27.6390  -26.2470 C   0  0  0  0  0  0  0  0  0  0  0  0
   -0.1810   26.2500  -26.6760 C   0  0  0  0  0  0  0  0  0  0  0  0
   -0.4900   25.1400  -25.8960 C   0  0  0  0  0  0  0  0  0  0  0  0
   -0.0330   24.0640  -26.6670 C   0  0  0  0  0  0  0  0  0  0  0  0
   -0.1580   22.7170  -26.2240 N   0  0  0  0  0  0  0  0  0  0  0  0
   -1.1040   21.9760  -26.6760 C   0  0  0  0  0  0  0  0  0  0  0  0
   -2.0140   22.4810  -27.5990 C   0  0  0  0  0  0  0  0  0  0  0  0
   -3.0440   21.7270  -28.1170 C   0  0  0  0  0  0  0  0  0  0  0  0
   -3.9870   22.2080  -29.0530 N   0  0  0  0  0  0  0  0  0  0  0  0
   -4.0790   21.7800  -30.4290 C   0  0  0  0  0  0  0  0  0  0  0  0
   -4.1110   22.9200  -31.4230 C   0  0  0  0  0  0  0  0  0  0  0  0
   -4.8980   24.1200  -30.9620 C   0  0  0  0  0  0  0  0  0  0  0  0
   -6.2540   24.0720  -31.2480 N   0  0  0  0  0  0  0  0  0  0  0  0
   -6.7670   23.4160  -32.3580 C   0  0  0  0  0  0  0  0  0  0  0  0
   -7.4900   22.1560  -32.1980 C   0  0  0  0  0  0  0  0  0  0  0  0
   -8.7840   22.2560  -31.6620 C   0  0  0  0  0  0  0  0  0  0  0  0
   -9.5960   21.1510  -31.5210 C   0  0  0  0  0  0  0  0  0  0  0  0
   -9.1900   19.8880  -31.8950 C   0  0  0  0  0  0  0  0  0  0  0  0
   -7.9070   19.7740  -32.4270 C   0  0  0  0  0  0  0  0  0  0  0  0
   -7.4660   18.5630  -32.7780 N   0  0  0  0  0  0  0  0  0  0  0  0
   -6.2280   18.3240  -33.2810 C   0  0  0  0  0  0  0  0  0  0  0  0
   -5.4040   19.4470  -33.4210 C   0  0  0  0  0  0  0  0  0  0  0  0
   -5.8450   20.6940  -33.0650 C   0  0  0  0  0  0  0  0  0  0  0  0
   -7.1010   20.9040  -32.5610 C   0  0  0  0  0  0  0  0  0  0  0  0
   -4.6360   24.4260  -29.4850 C   0  0  0  0  0  0  0  0  0  0  0  0
   -4.9690   23.2200  -28.6340 C   0  0  0  0  0  0  0  0  0  0  0  0
   -3.1350   20.4540  -27.6820 N   0  0  0  0  0  0  0  0  0  0  0  0
   -2.2660   19.9340  -26.7870 C   0  0  0  0  0  0  0  0  0  0  0  0
   -2.4000   18.5270  -26.3330 C   0  0  0  0  0  0  0  0  0  0  0  0
   -1.2670   20.6840  -26.2920 N   0  0  0  0  0  0  0  0  0  0  0  0
    0.4830   24.5410  -27.7740 O   0  0  0  0  0  0  0  0  0  0  0  0
    0.4180   25.8370  -27.8270 N   0  0  0  0  0  0  0  0  0  0  0  0
   -0.5023   27.6895  -25.1482 H   0  0  0  0  0  0  0  0  0  0  0  0
    0.2765   28.3233  -26.6377 H   0  0  0  0  0  0  0  0  0  0  0  0
   -1.4766   27.9321  -26.6377 H   0  0  0  0  0  0  0  0  0  0  0  0
   -0.9767   25.1139  -24.9099 H   0  0  0  0  0  0  0  0  0  0  0  0
   -1.9068   23.5249  -27.9287 H   0  0  0  0  0  0  0  0  0  0  0  0
   -3.2075   21.1479  -30.6544 H   0  0  0  0  0  0  0  0  0  0  0  0
   -5.0307   21.2382  -30.5327 H   0  0  0  0  0  0  0  0  0  0  0  0
   -3.0760   23.2393  -31.6151 H   0  0  0  0  0  0  0  0  0  0  0  0
   -4.6139   22.5394  -32.3242 H   0  0  0  0  0  0  0  0  0  0  0  0
   -4.5194   24.9591  -31.5641 H   0  0  0  0  0  0  0  0  0  0  0  0
   -6.9180   24.4420  -30.5420 H   0  0  0  0  0  0  0  0  0  0  0  0
   -7.4577   24.1173  -32.8490 H   0  0  0  0  0  0  0  0  0  0  0  0
   -5.8648   23.1187  -32.9127 H   0  0  0  0  0  0  0  0  0  0  0  0
   -9.1591   23.2408  -31.3467 H   0  0  0  0  0  0  0  0  0  0  0  0
  -10.6020   21.2816  -31.0956 H   0  0  0  0  0  0  0  0  0  0  0  0
   -9.8465   19.0130  -31.7792 H   0  0  0  0  0  0  0  0  0  0  0  0
   -5.8941   17.3138  -33.5604 H   0  0  0  0  0  0  0  0  0  0  0  0
   -4.3872   19.3262  -33.8229 H   0  0  0  0  0  0  0  0  0  0  0  0
   -5.1694   21.5534  -33.1877 H   0  0  0  0  0  0  0  0  0  0  0  0
   -3.5752   24.6841  -29.3501 H   0  0  0  0  0  0  0  0  0  0  0  0
   -5.2703   25.2697  -29.1754 H   0  0  0  0  0  0  0  0  0  0  0  0
   -4.8584   23.4532  -27.5647 H   0  0  0  0  0  0  0  0  0  0  0  0
   -6.0077   22.8825  -28.7652 H   0  0  0  0  0  0  0  0  0  0  0  0
   -2.4030   18.4952  -25.2335 H   0  0  0  0  0  0  0  0  0  0  0  0
   -3.3422   18.1068  -26.7146 H   0  0  0  0  0  0  0  0  0  0  0  0
   -1.5540   17.9364  -26.7146 H   0  0  0  0  0  0  0  0  0  0  0  0
   -0.5760   20.3210  -25.5980 H   0  0  0  0  0  0  0  0  0  0  0  0
  1  2  1  0
  2  3  1  0
  3  4  2  0
  4  5  1  0
  5  6  2  0
  6  7  1  0
  7  8  2  0
  8  9  1  0
  9 10  1  0
 10 11  1  0
 11 12  1  0
 12 13  1  0
 13 14  1  0
 14 15  1  0
 15 16  2  0
 16 17  1  0
 17 18  2  0
 18 19  1  0
 19 20  2  0
 20 21  1  0
 21 22  2  0
 22 23  1  0
 23 24  2  0
 12 25  1  0
 25 26  1  0
  8 27  1  0
 27 28  2  0
 28 29  1  0
 28 30  1  0
  4 31  1  0
 31 32  1  0
 32  2  2  0
 30  6  1  0
 26  9  1  0
 24 15  1  0
 24 19  1  0
  1 33  1  0
  1 34  1  0
  1 35  1  0
  3 36  1  0
  7 37  1  0
 10 38  1  0
 10 39  1  0
 11 40  1  0
 11 41  1  0
 12 42  1  0
 13 43  1  0
 14 44  1  0
 14 45  1  0
 16 46  1  0
 17 47  1  0
 18 48  1  0
 21 49  1  0
 22 50  1  0
 23 51  1  0
 25 52  1  0
 25 53  1  0
 26 54  1  0
 26 55  1  0
 29 56  1  0
 29 57  1  0
 29 58  1  0
 30 59  1  0
M  END
>  <smiles>  (36) 
Cc1cc(N=c2cc(N3CCC(NCc4cccc5ncccc45)CC3)nc(C)[nH]2)on1

>  <score_type>  (36) 
oracle

>  <origin>  (36) 
adgpu

>  <m_score__min__energy>  (36) 
-10.369999999999999

>  <m_primary>  (36) 
energy

$$$$
36:0
     RDKit          3D

 35 37  0  0  0  0  0  0  0  0999 V2000
    0.8603   18.8478  -28.0740 H   0  0  0  0  0  0  0  0  0  0  0  0
   -0.0840   19.3500  -27.8170 C   0  0  0  0  0  0  0  0  0  0  0  0
   -0.3070   20.6270  -28.2260 N   0  0  0  0  0  0  0  0  0  0  0  0
   -1.4630   21.2940  -27.9400 C   0  0  0  0  0  0  0  0  0  0  0  0
   -1.6110   22.6890  -28.4190 C   0  0  0  0  0  0  0  0  0  0  0  0
   -2.7140   23.0120  -29.1460 N   0  0  0  0  0  0  0  0  0  0  0  0
   -2.9200   24.2720  -29.6210 C   0  0  0  0  0  0  0  0  0  0  0  0
   -3.9870   24.5720  -30.3000 N   0  0  0  0  0  0  0  0  0  0  0  0
   -5.0220   23.6670  -30.7240 C   0  0  0  0  0  0  0  0  0  0  0  0
   -6.2940   23.7820  -30.1500 C   0  0  0  0  0  0  0  0  0  0  0  0
   -6.4767   24.5423  -29.3763 H   0  0  0  0  0  0  0  0  0  0  0  0
   -7.3330   22.9390  -30.5520 C   0  0  0  0  0  0  0  0  0  0  0  0
   -8.3224   23.0244  -30.0789 H   0  0  0  0  0  0  0  0  0  0  0  0
   -7.1190   21.9850  -31.5560 C   0  0  0  0  0  0  0  0  0  0  0  0
   -8.4230   20.9110  -32.0520 S   0  0  0  0  0  0  0  0  0  0  0  0
   -8.7340   19.9410  -30.9470 O   0  0  0  0  0  0  0  0  0  0  0  0
   -9.6590   21.7130  -32.3490 O   0  0  0  0  0  0  0  0  0  0  0  0
   -7.9490   20.0390  -33.4660 N   0  0  0  0  0  0  0  0  0  0  0  0
   -8.5190   20.4090  -34.2590 H   0  0  0  0  0  0  0  0  0  0  0  0
   -8.2410   19.0460  -33.3240 H   0  0  0  0  0  0  0  0  0  0  0  0
   -5.8570   21.8820  -32.1530 C   0  0  0  0  0  0  0  0  0  0  0  0
   -5.6831   21.1349  -32.9414 H   0  0  0  0  0  0  0  0  0  0  0  0
   -4.8170   22.7250  -31.7510 C   0  0  0  0  0  0  0  0  0  0  0  0
   -3.8338   22.6524  -32.2390 H   0  0  0  0  0  0  0  0  0  0  0  0
   -2.0160   25.2470  -29.3420 N   0  0  0  0  0  0  0  0  0  0  0  0
   -0.9030   24.9820  -28.6110 C   0  0  0  0  0  0  0  0  0  0  0  0
   -0.1809   25.7844  -28.3997 H   0  0  0  0  0  0  0  0  0  0  0  0
   -0.6740   23.6950  -28.1280 C   0  0  0  0  0  0  0  0  0  0  0  0
    0.2223   23.4711  -27.5309 H   0  0  0  0  0  0  0  0  0  0  0  0
   -2.4530   20.6430  -27.1780 C   0  0  0  0  0  0  0  0  0  0  0  0
   -3.3865   21.1650  -26.9210 H   0  0  0  0  0  0  0  0  0  0  0  0
   -2.2410   19.3300  -26.7510 C   0  0  0  0  0  0  0  0  0  0  0  0
   -3.0120   18.8118  -26.1619 H   0  0  0  0  0  0  0  0  0  0  0  0
   -1.0510   18.6760  -27.0720 C   0  0  0  0  0  0  0  0  0  0  0  0
   -0.8778   17.6413  -26.7414 H   0  0  0  0  0  0  0  0  0  0  0  0
  1  2  1  0
  2  3  2  0
  3  4  1  0
  4  5  1  0
  5  6  2  0
  6  7  1  0
  7  8  2  0
  8  9  1  0
  9 10  2  0
 10 11  1  0
 10 12  1  0
 12 13  1  0
 12 14  2  0
 14 15  1  0
 15 16  2  0
 15 17  2  0
 15 18  1  0
 18 19  1  0
 18 20  1  0
 14 21  1  0
 21 22  1  0
 21 23  2  0
 23 24  1  0
  7 25  1  0
 25 26  1  0
 26 27  1  0
 26 28  2  0
 28 29  1  0
  4 30  2  0
 30 31  1  0
 30 32  1  0
 32 33  1  0
 32 34  2  0
 34 35  1  0
 34  2  1  0
 28  5  1  0
 23  9  1  0
M  CHG  1  25  -1
M  END
>  <UniqueID>  (37) 
33

>  <SMILES>  (37) 
NS(=O)(=O)c1ccc(/N=c2\nc(-c3ccccn3)cc[n-]2)cc1

>  <Energy>  (37) 
46.98061912083833

>  <Genealogy>  (37) 
NS(=O)(=O)c1ccc(N=c2nc(-c3ccccn3)cc[n-]2)cc1 (protonated)
NS(=O)(=O)c1ccc(/N=c2\nc(-c3ccccn3)cc[n-]2)cc1 (cis-trans isomerization)
NS(=O)(=O)c1ccc(/N=c2\nc(-c3ccccn3)cc[n-]2)cc1 (3D coordinates assigned)
NS(=O)(=O)c1ccc(/N=c2\nc(-c3ccccn3)cc[n-]2)cc1 (optimized conformer: 46.98061912083833 kcal/mol)

>  <smiles>  (37) 
NS(=O)(=O)c1ccc(N=c2nc(-c3ccccn3)cc[nH]2)cc1

>  <score_type>  (37) 
oracle

>  <origin>  (37) 
adgpu

>  <m_score__min__energy>  (37) 
-9.8499999999999996

>  <m_primary>  (37) 
energy

$$$$
37:0
     RDKit          3D

 54 56  0  0  0  0  0  0  0  0999 V2000
   -1.1360   25.0090  -28.4020 H   0  0  0  0  0  0  0  0  0  0  0  0
   -1.9830   25.3390  -28.9190 N   0  0  0  0  0  0  0  0  0  0  0  0
   -2.7710   24.5290  -29.5520 C   0  0  0  0  0  0  0  0  0  0  0  0
   -3.8560   25.0270  -30.1990 N   0  0  0  0  0  0  0  0  0  0  0  0
   -4.7320   24.2350  -30.8750 C   0  0  0  0  0  0  0  0  0  0  0  0
   -5.9160   24.8780  -31.5350 C   0  0  0  0  0  0  0  0  0  0  0  0
   -6.6063   25.2529  -30.7649 H   0  0  0  0  0  0  0  0  0  0  0  0
   -5.5763   25.7155  -32.1620 H   0  0  0  0  0  0  0  0  0  0  0  0
   -6.4335   24.1370  -32.1620 H   0  0  0  0  0  0  0  0  0  0  0  0
   -4.5170   22.8360  -30.9270 C   0  0  0  0  0  0  0  0  0  0  0  0
   -5.4720   21.9550  -31.6370 C   0  0  0  0  0  0  0  0  0  0  0  0
   -5.0090   21.0550  -32.6050 C   0  0  0  0  0  0  0  0  0  0  0  0
   -3.9356   21.0110  -32.8414 H   0  0  0  0  0  0  0  0  0  0  0  0
   -5.9070   20.2080  -33.2760 C   0  0  0  0  0  0  0  0  0  0  0  0
   -5.4540   19.2570  -34.2500 N   0  0  0  0  0  0  0  0  0  0  0  0
   -4.5970   18.1410  -33.9770 C   0  0  0  0  0  0  0  0  0  0  0  0
   -5.1090   17.0650  -33.5710 O   0  0  0  0  0  0  0  0  0  0  0  0
   -3.1350   18.2160  -34.2010 C   0  0  0  0  0  0  0  0  0  0  0  0
   -2.4830   17.2310  -34.9570 C   0  0  0  0  0  0  0  0  0  0  0  0
   -3.0597   16.3971  -35.3836 H   0  0  0  0  0  0  0  0  0  0  0  0
   -1.1090   17.3040  -35.1700 C   0  0  0  0  0  0  0  0  0  0  0  0
   -0.6005   16.5185  -35.7483 H   0  0  0  0  0  0  0  0  0  0  0  0
   -0.3760   18.3720  -34.6510 C   0  0  0  0  0  0  0  0  0  0  0  0
    0.7073   18.4241  -34.8348 H   0  0  0  0  0  0  0  0  0  0  0  0
   -1.0010   19.3870  -33.8940 C   0  0  0  0  0  0  0  0  0  0  0  0
   -0.1560   20.5620  -33.3710 C   0  0  0  0  0  0  0  0  0  0  0  0
    0.0620   21.5170  -34.4790 C   0  0  0  0  0  0  0  0  0  0  0  0
    0.2290   22.2650  -35.3440 N   0  0  0  0  0  0  0  0  0  0  0  0
   -0.8230   21.3430  -32.2180 C   0  0  0  0  0  0  0  0  0  0  0  0
   -0.4785   20.9396  -31.2544 H   0  0  0  0  0  0  0  0  0  0  0  0
   -0.5499   22.4062  -32.2891 H   0  0  0  0  0  0  0  0  0  0  0  0
   -1.9158   21.2396  -32.2891 H   0  0  0  0  0  0  0  0  0  0  0  0
    1.2100   20.0430  -32.8790 C   0  0  0  0  0  0  0  0  0  0  0  0
    1.2255   20.0371  -31.7791 H   0  0  0  0  0  0  0  0  0  0  0  0
    1.3705   19.0212  -33.2534 H   0  0  0  0  0  0  0  0  0  0  0  0
    2.0085   20.7004  -33.2534 H   0  0  0  0  0  0  0  0  0  0  0  0
   -2.3920   19.2760  -33.6560 C   0  0  0  0  0  0  0  0  0  0  0  0
   -2.8980   20.0304  -33.0356 H   0  0  0  0  0  0  0  0  0  0  0  0
   -7.2670   20.2470  -32.9480 C   0  0  0  0  0  0  0  0  0  0  0  0
   -7.9650   19.5509  -33.4360 H   0  0  0  0  0  0  0  0  0  0  0  0
   -7.7500   21.1670  -32.0010 C   0  0  0  0  0  0  0  0  0  0  0  0
   -9.2120   21.1760  -31.6330 C   0  0  0  0  0  0  0  0  0  0  0  0
   -9.8160   19.9930  -32.0210 F   0  0  0  0  0  0  0  0  0  0  0  0
   -9.3340   21.3160  -30.2620 F   0  0  0  0  0  0  0  0  0  0  0  0
   -9.8740   22.2230  -32.2530 F   0  0  0  0  0  0  0  0  0  0  0  0
   -6.8400   22.0090  -31.3390 C   0  0  0  0  0  0  0  0  0  0  0  0
   -7.2050   22.7167  -30.5801 H   0  0  0  0  0  0  0  0  0  0  0  0
   -3.3870   22.2960  -30.2680 C   0  0  0  0  0  0  0  0  0  0  0  0
   -3.1220   20.8120  -30.2450 C   0  0  0  0  0  0  0  0  0  0  0  0
   -3.0603   20.4667  -29.2024 H   0  0  0  0  0  0  0  0  0  0  0  0
   -3.9403   20.2854  -30.7579 H   0  0  0  0  0  0  0  0  0  0  0  0
   -2.1720   20.6012  -30.7579 H   0  0  0  0  0  0  0  0  0  0  0  0
   -2.5230   23.1510  -29.5720 C   0  0  0  0  0  0  0  0  0  0  0  0
   -1.6509   22.7406  -29.0419 H   0  0  0  0  0  0  0  0  0  0  0  0
  1  2  1  0
  2  3  2  0
  3  4  1  0
  4  5  1  0
  5  6  1  0
  6  7  1  0
  6  8  1  0
  6  9  1  0
  5 10  2  0
 10 11  1  0
 11 12  2  0
 12 13  1  0
 12 14  1  0
 14 15  1  0
 15 16  1  0
 16 17  2  0
 16 18  1  0
 18 19  2  0
 19 20  1  0
 19 21  1  0
 21 22  1  0
 21 23  2  0
 23 24  1  0
 23 25  1  0
 25 26  1  0
 26 27  1  0
 27 28  3  0
 26 29  1  0
 29 30  1  0
 29 31  1  0
 29 32  1  0
 26 33  1  0
 33 34  1  0
 33 35  1  0
 33 36  1  0
 25 37  2  0
 37 38  1  0
 14 39  2  0
 39 40  1  0
 39 41  1  0
 41 42  1  0
 42 43  1  0
 42 44  1  0
 42 45  1  0
 41 46  2  0
 46 47  1  0
 10 48  1  0
 48 49  1  0
 49 50  1  0
 49 51  1  0
 49 52  1  0
 48 53  2  0
 53 54  1  0
 53  3  1  0
 46 11  1  0
 37 18  1  0
M  CHG  2   4  -1  15  -1
M  END
>  <UniqueID>  (38) 
34

>  <SMILES>  (38) 
[H]/N=c1\cc(C)c(-c2cc([N-]C(=O)c3cccc(C(C)(C)C#N)c3)cc(C(F)(F)F)c2)c(C)[n-]1

>  <Energy>  (38) 
70.45641101400106

>  <Genealogy>  (38) 
Cc1cc(=N)[n-]c(C)c1-c1cc([N-]C(=O)c2cccc(C(C)(C)C#N)c2)cc(C(F)(F)F)c1 (protonated)
[H]/N=c1\cc(C)c(-c2cc([N-]C(=O)c3cccc(C(C)(C)C#N)c3)cc(C(F)(F)F)c2)c(C)[n-]1 (cis-trans isomerization)
[H]/N=c1\cc(C)c(-c2cc([N-]C(=O)c3cccc(C(C)(C)C#N)c3)cc(C(F)(F)F)c2)c(C)[n-]1 (3D coordinates assigned)
[H]/N=c1\cc(C)c(-c2cc([N-]C(=O)c3cccc(C(C)(C)C#N)c3)cc(C(F)(F)F)c2)c(C)[n-]1 (optimized conformer: 70.45641101400106 kcal/mol)

>  <smiles>  (38) 
Cc1cc(=N)[nH]c(C)c1-c1cc(NC(=O)c2cccc(C(C)(C)C#N)c2)cc(C(F)(F)F)c1

>  <score_type>  (38) 
oracle

>  <origin>  (38) 
adgpu

>  <m_score__min__energy>  (38) 
-11.34

>  <m_primary>  (38) 
energy

$$$$
38:0
     RDKit          3D

 48 51  0  0  0  0  0  0  0  0999 V2000
    2.2972   18.2610  -35.1821 H   0  0  0  0  0  0  0  0  0  0  0  0
    1.4890   18.8280  -34.6970 C   0  0  0  0  0  0  0  0  0  0  0  0
    1.2200   18.6390  -33.3380 C   0  0  0  0  0  0  0  0  0  0  0  0
    1.8175   17.9229  -32.7547 H   0  0  0  0  0  0  0  0  0  0  0  0
    0.1920   19.3590  -32.7180 C   0  0  0  0  0  0  0  0  0  0  0  0
   -0.0129   19.2070  -31.6480 H   0  0  0  0  0  0  0  0  0  0  0  0
   -0.5820   20.2770  -33.4550 C   0  0  0  0  0  0  0  0  0  0  0  0
   -1.6790   21.0380  -32.8030 C   0  0  0  0  0  0  0  0  0  0  0  0
   -2.9080   21.2280  -33.4610 C   0  0  0  0  0  0  0  0  0  0  0  0
   -3.0580   20.8092  -34.4670 H   0  0  0  0  0  0  0  0  0  0  0  0
   -3.9400   21.9440  -32.8480 C   0  0  0  0  0  0  0  0  0  0  0  0
   -4.8974   22.0826  -33.3717 H   0  0  0  0  0  0  0  0  0  0  0  0
   -3.7590   22.4860  -31.5680 C   0  0  0  0  0  0  0  0  0  0  0  0
   -5.0610   23.3750  -30.7780 S   0  0  0  0  0  0  0  0  0  0  0  0
   -5.0050   24.8300  -31.1550 O   0  0  0  0  0  0  0  0  0  0  0  0
   -4.8820   23.2540  -29.2880 O   0  0  0  0  0  0  0  0  0  0  0  0
   -6.6240   22.7170  -31.2560 C   0  0  0  0  0  0  0  0  0  0  0  0
   -7.7230   23.5680  -31.4290 C   0  0  0  0  0  0  0  0  0  0  0  0
   -7.6065   24.6517  -31.2809 H   0  0  0  0  0  0  0  0  0  0  0  0
   -8.9660   23.0440  -31.7890 C   0  0  0  0  0  0  0  0  0  0  0  0
   -9.8250   23.7170  -31.9275 H   0  0  0  0  0  0  0  0  0  0  0  0
   -9.1230   21.6680  -31.9740 C   0  0  0  0  0  0  0  0  0  0  0  0
  -10.1050   21.2642  -32.2616 H   0  0  0  0  0  0  0  0  0  0  0  0
   -8.0340   20.7950  -31.7950 C   0  0  0  0  0  0  0  0  0  0  0  0
   -8.2040   19.3330  -31.9820 C   0  0  0  0  0  0  0  0  0  0  0  0
   -8.7710   18.6510  -31.0860 O   0  0  0  0  0  0  0  0  0  0  0  0
   -7.6410   18.6910  -33.1420 N   0  0  0  0  0  0  0  0  0  0  0  0
   -6.3950   18.3940  -33.4030 C   0  0  0  0  0  0  0  0  0  0  0  0
   -5.3530   18.5600  -32.4650 C   0  0  0  0  0  0  0  0  0  0  0  0
   -5.5690   18.9623  -31.4642 H   0  0  0  0  0  0  0  0  0  0  0  0
   -4.0470   18.2110  -32.8140 C   0  0  0  0  0  0  0  0  0  0  0  0
   -3.2303   18.3451  -32.0895 H   0  0  0  0  0  0  0  0  0  0  0  0
   -3.7770   17.6930  -34.0790 C   0  0  0  0  0  0  0  0  0  0  0  0
   -2.1400   17.2460  -34.5280 Cl  0  0  0  0  0  0  0  0  0  0  0  0
   -4.8280   17.5210  -34.9810 C   0  0  0  0  0  0  0  0  0  0  0  0
   -4.6301   17.1068  -35.9806 H   0  0  0  0  0  0  0  0  0  0  0  0
   -6.0970   17.8640  -34.6280 N   0  0  0  0  0  0  0  0  0  0  0  0
   -6.8620   17.7210  -35.3270 H   0  0  0  0  0  0  0  0  0  0  0  0
   -6.7830   21.3330  -31.4350 C   0  0  0  0  0  0  0  0  0  0  0  0
   -5.9224   20.6629  -31.2927 H   0  0  0  0  0  0  0  0  0  0  0  0
   -2.5410   22.2960  -30.9030 C   0  0  0  0  0  0  0  0  0  0  0  0
   -2.3969   22.7127  -29.8952 H   0  0  0  0  0  0  0  0  0  0  0  0
   -1.5070   21.5790  -31.5140 C   0  0  0  0  0  0  0  0  0  0  0  0
   -0.5534   21.4368  -30.9844 H   0  0  0  0  0  0  0  0  0  0  0  0
   -0.3000   20.4580  -34.8240 C   0  0  0  0  0  0  0  0  0  0  0  0
   -0.8943   21.1710  -35.4143 H   0  0  0  0  0  0  0  0  0  0  0  0
    0.7310   19.7370  -35.4380 C   0  0  0  0  0  0  0  0  0  0  0  0
    0.9445   19.8869  -36.5066 H   0  0  0  0  0  0  0  0  0  0  0  0
  1  2  1  0
  2  3  2  0
  3  4  1  0
  3  5  1  0
  5  6  1  0
  5  7  2  0
  7  8  1  0
  8  9  2  0
  9 10  1  0
  9 11  1  0
 11 12  1  0
 11 13  2  0
 13 14  1  0
 14 15  2  0
 14 16  2  0
 14 17  1  0
 17 18  2  0
 18 19  1  0
 18 20  1  0
 20 21  1  0
 20 22  2  0
 22 23  1  0
 22 24  1  0
 24 25  1  0
 25 26  2  0
 25 27  1  0
 27 28  2  0
 28 29  1  0
 29 30  1  0
 29 31  2  0
 31 32  1  0
 31 33  1  0
 33 34  1  0
 33 35  2  0
 35 36  1  0
 35 37  1  0
 37 38  1  0
 24 39  2  0
 39 40  1  0
 13 41  1  0
 41 42  1  0
 41 43  2  0
 43 44  1  0
  7 45  1  0
 45 46  1  0
 45 47  2  0
 47 48  1  0
 47  2  1  0
 43  8  1  0
 39 17  1  0
 37 28  1  0
M  END
>  <UniqueID>  (39) 
35

>  <SMILES>  (39) 
O=C(/N=c1\ccc(Cl)c[nH]1)c1cccc(S(=O)(=O)c2ccc(-c3ccccc3)cc2)c1

>  <Energy>  (39) 
69.38004707828816

>  <Genealogy>  (39) 
O=C(/N=c1\ccc(Cl)c[nH]1)c1cccc(S(=O)(=O)c2ccc(-c3ccccc3)cc2)c1 (cis-trans isomerization)
O=C(/N=c1\ccc(Cl)c[nH]1)c1cccc(S(=O)(=O)c2ccc(-c3ccccc3)cc2)c1 (3D coordinates assigned)
O=C(/N=c1\ccc(Cl)c[nH]1)c1cccc(S(=O)(=O)c2ccc(-c3ccccc3)cc2)c1 (optimized conformer: 69.38004707828816 kcal/mol)

>  <smiles>  (39) 
O=C(N=c1ccc(Cl)c[nH]1)c1cccc(S(=O)(=O)c2ccc(-c3ccccc3)cc2)c1

>  <score_type>  (39) 
oracle

>  <origin>  (39) 
adgpu

>  <m_score__min__energy>  (39) 
-10.699999999999999

>  <m_primary>  (39) 
energy

$$$$
39:0
     RDKit          3D

 58 61  0  0  0  0  0  0  0  0999 V2000
   -5.5150   25.0230  -29.7810 C   0  0  0  0  0  0  0  0  0  0  0  0
   -4.9470   23.8800  -28.9440 C   0  0  0  0  0  0  0  0  0  0  0  0
   -3.6470   23.3770  -29.5250 C   0  0  0  0  0  0  0  0  0  0  0  0
   -2.3660   23.7800  -29.1740 C   0  0  0  0  0  0  0  0  0  0  0  0
   -1.9800   24.7600  -28.1430 C   0  0  0  0  0  0  0  0  0  0  0  0
   -2.6310   24.7510  -26.9000 C   0  0  0  0  0  0  0  0  0  0  0  0
   -2.2820   25.6790  -25.9140 C   0  0  0  0  0  0  0  0  0  0  0  0
   -1.2910   26.6350  -26.1700 C   0  0  0  0  0  0  0  0  0  0  0  0
   -0.8420   27.8230  -24.9030 S   0  0  0  0  0  0  0  0  0  0  0  0
   -0.8410   26.5840  -23.5700 C   0  0  0  0  0  0  0  0  0  0  0  0
   -0.6530   26.6610  -27.4140 C   0  0  0  0  0  0  0  0  0  0  0  0
   -1.0010   25.7340  -28.4010 C   0  0  0  0  0  0  0  0  0  0  0  0
   -1.4660   23.1600  -29.9620 N   0  0  0  0  0  0  0  0  0  0  0  0
   -2.2070   22.3830  -30.7810 C   0  0  0  0  0  0  0  0  0  0  0  0
   -1.5930   21.5220  -31.8170 C   0  0  0  0  0  0  0  0  0  0  0  0
   -2.1020   21.5390  -33.1260 C   0  0  0  0  0  0  0  0  0  0  0  0
   -1.5370   20.7290  -34.1150 C   0  0  0  0  0  0  0  0  0  0  0  0
   -0.4680   19.8850  -33.8020 C   0  0  0  0  0  0  0  0  0  0  0  0
    0.0310   19.8440  -32.4990 C   0  0  0  0  0  0  0  0  0  0  0  0
   -0.5310   20.6530  -31.5070 C   0  0  0  0  0  0  0  0  0  0  0  0
   -3.5380   22.4980  -30.5460 N   0  0  0  0  0  0  0  0  0  0  0  0
   -4.5970   21.7410  -31.1530 C   0  0  0  0  0  0  0  0  0  0  0  0
   -4.5280   20.3420  -31.1940 C   0  0  0  0  0  0  0  0  0  0  0  0
   -5.5410   19.6030  -31.8100 C   0  0  0  0  0  0  0  0  0  0  0  0
   -6.6420   20.2540  -32.3980 C   0  0  0  0  0  0  0  0  0  0  0  0
   -7.7460   19.4660  -33.0770 C   0  0  0  0  0  0  0  0  0  0  0  0
   -9.1290   19.9980  -32.6840 C   0  0  0  0  0  0  0  0  0  0  0  0
   -7.6230   17.9680  -32.7710 C   0  0  0  0  0  0  0  0  0  0  0  0
   -6.7030   21.6580  -32.3560 C   0  0  0  0  0  0  0  0  0  0  0  0
   -5.6880   22.3950  -31.7410 C   0  0  0  0  0  0  0  0  0  0  0  0
   -5.9045   25.8069  -29.1148 H   0  0  0  0  0  0  0  0  0  0  0  0
   -4.7206   25.4426  -30.4157 H   0  0  0  0  0  0  0  0  0  0  0  0
   -6.3292   24.6432  -30.4157 H   0  0  0  0  0  0  0  0  0  0  0  0
   -4.7681   24.2388  -27.9197 H   0  0  0  0  0  0  0  0  0  0  0  0
   -5.6727   23.0533  -28.9419 H   0  0  0  0  0  0  0  0  0  0  0  0
   -3.4195   24.0105  -26.7003 H   0  0  0  0  0  0  0  0  0  0  0  0
   -2.7862   25.6582  -24.9366 H   0  0  0  0  0  0  0  0  0  0  0  0
   -0.8414   27.0940  -22.5954 H   0  0  0  0  0  0  0  0  0  0  0  0
   -1.7386   25.9538  -23.6545 H   0  0  0  0  0  0  0  0  0  0  0  0
    0.0577   25.9553  -23.6545 H   0  0  0  0  0  0  0  0  0  0  0  0
    0.1244   27.4124  -27.6165 H   0  0  0  0  0  0  0  0  0  0  0  0
   -0.5065   25.7674  -29.3830 H   0  0  0  0  0  0  0  0  0  0  0  0
   -2.9504   22.1937  -33.3743 H   0  0  0  0  0  0  0  0  0  0  0  0
   -1.9340   20.7558  -35.1405 H   0  0  0  0  0  0  0  0  0  0  0  0
   -0.0197   19.2528  -34.5826 H   0  0  0  0  0  0  0  0  0  0  0  0
    0.8678   19.1740  -32.2523 H   0  0  0  0  0  0  0  0  0  0  0  0
   -0.1410   20.6099  -30.4794 H   0  0  0  0  0  0  0  0  0  0  0  0
   -3.6717   19.8229  -30.7387 H   0  0  0  0  0  0  0  0  0  0  0  0
   -5.4779   18.5051  -31.8357 H   0  0  0  0  0  0  0  0  0  0  0  0
   -7.6329   19.5983  -34.1631 H   0  0  0  0  0  0  0  0  0  0  0  0
   -9.2116   20.0298  -31.5876 H   0  0  0  0  0  0  0  0  0  0  0  0
   -9.2614   21.0112  -33.0912 H   0  0  0  0  0  0  0  0  0  0  0  0
   -9.9063   19.3347  -33.0912 H   0  0  0  0  0  0  0  0  0  0  0  0
   -7.6105   17.8161  -31.6816 H   0  0  0  0  0  0  0  0  0  0  0  0
   -8.4803   17.4333  -33.2060 H   0  0  0  0  0  0  0  0  0  0  0  0
   -6.6900   17.5803  -33.2060 H   0  0  0  0  0  0  0  0  0  0  0  0
   -7.5572   22.1806  -32.8113 H   0  0  0  0  0  0  0  0  0  0  0  0
   -5.7454   23.4933  -31.7182 H   0  0  0  0  0  0  0  0  0  0  0  0
  1  2  1  0
  2  3  1  0
  3  4  2  0
  4  5  1  0
  5  6  2  0
  6  7  1  0
  7  8  2  0
  8  9  1  0
  9 10  1  0
  8 11  1  0
 11 12  2  0
  4 13  1  0
 13 14  2  0
 14 15  1  0
 15 16  2  0
 16 17  1  0
 17 18  2  0
 18 19  1  0
 19 20  2  0
 14 21  1  0
 21 22  1  0
 22 23  2  0
 23 24  1  0
 24 25  2  0
 25 26  1  0
 26 27  1  0
 26 28  1  0
 25 29  1  0
 29 30  2  0
 21  3  1  0
 30 22  1  0
 12  5  1  0
 20 15  1  0
  1 31  1  0
  1 32  1  0
  1 33  1  0
  2 34  1  0
  2 35  1  0
  6 36  1  0
  7 37  1  0
 10 38  1  0
 10 39  1  0
 10 40  1  0
 11 41  1  0
 12 42  1  0
 16 43  1  0
 17 44  1  0
 18 45  1  0
 19 46  1  0
 20 47  1  0
 23 48  1  0
 24 49  1  0
 26 50  1  0
 27 51  1  0
 27 52  1  0
 27 53  1  0
 28 54  1  0
 28 55  1  0
 28 56  1  0
 29 57  1  0
 30 58  1  0
M  END
>  <UniqueID>  (40) 
36

>  <SMILES>  (40) 
CCc1c(-c2ccc(SC)cc2)nc(-c2ccccc2)n1-c1ccc(C(C)C)cc1

>  <Energy>  (40) 
95.7809860399208

>  <Genealogy>  (40) 
CCc1c(-c2ccc(SC)cc2)nc(-c2ccccc2)n1-c1ccc(C(C)C)cc1 (3D coordinates assigned)
CCc1c(-c2ccc(SC)cc2)nc(-c2ccccc2)n1-c1ccc(C(C)C)cc1 (optimized conformer: 95.7809860399208 kcal/mol)

>  <smiles>  (40) 
CCc1c(-c2ccc(SC)cc2)nc(-c2ccccc2)n1-c1ccc(C(C)C)cc1

>  <score_type>  (40) 
oracle

>  <origin>  (40) 
adgpu

>  <m_score__min__energy>  (40) 
-9.4199999999999999

>  <m_primary>  (40) 
energy

$$$$
40:0
     RDKit          3D

 49 52  0  0  1  0  0  0  0  0999 V2000
   -6.4930   25.9710  -29.0070 C   0  0  0  0  0  0  0  0  0  0  0  0
   -5.8320   25.8930  -30.2360 O   0  0  0  0  0  0  0  0  0  0  0  0
   -5.3770   24.7160  -30.7970 C   0  0  0  0  0  0  0  0  0  0  0  0
   -6.2420   23.9570  -31.5270 C   0  0  0  0  0  0  0  0  0  0  0  0
   -5.7960   22.7760  -32.0940 C   0  0  0  0  0  0  0  0  0  0  0  0
   -4.5120   22.3070  -31.9670 C   0  0  0  0  0  0  0  0  0  0  0  0
   -3.9930   21.0830  -32.5360 C   0  0  0  0  0  0  0  0  0  0  0  0
   -2.2140   20.9950  -33.0210 S   0  0  0  0  0  0  0  0  0  0  0  0
   -2.4410   19.2170  -33.5970 C   0  0  0  0  0  0  0  0  0  0  0  0
   -1.4650   18.5640  -34.0800 N   0  0  0  0  0  0  0  0  0  0  0  0
   -0.1440   19.1300  -34.2150 C   0  0  0  0  0  0  0  0  0  0  0  0
    0.2660   19.6860  -35.4060 C   0  0  0  0  0  0  0  0  0  0  0  0
    1.5410   20.2190  -35.4980 C   0  0  0  0  0  0  0  0  0  0  0  0
    2.3680   20.1800  -34.3900 C   0  0  0  0  0  0  0  0  0  0  0  0
    1.9510   19.6240  -33.2050 C   0  0  0  0  0  0  0  0  0  0  0  0
    0.6790   19.0850  -33.0940 C   0  0  0  0  0  0  0  0  0  0  0  0
    0.2340   18.5210  -31.9160 O   0  0  0  0  0  0  0  0  0  0  0  0
   -0.0480   19.2770  -30.7540 C   0  0  0  0  0  0  0  0  0  0  0  0
   -3.7020   18.9960  -33.3550 N   0  0  0  0  0  0  0  0  0  0  0  0
   -4.4740   19.8850  -32.8400 N   0  0  0  0  0  0  0  0  0  0  0  0
   -5.8860   19.5580  -32.5970 C   0  0  0  0  0  0  0  0  0  0  0  0
   -6.2030   18.5830  -31.6550 C   0  0  0  0  0  0  0  0  0  0  0  0
   -7.5420   18.3130  -31.4140 C   0  0  0  0  0  0  0  0  0  0  0  0
   -8.5290   19.0020  -32.0980 C   0  0  0  0  0  0  0  0  0  0  0  0
   -8.1920   19.9580  -33.0200 C   0  0  0  0  0  0  0  0  0  0  0  0
   -6.8720   20.2560  -33.2890 C   0  0  0  0  0  0  0  0  0  0  0  0
   -3.6610   23.1260  -31.2050 C   0  0  0  0  0  0  0  0  0  0  0  0
   -4.0960   24.3010  -30.6390 C   0  0  0  0  0  0  0  0  0  0  0  0
   -3.2270   25.0840  -29.8930 O   0  0  0  0  0  0  0  0  0  0  0  0
   -5.7607   25.8846  -28.1907 H   0  0  0  0  0  0  0  0  0  0  0  0
   -7.0140   26.9369  -28.9315 H   0  0  0  0  0  0  0  0  0  0  0  0
   -7.2245   25.1529  -28.9315 H   0  0  0  0  0  0  0  0  0  0  0  0
   -7.2845   24.2799  -31.6642 H   0  0  0  0  0  0  0  0  0  0  0  0
   -6.5108   22.1792  -32.6796 H   0  0  0  0  0  0  0  0  0  0  0  0
   -0.4104   19.7066  -36.2732 H   0  0  0  0  0  0  0  0  0  0  0  0
    1.8912   20.6673  -36.4395 H   0  0  0  0  0  0  0  0  0  0  0  0
    3.3810   20.6031  -34.4591 H   0  0  0  0  0  0  0  0  0  0  0  0
    2.6301   19.6065  -32.3399 H   0  0  0  0  0  0  0  0  0  0  0  0
    0.1766   18.6748  -29.8613 H   0  0  0  0  0  0  0  0  0  0  0  0
    0.5716   20.1859  -30.7486 H   0  0  0  0  0  0  0  0  0  0  0  0
   -1.1115   19.5581  -30.7486 H   0  0  0  0  0  0  0  0  0  0  0  0
   -4.1060   18.0040  -33.6050 H   0  0  0  0  0  0  0  0  0  0  0  0
   -5.4121   18.0409  -31.1159 H   0  0  0  0  0  0  0  0  0  0  0  0
   -7.8212   17.5472  -30.6753 H   0  0  0  0  0  0  0  0  0  0  0  0
   -9.5883   18.7810  -31.9004 H   0  0  0  0  0  0  0  0  0  0  0  0
   -8.9877   20.4972  -33.5550 H   0  0  0  0  0  0  0  0  0  0  0  0
   -6.6059   21.0242  -34.0300 H   0  0  0  0  0  0  0  0  0  0  0  0
   -2.6155   22.8176  -31.0571 H   0  0  0  0  0  0  0  0  0  0  0  0
   -3.4820   26.0510  -29.7370 H   0  0  0  0  0  0  0  0  0  0  0  0
  1  2  1  0
  2  3  1  0
  3  4  2  0
  4  5  1  0
  5  6  2  0
  6  7  1  0
  7  8  1  0
  8  9  1  0
  9 10  2  0
 10 11  1  0
 11 12  2  0
 12 13  1  0
 13 14  2  0
 14 15  1  0
 15 16  2  0
 16 17  1  0
 17 18  1  0
  9 19  1  0
 19 20  1  0
 20 21  1  0
 21 22  2  0
 22 23  1  0
 23 24  2  0
 24 25  1  0
 25 26  2  0
  6 27  1  0
 27 28  2  0
 28 29  1  0
 28  3  1  0
 20  7  2  0
 26 21  1  0
 16 11  1  0
  1 30  1  0
  1 31  1  0
  1 32  1  0
  4 33  1  0
  5 34  1  0
 12 35  1  0
 13 36  1  0
 14 37  1  0
 15 38  1  0
 18 39  1  0
 18 40  1  0
 18 41  1  0
 19 42  1  0
 22 43  1  0
 23 44  1  0
 24 45  1  0
 25 46  1  0
 26 47  1  0
 27 48  1  0
 29 49  1  0
M  CHG  1  20   1
M  END
>  <smiles>  (41) 
COc1ccc(-c2sc(=Nc3ccccc3OC)[nH][n+]2-c2ccccc2)cc1O

>  <score_type>  (41) 
oracle

>  <origin>  (41) 
adgpu

>  <m_score__min__energy>  (41) 
-8.25

>  <m_primary>  (41) 
energy

$$$$
41:0
     RDKit          3D

 46 48  0  0  0  0  0  0  0  0999 V2000
   -1.0170   12.6190  -33.8250 H   0  0  0  0  0  0  0  0  0  0  0  0
   -1.4430   13.5620  -33.6830 N   0  0  0  0  0  0  0  0  0  0  0  0
   -2.7150   13.7630  -33.8320 C   0  0  0  0  0  0  0  0  0  0  0  0
   -3.5170   12.7160  -34.1660 N   0  0  0  0  0  0  0  0  0  0  0  0
   -4.8610   12.8480  -34.2970 C   0  0  0  0  0  0  0  0  0  0  0  0
   -5.4753   11.9761  -34.5662 H   0  0  0  0  0  0  0  0  0  0  0  0
   -5.4630   14.0860  -34.0910 C   0  0  0  0  0  0  0  0  0  0  0  0
   -6.5535   14.1912  -34.1901 H   0  0  0  0  0  0  0  0  0  0  0  0
   -4.6780   15.1990  -33.7570 C   0  0  0  0  0  0  0  0  0  0  0  0
   -5.3480   16.5150  -33.6070 C   0  0  0  0  0  0  0  0  0  0  0  0
   -5.4730   17.3820  -34.7040 C   0  0  0  0  0  0  0  0  0  0  0  0
   -5.0635   17.0890  -35.6820 H   0  0  0  0  0  0  0  0  0  0  0  0
   -6.1140   18.6140  -34.5610 C   0  0  0  0  0  0  0  0  0  0  0  0
   -6.1915   19.2942  -35.4220 H   0  0  0  0  0  0  0  0  0  0  0  0
   -6.6610   18.9890  -33.3210 C   0  0  0  0  0  0  0  0  0  0  0  0
   -7.2990   20.2250  -33.1330 O   0  0  0  0  0  0  0  0  0  0  0  0
   -6.7810   21.3040  -32.4030 C   0  0  0  0  0  0  0  0  0  0  0  0
   -7.6600   22.2790  -31.9330 C   0  0  0  0  0  0  0  0  0  0  0  0
   -8.7368   22.1871  -32.1380 H   0  0  0  0  0  0  0  0  0  0  0  0
   -7.1850   23.3700  -31.2050 C   0  0  0  0  0  0  0  0  0  0  0  0
   -7.8929   24.1252  -30.8329 H   0  0  0  0  0  0  0  0  0  0  0  0
   -5.8140   23.5150  -30.9420 C   0  0  0  0  0  0  0  0  0  0  0  0
   -5.2870   24.9270  -30.0080 S   0  0  0  0  0  0  0  0  0  0  0  0
   -6.4330   25.8690  -29.7750 O   0  0  0  0  0  0  0  0  0  0  0  0
   -4.2210   25.6650  -30.7680 O   0  0  0  0  0  0  0  0  0  0  0  0
   -4.6120   24.3960  -28.4490 C   0  0  0  0  0  0  0  0  0  0  0  0
   -5.1869   24.8482  -27.6274 H   0  0  0  0  0  0  0  0  0  0  0  0
   -4.6713   23.2999  -28.3780 H   0  0  0  0  0  0  0  0  0  0  0  0
   -3.5607   24.7117  -28.3780 H   0  0  0  0  0  0  0  0  0  0  0  0
   -4.9050   22.5570  -31.4580 C   0  0  0  0  0  0  0  0  0  0  0  0
   -3.4200   22.6540  -31.2280 C   0  0  0  0  0  0  0  0  0  0  0  0
   -3.2165   22.6673  -30.1471 H   0  0  0  0  0  0  0  0  0  0  0  0
   -2.9208   21.7865  -31.6845 H   0  0  0  0  0  0  0  0  0  0  0  0
   -3.0379   23.5790  -31.6845 H   0  0  0  0  0  0  0  0  0  0  0  0
   -5.4030   21.4540  -32.1770 C   0  0  0  0  0  0  0  0  0  0  0  0
   -4.7037   20.6997  -32.5669 H   0  0  0  0  0  0  0  0  0  0  0  0
   -6.5280   18.1280  -32.2250 C   0  0  0  0  0  0  0  0  0  0  0  0
   -6.9316   18.4242  -31.2455 H   0  0  0  0  0  0  0  0  0  0  0  0
   -5.8860   16.8950  -32.3670 C   0  0  0  0  0  0  0  0  0  0  0  0
   -5.8017   16.2190  -31.5034 H   0  0  0  0  0  0  0  0  0  0  0  0
   -3.2750   15.0440  -33.6180 C   0  0  0  0  0  0  0  0  0  0  0  0
   -2.4160   16.1790  -33.1950 C   0  0  0  0  0  0  0  0  0  0  0  0
   -2.6960   17.3490  -33.5670 O   0  0  0  0  0  0  0  0  0  0  0  0
   -1.2660   15.9610  -32.3770 N   0  0  0  0  0  0  0  0  0  0  0  0
   -0.6860   16.7690  -32.0600 H   0  0  0  0  0  0  0  0  0  0  0  0
   -0.9550   14.9940  -32.1340 H   0  0  0  0  0  0  0  0  0  0  0  0
  1  2  1  0
  2  3  2  0
  3  4  1  0
  4  5  1  0
  5  6  1  0
  5  7  2  0
  7  8  1  0
  7  9  1  0
  9 10  1  0
 10 11  2  0
 11 12  1  0
 11 13  1  0
 13 14  1  0
 13 15  2  0
 15 16  1  0
 16 17  1  0
 17 18  2  0
 18 19  1  0
 18 20  1  0
 20 21  1  0
 20 22  2  0
 22 23  1  0
 23 24  2  0
 23 25  2  0
 23 26  1  0
 26 27  1  0
 26 28  1  0
 26 29  1  0
 22 30  1  0
 30 31  1  0
 31 32  1  0
 31 33  1  0
 31 34  1  0
 30 35  2  0
 35 36  1  0
 15 37  1  0
 37 38  1  0
 37 39  2  0
 39 40  1  0
  9 41  2  0
 41 42  1  0
 42 43  2  0
 42 44  1  0
 44 45  1  0
 44 46  1  0
 41  3  1  0
 39 10  1  0
 35 17  1  0
M  CHG  1   4  -1
M  END
>  <UniqueID>  (42) 
37

>  <SMILES>  (42) 
[H]/N=c1\[n-]ccc(-c2ccc(Oc3ccc(S(C)(=O)=O)c(C)c3)cc2)c1C(N)=O

>  <Energy>  (42) 
67.35330211730881

>  <Genealogy>  (42) 
Cc1cc(Oc2ccc(-c3cc[n-]c(=N)c3C(N)=O)cc2)ccc1S(C)(=O)=O (protonated)
[H]/N=c1\[n-]ccc(-c2ccc(Oc3ccc(S(C)(=O)=O)c(C)c3)cc2)c1C(N)=O (cis-trans isomerization)
[H]/N=c1\[n-]ccc(-c2ccc(Oc3ccc(S(C)(=O)=O)c(C)c3)cc2)c1C(N)=O (3D coordinates assigned)
[H]/N=c1\[n-]ccc(-c2ccc(Oc3ccc(S(C)(=O)=O)c(C)c3)cc2)c1C(N)=O (optimized conformer: 67.35330211730881 kcal/mol)

>  <smiles>  (42) 
Cc1cc(Oc2ccc(-c3cc[nH]c(=N)c3C(N)=O)cc2)ccc1S(C)(=O)=O

>  <score_type>  (42) 
oracle

>  <origin>  (42) 
adgpu

>  <m_score__min__energy>  (42) 
-9.3599999999999994

>  <m_primary>  (42) 
energy

$$$$
42:0
     RDKit          3D

 28 30  0  0  0  0  0  0  0  0999 V2000
   -8.2137   24.1780  -30.4053 H   0  0  0  0  0  0  0  0  0  0  0  0
   -7.2780   23.8070  -30.8490 C   0  0  0  0  0  0  0  0  0  0  0  0
   -6.0810   24.2900  -30.4160 N   0  0  0  0  0  0  0  0  0  0  0  0
   -4.9000   23.8740  -30.9540 C   0  0  0  0  0  0  0  0  0  0  0  0
   -3.6450   24.3410  -30.4350 N   0  0  0  0  0  0  0  0  0  0  0  0
   -3.3160   24.5600  -29.1930 C   0  0  0  0  0  0  0  0  0  0  0  0
   -2.0270   24.8900  -28.9170 N   0  0  0  0  0  0  0  0  0  0  0  0
   -1.6010   25.1390  -27.6510 C   0  0  0  0  0  0  0  0  0  0  0  0
   -0.1830   25.4830  -27.4320 C   0  0  0  0  0  0  0  0  0  0  0  0
    0.8100   24.7230  -27.8380 O   0  0  0  0  0  0  0  0  0  0  0  0
    1.9440   25.2910  -27.4990 C   0  0  0  0  0  0  0  0  0  0  0  0
    2.9439   24.8824  -27.7069 H   0  0  0  0  0  0  0  0  0  0  0  0
    1.6920   26.4770  -26.8430 C   0  0  0  0  0  0  0  0  0  0  0  0
    2.4354   27.1793  -26.4380 H   0  0  0  0  0  0  0  0  0  0  0  0
    0.3210   26.6050  -26.7970 C   0  0  0  0  0  0  0  0  0  0  0  0
   -0.2541   27.4284  -26.3485 H   0  0  0  0  0  0  0  0  0  0  0  0
   -2.5190   25.0620  -26.5970 C   0  0  0  0  0  0  0  0  0  0  0  0
   -2.2000   25.2471  -25.5607 H   0  0  0  0  0  0  0  0  0  0  0  0
   -3.8460   24.7460  -26.8870 C   0  0  0  0  0  0  0  0  0  0  0  0
   -4.6940   24.6910  -25.9570 O   0  0  0  0  0  0  0  0  0  0  0  0
   -4.2270   24.5070  -28.1720 N   0  0  0  0  0  0  0  0  0  0  0  0
   -5.2390   24.3300  -28.3500 H   0  0  0  0  0  0  0  0  0  0  0  0
   -4.9040   22.8840  -31.9440 C   0  0  0  0  0  0  0  0  0  0  0  0
   -3.9559   22.5101  -32.3578 H   0  0  0  0  0  0  0  0  0  0  0  0
   -6.1210   22.3750  -32.4020 C   0  0  0  0  0  0  0  0  0  0  0  0
   -6.1363   21.6087  -33.1911 H   0  0  0  0  0  0  0  0  0  0  0  0
   -7.3180   22.8410  -31.8560 C   0  0  0  0  0  0  0  0  0  0  0  0
   -8.2820   22.4515  -32.2151 H   0  0  0  0  0  0  0  0  0  0  0  0
  1  2  1  0
  2  3  2  0
  3  4  1  0
  4  5  1  0
  5  6  2  0
  6  7  1  0
  7  8  1  0
  8  9  1  0
  9 10  1  0
 10 11  1  0
 11 12  1  0
 11 13  2  0
 13 14  1  0
 13 15  1  0
 15 16  1  0
  8 17  2  0
 17 18  1  0
 17 19  1  0
 19 20  2  0
 19 21  1  0
 21 22  1  0
  4 23  2  0
 23 24  1  0
 23 25  1  0
 25 26  1  0
 25 27  2  0
 27 28  1  0
 27  2  1  0
 21  6  1  0
 15  9  2  0
M  CHG  1   7  -1
M  END
>  <UniqueID>  (43) 
38

>  <SMILES>  (43) 
O=c1cc(-c2ccco2)[n-]/c(=N/c2ccccn2)[nH]1

>  <Energy>  (43) 
66.33608681318394

>  <Genealogy>  (43) 
O=c1cc(-c2ccco2)[n-]c(=Nc2ccccn2)[nH]1 (protonated)
O=c1cc(-c2ccco2)[n-]/c(=N/c2ccccn2)[nH]1 (cis-trans isomerization)
O=c1cc(-c2ccco2)[n-]/c(=N/c2ccccn2)[nH]1 (3D coordinates assigned)
O=c1cc(-c2ccco2)[n-]/c(=N/c2ccccn2)[nH]1 (optimized conformer: 66.33608681318394 kcal/mol)

>  <smiles>  (43) 
O=c1cc(-c2ccco2)[nH]c(=Nc2ccccn2)[nH]1

>  <score_type>  (43) 
oracle

>  <origin>  (43) 
adgpu

>  <m_score__min__energy>  (43) 
-7.3799999999999999

>  <m_primary>  (43) 
energy

$$$$
43:0
     RDKit          3D

 57 59  0  0  0  0  0  0  0  0999 V2000
   -2.0730   21.5000  -31.5830 C   0  0  0  0  0  0  0  0  0  0  0  0
   -3.0510   22.2390  -32.3080 O   0  0  0  0  0  0  0  0  0  0  0  0
   -4.4210   22.2890  -32.0010 C   0  0  0  0  0  0  0  0  0  0  0  0
   -5.2810   21.2540  -32.3990 C   0  0  0  0  0  0  0  0  0  0  0  0
   -6.6550   21.3050  -32.1430 C   0  0  0  0  0  0  0  0  0  0  0  0
   -7.6520   19.9300  -32.6570 S   0  0  0  0  0  0  0  0  0  0  0  0
   -9.0090   20.4300  -33.0690 O   0  0  0  0  0  0  0  0  0  0  0  0
   -7.8190   18.9610  -31.5190 O   0  0  0  0  0  0  0  0  0  0  0  0
   -6.8600   19.1290  -33.9750 N   0  0  0  0  0  0  0  0  0  0  0  0
   -5.8350   18.1460  -33.7710 C   0  0  0  0  0  0  0  0  0  0  0  0
   -6.1570   16.8160  -33.4610 C   0  0  0  0  0  0  0  0  0  0  0  0
   -5.1480   15.8630  -33.3120 C   0  0  0  0  0  0  0  0  0  0  0  0
   -3.8060   16.2260  -33.4650 C   0  0  0  0  0  0  0  0  0  0  0  0
   -2.8380   15.2860  -33.3190 N   0  0  0  0  0  0  0  0  0  0  0  0
   -1.5120   15.5690  -33.4460 C   0  0  0  0  0  0  0  0  0  0  0  0
   -0.5430   14.5070  -33.2850 N   0  0  0  0  0  0  0  0  0  0  0  0
   -0.6950   13.5670  -32.1690 C   0  0  0  0  0  0  0  0  0  0  0  0
    0.5830   14.3500  -34.2140 C   0  0  0  0  0  0  0  0  0  0  0  0
   -1.1220   16.8920  -33.7380 C   0  0  0  0  0  0  0  0  0  0  0  0
   -2.0890   17.8950  -33.9020 C   0  0  0  0  0  0  0  0  0  0  0  0
   -1.6350   19.3040  -34.1970 C   0  0  0  0  0  0  0  0  0  0  0  0
   -3.4590   17.5630  -33.7700 C   0  0  0  0  0  0  0  0  0  0  0  0
   -4.4890   18.5120  -33.9320 C   0  0  0  0  0  0  0  0  0  0  0  0
   -7.2050   22.4420  -31.5030 C   0  0  0  0  0  0  0  0  0  0  0  0
   -8.7030   22.5640  -31.3120 C   0  0  0  0  0  0  0  0  0  0  0  0
   -6.3340   23.4480  -31.0040 C   0  0  0  0  0  0  0  0  0  0  0  0
   -6.8840   24.6210  -30.2200 C   0  0  0  0  0  0  0  0  0  0  0  0
   -4.9460   23.3910  -31.2800 C   0  0  0  0  0  0  0  0  0  0  0  0
   -4.1460   24.4590  -30.8220 O   0  0  0  0  0  0  0  0  0  0  0  0
   -3.4520   24.5420  -29.5830 C   0  0  0  0  0  0  0  0  0  0  0  0
   -2.2424   21.6280  -30.5037 H   0  0  0  0  0  0  0  0  0  0  0  0
   -2.1521   20.4340  -31.8427 H   0  0  0  0  0  0  0  0  0  0  0  0
   -1.0691   21.8672  -31.8427 H   0  0  0  0  0  0  0  0  0  0  0  0
   -4.8647   20.3821  -32.9247 H   0  0  0  0  0  0  0  0  0  0  0  0
   -6.9570   19.5660  -34.9200 H   0  0  0  0  0  0  0  0  0  0  0  0
   -7.2097   16.5229  -33.3348 H   0  0  0  0  0  0  0  0  0  0  0  0
   -5.4096   14.8216  -33.0731 H   0  0  0  0  0  0  0  0  0  0  0  0
   -0.6071   14.1109  -31.2169 H   0  0  0  0  0  0  0  0  0  0  0  0
   -1.6826   13.0860  -32.2266 H   0  0  0  0  0  0  0  0  0  0  0  0
    0.0907   12.7993  -32.2266 H   0  0  0  0  0  0  0  0  0  0  0  0
    1.5141   14.2202  -33.6429 H   0  0  0  0  0  0  0  0  0  0  0  0
    0.4152   13.4666  -34.8475 H   0  0  0  0  0  0  0  0  0  0  0  0
    0.6633   15.2456  -34.8475 H   0  0  0  0  0  0  0  0  0  0  0  0
   -0.0547   17.1389  -33.8377 H   0  0  0  0  0  0  0  0  0  0  0  0
   -1.4626   19.8392  -33.2516 H   0  0  0  0  0  0  0  0  0  0  0  0
   -0.7009   19.2744  -34.7772 H   0  0  0  0  0  0  0  0  0  0  0  0
   -2.4107   19.8253  -34.7772 H   0  0  0  0  0  0  0  0  0  0  0  0
   -4.2352   19.5514  -34.1875 H   0  0  0  0  0  0  0  0  0  0  0  0
   -8.9352   22.5829  -30.2370 H   0  0  0  0  0  0  0  0  0  0  0  0
   -9.0578   23.4940  -31.7802 H   0  0  0  0  0  0  0  0  0  0  0  0
   -9.2036   21.7037  -31.7802 H   0  0  0  0  0  0  0  0  0  0  0  0
   -6.7892   24.4189  -29.1429 H   0  0  0  0  0  0  0  0  0  0  0  0
   -6.3180   25.5294  -30.4738 H   0  0  0  0  0  0  0  0  0  0  0  0
   -7.9443   24.7668  -30.4738 H   0  0  0  0  0  0  0  0  0  0  0  0
   -4.1700   24.4561  -28.7541 H   0  0  0  0  0  0  0  0  0  0  0  0
   -2.7180   23.7252  -29.5184 H   0  0  0  0  0  0  0  0  0  0  0  0
   -2.9313   25.5088  -29.5184 H   0  0  0  0  0  0  0  0  0  0  0  0
  1  2  1  0
  2  3  1  0
  3  4  2  0
  4  5  1  0
  5  6  1  0
  6  7  2  0
  6  8  2  0
  6  9  1  0
  9 10  1  0
 10 11  2  0
 11 12  1  0
 12 13  2  0
 13 14  1  0
 14 15  2  0
 15 16  1  0
 16 17  1  0
 16 18  1  0
 15 19  1  0
 19 20  2  0
 20 21  1  0
 20 22  1  0
 22 23  2  0
  5 24  2  0
 24 25  1  0
 24 26  1  0
 26 27  1  0
 26 28  2  0
 28 29  1  0
 29 30  1  0
 28  3  1  0
 23 10  1  0
 22 13  1  0
  1 31  1  0
  1 32  1  0
  1 33  1  0
  4 34  1  0
  9 35  1  0
 11 36  1  0
 12 37  1  0
 17 38  1  0
 17 39  1  0
 17 40  1  0
 18 41  1  0
 18 42  1  0
 18 43  1  0
 19 44  1  0
 21 45  1  0
 21 46  1  0
 21 47  1  0
 23 48  1  0
 25 49  1  0
 25 50  1  0
 25 51  1  0
 27 52  1  0
 27 53  1  0
 27 54  1  0
 30 55  1  0
 30 56  1  0
 30 57  1  0
M  END
>  <UniqueID>  (44) 
39

>  <SMILES>  (44) 
COc1cc(S(=O)(=O)Nc2ccc3nc(N(C)C)cc(C)c3c2)c(C)c(C)c1OC

>  <Energy>  (44) 
75.76138357600162

>  <Genealogy>  (44) 
COc1cc(S(=O)(=O)Nc2ccc3nc(N(C)C)cc(C)c3c2)c(C)c(C)c1OC (3D coordinates assigned)
COc1cc(S(=O)(=O)Nc2ccc3nc(N(C)C)cc(C)c3c2)c(C)c(C)c1OC (optimized conformer: 75.76138357600162 kcal/mol)

>  <smiles>  (44) 
COc1cc(S(=O)(=O)Nc2ccc3nc(N(C)C)cc(C)c3c2)c(C)c(C)c1OC

>  <score_type>  (44) 
oracle

>  <origin>  (44) 
adgpu

>  <m_score__min__energy>  (44) 
-9.4900000000000002

>  <m_primary>  (44) 
energy

$$$$
44:0
     RDKit          3D

 30 31  0  0  0  0  0  0  0  0999 V2000
   -6.1020   19.6760  -33.3170 C   0  0  0  0  0  0  0  0  0  0  0  0
   -5.8720   20.9510  -32.5620 C   0  0  0  0  0  0  0  0  0  0  0  0
   -6.9590   21.6780  -32.0520 C   0  0  0  0  0  0  0  0  0  0  0  0
   -6.7470   22.8870  -31.3830 C   0  0  0  0  0  0  0  0  0  0  0  0
   -5.4480   23.3890  -31.2300 C   0  0  0  0  0  0  0  0  0  0  0  0
   -5.1760   24.9170  -30.3990 S   0  0  0  0  0  0  0  0  0  0  0  0
   -5.7130   26.0640  -31.2090 O   0  0  0  0  0  0  0  0  0  0  0  0
   -5.8800   24.8810  -29.0720 O   0  0  0  0  0  0  0  0  0  0  0  0
   -3.4800   25.1590  -30.1330 N   0  0  0  0  0  0  0  0  0  0  0  0
   -2.6510   24.3440  -29.2930 C   0  0  0  0  0  0  0  0  0  0  0  0
   -3.1840   23.3480  -28.4540 C   0  0  0  0  0  0  0  0  0  0  0  0
   -2.3370   22.5820  -27.6450 C   0  0  0  0  0  0  0  0  0  0  0  0
   -0.9580   22.8020  -27.6680 C   0  0  0  0  0  0  0  0  0  0  0  0
   -0.4180   23.7870  -28.5000 C   0  0  0  0  0  0  0  0  0  0  0  0
    0.9600   23.9960  -28.5140 O   0  0  0  0  0  0  0  0  0  0  0  0
   -1.2650   24.5550  -29.3110 C   0  0  0  0  0  0  0  0  0  0  0  0
   -4.3610   22.6710  -31.7480 C   0  0  0  0  0  0  0  0  0  0  0  0
   -4.5730   21.4630  -32.4180 C   0  0  0  0  0  0  0  0  0  0  0  0
   -6.2509   18.8504  -32.6056 H   0  0  0  0  0  0  0  0  0  0  0  0
   -6.9958   19.7806  -33.9496 H   0  0  0  0  0  0  0  0  0  0  0  0
   -5.2280   19.4617  -33.9496 H   0  0  0  0  0  0  0  0  0  0  0  0
   -7.9822   21.2947  -32.1793 H   0  0  0  0  0  0  0  0  0  0  0  0
   -7.6025   23.4457  -30.9756 H   0  0  0  0  0  0  0  0  0  0  0  0
   -4.2695   23.1710  -28.4339 H   0  0  0  0  0  0  0  0  0  0  0  0
   -2.7582   21.8052  -26.9898 H   0  0  0  0  0  0  0  0  0  0  0  0
   -0.2953   22.1988  -27.0300 H   0  0  0  0  0  0  0  0  0  0  0  0
    1.3540   24.9260  -28.5790 H   0  0  0  0  0  0  0  0  0  0  0  0
   -0.8391   25.3290  -29.9664 H   0  0  0  0  0  0  0  0  0  0  0  0
   -3.3390   23.0593  -31.6268 H   0  0  0  0  0  0  0  0  0  0  0  0
   -3.7177   20.9107  -32.8345 H   0  0  0  0  0  0  0  0  0  0  0  0
  1  2  1  0
  2  3  2  0
  3  4  1  0
  4  5  2  0
  5  6  1  0
  6  7  2  0
  6  8  2  0
  6  9  1  0
  9 10  1  0
 10 11  2  0
 11 12  1  0
 12 13  2  0
 13 14  1  0
 14 15  1  0
 14 16  2  0
  5 17  1  0
 17 18  2  0
 18  2  1  0
 16 10  1  0
  1 19  1  0
  1 20  1  0
  1 21  1  0
  3 22  1  0
  4 23  1  0
 11 24  1  0
 12 25  1  0
 13 26  1  0
 15 27  1  0
 16 28  1  0
 17 29  1  0
 18 30  1  0
M  CHG  1   9  -1
M  END
>  <UniqueID>  (45) 
40

>  <SMILES>  (45) 
Cc1ccc(S(=O)(=O)[N-]c2cccc(O)c2)cc1

>  <Energy>  (45) 
32.355016336838816

>  <Genealogy>  (45) 
Cc1ccc(S(=O)(=O)[N-]c2cccc(O)c2)cc1 (protonated)
Cc1ccc(S(=O)(=O)[N-]c2cccc(O)c2)cc1 (3D coordinates assigned)
Cc1ccc(S(=O)(=O)[N-]c2cccc(O)c2)cc1 (optimized conformer: 32.355016336838816 kcal/mol)

>  <smiles>  (45) 
Cc1ccc(S(=O)(=O)Nc2cccc(O)c2)cc1

>  <score_type>  (45) 
oracle

>  <origin>  (45) 
adgpu

>  <m_score__min__energy>  (45) 
-8.3800000000000008

>  <m_primary>  (45) 
energy

$$$$
45:0
     RDKit          3D

 48 50  0  0  0  0  0  0  0  0999 V2000
   -3.8980   25.2070  -30.7680 O   0  0  0  0  0  0  0  0  0  0  0  0
   -5.1580   24.8730  -30.0190 S   0  0  0  0  0  0  0  0  0  0  0  0
   -6.1050   26.0350  -30.1400 O   0  0  0  0  0  0  0  0  0  0  0  0
   -4.7870   24.6090  -28.3410 N   0  0  0  0  0  0  0  0  0  0  0  0
   -4.1390   23.3070  -28.1770 C   0  0  0  0  0  0  0  0  0  0  0  0
   -2.6480   23.4660  -28.3000 C   0  0  0  0  0  0  0  0  0  0  0  0
   -1.8680   22.4270  -28.8330 C   0  0  0  0  0  0  0  0  0  0  0  0
   -0.4870   22.5880  -28.9800 C   0  0  0  0  0  0  0  0  0  0  0  0
    0.1220   23.7890  -28.6050 C   0  0  0  0  0  0  0  0  0  0  0  0
   -0.6500   24.8330  -28.0880 C   0  0  0  0  0  0  0  0  0  0  0  0
   -2.0320   24.6760  -27.9410 C   0  0  0  0  0  0  0  0  0  0  0  0
   -5.9150   23.4400  -30.7100 C   0  0  0  0  0  0  0  0  0  0  0  0
   -7.3120   23.3400  -30.7460 C   0  0  0  0  0  0  0  0  0  0  0  0
   -7.9220   22.1900  -31.2570 C   0  0  0  0  0  0  0  0  0  0  0  0
   -7.1390   21.1310  -31.7350 C   0  0  0  0  0  0  0  0  0  0  0  0
   -7.8960   19.6580  -32.3350 S   0  0  0  0  0  0  0  0  0  0  0  0
   -8.8310   20.0180  -33.4560 O   0  0  0  0  0  0  0  0  0  0  0  0
   -8.6920   19.0070  -31.2370 O   0  0  0  0  0  0  0  0  0  0  0  0
   -6.6710   18.5610  -32.9210 N   0  0  0  0  0  0  0  0  0  0  0  0
   -7.2440   17.2060  -33.0780 C   0  0  0  0  0  0  0  0  0  0  0  0
   -6.3360   16.2700  -33.9070 C   0  0  0  0  0  0  0  0  0  0  0  0
   -4.9090   16.8130  -34.0090 C   0  0  0  0  0  0  0  0  0  0  0  0
   -4.8990   18.2260  -34.6160 C   0  0  0  0  0  0  0  0  0  0  0  0
   -6.1280   19.0550  -34.1970 C   0  0  0  0  0  0  0  0  0  0  0  0
   -5.7420   21.2270  -31.6900 C   0  0  0  0  0  0  0  0  0  0  0  0
   -5.1310   22.3760  -31.1800 C   0  0  0  0  0  0  0  0  0  0  0  0
   -5.7010   24.5850  -27.8310 H   0  0  0  0  0  0  0  0  0  0  0  0
   -4.3830   22.8990  -27.1850 H   0  0  0  0  0  0  0  0  0  0  0  0
   -4.4985   22.6193  -28.9567 H   0  0  0  0  0  0  0  0  0  0  0  0
   -2.3452   21.4833  -29.1359 H   0  0  0  0  0  0  0  0  0  0  0  0
    0.1210   21.7687  -29.3912 H   0  0  0  0  0  0  0  0  0  0  0  0
    1.2093   23.9125  -28.7169 H   0  0  0  0  0  0  0  0  0  0  0  0
   -0.1703   25.7790  -27.7964 H   0  0  0  0  0  0  0  0  0  0  0  0
   -2.6384   25.5029  -27.5429 H   0  0  0  0  0  0  0  0  0  0  0  0
   -7.9309   24.1685  -30.3712 H   0  0  0  0  0  0  0  0  0  0  0  0
   -9.0192   22.1167  -31.2837 H   0  0  0  0  0  0  0  0  0  0  0  0
   -7.3864   16.7658  -32.0800 H   0  0  0  0  0  0  0  0  0  0  0  0
   -8.1980   17.3077  -33.6161 H   0  0  0  0  0  0  0  0  0  0  0  0
   -6.3080   15.2815  -33.4253 H   0  0  0  0  0  0  0  0  0  0  0  0
   -6.7507   16.2007  -34.9235 H   0  0  0  0  0  0  0  0  0  0  0  0
   -4.4656   16.8505  -33.0030 H   0  0  0  0  0  0  0  0  0  0  0  0
   -4.3264   16.1468  -34.6623 H   0  0  0  0  0  0  0  0  0  0  0  0
   -3.9903   18.7477  -34.2811 H   0  0  0  0  0  0  0  0  0  0  0  0
   -4.9235   18.1205  -35.7107 H   0  0  0  0  0  0  0  0  0  0  0  0
   -5.8322   20.1081  -34.0813 H   0  0  0  0  0  0  0  0  0  0  0  0
   -6.9018   18.9622  -34.9733 H   0  0  0  0  0  0  0  0  0  0  0  0
   -5.1236   20.3948  -32.0575 H   0  0  0  0  0  0  0  0  0  0  0  0
   -4.0337   22.4460  -31.1472 H   0  0  0  0  0  0  0  0  0  0  0  0
  1  2  2  0
  2  3  2  0
  2  4  1  0
  4  5  1  0
  5  6  1  0
  6  7  2  0
  7  8  1  0
  8  9  2  0
  9 10  1  0
 10 11  2  0
  2 12  1  0
 12 13  2  0
 13 14  1  0
 14 15  2  0
 15 16  1  0
 16 17  2  0
 16 18  2  0
 16 19  1  0
 19 20  1  0
 20 21  1  0
 21 22  1  0
 22 23  1  0
 23 24  1  0
 15 25  1  0
 25 26  2  0
 11  6  1  0
 26 12  1  0
 24 19  1  0
  4 27  1  0
  5 28  1  0
  5 29  1  0
  7 30  1  0
  8 31  1  0
  9 32  1  0
 10 33  1  0
 11 34  1  0
 13 35  1  0
 14 36  1  0
 20 37  1  0
 20 38  1  0
 21 39  1  0
 21 40  1  0
 22 41  1  0
 22 42  1  0
 23 43  1  0
 23 44  1  0
 24 45  1  0
 24 46  1  0
 25 47  1  0
 26 48  1  0
M  END
>  <UniqueID>  (46) 
41

>  <SMILES>  (46) 
O=S(=O)(NCc1ccccc1)c1ccc(S(=O)(=O)N2CCCCC2)cc1

>  <Energy>  (46) 
48.278961863661195

>  <Genealogy>  (46) 
O=S(=O)(NCc1ccccc1)c1ccc(S(=O)(=O)N2CCCCC2)cc1 (3D coordinates assigned)
O=S(=O)(NCc1ccccc1)c1ccc(S(=O)(=O)N2CCCCC2)cc1 (nonaromatic ring conformer: 48.278961863661195 kcal/mol)

>  <smiles>  (46) 
O=S(=O)(NCc1ccccc1)c1ccc(S(=O)(=O)N2CCCCC2)cc1

>  <score_type>  (46) 
oracle

>  <origin>  (46) 
adgpu

>  <m_score__min__energy>  (46) 
-11.01

>  <m_primary>  (46) 
energy

$$$$
46:0
     RDKit          3D

 64 68  0  0  0  0  0  0  0  0999 V2000
    0.4300   28.5230  -35.0290 C   0  0  0  0  0  0  0  0  0  0  0  0
    1.9490   27.9750  -35.7800 S   0  0  0  0  0  0  0  0  0  0  0  0
    2.0280   28.5480  -37.1660 O   0  0  0  0  0  0  0  0  0  0  0  0
    3.1190   28.4730  -34.9760 O   0  0  0  0  0  0  0  0  0  0  0  0
    1.9910   26.2130  -35.8370 C   0  0  0  0  0  0  0  0  0  0  0  0
    0.8790   25.5050  -36.3040 C   0  0  0  0  0  0  0  0  0  0  0  0
    0.8950   24.1080  -36.3400 C   0  0  0  0  0  0  0  0  0  0  0  0
    2.0340   23.4030  -35.9030 C   0  0  0  0  0  0  0  0  0  0  0  0
    2.0740   22.0010  -35.8420 O   0  0  0  0  0  0  0  0  0  0  0  0
    1.0340   21.1700  -35.4110 C   0  0  0  0  0  0  0  0  0  0  0  0
    1.1080   19.7870  -35.7050 C   0  0  0  0  0  0  0  0  0  0  0  0
    0.0820   18.9120  -35.3100 C   0  0  0  0  0  0  0  0  0  0  0  0
   -1.0070   19.4560  -34.6380 C   0  0  0  0  0  0  0  0  0  0  0  0
   -2.1010   18.8160  -34.2060 N   0  0  0  0  0  0  0  0  0  0  0  0
   -2.8490   19.8260  -33.6850 C   0  0  0  0  0  0  0  0  0  0  0  0
   -4.1990   19.6080  -33.1290 C   0  0  0  0  0  0  0  0  0  0  0  0
   -4.4130   19.6530  -31.7430 C   0  0  0  0  0  0  0  0  0  0  0  0
   -5.7040   19.5200  -31.2220 C   0  0  0  0  0  0  0  0  0  0  0  0
   -6.8000   19.3100  -32.0810 C   0  0  0  0  0  0  0  0  0  0  0  0
   -8.1210   19.1820  -31.6220 O   0  0  0  0  0  0  0  0  0  0  0  0
   -9.2990   19.5980  -32.3150 C   0  0  0  0  0  0  0  0  0  0  0  0
   -9.3870   21.1260  -32.3780 C   0  0  0  0  0  0  0  0  0  0  0  0
   -8.5010   21.7300  -31.3750 N   0  0  0  0  0  0  0  0  0  0  0  0
   -7.7770   22.8840  -31.9190 C   0  0  0  0  0  0  0  0  0  0  0  0
   -6.6260   23.2450  -31.0200 C   0  0  0  0  0  0  0  0  0  0  0  0
   -6.4130   22.5350  -29.8260 C   0  0  0  0  0  0  0  0  0  0  0  0
   -5.3560   22.8820  -28.9760 C   0  0  0  0  0  0  0  0  0  0  0  0
   -4.5040   23.9430  -29.3070 C   0  0  0  0  0  0  0  0  0  0  0  0
   -3.4590   24.3050  -28.4600 O   0  0  0  0  0  0  0  0  0  0  0  0
   -4.7090   24.6510  -30.5000 C   0  0  0  0  0  0  0  0  0  0  0  0
   -3.8670   25.7030  -30.8400 O   0  0  0  0  0  0  0  0  0  0  0  0
   -5.7680   24.3060  -31.3500 C   0  0  0  0  0  0  0  0  0  0  0  0
   -6.5790   19.2470  -33.4610 C   0  0  0  0  0  0  0  0  0  0  0  0
   -5.2910   19.4020  -33.9840 C   0  0  0  0  0  0  0  0  0  0  0  0
   -2.2730   21.0560  -33.7750 N   0  0  0  0  0  0  0  0  0  0  0  0
   -1.1030   20.7880  -34.3740 C   0  0  0  0  0  0  0  0  0  0  0  0
   -0.1020   21.6870  -34.7420 C   0  0  0  0  0  0  0  0  0  0  0  0
    3.1440   24.1170  -35.4420 C   0  0  0  0  0  0  0  0  0  0  0  0
    3.1270   25.5110  -35.4120 C   0  0  0  0  0  0  0  0  0  0  0  0
    0.5286   28.4874  -33.9340 H   0  0  0  0  0  0  0  0  0  0  0  0
    0.2164   29.5549  -35.3446 H   0  0  0  0  0  0  0  0  0  0  0  0
   -0.3932   27.8652  -35.3446 H   0  0  0  0  0  0  0  0  0  0  0  0
   -0.0132   26.0507  -36.6449 H   0  0  0  0  0  0  0  0  0  0  0  0
    0.0171   23.5580  -36.7100 H   0  0  0  0  0  0  0  0  0  0  0  0
    1.9790   19.3929  -36.2491 H   0  0  0  0  0  0  0  0  0  0  0  0
    0.1383   17.8346  -35.5248 H   0  0  0  0  0  0  0  0  0  0  0  0
   -3.5604   19.7937  -31.0623 H   0  0  0  0  0  0  0  0  0  0  0  0
   -5.8642   19.5797  -30.1354 H   0  0  0  0  0  0  0  0  0  0  0  0
   -9.2750   19.1964  -33.3388 H   0  0  0  0  0  0  0  0  0  0  0  0
  -10.1775   19.2180  -31.7730 H   0  0  0  0  0  0  0  0  0  0  0  0
   -9.0855   21.4657  -33.3799 H   0  0  0  0  0  0  0  0  0  0  0  0
  -10.4228   21.4332  -32.1713 H   0  0  0  0  0  0  0  0  0  0  0  0
   -7.7940   21.0100  -31.0990 H   0  0  0  0  0  0  0  0  0  0  0  0
   -7.3927   22.6337  -32.9188 H   0  0  0  0  0  0  0  0  0  0  0  0
   -8.4639   23.7406  -31.9848 H   0  0  0  0  0  0  0  0  0  0  0  0
   -7.0801   21.7025  -29.5579 H   0  0  0  0  0  0  0  0  0  0  0  0
   -5.1942   22.3192  -28.0448 H   0  0  0  0  0  0  0  0  0  0  0  0
   -3.2980   25.2700  -28.1970 H   0  0  0  0  0  0  0  0  0  0  0  0
   -5.9280   24.8696  -32.2810 H   0  0  0  0  0  0  0  0  0  0  0  0
   -7.4261   19.0740  -34.1411 H   0  0  0  0  0  0  0  0  0  0  0  0
   -5.1339   19.3621  -35.0720 H   0  0  0  0  0  0  0  0  0  0  0  0
   -0.1919   22.7606  -34.5202 H   0  0  0  0  0  0  0  0  0  0  0  0
    4.0380   23.5748  -35.1002 H   0  0  0  0  0  0  0  0  0  0  0  0
    4.0089   26.0619  -35.0532 H   0  0  0  0  0  0  0  0  0  0  0  0
  1  2  1  0
  2  3  2  0
  2  4  2  0
  2  5  1  0
  5  6  2  0
  6  7  1  0
  7  8  2  0
  8  9  1  0
  9 10  1  0
 10 11  2  0
 11 12  1  0
 12 13  2  0
 13 14  1  0
 14 15  1  0
 15 16  1  0
 16 17  2  0
 17 18  1  0
 18 19  2  0
 19 20  1  0
 20 21  1  0
 21 22  1  0
 22 23  1  0
 23 24  1  0
 24 25  1  0
 25 26  2  0
 26 27  1  0
 27 28  2  0
 28 29  1  0
 28 30  1  0
 30 31  1  0
 30 32  2  0
 19 33  1  0
 33 34  2  0
 15 35  2  0
 35 36  1  0
 36 37  2  0
  8 38  1  0
 38 39  2  0
 39  5  1  0
 37 10  1  0
 36 13  1  0
 34 16  1  0
 32 25  1  0
  1 40  1  0
  1 41  1  0
  1 42  1  0
  6 43  1  0
  7 44  1  0
 11 45  1  0
 12 46  1  0
 17 47  1  0
 18 48  1  0
 21 49  1  0
 21 50  1  0
 22 51  1  0
 22 52  1  0
 23 53  1  0
 24 54  1  0
 24 55  1  0
 26 56  1  0
 27 57  1  0
 29 58  1  0
 32 59  1  0
 33 60  1  0
 34 61  1  0
 37 62  1  0
 38 63  1  0
 39 64  1  0
M  CHG  2  14  -1  31  -1
M  END
>  <UniqueID>  (47) 
42

>  <SMILES>  (47) 
CS(=O)(=O)c1ccc(Oc2ccc3[n-]c(-c4ccc(OCCNCc5ccc(O)c([O-])c5)cc4)nc3c2)cc1

>  <Energy>  (47) 
107.52121496741323

>  <Genealogy>  (47) 
CS(=O)(=O)c1ccc(Oc2ccc3[n-]c(-c4ccc(OCCNCc5ccc(O)c([O-])c5)cc4)nc3c2)cc1 (protonated)
CS(=O)(=O)c1ccc(Oc2ccc3[n-]c(-c4ccc(OCCNCc5ccc(O)c([O-])c5)cc4)nc3c2)cc1 (3D coordinates assigned)
CS(=O)(=O)c1ccc(Oc2ccc3[n-]c(-c4ccc(OCCNCc5ccc(O)c([O-])c5)cc4)nc3c2)cc1 (optimized conformer: 107.52121496741323 kcal/mol)

>  <smiles>  (47) 
CS(=O)(=O)c1ccc(Oc2ccc3[nH]c(-c4ccc(OCCNCc5ccc(O)c(O)c5)cc4)nc3c2)cc1

>  <score_type>  (47) 
oracle

>  <origin>  (47) 
adgpu

>  <m_score__min__energy>  (47) 
-12.5

>  <m_primary>  (47) 
energy

$$$$
47:0
     RDKit          3D

 49 53  0  0  0  0  0  0  0  0999 V2000
   -6.5270   25.7260  -29.4430 C   0  0  0  0  0  0  0  0  0  0  0  0
   -6.9600   24.3780  -30.0130 C   0  0  0  0  0  0  0  0  0  0  0  0
   -5.8500   23.7470  -30.7990 C   0  0  0  0  0  0  0  0  0  0  0  0
   -4.6070   24.2790  -30.8500 N   0  0  0  0  0  0  0  0  0  0  0  0
   -3.8520   23.4810  -31.5950 N   0  0  0  0  0  0  0  0  0  0  0  0
   -4.6500   22.4730  -31.9790 C   0  0  0  0  0  0  0  0  0  0  0  0
   -4.2690   21.4270  -32.7590 N   0  0  0  0  0  0  0  0  0  0  0  0
   -5.1720   20.4510  -33.0890 C   0  0  0  0  0  0  0  0  0  0  0  0
   -4.7610   19.3590  -33.9390 N   0  0  0  0  0  0  0  0  0  0  0  0
   -3.3320   19.0170  -34.0040 C   0  0  0  0  0  0  0  0  0  0  0  0
   -3.0060   17.7370  -33.2060 C   0  0  0  0  0  0  0  0  0  0  0  0
   -3.6910   16.4620  -33.7250 C   0  0  0  0  0  0  0  0  0  0  0  0
   -5.1650   16.5820  -33.7750 N   0  0  0  0  0  0  0  0  0  0  0  0
   -5.8550   15.3280  -33.3980 C   0  0  0  0  0  0  0  0  0  0  0  0
   -4.9320   14.2840  -32.8320 C   0  0  0  0  0  0  0  0  0  0  0  0
   -4.7000   14.0480  -31.4820 C   0  0  0  0  0  0  0  0  0  0  0  0
   -3.7980   13.0020  -31.2520 C   0  0  0  0  0  0  0  0  0  0  0  0
   -3.3120   12.4180  -32.4140 C   0  0  0  0  0  0  0  0  0  0  0  0
   -4.0040   13.2040  -33.7290 S   0  0  0  0  0  0  0  0  0  0  0  0
   -5.7460   17.2570  -34.9640 C   0  0  0  0  0  0  0  0  0  0  0  0
   -5.7090   18.8030  -34.9240 C   0  0  0  0  0  0  0  0  0  0  0  0
   -6.4850   20.5670  -32.5810 C   0  0  0  0  0  0  0  0  0  0  0  0
   -7.8030   19.5330  -32.7230 S   0  0  0  0  0  0  0  0  0  0  0  0
   -8.8510   20.4630  -31.7830 C   0  0  0  0  0  0  0  0  0  0  0  0
   -8.1780   21.5950  -31.3320 C   0  0  0  0  0  0  0  0  0  0  0  0
   -6.8470   21.6470  -31.7810 C   0  0  0  0  0  0  0  0  0  0  0  0
   -5.9030   22.5920  -31.5040 N   0  0  0  0  0  0  0  0  0  0  0  0
   -6.5414   25.6811  -28.3440 H   0  0  0  0  0  0  0  0  0  0  0  0
   -5.5086   25.9595  -29.7871 H   0  0  0  0  0  0  0  0  0  0  0  0
   -7.2189   26.5089  -29.7871 H   0  0  0  0  0  0  0  0  0  0  0  0
   -7.2396   23.7101  -29.1849 H   0  0  0  0  0  0  0  0  0  0  0  0
   -7.8171   24.5393  -30.6833 H   0  0  0  0  0  0  0  0  0  0  0  0
   -3.0520   18.8603  -35.0562 H   0  0  0  0  0  0  0  0  0  0  0  0
   -2.7637   19.8476  -33.5600 H   0  0  0  0  0  0  0  0  0  0  0  0
   -1.9179   17.5795  -33.2412 H   0  0  0  0  0  0  0  0  0  0  0  0
   -3.3878   17.9012  -32.1875 H   0  0  0  0  0  0  0  0  0  0  0  0
   -3.3210   16.2524  -34.7395 H   0  0  0  0  0  0  0  0  0  0  0  0
   -3.4488   15.6482  -33.0257 H   0  0  0  0  0  0  0  0  0  0  0  0
   -6.6190   15.5641  -32.6426 H   0  0  0  0  0  0  0  0  0  0  0  0
   -6.2929   14.9101  -34.3165 H   0  0  0  0  0  0  0  0  0  0  0  0
   -5.1768   14.6247  -30.6758 H   0  0  0  0  0  0  0  0  0  0  0  0
   -3.5021   12.6736  -30.2447 H   0  0  0  0  0  0  0  0  0  0  0  0
   -2.5967   11.5839  -32.4654 H   0  0  0  0  0  0  0  0  0  0  0  0
   -5.1867   16.9255  -35.8513 H   0  0  0  0  0  0  0  0  0  0  0  0
   -6.8094   16.9764  -34.9866 H   0  0  0  0  0  0  0  0  0  0  0  0
   -5.4234   19.1674  -35.9218 H   0  0  0  0  0  0  0  0  0  0  0  0
   -6.7125   19.1360  -34.6205 H   0  0  0  0  0  0  0  0  0  0  0  0
   -9.8994   20.2143  -31.5617 H   0  0  0  0  0  0  0  0  0  0  0  0
   -8.6374   22.3645  -30.6942 H   0  0  0  0  0  0  0  0  0  0  0  0
  1  2  1  0
  2  3  1  0
  3  4  2  0
  4  5  1  0
  5  6  2  0
  6  7  1  0
  7  8  2  0
  8  9  1  0
  9 10  1  0
 10 11  1  0
 11 12  1  0
 12 13  1  0
 13 14  1  0
 14 15  1  0
 15 16  2  0
 16 17  1  0
 17 18  2  0
 18 19  1  0
 13 20  1  0
 20 21  1  0
  8 22  1  0
 22 23  1  0
 23 24  1  0
 24 25  2  0
 25 26  1  0
 26 27  1  0
 27  3  1  0
 27  6  1  0
 21  9  1  0
 26 22  2  0
 19 15  1  0
  1 28  1  0
  1 29  1  0
  1 30  1  0
  2 31  1  0
  2 32  1  0
 10 33  1  0
 10 34  1  0
 11 35  1  0
 11 36  1  0
 12 37  1  0
 12 38  1  0
 14 39  1  0
 14 40  1  0
 16 41  1  0
 17 42  1  0
 18 43  1  0
 20 44  1  0
 20 45  1  0
 21 46  1  0
 21 47  1  0
 24 48  1  0
 25 49  1  0
M  END
>  <UniqueID>  (48) 
43

>  <SMILES>  (48) 
CCc1nnc2nc(N3CCCN(Cc4cccs4)CC3)c3sccc3n12

>  <Energy>  (48) 
170.76527379443385

>  <Genealogy>  (48) 
CCc1nnc2nc(N3CCCN(Cc4cccs4)CC3)c3sccc3n12 (3D coordinates assigned)
CCc1nnc2nc(N3CCCN(Cc4cccs4)CC3)c3sccc3n12 (nonaromatic ring conformer: 170.76527379443385 kcal/mol)

>  <smiles>  (48) 
CCc1nnc2nc(N3CCCN(Cc4cccs4)CC3)c3sccc3n12

>  <score_type>  (48) 
oracle

>  <origin>  (48) 
adgpu

>  <m_score__min__energy>  (48) 
-7.1299999999999999

>  <m_primary>  (48) 
energy

$$$$
