0:0
     RDKit          3D

 47 49  0  0  0  0  0  0  0  0999 V2000
   -7.8814   18.9725  -34.1648 H   0  0  0  0  0  0  0  0  0  0  0  0
   -7.1920   19.4880  -33.4800 C   0  0  0  0  0  0  0  0  0  0  0  0
   -5.9230   19.7710  -33.8810 N   0  0  0  0  0  0  0  0  0  0  0  0
   -5.0280   20.3910  -33.0640 C   0  0  0  0  0  0  0  0  0  0  0  0
   -3.6460   20.6760  -33.5690 C   0  0  0  0  0  0  0  0  0  0  0  0
   -2.9656   20.8163  -32.7161 H   0  0  0  0  0  0  0  0  0  0  0  0
   -3.2976   19.8308  -34.1808 H   0  0  0  0  0  0  0  0  0  0  0  0
   -3.6604   21.5901  -34.1808 H   0  0  0  0  0  0  0  0  0  0  0  0
   -5.4030   20.7280  -31.7520 C   0  0  0  0  0  0  0  0  0  0  0  0
   -4.4930   21.4230  -30.8910 N   0  0  0  0  0  0  0  0  0  0  0  0
   -4.3710   22.7080  -30.6710 C   0  0  0  0  0  0  0  0  0  0  0  0
   -5.2930   23.6880  -31.1470 C   0  0  0  0  0  0  0  0  0  0  0  0
   -6.5180   23.3730  -31.8430 C   0  0  0  0  0  0  0  0  0  0  0  0
   -7.5030   23.1310  -32.3990 N   0  0  0  0  0  0  0  0  0  0  0  0
   -5.0680   25.0370  -30.8500 C   0  0  0  0  0  0  0  0  0  0  0  0
   -5.7618   25.8006  -31.2315 H   0  0  0  0  0  0  0  0  0  0  0  0
   -4.0040   25.4140  -30.0970 N   0  0  0  0  0  0  0  0  0  0  0  0
   -3.8630   26.4270  -29.8860 H   0  0  0  0  0  0  0  0  0  0  0  0
   -3.1270   24.5070  -29.6010 C   0  0  0  0  0  0  0  0  0  0  0  0
   -2.2853   24.8463  -28.9795 H   0  0  0  0  0  0  0  0  0  0  0  0
   -3.2830   23.1400  -29.8730 C   0  0  0  0  0  0  0  0  0  0  0  0
   -2.2850   22.1860  -29.3250 C   0  0  0  0  0  0  0  0  0  0  0  0
   -1.5760   21.3340  -30.1880 C   0  0  0  0  0  0  0  0  0  0  0  0
   -1.7586   21.3779  -31.2718 H   0  0  0  0  0  0  0  0  0  0  0  0
   -0.6400   20.4310  -29.6770 C   0  0  0  0  0  0  0  0  0  0  0  0
   -0.0871   19.7709  -30.3615 H   0  0  0  0  0  0  0  0  0  0  0  0
   -0.4010   20.3610  -28.2960 C   0  0  0  0  0  0  0  0  0  0  0  0
    0.5940   19.3700  -27.7400 C   0  0  0  0  0  0  0  0  0  0  0  0
    0.9809   19.7541  -26.7846 H   0  0  0  0  0  0  0  0  0  0  0  0
    1.4006   19.2498  -28.4782 H   0  0  0  0  0  0  0  0  0  0  0  0
   -0.0100   18.0480  -27.5100 N   0  0  0  0  0  0  0  0  0  0  0  0
   -0.8570   17.9380  -28.1170 H   0  0  0  0  0  0  0  0  0  0  0  0
    0.9260   16.9620  -27.8130 C   0  0  0  0  0  0  0  0  0  0  0  0
    1.3002   16.5278  -26.8741 H   0  0  0  0  0  0  0  0  0  0  0  0
    0.4099   16.1851  -28.3962 H   0  0  0  0  0  0  0  0  0  0  0  0
    1.7705   17.3578  -28.3962 H   0  0  0  0  0  0  0  0  0  0  0  0
   -1.1200   21.2010  -27.4320 C   0  0  0  0  0  0  0  0  0  0  0  0
   -0.9464   21.1474  -26.3471 H   0  0  0  0  0  0  0  0  0  0  0  0
   -2.0550   22.1050  -27.9420 C   0  0  0  0  0  0  0  0  0  0  0  0
   -2.6147   22.7576  -27.2558 H   0  0  0  0  0  0  0  0  0  0  0  0
   -6.7150   20.4740  -31.3320 C   0  0  0  0  0  0  0  0  0  0  0  0
   -7.0330   20.7644  -30.3198 H   0  0  0  0  0  0  0  0  0  0  0  0
   -7.6230   19.8510  -32.1980 C   0  0  0  0  0  0  0  0  0  0  0  0
   -9.0090   19.5170  -31.7350 C   0  0  0  0  0  0  0  0  0  0  0  0
   -9.0366   19.5103  -30.6354 H   0  0  0  0  0  0  0  0  0  0  0  0
   -9.7142   20.2709  -32.1149 H   0  0  0  0  0  0  0  0  0  0  0  0
   -9.2933   18.5246  -32.1149 H   0  0  0  0  0  0  0  0  0  0  0  0
  1  2  1  0
  2  3  2  0
  3  4  1  0
  4  5  1  0
  5  6  1  0
  5  7  1  0
  5  8  1  0
  4  9  2  0
  9 10  1  0
 10 11  2  0
 11 12  1  0
 12 13  1  0
 13 14  3  0
 12 15  2  0
 15 16  1  0
 15 17  1  0
 17 18  1  0
 17 19  1  0
 19 20  1  0
 19 21  2  0
 21 22  1  0
 22 23  2  0
 23 24  1  0
 23 25  1  0
 25 26  1  0
 25 27  2  0
 27 28  1  0
 28 29  1  0
 28 30  1  0
 28 31  1  0
 31 32  1  0
 31 33  1  0
 33 34  1  0
 33 35  1  0
 33 36  1  0
 27 37  1  0
 37 38  1  0
 37 39  2  0
 39 40  1  0
  9 41  1  0
 41 42  1  0
 41 43  2  0
 43 44  1  0
 44 45  1  0
 44 46  1  0
 44 47  1  0
 43  2  1  0
 21 11  1  0
 39 22  1  0
M  END
>  <UniqueID>  (1) 
1

>  <SMILES>  (1) 
CNCc1ccc(-c2c[nH]cc(C#N)/c2=N\c2cc(C)cnc2C)cc1

>  <Energy>  (1) 
69.2951401692326

>  <Genealogy>  (1) 
CNCc1ccc(-c2c[nH]cc(C#N)/c2=N\c2cc(C)cnc2C)cc1 (cis-trans isomerization)
CNCc1ccc(-c2c[nH]cc(C#N)/c2=N\c2cc(C)cnc2C)cc1 (3D coordinates assigned)
CNCc1ccc(-c2c[nH]cc(C#N)/c2=N\c2cc(C)cnc2C)cc1 (optimized conformer: 69.2951401692326 kcal/mol)

>  <smiles>  (1) 
CNCc1ccc(-c2c[nH]cc(C#N)c2=Nc2cc(C)cnc2C)cc1

>  <score_type>  (1) 
oracle

>  <origin>  (1) 
adgpu

>  <m_score__min__energy>  (1) 
-8.5399999999999991

>  <m_primary>  (1) 
energy

$$$$
1:0
     RDKit          3D

 56 59  0  0  0  0  0  0  0  0999 V2000
   -3.9170   25.1450  -30.4740 O   0  0  0  0  0  0  0  0  0  0  0  0
   -3.9300   23.9530  -30.0600 C   0  0  0  0  0  0  0  0  0  0  0  0
   -3.2290   23.6030  -28.8520 N   0  0  0  0  0  0  0  0  0  0  0  0
   -2.6090   24.5600  -27.9760 C   0  0  0  0  0  0  0  0  0  0  0  0
   -3.0830   24.7780  -26.6700 C   0  0  0  0  0  0  0  0  0  0  0  0
   -2.4400   25.6920  -25.8290 C   0  0  0  0  0  0  0  0  0  0  0  0
   -1.3080   26.3850  -26.2730 C   0  0  0  0  0  0  0  0  0  0  0  0
   -0.5050   27.5530  -25.2290 S   0  0  0  0  0  0  0  0  0  0  0  0
   -1.1970   27.5800  -23.8960 O   0  0  0  0  0  0  0  0  0  0  0  0
   -0.5870   28.9260  -25.8400 O   0  0  0  0  0  0  0  0  0  0  0  0
    1.1610   27.0800  -25.0120 N   0  0  0  0  0  0  0  0  0  0  0  0
    1.7030   27.6070  -23.7600 C   0  0  0  0  0  0  0  0  0  0  0  0
    2.8130   26.6580  -23.3380 C   0  0  0  0  0  0  0  0  0  0  0  0
    2.5360   25.3590  -24.0780 C   0  0  0  0  0  0  0  0  0  0  0  0
    1.2930   25.6270  -24.9130 C   0  0  0  0  0  0  0  0  0  0  0  0
   -0.8250   26.1600  -27.5690 C   0  0  0  0  0  0  0  0  0  0  0  0
   -1.4640   25.2480  -28.4100 C   0  0  0  0  0  0  0  0  0  0  0  0
   -4.6680   22.9330  -30.8420 C   0  0  0  0  0  0  0  0  0  0  0  0
   -6.0390   22.7320  -30.6060 C   0  0  0  0  0  0  0  0  0  0  0  0
   -6.7500   21.7690  -31.3280 C   0  0  0  0  0  0  0  0  0  0  0  0
   -6.1070   21.0020  -32.3050 C   0  0  0  0  0  0  0  0  0  0  0  0
   -7.0160   19.7790  -33.1890 S   0  0  0  0  0  0  0  0  0  0  0  0
   -6.4970   19.6650  -34.5960 O   0  0  0  0  0  0  0  0  0  0  0  0
   -8.4580   20.1990  -33.2360 O   0  0  0  0  0  0  0  0  0  0  0  0
   -6.8750   18.2380  -32.3700 N   0  0  0  0  0  0  0  0  0  0  0  0
   -5.4850   17.9890  -31.9730 C   0  0  0  0  0  0  0  0  0  0  0  0
   -4.8140   17.1820  -33.0750 C   0  0  0  0  0  0  0  0  0  0  0  0
   -5.9460   16.6310  -33.9220 C   0  0  0  0  0  0  0  0  0  0  0  0
   -7.2260   17.1400  -33.2770 C   0  0  0  0  0  0  0  0  0  0  0  0
   -4.7450   21.2080  -32.5590 C   0  0  0  0  0  0  0  0  0  0  0  0
   -4.0300   22.1670  -31.8360 C   0  0  0  0  0  0  0  0  0  0  0  0
   -3.1230   22.5950  -28.6000 H   0  0  0  0  0  0  0  0  0  0  0  0
   -3.9637   24.2270  -26.3082 H   0  0  0  0  0  0  0  0  0  0  0  0
   -2.8258   25.8670  -24.8138 H   0  0  0  0  0  0  0  0  0  0  0  0
    2.1064   28.6184  -23.9162 H   0  0  0  0  0  0  0  0  0  0  0  0
    0.9236   27.6770  -22.9869 H   0  0  0  0  0  0  0  0  0  0  0  0
    3.7950   27.0625  -23.6247 H   0  0  0  0  0  0  0  0  0  0  0  0
    2.8340   26.5116  -22.2480 H   0  0  0  0  0  0  0  0  0  0  0  0
    3.3854   25.0963  -24.7256 H   0  0  0  0  0  0  0  0  0  0  0  0
    2.3900   24.5168  -23.3856 H   0  0  0  0  0  0  0  0  0  0  0  0
    1.4067   25.1872  -25.9148 H   0  0  0  0  0  0  0  0  0  0  0  0
    0.4010   25.1783  -24.4515 H   0  0  0  0  0  0  0  0  0  0  0  0
    0.0619   26.7047  -27.9250 H   0  0  0  0  0  0  0  0  0  0  0  0
   -1.0681   25.0666  -29.4201 H   0  0  0  0  0  0  0  0  0  0  0  0
   -6.5565   23.3373  -29.8472 H   0  0  0  0  0  0  0  0  0  0  0  0
   -7.8202   21.6137  -31.1268 H   0  0  0  0  0  0  0  0  0  0  0  0
   -4.9589   18.9456  -31.8387 H   0  0  0  0  0  0  0  0  0  0  0  0
   -5.4541   17.4349  -31.0232 H   0  0  0  0  0  0  0  0  0  0  0  0
   -4.1602   17.8273  -33.6801 H   0  0  0  0  0  0  0  0  0  0  0  0
   -4.1829   16.3793  -32.6659 H   0  0  0  0  0  0  0  0  0  0  0  0
   -5.8652   16.9975  -34.9560 H   0  0  0  0  0  0  0  0  0  0  0  0
   -5.9225   15.5322  -33.9671 H   0  0  0  0  0  0  0  0  0  0  0  0
   -7.9153   17.5037  -34.0532 H   0  0  0  0  0  0  0  0  0  0  0  0
   -7.7201   16.3299  -32.7206 H   0  0  0  0  0  0  0  0  0  0  0  0
   -4.2358   20.6124  -33.3310 H   0  0  0  0  0  0  0  0  0  0  0  0
   -2.9616   22.3243  -32.0451 H   0  0  0  0  0  0  0  0  0  0  0  0
  1  2  2  0
  2  3  1  0
  3  4  1  0
  4  5  2  0
  5  6  1  0
  6  7  2  0
  7  8  1  0
  8  9  2  0
  8 10  2  0
  8 11  1  0
 11 12  1  0
 12 13  1  0
 13 14  1  0
 14 15  1  0
  7 16  1  0
 16 17  2  0
  2 18  1  0
 18 19  2  0
 19 20  1  0
 20 21  2  0
 21 22  1  0
 22 23  2  0
 22 24  2  0
 22 25  1  0
 25 26  1  0
 26 27  1  0
 27 28  1  0
 28 29  1  0
 21 30  1  0
 30 31  2  0
 17  4  1  0
 31 18  1  0
 15 11  1  0
 29 25  1  0
  3 32  1  0
  5 33  1  0
  6 34  1  0
 12 35  1  0
 12 36  1  0
 13 37  1  0
 13 38  1  0
 14 39  1  0
 14 40  1  0
 15 41  1  0
 15 42  1  0
 16 43  1  0
 17 44  1  0
 19 45  1  0
 20 46  1  0
 26 47  1  0
 26 48  1  0
 27 49  1  0
 27 50  1  0
 28 51  1  0
 28 52  1  0
 29 53  1  0
 29 54  1  0
 30 55  1  0
 31 56  1  0
M  END
>  <UniqueID>  (2) 
2

>  <SMILES>  (2) 
O=C(Nc1ccc(S(=O)(=O)N2CCCC2)cc1)c1ccc(S(=O)(=O)N2CCCC2)cc1

>  <Energy>  (2) 
66.46161383012556

>  <Genealogy>  (2) 
O=C(Nc1ccc(S(=O)(=O)N2CCCC2)cc1)c1ccc(S(=O)(=O)N2CCCC2)cc1 (3D coordinates assigned)
O=C(Nc1ccc(S(=O)(=O)N2CCCC2)cc1)c1ccc(S(=O)(=O)N2CCCC2)cc1 (nonaromatic ring conformer: 66.46161383012556 kcal/mol)

>  <smiles>  (2) 
O=C(Nc1ccc(S(=O)(=O)N2CCCC2)cc1)c1ccc(S(=O)(=O)N2CCCC2)cc1

>  <score_type>  (2) 
oracle

>  <origin>  (2) 
adgpu

>  <m_score__min__energy>  (2) 
-9.9700000000000006

>  <m_primary>  (2) 
energy

$$$$
2:0
     RDKit          3D

 39 41  0  0  0  0  0  0  0  0999 V2000
   -2.0730   23.0090  -30.0010 C   0  0  0  0  0  0  0  0  0  0  0  0
   -2.3760   23.7590  -28.7370 C   0  0  0  0  0  0  0  0  0  0  0  0
   -3.6360   23.9870  -28.2040 C   0  0  0  0  0  0  0  0  0  0  0  0
   -4.8960   23.6020  -28.7750 N   0  0  0  0  0  0  0  0  0  0  0  0
   -5.1990   23.7340  -30.1720 C   0  0  0  0  0  0  0  0  0  0  0  0
   -4.5600   24.5660  -30.8730 O   0  0  0  0  0  0  0  0  0  0  0  0
   -6.2900   22.9430  -30.7910 C   0  0  0  0  0  0  0  0  0  0  0  0
   -7.4710   22.6780  -30.0780 C   0  0  0  0  0  0  0  0  0  0  0  0
   -8.4980   21.9380  -30.6660 C   0  0  0  0  0  0  0  0  0  0  0  0
   -8.3420   21.4710  -31.9710 C   0  0  0  0  0  0  0  0  0  0  0  0
   -7.2020   21.7420  -32.6580 N   0  0  0  0  0  0  0  0  0  0  0  0
   -6.1860   22.4590  -32.1080 C   0  0  0  0  0  0  0  0  0  0  0  0
   -3.4110   24.7720  -27.0890 C   0  0  0  0  0  0  0  0  0  0  0  0
   -4.2930   25.2450  -26.3230 O   0  0  0  0  0  0  0  0  0  0  0  0
   -2.0870   24.9880  -26.9510 N   0  0  0  0  0  0  0  0  0  0  0  0
   -1.4610   25.7400  -25.8960 C   0  0  0  0  0  0  0  0  0  0  0  0
   -1.0870   25.1070  -24.7000 C   0  0  0  0  0  0  0  0  0  0  0  0
   -0.4890   25.8410  -23.6710 C   0  0  0  0  0  0  0  0  0  0  0  0
   -0.2670   27.2130  -23.8270 C   0  0  0  0  0  0  0  0  0  0  0  0
   -0.6450   27.8520  -25.0120 C   0  0  0  0  0  0  0  0  0  0  0  0
   -1.2440   27.1190  -26.0430 C   0  0  0  0  0  0  0  0  0  0  0  0
   -1.4580   24.3930  -27.9650 N   0  0  0  0  0  0  0  0  0  0  0  0
   -0.0140   24.4400  -28.2100 C   0  0  0  0  0  0  0  0  0  0  0  0
   -1.6718   22.0158  -29.7508 H   0  0  0  0  0  0  0  0  0  0  0  0
   -2.9953   22.8943  -30.5893 H   0  0  0  0  0  0  0  0  0  0  0  0
   -1.3298   23.5671  -30.5893 H   0  0  0  0  0  0  0  0  0  0  0  0
   -5.6540   23.2950  -28.1260 H   0  0  0  0  0  0  0  0  0  0  0  0
   -7.5869   23.0555  -29.0513 H   0  0  0  0  0  0  0  0  0  0  0  0
   -9.4207   21.7253  -30.1061 H   0  0  0  0  0  0  0  0  0  0  0  0
   -9.1424   20.8831  -32.4440 H   0  0  0  0  0  0  0  0  0  0  0  0
   -5.2784   22.6616  -32.6955 H   0  0  0  0  0  0  0  0  0  0  0  0
   -1.2651   24.0291  -24.5719 H   0  0  0  0  0  0  0  0  0  0  0  0
   -0.1929   25.3389  -22.7381 H   0  0  0  0  0  0  0  0  0  0  0  0
    0.2049   27.7894  -23.0176 H   0  0  0  0  0  0  0  0  0  0  0  0
   -0.4715   28.9314  -25.1340 H   0  0  0  0  0  0  0  0  0  0  0  0
   -1.5458   27.6254  -26.9717 H   0  0  0  0  0  0  0  0  0  0  0  0
    0.5206   24.4574  -27.2488 H   0  0  0  0  0  0  0  0  0  0  0  0
    0.2899   23.5513  -28.7825 H   0  0  0  0  0  0  0  0  0  0  0  0
    0.2314   25.3466  -28.7825 H   0  0  0  0  0  0  0  0  0  0  0  0
  1  2  1  0
  2  3  2  0
  3  4  1  0
  4  5  1  0
  5  6  2  0
  5  7  1  0
  7  8  2  0
  8  9  1  0
  9 10  2  0
 10 11  1  0
 11 12  2  0
  3 13  1  0
 13 14  2  0
 13 15  1  0
 15 16  1  0
 16 17  2  0
 17 18  1  0
 18 19  2  0
 19 20  1  0
 20 21  2  0
 15 22  1  0
 22 23  1  0
 22  2  1  0
 12  7  1  0
 21 16  1  0
  1 24  1  0
  1 25  1  0
  1 26  1  0
  4 27  1  0
  8 28  1  0
  9 29  1  0
 10 30  1  0
 12 31  1  0
 17 32  1  0
 18 33  1  0
 19 34  1  0
 20 35  1  0
 21 36  1  0
 23 37  1  0
 23 38  1  0
 23 39  1  0
M  END
>  <UniqueID>  (3) 
3

>  <SMILES>  (3) 
Cc1c(NC(=O)c2cccnc2)c(=O)n(-c2ccccc2)n1C

>  <Energy>  (3) 
88.24530691129509

>  <Genealogy>  (3) 
Cc1c(NC(=O)c2cccnc2)c(=O)n(-c2ccccc2)n1C (3D coordinates assigned)
Cc1c(NC(=O)c2cccnc2)c(=O)n(-c2ccccc2)n1C (optimized conformer: 88.24530691129509 kcal/mol)

>  <smiles>  (3) 
Cc1c(NC(=O)c2cccnc2)c(=O)n(-c2ccccc2)n1C

>  <score_type>  (3) 
oracle

>  <origin>  (3) 
adgpu

>  <m_score__min__energy>  (3) 
-7.6200000000000001

>  <m_primary>  (3) 
energy

$$$$
3:0
     RDKit          3D

 41 43  0  0  0  0  0  0  0  0999 V2000
   -2.7690   25.0430  -27.5610 O   0  0  0  0  0  0  0  0  0  0  0  0
   -2.2870   24.7370  -28.9520 S   0  0  0  0  0  0  0  0  0  0  0  0
   -1.0200   25.5050  -29.2070 O   0  0  0  0  0  0  0  0  0  0  0  0
   -3.4930   25.2290  -30.0960 N   0  0  0  0  0  0  0  0  0  0  0  0
   -4.6680   24.4770  -30.4270 C   0  0  0  0  0  0  0  0  0  0  0  0
   -5.8830   24.8370  -29.8360 C   0  0  0  0  0  0  0  0  0  0  0  0
   -7.0570   24.1430  -30.1450 C   0  0  0  0  0  0  0  0  0  0  0  0
   -7.0270   23.0800  -31.0570 C   0  0  0  0  0  0  0  0  0  0  0  0
   -8.5080   22.2120  -31.4500 S   0  0  0  0  0  0  0  0  0  0  0  0
   -9.3570   23.0770  -32.3410 O   0  0  0  0  0  0  0  0  0  0  0  0
   -9.2680   21.9090  -30.1860 O   0  0  0  0  0  0  0  0  0  0  0  0
   -8.1180   20.7240  -32.2810 N   0  0  0  0  0  0  0  0  0  0  0  0
   -7.0420   19.9930  -31.6050 C   0  0  0  0  0  0  0  0  0  0  0  0
   -7.2880   18.5100  -31.8550 C   0  0  0  0  0  0  0  0  0  0  0  0
   -8.6880   18.4190  -32.4380 C   0  0  0  0  0  0  0  0  0  0  0  0
   -9.2630   19.8160  -32.2960 C   0  0  0  0  0  0  0  0  0  0  0  0
   -5.8110   22.7070  -31.6430 C   0  0  0  0  0  0  0  0  0  0  0  0
   -4.6380   23.4000  -31.3330 C   0  0  0  0  0  0  0  0  0  0  0  0
   -1.9580   23.0190  -29.1420 C   0  0  0  0  0  0  0  0  0  0  0  0
   -2.6020   22.0940  -28.3090 C   0  0  0  0  0  0  0  0  0  0  0  0
   -2.3190   20.7280  -28.4220 C   0  0  0  0  0  0  0  0  0  0  0  0
   -1.3940   20.2820  -29.3710 C   0  0  0  0  0  0  0  0  0  0  0  0
   -0.7510   21.2010  -30.2090 C   0  0  0  0  0  0  0  0  0  0  0  0
    0.1470   20.7680  -31.1260 F   0  0  0  0  0  0  0  0  0  0  0  0
   -1.0330   22.5670  -30.0950 C   0  0  0  0  0  0  0  0  0  0  0  0
   -5.9156   25.6732  -29.1220 H   0  0  0  0  0  0  0  0  0  0  0  0
   -8.0064   24.4324  -29.6708 H   0  0  0  0  0  0  0  0  0  0  0  0
   -6.0663   20.2893  -32.0177 H   0  0  0  0  0  0  0  0  0  0  0  0
   -7.0329   20.2140  -30.5275 H   0  0  0  0  0  0  0  0  0  0  0  0
   -6.5493   18.1132  -32.5670 H   0  0  0  0  0  0  0  0  0  0  0  0
   -7.1936   17.9210  -30.9308 H   0  0  0  0  0  0  0  0  0  0  0  0
   -8.6476   18.1231  -33.4967 H   0  0  0  0  0  0  0  0  0  0  0  0
   -9.3019   17.6648  -31.9238 H   0  0  0  0  0  0  0  0  0  0  0  0
   -9.9220   20.0462  -33.1461 H   0  0  0  0  0  0  0  0  0  0  0  0
   -9.8653   19.9124  -31.3806 H   0  0  0  0  0  0  0  0  0  0  0  0
   -5.7792   21.8651  -32.3502 H   0  0  0  0  0  0  0  0  0  0  0  0
   -3.6869   23.1027  -31.7989 H   0  0  0  0  0  0  0  0  0  0  0  0
   -3.3323   22.4428  -27.5640 H   0  0  0  0  0  0  0  0  0  0  0  0
   -2.8242   20.0053  -27.7643 H   0  0  0  0  0  0  0  0  0  0  0  0
   -1.1713   19.2084  -29.4592 H   0  0  0  0  0  0  0  0  0  0  0  0
   -0.5280   23.2882  -30.7544 H   0  0  0  0  0  0  0  0  0  0  0  0
  1  2  2  0
  2  3  2  0
  2  4  1  0
  4  5  1  0
  5  6  2  0
  6  7  1  0
  7  8  2  0
  8  9  1  0
  9 10  2  0
  9 11  2  0
  9 12  1  0
 12 13  1  0
 13 14  1  0
 14 15  1  0
 15 16  1  0
  8 17  1  0
 17 18  2  0
  2 19  1  0
 19 20  2  0
 20 21  1  0
 21 22  2  0
 22 23  1  0
 23 24  1  0
 23 25  2  0
 18  5  1  0
 25 19  1  0
 16 12  1  0
  6 26  1  0
  7 27  1  0
 13 28  1  0
 13 29  1  0
 14 30  1  0
 14 31  1  0
 15 32  1  0
 15 33  1  0
 16 34  1  0
 16 35  1  0
 17 36  1  0
 18 37  1  0
 20 38  1  0
 21 39  1  0
 22 40  1  0
 25 41  1  0
M  CHG  1   4  -1
M  END
>  <UniqueID>  (4) 
4

>  <SMILES>  (4) 
O=S(=O)([N-]c1ccc(S(=O)(=O)N2CCCC2)cc1)c1cccc(F)c1

>  <Energy>  (4) 
46.116446196837515

>  <Genealogy>  (4) 
O=S(=O)([N-]c1ccc(S(=O)(=O)N2CCCC2)cc1)c1cccc(F)c1 (protonated)
O=S(=O)([N-]c1ccc(S(=O)(=O)N2CCCC2)cc1)c1cccc(F)c1 (3D coordinates assigned)
O=S(=O)([N-]c1ccc(S(=O)(=O)N2CCCC2)cc1)c1cccc(F)c1 (nonaromatic ring conformer: 46.116446196837515 kcal/mol)

>  <smiles>  (4) 
O=S(=O)(Nc1ccc(S(=O)(=O)N2CCCC2)cc1)c1cccc(F)c1

>  <score_type>  (4) 
oracle

>  <origin>  (4) 
adgpu

>  <m_score__min__energy>  (4) 
-10.65

>  <m_primary>  (4) 
energy

$$$$
4:0
     RDKit          3D

 44 46  0  0  0  0  0  0  0  0999 V2000
   -8.8180   19.1600  -31.0210 O   0  0  0  0  0  0  0  0  0  0  0  0
   -8.4720   19.7250  -32.0490 C   0  0  0  0  0  0  0  0  0  0  0  0
   -8.9600   21.1290  -32.2990 C   0  0  0  0  0  0  0  0  0  0  0  0
   -8.0170   22.1190  -31.6760 C   0  0  0  0  0  0  0  0  0  0  0  0
   -7.4190   23.1190  -32.4600 C   0  0  0  0  0  0  0  0  0  0  0  0
   -6.5750   24.0640  -31.8700 C   0  0  0  0  0  0  0  0  0  0  0  0
   -6.3250   24.0210  -30.4960 C   0  0  0  0  0  0  0  0  0  0  0  0
   -6.9220   23.0330  -29.7080 C   0  0  0  0  0  0  0  0  0  0  0  0
   -7.7700   22.0870  -30.2930 C   0  0  0  0  0  0  0  0  0  0  0  0
   -7.6070   19.0510  -33.0040 N   0  0  0  0  0  0  0  0  0  0  0  0
   -6.7300   18.0680  -32.3250 C   0  0  0  0  0  0  0  0  0  0  0  0
   -5.6500   18.7410  -31.4590 C   0  0  0  0  0  0  0  0  0  0  0  0
   -5.1420   19.9560  -32.1010 N   0  0  0  0  0  0  0  0  0  0  0  0
   -4.3190   20.8640  -31.3460 C   0  0  0  0  0  0  0  0  0  0  0  0
   -3.6380   20.4390  -30.1950 C   0  0  0  0  0  0  0  0  0  0  0  0
   -2.8310   21.3400  -29.5000 C   0  0  0  0  0  0  0  0  0  0  0  0
   -2.7080   22.6660  -29.9440 C   0  0  0  0  0  0  0  0  0  0  0  0
   -1.8030   23.6430  -29.2380 C   0  0  0  0  0  0  0  0  0  0  0  0
   -0.5020   23.5360  -29.6990 F   0  0  0  0  0  0  0  0  0  0  0  0
   -1.8020   23.3960  -27.8750 F   0  0  0  0  0  0  0  0  0  0  0  0
   -2.2560   24.9290  -29.4620 F   0  0  0  0  0  0  0  0  0  0  0  0
   -3.3720   23.0390  -31.1230 C   0  0  0  0  0  0  0  0  0  0  0  0
   -4.1510   22.1430  -31.7830 N   0  0  0  0  0  0  0  0  0  0  0  0
   -5.3690   20.1320  -33.5390 C   0  0  0  0  0  0  0  0  0  0  0  0
   -6.8700   20.0270  -33.8590 C   0  0  0  0  0  0  0  0  0  0  0  0
   -9.0130   21.3087  -33.3829 H   0  0  0  0  0  0  0  0  0  0  0  0
   -9.9577   21.2497  -31.8517 H   0  0  0  0  0  0  0  0  0  0  0  0
   -7.6154   23.1586  -33.5416 H   0  0  0  0  0  0  0  0  0  0  0  0
   -6.1065   24.8434  -32.4888 H   0  0  0  0  0  0  0  0  0  0  0  0
   -5.6585   24.7645  -30.0346 H   0  0  0  0  0  0  0  0  0  0  0  0
   -6.7247   22.9994  -28.6264 H   0  0  0  0  0  0  0  0  0  0  0  0
   -8.2449   21.3158  -29.6687 H   0  0  0  0  0  0  0  0  0  0  0  0
   -8.2180   18.4900  -33.6450 H   0  0  0  0  0  0  0  0  0  0  0  0
   -7.3504   17.4277  -31.6807 H   0  0  0  0  0  0  0  0  0  0  0  0
   -6.2179   17.4833  -33.1034 H   0  0  0  0  0  0  0  0  0  0  0  0
   -6.0843   19.0047  -30.4834 H   0  0  0  0  0  0  0  0  0  0  0  0
   -4.8145   18.0369  -31.3321 H   0  0  0  0  0  0  0  0  0  0  0  0
   -3.7399   19.4018  -29.8430 H   0  0  0  0  0  0  0  0  0  0  0  0
   -2.2893   21.0103  -28.6012 H   0  0  0  0  0  0  0  0  0  0  0  0
   -3.2611   24.0611  -31.5142 H   0  0  0  0  0  0  0  0  0  0  0  0
   -5.0008   21.1220  -33.8460 H   0  0  0  0  0  0  0  0  0  0  0  0
   -4.8305   19.3437  -34.0855 H   0  0  0  0  0  0  0  0  0  0  0  0
   -7.3233   21.0196  -33.7201 H   0  0  0  0  0  0  0  0  0  0  0  0
   -6.9496   19.6656  -34.8949 H   0  0  0  0  0  0  0  0  0  0  0  0
  1  2  2  0
  2  3  1  0
  3  4  1  0
  4  5  2  0
  5  6  1  0
  6  7  2  0
  7  8  1  0
  8  9  2  0
  2 10  1  0
 10 11  1  0
 11 12  1  0
 12 13  1  0
 13 14  1  0
 14 15  2  0
 15 16  1  0
 16 17  2  0
 17 18  1  0
 18 19  1  0
 18 20  1  0
 18 21  1  0
 17 22  1  0
 22 23  2  0
 13 24  1  0
 24 25  1  0
  9  4  1  0
 25 10  1  0
 23 14  1  0
  3 26  1  0
  3 27  1  0
  5 28  1  0
  6 29  1  0
  7 30  1  0
  8 31  1  0
  9 32  1  0
 10 33  1  0
 11 34  1  0
 11 35  1  0
 12 36  1  0
 12 37  1  0
 15 38  1  0
 16 39  1  0
 22 40  1  0
 24 41  1  0
 24 42  1  0
 25 43  1  0
 25 44  1  0
M  CHG  1  10   1
M  END
>  <UniqueID>  (5) 
5

>  <SMILES>  (5) 
O=C(Cc1ccccc1)[NH+]1CCN(c2ccc(C(F)(F)F)cn2)CC1

>  <Energy>  (5) 
56.3877142199754

>  <Genealogy>  (5) 
O=C(Cc1ccccc1)[NH+]1CCN(c2ccc(C(F)(F)F)cn2)CC1 (protonated)
O=C(Cc1ccccc1)[NH+]1CCN(c2ccc(C(F)(F)F)cn2)CC1 (3D coordinates assigned)
O=C(Cc1ccccc1)[NH+]1CCN(c2ccc(C(F)(F)F)cn2)CC1 (nonaromatic ring conformer: 56.3877142199754 kcal/mol)

>  <smiles>  (5) 
O=C(Cc1ccccc1)N1CCN(c2ccc(C(F)(F)F)cn2)CC1

>  <score_type>  (5) 
oracle

>  <origin>  (5) 
adgpu

>  <m_score__min__energy>  (5) 
-6.8099999999999996

>  <m_primary>  (5) 
energy

$$$$
5:0
     RDKit          3D

 44 46  0  0  0  0  0  0  0  0999 V2000
    0.3690   25.0790  -27.3460 C   0  0  0  0  0  0  0  0  0  0  0  0
   -0.9260   24.9110  -28.0690 C   0  0  0  0  0  0  0  0  0  0  0  0
   -1.4050   25.7870  -28.9770 N   0  0  0  0  0  0  0  0  0  0  0  0
   -2.5250   25.2940  -29.4270 O   0  0  0  0  0  0  0  0  0  0  0  0
   -2.7850   24.1410  -28.8560 C   0  0  0  0  0  0  0  0  0  0  0  0
   -3.8280   23.4110  -29.0980 N   0  0  0  0  0  0  0  0  0  0  0  0
   -5.0530   23.8800  -30.2300 S   0  0  0  0  0  0  0  0  0  0  0  0
   -4.6400   25.1680  -30.8860 O   0  0  0  0  0  0  0  0  0  0  0  0
   -6.3380   24.1340  -29.4940 O   0  0  0  0  0  0  0  0  0  0  0  0
   -5.2120   22.6270  -31.4800 C   0  0  0  0  0  0  0  0  0  0  0  0
   -6.4590   22.0530  -31.8320 C   0  0  0  0  0  0  0  0  0  0  0  0
   -7.9790   22.5050  -31.0710 Cl  0  0  0  0  0  0  0  0  0  0  0  0
   -6.5150   21.0660  -32.8220 C   0  0  0  0  0  0  0  0  0  0  0  0
   -5.3560   20.6270  -33.4550 C   0  0  0  0  0  0  0  0  0  0  0  0
   -4.1080   21.1550  -33.0950 C   0  0  0  0  0  0  0  0  0  0  0  0
   -2.9060   20.7180  -33.7540 N   0  0  0  0  0  0  0  0  0  0  0  0
   -2.3760   19.3890  -33.6530 C   0  0  0  0  0  0  0  0  0  0  0  0
   -2.8830   18.5580  -32.8530 O   0  0  0  0  0  0  0  0  0  0  0  0
   -1.2670   19.0170  -34.4800 N   0  0  0  0  0  0  0  0  0  0  0  0
   -0.2420   19.8870  -34.9820 C   0  0  0  0  0  0  0  0  0  0  0  0
    0.0860   21.0320  -34.2450 C   0  0  0  0  0  0  0  0  0  0  0  0
    1.0950   21.8950  -34.6860 C   0  0  0  0  0  0  0  0  0  0  0  0
    1.8040   21.6080  -35.8600 C   0  0  0  0  0  0  0  0  0  0  0  0
    3.0680   22.6970  -36.4220 S   0  0  0  0  0  0  0  0  0  0  0  0
    4.0330   21.8980  -37.6130 N   0  0  0  0  0  0  0  0  0  0  0  0
    3.9390   23.1030  -35.2650 O   0  0  0  0  0  0  0  0  0  0  0  0
    2.4540   23.9310  -37.0190 O   0  0  0  0  0  0  0  0  0  0  0  0
    1.4910   20.4550  -36.5910 C   0  0  0  0  0  0  0  0  0  0  0  0
    0.4820   19.5930  -36.1520 C   0  0  0  0  0  0  0  0  0  0  0  0
   -4.0420   22.1600  -32.1150 C   0  0  0  0  0  0  0  0  0  0  0  0
   -2.8010   22.6810  -31.7580 O   0  0  0  0  0  0  0  0  0  0  0  0
   -1.7830   23.8330  -27.9680 C   0  0  0  0  0  0  0  0  0  0  0  0
   -1.6290   22.4060  -26.9600 Cl  0  0  0  0  0  0  0  0  0  0  0  0
    0.1889   25.0556  -26.2611 H   0  0  0  0  0  0  0  0  0  0  0  0
    1.0518   24.2619  -27.6221 H   0  0  0  0  0  0  0  0  0  0  0  0
    0.8207   26.0433  -27.6221 H   0  0  0  0  0  0  0  0  0  0  0  0
   -7.4859   20.6322  -33.1032 H   0  0  0  0  0  0  0  0  0  0  0  0
   -5.4194   19.8614  -34.2423 H   0  0  0  0  0  0  0  0  0  0  0  0
   -2.3340   21.4260  -34.2680 H   0  0  0  0  0  0  0  0  0  0  0  0
   -0.4537   21.2543  -33.3126 H   0  0  0  0  0  0  0  0  0  0  0  0
    1.3324   22.8013  -34.1095 H   0  0  0  0  0  0  0  0  0  0  0  0
    4.3900   22.6360  -38.2590 H   0  0  0  0  0  0  0  0  0  0  0  0
    2.0420   20.2267  -37.5153 H   0  0  0  0  0  0  0  0  0  0  0  0
    0.2531   18.6814  -36.7234 H   0  0  0  0  0  0  0  0  0  0  0  0
  1  2  1  0
  2  3  1  0
  3  4  1  0
  4  5  1  0
  5  6  2  3
  6  7  1  0
  7  8  2  0
  7  9  2  0
  7 10  1  0
 10 11  2  0
 11 12  1  0
 11 13  1  0
 13 14  2  0
 14 15  1  0
 15 16  1  0
 16 17  1  0
 17 18  2  0
 17 19  1  0
 19 20  1  0
 20 21  2  0
 21 22  1  0
 22 23  2  0
 23 24  1  0
 24 25  1  0
 24 26  2  0
 24 27  2  0
 23 28  1  0
 28 29  2  0
 15 30  2  0
 30 31  1  0
  5 32  1  0
 32 33  1  0
 32  2  2  0
 30 10  1  0
 29 20  1  0
  1 34  1  0
  1 35  1  0
  1 36  1  0
 13 37  1  0
 14 38  1  0
 16 39  1  0
 21 40  1  0
 22 41  1  0
 25 42  1  0
 28 43  1  0
 29 44  1  0
M  CHG  4   3  -1  19  -1  25  -1  31  -1
M  END
>  <UniqueID>  (6) 
6

>  <SMILES>  (6) 
Cc1[n-]oc(=NS(=O)(=O)c2c(Cl)ccc(NC(=O)[N-]c3ccc(S([NH-])(=O)=O)cc3)c2[O-])c1Cl

>  <Energy>  (6) 
91.73800220991248

>  <Genealogy>  (6) 
Cc1[n-]oc(=NS(=O)(=O)c2c(Cl)ccc(NC(=O)[N-]c3ccc(S([NH-])(=O)=O)cc3)c2[O-])c1Cl (protonated)
Cc1[n-]oc(=NS(=O)(=O)c2c(Cl)ccc(NC(=O)[N-]c3ccc(S([NH-])(=O)=O)cc3)c2[O-])c1Cl (3D coordinates assigned)
Cc1[n-]oc(=NS(=O)(=O)c2c(Cl)ccc(NC(=O)[N-]c3ccc(S([NH-])(=O)=O)cc3)c2[O-])c1Cl (optimized conformer: 91.73800220991248 kcal/mol)

>  <smiles>  (6) 
Cc1[nH]oc(=NS(=O)(=O)c2c(Cl)ccc(NC(=O)Nc3ccc(S(N)(=O)=O)cc3)c2O)c1Cl

>  <score_type>  (6) 
oracle

>  <origin>  (6) 
adgpu

>  <m_score__min__energy>  (6) 
-14.220000000000001

>  <m_primary>  (6) 
energy

$$$$
6:0
     RDKit          3D

 41 42  0  0  0  0  0  0  0  0999 V2000
   -9.4190   21.0530  -31.6360 C   0  0  0  0  0  0  0  0  0  0  0  0
   -8.3850   20.0770  -32.1120 C   0  0  0  0  0  0  0  0  0  0  0  0
   -8.2900   18.8040  -31.5280 C   0  0  0  0  0  0  0  0  0  0  0  0
   -7.3040   17.9070  -31.9460 C   0  0  0  0  0  0  0  0  0  0  0  0
   -6.3830   18.2790  -32.9380 C   0  0  0  0  0  0  0  0  0  0  0  0
   -5.3480   17.3000  -33.4110 C   0  0  0  0  0  0  0  0  0  0  0  0
   -4.1950   18.1450  -34.5450 S   0  0  0  0  0  0  0  0  0  0  0  0
   -3.1300   18.8690  -33.2450 C   0  0  0  0  0  0  0  0  0  0  0  0
   -2.3380   20.0710  -33.7610 C   0  0  0  0  0  0  0  0  0  0  0  0
   -3.0010   21.3280  -33.3690 N   0  0  0  0  0  0  0  0  0  0  0  0
   -3.9700   21.1510  -32.2760 C   0  0  0  0  0  0  0  0  0  0  0  0
   -4.4390   22.4730  -31.7120 C   0  0  0  0  0  0  0  0  0  0  0  0
   -5.7610   22.8970  -31.9140 C   0  0  0  0  0  0  0  0  0  0  0  0
   -6.2000   24.1140  -31.3850 C   0  0  0  0  0  0  0  0  0  0  0  0
   -5.3250   24.9210  -30.6500 C   0  0  0  0  0  0  0  0  0  0  0  0
   -5.7880   26.1310  -30.1330 O   0  0  0  0  0  0  0  0  0  0  0  0
   -3.9990   24.5030  -30.4460 C   0  0  0  0  0  0  0  0  0  0  0  0
   -3.1140   25.2910  -29.7180 O   0  0  0  0  0  0  0  0  0  0  0  0
   -3.5610   23.2850  -30.9760 C   0  0  0  0  0  0  0  0  0  0  0  0
   -6.4740   19.5520  -33.5200 C   0  0  0  0  0  0  0  0  0  0  0  0
   -7.4610   20.4500  -33.1010 C   0  0  0  0  0  0  0  0  0  0  0  0
   -9.4324   21.0657  -30.5362 H   0  0  0  0  0  0  0  0  0  0  0  0
   -9.1751   22.0578  -32.0113 H   0  0  0  0  0  0  0  0  0  0  0  0
  -10.4081   20.7515  -32.0113 H   0  0  0  0  0  0  0  0  0  0  0  0
   -8.9959   18.5112  -30.7368 H   0  0  0  0  0  0  0  0  0  0  0  0
   -7.2490   16.9048  -31.4959 H   0  0  0  0  0  0  0  0  0  0  0  0
   -4.7920   16.9066  -32.5472 H   0  0  0  0  0  0  0  0  0  0  0  0
   -5.8397   16.4682  -33.9368 H   0  0  0  0  0  0  0  0  0  0  0  0
   -3.7634   19.1939  -32.4064 H   0  0  0  0  0  0  0  0  0  0  0  0
   -2.4121   18.0996  -32.9247 H   0  0  0  0  0  0  0  0  0  0  0  0
   -1.3242   20.0474  -33.3348 H   0  0  0  0  0  0  0  0  0  0  0  0
   -2.2870   20.0210  -34.8587 H   0  0  0  0  0  0  0  0  0  0  0  0
   -3.4840   21.7450  -34.2000 H   0  0  0  0  0  0  0  0  0  0  0  0
   -4.8412   20.6002  -32.6601 H   0  0  0  0  0  0  0  0  0  0  0  0
   -3.4713   20.5958  -31.4679 H   0  0  0  0  0  0  0  0  0  0  0  0
   -6.4552   22.2688  -32.4914 H   0  0  0  0  0  0  0  0  0  0  0  0
   -7.2384   24.4387  -31.5474 H   0  0  0  0  0  0  0  0  0  0  0  0
   -5.3460   26.5800  -29.3390 H   0  0  0  0  0  0  0  0  0  0  0  0
   -2.5221   22.9611  -30.8153 H   0  0  0  0  0  0  0  0  0  0  0  0
   -5.7661   19.8453  -34.3093 H   0  0  0  0  0  0  0  0  0  0  0  0
   -7.5136   21.4535  -33.5486 H   0  0  0  0  0  0  0  0  0  0  0  0
  1  2  1  0
  2  3  2  0
  3  4  1  0
  4  5  2  0
  5  6  1  0
  6  7  1  0
  7  8  1  0
  8  9  1  0
  9 10  1  0
 10 11  1  0
 11 12  1  0
 12 13  2  0
 13 14  1  0
 14 15  2  0
 15 16  1  0
 15 17  1  0
 17 18  1  0
 17 19  2  0
  5 20  1  0
 20 21  2  0
 21  2  1  0
 19 12  1  0
  1 22  1  0
  1 23  1  0
  1 24  1  0
  3 25  1  0
  4 26  1  0
  6 27  1  0
  6 28  1  0
  8 29  1  0
  8 30  1  0
  9 31  1  0
  9 32  1  0
 10 33  1  0
 11 34  1  0
 11 35  1  0
 13 36  1  0
 14 37  1  0
 16 38  1  0
 19 39  1  0
 20 40  1  0
 21 41  1  0
M  CHG  1  18  -1
M  END
>  <UniqueID>  (7) 
7

>  <SMILES>  (7) 
Cc1ccc(CSCCNCc2ccc(O)c([O-])c2)cc1

>  <Energy>  (7) 
35.795802820750836

>  <Genealogy>  (7) 
Cc1ccc(CSCCNCc2ccc(O)c([O-])c2)cc1 (protonated)
Cc1ccc(CSCCNCc2ccc(O)c([O-])c2)cc1 (3D coordinates assigned)
Cc1ccc(CSCCNCc2ccc(O)c([O-])c2)cc1 (optimized conformer: 35.795802820750836 kcal/mol)

>  <smiles>  (7) 
Cc1ccc(CSCCNCc2ccc(O)c(O)c2)cc1

>  <score_type>  (7) 
oracle

>  <origin>  (7) 
adgpu

>  <m_score__min__energy>  (7) 
-10.789999999999999

>  <m_primary>  (7) 
energy

$$$$
7:0
     RDKit          3D

 45 47  0  0  0  0  0  0  0  0999 V2000
   -4.0050   14.2490  -32.4840 C   0  0  0  0  0  0  0  0  0  0  0  0
   -4.9840   15.1320  -31.9480 O   0  0  0  0  0  0  0  0  0  0  0  0
   -5.0640   16.4790  -32.3080 C   0  0  0  0  0  0  0  0  0  0  0  0
   -4.1680   17.0240  -33.1750 N   0  0  0  0  0  0  0  0  0  0  0  0
   -4.2560   18.3360  -33.5170 C   0  0  0  0  0  0  0  0  0  0  0  0
   -3.3460   18.9090  -34.4080 O   0  0  0  0  0  0  0  0  0  0  0  0
   -2.3790   19.8720  -34.0060 C   0  0  0  0  0  0  0  0  0  0  0  0
   -5.2420   19.1020  -32.9880 N   0  0  0  0  0  0  0  0  0  0  0  0
   -6.1430   18.5640  -32.1230 C   0  0  0  0  0  0  0  0  0  0  0  0
   -7.0950   19.2850  -31.6160 N   0  0  0  0  0  0  0  0  0  0  0  0
   -7.3260   20.9660  -31.9740 S   0  0  0  0  0  0  0  0  0  0  0  0
   -7.1690   21.1840  -33.4530 O   0  0  0  0  0  0  0  0  0  0  0  0
   -8.7170   21.3760  -31.5740 O   0  0  0  0  0  0  0  0  0  0  0  0
   -6.1210   21.9270  -31.1240 C   0  0  0  0  0  0  0  0  0  0  0  0
   -6.4920   23.1430  -30.5360 C   0  0  0  0  0  0  0  0  0  0  0  0
   -5.5390   23.9280  -29.8790 C   0  0  0  0  0  0  0  0  0  0  0  0
   -4.2030   23.4990  -29.7930 C   0  0  0  0  0  0  0  0  0  0  0  0
   -3.1970   24.2990  -29.1490 N   0  0  0  0  0  0  0  0  0  0  0  0
   -3.1150   24.5000  -27.7270 C   0  0  0  0  0  0  0  0  0  0  0  0
   -3.9440   23.9450  -26.9550 O   0  0  0  0  0  0  0  0  0  0  0  0
   -2.0660   25.3650  -27.1440 C   0  0  0  0  0  0  0  0  0  0  0  0
   -1.9180   25.4160  -25.7470 C   0  0  0  0  0  0  0  0  0  0  0  0
   -0.9420   26.2310  -25.1670 C   0  0  0  0  0  0  0  0  0  0  0  0
   -0.0960   26.9940  -25.9760 C   0  0  0  0  0  0  0  0  0  0  0  0
   -0.2190   26.9350  -27.3660 C   0  0  0  0  0  0  0  0  0  0  0  0
   -1.1900   26.1180  -27.9550 C   0  0  0  0  0  0  0  0  0  0  0  0
   -1.2530   26.0390  -29.3430 O   0  0  0  0  0  0  0  0  0  0  0  0
   -3.8310   22.2950  -30.4080 C   0  0  0  0  0  0  0  0  0  0  0  0
   -4.7850   21.5100  -31.0630 C   0  0  0  0  0  0  0  0  0  0  0  0
   -6.0480   17.2530  -31.7860 N   0  0  0  0  0  0  0  0  0  0  0  0
   -3.4627   13.7599  -31.6614 H   0  0  0  0  0  0  0  0  0  0  0  0
   -4.4993   13.4854  -33.1025 H   0  0  0  0  0  0  0  0  0  0  0  0
   -3.2962   14.8192  -33.1025 H   0  0  0  0  0  0  0  0  0  0  0  0
   -2.3374   19.9134  -32.9076 H   0  0  0  0  0  0  0  0  0  0  0  0
   -1.3922   19.5872  -34.3998 H   0  0  0  0  0  0  0  0  0  0  0  0
   -2.6597   20.8600  -34.3998 H   0  0  0  0  0  0  0  0  0  0  0  0
   -7.5370   23.4819  -30.5912 H   0  0  0  0  0  0  0  0  0  0  0  0
   -5.8363   24.8859  -29.4273 H   0  0  0  0  0  0  0  0  0  0  0  0
   -2.4570   24.7150  -29.7580 H   0  0  0  0  0  0  0  0  0  0  0  0
   -2.5751   24.8101  -25.1058 H   0  0  0  0  0  0  0  0  0  0  0  0
   -0.8397   26.2718  -24.0725 H   0  0  0  0  0  0  0  0  0  0  0  0
    0.6668   27.6410  -25.5182 H   0  0  0  0  0  0  0  0  0  0  0  0
    0.4508   27.5338  -28.0007 H   0  0  0  0  0  0  0  0  0  0  0  0
   -2.7819   21.9659  -30.3750 H   0  0  0  0  0  0  0  0  0  0  0  0
   -4.4852   20.5613  -31.5322 H   0  0  0  0  0  0  0  0  0  0  0  0
  1  2  1  0
  2  3  1  0
  3  4  1  0
  4  5  2  0
  5  6  1  0
  6  7  1  0
  5  8  1  0
  8  9  1  0
  9 10  2  3
 10 11  1  0
 11 12  2  0
 11 13  2  0
 11 14  1  0
 14 15  2  0
 15 16  1  0
 16 17  2  0
 17 18  1  0
 18 19  1  0
 19 20  2  0
 19 21  1  0
 21 22  2  0
 22 23  1  0
 23 24  2  0
 24 25  1  0
 25 26  2  0
 26 27  1  0
 17 28  1  0
 28 29  2  0
  9 30  1  0
 30  3  2  0
 29 14  1  0
 26 21  1  0
  1 31  1  0
  1 32  1  0
  1 33  1  0
  7 34  1  0
  7 35  1  0
  7 36  1  0
 15 37  1  0
 16 38  1  0
 18 39  1  0
 22 40  1  0
 23 41  1  0
 24 42  1  0
 25 43  1  0
 28 44  1  0
 29 45  1  0
M  CHG  2   8  -1  27  -1
M  END
>  <UniqueID>  (8) 
8

>  <SMILES>  (8) 
COc1nc(OC)[n-]c(=NS(=O)(=O)c2ccc(NC(=O)c3ccccc3[O-])cc2)n1

>  <Energy>  (8) 
55.836033404392374

>  <Genealogy>  (8) 
COc1nc(OC)[n-]c(=NS(=O)(=O)c2ccc(NC(=O)c3ccccc3[O-])cc2)n1 (protonated)
COc1nc(OC)[n-]c(=NS(=O)(=O)c2ccc(NC(=O)c3ccccc3[O-])cc2)n1 (3D coordinates assigned)
COc1nc(OC)[n-]c(=NS(=O)(=O)c2ccc(NC(=O)c3ccccc3[O-])cc2)n1 (optimized conformer: 55.836033404392374 kcal/mol)

>  <smiles>  (8) 
COc1nc(OC)[nH]c(=NS(=O)(=O)c2ccc(NC(=O)c3ccccc3O)cc2)n1

>  <score_type>  (8) 
oracle

>  <origin>  (8) 
adgpu

>  <m_score__min__energy>  (8) 
-11.33

>  <m_primary>  (8) 
energy

$$$$
8:0
     RDKit          3D

 94 98  0  0  0  0  0  0  0  0999 V2000
  -10.3060   18.9140  -27.6290 C   0  0  0  0  0  0  0  0  0  0  0  0
   -9.8450   19.1980  -29.0290 C   0  0  0  0  0  0  0  0  0  0  0  0
   -9.0810   18.2930  -29.7260 C   0  0  0  0  0  0  0  0  0  0  0  0
   -8.7060   18.6400  -31.0040 C   0  0  0  0  0  0  0  0  0  0  0  0
   -7.8790   17.6730  -31.6880 N   0  0  0  0  0  0  0  0  0  0  0  0
   -6.5000   17.8420  -31.8940 C   0  0  0  0  0  0  0  0  0  0  0  0
   -5.9890   18.9220  -31.4470 O   0  0  0  0  0  0  0  0  0  0  0  0
   -5.6140   16.9170  -32.5630 C   0  0  0  0  0  0  0  0  0  0  0  0
   -4.2350   17.1070  -32.6160 C   0  0  0  0  0  0  0  0  0  0  0  0
   -3.6490   16.0670  -33.3030 C   0  0  0  0  0  0  0  0  0  0  0  0
   -2.3000   15.8110  -33.6400 N   0  0  0  0  0  0  0  0  0  0  0  0
   -1.4440   14.9200  -32.9440 C   0  0  0  0  0  0  0  0  0  0  0  0
   -1.8650   14.2860  -31.9440 O   0  0  0  0  0  0  0  0  0  0  0  0
   -0.0500   14.6820  -33.3250 C   0  0  0  0  0  0  0  0  0  0  0  0
    0.6710   13.7200  -32.6510 C   0  0  0  0  0  0  0  0  0  0  0  0
    1.9950   13.4310  -32.9540 C   0  0  0  0  0  0  0  0  0  0  0  0
    2.6110   14.1370  -33.9730 C   0  0  0  0  0  0  0  0  0  0  0  0
    4.0120   13.9250  -34.3840 C   0  0  0  0  0  0  0  0  0  0  0  0
    4.1850   13.9930  -35.8570 C   0  0  0  0  0  0  0  0  0  0  0  0
    4.3670   12.9580  -36.7650 C   0  0  0  0  0  0  0  0  0  0  0  0
    4.4370   11.5080  -36.4370 C   0  0  0  0  0  0  0  0  0  0  0  0
    4.4700   13.5190  -38.0010 N   0  0  0  0  0  0  0  0  0  0  0  0
    4.3620   14.8410  -37.9010 N   0  0  0  0  0  0  0  0  0  0  0  0
    4.1900   15.1370  -36.6090 C   0  0  0  0  0  0  0  0  0  0  0  0
    4.0490   16.3030  -36.1330 O   0  0  0  0  0  0  0  0  0  0  0  0
    1.9030   15.1200  -34.6740 C   0  0  0  0  0  0  0  0  0  0  0  0
    0.5850   15.3690  -34.3310 C   0  0  0  0  0  0  0  0  0  0  0  0
   -4.6930   15.2480  -33.6610 C   0  0  0  0  0  0  0  0  0  0  0  0
   -5.8620   15.7670  -33.2150 N   0  0  0  0  0  0  0  0  0  0  0  0
   -7.1360   15.1230  -33.4270 C   0  0  0  0  0  0  0  0  0  0  0  0
   -9.0620   19.8350  -31.5950 C   0  0  0  0  0  0  0  0  0  0  0  0
   -9.8280   20.7450  -30.8960 C   0  0  0  0  0  0  0  0  0  0  0  0
  -10.1740   22.0230  -31.5260 C   0  0  0  0  0  0  0  0  0  0  0  0
  -10.5840   22.9230  -30.7510 O   0  0  0  0  0  0  0  0  0  0  0  0
  -10.0710   22.2600  -32.9160 N   0  0  0  0  0  0  0  0  0  0  0  0
  -10.4150   23.4810  -33.5540 C   0  0  0  0  0  0  0  0  0  0  0  0
   -9.6410   24.5480  -33.9340 C   0  0  0  0  0  0  0  0  0  0  0  0
  -10.4200   25.5460  -34.5090 C   0  0  0  0  0  0  0  0  0  0  0  0
   -9.8640   26.7770  -35.0020 C   0  0  0  0  0  0  0  0  0  0  0  0
  -10.1960   27.8460  -34.3930 O   0  0  0  0  0  0  0  0  0  0  0  0
   -8.9860   26.9380  -36.0950 N   0  0  0  0  0  0  0  0  0  0  0  0
   -8.4600   28.2150  -36.5330 C   0  0  0  0  0  0  0  0  0  0  0  0
   -7.4220   28.6830  -35.5400 C   0  0  0  0  0  0  0  0  0  0  0  0
   -8.1160   29.6860  -34.6240 C   0  0  0  0  0  0  0  0  0  0  0  0
   -7.8940   29.2180  -33.2780 N   0  0  0  0  0  0  0  0  0  0  0  0
   -6.9780   30.0160  -32.5330 C   0  0  0  0  0  0  0  0  0  0  0  0
   -9.1520   29.0290  -32.6250 C   0  0  0  0  0  0  0  0  0  0  0  0
  -11.6810   25.0710  -34.4760 N   0  0  0  0  0  0  0  0  0  0  0  0
  -12.8640   25.7390  -34.9770 C   0  0  0  0  0  0  0  0  0  0  0  0
  -11.7030   23.8410  -33.9100 C   0  0  0  0  0  0  0  0  0  0  0  0
  -10.2130   20.4150  -29.6170 C   0  0  0  0  0  0  0  0  0  0  0  0
   -9.5951   19.3520  -26.9129 H   0  0  0  0  0  0  0  0  0  0  0  0
  -11.3015   19.3556  -27.4741 H   0  0  0  0  0  0  0  0  0  0  0  0
  -10.3593   17.8263  -27.4741 H   0  0  0  0  0  0  0  0  0  0  0  0
   -8.7819   17.3323  -29.2815 H   0  0  0  0  0  0  0  0  0  0  0  0
   -8.3610   16.8430  -32.0290 H   0  0  0  0  0  0  0  0  0  0  0  0
   -3.6957   17.9587  -32.1758 H   0  0  0  0  0  0  0  0  0  0  0  0
   -1.8660   16.3040  -34.4670 H   0  0  0  0  0  0  0  0  0  0  0  0
    0.1789   13.1598  -31.8423 H   0  0  0  0  0  0  0  0  0  0  0  0
    2.5428   12.6573  -32.3960 H   0  0  0  0  0  0  0  0  0  0  0  0
    4.6381   14.7003  -33.9184 H   0  0  0  0  0  0  0  0  0  0  0  0
    4.3092   12.9176  -34.0570 H   0  0  0  0  0  0  0  0  0  0  0  0
    4.4432   11.3791  -35.3446 H   0  0  0  0  0  0  0  0  0  0  0  0
    3.5627   10.9933  -36.8620 H   0  0  0  0  0  0  0  0  0  0  0  0
    5.3569   11.0799  -36.8620 H   0  0  0  0  0  0  0  0  0  0  0  0
    4.6150   13.0120  -38.9230 H   0  0  0  0  0  0  0  0  0  0  0  0
    4.4050   15.5220  -38.6990 H   0  0  0  0  0  0  0  0  0  0  0  0
    2.3860   15.6856  -35.4844 H   0  0  0  0  0  0  0  0  0  0  0  0
    0.0284   16.1417  -34.8816 H   0  0  0  0  0  0  0  0  0  0  0  0
   -4.5939   14.3096  -34.2263 H   0  0  0  0  0  0  0  0  0  0  0  0
   -7.5956   14.8907  -32.4550 H   0  0  0  0  0  0  0  0  0  0  0  0
   -7.7969   15.7953  -33.9938 H   0  0  0  0  0  0  0  0  0  0  0  0
   -6.9865   14.1922  -33.9938 H   0  0  0  0  0  0  0  0  0  0  0  0
   -8.7359   20.0615  -32.6208 H   0  0  0  0  0  0  0  0  0  0  0  0
   -9.7120   21.4620  -33.4970 H   0  0  0  0  0  0  0  0  0  0  0  0
   -8.5506   24.6062  -33.8016 H   0  0  0  0  0  0  0  0  0  0  0  0
   -8.6980   26.1010  -36.6340 H   0  0  0  0  0  0  0  0  0  0  0  0
   -7.9981   28.1035  -37.5251 H   0  0  0  0  0  0  0  0  0  0  0  0
   -9.2744   28.9518  -36.5961 H   0  0  0  0  0  0  0  0  0  0  0  0
   -7.0459   27.8312  -34.9543 H   0  0  0  0  0  0  0  0  0  0  0  0
   -6.5624   29.1413  -36.0510 H   0  0  0  0  0  0  0  0  0  0  0  0
   -7.6818   30.6880  -34.7564 H   0  0  0  0  0  0  0  0  0  0  0  0
   -9.1896   29.7621  -34.8512 H   0  0  0  0  0  0  0  0  0  0  0  0
   -7.1511   29.8652  -31.4572 H   0  0  0  0  0  0  0  0  0  0  0  0
   -5.9480   29.7222  -32.7834 H   0  0  0  0  0  0  0  0  0  0  0  0
   -7.1279   31.0766  -32.7834 H   0  0  0  0  0  0  0  0  0  0  0  0
   -9.0062   29.0509  -31.5349 H   0  0  0  0  0  0  0  0  0  0  0  0
   -9.8422   29.8335  -32.9189 H   0  0  0  0  0  0  0  0  0  0  0  0
   -9.5753   28.0572  -32.9189 H   0  0  0  0  0  0  0  0  0  0  0  0
  -13.4760   26.0846  -34.1308 H   0  0  0  0  0  0  0  0  0  0  0  0
  -12.5657   26.6020  -35.5904 H   0  0  0  0  0  0  0  0  0  0  0  0
  -13.4489   25.0379  -35.5904 H   0  0  0  0  0  0  0  0  0  0  0  0
  -12.6019   23.2257  -33.7574 H   0  0  0  0  0  0  0  0  0  0  0  0
  -10.8253   21.1249  -29.0416 H   0  0  0  0  0  0  0  0  0  0  0  0
  1  2  1  0
  2  3  2  0
  3  4  1  0
  4  5  1  0
  5  6  1  0
  6  7  2  0
  6  8  1  0
  8  9  2  0
  9 10  1  0
 10 11  1  0
 11 12  1  0
 12 13  2  0
 12 14  1  0
 14 15  2  0
 15 16  1  0
 16 17  2  0
 17 18  1  0
 18 19  1  0
 19 20  2  0
 20 21  1  0
 20 22  1  0
 22 23  1  0
 23 24  1  0
 24 25  2  0
 17 26  1  0
 26 27  2  0
 10 28  2  0
 28 29  1  0
 29 30  1  0
  4 31  2  0
 31 32  1  0
 32 33  1  0
 33 34  2  0
 33 35  1  0
 35 36  1  0
 36 37  1  0
 37 38  2  0
 38 39  1  0
 39 40  2  0
 39 41  1  0
 41 42  1  0
 42 43  1  0
 43 44  1  0
 44 45  1  0
 45 46  1  0
 45 47  1  0
 38 48  1  0
 48 49  1  0
 48 50  1  0
 32 51  2  0
 51  2  1  0
 29  8  1  0
 50 36  2  0
 27 14  1  0
 24 19  1  0
  1 52  1  0
  1 53  1  0
  1 54  1  0
  3 55  1  0
  5 56  1  0
  9 57  1  0
 11 58  1  0
 15 59  1  0
 16 60  1  0
 18 61  1  0
 18 62  1  0
 21 63  1  0
 21 64  1  0
 21 65  1  0
 22 66  1  0
 23 67  1  0
 26 68  1  0
 27 69  1  0
 28 70  1  0
 30 71  1  0
 30 72  1  0
 30 73  1  0
 31 74  1  0
 35 75  1  0
 37 76  1  0
 41 77  1  0
 42 78  1  0
 42 79  1  0
 43 80  1  0
 43 81  1  0
 44 82  1  0
 44 83  1  0
 46 84  1  0
 46 85  1  0
 46 86  1  0
 47 87  1  0
 47 88  1  0
 47 89  1  0
 49 90  1  0
 49 91  1  0
 49 92  1  0
 50 93  1  0
 51 94  1  0
M  END
>  <smiles>  (9) 
Cc1cc(NC(=O)c2cc(NC(=O)c3ccc(Cc4c(C)[nH][nH]c4=O)cc3)cn2C)cc(C(=O)Nc2cc(C(=O)NCCCN(C)C)n(C)c2)c1

>  <score_type>  (9) 
oracle

>  <origin>  (9) 
adgpu

>  <m_score__min__energy>  (9) 
-6.3700000000000001

>  <m_primary>  (9) 
energy

$$$$
9:0
     RDKit          3D

 53 55  0  0  0  0  0  0  0  0999 V2000
   -0.8840   21.8940  -26.0900 C   0  0  0  0  0  0  0  0  0  0  0  0
   -0.1070   21.5510  -27.1190 C   0  0  0  0  0  0  0  0  0  0  0  0
   -0.6360   20.9810  -28.3740 C   0  0  0  0  0  0  0  0  0  0  0  0
   -1.0910   19.8050  -28.3560 O   0  0  0  0  0  0  0  0  0  0  0  0
   -0.6970   21.7600  -29.5850 N   0  0  0  0  0  0  0  0  0  0  0  0
   -0.8190   21.1800  -30.8970 C   0  0  0  0  0  0  0  0  0  0  0  0
    0.2500   21.2040  -31.8130 C   0  0  0  0  0  0  0  0  0  0  0  0
    0.1030   20.6370  -33.0820 C   0  0  0  0  0  0  0  0  0  0  0  0
   -1.1120   20.0500  -33.4530 C   0  0  0  0  0  0  0  0  0  0  0  0
   -2.1940   20.0360  -32.5670 C   0  0  0  0  0  0  0  0  0  0  0  0
   -3.3870   19.4230  -32.9780 O   0  0  0  0  0  0  0  0  0  0  0  0
   -4.6550   19.8650  -32.5970 C   0  0  0  0  0  0  0  0  0  0  0  0
   -4.7660   20.8370  -31.6520 N   0  0  0  0  0  0  0  0  0  0  0  0
   -5.9740   21.3100  -31.2360 C   0  0  0  0  0  0  0  0  0  0  0  0
   -6.0600   22.2500  -30.3360 N   0  0  0  0  0  0  0  0  0  0  0  0
   -4.9700   22.9850  -29.7540 C   0  0  0  0  0  0  0  0  0  0  0  0
   -4.2670   23.8950  -30.5500 C   0  0  0  0  0  0  0  0  0  0  0  0
   -3.1620   24.5830  -30.0400 C   0  0  0  0  0  0  0  0  0  0  0  0
   -2.7320   24.3500  -28.7260 C   0  0  0  0  0  0  0  0  0  0  0  0
   -1.3100   25.1720  -28.0930 S   0  0  0  0  0  0  0  0  0  0  0  0
   -1.4570   25.3260  -26.3260 C   0  0  0  0  0  0  0  0  0  0  0  0
   -1.1950   26.5350  -28.7160 O   0  0  0  0  0  0  0  0  0  0  0  0
   -0.0690   24.3850  -28.4230 O   0  0  0  0  0  0  0  0  0  0  0  0
   -3.4140   23.4160  -27.9330 C   0  0  0  0  0  0  0  0  0  0  0  0
   -4.5220   22.7340  -28.4430 C   0  0  0  0  0  0  0  0  0  0  0  0
   -7.1480   20.7530  -31.7570 C   0  0  0  0  0  0  0  0  0  0  0  0
   -7.0630   19.7550  -32.7300 C   0  0  0  0  0  0  0  0  0  0  0  0
   -5.8130   19.3160  -33.1780 C   0  0  0  0  0  0  0  0  0  0  0  0
   -5.7150   18.0210  -34.3720 S   0  0  0  0  0  0  0  0  0  0  0  0
   -6.8470   16.7250  -33.9200 C   0  0  0  0  0  0  0  0  0  0  0  0
   -6.0810   18.5540  -35.7300 O   0  0  0  0  0  0  0  0  0  0  0  0
   -4.3160   17.4690  -34.4340 O   0  0  0  0  0  0  0  0  0  0  0  0
   -2.0450   20.6140  -31.2900 C   0  0  0  0  0  0  0  0  0  0  0  0
   -0.4351   22.3148  -25.1782 H   0  0  0  0  0  0  0  0  0  0  0  0
   -1.9735   21.7560  -26.1535 H   0  0  0  0  0  0  0  0  0  0  0  0
    0.9791   21.6999  -27.0280 H   0  0  0  0  0  0  0  0  0  0  0  0
   -0.8680   22.7850  -29.4940 H   0  0  0  0  0  0  0  0  0  0  0  0
    1.2046   21.6708  -31.5288 H   0  0  0  0  0  0  0  0  0  0  0  0
    0.9442   20.6522  -33.7907 H   0  0  0  0  0  0  0  0  0  0  0  0
   -1.2168   19.5960  -34.4494 H   0  0  0  0  0  0  0  0  0  0  0  0
   -4.5867   24.0712  -31.5877 H   0  0  0  0  0  0  0  0  0  0  0  0
   -2.6286   25.3090  -30.6712 H   0  0  0  0  0  0  0  0  0  0  0  0
   -0.7763   24.6129  -25.8379 H   0  0  0  0  0  0  0  0  0  0  0  0
   -1.1931   26.3503  -26.0240 H   0  0  0  0  0  0  0  0  0  0  0  0
   -2.4924   25.1100  -26.0240 H   0  0  0  0  0  0  0  0  0  0  0  0
   -3.0754   23.2193  -26.9051 H   0  0  0  0  0  0  0  0  0  0  0  0
   -5.0468   21.9973  -27.8170 H   0  0  0  0  0  0  0  0  0  0  0  0
   -8.1302   21.0990  -31.4025 H   0  0  0  0  0  0  0  0  0  0  0  0
   -7.9810   19.3133  -33.1449 H   0  0  0  0  0  0  0  0  0  0  0  0
   -6.9070   16.6563  -32.8238 H   0  0  0  0  0  0  0  0  0  0  0  0
   -7.8434   16.9495  -34.3284 H   0  0  0  0  0  0  0  0  0  0  0  0
   -6.4905   15.7678  -34.3284 H   0  0  0  0  0  0  0  0  0  0  0  0
   -2.8965   20.6224  -30.5937 H   0  0  0  0  0  0  0  0  0  0  0  0
  1  2  2  0
  2  3  1  0
  3  4  2  0
  3  5  1  0
  5  6  1  0
  6  7  2  0
  7  8  1  0
  8  9  2  0
  9 10  1  0
 10 11  1  0
 11 12  1  0
 12 13  1  0
 13 14  1  0
 14 15  2  3
 15 16  1  0
 16 17  2  0
 17 18  1  0
 18 19  2  0
 19 20  1  0
 20 21  1  0
 20 22  2  0
 20 23  2  0
 19 24  1  0
 24 25  2  0
 14 26  1  0
 26 27  2  0
 27 28  1  0
 28 29  1  0
 29 30  1  0
 29 31  2  0
 29 32  2  0
 10 33  2  0
 33  6  1  0
 28 12  2  0
 25 16  1  0
  1 34  1  0
  1 35  1  0
  2 36  1  0
  5 37  1  0
  7 38  1  0
  8 39  1  0
  9 40  1  0
 17 41  1  0
 18 42  1  0
 21 43  1  0
 21 44  1  0
 21 45  1  0
 24 46  1  0
 25 47  1  0
 26 48  1  0
 27 49  1  0
 30 50  1  0
 30 51  1  0
 30 52  1  0
 33 53  1  0
M  CHG  1  13  -1
M  END
>  <UniqueID>  (10) 
9

>  <SMILES>  (10) 
C=CC(=O)Nc1cccc(Oc2[n-]c(=Nc3ccc(S(C)(=O)=O)cc3)ccc2S(C)(=O)=O)c1

>  <Energy>  (10) 
67.64045356720244

>  <Genealogy>  (10) 
C=CC(=O)Nc1cccc(Oc2[n-]c(=Nc3ccc(S(C)(=O)=O)cc3)ccc2S(C)(=O)=O)c1 (protonated)
C=CC(=O)Nc1cccc(Oc2[n-]c(=Nc3ccc(S(C)(=O)=O)cc3)ccc2S(C)(=O)=O)c1 (3D coordinates assigned)
C=CC(=O)Nc1cccc(Oc2[n-]c(=Nc3ccc(S(C)(=O)=O)cc3)ccc2S(C)(=O)=O)c1 (optimized conformer: 67.64045356720244 kcal/mol)

>  <smiles>  (10) 
C=CC(=O)Nc1cccc(Oc2[nH]c(=Nc3ccc(S(C)(=O)=O)cc3)ccc2S(C)(=O)=O)c1

>  <score_type>  (10) 
oracle

>  <origin>  (10) 
adgpu

>  <m_score__min__energy>  (10) 
-10.77

>  <m_primary>  (10) 
energy

$$$$
10:0
     RDKit          3D

 63 67  0  0  0  0  0  0  0  0999 V2000
   -1.9490   24.9870  -28.1920 C   0  0  0  0  0  0  0  0  0  0  0  0
   -2.7430   25.2870  -29.3330 O   0  0  0  0  0  0  0  0  0  0  0  0
   -3.6610   24.3820  -29.8730 C   0  0  0  0  0  0  0  0  0  0  0  0
   -4.8410   24.1030  -29.1800 C   0  0  0  0  0  0  0  0  0  0  0  0
   -5.7590   23.2030  -29.7210 C   0  0  0  0  0  0  0  0  0  0  0  0
   -5.4940   22.5780  -30.9510 C   0  0  0  0  0  0  0  0  0  0  0  0
   -6.4770   21.6410  -31.5490 C   0  0  0  0  0  0  0  0  0  0  0  0
   -7.8350   21.9940  -31.5920 C   0  0  0  0  0  0  0  0  0  0  0  0
   -8.7720   21.1400  -32.1740 C   0  0  0  0  0  0  0  0  0  0  0  0
   -8.3680   19.9250  -32.7240 C   0  0  0  0  0  0  0  0  0  0  0  0
   -7.0150   19.5400  -32.6900 C   0  0  0  0  0  0  0  0  0  0  0  0
   -6.5880   18.2610  -33.3090 C   0  0  0  0  0  0  0  0  0  0  0  0
   -7.2820   17.0620  -33.0670 C   0  0  0  0  0  0  0  0  0  0  0  0
   -6.8350   15.8780  -33.6610 C   0  0  0  0  0  0  0  0  0  0  0  0
   -5.7120   15.8940  -34.4890 C   0  0  0  0  0  0  0  0  0  0  0  0
   -5.0500   17.1070  -34.7240 C   0  0  0  0  0  0  0  0  0  0  0  0
   -3.8160   17.1620  -35.5730 C   0  0  0  0  0  0  0  0  0  0  0  0
   -2.6820   17.7400  -34.7850 C   0  0  0  0  0  0  0  0  0  0  0  0
   -1.3360   17.5660  -35.0380 C   0  0  0  0  0  0  0  0  0  0  0  0
   -0.6120   18.1390  -34.0610 N   0  0  0  0  0  0  0  0  0  0  0  0
   -1.4880   18.6690  -33.1780 C   0  0  0  0  0  0  0  0  0  0  0  0
   -1.1160   19.3480  -31.9200 C   0  0  0  0  0  0  0  0  0  0  0  0
   -0.1750   18.8780  -31.2260 O   0  0  0  0  0  0  0  0  0  0  0  0
   -1.8090   20.5260  -31.4780 N   0  0  0  0  0  0  0  0  0  0  0  0
   -1.3390   21.3300  -30.3530 C   0  0  0  0  0  0  0  0  0  0  0  0
   -1.7940   20.7220  -29.0590 C   0  0  0  0  0  0  0  0  0  0  0  0
   -2.9690   21.1490  -28.4280 C   0  0  0  0  0  0  0  0  0  0  0  0
   -3.3610   20.5530  -27.2710 N   0  0  0  0  0  0  0  0  0  0  0  0
   -2.6330   19.5510  -26.7070 C   0  0  0  0  0  0  0  0  0  0  0  0
   -3.1070   18.8930  -25.4490 C   0  0  0  0  0  0  0  0  0  0  0  0
   -1.4700   19.1090  -27.3480 C   0  0  0  0  0  0  0  0  0  0  0  0
   -1.0790   19.7050  -28.5050 N   0  0  0  0  0  0  0  0  0  0  0  0
   -2.7870   18.4320  -33.5940 C   0  0  0  0  0  0  0  0  0  0  0  0
   -5.4990   18.2440  -34.1250 N   0  0  0  0  0  0  0  0  0  0  0  0
   -6.0700   20.4000  -32.0850 C   0  0  0  0  0  0  0  0  0  0  0  0
   -4.7340   20.0060  -31.9840 O   0  0  0  0  0  0  0  0  0  0  0  0
   -4.2970   22.8910  -31.6160 C   0  0  0  0  0  0  0  0  0  0  0  0
   -3.4200   23.7720  -31.0680 N   0  0  0  0  0  0  0  0  0  0  0  0
   -2.5227   25.2038  -27.2788 H   0  0  0  0  0  0  0  0  0  0  0  0
   -1.6725   23.9224  -28.2073 H   0  0  0  0  0  0  0  0  0  0  0  0
   -1.0376   25.6028  -28.2073 H   0  0  0  0  0  0  0  0  0  0  0  0
   -5.0449   24.5894  -28.2147 H   0  0  0  0  0  0  0  0  0  0  0  0
   -6.6928   22.9820  -29.1833 H   0  0  0  0  0  0  0  0  0  0  0  0
   -8.1631   22.9523  -31.1631 H   0  0  0  0  0  0  0  0  0  0  0  0
   -9.8337   21.4267  -32.1989 H   0  0  0  0  0  0  0  0  0  0  0  0
   -9.1126   19.2617  -33.1884 H   0  0  0  0  0  0  0  0  0  0  0  0
   -8.1687   17.0558  -32.4161 H   0  0  0  0  0  0  0  0  0  0  0  0
   -7.3685   14.9340  -33.4757 H   0  0  0  0  0  0  0  0  0  0  0  0
   -5.3500   14.9644  -34.9525 H   0  0  0  0  0  0  0  0  0  0  0  0
   -3.5524   16.1453  -35.8999 H   0  0  0  0  0  0  0  0  0  0  0  0
   -4.0079   17.7963  -36.4510 H   0  0  0  0  0  0  0  0  0  0  0  0
   -0.9188   17.0379  -35.9081 H   0  0  0  0  0  0  0  0  0  0  0  0
    0.4300   18.1300  -33.9980 H   0  0  0  0  0  0  0  0  0  0  0  0
   -2.6910   20.8210  -31.9510 H   0  0  0  0  0  0  0  0  0  0  0  0
   -0.2399   21.3709  -30.3691 H   0  0  0  0  0  0  0  0  0  0  0  0
   -1.7527   22.3456  -30.4387 H   0  0  0  0  0  0  0  0  0  0  0  0
   -3.5698   21.9601  -28.8651 H   0  0  0  0  0  0  0  0  0  0  0  0
   -2.7136   19.4391  -24.5789 H   0  0  0  0  0  0  0  0  0  0  0  0
   -4.2066   18.9031  -25.4218 H   0  0  0  0  0  0  0  0  0  0  0  0
   -2.7491   17.8532  -25.4218 H   0  0  0  0  0  0  0  0  0  0  0  0
   -0.8780   18.2869  -26.9193 H   0  0  0  0  0  0  0  0  0  0  0  0
   -3.7126   18.7329  -33.0815 H   0  0  0  0  0  0  0  0  0  0  0  0
   -4.0689   22.4210  -32.5840 H   0  0  0  0  0  0  0  0  0  0  0  0
  1  2  1  0
  2  3  1  0
  3  4  2  0
  4  5  1  0
  5  6  2  0
  6  7  1  0
  7  8  2  0
  8  9  1  0
  9 10  2  0
 10 11  1  0
 11 12  1  0
 12 13  2  0
 13 14  1  0
 14 15  2  0
 15 16  1  0
 16 17  1  0
 17 18  1  0
 18 19  2  0
 19 20  1  0
 20 21  1  0
 21 22  1  0
 22 23  2  0
 22 24  1  0
 24 25  1  0
 25 26  1  0
 26 27  2  0
 27 28  1  0
 28 29  2  0
 29 30  1  0
 29 31  1  0
 31 32  2  0
 21 33  2  0
 16 34  2  0
 11 35  2  0
 35 36  1  0
  6 37  1  0
 37 38  2  0
 38  3  1  0
 35  7  1  0
 34 12  1  0
 33 18  1  0
 32 26  1  0
  1 39  1  0
  1 40  1  0
  1 41  1  0
  4 42  1  0
  5 43  1  0
  8 44  1  0
  9 45  1  0
 10 46  1  0
 13 47  1  0
 14 48  1  0
 15 49  1  0
 17 50  1  0
 17 51  1  0
 19 52  1  0
 20 53  1  0
 24 54  1  0
 25 55  1  0
 25 56  1  0
 27 57  1  0
 30 58  1  0
 30 59  1  0
 30 60  1  0
 31 61  1  0
 33 62  1  0
 37 63  1  0
M  CHG  1  36  -1
M  END
>  <UniqueID>  (11) 
10

>  <SMILES>  (11) 
COc1ccc(-c2cccc(-c3cccc(Cc4c[nH]c(C(=O)NCc5cnc(C)cn5)c4)n3)c2[O-])cn1

>  <Energy>  (11) 
100.67114883424331

>  <Genealogy>  (11) 
COc1ccc(-c2cccc(-c3cccc(Cc4c[nH]c(C(=O)NCc5cnc(C)cn5)c4)n3)c2[O-])cn1 (protonated)
COc1ccc(-c2cccc(-c3cccc(Cc4c[nH]c(C(=O)NCc5cnc(C)cn5)c4)n3)c2[O-])cn1 (3D coordinates assigned)
COc1ccc(-c2cccc(-c3cccc(Cc4c[nH]c(C(=O)NCc5cnc(C)cn5)c4)n3)c2[O-])cn1 (optimized conformer: 100.67114883424331 kcal/mol)

>  <smiles>  (11) 
COc1ccc(-c2cccc(-c3cccc(Cc4c[nH]c(C(=O)NCc5cnc(C)cn5)c4)n3)c2O)cn1

>  <score_type>  (11) 
oracle

>  <origin>  (11) 
adgpu

>  <m_score__min__energy>  (11) 
-12.43

>  <m_primary>  (11) 
energy

$$$$
11:0
     RDKit          3D

 56 59  0  0  0  0  0  0  0  0999 V2000
   -5.6720   18.9260  -31.6030 C   0  0  0  0  0  0  0  0  0  0  0  0
   -7.0610   19.4330  -31.8880 C   0  0  0  0  0  0  0  0  0  0  0  0
   -8.0790   18.5120  -32.1940 C   0  0  0  0  0  0  0  0  0  0  0  0
   -9.3830   18.9500  -32.4320 C   0  0  0  0  0  0  0  0  0  0  0  0
   -9.6870   20.3110  -32.3710 C   0  0  0  0  0  0  0  0  0  0  0  0
   -8.6840   21.2390  -32.0850 C   0  0  0  0  0  0  0  0  0  0  0  0
   -7.3650   20.8160  -31.8590 C   0  0  0  0  0  0  0  0  0  0  0  0
   -6.3490   21.7960  -31.5960 N   0  0  0  0  0  0  0  0  0  0  0  0
   -6.3710   22.7270  -30.6240 C   0  0  0  0  0  0  0  0  0  0  0  0
   -5.2480   23.5330  -30.7250 C   0  0  0  0  0  0  0  0  0  0  0  0
   -4.9040   24.7130  -29.8490 C   0  0  1  0  0  0  0  0  0  0  0  0
   -6.0680   25.3660  -29.4100 O   0  0  0  0  0  0  0  0  0  0  0  0
   -4.1110   24.3000  -28.6840 N   0  0  0  0  0  0  0  0  0  0  0  0
   -2.7700   23.7600  -28.7320 C   0  0  0  0  0  0  0  0  0  0  0  0
   -2.5280   22.3720  -28.6620 C   0  0  0  0  0  0  0  0  0  0  0  0
   -1.2280   21.8650  -28.7800 C   0  0  0  0  0  0  0  0  0  0  0  0
   -0.9370   20.1280  -28.7380 S   0  0  0  0  0  0  0  0  0  0  0  0
   -1.8200   19.5220  -27.6820 O   0  0  0  0  0  0  0  0  0  0  0  0
    0.4980   19.8640  -28.3680 O   0  0  0  0  0  0  0  0  0  0  0  0
   -1.3090   19.4440  -30.3060 N   0  0  0  0  0  0  0  0  0  0  0  0
   -2.0680   20.3880  -31.1550 C   0  0  0  0  0  0  0  0  0  0  0  0
   -1.1760   21.1230  -32.1730 C   0  0  0  0  0  0  0  0  0  0  0  0
    0.1140   21.3190  -31.6410 O   0  0  0  0  0  0  0  0  0  0  0  0
    0.7890   20.0780  -31.5250 C   0  0  0  0  0  0  0  0  0  0  0  0
   -0.1010   18.9350  -30.9780 C   0  0  0  0  0  0  0  0  0  0  0  0
   -0.1520   22.7450  -28.9290 C   0  0  0  0  0  0  0  0  0  0  0  0
   -0.3740   24.1210  -28.9770 C   0  0  0  0  0  0  0  0  0  0  0  0
   -1.6720   24.6310  -28.8850 C   0  0  0  0  0  0  0  0  0  0  0  0
   -1.8640   26.0060  -28.9540 O   0  0  0  0  0  0  0  0  0  0  0  0
   -4.4870   23.0370  -31.7710 C   0  0  0  0  0  0  0  0  0  0  0  0
   -5.2040   21.9740  -32.2820 C   0  0  0  0  0  0  0  0  0  0  0  0
   -4.8210   21.1950  -33.3700 O   0  0  0  0  0  0  0  0  0  0  0  0
   -5.5182   18.8699  -30.5153 H   0  0  0  0  0  0  0  0  0  0  0  0
   -5.5496   17.9252  -32.0428 H   0  0  0  0  0  0  0  0  0  0  0  0
   -4.9336   19.6126  -32.0428 H   0  0  0  0  0  0  0  0  0  0  0  0
   -7.8459   17.4383  -32.2462 H   0  0  0  0  0  0  0  0  0  0  0  0
  -10.1724   18.2212  -32.6680 H   0  0  0  0  0  0  0  0  0  0  0  0
  -10.7175   20.6525  -32.5484 H   0  0  0  0  0  0  0  0  0  0  0  0
   -8.9294   22.3102  -32.0364 H   0  0  0  0  0  0  0  0  0  0  0  0
   -7.1602   22.8321  -29.8650 H   0  0  0  0  0  0  0  0  0  0  0  0
   -4.3054   25.4065  -30.4580 H   0  0  0  0  0  0  0  0  0  0  0  0
   -6.3580   24.9150  -28.5750 H   0  0  0  0  0  0  0  0  0  0  0  0
   -4.5530   24.4530  -27.7490 H   0  0  0  0  0  0  0  0  0  0  0  0
   -3.3700   21.6801  -28.5130 H   0  0  0  0  0  0  0  0  0  0  0  0
   -2.8384   19.8263  -31.7036 H   0  0  0  0  0  0  0  0  0  0  0  0
   -2.5108   21.1469  -30.4932 H   0  0  0  0  0  0  0  0  0  0  0  0
   -1.1023   20.5220  -33.0914 H   0  0  0  0  0  0  0  0  0  0  0  0
   -1.6227   22.1026  -32.3985 H   0  0  0  0  0  0  0  0  0  0  0  0
    1.1550   19.7872  -32.5207 H   0  0  0  0  0  0  0  0  0  0  0  0
    1.6066   20.2226  -30.8035 H   0  0  0  0  0  0  0  0  0  0  0  0
   -0.4064   18.2916  -31.8163 H   0  0  0  0  0  0  0  0  0  0  0  0
    0.4871   18.3741  -30.2367 H   0  0  0  0  0  0  0  0  0  0  0  0
    0.8720   22.3512  -29.0086 H   0  0  0  0  0  0  0  0  0  0  0  0
    0.4773   24.8088  -29.0879 H   0  0  0  0  0  0  0  0  0  0  0  0
   -3.5141   23.4121  -32.1213 H   0  0  0  0  0  0  0  0  0  0  0  0
   -4.6110   21.6200  -34.2650 H   0  0  0  0  0  0  0  0  0  0  0  0
  1  2  1  0
  2  3  2  0
  3  4  1  0
  4  5  2  0
  5  6  1  0
  6  7  2  0
  7  8  1  0
  8  9  1  0
  9 10  2  0
 10 11  1  0
 11 12  1  0
 11 13  1  0
 13 14  1  0
 14 15  2  0
 15 16  1  0
 16 17  1  0
 17 18  2  0
 17 19  2  0
 17 20  1  0
 20 21  1  0
 21 22  1  0
 22 23  1  0
 23 24  1  0
 24 25  1  0
 16 26  2  0
 26 27  1  0
 27 28  2  0
 28 29  1  0
 10 30  1  0
 30 31  2  0
 31 32  1  0
  7  2  1  0
 31  8  1  0
 28 14  1  0
 25 20  1  0
  1 33  1  0
  1 34  1  0
  1 35  1  0
  3 36  1  0
  4 37  1  0
  5 38  1  0
  6 39  1  0
  9 40  1  0
 11 41  1  6
 12 42  1  0
 13 43  1  0
 15 44  1  0
 21 45  1  0
 21 46  1  0
 22 47  1  0
 22 48  1  0
 24 49  1  0
 24 50  1  0
 25 51  1  0
 25 52  1  0
 26 53  1  0
 27 54  1  0
 30 55  1  0
 32 56  1  0
M  CHG  1  29  -1
M  END
>  <UniqueID>  (12) 
11

>  <SMILES>  (12) 
Cc1ccccc1-n1cc([C@@H](O)Nc2cc(S(=O)(=O)N3CCOCC3)ccc2[O-])cc1O

>  <Energy>  (12) 
101.56464283263243

>  <Genealogy>  (12) 
Cc1ccccc1-n1cc(C(O)Nc2cc(S(=O)(=O)N3CCOCC3)ccc2[O-])cc1O (protonated)
Cc1ccccc1-n1cc([C@@H](O)Nc2cc(S(=O)(=O)N3CCOCC3)ccc2[O-])cc1O (chirality)
Cc1ccccc1-n1cc([C@@H](O)Nc2cc(S(=O)(=O)N3CCOCC3)ccc2[O-])cc1O (3D coordinates assigned)
Cc1ccccc1-n1cc([C@@H](O)Nc2cc(S(=O)(=O)N3CCOCC3)ccc2[O-])cc1O (nonaromatic ring conformer: 101.56464283263243 kcal/mol)

>  <smiles>  (12) 
Cc1ccccc1-n1cc(C(O)Nc2cc(S(=O)(=O)N3CCOCC3)ccc2O)cc1O

>  <score_type>  (12) 
oracle

>  <origin>  (12) 
adgpu

>  <m_score__min__energy>  (12) 
-12.35

>  <m_primary>  (12) 
energy

$$$$
12:0
     RDKit          3D

 58 61  0  0  0  0  0  0  0  0999 V2000
   -6.9330   20.8380  -32.8330 C   0  0  0  0  0  0  0  0  0  0  0  0
   -6.5920   22.0560  -32.0340 C   0  0  0  0  0  0  0  0  0  0  0  0
   -7.6010   22.8120  -31.4210 C   0  0  0  0  0  0  0  0  0  0  0  0
   -7.2790   23.9390  -30.6600 C   0  0  0  0  0  0  0  0  0  0  0  0
   -5.9450   24.3150  -30.4810 C   0  0  0  0  0  0  0  0  0  0  0  0
   -5.6880   25.4850  -29.7630 O   0  0  0  0  0  0  0  0  0  0  0  0
   -4.9130   23.5300  -31.0500 C   0  0  0  0  0  0  0  0  0  0  0  0
   -3.4850   23.7970  -30.7830 C   0  0  0  0  0  0  0  0  0  0  0  0
   -2.6110   23.0080  -31.2320 O   0  0  0  0  0  0  0  0  0  0  0  0
   -3.1080   24.9210  -29.9730 N   0  0  0  0  0  0  0  0  0  0  0  0
   -2.2960   24.8880  -28.7930 C   0  0  0  0  0  0  0  0  0  0  0  0
   -1.1000   25.6180  -28.7130 C   0  0  0  0  0  0  0  0  0  0  0  0
   -0.2530   25.4670  -27.6200 C   0  0  0  0  0  0  0  0  0  0  0  0
   -0.5770   24.5670  -26.6070 C   0  0  0  0  0  0  0  0  0  0  0  0
   -1.7580   23.8320  -26.6740 C   0  0  0  0  0  0  0  0  0  0  0  0
   -2.6230   23.9820  -27.7620 C   0  0  0  0  0  0  0  0  0  0  0  0
   -3.8430   23.1510  -27.8270 C   0  0  0  0  0  0  0  0  0  0  0  0
   -4.9680   23.7080  -27.8810 O   0  0  0  0  0  0  0  0  0  0  0  0
   -3.7700   21.7210  -27.7360 N   0  0  0  0  0  0  0  0  0  0  0  0
   -2.5640   20.9710  -27.9390 C   0  0  0  0  0  0  0  0  0  0  0  0
   -2.1250   20.0910  -26.9460 C   0  0  0  0  0  0  0  0  0  0  0  0
   -0.8950   19.4380  -27.0760 C   0  0  0  0  0  0  0  0  0  0  0  0
   -0.1100   19.6410  -28.2180 C   0  0  0  0  0  0  0  0  0  0  0  0
    1.4990   18.9330  -28.3430 S   0  0  0  0  0  0  0  0  0  0  0  0
    2.5190   19.9460  -27.8960 O   0  0  0  0  0  0  0  0  0  0  0  0
    1.7850   18.5810  -29.7800 O   0  0  0  0  0  0  0  0  0  0  0  0
    1.6420   17.4960  -27.3530 N   0  0  0  0  0  0  0  0  0  0  0  0
    0.9970   16.3420  -28.0060 C   0  0  0  0  0  0  0  0  0  0  0  0
    1.0620   15.1160  -27.0670 C   0  0  0  0  0  0  0  0  0  0  0  0
    1.9720   15.3020  -25.9840 O   0  0  0  0  0  0  0  0  0  0  0  0
    3.2180   15.7790  -26.4780 C   0  0  0  0  0  0  0  0  0  0  0  0
    3.0630   17.1990  -27.0740 C   0  0  0  0  0  0  0  0  0  0  0  0
   -0.5890   20.4580  -29.2500 C   0  0  0  0  0  0  0  0  0  0  0  0
   -1.8100   21.1180  -29.1140 C   0  0  0  0  0  0  0  0  0  0  0  0
   -5.2530   22.4120  -31.8330 C   0  0  0  0  0  0  0  0  0  0  0  0
   -7.1659   20.0061  -32.1520 H   0  0  0  0  0  0  0  0  0  0  0  0
   -7.8068   21.0483  -33.4672 H   0  0  0  0  0  0  0  0  0  0  0  0
   -6.0770   20.5640  -33.4672 H   0  0  0  0  0  0  0  0  0  0  0  0
   -8.6537   22.5160  -31.5399 H   0  0  0  0  0  0  0  0  0  0  0  0
   -8.0809   24.5341  -30.1988 H   0  0  0  0  0  0  0  0  0  0  0  0
   -4.9850   25.5420  -29.0410 H   0  0  0  0  0  0  0  0  0  0  0  0
   -0.8305   26.3146  -29.5205 H   0  0  0  0  0  0  0  0  0  0  0  0
    0.6725   26.0581  -27.5554 H   0  0  0  0  0  0  0  0  0  0  0  0
    0.1022   24.4366  -25.7516 H   0  0  0  0  0  0  0  0  0  0  0  0
   -2.0116   23.1295  -25.8664 H   0  0  0  0  0  0  0  0  0  0  0  0
   -2.7495   19.9112  -26.0585 H   0  0  0  0  0  0  0  0  0  0  0  0
   -0.5438   18.7643  -26.2805 H   0  0  0  0  0  0  0  0  0  0  0  0
   -0.0543   16.5832  -28.2218 H   0  0  0  0  0  0  0  0  0  0  0  0
    1.5209   16.1124  -28.9456 H   0  0  0  0  0  0  0  0  0  0  0  0
    0.0581   14.9333  -26.6562 H   0  0  0  0  0  0  0  0  0  0  0  0
    1.4197   14.2611  -27.6596 H   0  0  0  0  0  0  0  0  0  0  0  0
    3.9450   15.8110  -25.6531 H   0  0  0  0  0  0  0  0  0  0  0  0
    3.5680   15.0997  -27.2692 H   0  0  0  0  0  0  0  0  0  0  0  0
    3.4519   17.9363  -26.3563 H   0  0  0  0  0  0  0  0  0  0  0  0
    3.6269   17.2504  -28.0170 H   0  0  0  0  0  0  0  0  0  0  0  0
    0.0000   20.5795  -30.1710 H   0  0  0  0  0  0  0  0  0  0  0  0
   -2.1831   21.7552  -29.9293 H   0  0  0  0  0  0  0  0  0  0  0  0
   -4.4562   21.8094  -32.2935 H   0  0  0  0  0  0  0  0  0  0  0  0
  1  2  1  0
  2  3  2  0
  3  4  1  0
  4  5  2  0
  5  6  1  0
  5  7  1  0
  7  8  1  0
  8  9  2  0
  8 10  1  0
 10 11  1  0
 11 12  2  0
 12 13  1  0
 13 14  2  0
 14 15  1  0
 15 16  2  0
 16 17  1  0
 17 18  2  0
 17 19  1  0
 19 20  1  0
 20 21  2  0
 21 22  1  0
 22 23  2  0
 23 24  1  0
 24 25  2  0
 24 26  2  0
 24 27  1  0
 27 28  1  0
 28 29  1  0
 29 30  1  0
 30 31  1  0
 31 32  1  0
 23 33  1  0
 33 34  2  0
  7 35  2  0
 35  2  1  0
 16 11  1  0
 34 20  1  0
 32 27  1  0
  1 36  1  0
  1 37  1  0
  1 38  1  0
  3 39  1  0
  4 40  1  0
  6 41  1  0
 12 42  1  0
 13 43  1  0
 14 44  1  0
 15 45  1  0
 21 46  1  0
 22 47  1  0
 28 48  1  0
 28 49  1  0
 29 50  1  0
 29 51  1  0
 31 52  1  0
 31 53  1  0
 32 54  1  0
 32 55  1  0
 33 56  1  0
 34 57  1  0
 35 58  1  0
M  CHG  2  10  -1  19  -1
M  END
>  <UniqueID>  (13) 
12

>  <SMILES>  (13) 
Cc1ccc(O)c(C(=O)[N-]c2ccccc2C(=O)[N-]c2ccc(S(=O)(=O)N3CCOCC3)cc2)c1

>  <Energy>  (13) 
87.26280665299171

>  <Genealogy>  (13) 
Cc1ccc(O)c(C(=O)[N-]c2ccccc2C(=O)[N-]c2ccc(S(=O)(=O)N3CCOCC3)cc2)c1 (protonated)
Cc1ccc(O)c(C(=O)[N-]c2ccccc2C(=O)[N-]c2ccc(S(=O)(=O)N3CCOCC3)cc2)c1 (3D coordinates assigned)
Cc1ccc(O)c(C(=O)[N-]c2ccccc2C(=O)[N-]c2ccc(S(=O)(=O)N3CCOCC3)cc2)c1 (nonaromatic ring conformer: 87.26280665299171 kcal/mol)

>  <smiles>  (13) 
Cc1ccc(O)c(C(=O)Nc2ccccc2C(=O)Nc2ccc(S(=O)(=O)N3CCOCC3)cc2)c1

>  <score_type>  (13) 
oracle

>  <origin>  (13) 
adgpu

>  <m_score__min__energy>  (13) 
-12.699999999999999

>  <m_primary>  (13) 
energy

$$$$
13:0
     RDKit          3D

 46 48  0  0  0  0  0  0  0  0999 V2000
   -0.3690   22.8990  -26.0720 C   0  0  0  0  0  0  0  0  0  0  0  0
   -1.5040   23.0300  -27.0540 C   0  0  0  0  0  0  0  0  0  0  0  0
   -2.3620   21.9290  -27.2110 C   0  0  0  0  0  0  0  0  0  0  0  0
   -3.4060   21.9600  -28.1300 C   0  0  0  0  0  0  0  0  0  0  0  0
   -3.6200   23.0930  -28.9230 C   0  0  0  0  0  0  0  0  0  0  0  0
   -4.6780   23.1180  -29.8990 N   0  0  0  0  0  0  0  0  0  0  0  0
   -4.4600   23.1260  -31.3160 C   0  0  0  0  0  0  0  0  0  0  0  0
   -3.3150   22.8830  -31.7860 O   0  0  0  0  0  0  0  0  0  0  0  0
   -5.5760   23.3210  -32.1920 N   0  0  0  0  0  0  0  0  0  0  0  0
   -6.7700   22.5270  -32.2470 C   0  0  0  0  0  0  0  0  0  0  0  0
   -6.6720   21.1920  -32.6620 C   0  0  0  0  0  0  0  0  0  0  0  0
   -7.8090   20.3800  -32.7090 C   0  0  0  0  0  0  0  0  0  0  0  0
   -9.0520   20.8930  -32.3270 C   0  0  0  0  0  0  0  0  0  0  0  0
  -10.1530   20.1030  -32.3700 F   0  0  0  0  0  0  0  0  0  0  0  0
   -9.1560   22.2150  -31.8870 C   0  0  0  0  0  0  0  0  0  0  0  0
   -8.0200   23.0310  -31.8400 C   0  0  0  0  0  0  0  0  0  0  0  0
   -2.7530   24.1910  -28.8040 C   0  0  0  0  0  0  0  0  0  0  0  0
   -2.9570   25.2980  -29.6240 O   0  0  0  0  0  0  0  0  0  0  0  0
   -1.6960   24.1850  -27.8650 C   0  0  0  0  0  0  0  0  0  0  0  0
   -0.6520   25.6310  -27.7390 S   0  0  0  0  0  0  0  0  0  0  0  0
    0.8000   25.2580  -27.8400 O   0  0  0  0  0  0  0  0  0  0  0  0
   -0.9460   26.5470  -28.8940 O   0  0  0  0  0  0  0  0  0  0  0  0
   -0.9070   26.5070  -26.2460 N   0  0  0  0  0  0  0  0  0  0  0  0
   -0.4920   27.9120  -26.3830 C   0  0  0  0  0  0  0  0  0  0  0  0
   -0.5430   28.6300  -25.0180 C   0  0  0  0  0  0  0  0  0  0  0  0
   -1.1980   27.8360  -24.0470 O   0  0  0  0  0  0  0  0  0  0  0  0
   -0.4610   26.6450  -23.8230 C   0  0  0  0  0  0  0  0  0  0  0  0
   -0.1840   25.8760  -25.1330 C   0  0  0  0  0  0  0  0  0  0  0  0
   -0.7643   22.9446  -25.0465 H   0  0  0  0  0  0  0  0  0  0  0  0
    0.1400   21.9361  -26.2263 H   0  0  0  0  0  0  0  0  0  0  0  0
    0.3460   23.7206  -26.2263 H   0  0  0  0  0  0  0  0  0  0  0  0
   -2.2061   21.0289  -26.5982 H   0  0  0  0  0  0  0  0  0  0  0  0
   -4.0680   21.0877  -28.2340 H   0  0  0  0  0  0  0  0  0  0  0  0
   -5.6670   23.0610  -29.5660 H   0  0  0  0  0  0  0  0  0  0  0  0
   -5.6942   20.7804  -32.9526 H   0  0  0  0  0  0  0  0  0  0  0  0
   -7.7255   19.3365  -33.0469 H   0  0  0  0  0  0  0  0  0  0  0  0
  -10.1326   22.6152  -31.5770 H   0  0  0  0  0  0  0  0  0  0  0  0
   -8.1039   24.0685  -31.4843 H   0  0  0  0  0  0  0  0  0  0  0  0
    0.5361   27.9488  -26.7724 H   0  0  0  0  0  0  0  0  0  0  0  0
   -1.1801   28.4187  -27.0757 H   0  0  0  0  0  0  0  0  0  0  0  0
    0.4841   28.8342  -24.6813 H   0  0  0  0  0  0  0  0  0  0  0  0
   -1.1051   29.5679  -25.1382 H   0  0  0  0  0  0  0  0  0  0  0  0
    0.4998   26.9056  -23.3551 H   0  0  0  0  0  0  0  0  0  0  0  0
   -1.0607   25.9943  -23.1696 H   0  0  0  0  0  0  0  0  0  0  0  0
    0.8955   25.8917  -25.3438 H   0  0  0  0  0  0  0  0  0  0  0  0
   -0.5262   24.8365  -25.0219 H   0  0  0  0  0  0  0  0  0  0  0  0
  1  2  1  0
  2  3  2  0
  3  4  1  0
  4  5  2  0
  5  6  1  0
  6  7  1  0
  7  8  2  0
  7  9  1  0
  9 10  1  0
 10 11  2  0
 11 12  1  0
 12 13  2  0
 13 14  1  0
 13 15  1  0
 15 16  2  0
  5 17  1  0
 17 18  1  0
 17 19  2  0
 19 20  1  0
 20 21  2  0
 20 22  2  0
 20 23  1  0
 23 24  1  0
 24 25  1  0
 25 26  1  0
 26 27  1  0
 27 28  1  0
 19  2  1  0
 28 23  1  0
 16 10  1  0
  1 29  1  0
  1 30  1  0
  1 31  1  0
  3 32  1  0
  4 33  1  0
  6 34  1  0
 11 35  1  0
 12 36  1  0
 15 37  1  0
 16 38  1  0
 24 39  1  0
 24 40  1  0
 25 41  1  0
 25 42  1  0
 27 43  1  0
 27 44  1  0
 28 45  1  0
 28 46  1  0
M  CHG  2   9  -1  18  -1
M  END
>  <UniqueID>  (14) 
13

>  <SMILES>  (14) 
Cc1ccc(NC(=O)[N-]c2ccc(F)cc2)c([O-])c1S(=O)(=O)N1CCOCC1

>  <Energy>  (14) 
66.69524780381403

>  <Genealogy>  (14) 
Cc1ccc(NC(=O)[N-]c2ccc(F)cc2)c([O-])c1S(=O)(=O)N1CCOCC1 (protonated)
Cc1ccc(NC(=O)[N-]c2ccc(F)cc2)c([O-])c1S(=O)(=O)N1CCOCC1 (3D coordinates assigned)
Cc1ccc(NC(=O)[N-]c2ccc(F)cc2)c([O-])c1S(=O)(=O)N1CCOCC1 (nonaromatic ring conformer: 66.69524780381403 kcal/mol)

>  <smiles>  (14) 
Cc1ccc(NC(=O)Nc2ccc(F)cc2)c(O)c1S(=O)(=O)N1CCOCC1

>  <score_type>  (14) 
oracle

>  <origin>  (14) 
adgpu

>  <m_score__min__energy>  (14) 
-12.779999999999999

>  <m_primary>  (14) 
energy

$$$$
14:0
     RDKit          3D

 50 52  0  0  0  0  0  0  0  0999 V2000
   -0.5740   19.2010  -28.4330 C   0  0  0  0  0  0  0  0  0  0  0  0
   -0.5260   19.7590  -29.8530 C   0  0  0  0  0  0  0  0  0  0  0  0
   -0.0810   18.7350  -30.8100 N   0  0  0  0  0  0  0  0  0  0  0  0
   -0.4840   18.7160  -32.1940 C   0  0  0  0  0  0  0  0  0  0  0  0
   -1.3740   17.7460  -32.6900 C   0  0  0  0  0  0  0  0  0  0  0  0
   -1.7540   17.7490  -34.0410 C   0  0  0  0  0  0  0  0  0  0  0  0
   -2.6590   16.7760  -34.5780 N   0  0  0  0  0  0  0  0  0  0  0  0
   -4.3700   17.0090  -34.7850 S   0  0  0  0  0  0  0  0  0  0  0  0
   -4.6430   17.3860  -36.2130 O   0  0  0  0  0  0  0  0  0  0  0  0
   -5.1130   15.7390  -34.4810 O   0  0  0  0  0  0  0  0  0  0  0  0
   -4.9010   18.3250  -33.7380 C   0  0  0  0  0  0  0  0  0  0  0  0
   -5.7330   19.3280  -34.2550 C   0  0  0  0  0  0  0  0  0  0  0  0
   -6.1030   20.4160  -33.4570 C   0  0  0  0  0  0  0  0  0  0  0  0
   -5.6160   20.5320  -32.1490 C   0  0  0  0  0  0  0  0  0  0  0  0
   -5.9730   21.6560  -31.3910 O   0  0  0  0  0  0  0  0  0  0  0  0
   -5.0810   22.4550  -30.6600 C   0  0  0  0  0  0  0  0  0  0  0  0
   -4.1330   21.9060  -29.7790 C   0  0  0  0  0  0  0  0  0  0  0  0
   -3.2340   22.7330  -29.1020 C   0  0  0  0  0  0  0  0  0  0  0  0
   -3.2490   24.1260  -29.3010 C   0  0  0  0  0  0  0  0  0  0  0  0
   -2.2680   24.9750  -28.5770 C   0  0  0  0  0  0  0  0  0  0  0  0
   -2.2460   25.0110  -27.3170 O   0  0  0  0  0  0  0  0  0  0  0  0
   -1.3460   25.7410  -29.2830 O   0  0  0  0  0  0  0  0  0  0  0  0
   -4.1930   24.6720  -30.2030 C   0  0  0  0  0  0  0  0  0  0  0  0
   -4.2340   26.0370  -30.4610 O   0  0  0  0  0  0  0  0  0  0  0  0
   -5.0990   23.8370  -30.8670 C   0  0  0  0  0  0  0  0  0  0  0  0
   -4.8070   19.5110  -31.6190 C   0  0  0  0  0  0  0  0  0  0  0  0
   -4.4540   18.4120  -32.4110 C   0  0  0  0  0  0  0  0  0  0  0  0
   -1.2290   18.7200  -34.9020 C   0  0  0  0  0  0  0  0  0  0  0  0
   -0.3460   19.7040  -34.4250 C   0  0  0  0  0  0  0  0  0  0  0  0
    0.1880   20.7410  -35.3400 C   0  0  0  0  0  0  0  0  0  0  0  0
    0.1680   22.1190  -34.9700 N   0  0  0  0  0  0  0  0  0  0  0  0
    0.6690   20.4170  -36.4620 O   0  0  0  0  0  0  0  0  0  0  0  0
    0.0240   19.6900  -33.0700 C   0  0  0  0  0  0  0  0  0  0  0  0
   -0.5028   20.0282  -27.7114 H   0  0  0  0  0  0  0  0  0  0  0  0
   -1.5217   18.6633  -28.2822 H   0  0  0  0  0  0  0  0  0  0  0  0
    0.2680   18.5094  -28.2822 H   0  0  0  0  0  0  0  0  0  0  0  0
   -1.5310   20.1039  -30.1375 H   0  0  0  0  0  0  0  0  0  0  0  0
    0.1904   20.5934  -29.8762 H   0  0  0  0  0  0  0  0  0  0  0  0
    0.5300   17.9600  -30.4670 H   0  0  0  0  0  0  0  0  0  0  0  0
   -1.7758   16.9781  -32.0126 H   0  0  0  0  0  0  0  0  0  0  0  0
   -6.0960   19.2593  -35.2911 H   0  0  0  0  0  0  0  0  0  0  0  0
   -6.7799   21.1843  -33.8590 H   0  0  0  0  0  0  0  0  0  0  0  0
   -4.0991   20.8178  -29.6218 H   0  0  0  0  0  0  0  0  0  0  0  0
   -2.5063   22.2907  -28.4057 H   0  0  0  0  0  0  0  0  0  0  0  0
   -5.8336   24.2735  -31.5597 H   0  0  0  0  0  0  0  0  0  0  0  0
   -4.4510   19.5761  -30.5802 H   0  0  0  0  0  0  0  0  0  0  0  0
   -3.8240   17.6139  -31.9914 H   0  0  0  0  0  0  0  0  0  0  0  0
   -1.5111   18.7128  -35.9652 H   0  0  0  0  0  0  0  0  0  0  0  0
   -0.5560   22.7710  -35.3490 H   0  0  0  0  0  0  0  0  0  0  0  0
    0.7206   20.4516  -32.6897 H   0  0  0  0  0  0  0  0  0  0  0  0
  1  2  1  0
  2  3  1  0
  3  4  1  0
  4  5  2  0
  5  6  1  0
  6  7  1  0
  7  8  1  0
  8  9  2  0
  8 10  2  0
  8 11  1  0
 11 12  2  0
 12 13  1  0
 13 14  2  0
 14 15  1  0
 15 16  1  0
 16 17  2  0
 17 18  1  0
 18 19  2  0
 19 20  1  0
 20 21  2  0
 20 22  1  0
 19 23  1  0
 23 24  1  0
 23 25  2  0
 14 26  1  0
 26 27  2  0
  6 28  2  0
 28 29  1  0
 29 30  1  0
 30 31  1  0
 30 32  2  0
 29 33  2  0
 33  4  1  0
 27 11  1  0
 25 16  1  0
  1 34  1  0
  1 35  1  0
  1 36  1  0
  2 37  1  0
  2 38  1  0
  3 39  1  0
  5 40  1  0
 12 41  1  0
 13 42  1  0
 17 43  1  0
 18 44  1  0
 25 45  1  0
 26 46  1  0
 27 47  1  0
 28 48  1  0
 31 49  1  0
 33 50  1  0
M  CHG  4   7  -1  22  -1  24  -1  31  -1
M  END
>  <UniqueID>  (15) 
14

>  <SMILES>  (15) 
CCNc1cc([N-]S(=O)(=O)c2ccc(Oc3ccc(C(=O)[O-])c([O-])c3)cc2)cc(C([NH-])=O)c1

>  <Energy>  (15) 
62.16554755496793

>  <Genealogy>  (15) 
CCNc1cc([N-]S(=O)(=O)c2ccc(Oc3ccc(C(=O)[O-])c([O-])c3)cc2)cc(C([NH-])=O)c1 (protonated)
CCNc1cc([N-]S(=O)(=O)c2ccc(Oc3ccc(C(=O)[O-])c([O-])c3)cc2)cc(C([NH-])=O)c1 (3D coordinates assigned)
CCNc1cc([N-]S(=O)(=O)c2ccc(Oc3ccc(C(=O)[O-])c([O-])c3)cc2)cc(C([NH-])=O)c1 (optimized conformer: 62.16554755496793 kcal/mol)

>  <smiles>  (15) 
CCNc1cc(NS(=O)(=O)c2ccc(Oc3ccc(C(=O)O)c(O)c3)cc2)cc(C(N)=O)c1

>  <score_type>  (15) 
oracle

>  <origin>  (15) 
adgpu

>  <m_score__min__energy>  (15) 
-12.98

>  <m_primary>  (15) 
energy

$$$$
15:0
     RDKit          3D

 64 67  0  0  0  0  0  0  0  0999 V2000
   -5.4510   16.0770  -31.8320 O   0  0  0  0  0  0  0  0  0  0  0  0
   -5.6960   15.9960  -33.0650 C   0  0  0  0  0  0  0  0  0  0  0  0
   -5.3250   14.7470  -33.8050 C   0  0  0  0  0  0  0  0  0  0  0  0
   -4.0240   14.9520  -34.5830 C   0  0  0  0  0  0  0  0  0  0  0  0
   -3.3740   16.2530  -34.1960 C   0  0  0  0  0  0  0  0  0  0  0  0
   -3.6530   17.4270  -34.9150 C   0  0  0  0  0  0  0  0  0  0  0  0
   -3.0250   18.6290  -34.5720 C   0  0  0  0  0  0  0  0  0  0  0  0
   -2.1080   18.6690  -33.5140 C   0  0  0  0  0  0  0  0  0  0  0  0
   -1.3300   20.1900  -33.0870 S   0  0  0  0  0  0  0  0  0  0  0  0
   -2.0480   21.3300  -33.7540 O   0  0  0  0  0  0  0  0  0  0  0  0
   -1.4100   20.3620  -31.5960 O   0  0  0  0  0  0  0  0  0  0  0  0
    0.3450   20.1480  -33.6000 N   0  0  0  0  0  0  0  0  0  0  0  0
    0.5810   19.1170  -34.6360 C   0  0  0  0  0  0  0  0  0  0  0  0
    0.6270   19.7010  -36.0590 C   0  0  0  0  0  0  0  0  0  0  0  0
   -0.2320   20.8150  -36.1580 O   0  0  0  0  0  0  0  0  0  0  0  0
    0.2810   21.8970  -35.4020 C   0  0  0  0  0  0  0  0  0  0  0  0
    0.8220   21.4800  -34.0120 C   0  0  0  0  0  0  0  0  0  0  0  0
   -1.8130   17.4950  -32.8080 C   0  0  0  0  0  0  0  0  0  0  0  0
   -2.4400   16.2930  -33.1490 C   0  0  0  0  0  0  0  0  0  0  0  0
   -6.4130   17.0410  -33.7410 N   0  0  0  0  0  0  0  0  0  0  0  0
   -6.6870   18.3350  -33.1770 C   0  0  0  0  0  0  0  0  0  0  0  0
   -7.6490   18.4520  -32.1620 C   0  0  0  0  0  0  0  0  0  0  0  0
   -7.9430   19.6970  -31.6000 C   0  0  0  0  0  0  0  0  0  0  0  0
   -7.2820   20.8480  -32.0510 C   0  0  0  0  0  0  0  0  0  0  0  0
   -7.6180   22.4160  -31.3140 S   0  0  0  0  0  0  0  0  0  0  0  0
   -7.9590   23.4080  -32.3910 O   0  0  0  0  0  0  0  0  0  0  0  0
   -8.8080   22.2910  -30.4030 O   0  0  0  0  0  0  0  0  0  0  0  0
   -6.2460   23.0070  -30.4040 N   0  0  0  0  0  0  0  0  0  0  0  0
   -6.4290   24.4160  -29.9900 C   0  0  0  0  0  0  0  0  0  0  0  0
   -5.5840   25.3840  -30.8370 C   0  0  0  0  0  0  0  0  0  0  0  0
   -4.1910   25.1050  -30.7910 O   0  0  0  0  0  0  0  0  0  0  0  0
   -3.8870   23.7230  -30.6510 C   0  0  0  0  0  0  0  0  0  0  0  0
   -4.9960   22.7840  -31.1540 C   0  0  0  0  0  0  0  0  0  0  0  0
   -6.3470   20.7430  -33.0910 C   0  0  0  0  0  0  0  0  0  0  0  0
   -6.0560   19.4980  -33.6560 C   0  0  0  0  0  0  0  0  0  0  0  0
   -5.1909   13.9261  -33.0852 H   0  0  0  0  0  0  0  0  0  0  0  0
   -6.1290   14.5016  -34.5145 H   0  0  0  0  0  0  0  0  0  0  0  0
   -3.3354   14.1236  -34.3602 H   0  0  0  0  0  0  0  0  0  0  0  0
   -4.2544   14.9771  -35.6583 H   0  0  0  0  0  0  0  0  0  0  0  0
   -4.3678   17.4011  -35.7507 H   0  0  0  0  0  0  0  0  0  0  0  0
   -3.2522   19.5461  -35.1352 H   0  0  0  0  0  0  0  0  0  0  0  0
    1.5414   18.6229  -34.4277 H   0  0  0  0  0  0  0  0  0  0  0  0
   -0.2596   18.4086  -34.5958 H   0  0  0  0  0  0  0  0  0  0  0  0
    1.6559   20.0143  -36.2897 H   0  0  0  0  0  0  0  0  0  0  0  0
    0.2989   18.9311  -36.7729 H   0  0  0  0  0  0  0  0  0  0  0  0
    1.1013   22.3602  -35.9699 H   0  0  0  0  0  0  0  0  0  0  0  0
   -0.5526   22.5934  -35.2284 H   0  0  0  0  0  0  0  0  0  0  0  0
    1.9212   21.4652  -34.0507 H   0  0  0  0  0  0  0  0  0  0  0  0
    0.4543   22.2103  -33.2761 H   0  0  0  0  0  0  0  0  0  0  0  0
   -1.0859   17.5194  -31.9830 H   0  0  0  0  0  0  0  0  0  0  0  0
   -2.2002   15.3740  -32.5941 H   0  0  0  0  0  0  0  0  0  0  0  0
   -6.8400   16.8110  -34.6670 H   0  0  0  0  0  0  0  0  0  0  0  0
   -8.1766   17.5551  -31.8055 H   0  0  0  0  0  0  0  0  0  0  0  0
   -8.6954   19.7742  -30.8013 H   0  0  0  0  0  0  0  0  0  0  0  0
   -7.4905   24.6828  -30.1000 H   0  0  0  0  0  0  0  0  0  0  0  0
   -6.1004   24.5066  -28.9441 H   0  0  0  0  0  0  0  0  0  0  0  0
   -5.9190   25.3160  -31.8826 H   0  0  0  0  0  0  0  0  0  0  0  0
   -5.7276   26.3914  -30.4193 H   0  0  0  0  0  0  0  0  0  0  0  0
   -2.9700   23.5112  -31.2204 H   0  0  0  0  0  0  0  0  0  0  0  0
   -3.7713   23.5303  -29.5742 H   0  0  0  0  0  0  0  0  0  0  0  0
   -5.1760   22.9769  -32.2219 H   0  0  0  0  0  0  0  0  0  0  0  0
   -4.6738   21.7430  -31.0039 H   0  0  0  0  0  0  0  0  0  0  0  0
   -5.8400   21.6451  -33.4641 H   0  0  0  0  0  0  0  0  0  0  0  0
   -5.3300   19.4270  -34.4793 H   0  0  0  0  0  0  0  0  0  0  0  0
  1  2  2  0
  2  3  1  0
  3  4  1  0
  4  5  1  0
  5  6  2  0
  6  7  1  0
  7  8  2  0
  8  9  1  0
  9 10  2  0
  9 11  2  0
  9 12  1  0
 12 13  1  0
 13 14  1  0
 14 15  1  0
 15 16  1  0
 16 17  1  0
  8 18  1  0
 18 19  2  0
  2 20  1  0
 20 21  1  0
 21 22  2  0
 22 23  1  0
 23 24  2  0
 24 25  1  0
 25 26  2  0
 25 27  2  0
 25 28  1  0
 28 29  1  0
 29 30  1  0
 30 31  1  0
 31 32  1  0
 32 33  1  0
 24 34  1  0
 34 35  2  0
 19  5  1  0
 35 21  1  0
 17 12  1  0
 33 28  1  0
  3 36  1  0
  3 37  1  0
  4 38  1  0
  4 39  1  0
  6 40  1  0
  7 41  1  0
 13 42  1  0
 13 43  1  0
 14 44  1  0
 14 45  1  0
 16 46  1  0
 16 47  1  0
 17 48  1  0
 17 49  1  0
 18 50  1  0
 19 51  1  0
 20 52  1  0
 22 53  1  0
 23 54  1  0
 29 55  1  0
 29 56  1  0
 30 57  1  0
 30 58  1  0
 32 59  1  0
 32 60  1  0
 33 61  1  0
 33 62  1  0
 34 63  1  0
 35 64  1  0
M  END
>  <UniqueID>  (16) 
15

>  <SMILES>  (16) 
O=C(CCc1ccc(S(=O)(=O)N2CCOCC2)cc1)Nc1ccc(S(=O)(=O)N2CCOCC2)cc1

>  <Energy>  (16) 
87.75612547918652

>  <Genealogy>  (16) 
O=C(CCc1ccc(S(=O)(=O)N2CCOCC2)cc1)Nc1ccc(S(=O)(=O)N2CCOCC2)cc1 (3D coordinates assigned)
O=C(CCc1ccc(S(=O)(=O)N2CCOCC2)cc1)Nc1ccc(S(=O)(=O)N2CCOCC2)cc1 (nonaromatic ring conformer: 87.75612547918652 kcal/mol)

>  <smiles>  (16) 
O=C(CCc1ccc(S(=O)(=O)N2CCOCC2)cc1)Nc1ccc(S(=O)(=O)N2CCOCC2)cc1

>  <score_type>  (16) 
oracle

>  <origin>  (16) 
adgpu

>  <m_score__min__energy>  (16) 
-11.44

>  <m_primary>  (16) 
energy

$$$$
16:0
     RDKit          3D

 39 41  0  0  0  0  0  0  0  0999 V2000
   -9.7068   23.3669  -33.0989 H   0  0  0  0  0  0  0  0  0  0  0  0
   -8.9400   23.1420  -32.3430 C   0  0  0  0  0  0  0  0  0  0  0  0
   -7.7440   23.7860  -32.3760 N   0  0  0  0  0  0  0  0  0  0  0  0
   -6.7570   23.5510  -31.4680 C   0  0  0  0  0  0  0  0  0  0  0  0
   -5.6470   24.2300  -31.5920 N   0  0  0  0  0  0  0  0  0  0  0  0
   -4.4300   24.2260  -30.8220 C   0  0  0  0  0  0  0  0  0  0  0  0
   -3.8670   25.2960  -30.4760 O   0  0  0  0  0  0  0  0  0  0  0  0
   -3.8620   22.9300  -30.3880 C   0  0  0  0  0  0  0  0  0  0  0  0
   -3.6180   22.7270  -29.0160 C   0  0  0  0  0  0  0  0  0  0  0  0
   -3.9099   23.5008  -28.2907 H   0  0  0  0  0  0  0  0  0  0  0  0
   -3.0090   21.5530  -28.5670 C   0  0  0  0  0  0  0  0  0  0  0  0
   -2.8275   21.4050  -27.4922 H   0  0  0  0  0  0  0  0  0  0  0  0
   -2.6310   20.5690  -29.4780 C   0  0  0  0  0  0  0  0  0  0  0  0
   -2.1366   19.6526  -29.1235 H   0  0  0  0  0  0  0  0  0  0  0  0
   -2.8790   20.7450  -30.8390 C   0  0  0  0  0  0  0  0  0  0  0  0
   -2.5714   19.9676  -31.5538 H   0  0  0  0  0  0  0  0  0  0  0  0
   -3.5170   21.9040  -31.3050 C   0  0  0  0  0  0  0  0  0  0  0  0
   -3.9060   22.0020  -33.0650 S   0  0  0  0  0  0  0  0  0  0  0  0
   -4.7640   20.4150  -33.0890 C   0  0  0  0  0  0  0  0  0  0  0  0
   -6.1010   20.3670  -32.6700 C   0  0  0  0  0  0  0  0  0  0  0  0
   -6.5932   21.2833  -32.3121 H   0  0  0  0  0  0  0  0  0  0  0  0
   -6.8170   19.1610  -32.7030 C   0  0  0  0  0  0  0  0  0  0  0  0
   -8.2400   19.1150  -32.2330 C   0  0  0  0  0  0  0  0  0  0  0  0
   -8.2631   19.1143  -31.1332 H   0  0  0  0  0  0  0  0  0  0  0  0
   -8.7795   19.9962  -32.6105 H   0  0  0  0  0  0  0  0  0  0  0  0
   -8.7215   18.2008  -32.6105 H   0  0  0  0  0  0  0  0  0  0  0  0
   -6.1700   17.9870  -33.1120 C   0  0  0  0  0  0  0  0  0  0  0  0
   -6.7202   17.0346  -33.1250 H   0  0  0  0  0  0  0  0  0  0  0  0
   -4.8300   18.0210  -33.5030 C   0  0  0  0  0  0  0  0  0  0  0  0
   -4.3298   17.0948  -33.8223 H   0  0  0  0  0  0  0  0  0  0  0  0
   -4.1190   19.2280  -33.4910 C   0  0  0  0  0  0  0  0  0  0  0  0
   -2.7200   19.2100  -33.8370 C   0  0  0  0  0  0  0  0  0  0  0  0
   -1.5950   19.1850  -34.1090 N   0  0  0  0  0  0  0  0  0  0  0  0
   -6.9870   22.5960  -30.4510 C   0  0  0  0  0  0  0  0  0  0  0  0
   -6.2082   22.3824  -29.7041 H   0  0  0  0  0  0  0  0  0  0  0  0
   -8.2120   21.9260  -30.4030 C   0  0  0  0  0  0  0  0  0  0  0  0
   -8.4006   21.1829  -29.6142 H   0  0  0  0  0  0  0  0  0  0  0  0
   -9.1950   22.1970  -31.3520 C   0  0  0  0  0  0  0  0  0  0  0  0
  -10.1607   21.6712  -31.3192 H   0  0  0  0  0  0  0  0  0  0  0  0
  1  2  1  0
  2  3  1  0
  3  4  1  0
  4  5  2  0
  5  6  1  0
  6  7  2  0
  6  8  1  0
  8  9  2  0
  9 10  1  0
  9 11  1  0
 11 12  1  0
 11 13  2  0
 13 14  1  0
 13 15  1  0
 15 16  1  0
 15 17  2  0
 17 18  1  0
 18 19  1  0
 19 20  2  0
 20 21  1  0
 20 22  1  0
 22 23  1  0
 23 24  1  0
 23 25  1  0
 23 26  1  0
 22 27  2  0
 27 28  1  0
 27 29  1  0
 29 30  1  0
 29 31  2  0
 31 32  1  0
 32 33  3  0
  4 34  1  0
 34 35  1  0
 34 36  2  0
 36 37  1  0
 36 38  1  0
 38 39  1  0
 38  2  2  0
 17  8  1  0
 31 19  1  0
M  CHG  1   3  -1
M  END
>  <UniqueID>  (17) 
16

>  <SMILES>  (17) 
Cc1ccc(C#N)c(Sc2ccccc2C(=O)/N=c2\cccc[n-]2)c1

>  <Energy>  (17) 
50.172628377930266

>  <Genealogy>  (17) 
Cc1ccc(C#N)c(Sc2ccccc2C(=O)N=c2cccc[n-]2)c1 (protonated)
Cc1ccc(C#N)c(Sc2ccccc2C(=O)/N=c2\cccc[n-]2)c1 (cis-trans isomerization)
Cc1ccc(C#N)c(Sc2ccccc2C(=O)/N=c2\cccc[n-]2)c1 (3D coordinates assigned)
Cc1ccc(C#N)c(Sc2ccccc2C(=O)/N=c2\cccc[n-]2)c1 (optimized conformer: 50.172628377930266 kcal/mol)

>  <smiles>  (17) 
Cc1ccc(C#N)c(Sc2ccccc2C(=O)N=c2cccc[nH]2)c1

>  <score_type>  (17) 
oracle

>  <origin>  (17) 
adgpu

>  <m_score__min__energy>  (17) 
-10.390000000000001

>  <m_primary>  (17) 
energy

$$$$
17:0
     RDKit          3D

 49 52  0  0  0  0  0  0  0  0999 V2000
   -5.6440   25.5260  -30.8650 O   0  0  0  0  0  0  0  0  0  0  0  0
   -4.7190   24.6760  -30.7930 C   0  0  0  0  0  0  0  0  0  0  0  0
   -4.8210   23.5050  -31.4690 N   0  0  0  0  0  0  0  0  0  0  0  0
   -3.8390   22.5640  -31.4120 C   0  0  0  0  0  0  0  0  0  0  0  0
   -3.9980   21.3010  -32.1790 C   0  0  0  0  0  0  0  0  0  0  0  0
   -3.0420   20.8990  -33.1320 C   0  0  0  0  0  0  0  0  0  0  0  0
   -3.1990   19.6990  -33.8300 C   0  0  0  0  0  0  0  0  0  0  0  0
   -4.3050   18.8840  -33.5850 C   0  0  0  0  0  0  0  0  0  0  0  0
   -5.2620   19.2640  -32.6390 C   0  0  0  0  0  0  0  0  0  0  0  0
   -6.6380   18.2100  -32.3180 S   0  0  0  0  0  0  0  0  0  0  0  0
   -6.4870   16.9220  -33.0800 O   0  0  0  0  0  0  0  0  0  0  0  0
   -6.6660   17.8960  -30.8470 O   0  0  0  0  0  0  0  0  0  0  0  0
   -8.1220   19.0160  -32.7790 N   0  0  0  0  0  0  0  0  0  0  0  0
   -9.0910   19.0200  -31.6750 C   0  0  0  0  0  0  0  0  0  0  0  0
   -8.9090   20.3210  -30.9060 C   0  0  0  0  0  0  0  0  0  0  0  0
   -8.1280   21.2380  -31.8330 C   0  0  0  0  0  0  0  0  0  0  0  0
   -7.8780   20.4290  -33.0970 C   0  0  0  0  0  0  0  0  0  0  0  0
   -5.1040   20.4670  -31.9340 C   0  0  0  0  0  0  0  0  0  0  0  0
   -2.6920   22.8230  -30.6430 C   0  0  0  0  0  0  0  0  0  0  0  0
   -2.6020   24.0360  -29.9390 C   0  0  0  0  0  0  0  0  0  0  0  0
   -1.4490   24.3540  -29.1280 N   0  0  0  0  0  0  0  0  0  0  0  0
   -1.2880   25.7180  -28.6100 C   0  0  0  0  0  0  0  0  0  0  0  0
   -0.4620   25.7020  -27.3200 C   0  0  0  0  0  0  0  0  0  0  0  0
    0.7450   24.9910  -27.5070 O   0  0  0  0  0  0  0  0  0  0  0  0
    0.4590   23.6290  -27.7500 C   0  0  0  0  0  0  0  0  0  0  0  0
   -0.2870   23.4550  -29.0760 C   0  0  0  0  0  0  0  0  0  0  0  0
   -3.6220   24.9310  -30.0370 N   0  0  0  0  0  0  0  0  0  0  0  0
   -2.1657   21.5343  -33.3281 H   0  0  0  0  0  0  0  0  0  0  0  0
   -2.4486   19.3957  -34.5749 H   0  0  0  0  0  0  0  0  0  0  0  0
   -4.4242   17.9403  -34.1375 H   0  0  0  0  0  0  0  0  0  0  0  0
   -8.5220   18.5220  -33.6100 H   0  0  0  0  0  0  0  0  0  0  0  0
  -10.1143   18.9605  -32.0741 H   0  0  0  0  0  0  0  0  0  0  0  0
   -8.9273   18.1555  -31.0148 H   0  0  0  0  0  0  0  0  0  0  0  0
   -9.8864   20.7631  -30.6626 H   0  0  0  0  0  0  0  0  0  0  0  0
   -8.3824   20.1606  -29.9537 H   0  0  0  0  0  0  0  0  0  0  0  0
   -8.7144   22.1395  -32.0642 H   0  0  0  0  0  0  0  0  0  0  0  0
   -7.1870   21.5744  -31.3733 H   0  0  0  0  0  0  0  0  0  0  0  0
   -8.5623   20.7573  -33.8933 H   0  0  0  0  0  0  0  0  0  0  0  0
   -6.8453   20.5720  -33.4477 H   0  0  0  0  0  0  0  0  0  0  0  0
   -5.8520   20.7606  -31.1828 H   0  0  0  0  0  0  0  0  0  0  0  0
   -1.8761   22.0869  -30.5927 H   0  0  0  0  0  0  0  0  0  0  0  0
   -0.7739   26.3338  -29.3626 H   0  0  0  0  0  0  0  0  0  0  0  0
   -2.2812   26.1386  -28.3941 H   0  0  0  0  0  0  0  0  0  0  0  0
   -0.2297   26.7366  -27.0274 H   0  0  0  0  0  0  0  0  0  0  0  0
   -1.0467   25.2041  -26.5325 H   0  0  0  0  0  0  0  0  0  0  0  0
    1.4023   23.0647  -27.7908 H   0  0  0  0  0  0  0  0  0  0  0  0
   -0.1787   23.2534  -26.9362 H   0  0  0  0  0  0  0  0  0  0  0  0
    0.3922   23.6910  -29.9084 H   0  0  0  0  0  0  0  0  0  0  0  0
   -0.6348   22.4146  -29.1577 H   0  0  0  0  0  0  0  0  0  0  0  0
  1  2  2  0
  2  3  1  0
  3  4  2  0
  4  5  1  0
  5  6  2  0
  6  7  1  0
  7  8  2  0
  8  9  1  0
  9 10  1  0
 10 11  2  0
 10 12  2  0
 10 13  1  0
 13 14  1  0
 14 15  1  0
 15 16  1  0
 16 17  1  0
  9 18  2  0
  4 19  1  0
 19 20  2  0
 20 21  1  0
 21 22  1  0
 22 23  1  0
 23 24  1  0
 24 25  1  0
 25 26  1  0
 20 27  1  0
 27  2  1  0
 18  5  1  0
 26 21  1  0
 17 13  1  0
  6 28  1  0
  7 29  1  0
  8 30  1  0
 13 31  1  0
 14 32  1  0
 14 33  1  0
 15 34  1  0
 15 35  1  0
 16 36  1  0
 16 37  1  0
 17 38  1  0
 17 39  1  0
 18 40  1  0
 19 41  1  0
 22 42  1  0
 22 43  1  0
 23 44  1  0
 23 45  1  0
 25 46  1  0
 25 47  1  0
 26 48  1  0
 26 49  1  0
M  CHG  2  13   1  27  -1
M  END
>  <UniqueID>  (18) 
17

>  <SMILES>  (18) 
O=c1nc(-c2cccc(S(=O)(=O)[NH+]3CCCC3)c2)cc(N2CCOCC2)[n-]1

>  <Energy>  (18) 
61.20784363540839

>  <Genealogy>  (18) 
O=c1nc(-c2cccc(S(=O)(=O)[NH+]3CCCC3)c2)cc(N2CCOCC2)[n-]1 (protonated)
O=c1nc(-c2cccc(S(=O)(=O)[NH+]3CCCC3)c2)cc(N2CCOCC2)[n-]1 (3D coordinates assigned)
O=c1nc(-c2cccc(S(=O)(=O)[NH+]3CCCC3)c2)cc(N2CCOCC2)[n-]1 (nonaromatic ring conformer: 61.20784363540839 kcal/mol)

>  <smiles>  (18) 
O=c1nc(-c2cccc(S(=O)(=O)N3CCCC3)c2)cc(N2CCOCC2)[nH]1

>  <score_type>  (18) 
oracle

>  <origin>  (18) 
adgpu

>  <m_score__min__energy>  (18) 
-10.24

>  <m_primary>  (18) 
energy

$$$$
18:0
     RDKit          3D

 46 48  0  0  0  0  0  0  0  0999 V2000
   -0.6960   23.9950  -24.9120 C   0  0  0  0  0  0  0  0  0  0  0  0
   -1.2550   24.2740  -26.2820 C   0  0  0  0  0  0  0  0  0  0  0  0
   -2.1300   23.3310  -26.8440 C   0  0  0  0  0  0  0  0  0  0  0  0
   -2.7190   23.5570  -28.0860 C   0  0  0  0  0  0  0  0  0  0  0  0
   -2.4690   24.7380  -28.7830 C   0  0  0  0  0  0  0  0  0  0  0  0
   -3.1170   24.9350  -30.0470 N   0  0  0  0  0  0  0  0  0  0  0  0
   -3.7070   23.9020  -30.8470 C   0  0  0  0  0  0  0  0  0  0  0  0
   -3.0740   22.8400  -31.0820 O   0  0  0  0  0  0  0  0  0  0  0  0
   -5.0270   24.0580  -31.3800 N   0  0  0  0  0  0  0  0  0  0  0  0
   -5.9170   22.9980  -31.7570 C   0  0  0  0  0  0  0  0  0  0  0  0
   -5.4710   21.8810  -32.4880 C   0  0  0  0  0  0  0  0  0  0  0  0
   -6.3590   20.8460  -32.8010 C   0  0  0  0  0  0  0  0  0  0  0  0
   -7.6890   20.9060  -32.3740 C   0  0  0  0  0  0  0  0  0  0  0  0
   -8.5590   19.8640  -32.6870 O   0  0  0  0  0  0  0  0  0  0  0  0
   -8.1310   22.0080  -31.6300 C   0  0  0  0  0  0  0  0  0  0  0  0
   -7.2460   23.0420  -31.3160 C   0  0  0  0  0  0  0  0  0  0  0  0
   -1.5460   25.6660  -28.2670 C   0  0  0  0  0  0  0  0  0  0  0  0
   -1.2360   26.8060  -29.0040 O   0  0  0  0  0  0  0  0  0  0  0  0
   -0.9160   25.4380  -27.0240 C   0  0  0  0  0  0  0  0  0  0  0  0
    0.2610   26.6400  -26.4300 S   0  0  0  0  0  0  0  0  0  0  0  0
   -0.0860   27.1230  -25.0490 O   0  0  0  0  0  0  0  0  0  0  0  0
    0.2530   27.8110  -27.3730 O   0  0  0  0  0  0  0  0  0  0  0  0
    1.8590   25.9350  -26.3850 N   0  0  0  0  0  0  0  0  0  0  0  0
    1.9200   24.7660  -27.2750 C   0  0  0  0  0  0  0  0  0  0  0  0
    3.3370   24.1540  -27.2420 C   0  0  0  0  0  0  0  0  0  0  0  0
    4.1460   24.7190  -26.2250 O   0  0  0  0  0  0  0  0  0  0  0  0
    3.4670   24.6620  -24.9850 C   0  0  0  0  0  0  0  0  0  0  0  0
    2.2020   25.5430  -25.0060 C   0  0  0  0  0  0  0  0  0  0  0  0
   -1.4042   24.3484  -24.1481 H   0  0  0  0  0  0  0  0  0  0  0  0
   -0.5388   22.9128  -24.7935 H   0  0  0  0  0  0  0  0  0  0  0  0
    0.2634   24.5200  -24.7935 H   0  0  0  0  0  0  0  0  0  0  0  0
   -2.3531   22.4029  -26.2973 H   0  0  0  0  0  0  0  0  0  0  0  0
   -3.3864   22.7978  -28.5199 H   0  0  0  0  0  0  0  0  0  0  0  0
   -4.4221   21.8216  -32.8139 H   0  0  0  0  0  0  0  0  0  0  0  0
   -6.0095   19.9819  -33.3851 H   0  0  0  0  0  0  0  0  0  0  0  0
   -8.5330   19.4090  -33.5920 H   0  0  0  0  0  0  0  0  0  0  0  0
   -9.1767   22.0589  -31.2926 H   0  0  0  0  0  0  0  0  0  0  0  0
   -7.5950   23.8969  -30.7182 H   0  0  0  0  0  0  0  0  0  0  0  0
    1.1901   24.0142  -26.9402 H   0  0  0  0  0  0  0  0  0  0  0  0
    1.6851   25.0805  -28.3026 H   0  0  0  0  0  0  0  0  0  0  0  0
    3.2504   23.0719  -27.0641 H   0  0  0  0  0  0  0  0  0  0  0  0
    3.8167   24.3665  -28.2088 H   0  0  0  0  0  0  0  0  0  0  0  0
    3.1767   23.6207  -24.7815 H   0  0  0  0  0  0  0  0  0  0  0  0
    4.1406   25.0351  -24.1995 H   0  0  0  0  0  0  0  0  0  0  0  0
    1.3629   24.9793  -24.5722 H   0  0  0  0  0  0  0  0  0  0  0  0
    2.3966   26.4529  -24.4192 H   0  0  0  0  0  0  0  0  0  0  0  0
  1  2  1  0
  2  3  2  0
  3  4  1  0
  4  5  2  0
  5  6  1  0
  6  7  1  0
  7  8  2  0
  7  9  1  0
  9 10  1  0
 10 11  2  0
 11 12  1  0
 12 13  2  0
 13 14  1  0
 13 15  1  0
 15 16  2  0
  5 17  1  0
 17 18  1  0
 17 19  2  0
 19 20  1  0
 20 21  2  0
 20 22  2  0
 20 23  1  0
 23 24  1  0
 24 25  1  0
 25 26  1  0
 26 27  1  0
 27 28  1  0
 19  2  1  0
 28 23  1  0
 16 10  1  0
  1 29  1  0
  1 30  1  0
  1 31  1  0
  3 32  1  0
  4 33  1  0
 11 34  1  0
 12 35  1  0
 14 36  1  0
 15 37  1  0
 16 38  1  0
 24 39  1  0
 24 40  1  0
 25 41  1  0
 25 42  1  0
 27 43  1  0
 27 44  1  0
 28 45  1  0
 28 46  1  0
M  CHG  3   6  -1   9  -1  18  -1
M  END
>  <UniqueID>  (19) 
18

>  <SMILES>  (19) 
Cc1ccc([N-]C(=O)[N-]c2ccc(O)cc2)c([O-])c1S(=O)(=O)N1CCOCC1

>  <Energy>  (19) 
67.57052429967185

>  <Genealogy>  (19) 
Cc1ccc([N-]C(=O)[N-]c2ccc(O)cc2)c([O-])c1S(=O)(=O)N1CCOCC1 (protonated)
Cc1ccc([N-]C(=O)[N-]c2ccc(O)cc2)c([O-])c1S(=O)(=O)N1CCOCC1 (3D coordinates assigned)
Cc1ccc([N-]C(=O)[N-]c2ccc(O)cc2)c([O-])c1S(=O)(=O)N1CCOCC1 (nonaromatic ring conformer: 67.57052429967185 kcal/mol)

>  <smiles>  (19) 
Cc1ccc(NC(=O)Nc2ccc(O)cc2)c(O)c1S(=O)(=O)N1CCOCC1

>  <score_type>  (19) 
oracle

>  <origin>  (19) 
adgpu

>  <m_score__min__energy>  (19) 
-14.210000000000001

>  <m_primary>  (19) 
energy

$$$$
19:0
     RDKit          3D

 55 57  0  0  0  0  0  0  0  0999 V2000
   -0.5900   26.1650  -23.6330 C   0  0  0  0  0  0  0  0  0  0  0  0
   -1.2060   25.6430  -24.8590 N   0  0  0  0  0  0  0  0  0  0  0  0
   -1.1400   26.6530  -25.9230 C   0  0  0  0  0  0  0  0  0  0  0  0
   -0.3580   24.2070  -25.3730 S   0  0  0  0  0  0  0  0  0  0  0  0
    1.1000   24.5190  -25.5660 O   0  0  0  0  0  0  0  0  0  0  0  0
   -0.4830   23.1290  -24.3310 O   0  0  0  0  0  0  0  0  0  0  0  0
   -1.0190   23.6380  -26.9050 C   0  0  0  0  0  0  0  0  0  0  0  0
   -0.2310   22.8490  -27.7530 C   0  0  0  0  0  0  0  0  0  0  0  0
   -0.7410   22.4050  -28.9770 C   0  0  0  0  0  0  0  0  0  0  0  0
   -2.0410   22.7590  -29.3720 C   0  0  0  0  0  0  0  0  0  0  0  0
   -2.6080   22.2500  -30.6690 C   0  0  0  0  0  0  0  0  0  0  0  0
   -3.5170   23.2380  -31.2510 N   0  0  0  0  0  0  0  0  0  0  0  0
   -4.9400   23.0350  -31.3350 C   0  0  0  0  0  0  0  0  0  0  0  0
   -5.4540   21.8160  -31.8160 C   0  0  0  0  0  0  0  0  0  0  0  0
   -6.8340   21.5630  -31.8190 C   0  0  0  0  0  0  0  0  0  0  0  0
   -7.3480   20.3130  -32.3210 N   0  0  0  0  0  0  0  0  0  0  0  0
   -8.4810   19.6600  -31.6500 C   0  0  0  0  0  0  0  0  0  0  0  0
   -8.5840   18.1870  -32.0730 C   0  0  0  0  0  0  0  0  0  0  0  0
   -7.2410   17.5990  -32.1910 N   0  0  0  0  0  0  0  0  0  0  0  0
   -6.4420   18.2140  -33.2740 C   0  0  0  0  0  0  0  0  0  0  0  0
   -6.7890   19.6950  -33.5290 C   0  0  0  0  0  0  0  0  0  0  0  0
   -7.7100   22.5470  -31.3410 C   0  0  0  0  0  0  0  0  0  0  0  0
   -7.2160   23.7640  -30.8710 C   0  0  0  0  0  0  0  0  0  0  0  0
   -5.8390   24.0300  -30.8750 C   0  0  0  0  0  0  0  0  0  0  0  0
   -5.3770   25.3230  -30.4480 N   0  0  0  0  0  0  0  0  0  0  0  0
   -6.1130   26.0620  -29.7610 O   0  0  0  0  0  0  0  0  0  0  0  0
   -4.0550   25.6710  -30.6110 O   0  0  0  0  0  0  0  0  0  0  0  0
   -2.8310   23.5420  -28.5170 C   0  0  0  0  0  0  0  0  0  0  0  0
   -2.3210   23.9850  -27.2930 C   0  0  0  0  0  0  0  0  0  0  0  0
   -1.0969   25.7354  -22.7564 H   0  0  0  0  0  0  0  0  0  0  0  0
    0.4749   25.8901  -23.6120 H   0  0  0  0  0  0  0  0  0  0  0  0
   -0.6864   27.2606  -23.6120 H   0  0  0  0  0  0  0  0  0  0  0  0
   -1.0745   27.6550  -25.4739 H   0  0  0  0  0  0  0  0  0  0  0  0
   -0.2518   26.4717  -26.5461 H   0  0  0  0  0  0  0  0  0  0  0  0
   -2.0443   26.5888  -26.5461 H   0  0  0  0  0  0  0  0  0  0  0  0
    0.7925   22.5778  -27.4550 H   0  0  0  0  0  0  0  0  0  0  0  0
   -0.1213   21.7759  -29.6329 H   0  0  0  0  0  0  0  0  0  0  0  0
   -1.7852   22.0556  -31.3728 H   0  0  0  0  0  0  0  0  0  0  0  0
   -3.1663   21.3224  -30.4747 H   0  0  0  0  0  0  0  0  0  0  0  0
   -3.1180   24.1460  -31.5830 H   0  0  0  0  0  0  0  0  0  0  0  0
   -4.7625   21.0494  -32.1957 H   0  0  0  0  0  0  0  0  0  0  0  0
   -8.3361   19.7141  -30.5609 H   0  0  0  0  0  0  0  0  0  0  0  0
   -9.4087   20.1769  -31.9366 H   0  0  0  0  0  0  0  0  0  0  0  0
   -9.1593   17.6312  -31.3179 H   0  0  0  0  0  0  0  0  0  0  0  0
   -9.0897   18.1274  -33.0481 H   0  0  0  0  0  0  0  0  0  0  0  0
   -7.3390   16.5740  -32.3810 H   0  0  0  0  0  0  0  0  0  0  0  0
   -6.7370   17.7070  -31.2800 H   0  0  0  0  0  0  0  0  0  0  0  0
   -5.3781   18.1473  -33.0027 H   0  0  0  0  0  0  0  0  0  0  0  0
   -6.6719   17.6638  -34.1984 H   0  0  0  0  0  0  0  0  0  0  0  0
   -5.8760   20.2345  -33.8210 H   0  0  0  0  0  0  0  0  0  0  0  0
   -7.5382   19.7490  -34.3326 H   0  0  0  0  0  0  0  0  0  0  0  0
   -8.7937   22.3585  -31.3364 H   0  0  0  0  0  0  0  0  0  0  0  0
   -7.9151   24.5243  -30.4926 H   0  0  0  0  0  0  0  0  0  0  0  0
   -3.8568   23.8087  -28.8112 H   0  0  0  0  0  0  0  0  0  0  0  0
   -2.9427   24.6074  -26.6326 H   0  0  0  0  0  0  0  0  0  0  0  0
  1  2  1  0
  2  3  1  0
  2  4  1  0
  4  5  2  0
  4  6  2  0
  4  7  1  0
  7  8  2  0
  8  9  1  0
  9 10  2  0
 10 11  1  0
 11 12  1  0
 12 13  1  0
 13 14  2  0
 14 15  1  0
 15 16  1  0
 16 17  1  0
 17 18  1  0
 18 19  1  0
 19 20  1  0
 20 21  1  0
 15 22  2  0
 22 23  1  0
 23 24  2  0
 24 25  1  0
 25 26  2  0
 25 27  1  0
 10 28  1  0
 28 29  2  0
 29  7  1  0
 24 13  1  0
 21 16  1  0
  1 30  1  0
  1 31  1  0
  1 32  1  0
  3 33  1  0
  3 34  1  0
  3 35  1  0
  8 36  1  0
  9 37  1  0
 11 38  1  0
 11 39  1  0
 12 40  1  0
 14 41  1  0
 17 42  1  0
 17 43  1  0
 18 44  1  0
 18 45  1  0
 19 46  1  0
 19 47  1  0
 20 48  1  0
 20 49  1  0
 21 50  1  0
 21 51  1  0
 22 52  1  0
 23 53  1  0
 28 54  1  0
 29 55  1  0
M  CHG  3  19   1  25   1  27  -1
M  END
>  <UniqueID>  (20) 
19

>  <SMILES>  (20) 
CN(C)S(=O)(=O)c1ccc(CNc2cc(N3CC[NH2+]CC3)ccc2[N+](=O)[O-])cc1

>  <Energy>  (20) 
67.30666978860684

>  <Genealogy>  (20) 
CN(C)S(=O)(=O)c1ccc(CNc2cc(N3CC[NH2+]CC3)ccc2[N+](=O)[O-])cc1 (protonated)
CN(C)S(=O)(=O)c1ccc(CNc2cc(N3CC[NH2+]CC3)ccc2[N+](=O)[O-])cc1 (3D coordinates assigned)
CN(C)S(=O)(=O)c1ccc(CNc2cc(N3CC[NH2+]CC3)ccc2[N+](=O)[O-])cc1 (nonaromatic ring conformer: 67.30666978860684 kcal/mol)

>  <smiles>  (20) 
CN(C)S(=O)(=O)c1ccc(CNc2cc(N3CCNCC3)ccc2[N+](=O)[O-])cc1

>  <score_type>  (20) 
oracle

>  <origin>  (20) 
adgpu

>  <m_score__min__energy>  (20) 
-9.3499999999999996

>  <m_primary>  (20) 
energy

$$$$
20:0
     RDKit          3D

 45 47  0  0  0  0  0  0  0  0999 V2000
   -1.3540   20.9710  -28.7650 O   0  0  0  0  0  0  0  0  0  0  0  0
   -1.9440   21.9830  -29.7070 S   0  0  0  0  0  0  0  0  0  0  0  0
   -0.9590   23.1020  -29.8890 O   0  0  0  0  0  0  0  0  0  0  0  0
   -3.4090   22.6150  -29.0220 N   0  0  0  0  0  0  0  0  0  0  0  0
   -4.4410   23.2720  -29.7840 C   0  0  0  0  0  0  0  0  0  0  0  0
   -5.6360   22.6120  -30.1300 C   0  0  0  0  0  0  0  0  0  0  0  0
   -6.6250   23.2610  -30.8810 C   0  0  0  0  0  0  0  0  0  0  0  0
   -8.0960   22.4020  -31.3420 S   0  0  0  0  0  0  0  0  0  0  0  0
   -9.0550   23.3690  -31.9810 O   0  0  0  0  0  0  0  0  0  0  0  0
   -8.7520   21.8440  -30.1090 O   0  0  0  0  0  0  0  0  0  0  0  0
   -7.7530   21.0940  -32.4500 N   0  0  0  0  0  0  0  0  0  0  0  0
   -8.8790   20.1290  -32.5210 C   0  0  0  0  0  0  0  0  0  0  0  0
   -8.6110   18.8360  -31.7350 C   0  0  0  0  0  0  0  0  0  0  0  0
   -7.3430   18.1290  -32.2410 C   0  0  0  0  0  0  0  0  0  0  0  0
   -6.2910   19.1090  -32.7890 C   0  0  0  0  0  0  0  0  0  0  0  0
   -6.4390   20.4890  -32.1420 C   0  0  0  0  0  0  0  0  0  0  0  0
   -6.4320   24.5910  -31.2730 C   0  0  0  0  0  0  0  0  0  0  0  0
   -5.2550   25.2590  -30.9330 C   0  0  0  0  0  0  0  0  0  0  0  0
   -4.2620   24.6080  -30.1960 C   0  0  0  0  0  0  0  0  0  0  0  0
   -3.0970   25.2960  -29.8760 O   0  0  0  0  0  0  0  0  0  0  0  0
   -2.2780   21.2630  -31.2780 C   0  0  0  0  0  0  0  0  0  0  0  0
   -1.7350   20.0110  -31.5970 C   0  0  0  0  0  0  0  0  0  0  0  0
   -1.9970   19.4270  -32.8410 C   0  0  0  0  0  0  0  0  0  0  0  0
   -2.7940   20.0960  -33.7740 C   0  0  0  0  0  0  0  0  0  0  0  0
   -3.3350   21.3470  -33.4630 C   0  0  0  0  0  0  0  0  0  0  0  0
   -3.0810   21.9290  -32.2170 C   0  0  0  0  0  0  0  0  0  0  0  0
   -3.5140   22.5200  -27.9880 H   0  0  0  0  0  0  0  0  0  0  0  0
   -5.7951   21.5728  -29.8063 H   0  0  0  0  0  0  0  0  0  0  0  0
   -9.7790   20.6093  -32.1096 H   0  0  0  0  0  0  0  0  0  0  0  0
   -9.0088   19.8514  -33.5774 H   0  0  0  0  0  0  0  0  0  0  0  0
   -8.4832   19.0832  -30.6708 H   0  0  0  0  0  0  0  0  0  0  0  0
   -9.4665   18.1592  -31.8766 H   0  0  0  0  0  0  0  0  0  0  0  0
   -6.8981   17.5663  -31.4071 H   0  0  0  0  0  0  0  0  0  0  0  0
   -7.6409   17.4673  -33.0677 H   0  0  0  0  0  0  0  0  0  0  0  0
   -5.2864   18.7162  -32.5735 H   0  0  0  0  0  0  0  0  0  0  0  0
   -6.4390   19.2123  -33.8741 H   0  0  0  0  0  0  0  0  0  0  0  0
   -6.3403   20.3849  -31.0514 H   0  0  0  0  0  0  0  0  0  0  0  0
   -5.6538   21.1453  -32.5454 H   0  0  0  0  0  0  0  0  0  0  0  0
   -7.2104   25.1110  -31.8507 H   0  0  0  0  0  0  0  0  0  0  0  0
   -5.1081   26.3031  -31.2466 H   0  0  0  0  0  0  0  0  0  0  0  0
   -1.1011   19.4860  -30.8672 H   0  0  0  0  0  0  0  0  0  0  0  0
   -1.5755   18.4407  -33.0849 H   0  0  0  0  0  0  0  0  0  0  0  0
   -2.9957   19.6380  -34.7536 H   0  0  0  0  0  0  0  0  0  0  0  0
   -3.9607   21.8737  -34.1986 H   0  0  0  0  0  0  0  0  0  0  0  0
   -3.5116   22.9112  -31.9722 H   0  0  0  0  0  0  0  0  0  0  0  0
  1  2  2  0
  2  3  2  0
  2  4  1  0
  4  5  1  0
  5  6  2  0
  6  7  1  0
  7  8  1  0
  8  9  2  0
  8 10  2  0
  8 11  1  0
 11 12  1  0
 12 13  1  0
 13 14  1  0
 14 15  1  0
 15 16  1  0
  7 17  2  0
 17 18  1  0
 18 19  2  0
 19 20  1  0
  2 21  1  0
 21 22  2  0
 22 23  1  0
 23 24  2  0
 24 25  1  0
 25 26  2  0
 19  5  1  0
 26 21  1  0
 16 11  1  0
  4 27  1  0
  6 28  1  0
 12 29  1  0
 12 30  1  0
 13 31  1  0
 13 32  1  0
 14 33  1  0
 14 34  1  0
 15 35  1  0
 15 36  1  0
 16 37  1  0
 16 38  1  0
 17 39  1  0
 18 40  1  0
 22 41  1  0
 23 42  1  0
 24 43  1  0
 25 44  1  0
 26 45  1  0
M  CHG  1  20  -1
M  END
>  <UniqueID>  (21) 
20

>  <SMILES>  (21) 
O=S(=O)(Nc1cc(S(=O)(=O)N2CCCCC2)ccc1[O-])c1ccccc1

>  <Energy>  (21) 
51.14104108029249

>  <Genealogy>  (21) 
O=S(=O)(Nc1cc(S(=O)(=O)N2CCCCC2)ccc1[O-])c1ccccc1 (protonated)
O=S(=O)(Nc1cc(S(=O)(=O)N2CCCCC2)ccc1[O-])c1ccccc1 (3D coordinates assigned)
O=S(=O)(Nc1cc(S(=O)(=O)N2CCCCC2)ccc1[O-])c1ccccc1 (nonaromatic ring conformer: 51.14104108029249 kcal/mol)

>  <smiles>  (21) 
O=S(=O)(Nc1cc(S(=O)(=O)N2CCCCC2)ccc1O)c1ccccc1

>  <score_type>  (21) 
oracle

>  <origin>  (21) 
adgpu

>  <m_score__min__energy>  (21) 
-12.880000000000001

>  <m_primary>  (21) 
energy

$$$$
21:0
     RDKit          3D

 47 50  0  0  0  0  0  0  0  0999 V2000
   -1.0180   24.8520  -25.8210 C   0  0  0  0  0  0  0  0  0  0  0  0
   -1.9740   24.6580  -26.9590 C   0  0  0  0  0  0  0  0  0  0  0  0
   -1.4890   24.5190  -28.2680 C   0  0  0  0  0  0  0  0  0  0  0  0
   -2.3740   24.3050  -29.3290 C   0  0  0  0  0  0  0  0  0  0  0  0
   -3.7530   24.2260  -29.0930 C   0  0  0  0  0  0  0  0  0  0  0  0
   -4.8710   23.9690  -30.4270 S   0  0  0  0  0  0  0  0  0  0  0  0
   -6.2300   23.5810  -29.9120 O   0  0  0  0  0  0  0  0  0  0  0  0
   -5.0020   25.2460  -31.2070 O   0  0  0  0  0  0  0  0  0  0  0  0
   -4.2850   22.6960  -31.4890 C   0  0  0  0  0  0  0  0  0  0  0  0
   -2.9530   22.4490  -31.6120 N   0  0  0  0  0  0  0  0  0  0  0  0
   -2.6850   21.4820  -32.5210 C   0  0  0  0  0  0  0  0  0  0  0  0
   -1.3130   21.0250  -32.8420 C   0  0  0  0  0  0  0  0  0  0  0  0
   -0.7880   21.1630  -34.1420 C   0  0  0  0  0  0  0  0  0  0  0  0
    0.5100   20.7310  -34.4300 C   0  0  0  0  0  0  0  0  0  0  0  0
    1.2970   20.1580  -33.4290 C   0  0  0  0  0  0  0  0  0  0  0  0
    0.7880   20.0150  -32.1370 C   0  0  0  0  0  0  0  0  0  0  0  0
   -0.5090   20.4460  -31.8420 C   0  0  0  0  0  0  0  0  0  0  0  0
   -4.1060   20.8990  -33.2220 S   0  0  0  0  0  0  0  0  0  0  0  0
   -5.0910   21.9120  -32.3140 C   0  0  0  0  0  0  0  0  0  0  0  0
   -6.5230   21.9440  -32.4070 N   0  0  0  0  0  0  0  0  0  0  0  0
   -7.2370   23.1920  -32.6740 C   0  0  0  0  0  0  0  0  0  0  0  0
   -8.5090   23.2400  -31.8220 C   0  0  0  0  0  0  0  0  0  0  0  0
   -9.2780   22.0640  -32.0000 O   0  0  0  0  0  0  0  0  0  0  0  0
   -8.5650   20.9440  -31.5070 C   0  0  0  0  0  0  0  0  0  0  0  0
   -7.2930   20.7030  -32.3260 C   0  0  0  0  0  0  0  0  0  0  0  0
   -4.2380   24.3420  -27.7840 C   0  0  0  0  0  0  0  0  0  0  0  0
   -3.3530   24.5550  -26.7210 C   0  0  0  0  0  0  0  0  0  0  0  0
   -1.5558   24.7429  -24.8677 H   0  0  0  0  0  0  0  0  0  0  0  0
   -0.2197   24.0975  -25.8801 H   0  0  0  0  0  0  0  0  0  0  0  0
   -0.5769   25.8580  -25.8801 H   0  0  0  0  0  0  0  0  0  0  0  0
   -0.4076   24.5786  -28.4605 H   0  0  0  0  0  0  0  0  0  0  0  0
   -1.9863   24.1982  -30.3529 H   0  0  0  0  0  0  0  0  0  0  0  0
   -1.4030   21.6133  -34.9351 H   0  0  0  0  0  0  0  0  0  0  0  0
    0.9123   20.8428  -35.4477 H   0  0  0  0  0  0  0  0  0  0  0  0
    2.3181   19.8193  -33.6585 H   0  0  0  0  0  0  0  0  0  0  0  0
    1.4085   19.5624  -31.3495 H   0  0  0  0  0  0  0  0  0  0  0  0
   -0.9038   20.3319  -30.8216 H   0  0  0  0  0  0  0  0  0  0  0  0
   -6.5920   24.0460  -32.4197 H   0  0  0  0  0  0  0  0  0  0  0  0
   -7.5052   23.2422  -33.7396 H   0  0  0  0  0  0  0  0  0  0  0  0
   -8.2298   23.3314  -30.7619 H   0  0  0  0  0  0  0  0  0  0  0  0
   -9.1109   24.1058  -32.1353 H   0  0  0  0  0  0  0  0  0  0  0  0
   -8.2889   21.1260  -30.4579 H   0  0  0  0  0  0  0  0  0  0  0  0
   -9.2080   20.0550  -31.5861 H   0  0  0  0  0  0  0  0  0  0  0  0
   -6.6855   19.9256  -31.8396 H   0  0  0  0  0  0  0  0  0  0  0  0
   -7.5662   20.3741  -33.3395 H   0  0  0  0  0  0  0  0  0  0  0  0
   -5.3182   24.2654  -27.5909 H   0  0  0  0  0  0  0  0  0  0  0  0
   -3.7399   24.6420  -25.6950 H   0  0  0  0  0  0  0  0  0  0  0  0
  1  2  1  0
  2  3  2  0
  3  4  1  0
  4  5  2  0
  5  6  1  0
  6  7  2  0
  6  8  2  0
  6  9  1  0
  9 10  1  0
 10 11  2  0
 11 12  1  0
 12 13  2  0
 13 14  1  0
 14 15  2  0
 15 16  1  0
 16 17  2  0
 11 18  1  0
 18 19  1  0
 19 20  1  0
 20 21  1  0
 21 22  1  0
 22 23  1  0
 23 24  1  0
 24 25  1  0
  5 26  1  0
 26 27  2  0
 27  2  1  0
 19  9  2  0
 25 20  1  0
 17 12  1  0
  1 28  1  0
  1 29  1  0
  1 30  1  0
  3 31  1  0
  4 32  1  0
 13 33  1  0
 14 34  1  0
 15 35  1  0
 16 36  1  0
 17 37  1  0
 21 38  1  0
 21 39  1  0
 22 40  1  0
 22 41  1  0
 24 42  1  0
 24 43  1  0
 25 44  1  0
 25 45  1  0
 26 46  1  0
 27 47  1  0
M  END
>  <UniqueID>  (22) 
21

>  <SMILES>  (22) 
Cc1ccc(S(=O)(=O)c2nc(-c3ccccc3)sc2N2CCOCC2)cc1

>  <Energy>  (22) 
87.53422672029014

>  <Genealogy>  (22) 
Cc1ccc(S(=O)(=O)c2nc(-c3ccccc3)sc2N2CCOCC2)cc1 (3D coordinates assigned)
Cc1ccc(S(=O)(=O)c2nc(-c3ccccc3)sc2N2CCOCC2)cc1 (nonaromatic ring conformer: 87.53422672029014 kcal/mol)

>  <smiles>  (22) 
Cc1ccc(S(=O)(=O)c2nc(-c3ccccc3)sc2N2CCOCC2)cc1

>  <score_type>  (22) 
oracle

>  <origin>  (22) 
adgpu

>  <m_score__min__energy>  (22) 
-8.6300000000000008

>  <m_primary>  (22) 
energy

$$$$
22:0
     RDKit          3D

 52 55  0  0  0  0  0  0  0  0999 V2000
   -0.9287   23.1673  -29.4530 H   0  0  0  0  0  0  0  0  0  0  0  0
   -1.7280   22.5370  -29.8700 C   0  0  0  0  0  0  0  0  0  0  0  0
   -1.4820   21.2900  -30.1340 N   0  0  0  0  0  0  0  0  0  0  0  0
   -0.2330   20.6090  -29.9340 C   0  0  0  0  0  0  0  0  0  0  0  0
    0.4090   20.4540  -28.7180 C   0  0  0  0  0  0  0  0  0  0  0  0
   -0.0540   21.0030  -27.4010 C   0  0  0  0  0  0  0  0  0  0  0  0
    0.4198   20.4412  -26.5826 H   0  0  0  0  0  0  0  0  0  0  0  0
    0.2259   22.0642  -27.3273 H   0  0  0  0  0  0  0  0  0  0  0  0
   -1.1473   20.9062  -27.3273 H   0  0  0  0  0  0  0  0  0  0  0  0
    1.5650   19.7760  -28.9180 N   0  0  0  0  0  0  0  0  0  0  0  0
    2.5510   19.4380  -27.8880 C   0  0  0  0  0  0  0  0  0  0  0  0
    2.1081   19.5898  -26.8926 H   0  0  0  0  0  0  0  0  0  0  0  0
    2.8513   18.3856  -27.9991 H   0  0  0  0  0  0  0  0  0  0  0  0
    3.4337   20.0848  -27.9991 H   0  0  0  0  0  0  0  0  0  0  0  0
    1.6600   19.4610  -30.2090 N   0  0  0  0  0  0  0  0  0  0  0  0
    2.7210   18.7030  -30.8180 C   0  0  0  0  0  0  0  0  0  0  0  0
    2.5450   17.3370  -31.0950 C   0  0  0  0  0  0  0  0  0  0  0  0
    1.5912   16.8467  -30.8504 H   0  0  0  0  0  0  0  0  0  0  0  0
    3.5770   16.5990  -31.6800 C   0  0  0  0  0  0  0  0  0  0  0  0
    3.4321   15.5309  -31.8995 H   0  0  0  0  0  0  0  0  0  0  0  0
    4.7940   17.2160  -31.9870 C   0  0  0  0  0  0  0  0  0  0  0  0
    5.6048   16.6343  -32.4498 H   0  0  0  0  0  0  0  0  0  0  0  0
    4.9790   18.5730  -31.7050 C   0  0  0  0  0  0  0  0  0  0  0  0
    5.9367   19.0581  -31.9447 H   0  0  0  0  0  0  0  0  0  0  0  0
    3.9490   19.3140  -31.1190 C   0  0  0  0  0  0  0  0  0  0  0  0
    4.1008   20.3797  -30.8927 H   0  0  0  0  0  0  0  0  0  0  0  0
    0.5830   19.9640  -30.8490 C   0  0  0  0  0  0  0  0  0  0  0  0
    0.3670   19.8260  -32.0840 O   0  0  0  0  0  0  0  0  0  0  0  0
   -3.0690   23.1310  -30.1200 C   0  0  0  0  0  0  0  0  0  0  0  0
   -3.2760   24.4980  -29.8740 C   0  0  0  0  0  0  0  0  0  0  0  0
   -2.2400   25.2990  -29.4030 O   0  0  0  0  0  0  0  0  0  0  0  0
   -4.4930   25.0550  -30.0950 N   0  0  0  0  0  0  0  0  0  0  0  0
   -4.6270   26.0740  -29.9030 H   0  0  0  0  0  0  0  0  0  0  0  0
   -5.5380   24.3160  -30.5500 C   0  0  0  0  0  0  0  0  0  0  0  0
   -6.6570   24.8750  -30.7230 O   0  0  0  0  0  0  0  0  0  0  0  0
   -5.3800   22.9800  -30.8070 N   0  0  0  0  0  0  0  0  0  0  0  0
   -6.4980   22.2040  -31.2890 C   0  0  0  0  0  0  0  0  0  0  0  0
   -6.3590   21.3950  -32.4290 C   0  0  0  0  0  0  0  0  0  0  0  0
   -5.3949   21.3532  -32.9569 H   0  0  0  0  0  0  0  0  0  0  0  0
   -7.4410   20.6430  -32.8950 C   0  0  0  0  0  0  0  0  0  0  0  0
   -7.3216   20.0040  -33.7824 H   0  0  0  0  0  0  0  0  0  0  0  0
   -8.6800   20.6990  -32.2360 C   0  0  0  0  0  0  0  0  0  0  0  0
   -9.8270   19.8620  -32.7160 C   0  0  0  0  0  0  0  0  0  0  0  0
  -10.3759   19.4615  -31.8509 H   0  0  0  0  0  0  0  0  0  0  0  0
  -10.5029   20.4806  -33.3247 H   0  0  0  0  0  0  0  0  0  0  0  0
   -9.4440   19.0296  -33.3247 H   0  0  0  0  0  0  0  0  0  0  0  0
   -8.8120   21.4930  -31.0860 C   0  0  0  0  0  0  0  0  0  0  0  0
   -9.7716   21.5232  -30.5491 H   0  0  0  0  0  0  0  0  0  0  0  0
   -7.7310   22.2450  -30.6200 C   0  0  0  0  0  0  0  0  0  0  0  0
   -7.8468   22.8726  -29.7240 H   0  0  0  0  0  0  0  0  0  0  0  0
   -4.1640   22.3800  -30.6020 C   0  0  0  0  0  0  0  0  0  0  0  0
   -4.0240   21.1500  -30.8580 O   0  0  0  0  0  0  0  0  0  0  0  0
  1  2  1  0
  2  3  2  0
  3  4  1  0
  4  5  2  0
  5  6  1  0
  6  7  1  0
  6  8  1  0
  6  9  1  0
  5 10  1  0
 10 11  1  0
 11 12  1  0
 11 13  1  0
 11 14  1  0
 10 15  1  0
 15 16  1  0
 16 17  2  0
 17 18  1  0
 17 19  1  0
 19 20  1  0
 19 21  2  0
 21 22  1  0
 21 23  1  0
 23 24  1  0
 23 25  2  0
 25 26  1  0
 15 27  1  0
 27 28  2  0
  2 29  1  0
 29 30  2  0
 30 31  1  0
 30 32  1  0
 32 33  1  0
 32 34  1  0
 34 35  2  0
 34 36  1  0
 36 37  1  0
 37 38  2  0
 38 39  1  0
 38 40  1  0
 40 41  1  0
 40 42  2  0
 42 43  1  0
 43 44  1  0
 43 45  1  0
 43 46  1  0
 42 47  1  0
 47 48  1  0
 47 49  2  0
 49 50  1  0
 36 51  1  0
 51 52  2  0
 27  4  1  0
 51 29  1  0
 25 16  1  0
 49 37  1  0
M  CHG  1  31  -1
M  END
>  <UniqueID>  (23) 
22

>  <SMILES>  (23) 
Cc1ccc(-n2c(=O)[nH]c([O-])c(/C=N/c3c(C)n(C)n(-c4ccccc4)c3=O)c2=O)cc1

>  <Energy>  (23) 
111.84700156786943

>  <Genealogy>  (23) 
Cc1ccc(-n2c(=O)[nH]c([O-])c(C=Nc3c(C)n(C)n(-c4ccccc4)c3=O)c2=O)cc1 (protonated)
Cc1ccc(-n2c(=O)[nH]c([O-])c(/C=N/c3c(C)n(C)n(-c4ccccc4)c3=O)c2=O)cc1 (cis-trans isomerization)
Cc1ccc(-n2c(=O)[nH]c([O-])c(/C=N/c3c(C)n(C)n(-c4ccccc4)c3=O)c2=O)cc1 (3D coordinates assigned)
Cc1ccc(-n2c(=O)[nH]c([O-])c(/C=N/c3c(C)n(C)n(-c4ccccc4)c3=O)c2=O)cc1 (optimized conformer: 111.84700156786943 kcal/mol)

>  <smiles>  (23) 
Cc1ccc(-n2c(=O)[nH]c(O)c(C=Nc3c(C)n(C)n(-c4ccccc4)c3=O)c2=O)cc1

>  <score_type>  (23) 
oracle

>  <origin>  (23) 
adgpu

>  <m_score__min__energy>  (23) 
-11.18

>  <m_primary>  (23) 
energy

$$$$
23:0
     RDKit          3D

 45 47  0  0  0  0  0  0  0  0999 V2000
   -2.8190   19.3820  -27.0360 C   0  0  0  0  0  0  0  0  0  0  0  0
   -2.6950   20.2060  -28.1910 O   0  0  0  0  0  0  0  0  0  0  0  0
   -2.0620   21.4580  -28.2080 C   0  0  0  0  0  0  0  0  0  0  0  0
   -0.7670   21.6550  -27.6950 C   0  0  0  0  0  0  0  0  0  0  0  0
   -0.1670   22.9160  -27.7570 C   0  0  0  0  0  0  0  0  0  0  0  0
   -0.8550   24.0060  -28.3220 C   0  0  0  0  0  0  0  0  0  0  0  0
   -0.2790   25.2850  -28.4120 O   0  0  0  0  0  0  0  0  0  0  0  0
   -0.5080   26.3380  -27.4820 C   0  0  0  0  0  0  0  0  0  0  0  0
   -2.1600   23.8190  -28.8050 C   0  0  0  0  0  0  0  0  0  0  0  0
   -2.8440   24.9210  -29.4160 N   0  0  0  0  0  0  0  0  0  0  0  0
   -4.1240   24.8610  -30.0660 C   0  0  0  0  0  0  0  0  0  0  0  0
   -4.2520   25.3710  -31.2140 O   0  0  0  0  0  0  0  0  0  0  0  0
   -5.3480   24.3410  -29.3610 C   0  0  0  0  0  0  0  0  0  0  0  0
   -6.6270   24.7690  -30.0880 C   0  0  0  0  0  0  0  0  0  0  0  0
   -6.6840   24.1710  -31.4300 N   0  0  0  0  0  0  0  0  0  0  0  0
   -7.6340   22.7150  -31.3900 S   0  0  0  0  0  0  0  0  0  0  0  0
   -7.9340   22.3420  -29.9640 O   0  0  0  0  0  0  0  0  0  0  0  0
   -8.9390   22.9660  -32.0930 O   0  0  0  0  0  0  0  0  0  0  0  0
   -6.7820   21.3960  -32.2060 C   0  0  0  0  0  0  0  0  0  0  0  0
   -7.5180   20.3160  -32.7230 C   0  0  0  0  0  0  0  0  0  0  0  0
   -6.8760   19.2680  -33.4020 C   0  0  0  0  0  0  0  0  0  0  0  0
   -5.4860   19.2800  -33.5830 C   0  0  0  0  0  0  0  0  0  0  0  0
   -4.7420   20.3480  -33.0830 C   0  0  0  0  0  0  0  0  0  0  0  0
   -3.3950   20.4350  -33.2320 N   0  0  0  0  0  0  0  0  0  0  0  0
   -3.1100   21.8750  -32.4720 S   0  0  0  0  0  0  0  0  0  0  0  0
   -4.5850   22.4170  -31.9520 N   0  0  0  0  0  0  0  0  0  0  0  0
   -5.3870   21.4130  -32.3900 C   0  0  0  0  0  0  0  0  0  0  0  0
   -2.7470   22.5430  -28.7630 C   0  0  0  0  0  0  0  0  0  0  0  0
   -2.7258   20.0016  -26.1319 H   0  0  0  0  0  0  0  0  0  0  0  0
   -3.8016   18.8877  -27.0420 H   0  0  0  0  0  0  0  0  0  0  0  0
   -2.0254   18.6204  -27.0420 H   0  0  0  0  0  0  0  0  0  0  0  0
   -0.2237   20.8123  -27.2427 H   0  0  0  0  0  0  0  0  0  0  0  0
    0.8497   23.0573  -27.3615 H   0  0  0  0  0  0  0  0  0  0  0  0
   -0.4230   25.9471  -26.4573 H   0  0  0  0  0  0  0  0  0  0  0  0
    0.2386   27.1312  -27.6350 H   0  0  0  0  0  0  0  0  0  0  0  0
   -1.5166   26.7494  -27.6350 H   0  0  0  0  0  0  0  0  0  0  0  0
   -5.3040   23.2424  -29.3280 H   0  0  0  0  0  0  0  0  0  0  0  0
   -5.3685   24.7579  -28.3433 H   0  0  0  0  0  0  0  0  0  0  0  0
   -7.5008   24.4383  -29.5074 H   0  0  0  0  0  0  0  0  0  0  0  0
   -6.6288   25.8645  -30.1874 H   0  0  0  0  0  0  0  0  0  0  0  0
   -5.7170   23.8840  -31.7060 H   0  0  0  0  0  0  0  0  0  0  0  0
   -8.6102   20.2915  -32.5941 H   0  0  0  0  0  0  0  0  0  0  0  0
   -7.4694   18.4296  -33.7956 H   0  0  0  0  0  0  0  0  0  0  0  0
   -4.9875   18.4556  -34.1139 H   0  0  0  0  0  0  0  0  0  0  0  0
   -3.7576   22.3961  -29.1717 H   0  0  0  0  0  0  0  0  0  0  0  0
  1  2  1  0
  2  3  1  0
  3  4  2  0
  4  5  1  0
  5  6  2  0
  6  7  1  0
  7  8  1  0
  6  9  1  0
  9 10  1  0
 10 11  1  0
 11 12  2  0
 11 13  1  0
 13 14  1  0
 14 15  1  0
 15 16  1  0
 16 17  2  0
 16 18  2  0
 16 19  1  0
 19 20  2  0
 20 21  1  0
 21 22  2  0
 22 23  1  0
 23 24  2  0
 24 25  1  0
 25 26  1  0
 26 27  2  0
  9 28  2  0
 28  3  1  0
 27 19  1  0
 27 23  1  0
  1 29  1  0
  1 30  1  0
  1 31  1  0
  4 32  1  0
  5 33  1  0
  8 34  1  0
  8 35  1  0
  8 36  1  0
 13 37  1  0
 13 38  1  0
 14 39  1  0
 14 40  1  0
 15 41  1  0
 20 42  1  0
 21 43  1  0
 22 44  1  0
 28 45  1  0
M  CHG  1  10  -1
M  END
>  <UniqueID>  (24) 
23

>  <SMILES>  (24) 
COc1ccc(OC)c([N-]C(=O)CCNS(=O)(=O)c2cccc3nsnc23)c1

>  <Energy>  (24) 
84.48818005365064

>  <Genealogy>  (24) 
COc1ccc(OC)c([N-]C(=O)CCNS(=O)(=O)c2cccc3nsnc23)c1 (protonated)
COc1ccc(OC)c([N-]C(=O)CCNS(=O)(=O)c2cccc3nsnc23)c1 (3D coordinates assigned)
COc1ccc(OC)c([N-]C(=O)CCNS(=O)(=O)c2cccc3nsnc23)c1 (optimized conformer: 84.48818005365064 kcal/mol)

>  <smiles>  (24) 
COc1ccc(OC)c(NC(=O)CCNS(=O)(=O)c2cccc3nsnc23)c1

>  <score_type>  (24) 
oracle

>  <origin>  (24) 
adgpu

>  <m_score__min__energy>  (24) 
-11.460000000000001

>  <m_primary>  (24) 
energy

$$$$
24:0
     RDKit          3D

 50 53  0  0  0  0  0  0  0  0999 V2000
   -3.4940   14.7650  -33.7020 N   0  0  0  0  0  0  0  0  0  0  0  0
   -4.2130   15.6690  -33.6270 C   0  0  0  0  0  0  0  0  0  0  0  0
   -5.1070   16.7920  -33.5340 C   0  0  0  0  0  0  0  0  0  0  0  0
   -5.1930   17.7100  -34.5860 C   0  0  0  0  0  0  0  0  0  0  0  0
   -6.0780   18.7890  -34.5050 C   0  0  0  0  0  0  0  0  0  0  0  0
   -6.8930   18.9550  -33.3720 C   0  0  0  0  0  0  0  0  0  0  0  0
   -7.7990   20.0630  -33.2710 N   0  0  0  0  0  0  0  0  0  0  0  0
   -7.6290   21.1430  -32.3480 C   0  0  0  0  0  0  0  0  0  0  0  0
   -6.6900   22.1440  -32.1190 C   0  0  0  0  0  0  0  0  0  0  0  0
   -5.4580   22.5840  -32.7040 N   0  0  0  0  0  0  0  0  0  0  0  0
   -4.1920   21.9500  -32.4720 C   0  0  0  0  0  0  0  0  0  0  0  0
   -3.8270   20.8720  -33.2940 C   0  0  0  0  0  0  0  0  0  0  0  0
   -2.5840   20.2570  -33.1480 C   0  0  0  0  0  0  0  0  0  0  0  0
   -1.6980   20.6980  -32.1670 C   0  0  0  0  0  0  0  0  0  0  0  0
   -2.0630   21.7390  -31.3100 C   0  0  0  0  0  0  0  0  0  0  0  0
   -3.3150   22.3690  -31.4380 C   0  0  0  0  0  0  0  0  0  0  0  0
   -3.7130   23.3920  -30.4430 C   0  0  0  0  0  0  0  0  0  0  0  0
   -4.0830   24.5310  -30.8360 O   0  0  0  0  0  0  0  0  0  0  0  0
   -3.7070   23.0890  -29.0400 N   0  0  0  0  0  0  0  0  0  0  0  0
   -4.1500   24.0460  -28.0310 C   0  0  0  0  0  0  0  0  0  0  0  0
   -2.9690   24.7640  -27.4410 C   0  0  0  0  0  0  0  0  0  0  0  0
   -3.0290   25.2930  -26.1410 C   0  0  0  0  0  0  0  0  0  0  0  0
   -1.9250   25.9610  -25.6020 C   0  0  0  0  0  0  0  0  0  0  0  0
   -0.7590   26.1120  -26.3590 C   0  0  0  0  0  0  0  0  0  0  0  0
   -0.6990   25.6040  -27.6590 C   0  0  0  0  0  0  0  0  0  0  0  0
   -1.8000   24.9330  -28.2010 C   0  0  0  0  0  0  0  0  0  0  0  0
   -7.4430   22.5950  -31.0530 C   0  0  0  0  0  0  0  0  0  0  0  0
   -7.3220   23.5230  -30.2110 O   0  0  0  0  0  0  0  0  0  0  0  0
   -8.3880   21.6240  -31.3010 C   0  0  0  0  0  0  0  0  0  0  0  0
   -9.4820   21.2960  -30.7730 O   0  0  0  0  0  0  0  0  0  0  0  0
   -6.7750   18.0530  -32.3030 C   0  0  0  0  0  0  0  0  0  0  0  0
   -7.5270   18.2110  -31.1840 F   0  0  0  0  0  0  0  0  0  0  0  0
   -5.8950   16.9690  -32.3900 C   0  0  0  0  0  0  0  0  0  0  0  0
   -4.5630   17.5825  -35.4787 H   0  0  0  0  0  0  0  0  0  0  0  0
   -6.1369   19.5118  -35.3321 H   0  0  0  0  0  0  0  0  0  0  0  0
   -8.6670   20.0540  -33.8510 H   0  0  0  0  0  0  0  0  0  0  0  0
   -5.4710   23.4860  -33.2310 H   0  0  0  0  0  0  0  0  0  0  0  0
   -4.5279   20.5092  -34.0602 H   0  0  0  0  0  0  0  0  0  0  0  0
   -2.3026   19.4230  -33.8078 H   0  0  0  0  0  0  0  0  0  0  0  0
   -0.7096   20.2256  -32.0673 H   0  0  0  0  0  0  0  0  0  0  0  0
   -1.3647   22.0697  -30.5271 H   0  0  0  0  0  0  0  0  0  0  0  0
   -3.3390   22.1680  -28.7120 H   0  0  0  0  0  0  0  0  0  0  0  0
   -4.8248   24.7790  -28.4972 H   0  0  0  0  0  0  0  0  0  0  0  0
   -4.6769   23.5052  -27.2310 H   0  0  0  0  0  0  0  0  0  0  0  0
   -3.9470   25.1815  -25.5453 H   0  0  0  0  0  0  0  0  0  0  0  0
   -1.9739   26.3682  -24.5813 H   0  0  0  0  0  0  0  0  0  0  0  0
    0.1112   26.6309  -25.9307 H   0  0  0  0  0  0  0  0  0  0  0  0
    0.2153   25.7319  -28.2571 H   0  0  0  0  0  0  0  0  0  0  0  0
   -1.7502   24.5364  -29.2258 H   0  0  0  0  0  0  0  0  0  0  0  0
   -5.8218   16.2537  -31.5575 H   0  0  0  0  0  0  0  0  0  0  0  0
  1  2  3  0
  2  3  1  0
  3  4  2  0
  4  5  1  0
  5  6  2  0
  6  7  1  0
  7  8  1  0
  8  9  2  0
  9 10  1  0
 10 11  1  0
 11 12  2  0
 12 13  1  0
 13 14  2  0
 14 15  1  0
 15 16  2  0
 16 17  1  0
 17 18  2  0
 17 19  1  0
 19 20  1  0
 20 21  1  0
 21 22  2  0
 22 23  1  0
 23 24  2  0
 24 25  1  0
 25 26  2  0
  9 27  1  0
 27 28  2  0
 27 29  1  0
 29 30  2  0
  6 31  1  0
 31 32  1  0
 31 33  2  0
 33  3  1  0
 29  8  1  0
 16 11  1  0
 26 21  1  0
  4 34  1  0
  5 35  1  0
  7 36  1  0
 10 37  1  0
 12 38  1  0
 13 39  1  0
 14 40  1  0
 15 41  1  0
 19 42  1  0
 20 43  1  0
 20 44  1  0
 22 45  1  0
 23 46  1  0
 24 47  1  0
 25 48  1  0
 26 49  1  0
 33 50  1  0
M  END
>  <UniqueID>  (25) 
24

>  <SMILES>  (25) 
N#Cc1ccc(Nc2c(Nc3ccccc3C(=O)NCc3ccccc3)c(=O)c2=O)c(F)c1

>  <Energy>  (25) 
47.1167822699517

>  <Genealogy>  (25) 
N#Cc1ccc(Nc2c(Nc3ccccc3C(=O)NCc3ccccc3)c(=O)c2=O)c(F)c1 (3D coordinates assigned)
N#Cc1ccc(Nc2c(Nc3ccccc3C(=O)NCc3ccccc3)c(=O)c2=O)c(F)c1 (optimized conformer: 47.1167822699517 kcal/mol)

>  <smiles>  (25) 
N#Cc1ccc(Nc2c(Nc3ccccc3C(=O)NCc3ccccc3)c(=O)c2=O)c(F)c1

>  <score_type>  (25) 
oracle

>  <origin>  (25) 
adgpu

>  <m_score__min__energy>  (25) 
-10.460000000000001

>  <m_primary>  (25) 
energy

$$$$
25:0
     RDKit          3D

 51 53  0  0  0  0  0  0  0  0999 V2000
   -6.3190   16.8940  -34.0290 C   0  0  0  0  0  0  0  0  0  0  0  0
   -6.4910   18.2420  -33.3930 C   0  0  0  0  0  0  0  0  0  0  0  0
   -5.5120   19.2290  -33.5570 C   0  0  0  0  0  0  0  0  0  0  0  0
   -5.6780   20.5050  -32.9970 C   0  0  0  0  0  0  0  0  0  0  0  0
   -4.6090   21.5380  -33.2190 C   0  0  0  0  0  0  0  0  0  0  0  0
   -6.8350   20.7850  -32.2340 C   0  0  0  0  0  0  0  0  0  0  0  0
   -7.0000   22.0260  -31.6060 O   0  0  0  0  0  0  0  0  0  0  0  0
   -6.9650   23.2640  -32.3180 C   0  0  0  0  0  0  0  0  0  0  0  0
   -6.1900   24.3190  -31.5260 C   0  0  0  0  0  0  0  0  0  0  0  0
   -5.5510   23.7250  -30.3550 N   0  0  0  0  0  0  0  0  0  0  0  0
   -4.2240   24.0960  -29.9600 C   0  0  0  0  0  0  0  0  0  0  0  0
   -3.6830   25.1210  -30.4580 O   0  0  0  0  0  0  0  0  0  0  0  0
   -3.4900   23.3050  -28.9520 C   0  0  0  0  0  0  0  0  0  0  0  0
   -2.7080   22.1690  -29.1290 C   0  0  0  0  0  0  0  0  0  0  0  0
   -2.2800   21.5450  -30.3980 C   0  0  0  0  0  0  0  0  0  0  0  0
   -2.8810   20.3490  -30.8250 C   0  0  0  0  0  0  0  0  0  0  0  0
   -2.4830   19.7460  -32.0210 C   0  0  0  0  0  0  0  0  0  0  0  0
   -1.4720   20.3240  -32.7940 C   0  0  0  0  0  0  0  0  0  0  0  0
   -0.8520   21.5010  -32.3670 C   0  0  0  0  0  0  0  0  0  0  0  0
   -1.2460   22.1050  -31.1690 C   0  0  0  0  0  0  0  0  0  0  0  0
   -2.3100   21.7190  -27.9210 N   0  0  0  0  0  0  0  0  0  0  0  0
   -2.8000   22.5250  -27.0250 O   0  0  0  0  0  0  0  0  0  0  0  0
   -3.5050   23.4830  -27.5800 C   0  0  0  0  0  0  0  0  0  0  0  0
   -4.2050   24.5580  -26.8150 C   0  0  0  0  0  0  0  0  0  0  0  0
   -7.8530   19.8150  -32.1280 C   0  0  0  0  0  0  0  0  0  0  0  0
   -9.1070   20.0930  -31.3440 C   0  0  0  0  0  0  0  0  0  0  0  0
   -7.6670   18.5470  -32.6960 C   0  0  0  0  0  0  0  0  0  0  0  0
   -6.2213   16.1285  -33.2451 H   0  0  0  0  0  0  0  0  0  0  0  0
   -7.1957   16.6689  -34.6541 H   0  0  0  0  0  0  0  0  0  0  0  0
   -5.4139   16.8963  -34.6541 H   0  0  0  0  0  0  0  0  0  0  0  0
   -4.6019   19.0017  -34.1315 H   0  0  0  0  0  0  0  0  0  0  0  0
   -4.2381   21.8964  -32.2474 H   0  0  0  0  0  0  0  0  0  0  0  0
   -3.7792   21.0909  -33.7860 H   0  0  0  0  0  0  0  0  0  0  0  0
   -5.0274   22.3826  -33.7860 H   0  0  0  0  0  0  0  0  0  0  0  0
   -6.4737   23.1084  -33.2898 H   0  0  0  0  0  0  0  0  0  0  0  0
   -7.9961   23.6177  -32.4652 H   0  0  0  0  0  0  0  0  0  0  0  0
   -5.4175   24.7599  -32.1732 H   0  0  0  0  0  0  0  0  0  0  0  0
   -6.8947   25.0929  -31.1876 H   0  0  0  0  0  0  0  0  0  0  0  0
   -6.0620   23.0060  -29.7930 H   0  0  0  0  0  0  0  0  0  0  0  0
   -3.6693   19.8847  -30.2143 H   0  0  0  0  0  0  0  0  0  0  0  0
   -2.9658   18.8156  -32.3545 H   0  0  0  0  0  0  0  0  0  0  0  0
   -1.1644   19.8521  -33.7388 H   0  0  0  0  0  0  0  0  0  0  0  0
   -0.0534   21.9528  -32.9737 H   0  0  0  0  0  0  0  0  0  0  0  0
   -0.7446   23.0228  -30.8280 H   0  0  0  0  0  0  0  0  0  0  0  0
   -4.0870   24.3768  -25.7365 H   0  0  0  0  0  0  0  0  0  0  0  0
   -3.7691   25.5346  -27.0726 H   0  0  0  0  0  0  0  0  0  0  0  0
   -5.2744   24.5544  -27.0726 H   0  0  0  0  0  0  0  0  0  0  0  0
   -8.8850   20.0438  -30.2678 H   0  0  0  0  0  0  0  0  0  0  0  0
   -9.4819   21.0961  -31.5956 H   0  0  0  0  0  0  0  0  0  0  0  0
   -9.8707   19.3424  -31.5956 H   0  0  0  0  0  0  0  0  0  0  0  0
   -8.4525   17.7838  -32.5933 H   0  0  0  0  0  0  0  0  0  0  0  0
  1  2  1  0
  2  3  2  0
  3  4  1  0
  4  5  1  0
  4  6  2  0
  6  7  1  0
  7  8  1  0
  8  9  1  0
  9 10  1  0
 10 11  1  0
 11 12  2  0
 11 13  1  0
 13 14  1  0
 14 15  1  0
 15 16  2  0
 16 17  1  0
 17 18  2  0
 18 19  1  0
 19 20  2  0
 14 21  2  0
 21 22  1  0
 22 23  1  0
 23 24  1  0
  6 25  1  0
 25 26  1  0
 25 27  2  0
 27  2  1  0
 23 13  2  0
 20 15  1  0
  1 28  1  0
  1 29  1  0
  1 30  1  0
  3 31  1  0
  5 32  1  0
  5 33  1  0
  5 34  1  0
  8 35  1  0
  8 36  1  0
  9 37  1  0
  9 38  1  0
 10 39  1  0
 16 40  1  0
 17 41  1  0
 18 42  1  0
 19 43  1  0
 20 44  1  0
 24 45  1  0
 24 46  1  0
 24 47  1  0
 26 48  1  0
 26 49  1  0
 26 50  1  0
 27 51  1  0
M  END
>  <UniqueID>  (26) 
25

>  <SMILES>  (26) 
Cc1cc(C)c(OCCNC(=O)c2c(-c3ccccc3)noc2C)c(C)c1

>  <Energy>  (26) 
89.11128732006632

>  <Genealogy>  (26) 
Cc1cc(C)c(OCCNC(=O)c2c(-c3ccccc3)noc2C)c(C)c1 (3D coordinates assigned)
Cc1cc(C)c(OCCNC(=O)c2c(-c3ccccc3)noc2C)c(C)c1 (optimized conformer: 89.11128732006632 kcal/mol)

>  <smiles>  (26) 
Cc1cc(C)c(OCCNC(=O)c2c(-c3ccccc3)noc2C)c(C)c1

>  <score_type>  (26) 
oracle

>  <origin>  (26) 
adgpu

>  <m_score__min__energy>  (26) 
-9

>  <m_primary>  (26) 
energy

$$$$
26:0
     RDKit          3D

 54 57  0  0  0  0  0  0  0  0999 V2000
   -3.3010   19.1490  -26.5320 C   0  0  0  0  0  0  0  0  0  0  0  0
   -2.0490   19.6710  -27.1600 C   0  0  0  0  0  0  0  0  0  0  0  0
   -0.8850   18.9160  -27.2770 C   0  0  0  0  0  0  0  0  0  0  0  0
    0.3000   19.8930  -27.9660 S   0  0  0  0  0  0  0  0  0  0  0  0
   -0.7150   21.2210  -28.0750 C   0  0  0  0  0  0  0  0  0  0  0  0
   -0.2350   22.8140  -28.7260 S   0  0  0  0  0  0  0  0  0  0  0  0
   -0.4320   23.6280  -27.1340 C   0  0  0  0  0  0  0  0  0  0  0  0
   -0.1770   22.8790  -25.9760 C   0  0  0  0  0  0  0  0  0  0  0  0
   -0.3840   23.4330  -24.7130 C   0  0  0  0  0  0  0  0  0  0  0  0
   -0.8580   24.7390  -24.5940 C   0  0  0  0  0  0  0  0  0  0  0  0
   -1.1100   25.5000  -25.7380 C   0  0  0  0  0  0  0  0  0  0  0  0
   -0.8830   24.9670  -27.0160 C   0  0  0  0  0  0  0  0  0  0  0  0
   -1.1790   25.8080  -28.2000 C   0  0  0  0  0  0  0  0  0  0  0  0
   -0.8210   27.0130  -28.2030 O   0  0  0  0  0  0  0  0  0  0  0  0
   -1.8870   25.2990  -29.3360 N   0  0  0  0  0  0  0  0  0  0  0  0
   -3.0430   24.4530  -29.2810 C   0  0  0  0  0  0  0  0  0  0  0  0
   -3.4900   23.8980  -28.0660 C   0  0  0  0  0  0  0  0  0  0  0  0
   -4.5990   23.0470  -28.0520 C   0  0  0  0  0  0  0  0  0  0  0  0
   -5.2620   22.7380  -29.2440 C   0  0  0  0  0  0  0  0  0  0  0  0
   -4.8210   23.2840  -30.4570 C   0  0  0  0  0  0  0  0  0  0  0  0
   -5.6480   22.8870  -31.9650 S   0  0  0  0  0  0  0  0  0  0  0  0
   -4.6310   22.4700  -32.9960 O   0  0  0  0  0  0  0  0  0  0  0  0
   -6.3610   24.1120  -32.4700 O   0  0  0  0  0  0  0  0  0  0  0  0
   -6.8040   21.6030  -31.7030 N   0  0  0  0  0  0  0  0  0  0  0  0
   -8.1700   22.1560  -31.6910 C   0  0  0  0  0  0  0  0  0  0  0  0
   -9.2040   21.0860  -31.2830 C   0  0  0  0  0  0  0  0  0  0  0  0
   -8.7390   19.6570  -31.6070 C   0  0  0  0  0  0  0  0  0  0  0  0
   -7.8790   19.6310  -32.8710 C   0  0  0  0  0  0  0  0  0  0  0  0
   -6.6480   20.5570  -32.7430 C   0  0  0  0  0  0  0  0  0  0  0  0
   -3.7050   24.1320  -30.4700 C   0  0  0  0  0  0  0  0  0  0  0  0
   -1.9480   20.9530  -27.5960 N   0  0  0  0  0  0  0  0  0  0  0  0
   -3.2060   19.1886  -25.4368 H   0  0  0  0  0  0  0  0  0  0  0  0
   -4.1548   19.7661  -26.8485 H   0  0  0  0  0  0  0  0  0  0  0  0
   -3.4636   18.1081  -26.8485 H   0  0  0  0  0  0  0  0  0  0  0  0
   -0.7615   17.8661  -26.9728 H   0  0  0  0  0  0  0  0  0  0  0  0
    0.1894   21.8456  -26.0647 H   0  0  0  0  0  0  0  0  0  0  0  0
   -0.1734   22.8399  -23.8109 H   0  0  0  0  0  0  0  0  0  0  0  0
   -1.0338   25.1707  -23.5976 H   0  0  0  0  0  0  0  0  0  0  0  0
   -1.4901   26.5272  -25.6360 H   0  0  0  0  0  0  0  0  0  0  0  0
   -2.9663   24.1343  -27.1279 H   0  0  0  0  0  0  0  0  0  0  0  0
   -4.9509   22.6195  -27.1015 H   0  0  0  0  0  0  0  0  0  0  0  0
   -6.1318   22.0647  -29.2294 H   0  0  0  0  0  0  0  0  0  0  0  0
   -6.5930   21.1910  -30.7630 H   0  0  0  0  0  0  0  0  0  0  0  0
   -8.2134   22.9884  -30.9732 H   0  0  0  0  0  0  0  0  0  0  0  0
   -8.4126   22.5044  -32.7058 H   0  0  0  0  0  0  0  0  0  0  0  0
   -9.3799   21.1617  -30.1998 H   0  0  0  0  0  0  0  0  0  0  0  0
  -10.1221   21.2750  -31.8586 H   0  0  0  0  0  0  0  0  0  0  0  0
   -8.1486   19.2713  -30.7628 H   0  0  0  0  0  0  0  0  0  0  0  0
   -9.6272   19.0305  -31.7759 H   0  0  0  0  0  0  0  0  0  0  0  0
   -7.5340   18.6013  -33.0465 H   0  0  0  0  0  0  0  0  0  0  0  0
   -8.4923   19.9894  -33.7109 H   0  0  0  0  0  0  0  0  0  0  0  0
   -5.7728   19.9407  -32.4894 H   0  0  0  0  0  0  0  0  0  0  0  0
   -6.5276   21.0727  -33.7071 H   0  0  0  0  0  0  0  0  0  0  0  0
   -3.3471   24.5483  -31.4232 H   0  0  0  0  0  0  0  0  0  0  0  0
  1  2  1  0
  2  3  2  0
  3  4  1  0
  4  5  1  0
  5  6  1  0
  6  7  1  0
  7  8  2  0
  8  9  1  0
  9 10  2  0
 10 11  1  0
 11 12  2  0
 12 13  1  0
 13 14  2  0
 13 15  1  0
 15 16  1  0
 16 17  2  0
 17 18  1  0
 18 19  2  0
 19 20  1  0
 20 21  1  0
 21 22  2  0
 21 23  2  0
 21 24  1  0
 24 25  1  0
 25 26  1  0
 26 27  1  0
 27 28  1  0
 28 29  1  0
 20 30  2  0
  5 31  2  0
 31  2  1  0
 12  7  1  0
 30 16  1  0
 29 24  1  0
  1 32  1  0
  1 33  1  0
  1 34  1  0
  3 35  1  0
  8 36  1  0
  9 37  1  0
 10 38  1  0
 11 39  1  0
 17 40  1  0
 18 41  1  0
 19 42  1  0
 24 43  1  0
 25 44  1  0
 25 45  1  0
 26 46  1  0
 26 47  1  0
 27 48  1  0
 27 49  1  0
 28 50  1  0
 28 51  1  0
 29 52  1  0
 29 53  1  0
 30 54  1  0
M  CHG  2  15  -1  24   1
M  END
>  <UniqueID>  (27) 
26

>  <SMILES>  (27) 
Cc1csc(Sc2ccccc2C(=O)[N-]c2cccc(S(=O)(=O)[NH+]3CCCCC3)c2)n1

>  <Energy>  (27) 
93.24602446116228

>  <Genealogy>  (27) 
Cc1csc(Sc2ccccc2C(=O)[N-]c2cccc(S(=O)(=O)[NH+]3CCCCC3)c2)n1 (protonated)
Cc1csc(Sc2ccccc2C(=O)[N-]c2cccc(S(=O)(=O)[NH+]3CCCCC3)c2)n1 (3D coordinates assigned)
Cc1csc(Sc2ccccc2C(=O)[N-]c2cccc(S(=O)(=O)[NH+]3CCCCC3)c2)n1 (nonaromatic ring conformer: 93.24602446116228 kcal/mol)

>  <smiles>  (27) 
Cc1csc(Sc2ccccc2C(=O)Nc2cccc(S(=O)(=O)N3CCCCC3)c2)n1

>  <score_type>  (27) 
oracle

>  <origin>  (27) 
adgpu

>  <m_score__min__energy>  (27) 
-11.5

>  <m_primary>  (27) 
energy

$$$$
27:0
     RDKit          3D

 48 50  0  0  0  0  0  0  0  0999 V2000
   -3.0470   20.8240  -30.0890 C   0  0  0  0  0  0  0  0  0  0  0  0
   -2.7190   20.5780  -31.5320 C   0  0  0  0  0  0  0  0  0  0  0  0
   -1.8160   21.4200  -32.1970 C   0  0  0  0  0  0  0  0  0  0  0  0
   -1.4800   21.1760  -33.5310 C   0  0  0  0  0  0  0  0  0  0  0  0
   -2.0340   20.0860  -34.2080 C   0  0  0  0  0  0  0  0  0  0  0  0
   -2.9340   19.2320  -33.5540 C   0  0  0  0  0  0  0  0  0  0  0  0
   -3.4860   18.0300  -34.2640 C   0  0  0  0  0  0  0  0  0  0  0  0
   -4.8610   18.3060  -34.6740 N   0  0  0  0  0  0  0  0  0  0  0  0
   -5.9810   17.5950  -33.5530 S   0  0  0  0  0  0  0  0  0  0  0  0
   -6.8890   16.6300  -34.2650 O   0  0  0  0  0  0  0  0  0  0  0  0
   -5.2200   16.8480  -32.4950 O   0  0  0  0  0  0  0  0  0  0  0  0
   -6.9150   18.8800  -32.7970 C   0  0  0  0  0  0  0  0  0  0  0  0
   -8.2330   18.6550  -32.3760 C   0  0  0  0  0  0  0  0  0  0  0  0
   -8.9880   19.7060  -31.8450 C   0  0  0  0  0  0  0  0  0  0  0  0
   -8.4350   20.9860  -31.7450 C   0  0  0  0  0  0  0  0  0  0  0  0
   -7.1200   21.2210  -32.1700 C   0  0  0  0  0  0  0  0  0  0  0  0
   -6.4330   22.8420  -32.0830 S   0  0  0  0  0  0  0  0  0  0  0  0
   -7.2420   23.7670  -32.9520 O   0  0  0  0  0  0  0  0  0  0  0  0
   -5.0340   22.8060  -32.6320 O   0  0  0  0  0  0  0  0  0  0  0  0
   -6.3880   23.4680  -30.4470 N   0  0  0  0  0  0  0  0  0  0  0  0
   -6.7680   24.8950  -30.3700 C   0  0  0  0  0  0  0  0  0  0  0  0
   -5.5560   25.8310  -30.2320 C   0  0  0  0  0  0  0  0  0  0  0  0
   -4.4210   25.2600  -30.8390 O   0  0  0  0  0  0  0  0  0  0  0  0
   -3.9860   24.1490  -30.0800 C   0  0  0  0  0  0  0  0  0  0  0  0
   -5.1240   23.1550  -29.7530 C   0  0  0  0  0  0  0  0  0  0  0  0
   -6.3610   20.1620  -32.6840 C   0  0  0  0  0  0  0  0  0  0  0  0
   -3.2670   19.4780  -32.2110 C   0  0  0  0  0  0  0  0  0  0  0  0
   -2.3291   20.2856  -29.4528 H   0  0  0  0  0  0  0  0  0  0  0  0
   -2.9873   21.9019  -29.8780 H   0  0  0  0  0  0  0  0  0  0  0  0
   -4.0651   20.4649  -29.8780 H   0  0  0  0  0  0  0  0  0  0  0  0
   -1.3710   22.2749  -31.6669 H   0  0  0  0  0  0  0  0  0  0  0  0
   -0.7771   21.8440  -34.0502 H   0  0  0  0  0  0  0  0  0  0  0  0
   -1.7632   19.8973  -35.2573 H   0  0  0  0  0  0  0  0  0  0  0  0
   -2.8735   17.8131  -35.1516 H   0  0  0  0  0  0  0  0  0  0  0  0
   -3.4678   17.1609  -33.5899 H   0  0  0  0  0  0  0  0  0  0  0  0
   -8.6739   17.6510  -32.4633 H   0  0  0  0  0  0  0  0  0  0  0  0
  -10.0185   19.5250  -31.5056 H   0  0  0  0  0  0  0  0  0  0  0  0
   -9.0335   21.8112  -31.3316 H   0  0  0  0  0  0  0  0  0  0  0  0
   -7.3152   25.1623  -31.2860 H   0  0  0  0  0  0  0  0  0  0  0  0
   -7.3878   25.0232  -29.4703 H   0  0  0  0  0  0  0  0  0  0  0  0
   -5.7826   26.7910  -30.7188 H   0  0  0  0  0  0  0  0  0  0  0  0
   -5.3472   25.9880  -29.1635 H   0  0  0  0  0  0  0  0  0  0  0  0
   -3.2101   23.6175  -30.6505 H   0  0  0  0  0  0  0  0  0  0  0  0
   -3.6026   24.5348  -29.1239 H   0  0  0  0  0  0  0  0  0  0  0  0
   -4.8027   22.1459  -30.0505 H   0  0  0  0  0  0  0  0  0  0  0  0
   -5.3187   23.2257  -28.6727 H   0  0  0  0  0  0  0  0  0  0  0  0
   -5.3225   20.3380  -33.0012 H   0  0  0  0  0  0  0  0  0  0  0  0
   -3.9617   18.8042  -31.6882 H   0  0  0  0  0  0  0  0  0  0  0  0
  1  2  1  0
  2  3  2  0
  3  4  1  0
  4  5  2  0
  5  6  1  0
  6  7  1  0
  7  8  1  0
  8  9  1  0
  9 10  2  0
  9 11  2  0
  9 12  1  0
 12 13  2  0
 13 14  1  0
 14 15  2  0
 15 16  1  0
 16 17  1  0
 17 18  2  0
 17 19  2  0
 17 20  1  0
 20 21  1  0
 21 22  1  0
 22 23  1  0
 23 24  1  0
 24 25  1  0
 16 26  2  0
  6 27  2  0
 27  2  1  0
 26 12  1  0
 25 20  1  0
  1 28  1  0
  1 29  1  0
  1 30  1  0
  3 31  1  0
  4 32  1  0
  5 33  1  0
  7 34  1  0
  7 35  1  0
 13 36  1  0
 14 37  1  0
 15 38  1  0
 21 39  1  0
 21 40  1  0
 22 41  1  0
 22 42  1  0
 24 43  1  0
 24 44  1  0
 25 45  1  0
 25 46  1  0
 26 47  1  0
 27 48  1  0
M  CHG  1   8  -1
M  END
>  <UniqueID>  (28) 
27

>  <SMILES>  (28) 
Cc1cccc(C[N-]S(=O)(=O)c2cccc(S(=O)(=O)N3CCOCC3)c2)c1

>  <Energy>  (28) 
53.850864136288834

>  <Genealogy>  (28) 
Cc1cccc(C[N-]S(=O)(=O)c2cccc(S(=O)(=O)N3CCOCC3)c2)c1 (protonated)
Cc1cccc(C[N-]S(=O)(=O)c2cccc(S(=O)(=O)N3CCOCC3)c2)c1 (3D coordinates assigned)
Cc1cccc(C[N-]S(=O)(=O)c2cccc(S(=O)(=O)N3CCOCC3)c2)c1 (nonaromatic ring conformer: 53.850864136288834 kcal/mol)

>  <smiles>  (28) 
Cc1cccc(CNS(=O)(=O)c2cccc(S(=O)(=O)N3CCOCC3)c2)c1

>  <score_type>  (28) 
oracle

>  <origin>  (28) 
adgpu

>  <m_score__min__energy>  (28) 
-10.35

>  <m_primary>  (28) 
energy

$$$$
28:0
     RDKit          3D

 29 31  0  0  0  0  0  0  0  0999 V2000
   -3.8540   25.6530  -30.3660 O   0  0  0  0  0  0  0  0  0  0  0  0
   -4.3660   24.4510  -30.8380 C   0  0  0  0  0  0  0  0  0  0  0  0
   -3.5590   23.3120  -30.8690 C   0  0  0  0  0  0  0  0  0  0  0  0
   -4.0720   22.1000  -31.3420 C   0  0  0  0  0  0  0  0  0  0  0  0
   -5.4040   22.0150  -31.7930 C   0  0  0  0  0  0  0  0  0  0  0  0
   -5.9320   20.7220  -32.2930 C   0  0  0  0  0  0  0  0  0  0  0  0
   -5.2500   19.5170  -32.3800 C   0  0  0  0  0  0  0  0  0  0  0  0
   -6.1730   18.6260  -32.9050 C   0  0  0  0  0  0  0  0  0  0  0  0
   -5.9470   17.1820  -33.2000 C   0  0  0  0  0  0  0  0  0  0  0  0
   -4.7940   16.5220  -32.7270 C   0  0  0  0  0  0  0  0  0  0  0  0
   -4.5820   15.1690  -33.0030 C   0  0  0  0  0  0  0  0  0  0  0  0
   -5.5130   14.4520  -33.7550 C   0  0  0  0  0  0  0  0  0  0  0  0
   -5.3010   13.1380  -34.0200 F   0  0  0  0  0  0  0  0  0  0  0  0
   -6.6590   15.0880  -34.2330 C   0  0  0  0  0  0  0  0  0  0  0  0
   -7.5660   14.3920  -34.9650 F   0  0  0  0  0  0  0  0  0  0  0  0
   -6.8770   16.4420  -33.9590 C   0  0  0  0  0  0  0  0  0  0  0  0
   -7.3300   19.2910  -33.1090 N   0  0  0  0  0  0  0  0  0  0  0  0
   -7.1910   20.5530  -32.7420 N   0  0  0  0  0  0  0  0  0  0  0  0
   -6.2070   23.1710  -31.7570 C   0  0  0  0  0  0  0  0  0  0  0  0
   -5.6900   24.3810  -31.2820 C   0  0  0  0  0  0  0  0  0  0  0  0
   -2.5172   23.3681  -30.5205 H   0  0  0  0  0  0  0  0  0  0  0  0
   -3.4308   21.2065  -31.3621 H   0  0  0  0  0  0  0  0  0  0  0  0
   -4.2071   19.3136  -32.0953 H   0  0  0  0  0  0  0  0  0  0  0  0
   -4.0533   17.0787  -32.1341 H   0  0  0  0  0  0  0  0  0  0  0  0
   -3.6783   14.6675  -32.6263 H   0  0  0  0  0  0  0  0  0  0  0  0
   -7.7837   16.9350  -34.3396 H   0  0  0  0  0  0  0  0  0  0  0  0
   -8.2210   18.9100  -33.4930 H   0  0  0  0  0  0  0  0  0  0  0  0
   -7.2493   23.1223  -32.1052 H   0  0  0  0  0  0  0  0  0  0  0  0
   -6.3258   25.2783  -31.2578 H   0  0  0  0  0  0  0  0  0  0  0  0
  1  2  1  0
  2  3  2  0
  3  4  1  0
  4  5  2  0
  5  6  1  0
  6  7  1  0
  7  8  2  0
  8  9  1  0
  9 10  2  0
 10 11  1  0
 11 12  2  0
 12 13  1  0
 12 14  1  0
 14 15  1  0
 14 16  2  0
  8 17  1  0
 17 18  1  0
  5 19  1  0
 19 20  2  0
 20  2  1  0
 18  6  2  0
 16  9  1  0
  3 21  1  0
  4 22  1  0
  7 23  1  0
 10 24  1  0
 11 25  1  0
 16 26  1  0
 17 27  1  0
 19 28  1  0
 20 29  1  0
M  CHG  1   1  -1
M  END
>  <UniqueID>  (29) 
28

>  <SMILES>  (29) 
[O-]c1ccc(-c2cc(-c3ccc(F)c(F)c3)[nH]n2)cc1

>  <Energy>  (29) 
65.99749876685377

>  <Genealogy>  (29) 
[O-]c1ccc(-c2cc(-c3ccc(F)c(F)c3)[nH]n2)cc1 (protonated)
[O-]c1ccc(-c2cc(-c3ccc(F)c(F)c3)[nH]n2)cc1 (3D coordinates assigned)
[O-]c1ccc(-c2cc(-c3ccc(F)c(F)c3)[nH]n2)cc1 (optimized conformer: 65.99749876685377 kcal/mol)

>  <smiles>  (29) 
Oc1ccc(-c2cc(-c3ccc(F)c(F)c3)[nH]n2)cc1

>  <score_type>  (29) 
oracle

>  <origin>  (29) 
adgpu

>  <m_score__min__energy>  (29) 
-9.8100000000000005

>  <m_primary>  (29) 
energy

$$$$
29:0
     RDKit          3D

 51 55  0  0  0  0  0  0  0  0999 V2000
   -5.1200   21.5590  -33.9220 H   0  0  0  0  0  0  0  0  0  0  0  0
   -5.2820   20.5320  -33.8430 N   0  0  0  0  0  0  0  0  0  0  0  0
   -6.0600   20.0050  -32.9480 C   0  0  0  0  0  0  0  0  0  0  0  0
   -6.3700   18.6640  -32.8500 C   0  0  0  0  0  0  0  0  0  0  0  0
   -5.7610   17.5180  -33.5560 C   0  0  0  0  0  0  0  0  0  0  0  0
   -6.5180   16.6450  -34.0600 O   0  0  0  0  0  0  0  0  0  0  0  0
   -4.2880   17.3520  -33.6570 C   0  0  0  0  0  0  0  0  0  0  0  0
   -3.7330   16.0920  -33.9320 C   0  0  0  0  0  0  0  0  0  0  0  0
   -4.3902   15.2166  -34.0402 H   0  0  0  0  0  0  0  0  0  0  0  0
   -2.3500   15.9440  -34.0690 C   0  0  0  0  0  0  0  0  0  0  0  0
   -1.9229   14.9525  -34.2798 H   0  0  0  0  0  0  0  0  0  0  0  0
   -1.5080   17.0520  -33.9390 C   0  0  0  0  0  0  0  0  0  0  0  0
   -0.4226   16.9308  -34.0702 H   0  0  0  0  0  0  0  0  0  0  0  0
   -2.0370   18.3200  -33.6420 C   0  0  0  0  0  0  0  0  0  0  0  0
   -1.1780   19.4780  -33.5630 N   0  0  0  0  0  0  0  0  0  0  0  0
   -1.3280   20.6610  -34.1980 C   0  0  0  0  0  0  0  0  0  0  0  0
   -2.1938   20.9082  -34.8299 H   0  0  0  0  0  0  0  0  0  0  0  0
   -0.3000   21.5070  -33.9730 N   0  0  0  0  0  0  0  0  0  0  0  0
    0.5270   20.8160  -33.1640 C   0  0  0  0  0  0  0  0  0  0  0  0
    1.4829   21.1890  -32.7677 H   0  0  0  0  0  0  0  0  0  0  0  0
   -0.0050   19.5740  -32.9090 C   0  0  0  0  0  0  0  0  0  0  0  0
    0.4489   18.7942  -32.2799 H   0  0  0  0  0  0  0  0  0  0  0  0
   -3.4260   18.4500  -33.4660 C   0  0  0  0  0  0  0  0  0  0  0  0
   -3.8461   19.4240  -33.1747 H   0  0  0  0  0  0  0  0  0  0  0  0
   -7.3420   18.6130  -31.8660 C   0  0  0  0  0  0  0  0  0  0  0  0
   -7.8626   17.7023  -31.5349 H   0  0  0  0  0  0  0  0  0  0  0  0
   -7.5530   19.8530  -31.3750 N   0  0  0  0  0  0  0  0  0  0  0  0
   -6.7680   20.6960  -32.0290 N   0  0  0  0  0  0  0  0  0  0  0  0
   -6.5930   22.0680  -31.6360 C   0  0  0  0  0  0  0  0  0  0  0  0
   -7.7050   22.8560  -31.3100 C   0  0  0  0  0  0  0  0  0  0  0  0
   -8.7193   22.4442  -31.4176 H   0  0  0  0  0  0  0  0  0  0  0  0
   -7.5290   24.1650  -30.8480 C   0  0  0  0  0  0  0  0  0  0  0  0
   -8.4058   24.7837  -30.6060 H   0  0  0  0  0  0  0  0  0  0  0  0
   -6.2420   24.6890  -30.6930 C   0  0  0  0  0  0  0  0  0  0  0  0
   -6.1090   25.7126  -30.3129 H   0  0  0  0  0  0  0  0  0  0  0  0
   -5.1220   23.9150  -31.0200 C   0  0  0  0  0  0  0  0  0  0  0  0
   -3.8100   24.4560  -30.8090 N   0  0  0  0  0  0  0  0  0  0  0  0
   -2.8170   23.8970  -29.9370 C   0  0  0  0  0  0  0  0  0  0  0  0
   -2.4970   22.6820  -30.0310 O   0  0  0  0  0  0  0  0  0  0  0  0
   -2.1280   24.7520  -28.9680 C   0  0  0  0  0  0  0  0  0  0  0  0
   -1.2290   25.6980  -29.3030 N   0  0  0  0  0  0  0  0  0  0  0  0
   -0.7840   26.2650  -28.1900 N   0  0  0  0  0  0  0  0  0  0  0  0
   -1.4050   25.6810  -27.1470 C   0  0  0  0  0  0  0  0  0  0  0  0
   -1.1300   26.0130  -25.7160 C   0  0  0  0  0  0  0  0  0  0  0  0
   -1.6960   25.3297  -25.0658 H   0  0  0  0  0  0  0  0  0  0  0  0
   -0.0541   25.9039  -25.5145 H   0  0  0  0  0  0  0  0  0  0  0  0
   -1.4375   27.0497  -25.5145 H   0  0  0  0  0  0  0  0  0  0  0  0
   -2.2650   24.7050  -27.5950 C   0  0  0  0  0  0  0  0  0  0  0  0
   -2.9102   24.0427  -26.9992 H   0  0  0  0  0  0  0  0  0  0  0  0
   -5.3030   22.5970  -31.4670 C   0  0  0  0  0  0  0  0  0  0  0  0
   -4.4252   21.9717  -31.6873 H   0  0  0  0  0  0  0  0  0  0  0  0
  1  2  1  0
  2  3  2  0
  3  4  1  0
  4  5  1  0
  5  6  2  0
  5  7  1  0
  7  8  2  0
  8  9  1  0
  8 10  1  0
 10 11  1  0
 10 12  2  0
 12 13  1  0
 12 14  1  0
 14 15  1  0
 15 16  1  0
 16 17  1  0
 16 18  2  0
 18 19  1  0
 19 20  1  0
 19 21  2  0
 21 22  1  0
 14 23  2  0
 23 24  1  0
  4 25  2  0
 25 26  1  0
 25 27  1  0
 27 28  1  0
 28 29  1  0
 29 30  2  0
 30 31  1  0
 30 32  1  0
 32 33  1  0
 32 34  2  0
 34 35  1  0
 34 36  1  0
 36 37  1  0
 37 38  1  0
 38 39  2  0
 38 40  1  0
 40 41  1  0
 41 42  1  0
 42 43  2  0
 43 44  1  0
 44 45  1  0
 44 46  1  0
 44 47  1  0
 43 48  1  0
 48 49  1  0
 36 50  2  0
 50 51  1  0
 28  3  1  0
 50 29  1  0
 23  7  1  0
 48 40  2  0
 21 15  1  0
M  CHG  3  27  -1  37  -1  41  -1
M  END
>  <UniqueID>  (30) 
29

>  <SMILES>  (30) 
[H]/N=c1/c(C(=O)c2cccc(-n3ccnc3)c2)c[n-]n1-c1cccc([N-]C(=O)c2cc(C)n[n-]2)c1

>  <Energy>  (30) 
164.12885611725613

>  <Genealogy>  (30) 
Cc1cc(C(=O)[N-]c2cccc(-n3[n-]cc(C(=O)c4cccc(-n5ccnc5)c4)c3=N)c2)[n-]n1 (protonated)
[H]/N=c1/c(C(=O)c2cccc(-n3ccnc3)c2)c[n-]n1-c1cccc([N-]C(=O)c2cc(C)n[n-]2)c1 (cis-trans isomerization)
[H]/N=c1/c(C(=O)c2cccc(-n3ccnc3)c2)c[n-]n1-c1cccc([N-]C(=O)c2cc(C)n[n-]2)c1 (3D coordinates assigned)
[H]/N=c1/c(C(=O)c2cccc(-n3ccnc3)c2)c[n-]n1-c1cccc([N-]C(=O)c2cc(C)n[n-]2)c1 (optimized conformer: 164.12885611725613 kcal/mol)

>  <smiles>  (30) 
Cc1cc(C(=O)Nc2cccc(-n3[nH]cc(C(=O)c4cccc(-n5ccnc5)c4)c3=N)c2)[nH]n1

>  <score_type>  (30) 
oracle

>  <origin>  (30) 
adgpu

>  <m_score__min__energy>  (30) 
-12.9

>  <m_primary>  (30) 
energy

$$$$
30:0
     RDKit          3D

 38 40  0  0  0  0  0  0  0  0999 V2000
   -4.9910   24.9340  -31.5620 O   0  0  0  0  0  0  0  0  0  0  0  0
   -5.1050   23.5340  -31.0280 S   0  0  0  0  0  0  0  0  0  0  0  0
   -4.0470   22.6740  -31.6630 O   0  0  0  0  0  0  0  0  0  0  0  0
   -4.8540   23.5610  -29.3100 N   0  0  0  0  0  0  0  0  0  0  0  0
   -3.8220   24.1030  -28.7370 C   0  0  0  0  0  0  0  0  0  0  0  0
   -3.7000   24.0500  -27.3430 C   0  0  0  0  0  0  0  0  0  0  0  0
   -2.5810   24.6190  -26.7310 C   0  0  0  0  0  0  0  0  0  0  0  0
   -1.5980   25.2320  -27.5090 C   0  0  0  0  0  0  0  0  0  0  0  0
   -1.7500   25.2650  -28.8970 C   0  0  0  0  0  0  0  0  0  0  0  0
   -2.8470   24.7070  -29.4750 N   0  0  0  0  0  0  0  0  0  0  0  0
   -6.7070   22.9070  -31.4060 C   0  0  0  0  0  0  0  0  0  0  0  0
   -7.7770   23.7850  -31.6240 C   0  0  0  0  0  0  0  0  0  0  0  0
   -9.0370   23.2840  -31.9670 C   0  0  0  0  0  0  0  0  0  0  0  0
   -9.2310   21.9070  -32.1050 C   0  0  0  0  0  0  0  0  0  0  0  0
   -8.1660   21.0220  -31.8850 C   0  0  0  0  0  0  0  0  0  0  0  0
   -8.3670   19.2900  -32.1120 S   0  0  0  0  0  0  0  0  0  0  0  0
   -8.7120   18.6480  -30.7970 O   0  0  0  0  0  0  0  0  0  0  0  0
   -9.4740   19.0090  -33.0890 O   0  0  0  0  0  0  0  0  0  0  0  0
   -6.8630   18.6230  -32.7450 C   0  0  0  0  0  0  0  0  0  0  0  0
   -6.2150   19.2330  -33.8290 C   0  0  0  0  0  0  0  0  0  0  0  0
   -5.0430   18.6770  -34.3500 C   0  0  0  0  0  0  0  0  0  0  0  0
   -4.5150   17.5090  -33.7930 C   0  0  0  0  0  0  0  0  0  0  0  0
   -5.1630   16.8920  -32.7200 C   0  0  0  0  0  0  0  0  0  0  0  0
   -6.3370   17.4440  -32.1990 C   0  0  0  0  0  0  0  0  0  0  0  0
   -6.9130   21.5260  -31.5150 C   0  0  0  0  0  0  0  0  0  0  0  0
   -4.4783   23.5647  -26.7357 H   0  0  0  0  0  0  0  0  0  0  0  0
   -2.4746   24.5840  -25.6367 H   0  0  0  0  0  0  0  0  0  0  0  0
   -0.7142   25.6837  -27.0349 H   0  0  0  0  0  0  0  0  0  0  0  0
   -0.9818   25.7427  -29.5229 H   0  0  0  0  0  0  0  0  0  0  0  0
   -7.6258   24.8701  -31.5252 H   0  0  0  0  0  0  0  0  0  0  0  0
   -9.8771   23.9755  -32.1285 H   0  0  0  0  0  0  0  0  0  0  0  0
  -10.2203   21.5170  -32.3865 H   0  0  0  0  0  0  0  0  0  0  0  0
   -6.6300   20.1512  -34.2703 H   0  0  0  0  0  0  0  0  0  0  0  0
   -4.5360   19.1591  -35.1989 H   0  0  0  0  0  0  0  0  0  0  0  0
   -3.5893   17.0755  -34.1994 H   0  0  0  0  0  0  0  0  0  0  0  0
   -4.7489   15.9706  -32.2845 H   0  0  0  0  0  0  0  0  0  0  0  0
   -6.8490   16.9521  -31.3588 H   0  0  0  0  0  0  0  0  0  0  0  0
   -6.0846   20.8323  -31.3085 H   0  0  0  0  0  0  0  0  0  0  0  0
  1  2  2  0
  2  3  2  0
  2  4  1  0
  4  5  2  3
  5  6  1  0
  6  7  2  0
  7  8  1  0
  8  9  2  0
  9 10  1  0
  2 11  1  0
 11 12  2  0
 12 13  1  0
 13 14  2  0
 14 15  1  0
 15 16  1  0
 16 17  2  0
 16 18  2  0
 16 19  1  0
 19 20  2  0
 20 21  1  0
 21 22  2  0
 22 23  1  0
 23 24  2  0
 15 25  2  0
 10  5  1  0
 25 11  1  0
 24 19  1  0
  6 26  1  0
  7 27  1  0
  8 28  1  0
  9 29  1  0
 12 30  1  0
 13 31  1  0
 14 32  1  0
 20 33  1  0
 21 34  1  0
 22 35  1  0
 23 36  1  0
 24 37  1  0
 25 38  1  0
M  CHG  1  10  -1
M  END
>  <UniqueID>  (31) 
30

>  <SMILES>  (31) 
O=S(=O)(N=c1cccc[n-]1)c1cccc(S(=O)(=O)c2ccccc2)c1

>  <Energy>  (31) 
42.944312285847644

>  <Genealogy>  (31) 
O=S(=O)(N=c1cccc[n-]1)c1cccc(S(=O)(=O)c2ccccc2)c1 (protonated)
O=S(=O)(N=c1cccc[n-]1)c1cccc(S(=O)(=O)c2ccccc2)c1 (3D coordinates assigned)
O=S(=O)(N=c1cccc[n-]1)c1cccc(S(=O)(=O)c2ccccc2)c1 (optimized conformer: 42.944312285847644 kcal/mol)

>  <smiles>  (31) 
O=S(=O)(N=c1cccc[nH]1)c1cccc(S(=O)(=O)c2ccccc2)c1

>  <score_type>  (31) 
oracle

>  <origin>  (31) 
adgpu

>  <m_score__min__energy>  (31) 
-10.859999999999999

>  <m_primary>  (31) 
energy

$$$$
31:0
     RDKit          3D

 36 38  0  0  0  0  0  0  0  0999 V2000
   -3.3642   22.9108  -29.2337 H   0  0  0  0  0  0  0  0  0  0  0  0
   -3.4040   24.0090  -29.2820 C   0  0  0  0  0  0  0  0  0  0  0  0
   -4.3130   24.5980  -29.9980 N   0  0  0  0  0  0  0  0  0  0  0  0
   -5.3440   23.9580  -30.7760 C   0  0  0  0  0  0  0  0  0  0  0  0
   -6.6920   24.3610  -30.7180 C   0  0  0  0  0  0  0  0  0  0  0  0
   -6.9904   25.1854  -30.0536 H   0  0  0  0  0  0  0  0  0  0  0  0
   -7.6480   23.7180  -31.5000 C   0  0  0  0  0  0  0  0  0  0  0  0
   -8.7042   24.0205  -31.4457 H   0  0  0  0  0  0  0  0  0  0  0  0
   -7.2550   22.6890  -32.3510 C   0  0  0  0  0  0  0  0  0  0  0  0
   -8.0043   22.1786  -32.9739 H   0  0  0  0  0  0  0  0  0  0  0  0
   -5.9510   22.3110  -32.4170 N   0  0  0  0  0  0  0  0  0  0  0  0
   -5.7090   21.5710  -33.1120 H   0  0  0  0  0  0  0  0  0  0  0  0
   -4.9890   22.9060  -31.6430 C   0  0  0  0  0  0  0  0  0  0  0  0
   -3.7350   22.5460  -31.7100 N   0  0  0  0  0  0  0  0  0  0  0  0
   -3.1840   21.4400  -32.4400 C   0  0  0  0  0  0  0  0  0  0  0  0
   -3.8410   20.2000  -32.4890 C   0  0  0  0  0  0  0  0  0  0  0  0
   -4.8201   20.0798  -32.0023 H   0  0  0  0  0  0  0  0  0  0  0  0
   -3.2570   19.1180  -33.1530 C   0  0  0  0  0  0  0  0  0  0  0  0
   -3.7821   18.1521  -33.1901 H   0  0  0  0  0  0  0  0  0  0  0  0
   -2.0030   19.2550  -33.7740 C   0  0  0  0  0  0  0  0  0  0  0  0
   -1.3510   18.0750  -34.4470 C   0  0  0  0  0  0  0  0  0  0  0  0
   -0.8660   17.2110  -33.4830 F   0  0  0  0  0  0  0  0  0  0  0  0
   -0.3020   18.4890  -35.2500 F   0  0  0  0  0  0  0  0  0  0  0  0
   -2.2620   17.4000  -35.2400 F   0  0  0  0  0  0  0  0  0  0  0  0
   -1.3210   20.4810  -33.6660 C   0  0  0  0  0  0  0  0  0  0  0  0
   -0.3194   20.5898  -34.1076 H   0  0  0  0  0  0  0  0  0  0  0  0
   -1.9080   21.5620  -33.0010 C   0  0  0  0  0  0  0  0  0  0  0  0
   -1.3633   22.5141  -32.9184 H   0  0  0  0  0  0  0  0  0  0  0  0
   -2.4320   24.8140  -28.5390 C   0  0  0  0  0  0  0  0  0  0  0  0
   -1.6170   25.6850  -29.0880 O   0  0  0  0  0  0  0  0  0  0  0  0
   -0.8840   26.2250  -28.1400 C   0  0  0  0  0  0  0  0  0  0  0  0
   -0.1094   26.9901  -28.2964 H   0  0  0  0  0  0  0  0  0  0  0  0
   -1.2340   25.6860  -26.9180 C   0  0  0  0  0  0  0  0  0  0  0  0
   -0.8017   25.9351  -25.9376 H   0  0  0  0  0  0  0  0  0  0  0  0
   -2.2340   24.7730  -27.1740 C   0  0  0  0  0  0  0  0  0  0  0  0
   -2.7633   24.1436  -26.4435 H   0  0  0  0  0  0  0  0  0  0  0  0
  1  2  1  0
  2  3  2  0
  3  4  1  0
  4  5  2  0
  5  6  1  0
  5  7  1  0
  7  8  1  0
  7  9  2  0
  9 10  1  0
  9 11  1  0
 11 12  1  0
 11 13  1  0
 13 14  2  0
 14 15  1  0
 15 16  2  0
 16 17  1  0
 16 18  1  0
 18 19  1  0
 18 20  2  0
 20 21  1  0
 21 22  1  0
 21 23  1  0
 21 24  1  0
 20 25  1  0
 25 26  1  0
 25 27  2  0
 27 28  1  0
  2 29  1  0
 29 30  1  0
 30 31  1  0
 31 32  1  0
 31 33  2  0
 33 34  1  0
 33 35  1  0
 35 36  1  0
 13  4  1  0
 27 15  1  0
 35 29  2  0
M  END
>  <UniqueID>  (32) 
31

>  <SMILES>  (32) 
FC(F)(F)c1ccc(/N=c2\[nH]cccc2/N=C/c2ccco2)cc1

>  <Energy>  (32) 
76.07353982919896

>  <Genealogy>  (32) 
FC(F)(F)c1ccc(/N=c2\[nH]cccc2/N=C/c2ccco2)cc1 (cis-trans isomerization)
FC(F)(F)c1ccc(/N=c2\[nH]cccc2/N=C/c2ccco2)cc1 (3D coordinates assigned)
FC(F)(F)c1ccc(/N=c2\[nH]cccc2/N=C/c2ccco2)cc1 (optimized conformer: 76.07353982919896 kcal/mol)

>  <smiles>  (32) 
FC(F)(F)c1ccc(N=c2[nH]cccc2N=Cc2ccco2)cc1

>  <score_type>  (32) 
oracle

>  <origin>  (32) 
adgpu

>  <m_score__min__energy>  (32) 
-7.0300000000000002

>  <m_primary>  (32) 
energy

$$$$
32:0
     RDKit          3D

 53 56  0  0  0  0  0  0  0  0999 V2000
   -2.2340   17.9090  -34.0970 C   0  0  0  0  0  0  0  0  0  0  0  0
   -1.8390   19.1390  -33.3350 C   0  0  0  0  0  0  0  0  0  0  0  0
   -1.7960   20.3930  -33.9620 C   0  0  0  0  0  0  0  0  0  0  0  0
   -1.4090   21.5250  -33.2410 C   0  0  0  0  0  0  0  0  0  0  0  0
   -1.0590   21.4120  -31.8920 C   0  0  0  0  0  0  0  0  0  0  0  0
   -1.1040   20.1700  -31.2490 C   0  0  0  0  0  0  0  0  0  0  0  0
   -0.7450   20.0980  -29.8610 N   0  0  0  0  0  0  0  0  0  0  0  0
   -1.7230   20.6640  -28.5450 S   0  0  0  0  0  0  0  0  0  0  0  0
   -3.1170   20.1130  -28.6640 O   0  0  0  0  0  0  0  0  0  0  0  0
   -1.1300   20.1850  -27.2510 O   0  0  0  0  0  0  0  0  0  0  0  0
   -1.7310   22.4250  -28.5520 C   0  0  0  0  0  0  0  0  0  0  0  0
   -0.7360   23.1220  -27.8570 C   0  0  0  0  0  0  0  0  0  0  0  0
   -0.6780   24.5160  -27.9250 C   0  0  0  0  0  0  0  0  0  0  0  0
   -1.5920   25.2190  -28.7130 C   0  0  0  0  0  0  0  0  0  0  0  0
   -2.5800   24.5260  -29.4330 C   0  0  0  0  0  0  0  0  0  0  0  0
   -3.4840   25.2040  -30.3110 N   0  0  0  0  0  0  0  0  0  0  0  0
   -5.1800   24.8510  -30.4180 S   0  0  0  0  0  0  0  0  0  0  0  0
   -5.7480   24.8660  -29.0270 O   0  0  0  0  0  0  0  0  0  0  0  0
   -5.8950   25.8930  -31.2310 O   0  0  0  0  0  0  0  0  0  0  0  0
   -5.4110   23.2560  -31.1360 C   0  0  0  0  0  0  0  0  0  0  0  0
   -4.4180   22.6840  -31.9420 C   0  0  0  0  0  0  0  0  0  0  0  0
   -4.6140   21.4270  -32.5230 C   0  0  0  0  0  0  0  0  0  0  0  0
   -5.8130   20.7220  -32.3140 C   0  0  0  0  0  0  0  0  0  0  0  0
   -6.0370   19.3950  -32.9480 C   0  0  0  0  0  0  0  0  0  0  0  0
   -6.7850   18.4010  -32.2900 C   0  0  0  0  0  0  0  0  0  0  0  0
   -6.9720   17.1460  -32.8770 C   0  0  0  0  0  0  0  0  0  0  0  0
   -6.4190   16.8700  -34.1290 C   0  0  0  0  0  0  0  0  0  0  0  0
   -5.6800   17.8480  -34.7970 C   0  0  0  0  0  0  0  0  0  0  0  0
   -5.4880   19.1040  -34.2130 C   0  0  0  0  0  0  0  0  0  0  0  0
   -6.8050   21.3010  -31.5010 C   0  0  0  0  0  0  0  0  0  0  0  0
   -6.6010   22.5510  -30.9130 C   0  0  0  0  0  0  0  0  0  0  0  0
   -2.6700   23.1350  -29.3150 C   0  0  0  0  0  0  0  0  0  0  0  0
   -1.4890   19.0310  -31.9800 C   0  0  0  0  0  0  0  0  0  0  0  0
   -2.4917   17.1066  -33.3900 H   0  0  0  0  0  0  0  0  0  0  0  0
   -3.1051   18.1337  -34.7299 H   0  0  0  0  0  0  0  0  0  0  0  0
   -1.3949   17.5845  -34.7299 H   0  0  0  0  0  0  0  0  0  0  0  0
   -2.0677   20.4851  -35.0239 H   0  0  0  0  0  0  0  0  0  0  0  0
   -1.3795   22.5072  -33.7354 H   0  0  0  0  0  0  0  0  0  0  0  0
   -0.7461   22.3057  -31.3323 H   0  0  0  0  0  0  0  0  0  0  0  0
    0.0021   22.5708  -27.2558 H   0  0  0  0  0  0  0  0  0  0  0  0
    0.0896   25.0615  -27.3564 H   0  0  0  0  0  0  0  0  0  0  0  0
   -1.5385   26.3162  -28.7701 H   0  0  0  0  0  0  0  0  0  0  0  0
   -3.4780   23.2271  -32.1190 H   0  0  0  0  0  0  0  0  0  0  0  0
   -3.8239   20.9861  -33.1486 H   0  0  0  0  0  0  0  0  0  0  0  0
   -7.2264   18.6134  -31.3051 H   0  0  0  0  0  0  0  0  0  0  0  0
   -7.5554   16.3753  -32.3520 H   0  0  0  0  0  0  0  0  0  0  0  0
   -6.5657   15.8817  -34.5891 H   0  0  0  0  0  0  0  0  0  0  0  0
   -5.2478   17.6302  -35.7848 H   0  0  0  0  0  0  0  0  0  0  0  0
   -4.9045   19.8701  -34.7446 H   0  0  0  0  0  0  0  0  0  0  0  0
   -7.7493   20.7643  -31.3272 H   0  0  0  0  0  0  0  0  0  0  0  0
   -7.3805   22.9854  -30.2699 H   0  0  0  0  0  0  0  0  0  0  0  0
   -3.4820   22.5946  -29.8236 H   0  0  0  0  0  0  0  0  0  0  0  0
   -1.5159   18.0486  -31.4859 H   0  0  0  0  0  0  0  0  0  0  0  0
  1  2  1  0
  2  3  2  0
  3  4  1  0
  4  5  2  0
  5  6  1  0
  6  7  1  0
  7  8  1  0
  8  9  2  0
  8 10  2  0
  8 11  1  0
 11 12  2  0
 12 13  1  0
 13 14  2  0
 14 15  1  0
 15 16  1  0
 16 17  1  0
 17 18  2  0
 17 19  2  0
 17 20  1  0
 20 21  2  0
 21 22  1  0
 22 23  2  0
 23 24  1  0
 24 25  2  0
 25 26  1  0
 26 27  2  0
 27 28  1  0
 28 29  2  0
 23 30  1  0
 30 31  2  0
 15 32  2  0
  6 33  2  0
 33  2  1  0
 32 11  1  0
 31 20  1  0
 29 24  1  0
  1 34  1  0
  1 35  1  0
  1 36  1  0
  3 37  1  0
  4 38  1  0
  5 39  1  0
 12 40  1  0
 13 41  1  0
 14 42  1  0
 21 43  1  0
 22 44  1  0
 25 45  1  0
 26 46  1  0
 27 47  1  0
 28 48  1  0
 29 49  1  0
 30 50  1  0
 31 51  1  0
 32 52  1  0
 33 53  1  0
M  CHG  2   7  -1  16  -1
M  END
>  <UniqueID>  (33) 
32

>  <SMILES>  (33) 
Cc1cccc([N-]S(=O)(=O)c2cccc([N-]S(=O)(=O)c3ccc(-c4ccccc4)cc3)c2)c1

>  <Energy>  (33) 
66.89409931717276

>  <Genealogy>  (33) 
Cc1cccc([N-]S(=O)(=O)c2cccc([N-]S(=O)(=O)c3ccc(-c4ccccc4)cc3)c2)c1 (protonated)
Cc1cccc([N-]S(=O)(=O)c2cccc([N-]S(=O)(=O)c3ccc(-c4ccccc4)cc3)c2)c1 (3D coordinates assigned)
Cc1cccc([N-]S(=O)(=O)c2cccc([N-]S(=O)(=O)c3ccc(-c4ccccc4)cc3)c2)c1 (optimized conformer: 66.89409931717276 kcal/mol)

>  <smiles>  (33) 
Cc1cccc(NS(=O)(=O)c2cccc(NS(=O)(=O)c3ccc(-c4ccccc4)cc3)c2)c1

>  <score_type>  (33) 
oracle

>  <origin>  (33) 
adgpu

>  <m_score__min__energy>  (33) 
-12.68

>  <m_primary>  (33) 
energy

$$$$
33:0
     RDKit          3D

 64 67  0  0  0  0  0  0  0  0999 V2000
   -9.5650   20.9290  -32.0720 C   0  0  0  0  0  0  0  0  0  0  0  0
   -9.2330   22.2850  -31.7930 O   0  0  0  0  0  0  0  0  0  0  0  0
   -7.9360   22.7420  -31.5190 C   0  0  0  0  0  0  0  0  0  0  0  0
   -7.2060   23.3330  -32.5550 C   0  0  0  0  0  0  0  0  0  0  0  0
   -5.8990   23.7770  -32.3390 C   0  0  0  0  0  0  0  0  0  0  0  0
   -5.2990   23.6320  -31.0770 C   0  0  0  0  0  0  0  0  0  0  0  0
   -3.9430   24.0280  -30.8340 N   0  0  0  0  0  0  0  0  0  0  0  0
   -2.7060   22.9600  -30.2520 S   0  0  0  0  0  0  0  0  0  0  0  0
   -3.1850   22.2780  -29.0020 O   0  0  0  0  0  0  0  0  0  0  0  0
   -1.4730   23.7610  -29.9380 O   0  0  0  0  0  0  0  0  0  0  0  0
   -2.3710   21.7430  -31.4800 C   0  0  0  0  0  0  0  0  0  0  0  0
   -2.8140   21.9140  -32.7980 C   0  0  0  0  0  0  0  0  0  0  0  0
   -2.6340   20.8940  -33.7380 C   0  0  0  0  0  0  0  0  0  0  0  0
   -1.9950   19.6980  -33.3760 C   0  0  0  0  0  0  0  0  0  0  0  0
   -1.8890   18.6350  -34.3360 N   0  0  0  0  0  0  0  0  0  0  0  0
   -2.5540   17.3720  -34.2030 C   0  0  0  0  0  0  0  0  0  0  0  0
   -3.0950   16.6220  -35.5590 S   0  0  0  0  0  0  0  0  0  0  0  0
   -2.6830   16.7530  -32.9100 N   0  0  0  0  0  0  0  0  0  0  0  0
   -3.1620   15.4170  -32.7150 C   0  0  0  0  0  0  0  0  0  0  0  0
   -2.2420   14.3600  -32.7190 C   0  0  0  0  0  0  0  0  0  0  0  0
   -2.6700   13.0500  -32.4960 C   0  0  0  0  0  0  0  0  0  0  0  0
   -4.0220   12.7830  -32.2770 C   0  0  0  0  0  0  0  0  0  0  0  0
   -4.9520   13.8230  -32.3040 C   0  0  0  0  0  0  0  0  0  0  0  0
   -4.5370   15.1460  -32.5330 C   0  0  0  0  0  0  0  0  0  0  0  0
   -5.5240   16.1900  -32.6460 N   0  0  0  0  0  0  0  0  0  0  0  0
   -6.1140   16.5240  -33.9460 C   0  0  0  0  0  0  0  0  0  0  0  0
   -5.8280   17.9950  -34.3180 C   0  0  0  0  0  0  0  0  0  0  0  0
   -5.4970   18.8430  -33.1440 N   0  0  0  0  0  0  0  0  0  0  0  0
   -5.7350   20.2640  -33.4530 C   0  0  0  0  0  0  0  0  0  0  0  0
   -6.2640   18.4430  -31.9460 C   0  0  0  0  0  0  0  0  0  0  0  0
   -5.8350   17.0390  -31.4880 C   0  0  0  0  0  0  0  0  0  0  0  0
   -1.5480   19.5320  -32.0540 C   0  0  0  0  0  0  0  0  0  0  0  0
   -1.7310   20.5510  -31.1140 C   0  0  0  0  0  0  0  0  0  0  0  0
   -6.0410   23.0760  -30.0300 C   0  0  0  0  0  0  0  0  0  0  0  0
   -7.3470   22.6260  -30.2460 C   0  0  0  0  0  0  0  0  0  0  0  0
   -9.6988   20.3824  -31.1269 H   0  0  0  0  0  0  0  0  0  0  0  0
  -10.4987   20.8921  -32.6523 H   0  0  0  0  0  0  0  0  0  0  0  0
   -8.7540   20.4649  -32.6523 H   0  0  0  0  0  0  0  0  0  0  0  0
   -7.6645   23.4493  -33.5481 H   0  0  0  0  0  0  0  0  0  0  0  0
   -5.3366   24.2427  -33.1617 H   0  0  0  0  0  0  0  0  0  0  0  0
   -3.3047   22.8528  -33.0944 H   0  0  0  0  0  0  0  0  0  0  0  0
   -2.9957   21.0301  -34.7679 H   0  0  0  0  0  0  0  0  0  0  0  0
   -1.3100   18.7970  -35.1910 H   0  0  0  0  0  0  0  0  0  0  0  0
   -2.4440   17.3040  -32.0580 H   0  0  0  0  0  0  0  0  0  0  0  0
   -1.1761   14.5637  -32.8989 H   0  0  0  0  0  0  0  0  0  0  0  0
   -1.9402   12.2269  -32.4929 H   0  0  0  0  0  0  0  0  0  0  0  0
   -4.3547   11.7526  -32.0831 H   0  0  0  0  0  0  0  0  0  0  0  0
   -6.0185   13.6055  -32.1448 H   0  0  0  0  0  0  0  0  0  0  0  0
   -5.6837   15.8673  -34.7164 H   0  0  0  0  0  0  0  0  0  0  0  0
   -7.2031   16.3817  -33.8852 H   0  0  0  0  0  0  0  0  0  0  0  0
   -4.9793   18.0199  -35.0174 H   0  0  0  0  0  0  0  0  0  0  0  0
   -6.7459   18.4026  -34.7666 H   0  0  0  0  0  0  0  0  0  0  0  0
   -4.4750   18.7380  -32.9360 H   0  0  0  0  0  0  0  0  0  0  0  0
   -5.8301   20.8321  -32.5159 H   0  0  0  0  0  0  0  0  0  0  0  0
   -4.8905   20.6587  -34.0369 H   0  0  0  0  0  0  0  0  0  0  0  0
   -6.6621   20.3620  -34.0369 H   0  0  0  0  0  0  0  0  0  0  0  0
   -6.0756   19.1632  -31.1362 H   0  0  0  0  0  0  0  0  0  0  0  0
   -7.3358   18.4292  -32.1929 H   0  0  0  0  0  0  0  0  0  0  0  0
   -4.9419   17.1235  -30.8514 H   0  0  0  0  0  0  0  0  0  0  0  0
   -6.6618   16.5816  -30.9247 H   0  0  0  0  0  0  0  0  0  0  0  0
   -1.0519   18.5961  -31.7573 H   0  0  0  0  0  0  0  0  0  0  0  0
   -1.3712   20.4165  -30.0832 H   0  0  0  0  0  0  0  0  0  0  0  0
   -5.5936   22.9921  -29.0286 H   0  0  0  0  0  0  0  0  0  0  0  0
   -7.9165   22.1795  -29.4176 H   0  0  0  0  0  0  0  0  0  0  0  0
  1  2  1  0
  2  3  1  0
  3  4  2  0
  4  5  1  0
  5  6  2  0
  6  7  1  0
  7  8  1  0
  8  9  2  0
  8 10  2  0
  8 11  1  0
 11 12  2  0
 12 13  1  0
 13 14  2  0
 14 15  1  0
 15 16  1  0
 16 17  2  0
 16 18  1  0
 18 19  1  0
 19 20  2  0
 20 21  1  0
 21 22  2  0
 22 23  1  0
 23 24  2  0
 24 25  1  0
 25 26  1  0
 26 27  1  0
 27 28  1  0
 28 29  1  0
 28 30  1  0
 30 31  1  0
 14 32  1  0
 32 33  2  0
  6 34  1  0
 34 35  2  0
 35  3  1  0
 33 11  1  0
 24 19  1  0
 31 25  1  0
  1 36  1  0
  1 37  1  0
  1 38  1  0
  4 39  1  0
  5 40  1  0
 12 41  1  0
 13 42  1  0
 15 43  1  0
 18 44  1  0
 20 45  1  0
 21 46  1  0
 22 47  1  0
 23 48  1  0
 26 49  1  0
 26 50  1  0
 27 51  1  0
 27 52  1  0
 28 53  1  0
 29 54  1  0
 29 55  1  0
 29 56  1  0
 30 57  1  0
 30 58  1  0
 31 59  1  0
 31 60  1  0
 32 61  1  0
 33 62  1  0
 34 63  1  0
 35 64  1  0
M  CHG  2   7  -1  28   1
M  END
>  <UniqueID>  (34) 
33

>  <SMILES>  (34) 
COc1ccc([N-]S(=O)(=O)c2ccc(NC(=S)Nc3ccccc3N3CC[NH+](C)CC3)cc2)cc1

>  <Energy>  (34) 
90.80764910542224

>  <Genealogy>  (34) 
COc1ccc([N-]S(=O)(=O)c2ccc(NC(=S)Nc3ccccc3N3CC[NH+](C)CC3)cc2)cc1 (protonated)
COc1ccc([N-]S(=O)(=O)c2ccc(NC(=S)Nc3ccccc3N3CC[NH+](C)CC3)cc2)cc1 (3D coordinates assigned)
COc1ccc([N-]S(=O)(=O)c2ccc(NC(=S)Nc3ccccc3N3CC[NH+](C)CC3)cc2)cc1 (nonaromatic ring conformer: 90.80764910542224 kcal/mol)

>  <smiles>  (34) 
COc1ccc(NS(=O)(=O)c2ccc(NC(=S)Nc3ccccc3N3CCN(C)CC3)cc2)cc1

>  <score_type>  (34) 
oracle

>  <origin>  (34) 
adgpu

>  <m_score__min__energy>  (34) 
-10.539999999999999

>  <m_primary>  (34) 
energy

$$$$
34:0
     RDKit          3D

 46 48  0  0  0  0  0  0  0  0999 V2000
   -3.0180   18.3140  -25.9970 O   0  0  0  0  0  0  0  0  0  0  0  0
   -2.0490   18.6050  -26.7290 N   0  0  0  0  0  0  0  0  0  0  0  0
   -0.9440   17.7840  -26.7230 O   0  0  0  0  0  0  0  0  0  0  0  0
   -2.0850   19.7760  -27.5640 C   0  0  0  0  0  0  0  0  0  0  0  0
   -3.0010   20.8090  -27.2990 C   0  0  0  0  0  0  0  0  0  0  0  0
   -3.0410   21.9480  -28.1100 C   0  0  0  0  0  0  0  0  0  0  0  0
   -2.1600   22.0780  -29.1930 C   0  0  0  0  0  0  0  0  0  0  0  0
   -2.2270   23.2870  -30.0850 C   0  0  0  0  0  0  0  0  0  0  0  0
   -3.8290   24.0620  -29.9630 S   0  0  0  0  0  0  0  0  0  0  0  0
   -4.1030   24.4490  -28.5360 O   0  0  0  0  0  0  0  0  0  0  0  0
   -3.8640   25.3000  -30.8150 O   0  0  0  0  0  0  0  0  0  0  0  0
   -5.0560   22.9270  -30.5150 C   0  0  0  0  0  0  0  0  0  0  0  0
   -6.4080   23.2940  -30.5100 C   0  0  0  0  0  0  0  0  0  0  0  0
   -7.3800   22.4000  -30.9670 C   0  0  0  0  0  0  0  0  0  0  0  0
   -7.0100   21.1350  -31.4440 C   0  0  0  0  0  0  0  0  0  0  0  0
   -8.2390   20.0030  -32.0200 S   0  0  0  0  0  0  0  0  0  0  0  0
   -8.8290   19.2790  -30.8420 O   0  0  0  0  0  0  0  0  0  0  0  0
   -9.3400   20.7780  -32.6900 O   0  0  0  0  0  0  0  0  0  0  0  0
   -7.5990   18.8320  -33.1480 N   0  0  0  0  0  0  0  0  0  0  0  0
   -7.0840   17.6350  -32.4810 C   0  0  0  0  0  0  0  0  0  0  0  0
   -6.0380   17.0360  -33.4110 C   0  0  0  0  0  0  0  0  0  0  0  0
   -5.6450   18.1610  -34.3580 C   0  0  0  0  0  0  0  0  0  0  0  0
   -6.4790   19.3610  -33.9300 C   0  0  0  0  0  0  0  0  0  0  0  0
   -5.6550   20.7680  -31.4450 C   0  0  0  0  0  0  0  0  0  0  0  0
   -4.6840   21.6620  -30.9890 C   0  0  0  0  0  0  0  0  0  0  0  0
   -1.2520   21.0450  -29.4690 C   0  0  0  0  0  0  0  0  0  0  0  0
   -1.2120   19.9060  -28.6590 C   0  0  0  0  0  0  0  0  0  0  0  0
   -3.6916   20.7209  -26.4473 H   0  0  0  0  0  0  0  0  0  0  0  0
   -3.7675   22.7460  -27.8970 H   0  0  0  0  0  0  0  0  0  0  0  0
   -1.4524   24.0059  -29.7798 H   0  0  0  0  0  0  0  0  0  0  0  0
   -2.0614   22.9720  -31.1258 H   0  0  0  0  0  0  0  0  0  0  0  0
   -6.7052   24.2884  -30.1454 H   0  0  0  0  0  0  0  0  0  0  0  0
   -8.4408   22.6905  -30.9523 H   0  0  0  0  0  0  0  0  0  0  0  0
   -8.3690   18.5530  -33.8020 H   0  0  0  0  0  0  0  0  0  0  0  0
   -6.6260   17.9044  -31.5178 H   0  0  0  0  0  0  0  0  0  0  0  0
   -7.8912   16.9164  -32.2760 H   0  0  0  0  0  0  0  0  0  0  0  0
   -5.1643   16.6935  -32.8372 H   0  0  0  0  0  0  0  0  0  0  0  0
   -6.4269   16.1621  -33.9541 H   0  0  0  0  0  0  0  0  0  0  0  0
   -4.5721   18.3852  -34.2647 H   0  0  0  0  0  0  0  0  0  0  0  0
   -5.8253   17.8920  -35.4093 H   0  0  0  0  0  0  0  0  0  0  0  0
   -5.8747   20.0436  -33.3144 H   0  0  0  0  0  0  0  0  0  0  0  0
   -6.8359   19.9285  -34.8021 H   0  0  0  0  0  0  0  0  0  0  0  0
   -5.3571   19.7727  -31.8063 H   0  0  0  0  0  0  0  0  0  0  0  0
   -3.6230   21.3720  -31.0020 H   0  0  0  0  0  0  0  0  0  0  0  0
   -0.5684   21.1314  -30.3265 H   0  0  0  0  0  0  0  0  0  0  0  0
   -0.4915   19.1047  -28.8801 H   0  0  0  0  0  0  0  0  0  0  0  0
  1  2  2  0
  2  3  1  0
  2  4  1  0
  4  5  2  0
  5  6  1  0
  6  7  2  0
  7  8  1  0
  8  9  1  0
  9 10  2  0
  9 11  2  0
  9 12  1  0
 12 13  2  0
 13 14  1  0
 14 15  2  0
 15 16  1  0
 16 17  2  0
 16 18  2  0
 16 19  1  0
 19 20  1  0
 20 21  1  0
 21 22  1  0
 22 23  1  0
 15 24  1  0
 24 25  2  0
  7 26  1  0
 26 27  2  0
 27  4  1  0
 25 12  1  0
 23 19  1  0
  5 28  1  0
  6 29  1  0
  8 30  1  0
  8 31  1  0
 13 32  1  0
 14 33  1  0
 19 34  1  0
 20 35  1  0
 20 36  1  0
 21 37  1  0
 21 38  1  0
 22 39  1  0
 22 40  1  0
 23 41  1  0
 23 42  1  0
 24 43  1  0
 25 44  1  0
 26 45  1  0
 27 46  1  0
M  CHG  3   2   1   3  -1  19   1
M  END
>  <UniqueID>  (35) 
34

>  <SMILES>  (35) 
O=[N+]([O-])c1ccc(CS(=O)(=O)c2ccc(S(=O)(=O)[NH+]3CCCC3)cc2)cc1

>  <Energy>  (35) 
46.215737253747335

>  <Genealogy>  (35) 
O=[N+]([O-])c1ccc(CS(=O)(=O)c2ccc(S(=O)(=O)[NH+]3CCCC3)cc2)cc1 (protonated)
O=[N+]([O-])c1ccc(CS(=O)(=O)c2ccc(S(=O)(=O)[NH+]3CCCC3)cc2)cc1 (3D coordinates assigned)
O=[N+]([O-])c1ccc(CS(=O)(=O)c2ccc(S(=O)(=O)[NH+]3CCCC3)cc2)cc1 (nonaromatic ring conformer: 46.215737253747335 kcal/mol)

>  <smiles>  (35) 
O=[N+]([O-])c1ccc(CS(=O)(=O)c2ccc(S(=O)(=O)N3CCCC3)cc2)cc1

>  <score_type>  (35) 
oracle

>  <origin>  (35) 
adgpu

>  <m_score__min__energy>  (35) 
-10.08

>  <m_primary>  (35) 
energy

$$$$
35:0
     RDKit          3D

 46 48  0  0  0  0  0  0  0  0999 V2000
   -9.1390   19.9770  -33.0930 O   0  0  0  0  0  0  0  0  0  0  0  0
   -7.7770   19.6510  -32.5470 S   0  0  0  0  0  0  0  0  0  0  0  0
   -7.9200   18.5940  -31.4890 O   0  0  0  0  0  0  0  0  0  0  0  0
   -6.7680   19.0500  -33.8230 N   0  0  0  0  0  0  0  0  0  0  0  0
   -6.0910   17.7830  -33.8170 C   0  0  0  0  0  0  0  0  0  0  0  0
   -6.7980   16.5650  -33.8490 C   0  0  0  0  0  0  0  0  0  0  0  0
   -6.1110   15.3480  -33.8340 C   0  0  0  0  0  0  0  0  0  0  0  0
   -4.7160   15.3320  -33.7920 C   0  0  0  0  0  0  0  0  0  0  0  0
   -4.0050   16.5340  -33.7600 C   0  0  0  0  0  0  0  0  0  0  0  0
   -4.6860   17.7570  -33.7690 C   0  0  0  0  0  0  0  0  0  0  0  0
   -3.7600   19.2510  -33.7330 Cl  0  0  0  0  0  0  0  0  0  0  0  0
   -7.0190   21.0710  -31.8360 C   0  0  0  0  0  0  0  0  0  0  0  0
   -7.5930   21.7150  -30.7320 C   0  0  0  0  0  0  0  0  0  0  0  0
   -7.0270   22.8930  -30.2350 C   0  0  0  0  0  0  0  0  0  0  0  0
   -5.8850   23.4380  -30.8400 C   0  0  0  0  0  0  0  0  0  0  0  0
   -5.2400   24.9720  -30.2590 S   0  0  0  0  0  0  0  0  0  0  0  0
   -5.8140   25.3010  -28.9090 O   0  0  0  0  0  0  0  0  0  0  0  0
   -5.6790   26.0460  -31.2140 O   0  0  0  0  0  0  0  0  0  0  0  0
   -3.4910   24.9850  -30.1900 N   0  0  0  0  0  0  0  0  0  0  0  0
   -2.8460   23.8300  -29.5340 C   0  0  0  0  0  0  0  0  0  0  0  0
   -2.3880   22.7590  -30.5580 C   0  0  0  0  0  0  0  0  0  0  0  0
   -2.4440   21.3280  -29.9970 C   0  0  0  0  0  0  0  0  0  0  0  0
   -1.9700   21.2850  -28.5410 C   0  0  0  0  0  0  0  0  0  0  0  0
   -2.8310   22.1670  -27.6090 C   0  0  0  0  0  0  0  0  0  0  0  0
   -3.6460   23.2400  -28.3540 C   0  0  0  0  0  0  0  0  0  0  0  0
   -5.2850   22.7640  -31.9140 C   0  0  0  0  0  0  0  0  0  0  0  0
   -5.8560   21.5930  -32.4150 C   0  0  0  0  0  0  0  0  0  0  0  0
   -7.8974   16.5718  -33.8860 H   0  0  0  0  0  0  0  0  0  0  0  0
   -6.6706   14.4012  -33.8553 H   0  0  0  0  0  0  0  0  0  0  0  0
   -4.1767   14.3733  -33.7841 H   0  0  0  0  0  0  0  0  0  0  0  0
   -2.9056   16.5194  -33.7276 H   0  0  0  0  0  0  0  0  0  0  0  0
   -8.4903   21.2932  -30.2555 H   0  0  0  0  0  0  0  0  0  0  0  0
   -7.4790   23.3941  -29.3664 H   0  0  0  0  0  0  0  0  0  0  0  0
   -1.9353   24.2312  -29.0653 H   0  0  0  0  0  0  0  0  0  0  0  0
   -3.0423   22.8154  -31.4404 H   0  0  0  0  0  0  0  0  0  0  0  0
   -1.3388   22.9726  -30.8103 H   0  0  0  0  0  0  0  0  0  0  0  0
   -3.4804   20.9629  -30.0479 H   0  0  0  0  0  0  0  0  0  0  0  0
   -1.7787   20.6916  -30.5989 H   0  0  0  0  0  0  0  0  0  0  0  0
   -2.0182   20.2452  -28.1855 H   0  0  0  0  0  0  0  0  0  0  0  0
   -0.9422   21.6761  -28.5137 H   0  0  0  0  0  0  0  0  0  0  0  0
   -3.5300   21.5165  -27.0628 H   0  0  0  0  0  0  0  0  0  0  0  0
   -2.1395   22.6964  -26.9370 H   0  0  0  0  0  0  0  0  0  0  0  0
   -4.5704   22.7850  -28.7393 H   0  0  0  0  0  0  0  0  0  0  0  0
   -3.8775   24.0526  -27.6496 H   0  0  0  0  0  0  0  0  0  0  0  0
   -4.3618   23.1595  -32.3627 H   0  0  0  0  0  0  0  0  0  0  0  0
   -5.3903   21.0781  -33.2683 H   0  0  0  0  0  0  0  0  0  0  0  0
  1  2  2  0
  2  3  2  0
  2  4  1  0
  4  5  1  0
  5  6  2  0
  6  7  1  0
  7  8  2  0
  8  9  1  0
  9 10  2  0
 10 11  1  0
  2 12  1  0
 12 13  2  0
 13 14  1  0
 14 15  2  0
 15 16  1  0
 16 17  2  0
 16 18  2  0
 16 19  1  0
 19 20  1  0
 20 21  1  0
 21 22  1  0
 22 23  1  0
 23 24  1  0
 24 25  1  0
 15 26  1  0
 26 27  2  0
 10  5  1  0
 27 12  1  0
 25 20  1  0
  6 28  1  0
  7 29  1  0
  8 30  1  0
  9 31  1  0
 13 32  1  0
 14 33  1  0
 20 34  1  0
 21 35  1  0
 21 36  1  0
 22 37  1  0
 22 38  1  0
 23 39  1  0
 23 40  1  0
 24 41  1  0
 24 42  1  0
 25 43  1  0
 25 44  1  0
 26 45  1  0
 27 46  1  0
M  CHG  2   4  -1  19  -1
M  END
>  <UniqueID>  (36) 
35

>  <SMILES>  (36) 
O=S(=O)([N-]c1ccccc1Cl)c1ccc(S(=O)(=O)[N-]C2CCCCC2)cc1

>  <Energy>  (36) 
55.666423639754996

>  <Genealogy>  (36) 
O=S(=O)([N-]c1ccccc1Cl)c1ccc(S(=O)(=O)[N-]C2CCCCC2)cc1 (protonated)
O=S(=O)([N-]c1ccccc1Cl)c1ccc(S(=O)(=O)[N-]C2CCCCC2)cc1 (3D coordinates assigned)
O=S(=O)([N-]c1ccccc1Cl)c1ccc(S(=O)(=O)[N-]C2CCCCC2)cc1 (nonaromatic ring conformer: 55.666423639754996 kcal/mol)

>  <smiles>  (36) 
O=S(=O)(Nc1ccccc1Cl)c1ccc(S(=O)(=O)NC2CCCCC2)cc1

>  <score_type>  (36) 
oracle

>  <origin>  (36) 
adgpu

>  <m_score__min__energy>  (36) 
-11.039999999999999

>  <m_primary>  (36) 
energy

$$$$
36:0
     RDKit          3D

 54 56  0  0  0  0  0  0  0  0999 V2000
    0.4620   27.3430  -23.3390 C   0  0  0  0  0  0  0  0  0  0  0  0
   -0.8480   26.5870  -23.5410 C   0  0  0  0  0  0  0  0  0  0  0  0
   -1.1540   26.3960  -25.0030 C   0  0  0  0  0  0  0  0  0  0  0  0
   -1.5780   27.3770  -25.6690 O   0  0  0  0  0  0  0  0  0  0  0  0
   -1.1040   25.1080  -25.6320 N   0  0  0  0  0  0  0  0  0  0  0  0
   -1.8080   24.7000  -26.8110 C   0  0  0  0  0  0  0  0  0  0  0  0
   -1.1530   24.5450  -28.0430 C   0  0  0  0  0  0  0  0  0  0  0  0
   -1.8720   24.1770  -29.1840 C   0  0  0  0  0  0  0  0  0  0  0  0
   -3.2590   23.9660  -29.1110 C   0  0  0  0  0  0  0  0  0  0  0  0
   -4.0130   23.6110  -30.2820 N   0  0  0  0  0  0  0  0  0  0  0  0
   -4.9420   24.4020  -30.8020 N   0  0  0  0  0  0  0  0  0  0  0  0
   -5.4440   23.7980  -31.8970 C   0  0  0  0  0  0  0  0  0  0  0  0
   -4.8070   22.5900  -32.0760 C   0  0  0  0  0  0  0  0  0  0  0  0
   -5.0650   21.6970  -33.1240 O   0  0  0  0  0  0  0  0  0  0  0  0
   -5.6930   20.4540  -32.9580 C   0  0  0  0  0  0  0  0  0  0  0  0
   -7.0160   20.3770  -32.4680 C   0  0  0  0  0  0  0  0  0  0  0  0
   -7.7210   21.6320  -32.0040 C   0  0  0  0  0  0  0  0  0  0  0  0
   -7.6740   19.1250  -32.4340 C   0  0  0  0  0  0  0  0  0  0  0  0
   -9.1130   19.0160  -31.9820 C   0  0  0  0  0  0  0  0  0  0  0  0
   -6.9670   17.9580  -32.7830 C   0  0  0  0  0  0  0  0  0  0  0  0
   -7.5960   16.7190  -32.6860 O   0  0  0  0  0  0  0  0  0  0  0  0
   -5.6300   18.0280  -33.2210 C   0  0  0  0  0  0  0  0  0  0  0  0
   -4.8970   16.7600  -33.6000 C   0  0  0  0  0  0  0  0  0  0  0  0
   -4.9770   19.2820  -33.2740 C   0  0  0  0  0  0  0  0  0  0  0  0
   -3.5470   19.3900  -33.7520 C   0  0  0  0  0  0  0  0  0  0  0  0
   -3.9160   22.4780  -31.0190 C   0  0  0  0  0  0  0  0  0  0  0  0
   -3.0770   21.2810  -30.6710 C   0  0  0  0  0  0  0  0  0  0  0  0
   -3.9190   24.1740  -27.8900 C   0  0  0  0  0  0  0  0  0  0  0  0
   -3.1980   24.5410  -26.7500 C   0  0  0  0  0  0  0  0  0  0  0  0
    0.6579   27.4560  -22.2625 H   0  0  0  0  0  0  0  0  0  0  0  0
    1.2852   26.7811  -23.8044 H   0  0  0  0  0  0  0  0  0  0  0  0
    0.3873   28.3369  -23.8044 H   0  0  0  0  0  0  0  0  0  0  0  0
   -0.7695   25.6007  -23.0602 H   0  0  0  0  0  0  0  0  0  0  0  0
   -1.6604   27.1773  -23.0922 H   0  0  0  0  0  0  0  0  0  0  0  0
   -0.0682   24.7140  -28.1109 H   0  0  0  0  0  0  0  0  0  0  0  0
   -1.3492   24.0520  -30.1437 H   0  0  0  0  0  0  0  0  0  0  0  0
   -6.2354   24.2044  -32.5440 H   0  0  0  0  0  0  0  0  0  0  0  0
   -7.7361   21.6589  -30.9044 H   0  0  0  0  0  0  0  0  0  0  0  0
   -7.1868   22.5148  -32.3850 H   0  0  0  0  0  0  0  0  0  0  0  0
   -8.7529   21.6351  -32.3850 H   0  0  0  0  0  0  0  0  0  0  0  0
   -9.1528   19.0130  -30.8827 H   0  0  0  0  0  0  0  0  0  0  0  0
   -9.6843   19.8734  -32.3672 H   0  0  0  0  0  0  0  0  0  0  0  0
   -9.5486   18.0823  -32.3672 H   0  0  0  0  0  0  0  0  0  0  0  0
   -4.5893   16.2278  -32.6878 H   0  0  0  0  0  0  0  0  0  0  0  0
   -5.5619   16.1156  -34.1939 H   0  0  0  0  0  0  0  0  0  0  0  0
   -4.0068   17.0146  -34.1939 H   0  0  0  0  0  0  0  0  0  0  0  0
   -2.8731   19.4409  -32.8841 H   0  0  0  0  0  0  0  0  0  0  0  0
   -3.2960   18.5083  -34.3599 H   0  0  0  0  0  0  0  0  0  0  0  0
   -3.4313   20.2994  -34.3599 H   0  0  0  0  0  0  0  0  0  0  0  0
   -3.0101   21.1856  -29.5772 H   0  0  0  0  0  0  0  0  0  0  0  0
   -3.5388   20.3751  -31.0905 H   0  0  0  0  0  0  0  0  0  0  0  0
   -2.0679   21.4061  -31.0905 H   0  0  0  0  0  0  0  0  0  0  0  0
   -5.0100   24.0475  -27.8297 H   0  0  0  0  0  0  0  0  0  0  0  0
   -3.7258   24.7059  -25.7991 H   0  0  0  0  0  0  0  0  0  0  0  0
  1  2  1  0
  2  3  1  0
  3  4  2  0
  3  5  1  0
  5  6  1  0
  6  7  2  0
  7  8  1  0
  8  9  2  0
  9 10  1  0
 10 11  1  0
 11 12  2  0
 12 13  1  0
 13 14  1  0
 14 15  1  0
 15 16  2  0
 16 17  1  0
 16 18  1  0
 18 19  1  0
 18 20  2  0
 20 21  1  0
 20 22  1  0
 22 23  1  0
 22 24  2  0
 24 25  1  0
 13 26  2  0
 26 27  1  0
  9 28  1  0
 28 29  2  0
 29  6  1  0
 26 10  1  0
 24 15  1  0
  1 30  1  0
  1 31  1  0
  1 32  1  0
  2 33  1  0
  2 34  1  0
  7 35  1  0
  8 36  1  0
 12 37  1  0
 17 38  1  0
 17 39  1  0
 17 40  1  0
 19 41  1  0
 19 42  1  0
 19 43  1  0
 23 44  1  0
 23 45  1  0
 23 46  1  0
 25 47  1  0
 25 48  1  0
 25 49  1  0
 27 50  1  0
 27 51  1  0
 27 52  1  0
 28 53  1  0
 29 54  1  0
M  CHG  2   5  -1  21  -1
M  END
>  <UniqueID>  (37) 
36

>  <SMILES>  (37) 
CCC(=O)[N-]c1ccc(-n2ncc(Oc3c(C)c(C)c([O-])c(C)c3C)c2C)cc1

>  <Energy>  (37) 
106.57607400526962

>  <Genealogy>  (37) 
CCC(=O)[N-]c1ccc(-n2ncc(Oc3c(C)c(C)c([O-])c(C)c3C)c2C)cc1 (protonated)
CCC(=O)[N-]c1ccc(-n2ncc(Oc3c(C)c(C)c([O-])c(C)c3C)c2C)cc1 (3D coordinates assigned)
CCC(=O)[N-]c1ccc(-n2ncc(Oc3c(C)c(C)c([O-])c(C)c3C)c2C)cc1 (optimized conformer: 106.57607400526962 kcal/mol)

>  <smiles>  (37) 
CCC(=O)Nc1ccc(-n2ncc(Oc3c(C)c(C)c(O)c(C)c3C)c2C)cc1

>  <score_type>  (37) 
oracle

>  <origin>  (37) 
adgpu

>  <m_score__min__energy>  (37) 
-9.5999999999999996

>  <m_primary>  (37) 
energy

$$$$
37:0
     RDKit          3D

 46 48  0  0  0  0  0  0  0  0999 V2000
   -3.0690   19.9790  -33.4450 C   0  0  0  0  0  0  0  0  0  0  0  0
   -3.0600   18.5710  -34.0670 C   0  0  0  0  0  0  0  0  0  0  0  0
   -4.2560   17.7310  -33.7790 N   0  0  0  0  0  0  0  0  0  0  0  0
   -4.1560   16.3240  -34.2360 C   0  0  0  0  0  0  0  0  0  0  0  0
   -5.3700   15.4870  -33.8160 C   0  0  0  0  0  0  0  0  0  0  0  0
   -5.4780   18.3300  -34.2940 C   0  0  0  0  0  0  0  0  0  0  0  0
   -5.7460   18.2480  -35.5240 O   0  0  0  0  0  0  0  0  0  0  0  0
   -6.4640   18.9980  -33.3980 C   0  0  0  0  0  0  0  0  0  0  0  0
   -7.4200   18.2100  -32.6970 C   0  0  0  0  0  0  0  0  0  0  0  0
   -8.3460   18.8030  -31.8200 C   0  0  0  0  0  0  0  0  0  0  0  0
   -8.2950   20.1830  -31.6540 C   0  0  0  0  0  0  0  0  0  0  0  0
   -9.0660   20.9370  -30.8500 N   0  0  0  0  0  0  0  0  0  0  0  0
   -8.6330   22.2100  -31.0030 C   0  0  0  0  0  0  0  0  0  0  0  0
   -7.5840   22.2520  -31.9120 C   0  0  0  0  0  0  0  0  0  0  0  0
   -6.6670   23.7060  -32.4180 S   0  0  0  0  0  0  0  0  0  0  0  0
   -5.3140   23.3520  -31.2970 C   0  0  0  0  0  0  0  0  0  0  0  0
   -4.9920   22.0260  -30.9820 C   0  0  0  0  0  0  0  0  0  0  0  0
   -3.9440   21.7500  -30.0990 C   0  0  0  0  0  0  0  0  0  0  0  0
   -3.2120   22.7970  -29.5330 C   0  0  0  0  0  0  0  0  0  0  0  0
   -3.5220   24.1280  -29.8490 C   0  0  0  0  0  0  0  0  0  0  0  0
   -2.7730   25.2000  -29.2700 N   0  0  0  0  0  0  0  0  0  0  0  0
   -4.5760   24.4010  -30.7350 C   0  0  0  0  0  0  0  0  0  0  0  0
   -7.3810   20.9520  -32.3200 C   0  0  0  0  0  0  0  0  0  0  0  0
   -6.4510   20.4010  -33.1990 C   0  0  0  0  0  0  0  0  0  0  0  0
   -3.0685   19.8953  -32.3482 H   0  0  0  0  0  0  0  0  0  0  0  0
   -2.1744   20.5297  -33.7712 H   0  0  0  0  0  0  0  0  0  0  0  0
   -3.9706   20.5182  -33.7712 H   0  0  0  0  0  0  0  0  0  0  0  0
   -2.9809   18.6839  -35.1583 H   0  0  0  0  0  0  0  0  0  0  0  0
   -2.2077   18.0465  -33.6105 H   0  0  0  0  0  0  0  0  0  0  0  0
   -4.3280   17.7260  -32.7340 H   0  0  0  0  0  0  0  0  0  0  0  0
   -4.0817   16.3132  -35.3334 H   0  0  0  0  0  0  0  0  0  0  0  0
   -3.2644   15.8812  -33.7680 H   0  0  0  0  0  0  0  0  0  0  0  0
   -5.4264   15.4481  -32.7181 H   0  0  0  0  0  0  0  0  0  0  0  0
   -6.2871   15.9456  -34.2143 H   0  0  0  0  0  0  0  0  0  0  0  0
   -5.2675   14.4668  -34.2143 H   0  0  0  0  0  0  0  0  0  0  0  0
   -7.4348   17.1199  -32.8435 H   0  0  0  0  0  0  0  0  0  0  0  0
   -9.0876   18.1942  -31.2820 H   0  0  0  0  0  0  0  0  0  0  0  0
   -9.8360   20.6100  -30.2240 H   0  0  0  0  0  0  0  0  0  0  0  0
   -9.0512   23.0844  -30.4829 H   0  0  0  0  0  0  0  0  0  0  0  0
   -5.5645   21.2005  -31.4300 H   0  0  0  0  0  0  0  0  0  0  0  0
   -3.6954   20.7079  -29.8496 H   0  0  0  0  0  0  0  0  0  0  0  0
   -2.3893   22.5766  -28.8368 H   0  0  0  0  0  0  0  0  0  0  0  0
   -2.9660   25.5210  -28.2950 H   0  0  0  0  0  0  0  0  0  0  0  0
   -2.0190   25.6780  -29.8120 H   0  0  0  0  0  0  0  0  0  0  0  0
   -4.8230   25.4424  -30.9887 H   0  0  0  0  0  0  0  0  0  0  0  0
   -5.7253   21.0387  -33.7250 H   0  0  0  0  0  0  0  0  0  0  0  0
  1  2  1  0
  2  3  1  0
  3  4  1  0
  4  5  1  0
  3  6  1  0
  6  7  2  0
  6  8  1  0
  8  9  2  0
  9 10  1  0
 10 11  2  0
 11 12  1  0
 12 13  1  0
 13 14  2  0
 14 15  1  0
 15 16  1  0
 16 17  2  0
 17 18  1  0
 18 19  2  0
 19 20  1  0
 20 21  1  0
 20 22  2  0
 14 23  1  0
 23 24  2  0
 24  8  1  0
 23 11  1  0
 22 16  1  0
  1 25  1  0
  1 26  1  0
  1 27  1  0
  2 28  1  0
  2 29  1  0
  3 30  1  0
  4 31  1  0
  4 32  1  0
  5 33  1  0
  5 34  1  0
  5 35  1  0
  9 36  1  0
 10 37  1  0
 12 38  1  0
 13 39  1  0
 17 40  1  0
 18 41  1  0
 19 42  1  0
 21 43  1  0
 21 44  1  0
 22 45  1  0
 24 46  1  0
M  CHG  1   3   1
M  END
>  <UniqueID>  (38) 
37

>  <SMILES>  (38) 
CC[NH+](CC)C(=O)c1ccc2[nH]cc(Sc3cccc(N)c3)c2c1

>  <Energy>  (38) 
81.82251337236272

>  <Genealogy>  (38) 
CC[NH+](CC)C(=O)c1ccc2[nH]cc(Sc3cccc(N)c3)c2c1 (protonated)
CC[NH+](CC)C(=O)c1ccc2[nH]cc(Sc3cccc(N)c3)c2c1 (3D coordinates assigned)
CC[NH+](CC)C(=O)c1ccc2[nH]cc(Sc3cccc(N)c3)c2c1 (optimized conformer: 81.82251337236272 kcal/mol)

>  <smiles>  (38) 
CCN(CC)C(=O)c1ccc2[nH]cc(Sc3cccc(N)c3)c2c1

>  <score_type>  (38) 
oracle

>  <origin>  (38) 
adgpu

>  <m_score__min__energy>  (38) 
-8.0199999999999996

>  <m_primary>  (38) 
energy

$$$$
38:0
     RDKit          3D

 55 59  0  0  0  0  0  0  0  0999 V2000
   -6.2230   25.6720  -29.6320 C   0  0  0  0  0  0  0  0  0  0  0  0
   -4.9420   25.4430  -30.4390 C   0  0  0  0  0  0  0  0  0  0  0  0
   -5.1260   24.3290  -31.3970 N   0  0  0  0  0  0  0  0  0  0  0  0
   -4.1860   23.1990  -31.1290 C   0  0  0  0  0  0  0  0  0  0  0  0
   -4.8860   21.8670  -30.8370 C   0  0  0  0  0  0  0  0  0  0  0  0
   -5.8760   21.6030  -31.8800 N   0  0  0  0  0  0  0  0  0  0  0  0
   -5.9580   20.3080  -32.4970 C   0  0  0  0  0  0  0  0  0  0  0  0
   -7.1710   19.5830  -32.5260 C   0  0  0  0  0  0  0  0  0  0  0  0
   -7.2240   18.2930  -33.1080 C   0  0  0  0  0  0  0  0  0  0  0  0
   -6.0700   17.7200  -33.6750 C   0  0  0  0  0  0  0  0  0  0  0  0
   -4.8930   18.4680  -33.6400 C   0  0  0  0  0  0  0  0  0  0  0  0
   -3.6880   18.1460  -34.1280 N   0  0  0  0  0  0  0  0  0  0  0  0
   -2.9190   19.2330  -33.8480 C   0  0  0  0  0  0  0  0  0  0  0  0
   -1.4860   19.3630  -34.2110 C   0  0  0  0  0  0  0  0  0  0  0  0
   -0.6610   18.2240  -34.2020 C   0  0  0  0  0  0  0  0  0  0  0  0
    0.6860   18.3230  -34.5470 C   0  0  0  0  0  0  0  0  0  0  0  0
    1.2300   19.5560  -34.9110 C   0  0  0  0  0  0  0  0  0  0  0  0
    0.4270   20.7080  -34.9380 C   0  0  0  0  0  0  0  0  0  0  0  0
    0.9790   22.0220  -35.3460 C   0  0  0  0  0  0  0  0  0  0  0  0
    2.3200   22.3730  -35.4420 C   0  0  0  0  0  0  0  0  0  0  0  0
    2.3400   23.6850  -35.8650 C   0  0  0  0  0  0  0  0  0  0  0  0
    1.0180   24.0520  -36.0030 C   0  0  0  0  0  0  0  0  0  0  0  0
    0.5300   25.3880  -36.4540 C   0  0  0  0  0  0  0  0  0  0  0  0
    0.2310   23.0510  -35.6860 O   0  0  0  0  0  0  0  0  0  0  0  0
   -0.9310   20.6020  -34.5860 C   0  0  0  0  0  0  0  0  0  0  0  0
   -3.6000   20.2200  -33.2040 N   0  0  0  0  0  0  0  0  0  0  0  0
   -4.8380   19.7090  -33.0800 C   0  0  0  0  0  0  0  0  0  0  0  0
   -6.7550   22.6850  -32.3300 C   0  0  0  0  0  0  0  0  0  0  0  0
   -6.5550   23.9390  -31.4680 C   0  0  0  0  0  0  0  0  0  0  0  0
   -5.9917   25.6307  -28.5574 H   0  0  0  0  0  0  0  0  0  0  0  0
   -6.6407   26.6591  -29.8794 H   0  0  0  0  0  0  0  0  0  0  0  0
   -6.9568   24.8908  -29.8794 H   0  0  0  0  0  0  0  0  0  0  0  0
   -4.6943   26.3602  -30.9934 H   0  0  0  0  0  0  0  0  0  0  0  0
   -4.1261   25.1867  -29.7471 H   0  0  0  0  0  0  0  0  0  0  0  0
   -3.5428   23.0664  -32.0114 H   0  0  0  0  0  0  0  0  0  0  0  0
   -3.6149   23.4648  -30.2273 H   0  0  0  0  0  0  0  0  0  0  0  0
   -4.1424   21.0565  -30.8224 H   0  0  0  0  0  0  0  0  0  0  0  0
   -5.3863   21.9201  -29.8588 H   0  0  0  0  0  0  0  0  0  0  0  0
   -8.0809   20.0242  -32.0931 H   0  0  0  0  0  0  0  0  0  0  0  0
   -8.1723   17.7356  -33.1170 H   0  0  0  0  0  0  0  0  0  0  0  0
   -6.0954   16.7185  -34.1293 H   0  0  0  0  0  0  0  0  0  0  0  0
   -3.4280   17.2650  -34.6250 H   0  0  0  0  0  0  0  0  0  0  0  0
   -1.0819   17.2475  -33.9205 H   0  0  0  0  0  0  0  0  0  0  0  0
    1.3227   17.4261  -34.5324 H   0  0  0  0  0  0  0  0  0  0  0  0
    2.2947   19.6258  -35.1785 H   0  0  0  0  0  0  0  0  0  0  0  0
    3.1887   21.7342  -35.2247 H   0  0  0  0  0  0  0  0  0  0  0  0
    3.2260   24.3091  -36.0532 H   0  0  0  0  0  0  0  0  0  0  0  0
    0.3025   26.0107  -35.5762 H   0  0  0  0  0  0  0  0  0  0  0  0
    1.3075   25.8772  -37.0591 H   0  0  0  0  0  0  0  0  0  0  0  0
   -0.3798   25.2609  -37.0591 H   0  0  0  0  0  0  0  0  0  0  0  0
   -1.5678   21.4987  -34.6039 H   0  0  0  0  0  0  0  0  0  0  0  0
   -6.5236   22.9263  -33.3780 H   0  0  0  0  0  0  0  0  0  0  0  0
   -7.8000   22.3542  -32.2369 H   0  0  0  0  0  0  0  0  0  0  0  0
   -7.1303   24.7684  -31.9051 H   0  0  0  0  0  0  0  0  0  0  0  0
   -6.9022   23.7153  -30.4485 H   0  0  0  0  0  0  0  0  0  0  0  0
  1  2  1  0
  2  3  1  0
  3  4  1  0
  4  5  1  0
  5  6  1  0
  6  7  1  0
  7  8  2  0
  8  9  1  0
  9 10  2  0
 10 11  1  0
 11 12  1  0
 12 13  1  0
 13 14  1  0
 14 15  2  0
 15 16  1  0
 16 17  2  0
 17 18  1  0
 18 19  1  0
 19 20  2  0
 20 21  1  0
 21 22  2  0
 22 23  1  0
 22 24  1  0
 18 25  2  0
 13 26  2  0
 26 27  1  0
  6 28  1  0
 28 29  1  0
 29  3  1  0
 27  7  1  0
 27 11  2  0
 25 14  1  0
 24 19  1  0
  1 30  1  0
  1 31  1  0
  1 32  1  0
  2 33  1  0
  2 34  1  0
  4 35  1  0
  4 36  1  0
  5 37  1  0
  5 38  1  0
  8 39  1  0
  9 40  1  0
 10 41  1  0
 12 42  1  0
 15 43  1  0
 16 44  1  0
 17 45  1  0
 20 46  1  0
 21 47  1  0
 23 48  1  0
 23 49  1  0
 23 50  1  0
 25 51  1  0
 28 52  1  0
 28 53  1  0
 29 54  1  0
 29 55  1  0
M  END
>  <UniqueID>  (39) 
38

>  <SMILES>  (39) 
CCN1CCN(c2cccc3[nH]c(-c4cccc(-c5ccc(C)o5)c4)nc23)CC1

>  <Energy>  (39) 
133.39642443646858

>  <Genealogy>  (39) 
CCN1CCN(c2cccc3[nH]c(-c4cccc(-c5ccc(C)o5)c4)nc23)CC1 (3D coordinates assigned)
CCN1CCN(c2cccc3[nH]c(-c4cccc(-c5ccc(C)o5)c4)nc23)CC1 (nonaromatic ring conformer: 133.39642443646858 kcal/mol)

>  <smiles>  (39) 
CCN1CCN(c2cccc3[nH]c(-c4cccc(-c5ccc(C)o5)c4)nc23)CC1

>  <score_type>  (39) 
oracle

>  <origin>  (39) 
adgpu

>  <m_score__min__energy>  (39) 
-9.2799999999999994

>  <m_primary>  (39) 
energy

$$$$
39:0
     RDKit          3D

 45 48  0  0  0  0  0  0  0  0999 V2000
   -0.8240   21.4350  -25.8180 O   0  0  0  0  0  0  0  0  0  0  0  0
   -0.7760   21.7100  -27.0460 C   0  0  0  0  0  0  0  0  0  0  0  0
   -0.7180   20.6330  -27.9920 N   0  0  0  0  0  0  0  0  0  0  0  0
   -1.4880   20.5720  -29.2000 C   0  0  0  0  0  0  0  0  0  0  0  0
   -0.8320   20.5050  -30.4320 C   0  0  0  0  0  0  0  0  0  0  0  0
   -1.5670   20.4060  -31.6180 C   0  0  0  0  0  0  0  0  0  0  0  0
   -2.9660   20.4020  -31.5840 C   0  0  0  0  0  0  0  0  0  0  0  0
   -3.8890   20.2260  -33.0720 S   0  0  0  0  0  0  0  0  0  0  0  0
   -3.8680   21.5330  -33.8130 O   0  0  0  0  0  0  0  0  0  0  0  0
   -3.2810   19.1570  -33.9370 O   0  0  0  0  0  0  0  0  0  0  0  0
   -5.5280   19.7880  -32.7100 N   0  0  0  0  0  0  0  0  0  0  0  0
   -6.1130   18.4810  -32.9980 C   0  0  0  0  0  0  0  0  0  0  0  0
   -7.6320   18.6250  -32.7120 C   0  0  0  0  0  0  0  0  0  0  0  0
   -7.7740   20.0500  -32.2930 C   0  0  0  0  0  0  0  0  0  0  0  0
   -8.9430   20.7370  -31.9530 C   0  0  0  0  0  0  0  0  0  0  0  0
   -8.8450   22.1010  -31.6220 C   0  0  0  0  0  0  0  0  0  0  0  0
   -7.5920   22.7480  -31.6450 C   0  0  0  0  0  0  0  0  0  0  0  0
   -6.4290   22.0320  -31.9850 C   0  0  0  0  0  0  0  0  0  0  0  0
   -6.5560   20.6770  -32.3060 C   0  0  0  0  0  0  0  0  0  0  0  0
   -3.6260   20.5300  -30.3560 C   0  0  0  0  0  0  0  0  0  0  0  0
   -2.8920   20.6050  -29.1690 C   0  0  0  0  0  0  0  0  0  0  0  0
   -0.8390   23.1240  -27.4820 C   0  0  0  0  0  0  0  0  0  0  0  0
    0.0910   24.0570  -26.9950 C   0  0  0  0  0  0  0  0  0  0  0  0
    0.0200   25.3990  -27.3830 C   0  0  0  0  0  0  0  0  0  0  0  0
    0.9530   26.3070  -26.8960 O   0  0  0  0  0  0  0  0  0  0  0  0
   -0.9880   25.8270  -28.2570 C   0  0  0  0  0  0  0  0  0  0  0  0
   -1.0500   27.1720  -28.6230 O   0  0  0  0  0  0  0  0  0  0  0  0
   -1.9200   24.8990  -28.7510 C   0  0  0  0  0  0  0  0  0  0  0  0
   -2.9180   25.3010  -29.6280 O   0  0  0  0  0  0  0  0  0  0  0  0
   -1.8450   23.5580  -28.3610 C   0  0  0  0  0  0  0  0  0  0  0  0
    0.2671   20.5302  -30.4693 H   0  0  0  0  0  0  0  0  0  0  0  0
   -1.0428   20.3309  -32.5821 H   0  0  0  0  0  0  0  0  0  0  0  0
   -5.9455   18.2100  -34.0509 H   0  0  0  0  0  0  0  0  0  0  0  0
   -5.6586   17.6899  -32.3835 H   0  0  0  0  0  0  0  0  0  0  0  0
   -8.2235   18.4203  -33.6165 H   0  0  0  0  0  0  0  0  0  0  0  0
   -7.9939   17.9169  -31.9520 H   0  0  0  0  0  0  0  0  0  0  0  0
   -9.9159   20.2237  -31.9444 H   0  0  0  0  0  0  0  0  0  0  0  0
   -9.7481   22.6643  -31.3445 H   0  0  0  0  0  0  0  0  0  0  0  0
   -7.5234   23.8173  -31.3960 H   0  0  0  0  0  0  0  0  0  0  0  0
   -5.4459   22.5254  -31.9979 H   0  0  0  0  0  0  0  0  0  0  0  0
   -4.7248   20.5716  -30.3253 H   0  0  0  0  0  0  0  0  0  0  0  0
   -3.4163   20.6903  -28.2058 H   0  0  0  0  0  0  0  0  0  0  0  0
    0.8812   23.7299  -26.3032 H   0  0  0  0  0  0  0  0  0  0  0  0
   -1.6690   27.5010  -29.3540 H   0  0  0  0  0  0  0  0  0  0  0  0
   -2.5806   22.8365  -28.7462 H   0  0  0  0  0  0  0  0  0  0  0  0
  1  2  2  0
  2  3  1  0
  3  4  1  0
  4  5  2  0
  5  6  1  0
  6  7  2  0
  7  8  1  0
  8  9  2  0
  8 10  2  0
  8 11  1  0
 11 12  1  0
 12 13  1  0
 13 14  1  0
 14 15  2  0
 15 16  1  0
 16 17  2  0
 17 18  1  0
 18 19  2  0
  7 20  1  0
 20 21  2  0
  2 22  1  0
 22 23  2  0
 23 24  1  0
 24 25  1  0
 24 26  2  0
 26 27  1  0
 26 28  1  0
 28 29  1  0
 28 30  2  0
 21  4  1  0
 30 22  1  0
 19 11  1  0
 19 14  1  0
  5 31  1  0
  6 32  1  0
 12 33  1  0
 12 34  1  0
 13 35  1  0
 13 36  1  0
 15 37  1  0
 16 38  1  0
 17 39  1  0
 18 40  1  0
 20 41  1  0
 21 42  1  0
 23 43  1  0
 27 44  1  0
 30 45  1  0
M  CHG  3   3  -1  25  -1  29  -1
M  END
>  <UniqueID>  (40) 
39

>  <SMILES>  (40) 
O=C([N-]c1ccc(S(=O)(=O)N2CCc3ccccc32)cc1)c1cc([O-])c(O)c([O-])c1

>  <Energy>  (40) 
71.171597772558

>  <Genealogy>  (40) 
O=C([N-]c1ccc(S(=O)(=O)N2CCc3ccccc32)cc1)c1cc([O-])c(O)c([O-])c1 (protonated)
O=C([N-]c1ccc(S(=O)(=O)N2CCc3ccccc32)cc1)c1cc([O-])c(O)c([O-])c1 (3D coordinates assigned)
O=C([N-]c1ccc(S(=O)(=O)N2CCc3ccccc32)cc1)c1cc([O-])c(O)c([O-])c1 (nonaromatic ring conformer: 71.171597772558 kcal/mol)

>  <smiles>  (40) 
O=C(Nc1ccc(S(=O)(=O)N2CCc3ccccc32)cc1)c1cc(O)c(O)c(O)c1

>  <score_type>  (40) 
oracle

>  <origin>  (40) 
adgpu

>  <m_score__min__energy>  (40) 
-12

>  <m_primary>  (40) 
energy

$$$$
40:0
     RDKit          3D

 50 52  0  0  0  0  0  0  0  0999 V2000
   -9.3870   18.9500  -32.3400 C   0  0  0  0  0  0  0  0  0  0  0  0
   -8.7420   20.2550  -31.9790 C   0  0  0  0  0  0  0  0  0  0  0  0
   -7.4190   20.2830  -31.5110 C   0  0  0  0  0  0  0  0  0  0  0  0
   -6.8280   21.4940  -31.1380 C   0  0  0  0  0  0  0  0  0  0  0  0
   -7.5600   22.6900  -31.2070 C   0  0  0  0  0  0  0  0  0  0  0  0
   -6.9170   23.9970  -30.8400 C   0  0  0  0  0  0  0  0  0  0  0  0
   -6.0860   23.8170  -29.6480 N   0  0  0  0  0  0  0  0  0  0  0  0
   -4.4280   24.1690  -30.0300 S   0  0  0  0  0  0  0  0  0  0  0  0
   -3.6460   24.3260  -28.7570 O   0  0  0  0  0  0  0  0  0  0  0  0
   -4.3480   25.4540  -30.8060 O   0  0  0  0  0  0  0  0  0  0  0  0
   -3.7400   22.8420  -30.9620 C   0  0  0  0  0  0  0  0  0  0  0  0
   -4.1890   22.5700  -32.2590 C   0  0  0  0  0  0  0  0  0  0  0  0
   -3.6640   21.4920  -32.9740 C   0  0  0  0  0  0  0  0  0  0  0  0
   -2.6800   20.6640  -32.3980 C   0  0  0  0  0  0  0  0  0  0  0  0
   -2.1420   19.5600  -33.0820 O   0  0  0  0  0  0  0  0  0  0  0  0
   -2.7340   18.9130  -34.2080 C   0  0  0  0  0  0  0  0  0  0  0  0
   -4.0480   18.2830  -33.8310 C   0  0  0  0  0  0  0  0  0  0  0  0
   -5.2630   18.8640  -34.2330 C   0  0  0  0  0  0  0  0  0  0  0  0
   -6.4780   18.2700  -33.8810 C   0  0  0  0  0  0  0  0  0  0  0  0
   -6.4900   17.0890  -33.1340 C   0  0  0  0  0  0  0  0  0  0  0  0
   -5.2860   16.5000  -32.7400 C   0  0  0  0  0  0  0  0  0  0  0  0
   -4.0690   17.0910  -33.0890 C   0  0  0  0  0  0  0  0  0  0  0  0
   -2.2190   20.9460  -31.0980 C   0  0  0  0  0  0  0  0  0  0  0  0
   -1.1830   20.0670  -30.4580 C   0  0  0  0  0  0  0  0  0  0  0  0
   -2.7590   22.0280  -30.3850 C   0  0  0  0  0  0  0  0  0  0  0  0
   -8.8840   22.6600  -31.6750 C   0  0  0  0  0  0  0  0  0  0  0  0
   -9.4750   21.4500  -32.0470 C   0  0  0  0  0  0  0  0  0  0  0  0
   -9.6553   18.4072  -31.4217 H   0  0  0  0  0  0  0  0  0  0  0  0
  -10.2946   19.1408  -32.9316 H   0  0  0  0  0  0  0  0  0  0  0  0
   -8.6842   18.3449  -32.9316 H   0  0  0  0  0  0  0  0  0  0  0  0
   -6.8445   19.3479  -31.4373 H   0  0  0  0  0  0  0  0  0  0  0  0
   -5.7850   21.5097  -30.7890 H   0  0  0  0  0  0  0  0  0  0  0  0
   -6.2900   24.3438  -31.6746 H   0  0  0  0  0  0  0  0  0  0  0  0
   -7.6981   24.7431  -30.6320 H   0  0  0  0  0  0  0  0  0  0  0  0
   -6.3870   24.5170  -28.9320 H   0  0  0  0  0  0  0  0  0  0  0  0
   -4.9589   23.2082  -32.7172 H   0  0  0  0  0  0  0  0  0  0  0  0
   -4.0210   21.2875  -33.9942 H   0  0  0  0  0  0  0  0  0  0  0  0
   -2.9041   19.6548  -35.0022 H   0  0  0  0  0  0  0  0  0  0  0  0
   -2.0528   18.1247  -34.5608 H   0  0  0  0  0  0  0  0  0  0  0  0
   -5.2575   19.7898  -34.8270 H   0  0  0  0  0  0  0  0  0  0  0  0
   -7.4262   18.7327  -34.1923 H   0  0  0  0  0  0  0  0  0  0  0  0
   -7.4471   16.6233  -32.8563 H   0  0  0  0  0  0  0  0  0  0  0  0
   -5.2962   15.5692  -32.1539 H   0  0  0  0  0  0  0  0  0  0  0  0
   -3.1235   16.6206  -32.7813 H   0  0  0  0  0  0  0  0  0  0  0  0
   -1.2671   20.1383  -29.3635 H   0  0  0  0  0  0  0  0  0  0  0  0
   -1.3426   19.0246  -30.7709 H   0  0  0  0  0  0  0  0  0  0  0  0
   -0.1805   20.3943  -30.7709 H   0  0  0  0  0  0  0  0  0  0  0  0
   -2.4079   22.2377  -29.3639 H   0  0  0  0  0  0  0  0  0  0  0  0
   -9.4590   23.5948  -31.7490 H   0  0  0  0  0  0  0  0  0  0  0  0
  -10.5186   21.4338  -32.3944 H   0  0  0  0  0  0  0  0  0  0  0  0
  1  2  1  0
  2  3  2  0
  3  4  1  0
  4  5  2  0
  5  6  1  0
  6  7  1  0
  7  8  1  0
  8  9  2  0
  8 10  2  0
  8 11  1  0
 11 12  2  0
 12 13  1  0
 13 14  2  0
 14 15  1  0
 15 16  1  0
 16 17  1  0
 17 18  2  0
 18 19  1  0
 19 20  2  0
 20 21  1  0
 21 22  2  0
 14 23  1  0
 23 24  1  0
 23 25  2  0
  5 26  1  0
 26 27  2  0
 27  2  1  0
 25 11  1  0
 22 17  1  0
  1 28  1  0
  1 29  1  0
  1 30  1  0
  3 31  1  0
  4 32  1  0
  6 33  1  0
  6 34  1  0
  7 35  1  0
 12 36  1  0
 13 37  1  0
 16 38  1  0
 16 39  1  0
 18 40  1  0
 19 41  1  0
 20 42  1  0
 21 43  1  0
 22 44  1  0
 24 45  1  0
 24 46  1  0
 24 47  1  0
 25 48  1  0
 26 49  1  0
 27 50  1  0
M  END
>  <UniqueID>  (41) 
40

>  <SMILES>  (41) 
Cc1ccc(CNS(=O)(=O)c2ccc(OCc3ccccc3)c(C)c2)cc1

>  <Energy>  (41) 
47.52981851073942

>  <Genealogy>  (41) 
Cc1ccc(CNS(=O)(=O)c2ccc(OCc3ccccc3)c(C)c2)cc1 (3D coordinates assigned)
Cc1ccc(CNS(=O)(=O)c2ccc(OCc3ccccc3)c(C)c2)cc1 (optimized conformer: 47.52981851073942 kcal/mol)

>  <smiles>  (41) 
Cc1ccc(CNS(=O)(=O)c2ccc(OCc3ccccc3)c(C)c2)cc1

>  <score_type>  (41) 
oracle

>  <origin>  (41) 
adgpu

>  <m_score__min__energy>  (41) 
-10.52

>  <m_primary>  (41) 
energy

$$$$
41:0
     RDKit          3D

 31 32  0  0  0  0  0  0  0  0999 V2000
   -3.3830   23.4370  -29.4720 O   0  0  0  0  0  0  0  0  0  0  0  0
   -3.1090   24.6290  -29.7710 C   0  0  0  0  0  0  0  0  0  0  0  0
   -3.9020   25.2980  -30.7520 N   0  0  0  0  0  0  0  0  0  0  0  0
   -5.3050   25.6320  -30.5380 C   0  0  0  0  0  0  0  0  0  0  0  0
   -6.0010   24.5200  -29.7520 C   0  0  0  0  0  0  0  0  0  0  0  0
   -6.3880   23.3720  -30.6490 C   0  0  0  0  0  0  0  0  0  0  0  0
   -5.5090   22.9240  -31.6500 C   0  0  0  0  0  0  0  0  0  0  0  0
   -5.8840   21.8790  -32.5000 C   0  0  0  0  0  0  0  0  0  0  0  0
   -7.1390   21.2800  -32.3630 C   0  0  0  0  0  0  0  0  0  0  0  0
   -8.0230   21.7280  -31.3770 C   0  0  0  0  0  0  0  0  0  0  0  0
   -7.6520   22.7720  -30.5240 C   0  0  0  0  0  0  0  0  0  0  0  0
   -1.9860   25.2940  -29.1770 N   0  0  0  0  0  0  0  0  0  0  0  0
   -1.4110   25.0230  -27.8900 C   0  0  0  0  0  0  0  0  0  0  0  0
   -2.0030   25.5820  -26.7530 C   0  0  0  0  0  0  0  0  0  0  0  0
   -1.4780   25.3190  -25.4860 C   0  0  0  0  0  0  0  0  0  0  0  0
   -0.3690   24.4800  -25.3690 C   0  0  0  0  0  0  0  0  0  0  0  0
    0.1820   23.9210  -26.4780 N   0  0  0  0  0  0  0  0  0  0  0  0
   -0.3090   24.1640  -27.7230 C   0  0  0  0  0  0  0  0  0  0  0  0
   -5.3719   26.5729  -29.9722 H   0  0  0  0  0  0  0  0  0  0  0  0
   -5.7993   25.7436  -31.5143 H   0  0  0  0  0  0  0  0  0  0  0  0
   -5.3178   24.1509  -28.9729 H   0  0  0  0  0  0  0  0  0  0  0  0
   -6.9167   24.9335  -29.3042 H   0  0  0  0  0  0  0  0  0  0  0  0
   -4.5226   23.3971  -31.7652 H   0  0  0  0  0  0  0  0  0  0  0  0
   -5.1899   21.5279  -33.2778 H   0  0  0  0  0  0  0  0  0  0  0  0
   -7.4313   20.4562  -33.0308 H   0  0  0  0  0  0  0  0  0  0  0  0
   -9.0122   21.2584  -31.2720 H   0  0  0  0  0  0  0  0  0  0  0  0
   -8.3523   23.1246  -29.7525 H   0  0  0  0  0  0  0  0  0  0  0  0
   -2.8851   26.2310  -26.8570 H   0  0  0  0  0  0  0  0  0  0  0  0
   -1.9332   25.7678  -24.5908 H   0  0  0  0  0  0  0  0  0  0  0  0
    0.0596   24.2710  -24.3777 H   0  0  0  0  0  0  0  0  0  0  0  0
    0.1555   23.6889  -28.5996 H   0  0  0  0  0  0  0  0  0  0  0  0
  1  2  2  0
  2  3  1  0
  3  4  1  0
  4  5  1  0
  5  6  1  0
  6  7  2  0
  7  8  1  0
  8  9  2  0
  9 10  1  0
 10 11  2  0
  2 12  1  0
 12 13  1  0
 13 14  2  0
 14 15  1  0
 15 16  2  0
 16 17  1  0
 17 18  2  0
 11  6  1  0
 18 13  1  0
  4 19  1  0
  4 20  1  0
  5 21  1  0
  5 22  1  0
  7 23  1  0
  8 24  1  0
  9 25  1  0
 10 26  1  0
 11 27  1  0
 14 28  1  0
 15 29  1  0
 16 30  1  0
 18 31  1  0
M  CHG  2   3  -1  12  -1
M  END
>  <UniqueID>  (42) 
41

>  <SMILES>  (42) 
O=C([N-]CCc1ccccc1)[N-]c1cccnc1

>  <Energy>  (42) 
30.557398299846554

>  <Genealogy>  (42) 
O=C([N-]CCc1ccccc1)[N-]c1cccnc1 (protonated)
O=C([N-]CCc1ccccc1)[N-]c1cccnc1 (3D coordinates assigned)
O=C([N-]CCc1ccccc1)[N-]c1cccnc1 (optimized conformer: 30.557398299846554 kcal/mol)

>  <smiles>  (42) 
O=C(NCCc1ccccc1)Nc1cccnc1

>  <score_type>  (42) 
oracle

>  <origin>  (42) 
adgpu

>  <m_score__min__energy>  (42) 
-9.7599999999999998

>  <m_primary>  (42) 
energy

$$$$
42:0
     RDKit          3D

 48 50  0  0  0  0  0  0  0  0999 V2000
   -2.7650   20.0410  -27.4280 C   0  0  0  0  0  0  0  0  0  0  0  0
   -2.6800   21.4350  -27.9780 C   0  0  0  0  0  0  0  0  0  0  0  0
   -1.4610   21.9250  -28.4670 C   0  0  0  0  0  0  0  0  0  0  0  0
   -1.3900   23.2080  -29.0110 C   0  0  0  0  0  0  0  0  0  0  0  0
   -2.5290   24.0150  -29.0700 C   0  0  0  0  0  0  0  0  0  0  0  0
   -2.4270   25.2960  -29.6020 O   0  0  0  0  0  0  0  0  0  0  0  0
   -3.7630   23.5380  -28.5880 C   0  0  0  0  0  0  0  0  0  0  0  0
   -4.9260   24.3840  -28.6320 N   0  0  0  0  0  0  0  0  0  0  0  0
   -5.7580   24.7820  -30.1030 S   0  0  0  0  0  0  0  0  0  0  0  0
   -4.9350   25.7730  -30.8780 O   0  0  0  0  0  0  0  0  0  0  0  0
   -7.0890   25.3960  -29.7750 O   0  0  0  0  0  0  0  0  0  0  0  0
   -6.0270   23.3210  -31.0520 C   0  0  0  0  0  0  0  0  0  0  0  0
   -7.3330   22.8660  -31.2700 C   0  0  0  0  0  0  0  0  0  0  0  0
   -7.5550   21.6640  -31.9450 C   0  0  0  0  0  0  0  0  0  0  0  0
   -6.4730   20.9080  -32.4120 C   0  0  0  0  0  0  0  0  0  0  0  0
   -6.7640   19.3570  -33.1960 S   0  0  0  0  0  0  0  0  0  0  0  0
   -6.4700   19.4480  -34.6680 O   0  0  0  0  0  0  0  0  0  0  0  0
   -8.2100   18.9800  -33.0280 O   0  0  0  0  0  0  0  0  0  0  0  0
   -5.7380   18.1390  -32.4860 N   0  0  0  0  0  0  0  0  0  0  0  0
   -6.1560   17.5070  -31.2320 C   0  0  0  0  0  0  0  0  0  0  0  0
   -4.4860   17.7730  -33.1070 C   0  0  0  0  0  0  0  0  0  0  0  0
   -3.4390   18.7100  -33.2180 C   0  0  0  0  0  0  0  0  0  0  0  0
   -2.2300   18.3590  -33.8250 C   0  0  0  0  0  0  0  0  0  0  0  0
   -2.0480   17.0710  -34.3310 C   0  0  0  0  0  0  0  0  0  0  0  0
   -3.0760   16.1320  -34.2330 C   0  0  0  0  0  0  0  0  0  0  0  0
   -4.2890   16.4800  -33.6300 C   0  0  0  0  0  0  0  0  0  0  0  0
   -5.1660   21.3760  -32.2180 C   0  0  0  0  0  0  0  0  0  0  0  0
   -4.9430   22.5780  -31.5390 C   0  0  0  0  0  0  0  0  0  0  0  0
   -3.8320   22.2320  -28.0670 C   0  0  0  0  0  0  0  0  0  0  0  0
   -2.7626   20.0798  -26.3287 H   0  0  0  0  0  0  0  0  0  0  0  0
   -3.6938   19.5655  -27.7761 H   0  0  0  0  0  0  0  0  0  0  0  0
   -1.9008   19.4561  -27.7761 H   0  0  0  0  0  0  0  0  0  0  0  0
   -0.5590   21.2971  -28.4218 H   0  0  0  0  0  0  0  0  0  0  0  0
   -0.4314   23.5864  -29.3957 H   0  0  0  0  0  0  0  0  0  0  0  0
   -5.3870   24.6720  -27.7410 H   0  0  0  0  0  0  0  0  0  0  0  0
   -8.1871   23.4574  -30.9083 H   0  0  0  0  0  0  0  0  0  0  0  0
   -8.5832   21.3099  -32.1104 H   0  0  0  0  0  0  0  0  0  0  0  0
   -5.7709   18.0892  -30.3818 H   0  0  0  0  0  0  0  0  0  0  0  0
   -7.2546   17.4741  -31.1863 H   0  0  0  0  0  0  0  0  0  0  0  0
   -5.7563   16.4832  -31.1863 H   0  0  0  0  0  0  0  0  0  0  0  0
   -3.5748   19.7276  -32.8230 H   0  0  0  0  0  0  0  0  0  0  0  0
   -1.4203   19.0993  -33.9041 H   0  0  0  0  0  0  0  0  0  0  0  0
   -1.0950   16.7961  -34.8067 H   0  0  0  0  0  0  0  0  0  0  0  0
   -2.9319   15.1166  -34.6307 H   0  0  0  0  0  0  0  0  0  0  0  0
   -5.0971   15.7367  -33.5635 H   0  0  0  0  0  0  0  0  0  0  0  0
   -4.3133   20.7961  -32.6010 H   0  0  0  0  0  0  0  0  0  0  0  0
   -3.9157   22.9407  -31.3870 H   0  0  0  0  0  0  0  0  0  0  0  0
   -4.7984   21.8321  -27.7262 H   0  0  0  0  0  0  0  0  0  0  0  0
  1  2  1  0
  2  3  2  0
  3  4  1  0
  4  5  2  0
  5  6  1  0
  5  7  1  0
  7  8  1  0
  8  9  1  0
  9 10  2  0
  9 11  2  0
  9 12  1  0
 12 13  2  0
 13 14  1  0
 14 15  2  0
 15 16  1  0
 16 17  2  0
 16 18  2  0
 16 19  1  0
 19 20  1  0
 19 21  1  0
 21 22  2  0
 22 23  1  0
 23 24  2  0
 24 25  1  0
 25 26  2  0
 15 27  1  0
 27 28  2  0
  7 29  2  0
 29  2  1  0
 28 12  1  0
 26 21  1  0
  1 30  1  0
  1 31  1  0
  1 32  1  0
  3 33  1  0
  4 34  1  0
  8 35  1  0
 13 36  1  0
 14 37  1  0
 20 38  1  0
 20 39  1  0
 20 40  1  0
 22 41  1  0
 23 42  1  0
 24 43  1  0
 25 44  1  0
 26 45  1  0
 27 46  1  0
 28 47  1  0
 29 48  1  0
M  CHG  1   6  -1
M  END
>  <UniqueID>  (43) 
42

>  <SMILES>  (43) 
Cc1ccc([O-])c(NS(=O)(=O)c2ccc(S(=O)(=O)N(C)c3ccccc3)cc2)c1

>  <Energy>  (43) 
55.345776950570304

>  <Genealogy>  (43) 
Cc1ccc([O-])c(NS(=O)(=O)c2ccc(S(=O)(=O)N(C)c3ccccc3)cc2)c1 (protonated)
Cc1ccc([O-])c(NS(=O)(=O)c2ccc(S(=O)(=O)N(C)c3ccccc3)cc2)c1 (3D coordinates assigned)
Cc1ccc([O-])c(NS(=O)(=O)c2ccc(S(=O)(=O)N(C)c3ccccc3)cc2)c1 (optimized conformer: 55.345776950570304 kcal/mol)

>  <smiles>  (43) 
Cc1ccc(O)c(NS(=O)(=O)c2ccc(S(=O)(=O)N(C)c3ccccc3)cc2)c1

>  <score_type>  (43) 
oracle

>  <origin>  (43) 
adgpu

>  <m_score__min__energy>  (43) 
-13.539999999999999

>  <m_primary>  (43) 
energy

$$$$
43:0
     RDKit          3D

 31 33  0  0  0  0  0  0  0  0999 V2000
    2.4863   23.8277  -27.2132 H   0  0  0  0  0  0  0  0  0  0  0  0
    1.3870   23.8370  -27.1740 C   0  0  0  0  0  0  0  0  0  0  0  0
    0.6090   24.5650  -27.9430 O   0  0  0  0  0  0  0  0  0  0  0  0
   -0.6420   24.3290  -27.6190 C   0  0  0  0  0  0  0  0  0  0  0  0
   -1.7900   24.9590  -28.2970 C   0  0  0  0  0  0  0  0  0  0  0  0
   -1.6010   26.0150  -28.9540 O   0  0  0  0  0  0  0  0  0  0  0  0
   -3.1010   24.3750  -28.2860 N   0  0  0  0  0  0  0  0  0  0  0  0
   -3.9330   24.3850  -29.2850 C   0  0  0  0  0  0  0  0  0  0  0  0
   -3.6610   24.8700  -30.5160 N   0  0  0  0  0  0  0  0  0  0  0  0
   -4.7630   24.6370  -31.2190 N   0  0  0  0  0  0  0  0  0  0  0  0
   -5.6540   24.0360  -30.4430 N   0  0  0  0  0  0  0  0  0  0  0  0
   -6.9660   23.5870  -30.8930 C   0  0  0  0  0  0  0  0  0  0  0  0
   -7.6010   23.3829  -30.0183 H   0  0  0  0  0  0  0  0  0  0  0  0
   -7.4243   24.3730  -31.5113 H   0  0  0  0  0  0  0  0  0  0  0  0
   -6.8270   22.3290  -31.7140 C   0  0  0  0  0  0  0  0  0  0  0  0
   -5.5720   22.0070  -32.2620 C   0  0  0  0  0  0  0  0  0  0  0  0
   -4.7198   22.6858  -32.1104 H   0  0  0  0  0  0  0  0  0  0  0  0
   -5.4000   20.8320  -32.9970 C   0  0  0  0  0  0  0  0  0  0  0  0
   -4.4166   20.5921  -33.4275 H   0  0  0  0  0  0  0  0  0  0  0  0
   -6.4760   19.9610  -33.1860 C   0  0  0  0  0  0  0  0  0  0  0  0
   -6.3404   19.0383  -33.7693 H   0  0  0  0  0  0  0  0  0  0  0  0
   -7.7230   20.2610  -32.6350 C   0  0  0  0  0  0  0  0  0  0  0  0
   -8.5666   19.5707  -32.7828 H   0  0  0  0  0  0  0  0  0  0  0  0
   -7.9060   21.4360  -31.8950 C   0  0  0  0  0  0  0  0  0  0  0  0
   -9.4990   21.7480  -31.2130 Cl  0  0  0  0  0  0  0  0  0  0  0  0
   -5.1630   23.8550  -29.2300 N   0  0  0  0  0  0  0  0  0  0  0  0
   -5.6440   23.3940  -28.4250 H   0  0  0  0  0  0  0  0  0  0  0  0
   -0.6950   23.3980  -26.5980 C   0  0  0  0  0  0  0  0  0  0  0  0
   -1.5961   22.9910  -26.1159 H   0  0  0  0  0  0  0  0  0  0  0  0
    0.6170   23.0860  -26.3100 C   0  0  0  0  0  0  0  0  0  0  0  0
    0.9768   22.3811  -25.5461 H   0  0  0  0  0  0  0  0  0  0  0  0
  1  2  1  0
  2  3  1  0
  3  4  1  0
  4  5  1  0
  5  6  2  0
  5  7  1  0
  7  8  2  0
  8  9  1  0
  9 10  2  0
 10 11  1  0
 11 12  1  0
 12 13  1  0
 12 14  1  0
 12 15  1  0
 15 16  2  0
 16 17  1  0
 16 18  1  0
 18 19  1  0
 18 20  2  0
 20 21  1  0
 20 22  1  0
 22 23  1  0
 22 24  2  0
 24 25  1  0
 11 26  1  0
 26 27  1  0
  4 28  2  0
 28 29  1  0
 28 30  1  0
 30 31  1  0
 30  2  2  0
 26  8  1  0
 24 15  1  0
M  END
>  <UniqueID>  (44) 
43

>  <SMILES>  (44) 
O=C(/N=c1\nnn(Cc2ccccc2Cl)[nH]1)c1ccco1

>  <Energy>  (44) 
105.73531919674569

>  <Genealogy>  (44) 
O=C(/N=c1\nnn(Cc2ccccc2Cl)[nH]1)c1ccco1 (cis-trans isomerization)
O=C(/N=c1\nnn(Cc2ccccc2Cl)[nH]1)c1ccco1 (3D coordinates assigned)
O=C(/N=c1\nnn(Cc2ccccc2Cl)[nH]1)c1ccco1 (optimized conformer: 105.73531919674569 kcal/mol)

>  <smiles>  (44) 
O=C(N=c1nnn(Cc2ccccc2Cl)[nH]1)c1ccco1

>  <score_type>  (44) 
oracle

>  <origin>  (44) 
adgpu

>  <m_score__min__energy>  (44) 
-8.9299999999999997

>  <m_primary>  (44) 
energy

$$$$
44:0
     RDKit          3D

 40 42  0  0  0  0  0  0  0  0999 V2000
   -1.1190   19.4600  -29.4260 O   0  0  0  0  0  0  0  0  0  0  0  0
   -0.8720   19.1720  -27.9740 S   0  0  0  0  0  0  0  0  0  0  0  0
   -2.0010   18.3390  -27.4430 O   0  0  0  0  0  0  0  0  0  0  0  0
   -0.7970   20.6590  -27.0920 N   0  0  0  0  0  0  0  0  0  0  0  0
   -0.9790   21.9480  -27.6930 C   0  0  0  0  0  0  0  0  0  0  0  0
   -0.0570   22.9830  -27.4850 C   0  0  0  0  0  0  0  0  0  0  0  0
   -0.2700   24.2380  -28.0530 C   0  0  0  0  0  0  0  0  0  0  0  0
   -1.4160   24.4870  -28.8130 C   0  0  0  0  0  0  0  0  0  0  0  0
   -1.5990   25.7620  -29.3420 O   0  0  0  0  0  0  0  0  0  0  0  0
   -2.3640   23.4630  -29.0280 C   0  0  0  0  0  0  0  0  0  0  0  0
   -3.8970   23.8110  -29.8650 S   0  0  0  0  0  0  0  0  0  0  0  0
   -5.0660   23.8090  -28.9200 O   0  0  0  0  0  0  0  0  0  0  0  0
   -3.8040   25.1690  -30.5070 O   0  0  0  0  0  0  0  0  0  0  0  0
   -4.1770   22.5660  -31.0780 C   0  0  0  0  0  0  0  0  0  0  0  0
   -3.0870   21.9420  -31.7060 C   0  0  0  0  0  0  0  0  0  0  0  0
   -3.3030   20.9570  -32.6760 C   0  0  0  0  0  0  0  0  0  0  0  0
   -4.6070   20.5810  -33.0140 C   0  0  0  0  0  0  0  0  0  0  0  0
   -5.6960   21.1940  -32.3840 C   0  0  0  0  0  0  0  0  0  0  0  0
   -5.4840   22.1860  -31.4200 C   0  0  0  0  0  0  0  0  0  0  0  0
   -2.1210   22.1760  -28.4770 C   0  0  0  0  0  0  0  0  0  0  0  0
   -3.0090   21.1100  -28.6610 O   0  0  0  0  0  0  0  0  0  0  0  0
    0.6450   18.2960  -27.7540 C   0  0  0  0  0  0  0  0  0  0  0  0
    0.6320   16.9260  -27.4530 C   0  0  0  0  0  0  0  0  0  0  0  0
    1.8360   16.2270  -27.3100 C   0  0  0  0  0  0  0  0  0  0  0  0
    3.0560   16.8910  -27.4630 C   0  0  0  0  0  0  0  0  0  0  0  0
    3.0750   18.2560  -27.7590 C   0  0  0  0  0  0  0  0  0  0  0  0
    1.8750   18.9620  -27.9040 C   0  0  0  0  0  0  0  0  0  0  0  0
    1.9160   20.2880  -28.1960 F   0  0  0  0  0  0  0  0  0  0  0  0
    0.8381   22.8042  -26.8712 H   0  0  0  0  0  0  0  0  0  0  0  0
    0.4694   25.0383  -27.9019 H   0  0  0  0  0  0  0  0  0  0  0  0
   -2.0602   22.2284  -31.4345 H   0  0  0  0  0  0  0  0  0  0  0  0
   -2.4466   20.4780  -33.1731 H   0  0  0  0  0  0  0  0  0  0  0  0
   -4.7765   19.8043  -33.7742 H   0  0  0  0  0  0  0  0  0  0  0  0
   -6.7214   20.8952  -32.6473 H   0  0  0  0  0  0  0  0  0  0  0  0
   -6.3425   22.6684  -30.9299 H   0  0  0  0  0  0  0  0  0  0  0  0
   -2.8310   20.1670  -28.3460 H   0  0  0  0  0  0  0  0  0  0  0  0
   -0.3262   16.4002  -27.3291 H   0  0  0  0  0  0  0  0  0  0  0  0
    1.8219   15.1521  -27.0766 H   0  0  0  0  0  0  0  0  0  0  0  0
    4.0008   16.3391  -27.3504 H   0  0  0  0  0  0  0  0  0  0  0  0
    4.0360   18.7778  -27.8785 H   0  0  0  0  0  0  0  0  0  0  0  0
  1  2  2  0
  2  3  2  0
  2  4  1  0
  4  5  1  0
  5  6  2  0
  6  7  1  0
  7  8  2  0
  8  9  1  0
  8 10  1  0
 10 11  1  0
 11 12  2  0
 11 13  2  0
 11 14  1  0
 14 15  2  0
 15 16  1  0
 16 17  2  0
 17 18  1  0
 18 19  2  0
 10 20  2  0
 20 21  1  0
  2 22  1  0
 22 23  2  0
 23 24  1  0
 24 25  2  0
 25 26  1  0
 26 27  2  0
 27 28  1  0
 20  5  1  0
 27 22  1  0
 19 14  1  0
  6 29  1  0
  7 30  1  0
 15 31  1  0
 16 32  1  0
 17 33  1  0
 18 34  1  0
 19 35  1  0
 21 36  1  0
 23 37  1  0
 24 38  1  0
 25 39  1  0
 26 40  1  0
M  CHG  2   4  -1   9  -1
M  END
>  <UniqueID>  (45) 
44

>  <SMILES>  (45) 
O=S(=O)([N-]c1ccc([O-])c(S(=O)(=O)c2ccccc2)c1O)c1ccccc1F

>  <Energy>  (45) 
53.590979548426496

>  <Genealogy>  (45) 
O=S(=O)([N-]c1ccc([O-])c(S(=O)(=O)c2ccccc2)c1O)c1ccccc1F (protonated)
O=S(=O)([N-]c1ccc([O-])c(S(=O)(=O)c2ccccc2)c1O)c1ccccc1F (3D coordinates assigned)
O=S(=O)([N-]c1ccc([O-])c(S(=O)(=O)c2ccccc2)c1O)c1ccccc1F (optimized conformer: 53.590979548426496 kcal/mol)

>  <smiles>  (45) 
O=S(=O)(Nc1ccc(O)c(S(=O)(=O)c2ccccc2)c1O)c1ccccc1F

>  <score_type>  (45) 
oracle

>  <origin>  (45) 
adgpu

>  <m_score__min__energy>  (45) 
-11.279999999999999

>  <m_primary>  (45) 
energy

$$$$
45:0
     RDKit          3D

 34 36  0  0  0  0  0  0  0  0999 V2000
   -0.6440   26.2110  -24.0340 C   0  0  0  0  0  0  0  0  0  0  0  0
    0.4310   25.1150  -25.0110 S   0  0  0  0  0  0  0  0  0  0  0  0
   -0.7750   24.9020  -26.3210 C   0  0  0  0  0  0  0  0  0  0  0  0
   -0.3520   24.7140  -27.6420 C   0  0  0  0  0  0  0  0  0  0  0  0
   -1.2920   24.5520  -28.6640 C   0  0  0  0  0  0  0  0  0  0  0  0
   -2.6660   24.5790  -28.3750 C   0  0  0  0  0  0  0  0  0  0  0  0
   -3.6540   24.4060  -29.4580 C   0  0  0  0  0  0  0  0  0  0  0  0
   -4.4600   23.3330  -29.5880 N   0  0  0  0  0  0  0  0  0  0  0  0
   -5.1610   23.6460  -30.7000 C   0  0  0  0  0  0  0  0  0  0  0  0
   -6.1870   22.7500  -31.2980 C   0  0  0  0  0  0  0  0  0  0  0  0
   -7.5330   22.9440  -30.9260 C   0  0  0  0  0  0  0  0  0  0  0  0
   -8.5420   22.1250  -31.4310 C   0  0  0  0  0  0  0  0  0  0  0  0
   -8.2290   21.0980  -32.3190 C   0  0  0  0  0  0  0  0  0  0  0  0
   -6.9080   20.8930  -32.7120 C   0  0  0  0  0  0  0  0  0  0  0  0
   -5.8750   21.7140  -32.2220 C   0  0  0  0  0  0  0  0  0  0  0  0
   -4.4720   21.4630  -32.7110 C   0  0  0  0  0  0  0  0  0  0  0  0
   -4.7860   24.8350  -31.2130 N   0  0  0  0  0  0  0  0  0  0  0  0
   -3.8590   25.2730  -30.4180 O   0  0  0  0  0  0  0  0  0  0  0  0
   -3.0850   24.7720  -27.0470 C   0  0  0  0  0  0  0  0  0  0  0  0
   -2.1430   24.9350  -26.0270 C   0  0  0  0  0  0  0  0  0  0  0  0
   -0.4707   26.0343  -22.9622 H   0  0  0  0  0  0  0  0  0  0  0  0
   -0.4144   27.2595  -24.2746 H   0  0  0  0  0  0  0  0  0  0  0  0
   -1.6968   26.0017  -24.2746 H   0  0  0  0  0  0  0  0  0  0  0  0
    0.7225   24.6937  -27.8765 H   0  0  0  0  0  0  0  0  0  0  0  0
   -0.9536   24.4026  -29.6999 H   0  0  0  0  0  0  0  0  0  0  0  0
   -7.7909   23.7534  -30.2271 H   0  0  0  0  0  0  0  0  0  0  0  0
   -9.5865   22.2899  -31.1280 H   0  0  0  0  0  0  0  0  0  0  0  0
   -9.0257   20.4482  -32.7103 H   0  0  0  0  0  0  0  0  0  0  0  0
   -6.6696   20.0799  -33.4135 H   0  0  0  0  0  0  0  0  0  0  0  0
   -3.7993   21.3427  -31.8490 H   0  0  0  0  0  0  0  0  0  0  0  0
   -4.4544   20.5474  -33.3205 H   0  0  0  0  0  0  0  0  0  0  0  0
   -4.1381   22.3157  -33.3205 H   0  0  0  0  0  0  0  0  0  0  0  0
   -4.1588   24.7949  -26.8095 H   0  0  0  0  0  0  0  0  0  0  0  0
   -2.4778   25.0896  -24.9907 H   0  0  0  0  0  0  0  0  0  0  0  0
  1  2  1  0
  2  3  1  0
  3  4  2  0
  4  5  1  0
  5  6  2  0
  6  7  1  0
  7  8  2  0
  8  9  1  0
  9 10  1  0
 10 11  2  0
 11 12  1  0
 12 13  2  0
 13 14  1  0
 14 15  2  0
 15 16  1  0
  9 17  2  0
 17 18  1  0
  6 19  1  0
 19 20  2  0
 20  3  1  0
 18  7  1  0
 15 10  1  0
  1 21  1  0
  1 22  1  0
  1 23  1  0
  4 24  1  0
  5 25  1  0
 11 26  1  0
 12 27  1  0
 13 28  1  0
 14 29  1  0
 16 30  1  0
 16 31  1  0
 16 32  1  0
 19 33  1  0
 20 34  1  0
M  END
>  <UniqueID>  (46) 
45

>  <SMILES>  (46) 
CSc1ccc(-c2nc(-c3ccccc3C)no2)cc1

>  <Energy>  (46) 
69.49803482426638

>  <Genealogy>  (46) 
CSc1ccc(-c2nc(-c3ccccc3C)no2)cc1 (3D coordinates assigned)
CSc1ccc(-c2nc(-c3ccccc3C)no2)cc1 (optimized conformer: 69.49803482426638 kcal/mol)

>  <smiles>  (46) 
CSc1ccc(-c2nc(-c3ccccc3C)no2)cc1

>  <score_type>  (46) 
oracle

>  <origin>  (46) 
adgpu

>  <m_score__min__energy>  (46) 
-8.5700000000000003

>  <m_primary>  (46) 
energy

$$$$
46:0
     RDKit          3D

 52 54  0  0  0  0  0  0  0  0999 V2000
   -2.1420   21.3440  -32.5950 C   0  0  0  0  0  0  0  0  0  0  0  0
   -3.5070   20.8450  -33.0690 C   0  0  0  0  0  0  0  0  0  0  0  0
   -4.6550   21.3670  -32.1830 C   0  0  1  0  0  0  0  0  0  0  0  0
   -5.0100   22.7450  -32.5420 N   0  0  0  0  0  0  0  0  0  0  0  0
   -5.4840   23.6950  -31.5820 C   0  0  0  0  0  0  0  0  0  0  0  0
   -4.9170   24.5610  -30.6590 C   0  0  0  0  0  0  0  0  0  0  0  0
   -3.5800   24.9050  -30.2750 N   0  0  0  0  0  0  0  0  0  0  0  0
   -2.8830   24.2370  -29.2140 C   0  0  0  0  0  0  0  0  0  0  0  0
   -3.3920   23.0390  -28.6870 C   0  0  0  0  0  0  0  0  0  0  0  0
   -2.7020   22.3550  -27.6870 C   0  0  0  0  0  0  0  0  0  0  0  0
   -1.4870   22.8470  -27.2130 C   0  0  0  0  0  0  0  0  0  0  0  0
   -0.9420   24.0260  -27.7430 C   0  0  0  0  0  0  0  0  0  0  0  0
    0.3440   24.5380  -27.2180 C   0  0  0  0  0  0  0  0  0  0  0  0
    1.2450   24.8660  -28.0380 O   0  0  0  0  0  0  0  0  0  0  0  0
    0.5890   24.6640  -25.8010 N   0  0  0  0  0  0  0  0  0  0  0  0
   -0.1560   23.8450  -24.8380 C   0  0  0  0  0  0  0  0  0  0  0  0
    1.6870   25.5200  -25.3410 C   0  0  0  0  0  0  0  0  0  0  0  0
   -1.6480   24.7360  -28.7360 C   0  0  0  0  0  0  0  0  0  0  0  0
   -1.1130   25.9310  -29.2260 O   0  0  0  0  0  0  0  0  0  0  0  0
   -6.1810   24.9700  -30.2750 C   0  0  0  0  0  0  0  0  0  0  0  0
   -6.6360   25.7950  -29.4390 O   0  0  0  0  0  0  0  0  0  0  0  0
   -6.7420   24.1100  -31.1930 C   0  0  0  0  0  0  0  0  0  0  0  0
   -7.9180   23.8180  -31.5340 O   0  0  0  0  0  0  0  0  0  0  0  0
   -5.8570   20.4550  -32.3170 C   0  0  0  0  0  0  0  0  0  0  0  0
   -7.1320   20.8690  -31.8890 C   0  0  0  0  0  0  0  0  0  0  0  0
   -8.2360   20.0230  -32.0360 C   0  0  0  0  0  0  0  0  0  0  0  0
   -8.0820   18.7670  -32.6260 C   0  0  0  0  0  0  0  0  0  0  0  0
   -6.8270   18.3570  -33.0790 C   0  0  0  0  0  0  0  0  0  0  0  0
   -5.7200   19.1970  -32.9330 C   0  0  0  0  0  0  0  0  0  0  0  0
   -2.1166   21.3533  -31.4953 H   0  0  0  0  0  0  0  0  0  0  0  0
   -1.3552   20.6753  -32.9743 H   0  0  0  0  0  0  0  0  0  0  0  0
   -1.9720   22.3624  -32.9743 H   0  0  0  0  0  0  0  0  0  0  0  0
   -3.6713   21.1883  -34.1011 H   0  0  0  0  0  0  0  0  0  0  0  0
   -3.5055   19.7466  -33.0091 H   0  0  0  0  0  0  0  0  0  0  0  0
   -4.3197   21.3691  -31.1353 H   0  0  0  0  0  0  0  0  0  0  0  0
   -4.9650   23.0530  -33.5400 H   0  0  0  0  0  0  0  0  0  0  0  0
   -3.1030   25.6760  -30.7870 H   0  0  0  0  0  0  0  0  0  0  0  0
   -4.3430   22.6369  -29.0663 H   0  0  0  0  0  0  0  0  0  0  0  0
   -3.1173   21.4251  -27.2712 H   0  0  0  0  0  0  0  0  0  0  0  0
   -0.9519   22.3071  -26.4179 H   0  0  0  0  0  0  0  0  0  0  0  0
    0.1158   24.1438  -23.8149 H   0  0  0  0  0  0  0  0  0  0  0  0
   -1.2355   23.9930  -24.9886 H   0  0  0  0  0  0  0  0  0  0  0  0
    0.0932   22.7842  -24.9886 H   0  0  0  0  0  0  0  0  0  0  0  0
    1.7050   25.5340  -24.2412 H   0  0  0  0  0  0  0  0  0  0  0  0
    2.6421   25.1258  -25.7183 H   0  0  0  0  0  0  0  0  0  0  0  0
    1.5377   26.5424  -25.7183 H   0  0  0  0  0  0  0  0  0  0  0  0
   -0.1250   26.1460  -29.2000 H   0  0  0  0  0  0  0  0  0  0  0  0
   -7.2611   21.8632  -31.4364 H   0  0  0  0  0  0  0  0  0  0  0  0
   -9.2271   20.3477  -31.6863 H   0  0  0  0  0  0  0  0  0  0  0  0
   -8.9502   18.1002  -32.7339 H   0  0  0  0  0  0  0  0  0  0  0  0
   -6.7092   17.3708  -33.5518 H   0  0  0  0  0  0  0  0  0  0  0  0
   -4.7355   18.8731  -33.3017 H   0  0  0  0  0  0  0  0  0  0  0  0
  1  2  1  0
  2  3  1  0
  3  4  1  0
  4  5  1  0
  5  6  2  0
  6  7  1  0
  7  8  1  0
  8  9  2  0
  9 10  1  0
 10 11  2  0
 11 12  1  0
 12 13  1  0
 13 14  2  0
 13 15  1  0
 15 16  1  0
 15 17  1  0
 12 18  2  0
 18 19  1  0
  6 20  1  0
 20 21  2  0
 20 22  1  0
 22 23  2  0
  3 24  1  0
 24 25  2  0
 25 26  1  0
 26 27  2  0
 27 28  1  0
 28 29  2  0
 22  5  1  0
 29 24  1  0
 18  8  1  0
  1 30  1  0
  1 31  1  0
  1 32  1  0
  2 33  1  0
  2 34  1  0
  3 35  1  1
  4 36  1  0
  7 37  1  0
  9 38  1  0
 10 39  1  0
 11 40  1  0
 16 41  1  0
 16 42  1  0
 16 43  1  0
 17 44  1  0
 17 45  1  0
 17 46  1  0
 19 47  1  0
 25 48  1  0
 26 49  1  0
 27 50  1  0
 28 51  1  0
 29 52  1  0
M  END
>  <UniqueID>  (47) 
46

>  <SMILES>  (47) 
CC[C@@H](Nc1c(Nc2cccc(C(=O)N(C)C)c2O)c(=O)c1=O)c1ccccc1

>  <Energy>  (47) 
46.4358242338965

>  <Genealogy>  (47) 
CC[C@@H](Nc1c(Nc2cccc(C(=O)N(C)C)c2O)c(=O)c1=O)c1ccccc1 (chirality)
CC[C@@H](Nc1c(Nc2cccc(C(=O)N(C)C)c2O)c(=O)c1=O)c1ccccc1 (3D coordinates assigned)
CC[C@@H](Nc1c(Nc2cccc(C(=O)N(C)C)c2O)c(=O)c1=O)c1ccccc1 (optimized conformer: 46.4358242338965 kcal/mol)

>  <smiles>  (47) 
CCC(Nc1c(Nc2cccc(C(=O)N(C)C)c2O)c(=O)c1=O)c1ccccc1

>  <score_type>  (47) 
oracle

>  <origin>  (47) 
adgpu

>  <m_score__min__energy>  (47) 
-10.640000000000001

>  <m_primary>  (47) 
energy

$$$$
47:0
     RDKit          3D

 32 33  0  0  0  0  0  0  0  0999 V2000
   -5.5450   20.2710  -33.1390 C   0  0  0  0  0  0  0  0  0  0  0  0
   -6.8890   20.5580  -32.5380 C   0  0  0  0  0  0  0  0  0  0  0  0
   -7.9680   19.6650  -32.6480 C   0  0  0  0  0  0  0  0  0  0  0  0
   -9.1280   20.1080  -32.0290 C   0  0  0  0  0  0  0  0  0  0  0  0
   -8.8170   21.6110  -31.3450 S   0  0  0  0  0  0  0  0  0  0  0  0
   -7.2080   21.7200  -31.8250 C   0  0  0  0  0  0  0  0  0  0  0  0
   -6.3350   22.8630  -31.5100 C   0  0  0  0  0  0  0  0  0  0  0  0
   -6.1440   23.7770  -32.3580 O   0  0  0  0  0  0  0  0  0  0  0  0
   -5.7160   22.9250  -30.2580 O   0  0  0  0  0  0  0  0  0  0  0  0
   -5.5360   24.1430  -29.5480 C   0  0  0  0  0  0  0  0  0  0  0  0
   -4.4870   24.9570  -30.2270 C   0  0  0  0  0  0  0  0  0  0  0  0
   -4.7940   25.6650  -31.2230 O   0  0  0  0  0  0  0  0  0  0  0  0
   -3.1420   24.9250  -29.7340 N   0  0  0  0  0  0  0  0  0  0  0  0
   -2.2830   23.7770  -29.6710 C   0  0  0  0  0  0  0  0  0  0  0  0
   -1.2760   23.6670  -28.6920 C   0  0  0  0  0  0  0  0  0  0  0  0
   -0.4340   22.5520  -28.6660 C   0  0  0  0  0  0  0  0  0  0  0  0
   -0.5760   21.5450  -29.6220 C   0  0  0  0  0  0  0  0  0  0  0  0
   -1.5550   21.6550  -30.6120 C   0  0  0  0  0  0  0  0  0  0  0  0
   -2.4060   22.7660  -30.6460 C   0  0  0  0  0  0  0  0  0  0  0  0
   -3.3690   22.8420  -31.6530 O   0  0  0  0  0  0  0  0  0  0  0  0
   -4.8101   20.1141  -32.3357 H   0  0  0  0  0  0  0  0  0  0  0  0
   -5.6072   19.3659  -33.7610 H   0  0  0  0  0  0  0  0  0  0  0  0
   -5.2321   21.1226  -33.7610 H   0  0  0  0  0  0  0  0  0  0  0  0
   -7.8994   18.7027  -33.1765 H   0  0  0  0  0  0  0  0  0  0  0  0
  -10.0859   19.5685  -31.9923 H   0  0  0  0  0  0  0  0  0  0  0  0
   -6.4828   24.7027  -29.5320 H   0  0  0  0  0  0  0  0  0  0  0  0
   -5.2242   23.9260  -28.5157 H   0  0  0  0  0  0  0  0  0  0  0  0
   -1.1517   24.4635  -27.9436 H   0  0  0  0  0  0  0  0  0  0  0  0
    0.3419   22.4678  -27.8909 H   0  0  0  0  0  0  0  0  0  0  0  0
    0.0831   20.6648  -29.5957 H   0  0  0  0  0  0  0  0  0  0  0  0
   -1.6580   20.8640  -31.3694 H   0  0  0  0  0  0  0  0  0  0  0  0
   -4.1150   23.5270  -31.6380 H   0  0  0  0  0  0  0  0  0  0  0  0
  1  2  1  0
  2  3  1  0
  3  4  2  0
  4  5  1  0
  5  6  1  0
  6  7  1  0
  7  8  2  0
  7  9  1  0
  9 10  1  0
 10 11  1  0
 11 12  2  0
 11 13  1  0
 13 14  1  0
 14 15  2  0
 15 16  1  0
 16 17  2  0
 17 18  1  0
 18 19  2  0
 19 20  1  0
  6  2  2  0
 19 14  1  0
  1 21  1  0
  1 22  1  0
  1 23  1  0
  3 24  1  0
  4 25  1  0
 10 26  1  0
 10 27  1  0
 15 28  1  0
 16 29  1  0
 17 30  1  0
 18 31  1  0
 20 32  1  0
M  CHG  1  13  -1
M  END
>  <UniqueID>  (48) 
47

>  <SMILES>  (48) 
Cc1ccsc1C(=O)OCC(=O)[N-]c1ccccc1O

>  <Energy>  (48) 
58.163321972778824

>  <Genealogy>  (48) 
Cc1ccsc1C(=O)OCC(=O)[N-]c1ccccc1O (protonated)
Cc1ccsc1C(=O)OCC(=O)[N-]c1ccccc1O (3D coordinates assigned)
Cc1ccsc1C(=O)OCC(=O)[N-]c1ccccc1O (optimized conformer: 58.163321972778824 kcal/mol)

>  <smiles>  (48) 
Cc1ccsc1C(=O)OCC(=O)Nc1ccccc1O

>  <score_type>  (48) 
oracle

>  <origin>  (48) 
adgpu

>  <m_score__min__energy>  (48) 
-8.9399999999999995

>  <m_primary>  (48) 
energy

$$$$
48:0
     RDKit          3D

 58 61  0  0  0  0  0  0  0  0999 V2000
   -6.2590   26.0600  -29.9690 O   0  0  0  0  0  0  0  0  0  0  0  0
   -5.2680   24.9290  -29.9910 S   0  0  0  0  0  0  0  0  0  0  0  0
   -4.0770   25.3360  -30.8100 O   0  0  0  0  0  0  0  0  0  0  0  0
   -4.7620   24.5780  -28.3670 N   0  0  0  0  0  0  0  0  0  0  0  0
   -3.4700   24.0330  -28.0450 C   0  0  0  0  0  0  0  0  0  0  0  0
   -2.3070   24.8260  -28.0690 C   0  0  0  0  0  0  0  0  0  0  0  0
   -1.0690   24.2720  -27.7390 C   0  0  0  0  0  0  0  0  0  0  0  0
   -0.9730   22.9230  -27.3930 C   0  0  0  0  0  0  0  0  0  0  0  0
   -2.1170   22.1140  -27.3880 C   0  0  0  0  0  0  0  0  0  0  0  0
   -1.9920   20.4010  -26.9690 S   0  0  0  0  0  0  0  0  0  0  0  0
   -3.3450   19.7600  -27.1240 O   0  0  0  0  0  0  0  0  0  0  0  0
   -1.5820   20.2750  -25.5280 O   0  0  0  0  0  0  0  0  0  0  0  0
   -0.8350   19.5420  -27.9600 N   0  0  0  0  0  0  0  0  0  0  0  0
    0.4760   20.1850  -27.9530 C   0  0  0  0  0  0  0  0  0  0  0  0
    1.4810   19.1000  -28.3060 C   0  0  0  0  0  0  0  0  0  0  0  0
    0.7940   17.7890  -27.9500 C   0  0  0  0  0  0  0  0  0  0  0  0
   -0.6040   18.1780  -27.4880 C   0  0  0  0  0  0  0  0  0  0  0  0
   -3.3630   22.6760  -27.7080 C   0  0  0  0  0  0  0  0  0  0  0  0
   -5.9740   23.4800  -30.7000 C   0  0  0  0  0  0  0  0  0  0  0  0
   -5.1680   22.3550  -30.9140 C   0  0  0  0  0  0  0  0  0  0  0  0
   -5.7300   21.1670  -31.3860 C   0  0  0  0  0  0  0  0  0  0  0  0
   -7.1060   21.0890  -31.6370 C   0  0  0  0  0  0  0  0  0  0  0  0
   -7.8340   19.5570  -32.1240 S   0  0  0  0  0  0  0  0  0  0  0  0
   -8.7240   19.7880  -33.3150 O   0  0  0  0  0  0  0  0  0  0  0  0
   -8.6850   19.0320  -31.0020 O   0  0  0  0  0  0  0  0  0  0  0  0
   -6.6130   18.3700  -32.5260 N   0  0  0  0  0  0  0  0  0  0  0  0
   -5.5820   18.9310  -33.4280 C   0  0  0  0  0  0  0  0  0  0  0  0
   -5.7490   18.4350  -34.8760 C   0  0  0  0  0  0  0  0  0  0  0  0
   -5.6850   17.0200  -34.9930 O   0  0  0  0  0  0  0  0  0  0  0  0
   -6.2270   16.3250  -33.8750 C   0  0  0  0  0  0  0  0  0  0  0  0
   -7.2390   17.1430  -33.0560 C   0  0  0  0  0  0  0  0  0  0  0  0
   -7.9070   22.2260  -31.4540 C   0  0  0  0  0  0  0  0  0  0  0  0
   -7.3440   23.4160  -30.9860 C   0  0  0  0  0  0  0  0  0  0  0  0
   -5.3810   24.9080  -27.5940 H   0  0  0  0  0  0  0  0  0  0  0  0
   -2.3742   25.8876  -28.3492 H   0  0  0  0  0  0  0  0  0  0  0  0
   -0.1662   24.9004  -27.7516 H   0  0  0  0  0  0  0  0  0  0  0  0
    0.0034   22.4940  -27.1236 H   0  0  0  0  0  0  0  0  0  0  0  0
    0.5088   20.9928  -28.6990 H   0  0  0  0  0  0  0  0  0  0  0  0
    0.6976   20.6341  -26.9736 H   0  0  0  0  0  0  0  0  0  0  0  0
    1.7210   19.1308  -29.3790 H   0  0  0  0  0  0  0  0  0  0  0  0
    2.4303   19.2270  -27.7650 H   0  0  0  0  0  0  0  0  0  0  0  0
    0.7395   17.1316  -28.8302 H   0  0  0  0  0  0  0  0  0  0  0  0
    1.3431   17.2371  -27.1729 H   0  0  0  0  0  0  0  0  0  0  0  0
   -1.3503   17.4952  -27.9202 H   0  0  0  0  0  0  0  0  0  0  0  0
   -0.6915   18.1168  -26.3932 H   0  0  0  0  0  0  0  0  0  0  0  0
   -4.2644   22.0456  -27.6943 H   0  0  0  0  0  0  0  0  0  0  0  0
   -4.0884   22.4073  -30.7096 H   0  0  0  0  0  0  0  0  0  0  0  0
   -5.0902   20.2896  -31.5613 H   0  0  0  0  0  0  0  0  0  0  0  0
   -5.6602   20.0282  -33.4174 H   0  0  0  0  0  0  0  0  0  0  0  0
   -4.5978   18.5981  -33.0668 H   0  0  0  0  0  0  0  0  0  0  0  0
   -6.7262   18.7732  -35.2511 H   0  0  0  0  0  0  0  0  0  0  0  0
   -4.9159   18.8499  -35.4623 H   0  0  0  0  0  0  0  0  0  0  0  0
   -6.7321   15.4198  -34.2430 H   0  0  0  0  0  0  0  0  0  0  0  0
   -5.3851   16.0995  -33.2039 H   0  0  0  0  0  0  0  0  0  0  0  0
   -8.0858   17.4197  -33.7013 H   0  0  0  0  0  0  0  0  0  0  0  0
   -7.5865   16.5306  -32.2109 H   0  0  0  0  0  0  0  0  0  0  0  0
   -8.9826   22.1805  -31.6799 H   0  0  0  0  0  0  0  0  0  0  0  0
   -7.9773   24.3038  -30.8419 H   0  0  0  0  0  0  0  0  0  0  0  0
  1  2  2  0
  2  3  2  0
  2  4  1  0
  4  5  1  0
  5  6  2  0
  6  7  1  0
  7  8  2  0
  8  9  1  0
  9 10  1  0
 10 11  2  0
 10 12  2  0
 10 13  1  0
 13 14  1  0
 14 15  1  0
 15 16  1  0
 16 17  1  0
  9 18  2  0
  2 19  1  0
 19 20  2  0
 20 21  1  0
 21 22  2  0
 22 23  1  0
 23 24  2  0
 23 25  2  0
 23 26  1  0
 26 27  1  0
 27 28  1  0
 28 29  1  0
 29 30  1  0
 30 31  1  0
 22 32  1  0
 32 33  2  0
 18  5  1  0
 33 19  1  0
 17 13  1  0
 31 26  1  0
  4 34  1  0
  6 35  1  0
  7 36  1  0
  8 37  1  0
 14 38  1  0
 14 39  1  0
 15 40  1  0
 15 41  1  0
 16 42  1  0
 16 43  1  0
 17 44  1  0
 17 45  1  0
 18 46  1  0
 20 47  1  0
 21 48  1  0
 27 49  1  0
 27 50  1  0
 28 51  1  0
 28 52  1  0
 30 53  1  0
 30 54  1  0
 31 55  1  0
 31 56  1  0
 32 57  1  0
 33 58  1  0
M  END
>  <UniqueID>  (49) 
48

>  <SMILES>  (49) 
O=S(=O)(Nc1cccc(S(=O)(=O)N2CCCC2)c1)c1ccc(S(=O)(=O)N2CCOCC2)cc1

>  <Energy>  (49) 
73.79489787005741

>  <Genealogy>  (49) 
O=S(=O)(Nc1cccc(S(=O)(=O)N2CCCC2)c1)c1ccc(S(=O)(=O)N2CCOCC2)cc1 (3D coordinates assigned)
O=S(=O)(Nc1cccc(S(=O)(=O)N2CCCC2)c1)c1ccc(S(=O)(=O)N2CCOCC2)cc1 (nonaromatic ring conformer: 73.79489787005741 kcal/mol)

>  <smiles>  (49) 
O=S(=O)(Nc1cccc(S(=O)(=O)N2CCCC2)c1)c1ccc(S(=O)(=O)N2CCOCC2)cc1

>  <score_type>  (49) 
oracle

>  <origin>  (49) 
adgpu

>  <m_score__min__energy>  (49) 
-11.68

>  <m_primary>  (49) 
energy

$$$$
49:0
     RDKit          3D

 37 39  0  0  0  0  0  0  0  0999 V2000
   -6.0920   18.0460  -34.7220 C   0  0  0  0  0  0  0  0  0  0  0  0
   -5.8820   19.0560  -33.6240 C   0  0  0  0  0  0  0  0  0  0  0  0
   -4.6800   19.7810  -33.5770 C   0  0  0  0  0  0  0  0  0  0  0  0
   -4.4600   20.7280  -32.5750 C   0  0  0  0  0  0  0  0  0  0  0  0
   -5.4320   20.9560  -31.5910 C   0  0  0  0  0  0  0  0  0  0  0  0
   -5.2360   21.9500  -30.5750 N   0  0  0  0  0  0  0  0  0  0  0  0
   -5.9980   23.1690  -30.4590 C   0  0  0  0  0  0  0  0  0  0  0  0
   -7.1030   23.5980  -31.5960 S   0  0  0  0  0  0  0  0  0  0  0  0
   -5.8020   24.0420  -29.3380 N   0  0  0  0  0  0  0  0  0  0  0  0
   -4.5320   24.2550  -28.6990 C   0  0  0  0  0  0  0  0  0  0  0  0
   -4.4930   24.5450  -27.3110 C   0  0  0  0  0  0  0  0  0  0  0  0
   -3.2700   24.7870  -26.6590 C   0  0  0  0  0  0  0  0  0  0  0  0
   -2.1090   24.7460  -27.4230 C   0  0  0  0  0  0  0  0  0  0  0  0
   -0.8440   24.9530  -27.0110 N   0  0  0  0  0  0  0  0  0  0  0  0
   -0.1400   24.8050  -28.1620 C   0  0  0  0  0  0  0  0  0  0  0  0
    1.1130   24.9220  -28.2130 O   0  0  0  0  0  0  0  0  0  0  0  0
   -0.8940   24.5220  -29.2500 N   0  0  0  0  0  0  0  0  0  0  0  0
   -2.1400   24.4880  -28.7620 C   0  0  0  0  0  0  0  0  0  0  0  0
   -3.3280   24.2440  -29.4450 C   0  0  0  0  0  0  0  0  0  0  0  0
   -6.6470   20.2650  -31.6530 C   0  0  0  0  0  0  0  0  0  0  0  0
   -6.8860   19.3130  -32.6600 C   0  0  0  0  0  0  0  0  0  0  0  0
   -8.1980   18.5730  -32.6800 C   0  0  0  0  0  0  0  0  0  0  0  0
   -6.2970   17.0602  -34.2791 H   0  0  0  0  0  0  0  0  0  0  0  0
   -6.9455   18.3530  -35.3443 H   0  0  0  0  0  0  0  0  0  0  0  0
   -5.1868   17.9874  -35.3443 H   0  0  0  0  0  0  0  0  0  0  0  0
   -3.9049   19.6011  -34.3365 H   0  0  0  0  0  0  0  0  0  0  0  0
   -3.5194   21.2980  -32.5576 H   0  0  0  0  0  0  0  0  0  0  0  0
   -4.4520   21.7870  -29.9050 H   0  0  0  0  0  0  0  0  0  0  0  0
   -6.6290   24.5690  -28.9760 H   0  0  0  0  0  0  0  0  0  0  0  0
   -5.4308   24.5811  -26.7372 H   0  0  0  0  0  0  0  0  0  0  0  0
   -3.2335   25.0015  -25.5807 H   0  0  0  0  0  0  0  0  0  0  0  0
   -0.5800   24.3680  -30.2340 H   0  0  0  0  0  0  0  0  0  0  0  0
   -3.3317   24.0492  -30.5276 H   0  0  0  0  0  0  0  0  0  0  0  0
   -7.4260   20.4692  -30.9037 H   0  0  0  0  0  0  0  0  0  0  0  0
   -8.5293   18.3861  -31.6479 H   0  0  0  0  0  0  0  0  0  0  0  0
   -8.9526   19.1786  -33.2034 H   0  0  0  0  0  0  0  0  0  0  0  0
   -8.0701   17.6140  -33.2034 H   0  0  0  0  0  0  0  0  0  0  0  0
  1  2  1  0
  2  3  2  0
  3  4  1  0
  4  5  2  0
  5  6  1  0
  6  7  1  0
  7  8  2  0
  7  9  1  0
  9 10  1  0
 10 11  2  0
 11 12  1  0
 12 13  2  0
 13 14  1  0
 14 15  1  0
 15 16  2  0
 15 17  1  0
 17 18  1  0
 18 19  2  0
  5 20  1  0
 20 21  2  0
 21 22  1  0
 21  2  1  0
 19 10  1  0
 18 13  1  0
  1 23  1  0
  1 24  1  0
  1 25  1  0
  3 26  1  0
  4 27  1  0
  6 28  1  0
  9 29  1  0
 11 30  1  0
 12 31  1  0
 17 32  1  0
 19 33  1  0
 20 34  1  0
 22 35  1  0
 22 36  1  0
 22 37  1  0
M  CHG  1  14  -1
M  END
>  <UniqueID>  (50) 
49

>  <SMILES>  (50) 
Cc1ccc(NC(=S)Nc2ccc3[n-]c(=O)[nH]c3c2)cc1C

>  <Energy>  (50) 
86.678509808947

>  <Genealogy>  (50) 
Cc1ccc(NC(=S)Nc2ccc3[n-]c(=O)[nH]c3c2)cc1C (protonated)
Cc1ccc(NC(=S)Nc2ccc3[n-]c(=O)[nH]c3c2)cc1C (3D coordinates assigned)
Cc1ccc(NC(=S)Nc2ccc3[n-]c(=O)[nH]c3c2)cc1C (optimized conformer: 86.678509808947 kcal/mol)

>  <smiles>  (50) 
Cc1ccc(NC(=S)Nc2ccc3[nH]c(=O)[nH]c3c2)cc1C

>  <score_type>  (50) 
oracle

>  <origin>  (50) 
adgpu

>  <m_score__min__energy>  (50) 
-8.9900000000000002

>  <m_primary>  (50) 
energy

$$$$
