0:0
     RDKit          3D

 55 58  0  0  0  0  0  0  0  0999 V2000
   -5.9990   26.1730  -30.2130 O   0  0  0  0  0  0  0  0  0  0  0  0
   -5.2900   25.1710  -30.4930 C   0  0  0  0  0  0  0  0  0  0  0  0
   -3.8640   25.2900  -30.3930 N   0  0  0  0  0  0  0  0  0  0  0  0
   -2.9810   24.3670  -29.7400 C   0  0  0  0  0  0  0  0  0  0  0  0
   -2.9280   23.0110  -30.1080 C   0  0  0  0  0  0  0  0  0  0  0  0
   -2.0490   22.1410  -29.4600 C   0  0  0  0  0  0  0  0  0  0  0  0
   -1.2040   22.6180  -28.4540 C   0  0  0  0  0  0  0  0  0  0  0  0
   -1.2240   23.9750  -28.1020 C   0  0  0  0  0  0  0  0  0  0  0  0
   -0.1520   24.5810  -26.8330 S   0  0  0  0  0  0  0  0  0  0  0  0
    0.9970   25.3100  -27.4710 O   0  0  0  0  0  0  0  0  0  0  0  0
    0.4060   23.4130  -26.0680 O   0  0  0  0  0  0  0  0  0  0  0  0
   -0.9600   25.6570  -25.7180 N   0  0  0  0  0  0  0  0  0  0  0  0
   -0.6840   27.0620  -26.0120 C   0  0  0  0  0  0  0  0  0  0  0  0
   -0.8740   27.8170  -24.7050 C   0  0  0  0  0  0  0  0  0  0  0  0
   -0.7640   26.7640  -23.6120 C   0  0  0  0  0  0  0  0  0  0  0  0
   -0.5200   25.4510  -24.3390 C   0  0  0  0  0  0  0  0  0  0  0  0
   -2.1160   24.8430  -28.7490 C   0  0  0  0  0  0  0  0  0  0  0  0
   -5.9490   23.8950  -30.8620 C   0  0  0  0  0  0  0  0  0  0  0  0
   -5.5250   23.1870  -31.9990 C   0  0  0  0  0  0  0  0  0  0  0  0
   -6.1420   21.9840  -32.3550 C   0  0  0  0  0  0  0  0  0  0  0  0
   -7.1980   21.4780  -31.5860 C   0  0  0  0  0  0  0  0  0  0  0  0
   -7.9650   19.9620  -32.0470 S   0  0  0  0  0  0  0  0  0  0  0  0
   -8.7090   19.4150  -30.8620 O   0  0  0  0  0  0  0  0  0  0  0  0
   -8.9370   20.1980  -33.1710 O   0  0  0  0  0  0  0  0  0  0  0  0
   -6.7400   18.8220  -32.5460 N   0  0  0  0  0  0  0  0  0  0  0  0
   -6.1990   19.1630  -33.8620 C   0  0  0  0  0  0  0  0  0  0  0  0
   -5.7250   17.8610  -34.4870 C   0  0  0  0  0  0  0  0  0  0  0  0
   -6.4290   16.7580  -33.7110 C   0  0  0  0  0  0  0  0  0  0  0  0
   -7.2940   17.4750  -32.6880 C   0  0  0  0  0  0  0  0  0  0  0  0
   -7.6340   22.1870  -30.4580 C   0  0  0  0  0  0  0  0  0  0  0  0
   -7.0180   23.3900  -30.1020 C   0  0  0  0  0  0  0  0  0  0  0  0
   -3.5811   22.6344  -30.9090 H   0  0  0  0  0  0  0  0  0  0  0  0
   -2.0215   21.0781  -29.7418 H   0  0  0  0  0  0  0  0  0  0  0  0
   -0.5217   21.9271  -27.9372 H   0  0  0  0  0  0  0  0  0  0  0  0
    0.3482   27.1799  -26.3734 H   0  0  0  0  0  0  0  0  0  0  0  0
   -1.3534   27.4454  -26.7961 H   0  0  0  0  0  0  0  0  0  0  0  0
   -0.0916   28.5807  -24.5842 H   0  0  0  0  0  0  0  0  0  0  0  0
   -1.8399   28.3423  -24.6720 H   0  0  0  0  0  0  0  0  0  0  0  0
    0.0759   26.9935  -22.9397 H   0  0  0  0  0  0  0  0  0  0  0  0
   -1.6700   26.7245  -22.9894 H   0  0  0  0  0  0  0  0  0  0  0  0
    0.5496   25.1954  -24.3147 H   0  0  0  0  0  0  0  0  0  0  0  0
   -1.0676   24.6236  -23.8642 H   0  0  0  0  0  0  0  0  0  0  0  0
   -2.1355   25.9080  -28.4745 H   0  0  0  0  0  0  0  0  0  0  0  0
   -4.7022   23.5818  -32.6131 H   0  0  0  0  0  0  0  0  0  0  0  0
   -5.7970   21.4328  -33.2422 H   0  0  0  0  0  0  0  0  0  0  0  0
   -6.9800   19.6215  -34.4863 H   0  0  0  0  0  0  0  0  0  0  0  0
   -5.3741   19.8857  -33.7768 H   0  0  0  0  0  0  0  0  0  0  0  0
   -6.0037   17.8211  -35.5503 H   0  0  0  0  0  0  0  0  0  0  0  0
   -4.6308   17.7596  -34.4387 H   0  0  0  0  0  0  0  0  0  0  0  0
   -7.0520   16.1509  -34.3842 H   0  0  0  0  0  0  0  0  0  0  0  0
   -5.7135   16.0722  -33.2337 H   0  0  0  0  0  0  0  0  0  0  0  0
   -8.3347   17.5274  -33.0404 H   0  0  0  0  0  0  0  0  0  0  0  0
   -7.2959   16.9423  -31.7256 H   0  0  0  0  0  0  0  0  0  0  0  0
   -8.4636   21.7953  -29.8511 H   0  0  0  0  0  0  0  0  0  0  0  0
   -7.3722   23.9453  -29.2210 H   0  0  0  0  0  0  0  0  0  0  0  0
  1  2  2  0
  2  3  1  0
  3  4  1  0
  4  5  2  0
  5  6  1  0
  6  7  2  0
  7  8  1  0
  8  9  1  0
  9 10  2  0
  9 11  2  0
  9 12  1  0
 12 13  1  0
 13 14  1  0
 14 15  1  0
 15 16  1  0
  8 17  2  0
  2 18  1  0
 18 19  2  0
 19 20  1  0
 20 21  2  0
 21 22  1  0
 22 23  2  0
 22 24  2  0
 22 25  1  0
 25 26  1  0
 26 27  1  0
 27 28  1  0
 28 29  1  0
 21 30  1  0
 30 31  2  0
 17  4  1  0
 31 18  1  0
 16 12  1  0
 29 25  1  0
  5 32  1  0
  6 33  1  0
  7 34  1  0
 13 35  1  0
 13 36  1  0
 14 37  1  0
 14 38  1  0
 15 39  1  0
 15 40  1  0
 16 41  1  0
 16 42  1  0
 17 43  1  0
 19 44  1  0
 20 45  1  0
 26 46  1  0
 26 47  1  0
 27 48  1  0
 27 49  1  0
 28 50  1  0
 28 51  1  0
 29 52  1  0
 29 53  1  0
 30 54  1  0
 31 55  1  0
M  CHG  1   3  -1
M  END
>  <UniqueID>  (1) 
1

>  <SMILES>  (1) 
O=C([N-]c1cccc(S(=O)(=O)N2CCCC2)c1)c1ccc(S(=O)(=O)N2CCCC2)cc1

>  <Energy>  (1) 
65.35101285854272

>  <Genealogy>  (1) 
O=C([N-]c1cccc(S(=O)(=O)N2CCCC2)c1)c1ccc(S(=O)(=O)N2CCCC2)cc1 (protonated)
O=C([N-]c1cccc(S(=O)(=O)N2CCCC2)c1)c1ccc(S(=O)(=O)N2CCCC2)cc1 (3D coordinates assigned)
O=C([N-]c1cccc(S(=O)(=O)N2CCCC2)c1)c1ccc(S(=O)(=O)N2CCCC2)cc1 (nonaromatic ring conformer: 65.35101285854272 kcal/mol)

>  <smiles>  (1) 
O=C(Nc1cccc(S(=O)(=O)N2CCCC2)c1)c1ccc(S(=O)(=O)N2CCCC2)cc1

>  <score_type>  (1) 
oracle

>  <origin>  (1) 
adgpu

>  <m_score__min__energy>  (1) 
-13.17

>  <m_primary>  (1) 
energy

$$$$
1:0
     RDKit          3D

 52 55  0  0  0  0  0  0  0  0999 V2000
   -1.9060   25.2820  -29.3110 O   0  0  0  0  0  0  0  0  0  0  0  0
   -2.9460   24.5970  -29.5040 C   0  0  0  0  0  0  0  0  0  0  0  0
   -3.2620   23.4390  -28.5900 C   0  0  0  0  0  0  0  0  0  0  0  0
   -2.1590   22.4640  -28.5460 N   0  0  0  0  0  0  0  0  0  0  0  0
   -1.2650   22.4490  -27.4170 C   0  0  0  0  0  0  0  0  0  0  0  0
   -1.1710   23.4520  -26.6580 O   0  0  0  0  0  0  0  0  0  0  0  0
   -0.5000   21.2020  -27.0910 C   0  0  0  0  0  0  0  0  0  0  0  0
   -0.1810   20.4660  -28.2710 O   0  0  0  0  0  0  0  0  0  0  0  0
   -0.9760   20.4870  -29.4220 C   0  0  0  0  0  0  0  0  0  0  0  0
   -0.7620   19.5270  -30.4160 C   0  0  0  0  0  0  0  0  0  0  0  0
   -1.5310   19.5390  -31.5820 C   0  0  0  0  0  0  0  0  0  0  0  0
   -2.5010   20.5300  -31.7750 C   0  0  0  0  0  0  0  0  0  0  0  0
   -3.4800   20.5510  -33.2450 S   0  0  0  0  0  0  0  0  0  0  0  0
   -3.4720   21.9380  -33.8230 O   0  0  0  0  0  0  0  0  0  0  0  0
   -2.8760   19.6200  -34.2580 O   0  0  0  0  0  0  0  0  0  0  0  0
   -5.1260   20.0540  -32.9240 N   0  0  0  0  0  0  0  0  0  0  0  0
   -5.7290   19.3770  -34.1000 C   0  0  0  0  0  0  0  0  0  0  0  0
   -5.8010   17.8510  -33.9420 C   0  0  0  0  0  0  0  0  0  0  0  0
   -6.6130   17.4580  -32.6960 C   0  0  0  0  0  0  0  0  0  0  0  0
   -6.5080   18.4960  -31.5640 C   0  0  0  0  0  0  0  0  0  0  0  0
   -5.2000   19.2850  -31.6620 C   0  0  0  0  0  0  0  0  0  0  0  0
   -2.6960   21.5060  -30.7900 C   0  0  0  0  0  0  0  0  0  0  0  0
   -1.9610   21.4790  -29.5900 C   0  0  0  0  0  0  0  0  0  0  0  0
   -3.8710   25.0220  -30.5130 N   0  0  0  0  0  0  0  0  0  0  0  0
   -5.0710   24.3340  -30.8880 C   0  0  0  0  0  0  0  0  0  0  0  0
   -5.0680   23.3850  -31.9240 C   0  0  0  0  0  0  0  0  0  0  0  0
   -6.2530   22.7450  -32.2980 C   0  0  0  0  0  0  0  0  0  0  0  0
   -7.4530   23.0670  -31.6570 C   0  0  0  0  0  0  0  0  0  0  0  0
   -8.6040   22.4490  -32.0220 F   0  0  0  0  0  0  0  0  0  0  0  0
   -7.4690   24.0360  -30.6500 C   0  0  0  0  0  0  0  0  0  0  0  0
   -6.2830   24.6760  -30.2730 C   0  0  0  0  0  0  0  0  0  0  0  0
   -6.3110   25.6190  -29.2980 F   0  0  0  0  0  0  0  0  0  0  0  0
   -3.4385   23.8239  -27.5747 H   0  0  0  0  0  0  0  0  0  0  0  0
   -4.1557   22.9289  -28.9787 H   0  0  0  0  0  0  0  0  0  0  0  0
    0.4329   21.4779  -26.5776 H   0  0  0  0  0  0  0  0  0  0  0  0
   -1.1268   20.5689  -26.4458 H   0  0  0  0  0  0  0  0  0  0  0  0
    0.0144   18.7599  -30.2792 H   0  0  0  0  0  0  0  0  0  0  0  0
   -1.3741   18.7679  -32.3506 H   0  0  0  0  0  0  0  0  0  0  0  0
   -6.7491   19.7633  -34.2420 H   0  0  0  0  0  0  0  0  0  0  0  0
   -5.0858   19.5882  -34.9670 H   0  0  0  0  0  0  0  0  0  0  0  0
   -6.2807   17.4203  -34.8333 H   0  0  0  0  0  0  0  0  0  0  0  0
   -4.7777   17.4643  -33.8269 H   0  0  0  0  0  0  0  0  0  0  0  0
   -7.6701   17.3565  -32.9829 H   0  0  0  0  0  0  0  0  0  0  0  0
   -6.2006   16.5114  -32.3168 H   0  0  0  0  0  0  0  0  0  0  0  0
   -7.3552   19.1939  -31.6363 H   0  0  0  0  0  0  0  0  0  0  0  0
   -6.5260   17.9661  -30.6002 H   0  0  0  0  0  0  0  0  0  0  0  0
   -5.1386   19.9827  -30.8138 H   0  0  0  0  0  0  0  0  0  0  0  0
   -4.3632   18.5713  -31.6422 H   0  0  0  0  0  0  0  0  0  0  0  0
   -3.4338   22.3048  -30.9564 H   0  0  0  0  0  0  0  0  0  0  0  0
   -4.1286   23.1445  -32.4433 H   0  0  0  0  0  0  0  0  0  0  0  0
   -6.2414   21.9883  -33.0963 H   0  0  0  0  0  0  0  0  0  0  0  0
   -8.4153   24.2960  -30.1530 H   0  0  0  0  0  0  0  0  0  0  0  0
  1  2  2  0
  2  3  1  0
  3  4  1  0
  4  5  1  0
  5  6  2  0
  5  7  1  0
  7  8  1  0
  8  9  1  0
  9 10  2  0
 10 11  1  0
 11 12  2  0
 12 13  1  0
 13 14  2  0
 13 15  2  0
 13 16  1  0
 16 17  1  0
 17 18  1  0
 18 19  1  0
 19 20  1  0
 20 21  1  0
 12 22  1  0
 22 23  2  0
  2 24  1  0
 24 25  1  0
 25 26  2  0
 26 27  1  0
 27 28  2  0
 28 29  1  0
 28 30  1  0
 30 31  2  0
 31 32  1  0
 23  4  1  0
 31 25  1  0
 23  9  1  0
 21 16  1  0
  3 33  1  0
  3 34  1  0
  7 35  1  0
  7 36  1  0
 10 37  1  0
 11 38  1  0
 17 39  1  0
 17 40  1  0
 18 41  1  0
 18 42  1  0
 19 43  1  0
 19 44  1  0
 20 45  1  0
 20 46  1  0
 21 47  1  0
 21 48  1  0
 22 49  1  0
 26 50  1  0
 27 51  1  0
 30 52  1  0
M  CHG  1  24  -1
M  END
>  <UniqueID>  (2) 
2

>  <SMILES>  (2) 
O=C(CN1C(=O)COc2ccc(S(=O)(=O)N3CCCCC3)cc21)[N-]c1ccc(F)cc1F

>  <Energy>  (2) 
68.57328370093306

>  <Genealogy>  (2) 
O=C(CN1C(=O)COc2ccc(S(=O)(=O)N3CCCCC3)cc21)[N-]c1ccc(F)cc1F (protonated)
O=C(CN1C(=O)COc2ccc(S(=O)(=O)N3CCCCC3)cc21)[N-]c1ccc(F)cc1F (3D coordinates assigned)
O=C(CN1C(=O)COc2ccc(S(=O)(=O)N3CCCCC3)cc21)[N-]c1ccc(F)cc1F (nonaromatic ring conformer: 68.57328370093306 kcal/mol)

>  <smiles>  (2) 
O=C(CN1C(=O)COc2ccc(S(=O)(=O)N3CCCCC3)cc21)Nc1ccc(F)cc1F

>  <score_type>  (2) 
oracle

>  <origin>  (2) 
adgpu

>  <m_score__min__energy>  (2) 
-10.48

>  <m_primary>  (2) 
energy

$$$$
2:0
     RDKit          3D

 57 60  0  0  0  0  0  0  0  0999 V2000
   -0.2190   19.5400  -27.8450 C   0  0  0  0  0  0  0  0  0  0  0  0
   -0.9220   20.1610  -26.7100 N   0  0  0  0  0  0  0  0  0  0  0  0
   -2.3580   19.8180  -26.6750 C   0  0  0  0  0  0  0  0  0  0  0  0
   -3.1230   20.3710  -27.8870 C   0  0  0  0  0  0  0  0  0  0  0  0
   -2.7350   21.7900  -28.2100 C   0  0  0  0  0  0  0  0  0  0  0  0
   -3.5090   22.5140  -29.1270 C   0  0  0  0  0  0  0  0  0  0  0  0
   -3.1300   23.8060  -29.5290 C   0  0  0  0  0  0  0  0  0  0  0  0
   -3.8870   24.5210  -30.5200 N   0  0  0  0  0  0  0  0  0  0  0  0
   -5.6230   24.5620  -30.5080 S   0  0  0  0  0  0  0  0  0  0  0  0
   -6.1060   25.6330  -31.4440 O   0  0  0  0  0  0  0  0  0  0  0  0
   -6.1000   24.8720  -29.1170 O   0  0  0  0  0  0  0  0  0  0  0  0
   -6.2470   23.0070  -31.0540 C   0  0  0  0  0  0  0  0  0  0  0  0
   -7.6210   22.7330  -31.0220 C   0  0  0  0  0  0  0  0  0  0  0  0
   -8.0930   21.4640  -31.3700 C   0  0  0  0  0  0  0  0  0  0  0  0
   -7.1960   20.4590  -31.7570 C   0  0  0  0  0  0  0  0  0  0  0  0
   -7.7940   18.8550  -32.1870 S   0  0  0  0  0  0  0  0  0  0  0  0
   -8.0670   18.0720  -30.9320 O   0  0  0  0  0  0  0  0  0  0  0  0
   -9.0890   18.9980  -32.9360 O   0  0  0  0  0  0  0  0  0  0  0  0
   -6.6440   17.9820  -33.1710 N   0  0  0  0  0  0  0  0  0  0  0  0
   -6.1280   18.8420  -34.2470 C   0  0  0  0  0  0  0  0  0  0  0  0
   -5.3230   18.0050  -35.2590 C   0  0  0  0  0  0  0  0  0  0  0  0
   -4.7550   16.7180  -34.6360 C   0  0  0  0  0  0  0  0  0  0  0  0
   -4.3570   16.9400  -33.1740 C   0  0  0  0  0  0  0  0  0  0  0  0
   -5.5410   17.4670  -32.3310 C   0  0  0  0  0  0  0  0  0  0  0  0
   -5.8240   20.7370  -31.7970 C   0  0  0  0  0  0  0  0  0  0  0  0
   -5.3510   22.0040  -31.4460 C   0  0  0  0  0  0  0  0  0  0  0  0
   -1.9830   24.3880  -28.9650 C   0  0  0  0  0  0  0  0  0  0  0  0
   -1.5950   25.6750  -29.3250 O   0  0  0  0  0  0  0  0  0  0  0  0
   -1.2110   23.6730  -28.0460 C   0  0  0  0  0  0  0  0  0  0  0  0
   -1.5600   22.3630  -27.6870 C   0  0  0  0  0  0  0  0  0  0  0  0
   -0.7210   21.6240  -26.6690 C   0  0  0  0  0  0  0  0  0  0  0  0
    0.5552   18.8561  -27.4670 H   0  0  0  0  0  0  0  0  0  0  0  0
   -0.9381   18.9769  -28.4580 H   0  0  0  0  0  0  0  0  0  0  0  0
    0.2511   20.3231  -28.4580 H   0  0  0  0  0  0  0  0  0  0  0  0
   -2.4592   18.7227  -26.6634 H   0  0  0  0  0  0  0  0  0  0  0  0
   -2.7890   20.2728  -25.7709 H   0  0  0  0  0  0  0  0  0  0  0  0
   -2.9072   19.7379  -28.7603 H   0  0  0  0  0  0  0  0  0  0  0  0
   -4.1949   20.3635  -27.6399 H   0  0  0  0  0  0  0  0  0  0  0  0
   -4.4254   22.0649  -29.5375 H   0  0  0  0  0  0  0  0  0  0  0  0
   -3.4110   24.8660  -31.3820 H   0  0  0  0  0  0  0  0  0  0  0  0
   -8.3301   23.5187  -30.7222 H   0  0  0  0  0  0  0  0  0  0  0  0
   -9.1722   21.2535  -31.3400 H   0  0  0  0  0  0  0  0  0  0  0  0
   -6.9717   19.3232  -34.7634 H   0  0  0  0  0  0  0  0  0  0  0  0
   -5.4691   19.6066  -33.8098 H   0  0  0  0  0  0  0  0  0  0  0  0
   -5.9831   17.7311  -36.0952 H   0  0  0  0  0  0  0  0  0  0  0  0
   -4.4738   18.6159  -35.5990 H   0  0  0  0  0  0  0  0  0  0  0  0
   -5.5193   15.9284  -34.6840 H   0  0  0  0  0  0  0  0  0  0  0  0
   -3.8580   16.4239  -35.2006 H   0  0  0  0  0  0  0  0  0  0  0  0
   -4.0145   15.9849  -32.7491 H   0  0  0  0  0  0  0  0  0  0  0  0
   -3.5562   17.6937  -33.1480 H   0  0  0  0  0  0  0  0  0  0  0  0
   -5.9248   16.6456  -31.7081 H   0  0  0  0  0  0  0  0  0  0  0  0
   -5.1706   18.2997  -31.7150 H   0  0  0  0  0  0  0  0  0  0  0  0
   -5.1155   19.9544  -32.1061 H   0  0  0  0  0  0  0  0  0  0  0  0
   -4.2718   22.2145  -31.4776 H   0  0  0  0  0  0  0  0  0  0  0  0
   -0.3214   24.1417  -27.6000 H   0  0  0  0  0  0  0  0  0  0  0  0
    0.3397   21.8380  -26.8668 H   0  0  0  0  0  0  0  0  0  0  0  0
   -1.0303   21.9714  -25.6722 H   0  0  0  0  0  0  0  0  0  0  0  0
  1  2  1  0
  2  3  1  0
  3  4  1  0
  4  5  1  0
  5  6  2  0
  6  7  1  0
  7  8  1  0
  8  9  1  0
  9 10  2  0
  9 11  2  0
  9 12  1  0
 12 13  2  0
 13 14  1  0
 14 15  2  0
 15 16  1  0
 16 17  2  0
 16 18  2  0
 16 19  1  0
 19 20  1  0
 20 21  1  0
 21 22  1  0
 22 23  1  0
 23 24  1  0
 15 25  1  0
 25 26  2  0
  7 27  2  0
 27 28  1  0
 27 29  1  0
 29 30  2  0
 30 31  1  0
 31  2  1  0
 30  5  1  0
 26 12  1  0
 24 19  1  0
  1 32  1  0
  1 33  1  0
  1 34  1  0
  3 35  1  0
  3 36  1  0
  4 37  1  0
  4 38  1  0
  6 39  1  0
  8 40  1  0
 13 41  1  0
 14 42  1  0
 20 43  1  0
 20 44  1  0
 21 45  1  0
 21 46  1  0
 22 47  1  0
 22 48  1  0
 23 49  1  0
 23 50  1  0
 24 51  1  0
 24 52  1  0
 25 53  1  0
 26 54  1  0
 29 55  1  0
 31 56  1  0
 31 57  1  0
M  CHG  1  28  -1
M  END
>  <UniqueID>  (3) 
3

>  <SMILES>  (3) 
CN1CCc2cc(NS(=O)(=O)c3ccc(S(=O)(=O)N4CCCCC4)cc3)c([O-])cc2C1

>  <Energy>  (3) 
69.46859109955892

>  <Genealogy>  (3) 
CN1CCc2cc(NS(=O)(=O)c3ccc(S(=O)(=O)N4CCCCC4)cc3)c([O-])cc2C1 (protonated)
CN1CCc2cc(NS(=O)(=O)c3ccc(S(=O)(=O)N4CCCCC4)cc3)c([O-])cc2C1 (3D coordinates assigned)
CN1CCc2cc(NS(=O)(=O)c3ccc(S(=O)(=O)N4CCCCC4)cc3)c([O-])cc2C1 (nonaromatic ring conformer: 69.46859109955892 kcal/mol)

>  <smiles>  (3) 
CN1CCc2cc(NS(=O)(=O)c3ccc(S(=O)(=O)N4CCCCC4)cc3)c(O)cc2C1

>  <score_type>  (3) 
oracle

>  <origin>  (3) 
adgpu

>  <m_score__min__energy>  (3) 
-15.59

>  <m_primary>  (3) 
energy

$$$$
3:0
     RDKit          3D

 57 60  0  0  0  0  0  0  0  0999 V2000
   -7.0820   16.3550  -33.6520 O   0  0  0  0  0  0  0  0  0  0  0  0
   -6.1700   17.0910  -33.1850 C   0  0  0  0  0  0  0  0  0  0  0  0
   -4.8390   16.5760  -33.0370 N   0  0  0  0  0  0  0  0  0  0  0  0
   -3.6260   17.2230  -33.4460 C   0  0  0  0  0  0  0  0  0  0  0  0
   -2.5750   16.5150  -34.0550 C   0  0  0  0  0  0  0  0  0  0  0  0
   -1.3930   17.1720  -34.4030 C   0  0  0  0  0  0  0  0  0  0  0  0
   -1.2400   18.5360  -34.1370 C   0  0  0  0  0  0  0  0  0  0  0  0
   -0.0530   19.1700  -34.4860 O   0  0  0  0  0  0  0  0  0  0  0  0
   -2.2770   19.2510  -33.5150 C   0  0  0  0  0  0  0  0  0  0  0  0
   -2.0820   20.9670  -33.1530 S   0  0  0  0  0  0  0  0  0  0  0  0
   -1.1700   21.5770  -34.1810 O   0  0  0  0  0  0  0  0  0  0  0  0
   -3.4120   21.6680  -33.2100 O   0  0  0  0  0  0  0  0  0  0  0  0
   -1.3890   21.1460  -31.5600 N   0  0  0  0  0  0  0  0  0  0  0  0
   -0.1010   20.4190  -31.4510 C   0  0  0  0  0  0  0  0  0  0  0  0
   -0.2220   19.1410  -30.6020 C   0  0  0  0  0  0  0  0  0  0  0  0
   -0.6880   19.3900  -29.2860 O   0  0  0  0  0  0  0  0  0  0  0  0
   -1.6640   20.4240  -29.2080 C   0  0  0  0  0  0  0  0  0  0  0  0
   -2.3690   20.7340  -30.5390 C   0  0  0  0  0  0  0  0  0  0  0  0
   -3.4620   18.5860  -33.1640 C   0  0  0  0  0  0  0  0  0  0  0  0
   -6.4640   18.5000  -32.8320 C   0  0  0  0  0  0  0  0  0  0  0  0
   -6.1780   19.5380  -33.7370 C   0  0  0  0  0  0  0  0  0  0  0  0
   -6.4710   20.8650  -33.4100 C   0  0  0  0  0  0  0  0  0  0  0  0
   -7.0550   21.1760  -32.1770 C   0  0  0  0  0  0  0  0  0  0  0  0
   -7.4660   22.8400  -31.7720 S   0  0  0  0  0  0  0  0  0  0  0  0
   -8.9600   23.0140  -31.7950 O   0  0  0  0  0  0  0  0  0  0  0  0
   -6.8610   23.7470  -32.8080 O   0  0  0  0  0  0  0  0  0  0  0  0
   -6.8190   23.2170  -30.1860 N   0  0  0  0  0  0  0  0  0  0  0  0
   -6.8680   24.6670  -29.8990 C   0  0  0  0  0  0  0  0  0  0  0  0
   -5.5180   25.3670  -30.1450 C   0  0  0  0  0  0  0  0  0  0  0  0
   -4.8220   24.7370  -31.1950 O   0  0  0  0  0  0  0  0  0  0  0  0
   -4.3970   23.4450  -30.7970 C   0  0  0  0  0  0  0  0  0  0  0  0
   -5.4680   22.6580  -30.0020 C   0  0  0  0  0  0  0  0  0  0  0  0
   -7.3470   20.1480  -31.2730 C   0  0  0  0  0  0  0  0  0  0  0  0
   -7.0510   18.8200  -31.5950 C   0  0  0  0  0  0  0  0  0  0  0  0
   -2.6843   15.4394  -34.2581 H   0  0  0  0  0  0  0  0  0  0  0  0
   -0.5788   16.6140  -34.8885 H   0  0  0  0  0  0  0  0  0  0  0  0
    0.2356   20.1422  -32.4610 H   0  0  0  0  0  0  0  0  0  0  0  0
    0.6207   21.0852  -30.9556 H   0  0  0  0  0  0  0  0  0  0  0  0
   -0.9249   18.4559  -31.0986 H   0  0  0  0  0  0  0  0  0  0  0  0
    0.7851   18.7069  -30.5169 H   0  0  0  0  0  0  0  0  0  0  0  0
   -2.4278   20.1216  -28.4764 H   0  0  0  0  0  0  0  0  0  0  0  0
   -1.1287   21.3394  -28.9157 H   0  0  0  0  0  0  0  0  0  0  0  0
   -2.8971   19.8339  -30.8869 H   0  0  0  0  0  0  0  0  0  0  0  0
   -3.0829   21.5556  -30.3799 H   0  0  0  0  0  0  0  0  0  0  0  0
   -4.2696   19.1397  -32.6629 H   0  0  0  0  0  0  0  0  0  0  0  0
   -5.7203   19.3037  -34.7094 H   0  0  0  0  0  0  0  0  0  0  0  0
   -6.2414   21.6686  -34.1252 H   0  0  0  0  0  0  0  0  0  0  0  0
   -7.6273   25.1287  -30.5473 H   0  0  0  0  0  0  0  0  0  0  0  0
   -7.1156   24.7870  -28.8340 H   0  0  0  0  0  0  0  0  0  0  0  0
   -5.6984   26.4193  -30.4099 H   0  0  0  0  0  0  0  0  0  0  0  0
   -4.9125   25.3061  -29.2287 H   0  0  0  0  0  0  0  0  0  0  0  0
   -4.1409   22.8698  -31.6990 H   0  0  0  0  0  0  0  0  0  0  0  0
   -3.5339   23.5808  -30.1286 H   0  0  0  0  0  0  0  0  0  0  0  0
   -5.4671   21.6129  -30.3451 H   0  0  0  0  0  0  0  0  0  0  0  0
   -5.2156   22.7284  -28.9337 H   0  0  0  0  0  0  0  0  0  0  0  0
   -7.8115   20.3860  -30.3047 H   0  0  0  0  0  0  0  0  0  0  0  0
   -7.2790   18.0198  -30.8755 H   0  0  0  0  0  0  0  0  0  0  0  0
  1  2  2  0
  2  3  1  0
  3  4  1  0
  4  5  2  0
  5  6  1  0
  6  7  2  0
  7  8  1  0
  7  9  1  0
  9 10  1  0
 10 11  2  0
 10 12  2  0
 10 13  1  0
 13 14  1  0
 14 15  1  0
 15 16  1  0
 16 17  1  0
 17 18  1  0
  9 19  2  0
  2 20  1  0
 20 21  2  0
 21 22  1  0
 22 23  2  0
 23 24  1  0
 24 25  2  0
 24 26  2  0
 24 27  1  0
 27 28  1  0
 28 29  1  0
 29 30  1  0
 30 31  1  0
 31 32  1  0
 23 33  1  0
 33 34  2  0
 19  4  1  0
 34 20  1  0
 18 13  1  0
 32 27  1  0
  5 35  1  0
  6 36  1  0
 14 37  1  0
 14 38  1  0
 15 39  1  0
 15 40  1  0
 17 41  1  0
 17 42  1  0
 18 43  1  0
 18 44  1  0
 19 45  1  0
 21 46  1  0
 22 47  1  0
 28 48  1  0
 28 49  1  0
 29 50  1  0
 29 51  1  0
 31 52  1  0
 31 53  1  0
 32 54  1  0
 32 55  1  0
 33 56  1  0
 34 57  1  0
M  CHG  2   3  -1   8  -1
M  END
>  <UniqueID>  (4) 
4

>  <SMILES>  (4) 
O=C([N-]c1ccc([O-])c(S(=O)(=O)N2CCOCC2)c1)c1ccc(S(=O)(=O)N2CCOCC2)cc1

>  <Energy>  (4) 
87.8257775483953

>  <Genealogy>  (4) 
O=C([N-]c1ccc([O-])c(S(=O)(=O)N2CCOCC2)c1)c1ccc(S(=O)(=O)N2CCOCC2)cc1 (protonated)
O=C([N-]c1ccc([O-])c(S(=O)(=O)N2CCOCC2)c1)c1ccc(S(=O)(=O)N2CCOCC2)cc1 (3D coordinates assigned)
O=C([N-]c1ccc([O-])c(S(=O)(=O)N2CCOCC2)c1)c1ccc(S(=O)(=O)N2CCOCC2)cc1 (nonaromatic ring conformer: 87.8257775483953 kcal/mol)

>  <smiles>  (4) 
O=C(Nc1ccc(O)c(S(=O)(=O)N2CCOCC2)c1)c1ccc(S(=O)(=O)N2CCOCC2)cc1

>  <score_type>  (4) 
oracle

>  <origin>  (4) 
adgpu

>  <m_score__min__energy>  (4) 
-13.300000000000001

>  <m_primary>  (4) 
energy

$$$$
4:0
     RDKit          3D

 62 65  0  0  0  0  0  0  0  0999 V2000
   -0.4430   21.0870  -28.9700 C   0  0  0  0  0  0  0  0  0  0  0  0
   -0.9910   22.4300  -28.8430 N   0  0  0  0  0  0  0  0  0  0  0  0
   -1.9100   23.0330  -29.7630 C   0  0  0  0  0  0  0  0  0  0  0  0
   -2.0870   24.2780  -29.7090 O   0  0  0  0  0  0  0  0  0  0  0  0
   -2.6200   22.2530  -30.7970 C   0  0  0  0  0  0  0  0  0  0  0  0
   -3.9760   21.9220  -30.6490 C   0  0  0  0  0  0  0  0  0  0  0  0
   -4.6400   21.2040  -31.6470 C   0  0  0  0  0  0  0  0  0  0  0  0
   -3.9640   20.8070  -32.8050 C   0  0  0  0  0  0  0  0  0  0  0  0
   -4.6690   20.0950  -33.7850 O   0  0  0  0  0  0  0  0  0  0  0  0
   -5.2210   18.8130  -33.6310 C   0  0  0  0  0  0  0  0  0  0  0  0
   -4.4540   17.6550  -33.8590 C   0  0  0  0  0  0  0  0  0  0  0  0
   -5.0300   16.3840  -33.7460 C   0  0  0  0  0  0  0  0  0  0  0  0
   -4.0600   14.9390  -34.0540 S   0  0  0  0  0  0  0  0  0  0  0  0
   -2.8190   15.3370  -34.8050 O   0  0  0  0  0  0  0  0  0  0  0  0
   -4.8500   13.9990  -34.9220 O   0  0  0  0  0  0  0  0  0  0  0  0
   -3.5660   14.0630  -32.5670 C   0  0  0  0  0  0  0  0  0  0  0  0
   -4.6190   14.0030  -31.4730 C   0  0  0  0  0  0  0  0  0  0  0  0
   -4.2990   12.7620  -32.2950 C   0  0  0  0  0  0  0  0  0  0  0  0
   -6.3800   16.2670  -33.3970 C   0  0  0  0  0  0  0  0  0  0  0  0
   -7.1400   17.4070  -33.1340 C   0  0  0  0  0  0  0  0  0  0  0  0
   -6.5640   18.6830  -33.2170 C   0  0  0  0  0  0  0  0  0  0  0  0
   -7.3790   19.8340  -32.9460 N   0  0  0  0  0  0  0  0  0  0  0  0
   -8.7440   19.7500  -32.5060 C   0  0  0  0  0  0  0  0  0  0  0  0
   -9.3450   18.6400  -32.5050 O   0  0  0  0  0  0  0  0  0  0  0  0
   -9.4470   20.9820  -32.0060 C   0  0  0  0  0  0  0  0  0  0  0  0
   -8.4690   22.0040  -31.4870 C   0  0  0  0  0  0  0  0  0  0  0  0
   -7.8690   22.9230  -32.3630 C   0  0  0  0  0  0  0  0  0  0  0  0
   -6.9400   23.8510  -31.8850 C   0  0  0  0  0  0  0  0  0  0  0  0
   -6.5950   23.8680  -30.5280 C   0  0  0  0  0  0  0  0  0  0  0  0
   -5.4090   25.0300  -29.9400 S   0  0  0  0  0  0  0  0  0  0  0  0
   -4.7020   24.4340  -28.4190 C   0  0  0  0  0  0  0  0  0  0  0  0
   -4.3230   25.2060  -30.9670 O   0  0  0  0  0  0  0  0  0  0  0  0
   -6.0660   26.3620  -29.6970 O   0  0  0  0  0  0  0  0  0  0  0  0
   -7.1780   22.9410  -29.6550 C   0  0  0  0  0  0  0  0  0  0  0  0
   -8.1080   22.0120  -30.1320 C   0  0  0  0  0  0  0  0  0  0  0  0
   -2.6180   21.1770  -32.9780 C   0  0  0  0  0  0  0  0  0  0  0  0
   -1.9530   21.8950  -31.9810 C   0  0  0  0  0  0  0  0  0  0  0  0
   -0.2708   20.6651  -27.9688 H   0  0  0  0  0  0  0  0  0  0  0  0
   -1.1537   20.4514  -29.5186 H   0  0  0  0  0  0  0  0  0  0  0  0
    0.5095   21.1300  -29.5186 H   0  0  0  0  0  0  0  0  0  0  0  0
   -4.5186   22.2294  -29.7429 H   0  0  0  0  0  0  0  0  0  0  0  0
   -5.7026   20.9491  -31.5208 H   0  0  0  0  0  0  0  0  0  0  0  0
   -3.3917   17.7496  -34.1286 H   0  0  0  0  0  0  0  0  0  0  0  0
   -2.5083   14.3608  -32.6186 H   0  0  0  0  0  0  0  0  0  0  0  0
   -4.3183   14.0558  -30.4162 H   0  0  0  0  0  0  0  0  0  0  0  0
   -5.5334   14.5685  -31.2405 H   0  0  0  0  0  0  0  0  0  0  0  0
   -3.7674   11.9175  -31.8320 H   0  0  0  0  0  0  0  0  0  0  0  0
   -4.8869   12.0585  -32.9028 H   0  0  0  0  0  0  0  0  0  0  0  0
   -6.8440   15.2719  -33.3297 H   0  0  0  0  0  0  0  0  0  0  0  0
   -8.2001   17.3041  -32.8592 H   0  0  0  0  0  0  0  0  0  0  0  0
   -7.0030   20.7740  -33.2100 H   0  0  0  0  0  0  0  0  0  0  0  0
  -10.0224   21.4252  -32.8321 H   0  0  0  0  0  0  0  0  0  0  0  0
  -10.1108   20.6888  -31.1793 H   0  0  0  0  0  0  0  0  0  0  0  0
   -8.1317   22.9123  -33.4311 H   0  0  0  0  0  0  0  0  0  0  0  0
   -6.4782   24.5706  -32.5771 H   0  0  0  0  0  0  0  0  0  0  0  0
   -5.2339   24.8824  -27.5669 H   0  0  0  0  0  0  0  0  0  0  0  0
   -4.7965   23.3389  -28.3751 H   0  0  0  0  0  0  0  0  0  0  0  0
   -3.6387   24.7123  -28.3751 H   0  0  0  0  0  0  0  0  0  0  0  0
   -6.9033   22.9437  -28.5899 H   0  0  0  0  0  0  0  0  0  0  0  0
   -8.5585   21.2841  -29.4411 H   0  0  0  0  0  0  0  0  0  0  0  0
   -2.0875   20.9002  -33.9010 H   0  0  0  0  0  0  0  0  0  0  0  0
   -0.9007   22.1819  -32.1237 H   0  0  0  0  0  0  0  0  0  0  0  0
  1  2  1  0
  2  3  1  0
  3  4  2  0
  3  5  1  0
  5  6  2  0
  6  7  1  0
  7  8  2  0
  8  9  1  0
  9 10  1  0
 10 11  2  0
 11 12  1  0
 12 13  1  0
 13 14  2  0
 13 15  2  0
 13 16  1  0
 16 17  1  0
 17 18  1  0
 12 19  2  0
 19 20  1  0
 20 21  2  0
 21 22  1  0
 22 23  1  0
 23 24  2  0
 23 25  1  0
 25 26  1  0
 26 27  2  0
 27 28  1  0
 28 29  2  0
 29 30  1  0
 30 31  1  0
 30 32  2  0
 30 33  2  0
 29 34  1  0
 34 35  2  0
  8 36  1  0
 36 37  2  0
 37  5  1  0
 21 10  1  0
 35 26  1  0
 18 16  1  0
  1 38  1  0
  1 39  1  0
  1 40  1  0
  6 41  1  0
  7 42  1  0
 11 43  1  0
 16 44  1  0
 17 45  1  0
 17 46  1  0
 18 47  1  0
 18 48  1  0
 19 49  1  0
 20 50  1  0
 22 51  1  0
 25 52  1  0
 25 53  1  0
 27 54  1  0
 28 55  1  0
 31 56  1  0
 31 57  1  0
 31 58  1  0
 34 59  1  0
 35 60  1  0
 36 61  1  0
 37 62  1  0
M  CHG  1   2  -1
M  END
>  <UniqueID>  (5) 
5

>  <SMILES>  (5) 
C[N-]C(=O)c1ccc(Oc2cc(S(=O)(=O)C3CC3)ccc2NC(=O)Cc2ccc(S(C)(=O)=O)cc2)cc1

>  <Energy>  (5) 
338.5724192077177

>  <Genealogy>  (5) 
C[N-]C(=O)c1ccc(Oc2cc(S(=O)(=O)C3CC3)ccc2NC(=O)Cc2ccc(S(C)(=O)=O)cc2)cc1 (protonated)
C[N-]C(=O)c1ccc(Oc2cc(S(=O)(=O)C3CC3)ccc2NC(=O)Cc2ccc(S(C)(=O)=O)cc2)cc1 (3D coordinates assigned)
C[N-]C(=O)c1ccc(Oc2cc(S(=O)(=O)C3CC3)ccc2NC(=O)Cc2ccc(S(C)(=O)=O)cc2)cc1 (nonaromatic ring conformer: 338.5724192077177 kcal/mol)

>  <smiles>  (5) 
CNC(=O)c1ccc(Oc2cc(S(=O)(=O)C3CC3)ccc2NC(=O)Cc2ccc(S(C)(=O)=O)cc2)cc1

>  <score_type>  (5) 
oracle

>  <origin>  (5) 
adgpu

>  <m_score__min__energy>  (5) 
-12.17

>  <m_primary>  (5) 
energy

$$$$
5:0
     RDKit          3D

 32 34  0  0  0  0  0  0  0  0999 V2000
   -6.7560   23.4960  -28.6400 H   0  0  0  0  0  0  0  0  0  0  0  0
   -6.1820   23.0480  -29.3870 N   0  0  0  0  0  0  0  0  0  0  0  0
   -5.2270   23.6930  -29.9760 C   0  0  0  0  0  0  0  0  0  0  0  0
   -4.3780   23.2210  -30.9450 C   0  0  0  0  0  0  0  0  0  0  0  0
   -4.3590   21.9140  -31.5430 N   0  0  0  0  0  0  0  0  0  0  0  0
   -3.2650   21.1610  -31.8070 C   0  0  0  0  0  0  0  0  0  0  0  0
   -1.8560   21.5890  -31.5360 C   0  0  0  0  0  0  0  0  0  0  0  0
   -1.6906   21.6393  -30.4497 H   0  0  0  0  0  0  0  0  0  0  0  0
   -1.1601   20.8617  -31.9796 H   0  0  0  0  0  0  0  0  0  0  0  0
   -1.6822   22.5805  -31.9796 H   0  0  0  0  0  0  0  0  0  0  0  0
   -3.5680   19.9590  -32.3410 N   0  0  0  0  0  0  0  0  0  0  0  0
   -4.9140   19.9610  -32.4200 C   0  0  0  0  0  0  0  0  0  0  0  0
   -5.7050   18.8230  -32.9830 C   0  0  0  0  0  0  0  0  0  0  0  0
   -6.1217   18.2236  -32.1602 H   0  0  0  0  0  0  0  0  0  0  0  0
   -6.5250   19.2169  -33.6014 H   0  0  0  0  0  0  0  0  0  0  0  0
   -5.0500   18.1917  -33.6014 H   0  0  0  0  0  0  0  0  0  0  0  0
   -5.4100   21.1560  -31.9250 C   0  0  0  0  0  0  0  0  0  0  0  0
   -6.8250   21.5860  -31.9370 C   0  0  0  0  0  0  0  0  0  0  0  0
   -7.1670   22.8940  -32.3200 C   0  0  0  0  0  0  0  0  0  0  0  0
   -6.3785   23.6041  -32.6098 H   0  0  0  0  0  0  0  0  0  0  0  0
   -8.5060   23.2960  -32.3340 C   0  0  0  0  0  0  0  0  0  0  0  0
   -8.7686   24.3209  -32.6352 H   0  0  0  0  0  0  0  0  0  0  0  0
   -9.5110   22.3980  -31.9660 C   0  0  0  0  0  0  0  0  0  0  0  0
  -10.5640   22.7158  -31.9793 H   0  0  0  0  0  0  0  0  0  0  0  0
   -9.1790   21.0960  -31.5810 C   0  0  0  0  0  0  0  0  0  0  0  0
   -9.9710   20.3901  -31.2903 H   0  0  0  0  0  0  0  0  0  0  0  0
   -7.8410   20.6900  -31.5650 C   0  0  0  0  0  0  0  0  0  0  0  0
   -7.5830   19.6651  -31.2600 H   0  0  0  0  0  0  0  0  0  0  0  0
   -3.4880   24.1980  -31.2140 N   0  0  0  0  0  0  0  0  0  0  0  0
   -3.8220   25.2000  -30.4420 O   0  0  0  0  0  0  0  0  0  0  0  0
   -4.8540   24.9480  -29.6870 N   0  0  0  0  0  0  0  0  0  0  0  0
   -5.2730   25.6000  -28.9880 H   0  0  0  0  0  0  0  0  0  0  0  0
  1  2  1  0
  2  3  2  0
  3  4  1  0
  4  5  1  0
  5  6  1  0
  6  7  1  0
  7  8  1  0
  7  9  1  0
  7 10  1  0
  6 11  2  0
 11 12  1  0
 12 13  1  0
 13 14  1  0
 13 15  1  0
 13 16  1  0
 12 17  2  0
 17 18  1  0
 18 19  2  0
 19 20  1  0
 19 21  1  0
 21 22  1  0
 21 23  2  0
 23 24  1  0
 23 25  1  0
 25 26  1  0
 25 27  2  0
 27 28  1  0
  4 29  2  0
 29 30  1  0
 30 31  1  0
 31 32  1  0
 31  3  1  0
 17  5  1  0
 27 18  1  0
M  END
>  <UniqueID>  (6) 
6

>  <SMILES>  (6) 
[H]/N=c1\[nH]onc1-n1c(C)nc(C)c1-c1ccccc1

>  <Energy>  (6) 
110.07974867227315

>  <Genealogy>  (6) 
[H]/N=c1\[nH]onc1-n1c(C)nc(C)c1-c1ccccc1 (cis-trans isomerization)
[H]/N=c1\[nH]onc1-n1c(C)nc(C)c1-c1ccccc1 (3D coordinates assigned)
[H]/N=c1\[nH]onc1-n1c(C)nc(C)c1-c1ccccc1 (optimized conformer: 110.07974867227315 kcal/mol)

>  <smiles>  (6) 
Cc1nc(C)n(-c2no[nH]c2=N)c1-c1ccccc1

>  <score_type>  (6) 
oracle

>  <origin>  (6) 
adgpu

>  <m_score__min__energy>  (6) 
-8.2300000000000004

>  <m_primary>  (6) 
energy

$$$$
6:0
     RDKit          3D

 39 40  0  0  0  0  0  0  0  0999 V2000
   -9.1330   22.2660  -31.9080 C   0  0  0  0  0  0  0  0  0  0  0  0
   -7.7900   22.5050  -32.3150 O   0  0  0  0  0  0  0  0  0  0  0  0
   -6.8400   23.2050  -31.5530 C   0  0  0  0  0  0  0  0  0  0  0  0
   -7.2130   24.2070  -30.6340 C   0  0  0  0  0  0  0  0  0  0  0  0
   -6.2390   24.8860  -29.8970 C   0  0  0  0  0  0  0  0  0  0  0  0
   -4.8890   24.5820  -30.0730 C   0  0  0  0  0  0  0  0  0  0  0  0
   -4.5080   23.5910  -30.9800 C   0  0  0  0  0  0  0  0  0  0  0  0
   -5.4790   22.8850  -31.7110 C   0  0  0  0  0  0  0  0  0  0  0  0
   -5.0890   21.8840  -32.6660 N   0  0  0  0  0  0  0  0  0  0  0  0
   -4.1020   20.8610  -32.4250 C   0  0  0  0  0  0  0  0  0  0  0  0
   -3.7380   20.4220  -30.8740 S   0  0  0  0  0  0  0  0  0  0  0  0
   -3.6670   20.0380  -33.5410 N   0  0  1  0  0  0  0  0  0  0  0  0
   -2.6110   19.1010  -33.1210 C   0  0  0  0  0  0  0  0  0  0  0  0
   -4.7970   19.3090  -34.1600 C   0  0  0  0  0  0  0  0  0  0  0  0
   -5.8260   18.9080  -33.1380 C   0  0  0  0  0  0  0  0  0  0  0  0
   -5.7160   17.9080  -32.1890 C   0  0  0  0  0  0  0  0  0  0  0  0
   -6.8860   17.7980  -31.5290 N   0  0  0  0  0  0  0  0  0  0  0  0
   -7.7220   18.6840  -32.0470 N   0  0  0  0  0  0  0  0  0  0  0  0
   -9.0860   18.8900  -31.5800 C   0  0  0  0  0  0  0  0  0  0  0  0
   -7.1150   19.3780  -33.0260 C   0  0  0  0  0  0  0  0  0  0  0  0
   -9.1870   22.2564  -30.8094 H   0  0  0  0  0  0  0  0  0  0  0  0
   -9.7823   23.0627  -32.3001 H   0  0  0  0  0  0  0  0  0  0  0  0
   -9.4675   21.2942  -32.3001 H   0  0  0  0  0  0  0  0  0  0  0  0
   -8.2757   24.4555  -30.4965 H   0  0  0  0  0  0  0  0  0  0  0  0
   -6.5375   25.6618  -29.1766 H   0  0  0  0  0  0  0  0  0  0  0  0
   -4.1241   25.1233  -29.4969 H   0  0  0  0  0  0  0  0  0  0  0  0
   -3.4418   23.3615  -31.1232 H   0  0  0  0  0  0  0  0  0  0  0  0
   -5.6040   21.8580  -33.5750 H   0  0  0  0  0  0  0  0  0  0  0  0
   -3.2390   20.6580  -34.2680 H   0  0  0  0  0  0  0  0  0  0  0  0
   -2.5693   19.0640  -32.0224 H   0  0  0  0  0  0  0  0  0  0  0  0
   -2.8336   18.0978  -33.5135 H   0  0  0  0  0  0  0  0  0  0  0  0
   -1.6414   19.4414  -33.5135 H   0  0  0  0  0  0  0  0  0  0  0  0
   -5.2729   19.9586  -34.9093 H   0  0  0  0  0  0  0  0  0  0  0  0
   -4.4015   18.3945  -34.6261 H   0  0  0  0  0  0  0  0  0  0  0  0
   -4.8182   17.3003  -32.0028 H   0  0  0  0  0  0  0  0  0  0  0  0
   -9.1006   18.8922  -30.4801 H   0  0  0  0  0  0  0  0  0  0  0  0
   -9.4597   19.8548  -31.9536 H   0  0  0  0  0  0  0  0  0  0  0  0
   -9.7279   18.0786  -31.9536 H   0  0  0  0  0  0  0  0  0  0  0  0
   -7.5677   20.1784  -33.6296 H   0  0  0  0  0  0  0  0  0  0  0  0
  1  2  1  0
  2  3  1  0
  3  4  2  0
  4  5  1  0
  5  6  2  0
  6  7  1  0
  7  8  2  0
  8  9  1  0
  9 10  1  0
 10 11  2  0
 10 12  1  0
 12 13  1  0
 12 14  1  0
 14 15  1  0
 15 16  1  0
 16 17  2  0
 17 18  1  0
 18 19  1  0
 18 20  1  0
  8  3  1  0
 20 15  2  0
  1 21  1  0
  1 22  1  0
  1 23  1  0
  4 24  1  0
  5 25  1  0
  6 26  1  0
  7 27  1  0
  9 28  1  0
 12 29  1  6
 13 30  1  0
 13 31  1  0
 13 32  1  0
 14 33  1  0
 14 34  1  0
 16 35  1  0
 19 36  1  0
 19 37  1  0
 19 38  1  0
 20 39  1  0
M  CHG  1  12   1
M  END
>  <UniqueID>  (7) 
7

>  <SMILES>  (7) 
COc1ccccc1NC(=S)[N@@H+](C)Cc1cnn(C)c1

>  <Energy>  (7) 
72.3443336629613

>  <Genealogy>  (7) 
COc1ccccc1NC(=S)[NH+](C)Cc1cnn(C)c1 (protonated)
COc1ccccc1NC(=S)[N@@H+](C)Cc1cnn(C)c1 (chirality)
COc1ccccc1NC(=S)[N@@H+](C)Cc1cnn(C)c1 (3D coordinates assigned)
COc1ccccc1NC(=S)[N@@H+](C)Cc1cnn(C)c1 (optimized conformer: 72.3443336629613 kcal/mol)

>  <smiles>  (7) 
COc1ccccc1NC(=S)N(C)Cc1cnn(C)c1

>  <score_type>  (7) 
oracle

>  <origin>  (7) 
adgpu

>  <m_score__min__energy>  (7) 
-6.2699999999999996

>  <m_primary>  (7) 
energy

$$$$
7:0
     RDKit          3D

 25 26  0  0  0  0  0  0  0  0999 V2000
   -1.8570   25.6810  -29.7990 H   0  0  0  0  0  0  0  0  0  0  0  0
   -2.4580   24.9190  -29.4140 N   0  0  0  0  0  0  0  0  0  0  0  0
   -3.6550   24.7180  -29.8630 C   0  0  0  0  0  0  0  0  0  0  0  0
   -4.2200   25.4550  -30.8380 N   0  0  0  0  0  0  0  0  0  0  0  0
   -5.4400   24.9760  -31.0270 N   0  0  0  0  0  0  0  0  0  0  0  0
   -6.1160   25.3540  -31.7270 H   0  0  0  0  0  0  0  0  0  0  0  0
   -5.6610   23.9430  -30.1910 C   0  0  0  0  0  0  0  0  0  0  0  0
   -6.8760   23.2420  -30.1710 O   0  0  0  0  0  0  0  0  0  0  0  0
   -7.7560   23.0710  -31.2830 C   0  0  0  0  0  0  0  0  0  0  0  0
   -8.7648   23.4010  -30.9944 H   0  0  0  0  0  0  0  0  0  0  0  0
   -7.3725   23.6706  -32.1217 H   0  0  0  0  0  0  0  0  0  0  0  0
   -7.8190   21.6300  -31.7220 C   0  0  0  0  0  0  0  0  0  0  0  0
   -8.9990   20.8910  -31.5390 C   0  0  0  0  0  0  0  0  0  0  0  0
   -9.8665   21.3576  -31.0493 H   0  0  0  0  0  0  0  0  0  0  0  0
   -9.0770   19.5650  -31.9760 C   0  0  0  0  0  0  0  0  0  0  0  0
   -9.9992   18.9872  -31.8157 H   0  0  0  0  0  0  0  0  0  0  0  0
   -7.9850   18.9730  -32.6160 C   0  0  0  0  0  0  0  0  0  0  0  0
   -8.0447   17.9273  -32.9520 H   0  0  0  0  0  0  0  0  0  0  0  0
   -6.8170   19.7100  -32.8290 C   0  0  0  0  0  0  0  0  0  0  0  0
   -5.9606   19.2461  -33.3403 H   0  0  0  0  0  0  0  0  0  0  0  0
   -6.7350   21.0370  -32.3930 C   0  0  0  0  0  0  0  0  0  0  0  0
   -5.8193   21.6184  -32.5758 H   0  0  0  0  0  0  0  0  0  0  0  0
   -4.5230   23.7450  -29.4180 C   0  0  0  0  0  0  0  0  0  0  0  0
   -4.2870   22.8060  -28.3530 C   0  0  0  0  0  0  0  0  0  0  0  0
   -4.0890   22.0550  -27.4930 N   0  0  0  0  0  0  0  0  0  0  0  0
  1  2  1  0
  2  3  2  0
  3  4  1  0
  4  5  1  0
  5  6  1  0
  5  7  1  0
  7  8  1  0
  8  9  1  0
  9 10  1  0
  9 11  1  0
  9 12  1  0
 12 13  2  0
 13 14  1  0
 13 15  1  0
 15 16  1  0
 15 17  2  0
 17 18  1  0
 17 19  1  0
 19 20  1  0
 19 21  2  0
 21 22  1  0
  7 23  2  0
 23 24  1  0
 24 25  3  0
 23  3  1  0
 21 12  1  0
M  CHG  1   4  -1
M  END
>  <UniqueID>  (8) 
8

>  <SMILES>  (8) 
[H]/N=c1\[n-][nH]c(OCc2ccccc2)c1C#N

>  <Energy>  (8) 
58.08664462724862

>  <Genealogy>  (8) 
N#Cc1c(OCc2ccccc2)[nH][n-]c1=N (protonated)
[H]/N=c1\[n-][nH]c(OCc2ccccc2)c1C#N (cis-trans isomerization)
[H]/N=c1\[n-][nH]c(OCc2ccccc2)c1C#N (3D coordinates assigned)
[H]/N=c1\[n-][nH]c(OCc2ccccc2)c1C#N (optimized conformer: 58.08664462724862 kcal/mol)

>  <smiles>  (8) 
N#Cc1c(OCc2ccccc2)[nH][nH]c1=N

>  <score_type>  (8) 
oracle

>  <origin>  (8) 
adgpu

>  <m_score__min__energy>  (8) 
-8.4499999999999993

>  <m_primary>  (8) 
energy

$$$$
8:0
     RDKit          3D

 53 57  0  0  0  0  0  0  0  0999 V2000
   -1.8500   22.8520  -30.7960 O   0  0  0  0  0  0  0  0  0  0  0  0
   -3.0050   22.2530  -30.0430 S   0  0  0  0  0  0  0  0  0  0  0  0
   -3.0540   20.7830  -30.3480 O   0  0  0  0  0  0  0  0  0  0  0  0
   -2.7550   22.4810  -28.3420 N   0  0  0  0  0  0  0  0  0  0  0  0
   -1.5740   23.0420  -27.7470 C   0  0  0  0  0  0  0  0  0  0  0  0
   -1.6440   24.0970  -26.8120 C   0  0  0  0  0  0  0  0  0  0  0  0
   -0.4660   24.5470  -26.2220 C   0  0  0  0  0  0  0  0  0  0  0  0
    0.7610   23.9960  -26.5300 C   0  0  0  0  0  0  0  0  0  0  0  0
    0.8630   22.9710  -27.4720 C   0  0  0  0  0  0  0  0  0  0  0  0
   -0.3130   22.4940  -28.0890 C   0  0  0  0  0  0  0  0  0  0  0  0
   -0.2400   21.4750  -29.0380 O   0  0  0  0  0  0  0  0  0  0  0  0
    1.8630   24.6190  -25.7180 C   0  0  0  0  0  0  0  0  0  0  0  0
    1.0790   25.5920  -24.8840 C   0  0  0  0  0  0  0  0  0  0  0  0
    1.5520   26.4260  -23.8680 C   0  0  0  0  0  0  0  0  0  0  0  0
    0.6300   27.2230  -23.1660 C   0  0  0  0  0  0  0  0  0  0  0  0
   -0.7430   27.1700  -23.4840 C   0  0  0  0  0  0  0  0  0  0  0  0
   -1.2040   26.3210  -24.5040 C   0  0  0  0  0  0  0  0  0  0  0  0
   -0.2680   25.5450  -25.1920 C   0  0  0  0  0  0  0  0  0  0  0  0
   -4.4910   23.0830  -30.5230 C   0  0  0  0  0  0  0  0  0  0  0  0
   -5.6290   22.3020  -30.7770 C   0  0  0  0  0  0  0  0  0  0  0  0
   -6.8250   22.8970  -31.1960 C   0  0  0  0  0  0  0  0  0  0  0  0
   -8.2500   21.9000  -31.4840 S   0  0  0  0  0  0  0  0  0  0  0  0
   -9.2980   22.7040  -32.2030 O   0  0  0  0  0  0  0  0  0  0  0  0
   -8.7940   21.4500  -30.1590 O   0  0  0  0  0  0  0  0  0  0  0  0
   -7.8120   20.5000  -32.4350 N   0  0  0  0  0  0  0  0  0  0  0  0
   -7.6360   19.3130  -31.5980 C   0  0  0  0  0  0  0  0  0  0  0  0
   -6.6630   18.4060  -32.3390 C   0  0  0  0  0  0  0  0  0  0  0  0
   -5.9390   19.3120  -33.3240 C   0  0  0  0  0  0  0  0  0  0  0  0
   -6.5270   20.6970  -33.1070 C   0  0  0  0  0  0  0  0  0  0  0  0
   -6.8830   24.2890  -31.3560 C   0  0  0  0  0  0  0  0  0  0  0  0
   -5.7560   25.0770  -31.0960 C   0  0  0  0  0  0  0  0  0  0  0  0
   -4.5610   24.4830  -30.6740 C   0  0  0  0  0  0  0  0  0  0  0  0
   -3.4600   25.2920  -30.4090 O   0  0  0  0  0  0  0  0  0  0  0  0
   -2.6105   24.5548  -26.5545 H   0  0  0  0  0  0  0  0  0  0  0  0
    1.8430   22.5426  -27.7289 H   0  0  0  0  0  0  0  0  0  0  0  0
   -1.0360   21.2260  -29.6150 H   0  0  0  0  0  0  0  0  0  0  0  0
    2.3779   23.8735  -25.0942 H   0  0  0  0  0  0  0  0  0  0  0  0
    2.6680   25.0737  -26.3140 H   0  0  0  0  0  0  0  0  0  0  0  0
    2.6237   26.4587  -23.6221 H   0  0  0  0  0  0  0  0  0  0  0  0
    0.9813   27.8906  -22.3654 H   0  0  0  0  0  0  0  0  0  0  0  0
   -1.4571   27.7971  -22.9301 H   0  0  0  0  0  0  0  0  0  0  0  0
   -2.2739   26.2686  -24.7543 H   0  0  0  0  0  0  0  0  0  0  0  0
   -5.5808   21.2110  -30.6455 H   0  0  0  0  0  0  0  0  0  0  0  0
   -7.2223   19.5957  -30.6188 H   0  0  0  0  0  0  0  0  0  0  0  0
   -8.5954   18.8062  -31.4173 H   0  0  0  0  0  0  0  0  0  0  0  0
   -5.9486   17.9519  -31.6366 H   0  0  0  0  0  0  0  0  0  0  0  0
   -7.1800   17.5786  -32.8470 H   0  0  0  0  0  0  0  0  0  0  0  0
   -4.8582   19.3166  -33.1197 H   0  0  0  0  0  0  0  0  0  0  0  0
   -6.0667   18.9718  -34.3622 H   0  0  0  0  0  0  0  0  0  0  0  0
   -5.8568   21.3003  -32.4770 H   0  0  0  0  0  0  0  0  0  0  0  0
   -6.6535   21.2303  -34.0607 H   0  0  0  0  0  0  0  0  0  0  0  0
   -7.8184   24.7636  -31.6873 H   0  0  0  0  0  0  0  0  0  0  0  0
   -5.8096   26.1682  -31.2239 H   0  0  0  0  0  0  0  0  0  0  0  0
  1  2  2  0
  2  3  2  0
  2  4  1  0
  4  5  1  0
  5  6  2  0
  6  7  1  0
  7  8  2  0
  8  9  1  0
  9 10  2  0
 10 11  1  0
  8 12  1  0
 12 13  1  0
 13 14  2  0
 14 15  1  0
 15 16  2  0
 16 17  1  0
 17 18  2  0
  2 19  1  0
 19 20  2  0
 20 21  1  0
 21 22  1  0
 22 23  2  0
 22 24  2  0
 22 25  1  0
 25 26  1  0
 26 27  1  0
 27 28  1  0
 28 29  1  0
 21 30  2  0
 30 31  1  0
 31 32  2  0
 32 33  1  0
 10  5  1  0
 18 13  1  0
 32 19  1  0
 18  7  1  0
 29 25  1  0
  6 34  1  0
  9 35  1  0
 11 36  1  0
 12 37  1  0
 12 38  1  0
 14 39  1  0
 15 40  1  0
 16 41  1  0
 17 42  1  0
 20 43  1  0
 26 44  1  0
 26 45  1  0
 27 46  1  0
 27 47  1  0
 28 48  1  0
 28 49  1  0
 29 50  1  0
 29 51  1  0
 30 52  1  0
 31 53  1  0
M  CHG  2   4  -1  33  -1
M  END
>  <UniqueID>  (9) 
9

>  <SMILES>  (9) 
O=S(=O)([N-]c1cc2c(cc1O)Cc1ccccc1-2)c1cc(S(=O)(=O)N2CCCC2)ccc1[O-]

>  <Energy>  (9) 
85.2133935880547

>  <Genealogy>  (9) 
O=S(=O)([N-]c1cc2c(cc1O)Cc1ccccc1-2)c1cc(S(=O)(=O)N2CCCC2)ccc1[O-] (protonated)
O=S(=O)([N-]c1cc2c(cc1O)Cc1ccccc1-2)c1cc(S(=O)(=O)N2CCCC2)ccc1[O-] (3D coordinates assigned)
O=S(=O)([N-]c1cc2c(cc1O)Cc1ccccc1-2)c1cc(S(=O)(=O)N2CCCC2)ccc1[O-] (nonaromatic ring conformer: 85.2133935880547 kcal/mol)

>  <smiles>  (9) 
O=S(=O)(Nc1cc2c(cc1O)Cc1ccccc1-2)c1cc(S(=O)(=O)N2CCCC2)ccc1O

>  <score_type>  (9) 
oracle

>  <origin>  (9) 
adgpu

>  <m_score__min__energy>  (9) 
-14.44

>  <m_primary>  (9) 
energy

$$$$
9:0
     RDKit          3D

 57 60  0  0  0  0  0  0  0  0999 V2000
   -1.5920   27.4530  -29.3230 H   0  0  0  0  0  0  0  0  0  0  0  0
   -0.9840   27.0450  -28.6230 O   0  0  0  0  0  0  0  0  0  0  0  0
   -0.8570   25.6660  -28.4660 C   0  0  0  0  0  0  0  0  0  0  0  0
    0.2290   25.1580  -27.7430 C   0  0  0  0  0  0  0  0  0  0  0  0
    0.9690   25.8471  -27.3100 H   0  0  0  0  0  0  0  0  0  0  0  0
    0.3770   23.7790  -27.5690 C   0  0  0  0  0  0  0  0  0  0  0  0
    1.2370   23.3872  -27.0060 H   0  0  0  0  0  0  0  0  0  0  0  0
   -0.5660   22.8930  -28.1090 C   0  0  0  0  0  0  0  0  0  0  0  0
   -0.4160   21.4360  -27.9370 C   0  0  0  0  0  0  0  0  0  0  0  0
   -1.4300   20.7490  -27.6470 O   0  0  0  0  0  0  0  0  0  0  0  0
    0.8510   20.7780  -28.0630 N   0  0  0  0  0  0  0  0  0  0  0  0
    1.1020   19.3510  -27.8610 C   0  0  0  0  0  0  0  0  0  0  0  0
    2.1880   19.1830  -27.8120 H   0  0  0  0  0  0  0  0  0  0  0  0
    0.6144   19.0453  -26.9236 H   0  0  0  0  0  0  0  0  0  0  0  0
    0.5190   18.5080  -29.0020 C   0  0  0  0  0  0  0  0  0  0  0  0
    1.0686   17.5570  -29.0613 H   0  0  0  0  0  0  0  0  0  0  0  0
   -0.5462   18.3307  -28.7922 H   0  0  0  0  0  0  0  0  0  0  0  0
    0.6290   19.2180  -30.3180 C   0  0  0  0  0  0  0  0  0  0  0  0
   -0.4230   19.8900  -30.8560 N   0  0  0  0  0  0  0  0  0  0  0  0
   -0.1130   20.4100  -32.0630 C   0  0  0  0  0  0  0  0  0  0  0  0
   -0.9210   21.1330  -32.7800 N   0  0  0  0  0  0  0  0  0  0  0  0
   -2.2960   21.4320  -32.4840 C   0  0  0  0  0  0  0  0  0  0  0  0
   -2.6860   22.0580  -31.2850 C   0  0  0  0  0  0  0  0  0  0  0  0
   -1.9244   22.3508  -30.5472 H   0  0  0  0  0  0  0  0  0  0  0  0
   -4.0360   22.3090  -31.0280 C   0  0  0  0  0  0  0  0  0  0  0  0
   -4.3308   22.8160  -30.0974 H   0  0  0  0  0  0  0  0  0  0  0  0
   -5.0170   21.9180  -31.9500 C   0  0  0  0  0  0  0  0  0  0  0  0
   -6.7230   22.2230  -31.6200 S   0  0  0  0  0  0  0  0  0  0  0  0
   -7.2840   23.1050  -32.7020 O   0  0  0  0  0  0  0  0  0  0  0  0
   -6.8530   22.9540  -30.3120 O   0  0  0  0  0  0  0  0  0  0  0  0
   -7.6420   20.7390  -31.5530 N   0  0  0  0  0  0  0  0  0  0  0  0
   -8.5720   20.6600  -32.6910 C   0  0  0  0  0  0  0  0  0  0  0  0
   -9.1407   21.5990  -32.7608 H   0  0  0  0  0  0  0  0  0  0  0  0
   -7.9953   20.4992  -33.6138 H   0  0  0  0  0  0  0  0  0  0  0  0
   -9.5510   19.4860  -32.5010 C   0  0  0  0  0  0  0  0  0  0  0  0
  -10.4873   19.8730  -32.0725 H   0  0  0  0  0  0  0  0  0  0  0  0
   -9.7176   19.0262  -33.4863 H   0  0  0  0  0  0  0  0  0  0  0  0
   -8.9920   18.4000  -31.5660 C   0  0  0  0  0  0  0  0  0  0  0  0
   -9.1992   18.6821  -30.5232 H   0  0  0  0  0  0  0  0  0  0  0  0
   -9.4773   17.4438  -31.8111 H   0  0  0  0  0  0  0  0  0  0  0  0
   -7.4810   18.2400  -31.7500 C   0  0  0  0  0  0  0  0  0  0  0  0
   -7.1101   17.5018  -31.0237 H   0  0  0  0  0  0  0  0  0  0  0  0
   -7.2957   17.9071  -32.7819 H   0  0  0  0  0  0  0  0  0  0  0  0
   -6.7320   19.5740  -31.5340 C   0  0  0  0  0  0  0  0  0  0  0  0
   -6.2221   19.5395  -30.5599 H   0  0  0  0  0  0  0  0  0  0  0  0
   -6.0149   19.6942  -32.3594 H   0  0  0  0  0  0  0  0  0  0  0  0
   -4.6320   21.2650  -33.1280 C   0  0  0  0  0  0  0  0  0  0  0  0
   -5.3965   20.9466  -33.8520 H   0  0  0  0  0  0  0  0  0  0  0  0
   -3.2820   21.0160  -33.3880 C   0  0  0  0  0  0  0  0  0  0  0  0
   -2.9913   20.4896  -34.3091 H   0  0  0  0  0  0  0  0  0  0  0  0
    1.4700   20.0720  -32.5050 S   0  0  0  0  0  0  0  0  0  0  0  0
    1.7820   19.1990  -31.1010 C   0  0  0  0  0  0  0  0  0  0  0  0
    2.7291   18.7010  -30.8459 H   0  0  0  0  0  0  0  0  0  0  0  0
   -1.6440   23.4010  -28.8500 C   0  0  0  0  0  0  0  0  0  0  0  0
   -2.3738   22.7102  -29.2975 H   0  0  0  0  0  0  0  0  0  0  0  0
   -1.7960   24.7820  -29.0230 C   0  0  0  0  0  0  0  0  0  0  0  0
   -2.8790   25.2660  -29.7480 O   0  0  0  0  0  0  0  0  0  0  0  0
  1  2  1  0
  2  3  1  0
  3  4  2  0
  4  5  1  0
  4  6  1  0
  6  7  1  0
  6  8  2  0
  8  9  1  0
  9 10  2  0
  9 11  1  0
 11 12  1  0
 12 13  1  0
 12 14  1  0
 12 15  1  0
 15 16  1  0
 15 17  1  0
 15 18  1  0
 18 19  1  0
 19 20  1  0
 20 21  2  0
 21 22  1  0
 22 23  2  0
 23 24  1  0
 23 25  1  0
 25 26  1  0
 25 27  2  0
 27 28  1  0
 28 29  2  0
 28 30  2  0
 28 31  1  0
 31 32  1  0
 32 33  1  0
 32 34  1  0
 32 35  1  0
 35 36  1  0
 35 37  1  0
 35 38  1  0
 38 39  1  0
 38 40  1  0
 38 41  1  0
 41 42  1  0
 41 43  1  0
 41 44  1  0
 44 45  1  0
 44 46  1  0
 27 47  1  0
 47 48  1  0
 47 49  2  0
 49 50  1  0
 20 51  1  0
 51 52  1  0
 52 53  1  0
  8 54  1  0
 54 55  1  0
 54 56  2  0
 56 57  1  0
 56  3  1  0
 52 18  2  0
 49 22  1  0
 44 31  1  0
M  CHG  3  11  -1  19  -1  57  -1
M  END
>  <UniqueID>  (10) 
10

>  <SMILES>  (10) 
O=C([N-]CCc1cs/c(=N/c2ccc(S(=O)(=O)N3CCCCC3)cc2)[n-]1)c1ccc(O)c([O-])c1

>  <Energy>  (10) 
98.65015377540149

>  <Genealogy>  (10) 
O=C([N-]CCc1csc(=Nc2ccc(S(=O)(=O)N3CCCCC3)cc2)[n-]1)c1ccc(O)c([O-])c1 (protonated)
O=C([N-]CCc1cs/c(=N/c2ccc(S(=O)(=O)N3CCCCC3)cc2)[n-]1)c1ccc(O)c([O-])c1 (cis-trans isomerization)
O=C([N-]CCc1cs/c(=N/c2ccc(S(=O)(=O)N3CCCCC3)cc2)[n-]1)c1ccc(O)c([O-])c1 (3D coordinates assigned)
O=C([N-]CCc1cs/c(=N/c2ccc(S(=O)(=O)N3CCCCC3)cc2)[n-]1)c1ccc(O)c([O-])c1 (nonaromatic ring conformer: 98.65015377540149 kcal/mol)

>  <smiles>  (10) 
O=C(NCCc1csc(=Nc2ccc(S(=O)(=O)N3CCCCC3)cc2)[nH]1)c1ccc(O)c(O)c1

>  <score_type>  (10) 
oracle

>  <origin>  (10) 
adgpu

>  <m_score__min__energy>  (10) 
-13.66

>  <m_primary>  (10) 
energy

$$$$
10:0
     RDKit          3D

 55 59  0  0  0  0  0  0  0  0999 V2000
    1.7520   21.1190  -27.4790 H   0  0  0  0  0  0  0  0  0  0  0  0
    0.7810   21.1910  -27.2130 O   0  0  0  0  0  0  0  0  0  0  0  0
   -0.0930   22.1610  -27.7100 C   0  0  0  0  0  0  0  0  0  0  0  0
   -1.3850   21.7500  -28.0500 C   0  0  0  0  0  0  0  0  0  0  0  0
   -1.6661   20.6923  -27.9390 H   0  0  0  0  0  0  0  0  0  0  0  0
   -2.3210   22.6650  -28.5280 C   0  0  0  0  0  0  0  0  0  0  0  0
   -3.3344   22.3257  -28.7884 H   0  0  0  0  0  0  0  0  0  0  0  0
   -1.9790   24.0100  -28.6780 C   0  0  0  0  0  0  0  0  0  0  0  0
   -2.9760   24.9200  -29.1700 N   0  0  0  0  0  0  0  0  0  0  0  0
   -3.9220   24.6170  -30.0090 C   0  0  0  0  0  0  0  0  0  0  0  0
   -4.0850   23.3400  -30.4510 N   0  0  0  0  0  0  0  0  0  0  0  0
   -5.0750   22.9980  -31.3190 C   0  0  0  0  0  0  0  0  0  0  0  0
   -5.1830   21.5860  -31.7730 C   0  0  0  0  0  0  0  0  0  0  0  0
   -4.0720   20.9580  -32.3610 C   0  0  0  0  0  0  0  0  0  0  0  0
   -3.1267   21.5107  -32.4655 H   0  0  0  0  0  0  0  0  0  0  0  0
   -4.1550   19.6400  -32.8140 C   0  0  0  0  0  0  0  0  0  0  0  0
   -3.2749   19.1629  -33.2699 H   0  0  0  0  0  0  0  0  0  0  0  0
   -5.3520   18.9200  -32.6920 C   0  0  0  0  0  0  0  0  0  0  0  0
   -5.4110   17.5620  -33.1580 N   0  0  0  0  0  0  0  0  0  0  0  0
   -5.0630   17.1700  -34.5120 C   0  0  0  0  0  0  0  0  0  0  0  0
   -5.7312   17.6571  -35.2374 H   0  0  0  0  0  0  0  0  0  0  0  0
   -4.0367   17.4677  -34.7731 H   0  0  0  0  0  0  0  0  0  0  0  0
   -5.2420   15.6600  -34.5540 C   0  0  0  0  0  0  0  0  0  0  0  0
   -6.2004   15.4004  -35.0274 H   0  0  0  0  0  0  0  0  0  0  0  0
   -4.4495   15.1735  -35.1416 H   0  0  0  0  0  0  0  0  0  0  0  0
   -5.2260   15.2010  -33.0970 C   0  0  0  0  0  0  0  0  0  0  0  0
   -5.9589   14.3957  -32.9410 H   0  0  0  0  0  0  0  0  0  0  0  0
   -4.2418   14.8035  -32.8084 H   0  0  0  0  0  0  0  0  0  0  0  0
   -5.6000   16.4260  -32.2720 C   0  0  0  0  0  0  0  0  0  0  0  0
   -6.6483   16.3638  -31.9446 H   0  0  0  0  0  0  0  0  0  0  0  0
   -4.9855   16.5098  -31.3635 H   0  0  0  0  0  0  0  0  0  0  0  0
   -6.4780   19.5450  -32.1210 C   0  0  0  0  0  0  0  0  0  0  0  0
   -7.7480   18.8660  -32.0440 C   0  0  0  0  0  0  0  0  0  0  0  0
   -8.7680   18.3240  -31.9830 N   0  0  0  0  0  0  0  0  0  0  0  0
   -6.3900   20.8690  -31.6700 C   0  0  0  0  0  0  0  0  0  0  0  0
   -7.2743   21.3535  -31.2304 H   0  0  0  0  0  0  0  0  0  0  0  0
   -5.9680   23.9930  -31.7480 C   0  0  0  0  0  0  0  0  0  0  0  0
   -6.7881   23.7499  -32.4396 H   0  0  0  0  0  0  0  0  0  0  0  0
   -5.7950   25.2960  -31.2800 C   0  0  0  0  0  0  0  0  0  0  0  0
   -6.4812   26.0917  -31.6056 H   0  0  0  0  0  0  0  0  0  0  0  0
   -4.7820   25.5840  -30.4240 N   0  0  0  0  0  0  0  0  0  0  0  0
   -0.6950   24.4480  -28.2970 C   0  0  0  0  0  0  0  0  0  0  0  0
   -0.4060   25.8090  -28.3220 O   0  0  0  0  0  0  0  0  0  0  0  0
    0.2770   23.5210  -27.8590 C   0  0  0  0  0  0  0  0  0  0  0  0
    1.9270   24.0660  -27.4850 S   0  0  0  0  0  0  0  0  0  0  0  0
    2.8540   22.8850  -27.4570 O   0  0  0  0  0  0  0  0  0  0  0  0
    2.4260   25.0130  -28.5430 O   0  0  0  0  0  0  0  0  0  0  0  0
    1.9170   24.8620  -25.8780 C   0  0  0  0  0  0  0  0  0  0  0  0
    2.9345   25.2740  -25.9480 H   0  0  0  0  0  0  0  0  0  0  0  0
    0.5740   25.4100  -25.4260 C   0  0  0  0  0  0  0  0  0  0  0  0
    0.5298   26.3264  -24.8191 H   0  0  0  0  0  0  0  0  0  0  0  0
   -0.3582   25.7007  -25.9325 H   0  0  0  0  0  0  0  0  0  0  0  0
    1.1140   24.1230  -24.8220 C   0  0  0  0  0  0  0  0  0  0  0  0
    1.4603   24.1083  -23.7780 H   0  0  0  0  0  0  0  0  0  0  0  0
    0.7341   23.0967  -24.7104 H   0  0  0  0  0  0  0  0  0  0  0  0
  1  2  1  0
  2  3  1  0
  3  4  2  0
  4  5  1  0
  4  6  1  0
  6  7  1  0
  6  8  2  0
  8  9  1  0
  9 10  2  0
 10 11  1  0
 11 12  2  0
 12 13  1  0
 13 14  2  0
 14 15  1  0
 14 16  1  0
 16 17  1  0
 16 18  2  0
 18 19  1  0
 19 20  1  0
 20 21  1  0
 20 22  1  0
 20 23  1  0
 23 24  1  0
 23 25  1  0
 23 26  1  0
 26 27  1  0
 26 28  1  0
 26 29  1  0
 29 30  1  0
 29 31  1  0
 18 32  1  0
 32 33  1  0
 33 34  3  0
 32 35  2  0
 35 36  1  0
 12 37  1  0
 37 38  1  0
 37 39  2  0
 39 40  1  0
 39 41  1  0
  8 42  1  0
 42 43  1  0
 42 44  2  0
 44 45  1  0
 45 46  2  0
 45 47  2  0
 45 48  1  0
 48 49  1  0
 48 50  1  0
 50 51  1  0
 50 52  1  0
 50 53  1  0
 53 54  1  0
 53 55  1  0
 44  3  1  0
 53 48  1  0
 41 10  1  0
 35 13  1  0
 29 19  1  0
M  CHG  2  41  -1  43  -1
M  END
>  <UniqueID>  (11) 
11

>  <SMILES>  (11) 
N#Cc1cc(-c2cc[n-]/c(=N/c3ccc(O)c(S(=O)(=O)C4CC4)c3[O-])n2)ccc1N1CCCC1

>  <Energy>  (11) 
343.1459686928213

>  <Genealogy>  (11) 
N#Cc1cc(-c2cc[n-]c(=Nc3ccc(O)c(S(=O)(=O)C4CC4)c3[O-])n2)ccc1N1CCCC1 (protonated)
N#Cc1cc(-c2cc[n-]/c(=N/c3ccc(O)c(S(=O)(=O)C4CC4)c3[O-])n2)ccc1N1CCCC1 (cis-trans isomerization)
N#Cc1cc(-c2cc[n-]/c(=N/c3ccc(O)c(S(=O)(=O)C4CC4)c3[O-])n2)ccc1N1CCCC1 (3D coordinates assigned)
N#Cc1cc(-c2cc[n-]/c(=N/c3ccc(O)c(S(=O)(=O)C4CC4)c3[O-])n2)ccc1N1CCCC1 (nonaromatic ring conformer: 343.1459686928213 kcal/mol)

>  <smiles>  (11) 
N#Cc1cc(-c2cc[nH]c(=Nc3ccc(O)c(S(=O)(=O)C4CC4)c3O)n2)ccc1N1CCCC1

>  <score_type>  (11) 
oracle

>  <origin>  (11) 
adgpu

>  <m_score__min__energy>  (11) 
-12.869999999999999

>  <m_primary>  (11) 
energy

$$$$
11:0
     RDKit          3D

 43 45  0  0  0  0  0  0  0  0999 V2000
   -8.1000   18.4260  -32.1890 C   0  0  0  0  0  0  0  0  0  0  0  0
   -7.0500   19.3620  -32.7790 C   0  0  0  0  0  0  0  0  0  0  0  0
   -7.2890   20.7790  -32.3340 C   0  0  0  0  0  0  0  0  0  0  0  0
   -8.5830   21.2030  -31.9940 C   0  0  0  0  0  0  0  0  0  0  0  0
   -8.8150   22.5330  -31.6330 C   0  0  0  0  0  0  0  0  0  0  0  0
   -7.7600   23.4470  -31.6090 C   0  0  0  0  0  0  0  0  0  0  0  0
   -6.4610   23.0390  -31.9330 C   0  0  0  0  0  0  0  0  0  0  0  0
   -5.4150   24.0200  -31.9360 N   0  0  0  0  0  0  0  0  0  0  0  0
   -5.1690   25.0180  -30.9340 C   0  0  0  0  0  0  0  0  0  0  0  0
   -6.1100   25.7250  -30.4890 O   0  0  0  0  0  0  0  0  0  0  0  0
   -3.8310   25.2810  -30.4990 N   0  0  0  0  0  0  0  0  0  0  0  0
   -3.0480   24.3810  -29.7020 C   0  0  0  0  0  0  0  0  0  0  0  0
   -3.3490   23.0200  -29.7420 C   0  0  0  0  0  0  0  0  0  0  0  0
   -2.6530   22.1220  -28.9360 C   0  0  0  0  0  0  0  0  0  0  0  0
   -1.6340   22.5650  -28.0890 C   0  0  0  0  0  0  0  0  0  0  0  0
   -1.0370   21.6230  -27.2490 O   0  0  0  0  0  0  0  0  0  0  0  0
   -1.2540   23.9320  -28.0990 C   0  0  0  0  0  0  0  0  0  0  0  0
    0.0800   24.5180  -27.0800 S   0  0  0  0  0  0  0  0  0  0  0  0
    0.5270   23.4290  -26.1460 O   0  0  0  0  0  0  0  0  0  0  0  0
    1.2640   24.9080  -27.9210 O   0  0  0  0  0  0  0  0  0  0  0  0
   -0.5120   25.9210  -26.1350 C   0  0  0  0  0  0  0  0  0  0  0  0
   -1.9530   25.8390  -25.6570 C   0  0  0  0  0  0  0  0  0  0  0  0
   -0.8110   25.6020  -24.6800 C   0  0  0  0  0  0  0  0  0  0  0  0
   -1.9740   24.8350  -28.9130 C   0  0  0  0  0  0  0  0  0  0  0  0
   -1.6140   26.1780  -28.9600 O   0  0  0  0  0  0  0  0  0  0  0  0
   -6.2330   21.7050  -32.3200 C   0  0  0  0  0  0  0  0  0  0  0  0
   -8.0530   18.4679  -31.0908 H   0  0  0  0  0  0  0  0  0  0  0  0
   -9.0998   18.7380  -32.5254 H   0  0  0  0  0  0  0  0  0  0  0  0
   -7.9045   17.3971  -32.5254 H   0  0  0  0  0  0  0  0  0  0  0  0
   -6.0523   19.0420  -32.4441 H   0  0  0  0  0  0  0  0  0  0  0  0
   -7.1164   19.3204  -33.8762 H   0  0  0  0  0  0  0  0  0  0  0  0
   -9.4172   20.4862  -32.0117 H   0  0  0  0  0  0  0  0  0  0  0  0
   -9.8310   22.8604  -31.3672 H   0  0  0  0  0  0  0  0  0  0  0  0
   -7.9509   24.4947  -31.3336 H   0  0  0  0  0  0  0  0  0  0  0  0
   -4.1398   22.6538  -30.4132 H   0  0  0  0  0  0  0  0  0  0  0  0
   -2.9084   21.0525  -28.9667 H   0  0  0  0  0  0  0  0  0  0  0  0
   -0.2950   21.8380  -26.6000 H   0  0  0  0  0  0  0  0  0  0  0  0
    0.0769   26.6780  -26.6736 H   0  0  0  0  0  0  0  0  0  0  0  0
   -2.5606   26.7529  -25.5819 H   0  0  0  0  0  0  0  0  0  0  0  0
   -2.8440   25.2722  -25.9649 H   0  0  0  0  0  0  0  0  0  0  0  0
   -0.5931   26.3444  -23.8981 H   0  0  0  0  0  0  0  0  0  0  0  0
   -0.5344   24.7925  -23.9885 H   0  0  0  0  0  0  0  0  0  0  0  0
   -5.2220   21.3859  -32.6132 H   0  0  0  0  0  0  0  0  0  0  0  0
  1  2  1  0
  2  3  1  0
  3  4  2  0
  4  5  1  0
  5  6  2  0
  6  7  1  0
  7  8  1  0
  8  9  1  0
  9 10  2  0
  9 11  1  0
 11 12  1  0
 12 13  2  0
 13 14  1  0
 14 15  2  0
 15 16  1  0
 15 17  1  0
 17 18  1  0
 18 19  2  0
 18 20  2  0
 18 21  1  0
 21 22  1  0
 22 23  1  0
 17 24  2  0
 24 25  1  0
  7 26  2  0
 26  3  1  0
 24 12  1  0
 23 21  1  0
  1 27  1  0
  1 28  1  0
  1 29  1  0
  2 30  1  0
  2 31  1  0
  4 32  1  0
  5 33  1  0
  6 34  1  0
 13 35  1  0
 14 36  1  0
 16 37  1  0
 21 38  1  0
 22 39  1  0
 22 40  1  0
 23 41  1  0
 23 42  1  0
 26 43  1  0
M  CHG  3   8  -1  11  -1  25  -1
M  END
>  <UniqueID>  (12) 
12

>  <SMILES>  (12) 
CCc1cccc([N-]C(=O)[N-]c2ccc(O)c(S(=O)(=O)C3CC3)c2[O-])c1

>  <Energy>  (12) 
315.54191496150963

>  <Genealogy>  (12) 
CCc1cccc([N-]C(=O)[N-]c2ccc(O)c(S(=O)(=O)C3CC3)c2[O-])c1 (protonated)
CCc1cccc([N-]C(=O)[N-]c2ccc(O)c(S(=O)(=O)C3CC3)c2[O-])c1 (3D coordinates assigned)
CCc1cccc([N-]C(=O)[N-]c2ccc(O)c(S(=O)(=O)C3CC3)c2[O-])c1 (nonaromatic ring conformer: 315.54191496150963 kcal/mol)

>  <smiles>  (12) 
CCc1cccc(NC(=O)Nc2ccc(O)c(S(=O)(=O)C3CC3)c2O)c1

>  <score_type>  (12) 
oracle

>  <origin>  (12) 
adgpu

>  <m_score__min__energy>  (12) 
-14.31

>  <m_primary>  (12) 
energy

$$$$
12:0
     RDKit          3D

 29 31  0  0  0  0  0  0  0  0999 V2000
    2.4260   23.1560  -36.8440 O   0  0  0  0  0  0  0  0  0  0  0  0
    1.6680   22.3810  -36.2060 C   0  0  0  0  0  0  0  0  0  0  0  0
    1.5650   21.0600  -36.5010 N   0  0  0  0  0  0  0  0  0  0  0  0
    0.6710   20.6390  -35.5950 C   0  0  0  0  0  0  0  0  0  0  0  0
    0.1760   19.3510  -35.4220 C   0  0  0  0  0  0  0  0  0  0  0  0
   -0.7650   19.1440  -34.3960 C   0  0  0  0  0  0  0  0  0  0  0  0
   -1.1880   20.2150  -33.5730 C   0  0  0  0  0  0  0  0  0  0  0  0
   -2.1560   19.9490  -32.5490 N   0  0  0  0  0  0  0  0  0  0  0  0
   -3.6210   20.8450  -32.3060 S   0  0  0  0  0  0  0  0  0  0  0  0
   -4.7290   19.8880  -31.9640 O   0  0  0  0  0  0  0  0  0  0  0  0
   -3.9710   21.5670  -33.5760 O   0  0  0  0  0  0  0  0  0  0  0  0
   -3.4000   22.0270  -31.0200 C   0  0  0  0  0  0  0  0  0  0  0  0
   -2.9090   21.6210  -29.7730 C   0  0  0  0  0  0  0  0  0  0  0  0
   -2.7440   22.5550  -28.7450 C   0  0  0  0  0  0  0  0  0  0  0  0
   -3.0620   23.9010  -28.9570 C   0  0  0  0  0  0  0  0  0  0  0  0
   -2.8890   24.8120  -27.9160 O   0  0  0  0  0  0  0  0  0  0  0  0
   -3.5490   24.3130  -30.2100 C   0  0  0  0  0  0  0  0  0  0  0  0
   -3.8690   25.6450  -30.4410 O   0  0  0  0  0  0  0  0  0  0  0  0
   -3.7150   23.3750  -31.2360 C   0  0  0  0  0  0  0  0  0  0  0  0
   -0.6550   21.5110  -33.7810 C   0  0  0  0  0  0  0  0  0  0  0  0
    0.2720   21.6760  -34.8070 C   0  0  0  0  0  0  0  0  0  0  0  0
    0.8950   22.8060  -35.1740 N   0  0  0  0  0  0  0  0  0  0  0  0
    0.5084   18.5226  -36.0648 H   0  0  0  0  0  0  0  0  0  0  0  0
   -1.1768   18.1373  -34.2317 H   0  0  0  0  0  0  0  0  0  0  0  0
   -2.6525   20.5652  -29.6015 H   0  0  0  0  0  0  0  0  0  0  0  0
   -2.3626   22.2300  -27.7657 H   0  0  0  0  0  0  0  0  0  0  0  0
   -3.4360   25.6630  -27.8490 H   0  0  0  0  0  0  0  0  0  0  0  0
   -4.0946   23.6980  -32.2166 H   0  0  0  0  0  0  0  0  0  0  0  0
   -0.9634   22.3594  -33.1525 H   0  0  0  0  0  0  0  0  0  0  0  0
  1  2  2  0
  2  3  1  0
  3  4  1  0
  4  5  2  0
  5  6  1  0
  6  7  2  0
  7  8  1  0
  8  9  1  0
  9 10  2  0
  9 11  2  0
  9 12  1  0
 12 13  2  0
 13 14  1  0
 14 15  2  0
 15 16  1  0
 15 17  1  0
 17 18  1  0
 17 19  2  0
  7 20  1  0
 20 21  2  0
 21 22  1  0
 22  2  1  0
 21  4  1  0
 19 12  1  0
  5 23  1  0
  6 24  1  0
 13 25  1  0
 14 26  1  0
 16 27  1  0
 19 28  1  0
 20 29  1  0
M  CHG  4   3  -1   8  -1  18  -1  22  -1
M  END
>  <UniqueID>  (13) 
13

>  <SMILES>  (13) 
O=c1[n-]c2ccc([N-]S(=O)(=O)c3ccc(O)c([O-])c3)cc2[n-]1

>  <Energy>  (13) 
70.24731033370821

>  <Genealogy>  (13) 
O=c1[n-]c2ccc([N-]S(=O)(=O)c3ccc(O)c([O-])c3)cc2[n-]1 (protonated)
O=c1[n-]c2ccc([N-]S(=O)(=O)c3ccc(O)c([O-])c3)cc2[n-]1 (3D coordinates assigned)
O=c1[n-]c2ccc([N-]S(=O)(=O)c3ccc(O)c([O-])c3)cc2[n-]1 (optimized conformer: 70.24731033370821 kcal/mol)

>  <smiles>  (13) 
O=c1[nH]c2ccc(NS(=O)(=O)c3ccc(O)c(O)c3)cc2[nH]1

>  <score_type>  (13) 
oracle

>  <origin>  (13) 
adgpu

>  <m_score__min__energy>  (13) 
-10.85

>  <m_primary>  (13) 
energy

$$$$
13:0
     RDKit          3D

 53 55  0  0  0  0  0  0  0  0999 V2000
   -3.2510   18.7560  -26.0040 C   0  0  0  0  0  0  0  0  0  0  0  0
   -2.3040   19.7680  -26.3350 O   0  0  0  0  0  0  0  0  0  0  0  0
   -2.0820   20.2610  -27.6320 C   0  0  0  0  0  0  0  0  0  0  0  0
   -2.6400   21.4750  -28.0660 C   0  0  0  0  0  0  0  0  0  0  0  0
   -2.4230   21.9400  -29.3710 C   0  0  0  0  0  0  0  0  0  0  0  0
   -3.0220   23.2190  -29.8380 C   0  0  0  0  0  0  0  0  0  0  0  0
   -2.3250   24.2700  -29.8290 O   0  0  0  0  0  0  0  0  0  0  0  0
   -4.4090   23.2910  -30.3510 C   0  0  0  0  0  0  0  0  0  0  0  0
   -5.1080   22.0950  -30.5870 C   0  0  0  0  0  0  0  0  0  0  0  0
   -6.4180   22.1120  -31.0910 C   0  0  0  0  0  0  0  0  0  0  0  0
   -7.1290   20.8790  -31.3200 N   0  0  0  0  0  0  0  0  0  0  0  0
   -6.4090   19.6830  -31.7720 C   0  0  0  0  0  0  0  0  0  0  0  0
   -7.3880   18.6380  -32.3280 C   0  0  0  0  0  0  0  0  0  0  0  0
   -8.4560   19.3000  -33.0890 N   0  0  0  0  0  0  0  0  0  0  0  0
   -9.3130   20.1550  -32.2390 C   0  0  0  0  0  0  0  0  0  0  0  0
   -8.5670   20.7780  -31.0410 C   0  0  0  0  0  0  0  0  0  0  0  0
   -7.0180   23.3420  -31.3900 C   0  0  0  0  0  0  0  0  0  0  0  0
   -6.3320   24.5360  -31.1680 C   0  0  0  0  0  0  0  0  0  0  0  0
   -5.0330   24.5280  -30.6410 C   0  0  0  0  0  0  0  0  0  0  0  0
   -4.3880   25.7800  -30.3680 N   0  0  0  0  0  0  0  0  0  0  0  0
   -1.6110   21.1870  -30.2330 C   0  0  0  0  0  0  0  0  0  0  0  0
   -1.0340   19.9710  -29.8160 C   0  0  0  0  0  0  0  0  0  0  0  0
   -0.2260   19.2230  -30.6860 O   0  0  0  0  0  0  0  0  0  0  0  0
    1.1830   19.3770  -30.8310 C   0  0  0  0  0  0  0  0  0  0  0  0
   -1.2780   19.5040  -28.4980 C   0  0  0  0  0  0  0  0  0  0  0  0
   -0.7580   18.3000  -27.9870 O   0  0  0  0  0  0  0  0  0  0  0  0
    0.6170   17.9730  -27.8180 C   0  0  0  0  0  0  0  0  0  0  0  0
   -3.3301   18.6715  -24.9101 H   0  0  0  0  0  0  0  0  0  0  0  0
   -4.2328   19.0213  -26.4232 H   0  0  0  0  0  0  0  0  0  0  0  0
   -2.9212   17.7940  -26.4232 H   0  0  0  0  0  0  0  0  0  0  0  0
   -3.2550   22.0683  -27.3733 H   0  0  0  0  0  0  0  0  0  0  0  0
   -4.6216   21.1317  -30.3737 H   0  0  0  0  0  0  0  0  0  0  0  0
   -5.6971   19.9667  -32.5611 H   0  0  0  0  0  0  0  0  0  0  0  0
   -5.8748   19.2467  -30.9151 H   0  0  0  0  0  0  0  0  0  0  0  0
   -6.8451   17.9467  -32.9893 H   0  0  0  0  0  0  0  0  0  0  0  0
   -7.8347   18.0822  -31.4904 H   0  0  0  0  0  0  0  0  0  0  0  0
   -8.0280   19.8810  -33.8490 H   0  0  0  0  0  0  0  0  0  0  0  0
   -9.0500   18.5680  -33.5430 H   0  0  0  0  0  0  0  0  0  0  0  0
   -9.7166   20.9690  -32.8591 H   0  0  0  0  0  0  0  0  0  0  0  0
  -10.1046   19.5115  -31.8275 H   0  0  0  0  0  0  0  0  0  0  0  0
   -8.9690   21.7837  -30.8489 H   0  0  0  0  0  0  0  0  0  0  0  0
   -8.7119   20.1342  -30.1609 H   0  0  0  0  0  0  0  0  0  0  0  0
   -8.0373   23.3664  -31.8028 H   0  0  0  0  0  0  0  0  0  0  0  0
   -6.8155   25.4942  -31.4090 H   0  0  0  0  0  0  0  0  0  0  0  0
   -3.4810   26.0180  -30.8290 H   0  0  0  0  0  0  0  0  0  0  0  0
   -4.8310   26.5150  -29.7750 H   0  0  0  0  0  0  0  0  0  0  0  0
   -1.4215   21.5528  -31.2529 H   0  0  0  0  0  0  0  0  0  0  0  0
    1.6505   19.4281  -29.8366 H   0  0  0  0  0  0  0  0  0  0  0  0
    1.5907   18.5181  -31.3842 H   0  0  0  0  0  0  0  0  0  0  0  0
    1.3956   20.3037  -31.3842 H   0  0  0  0  0  0  0  0  0  0  0  0
    0.8514   17.9173  -26.7447 H   0  0  0  0  0  0  0  0  0  0  0  0
    0.8233   17.0007  -28.2893 H   0  0  0  0  0  0  0  0  0  0  0  0
    1.2389   18.7483  -28.2893 H   0  0  0  0  0  0  0  0  0  0  0  0
  1  2  1  0
  2  3  1  0
  3  4  2  0
  4  5  1  0
  5  6  1  0
  6  7  2  0
  6  8  1  0
  8  9  2  0
  9 10  1  0
 10 11  1  0
 11 12  1  0
 12 13  1  0
 13 14  1  0
 14 15  1  0
 15 16  1  0
 10 17  2  0
 17 18  1  0
 18 19  2  0
 19 20  1  0
  5 21  2  0
 21 22  1  0
 22 23  1  0
 23 24  1  0
 22 25  2  0
 25 26  1  0
 26 27  1  0
 25  3  1  0
 19  8  1  0
 16 11  1  0
  1 28  1  0
  1 29  1  0
  1 30  1  0
  4 31  1  0
  9 32  1  0
 12 33  1  0
 12 34  1  0
 13 35  1  0
 13 36  1  0
 14 37  1  0
 14 38  1  0
 15 39  1  0
 15 40  1  0
 16 41  1  0
 16 42  1  0
 17 43  1  0
 18 44  1  0
 20 45  1  0
 20 46  1  0
 21 47  1  0
 24 48  1  0
 24 49  1  0
 24 50  1  0
 27 51  1  0
 27 52  1  0
 27 53  1  0
M  CHG  1  14   1
M  END
>  <UniqueID>  (14) 
14

>  <SMILES>  (14) 
COc1cc(C(=O)c2cc(N3CC[NH2+]CC3)ccc2N)cc(OC)c1OC

>  <Energy>  (14) 
71.45882095358434

>  <Genealogy>  (14) 
COc1cc(C(=O)c2cc(N3CC[NH2+]CC3)ccc2N)cc(OC)c1OC (protonated)
COc1cc(C(=O)c2cc(N3CC[NH2+]CC3)ccc2N)cc(OC)c1OC (3D coordinates assigned)
COc1cc(C(=O)c2cc(N3CC[NH2+]CC3)ccc2N)cc(OC)c1OC (nonaromatic ring conformer: 71.45882095358434 kcal/mol)

>  <smiles>  (14) 
COc1cc(C(=O)c2cc(N3CCNCC3)ccc2N)cc(OC)c1OC

>  <score_type>  (14) 
oracle

>  <origin>  (14) 
adgpu

>  <m_score__min__energy>  (14) 
-8.1600000000000001

>  <m_primary>  (14) 
energy

$$$$
14:0
     RDKit          3D

 43 45  0  0  0  0  0  0  0  0999 V2000
   -8.0690   19.1560  -32.5250 C   0  0  0  0  0  0  0  0  0  0  0  0
   -7.8160   20.4430  -33.0770 O   0  0  0  0  0  0  0  0  0  0  0  0
   -7.2630   21.5190  -32.3650 C   0  0  0  0  0  0  0  0  0  0  0  0
   -8.0610   22.4290  -31.6470 C   0  0  0  0  0  0  0  0  0  0  0  0
   -7.4740   23.4830  -30.9450 C   0  0  0  0  0  0  0  0  0  0  0  0
   -6.0850   23.6440  -30.9490 C   0  0  0  0  0  0  0  0  0  0  0  0
   -5.3360   24.9540  -30.0410 S   0  0  0  0  0  0  0  0  0  0  0  0
   -6.3490   26.0060  -29.6880 O   0  0  0  0  0  0  0  0  0  0  0  0
   -4.2580   25.5740  -30.8810 O   0  0  0  0  0  0  0  0  0  0  0  0
   -4.6330   24.3330  -28.5810 N   0  0  0  0  0  0  0  0  0  0  0  0
   -3.4440   23.5300  -28.5090 C   0  0  0  0  0  0  0  0  0  0  0  0
   -3.4890   22.1810  -28.1110 C   0  0  0  0  0  0  0  0  0  0  0  0
   -2.3240   21.4130  -28.0720 C   0  0  0  0  0  0  0  0  0  0  0  0
   -1.0860   21.9940  -28.4020 C   0  0  0  0  0  0  0  0  0  0  0  0
   -1.0400   23.3320  -28.8110 C   0  0  0  0  0  0  0  0  0  0  0  0
   -2.2080   24.1000  -28.8670 C   0  0  0  0  0  0  0  0  0  0  0  0
   -2.1150   25.4270  -29.2880 O   0  0  0  0  0  0  0  0  0  0  0  0
    0.1720   21.1620  -28.3790 C   0  0  0  0  0  0  0  0  0  0  0  0
    0.0210   19.9360  -27.4680 C   0  0  0  0  0  0  0  0  0  0  0  0
   -1.2740   19.1900  -27.7980 C   0  0  0  0  0  0  0  0  0  0  0  0
   -2.3930   20.0700  -27.6830 O   0  0  0  0  0  0  0  0  0  0  0  0
   -5.2860   22.7490  -31.6680 C   0  0  0  0  0  0  0  0  0  0  0  0
   -5.8680   21.6800  -32.3760 C   0  0  0  0  0  0  0  0  0  0  0  0
   -5.0950   20.7560  -33.0980 O   0  0  0  0  0  0  0  0  0  0  0  0
   -3.6730   20.6840  -33.0500 C   0  0  0  0  0  0  0  0  0  0  0  0
   -8.0566   19.2191  -31.4269 H   0  0  0  0  0  0  0  0  0  0  0  0
   -9.0543   18.8003  -32.8607 H   0  0  0  0  0  0  0  0  0  0  0  0
   -7.2917   18.4538  -32.8607 H   0  0  0  0  0  0  0  0  0  0  0  0
   -9.1544   22.3089  -31.6389 H   0  0  0  0  0  0  0  0  0  0  0  0
   -8.1061   24.1893  -30.3868 H   0  0  0  0  0  0  0  0  0  0  0  0
   -4.4506   21.7278  -27.8282 H   0  0  0  0  0  0  0  0  0  0  0  0
   -0.0768   23.7836  -29.0909 H   0  0  0  0  0  0  0  0  0  0  0  0
   -2.9210   26.0390  -29.3390 H   0  0  0  0  0  0  0  0  0  0  0  0
    0.3941   20.8221  -29.4013 H   0  0  0  0  0  0  0  0  0  0  0  0
    0.9894   21.7844  -27.9861 H   0  0  0  0  0  0  0  0  0  0  0  0
    0.8774   19.2625  -27.6199 H   0  0  0  0  0  0  0  0  0  0  0  0
   -0.0130   20.2689  -26.4201 H   0  0  0  0  0  0  0  0  0  0  0  0
   -1.2192   18.8044  -28.8267 H   0  0  0  0  0  0  0  0  0  0  0  0
   -1.3985   18.3567  -27.0908 H   0  0  0  0  0  0  0  0  0  0  0  0
   -4.1941   22.8813  -31.6805 H   0  0  0  0  0  0  0  0  0  0  0  0
   -3.3419   20.6672  -32.0011 H   0  0  0  0  0  0  0  0  0  0  0  0
   -3.3350   19.7676  -33.5559 H   0  0  0  0  0  0  0  0  0  0  0  0
   -3.2441   21.5616  -33.5559 H   0  0  0  0  0  0  0  0  0  0  0  0
  1  2  1  0
  2  3  1  0
  3  4  2  0
  4  5  1  0
  5  6  2  0
  6  7  1  0
  7  8  2  0
  7  9  2  0
  7 10  1  0
 10 11  1  0
 11 12  2  0
 12 13  1  0
 13 14  2  0
 14 15  1  0
 15 16  2  0
 16 17  1  0
 14 18  1  0
 18 19  1  0
 19 20  1  0
 20 21  1  0
  6 22  1  0
 22 23  2  0
 23 24  1  0
 24 25  1  0
 23  3  1  0
 16 11  1  0
 21 13  1  0
  1 26  1  0
  1 27  1  0
  1 28  1  0
  4 29  1  0
  5 30  1  0
 12 31  1  0
 15 32  1  0
 17 33  1  0
 18 34  1  0
 18 35  1  0
 19 36  1  0
 19 37  1  0
 20 38  1  0
 20 39  1  0
 22 40  1  0
 25 41  1  0
 25 42  1  0
 25 43  1  0
M  CHG  1  10  -1
M  END
>  <UniqueID>  (15) 
15

>  <SMILES>  (15) 
COc1ccc(S(=O)(=O)[N-]c2cc3c(cc2O)CCCO3)cc1OC

>  <Energy>  (15) 
45.67819337469644

>  <Genealogy>  (15) 
COc1ccc(S(=O)(=O)[N-]c2cc3c(cc2O)CCCO3)cc1OC (protonated)
COc1ccc(S(=O)(=O)[N-]c2cc3c(cc2O)CCCO3)cc1OC (3D coordinates assigned)
COc1ccc(S(=O)(=O)[N-]c2cc3c(cc2O)CCCO3)cc1OC (nonaromatic ring conformer: 45.67819337469644 kcal/mol)

>  <smiles>  (15) 
COc1ccc(S(=O)(=O)Nc2cc3c(cc2O)CCCO3)cc1OC

>  <score_type>  (15) 
oracle

>  <origin>  (15) 
adgpu

>  <m_score__min__energy>  (15) 
-9.4499999999999993

>  <m_primary>  (15) 
energy

$$$$
15:0
     RDKit          3D

 46 48  0  0  0  0  0  0  0  0999 V2000
   -4.2350   25.2760  -30.8440 O   0  0  0  0  0  0  0  0  0  0  0  0
   -3.5010   24.5900  -30.0830 C   0  0  0  0  0  0  0  0  0  0  0  0
   -3.7880   23.1350  -29.8840 C   0  0  0  0  0  0  0  0  0  0  0  0
   -3.4780   22.3920  -31.1090 N   0  0  0  0  0  0  0  0  0  0  0  0
   -2.2780   21.6040  -31.2010 C   0  0  0  0  0  0  0  0  0  0  0  0
   -1.9280   20.7260  -30.1680 C   0  0  0  0  0  0  0  0  0  0  0  0
   -0.8190   19.8930  -30.2990 C   0  0  0  0  0  0  0  0  0  0  0  0
   -0.0460   19.9140  -31.4680 C   0  0  0  0  0  0  0  0  0  0  0  0
    1.0570   19.0650  -31.5750 O   0  0  0  0  0  0  0  0  0  0  0  0
   -0.3870   20.7940  -32.5220 C   0  0  0  0  0  0  0  0  0  0  0  0
    0.3930   20.8450  -33.7850 C   0  0  0  0  0  0  0  0  0  0  0  0
    1.1070   19.8740  -34.1480 O   0  0  0  0  0  0  0  0  0  0  0  0
    0.3450   21.9760  -34.5920 O   0  0  0  0  0  0  0  0  0  0  0  0
   -1.5010   21.6370  -32.3680 C   0  0  0  0  0  0  0  0  0  0  0  0
   -4.6310   22.3780  -32.4100 S   0  0  0  0  0  0  0  0  0  0  0  0
   -3.9010   22.2560  -33.7190 O   0  0  0  0  0  0  0  0  0  0  0  0
   -5.4240   23.6560  -32.4150 O   0  0  0  0  0  0  0  0  0  0  0  0
   -5.7430   21.0320  -32.1880 C   0  0  0  0  0  0  0  0  0  0  0  0
   -7.0990   21.2590  -31.9030 C   0  0  0  0  0  0  0  0  0  0  0  0
   -7.9730   20.1780  -31.7490 C   0  0  0  0  0  0  0  0  0  0  0  0
   -7.4980   18.8700  -31.8770 C   0  0  0  0  0  0  0  0  0  0  0  0
   -6.1480   18.6390  -32.1620 C   0  0  0  0  0  0  0  0  0  0  0  0
   -5.2730   19.7180  -32.3190 C   0  0  0  0  0  0  0  0  0  0  0  0
   -2.4420   25.2040  -29.3420 N   0  0  0  0  0  0  0  0  0  0  0  0
   -1.5730   24.5330  -28.4190 C   0  0  0  0  0  0  0  0  0  0  0  0
   -1.7690   24.6110  -27.0270 C   0  0  0  0  0  0  0  0  0  0  0  0
   -0.9430   23.8880  -26.1600 C   0  0  0  0  0  0  0  0  0  0  0  0
    0.0720   23.0780  -26.6720 C   0  0  0  0  0  0  0  0  0  0  0  0
    0.2610   22.9860  -28.0530 C   0  0  0  0  0  0  0  0  0  0  0  0
   -0.5630   23.7050  -28.9240 C   0  0  0  0  0  0  0  0  0  0  0  0
   -3.1703   22.7512  -29.0587 H   0  0  0  0  0  0  0  0  0  0  0  0
   -4.8535   23.0063  -29.6428 H   0  0  0  0  0  0  0  0  0  0  0  0
   -2.5314   20.6938  -29.2488 H   0  0  0  0  0  0  0  0  0  0  0  0
   -0.5477   19.2130  -29.4780 H   0  0  0  0  0  0  0  0  0  0  0  0
    1.5820   18.9800  -32.4370 H   0  0  0  0  0  0  0  0  0  0  0  0
   -1.7678   22.3341  -33.1760 H   0  0  0  0  0  0  0  0  0  0  0  0
   -7.4743   22.2879  -31.8008 H   0  0  0  0  0  0  0  0  0  0  0  0
   -9.0353   20.3576  -31.5269 H   0  0  0  0  0  0  0  0  0  0  0  0
   -8.1865   18.0210  -31.7535 H   0  0  0  0  0  0  0  0  0  0  0  0
   -5.7752   17.6090  -32.2625 H   0  0  0  0  0  0  0  0  0  0  0  0
   -4.2123   19.5352  -32.5461 H   0  0  0  0  0  0  0  0  0  0  0  0
   -2.5733   25.2417  -26.6204 H   0  0  0  0  0  0  0  0  0  0  0  0
   -1.0936   23.9579  -25.0726 H   0  0  0  0  0  0  0  0  0  0  0  0
    0.7225   22.5126  -25.9885 H   0  0  0  0  0  0  0  0  0  0  0  0
    1.0600   22.3464  -28.4561 H   0  0  0  0  0  0  0  0  0  0  0  0
   -0.4172   23.6199  -30.0110 H   0  0  0  0  0  0  0  0  0  0  0  0
  1  2  2  0
  2  3  1  0
  3  4  1  0
  4  5  1  0
  5  6  2  0
  6  7  1  0
  7  8  2  0
  8  9  1  0
  8 10  1  0
 10 11  1  0
 11 12  2  0
 11 13  1  0
 10 14  2  0
  4 15  1  0
 15 16  2  0
 15 17  2  0
 15 18  1  0
 18 19  2  0
 19 20  1  0
 20 21  2  0
 21 22  1  0
 22 23  2  0
  2 24  1  0
 24 25  1  0
 25 26  2  0
 26 27  1  0
 27 28  2  0
 28 29  1  0
 29 30  2  0
 14  5  1  0
 23 18  1  0
 30 25  1  0
  3 31  1  0
  3 32  1  0
  6 33  1  0
  7 34  1  0
  9 35  1  0
 14 36  1  0
 19 37  1  0
 20 38  1  0
 21 39  1  0
 22 40  1  0
 23 41  1  0
 26 42  1  0
 27 43  1  0
 28 44  1  0
 29 45  1  0
 30 46  1  0
M  CHG  2  13  -1  24  -1
M  END
>  <UniqueID>  (16) 
16

>  <SMILES>  (16) 
O=C(CN(c1ccc(O)c(C(=O)[O-])c1)S(=O)(=O)c1ccccc1)[N-]c1ccccc1

>  <Energy>  (16) 
56.74044556700687

>  <Genealogy>  (16) 
O=C(CN(c1ccc(O)c(C(=O)[O-])c1)S(=O)(=O)c1ccccc1)[N-]c1ccccc1 (protonated)
O=C(CN(c1ccc(O)c(C(=O)[O-])c1)S(=O)(=O)c1ccccc1)[N-]c1ccccc1 (3D coordinates assigned)
O=C(CN(c1ccc(O)c(C(=O)[O-])c1)S(=O)(=O)c1ccccc1)[N-]c1ccccc1 (optimized conformer: 56.74044556700687 kcal/mol)

>  <smiles>  (16) 
O=C(CN(c1ccc(O)c(C(=O)O)c1)S(=O)(=O)c1ccccc1)Nc1ccccc1

>  <score_type>  (16) 
oracle

>  <origin>  (16) 
adgpu

>  <m_score__min__energy>  (16) 
-10.609999999999999

>  <m_primary>  (16) 
energy

$$$$
16:0
     RDKit          3D

 36 37  0  0  0  0  0  0  0  0999 V2000
   -2.2210   25.2810  -29.3250 N   0  0  0  0  0  0  0  0  0  0  0  0
   -1.2240   24.5000  -28.1510 S   0  0  0  0  0  0  0  0  0  0  0  0
   -1.3340   25.2530  -26.8550 O   0  0  0  0  0  0  0  0  0  0  0  0
    0.2070   24.5210  -28.6080 O   0  0  0  0  0  0  0  0  0  0  0  0
   -1.7540   22.8270  -27.9380 C   0  0  0  0  0  0  0  0  0  0  0  0
   -1.2060   22.0700  -26.8880 C   0  0  0  0  0  0  0  0  0  0  0  0
   -1.6110   20.7500  -26.6790 C   0  0  0  0  0  0  0  0  0  0  0  0
   -2.5570   20.1680  -27.5190 C   0  0  0  0  0  0  0  0  0  0  0  0
   -3.1070   20.9040  -28.5690 C   0  0  0  0  0  0  0  0  0  0  0  0
   -2.7280   22.2440  -28.7840 C   0  0  0  0  0  0  0  0  0  0  0  0
   -3.2770   22.9790  -29.8960 N   0  0  0  0  0  0  0  0  0  0  0  0
   -4.6760   22.9920  -30.2260 C   0  0  0  0  0  0  0  0  0  0  0  0
   -5.5380   22.6590  -29.3700 O   0  0  0  0  0  0  0  0  0  0  0  0
   -5.1250   23.4250  -31.5930 C   0  0  0  0  0  0  0  0  0  0  0  0
   -6.5690   23.0020  -31.8910 C   0  0  0  0  0  0  0  0  0  0  0  0
   -6.6730   21.5400  -32.2630 C   0  0  0  0  0  0  0  0  0  0  0  0
   -5.5290   20.8840  -32.7540 C   0  0  0  0  0  0  0  0  0  0  0  0
   -5.5790   19.5330  -33.1040 C   0  0  0  0  0  0  0  0  0  0  0  0
   -6.7690   18.8170  -32.9650 C   0  0  0  0  0  0  0  0  0  0  0  0
   -6.8310   17.1210  -33.4080 Cl  0  0  0  0  0  0  0  0  0  0  0  0
   -7.9140   19.4550  -32.4800 C   0  0  0  0  0  0  0  0  0  0  0  0
   -7.8790   20.8130  -32.1400 C   0  0  0  0  0  0  0  0  0  0  0  0
   -9.3700   21.5570  -31.5710 Cl  0  0  0  0  0  0  0  0  0  0  0  0
   -1.5850   25.6710  -30.0570 H   0  0  0  0  0  0  0  0  0  0  0  0
   -0.4522   22.5209  -26.2258 H   0  0  0  0  0  0  0  0  0  0  0  0
   -1.1820   20.1689  -25.8494 H   0  0  0  0  0  0  0  0  0  0  0  0
   -2.8710   19.1267  -27.3545 H   0  0  0  0  0  0  0  0  0  0  0  0
   -3.8442   20.4332  -29.2360 H   0  0  0  0  0  0  0  0  0  0  0  0
   -2.6310   23.5190  -30.5120 H   0  0  0  0  0  0  0  0  0  0  0  0
   -5.0567   24.5210  -31.6574 H   0  0  0  0  0  0  0  0  0  0  0  0
   -4.4718   22.9384  -32.3323 H   0  0  0  0  0  0  0  0  0  0  0  0
   -7.1828   23.1840  -30.9965 H   0  0  0  0  0  0  0  0  0  0  0  0
   -6.9231   23.5936  -32.7481 H   0  0  0  0  0  0  0  0  0  0  0  0
   -4.5865   21.4406  -32.8632 H   0  0  0  0  0  0  0  0  0  0  0  0
   -4.6789   19.0322  -33.4900 H   0  0  0  0  0  0  0  0  0  0  0  0
   -8.8487   18.8867  -32.3646 H   0  0  0  0  0  0  0  0  0  0  0  0
  1  2  1  0
  2  3  2  0
  2  4  2  0
  2  5  1  0
  5  6  2  0
  6  7  1  0
  7  8  2  0
  8  9  1  0
  9 10  2  0
 10 11  1  0
 11 12  1  0
 12 13  2  0
 12 14  1  0
 14 15  1  0
 15 16  1  0
 16 17  2  0
 17 18  1  0
 18 19  2  0
 19 20  1  0
 19 21  1  0
 21 22  2  0
 22 23  1  0
 10  5  1  0
 22 16  1  0
  1 24  1  0
  6 25  1  0
  7 26  1  0
  8 27  1  0
  9 28  1  0
 11 29  1  0
 14 30  1  0
 14 31  1  0
 15 32  1  0
 15 33  1  0
 17 34  1  0
 18 35  1  0
 21 36  1  0
M  CHG  1   1  -1
M  END
>  <UniqueID>  (17) 
17

>  <SMILES>  (17) 
[NH-]S(=O)(=O)c1ccccc1NC(=O)CCc1ccc(Cl)cc1Cl

>  <Energy>  (17) 
37.47318682009315

>  <Genealogy>  (17) 
[NH-]S(=O)(=O)c1ccccc1NC(=O)CCc1ccc(Cl)cc1Cl (protonated)
[NH-]S(=O)(=O)c1ccccc1NC(=O)CCc1ccc(Cl)cc1Cl (3D coordinates assigned)
[NH-]S(=O)(=O)c1ccccc1NC(=O)CCc1ccc(Cl)cc1Cl (optimized conformer: 37.47318682009315 kcal/mol)

>  <smiles>  (17) 
NS(=O)(=O)c1ccccc1NC(=O)CCc1ccc(Cl)cc1Cl

>  <score_type>  (17) 
oracle

>  <origin>  (17) 
adgpu

>  <m_score__min__energy>  (17) 
-11.369999999999999

>  <m_primary>  (17) 
energy

$$$$
17:0
     RDKit          3D

 38 40  0  0  0  0  0  0  0  0999 V2000
    0.4610   20.1850  -35.8270 C   0  0  0  0  0  0  0  0  0  0  0  0
    0.3170   20.6130  -34.4260 N   0  0  0  0  0  0  0  0  0  0  0  0
   -1.1050   20.8280  -34.1050 C   0  0  0  0  0  0  0  0  0  0  0  0
   -1.2270   21.4940  -32.7330 C   0  0  0  0  0  0  0  0  0  0  0  0
   -0.3810   20.8010  -31.6960 C   0  0  0  0  0  0  0  0  0  0  0  0
   -0.5900   21.0840  -30.3390 C   0  0  0  0  0  0  0  0  0  0  0  0
    0.2140   20.4870  -29.3510 C   0  0  0  0  0  0  0  0  0  0  0  0
    0.0220   20.7540  -27.9530 N   0  0  0  0  0  0  0  0  0  0  0  0
   -1.4550   21.3000  -27.2290 S   0  0  0  0  0  0  0  0  0  0  0  0
   -2.4120   20.1450  -27.1220 O   0  0  0  0  0  0  0  0  0  0  0  0
   -1.1660   21.8230  -25.8510 O   0  0  0  0  0  0  0  0  0  0  0  0
   -2.1470   22.5970  -28.1990 C   0  0  0  0  0  0  0  0  0  0  0  0
   -3.4130   22.4310  -28.7770 C   0  0  0  0  0  0  0  0  0  0  0  0
   -3.9760   23.4580  -29.5410 C   0  0  0  0  0  0  0  0  0  0  0  0
   -3.2790   24.6560  -29.7300 C   0  0  0  0  0  0  0  0  0  0  0  0
   -3.8430   25.6730  -30.4920 O   0  0  0  0  0  0  0  0  0  0  0  0
   -2.0150   24.8270  -29.1520 C   0  0  0  0  0  0  0  0  0  0  0  0
   -1.3170   26.0150  -29.3350 O   0  0  0  0  0  0  0  0  0  0  0  0
   -1.4500   23.7990  -28.3900 C   0  0  0  0  0  0  0  0  0  0  0  0
    1.2340   19.6060  -29.7360 C   0  0  0  0  0  0  0  0  0  0  0  0
    2.0330   18.9970  -28.7750 O   0  0  0  0  0  0  0  0  0  0  0  0
    1.4590   19.3340  -31.0890 C   0  0  0  0  0  0  0  0  0  0  0  0
    0.6710   19.9430  -32.0760 C   0  0  0  0  0  0  0  0  0  0  0  0
    0.8910   19.5900  -33.5280 C   0  0  0  0  0  0  0  0  0  0  0  0
    0.8116   19.1428  -35.8578 H   0  0  0  0  0  0  0  0  0  0  0  0
   -0.5118   20.2598  -36.3351 H   0  0  0  0  0  0  0  0  0  0  0  0
    1.1907   20.8326  -36.3351 H   0  0  0  0  0  0  0  0  0  0  0  0
   -1.5585   21.4771  -34.8685 H   0  0  0  0  0  0  0  0  0  0  0  0
   -1.6260   19.8593  -34.0882 H   0  0  0  0  0  0  0  0  0  0  0  0
   -0.9015   22.5415  -32.8157 H   0  0  0  0  0  0  0  0  0  0  0  0
   -2.2780   21.4299  -32.4146 H   0  0  0  0  0  0  0  0  0  0  0  0
   -1.3899   21.7791  -30.0441 H   0  0  0  0  0  0  0  0  0  0  0  0
   -3.9648   21.4910  -28.6293 H   0  0  0  0  0  0  0  0  0  0  0  0
   -4.9692   23.3235  -29.9944 H   0  0  0  0  0  0  0  0  0  0  0  0
   -0.4558   23.9338  -27.9391 H   0  0  0  0  0  0  0  0  0  0  0  0
    2.2592   18.6379  -31.3809 H   0  0  0  0  0  0  0  0  0  0  0  0
    1.9718   19.5136  -33.7176 H   0  0  0  0  0  0  0  0  0  0  0  0
    0.3897   18.6321  -33.7305 H   0  0  0  0  0  0  0  0  0  0  0  0
  1  2  1  0
  2  3  1  0
  3  4  1  0
  4  5  1  0
  5  6  2  0
  6  7  1  0
  7  8  1  0
  8  9  1  0
  9 10  2  0
  9 11  2  0
  9 12  1  0
 12 13  2  0
 13 14  1  0
 14 15  2  0
 15 16  1  0
 15 17  1  0
 17 18  1  0
 17 19  2  0
  7 20  2  0
 20 21  1  0
 20 22  1  0
 22 23  2  0
 23 24  1  0
 24  2  1  0
 23  5  1  0
 19 12  1  0
  1 25  1  0
  1 26  1  0
  1 27  1  0
  3 28  1  0
  3 29  1  0
  4 30  1  0
  4 31  1  0
  6 32  1  0
 13 33  1  0
 14 34  1  0
 19 35  1  0
 22 36  1  0
 24 37  1  0
 24 38  1  0
M  CHG  4   8  -1  16  -1  18  -1  21  -1
M  END
>  <UniqueID>  (18) 
18

>  <SMILES>  (18) 
CN1CCc2cc([N-]S(=O)(=O)c3ccc([O-])c([O-])c3)c([O-])cc2C1

>  <Energy>  (18) 
45.43896025958727

>  <Genealogy>  (18) 
CN1CCc2cc([N-]S(=O)(=O)c3ccc([O-])c([O-])c3)c([O-])cc2C1 (protonated)
CN1CCc2cc([N-]S(=O)(=O)c3ccc([O-])c([O-])c3)c([O-])cc2C1 (3D coordinates assigned)
CN1CCc2cc([N-]S(=O)(=O)c3ccc([O-])c([O-])c3)c([O-])cc2C1 (nonaromatic ring conformer: 45.43896025958727 kcal/mol)

>  <smiles>  (18) 
CN1CCc2cc(NS(=O)(=O)c3ccc(O)c(O)c3)c(O)cc2C1

>  <score_type>  (18) 
oracle

>  <origin>  (18) 
adgpu

>  <m_score__min__energy>  (18) 
-12.880000000000001

>  <m_primary>  (18) 
energy

$$$$
18:0
     RDKit          3D

 53 56  0  0  0  0  0  0  0  0999 V2000
   -6.1160   17.0370  -30.8410 C   0  0  0  0  0  0  0  0  0  0  0  0
   -5.8630   17.5440  -32.2350 C   0  0  0  0  0  0  0  0  0  0  0  0
   -4.7350   17.0810  -32.9350 C   0  0  0  0  0  0  0  0  0  0  0  0
   -4.4820   17.5070  -34.2390 C   0  0  0  0  0  0  0  0  0  0  0  0
   -5.3620   18.3920  -34.8640 C   0  0  0  0  0  0  0  0  0  0  0  0
   -6.4890   18.8600  -34.1870 C   0  0  0  0  0  0  0  0  0  0  0  0
   -6.7630   18.4330  -32.8770 C   0  0  0  0  0  0  0  0  0  0  0  0
   -7.9520   19.0160  -32.1610 C   0  0  0  0  0  0  0  0  0  0  0  0
   -8.2160   20.3140  -32.6790 O   0  0  0  0  0  0  0  0  0  0  0  0
   -7.5910   21.4850  -32.2300 C   0  0  0  0  0  0  0  0  0  0  0  0
   -6.2220   21.6430  -32.4670 C   0  0  0  0  0  0  0  0  0  0  0  0
   -5.5370   22.7480  -31.9590 C   0  0  0  0  0  0  0  0  0  0  0  0
   -6.2260   23.7270  -31.2300 C   0  0  0  0  0  0  0  0  0  0  0  0
   -5.3670   25.0820  -30.5060 S   0  0  0  0  0  0  0  0  0  0  0  0
   -5.7740   25.1890  -29.0630 O   0  0  0  0  0  0  0  0  0  0  0  0
   -5.7320   26.3630  -31.2010 O   0  0  0  0  0  0  0  0  0  0  0  0
   -3.6480   24.8600  -30.6010 N   0  0  0  0  0  0  0  0  0  0  0  0
   -2.9390   24.1010  -29.6130 C   0  0  0  0  0  0  0  0  0  0  0  0
   -3.2670   22.7570  -29.3710 C   0  0  0  0  0  0  0  0  0  0  0  0
   -2.5940   22.0240  -28.3900 C   0  0  0  0  0  0  0  0  0  0  0  0
   -1.5770   22.6370  -27.6320 C   0  0  0  0  0  0  0  0  0  0  0  0
   -1.2620   23.9860  -27.8580 C   0  0  0  0  0  0  0  0  0  0  0  0
   -1.9370   24.7150  -28.8430 C   0  0  0  0  0  0  0  0  0  0  0  0
   -1.5970   26.0470  -29.0630 O   0  0  0  0  0  0  0  0  0  0  0  0
   -0.8860   21.8700  -26.5330 C   0  0  0  0  0  0  0  0  0  0  0  0
   -0.8850   20.3660  -26.8280 C   0  0  0  0  0  0  0  0  0  0  0  0
   -2.3080   19.8720  -27.0940 C   0  0  0  0  0  0  0  0  0  0  0  0
   -2.9230   20.6420  -28.1730 N   0  0  0  0  0  0  0  0  0  0  0  0
   -7.6100   23.6060  -31.0430 C   0  0  0  0  0  0  0  0  0  0  0  0
   -8.2850   22.4830  -31.5220 C   0  0  0  0  0  0  0  0  0  0  0  0
   -5.7487   17.7731  -30.1108 H   0  0  0  0  0  0  0  0  0  0  0  0
   -7.1958   16.8847  -30.6966 H   0  0  0  0  0  0  0  0  0  0  0  0
   -5.5885   16.0826  -30.6966 H   0  0  0  0  0  0  0  0  0  0  0  0
   -4.0448   16.3755  -32.4493 H   0  0  0  0  0  0  0  0  0  0  0  0
   -3.5909   17.1462  -34.7736 H   0  0  0  0  0  0  0  0  0  0  0  0
   -5.1663   18.7221  -35.8949 H   0  0  0  0  0  0  0  0  0  0  0  0
   -7.1682   19.5689  -34.6831 H   0  0  0  0  0  0  0  0  0  0  0  0
   -8.8292   18.3712  -32.3180 H   0  0  0  0  0  0  0  0  0  0  0  0
   -7.7401   19.0827  -31.0837 H   0  0  0  0  0  0  0  0  0  0  0  0
   -5.6804   20.8903  -33.0587 H   0  0  0  0  0  0  0  0  0  0  0  0
   -4.4554   22.8506  -32.1309 H   0  0  0  0  0  0  0  0  0  0  0  0
   -3.2070   24.9900  -31.5380 H   0  0  0  0  0  0  0  0  0  0  0  0
   -4.0621   22.2763  -29.9599 H   0  0  0  0  0  0  0  0  0  0  0  0
   -0.4798   24.4729  -27.2571 H   0  0  0  0  0  0  0  0  0  0  0  0
    0.1533   22.2205  -26.4486 H   0  0  0  0  0  0  0  0  0  0  0  0
   -1.4289   22.0416  -25.5918 H   0  0  0  0  0  0  0  0  0  0  0  0
   -0.2625   20.1711  -27.7138 H   0  0  0  0  0  0  0  0  0  0  0  0
   -0.4801   19.8323  -25.9555 H   0  0  0  0  0  0  0  0  0  0  0  0
   -2.2752   18.8103  -27.3799 H   0  0  0  0  0  0  0  0  0  0  0  0
   -2.9060   19.9999  -26.1797 H   0  0  0  0  0  0  0  0  0  0  0  0
   -3.6520   20.1830  -28.7620 H   0  0  0  0  0  0  0  0  0  0  0  0
   -8.1646   24.3976  -30.5178 H   0  0  0  0  0  0  0  0  0  0  0  0
   -9.3655   22.3774  -31.3451 H   0  0  0  0  0  0  0  0  0  0  0  0
  1  2  1  0
  2  3  2  0
  3  4  1  0
  4  5  2  0
  5  6  1  0
  6  7  2  0
  7  8  1  0
  8  9  1  0
  9 10  1  0
 10 11  2  0
 11 12  1  0
 12 13  2  0
 13 14  1  0
 14 15  2  0
 14 16  2  0
 14 17  1  0
 17 18  1  0
 18 19  2  0
 19 20  1  0
 20 21  2  0
 21 22  1  0
 22 23  2  0
 23 24  1  0
 21 25  1  0
 25 26  1  0
 26 27  1  0
 27 28  1  0
 13 29  1  0
 29 30  2  0
  7  2  1  0
 30 10  1  0
 23 18  1  0
 28 20  1  0
  1 31  1  0
  1 32  1  0
  1 33  1  0
  3 34  1  0
  4 35  1  0
  5 36  1  0
  6 37  1  0
  8 38  1  0
  8 39  1  0
 11 40  1  0
 12 41  1  0
 17 42  1  0
 19 43  1  0
 22 44  1  0
 25 45  1  0
 25 46  1  0
 26 47  1  0
 26 48  1  0
 27 49  1  0
 27 50  1  0
 28 51  1  0
 29 52  1  0
 30 53  1  0
M  CHG  1  24  -1
M  END
>  <UniqueID>  (19) 
19

>  <SMILES>  (19) 
Cc1ccccc1COc1ccc(S(=O)(=O)Nc2cc3c(cc2[O-])CCCN3)cc1

>  <Energy>  (19) 
62.63605643978353

>  <Genealogy>  (19) 
Cc1ccccc1COc1ccc(S(=O)(=O)Nc2cc3c(cc2[O-])CCCN3)cc1 (protonated)
Cc1ccccc1COc1ccc(S(=O)(=O)Nc2cc3c(cc2[O-])CCCN3)cc1 (3D coordinates assigned)
Cc1ccccc1COc1ccc(S(=O)(=O)Nc2cc3c(cc2[O-])CCCN3)cc1 (nonaromatic ring conformer: 62.63605643978353 kcal/mol)

>  <smiles>  (19) 
Cc1ccccc1COc1ccc(S(=O)(=O)Nc2cc3c(cc2O)CCCN3)cc1

>  <score_type>  (19) 
oracle

>  <origin>  (19) 
adgpu

>  <m_score__min__energy>  (19) 
-14

>  <m_primary>  (19) 
energy

$$$$
19:0
     RDKit          3D

 36 38  0  0  0  0  0  0  0  0999 V2000
   -5.9090   16.2790  -33.3980 C   0  0  0  0  0  0  0  0  0  0  0  0
   -7.0520   17.0920  -33.6380 O   0  0  0  0  0  0  0  0  0  0  0  0
   -7.2510   18.3680  -33.0860 C   0  0  0  0  0  0  0  0  0  0  0  0
   -8.3560   18.6630  -32.2640 C   0  0  0  0  0  0  0  0  0  0  0  0
   -8.5170   19.9400  -31.7270 C   0  0  0  0  0  0  0  0  0  0  0  0
   -7.5790   20.9420  -32.0000 C   0  0  0  0  0  0  0  0  0  0  0  0
   -7.7660   22.5470  -31.2980 S   0  0  0  0  0  0  0  0  0  0  0  0
   -8.9860   23.1940  -31.8900 O   0  0  0  0  0  0  0  0  0  0  0  0
   -7.9330   22.4540  -29.8080 O   0  0  0  0  0  0  0  0  0  0  0  0
   -6.3780   23.5230  -31.6530 N   0  0  0  0  0  0  0  0  0  0  0  0
   -5.0910   23.3830  -31.0380 C   0  0  0  0  0  0  0  0  0  0  0  0
   -4.4170   22.1310  -30.9750 C   0  0  0  0  0  0  0  0  0  0  0  0
   -3.1450   22.0290  -30.3780 C   0  0  0  0  0  0  0  0  0  0  0  0
   -2.5830   23.1880  -29.8530 C   0  0  0  0  0  0  0  0  0  0  0  0
   -1.3940   23.3230  -29.2420 N   0  0  0  0  0  0  0  0  0  0  0  0
   -1.3900   24.6500  -28.9530 C   0  0  0  0  0  0  0  0  0  0  0  0
   -0.4330   25.2150  -28.3620 O   0  0  0  0  0  0  0  0  0  0  0  0
   -2.4750   25.2940  -29.3450 O   0  0  0  0  0  0  0  0  0  0  0  0
   -3.2260   24.3870  -29.9080 C   0  0  0  0  0  0  0  0  0  0  0  0
   -4.4810   24.5300  -30.4900 C   0  0  0  0  0  0  0  0  0  0  0  0
   -6.4860   20.6610  -32.8290 C   0  0  0  0  0  0  0  0  0  0  0  0
   -6.3130   19.3730  -33.3720 C   0  0  0  0  0  0  0  0  0  0  0  0
   -5.2220   19.0540  -34.1960 O   0  0  0  0  0  0  0  0  0  0  0  0
   -3.8560   19.2250  -33.8290 C   0  0  0  0  0  0  0  0  0  0  0  0
   -5.7570   16.1709  -32.3139 H   0  0  0  0  0  0  0  0  0  0  0  0
   -6.0638   15.2869  -33.8473 H   0  0  0  0  0  0  0  0  0  0  0  0
   -5.0226   16.7507  -33.8473 H   0  0  0  0  0  0  0  0  0  0  0  0
   -9.0973   17.8806  -32.0440 H   0  0  0  0  0  0  0  0  0  0  0  0
   -9.3840   20.1603  -31.0869 H   0  0  0  0  0  0  0  0  0  0  0  0
   -4.8941   21.2340  -31.3967 H   0  0  0  0  0  0  0  0  0  0  0  0
   -2.6148   21.0665  -30.3288 H   0  0  0  0  0  0  0  0  0  0  0  0
   -4.9826   25.5085  -30.5218 H   0  0  0  0  0  0  0  0  0  0  0  0
   -5.7569   21.4522  -33.0579 H   0  0  0  0  0  0  0  0  0  0  0  0
   -3.7695   19.2358  -32.7325 H   0  0  0  0  0  0  0  0  0  0  0  0
   -3.2603   18.3944  -34.2356 H   0  0  0  0  0  0  0  0  0  0  0  0
   -3.4835   20.1768  -34.2356 H   0  0  0  0  0  0  0  0  0  0  0  0
  1  2  1  0
  2  3  1  0
  3  4  2  0
  4  5  1  0
  5  6  2  0
  6  7  1  0
  7  8  2  0
  7  9  2  0
  7 10  1  0
 10 11  1  0
 11 12  2  0
 12 13  1  0
 13 14  2  0
 14 15  1  0
 15 16  1  0
 16 17  2  0
 16 18  1  0
 18 19  1  0
 19 20  2  0
  6 21  1  0
 21 22  2  0
 22 23  1  0
 23 24  1  0
 22  3  1  0
 20 11  1  0
 19 14  1  0
  1 25  1  0
  1 26  1  0
  1 27  1  0
  4 28  1  0
  5 29  1  0
 12 30  1  0
 13 31  1  0
 20 32  1  0
 21 33  1  0
 24 34  1  0
 24 35  1  0
 24 36  1  0
M  CHG  2  10  -1  15  -1
M  END
>  <UniqueID>  (20) 
20

>  <SMILES>  (20) 
COc1ccc(S(=O)(=O)[N-]c2ccc3[n-]c(=O)oc3c2)cc1OC

>  <Energy>  (20) 
78.25475997188778

>  <Genealogy>  (20) 
COc1ccc(S(=O)(=O)[N-]c2ccc3[n-]c(=O)oc3c2)cc1OC (protonated)
COc1ccc(S(=O)(=O)[N-]c2ccc3[n-]c(=O)oc3c2)cc1OC (3D coordinates assigned)
COc1ccc(S(=O)(=O)[N-]c2ccc3[n-]c(=O)oc3c2)cc1OC (optimized conformer: 78.25475997188778 kcal/mol)

>  <smiles>  (20) 
COc1ccc(S(=O)(=O)Nc2ccc3[nH]c(=O)oc3c2)cc1OC

>  <score_type>  (20) 
oracle

>  <origin>  (20) 
adgpu

>  <m_score__min__energy>  (20) 
-8.9100000000000001

>  <m_primary>  (20) 
energy

$$$$
20:0
     RDKit          3D

 60 64  0  0  0  0  0  0  0  0999 V2000
    0.7860   17.1070  -27.5000 C   0  0  0  0  0  0  0  0  0  0  0  0
   -0.1750   18.1790  -27.8940 C   0  0  0  0  0  0  0  0  0  0  0  0
   -1.2510   18.4600  -27.0830 C   0  0  0  0  0  0  0  0  0  0  0  0
   -2.1130   19.4430  -27.4860 C   0  0  0  0  0  0  0  0  0  0  0  0
   -1.9690   20.1690  -28.6520 C   0  0  0  0  0  0  0  0  0  0  0  0
   -0.8860   19.8780  -29.4610 C   0  0  0  0  0  0  0  0  0  0  0  0
   -0.6220   20.5870  -30.7470 C   0  0  0  0  0  0  0  0  0  0  0  0
   -1.7430   21.4590  -31.0870 N   0  0  0  0  0  0  0  0  0  0  0  0
   -2.6150   21.3680  -32.1140 C   0  0  0  0  0  0  0  0  0  0  0  0
   -2.5700   20.0850  -33.3200 S   0  0  0  0  0  0  0  0  0  0  0  0
   -4.0690   19.1640  -33.5150 C   0  0  0  0  0  0  0  0  0  0  0  0
   -4.1060   17.7950  -33.6530 C   0  0  0  0  0  0  0  0  0  0  0  0
   -5.3000   17.1240  -33.7420 C   0  0  0  0  0  0  0  0  0  0  0  0
   -5.2990   15.3680  -33.9200 Cl  0  0  0  0  0  0  0  0  0  0  0  0
   -6.4810   17.8320  -33.6930 C   0  0  0  0  0  0  0  0  0  0  0  0
   -6.4970   19.1970  -33.5570 C   0  0  0  0  0  0  0  0  0  0  0  0
   -7.7080   20.0300  -33.4510 C   0  0  0  0  0  0  0  0  0  0  0  0
   -8.2770   20.0970  -32.1420 N   0  0  0  0  0  0  0  0  0  0  0  0
   -7.1780   20.5730  -31.2730 C   0  0  0  0  0  0  0  0  0  0  0  0
   -7.1490   22.0630  -31.2110 C   0  0  0  0  0  0  0  0  0  0  0  0
   -8.3020   22.5480  -30.4630 N   0  0  0  0  0  0  0  0  0  0  0  0
   -9.3670   21.5510  -30.5890 C   0  0  0  0  0  0  0  0  0  0  0  0
   -9.3440   21.0860  -32.0480 C   0  0  0  0  0  0  0  0  0  0  0  0
   -5.2730   19.8690  -33.4680 C   0  0  0  0  0  0  0  0  0  0  0  0
   -5.2510   21.2390  -33.3320 O   0  0  0  0  0  0  0  0  0  0  0  0
   -3.4820   22.4060  -32.0140 N   0  0  0  0  0  0  0  0  0  0  0  0
   -3.1460   23.1240  -30.9390 C   0  0  0  0  0  0  0  0  0  0  0  0
   -3.6620   24.2700  -30.3480 C   0  0  0  0  0  0  0  0  0  0  0  0
   -4.6830   24.8940  -30.8140 N   0  0  0  0  0  0  0  0  0  0  0  0
   -3.0960   24.7820  -29.2310 N   0  0  0  0  0  0  0  0  0  0  0  0
   -2.0290   24.1860  -28.6780 C   0  0  0  0  0  0  0  0  0  0  0  0
   -1.4910   23.0650  -29.2180 N   0  0  0  0  0  0  0  0  0  0  0  0
   -2.0350   22.5420  -30.3240 C   0  0  0  0  0  0  0  0  0  0  0  0
    0.0060   18.8780  -29.0690 C   0  0  0  0  0  0  0  0  0  0  0  0
    0.8393   17.0475  -26.4029 H   0  0  0  0  0  0  0  0  0  0  0  0
    0.4447   16.1422  -27.9034 H   0  0  0  0  0  0  0  0  0  0  0  0
    1.7822   17.3413  -27.9034 H   0  0  0  0  0  0  0  0  0  0  0  0
   -1.4124   17.9127  -26.1426 H   0  0  0  0  0  0  0  0  0  0  0  0
   -2.9748   19.6693  -26.8409 H   0  0  0  0  0  0  0  0  0  0  0  0
   -2.6910   20.9518  -28.9276 H   0  0  0  0  0  0  0  0  0  0  0  0
    0.2907   21.1926  -30.6462 H   0  0  0  0  0  0  0  0  0  0  0  0
   -0.4947   19.8416  -31.5458 H   0  0  0  0  0  0  0  0  0  0  0  0
   -3.1633   17.2295  -33.6926 H   0  0  0  0  0  0  0  0  0  0  0  0
   -7.4350   17.2891  -33.7647 H   0  0  0  0  0  0  0  0  0  0  0  0
   -7.4486   21.0521  -33.7640 H   0  0  0  0  0  0  0  0  0  0  0  0
   -8.4655   19.5580  -34.0939 H   0  0  0  0  0  0  0  0  0  0  0  0
   -7.3239   20.1740  -30.2583 H   0  0  0  0  0  0  0  0  0  0  0  0
   -6.2238   20.2223  -31.6930 H   0  0  0  0  0  0  0  0  0  0  0  0
   -6.2254   22.3899  -30.7109 H   0  0  0  0  0  0  0  0  0  0  0  0
   -7.1811   22.4699  -32.2325 H   0  0  0  0  0  0  0  0  0  0  0  0
   -8.0370   22.6890  -29.4390 H   0  0  0  0  0  0  0  0  0  0  0  0
   -9.1772   20.7026  -29.9150 H   0  0  0  0  0  0  0  0  0  0  0  0
  -10.3460   21.9726  -30.3173 H   0  0  0  0  0  0  0  0  0  0  0  0
  -10.3090   20.6330  -32.3193 H   0  0  0  0  0  0  0  0  0  0  0  0
   -9.1723   21.9279  -32.7348 H   0  0  0  0  0  0  0  0  0  0  0  0
   -4.6040   21.8450  -33.8180 H   0  0  0  0  0  0  0  0  0  0  0  0
   -5.1380   24.5160  -31.6710 H   0  0  0  0  0  0  0  0  0  0  0  0
   -3.4770   25.6590  -28.7650 H   0  0  0  0  0  0  0  0  0  0  0  0
   -1.5821   24.6151  -27.7691 H   0  0  0  0  0  0  0  0  0  0  0  0
    0.8692   18.6433  -29.7092 H   0  0  0  0  0  0  0  0  0  0  0  0
  1  2  1  0
  2  3  2  0
  3  4  1  0
  4  5  2  0
  5  6  1  0
  6  7  1  0
  7  8  1  0
  8  9  1  0
  9 10  1  0
 10 11  1  0
 11 12  2  0
 12 13  1  0
 13 14  1  0
 13 15  2  0
 15 16  1  0
 16 17  1  0
 17 18  1  0
 18 19  1  0
 19 20  1  0
 20 21  1  0
 21 22  1  0
 22 23  1  0
 16 24  2  0
 24 25  1  0
  9 26  2  0
 26 27  1  0
 27 28  1  0
 28 29  2  3
 28 30  1  0
 30 31  1  0
 31 32  2  0
 32 33  1  0
  6 34  2  0
 34  2  1  0
 33  8  1  0
 24 11  1  0
 33 27  2  0
 23 18  1  0
  1 35  1  0
  1 36  1  0
  1 37  1  0
  3 38  1  0
  4 39  1  0
  5 40  1  0
  7 41  1  0
  7 42  1  0
 12 43  1  0
 15 44  1  0
 17 45  1  0
 17 46  1  0
 19 47  1  0
 19 48  1  0
 20 49  1  0
 20 50  1  0
 21 51  1  0
 22 52  1  0
 22 53  1  0
 23 54  1  0
 23 55  1  0
 25 56  1  0
 29 57  1  0
 30 58  1  0
 31 59  1  0
 34 60  1  0
M  END
>  <smiles>  (21) 
Cc1cccc(Cn2c(Sc3cc(Cl)cc(CN4CCNCC4)c3O)nc3c(=N)[nH]cnc32)c1

>  <score_type>  (21) 
oracle

>  <origin>  (21) 
adgpu

>  <m_score__min__energy>  (21) 
-10.109999999999999

>  <m_primary>  (21) 
energy

$$$$
21:0
     RDKit          3D

 53 56  0  0  0  0  0  0  0  0999 V2000
   -1.4240   25.7600  -28.9500 O   0  0  0  0  0  0  0  0  0  0  0  0
   -2.3210   24.8930  -29.1250 C   0  0  0  0  0  0  0  0  0  0  0  0
   -3.1290   24.9050  -30.3060 N   0  0  0  0  0  0  0  0  0  0  0  0
   -4.4330   24.3250  -30.4290 C   0  0  0  0  0  0  0  0  0  0  0  0
   -5.5830   24.9870  -29.9670 C   0  0  0  0  0  0  0  0  0  0  0  0
   -6.8390   24.3910  -30.1100 C   0  0  0  0  0  0  0  0  0  0  0  0
   -6.9550   23.1330  -30.7090 C   0  0  0  0  0  0  0  0  0  0  0  0
   -5.8160   22.4670  -31.1780 C   0  0  0  0  0  0  0  0  0  0  0  0
   -5.9550   20.8630  -31.9090 S   0  0  0  0  0  0  0  0  0  0  0  0
   -4.8800   19.9740  -31.3480 O   0  0  0  0  0  0  0  0  0  0  0  0
   -5.7370   20.9790  -33.3920 O   0  0  0  0  0  0  0  0  0  0  0  0
   -7.5130   20.1240  -31.6160 N   0  0  0  0  0  0  0  0  0  0  0  0
   -7.4300   18.6660  -31.5910 C   0  0  0  0  0  0  0  0  0  0  0  0
   -8.8090   18.1490  -31.9700 C   0  0  0  0  0  0  0  0  0  0  0  0
   -9.4900   19.3070  -32.6850 C   0  0  0  0  0  0  0  0  0  0  0  0
   -8.4790   20.4440  -32.6650 C   0  0  0  0  0  0  0  0  0  0  0  0
   -4.5600   23.0810  -31.0590 C   0  0  0  0  0  0  0  0  0  0  0  0
   -2.5740   23.9060  -28.1220 N   0  0  0  0  0  0  0  0  0  0  0  0
   -1.9100   22.6380  -28.0380 C   0  0  0  0  0  0  0  0  0  0  0  0
   -1.6280   22.1200  -26.7670 C   0  0  0  0  0  0  0  0  0  0  0  0
   -1.0260   20.8680  -26.6280 C   0  0  0  0  0  0  0  0  0  0  0  0
   -0.6890   20.1250  -27.7600 C   0  0  0  0  0  0  0  0  0  0  0  0
   -0.9340   20.6420  -29.0350 C   0  0  0  0  0  0  0  0  0  0  0  0
   -1.5130   21.9100  -29.1900 C   0  0  0  0  0  0  0  0  0  0  0  0
   -1.6800   22.4300  -30.5210 N   0  0  0  0  0  0  0  0  0  0  0  0
   -1.4600   21.6700  -31.7240 C   0  0  0  0  0  0  0  0  0  0  0  0
   -2.5160   21.3540  -32.6010 C   0  0  0  0  0  0  0  0  0  0  0  0
   -2.2740   20.6020  -33.7540 C   0  0  0  0  0  0  0  0  0  0  0  0
   -0.9780   20.1730  -34.0530 C   0  0  0  0  0  0  0  0  0  0  0  0
    0.0800   20.5020  -33.2020 C   0  0  0  0  0  0  0  0  0  0  0  0
   -0.1580   21.2480  -32.0430 C   0  0  0  0  0  0  0  0  0  0  0  0
   -5.4947   25.9753  -29.4923 H   0  0  0  0  0  0  0  0  0  0  0  0
   -7.7382   24.9127  -29.7505 H   0  0  0  0  0  0  0  0  0  0  0  0
   -7.9449   22.6646  -30.8123 H   0  0  0  0  0  0  0  0  0  0  0  0
   -6.6803   18.3155  -32.3156 H   0  0  0  0  0  0  0  0  0  0  0  0
   -7.1273   18.3015  -30.5983 H   0  0  0  0  0  0  0  0  0  0  0  0
   -8.7241   17.2798  -32.6387 H   0  0  0  0  0  0  0  0  0  0  0  0
   -9.3793   17.8187  -31.0893 H   0  0  0  0  0  0  0  0  0  0  0  0
   -9.7361   19.0289  -33.7204 H   0  0  0  0  0  0  0  0  0  0  0  0
  -10.4345   19.5904  -32.1976 H   0  0  0  0  0  0  0  0  0  0  0  0
   -7.9719   20.5184  -33.6383 H   0  0  0  0  0  0  0  0  0  0  0  0
   -8.9703   21.4090  -32.4715 H   0  0  0  0  0  0  0  0  0  0  0  0
   -3.6678   22.5810  -31.4639 H   0  0  0  0  0  0  0  0  0  0  0  0
   -1.8831   22.7048  -25.8710 H   0  0  0  0  0  0  0  0  0  0  0  0
   -0.8172   20.4669  -25.6252 H   0  0  0  0  0  0  0  0  0  0  0  0
   -0.2301   19.1315  -27.6487 H   0  0  0  0  0  0  0  0  0  0  0  0
   -0.6707   20.0499  -29.9239 H   0  0  0  0  0  0  0  0  0  0  0  0
   -2.0790   23.3910  -30.6150 H   0  0  0  0  0  0  0  0  0  0  0  0
   -3.5357   21.7006  -32.3774 H   0  0  0  0  0  0  0  0  0  0  0  0
   -3.1055   20.3473  -34.4276 H   0  0  0  0  0  0  0  0  0  0  0  0
   -0.7910   19.5765  -34.9581 H   0  0  0  0  0  0  0  0  0  0  0  0
    1.1017   20.1739  -33.4438 H   0  0  0  0  0  0  0  0  0  0  0  0
    0.6789   21.5059  -31.3773 H   0  0  0  0  0  0  0  0  0  0  0  0
  1  2  2  0
  2  3  1  0
  3  4  1  0
  4  5  2  0
  5  6  1  0
  6  7  2  0
  7  8  1  0
  8  9  1  0
  9 10  2  0
  9 11  2  0
  9 12  1  0
 12 13  1  0
 13 14  1  0
 14 15  1  0
 15 16  1  0
  8 17  2  0
  2 18  1  0
 18 19  1  0
 19 20  2  0
 20 21  1  0
 21 22  2  0
 22 23  1  0
 23 24  2  0
 24 25  1  0
 25 26  1  0
 26 27  2  0
 27 28  1  0
 28 29  2  0
 29 30  1  0
 30 31  2  0
 17  4  1  0
 24 19  1  0
 31 26  1  0
 16 12  1  0
  5 32  1  0
  6 33  1  0
  7 34  1  0
 13 35  1  0
 13 36  1  0
 14 37  1  0
 14 38  1  0
 15 39  1  0
 15 40  1  0
 16 41  1  0
 16 42  1  0
 17 43  1  0
 20 44  1  0
 21 45  1  0
 22 46  1  0
 23 47  1  0
 25 48  1  0
 27 49  1  0
 28 50  1  0
 29 51  1  0
 30 52  1  0
 31 53  1  0
M  CHG  2   3  -1  18  -1
M  END
>  <UniqueID>  (22) 
21

>  <SMILES>  (22) 
O=C([N-]c1cccc(S(=O)(=O)N2CCCC2)c1)[N-]c1ccccc1Nc1ccccc1

>  <Energy>  (22) 
70.3009964516337

>  <Genealogy>  (22) 
O=C([N-]c1cccc(S(=O)(=O)N2CCCC2)c1)[N-]c1ccccc1Nc1ccccc1 (protonated)
O=C([N-]c1cccc(S(=O)(=O)N2CCCC2)c1)[N-]c1ccccc1Nc1ccccc1 (3D coordinates assigned)
O=C([N-]c1cccc(S(=O)(=O)N2CCCC2)c1)[N-]c1ccccc1Nc1ccccc1 (nonaromatic ring conformer: 70.3009964516337 kcal/mol)

>  <smiles>  (22) 
O=C(Nc1cccc(S(=O)(=O)N2CCCC2)c1)Nc1ccccc1Nc1ccccc1

>  <score_type>  (22) 
oracle

>  <origin>  (22) 
adgpu

>  <m_score__min__energy>  (22) 
-12.779999999999999

>  <m_primary>  (22) 
energy

$$$$
22:0
     RDKit          3D

 56 59  0  0  0  0  0  0  0  0999 V2000
   -6.4340   25.9470  -29.3390 C   0  0  0  0  0  0  0  0  0  0  0  0
   -5.3180   25.6360  -30.1650 O   0  0  0  0  0  0  0  0  0  0  0  0
   -4.9060   24.3380  -30.4990 C   0  0  0  0  0  0  0  0  0  0  0  0
   -5.7890   23.3930  -31.0580 C   0  0  0  0  0  0  0  0  0  0  0  0
   -5.3430   22.1060  -31.4070 C   0  0  0  0  0  0  0  0  0  0  0  0
   -6.2870   21.1010  -31.9750 C   0  0  0  0  0  0  0  0  0  0  0  0
   -7.6720   21.2810  -31.8530 C   0  0  0  0  0  0  0  0  0  0  0  0
   -8.5440   20.3420  -32.4020 C   0  0  0  0  0  0  0  0  0  0  0  0
   -8.0560   19.2570  -33.0530 N   0  0  0  0  0  0  0  0  0  0  0  0
   -6.7200   19.0390  -33.1980 C   0  0  0  0  0  0  0  0  0  0  0  0
   -6.2710   17.8490  -33.8820 N   0  0  0  0  0  0  0  0  0  0  0  0
   -6.8150   16.5490  -33.4800 C   0  0  0  0  0  0  0  0  0  0  0  0
   -6.0980   15.4000  -34.2060 C   0  0  0  0  0  0  0  0  0  0  0  0
   -4.6420   15.6270  -34.1990 N   0  0  0  0  0  0  0  0  0  0  0  0
   -4.2350   16.8820  -34.8770 C   0  0  0  0  0  0  0  0  0  0  0  0
   -5.3780   17.8970  -35.0500 C   0  0  0  0  0  0  0  0  0  0  0  0
   -5.8120   19.9610  -32.6450 C   0  0  0  0  0  0  0  0  0  0  0  0
   -3.9940   21.7830  -31.1990 C   0  0  0  0  0  0  0  0  0  0  0  0
   -3.1120   22.7240  -30.6760 C   0  0  0  0  0  0  0  0  0  0  0  0
   -3.5620   23.9900  -30.2960 C   0  0  0  0  0  0  0  0  0  0  0  0
   -2.6390   24.9260  -29.7240 N   0  0  0  0  0  0  0  0  0  0  0  0
   -1.7820   24.5730  -28.6380 C   0  0  0  0  0  0  0  0  0  0  0  0
   -1.3080   23.4140  -28.5760 O   0  0  0  0  0  0  0  0  0  0  0  0
   -1.4860   25.5440  -27.5800 C   0  0  0  0  0  0  0  0  0  0  0  0
   -1.7220   25.3610  -26.2330 C   0  0  0  0  0  0  0  0  0  0  0  0
   -1.1880   26.4920  -25.6470 C   0  0  0  0  0  0  0  0  0  0  0  0
   -1.1320   26.7630  -24.1800 C   0  0  0  0  0  0  0  0  0  0  0  0
   -0.6810   27.2940  -26.6100 N   0  0  0  0  0  0  0  0  0  0  0  0
    0.0120   28.5650  -26.4390 C   0  0  0  0  0  0  0  0  0  0  0  0
   -0.8530   26.7140  -27.7850 N   0  0  0  0  0  0  0  0  0  0  0  0
   -6.1416   25.8655  -28.2817 H   0  0  0  0  0  0  0  0  0  0  0  0
   -6.7705   26.9731  -29.5484 H   0  0  0  0  0  0  0  0  0  0  0  0
   -7.2527   25.2428  -29.5484 H   0  0  0  0  0  0  0  0  0  0  0  0
   -6.8417   23.6658  -31.2237 H   0  0  0  0  0  0  0  0  0  0  0  0
   -8.0695   22.1607  -31.3256 H   0  0  0  0  0  0  0  0  0  0  0  0
   -9.6310   20.4815  -32.3069 H   0  0  0  0  0  0  0  0  0  0  0  0
   -6.6844   16.4251  -32.3948 H   0  0  0  0  0  0  0  0  0  0  0  0
   -7.8816   16.5192  -33.7473 H   0  0  0  0  0  0  0  0  0  0  0  0
   -6.3208   14.4516  -33.6952 H   0  0  0  0  0  0  0  0  0  0  0  0
   -6.4506   15.3562  -35.2470 H   0  0  0  0  0  0  0  0  0  0  0  0
   -4.3070   15.6430  -33.2050 H   0  0  0  0  0  0  0  0  0  0  0  0
   -4.1790   14.8170  -34.6670 H   0  0  0  0  0  0  0  0  0  0  0  0
   -3.4395   17.3545  -34.2821 H   0  0  0  0  0  0  0  0  0  0  0  0
   -3.8994   16.6044  -35.8871 H   0  0  0  0  0  0  0  0  0  0  0  0
   -4.9563   18.9085  -35.1454 H   0  0  0  0  0  0  0  0  0  0  0  0
   -5.9512   17.6463  -35.9548 H   0  0  0  0  0  0  0  0  0  0  0  0
   -4.7295   19.7890  -32.7374 H   0  0  0  0  0  0  0  0  0  0  0  0
   -3.6297   20.7763  -31.4517 H   0  0  0  0  0  0  0  0  0  0  0  0
   -2.0485   22.4675  -30.5607 H   0  0  0  0  0  0  0  0  0  0  0  0
   -2.2194   24.5124  -25.7406 H   0  0  0  0  0  0  0  0  0  0  0  0
   -1.3245   25.8315  -23.6275 H   0  0  0  0  0  0  0  0  0  0  0  0
   -0.1356   27.1468  -23.9158 H   0  0  0  0  0  0  0  0  0  0  0  0
   -1.8947   27.5103  -23.9158 H   0  0  0  0  0  0  0  0  0  0  0  0
    0.1281   28.7779  -25.3661 H   0  0  0  0  0  0  0  0  0  0  0  0
    1.0040   28.5082  -26.9110 H   0  0  0  0  0  0  0  0  0  0  0  0
   -0.5731   29.3681  -26.9110 H   0  0  0  0  0  0  0  0  0  0  0  0
  1  2  1  0
  2  3  1  0
  3  4  2  0
  4  5  1  0
  5  6  1  0
  6  7  2  0
  7  8  1  0
  8  9  2  0
  9 10  1  0
 10 11  1  0
 11 12  1  0
 12 13  1  0
 13 14  1  0
 14 15  1  0
 15 16  1  0
 10 17  2  0
  5 18  2  0
 18 19  1  0
 19 20  2  0
 20 21  1  0
 21 22  1  0
 22 23  2  0
 22 24  1  0
 24 25  1  0
 25 26  2  0
 26 27  1  0
 26 28  1  0
 28 29  1  0
 28 30  1  0
 20  3  1  0
 30 24  2  0
 17  6  1  0
 16 11  1  0
  1 31  1  0
  1 32  1  0
  1 33  1  0
  4 34  1  0
  7 35  1  0
  8 36  1  0
 12 37  1  0
 12 38  1  0
 13 39  1  0
 13 40  1  0
 14 41  1  0
 14 42  1  0
 15 43  1  0
 15 44  1  0
 16 45  1  0
 16 46  1  0
 17 47  1  0
 18 48  1  0
 19 49  1  0
 25 50  1  0
 27 51  1  0
 27 52  1  0
 27 53  1  0
 29 54  1  0
 29 55  1  0
 29 56  1  0
M  CHG  2  14   1  21  -1
M  END
>  <UniqueID>  (23) 
22

>  <SMILES>  (23) 
COc1cc(-c2ccnc(N3CC[NH2+]CC3)c2)ccc1[N-]C(=O)c1cc(C)n(C)n1

>  <Energy>  (23) 
112.70594260530923

>  <Genealogy>  (23) 
COc1cc(-c2ccnc(N3CC[NH2+]CC3)c2)ccc1[N-]C(=O)c1cc(C)n(C)n1 (protonated)
COc1cc(-c2ccnc(N3CC[NH2+]CC3)c2)ccc1[N-]C(=O)c1cc(C)n(C)n1 (3D coordinates assigned)
COc1cc(-c2ccnc(N3CC[NH2+]CC3)c2)ccc1[N-]C(=O)c1cc(C)n(C)n1 (nonaromatic ring conformer: 112.70594260530923 kcal/mol)

>  <smiles>  (23) 
COc1cc(-c2ccnc(N3CCNCC3)c2)ccc1NC(=O)c1cc(C)n(C)n1

>  <score_type>  (23) 
oracle

>  <origin>  (23) 
adgpu

>  <m_score__min__energy>  (23) 
-10.4

>  <m_primary>  (23) 
energy

$$$$
23:0
     RDKit          3D

 59 63  0  0  0  0  0  0  0  0999 V2000
   -3.1323   22.7486  -30.8534 H   0  0  0  0  0  0  0  0  0  0  0  0
   -4.1120   22.4030  -31.2150 C   0  0  0  0  0  0  0  0  0  0  0  0
   -4.2080   21.2300  -31.8920 N   0  0  0  0  0  0  0  0  0  0  0  0
   -5.3960   20.7560  -32.3610 C   0  0  0  0  0  0  0  0  0  0  0  0
   -5.4300   19.5030  -33.0690 N   0  0  0  0  0  0  0  0  0  0  0  0
   -6.2440   19.2910  -34.2540 C   0  0  0  0  0  0  0  0  0  0  0  0
   -7.2934   19.5515  -34.0519 H   0  0  0  0  0  0  0  0  0  0  0  0
   -5.9153   19.9200  -35.0944 H   0  0  0  0  0  0  0  0  0  0  0  0
   -6.1150   17.8080  -34.5720 C   0  0  0  0  0  0  0  0  0  0  0  0
   -6.9691   17.2510  -34.1593 H   0  0  0  0  0  0  0  0  0  0  0  0
   -6.1047   17.6234  -35.6564 H   0  0  0  0  0  0  0  0  0  0  0  0
   -4.8000   17.3530  -33.9020 C   0  0  1  0  0  0  0  0  0  0  0  0
   -4.6630   18.3210  -32.7030 C   0  0  0  0  0  0  0  0  0  0  0  0
   -5.0733   17.8636  -31.7906 H   0  0  0  0  0  0  0  0  0  0  0  0
   -3.6112   18.5653  -32.4934 H   0  0  0  0  0  0  0  0  0  0  0  0
   -4.9040   15.8670  -33.4480 C   0  0  0  0  0  0  0  0  0  0  0  0
   -5.3429   15.8283  -32.4401 H   0  0  0  0  0  0  0  0  0  0  0  0
   -5.5382   15.3243  -34.1644 H   0  0  0  0  0  0  0  0  0  0  0  0
   -3.5200   15.2050  -33.4190 C   0  0  0  0  0  0  0  0  0  0  0  0
   -2.8610   15.7894  -32.7601 H   0  0  0  0  0  0  0  0  0  0  0  0
   -3.6440   14.1766  -33.0489 H   0  0  0  0  0  0  0  0  0  0  0  0
   -2.9040   15.1340  -34.7750 N   0  0  2  0  0  0  0  0  0  0  0  0
   -3.2420   14.2510  -35.2310 H   0  0  0  0  0  0  0  0  0  0  0  0
   -1.4250   15.0450  -34.6840 C   0  0  0  0  0  0  0  0  0  0  0  0
   -1.1412   13.9923  -34.5379 H   0  0  0  0  0  0  0  0  0  0  0  0
   -1.0032   15.4459  -35.6175 H   0  0  0  0  0  0  0  0  0  0  0  0
   -0.8760   15.8620  -33.5360 C   0  0  0  0  0  0  0  0  0  0  0  0
   -0.7570   17.2560  -33.6550 C   0  0  0  0  0  0  0  0  0  0  0  0
   -1.0811   17.7567  -34.5792 H   0  0  0  0  0  0  0  0  0  0  0  0
   -0.2280   18.0100  -32.6030 C   0  0  0  0  0  0  0  0  0  0  0  0
   -0.1408   19.1023  -32.6997 H   0  0  0  0  0  0  0  0  0  0  0  0
    0.1900   17.3780  -31.4290 C   0  0  0  0  0  0  0  0  0  0  0  0
    0.6051   17.9730  -30.6021 H   0  0  0  0  0  0  0  0  0  0  0  0
    0.0810   15.9910  -31.3050 C   0  0  0  0  0  0  0  0  0  0  0  0
    0.4128   15.4945  -30.3812 H   0  0  0  0  0  0  0  0  0  0  0  0
   -0.4490   15.2330  -32.3530 C   0  0  0  0  0  0  0  0  0  0  0  0
   -0.5324   14.1408  -32.2520 H   0  0  0  0  0  0  0  0  0  0  0  0
   -3.3100   16.2570  -35.6690 C   0  0  0  0  0  0  0  0  0  0  0  0
   -2.4963   16.4523  -36.3830 H   0  0  0  0  0  0  0  0  0  0  0  0
   -4.2348   15.9585  -36.1845 H   0  0  0  0  0  0  0  0  0  0  0  0
   -3.6030   17.5470  -34.8900 C   0  0  0  0  0  0  0  0  0  0  0  0
   -2.7078   17.8313  -34.3174 H   0  0  0  0  0  0  0  0  0  0  0  0
   -3.8702   18.3349  -35.6097 H   0  0  0  0  0  0  0  0  0  0  0  0
   -6.5650   21.5070  -32.1440 C   0  0  0  0  0  0  0  0  0  0  0  0
   -7.5337   21.1439  -32.5180 H   0  0  0  0  0  0  0  0  0  0  0  0
   -6.4880   22.7160  -31.4510 C   0  0  0  0  0  0  0  0  0  0  0  0
   -7.3978   23.3097  -31.2782 H   0  0  0  0  0  0  0  0  0  0  0  0
   -5.2540   23.1730  -30.9760 C   0  0  0  0  0  0  0  0  0  0  0  0
   -5.1180   24.6950  -30.1050 S   0  0  0  0  0  0  0  0  0  0  0  0
   -6.4790   25.2900  -29.8740 O   0  0  0  0  0  0  0  0  0  0  0  0
   -4.2850   25.6450  -30.9200 O   0  0  0  0  0  0  0  0  0  0  0  0
   -4.3580   24.3940  -28.5750 N   0  0  0  0  0  0  0  0  0  0  0  0
   -3.0880   24.5470  -28.3670 C   0  0  0  0  0  0  0  0  0  0  0  0
   -2.2100   24.9560  -29.3100 N   0  0  0  0  0  0  0  0  0  0  0  0
   -0.9440   25.0140  -28.8160 C   0  0  0  0  0  0  0  0  0  0  0  0
   -0.0846   25.3236  -29.4289 H   0  0  0  0  0  0  0  0  0  0  0  0
   -0.8160   24.6530  -27.4790 C   0  0  0  0  0  0  0  0  0  0  0  0
    0.1208   24.6349  -26.9027 H   0  0  0  0  0  0  0  0  0  0  0  0
   -2.3440   24.2480  -26.8940 S   0  0  0  0  0  0  0  0  0  0  0  0
  1  2  1  0
  2  3  2  0
  3  4  1  0
  4  5  1  0
  5  6  1  0
  6  7  1  0
  6  8  1  0
  6  9  1  0
  9 10  1  0
  9 11  1  0
 12  9  1  1
 12 13  1  0
 13 14  1  0
 13 15  1  0
 12 16  1  0
 16 17  1  0
 16 18  1  0
 16 19  1  0
 19 20  1  0
 19 21  1  0
 19 22  1  0
 22 23  1  1
 22 24  1  0
 24 25  1  0
 24 26  1  0
 24 27  1  0
 27 28  2  0
 28 29  1  0
 28 30  1  0
 30 31  1  0
 30 32  2  0
 32 33  1  0
 32 34  1  0
 34 35  1  0
 34 36  2  0
 36 37  1  0
 22 38  1  0
 38 39  1  0
 38 40  1  0
 38 41  1  0
 41 42  1  0
 41 43  1  0
  4 44  2  0
 44 45  1  0
 44 46  1  0
 46 47  1  0
 46 48  2  0
 48 49  1  0
 49 50  2  0
 49 51  2  0
 49 52  1  0
 52 53  2  0
 53 54  1  0
 54 55  1  0
 55 56  1  0
 55 57  2  0
 57 58  1  0
 57 59  1  0
 48  2  1  0
 59 53  1  0
 13  5  1  0
 36 27  1  0
 41 12  1  0
M  CHG  2  22   1  54  -1
M  END
>  <UniqueID>  (24) 
23

>  <SMILES>  (24) 
O=S(=O)(/N=c1\[n-]ccs1)c1ccc(N2CCC3(CC[NH+](Cc4ccccc4)CC3)C2)nc1

>  <Energy>  (24) 
111.81015246123603

>  <Genealogy>  (24) 
O=S(=O)(N=c1[n-]ccs1)c1ccc(N2CCC3(CC[NH+](Cc4ccccc4)CC3)C2)nc1 (protonated)
O=S(=O)(/N=c1\[n-]ccs1)c1ccc(N2CCC3(CC[NH+](Cc4ccccc4)CC3)C2)nc1 (cis-trans isomerization)
O=S(=O)(/N=c1\[n-]ccs1)c1ccc(N2CCC3(CC[NH+](Cc4ccccc4)CC3)C2)nc1 (3D coordinates assigned)
O=S(=O)(/N=c1\[n-]ccs1)c1ccc(N2CCC3(CC[NH+](Cc4ccccc4)CC3)C2)nc1 (nonaromatic ring conformer: 111.81015246123603 kcal/mol)

>  <smiles>  (24) 
O=S(=O)(N=c1[nH]ccs1)c1ccc(N2CCC3(CCN(Cc4ccccc4)CC3)C2)nc1

>  <score_type>  (24) 
oracle

>  <origin>  (24) 
adgpu

>  <m_score__min__energy>  (24) 
-9.6199999999999992

>  <m_primary>  (24) 
energy

$$$$
24:0
     RDKit          3D

 66 70  0  0  0  0  0  0  0  0999 V2000
   -1.2190   19.6170  -26.3180 C   0  0  0  0  0  0  0  0  0  0  0  0
   -1.4690   19.3830  -27.7530 N   0  0  0  0  0  0  0  0  0  0  0  0
   -0.3020   19.7120  -28.5970 C   0  0  0  0  0  0  0  0  0  0  0  0
    0.0360   21.2100  -28.5790 C   0  0  0  0  0  0  0  0  0  0  0  0
   -1.1930   22.0730  -28.7090 C   0  0  0  0  0  0  0  0  0  0  0  0
   -1.0430   23.4430  -28.9830 C   0  0  0  0  0  0  0  0  0  0  0  0
   -2.1570   24.2850  -29.0170 C   0  0  0  0  0  0  0  0  0  0  0  0
   -1.9860   25.6470  -29.2680 O   0  0  0  0  0  0  0  0  0  0  0  0
   -3.4350   23.7710  -28.7620 C   0  0  0  0  0  0  0  0  0  0  0  0
   -4.5630   24.6510  -28.7600 N   0  0  0  0  0  0  0  0  0  0  0  0
   -5.4610   24.9790  -30.2030 S   0  0  0  0  0  0  0  0  0  0  0  0
   -6.6180   25.8800  -29.8740 O   0  0  0  0  0  0  0  0  0  0  0  0
   -4.5930   25.6660  -31.2190 O   0  0  0  0  0  0  0  0  0  0  0  0
   -6.0660   23.4500  -30.8260 C   0  0  0  0  0  0  0  0  0  0  0  0
   -5.2260   22.3190  -30.8580 C   0  0  0  0  0  0  0  0  0  0  0  0
   -5.7370   21.0630  -31.2180 C   0  0  0  0  0  0  0  0  0  0  0  0
   -7.0860   20.9620  -31.5840 C   0  0  0  0  0  0  0  0  0  0  0  0
   -7.9140   22.0590  -31.5140 C   0  0  0  0  0  0  0  0  0  0  0  0
   -7.4270   23.3150  -31.1490 C   0  0  0  0  0  0  0  0  0  0  0  0
   -9.3330   21.7180  -31.7710 C   0  0  0  0  0  0  0  0  0  0  0  0
   -9.3180   20.2000  -32.0290 C   0  0  0  0  0  0  0  0  0  0  0  0
   -7.8610   19.7130  -31.8470 C   0  0  1  0  0  0  0  0  0  0  0  0
   -7.4240   18.8980  -33.0150 N   0  0  0  0  0  0  0  0  0  0  0  0
   -7.5670   17.4550  -32.7690 C   0  0  0  0  0  0  0  0  0  0  0  0
   -5.8270   19.2320  -33.6720 S   0  0  0  0  0  0  0  0  0  0  0  0
   -5.6890   20.7190  -33.8460 O   0  0  0  0  0  0  0  0  0  0  0  0
   -5.6670   18.5830  -35.0170 O   0  0  0  0  0  0  0  0  0  0  0  0
   -4.5080   18.6850  -32.5980 C   0  0  0  0  0  0  0  0  0  0  0  0
   -3.2910   19.5510  -32.7760 C   0  0  0  0  0  0  0  0  0  0  0  0
   -2.6650   19.6430  -34.0310 C   0  0  0  0  0  0  0  0  0  0  0  0
   -1.5260   20.4380  -34.1920 C   0  0  0  0  0  0  0  0  0  0  0  0
   -1.0000   21.1410  -33.1020 C   0  0  0  0  0  0  0  0  0  0  0  0
   -1.6090   21.0410  -31.8460 C   0  0  0  0  0  0  0  0  0  0  0  0
   -2.7460   20.2440  -31.6800 C   0  0  0  0  0  0  0  0  0  0  0  0
   -3.5910   22.4050  -28.4890 C   0  0  0  0  0  0  0  0  0  0  0  0
   -2.4770   21.5520  -28.4460 C   0  0  0  0  0  0  0  0  0  0  0  0
   -2.6870   20.0710  -28.2210 C   0  0  0  0  0  0  0  0  0  0  0  0
   -1.8933   18.9858  -25.7206 H   0  0  0  0  0  0  0  0  0  0  0  0
   -0.1749   19.3641  -26.0817 H   0  0  0  0  0  0  0  0  0  0  0  0
   -1.4024   20.6756  -26.0817 H   0  0  0  0  0  0  0  0  0  0  0  0
    0.5688   19.1499  -28.2287 H   0  0  0  0  0  0  0  0  0  0  0  0
   -0.5523   19.4393  -29.6328 H   0  0  0  0  0  0  0  0  0  0  0  0
    0.5375   21.4485  -27.6295 H   0  0  0  0  0  0  0  0  0  0  0  0
    0.6880   21.4193  -29.4399 H   0  0  0  0  0  0  0  0  0  0  0  0
   -0.0409   23.8554  -29.1721 H   0  0  0  0  0  0  0  0  0  0  0  0
   -4.1619   22.4217  -30.5988 H   0  0  0  0  0  0  0  0  0  0  0  0
   -5.0902   20.1732  -31.2131 H   0  0  0  0  0  0  0  0  0  0  0  0
   -8.0982   24.1858  -31.1147 H   0  0  0  0  0  0  0  0  0  0  0  0
   -9.9562   21.9587  -30.8971 H   0  0  0  0  0  0  0  0  0  0  0  0
   -9.7554   22.2838  -32.6145 H   0  0  0  0  0  0  0  0  0  0  0  0
   -9.9771   19.6902  -31.3108 H   0  0  0  0  0  0  0  0  0  0  0  0
   -9.6782   19.9754  -33.0438 H   0  0  0  0  0  0  0  0  0  0  0  0
   -7.7115   19.0156  -31.0095 H   0  0  0  0  0  0  0  0  0  0  0  0
   -7.5855   17.2679  -31.6852 H   0  0  0  0  0  0  0  0  0  0  0  0
   -8.5050   17.0975  -33.2189 H   0  0  0  0  0  0  0  0  0  0  0  0
   -6.7174   16.9204  -33.2189 H   0  0  0  0  0  0  0  0  0  0  0  0
   -4.8445   18.7438  -31.5524 H   0  0  0  0  0  0  0  0  0  0  0  0
   -4.2473   17.6476  -32.8544 H   0  0  0  0  0  0  0  0  0  0  0  0
   -3.0722   19.0880  -34.8890 H   0  0  0  0  0  0  0  0  0  0  0  0
   -1.0424   20.5110  -35.1773 H   0  0  0  0  0  0  0  0  0  0  0  0
   -0.1083   21.7718  -33.2325 H   0  0  0  0  0  0  0  0  0  0  0  0
   -1.1929   21.5899  -30.9884 H   0  0  0  0  0  0  0  0  0  0  0  0
   -3.2157   20.1587  -30.6890 H   0  0  0  0  0  0  0  0  0  0  0  0
   -4.5963   21.9974  -28.3067 H   0  0  0  0  0  0  0  0  0  0  0  0
   -3.4765   19.9391  -27.4664 H   0  0  0  0  0  0  0  0  0  0  0  0
   -2.9663   19.6266  -29.1877 H   0  0  0  0  0  0  0  0  0  0  0  0
  1  2  1  0
  2  3  1  0
  3  4  1  0
  4  5  1  0
  5  6  2  0
  6  7  1  0
  7  8  1  0
  7  9  2  0
  9 10  1  0
 10 11  1  0
 11 12  2  0
 11 13  2  0
 11 14  1  0
 14 15  2  0
 15 16  1  0
 16 17  2  0
 17 18  1  0
 18 19  2  0
 18 20  1  0
 20 21  1  0
 21 22  1  0
 22 23  1  0
 23 24  1  0
 23 25  1  0
 25 26  2  0
 25 27  2  0
 25 28  1  0
 28 29  1  0
 29 30  2  0
 30 31  1  0
 31 32  2  0
 32 33  1  0
 33 34  2  0
  9 35  1  0
 35 36  2  0
 36 37  1  0
 37  2  1  0
 36  5  1  0
 19 14  1  0
 34 29  1  0
 22 17  1  0
  1 38  1  0
  1 39  1  0
  1 40  1  0
  3 41  1  0
  3 42  1  0
  4 43  1  0
  4 44  1  0
  6 45  1  0
 15 46  1  0
 16 47  1  0
 19 48  1  0
 20 49  1  0
 20 50  1  0
 21 51  1  0
 21 52  1  0
 22 53  1  1
 24 54  1  0
 24 55  1  0
 24 56  1  0
 28 57  1  0
 28 58  1  0
 30 59  1  0
 31 60  1  0
 32 61  1  0
 33 62  1  0
 34 63  1  0
 35 64  1  0
 37 65  1  0
 37 66  1  0
M  CHG  2   8  -1  10  -1
M  END
>  <UniqueID>  (25) 
24

>  <SMILES>  (25) 
CN1CCc2cc([O-])c([N-]S(=O)(=O)c3ccc4c(c3)CC[C@H]4N(C)S(=O)(=O)Cc3ccccc3)cc2C1

>  <Energy>  (25) 
92.35892462025902

>  <Genealogy>  (25) 
CN1CCc2cc([O-])c([N-]S(=O)(=O)c3ccc4c(c3)CCC4N(C)S(=O)(=O)Cc3ccccc3)cc2C1 (protonated)
CN1CCc2cc([O-])c([N-]S(=O)(=O)c3ccc4c(c3)CC[C@H]4N(C)S(=O)(=O)Cc3ccccc3)cc2C1 (chirality)
CN1CCc2cc([O-])c([N-]S(=O)(=O)c3ccc4c(c3)CC[C@H]4N(C)S(=O)(=O)Cc3ccccc3)cc2C1 (3D coordinates assigned)
CN1CCc2cc([O-])c([N-]S(=O)(=O)c3ccc4c(c3)CC[C@H]4N(C)S(=O)(=O)Cc3ccccc3)cc2C1 (nonaromatic ring conformer: 92.35892462025902 kcal/mol)

>  <smiles>  (25) 
CN1CCc2cc(O)c(NS(=O)(=O)c3ccc4c(c3)CCC4N(C)S(=O)(=O)Cc3ccccc3)cc2C1

>  <score_type>  (25) 
oracle

>  <origin>  (25) 
adgpu

>  <m_score__min__energy>  (25) 
-16.890000000000001

>  <m_primary>  (25) 
energy

$$$$
25:0
     RDKit          3D

 52 54  0  0  0  0  0  0  0  0999 V2000
   -3.4970   18.8860  -26.3400 C   0  0  0  0  0  0  0  0  0  0  0  0
   -2.1590   19.3200  -26.9380 C   0  0  0  0  0  0  0  0  0  0  0  0
   -1.5790   20.5660  -26.2450 C   0  0  0  0  0  0  0  0  0  0  0  0
   -0.5000   21.5470  -27.3540 S   0  0  0  0  0  0  0  0  0  0  0  0
   -1.8420   22.3300  -28.2480 C   0  0  0  0  0  0  0  0  0  0  0  0
   -2.6370   23.2680  -27.7050 N   0  0  0  0  0  0  0  0  0  0  0  0
   -3.5250   23.5310  -28.6870 C   0  0  0  0  0  0  0  0  0  0  0  0
   -4.6320   24.4150  -28.5030 N   0  0  0  0  0  0  0  0  0  0  0  0
   -5.5190   25.0160  -29.8640 S   0  0  0  0  0  0  0  0  0  0  0  0
   -4.5570   25.6360  -30.8380 O   0  0  0  0  0  0  0  0  0  0  0  0
   -6.4990   26.0560  -29.4020 O   0  0  0  0  0  0  0  0  0  0  0  0
   -6.3970   23.6910  -30.6240 C   0  0  0  0  0  0  0  0  0  0  0  0
   -7.3180   22.9340  -29.8860 C   0  0  0  0  0  0  0  0  0  0  0  0
   -8.0210   21.8920  -30.4970 C   0  0  0  0  0  0  0  0  0  0  0  0
   -7.8210   21.6040  -31.8570 C   0  0  0  0  0  0  0  0  0  0  0  0
   -8.5600   20.4800  -32.5200 C   0  0  0  0  0  0  0  0  0  0  0  0
   -6.8870   22.3510  -32.5880 C   0  0  0  0  0  0  0  0  0  0  0  0
   -6.1780   23.3880  -31.9750 C   0  0  0  0  0  0  0  0  0  0  0  0
   -3.3300   22.8230  -29.8190 N   0  0  0  0  0  0  0  0  0  0  0  0
   -2.2530   22.0700  -29.5390 C   0  0  0  0  0  0  0  0  0  0  0  0
   -1.5510   20.9470  -30.6950 S   0  0  0  0  0  0  0  0  0  0  0  0
   -0.5480   21.6750  -31.5450 O   0  0  0  0  0  0  0  0  0  0  0  0
   -0.8400   19.8390  -29.9700 O   0  0  0  0  0  0  0  0  0  0  0  0
   -2.8160   20.2860  -31.7270 C   0  0  0  0  0  0  0  0  0  0  0  0
   -2.5030   19.8690  -33.0280 C   0  0  0  0  0  0  0  0  0  0  0  0
   -3.4960   19.3360  -33.8550 C   0  0  0  0  0  0  0  0  0  0  0  0
   -4.8190   19.2400  -33.4000 C   0  0  0  0  0  0  0  0  0  0  0  0
   -5.8830   18.6460  -34.2750 C   0  0  0  0  0  0  0  0  0  0  0  0
   -5.1280   19.6410  -32.0920 C   0  0  0  0  0  0  0  0  0  0  0  0
   -4.1320   20.1580  -31.2590 C   0  0  0  0  0  0  0  0  0  0  0  0
   -3.4320   18.9071  -25.2421 H   0  0  0  0  0  0  0  0  0  0  0  0
   -4.2881   19.5736  -26.6738 H   0  0  0  0  0  0  0  0  0  0  0  0
   -3.7338   17.8650  -26.6738 H   0  0  0  0  0  0  0  0  0  0  0  0
   -1.4415   18.4927  -26.8342 H   0  0  0  0  0  0  0  0  0  0  0  0
   -2.3324   19.5755  -27.9938 H   0  0  0  0  0  0  0  0  0  0  0  0
   -2.4110   21.2022  -25.9090 H   0  0  0  0  0  0  0  0  0  0  0  0
   -0.9652   20.2228  -25.3991 H   0  0  0  0  0  0  0  0  0  0  0  0
   -5.0250   24.5520  -27.5460 H   0  0  0  0  0  0  0  0  0  0  0  0
   -7.4877   23.1609  -28.8231 H   0  0  0  0  0  0  0  0  0  0  0  0
   -8.7342   21.2947  -29.9100 H   0  0  0  0  0  0  0  0  0  0  0  0
   -8.9926   19.8221  -31.7519 H   0  0  0  0  0  0  0  0  0  0  0  0
   -9.3652   20.8902  -33.1472 H   0  0  0  0  0  0  0  0  0  0  0  0
   -7.8643   19.9033  -33.1472 H   0  0  0  0  0  0  0  0  0  0  0  0
   -6.7112   22.1201  -33.6490 H   0  0  0  0  0  0  0  0  0  0  0  0
   -5.4454   23.9685  -32.5549 H   0  0  0  0  0  0  0  0  0  0  0  0
   -1.4719   19.9615  -33.3998 H   0  0  0  0  0  0  0  0  0  0  0  0
   -3.2385   18.9904  -34.8671 H   0  0  0  0  0  0  0  0  0  0  0  0
   -6.6712   18.2060  -33.6464 H   0  0  0  0  0  0  0  0  0  0  0  0
   -6.3168   19.4325  -34.9101 H   0  0  0  0  0  0  0  0  0  0  0  0
   -5.4412   17.8640  -34.9101 H   0  0  0  0  0  0  0  0  0  0  0  0
   -6.1590   19.5481  -31.7201 H   0  0  0  0  0  0  0  0  0  0  0  0
   -4.3810   20.4656  -30.2327 H   0  0  0  0  0  0  0  0  0  0  0  0
  1  2  1  0
  2  3  1  0
  3  4  1  0
  4  5  1  0
  5  6  1  0
  6  7  1  0
  7  8  1  0
  8  9  1  0
  9 10  2  0
  9 11  2  0
  9 12  1  0
 12 13  2  0
 13 14  1  0
 14 15  2  0
 15 16  1  0
 15 17  1  0
 17 18  2  0
  7 19  2  0
 19 20  1  0
 20 21  1  0
 21 22  2  0
 21 23  2  0
 21 24  1  0
 24 25  2  0
 25 26  1  0
 26 27  2  0
 27 28  1  0
 27 29  1  0
 29 30  2  0
 20  5  2  0
 30 24  1  0
 18 12  1  0
  1 31  1  0
  1 32  1  0
  1 33  1  0
  2 34  1  0
  2 35  1  0
  3 36  1  0
  3 37  1  0
  8 38  1  0
 13 39  1  0
 14 40  1  0
 16 41  1  0
 16 42  1  0
 16 43  1  0
 17 44  1  0
 18 45  1  0
 25 46  1  0
 26 47  1  0
 28 48  1  0
 28 49  1  0
 28 50  1  0
 29 51  1  0
 30 52  1  0
M  CHG  1   6  -1
M  END
>  <UniqueID>  (26) 
25

>  <SMILES>  (26) 
CCCSc1[n-]c(NS(=O)(=O)c2ccc(C)cc2)nc1S(=O)(=O)c1ccc(C)cc1

>  <Energy>  (26) 
70.86179320539588

>  <Genealogy>  (26) 
CCCSc1[n-]c(NS(=O)(=O)c2ccc(C)cc2)nc1S(=O)(=O)c1ccc(C)cc1 (protonated)
CCCSc1[n-]c(NS(=O)(=O)c2ccc(C)cc2)nc1S(=O)(=O)c1ccc(C)cc1 (3D coordinates assigned)
CCCSc1[n-]c(NS(=O)(=O)c2ccc(C)cc2)nc1S(=O)(=O)c1ccc(C)cc1 (optimized conformer: 70.86179320539588 kcal/mol)

>  <smiles>  (26) 
CCCSc1[nH]c(NS(=O)(=O)c2ccc(C)cc2)nc1S(=O)(=O)c1ccc(C)cc1

>  <score_type>  (26) 
oracle

>  <origin>  (26) 
adgpu

>  <m_score__min__energy>  (26) 
-11.119999999999999

>  <m_primary>  (26) 
energy

$$$$
26:0
     RDKit          3D

 42 44  0  0  0  0  0  0  0  0999 V2000
    0.7540   24.9330  -26.6330 C   0  0  0  0  0  0  0  0  0  0  0  0
   -0.5230   24.6400  -27.3650 C   0  0  0  0  0  0  0  0  0  0  0  0
   -0.4880   24.0970  -28.6550 C   0  0  0  0  0  0  0  0  0  0  0  0
   -1.6730   23.7810  -29.3180 C   0  0  0  0  0  0  0  0  0  0  0  0
   -2.9210   24.0060  -28.7080 C   0  0  0  0  0  0  0  0  0  0  0  0
   -4.1370   23.6410  -29.3890 N   0  0  0  0  0  0  0  0  0  0  0  0
   -4.6550   24.3440  -30.5290 C   0  0  0  0  0  0  0  0  0  0  0  0
   -4.2150   25.4870  -30.8320 O   0  0  0  0  0  0  0  0  0  0  0  0
   -5.7570   23.7430  -31.3470 C   0  0  0  0  0  0  0  0  0  0  0  0
   -5.6250   21.9220  -31.4060 S   0  0  0  0  0  0  0  0  0  0  0  0
   -7.3900   21.6410  -31.5960 C   0  0  0  0  0  0  0  0  0  0  0  0
   -8.3120   22.4770  -31.0720 N   0  0  0  0  0  0  0  0  0  0  0  0
   -9.4900   21.8940  -31.3660 C   0  0  0  0  0  0  0  0  0  0  0  0
   -9.2700   20.7190  -32.0480 C   0  0  0  0  0  0  0  0  0  0  0  0
   -7.9430   20.5660  -32.2040 N   0  0  0  0  0  0  0  0  0  0  0  0
   -7.2860   19.4600  -32.8460 C   0  0  0  0  0  0  0  0  0  0  0  0
   -7.5180   18.1410  -32.4280 C   0  0  0  0  0  0  0  0  0  0  0  0
   -6.8620   17.0820  -33.0600 C   0  0  0  0  0  0  0  0  0  0  0  0
   -5.9720   17.3520  -34.0990 C   0  0  0  0  0  0  0  0  0  0  0  0
   -5.7460   18.6350  -34.4870 N   0  0  0  0  0  0  0  0  0  0  0  0
   -6.3720   19.6830  -33.8880 C   0  0  0  0  0  0  0  0  0  0  0  0
   -2.9600   24.5280  -27.3940 C   0  0  0  0  0  0  0  0  0  0  0  0
   -4.2680   24.7490  -26.6840 C   0  0  0  0  0  0  0  0  0  0  0  0
   -1.7580   24.8320  -26.7310 C   0  0  0  0  0  0  0  0  0  0  0  0
    0.5730   24.8915  -25.5488 H   0  0  0  0  0  0  0  0  0  0  0  0
    1.5134   24.1857  -26.9068 H   0  0  0  0  0  0  0  0  0  0  0  0
    1.1116   25.9365  -26.9068 H   0  0  0  0  0  0  0  0  0  0  0  0
    0.4792   23.9188  -29.1478 H   0  0  0  0  0  0  0  0  0  0  0  0
   -1.6320   23.3508  -30.3296 H   0  0  0  0  0  0  0  0  0  0  0  0
   -4.6940   22.8350  -29.0230 H   0  0  0  0  0  0  0  0  0  0  0  0
   -6.7244   24.0176  -30.9012 H   0  0  0  0  0  0  0  0  0  0  0  0
   -5.6769   24.1297  -32.3737 H   0  0  0  0  0  0  0  0  0  0  0  0
  -10.4789   22.2963  -31.1010 H   0  0  0  0  0  0  0  0  0  0  0  0
  -10.0456   20.0249  -32.4040 H   0  0  0  0  0  0  0  0  0  0  0  0
   -8.2167   17.9407  -31.6023 H   0  0  0  0  0  0  0  0  0  0  0  0
   -7.0457   16.0453  -32.7412 H   0  0  0  0  0  0  0  0  0  0  0  0
   -5.4520   16.5255  -34.6054 H   0  0  0  0  0  0  0  0  0  0  0  0
   -6.1614   20.7099  -34.2213 H   0  0  0  0  0  0  0  0  0  0  0  0
   -4.1042   24.7213  -25.5966 H   0  0  0  0  0  0  0  0  0  0  0  0
   -4.6784   25.7292  -26.9682 H   0  0  0  0  0  0  0  0  0  0  0  0
   -4.9777   23.9580  -26.9682 H   0  0  0  0  0  0  0  0  0  0  0  0
   -1.7873   25.2247  -25.7039 H   0  0  0  0  0  0  0  0  0  0  0  0
  1  2  1  0
  2  3  2  0
  3  4  1  0
  4  5  2  0
  5  6  1  0
  6  7  1  0
  7  8  2  0
  7  9  1  0
  9 10  1  0
 10 11  1  0
 11 12  2  0
 12 13  1  0
 13 14  2  0
 14 15  1  0
 15 16  1  0
 16 17  2  0
 17 18  1  0
 18 19  2  0
 19 20  1  0
 20 21  2  0
  5 22  1  0
 22 23  1  0
 22 24  2  0
 24  2  1  0
 15 11  1  0
 21 16  1  0
  1 25  1  0
  1 26  1  0
  1 27  1  0
  3 28  1  0
  4 29  1  0
  6 30  1  0
  9 31  1  0
  9 32  1  0
 13 33  1  0
 14 34  1  0
 17 35  1  0
 18 36  1  0
 19 37  1  0
 21 38  1  0
 23 39  1  0
 23 40  1  0
 23 41  1  0
 24 42  1  0
M  END
>  <UniqueID>  (27) 
26

>  <SMILES>  (27) 
Cc1ccc(NC(=O)CSc2nccn2-c2cccnc2)c(C)c1

>  <Energy>  (27) 
76.6244226380813

>  <Genealogy>  (27) 
Cc1ccc(NC(=O)CSc2nccn2-c2cccnc2)c(C)c1 (3D coordinates assigned)
Cc1ccc(NC(=O)CSc2nccn2-c2cccnc2)c(C)c1 (optimized conformer: 76.6244226380813 kcal/mol)

>  <smiles>  (27) 
Cc1ccc(NC(=O)CSc2nccn2-c2cccnc2)c(C)c1

>  <score_type>  (27) 
oracle

>  <origin>  (27) 
adgpu

>  <m_score__min__energy>  (27) 
-9.1099999999999994

>  <m_primary>  (27) 
energy

$$$$
27:0
     RDKit          3D

 35 37  0  0  0  0  0  0  0  0999 V2000
   -7.5340   17.6970  -32.9330 C   0  0  0  0  0  0  0  0  0  0  0  0
   -8.4740   18.9860  -32.1470 S   0  0  0  0  0  0  0  0  0  0  0  0
   -9.1410   18.4440  -30.9140 O   0  0  0  0  0  0  0  0  0  0  0  0
   -9.5340   19.4800  -33.0910 O   0  0  0  0  0  0  0  0  0  0  0  0
   -7.3980   20.3090  -31.7110 C   0  0  0  0  0  0  0  0  0  0  0  0
   -7.9000   21.4390  -31.0520 C   0  0  0  0  0  0  0  0  0  0  0  0
   -7.0480   22.4970  -30.7230 C   0  0  0  0  0  0  0  0  0  0  0  0
   -5.6850   22.4460  -31.0600 C   0  0  0  0  0  0  0  0  0  0  0  0
   -4.7900   23.5680  -30.7050 C   0  0  0  0  0  0  0  0  0  0  0  0
   -5.0310   24.9060  -30.9750 C   0  0  0  0  0  0  0  0  0  0  0  0
   -4.0670   25.6430  -30.4690 O   0  0  0  0  0  0  0  0  0  0  0  0
   -3.2040   24.8500  -29.8830 C   0  0  0  0  0  0  0  0  0  0  0  0
   -2.0420   25.3010  -29.2690 O   0  0  0  0  0  0  0  0  0  0  0  0
   -3.5960   23.5290  -29.9930 C   0  0  0  0  0  0  0  0  0  0  0  0
   -2.8320   22.3470  -29.5400 C   0  0  0  0  0  0  0  0  0  0  0  0
   -3.2020   21.6720  -28.3640 C   0  0  0  0  0  0  0  0  0  0  0  0
   -2.4790   20.5550  -27.9350 C   0  0  0  0  0  0  0  0  0  0  0  0
   -1.3810   20.1040  -28.6720 C   0  0  0  0  0  0  0  0  0  0  0  0
   -0.9990   20.7740  -29.8380 C   0  0  0  0  0  0  0  0  0  0  0  0
    0.0960   20.3280  -30.5680 O   0  0  0  0  0  0  0  0  0  0  0  0
   -1.7190   21.8930  -30.2690 C   0  0  0  0  0  0  0  0  0  0  0  0
   -5.1850   21.3040  -31.7100 C   0  0  0  0  0  0  0  0  0  0  0  0
   -6.0380   20.2470  -32.0400 C   0  0  0  0  0  0  0  0  0  0  0  0
   -7.0701   17.0609  -32.1647 H   0  0  0  0  0  0  0  0  0  0  0  0
   -8.2009   17.0872  -33.5602 H   0  0  0  0  0  0  0  0  0  0  0  0
   -6.7496   18.1456  -33.5602 H   0  0  0  0  0  0  0  0  0  0  0  0
   -8.9676   21.4936  -30.7928 H   0  0  0  0  0  0  0  0  0  0  0  0
   -7.4476   23.3762  -30.1963 H   0  0  0  0  0  0  0  0  0  0  0  0
   -5.8986   25.2931  -31.5294 H   0  0  0  0  0  0  0  0  0  0  0  0
   -4.0642   22.0241  -27.7786 H   0  0  0  0  0  0  0  0  0  0  0  0
   -2.7753   20.0299  -27.0150 H   0  0  0  0  0  0  0  0  0  0  0  0
   -0.8171   19.2218  -28.3348 H   0  0  0  0  0  0  0  0  0  0  0  0
   -1.4125   22.4210  -31.1840 H   0  0  0  0  0  0  0  0  0  0  0  0
   -4.1157   21.2419  -31.9605 H   0  0  0  0  0  0  0  0  0  0  0  0
   -5.6397   19.3633  -32.5600 H   0  0  0  0  0  0  0  0  0  0  0  0
  1  2  1  0
  2  3  2  0
  2  4  2  0
  2  5  1  0
  5  6  2  0
  6  7  1  0
  7  8  2  0
  8  9  1  0
  9 10  2  0
 10 11  1  0
 11 12  1  0
 12 13  1  0
 12 14  2  0
 14 15  1  0
 15 16  2  0
 16 17  1  0
 17 18  2  0
 18 19  1  0
 19 20  1  0
 19 21  2  0
  8 22  1  0
 22 23  2  0
 23  5  1  0
 14  9  1  0
 21 15  1  0
  1 24  1  0
  1 25  1  0
  1 26  1  0
  6 27  1  0
  7 28  1  0
 10 29  1  0
 16 30  1  0
 17 31  1  0
 18 32  1  0
 21 33  1  0
 22 34  1  0
 23 35  1  0
M  CHG  2  13  -1  20  -1
M  END
>  <UniqueID>  (28) 
27

>  <SMILES>  (28) 
CS(=O)(=O)c1ccc(-c2coc([O-])c2-c2cccc([O-])c2)cc1

>  <Energy>  (28) 
71.3530604059856

>  <Genealogy>  (28) 
CS(=O)(=O)c1ccc(-c2coc([O-])c2-c2cccc([O-])c2)cc1 (protonated)
CS(=O)(=O)c1ccc(-c2coc([O-])c2-c2cccc([O-])c2)cc1 (3D coordinates assigned)
CS(=O)(=O)c1ccc(-c2coc([O-])c2-c2cccc([O-])c2)cc1 (optimized conformer: 71.3530604059856 kcal/mol)

>  <smiles>  (28) 
CS(=O)(=O)c1ccc(-c2coc(O)c2-c2cccc(O)c2)cc1

>  <score_type>  (28) 
oracle

>  <origin>  (28) 
adgpu

>  <m_score__min__energy>  (28) 
-11.07

>  <m_primary>  (28) 
energy

$$$$
28:0
     RDKit          3D

 60 64  0  0  0  0  0  0  0  0999 V2000
   -3.1020   13.7230  -32.5410 C   0  0  0  0  0  0  0  0  0  0  0  0
   -2.6330   14.0200  -33.9020 N   0  0  0  0  0  0  0  0  0  0  0  0
   -1.5160   13.3740  -34.3640 C   0  0  0  0  0  0  0  0  0  0  0  0
   -1.0160   13.6350  -35.6400 C   0  0  0  0  0  0  0  0  0  0  0  0
   -1.6680   14.5530  -36.4570 C   0  0  0  0  0  0  0  0  0  0  0  0
   -2.8140   15.1950  -35.9950 C   0  0  0  0  0  0  0  0  0  0  0  0
   -3.2970   14.9210  -34.7050 C   0  0  0  0  0  0  0  0  0  0  0  0
   -4.5340   15.6020  -34.2530 C   0  0  0  0  0  0  0  0  0  0  0  0
   -5.7460   15.0090  -34.2980 N   0  0  0  0  0  0  0  0  0  0  0  0
   -6.6040   15.9620  -33.8830 C   0  0  0  0  0  0  0  0  0  0  0  0
   -5.9060   17.1130  -33.5880 C   0  0  0  0  0  0  0  0  0  0  0  0
   -6.4960   18.3560  -33.0410 C   0  0  0  0  0  0  0  0  0  0  0  0
   -7.1220   18.3420  -31.7840 C   0  0  0  0  0  0  0  0  0  0  0  0
   -7.6760   19.5120  -31.2580 C   0  0  0  0  0  0  0  0  0  0  0  0
   -7.6050   20.7110  -31.9770 C   0  0  0  0  0  0  0  0  0  0  0  0
   -8.2760   22.1880  -31.2970 S   0  0  0  0  0  0  0  0  0  0  0  0
   -9.1230   21.8610  -30.0990 O   0  0  0  0  0  0  0  0  0  0  0  0
   -9.1500   22.8720  -32.3130 O   0  0  0  0  0  0  0  0  0  0  0  0
   -6.9560   23.2530  -30.8300 C   0  0  0  0  0  0  0  0  0  0  0  0
   -7.2310   24.5000  -30.2460 C   0  0  0  0  0  0  0  0  0  0  0  0
   -6.1820   25.3570  -29.8970 C   0  0  0  0  0  0  0  0  0  0  0  0
   -4.8570   24.9760  -30.1350 C   0  0  0  0  0  0  0  0  0  0  0  0
   -4.5800   23.7390  -30.7240 C   0  0  0  0  0  0  0  0  0  0  0  0
   -5.6270   22.8800  -31.0750 C   0  0  0  0  0  0  0  0  0  0  0  0
   -6.9580   20.7370  -33.2180 C   0  0  0  0  0  0  0  0  0  0  0  0
   -6.4040   19.5680  -33.7460 C   0  0  0  0  0  0  0  0  0  0  0  0
   -4.5950   16.8880  -33.8280 N   0  0  0  0  0  0  0  0  0  0  0  0
   -3.5030   17.8160  -33.6980 C   0  0  0  0  0  0  0  0  0  0  0  0
   -2.3210   17.4310  -33.0490 C   0  0  0  0  0  0  0  0  0  0  0  0
   -1.2590   18.3320  -32.9250 C   0  0  0  0  0  0  0  0  0  0  0  0
   -1.3710   19.6290  -33.4410 C   0  0  0  0  0  0  0  0  0  0  0  0
   -0.0270   20.7550  -33.2990 S   0  0  0  0  0  0  0  0  0  0  0  0
   -0.1110   21.9130  -34.5790 N   0  0  0  0  0  0  0  0  0  0  0  0
   -0.0920   21.4650  -31.9760 O   0  0  0  0  0  0  0  0  0  0  0  0
    1.2730   20.0050  -33.3800 O   0  0  0  0  0  0  0  0  0  0  0  0
   -2.5510   20.0140  -34.0930 C   0  0  0  0  0  0  0  0  0  0  0  0
   -3.6110   19.1140  -34.2200 C   0  0  0  0  0  0  0  0  0  0  0  0
   -2.4077   14.1627  -31.8098 H   0  0  0  0  0  0  0  0  0  0  0  0
   -4.1052   14.1508  -32.3973 H   0  0  0  0  0  0  0  0  0  0  0  0
   -3.1441   12.6332  -32.3973 H   0  0  0  0  0  0  0  0  0  0  0  0
   -1.0075   12.6407  -33.7208 H   0  0  0  0  0  0  0  0  0  0  0  0
   -0.1129   13.1187  -35.9975 H   0  0  0  0  0  0  0  0  0  0  0  0
   -1.2801   14.7706  -37.4631 H   0  0  0  0  0  0  0  0  0  0  0  0
   -3.3399   15.9152  -36.6390 H   0  0  0  0  0  0  0  0  0  0  0  0
   -7.6935   15.8398  -33.7936 H   0  0  0  0  0  0  0  0  0  0  0  0
   -7.1765   17.4050  -31.2104 H   0  0  0  0  0  0  0  0  0  0  0  0
   -8.1698   19.4908  -30.2753 H   0  0  0  0  0  0  0  0  0  0  0  0
   -8.2724   24.8032  -30.0628 H   0  0  0  0  0  0  0  0  0  0  0  0
   -6.3990   26.3314  -29.4350 H   0  0  0  0  0  0  0  0  0  0  0  0
   -4.0329   25.6501  -29.8585 H   0  0  0  0  0  0  0  0  0  0  0  0
   -3.5380   23.4407  -30.9117 H   0  0  0  0  0  0  0  0  0  0  0  0
   -5.4069   21.9098  -31.5443 H   0  0  0  0  0  0  0  0  0  0  0  0
   -6.8855   21.6804  -33.7791 H   0  0  0  0  0  0  0  0  0  0  0  0
   -5.8927   19.5967  -34.7195 H   0  0  0  0  0  0  0  0  0  0  0  0
   -2.2289   16.4158  -32.6357 H   0  0  0  0  0  0  0  0  0  0  0  0
   -0.3324   18.0210  -32.4204 H   0  0  0  0  0  0  0  0  0  0  0  0
    0.4040   21.5080  -35.3940 H   0  0  0  0  0  0  0  0  0  0  0  0
   -1.1140   21.9840  -34.8620 H   0  0  0  0  0  0  0  0  0  0  0  0
   -2.6421   21.0293  -34.5062 H   0  0  0  0  0  0  0  0  0  0  0  0
   -4.5344   19.4238  -34.7313 H   0  0  0  0  0  0  0  0  0  0  0  0
  1  2  1  0
  2  3  2  0
  3  4  1  0
  4  5  2  0
  5  6  1  0
  6  7  2  0
  7  8  1  0
  8  9  2  0
  9 10  1  0
 10 11  2  0
 11 12  1  0
 12 13  2  0
 13 14  1  0
 14 15  2  0
 15 16  1  0
 16 17  2  0
 16 18  2  0
 16 19  1  0
 19 20  2  0
 20 21  1  0
 21 22  2  0
 22 23  1  0
 23 24  2  0
 15 25  1  0
 25 26  2  0
 11 27  1  0
 27 28  1  0
 28 29  2  0
 29 30  1  0
 30 31  2  0
 31 32  1  0
 32 33  1  0
 32 34  2  0
 32 35  2  0
 31 36  1  0
 36 37  2  0
  7  2  1  0
 27  8  1  0
 37 28  1  0
 26 12  1  0
 24 19  1  0
  1 38  1  0
  1 39  1  0
  1 40  1  0
  3 41  1  0
  4 42  1  0
  5 43  1  0
  6 44  1  0
 10 45  1  0
 13 46  1  0
 14 47  1  0
 20 48  1  0
 21 49  1  0
 22 50  1  0
 23 51  1  0
 24 52  1  0
 25 53  1  0
 26 54  1  0
 29 55  1  0
 30 56  1  0
 33 57  1  0
 33 58  1  0
 36 59  1  0
 37 60  1  0
M  CHG  1   2   1
M  END
>  <UniqueID>  (29) 
28

>  <SMILES>  (29) 
C[n+]1ccccc1-c1ncc(-c2ccc(S(=O)(=O)c3ccccc3)cc2)n1-c1ccc(S(N)(=O)=O)cc1

>  <Energy>  (29) 
113.51198777521805

>  <Genealogy>  (29) 
C[n+]1ccccc1-c1ncc(-c2ccc(S(=O)(=O)c3ccccc3)cc2)n1-c1ccc(S(N)(=O)=O)cc1 (3D coordinates assigned)
C[n+]1ccccc1-c1ncc(-c2ccc(S(=O)(=O)c3ccccc3)cc2)n1-c1ccc(S(N)(=O)=O)cc1 (optimized conformer: 113.51198777521805 kcal/mol)

>  <smiles>  (29) 
C[n+]1ccccc1-c1ncc(-c2ccc(S(=O)(=O)c3ccccc3)cc2)n1-c1ccc(S(N)(=O)=O)cc1

>  <score_type>  (29) 
oracle

>  <origin>  (29) 
adgpu

>  <m_score__min__energy>  (29) 
-10.17

>  <m_primary>  (29) 
energy

$$$$
29:0
     RDKit          3D

 53 57  0  0  0  0  0  0  0  0999 V2000
    0.1600   19.8610  -27.9200 C   0  0  0  0  0  0  0  0  0  0  0  0
   -0.4740   20.5240  -26.7670 N   0  0  0  0  0  0  0  0  0  0  0  0
   -1.9120   20.2110  -26.6530 C   0  0  0  0  0  0  0  0  0  0  0  0
   -2.7240   20.7530  -27.8390 C   0  0  0  0  0  0  0  0  0  0  0  0
   -2.3210   22.1560  -28.2180 C   0  0  0  0  0  0  0  0  0  0  0  0
   -3.1260   22.8770  -29.1140 C   0  0  0  0  0  0  0  0  0  0  0  0
   -2.7690   24.1790  -29.5110 C   0  0  0  0  0  0  0  0  0  0  0  0
   -3.5640   24.9360  -30.4350 N   0  0  0  0  0  0  0  0  0  0  0  0
   -5.2880   25.1060  -30.3770 S   0  0  0  0  0  0  0  0  0  0  0  0
   -5.7110   26.2780  -31.2160 O   0  0  0  0  0  0  0  0  0  0  0  0
   -5.7100   25.3590  -28.9580 O   0  0  0  0  0  0  0  0  0  0  0  0
   -6.0480   23.6200  -30.9390 C   0  0  0  0  0  0  0  0  0  0  0  0
   -5.3020   22.4270  -31.0590 C   0  0  0  0  0  0  0  0  0  0  0  0
   -5.9270   21.2380  -31.4680 C   0  0  0  0  0  0  0  0  0  0  0  0
   -7.2900   21.2770  -31.7900 C   0  0  0  0  0  0  0  0  0  0  0  0
   -8.0140   22.4300  -31.6600 C   0  0  0  0  0  0  0  0  0  0  0  0
   -7.4220   23.6190  -31.2330 C   0  0  0  0  0  0  0  0  0  0  0  0
   -9.4510   22.1860  -31.9590 C   0  0  0  0  0  0  0  0  0  0  0  0
   -9.5080   20.6620  -32.2240 C   0  0  0  0  0  0  0  0  0  0  0  0
   -8.1240   20.1910  -32.1710 N   0  0  0  0  0  0  0  0  0  0  0  0
   -7.7490   18.8130  -32.2990 C   0  0  0  0  0  0  0  0  0  0  0  0
   -8.2910   17.9530  -31.5530 O   0  0  0  0  0  0  0  0  0  0  0  0
   -6.7970   18.3750  -33.3300 C   0  0  0  0  0  0  0  0  0  0  0  0
   -6.0810   19.2040  -34.1720 C   0  0  0  0  0  0  0  0  0  0  0  0
   -5.3160   18.3680  -34.9570 C   0  0  0  0  0  0  0  0  0  0  0  0
   -5.6060   17.0820  -34.5420 C   0  0  0  0  0  0  0  0  0  0  0  0
   -6.4900   17.1200  -33.5700 O   0  0  0  0  0  0  0  0  0  0  0  0
   -1.6010   24.7570  -28.9930 C   0  0  0  0  0  0  0  0  0  0  0  0
   -1.2490   26.0570  -29.3420 O   0  0  0  0  0  0  0  0  0  0  0  0
   -0.7870   24.0350  -28.1160 C   0  0  0  0  0  0  0  0  0  0  0  0
   -1.1220   22.7250  -27.7450 C   0  0  0  0  0  0  0  0  0  0  0  0
   -0.2380   21.9820  -26.7680 C   0  0  0  0  0  0  0  0  0  0  0  0
    0.8787   19.1095  -27.5612 H   0  0  0  0  0  0  0  0  0  0  0  0
   -0.6118   19.3686  -28.5298 H   0  0  0  0  0  0  0  0  0  0  0  0
    0.6865   20.6100  -28.5298 H   0  0  0  0  0  0  0  0  0  0  0  0
   -2.0337   19.1186  -26.6111 H   0  0  0  0  0  0  0  0  0  0  0  0
   -2.2893   20.6934  -25.7392 H   0  0  0  0  0  0  0  0  0  0  0  0
   -2.5667   20.0939  -28.7055 H   0  0  0  0  0  0  0  0  0  0  0  0
   -3.7818   20.7774  -27.5382 H   0  0  0  0  0  0  0  0  0  0  0  0
   -4.0449   22.4197  -29.5097 H   0  0  0  0  0  0  0  0  0  0  0  0
   -4.2259   22.4292  -30.8309 H   0  0  0  0  0  0  0  0  0  0  0  0
   -5.3597   20.2979  -31.5341 H   0  0  0  0  0  0  0  0  0  0  0  0
   -8.0188   24.5371  -31.1286 H   0  0  0  0  0  0  0  0  0  0  0  0
  -10.0836   22.4605  -31.1020 H   0  0  0  0  0  0  0  0  0  0  0  0
   -9.8212   22.7834  -32.8052 H   0  0  0  0  0  0  0  0  0  0  0  0
  -10.1116   20.1622  -31.4520 H   0  0  0  0  0  0  0  0  0  0  0  0
   -9.9722   20.4394  -33.1961 H   0  0  0  0  0  0  0  0  0  0  0  0
   -6.1144   20.3029  -34.2084 H   0  0  0  0  0  0  0  0  0  0  0  0
   -4.6165   18.6644  -35.7525 H   0  0  0  0  0  0  0  0  0  0  0  0
   -5.1642   16.1660  -34.9613 H   0  0  0  0  0  0  0  0  0  0  0  0
    0.1253   24.4989  -27.7129 H   0  0  0  0  0  0  0  0  0  0  0  0
    0.8127   22.1665  -27.0362 H   0  0  0  0  0  0  0  0  0  0  0  0
   -0.4770   22.3539  -25.7607 H   0  0  0  0  0  0  0  0  0  0  0  0
  1  2  1  0
  2  3  1  0
  3  4  1  0
  4  5  1  0
  5  6  2  0
  6  7  1  0
  7  8  1  0
  8  9  1  0
  9 10  2  0
  9 11  2  0
  9 12  1  0
 12 13  2  0
 13 14  1  0
 14 15  2  0
 15 16  1  0
 16 17  2  0
 16 18  1  0
 18 19  1  0
 19 20  1  0
 20 21  1  0
 21 22  2  0
 21 23  1  0
 23 24  2  0
 24 25  1  0
 25 26  2  0
 26 27  1  0
  7 28  2  0
 28 29  1  0
 28 30  1  0
 30 31  2  0
 31 32  1  0
 32  2  1  0
 31  5  1  0
 17 12  1  0
 27 23  1  0
 20 15  1  0
  1 33  1  0
  1 34  1  0
  1 35  1  0
  3 36  1  0
  3 37  1  0
  4 38  1  0
  4 39  1  0
  6 40  1  0
 13 41  1  0
 14 42  1  0
 17 43  1  0
 18 44  1  0
 18 45  1  0
 19 46  1  0
 19 47  1  0
 24 48  1  0
 25 49  1  0
 26 50  1  0
 30 51  1  0
 32 52  1  0
 32 53  1  0
M  CHG  2   8  -1  29  -1
M  END
>  <UniqueID>  (30) 
29

>  <SMILES>  (30) 
CN1CCc2cc([N-]S(=O)(=O)c3ccc4c(c3)CCN4C(=O)c3ccco3)c([O-])cc2C1

>  <Energy>  (30) 
110.42381574088479

>  <Genealogy>  (30) 
CN1CCc2cc([N-]S(=O)(=O)c3ccc4c(c3)CCN4C(=O)c3ccco3)c([O-])cc2C1 (protonated)
CN1CCc2cc([N-]S(=O)(=O)c3ccc4c(c3)CCN4C(=O)c3ccco3)c([O-])cc2C1 (3D coordinates assigned)
CN1CCc2cc([N-]S(=O)(=O)c3ccc4c(c3)CCN4C(=O)c3ccco3)c([O-])cc2C1 (nonaromatic ring conformer: 110.42381574088479 kcal/mol)

>  <smiles>  (30) 
CN1CCc2cc(NS(=O)(=O)c3ccc4c(c3)CCN4C(=O)c3ccco3)c(O)cc2C1

>  <score_type>  (30) 
oracle

>  <origin>  (30) 
adgpu

>  <m_score__min__energy>  (30) 
-16.010000000000002

>  <m_primary>  (30) 
energy

$$$$
30:0
     RDKit          3D

 35 36  0  0  0  0  0  0  0  0999 V2000
   -7.2100   17.9800  -31.9740 C   0  0  0  0  0  0  0  0  0  0  0  0
   -8.1780   19.0680  -32.3270 C   0  0  0  0  0  0  0  0  0  0  0  0
   -9.3930   18.9220  -32.0340 O   0  0  0  0  0  0  0  0  0  0  0  0
   -7.7570   20.2870  -32.9560 N   0  0  0  0  0  0  0  0  0  0  0  0
   -7.1760   21.4260  -32.3060 C   0  0  0  0  0  0  0  0  0  0  0  0
   -5.8320   21.7320  -32.5500 C   0  0  0  0  0  0  0  0  0  0  0  0
   -5.2310   22.8250  -31.9190 C   0  0  0  0  0  0  0  0  0  0  0  0
   -5.9650   23.6130  -31.0230 C   0  0  0  0  0  0  0  0  0  0  0  0
   -5.2110   25.0110  -30.2630 S   0  0  0  0  0  0  0  0  0  0  0  0
   -5.7300   26.2890  -30.8610 O   0  0  0  0  0  0  0  0  0  0  0  0
   -5.5270   24.9930  -28.7950 O   0  0  0  0  0  0  0  0  0  0  0  0
   -3.4890   24.9420  -30.4760 N   0  0  0  0  0  0  0  0  0  0  0  0
   -2.6110   24.1460  -29.7090 N   0  0  0  0  0  0  0  0  0  0  0  0
   -2.6930   22.7780  -29.7190 C   0  0  0  0  0  0  0  0  0  0  0  0
   -1.8330   22.0030  -28.9290 C   0  0  0  0  0  0  0  0  0  0  0  0
   -1.9140   20.5050  -28.9650 C   0  0  0  0  0  0  0  0  0  0  0  0
   -0.8570   22.6450  -28.1610 C   0  0  0  0  0  0  0  0  0  0  0  0
   -0.7720   24.0340  -28.1690 C   0  0  0  0  0  0  0  0  0  0  0  0
   -1.6620   24.7760  -28.9510 C   0  0  0  0  0  0  0  0  0  0  0  0
   -1.5820   26.0340  -28.9500 O   0  0  0  0  0  0  0  0  0  0  0  0
   -7.2990   23.2860  -30.7470 C   0  0  0  0  0  0  0  0  0  0  0  0
   -7.9000   22.1940  -31.3780 C   0  0  0  0  0  0  0  0  0  0  0  0
   -7.1355   17.8963  -30.8797 H   0  0  0  0  0  0  0  0  0  0  0  0
   -7.5629   17.0255  -32.3916 H   0  0  0  0  0  0  0  0  0  0  0  0
   -6.2209   18.2195  -32.3916 H   0  0  0  0  0  0  0  0  0  0  0  0
   -5.2458   21.1092  -33.2418 H   0  0  0  0  0  0  0  0  0  0  0  0
   -4.1783   23.0671  -32.1267 H   0  0  0  0  0  0  0  0  0  0  0  0
   -3.4422   22.2827  -30.3542 H   0  0  0  0  0  0  0  0  0  0  0  0
   -1.9351   20.1141  -27.9370 H   0  0  0  0  0  0  0  0  0  0  0  0
   -2.8300   20.1999  -29.4922 H   0  0  0  0  0  0  0  0  0  0  0  0
   -1.0363   20.1029  -29.4922 H   0  0  0  0  0  0  0  0  0  0  0  0
   -0.1578   22.0535  -27.5517 H   0  0  0  0  0  0  0  0  0  0  0  0
   -0.0090   24.5451  -27.5635 H   0  0  0  0  0  0  0  0  0  0  0  0
   -7.8750   23.8909  -30.0313 H   0  0  0  0  0  0  0  0  0  0  0  0
   -8.9438   21.9343  -31.1476 H   0  0  0  0  0  0  0  0  0  0  0  0
  1  2  1  0
  2  3  2  0
  2  4  1  0
  4  5  1  0
  5  6  2  0
  6  7  1  0
  7  8  2  0
  8  9  1  0
  9 10  2  0
  9 11  2  0
  9 12  1  0
 12 13  1  0
 13 14  1  0
 14 15  2  0
 15 16  1  0
 15 17  1  0
 17 18  2  0
 18 19  1  0
 19 20  2  0
  8 21  1  0
 21 22  2  0
 22  5  1  0
 19 13  1  0
  1 23  1  0
  1 24  1  0
  1 25  1  0
  6 26  1  0
  7 27  1  0
 14 28  1  0
 16 29  1  0
 16 30  1  0
 16 31  1  0
 17 32  1  0
 18 33  1  0
 21 34  1  0
 22 35  1  0
M  CHG  2   4  -1  12  -1
M  END
>  <UniqueID>  (31) 
30

>  <SMILES>  (31) 
CC(=O)[N-]c1ccc(S(=O)(=O)[N-]n2cc(C)ccc2=O)cc1

>  <Energy>  (31) 
42.882461058741065

>  <Genealogy>  (31) 
CC(=O)[N-]c1ccc(S(=O)(=O)[N-]n2cc(C)ccc2=O)cc1 (protonated)
CC(=O)[N-]c1ccc(S(=O)(=O)[N-]n2cc(C)ccc2=O)cc1 (3D coordinates assigned)
CC(=O)[N-]c1ccc(S(=O)(=O)[N-]n2cc(C)ccc2=O)cc1 (optimized conformer: 42.882461058741065 kcal/mol)

>  <smiles>  (31) 
CC(=O)Nc1ccc(S(=O)(=O)Nn2cc(C)ccc2=O)cc1

>  <score_type>  (31) 
oracle

>  <origin>  (31) 
adgpu

>  <m_score__min__energy>  (31) 
-10.130000000000001

>  <m_primary>  (31) 
energy

$$$$
31:0
     RDKit          3D

 40 41  0  0  0  0  0  0  0  0999 V2000
   -6.8960   17.0920  -33.3440 C   0  0  0  0  0  0  0  0  0  0  0  0
   -7.1160   18.5000  -32.8790 C   0  0  0  0  0  0  0  0  0  0  0  0
   -6.4130   19.5600  -33.4740 C   0  0  0  0  0  0  0  0  0  0  0  0
   -6.6430   20.8770  -33.0640 C   0  0  0  0  0  0  0  0  0  0  0  0
   -7.5870   21.1520  -32.0620 C   0  0  0  0  0  0  0  0  0  0  0  0
   -7.8230   22.5710  -31.6170 C   0  0  0  0  0  0  0  0  0  0  0  0
   -6.4210   23.6520  -32.0810 S   0  0  0  0  0  0  0  0  0  0  0  0
   -6.2050   24.4670  -30.4530 C   0  0  0  0  0  0  0  0  0  0  0  0
   -5.2840   25.6850  -30.5640 C   0  0  0  0  0  0  0  0  0  0  0  0
   -3.8740   25.2990  -30.5900 N   0  0  0  0  0  0  0  0  0  0  0  0
   -3.2700   24.1150  -30.0450 C   0  0  0  0  0  0  0  0  0  0  0  0
   -2.6820   24.2120  -28.9340 O   0  0  0  0  0  0  0  0  0  0  0  0
   -3.3190   22.7930  -30.7140 C   0  0  0  0  0  0  0  0  0  0  0  0
   -4.1800   21.7910  -30.2500 C   0  0  0  0  0  0  0  0  0  0  0  0
   -4.2150   20.5640  -30.9050 C   0  0  0  0  0  0  0  0  0  0  0  0
   -3.3840   20.3530  -32.0050 C   0  0  0  0  0  0  0  0  0  0  0  0
   -3.4170   19.2430  -32.6060 O   0  0  0  0  0  0  0  0  0  0  0  0
   -2.5440   21.3500  -32.4180 N   0  0  0  0  0  0  0  0  0  0  0  0
   -1.6630   21.1590  -33.5690 C   0  0  0  0  0  0  0  0  0  0  0  0
   -2.5200   22.5240  -31.7810 N   0  0  0  0  0  0  0  0  0  0  0  0
   -8.3070   20.0930  -31.4850 C   0  0  0  0  0  0  0  0  0  0  0  0
   -8.0750   18.7770  -31.8930 C   0  0  0  0  0  0  0  0  0  0  0  0
   -6.7925   16.4298  -32.4718 H   0  0  0  0  0  0  0  0  0  0  0  0
   -7.7544   16.7679  -33.9507 H   0  0  0  0  0  0  0  0  0  0  0  0
   -5.9796   17.0452  -33.9507 H   0  0  0  0  0  0  0  0  0  0  0  0
   -5.6782   19.3535  -34.2661 H   0  0  0  0  0  0  0  0  0  0  0  0
   -6.0818   21.7011  -33.5286 H   0  0  0  0  0  0  0  0  0  0  0  0
   -8.7400   22.9485  -32.0930 H   0  0  0  0  0  0  0  0  0  0  0  0
   -7.9225   22.5805  -30.5215 H   0  0  0  0  0  0  0  0  0  0  0  0
   -7.1877   24.7924  -30.0810 H   0  0  0  0  0  0  0  0  0  0  0  0
   -5.7483   23.7458  -29.7592 H   0  0  0  0  0  0  0  0  0  0  0  0
   -5.5217   26.2278  -31.4907 H   0  0  0  0  0  0  0  0  0  0  0  0
   -5.4485   26.3197  -29.6807 H   0  0  0  0  0  0  0  0  0  0  0  0
   -4.8227   21.9722  -29.3759 H   0  0  0  0  0  0  0  0  0  0  0  0
   -4.8912   19.7685  -30.5588 H   0  0  0  0  0  0  0  0  0  0  0  0
   -0.6441   20.9381  -33.2182 H   0  0  0  0  0  0  0  0  0  0  0  0
   -2.0313   20.3198  -34.1774 H   0  0  0  0  0  0  0  0  0  0  0  0
   -1.6507   22.0753  -34.1774 H   0  0  0  0  0  0  0  0  0  0  0  0
   -9.0573   20.3008  -30.7079 H   0  0  0  0  0  0  0  0  0  0  0  0
   -8.6469   17.9542  -31.4391 H   0  0  0  0  0  0  0  0  0  0  0  0
  1  2  1  0
  2  3  2  0
  3  4  1  0
  4  5  2  0
  5  6  1  0
  6  7  1  0
  7  8  1  0
  8  9  1  0
  9 10  1  0
 10 11  1  0
 11 12  2  0
 11 13  1  0
 13 14  1  0
 14 15  2  0
 15 16  1  0
 16 17  2  0
 16 18  1  0
 18 19  1  0
 18 20  1  0
  5 21  1  0
 21 22  2  0
 22  2  1  0
 20 13  2  0
  1 23  1  0
  1 24  1  0
  1 25  1  0
  3 26  1  0
  4 27  1  0
  6 28  1  0
  6 29  1  0
  8 30  1  0
  8 31  1  0
  9 32  1  0
  9 33  1  0
 14 34  1  0
 15 35  1  0
 19 36  1  0
 19 37  1  0
 19 38  1  0
 21 39  1  0
 22 40  1  0
M  CHG  1  10  -1
M  END
>  <UniqueID>  (32) 
31

>  <SMILES>  (32) 
Cc1ccc(CSCC[N-]C(=O)c2ccc(=O)n(C)n2)cc1

>  <Energy>  (32) 
35.58576859762891

>  <Genealogy>  (32) 
Cc1ccc(CSCC[N-]C(=O)c2ccc(=O)n(C)n2)cc1 (protonated)
Cc1ccc(CSCC[N-]C(=O)c2ccc(=O)n(C)n2)cc1 (3D coordinates assigned)
Cc1ccc(CSCC[N-]C(=O)c2ccc(=O)n(C)n2)cc1 (optimized conformer: 35.58576859762891 kcal/mol)

>  <smiles>  (32) 
Cc1ccc(CSCCNC(=O)c2ccc(=O)n(C)n2)cc1

>  <score_type>  (32) 
oracle

>  <origin>  (32) 
adgpu

>  <m_score__min__energy>  (32) 
-9.5600000000000005

>  <m_primary>  (32) 
energy

$$$$
32:0
     RDKit          3D

 26 27  0  0  0  0  0  0  0  0999 V2000
   -3.7460   25.3000  -30.4940 O   0  0  0  0  0  0  0  0  0  0  0  0
   -3.5560   24.3040  -29.7470 C   0  0  0  0  0  0  0  0  0  0  0  0
   -4.6120   23.4470  -29.4700 O   0  0  0  0  0  0  0  0  0  0  0  0
   -2.2260   24.0530  -29.1750 C   0  0  0  0  0  0  0  0  0  0  0  0
   -1.7470   22.8430  -28.6910 C   0  0  0  0  0  0  0  0  0  0  0  0
   -0.4830   22.9970  -28.2410 N   0  0  0  0  0  0  0  0  0  0  0  0
    0.3310   21.9700  -27.5940 C   0  0  0  0  0  0  0  0  0  0  0  0
   -0.5060   20.7540  -27.3130 C   0  0  0  0  0  0  0  0  0  0  0  0
   -1.5890   20.8330  -26.4200 C   0  0  0  0  0  0  0  0  0  0  0  0
   -2.3440   19.6930  -26.1270 C   0  0  0  0  0  0  0  0  0  0  0  0
   -2.0180   18.4670  -26.7140 C   0  0  0  0  0  0  0  0  0  0  0  0
   -0.9350   18.3780  -27.5920 C   0  0  0  0  0  0  0  0  0  0  0  0
   -0.1770   19.5160  -27.8880 C   0  0  0  0  0  0  0  0  0  0  0  0
   -0.1570   24.2930  -28.4160 C   0  0  0  0  0  0  0  0  0  0  0  0
    1.0660   24.8480  -28.0490 O   0  0  0  0  0  0  0  0  0  0  0  0
   -1.2070   24.9690  -28.9950 C   0  0  0  0  0  0  0  0  0  0  0  0
   -1.2340   26.3180  -29.3270 O   0  0  0  0  0  0  0  0  0  0  0  0
   -2.3126   21.8997  -28.6763 H   0  0  0  0  0  0  0  0  0  0  0  0
    1.1640   21.6938  -28.2571 H   0  0  0  0  0  0  0  0  0  0  0  0
    0.7248   22.3649  -26.6459 H   0  0  0  0  0  0  0  0  0  0  0  0
   -1.8433   21.7946  -25.9503 H   0  0  0  0  0  0  0  0  0  0  0  0
   -3.1954   19.7611  -25.4338 H   0  0  0  0  0  0  0  0  0  0  0  0
   -2.6145   17.5718  -26.4845 H   0  0  0  0  0  0  0  0  0  0  0  0
   -0.6780   17.4120  -28.0511 H   0  0  0  0  0  0  0  0  0  0  0  0
    0.6798   19.4406  -28.5737 H   0  0  0  0  0  0  0  0  0  0  0  0
    1.2670   25.8260  -28.2150 H   0  0  0  0  0  0  0  0  0  0  0  0
  1  2  2  0
  2  3  1  0
  2  4  1  0
  4  5  2  0
  5  6  1  0
  6  7  1  0
  7  8  1  0
  8  9  2  0
  9 10  1  0
 10 11  2  0
 11 12  1  0
 12 13  2  0
  6 14  1  0
 14 15  1  0
 14 16  2  0
 16 17  1  0
 16  4  1  0
 13  8  1  0
  5 18  1  0
  7 19  1  0
  7 20  1  0
  9 21  1  0
 10 22  1  0
 11 23  1  0
 12 24  1  0
 13 25  1  0
 15 26  1  0
M  CHG  2   3  -1  17  -1
M  END
>  <UniqueID>  (33) 
32

>  <SMILES>  (33) 
O=C([O-])c1cn(Cc2ccccc2)c(O)c1[O-]

>  <Energy>  (33) 
52.83153665369311

>  <Genealogy>  (33) 
O=C([O-])c1cn(Cc2ccccc2)c(O)c1[O-] (protonated)
O=C([O-])c1cn(Cc2ccccc2)c(O)c1[O-] (3D coordinates assigned)
O=C([O-])c1cn(Cc2ccccc2)c(O)c1[O-] (optimized conformer: 52.83153665369311 kcal/mol)

>  <smiles>  (33) 
O=C(O)c1cn(Cc2ccccc2)c(O)c1O

>  <score_type>  (33) 
oracle

>  <origin>  (33) 
adgpu

>  <m_score__min__energy>  (33) 
-10.289999999999999

>  <m_primary>  (33) 
energy

$$$$
33:0
     RDKit          3D

 56 60  0  0  0  0  0  0  0  0999 V2000
   -2.2650   24.8790  -27.2310 C   0  0  0  0  0  0  0  0  0  0  0  0
   -1.6550   25.2390  -28.5810 C   0  0  0  0  0  0  0  0  0  0  0  0
   -2.5560   24.8700  -29.6720 N   0  0  0  0  0  0  0  0  0  0  0  0
   -3.3290   23.6640  -29.7510 C   0  0  0  0  0  0  0  0  0  0  0  0
   -2.7910   22.5770  -29.4080 O   0  0  0  0  0  0  0  0  0  0  0  0
   -4.7250   23.6510  -30.2280 C   0  0  0  0  0  0  0  0  0  0  0  0
   -5.4880   24.8250  -30.1870 C   0  0  0  0  0  0  0  0  0  0  0  0
   -6.8070   24.8240  -30.6460 C   0  0  0  0  0  0  0  0  0  0  0  0
   -7.3720   23.6570  -31.1760 C   0  0  0  0  0  0  0  0  0  0  0  0
   -8.6880   23.6700  -31.6390 O   0  0  0  0  0  0  0  0  0  0  0  0
   -6.6030   22.4810  -31.2570 C   0  0  0  0  0  0  0  0  0  0  0  0
   -7.1810   21.2390  -31.8170 C   0  0  0  0  0  0  0  0  0  0  0  0
   -8.4920   20.9440  -31.7120 N   0  0  0  0  0  0  0  0  0  0  0  0
   -8.6510   19.7100  -32.1620 N   0  0  0  0  0  0  0  0  0  0  0  0
   -7.4380   19.2740  -32.5460 C   0  0  0  0  0  0  0  0  0  0  0  0
   -6.4830   20.2030  -32.3480 N   0  0  0  0  0  0  0  0  0  0  0  0
   -5.0970   20.1460  -32.7570 C   0  0  0  0  0  0  0  0  0  0  0  0
   -4.4980   21.3100  -33.2780 C   0  0  0  0  0  0  0  0  0  0  0  0
   -3.1540   21.3340  -33.6390 C   0  0  0  0  0  0  0  0  0  0  0  0
   -2.3680   20.1840  -33.5140 C   0  0  0  0  0  0  0  0  0  0  0  0
   -0.9780   20.2130  -33.8870 N   0  0  0  0  0  0  0  0  0  0  0  0
    0.0290   19.5490  -33.0470 C   0  0  0  0  0  0  0  0  0  0  0  0
    1.3590   20.3380  -33.0330 C   0  0  0  0  0  0  0  0  0  0  0  0
    1.3940   21.4160  -33.9540 O   0  0  0  0  0  0  0  0  0  0  0  0
    0.9400   20.9890  -35.2200 C   0  0  0  0  0  0  0  0  0  0  0  0
   -0.5760   20.7920  -35.1750 C   0  0  0  0  0  0  0  0  0  0  0  0
   -2.9640   19.0000  -33.0620 C   0  0  0  0  0  0  0  0  0  0  0  0
   -4.3190   18.9520  -32.7000 C   0  0  0  0  0  0  0  0  0  0  0  0
   -4.8000   17.6830  -32.3240 O   0  0  0  0  0  0  0  0  0  0  0  0
   -6.1210   17.3250  -31.9330 C   0  0  0  0  0  0  0  0  0  0  0  0
   -7.1560   17.8630  -32.9140 C   0  0  0  0  0  0  0  0  0  0  0  0
   -5.2830   22.4860  -30.7730 C   0  0  0  0  0  0  0  0  0  0  0  0
   -1.6208   25.2592  -26.4245 H   0  0  0  0  0  0  0  0  0  0  0  0
   -3.2636   25.3325  -27.1472 H   0  0  0  0  0  0  0  0  0  0  0  0
   -2.3507   23.7855  -27.1472 H   0  0  0  0  0  0  0  0  0  0  0  0
   -1.4708   26.3229  -28.6162 H   0  0  0  0  0  0  0  0  0  0  0  0
   -0.7113   24.6866  -28.7005 H   0  0  0  0  0  0  0  0  0  0  0  0
   -5.0464   25.7516  -29.7916 H   0  0  0  0  0  0  0  0  0  0  0  0
   -7.4057   25.7451  -30.5910 H   0  0  0  0  0  0  0  0  0  0  0  0
   -9.2250   22.8160  -31.7380 H   0  0  0  0  0  0  0  0  0  0  0  0
   -5.1052   22.2188  -33.4020 H   0  0  0  0  0  0  0  0  0  0  0  0
   -2.7076   22.2624  -34.0247 H   0  0  0  0  0  0  0  0  0  0  0  0
   -0.3546   19.4753  -32.0187 H   0  0  0  0  0  0  0  0  0  0  0  0
    0.2231   18.5494  -33.4630 H   0  0  0  0  0  0  0  0  0  0  0  0
    1.5127   20.7411  -32.0211 H   0  0  0  0  0  0  0  0  0  0  0  0
    2.1516   19.6358  -33.3309 H   0  0  0  0  0  0  0  0  0  0  0  0
    1.1892   21.7492  -35.9750 H   0  0  0  0  0  0  0  0  0  0  0  0
    1.4268   20.0385  -35.4840 H   0  0  0  0  0  0  0  0  0  0  0  0
   -1.0721   21.7650  -35.3058 H   0  0  0  0  0  0  0  0  0  0  0  0
   -0.8712   20.1061  -35.9827 H   0  0  0  0  0  0  0  0  0  0  0  0
   -2.3558   18.0863  -32.9890 H   0  0  0  0  0  0  0  0  0  0  0  0
   -6.1987   16.2284  -31.8963 H   0  0  0  0  0  0  0  0  0  0  0  0
   -6.3203   17.7635  -30.9441 H   0  0  0  0  0  0  0  0  0  0  0  0
   -6.7604   17.8153  -33.9393 H   0  0  0  0  0  0  0  0  0  0  0  0
   -8.0766   17.2625  -32.8699 H   0  0  0  0  0  0  0  0  0  0  0  0
   -4.6817   21.5662  -30.8224 H   0  0  0  0  0  0  0  0  0  0  0  0
  1  2  1  0
  2  3  1  0
  3  4  1  0
  4  5  2  0
  4  6  1  0
  6  7  2  0
  7  8  1  0
  8  9  2  0
  9 10  1  0
  9 11  1  0
 11 12  1  0
 12 13  2  0
 13 14  1  0
 14 15  2  0
 15 16  1  0
 16 17  1  0
 17 18  2  0
 18 19  1  0
 19 20  2  0
 20 21  1  0
 21 22  1  0
 22 23  1  0
 23 24  1  0
 24 25  1  0
 25 26  1  0
 20 27  1  0
 27 28  2  0
 28 29  1  0
 29 30  1  0
 30 31  1  0
 11 32  2  0
 32  6  1  0
 16 12  1  0
 28 17  1  0
 31 15  1  0
 26 21  1  0
  1 33  1  0
  1 34  1  0
  1 35  1  0
  2 36  1  0
  2 37  1  0
  7 38  1  0
  8 39  1  0
 10 40  1  0
 18 41  1  0
 19 42  1  0
 22 43  1  0
 22 44  1  0
 23 45  1  0
 23 46  1  0
 25 47  1  0
 25 48  1  0
 26 49  1  0
 26 50  1  0
 27 51  1  0
 30 52  1  0
 30 53  1  0
 31 54  1  0
 31 55  1  0
 32 56  1  0
M  CHG  1   3  -1
M  END
>  <UniqueID>  (34) 
33

>  <SMILES>  (34) 
CC[N-]C(=O)c1ccc(O)c(-c2nnc3n2-c2ccc(N4CCOCC4)cc2OCC3)c1

>  <Energy>  (34) 
123.34227952765043

>  <Genealogy>  (34) 
CC[N-]C(=O)c1ccc(O)c(-c2nnc3n2-c2ccc(N4CCOCC4)cc2OCC3)c1 (protonated)
CC[N-]C(=O)c1ccc(O)c(-c2nnc3n2-c2ccc(N4CCOCC4)cc2OCC3)c1 (3D coordinates assigned)
CC[N-]C(=O)c1ccc(O)c(-c2nnc3n2-c2ccc(N4CCOCC4)cc2OCC3)c1 (nonaromatic ring conformer: 123.34227952765043 kcal/mol)

>  <smiles>  (34) 
CCNC(=O)c1ccc(O)c(-c2nnc3n2-c2ccc(N4CCOCC4)cc2OCC3)c1

>  <score_type>  (34) 
oracle

>  <origin>  (34) 
adgpu

>  <m_score__min__energy>  (34) 
-8.4399999999999995

>  <m_primary>  (34) 
energy

$$$$
34:0
     RDKit          3D

 62 65  0  0  0  0  0  0  0  0999 V2000
   -0.0170   19.0650  -30.8900 C   0  0  0  0  0  0  0  0  0  0  0  0
   -1.1450   19.9560  -31.1610 N   0  0  0  0  0  0  0  0  0  0  0  0
   -1.6810   20.8030  -30.1210 C   0  0  0  0  0  0  0  0  0  0  0  0
   -1.8980   20.2950  -28.8280 C   0  0  0  0  0  0  0  0  0  0  0  0
   -2.3650   21.1290  -27.8080 C   0  0  0  0  0  0  0  0  0  0  0  0
   -2.6180   22.4760  -28.0620 C   0  0  0  0  0  0  0  0  0  0  0  0
   -2.4210   23.0000  -29.3490 C   0  0  0  0  0  0  0  0  0  0  0  0
   -2.5970   24.4450  -29.6000 C   0  0  0  0  0  0  0  0  0  0  0  0
   -1.8570   25.2670  -29.0020 O   0  0  0  0  0  0  0  0  0  0  0  0
   -3.5680   24.9380  -30.5360 N   0  0  0  0  0  0  0  0  0  0  0  0
   -4.9360   24.5050  -30.6440 C   0  0  0  0  0  0  0  0  0  0  0  0
   -5.2650   23.2000  -31.0390 C   0  0  0  0  0  0  0  0  0  0  0  0
   -6.6070   22.8090  -31.1750 C   0  0  0  0  0  0  0  0  0  0  0  0
   -6.9430   21.4620  -31.7000 C   0  0  0  0  0  0  0  0  0  0  0  0
   -8.2600   21.1540  -32.0850 C   0  0  0  0  0  0  0  0  0  0  0  0
   -8.5610   19.9070  -32.6390 C   0  0  0  0  0  0  0  0  0  0  0  0
   -7.5520   18.9610  -32.8300 C   0  0  0  0  0  0  0  0  0  0  0  0
   -6.2290   19.2520  -32.4680 C   0  0  0  0  0  0  0  0  0  0  0  0
   -5.2070   18.2600  -32.6700 N   0  0  0  0  0  0  0  0  0  0  0  0
   -5.2950   16.9100  -32.1830 C   0  0  0  0  0  0  0  0  0  0  0  0
   -6.0630   16.6410  -31.2200 O   0  0  0  0  0  0  0  0  0  0  0  0
   -4.4580   15.8360  -32.7700 C   0  0  0  0  0  0  0  0  0  0  0  0
   -4.3760   14.5740  -32.1530 C   0  0  0  0  0  0  0  0  0  0  0  0
   -3.5840   13.5680  -32.7110 C   0  0  0  0  0  0  0  0  0  0  0  0
   -2.8560   13.8090  -33.8790 C   0  0  0  0  0  0  0  0  0  0  0  0
   -2.8960   15.0720  -34.4950 C   0  0  0  0  0  0  0  0  0  0  0  0
   -2.1410   15.3360  -35.7750 C   0  0  0  0  0  0  0  0  0  0  0  0
   -1.3190   14.2570  -36.0520 F   0  0  0  0  0  0  0  0  0  0  0  0
   -1.3650   16.4790  -35.6720 F   0  0  0  0  0  0  0  0  0  0  0  0
   -3.0260   15.5100  -36.8270 F   0  0  0  0  0  0  0  0  0  0  0  0
   -3.7150   16.0750  -33.9440 C   0  0  0  0  0  0  0  0  0  0  0  0
   -5.9390   20.4920  -31.8730 C   0  0  0  0  0  0  0  0  0  0  0  0
   -7.6060   23.7340  -30.8360 C   0  0  0  0  0  0  0  0  0  0  0  0
   -7.2700   24.9740  -30.3900 N   0  0  0  0  0  0  0  0  0  0  0  0
   -5.9740   25.3780  -30.2910 C   0  0  0  0  0  0  0  0  0  0  0  0
   -5.7180   26.5410  -29.8810 O   0  0  0  0  0  0  0  0  0  0  0  0
   -1.9750   22.1550  -30.3790 C   0  0  0  0  0  0  0  0  0  0  0  0
   -1.9470   19.8230  -32.7020 S   0  0  0  0  0  0  0  0  0  0  0  0
   -0.9600   20.6020  -33.9630 C   0  0  0  0  0  0  0  0  0  0  0  0
   -3.3020   20.4770  -32.6390 O   0  0  0  0  0  0  0  0  0  0  0  0
   -2.1330   18.3710  -33.0460 O   0  0  0  0  0  0  0  0  0  0  0  0
    0.1150   18.9608  -29.8029 H   0  0  0  0  0  0  0  0  0  0  0  0
   -0.2156   18.0773  -31.3316 H   0  0  0  0  0  0  0  0  0  0  0  0
    0.8979   19.4869  -31.3316 H   0  0  0  0  0  0  0  0  0  0  0  0
   -1.6989   19.2338  -28.6176 H   0  0  0  0  0  0  0  0  0  0  0  0
   -2.5335   20.7206  -26.8006 H   0  0  0  0  0  0  0  0  0  0  0  0
   -2.9729   23.1299  -27.2518 H   0  0  0  0  0  0  0  0  0  0  0  0
   -4.4635   22.4752  -31.2444 H   0  0  0  0  0  0  0  0  0  0  0  0
   -9.0578   21.8990  -31.9493 H   0  0  0  0  0  0  0  0  0  0  0  0
   -9.5962   19.6699  -32.9256 H   0  0  0  0  0  0  0  0  0  0  0  0
   -7.7964   17.9816  -33.2671 H   0  0  0  0  0  0  0  0  0  0  0  0
   -4.3040   18.5670  -33.0970 H   0  0  0  0  0  0  0  0  0  0  0  0
   -4.9378   14.3790  -31.2276 H   0  0  0  0  0  0  0  0  0  0  0  0
   -3.5331   12.5808  -32.2284 H   0  0  0  0  0  0  0  0  0  0  0  0
   -2.2476   13.0053  -34.3194 H   0  0  0  0  0  0  0  0  0  0  0  0
   -3.7762   17.0573  -34.4353 H   0  0  0  0  0  0  0  0  0  0  0  0
   -4.9134   20.7067  -31.5382 H   0  0  0  0  0  0  0  0  0  0  0  0
   -8.6657   23.4550  -30.9314 H   0  0  0  0  0  0  0  0  0  0  0  0
   -1.8544   22.5540  -31.3970 H   0  0  0  0  0  0  0  0  0  0  0  0
   -0.1803   21.2174  -33.4904 H   0  0  0  0  0  0  0  0  0  0  0  0
   -0.4886   19.8299  -34.5888 H   0  0  0  0  0  0  0  0  0  0  0  0
   -1.6014   21.2399  -34.5888 H   0  0  0  0  0  0  0  0  0  0  0  0
  1  2  1  0
  2  3  1  0
  3  4  2  0
  4  5  1  0
  5  6  2  0
  6  7  1  0
  7  8  1  0
  8  9  2  0
  8 10  1  0
 10 11  1  0
 11 12  2  0
 12 13  1  0
 13 14  1  0
 14 15  2  0
 15 16  1  0
 16 17  2  0
 17 18  1  0
 18 19  1  0
 19 20  1  0
 20 21  2  0
 20 22  1  0
 22 23  2  0
 23 24  1  0
 24 25  2  0
 25 26  1  0
 26 27  1  0
 27 28  1  0
 27 29  1  0
 27 30  1  0
 26 31  2  0
 18 32  2  0
 13 33  2  0
 33 34  1  0
 34 35  1  0
 35 36  2  0
  7 37  2  0
  2 38  1  0
 38 39  1  0
 38 40  2  0
 38 41  2  0
 37  3  1  0
 35 11  1  0
 32 14  1  0
 31 22  1  0
  1 42  1  0
  1 43  1  0
  1 44  1  0
  4 45  1  0
  5 46  1  0
  6 47  1  0
 12 48  1  0
 15 49  1  0
 16 50  1  0
 17 51  1  0
 19 52  1  0
 23 53  1  0
 24 54  1  0
 25 55  1  0
 31 56  1  0
 32 57  1  0
 33 58  1  0
 37 59  1  0
 39 60  1  0
 39 61  1  0
 39 62  1  0
M  CHG  2  10  -1  34  -1
M  END
>  <UniqueID>  (35) 
34

>  <SMILES>  (35) 
CN(c1cccc(C(=O)[N-]c2cc(-c3cccc(NC(=O)c4cccc(C(F)(F)F)c4)c3)c[n-]c2=O)c1)S(C)(=O)=O

>  <Energy>  (35) 
83.23678332544786

>  <Genealogy>  (35) 
CN(c1cccc(C(=O)[N-]c2cc(-c3cccc(NC(=O)c4cccc(C(F)(F)F)c4)c3)c[n-]c2=O)c1)S(C)(=O)=O (protonated)
CN(c1cccc(C(=O)[N-]c2cc(-c3cccc(NC(=O)c4cccc(C(F)(F)F)c4)c3)c[n-]c2=O)c1)S(C)(=O)=O (3D coordinates assigned)
CN(c1cccc(C(=O)[N-]c2cc(-c3cccc(NC(=O)c4cccc(C(F)(F)F)c4)c3)c[n-]c2=O)c1)S(C)(=O)=O (optimized conformer: 83.23678332544786 kcal/mol)

>  <smiles>  (35) 
CN(c1cccc(C(=O)Nc2cc(-c3cccc(NC(=O)c4cccc(C(F)(F)F)c4)c3)c[nH]c2=O)c1)S(C)(=O)=O

>  <score_type>  (35) 
oracle

>  <origin>  (35) 
adgpu

>  <m_score__min__energy>  (35) 
-13

>  <m_primary>  (35) 
energy

$$$$
35:0
     RDKit          3D

 48 51  0  0  0  0  0  0  0  0999 V2000
   -7.1800   24.1780  -32.8900 O   0  0  0  0  0  0  0  0  0  0  0  0
   -6.8070   23.2920  -31.7320 S   0  0  0  0  0  0  0  0  0  0  0  0
   -7.9460   23.2770  -30.7520 O   0  0  0  0  0  0  0  0  0  0  0  0
   -6.4850   21.6610  -32.3140 C   0  0  0  0  0  0  0  0  0  0  0  0
   -7.5260   20.7260  -32.4200 C   0  0  0  0  0  0  0  0  0  0  0  0
   -7.2670   19.4390  -32.9030 C   0  0  0  0  0  0  0  0  0  0  0  0
   -5.9690   19.0820  -33.2890 C   0  0  0  0  0  0  0  0  0  0  0  0
   -5.6480   17.4690  -33.8990 Cl  0  0  0  0  0  0  0  0  0  0  0  0
   -4.9300   20.0150  -33.1920 C   0  0  0  0  0  0  0  0  0  0  0  0
   -5.1870   21.3020  -32.7080 C   0  0  0  0  0  0  0  0  0  0  0  0
   -5.3690   23.9180  -30.9550 C   0  0  0  0  0  0  0  0  0  0  0  0
   -4.8490   25.1310  -31.2090 N   0  0  0  0  0  0  0  0  0  0  0  0
   -3.7730   25.2410  -30.4490 N   0  0  0  0  0  0  0  0  0  0  0  0
   -3.6660   24.0920  -29.7530 C   0  0  0  0  0  0  0  0  0  0  0  0
   -2.5880   23.8010  -28.7750 C   0  0  0  0  0  0  0  0  0  0  0  0
   -2.5130   22.5230  -28.1880 C   0  0  0  0  0  0  0  0  0  0  0  0
   -1.5190   22.2200  -27.2480 C   0  0  0  0  0  0  0  0  0  0  0  0
   -1.4640   20.6220  -26.4970 S   0  0  0  0  0  0  0  0  0  0  0  0
   -1.2580   20.7770  -25.0150 O   0  0  0  0  0  0  0  0  0  0  0  0
   -2.7810   19.9280  -26.7120 O   0  0  0  0  0  0  0  0  0  0  0  0
   -0.1750   19.6450  -27.1630 N   0  0  0  0  0  0  0  0  0  0  0  0
   -0.6670   18.2820  -27.4630 C   0  0  0  0  0  0  0  0  0  0  0  0
    0.2840   17.5400  -28.4080 C   0  0  0  0  0  0  0  0  0  0  0  0
    0.3910   18.2590  -29.7650 C   0  0  0  0  0  0  0  0  0  0  0  0
    0.0840   19.7650  -29.6660 C   0  0  0  0  0  0  0  0  0  0  0  0
    0.4990   20.3260  -28.2980 C   0  0  0  0  0  0  0  0  0  0  0  0
   -0.5770   23.1950  -26.9020 C   0  0  0  0  0  0  0  0  0  0  0  0
   -0.6330   24.4640  -27.4800 C   0  0  0  0  0  0  0  0  0  0  0  0
   -1.6300   24.7750  -28.4110 C   0  0  0  0  0  0  0  0  0  0  0  0
   -1.6550   26.0510  -28.9620 O   0  0  0  0  0  0  0  0  0  0  0  0
   -4.6590   23.2260  -30.0460 N   0  0  0  0  0  0  0  0  0  0  0  0
   -8.5475   21.0056  -32.1227 H   0  0  0  0  0  0  0  0  0  0  0  0
   -8.0839   18.7064  -32.9797 H   0  0  0  0  0  0  0  0  0  0  0  0
   -3.9106   19.7359  -33.4966 H   0  0  0  0  0  0  0  0  0  0  0  0
   -4.3695   22.0345  -32.6361 H   0  0  0  0  0  0  0  0  0  0  0  0
   -3.2448   21.7521  -28.4713 H   0  0  0  0  0  0  0  0  0  0  0  0
   -0.7508   17.7167  -26.5231 H   0  0  0  0  0  0  0  0  0  0  0  0
   -1.6469   18.3681  -27.9552 H   0  0  0  0  0  0  0  0  0  0  0  0
    1.2819   17.4913  -27.9478 H   0  0  0  0  0  0  0  0  0  0  0  0
   -0.1131   16.5286  -28.5793 H   0  0  0  0  0  0  0  0  0  0  0  0
    1.4136   18.1330  -30.1503 H   0  0  0  0  0  0  0  0  0  0  0  0
   -0.3554   17.8115  -30.4377 H   0  0  0  0  0  0  0  0  0  0  0  0
    0.6364   20.2967  -30.4547 H   0  0  0  0  0  0  0  0  0  0  0  0
   -0.9997   19.9090  -29.7881 H   0  0  0  0  0  0  0  0  0  0  0  0
    1.5863   20.2041  -28.1843 H   0  0  0  0  0  0  0  0  0  0  0  0
    0.1996   21.3841  -28.2716 H   0  0  0  0  0  0  0  0  0  0  0  0
    0.2110   22.9603  -26.1713 H   0  0  0  0  0  0  0  0  0  0  0  0
    0.1114   25.2246  -27.2019 H   0  0  0  0  0  0  0  0  0  0  0  0
  1  2  2  0
  2  3  2  0
  2  4  1  0
  4  5  2  0
  5  6  1  0
  6  7  2  0
  7  8  1  0
  7  9  1  0
  9 10  2  0
  2 11  1  0
 11 12  2  0
 12 13  1  0
 13 14  1  0
 14 15  1  0
 15 16  2  0
 16 17  1  0
 17 18  1  0
 18 19  2  0
 18 20  2  0
 18 21  1  0
 21 22  1  0
 22 23  1  0
 23 24  1  0
 24 25  1  0
 25 26  1  0
 17 27  2  0
 27 28  1  0
 28 29  2  0
 29 30  1  0
 14 31  2  0
 10  4  1  0
 31 11  1  0
 29 15  1  0
 26 21  1  0
  5 32  1  0
  6 33  1  0
  9 34  1  0
 10 35  1  0
 16 36  1  0
 22 37  1  0
 22 38  1  0
 23 39  1  0
 23 40  1  0
 24 41  1  0
 24 42  1  0
 25 43  1  0
 25 44  1  0
 26 45  1  0
 26 46  1  0
 27 47  1  0
 28 48  1  0
M  CHG  2  13  -1  30  -1
M  END
>  <UniqueID>  (36) 
35

>  <SMILES>  (36) 
O=S(=O)(c1ccc(Cl)cc1)c1n[n-]c(-c2cc(S(=O)(=O)N3CCCCC3)ccc2[O-])n1

>  <Energy>  (36) 
91.54225881106802

>  <Genealogy>  (36) 
O=S(=O)(c1ccc(Cl)cc1)c1n[n-]c(-c2cc(S(=O)(=O)N3CCCCC3)ccc2[O-])n1 (protonated)
O=S(=O)(c1ccc(Cl)cc1)c1n[n-]c(-c2cc(S(=O)(=O)N3CCCCC3)ccc2[O-])n1 (3D coordinates assigned)
O=S(=O)(c1ccc(Cl)cc1)c1n[n-]c(-c2cc(S(=O)(=O)N3CCCCC3)ccc2[O-])n1 (nonaromatic ring conformer: 91.54225881106802 kcal/mol)

>  <smiles>  (36) 
O=S(=O)(c1ccc(Cl)cc1)c1n[nH]c(-c2cc(S(=O)(=O)N3CCCCC3)ccc2O)n1

>  <score_type>  (36) 
oracle

>  <origin>  (36) 
adgpu

>  <m_score__min__energy>  (36) 
-15.210000000000001

>  <m_primary>  (36) 
energy

$$$$
36:0
     RDKit          3D

 64 67  0  0  0  0  0  0  0  0999 V2000
   -0.1370   20.1940  -28.8680 C   0  0  0  0  0  0  0  0  0  0  0  0
   -1.1050   19.3140  -28.1980 N   0  0  0  0  0  0  0  0  0  0  0  0
   -0.3990   18.2450  -27.4770 C   0  0  0  0  0  0  0  0  0  0  0  0
   -2.0730   20.2440  -27.0780 S   0  0  0  0  0  0  0  0  0  0  0  0
   -3.4710   19.6870  -27.0430 O   0  0  0  0  0  0  0  0  0  0  0  0
   -1.4940   20.1230  -25.6930 O   0  0  0  0  0  0  0  0  0  0  0  0
   -2.1380   21.9490  -27.5320 C   0  0  0  0  0  0  0  0  0  0  0  0
   -1.4570   22.9070  -26.7700 C   0  0  0  0  0  0  0  0  0  0  0  0
   -1.4910   24.2510  -27.1390 C   0  0  0  0  0  0  0  0  0  0  0  0
   -2.2000   24.6520  -28.2730 C   0  0  0  0  0  0  0  0  0  0  0  0
   -2.8910   23.7050  -29.0520 C   0  0  0  0  0  0  0  0  0  0  0  0
   -3.6290   24.1240  -30.2670 C   0  0  0  0  0  0  0  0  0  0  0  0
   -3.8660   25.3460  -30.4700 O   0  0  0  0  0  0  0  0  0  0  0  0
   -4.0370   23.1430  -31.2330 N   0  0  0  0  0  0  0  0  0  0  0  0
   -3.2010   22.1570  -31.8560 C   0  0  0  0  0  0  0  0  0  0  0  0
   -1.8590   21.9740  -31.4820 C   0  0  0  0  0  0  0  0  0  0  0  0
   -1.0650   21.0310  -32.1440 C   0  0  0  0  0  0  0  0  0  0  0  0
   -1.5960   20.2600  -33.1910 C   0  0  0  0  0  0  0  0  0  0  0  0
   -0.7390   19.2810  -33.9050 C   0  0  0  0  0  0  0  0  0  0  0  0
    0.4940   19.2420  -33.6570 O   0  0  0  0  0  0  0  0  0  0  0  0
   -1.2610   18.4080  -34.9160 N   0  0  0  0  0  0  0  0  0  0  0  0
   -2.1450   17.2990  -34.6990 C   0  0  0  0  0  0  0  0  0  0  0  0
   -1.8800   16.0300  -35.2380 C   0  0  0  0  0  0  0  0  0  0  0  0
   -2.7720   14.9740  -35.0230 C   0  0  0  0  0  0  0  0  0  0  0  0
   -3.9350   15.1810  -34.2810 C   0  0  0  0  0  0  0  0  0  0  0  0
   -4.2240   16.4510  -33.7580 C   0  0  0  0  0  0  0  0  0  0  0  0
   -5.6980   16.7170  -32.8160 S   0  0  0  0  0  0  0  0  0  0  0  0
   -6.8640   16.1150  -33.5510 O   0  0  0  0  0  0  0  0  0  0  0  0
   -5.5670   16.0080  -31.4970 O   0  0  0  0  0  0  0  0  0  0  0  0
   -6.0240   18.4090  -32.5220 N   0  0  0  0  0  0  0  0  0  0  0  0
   -6.1680   19.1660  -33.7630 C   0  0  0  0  0  0  0  0  0  0  0  0
   -7.0040   20.3870  -33.4190 C   0  0  0  0  0  0  0  0  0  0  0  0
   -7.7820   19.9980  -32.1700 C   0  0  0  0  0  0  0  0  0  0  0  0
   -7.2750   18.6110  -31.7910 C   0  0  0  0  0  0  0  0  0  0  0  0
   -3.3230   17.5050  -33.9710 C   0  0  0  0  0  0  0  0  0  0  0  0
   -2.9310   20.4680  -33.5810 C   0  0  0  0  0  0  0  0  0  0  0  0
   -3.7220   21.4120  -32.9200 C   0  0  0  0  0  0  0  0  0  0  0  0
   -2.8570   22.3510  -28.6680 C   0  0  0  0  0  0  0  0  0  0  0  0
    0.4543   20.7315  -28.1121 H   0  0  0  0  0  0  0  0  0  0  0  0
    0.5337   19.5900  -29.4967 H   0  0  0  0  0  0  0  0  0  0  0  0
   -0.6746   20.9191  -29.4967 H   0  0  0  0  0  0  0  0  0  0  0  0
   -0.5032   18.4028  -26.3934 H   0  0  0  0  0  0  0  0  0  0  0  0
   -0.8322   17.2712  -27.7491 H   0  0  0  0  0  0  0  0  0  0  0  0
    0.6667   18.2611  -27.7491 H   0  0  0  0  0  0  0  0  0  0  0  0
   -0.8934   22.5978  -25.8774 H   0  0  0  0  0  0  0  0  0  0  0  0
   -0.9570   24.9987  -26.5342 H   0  0  0  0  0  0  0  0  0  0  0  0
   -2.2187   25.7139  -28.5592 H   0  0  0  0  0  0  0  0  0  0  0  0
   -1.4310   22.5743  -30.6657 H   0  0  0  0  0  0  0  0  0  0  0  0
   -0.0164   20.8924  -31.8420 H   0  0  0  0  0  0  0  0  0  0  0  0
   -0.9683   15.8656  -35.8311 H   0  0  0  0  0  0  0  0  0  0  0  0
   -2.5560   13.9791  -35.4396 H   0  0  0  0  0  0  0  0  0  0  0  0
   -4.6284   14.3454  -34.1051 H   0  0  0  0  0  0  0  0  0  0  0  0
   -5.1810   19.4731  -34.1392 H   0  0  0  0  0  0  0  0  0  0  0  0
   -6.6449   18.5616  -34.5486 H   0  0  0  0  0  0  0  0  0  0  0  0
   -6.3569   21.2531  -33.2164 H   0  0  0  0  0  0  0  0  0  0  0  0
   -7.6701   20.6757  -34.2454 H   0  0  0  0  0  0  0  0  0  0  0  0
   -7.5879   20.7137  -31.3575 H   0  0  0  0  0  0  0  0  0  0  0  0
   -8.8676   20.0017  -32.3473 H   0  0  0  0  0  0  0  0  0  0  0  0
   -7.0945   18.5559  -30.7073 H   0  0  0  0  0  0  0  0  0  0  0  0
   -8.0127   17.8358  -32.0455 H   0  0  0  0  0  0  0  0  0  0  0  0
   -3.5440   18.5021  -33.5624 H   0  0  0  0  0  0  0  0  0  0  0  0
   -3.3553   19.8843  -34.4112 H   0  0  0  0  0  0  0  0  0  0  0  0
   -4.7628   21.5707  -33.2388 H   0  0  0  0  0  0  0  0  0  0  0  0
   -3.3988   21.6016  -29.2637 H   0  0  0  0  0  0  0  0  0  0  0  0
  1  2  1  0
  2  3  1  0
  2  4  1  0
  4  5  2  0
  4  6  2  0
  4  7  1  0
  7  8  2  0
  8  9  1  0
  9 10  2  0
 10 11  1  0
 11 12  1  0
 12 13  2  0
 12 14  1  0
 14 15  1  0
 15 16  2  0
 16 17  1  0
 17 18  2  0
 18 19  1  0
 19 20  2  0
 19 21  1  0
 21 22  1  0
 22 23  2  0
 23 24  1  0
 24 25  2  0
 25 26  1  0
 26 27  1  0
 27 28  2  0
 27 29  2  0
 27 30  1  0
 30 31  1  0
 31 32  1  0
 32 33  1  0
 33 34  1  0
 26 35  2  0
 18 36  1  0
 36 37  2  0
 11 38  2  0
 38  7  1  0
 37 15  1  0
 35 22  1  0
 34 30  1  0
  1 39  1  0
  1 40  1  0
  1 41  1  0
  3 42  1  0
  3 43  1  0
  3 44  1  0
  8 45  1  0
  9 46  1  0
 10 47  1  0
 16 48  1  0
 17 49  1  0
 23 50  1  0
 24 51  1  0
 25 52  1  0
 31 53  1  0
 31 54  1  0
 32 55  1  0
 32 56  1  0
 33 57  1  0
 33 58  1  0
 34 59  1  0
 34 60  1  0
 35 61  1  0
 36 62  1  0
 37 63  1  0
 38 64  1  0
M  CHG  2  14  -1  21  -1
M  END
>  <UniqueID>  (37) 
36

>  <SMILES>  (37) 
CN(C)S(=O)(=O)c1cccc(C(=O)[N-]c2ccc(C(=O)[N-]c3cccc(S(=O)(=O)N4CCCC4)c3)cc2)c1

>  <Energy>  (37) 
76.98026713374507

>  <Genealogy>  (37) 
CN(C)S(=O)(=O)c1cccc(C(=O)[N-]c2ccc(C(=O)[N-]c3cccc(S(=O)(=O)N4CCCC4)c3)cc2)c1 (protonated)
CN(C)S(=O)(=O)c1cccc(C(=O)[N-]c2ccc(C(=O)[N-]c3cccc(S(=O)(=O)N4CCCC4)c3)cc2)c1 (3D coordinates assigned)
CN(C)S(=O)(=O)c1cccc(C(=O)[N-]c2ccc(C(=O)[N-]c3cccc(S(=O)(=O)N4CCCC4)c3)cc2)c1 (nonaromatic ring conformer: 76.98026713374507 kcal/mol)

>  <smiles>  (37) 
CN(C)S(=O)(=O)c1cccc(C(=O)Nc2ccc(C(=O)Nc3cccc(S(=O)(=O)N4CCCC4)c3)cc2)c1

>  <score_type>  (37) 
oracle

>  <origin>  (37) 
adgpu

>  <m_score__min__energy>  (37) 
-12.550000000000001

>  <m_primary>  (37) 
energy

$$$$
37:0
     RDKit          3D

 40 43  0  0  0  0  0  0  0  0999 V2000
   -5.4719   15.8378  -34.0314 H   0  0  0  0  0  0  0  0  0  0  0  0
   -5.7330   16.8490  -33.6860 C   0  0  0  0  0  0  0  0  0  0  0  0
   -5.6800   17.9270  -34.5740 C   0  0  0  0  0  0  0  0  0  0  0  0
   -5.3807   17.7629  -35.6197 H   0  0  0  0  0  0  0  0  0  0  0  0
   -6.0070   19.2140  -34.1350 C   0  0  0  0  0  0  0  0  0  0  0  0
   -5.9765   20.0572  -34.8407 H   0  0  0  0  0  0  0  0  0  0  0  0
   -6.3740   19.4350  -32.7980 C   0  0  0  0  0  0  0  0  0  0  0  0
   -6.7290   20.7590  -32.3630 N   0  0  0  0  0  0  0  0  0  0  0  0
   -7.9510   21.2520  -32.5010 N   0  0  0  0  0  0  0  0  0  0  0  0
   -7.9530   22.4990  -31.9900 C   0  0  0  0  0  0  0  0  0  0  0  0
   -9.1600   23.3800  -31.9730 C   0  0  0  0  0  0  0  0  0  0  0  0
   -9.4466   23.5892  -30.9318 H   0  0  0  0  0  0  0  0  0  0  0  0
   -8.9314   24.3251  -32.4873 H   0  0  0  0  0  0  0  0  0  0  0  0
   -9.9904   22.8742  -32.4873 H   0  0  0  0  0  0  0  0  0  0  0  0
   -6.6900   22.8130  -31.5140 C   0  0  0  0  0  0  0  0  0  0  0  0
   -6.2580   24.0860  -30.8970 C   0  0  0  0  0  0  0  0  0  0  0  0
   -7.1250   24.8570  -30.4080 O   0  0  0  0  0  0  0  0  0  0  0  0
   -4.8840   24.4990  -30.8870 N   0  0  0  0  0  0  0  0  0  0  0  0
   -4.1110   24.5520  -29.8430 C   0  0  0  0  0  0  0  0  0  0  0  0
   -2.8060   24.9030  -29.9400 N   0  0  0  0  0  0  0  0  0  0  0  0
   -2.2150   24.9110  -28.7180 C   0  0  0  0  0  0  0  0  0  0  0  0
   -0.8740   25.2250  -28.4940 C   0  0  0  0  0  0  0  0  0  0  0  0
   -0.2123   25.4885  -29.3323 H   0  0  0  0  0  0  0  0  0  0  0  0
   -0.3850   25.1980  -27.1760 C   0  0  0  0  0  0  0  0  0  0  0  0
    0.6694   25.4422  -26.9793 H   0  0  0  0  0  0  0  0  0  0  0  0
   -1.2370   24.8600  -26.1050 C   0  0  0  0  0  0  0  0  0  0  0  0
   -0.8435   24.8414  -25.0779 H   0  0  0  0  0  0  0  0  0  0  0  0
   -2.5850   24.5470  -26.3420 C   0  0  0  0  0  0  0  0  0  0  0  0
   -3.2588   24.2826  -25.5137 H   0  0  0  0  0  0  0  0  0  0  0  0
   -3.0440   24.5810  -27.6560 C   0  0  0  0  0  0  0  0  0  0  0  0
   -4.5860   24.2620  -28.2350 S   0  0  0  0  0  0  0  0  0  0  0  0
   -5.9270   21.6860  -31.7880 C   0  0  0  0  0  0  0  0  0  0  0  0
   -4.4430   21.5470  -31.5910 C   0  0  0  0  0  0  0  0  0  0  0  0
   -4.2164   21.5258  -30.5148 H   0  0  0  0  0  0  0  0  0  0  0  0
   -4.0972   20.6125  -32.0570 H   0  0  0  0  0  0  0  0  0  0  0  0
   -3.9297   22.4010  -32.0570 H   0  0  0  0  0  0  0  0  0  0  0  0
   -6.4440   18.3430  -31.9160 C   0  0  0  0  0  0  0  0  0  0  0  0
   -6.7564   18.5003  -30.8731 H   0  0  0  0  0  0  0  0  0  0  0  0
   -6.1180   17.0570  -32.3590 C   0  0  0  0  0  0  0  0  0  0  0  0
   -6.1648   16.2078  -31.6614 H   0  0  0  0  0  0  0  0  0  0  0  0
  1  2  1  0
  2  3  2  0
  3  4  1  0
  3  5  1  0
  5  6  1  0
  5  7  2  0
  7  8  1  0
  8  9  1  0
  9 10  2  0
 10 11  1  0
 11 12  1  0
 11 13  1  0
 11 14  1  0
 10 15  1  0
 15 16  1  0
 16 17  2  0
 16 18  1  0
 18 19  2  0
 19 20  1  0
 20 21  1  0
 21 22  2  0
 22 23  1  0
 22 24  1  0
 24 25  1  0
 24 26  2  0
 26 27  1  0
 26 28  1  0
 28 29  1  0
 28 30  2  0
 30 31  1  0
 15 32  2  0
 32 33  1  0
 33 34  1  0
 33 35  1  0
 33 36  1  0
  7 37  1  0
 37 38  1  0
 37 39  2  0
 39 40  1  0
 39  2  1  0
 32  8  1  0
 31 19  1  0
 30 21  1  0
M  CHG  1  20  -1
M  END
>  <UniqueID>  (38) 
37

>  <SMILES>  (38) 
Cc1nn(-c2ccccc2)c(C)c1C(=O)/N=c1/[n-]c2ccccc2s1

>  <Energy>  (38) 
121.17122160937227

>  <Genealogy>  (38) 
Cc1nn(-c2ccccc2)c(C)c1C(=O)N=c1[n-]c2ccccc2s1 (protonated)
Cc1nn(-c2ccccc2)c(C)c1C(=O)/N=c1/[n-]c2ccccc2s1 (cis-trans isomerization)
Cc1nn(-c2ccccc2)c(C)c1C(=O)/N=c1/[n-]c2ccccc2s1 (3D coordinates assigned)
Cc1nn(-c2ccccc2)c(C)c1C(=O)/N=c1/[n-]c2ccccc2s1 (optimized conformer: 121.17122160937227 kcal/mol)

>  <smiles>  (38) 
Cc1nn(-c2ccccc2)c(C)c1C(=O)N=c1[nH]c2ccccc2s1

>  <score_type>  (38) 
oracle

>  <origin>  (38) 
adgpu

>  <m_score__min__energy>  (38) 
-10.51

>  <m_primary>  (38) 
energy

$$$$
38:0
     RDKit          3D

 57 61  0  0  0  0  0  0  0  0999 V2000
    0.7300   24.6940  -27.9280 O   0  0  0  0  0  0  0  0  0  0  0  0
   -0.2250   23.8950  -27.7530 C   0  0  0  0  0  0  0  0  0  0  0  0
   -1.5190   23.9630  -28.4180 C   0  0  0  0  0  0  0  0  0  0  0  0
   -2.0160   24.8770  -29.3420 C   0  0  0  0  0  0  0  0  0  0  0  0
   -3.3530   24.7420  -29.7520 C   0  0  0  0  0  0  0  0  0  0  0  0
   -3.8780   25.6410  -30.6720 O   0  0  0  0  0  0  0  0  0  0  0  0
   -4.1610   23.7060  -29.2260 C   0  0  0  0  0  0  0  0  0  0  0  0
   -5.5450   23.6260  -29.5650 N   0  0  0  0  0  0  0  0  0  0  0  0
   -6.0290   23.4400  -31.2170 S   0  0  0  0  0  0  0  0  0  0  0  0
   -7.5160   23.2350  -31.2980 O   0  0  0  0  0  0  0  0  0  0  0  0
   -5.6760   24.6930  -31.9690 O   0  0  0  0  0  0  0  0  0  0  0  0
   -5.1960   22.0550  -31.9240 C   0  0  0  0  0  0  0  0  0  0  0  0
   -5.6130   20.7480  -31.6350 C   0  0  0  0  0  0  0  0  0  0  0  0
   -4.9500   19.6560  -32.2060 C   0  0  0  0  0  0  0  0  0  0  0  0
   -3.8700   19.8610  -33.0780 C   0  0  0  0  0  0  0  0  0  0  0  0
   -3.0140   18.4950  -33.7880 S   0  0  0  0  0  0  0  0  0  0  0  0
   -2.6130   17.5240  -32.7120 O   0  0  0  0  0  0  0  0  0  0  0  0
   -1.7730   19.0140  -34.4600 O   0  0  0  0  0  0  0  0  0  0  0  0
   -4.0320   17.6960  -34.9670 N   0  0  0  0  0  0  0  0  0  0  0  0
   -5.3780   18.2760  -34.9660 C   0  0  0  0  0  0  0  0  0  0  0  0
   -6.2570   17.4410  -34.0500 C   0  0  0  0  0  0  0  0  0  0  0  0
   -5.4790   16.1720  -33.7830 C   0  0  0  0  0  0  0  0  0  0  0  0
   -4.2120   16.2900  -34.6100 C   0  0  0  0  0  0  0  0  0  0  0  0
   -3.4620   21.1680  -33.3730 C   0  0  0  0  0  0  0  0  0  0  0  0
   -4.1190   22.2590  -32.7950 C   0  0  0  0  0  0  0  0  0  0  0  0
   -3.6270   22.7900  -28.3020 C   0  0  0  0  0  0  0  0  0  0  0  0
   -2.3000   22.9480  -27.9150 C   0  0  0  0  0  0  0  0  0  0  0  0
   -1.5080   22.2330  -26.9220 C   0  0  0  0  0  0  0  0  0  0  0  0
   -1.9180   21.2810  -26.2090 O   0  0  0  0  0  0  0  0  0  0  0  0
   -0.2000   22.8040  -26.8290 N   0  0  0  0  0  0  0  0  0  0  0  0
    0.7020   22.6750  -25.6880 C   0  0  0  0  0  0  0  0  0  0  0  0
    0.8230   23.9910  -24.9740 C   0  0  0  0  0  0  0  0  0  0  0  0
    2.0820   24.5480  -24.6990 C   0  0  0  0  0  0  0  0  0  0  0  0
    2.1590   25.7980  -24.0780 C   0  0  0  0  0  0  0  0  0  0  0  0
    0.9870   26.4800  -23.7440 C   0  0  0  0  0  0  0  0  0  0  0  0
   -0.2480   25.8990  -24.0390 C   0  0  0  0  0  0  0  0  0  0  0  0
   -0.3050   24.6830  -24.6460 N   0  0  0  0  0  0  0  0  0  0  0  0
   -1.3805   25.6819  -29.7399 H   0  0  0  0  0  0  0  0  0  0  0  0
   -6.4634   20.5806  -30.9577 H   0  0  0  0  0  0  0  0  0  0  0  0
   -5.2769   18.6325  -31.9703 H   0  0  0  0  0  0  0  0  0  0  0  0
   -5.3363   19.3120  -34.5985 H   0  0  0  0  0  0  0  0  0  0  0  0
   -5.7897   18.2798  -35.9861 H   0  0  0  0  0  0  0  0  0  0  0  0
   -6.4501   17.9778  -33.1095 H   0  0  0  0  0  0  0  0  0  0  0  0
   -7.2350   17.2296  -34.5071 H   0  0  0  0  0  0  0  0  0  0  0  0
   -5.2337   16.0895  -32.7139 H   0  0  0  0  0  0  0  0  0  0  0  0
   -6.0577   15.2754  -34.0497 H   0  0  0  0  0  0  0  0  0  0  0  0
   -3.3497   15.9411  -34.0229 H   0  0  0  0  0  0  0  0  0  0  0  0
   -4.2905   15.6734  -35.5176 H   0  0  0  0  0  0  0  0  0  0  0  0
   -2.6214   21.3371  -34.0621 H   0  0  0  0  0  0  0  0  0  0  0  0
   -3.7880   23.2823  -33.0258 H   0  0  0  0  0  0  0  0  0  0  0  0
   -4.2409   21.9721  -27.8969 H   0  0  0  0  0  0  0  0  0  0  0  0
    0.3048   21.9197  -24.9939 H   0  0  0  0  0  0  0  0  0  0  0  0
    1.6952   22.3678  -26.0473 H   0  0  0  0  0  0  0  0  0  0  0  0
    2.9998   24.0055  -24.9698 H   0  0  0  0  0  0  0  0  0  0  0  0
    3.1395   26.2430  -23.8532 H   0  0  0  0  0  0  0  0  0  0  0  0
    1.0362   27.4637  -23.2541 H   0  0  0  0  0  0  0  0  0  0  0  0
   -1.1779   26.4264  -23.7797 H   0  0  0  0  0  0  0  0  0  0  0  0
  1  2  2  0
  2  3  1  0
  3  4  2  0
  4  5  1  0
  5  6  1  0
  5  7  2  0
  7  8  1  0
  8  9  1  0
  9 10  2  0
  9 11  2  0
  9 12  1  0
 12 13  2  0
 13 14  1  0
 14 15  2  0
 15 16  1  0
 16 17  2  0
 16 18  2  0
 16 19  1  0
 19 20  1  0
 20 21  1  0
 21 22  1  0
 22 23  1  0
 15 24  1  0
 24 25  2  0
  7 26  1  0
 26 27  2  0
 27 28  1  0
 28 29  2  0
 28 30  1  0
 30 31  1  0
 31 32  1  0
 32 33  2  0
 33 34  1  0
 34 35  2  0
 35 36  1  0
 36 37  2  0
 30  2  1  0
 37 32  1  0
 27  3  1  0
 25 12  1  0
 23 19  1  0
  4 38  1  0
 13 39  1  0
 14 40  1  0
 20 41  1  0
 20 42  1  0
 21 43  1  0
 21 44  1  0
 22 45  1  0
 22 46  1  0
 23 47  1  0
 23 48  1  0
 24 49  1  0
 25 50  1  0
 26 51  1  0
 31 52  1  0
 31 53  1  0
 33 54  1  0
 34 55  1  0
 35 56  1  0
 36 57  1  0
M  CHG  2   6  -1   8  -1
M  END
>  <UniqueID>  (39) 
38

>  <SMILES>  (39) 
O=C1c2cc([O-])c([N-]S(=O)(=O)c3ccc(S(=O)(=O)N4CCCC4)cc3)cc2C(=O)N1Cc1ccccn1

>  <Energy>  (39) 
100.97785306201712

>  <Genealogy>  (39) 
O=C1c2cc([O-])c([N-]S(=O)(=O)c3ccc(S(=O)(=O)N4CCCC4)cc3)cc2C(=O)N1Cc1ccccn1 (protonated)
O=C1c2cc([O-])c([N-]S(=O)(=O)c3ccc(S(=O)(=O)N4CCCC4)cc3)cc2C(=O)N1Cc1ccccn1 (3D coordinates assigned)
O=C1c2cc([O-])c([N-]S(=O)(=O)c3ccc(S(=O)(=O)N4CCCC4)cc3)cc2C(=O)N1Cc1ccccn1 (nonaromatic ring conformer: 100.97785306201712 kcal/mol)

>  <smiles>  (39) 
O=C1c2cc(O)c(NS(=O)(=O)c3ccc(S(=O)(=O)N4CCCC4)cc3)cc2C(=O)N1Cc1ccccn1

>  <score_type>  (39) 
oracle

>  <origin>  (39) 
adgpu

>  <m_score__min__energy>  (39) 
-15.18

>  <m_primary>  (39) 
energy

$$$$
39:0
     RDKit          3D

 53 57  0  0  0  0  0  0  0  0999 V2000
   -4.1420   24.7850  -27.4610 O   0  0  0  0  0  0  0  0  0  0  0  0
   -3.6820   24.0140  -28.6670 S   0  0  0  0  0  0  0  0  0  0  0  0
   -3.0950   22.7140  -28.1940 O   0  0  0  0  0  0  0  0  0  0  0  0
   -2.4490   24.9140  -29.5020 N   0  0  0  0  0  0  0  0  0  0  0  0
   -1.6110   25.6670  -28.5660 C   0  0  0  0  0  0  0  0  0  0  0  0
   -1.0470   24.7650  -27.5000 C   0  0  0  0  0  0  0  0  0  0  0  0
   -1.3220   25.0050  -26.1470 C   0  0  0  0  0  0  0  0  0  0  0  0
   -0.7890   24.1690  -25.1660 C   0  0  0  0  0  0  0  0  0  0  0  0
    0.0130   23.0930  -25.5480 C   0  0  0  0  0  0  0  0  0  0  0  0
    0.2670   22.8670  -26.8650 N   0  0  0  0  0  0  0  0  0  0  0  0
   -0.2410   23.6670  -27.8390 C   0  0  0  0  0  0  0  0  0  0  0  0
   -5.0300   23.6540  -29.7560 C   0  0  0  0  0  0  0  0  0  0  0  0
   -5.0060   22.4450  -30.4670 C   0  0  0  0  0  0  0  0  0  0  0  0
   -6.0410   22.1120  -31.3560 C   0  0  0  0  0  0  0  0  0  0  0  0
   -6.0040   20.8330  -32.0930 C   0  0  0  0  0  0  0  0  0  0  0  0
   -6.1660   19.6170  -31.4970 N   0  0  0  0  0  0  0  0  0  0  0  0
   -6.0560   18.7770  -32.5400 C   0  0  0  0  0  0  0  0  0  0  0  0
   -6.1340   17.3920  -32.5510 C   0  0  0  0  0  0  0  0  0  0  0  0
   -5.9860   16.7200  -33.7960 C   0  0  0  0  0  0  0  0  0  0  0  0
   -6.0570   15.2640  -33.8820 N   0  0  0  0  0  0  0  0  0  0  0  0
   -5.0450   14.4470  -33.1800 C   0  0  0  0  0  0  0  0  0  0  0  0
   -5.1950   12.9430  -33.4260 C   0  0  0  0  0  0  0  0  0  0  0  0
   -6.5510   12.5700  -33.4690 O   0  0  0  0  0  0  0  0  0  0  0  0
   -7.1230   13.1110  -34.6360 C   0  0  0  0  0  0  0  0  0  0  0  0
   -7.2200   14.6370  -34.5430 C   0  0  0  0  0  0  0  0  0  0  0  0
   -5.7560   17.5240  -34.9610 C   0  0  0  0  0  0  0  0  0  0  0  0
   -5.6900   18.8870  -34.8790 N   0  0  0  0  0  0  0  0  0  0  0  0
   -5.8410   19.4780  -33.6730 C   0  0  0  0  0  0  0  0  0  0  0  0
   -5.8100   20.7520  -33.4010 O   0  0  0  0  0  0  0  0  0  0  0  0
   -7.1050   23.0100  -31.5330 C   0  0  0  0  0  0  0  0  0  0  0  0
   -7.1330   24.2180  -30.8340 C   0  0  0  0  0  0  0  0  0  0  0  0
   -6.1010   24.5490  -29.9450 C   0  0  0  0  0  0  0  0  0  0  0  0
   -6.1450   25.7600  -29.2580 O   0  0  0  0  0  0  0  0  0  0  0  0
   -0.7818   26.1318  -29.1195 H   0  0  0  0  0  0  0  0  0  0  0  0
   -2.2307   26.4363  -28.0820 H   0  0  0  0  0  0  0  0  0  0  0  0
   -1.9591   25.8539  -25.8582 H   0  0  0  0  0  0  0  0  0  0  0  0
   -0.9987   24.3560  -24.1025 H   0  0  0  0  0  0  0  0  0  0  0  0
    0.4401   22.4271  -24.7836 H   0  0  0  0  0  0  0  0  0  0  0  0
   -0.0201   23.4536  -28.8953 H   0  0  0  0  0  0  0  0  0  0  0  0
   -4.1659   21.7490  -30.3265 H   0  0  0  0  0  0  0  0  0  0  0  0
   -6.3057   16.8286  -31.6220 H   0  0  0  0  0  0  0  0  0  0  0  0
   -4.0474   14.7580  -33.5236 H   0  0  0  0  0  0  0  0  0  0  0  0
   -5.1863   14.6138  -32.1019 H   0  0  0  0  0  0  0  0  0  0  0  0
   -4.7212   12.6867  -34.3851 H   0  0  0  0  0  0  0  0  0  0  0  0
   -4.7101   12.4034  -32.5991 H   0  0  0  0  0  0  0  0  0  0  0  0
   -6.4984   12.8422  -35.5007 H   0  0  0  0  0  0  0  0  0  0  0  0
   -8.1375   12.7016  -34.7514 H   0  0  0  0  0  0  0  0  0  0  0  0
   -7.3016   15.0431  -35.5620 H   0  0  0  0  0  0  0  0  0  0  0  0
   -8.1032   14.8674  -33.9291 H   0  0  0  0  0  0  0  0  0  0  0  0
   -5.6304   17.0351  -35.9383 H   0  0  0  0  0  0  0  0  0  0  0  0
   -7.9215   22.7605  -32.2265 H   0  0  0  0  0  0  0  0  0  0  0  0
   -7.9709   24.9152  -30.9819 H   0  0  0  0  0  0  0  0  0  0  0  0
   -5.4390   26.0130  -28.5760 H   0  0  0  0  0  0  0  0  0  0  0  0
  1  2  2  0
  2  3  2  0
  2  4  1  0
  4  5  1  0
  5  6  1  0
  6  7  2  0
  7  8  1  0
  8  9  2  0
  9 10  1  0
 10 11  2  0
  2 12  1  0
 12 13  2  0
 13 14  1  0
 14 15  1  0
 15 16  2  0
 16 17  1  0
 17 18  2  0
 18 19  1  0
 19 20  1  0
 20 21  1  0
 21 22  1  0
 22 23  1  0
 23 24  1  0
 24 25  1  0
 19 26  2  0
 26 27  1  0
 27 28  2  0
 28 29  1  0
 14 30  2  0
 30 31  1  0
 31 32  2  0
 32 33  1  0
 11  6  1  0
 32 12  1  0
 29 15  1  0
 28 17  1  0
 25 20  1  0
  5 34  1  0
  5 35  1  0
  7 36  1  0
  8 37  1  0
  9 38  1  0
 11 39  1  0
 13 40  1  0
 18 41  1  0
 21 42  1  0
 21 43  1  0
 22 44  1  0
 22 45  1  0
 24 46  1  0
 24 47  1  0
 25 48  1  0
 25 49  1  0
 26 50  1  0
 30 51  1  0
 31 52  1  0
 33 53  1  0
M  CHG  1   4  -1
M  END
>  <UniqueID>  (40) 
39

>  <SMILES>  (40) 
O=S(=O)([N-]Cc1cccnc1)c1cc(-c2nc3cc(N4CCOCC4)cnc3o2)ccc1O

>  <Energy>  (40) 
106.67712306487962

>  <Genealogy>  (40) 
O=S(=O)([N-]Cc1cccnc1)c1cc(-c2nc3cc(N4CCOCC4)cnc3o2)ccc1O (protonated)
O=S(=O)([N-]Cc1cccnc1)c1cc(-c2nc3cc(N4CCOCC4)cnc3o2)ccc1O (3D coordinates assigned)
O=S(=O)([N-]Cc1cccnc1)c1cc(-c2nc3cc(N4CCOCC4)cnc3o2)ccc1O (nonaromatic ring conformer: 106.67712306487962 kcal/mol)

>  <smiles>  (40) 
O=S(=O)(NCc1cccnc1)c1cc(-c2nc3cc(N4CCOCC4)cnc3o2)ccc1O

>  <score_type>  (40) 
oracle

>  <origin>  (40) 
adgpu

>  <m_score__min__energy>  (40) 
-10.06

>  <m_primary>  (40) 
energy

$$$$
40:0
     RDKit          3D

 43 46  0  0  0  0  0  0  0  0999 V2000
   -9.3280   21.0280  -31.7810 C   0  0  0  0  0  0  0  0  0  0  0  0
   -7.9580   20.6840  -32.3060 C   0  0  0  0  0  0  0  0  0  0  0  0
   -7.7870   19.5170  -33.0630 C   0  0  0  0  0  0  0  0  0  0  0  0
   -6.5180   19.1930  -33.5480 C   0  0  0  0  0  0  0  0  0  0  0  0
   -6.3550   18.1470  -34.2290 O   0  0  0  0  0  0  0  0  0  0  0  0
   -5.4790   19.9810  -33.2960 O   0  0  0  0  0  0  0  0  0  0  0  0
   -5.5820   21.0990  -32.5850 C   0  0  0  0  0  0  0  0  0  0  0  0
   -4.4410   21.8740  -32.3590 C   0  0  0  0  0  0  0  0  0  0  0  0
   -4.5270   23.0480  -31.6090 C   0  0  0  0  0  0  0  0  0  0  0  0
   -5.7550   23.4630  -31.0810 C   0  0  0  0  0  0  0  0  0  0  0  0
   -5.8260   24.9250  -30.1010 S   0  0  0  0  0  0  0  0  0  0  0  0
   -7.2470   25.2870  -29.7720 O   0  0  0  0  0  0  0  0  0  0  0  0
   -5.2040   26.0530  -30.8740 O   0  0  0  0  0  0  0  0  0  0  0  0
   -4.9430   24.6800  -28.6280 N   0  0  0  0  0  0  0  0  0  0  0  0
   -3.8640   23.7350  -28.5020 C   0  0  0  0  0  0  0  0  0  0  0  0
   -4.0630   22.4790  -27.8950 C   0  0  0  0  0  0  0  0  0  0  0  0
   -3.0130   21.5620  -27.7980 C   0  0  0  0  0  0  0  0  0  0  0  0
   -1.7330   21.9020  -28.2740 C   0  0  0  0  0  0  0  0  0  0  0  0
   -1.5310   23.1490  -28.8760 C   0  0  0  0  0  0  0  0  0  0  0  0
   -2.5840   24.0630  -28.9850 C   0  0  0  0  0  0  0  0  0  0  0  0
   -2.3520   25.2950  -29.5880 O   0  0  0  0  0  0  0  0  0  0  0  0
   -0.6060   20.9020  -28.1930 C   0  0  0  0  0  0  0  0  0  0  0  0
   -0.8540   19.8570  -27.0960 C   0  0  0  0  0  0  0  0  0  0  0  0
   -2.2630   19.2740  -27.2320 C   0  0  0  0  0  0  0  0  0  0  0  0
   -3.2370   20.3160  -27.1990 O   0  0  0  0  0  0  0  0  0  0  0  0
   -6.9060   22.6940  -31.3070 C   0  0  0  0  0  0  0  0  0  0  0  0
   -6.8330   21.5030  -32.0580 C   0  0  0  0  0  0  0  0  0  0  0  0
   -9.3109   21.0237  -30.6811 H   0  0  0  0  0  0  0  0  0  0  0  0
   -9.6178   22.0268  -32.1393 H   0  0  0  0  0  0  0  0  0  0  0  0
  -10.0553   20.2846  -32.1393 H   0  0  0  0  0  0  0  0  0  0  0  0
   -8.6451   18.8617  -33.2734 H   0  0  0  0  0  0  0  0  0  0  0  0
   -3.4724   21.5578  -32.7734 H   0  0  0  0  0  0  0  0  0  0  0  0
   -3.6241   23.6508  -31.4318 H   0  0  0  0  0  0  0  0  0  0  0  0
   -5.1330   25.3500  -27.8500 H   0  0  0  0  0  0  0  0  0  0  0  0
   -5.0535   22.2181  -27.4940 H   0  0  0  0  0  0  0  0  0  0  0  0
   -0.5368   23.4123  -29.2663 H   0  0  0  0  0  0  0  0  0  0  0  0
   -0.5148   20.3881  -29.1613 H   0  0  0  0  0  0  0  0  0  0  0  0
    0.3184   21.4453  -27.9474 H   0  0  0  0  0  0  0  0  0  0  0  0
   -0.1150   19.0478  -27.1909 H   0  0  0  0  0  0  0  0  0  0  0  0
   -0.7578   20.3390  -26.1119 H   0  0  0  0  0  0  0  0  0  0  0  0
   -2.3415   18.7345  -28.1874 H   0  0  0  0  0  0  0  0  0  0  0  0
   -2.4473   18.5862  -26.3936 H   0  0  0  0  0  0  0  0  0  0  0  0
   -7.8719   23.0223  -30.8956 H   0  0  0  0  0  0  0  0  0  0  0  0
  1  2  1  0
  2  3  2  0
  3  4  1  0
  4  5  2  0
  4  6  1  0
  6  7  1  0
  7  8  2  0
  8  9  1  0
  9 10  2  0
 10 11  1  0
 11 12  2  0
 11 13  2  0
 11 14  1  0
 14 15  1  0
 15 16  2  0
 16 17  1  0
 17 18  2  0
 18 19  1  0
 19 20  2  0
 20 21  1  0
 18 22  1  0
 22 23  1  0
 23 24  1  0
 24 25  1  0
 10 26  1  0
 26 27  2  0
 27  2  1  0
 27  7  1  0
 20 15  1  0
 25 17  1  0
  1 28  1  0
  1 29  1  0
  1 30  1  0
  3 31  1  0
  8 32  1  0
  9 33  1  0
 14 34  1  0
 16 35  1  0
 19 36  1  0
 22 37  1  0
 22 38  1  0
 23 39  1  0
 23 40  1  0
 24 41  1  0
 24 42  1  0
 26 43  1  0
M  CHG  1  21  -1
M  END
>  <UniqueID>  (41) 
40

>  <SMILES>  (41) 
Cc1cc(=O)oc2ccc(S(=O)(=O)Nc3cc4c(cc3[O-])CCCO4)cc12

>  <Energy>  (41) 
54.39926171025579

>  <Genealogy>  (41) 
Cc1cc(=O)oc2ccc(S(=O)(=O)Nc3cc4c(cc3[O-])CCCO4)cc12 (protonated)
Cc1cc(=O)oc2ccc(S(=O)(=O)Nc3cc4c(cc3[O-])CCCO4)cc12 (3D coordinates assigned)
Cc1cc(=O)oc2ccc(S(=O)(=O)Nc3cc4c(cc3[O-])CCCO4)cc12 (nonaromatic ring conformer: 54.39926171025579 kcal/mol)

>  <smiles>  (41) 
Cc1cc(=O)oc2ccc(S(=O)(=O)Nc3cc4c(cc3O)CCCO4)cc12

>  <score_type>  (41) 
oracle

>  <origin>  (41) 
adgpu

>  <m_score__min__energy>  (41) 
-13.300000000000001

>  <m_primary>  (41) 
energy

$$$$
41:0
     RDKit          3D

 61 64  0  0  0  0  0  0  0  0999 V2000
   -0.4380   28.1040  -24.4550 C   0  0  0  0  0  0  0  0  0  0  0  0
   -0.5510   26.7440  -24.9850 N   0  0  0  0  0  0  0  0  0  0  0  0
    0.1780   25.7750  -24.1390 C   0  0  0  0  0  0  0  0  0  0  0  0
   -0.0020   24.3050  -24.6180 C   0  0  0  0  0  0  0  0  0  0  0  0
   -1.0470   24.1140  -25.6930 C   0  0  0  0  0  0  0  0  0  0  0  0
   -1.0650   22.9340  -26.4550 C   0  0  0  0  0  0  0  0  0  0  0  0
   -1.9990   22.7710  -27.4840 C   0  0  0  0  0  0  0  0  0  0  0  0
   -2.9500   23.7730  -27.7430 C   0  0  0  0  0  0  0  0  0  0  0  0
   -3.8330   23.7000  -28.8730 N   0  0  0  0  0  0  0  0  0  0  0  0
   -3.4920   23.2370  -30.1860 C   0  0  0  0  0  0  0  0  0  0  0  0
   -3.8540   23.9150  -31.1830 O   0  0  0  0  0  0  0  0  0  0  0  0
   -2.8250   21.9770  -30.3710 N   0  0  0  0  0  0  0  0  0  0  0  0
   -2.5510   21.4580  -31.6780 C   0  0  0  0  0  0  0  0  0  0  0  0
   -1.2350   21.1620  -32.0450 C   0  0  0  0  0  0  0  0  0  0  0  0
   -0.9610   20.6660  -33.3180 C   0  0  0  0  0  0  0  0  0  0  0  0
   -2.0130   20.4610  -34.2110 C   0  0  0  0  0  0  0  0  0  0  0  0
   -3.2910   20.7130  -33.8270 N   0  0  0  0  0  0  0  0  0  0  0  0
   -3.5920   21.1850  -32.5860 C   0  0  0  0  0  0  0  0  0  0  0  0
   -4.9270   21.4040  -32.2020 O   0  0  0  0  0  0  0  0  0  0  0  0
   -5.9900   20.5060  -32.4080 C   0  0  0  0  0  0  0  0  0  0  0  0
   -5.7180   19.1860  -32.8150 C   0  0  0  0  0  0  0  0  0  0  0  0
   -6.7390   18.2540  -32.9640 C   0  0  0  0  0  0  0  0  0  0  0  0
   -8.0540   18.6170  -32.6970 C   0  0  0  0  0  0  0  0  0  0  0  0
   -8.3500   19.9140  -32.2890 C   0  0  0  0  0  0  0  0  0  0  0  0
   -7.3370   20.8970  -32.1310 C   0  0  0  0  0  0  0  0  0  0  0  0
   -7.6780   22.3360  -31.6570 C   0  0  0  0  0  0  0  0  0  0  0  0
   -6.8300   23.4270  -32.3690 C   0  0  0  0  0  0  0  0  0  0  0  0
   -9.1560   22.6540  -31.9670 C   0  0  0  0  0  0  0  0  0  0  0  0
   -7.3960   22.4810  -30.1420 C   0  0  0  0  0  0  0  0  0  0  0  0
   -2.9590   24.9310  -26.9550 C   0  0  0  0  0  0  0  0  0  0  0  0
   -2.0130   25.1030  -25.9340 C   0  0  0  0  0  0  0  0  0  0  0  0
   -1.9620   26.3590  -25.1300 C   0  0  0  0  0  0  0  0  0  0  0  0
   -0.4408   28.0705  -23.3555 H   0  0  0  0  0  0  0  0  0  0  0  0
    0.5009   28.5573  -24.8056 H   0  0  0  0  0  0  0  0  0  0  0  0
   -1.2892   28.7061  -24.8056 H   0  0  0  0  0  0  0  0  0  0  0  0
    1.2492   26.0239  -24.1619 H   0  0  0  0  0  0  0  0  0  0  0  0
   -0.2344   25.8459  -23.1217 H   0  0  0  0  0  0  0  0  0  0  0  0
    0.9628   23.9524  -25.0116 H   0  0  0  0  0  0  0  0  0  0  0  0
   -0.3479   23.7338  -23.7439 H   0  0  0  0  0  0  0  0  0  0  0  0
   -0.3410   22.1339  -26.2416 H   0  0  0  0  0  0  0  0  0  0  0  0
   -1.9890   21.8549  -28.0928 H   0  0  0  0  0  0  0  0  0  0  0  0
   -2.4980   21.4190  -29.5360 H   0  0  0  0  0  0  0  0  0  0  0  0
   -0.4155   21.3207  -31.3286 H   0  0  0  0  0  0  0  0  0  0  0  0
    0.0733   20.4386  -33.6155 H   0  0  0  0  0  0  0  0  0  0  0  0
   -1.8070   20.0947  -35.2276 H   0  0  0  0  0  0  0  0  0  0  0  0
   -4.6793   18.8867  -33.0187 H   0  0  0  0  0  0  0  0  0  0  0  0
   -6.5064   17.2304  -33.2928 H   0  0  0  0  0  0  0  0  0  0  0  0
   -8.8614   17.8783  -32.8083 H   0  0  0  0  0  0  0  0  0  0  0  0
   -9.3960   20.1851  -32.0834 H   0  0  0  0  0  0  0  0  0  0  0  0
   -6.3385   24.0594  -31.6150 H   0  0  0  0  0  0  0  0  0  0  0  0
   -6.0666   22.9456  -32.9979 H   0  0  0  0  0  0  0  0  0  0  0  0
   -7.4849   24.0480  -32.9979 H   0  0  0  0  0  0  0  0  0  0  0  0
   -9.7108   22.7734  -31.0247 H   0  0  0  0  0  0  0  0  0  0  0  0
   -9.2164   23.5857  -32.5486 H   0  0  0  0  0  0  0  0  0  0  0  0
   -9.5942   21.8296  -32.5486 H   0  0  0  0  0  0  0  0  0  0  0  0
   -8.2319   22.0512  -29.5707 H   0  0  0  0  0  0  0  0  0  0  0  0
   -6.4671   21.9487  -29.8893 H   0  0  0  0  0  0  0  0  0  0  0  0
   -7.2885   23.5462  -29.8893 H   0  0  0  0  0  0  0  0  0  0  0  0
   -3.7130   25.7107  -27.1382 H   0  0  0  0  0  0  0  0  0  0  0  0
   -2.5161   27.1565  -25.6467 H   0  0  0  0  0  0  0  0  0  0  0  0
   -2.4202   26.2013  -24.1425 H   0  0  0  0  0  0  0  0  0  0  0  0
  1  2  1  0
  2  3  1  0
  3  4  1  0
  4  5  1  0
  5  6  2  0
  6  7  1  0
  7  8  2  0
  8  9  1  0
  9 10  1  0
 10 11  2  0
 10 12  1  0
 12 13  1  0
 13 14  2  0
 14 15  1  0
 15 16  2  0
 16 17  1  0
 17 18  2  0
 18 19  1  0
 19 20  1  0
 20 21  2  0
 21 22  1  0
 22 23  2  0
 23 24  1  0
 24 25  2  0
 25 26  1  0
 26 27  1  0
 26 28  1  0
 26 29  1  0
  8 30  1  0
 30 31  2  0
 31 32  1  0
 32  2  1  0
 31  5  1  0
 18 13  1  0
 25 20  1  0
  1 33  1  0
  1 34  1  0
  1 35  1  0
  3 36  1  0
  3 37  1  0
  4 38  1  0
  4 39  1  0
  6 40  1  0
  7 41  1  0
 12 42  1  0
 14 43  1  0
 15 44  1  0
 16 45  1  0
 21 46  1  0
 22 47  1  0
 23 48  1  0
 24 49  1  0
 27 50  1  0
 27 51  1  0
 27 52  1  0
 28 53  1  0
 28 54  1  0
 28 55  1  0
 29 56  1  0
 29 57  1  0
 29 58  1  0
 30 59  1  0
 32 60  1  0
 32 61  1  0
M  CHG  1   9  -1
M  END
>  <UniqueID>  (42) 
41

>  <SMILES>  (42) 
CN1CCc2ccc([N-]C(=O)Nc3cccnc3Oc3ccccc3C(C)(C)C)cc2C1

>  <Energy>  (42) 
91.38087006253588

>  <Genealogy>  (42) 
CN1CCc2ccc([N-]C(=O)Nc3cccnc3Oc3ccccc3C(C)(C)C)cc2C1 (protonated)
CN1CCc2ccc([N-]C(=O)Nc3cccnc3Oc3ccccc3C(C)(C)C)cc2C1 (3D coordinates assigned)
CN1CCc2ccc([N-]C(=O)Nc3cccnc3Oc3ccccc3C(C)(C)C)cc2C1 (nonaromatic ring conformer: 91.38087006253588 kcal/mol)

>  <smiles>  (42) 
CN1CCc2ccc(NC(=O)Nc3cccnc3Oc3ccccc3C(C)(C)C)cc2C1

>  <score_type>  (42) 
oracle

>  <origin>  (42) 
adgpu

>  <m_score__min__energy>  (42) 
-11.1

>  <m_primary>  (42) 
energy

$$$$
42:0
     RDKit          3D

 56 59  0  0  0  0  0  0  0  0999 V2000
   -3.5650   25.1040  -30.4970 O   0  0  0  0  0  0  0  0  0  0  0  0
   -3.5870   23.9440  -30.0080 C   0  0  0  0  0  0  0  0  0  0  0  0
   -4.5030   22.9820  -30.5450 N   0  0  0  0  0  0  0  0  0  0  0  0
   -4.1970   22.0100  -31.5590 C   0  0  0  0  0  0  0  0  0  0  0  0
   -2.8720   21.7240  -31.9300 C   0  0  0  0  0  0  0  0  0  0  0  0
   -2.6040   20.7070  -32.8510 C   0  0  0  0  0  0  0  0  0  0  0  0
   -3.6490   19.9610  -33.3980 C   0  0  0  0  0  0  0  0  0  0  0  0
   -4.9770   20.2460  -33.0470 C   0  0  0  0  0  0  0  0  0  0  0  0
   -6.3190   19.3230  -33.7240 S   0  0  0  0  0  0  0  0  0  0  0  0
   -5.9730   18.9150  -35.1290 O   0  0  0  0  0  0  0  0  0  0  0  0
   -7.5240   20.2200  -33.7510 O   0  0  0  0  0  0  0  0  0  0  0  0
   -6.6730   17.9030  -32.7580 N   0  0  0  0  0  0  0  0  0  0  0  0
   -5.5080   17.5170  -31.9530 C   0  0  0  0  0  0  0  0  0  0  0  0
   -4.7080   16.4850  -32.7330 C   0  0  0  0  0  0  0  0  0  0  0  0
   -5.6420   15.9820  -33.8160 C   0  0  0  0  0  0  0  0  0  0  0  0
   -6.9430   16.7480  -33.6220 C   0  0  0  0  0  0  0  0  0  0  0  0
   -5.2420   21.2640  -32.1180 C   0  0  0  0  0  0  0  0  0  0  0  0
   -2.6270   23.5810  -28.9440 C   0  0  0  0  0  0  0  0  0  0  0  0
   -2.6060   22.2660  -28.4500 C   0  0  0  0  0  0  0  0  0  0  0  0
   -1.7160   21.8980  -27.4340 C   0  0  0  0  0  0  0  0  0  0  0  0
   -1.6810   20.2310  -26.8420 S   0  0  0  0  0  0  0  0  0  0  0  0
   -2.9470   19.5370  -27.2590 O   0  0  0  0  0  0  0  0  0  0  0  0
   -1.6440   20.2600  -25.3390 O   0  0  0  0  0  0  0  0  0  0  0  0
   -0.3300   19.2980  -27.4510 N   0  0  0  0  0  0  0  0  0  0  0  0
   -0.1250   19.4740  -28.8880 C   0  0  0  0  0  0  0  0  0  0  0  0
    0.4620   18.1720  -29.4210 C   0  0  0  0  0  0  0  0  0  0  0  0
    0.4170   17.1960  -28.2560 C   0  0  0  0  0  0  0  0  0  0  0  0
   -0.4850   17.8610  -27.2380 C   0  0  0  0  0  0  0  0  0  0  0  0
   -0.8390   22.8570  -26.9070 C   0  0  0  0  0  0  0  0  0  0  0  0
   -0.8440   24.1630  -27.3990 C   0  0  0  0  0  0  0  0  0  0  0  0
   -1.7330   24.5320  -28.4190 C   0  0  0  0  0  0  0  0  0  0  0  0
   -1.7390   25.8410  -28.8970 O   0  0  0  0  0  0  0  0  0  0  0  0
   -2.0435   22.3019  -31.4945 H   0  0  0  0  0  0  0  0  0  0  0  0
   -1.5658   20.4940  -33.1456 H   0  0  0  0  0  0  0  0  0  0  0  0
   -3.4309   19.1478  -34.1059 H   0  0  0  0  0  0  0  0  0  0  0  0
   -4.8830   18.4005  -31.7560 H   0  0  0  0  0  0  0  0  0  0  0  0
   -5.8354   17.0945  -30.9916 H   0  0  0  0  0  0  0  0  0  0  0  0
   -3.8156   16.9478  -33.1795 H   0  0  0  0  0  0  0  0  0  0  0  0
   -4.3558   15.6679  -32.0862 H   0  0  0  0  0  0  0  0  0  0  0  0
   -5.2209   16.1861  -34.8115 H   0  0  0  0  0  0  0  0  0  0  0  0
   -5.7956   14.8949  -33.7487 H   0  0  0  0  0  0  0  0  0  0  0  0
   -7.3207   17.0923  -34.5960 H   0  0  0  0  0  0  0  0  0  0  0  0
   -7.7004   16.0978  -33.1599 H   0  0  0  0  0  0  0  0  0  0  0  0
   -6.2807   21.4780  -31.8261 H   0  0  0  0  0  0  0  0  0  0  0  0
   -3.2963   21.5174  -28.8660 H   0  0  0  0  0  0  0  0  0  0  0  0
   -1.0845   19.6855  -29.3827 H   0  0  0  0  0  0  0  0  0  0  0  0
    0.5520   20.3181  -29.0859 H   0  0  0  0  0  0  0  0  0  0  0  0
   -0.1397   17.7951  -30.2611 H   0  0  0  0  0  0  0  0  0  0  0  0
    1.4867   18.3110  -29.7961 H   0  0  0  0  0  0  0  0  0  0  0  0
   -0.0020   16.2300  -28.5742 H   0  0  0  0  0  0  0  0  0  0  0  0
    1.4172   16.9817  -27.8514 H   0  0  0  0  0  0  0  0  0  0  0  0
   -1.5309   17.5602  -27.3980 H   0  0  0  0  0  0  0  0  0  0  0  0
   -0.2195   17.5720  -26.2104 H   0  0  0  0  0  0  0  0  0  0  0  0
   -0.1435   22.5784  -26.1016 H   0  0  0  0  0  0  0  0  0  0  0  0
   -0.1473   24.9066  -26.9847 H   0  0  0  0  0  0  0  0  0  0  0  0
   -1.6110   26.0480  -29.8810 H   0  0  0  0  0  0  0  0  0  0  0  0
  1  2  2  0
  2  3  1  0
  3  4  1  0
  4  5  2  0
  5  6  1  0
  6  7  2  0
  7  8  1  0
  8  9  1  0
  9 10  2  0
  9 11  2  0
  9 12  1  0
 12 13  1  0
 13 14  1  0
 14 15  1  0
 15 16  1  0
  8 17  2  0
  2 18  1  0
 18 19  2  0
 19 20  1  0
 20 21  1  0
 21 22  2  0
 21 23  2  0
 21 24  1  0
 24 25  1  0
 25 26  1  0
 26 27  1  0
 27 28  1  0
 20 29  2  0
 29 30  1  0
 30 31  2  0
 31 32  1  0
 17  4  1  0
 31 18  1  0
 16 12  1  0
 28 24  1  0
  5 33  1  0
  6 34  1  0
  7 35  1  0
 13 36  1  0
 13 37  1  0
 14 38  1  0
 14 39  1  0
 15 40  1  0
 15 41  1  0
 16 42  1  0
 16 43  1  0
 17 44  1  0
 19 45  1  0
 25 46  1  0
 25 47  1  0
 26 48  1  0
 26 49  1  0
 27 50  1  0
 27 51  1  0
 28 52  1  0
 28 53  1  0
 29 54  1  0
 30 55  1  0
 32 56  1  0
M  CHG  1   3  -1
M  END
>  <UniqueID>  (43) 
42

>  <SMILES>  (43) 
O=C([N-]c1cccc(S(=O)(=O)N2CCCC2)c1)c1cc(S(=O)(=O)N2CCCC2)ccc1O

>  <Energy>  (43) 
65.46613698184827

>  <Genealogy>  (43) 
O=C([N-]c1cccc(S(=O)(=O)N2CCCC2)c1)c1cc(S(=O)(=O)N2CCCC2)ccc1O (protonated)
O=C([N-]c1cccc(S(=O)(=O)N2CCCC2)c1)c1cc(S(=O)(=O)N2CCCC2)ccc1O (3D coordinates assigned)
O=C([N-]c1cccc(S(=O)(=O)N2CCCC2)c1)c1cc(S(=O)(=O)N2CCCC2)ccc1O (nonaromatic ring conformer: 65.46613698184827 kcal/mol)

>  <smiles>  (43) 
O=C(Nc1cccc(S(=O)(=O)N2CCCC2)c1)c1cc(S(=O)(=O)N2CCCC2)ccc1O

>  <score_type>  (43) 
oracle

>  <origin>  (43) 
adgpu

>  <m_score__min__energy>  (43) 
-12.49

>  <m_primary>  (43) 
energy

$$$$
43:0
     RDKit          3D

 57 60  0  0  0  0  0  0  0  0999 V2000
   -4.7230   17.4300  -35.7420 C   0  0  0  0  0  0  0  0  0  0  0  0
   -5.0950   18.3450  -34.2630 S   0  0  0  0  0  0  0  0  0  0  0  0
   -5.7830   17.4450  -33.2750 O   0  0  0  0  0  0  0  0  0  0  0  0
   -6.0120   19.4890  -34.5950 O   0  0  0  0  0  0  0  0  0  0  0  0
   -3.6010   18.9640  -33.5680 C   0  0  0  0  0  0  0  0  0  0  0  0
   -2.6630   18.0810  -33.0140 C   0  0  0  0  0  0  0  0  0  0  0  0
   -1.4840   18.5720  -32.4460 C   0  0  0  0  0  0  0  0  0  0  0  0
   -1.2260   19.9530  -32.4300 C   0  0  0  0  0  0  0  0  0  0  0  0
    0.0210   20.4820  -31.7860 C   0  0  0  0  0  0  0  0  0  0  0  0
   -0.0790   20.2460  -29.9820 S   0  0  0  0  0  0  0  0  0  0  0  0
   -1.1350   21.6700  -29.7430 C   0  0  0  0  0  0  0  0  0  0  0  0
   -0.7740   22.7320  -28.9950 N   0  0  0  0  0  0  0  0  0  0  0  0
   -1.8330   23.5590  -29.0750 C   0  0  0  0  0  0  0  0  0  0  0  0
   -1.9150   24.8170  -28.3130 C   0  0  0  0  0  0  0  0  0  0  0  0
   -1.5720   26.0470  -28.9470 N   0  0  0  0  0  0  0  0  0  0  0  0
   -2.2470   24.8160  -27.0980 O   0  0  0  0  0  0  0  0  0  0  0  0
   -2.8030   22.9730  -29.8760 C   0  0  0  0  0  0  0  0  0  0  0  0
   -4.1050   23.5300  -30.2910 C   0  0  0  0  0  0  0  0  0  0  0  0
   -4.2800   24.9150  -30.4500 C   0  0  0  0  0  0  0  0  0  0  0  0
   -5.5070   25.4240  -30.8830 C   0  0  0  0  0  0  0  0  0  0  0  0
   -6.5640   24.5580  -31.1730 C   0  0  0  0  0  0  0  0  0  0  0  0
   -6.3950   23.1730  -31.0380 C   0  0  0  0  0  0  0  0  0  0  0  0
   -7.7050   22.0640  -31.4340 S   0  0  0  0  0  0  0  0  0  0  0  0
   -8.2590   21.5050  -30.1530 O   0  0  0  0  0  0  0  0  0  0  0  0
   -8.8050   22.7990  -32.1530 O   0  0  0  0  0  0  0  0  0  0  0  0
   -7.0970   20.7620  -32.4350 N   0  0  0  0  0  0  0  0  0  0  0  0
   -8.1930   20.0480  -33.1010 C   0  0  0  0  0  0  0  0  0  0  0  0
   -8.5670   18.8570  -32.2310 C   0  0  0  0  0  0  0  0  0  0  0  0
   -7.4080   18.6730  -31.2660 C   0  0  0  0  0  0  0  0  0  0  0  0
   -6.4010   19.7560  -31.6240 C   0  0  0  0  0  0  0  0  0  0  0  0
   -5.1630   22.6640  -30.6090 C   0  0  0  0  0  0  0  0  0  0  0  0
   -2.3630   21.7720  -30.2910 N   0  0  0  0  0  0  0  0  0  0  0  0
   -2.1780   20.8350  -32.9650 C   0  0  0  0  0  0  0  0  0  0  0  0
   -3.3570   20.3440  -33.5320 C   0  0  0  0  0  0  0  0  0  0  0  0
   -4.3215   16.4424  -35.4709 H   0  0  0  0  0  0  0  0  0  0  0  0
   -5.6407   17.3026  -36.3349 H   0  0  0  0  0  0  0  0  0  0  0  0
   -3.9767   17.9791  -36.3349 H   0  0  0  0  0  0  0  0  0  0  0  0
   -2.8557   16.9981  -33.0265 H   0  0  0  0  0  0  0  0  0  0  0  0
   -0.7546   17.8738  -32.0094 H   0  0  0  0  0  0  0  0  0  0  0  0
    0.8943   19.9406  -32.1786 H   0  0  0  0  0  0  0  0  0  0  0  0
    0.1226   21.5541  -32.0102 H   0  0  0  0  0  0  0  0  0  0  0  0
   -1.2360   26.0640  -29.9350 H   0  0  0  0  0  0  0  0  0  0  0  0
   -3.4480   25.6010  -30.2328 H   0  0  0  0  0  0  0  0  0  0  0  0
   -5.6411   26.5099  -30.9959 H   0  0  0  0  0  0  0  0  0  0  0  0
   -7.5302   24.9634  -31.5077 H   0  0  0  0  0  0  0  0  0  0  0  0
   -6.4440   21.1700  -33.1440 H   0  0  0  0  0  0  0  0  0  0  0  0
   -9.0600   20.7154  -33.2149 H   0  0  0  0  0  0  0  0  0  0  0  0
   -7.8814   19.7114  -34.1008 H   0  0  0  0  0  0  0  0  0  0  0  0
   -9.4965   19.0617  -31.6795 H   0  0  0  0  0  0  0  0  0  0  0  0
   -8.7415   17.9531  -32.8331 H   0  0  0  0  0  0  0  0  0  0  0  0
   -7.7500   18.7949  -30.2276 H   0  0  0  0  0  0  0  0  0  0  0  0
   -6.9691   17.6674  -31.3444 H   0  0  0  0  0  0  0  0  0  0  0  0
   -6.0082   20.2202  -30.7073 H   0  0  0  0  0  0  0  0  0  0  0  0
   -5.5565   19.3271  -32.1834 H   0  0  0  0  0  0  0  0  0  0  0  0
   -5.0232   21.5765  -30.5205 H   0  0  0  0  0  0  0  0  0  0  0  0
   -1.9948   21.9193  -32.9377 H   0  0  0  0  0  0  0  0  0  0  0  0
   -4.0960   21.0425  -33.9514 H   0  0  0  0  0  0  0  0  0  0  0  0
  1  2  1  0
  2  3  2  0
  2  4  2  0
  2  5  1  0
  5  6  2  0
  6  7  1  0
  7  8  2  0
  8  9  1  0
  9 10  1  0
 10 11  1  0
 11 12  2  0
 12 13  1  0
 13 14  1  0
 14 15  1  0
 14 16  2  0
 13 17  2  0
 17 18  1  0
 18 19  2  0
 19 20  1  0
 20 21  2  0
 21 22  1  0
 22 23  1  0
 23 24  2  0
 23 25  2  0
 23 26  1  0
 26 27  1  0
 27 28  1  0
 28 29  1  0
 29 30  1  0
 22 31  2  0
 17 32  1  0
  8 33  1  0
 33 34  2  0
 34  5  1  0
 32 11  1  0
 31 18  1  0
 30 26  1  0
  1 35  1  0
  1 36  1  0
  1 37  1  0
  6 38  1  0
  7 39  1  0
  9 40  1  0
  9 41  1  0
 15 42  1  0
 19 43  1  0
 20 44  1  0
 21 45  1  0
 26 46  1  0
 27 47  1  0
 27 48  1  0
 28 49  1  0
 28 50  1  0
 29 51  1  0
 29 52  1  0
 30 53  1  0
 30 54  1  0
 31 55  1  0
 33 56  1  0
 34 57  1  0
M  CHG  3  15  -1  26   1  32  -1
M  END
>  <UniqueID>  (44) 
43

>  <SMILES>  (44) 
CS(=O)(=O)c1ccc(CSc2nc(C([NH-])=O)c(-c3cccc(S(=O)(=O)[NH+]4CCCC4)c3)[n-]2)cc1

>  <Energy>  (44) 
86.60958432348448

>  <Genealogy>  (44) 
CS(=O)(=O)c1ccc(CSc2nc(C([NH-])=O)c(-c3cccc(S(=O)(=O)[NH+]4CCCC4)c3)[n-]2)cc1 (protonated)
CS(=O)(=O)c1ccc(CSc2nc(C([NH-])=O)c(-c3cccc(S(=O)(=O)[NH+]4CCCC4)c3)[n-]2)cc1 (3D coordinates assigned)
CS(=O)(=O)c1ccc(CSc2nc(C([NH-])=O)c(-c3cccc(S(=O)(=O)[NH+]4CCCC4)c3)[n-]2)cc1 (nonaromatic ring conformer: 86.60958432348448 kcal/mol)

>  <smiles>  (44) 
CS(=O)(=O)c1ccc(CSc2nc(C(N)=O)c(-c3cccc(S(=O)(=O)N4CCCC4)c3)[nH]2)cc1

>  <score_type>  (44) 
oracle

>  <origin>  (44) 
adgpu

>  <m_score__min__energy>  (44) 
-13.67

>  <m_primary>  (44) 
energy

$$$$
44:0
     RDKit          3D

 30 30  0  0  0  0  0  0  0  0999 V2000
   -6.1290   25.2340  -29.7670 C   0  0  0  0  0  0  0  0  0  0  0  0
   -5.0070   24.8010  -30.6620 C   0  0  0  0  0  0  0  0  0  0  0  0
   -3.8660   25.3040  -30.4930 O   0  0  0  0  0  0  0  0  0  0  0  0
   -5.2020   23.8630  -31.7300 N   0  0  0  0  0  0  0  0  0  0  0  0
   -6.2200   22.8580  -31.8110 C   0  0  0  0  0  0  0  0  0  0  0  0
   -7.5750   23.1850  -31.8790 C   0  0  0  0  0  0  0  0  0  0  0  0
   -8.5160   22.1560  -31.9330 C   0  0  0  0  0  0  0  0  0  0  0  0
   -9.7400   22.4570  -31.9920 O   0  0  0  0  0  0  0  0  0  0  0  0
   -8.1130   20.8440  -31.9180 N   0  0  0  0  0  0  0  0  0  0  0  0
   -9.1110   19.7630  -32.0190 C   0  0  0  0  0  0  0  0  0  0  0  0
   -6.7770   20.5520  -31.7670 C   0  0  0  0  0  0  0  0  0  0  0  0
   -6.1770   18.8580  -31.6180 S   0  0  0  0  0  0  0  0  0  0  0  0
   -6.5070   18.3940  -33.3600 C   0  0  0  0  0  0  0  0  0  0  0  0
   -6.6810   16.8770  -33.4430 C   0  0  0  0  0  0  0  0  0  0  0  0
   -5.3690   18.8500  -34.2760 C   0  0  0  0  0  0  0  0  0  0  0  0
   -5.8600   21.5540  -31.7310 N   0  0  0  0  0  0  0  0  0  0  0  0
   -5.8258   25.1170  -28.7161 H   0  0  0  0  0  0  0  0  0  0  0  0
   -6.3689   26.2893  -29.9641 H   0  0  0  0  0  0  0  0  0  0  0  0
   -7.0156   24.6135  -29.9641 H   0  0  0  0  0  0  0  0  0  0  0  0
   -7.8961   24.2370  -31.8899 H   0  0  0  0  0  0  0  0  0  0  0  0
   -9.4073   19.4420  -31.0095 H   0  0  0  0  0  0  0  0  0  0  0  0
   -9.9950   20.1296  -32.5614 H   0  0  0  0  0  0  0  0  0  0  0  0
   -8.6751   18.9111  -32.5614 H   0  0  0  0  0  0  0  0  0  0  0  0
   -7.4264   18.8945  -33.6979 H   0  0  0  0  0  0  0  0  0  0  0  0
   -6.7291   16.4573  -32.4273 H   0  0  0  0  0  0  0  0  0  0  0  0
   -7.6118   16.6436  -33.9807 H   0  0  0  0  0  0  0  0  0  0  0  0
   -5.8272   16.4389  -33.9807 H   0  0  0  0  0  0  0  0  0  0  0  0
   -4.5201   19.1901  -33.6647 H   0  0  0  0  0  0  0  0  0  0  0  0
   -5.0504   18.0101  -34.9109 H   0  0  0  0  0  0  0  0  0  0  0  0
   -5.7185   19.6775  -34.9109 H   0  0  0  0  0  0  0  0  0  0  0  0
  1  2  1  0
  2  3  2  0
  2  4  1  0
  4  5  1  0
  5  6  2  0
  6  7  1  0
  7  8  2  0
  7  9  1  0
  9 10  1  0
  9 11  1  0
 11 12  1  0
 12 13  1  0
 13 14  1  0
 13 15  1  0
 11 16  2  0
 16  5  1  0
  1 17  1  0
  1 18  1  0
  1 19  1  0
  6 20  1  0
 10 21  1  0
 10 22  1  0
 10 23  1  0
 13 24  1  0
 14 25  1  0
 14 26  1  0
 14 27  1  0
 15 28  1  0
 15 29  1  0
 15 30  1  0
M  CHG  1   4  -1
M  END
>  <UniqueID>  (45) 
44

>  <SMILES>  (45) 
CC(=O)[N-]c1cc(=O)n(C)c(SC(C)C)n1

>  <Energy>  (45) 
27.93175516350599

>  <Genealogy>  (45) 
CC(=O)[N-]c1cc(=O)n(C)c(SC(C)C)n1 (protonated)
CC(=O)[N-]c1cc(=O)n(C)c(SC(C)C)n1 (3D coordinates assigned)
CC(=O)[N-]c1cc(=O)n(C)c(SC(C)C)n1 (optimized conformer: 27.93175516350599 kcal/mol)

>  <smiles>  (45) 
CC(=O)Nc1cc(=O)n(C)c(SC(C)C)n1

>  <score_type>  (45) 
oracle

>  <origin>  (45) 
adgpu

>  <m_score__min__energy>  (45) 
-7.4199999999999999

>  <m_primary>  (45) 
energy

$$$$
45:0
     RDKit          3D

 57 60  0  0  0  0  0  0  0  0999 V2000
   -6.2726   26.6152  -31.0874 H   0  0  0  0  0  0  0  0  0  0  0  0
   -5.7100   25.6730  -31.0110 C   0  0  0  0  0  0  0  0  0  0  0  0
   -6.2020   24.5420  -31.5770 N   0  0  0  0  0  0  0  0  0  0  0  0
   -5.5160   23.3720  -31.4830 C   0  0  0  0  0  0  0  0  0  0  0  0
   -6.0300   22.1690  -32.0980 N   0  0  0  0  0  0  0  0  0  0  0  0
   -5.1580   21.3840  -32.9850 C   0  0  0  0  0  0  0  0  0  0  0  0
   -4.1579   21.3255  -32.5308 H   0  0  0  0  0  0  0  0  0  0  0  0
   -5.1379   21.8928  -33.9601 H   0  0  0  0  0  0  0  0  0  0  0  0
   -5.6640   19.9760  -33.2200 C   0  0  0  0  0  0  0  0  0  0  0  0
   -4.9200   19.1220  -34.0470 C   0  0  0  0  0  0  0  0  0  0  0  0
   -3.9953   19.4899  -34.5156 H   0  0  0  0  0  0  0  0  0  0  0  0
   -5.3410   17.8010  -34.2850 C   0  0  0  0  0  0  0  0  0  0  0  0
   -4.6140   16.9230  -35.1070 O   0  0  0  0  0  0  0  0  0  0  0  0
   -3.2090   16.7090  -35.0140 C   0  0  0  0  0  0  0  0  0  0  0  0
   -2.9142   16.6641  -33.9552 H   0  0  0  0  0  0  0  0  0  0  0  0
   -2.9491   15.7609  -35.5075 H   0  0  0  0  0  0  0  0  0  0  0  0
   -2.6786   17.5367  -35.5075 H   0  0  0  0  0  0  0  0  0  0  0  0
   -6.5200   17.3290  -33.6880 C   0  0  0  0  0  0  0  0  0  0  0  0
   -6.9100   16.0050  -33.9400 O   0  0  0  0  0  0  0  0  0  0  0  0
   -6.0490   14.8750  -33.8390 C   0  0  0  0  0  0  0  0  0  0  0  0
   -5.8719   14.6426  -32.7785 H   0  0  0  0  0  0  0  0  0  0  0  0
   -6.5194   14.0105  -34.3302 H   0  0  0  0  0  0  0  0  0  0  0  0
   -5.0906   15.0992  -34.3302 H   0  0  0  0  0  0  0  0  0  0  0  0
   -7.2690   18.1850  -32.8590 C   0  0  0  0  0  0  0  0  0  0  0  0
   -8.1886   17.8137  -32.3831 H   0  0  0  0  0  0  0  0  0  0  0  0
   -6.8560   19.5060  -32.6330 C   0  0  0  0  0  0  0  0  0  0  0  0
   -7.6480   20.3810  -31.6970 C   0  0  0  0  0  0  0  0  0  0  0  0
   -7.3066   20.2071  -30.6659 H   0  0  0  0  0  0  0  0  0  0  0  0
   -8.7138   20.1279  -31.7966 H   0  0  0  0  0  0  0  0  0  0  0  0
   -7.4630   21.8530  -32.0420 C   0  0  0  0  0  0  0  0  0  0  0  0
   -7.9449   22.4730  -31.2717 H   0  0  0  0  0  0  0  0  0  0  0  0
   -7.9214   22.0595  -33.0204 H   0  0  0  0  0  0  0  0  0  0  0  0
   -4.3310   23.3530  -30.8220 N   0  0  0  0  0  0  0  0  0  0  0  0
   -3.8250   24.4850  -30.2620 C   0  0  0  0  0  0  0  0  0  0  0  0
   -2.7000   24.4700  -29.6080 N   0  0  0  0  0  0  0  0  0  0  0  0
   -1.8190   23.3420  -29.4650 C   0  0  0  0  0  0  0  0  0  0  0  0
   -1.4140   22.5740  -30.5720 C   0  0  0  0  0  0  0  0  0  0  0  0
   -1.7734   22.8352  -31.5783 H   0  0  0  0  0  0  0  0  0  0  0  0
   -0.5580   21.4810  -30.4030 C   0  0  0  0  0  0  0  0  0  0  0  0
   -0.1530   20.7370  -31.5610 N   0  0  0  0  0  0  0  0  0  0  0  0
   -0.4990   21.0220  -32.9230 C   0  0  0  0  0  0  0  0  0  0  0  0
    0.3630   21.5520  -33.6710 O   0  0  0  0  0  0  0  0  0  0  0  0
   -1.8660   20.7470  -33.4700 C   0  0  0  0  0  0  0  0  0  0  0  0
   -2.5719   20.6050  -32.6384 H   0  0  0  0  0  0  0  0  0  0  0  0
   -2.1921   21.5975  -34.0866 H   0  0  0  0  0  0  0  0  0  0  0  0
   -1.8379   19.8365  -34.0866 H   0  0  0  0  0  0  0  0  0  0  0  0
   -0.0500   21.1900  -29.1270 C   0  0  0  0  0  0  0  0  0  0  0  0
    0.6441   20.3471  -28.9938 H   0  0  0  0  0  0  0  0  0  0  0  0
   -0.4240   21.9710  -28.0170 C   0  0  0  0  0  0  0  0  0  0  0  0
    0.0530   21.7150  -26.7220 O   0  0  0  0  0  0  0  0  0  0  0  0
   -0.4530   22.3300  -25.5410 C   0  0  0  0  0  0  0  0  0  0  0  0
   -0.0369   21.8243  -24.6572 H   0  0  0  0  0  0  0  0  0  0  0  0
   -0.1628   23.3909  -25.5269 H   0  0  0  0  0  0  0  0  0  0  0  0
   -1.5500   22.2497  -25.5269 H   0  0  0  0  0  0  0  0  0  0  0  0
   -1.2990   23.0470  -28.2000 C   0  0  0  0  0  0  0  0  0  0  0  0
   -1.5819   23.6693  -27.3382 H   0  0  0  0  0  0  0  0  0  0  0  0
   -4.5250   25.6430  -30.3510 N   0  0  0  0  0  0  0  0  0  0  0  0
  1  2  1  0
  2  3  2  0
  3  4  1  0
  4  5  1  0
  5  6  1  0
  6  7  1  0
  6  8  1  0
  6  9  1  0
  9 10  2  0
 10 11  1  0
 10 12  1  0
 12 13  1  0
 13 14  1  0
 14 15  1  0
 14 16  1  0
 14 17  1  0
 12 18  2  0
 18 19  1  0
 19 20  1  0
 20 21  1  0
 20 22  1  0
 20 23  1  0
 18 24  1  0
 24 25  1  0
 24 26  2  0
 26 27  1  0
 27 28  1  0
 27 29  1  0
 27 30  1  0
 30 31  1  0
 30 32  1  0
  4 33  2  0
 33 34  1  0
 34 35  2  0
 35 36  1  0
 36 37  2  0
 37 38  1  0
 37 39  1  0
 39 40  1  0
 40 41  1  0
 41 42  2  0
 41 43  1  0
 43 44  1  0
 43 45  1  0
 43 46  1  0
 39 47  2  0
 47 48  1  0
 47 49  1  0
 49 50  1  0
 50 51  1  0
 51 52  1  0
 51 53  1  0
 51 54  1  0
 49 55  2  0
 55 56  1  0
 34 57  1  0
 57  2  1  0
 30  5  1  0
 55 36  1  0
 26  9  1  0
M  CHG  2  40  -1  57  -1
M  END
>  <UniqueID>  (46) 
45

>  <SMILES>  (46) 
COc1cc(/N=c2\nc(N3CCc4cc(OC)c(OC)cc4C3)nc[n-]2)cc([N-]C(C)=O)c1

>  <Energy>  (46) 
70.83860388806441

>  <Genealogy>  (46) 
COc1cc(N=c2nc(N3CCc4cc(OC)c(OC)cc4C3)nc[n-]2)cc([N-]C(C)=O)c1 (protonated)
COc1cc(/N=c2\nc(N3CCc4cc(OC)c(OC)cc4C3)nc[n-]2)cc([N-]C(C)=O)c1 (cis-trans isomerization)
COc1cc(/N=c2\nc(N3CCc4cc(OC)c(OC)cc4C3)nc[n-]2)cc([N-]C(C)=O)c1 (3D coordinates assigned)
COc1cc(/N=c2\nc(N3CCc4cc(OC)c(OC)cc4C3)nc[n-]2)cc([N-]C(C)=O)c1 (nonaromatic ring conformer: 70.83860388806441 kcal/mol)

>  <smiles>  (46) 
COc1cc(N=c2nc(N3CCc4cc(OC)c(OC)cc4C3)nc[nH]2)cc(NC(C)=O)c1

>  <score_type>  (46) 
oracle

>  <origin>  (46) 
adgpu

>  <m_score__min__energy>  (46) 
-10.279999999999999

>  <m_primary>  (46) 
energy

$$$$
46:0
     RDKit          3D

 44 46  0  0  0  0  0  0  0  0999 V2000
   -2.6260   20.4260  -27.3860 C   0  0  0  0  0  0  0  0  0  0  0  0
   -2.3470   21.8030  -27.9190 C   0  0  0  0  0  0  0  0  0  0  0  0
   -1.3990   22.6260  -27.3000 C   0  0  0  0  0  0  0  0  0  0  0  0
   -1.1630   23.9130  -27.7820 C   0  0  0  0  0  0  0  0  0  0  0  0
   -1.8800   24.4000  -28.8810 C   0  0  0  0  0  0  0  0  0  0  0  0
   -1.6110   25.6890  -29.3320 O   0  0  0  0  0  0  0  0  0  0  0  0
   -2.8590   23.5950  -29.5070 C   0  0  0  0  0  0  0  0  0  0  0  0
   -3.6810   24.1000  -30.6370 C   0  0  0  0  0  0  0  0  0  0  0  0
   -3.8710   25.3410  -30.7870 O   0  0  0  0  0  0  0  0  0  0  0  0
   -4.2450   23.1930  -31.5860 N   0  0  0  0  0  0  0  0  0  0  0  0
   -5.6450   22.8930  -31.6360 C   0  0  0  0  0  0  0  0  0  0  0  0
   -6.0550   21.5640  -31.7890 C   0  0  0  0  0  0  0  0  0  0  0  0
   -7.4200   21.2420  -31.8380 C   0  0  0  0  0  0  0  0  0  0  0  0
   -7.9430   19.5790  -32.1370 S   0  0  0  0  0  0  0  0  0  0  0  0
   -8.4350   18.9890  -30.8450 O   0  0  0  0  0  0  0  0  0  0  0  0
   -9.0970   19.6020  -33.1050 O   0  0  0  0  0  0  0  0  0  0  0  0
   -6.6680   18.5660  -32.7750 N   0  0  0  0  0  0  0  0  0  0  0  0
   -6.1320   19.0770  -34.0360 C   0  0  0  0  0  0  0  0  0  0  0  0
   -5.5120   17.8820  -34.7420 C   0  0  0  0  0  0  0  0  0  0  0  0
   -6.2360   16.6710  -34.1740 C   0  0  0  0  0  0  0  0  0  0  0  0
   -7.1470   17.2180  -33.0800 C   0  0  0  0  0  0  0  0  0  0  0  0
   -8.3750   22.2590  -31.7010 C   0  0  0  0  0  0  0  0  0  0  0  0
   -7.9720   23.5830  -31.5200 C   0  0  0  0  0  0  0  0  0  0  0  0
   -6.6100   23.9090  -31.4840 C   0  0  0  0  0  0  0  0  0  0  0  0
   -6.2160   25.2290  -31.2790 O   0  0  0  0  0  0  0  0  0  0  0  0
   -3.0820   22.2920  -29.0100 C   0  0  0  0  0  0  0  0  0  0  0  0
   -2.6210   20.4505  -26.2863 H   0  0  0  0  0  0  0  0  0  0  0  0
   -3.6109   20.0881  -27.7408 H   0  0  0  0  0  0  0  0  0  0  0  0
   -1.8503   19.7314  -27.7408 H   0  0  0  0  0  0  0  0  0  0  0  0
   -0.8377   22.2559  -26.4294 H   0  0  0  0  0  0  0  0  0  0  0  0
   -0.4089   24.5493  -27.2957 H   0  0  0  0  0  0  0  0  0  0  0  0
   -5.3022   20.7662  -31.8714 H   0  0  0  0  0  0  0  0  0  0  0  0
   -6.9387   19.5065  -34.6482 H   0  0  0  0  0  0  0  0  0  0  0  0
   -5.3924   19.8734  -33.8664 H   0  0  0  0  0  0  0  0  0  0  0  0
   -5.6678   17.9512  -35.8287 H   0  0  0  0  0  0  0  0  0  0  0  0
   -4.4250   17.8260  -34.5830 H   0  0  0  0  0  0  0  0  0  0  0  0
   -6.8294   16.1757  -34.9566 H   0  0  0  0  0  0  0  0  0  0  0  0
   -5.5327   15.9211  -33.7828 H   0  0  0  0  0  0  0  0  0  0  0  0
   -8.1872   17.2559  -33.4356 H   0  0  0  0  0  0  0  0  0  0  0  0
   -7.1246   16.5766  -32.1866 H   0  0  0  0  0  0  0  0  0  0  0  0
   -9.4465   22.0126  -31.7363 H   0  0  0  0  0  0  0  0  0  0  0  0
   -8.7274   24.3743  -31.4051 H   0  0  0  0  0  0  0  0  0  0  0  0
   -5.2950   25.5560  -31.5430 H   0  0  0  0  0  0  0  0  0  0  0  0
   -3.8412   21.6525  -29.4839 H   0  0  0  0  0  0  0  0  0  0  0  0
  1  2  1  0
  2  3  2  0
  3  4  1  0
  4  5  2  0
  5  6  1  0
  5  7  1  0
  7  8  1  0
  8  9  2  0
  8 10  1  0
 10 11  1  0
 11 12  2  0
 12 13  1  0
 13 14  1  0
 14 15  2  0
 14 16  2  0
 14 17  1  0
 17 18  1  0
 18 19  1  0
 19 20  1  0
 20 21  1  0
 13 22  2  0
 22 23  1  0
 23 24  2  0
 24 25  1  0
  7 26  2  0
 26  2  1  0
 24 11  1  0
 21 17  1  0
  1 27  1  0
  1 28  1  0
  1 29  1  0
  3 30  1  0
  4 31  1  0
 12 32  1  0
 18 33  1  0
 18 34  1  0
 19 35  1  0
 19 36  1  0
 20 37  1  0
 20 38  1  0
 21 39  1  0
 21 40  1  0
 22 41  1  0
 23 42  1  0
 25 43  1  0
 26 44  1  0
M  CHG  2   6  -1  10  -1
M  END
>  <UniqueID>  (47) 
46

>  <SMILES>  (47) 
Cc1ccc([O-])c(C(=O)[N-]c2cc(S(=O)(=O)N3CCCC3)ccc2O)c1

>  <Energy>  (47) 
55.20481454189268

>  <Genealogy>  (47) 
Cc1ccc([O-])c(C(=O)[N-]c2cc(S(=O)(=O)N3CCCC3)ccc2O)c1 (protonated)
Cc1ccc([O-])c(C(=O)[N-]c2cc(S(=O)(=O)N3CCCC3)ccc2O)c1 (3D coordinates assigned)
Cc1ccc([O-])c(C(=O)[N-]c2cc(S(=O)(=O)N3CCCC3)ccc2O)c1 (nonaromatic ring conformer: 55.20481454189268 kcal/mol)

>  <smiles>  (47) 
Cc1ccc(O)c(C(=O)Nc2cc(S(=O)(=O)N3CCCC3)ccc2O)c1

>  <score_type>  (47) 
oracle

>  <origin>  (47) 
adgpu

>  <m_score__min__energy>  (47) 
-13.359999999999999

>  <m_primary>  (47) 
energy

$$$$
47:0
     RDKit          3D

 41 44  0  0  0  0  0  0  0  0999 V2000
   -2.0210   20.5720  -33.8380 C   0  0  0  0  0  0  0  0  0  0  0  0
   -3.3520   20.9070  -33.3480 N   0  0  0  0  0  0  0  0  0  0  0  0
   -3.7200   22.0830  -32.8100 C   0  0  0  0  0  0  0  0  0  0  0  0
   -5.0280   21.9740  -32.3850 C   0  0  0  0  0  0  0  0  0  0  0  0
   -5.8000   23.0310  -31.6460 C   0  0  0  0  0  0  0  0  0  0  0  0
   -5.0590   24.2860  -31.6000 N   0  0  0  0  0  0  0  0  0  0  0  0
   -4.8330   25.0260  -30.3980 C   0  0  0  0  0  0  0  0  0  0  0  0
   -5.8220   25.3910  -29.7090 O   0  0  0  0  0  0  0  0  0  0  0  0
   -3.4940   25.2940  -29.9600 N   0  0  0  0  0  0  0  0  0  0  0  0
   -2.4820   24.3300  -29.6390 C   0  0  0  0  0  0  0  0  0  0  0  0
   -2.5910   22.9550  -29.9580 C   0  0  0  0  0  0  0  0  0  0  0  0
   -1.5650   22.0510  -29.5930 C   0  0  0  0  0  0  0  0  0  0  0  0
   -0.4300   22.5010  -28.8970 C   0  0  0  0  0  0  0  0  0  0  0  0
   -0.3610   23.8530  -28.5770 C   0  0  0  0  0  0  0  0  0  0  0  0
    0.6130   24.4950  -27.9130 N   0  0  0  0  0  0  0  0  0  0  0  0
    0.2590   25.7750  -27.8350 N   0  0  0  0  0  0  0  0  0  0  0  0
   -0.9360   25.9460  -28.4480 C   0  0  0  0  0  0  0  0  0  0  0  0
   -1.3490   24.7270  -28.9290 C   0  0  0  0  0  0  0  0  0  0  0  0
   -5.3970   20.6690  -32.7050 C   0  0  0  0  0  0  0  0  0  0  0  0
   -6.6830   19.9920  -32.4260 C   0  0  0  0  0  0  0  0  0  0  0  0
   -6.7120   18.5960  -32.2710 C   0  0  0  0  0  0  0  0  0  0  0  0
   -7.9190   17.9400  -32.0100 C   0  0  0  0  0  0  0  0  0  0  0  0
   -9.1070   18.6690  -31.9150 C   0  0  0  0  0  0  0  0  0  0  0  0
   -9.0900   20.0550  -32.0880 C   0  0  0  0  0  0  0  0  0  0  0  0
   -7.8860   20.7160  -32.3480 C   0  0  0  0  0  0  0  0  0  0  0  0
   -4.3470   20.0380  -33.2710 N   0  0  0  0  0  0  0  0  0  0  0  0
   -1.3480   20.4026  -32.9846 H   0  0  0  0  0  0  0  0  0  0  0  0
   -2.0744   19.6593  -34.4496 H   0  0  0  0  0  0  0  0  0  0  0  0
   -1.6360   21.4013  -34.4496 H   0  0  0  0  0  0  0  0  0  0  0  0
   -3.0868   22.9783  -32.7236 H   0  0  0  0  0  0  0  0  0  0  0  0
   -6.7594   23.1987  -32.1573 H   0  0  0  0  0  0  0  0  0  0  0  0
   -5.9667   22.6855  -30.6151 H   0  0  0  0  0  0  0  0  0  0  0  0
   -3.4788   22.5869  -30.4930 H   0  0  0  0  0  0  0  0  0  0  0  0
   -1.6567   20.9869  -29.8564 H   0  0  0  0  0  0  0  0  0  0  0  0
    0.3762   21.8078  -28.6149 H   0  0  0  0  0  0  0  0  0  0  0  0
   -1.4817   26.8962  -28.5443 H   0  0  0  0  0  0  0  0  0  0  0  0
   -5.7809   18.0163  -32.3553 H   0  0  0  0  0  0  0  0  0  0  0  0
   -7.9331   16.8479  -31.8792 H   0  0  0  0  0  0  0  0  0  0  0  0
  -10.0548   18.1521  -31.7042 H   0  0  0  0  0  0  0  0  0  0  0  0
  -10.0266   20.6279  -32.0195 H   0  0  0  0  0  0  0  0  0  0  0  0
   -7.8796   21.8065  -32.4921 H   0  0  0  0  0  0  0  0  0  0  0  0
  1  2  1  0
  2  3  1  0
  3  4  2  0
  4  5  1  0
  5  6  1  0
  6  7  1  0
  7  8  2  0
  7  9  1  0
  9 10  1  0
 10 11  2  0
 11 12  1  0
 12 13  2  0
 13 14  1  0
 14 15  1  0
 15 16  1  0
 16 17  2  0
 17 18  1  0
  4 19  1  0
 19 20  1  0
 20 21  2  0
 21 22  1  0
 22 23  2  0
 23 24  1  0
 24 25  2  0
 19 26  2  0
 26  2  1  0
 18 10  1  0
 25 20  1  0
 18 14  2  0
  1 27  1  0
  1 28  1  0
  1 29  1  0
  3 30  1  0
  5 31  1  0
  5 32  1  0
 11 33  1  0
 12 34  1  0
 13 35  1  0
 17 36  1  0
 21 37  1  0
 22 38  1  0
 23 39  1  0
 24 40  1  0
 25 41  1  0
M  CHG  3   6  -1   9  -1  15  -1
M  END
>  <UniqueID>  (48) 
47

>  <SMILES>  (48) 
Cn1cc(C[N-]C(=O)[N-]c2cccc3[n-]ncc23)c(-c2ccccc2)n1

>  <Energy>  (48) 
115.10331540039549

>  <Genealogy>  (48) 
Cn1cc(C[N-]C(=O)[N-]c2cccc3[n-]ncc23)c(-c2ccccc2)n1 (protonated)
Cn1cc(C[N-]C(=O)[N-]c2cccc3[n-]ncc23)c(-c2ccccc2)n1 (3D coordinates assigned)
Cn1cc(C[N-]C(=O)[N-]c2cccc3[n-]ncc23)c(-c2ccccc2)n1 (optimized conformer: 115.10331540039549 kcal/mol)

>  <smiles>  (48) 
Cn1cc(CNC(=O)Nc2cccc3[nH]ncc23)c(-c2ccccc2)n1

>  <score_type>  (48) 
oracle

>  <origin>  (48) 
adgpu

>  <m_score__min__energy>  (48) 
-11.949999999999999

>  <m_primary>  (48) 
energy

$$$$
48:0
     RDKit          3D

 54 56  0  0  0  0  0  0  0  0999 V2000
   -7.7380   23.3770  -31.3130 C   0  0  0  0  0  0  0  0  0  0  0  0
   -7.1020   24.0290  -30.0870 C   0  0  0  0  0  0  0  0  0  0  0  0
   -5.8210   23.3100  -29.6400 C   0  0  0  0  0  0  0  0  0  0  0  0
   -4.4650   23.5190  -30.7940 S   0  0  0  0  0  0  0  0  0  0  0  0
   -3.7960   24.8280  -30.4880 O   0  0  0  0  0  0  0  0  0  0  0  0
   -4.9940   23.5920  -32.1960 O   0  0  0  0  0  0  0  0  0  0  0  0
   -3.2630   22.2380  -30.5420 C   0  0  0  0  0  0  0  0  0  0  0  0
   -2.7900   22.1280  -29.2780 N   0  0  0  0  0  0  0  0  0  0  0  0
   -1.7960   21.2810  -28.9340 C   0  0  0  0  0  0  0  0  0  0  0  0
   -1.4350   21.1630  -27.5870 C   0  0  0  0  0  0  0  0  0  0  0  0
   -0.4190   20.2880  -27.2070 C   0  0  0  0  0  0  0  0  0  0  0  0
    0.2380   19.5250  -28.1720 C   0  0  0  0  0  0  0  0  0  0  0  0
   -0.1070   19.6480  -29.5210 C   0  0  0  0  0  0  0  0  0  0  0  0
   -1.1130   20.5500  -29.9320 C   0  0  0  0  0  0  0  0  0  0  0  0
   -1.4830   20.7390  -31.2910 C   0  0  0  0  0  0  0  0  0  0  0  0
   -0.3030   20.3780  -32.6040 S   0  0  0  0  0  0  0  0  0  0  0  0
   -0.4180   21.3800  -33.7190 O   0  0  0  0  0  0  0  0  0  0  0  0
    1.1140   20.4160  -32.1140 O   0  0  0  0  0  0  0  0  0  0  0  0
   -0.5160   18.7050  -33.2190 C   0  0  0  0  0  0  0  0  0  0  0  0
   -1.4750   17.8640  -32.3870 C   0  0  0  0  0  0  0  0  0  0  0  0
   -2.7000   21.4310  -31.5680 C   0  0  0  0  0  0  0  0  0  0  0  0
   -3.6370   21.0480  -33.0350 S   0  0  0  0  0  0  0  0  0  0  0  0
   -3.8370   22.3020  -33.8400 O   0  0  0  0  0  0  0  0  0  0  0  0
   -2.8530   20.1020  -33.8980 O   0  0  0  0  0  0  0  0  0  0  0  0
   -5.2050   20.3340  -32.6570 C   0  0  0  0  0  0  0  0  0  0  0  0
   -6.3990   20.9740  -33.0230 C   0  0  0  0  0  0  0  0  0  0  0  0
   -7.6320   20.3930  -32.7150 C   0  0  0  0  0  0  0  0  0  0  0  0
   -7.6860   19.1720  -32.0240 C   0  0  0  0  0  0  0  0  0  0  0  0
   -9.0100   18.5320  -31.7290 C   0  0  0  0  0  0  0  0  0  0  0  0
   -6.4920   18.5250  -31.6740 C   0  0  0  0  0  0  0  0  0  0  0  0
   -5.2590   19.1070  -31.9820 C   0  0  0  0  0  0  0  0  0  0  0  0
   -8.4720   22.6245  -30.9888 H   0  0  0  0  0  0  0  0  0  0  0  0
   -8.2430   24.1456  -31.9166 H   0  0  0  0  0  0  0  0  0  0  0  0
   -6.9571   22.8913  -31.9166 H   0  0  0  0  0  0  0  0  0  0  0  0
   -6.8546   25.0728  -30.3304 H   0  0  0  0  0  0  0  0  0  0  0  0
   -7.8262   23.9684  -29.2612 H   0  0  0  0  0  0  0  0  0  0  0  0
   -5.5155   23.7122  -28.6628 H   0  0  0  0  0  0  0  0  0  0  0  0
   -6.0471   22.2348  -29.5874 H   0  0  0  0  0  0  0  0  0  0  0  0
   -1.9550   21.7629  -26.8256 H   0  0  0  0  0  0  0  0  0  0  0  0
   -0.1358   20.1993  -26.1478 H   0  0  0  0  0  0  0  0  0  0  0  0
    1.0303   18.8241  -27.8705 H   0  0  0  0  0  0  0  0  0  0  0  0
    0.4118   19.0343  -30.2722 H   0  0  0  0  0  0  0  0  0  0  0  0
   -0.9042   18.7597  -34.2468 H   0  0  0  0  0  0  0  0  0  0  0  0
    0.4680   18.2160  -33.1673 H   0  0  0  0  0  0  0  0  0  0  0  0
   -1.2799   18.0351  -31.3180 H   0  0  0  0  0  0  0  0  0  0  0  0
   -2.5111   18.1500  -32.6210 H   0  0  0  0  0  0  0  0  0  0  0  0
   -1.3267   16.7995  -32.6210 H   0  0  0  0  0  0  0  0  0  0  0  0
   -6.3642   21.9366  -33.5543 H   0  0  0  0  0  0  0  0  0  0  0  0
   -8.5640   20.8943  -33.0151 H   0  0  0  0  0  0  0  0  0  0  0  0
   -9.1500   18.4643  -30.6400 H   0  0  0  0  0  0  0  0  0  0  0  0
   -9.8164   19.1398  -32.1653 H   0  0  0  0  0  0  0  0  0  0  0  0
   -9.0346   17.5225  -32.1653 H   0  0  0  0  0  0  0  0  0  0  0  0
   -6.5259   17.5557  -31.1551 H   0  0  0  0  0  0  0  0  0  0  0  0
   -4.3267   18.5996  -31.6932 H   0  0  0  0  0  0  0  0  0  0  0  0
  1  2  1  0
  2  3  1  0
  3  4  1  0
  4  5  2  0
  4  6  2  0
  4  7  1  0
  7  8  2  0
  8  9  1  0
  9 10  2  0
 10 11  1  0
 11 12  2  0
 12 13  1  0
 13 14  2  0
 14 15  1  0
 15 16  1  0
 16 17  2  0
 16 18  2  0
 16 19  1  0
 19 20  1  0
 15 21  2  0
 21 22  1  0
 22 23  2  0
 22 24  2  0
 22 25  1  0
 25 26  2  0
 26 27  1  0
 27 28  2  0
 28 29  1  0
 28 30  1  0
 30 31  2  0
 21  7  1  0
 31 25  1  0
 14  9  1  0
  1 32  1  0
  1 33  1  0
  1 34  1  0
  2 35  1  0
  2 36  1  0
  3 37  1  0
  3 38  1  0
 10 39  1  0
 11 40  1  0
 12 41  1  0
 13 42  1  0
 19 43  1  0
 19 44  1  0
 20 45  1  0
 20 46  1  0
 20 47  1  0
 26 48  1  0
 27 49  1  0
 29 50  1  0
 29 51  1  0
 29 52  1  0
 30 53  1  0
 31 54  1  0
M  END
>  <UniqueID>  (49) 
48

>  <SMILES>  (49) 
CCCS(=O)(=O)c1nc2ccccc2c(S(=O)(=O)CC)c1S(=O)(=O)c1ccc(C)cc1

>  <Energy>  (49) 
76.43347529506154

>  <Genealogy>  (49) 
CCCS(=O)(=O)c1nc2ccccc2c(S(=O)(=O)CC)c1S(=O)(=O)c1ccc(C)cc1 (3D coordinates assigned)
CCCS(=O)(=O)c1nc2ccccc2c(S(=O)(=O)CC)c1S(=O)(=O)c1ccc(C)cc1 (optimized conformer: 76.43347529506154 kcal/mol)

>  <smiles>  (49) 
CCCS(=O)(=O)c1nc2ccccc2c(S(=O)(=O)CC)c1S(=O)(=O)c1ccc(C)cc1

>  <score_type>  (49) 
oracle

>  <origin>  (49) 
adgpu

>  <m_score__min__energy>  (49) 
-10

>  <m_primary>  (49) 
energy

$$$$
49:0
     RDKit          3D

 84 89  0  0  0  0  0  0  0  0999 V2000
   -5.5770   25.5170  -30.3100 C   0  0  0  0  0  0  0  0  0  0  0  0
   -6.2610   24.2470  -30.7200 C   0  0  0  0  0  0  0  0  0  0  0  0
   -6.0990   23.7430  -32.0200 C   0  0  0  0  0  0  0  0  0  0  0  0
   -6.7000   22.5350  -32.3870 C   0  0  0  0  0  0  0  0  0  0  0  0
   -7.4560   21.8100  -31.4560 C   0  0  0  0  0  0  0  0  0  0  0  0
   -8.1880   20.2700  -31.9130 S   0  0  0  0  0  0  0  0  0  0  0  0
   -9.1970   20.5090  -33.0010 O   0  0  0  0  0  0  0  0  0  0  0  0
   -8.9090   19.6870  -30.7300 O   0  0  0  0  0  0  0  0  0  0  0  0
   -6.9870   19.1330  -32.4770 N   0  0  0  0  0  0  0  0  0  0  0  0
   -7.6070   17.8350  -32.7760 C   0  0  0  0  0  0  0  0  0  0  0  0
   -6.5000   16.7970  -32.9630 C   0  0  0  0  0  0  0  0  0  0  0  0
   -5.3710   17.3510  -33.7240 N   0  0  0  0  0  0  0  0  0  0  0  0
   -4.1810   16.5440  -33.8790 C   0  0  0  0  0  0  0  0  0  0  0  0
   -4.2170   15.3220  -33.5590 O   0  0  0  0  0  0  0  0  0  0  0  0
   -2.9080   17.1120  -34.4570 C   0  0  0  0  0  0  0  0  0  0  0  0
   -2.2500   18.0460  -33.5170 N   0  0  0  0  0  0  0  0  0  0  0  0
   -1.7460   19.2580  -34.2200 C   0  0  0  0  0  0  0  0  0  0  0  0
   -0.6350   19.9900  -33.4390 C   0  0  0  0  0  0  0  0  0  0  0  0
   -0.7130   19.6690  -32.0110 N   0  0  0  0  0  0  0  0  0  0  0  0
   -0.8880   20.7060  -31.0250 C   0  0  0  0  0  0  0  0  0  0  0  0
   -1.8800   21.6850  -31.2000 C   0  0  0  0  0  0  0  0  0  0  0  0
   -2.0740   22.6780  -30.2360 C   0  0  0  0  0  0  0  0  0  0  0  0
   -1.2830   22.7120  -29.0780 C   0  0  0  0  0  0  0  0  0  0  0  0
   -1.4950   23.7200  -28.0720 N   0  0  0  0  0  0  0  0  0  0  0  0
   -1.6910   23.4760  -26.6480 C   0  0  0  0  0  0  0  0  0  0  0  0
   -2.0520   24.8650  -26.0450 C   0  0  1  0  0  0  0  0  0  0  0  0
   -1.2480   25.2270  -24.7890 C   0  0  0  0  0  0  0  0  0  0  0  0
    0.0570   24.6440  -24.8420 O   0  0  0  0  0  0  0  0  0  0  0  0
    1.0400   24.9080  -25.8090 C   0  0  0  0  0  0  0  0  0  0  0  0
    1.6890   23.8870  -26.5320 C   0  0  0  0  0  0  0  0  0  0  0  0
    2.6690   24.2090  -27.4770 C   0  0  0  0  0  0  0  0  0  0  0  0
    2.9990   25.5440  -27.7200 C   0  0  0  0  0  0  0  0  0  0  0  0
    2.3430   26.5640  -27.0250 C   0  0  0  0  0  0  0  0  0  0  0  0
    2.6570   27.8610  -27.2720 F   0  0  0  0  0  0  0  0  0  0  0  0
    1.3630   26.2460  -26.0780 C   0  0  0  0  0  0  0  0  0  0  0  0
    0.7330   27.2420  -25.4050 F   0  0  0  0  0  0  0  0  0  0  0  0
   -1.7920   25.7990  -27.0880 O   0  0  0  0  0  0  0  0  0  0  0  0
   -1.5130   25.1240  -28.2530 C   0  0  0  0  0  0  0  0  0  0  0  0
   -1.2450   25.7020  -29.3390 O   0  0  0  0  0  0  0  0  0  0  0  0
   -0.3020   21.7240  -28.8940 C   0  0  0  0  0  0  0  0  0  0  0  0
   -0.1000   20.7340  -29.8590 C   0  0  0  0  0  0  0  0  0  0  0  0
    0.8830   19.8210  -29.6650 F   0  0  0  0  0  0  0  0  0  0  0  0
   -0.7190   18.2550  -31.6110 C   0  0  0  0  0  0  0  0  0  0  0  0
   -1.1700   17.3660  -32.7750 C   0  0  0  0  0  0  0  0  0  0  0  0
   -5.5780   18.5860  -34.4980 C   0  0  0  0  0  0  0  0  0  0  0  0
   -6.2700   19.6770  -33.6510 C   0  0  0  0  0  0  0  0  0  0  0  0
   -7.6080   22.3080  -30.1540 C   0  0  0  0  0  0  0  0  0  0  0  0
   -7.0090   23.5160  -29.7860 C   0  0  0  0  0  0  0  0  0  0  0  0
   -5.5442   25.5779  -29.2122 H   0  0  0  0  0  0  0  0  0  0  0  0
   -4.5518   25.5265  -30.7085 H   0  0  0  0  0  0  0  0  0  0  0  0
   -6.1333   26.3782  -30.7085 H   0  0  0  0  0  0  0  0  0  0  0  0
   -5.4970   24.3004  -32.7528 H   0  0  0  0  0  0  0  0  0  0  0  0
   -6.5789   22.1520  -33.4110 H   0  0  0  0  0  0  0  0  0  0  0  0
   -8.2592   17.5351  -31.9425 H   0  0  0  0  0  0  0  0  0  0  0  0
   -8.2111   17.9093  -33.6923 H   0  0  0  0  0  0  0  0  0  0  0  0
   -6.1415   16.4735  -31.9746 H   0  0  0  0  0  0  0  0  0  0  0  0
   -6.9132   15.9464  -33.5249 H   0  0  0  0  0  0  0  0  0  0  0  0
   -2.2176   16.2852  -34.6800 H   0  0  0  0  0  0  0  0  0  0  0  0
   -3.1643   17.6684  -35.3706 H   0  0  0  0  0  0  0  0  0  0  0  0
   -1.3449   18.9544  -35.1982 H   0  0  0  0  0  0  0  0  0  0  0  0
   -2.5910   19.9550  -34.3208 H   0  0  0  0  0  0  0  0  0  0  0  0
    0.3458   19.6778  -33.8269 H   0  0  0  0  0  0  0  0  0  0  0  0
   -0.7663   21.0746  -33.5670 H   0  0  0  0  0  0  0  0  0  0  0  0
   -2.5088   21.6699  -32.1025 H   0  0  0  0  0  0  0  0  0  0  0  0
   -2.8535   23.4394  -30.3865 H   0  0  0  0  0  0  0  0  0  0  0  0
   -2.5110   22.7605  -26.4880 H   0  0  0  0  0  0  0  0  0  0  0  0
   -0.7967   23.0419  -26.1771 H   0  0  0  0  0  0  0  0  0  0  0  0
   -3.0993   24.8656  -25.7087 H   0  0  0  0  0  0  0  0  0  0  0  0
   -1.1530   26.3209  -24.7233 H   0  0  0  0  0  0  0  0  0  0  0  0
   -1.7752   24.8374  -23.9056 H   0  0  0  0  0  0  0  0  0  0  0  0
    1.4243   22.8345  -26.3528 H   0  0  0  0  0  0  0  0  0  0  0  0
    3.1812   23.4081  -28.0304 H   0  0  0  0  0  0  0  0  0  0  0  0
    3.7753   25.7929  -28.4585 H   0  0  0  0  0  0  0  0  0  0  0  0
    0.3129   21.7296  -27.9819 H   0  0  0  0  0  0  0  0  0  0  0  0
    0.2960   17.9618  -31.3047 H   0  0  0  0  0  0  0  0  0  0  0  0
   -1.4215   18.1266  -30.7744 H   0  0  0  0  0  0  0  0  0  0  0  0
   -0.3199   17.1830  -33.4487 H   0  0  0  0  0  0  0  0  0  0  0  0
   -1.5385   16.4059  -32.3846 H   0  0  0  0  0  0  0  0  0  0  0  0
   -4.6018   18.9628  -34.8373 H   0  0  0  0  0  0  0  0  0  0  0  0
   -6.2270   18.3513  -35.3545 H   0  0  0  0  0  0  0  0  0  0  0  0
   -5.5046   20.3834  -33.2972 H   0  0  0  0  0  0  0  0  0  0  0  0
   -7.0169   20.1663  -34.2935 H   0  0  0  0  0  0  0  0  0  0  0  0
   -8.2016   21.7451  -29.4186 H   0  0  0  0  0  0  0  0  0  0  0  0
   -7.1248   23.8947  -28.7598 H   0  0  0  0  0  0  0  0  0  0  0  0
  1  2  1  0
  2  3  2  0
  3  4  1  0
  4  5  2  0
  5  6  1  0
  6  7  2  0
  6  8  2  0
  6  9  1  0
  9 10  1  0
 10 11  1  0
 11 12  1  0
 12 13  1  0
 13 14  2  0
 13 15  1  0
 15 16  1  0
 16 17  1  0
 17 18  1  0
 18 19  1  0
 19 20  1  0
 20 21  2  0
 21 22  1  0
 22 23  2  0
 23 24  1  0
 24 25  1  0
 25 26  1  0
 26 27  1  0
 27 28  1  0
 28 29  1  0
 29 30  2  0
 30 31  1  0
 31 32  2  0
 32 33  1  0
 33 34  1  0
 33 35  2  0
 35 36  1  0
 26 37  1  0
 37 38  1  0
 38 39  2  0
 23 40  1  0
 40 41  2  0
 41 42  1  0
 19 43  1  0
 43 44  1  0
 12 45  1  0
 45 46  1  0
  5 47  1  0
 47 48  2  0
 48  2  1  0
 46  9  1  0
 44 16  1  0
 41 20  1  0
 38 24  1  0
 35 29  1  0
  1 49  1  0
  1 50  1  0
  1 51  1  0
  3 52  1  0
  4 53  1  0
 10 54  1  0
 10 55  1  0
 11 56  1  0
 11 57  1  0
 15 58  1  0
 15 59  1  0
 17 60  1  0
 17 61  1  0
 18 62  1  0
 18 63  1  0
 21 64  1  0
 22 65  1  0
 25 66  1  0
 25 67  1  0
 26 68  1  1
 27 69  1  0
 27 70  1  0
 30 71  1  0
 31 72  1  0
 32 73  1  0
 40 74  1  0
 43 75  1  0
 43 76  1  0
 44 77  1  0
 44 78  1  0
 45 79  1  0
 45 80  1  0
 46 81  1  0
 46 82  1  0
 47 83  1  0
 48 84  1  0
M  END
>  <UniqueID>  (50) 
49

>  <SMILES>  (50) 
Cc1ccc(S(=O)(=O)N2CCN(C(=O)CN3CCN(c4ccc(N5C[C@@H](COc6cccc(F)c6F)OC5=O)cc4F)CC3)CC2)cc1

>  <Energy>  (50) 
126.13512471666951

>  <Genealogy>  (50) 
Cc1ccc(S(=O)(=O)N2CCN(C(=O)CN3CCN(c4ccc(N5C[C@@H](COc6cccc(F)c6F)OC5=O)cc4F)CC3)CC2)cc1 (chirality)
Cc1ccc(S(=O)(=O)N2CCN(C(=O)CN3CCN(c4ccc(N5C[C@@H](COc6cccc(F)c6F)OC5=O)cc4F)CC3)CC2)cc1 (3D coordinates assigned)
Cc1ccc(S(=O)(=O)N2CCN(C(=O)CN3CCN(c4ccc(N5C[C@@H](COc6cccc(F)c6F)OC5=O)cc4F)CC3)CC2)cc1 (nonaromatic ring conformer: 126.13512471666951 kcal/mol)

>  <smiles>  (50) 
Cc1ccc(S(=O)(=O)N2CCN(C(=O)CN3CCN(c4ccc(N5CC(COc6cccc(F)c6F)OC5=O)cc4F)CC3)CC2)cc1

>  <score_type>  (50) 
oracle

>  <origin>  (50) 
adgpu

>  <m_score__min__energy>  (50) 
-12.35

>  <m_primary>  (50) 
energy

$$$$
